
  -OEChem-04052319163D

 90 98  0     1  0  0  0  0  0999 V2000
  -28.3548  -30.1141   27.5948 C   0  0  0  0  0  0  0  0  0  0  0  0
  -28.0215  -29.1856   26.6139 C   0  0  0  0  0  0  0  0  0  0  0  0
  -24.6272   -8.6498   21.3456 C   0  0  0  0  0  0  0  0  0  0  0  0
  -23.2719  -10.6434   21.5061 C   0  0  0  0  0  0  0  0  0  0  0  0
  -27.4606  -31.1327   27.9215 C   0  0  0  0  0  0  0  0  0  0  0  0
  -26.7932  -29.2746   25.9598 C   0  0  0  0  0  0  0  0  0  0  0  0
  -27.2092  -28.6481   20.9518 C   0  0  0  0  0  0  0  0  0  0  0  0
  -23.8792   -8.0593   22.3642 C   0  0  0  0  0  0  0  0  0  0  0  0
  -22.5239  -10.0529   22.5247 C   0  0  0  0  0  0  0  0  0  0  0  0
  -27.3560  -27.3432   20.4834 C   0  0  0  0  0  0  0  0  0  0  0  0
  -20.8781   -6.5359   22.6884 C   0  0  0  0  0  0  0  0  0  0  0  0
  -20.4678   -5.2149   22.5089 C   0  0  0  0  0  0  0  0  0  0  0  0
  -25.0103  -27.2870   19.9230 C   0  0  0  0  0  0  0  0  0  0  0  0
  -21.6842   -4.5676   24.4935 C   0  0  0  0  0  0  0  0  0  0  0  0
  -27.1717  -16.1422   23.8805 C   0  0  0  0  0  0  0  0  0  0  0  0
  -24.3235   -9.9419   20.9166 C   0  0  0  0  0  0  0  0  0  0  0  0
  -24.8447  -10.4933   18.4811 C   0  0  0  0  0  0  0  0  0  0  0  0
  -26.2248  -31.2399   27.2643 C   0  0  0  0  0  0  0  0  0  0  0  0
  -25.9575  -29.2795   20.9194 C   0  0  0  0  0  0  0  0  0  0  0  0
  -25.8811  -30.2948   26.2789 C   0  0  0  0  0  0  0  0  0  0  0  0
  -24.8509  -28.6009   20.3893 C   0  0  0  0  0  0  0  0  0  0  0  0
  -26.6647  -14.8673   24.0026 C   0  0  0  0  0  0  0  0  0  0  0  0
  -25.7046  -14.6937   22.9754 C   0  0  0  0  0  0  0  0  0  0  0  0
  -22.8276   -8.7608   22.9537 C   0  0  0  0  0  0  0  0  0  0  0  0
  -26.2558  -26.6614   19.9716 C   0  0  0  0  0  0  0  0  0  0  0  0
  -21.6915   -6.8727   23.7703 C   0  0  0  0  0  0  0  0  0  0  0  0
  -20.8708   -4.2307   23.4115 C   0  0  0  0  0  0  0  0  0  0  0  0
  -22.0946   -5.8886   24.6728 C   0  0  0  0  0  0  0  0  0  0  0  0
  -25.0962  -10.5527   19.8649 C   0  0  0  0  0  0  0  0  0  0  0  0
  -25.6542  -15.8677   22.2568 C   0  0  0  0  0  0  0  0  0  0  0  0
  -25.8579  -11.2287   17.9161 C   0  0  0  0  0  0  0  0  0  0  0  0
  -23.7894   -9.8327   17.7699 C   0  0  0  0  0  0  0  0  0  0  0  0
  -23.9832  -30.4603   23.1129 C   0  0  0  0  0  0  0  0  0  0  0  0
  -22.3252  -31.4704   20.5142 C   0  0  0  0  0  0  0  0  0  0  0  0
  -21.6028  -31.0698   17.2030 C   0  0  0  0  0  0  0  0  0  0  0  0
  -29.3196  -15.6582   19.9769 C   0  0  0  0  0  0  0  0  0  0  0  0
  -25.2711  -32.3301   27.6848 C   0  0  0  0  0  0  0  0  0  0  0  0
  -25.8215  -30.6969   21.4038 C   0  0  0  0  0  0  0  0  0  0  0  0
  -23.4898  -29.2413   20.3134 C   0  0  0  0  0  0  0  0  0  0  0  0
  -24.1472  -32.5766   26.6817 C   0  0  0  0  0  0  0  0  0  0  0  0
  -30.4009  -12.5328   18.6580 C   0  0  0  0  0  0  0  0  0  0  0  0
  -23.5311  -31.2546   26.2349 C   0  0  0  0  0  0  0  0  0  0  0  0
  -29.1413  -11.6656   18.6929 C   0  0  0  0  0  0  0  0  0  0  0  0
  -30.4745  -13.4698   19.8617 C   0  0  0  0  0  0  0  0  0  0  0  0
  -28.0216  -13.4453   20.0992 C   0  0  0  0  0  0  0  0  0  0  0  0
  -24.5686  -30.3728   25.5296 C   0  0  1  0  0  0  0  0  0  0  0  0
  -24.3927  -31.0594   21.7972 C   0  0  1  0  0  0  0  0  0  0  0  0
  -27.8749  -12.5233   18.8766 C   0  0  2  0  0  0  0  0  0  0  0  0
  -24.9036  -13.4786   22.7199 C   0  0  0  0  0  0  0  0  0  0  0  0
  -24.8305  -16.2344   21.0853 C   0  0  0  0  0  0  0  0  0  0  0  0
  -25.3107  -14.5480   26.7719 C   0  0  0  0  0  0  0  0  0  0  0  0
  -28.5458  -13.4654   24.8897 C   0  0  0  0  0  0  0  0  0  0  0  0
  -20.1817  -32.0230   15.3674 C   0  0  0  0  0  0  0  0  0  0  0  0
  -19.8763  -30.0837   21.6933 C   0  0  0  0  0  0  0  0  0  0  0  0
  -18.7905  -30.2406   19.4429 C   0  0  0  0  0  0  0  0  0  0  0  0
  -19.4178  -32.3195   20.6707 C   0  0  0  0  0  0  0  0  0  0  0  0
  -23.9733  -31.7961   15.5869 C   0  0  0  0  0  0  0  0  0  0  0  0
  -26.7904  -14.3130   26.4937 C   0  0  0  0  0  0  0  0  0  0  0  0
  -28.0056  -22.2080   20.7273 C   0  0  0  0  0  0  0  0  0  0  0  0
  -27.5530  -20.7462   20.6986 C   0  0  0  0  0  0  0  0  0  0  0  0
  -26.9762  -23.1216   20.0657 C   0  0  0  0  0  0  0  0  0  0  0  0
  -28.5638  -19.8406   21.4102 C   0  0  0  0  0  0  0  0  0  0  0  0
  -26.8249  -18.1502   22.3458 C   0  0  0  0  0  0  0  0  0  0  0  0
  -28.0205  -17.7697   20.0915 C   0  0  0  0  0  0  0  0  0  0  0  0
  -27.3999  -24.5823   20.1275 C   0  0  0  0  0  0  0  0  0  1  0  0
  -27.0573  -13.8733   25.0214 C   0  0  1  0  0  0  0  0  0  0  0  0
  -21.2339  -30.8873   19.6494 C   0  0  1  0  0  0  0  0  0  0  0  0
  -21.5355  -32.0654   16.0590 C   0  0  2  0  0  0  0  0  0  0  0  0
  -28.1118  -18.3667   21.5081 C   0  0  1  0  0  0  0  0  0  0  0  0
  -19.8547  -30.8697   20.3671 C   0  0  0  0  0  0  0  0  0  0  0  0
  -26.1840  -11.2689   20.1610 N   0  0  0  0  0  0  0  0  0  0  0  0
  -26.5504  -16.7409   22.8157 N   0  0  0  0  0  0  0  0  0  0  0  0
  -26.6250  -11.6664   18.9554 N   0  0  0  0  0  0  0  0  0  0  0  0
  -23.4063  -30.6264   20.8054 N   0  0  0  0  0  0  0  0  0  0  0  0
  -29.2438  -14.2556   19.9784 N   0  0  0  0  0  0  0  0  0  0  0  0
  -26.1586  -11.5370   16.6367 N   0  0  0  0  0  0  0  0  0  0  0  0
  -22.8315   -9.1213   18.5051 N   0  0  0  0  0  0  0  0  0  0  0  0
  -24.7854  -30.8327   24.1746 N   0  0  0  0  0  0  0  0  0  0  0  0
  -21.2498  -31.6474   18.4042 N   0  0  0  0  0  0  0  0  0  0  0  0
  -28.1060  -16.3263   20.0850 N   0  0  0  0  0  0  0  0  0  0  0  0
  -22.5890  -31.7655   15.0486 N   0  3  0  0  0  0  0  0  0  0  0  0
  -23.7081   -9.8584   16.5184 O   0  0  0  0  0  0  0  0  0  0  0  0
  -23.0106  -29.7165   23.1615 O   0  0  0  0  0  0  0  0  0  0  0  0
  -22.2257  -32.6342   20.9107 O   0  0  0  0  0  0  0  0  0  0  0  0
  -21.9317  -29.8960   17.0459 O   0  0  0  0  0  0  0  0  0  0  0  0
  -30.3890  -16.2698   19.8806 O   0  0  0  0  0  0  0  0  0  0  0  0
  -22.0974   -8.1848   23.9475 O   0  0  0  0  0  0  0  0  0  0  0  0
  -26.3972  -25.3780   19.5109 O   0  0  0  0  0  0  0  0  0  1  0  0
  -20.4755   -2.9625   23.2399 F   0  0  0  0  0  0  0  0  0  0  0  0
  -22.8750   -6.2063   25.7148 F   0  0  0  0  0  0  0  0  0  0  0  0
  1  2  1  0  0  0  0
  1  5  2  0  0  0  0
  2  6  2  0  0  0  0
  3  8  2  0  0  0  0
  3 16  1  0  0  0  0
  4  9  1  0  0  0  0
  4 16  2  0  0  0  0
  5 18  1  0  0  0  0
  6 20  1  0  0  0  0
  7 10  2  0  0  0  0
  7 19  1  0  0  0  0
  8 24  1  0  0  0  0
  9 24  2  0  0  0  0
 10 25  1  0  0  0  0
 11 12  2  0  0  0  0
 11 26  1  0  0  0  0
 12 27  1  0  0  0  0
 13 21  1  0  0  0  0
 13 25  2  0  0  0  0
 14 27  2  0  0  0  0
 14 28  1  0  0  0  0
 15 22  2  0  0  0  0
 15 72  1  0  0  0  0
 16 29  1  0  0  0  0
 17 29  1  0  0  0  0
 17 31  2  0  0  0  0
 17 32  1  0  0  0  0
 18 20  2  0  0  0  0
 18 37  1  0  0  0  0
 19 21  2  0  0  0  0
 19 38  1  0  0  0  0
 20 46  1  0  0  0  0
 21 39  1  0  0  0  0
 22 23  1  0  0  0  0
 22 66  1  0  0  0  0
 23 30  2  0  0  0  0
 23 49  1  0  0  0  0
 24 87  1  0  0  0  0
 25 88  1  0  0  0  0
 26 28  2  0  0  0  0
 26 87  1  0  0  0  0
 27 89  1  0  0  0  0
 28 90  1  0  0  0  0
 29 71  2  0  0  0  0
 30 50  1  0  0  0  0
 30 72  1  0  0  0  0
 31 73  1  0  0  0  0
 31 76  1  0  0  0  0
 32 77  1  0  0  0  0
 32 82  2  0  0  0  0
 33 47  1  0  0  0  0
 33 78  1  0  0  0  0
 33 83  2  0  0  0  0
 34 67  1  0  0  0  0
 34 74  1  0  0  0  0
 34 84  2  0  0  0  0
 35 68  1  0  0  0  0
 35 79  1  0  0  0  0
 35 85  2  0  0  0  0
 36 75  1  0  0  0  0
 36 80  1  0  0  0  0
 36 86  2  0  0  0  0
 37 40  1  0  0  0  0
 38 47  1  0  0  0  0
 39 74  1  0  0  0  0
 40 42  1  0  0  0  0
 41 43  1  0  0  0  0
 41 44  1  0  0  0  0
 42 46  1  0  0  0  0
 43 48  1  0  0  0  0
 44 75  1  0  0  0  0
 45 48  1  0  0  0  0
 45 75  1  0  0  0  0
 46 78  1  0  0  0  0
 47 74  1  0  0  0  0
 48 73  1  0  0  0  0
 51 58  1  0  0  0  0
 52 66  1  0  0  0  0
 53 68  1  0  0  0  0
 54 70  1  0  0  0  0
 55 70  1  0  0  0  0
 56 70  1  0  0  0  0
 57 81  1  0  0  0  0
 58 66  1  0  0  0  0
 59 60  1  0  0  0  0
 59 61  1  0  0  0  0
 60 62  1  0  0  0  0
 61 65  1  0  0  0  0
 62 69  1  0  0  0  0
 63 69  1  0  0  0  0
 63 72  1  0  0  0  0
 64 69  1  0  0  0  0
 64 80  1  0  0  0  0
 65 88  1  0  0  0  0
 67 70  1  0  0  0  0
 67 79  1  0  0  0  0
 68 81  1  0  0  0  0
 71 73  1  0  0  0  0
M  CHG  1  81   1
M  ISO  4  36 100  65 101  80 100  88 101
M  END
> <Batch ID>
0093

> <Smiles>
CCC(C)c1cn(CC(CCCC[101CH2:1][101O:1]c2ccc3c(c2)CN(C(=O)C(NC(=O)C(C)NC)C(C)(C)C)C(C(=O)NC2CCCc4ccccc42)C3)C[100NH:0][100C:0](=O)N2CCCC(n3nc(-c4ccc(Oc5ccc(F)cc5F)cc4)c(C(N)=O)c3N)C2)c(C)c1C

> <Shape>
0.263

> <Color>
0.099

> <Negative vol penalty>
0.000

$$$$

  -OEChem-04052319163D

 84 92  0     1  0  0  0  0  0999 V2000
  -32.8590  -21.5450   22.0109 C   0  0  0  0  0  0  0  0  0  0  0  0
  -31.5598  -21.9506   22.2992 C   0  0  0  0  0  0  0  0  0  0  0  0
  -29.5920  -26.6638   18.6756 C   0  0  0  0  0  0  0  0  0  0  0  0
  -29.0099  -25.4820   20.7008 C   0  0  0  0  0  0  0  0  0  0  0  0
  -33.0900  -20.6230   20.9909 C   0  0  0  0  0  0  0  0  0  0  0  0
  -30.4910  -21.4350   21.5670 C   0  0  0  0  0  0  0  0  0  0  0  0
  -24.8588  -20.2126   23.6382 C   0  0  0  0  0  0  0  0  0  0  0  0
  -30.8975  -26.1817   18.7695 C   0  0  0  0  0  0  0  0  0  0  0  0
  -30.3154  -24.9998   20.7947 C   0  0  0  0  0  0  0  0  0  0  0  0
  -23.6616  -20.9244   23.5763 C   0  0  0  0  0  0  0  0  0  0  0  0
  -34.2897  -24.9703   18.2785 C   0  0  0  0  0  0  0  0  0  0  0  0
  -34.8833  -24.4754   17.1174 C   0  0  0  0  0  0  0  0  0  0  0  0
  -23.0198  -19.6635   21.6225 C   0  0  0  0  0  0  0  0  0  0  0  0
  -33.1406  -22.8119   16.9354 C   0  0  0  0  0  0  0  0  0  0  0  0
  -19.0607  -25.1117   23.8591 C   0  0  0  0  0  0  0  0  0  0  0  0
  -28.6482  -26.3140   19.6413 C   0  0  0  0  0  0  0  0  0  0  0  0
  -26.2154  -26.2079   18.8812 C   0  0  0  0  0  0  0  0  0  0  0  0
  -32.0226  -20.0886   20.2522 C   0  0  0  0  0  0  0  0  0  0  0  0
  -25.1508  -19.2267   22.6846 C   0  0  0  0  0  0  0  0  0  0  0  0
  -30.7080  -20.5060   20.5353 C   0  0  0  0  0  0  0  0  0  0  0  0
  -24.2203  -18.9388   21.6760 C   0  0  0  0  0  0  0  0  0  0  0  0
  -31.2592  -25.3497   19.8290 C   0  0  0  0  0  0  0  0  0  0  0  0
  -22.7432  -20.6519   22.5667 C   0  0  0  0  0  0  0  0  0  0  0  0
  -33.1216  -24.3859   18.7682 C   0  0  0  0  0  0  0  0  0  0  0  0
  -34.3088  -23.3963   16.4458 C   0  0  0  0  0  0  0  0  0  0  0  0
  -32.5471  -23.3068   18.0966 C   0  0  0  0  0  0  0  0  0  0  0  0
  -27.2997  -26.8122   19.5453 C   0  0  0  0  0  0  0  0  0  0  0  0
  -19.6844  -26.3062   23.6136 C   0  0  0  0  0  0  0  0  0  0  0  0
  -19.4396  -24.3069   22.7707 C   0  0  0  0  0  0  0  0  0  0  0  0
  -25.1653  -27.0698   19.0833 C   0  0  0  0  0  0  0  0  0  0  0  0
  -19.6456  -27.4817   24.3960 C   0  0  0  0  0  0  0  0  0  0  0  0
  -26.1623  -24.9773   18.1473 C   0  0  0  0  0  0  0  0  0  0  0  0
  -19.7592  -28.7873   23.9642 C   0  0  0  0  0  0  0  0  0  0  0  0
  -27.4155  -18.8297   20.4898 C   0  0  0  0  0  0  0  0  0  0  0  0
  -26.0008  -15.9347   20.1160 C   0  0  0  0  0  0  0  0  0  0  0  0
  -23.1986  -14.0151   20.4467 C   0  0  0  0  0  0  0  0  0  0  0  0
  -22.1582  -30.3779   22.4238 C   0  0  0  0  0  0  0  0  0  0  0  0
  -32.3258  -19.1304   19.1277 C   0  0  0  0  0  0  0  0  0  0  0  0
  -26.4348  -18.4493   22.7810 C   0  0  0  0  0  0  0  0  0  0  0  0
  -24.4771  -17.8761   20.6400 C   0  0  0  0  0  0  0  0  0  0  0  0
  -31.1057  -18.3486   18.6479 C   0  0  0  0  0  0  0  0  0  0  0  0
  -25.0780  -31.7742   20.9400 C   0  0  0  0  0  0  0  0  0  0  0  0
  -29.9146  -19.2823   18.4571 C   0  0  0  0  0  0  0  0  0  0  0  0
  -25.8293  -30.5578   20.3960 C   0  0  0  0  0  0  0  0  0  0  0  0
  -24.3799  -31.4616   22.2617 C   0  0  0  0  0  0  0  0  0  0  0  0
  -24.2412  -29.0695   21.6851 C   0  0  0  0  0  0  0  0  0  0  0  0
  -29.5202  -19.9507   19.7797 C   0  0  1  0  0  0  0  0  0  0  0  0
  -26.8553  -17.8234   21.4547 C   0  0  1  0  0  0  0  0  0  0  0  0
  -24.9152  -29.3198   20.3252 C   0  0  2  0  0  0  0  0  0  0  0  0
  -19.6996  -29.9477   24.9244 C   0  0  0  0  0  0  0  0  0  0  0  0
  -17.5336  -22.7491   22.2908 C   0  0  0  0  0  0  0  0  0  0  0  0
  -22.3373  -11.6969   20.0206 C   0  0  0  0  0  0  0  0  0  0  0  0
  -25.7804  -16.5664   17.1391 C   0  0  0  0  0  0  0  0  0  0  0  0
  -24.1111  -14.7111   16.9401 C   0  0  0  0  0  0  0  0  0  0  0  0
  -26.4471  -14.2129   17.6595 C   0  0  0  0  0  0  0  0  0  0  0  0
  -22.6514  -13.5650   23.3202 C   0  0  0  0  0  0  0  0  0  0  0  0
  -19.9998  -29.1570   22.5238 C   0  0  0  0  0  0  0  0  0  0  0  0
  -19.5123  -21.8945   23.6031 C   0  0  0  0  0  0  0  0  0  0  0  0
  -21.0302  -21.8153   23.7365 C   0  0  0  0  0  0  0  0  0  1  0  0
  -19.0484  -22.8646   22.4993 C   0  0  2  0  0  0  0  0  0  0  0  0
  -24.8834  -15.3937   19.2571 C   0  0  1  0  0  0  0  0  0  0  0  0
  -22.9902  -12.6289   21.0295 C   0  0  2  0  0  0  0  0  0  0  0  0
  -25.3012  -15.2425   17.7672 C   0  0  0  0  0  0  0  0  0  0  0  0
  -26.9689  -27.9688   20.1257 N   0  0  0  0  0  0  0  0  0  0  0  0
  -20.2373  -24.9529   21.9156 N   0  0  0  0  0  0  0  0  0  0  0  0
  -25.6650  -28.0981   19.8269 N   0  0  0  0  0  0  0  0  0  0  0  0
  -25.7495  -17.1476   20.7729 N   0  0  0  0  0  0  0  0  0  0  0  0
  -23.5273  -30.2781   22.1263 N   0  0  0  0  0  0  0  0  0  0  0  0
  -23.8726  -27.0408   18.6957 N   0  0  0  0  0  0  0  0  0  0  0  0
  -27.3325  -24.2139   18.0372 N   0  0  0  0  0  0  0  0  0  0  0  0
  -28.7777  -19.0275   20.6109 N   0  0  0  0  0  0  0  0  0  0  0  0
  -24.4508  -14.1502   19.8856 N   0  0  0  0  0  0  0  0  0  0  0  0
  -21.4210  -29.2111   22.2630 N   0  0  0  0  0  0  0  0  0  0  0  0
  -22.1187  -12.7000   22.2363 N   0  3  0  0  0  0  0  0  0  0  0  0
  -25.1122  -24.5750   17.5912 O   0  0  0  0  0  0  0  0  0  0  0  0
  -26.6675  -19.3846   19.6933 O   0  0  0  0  0  0  0  0  0  0  0  0
  -27.0551  -15.3007   20.2066 O   0  0  0  0  0  0  0  0  0  0  0  0
  -22.3354  -14.8892   20.4822 O   0  0  0  0  0  0  0  0  0  0  0  0
  -21.6308  -31.4303   22.7995 O   0  0  0  0  0  0  0  0  0  0  0  0
  -20.3897  -26.2240   22.4565 O   0  0  0  0  0  0  0  0  0  0  0  0
  -32.5330  -24.8788   19.9207 O   0  0  0  0  0  0  0  0  0  0  0  0
  -21.5742  -21.3457   22.5036 O   0  0  0  0  0  0  0  0  0  1  0  0
  -34.8781  -22.9222   15.3299 F   0  0  0  0  0  0  0  0  0  0  0  0
  -31.4243  -22.7420   18.5616 F   0  0  0  0  0  0  0  0  0  0  0  0
  1  2  1  0  0  0  0
  1  5  2  0  0  0  0
  2  6  2  0  0  0  0
  3  8  2  0  0  0  0
  3 16  1  0  0  0  0
  4  9  1  0  0  0  0
  4 16  2  0  0  0  0
  5 18  1  0  0  0  0
  6 20  1  0  0  0  0
  7 10  2  0  0  0  0
  7 19  1  0  0  0  0
  8 22  1  0  0  0  0
  9 22  2  0  0  0  0
 10 23  1  0  0  0  0
 11 12  2  0  0  0  0
 11 24  1  0  0  0  0
 12 25  1  0  0  0  0
 13 21  1  0  0  0  0
 13 23  2  0  0  0  0
 14 25  2  0  0  0  0
 14 26  1  0  0  0  0
 15 28  2  0  0  0  0
 15 29  1  0  0  0  0
 16 27  1  0  0  0  0
 17 27  1  0  0  0  0
 17 30  2  0  0  0  0
 17 32  1  0  0  0  0
 18 20  2  0  0  0  0
 18 38  1  0  0  0  0
 19 21  2  0  0  0  0
 19 39  1  0  0  0  0
 20 47  1  0  0  0  0
 21 40  1  0  0  0  0
 22 81  1  0  0  0  0
 23 82  1  0  0  0  0
 24 26  2  0  0  0  0
 24 81  1  0  0  0  0
 25 83  1  0  0  0  0
 26 84  1  0  0  0  0
 27 64  2  0  0  0  0
 28 31  1  0  0  0  0
 28 80  1  0  0  0  0
 29 60  1  0  0  0  0
 29 65  2  0  0  0  0
 30 66  1  0  0  0  0
 30 69  1  0  0  0  0
 31 33  2  0  0  0  0
 32 70  1  0  0  0  0
 32 75  2  0  0  0  0
 33 50  1  0  0  0  0
 33 57  1  0  0  0  0
 34 48  1  0  0  0  0
 34 71  1  0  0  0  0
 34 76  2  0  0  0  0
 35 61  1  0  0  0  0
 35 67  1  0  0  0  0
 35 77  2  0  0  0  0
 36 62  1  0  0  0  0
 36 72  1  0  0  0  0
 36 78  2  0  0  0  0
 37 68  1  0  0  0  0
 37 73  1  0  0  0  0
 37 79  2  0  0  0  0
 38 41  1  0  0  0  0
 39 48  1  0  0  0  0
 40 67  1  0  0  0  0
 41 43  1  0  0  0  0
 42 44  1  0  0  0  0
 42 45  1  0  0  0  0
 43 47  1  0  0  0  0
 44 49  1  0  0  0  0
 45 68  1  0  0  0  0
 46 49  1  0  0  0  0
 46 68  1  0  0  0  0
 47 71  1  0  0  0  0
 48 67  1  0  0  0  0
 49 66  1  0  0  0  0
 51 60  1  0  0  0  0
 52 62  1  0  0  0  0
 53 63  1  0  0  0  0
 54 63  1  0  0  0  0
 55 63  1  0  0  0  0
 56 74  1  0  0  0  0
 57 73  1  0  0  0  0
 58 59  1  0  0  0  0
 58 60  1  0  0  0  0
 59 82  1  0  0  0  0
 61 63  1  0  0  0  0
 61 72  1  0  0  0  0
 62 74  1  0  0  0  0
 64 66  1  0  0  0  0
 65 80  1  0  0  0  0
M  CHG  1  74   1
M  ISO  4  37 100  59 101  73 100  82 101
M  END
> <Batch ID>
0093

> <Smiles>
CNC(C)C(=O)NC(C(=O)N1Cc2cc([101O:1][101CH2:1]CC(C)c3cc(C=C(C)C[100NH:0][100C:0](=O)N4CCCC(n5nc(-c6ccc(Oc7ccc(F)cc7F)cc6)c(C(N)=O)c5N)C4)on3)ccc2CC1C(=O)NC1CCCc2ccccc21)C(C)(C)C

> <Shape>
0.211

> <Color>
0.077

> <Negative vol penalty>
0.000

$$$$

  -OEChem-04052319163D

 84 92  0     1  0  0  0  0  0999 V2000
  -24.2170  -24.0626   21.9808 C   0  0  0  0  0  0  0  0  0  0  0  0
  -25.1691  -23.1172   22.3483 C   0  0  0  0  0  0  0  0  0  0  0  0
  -22.9296  -28.8972   21.2192 C   0  0  0  0  0  0  0  0  0  0  0  0
  -24.1406  -27.8839   23.0478 C   0  0  0  0  0  0  0  0  0  0  0  0
  -22.8700  -23.7074   21.9224 C   0  0  0  0  0  0  0  0  0  0  0  0
  -24.7747  -21.8162   22.6587 C   0  0  0  0  0  0  0  0  0  0  0  0
  -27.7533  -18.3213   20.5238 C   0  0  0  0  0  0  0  0  0  0  0  0
  -21.8473  -29.1335   22.0669 C   0  0  0  0  0  0  0  0  0  0  0  0
  -23.0584  -28.1203   23.8955 C   0  0  0  0  0  0  0  0  0  0  0  0
  -28.9879  -18.0830   21.1261 C   0  0  0  0  0  0  0  0  0  0  0  0
  -19.2803  -27.3693   23.3793 C   0  0  0  0  0  0  0  0  0  0  0  0
  -18.0056  -27.0653   22.9018 C   0  0  0  0  0  0  0  0  0  0  0  0
  -28.0800  -16.1212   22.1969 C   0  0  0  0  0  0  0  0  0  0  0  0
  -17.3494  -29.3734   23.1839 C   0  0  0  0  0  0  0  0  0  0  0  0
  -32.1334  -22.2515   20.2941 C   0  0  0  0  0  0  0  0  0  0  0  0
  -24.0762  -28.2723   21.7097 C   0  0  0  0  0  0  0  0  0  0  0  0
  -26.2840  -28.8836   20.5874 C   0  0  0  0  0  0  0  0  0  0  0  0
  -22.4599  -22.3989   22.2230 C   0  0  0  0  0  0  0  0  0  0  0  0
  -26.6679  -17.4660   20.7626 C   0  0  0  0  0  0  0  0  0  0  0  0
  -23.4208  -21.4436   22.6057 C   0  0  0  0  0  0  0  0  0  0  0  0
  -26.8334  -16.3494   21.5944 C   0  0  0  0  0  0  0  0  0  0  0  0
  -21.9117  -28.7451   23.4050 C   0  0  0  0  0  0  0  0  0  0  0  0
  -29.1506  -16.9844   21.9651 C   0  0  0  0  0  0  0  0  0  0  0  0
  -19.5897  -28.6754   23.7593 C   0  0  0  0  0  0  0  0  0  0  0  0
  -17.0401  -28.0673   22.8040 C   0  0  0  0  0  0  0  0  0  0  0  0
  -18.6242  -29.6774   23.6615 C   0  0  0  0  0  0  0  0  0  0  0  0
  -25.1942  -28.0274   20.8344 C   0  0  0  0  0  0  0  0  0  0  0  0
  -27.0646  -28.1960   19.6905 C   0  0  0  0  0  0  0  0  0  0  0  0
  -32.4692  -22.9252   19.1538 C   0  0  0  0  0  0  0  0  0  0  0  0
  -34.1790  -21.6355   19.7143 C   0  0  0  0  0  0  0  0  0  0  0  0
  -26.5656  -30.1842   21.1210 C   0  0  0  0  0  0  0  0  0  0  0  0
  -23.7861  -17.8075   22.0596 C   0  0  0  0  0  0  0  0  0  0  0  0
  -23.4027  -14.7446   21.0623 C   0  0  0  0  0  0  0  0  0  0  0  0
  -24.8489  -11.7787   20.1914 C   0  0  0  0  0  0  0  0  0  0  0  0
  -29.5043  -23.4268   18.0395 C   0  0  0  0  0  0  0  0  0  0  0  0
  -20.9874  -22.0744   22.1918 C   0  0  0  0  0  0  0  0  0  0  0  0
  -25.3501  -17.7219   20.0841 C   0  0  0  0  0  0  0  0  0  0  0  0
  -25.7053  -15.3896   21.8671 C   0  0  0  0  0  0  0  0  0  0  0  0
  -20.6940  -20.5765   22.1728 C   0  0  0  0  0  0  0  0  0  0  0  0
  -26.1264  -24.0131   17.0247 C   0  0  0  0  0  0  0  0  0  0  0  0
  -21.5382  -19.8539   23.2177 C   0  0  0  0  0  0  0  0  0  0  0  0
  -25.6616  -25.1588   17.9216 C   0  0  0  0  0  0  0  0  0  0  0  0
  -27.0667  -23.0720   17.7706 C   0  0  0  0  0  0  0  0  0  0  0  0
  -27.7989  -24.9002   19.2662 C   0  0  0  0  0  0  0  0  0  0  0  0
  -23.0349  -20.0157   22.9257 C   0  0  1  0  0  0  0  0  0  0  0  0
  -24.1714  -17.0754   20.8052 C   0  0  1  0  0  0  0  0  0  0  0  0
  -26.8620  -25.8894   18.5473 C   0  0  2  0  0  0  0  0  0  0  0  0
  -35.5066  -20.9735   19.6926 C   0  0  0  0  0  0  0  0  0  0  0  0
  -24.2762   -9.4478   19.4592 C   0  0  0  0  0  0  0  0  0  0  0  0
  -34.2887  -18.1855   23.4435 C   0  0  0  0  0  0  0  0  0  0  0  0
  -22.6000  -14.0461   23.9220 C   0  0  0  0  0  0  0  0  0  0  0  0
  -22.9667  -11.6337   23.3616 C   0  0  0  0  0  0  0  0  0  0  0  0
  -21.2207  -12.9419   22.1520 C   0  0  0  0  0  0  0  0  0  0  0  0
  -26.2902  -12.1057   17.6273 C   0  0  0  0  0  0  0  0  0  0  0  0
  -33.0105  -19.0656   21.4755 C   0  0  0  0  0  0  0  0  0  0  0  0
  -33.2816  -20.5393   21.8096 C   0  0  0  0  0  0  0  0  0  0  0  0
  -32.6491  -16.6571   22.2515 C   0  0  0  0  0  0  0  0  0  0  0  0
  -23.6616  -13.3843   21.6634 C   0  0  1  0  0  0  0  0  0  0  0  0
  -24.6230  -10.8575   19.0062 C   0  0  2  0  0  0  0  0  0  0  0  0
  -32.9557  -18.1035   22.6849 C   0  0  1  0  0  0  0  0  0  0  0  0
  -22.6331  -13.0205   22.7714 C   0  0  0  0  0  0  0  0  0  0  0  0
  -25.2719  -26.8832   20.1496 N   0  0  0  0  0  0  0  0  0  0  0  0
  -33.2093  -21.4607   20.6180 N   0  0  0  0  0  0  0  0  0  0  0  0
  -26.4198  -27.0158   19.4634 N   0  0  0  0  0  0  0  0  0  0  0  0
  -33.7401  -22.5249   18.8178 N   0  3  0  0  0  0  0  0  0  0  0  0
  -24.4344  -15.6860   21.1854 N   0  0  0  0  0  0  0  0  0  0  0  0
  -28.1889  -23.8045   18.3636 N   0  0  0  0  0  0  0  0  0  0  0  0
  -28.2326  -28.4918   19.0818 N   0  0  0  0  0  0  0  0  0  0  0  0
  -25.6583  -30.7439   22.0310 N   0  0  0  0  0  0  0  0  0  0  0  0
  -31.8035  -23.8599   18.3516 N   0  0  0  0  0  0  0  0  0  0  0  0
  -23.4398  -19.1295   21.8555 N   0  0  0  0  0  0  0  0  0  0  0  0
  -23.6954  -12.4448   20.5478 N   0  0  0  0  0  0  0  0  0  0  0  0
  -30.5039  -24.1775   18.6374 N   0  0  0  0  0  0  0  0  0  0  0  0
  -31.3854  -16.5577   21.5353 N   0  0  0  0  0  0  0  0  0  1  0  0
  -25.8484  -10.7914   18.1606 N   0  3  0  0  0  0  0  0  0  0  0  0
  -27.5830  -30.8380   20.7879 O   0  0  0  0  0  0  0  0  0  0  0  0
  -23.8005  -17.2162   23.1328 O   0  0  0  0  0  0  0  0  0  0  0  0
  -22.3275  -14.9617   20.4979 O   0  0  0  0  0  0  0  0  0  0  0  0
  -25.9388  -11.8930   20.7480 O   0  0  0  0  0  0  0  0  0  0  0  0
  -29.7593  -22.4948   17.2686 O   0  0  0  0  0  0  0  0  0  0  0  0
  -20.8560  -28.9758   24.2325 O   0  0  0  0  0  0  0  0  0  0  0  0
  -30.3544  -16.7499   22.5547 O   0  0  0  0  0  0  0  0  0  1  0  0
  -15.8164  -27.7756   22.3439 F   0  0  0  0  0  0  0  0  0  0  0  0
  -18.9159  -30.9341   24.0239 F   0  0  0  0  0  0  0  0  0  0  0  0
  1  2  1  0  0  0  0
  1  5  2  0  0  0  0
  2  6  2  0  0  0  0
  3  8  2  0  0  0  0
  3 16  1  0  0  0  0
  4  9  1  0  0  0  0
  4 16  2  0  0  0  0
  5 18  1  0  0  0  0
  6 20  1  0  0  0  0
  7 10  2  0  0  0  0
  7 19  1  0  0  0  0
  8 22  1  0  0  0  0
  9 22  2  0  0  0  0
 10 23  1  0  0  0  0
 11 12  2  0  0  0  0
 11 24  1  0  0  0  0
 12 25  1  0  0  0  0
 13 21  1  0  0  0  0
 13 23  2  0  0  0  0
 14 25  2  0  0  0  0
 14 26  1  0  0  0  0
 15 29  2  0  0  0  0
 15 63  1  0  0  0  0
 16 27  1  0  0  0  0
 17 27  1  0  0  0  0
 17 28  2  0  0  0  0
 17 31  1  0  0  0  0
 18 20  2  0  0  0  0
 18 36  1  0  0  0  0
 19 21  2  0  0  0  0
 19 37  1  0  0  0  0
 20 45  1  0  0  0  0
 21 38  1  0  0  0  0
 22 81  1  0  0  0  0
 23 82  1  0  0  0  0
 24 26  2  0  0  0  0
 24 81  1  0  0  0  0
 25 83  1  0  0  0  0
 26 84  1  0  0  0  0
 27 62  2  0  0  0  0
 28 64  1  0  0  0  0
 28 68  1  0  0  0  0
 29 65  1  0  0  0  0
 29 70  1  0  0  0  0
 30 48  1  0  0  0  0
 30 63  1  0  0  0  0
 30 65  2  0  0  0  0
 31 69  1  0  0  0  0
 31 76  2  0  0  0  0
 32 46  1  0  0  0  0
 32 71  1  0  0  0  0
 32 77  2  0  0  0  0
 33 58  1  0  0  0  0
 33 66  1  0  0  0  0
 33 78  2  0  0  0  0
 34 59  1  0  0  0  0
 34 72  1  0  0  0  0
 34 79  2  0  0  0  0
 35 67  1  0  0  0  0
 35 73  1  0  0  0  0
 35 80  2  0  0  0  0
 36 39  1  0  0  0  0
 37 46  1  0  0  0  0
 38 66  1  0  0  0  0
 39 41  1  0  0  0  0
 40 42  1  0  0  0  0
 40 43  1  0  0  0  0
 41 45  1  0  0  0  0
 42 47  1  0  0  0  0
 43 67  1  0  0  0  0
 44 47  1  0  0  0  0
 44 67  1  0  0  0  0
 45 71  1  0  0  0  0
 46 66  1  0  0  0  0
 47 64  1  0  0  0  0
 49 59  1  0  0  0  0
 50 60  1  0  0  0  0
 51 61  1  0  0  0  0
 52 61  1  0  0  0  0
 53 61  1  0  0  0  0
 54 75  1  0  0  0  0
 55 56  1  0  0  0  0
 55 60  1  0  0  0  0
 56 63  1  0  0  0  0
 57 60  1  0  0  0  0
 57 74  1  0  0  0  0
 58 61  1  0  0  0  0
 58 72  1  0  0  0  0
 59 75  1  0  0  0  0
 62 64  1  0  0  0  0
 70 73  1  0  0  0  0
 74 82  1  0  0  0  0
M  CHG  2  65   1  75   1
M  ISO  4  35 100  73 100  74 101  82 101
M  END
> <Batch ID>
0093

> <Smiles>
CNC(C)C(=O)NC(C(=O)N1Cc2cc([101O:1][101NH:1]CC(C)CCn3cc(N[100NH:0][100C:0](=O)N4CCCC(n5nc(-c6ccc(Oc7ccc(F)cc7F)cc6)c(C(N)=O)c5N)C4)nc3C)ccc2CC1C(=O)NC1CCCc2ccccc21)C(C)(C)C

> <Shape>
0.226

> <Color>
0.056

> <Negative vol penalty>
0.000

$$$$

  -OEChem-04052319163D

 83 91  0     1  0  0  0  0  0999 V2000
  -24.4157  -35.3860   20.4659 C   0  0  0  0  0  0  0  0  0  0  0  0
  -25.2248  -34.2590   20.5697 C   0  0  0  0  0  0  0  0  0  0  0  0
  -24.1664  -14.0966   20.0522 C   0  0  0  0  0  0  0  0  0  0  0  0
  -26.3873  -14.2195   20.9956 C   0  0  0  0  0  0  0  0  0  0  0  0
  -23.2035  -35.4380   21.1527 C   0  0  0  0  0  0  0  0  0  0  0  0
  -24.8226  -33.1839   21.3614 C   0  0  0  0  0  0  0  0  0  0  0  0
  -25.5177  -28.7197   19.0738 C   0  0  0  0  0  0  0  0  0  0  0  0
  -24.2671  -12.7065   19.9963 C   0  0  0  0  0  0  0  0  0  0  0  0
  -26.4879  -12.8294   20.9397 C   0  0  0  0  0  0  0  0  0  0  0  0
  -26.8152  -28.2100   19.0533 C   0  0  0  0  0  0  0  0  0  0  0  0
  -23.9908  -10.1011   22.1336 C   0  0  0  0  0  0  0  0  0  0  0  0
  -22.8975   -9.3539   22.5719 C   0  0  0  0  0  0  0  0  0  0  0  0
  -26.2681  -26.7597   20.9017 C   0  0  0  0  0  0  0  0  0  0  0  0
  -30.5751  -23.7041   18.5515 C   0  0  0  0  0  0  0  0  0  0  0  0
  -22.7033   -8.3533   20.3814 C   0  0  0  0  0  0  0  0  0  0  0  0
  -25.2265  -14.8531   20.5518 C   0  0  0  0  0  0  0  0  0  0  0  0
  -24.6280  -17.0639   21.6752 C   0  0  0  0  0  0  0  0  0  0  0  0
  -22.7817  -34.3591   21.9455 C   0  0  0  0  0  0  0  0  0  0  0  0
  -24.5873  -28.2603   20.0171 C   0  0  0  0  0  0  0  0  0  0  0  0
  -23.6043  -33.2221   22.0606 C   0  0  0  0  0  0  0  0  0  0  0  0
  -24.9587  -27.2634   20.9304 C   0  0  0  0  0  0  0  0  0  0  0  0
  -30.6032  -22.4235   19.0924 C   0  0  0  0  0  0  0  0  0  0  0  0
  -25.4278  -12.0729   20.4400 C   0  0  0  0  0  0  0  0  0  0  0  0
  -27.1914  -27.2319   19.9692 C   0  0  0  0  0  0  0  0  0  0  0  0
  -24.4402   -9.9745   20.8192 C   0  0  0  0  0  0  0  0  0  0  0  0
  -22.2538   -8.4799   21.6958 C   0  0  0  0  0  0  0  0  0  0  0  0
  -23.7965   -9.1006   19.9431 C   0  0  0  0  0  0  0  0  0  0  0  0
  -30.6331  -22.2584   20.4727 C   0  0  0  0  0  0  0  0  0  0  0  0
  -25.1234  -16.2891   20.6093 C   0  0  0  0  0  0  0  0  0  0  0  0
  -30.5782  -24.7781   19.4269 C   0  0  0  0  0  0  0  0  0  0  0  0
  -30.6338  -23.3971   21.2621 C   0  0  0  0  0  0  0  0  0  0  0  0
  -24.7424  -18.3612   21.2389 C   0  0  0  0  0  0  0  0  0  0  0  0
  -24.1107  -16.6480   22.9461 C   0  0  0  0  0  0  0  0  0  0  0  0
  -22.9486  -29.6006   22.3882 C   0  0  0  0  0  0  0  0  0  0  0  0
  -21.5395  -26.6829   22.5430 C   0  0  0  0  0  0  0  0  0  0  0  0
  -21.7310  -23.3356   21.9062 C   0  0  0  0  0  0  0  0  0  0  0  0
  -28.3112  -21.0151   17.2300 C   0  0  0  0  0  0  0  0  0  0  0  0
  -21.4855  -34.4807   22.7069 C   0  0  0  0  0  0  0  0  0  0  0  0
  -23.1838  -28.8012   20.0088 C   0  0  0  0  0  0  0  0  0  0  0  0
  -23.9915  -26.7219   21.9502 C   0  0  0  0  0  0  0  0  0  0  0  0
  -20.9565  -33.1462   23.2261 C   0  0  0  0  0  0  0  0  0  0  0  0
  -24.7510  -20.9777   17.2334 C   0  0  0  0  0  0  0  0  0  0  0  0
  -22.0756  -32.3506   23.8907 C   0  0  0  0  0  0  0  0  0  0  0  0
  -24.3980  -19.8418   18.1951 C   0  0  0  0  0  0  0  0  0  0  0  0
  -25.9996  -20.6567   16.4149 C   0  0  0  0  0  0  0  0  0  0  0  0
  -26.8287  -19.1418   18.1730 C   0  0  0  0  0  0  0  0  0  0  0  0
  -23.1909  -32.0256   22.8897 C   0  0  1  0  0  0  0  0  0  0  0  0
  -22.4696  -28.6301   21.3459 C   0  0  1  0  0  0  0  0  0  0  0  0
  -25.6087  -19.4430   19.0603 C   0  0  2  0  0  0  0  0  0  0  0  0
  -29.3060  -22.9288   23.3367 C   0  0  0  0  0  0  0  0  0  0  0  0
  -20.4400  -21.2012   22.1803 C   0  0  0  0  0  0  0  0  0  0  0  0
  -22.2582  -26.6318   25.5080 C   0  0  0  0  0  0  0  0  0  0  0  0
  -21.8214  -24.1666   25.4999 C   0  0  0  0  0  0  0  0  0  0  0  0
  -19.9761  -25.7602   24.9725 C   0  0  0  0  0  0  0  0  0  0  0  0
  -21.6291  -22.8858   18.9828 C   0  0  0  0  0  0  0  0  0  0  0  0
  -30.6002  -21.2575   18.1579 C   0  0  0  0  0  0  0  0  0  0  0  0
  -30.5480  -26.1828   18.8753 C   0  0  0  0  0  0  0  0  0  0  0  0
  -30.6651  -23.3014   22.7532 C   0  0  0  0  0  0  0  0  0  0  0  0
  -29.1265  -26.7032   18.6918 C   0  0  0  0  0  0  0  0  0  1  0  0
  -21.8214  -25.3975   23.2827 C   0  0  1  0  0  0  0  0  0  0  0  0
  -20.7473  -22.3747   21.2631 C   0  0  2  0  0  0  0  0  0  0  0  0
  -21.4883  -25.5004   24.7980 C   0  0  0  0  0  0  0  0  0  0  0  0
  -25.5227  -17.0323   19.5737 N   0  0  0  0  0  0  0  0  0  0  0  0
  -30.6069  -24.6572   20.7730 N   0  0  0  0  0  0  0  0  0  0  0  0
  -25.2782  -18.2875   19.9869 N   0  0  0  0  0  0  0  0  0  0  0  0
  -22.6327  -27.2870   21.9060 N   0  0  0  0  0  0  0  0  0  0  0  0
  -27.1112  -20.2879   17.2948 N   0  0  0  0  0  0  0  0  0  0  0  0
  -24.4359  -19.5464   21.8080 N   0  0  0  0  0  0  0  0  0  0  0  0
  -24.0642  -15.2767   23.2322 N   0  0  0  0  0  0  0  0  0  0  0  0
  -22.7971  -30.9275   22.0332 N   0  0  0  0  0  0  0  0  0  0  0  0
  -21.0864  -24.3520   22.5790 N   0  0  0  0  0  0  0  0  0  0  0  0
  -29.3115  -20.6040   18.1024 N   0  0  0  0  0  0  0  0  0  0  0  0
  -21.3031  -21.8412   19.9874 N   0  3  0  0  0  0  0  0  0  0  0  0
  -23.6865  -17.4672   23.7961 O   0  0  0  0  0  0  0  0  0  0  0  0
  -23.4192  -29.1770   23.4373 O   0  0  0  0  0  0  0  0  0  0  0  0
  -20.3902  -27.1307   22.5249 O   0  0  0  0  0  0  0  0  0  0  0  0
  -22.9492  -23.1962   21.8233 O   0  0  0  0  0  0  0  0  0  0  0  0
  -28.4769  -21.9640   16.4560 O   0  0  0  0  0  0  0  0  0  0  0  0
  -25.5262  -10.7165   20.3859 O   0  0  0  0  0  0  0  0  0  0  0  0
  -28.4574  -26.7331   19.9518 O   0  0  0  0  0  0  0  0  0  1  0  0
  -21.2050   -7.7613   22.1172 F   0  0  0  0  0  0  0  0  0  0  0  0
  -24.2245   -8.9738   18.6796 F   0  0  0  0  0  0  0  0  0  0  0  0
  -30.6685  -20.6828   21.1756 Cl  0  0  0  0  0  0  0  0  0  0  0  0
  1  2  1  0  0  0  0
  1  5  2  0  0  0  0
  2  6  2  0  0  0  0
  3  8  2  0  0  0  0
  3 16  1  0  0  0  0
  4  9  1  0  0  0  0
  4 16  2  0  0  0  0
  5 18  1  0  0  0  0
  6 20  1  0  0  0  0
  7 10  2  0  0  0  0
  7 19  1  0  0  0  0
  8 23  1  0  0  0  0
  9 23  2  0  0  0  0
 10 24  1  0  0  0  0
 11 12  2  0  0  0  0
 11 25  1  0  0  0  0
 12 26  1  0  0  0  0
 13 21  1  0  0  0  0
 13 24  2  0  0  0  0
 14 22  2  0  0  0  0
 14 30  1  0  0  0  0
 15 26  2  0  0  0  0
 15 27  1  0  0  0  0
 16 29  1  0  0  0  0
 17 29  1  0  0  0  0
 17 32  2  0  0  0  0
 17 33  1  0  0  0  0
 18 20  2  0  0  0  0
 18 38  1  0  0  0  0
 19 21  2  0  0  0  0
 19 39  1  0  0  0  0
 20 47  1  0  0  0  0
 21 40  1  0  0  0  0
 22 28  1  0  0  0  0
 22 56  1  0  0  0  0
 23 79  1  0  0  0  0
 24 80  1  0  0  0  0
 25 27  2  0  0  0  0
 25 79  1  0  0  0  0
 26 81  1  0  0  0  0
 27 82  1  0  0  0  0
 28 31  2  0  0  0  0
 28 83  1  0  0  0  0
 29 63  2  0  0  0  0
 30 57  1  0  0  0  0
 30 64  2  0  0  0  0
 31 58  1  0  0  0  0
 31 64  1  0  0  0  0
 32 65  1  0  0  0  0
 32 68  1  0  0  0  0
 33 69  1  0  0  0  0
 33 74  2  0  0  0  0
 34 48  1  0  0  0  0
 34 70  1  0  0  0  0
 34 75  2  0  0  0  0
 35 60  1  0  0  0  0
 35 66  1  0  0  0  0
 35 76  2  0  0  0  0
 36 61  1  0  0  0  0
 36 71  1  0  0  0  0
 36 77  2  0  0  0  0
 37 67  1  0  0  0  0
 37 72  1  0  0  0  0
 37 78  2  0  0  0  0
 38 41  1  0  0  0  0
 39 48  1  0  0  0  0
 40 66  1  0  0  0  0
 41 43  1  0  0  0  0
 42 44  1  0  0  0  0
 42 45  1  0  0  0  0
 43 47  1  0  0  0  0
 44 49  1  0  0  0  0
 45 67  1  0  0  0  0
 46 49  1  0  0  0  0
 46 67  1  0  0  0  0
 47 70  1  0  0  0  0
 48 66  1  0  0  0  0
 49 65  1  0  0  0  0
 50 58  1  0  0  0  0
 51 61  1  0  0  0  0
 52 62  1  0  0  0  0
 53 62  1  0  0  0  0
 54 62  1  0  0  0  0
 55 73  1  0  0  0  0
 56 72  1  0  0  0  0
 57 59  1  0  0  0  0
 59 80  1  0  0  0  0
 60 62  1  0  0  0  0
 60 71  1  0  0  0  0
 61 73  1  0  0  0  0
 63 65  1  0  0  0  0
M  CHG  1  73   1
M  ISO  4  37 100  59 101  72 100  80 101
M  END
> <Batch ID>
0093

> <Smiles>
CCc1nc(C[101CH2:1][101O:1]c2ccc3c(c2)CN(C(=O)C(NC(=O)C(C)NC)C(C)(C)C)C(C(=O)NC2CCCc4ccccc42)C3)cc(C[100NH:0][100C:0](=O)N2CCCC(n3nc(-c4ccc(Oc5ccc(F)cc5F)cc4)c(C(N)=O)c3N)C2)c1Cl

> <Shape>
0.197

> <Color>
0.088

> <Negative vol penalty>
0.000

$$$$

  -OEChem-04052319163D

 87 95  0     1  0  0  0  0  0999 V2000
  -18.0827  -32.7710   20.4866 C   0  0  0  0  0  0  0  0  0  0  0  0
  -19.4300  -32.6816   20.1514 C   0  0  0  0  0  0  0  0  0  0  0  0
  -24.5656  -16.3867   20.6220 C   0  0  0  0  0  0  0  0  0  0  0  0
  -25.7776  -14.4569   21.4245 C   0  0  0  0  0  0  0  0  0  0  0  0
  -17.6152  -32.1726   21.6559 C   0  0  0  0  0  0  0  0  0  0  0  0
  -20.3108  -31.9945   20.9860 C   0  0  0  0  0  0  0  0  0  0  0  0
  -25.1731  -28.6846   19.2806 C   0  0  0  0  0  0  0  0  0  0  0  0
  -23.4392  -15.5915   20.4108 C   0  0  0  0  0  0  0  0  0  0  0  0
  -24.6512  -13.6617   21.2134 C   0  0  0  0  0  0  0  0  0  0  0  0
  -26.5355  -28.9763   19.2307 C   0  0  0  0  0  0  0  0  0  0  0  0
  -23.1107  -12.1675   18.6009 C   0  0  0  0  0  0  0  0  0  0  0  0
  -23.2963  -10.9333   17.9783 C   0  0  0  0  0  0  0  0  0  0  0  0
  -26.8275  -27.9543   21.3963 C   0  0  0  0  0  0  0  0  0  0  0  0
  -29.1302  -25.7429   17.9931 C   0  0  0  0  0  0  0  0  0  0  0  0
  -22.3952   -9.8170   19.9223 C   0  0  0  0  0  0  0  0  0  0  0  0
  -25.7348  -15.8194   21.1288 C   0  0  0  0  0  0  0  0  0  0  0  0
  -27.2376  -17.3407   22.5199 C   0  0  0  0  0  0  0  0  0  0  0  0
  -18.4889  -31.4696   22.5003 C   0  0  0  0  0  0  0  0  0  0  0  0
  -24.6248  -28.0342   20.3954 C   0  0  0  0  0  0  0  0  0  0  0  0
  -19.8547  -31.3872   22.1684 C   0  0  0  0  0  0  0  0  0  0  0  0
  -25.4583  -27.6532   21.4567 C   0  0  0  0  0  0  0  0  0  0  0  0
  -28.7234  -24.4148   17.9283 C   0  0  0  0  0  0  0  0  0  0  0  0
  -29.5019  -23.4255   18.5187 C   0  0  0  0  0  0  0  0  0  0  0  0
  -23.4820  -14.2290   20.7066 C   0  0  0  0  0  0  0  0  0  0  0  0
  -27.3625  -28.6137   20.2899 C   0  0  0  0  0  0  0  0  0  0  0  0
  -22.5675  -12.2266   19.8843 C   0  0  0  0  0  0  0  0  0  0  0  0
  -22.9386   -9.7580   18.6389 C   0  0  0  0  0  0  0  0  0  0  0  0
  -22.2097  -11.0513   20.5450 C   0  0  0  0  0  0  0  0  0  0  0  0
  -26.8988  -16.6402   21.3467 C   0  0  0  0  0  0  0  0  0  0  0  0
  -30.3140  -26.0270   18.6546 C   0  0  0  0  0  0  0  0  0  0  0  0
  -30.6692  -23.8134   19.1564 C   0  0  0  0  0  0  0  0  0  0  0  0
  -28.4257  -17.9605   22.2187 C   0  0  0  0  0  0  0  0  0  0  0  0
  -26.5408  -17.4235   23.7701 C   0  0  0  0  0  0  0  0  0  0  0  0
  -22.4462  -28.7864   22.5844 C   0  0  0  0  0  0  0  0  0  0  0  0
  -22.8862  -25.7105   23.5156 C   0  0  0  0  0  0  0  0  0  0  0  0
  -31.1573  -20.6788   17.9520 C   0  0  0  0  0  0  0  0  0  0  0  0
  -24.9200  -22.9712   23.5984 C   0  0  0  0  0  0  0  0  0  0  0  0
  -17.9460  -30.8797   23.7777 C   0  0  0  0  0  0  0  0  0  0  0  0
  -23.1579  -27.7029   20.4221 C   0  0  0  0  0  0  0  0  0  0  0  0
  -24.9225  -26.9351   22.6674 C   0  0  0  0  0  0  0  0  0  0  0  0
  -18.8752  -29.8507   24.4165 C   0  0  0  0  0  0  0  0  0  0  0  0
  -32.4437  -17.9758   19.9214 C   0  0  0  0  0  0  0  0  0  0  0  0
  -20.3075  -30.3741   24.4519 C   0  0  0  0  0  0  0  0  0  0  0  0
  -31.2364  -17.5227   20.7413 C   0  0  0  0  0  0  0  0  0  0  0  0
  -32.4343  -19.4852   19.7009 C   0  0  0  0  0  0  0  0  0  0  0  0
  -29.9686  -19.5485   19.8964 C   0  0  0  0  0  0  0  0  0  0  0  0
  -20.8366  -30.6295   23.0354 C   0  0  1  0  0  0  0  0  0  0  0  0
  -22.6176  -27.4962   21.8337 C   0  0  1  0  0  0  0  0  0  0  0  0
  -29.9233  -18.0260   20.1161 C   0  0  2  0  0  0  0  0  0  0  0  0
  -27.4531  -24.0786   17.2195 C   0  0  0  0  0  0  0  0  0  0  0  0
  -32.5950  -23.4337   20.7165 C   0  0  0  0  0  0  0  0  0  0  0  0
  -32.1243  -27.6395   18.0123 C   0  0  0  0  0  0  0  0  0  0  0  0
  -25.0205  -20.6178   24.4637 C   0  0  0  0  0  0  0  0  0  0  0  0
  -30.0556  -21.8984   16.1333 C   0  0  0  0  0  0  0  0  0  0  0  0
  -28.9995  -19.8375   17.0743 C   0  0  0  0  0  0  0  0  0  0  0  0
  -23.4215  -26.7695   26.3266 C   0  0  0  0  0  0  0  0  0  0  0  0
  -24.4245  -24.5476   26.8973 C   0  0  0  0  0  0  0  0  0  0  0  0
  -22.0226  -24.6982   26.2410 C   0  0  0  0  0  0  0  0  0  0  0  0
  -25.1742  -21.8553   20.8691 C   0  0  0  0  0  0  0  0  0  0  0  0
  -29.0893  -21.9929   18.4672 C   0  0  0  0  0  0  0  0  0  0  0  0
  -31.5462  -22.7961   19.8104 C   0  0  0  0  0  0  0  0  0  0  0  0
  -30.9069  -27.9727   20.1974 C   0  0  0  0  0  0  0  0  0  0  0  0
  -29.5707  -28.0087   20.9331 C   0  0  0  0  0  0  0  0  0  1  0  0
  -30.7893  -27.4667   18.7466 C   0  0  2  0  0  0  0  0  0  0  0  0
  -23.8104  -25.0072   24.4802 C   0  0  1  0  0  0  0  0  0  0  0  0
  -24.6540  -21.5093   23.2875 C   0  0  2  0  0  0  0  0  0  0  0  0
  -29.8087  -21.0933   17.4195 C   0  0  0  0  0  0  0  0  0  0  0  0
  -23.4298  -25.2709   25.9645 C   0  0  0  0  0  0  0  0  0  0  0  0
  -27.7988  -16.7998   20.3727 N   0  0  0  0  0  0  0  0  0  0  0  0
  -31.0968  -25.0931   19.2400 N   0  0  0  0  0  0  0  0  0  0  0  0
  -28.7148  -17.6077   20.9333 N   0  0  0  0  0  0  0  0  0  0  0  0
  -23.4804  -26.6391   22.6493 N   0  0  0  0  0  0  0  0  0  0  0  0
  -31.1620  -19.9266   19.1267 N   0  0  0  0  0  0  0  0  0  0  0  0
  -29.2407  -18.7676   22.9305 N   0  0  0  0  0  0  0  0  0  0  0  0
  -25.3340  -16.7246   23.9100 N   0  0  0  0  0  0  0  0  0  0  0  0
  -21.2128  -29.3827   22.4040 N   0  0  0  0  0  0  0  0  0  0  0  0
  -23.8000  -23.5983   24.1018 N   0  0  0  0  0  0  0  0  0  0  0  0
  -25.4511  -21.0780   22.1045 N   0  3  0  0  0  0  0  0  0  0  0  0
  -26.9670  -18.1105   24.7292 O   0  0  0  0  0  0  0  0  0  0  0  0
  -23.3645  -29.2089   23.2772 O   0  0  0  0  0  0  0  0  0  0  0  0
  -21.6827  -25.4404   23.5254 O   0  0  0  0  0  0  0  0  0  0  0  0
  -32.1749  -21.0121   17.3391 O   0  0  0  0  0  0  0  0  0  0  0  0
  -26.0132  -23.5026   23.4166 O   0  0  0  0  0  0  0  0  0  0  0  0
  -22.3831  -13.4528   20.5008 O   0  0  0  0  0  0  0  0  0  0  0  0
  -28.6925  -28.8977   20.2440 O   0  0  0  0  0  0  0  0  0  1  0  0
  -23.1154   -8.5729   18.0402 F   0  0  0  0  0  0  0  0  0  0  0  0
  -21.6862  -11.1018   21.7775 F   0  0  0  0  0  0  0  0  0  0  0  0
  1  2  1  0  0  0  0
  1  5  2  0  0  0  0
  2  6  2  0  0  0  0
  3  8  2  0  0  0  0
  3 16  1  0  0  0  0
  4  9  1  0  0  0  0
  4 16  2  0  0  0  0
  5 18  1  0  0  0  0
  6 20  1  0  0  0  0
  7 10  2  0  0  0  0
  7 19  1  0  0  0  0
  8 24  1  0  0  0  0
  9 24  2  0  0  0  0
 10 25  1  0  0  0  0
 11 12  2  0  0  0  0
 11 26  1  0  0  0  0
 12 27  1  0  0  0  0
 13 21  1  0  0  0  0
 13 25  2  0  0  0  0
 14 22  2  0  0  0  0
 14 30  1  0  0  0  0
 15 27  2  0  0  0  0
 15 28  1  0  0  0  0
 16 29  1  0  0  0  0
 17 29  1  0  0  0  0
 17 32  2  0  0  0  0
 17 33  1  0  0  0  0
 18 20  2  0  0  0  0
 18 38  1  0  0  0  0
 19 21  2  0  0  0  0
 19 39  1  0  0  0  0
 20 47  1  0  0  0  0
 21 40  1  0  0  0  0
 22 23  1  0  0  0  0
 22 50  1  0  0  0  0
 23 31  2  0  0  0  0
 23 60  1  0  0  0  0
 24 84  1  0  0  0  0
 25 85  1  0  0  0  0
 26 28  2  0  0  0  0
 26 84  1  0  0  0  0
 27 86  1  0  0  0  0
 28 87  1  0  0  0  0
 29 69  2  0  0  0  0
 30 64  1  0  0  0  0
 30 70  2  0  0  0  0
 31 61  1  0  0  0  0
 31 70  1  0  0  0  0
 32 71  1  0  0  0  0
 32 74  1  0  0  0  0
 33 75  1  0  0  0  0
 33 79  2  0  0  0  0
 34 48  1  0  0  0  0
 34 76  1  0  0  0  0
 34 80  2  0  0  0  0
 35 65  1  0  0  0  0
 35 72  1  0  0  0  0
 35 81  2  0  0  0  0
 36 67  1  0  0  0  0
 36 73  1  0  0  0  0
 36 82  2  0  0  0  0
 37 66  1  0  0  0  0
 37 77  1  0  0  0  0
 37 83  2  0  0  0  0
 38 41  1  0  0  0  0
 39 48  1  0  0  0  0
 40 72  1  0  0  0  0
 41 43  1  0  0  0  0
 42 44  1  0  0  0  0
 42 45  1  0  0  0  0
 43 47  1  0  0  0  0
 44 49  1  0  0  0  0
 45 73  1  0  0  0  0
 46 49  1  0  0  0  0
 46 73  1  0  0  0  0
 47 76  1  0  0  0  0
 48 72  1  0  0  0  0
 49 71  1  0  0  0  0
 51 61  1  0  0  0  0
 52 64  1  0  0  0  0
 53 66  1  0  0  0  0
 54 67  1  0  0  0  0
 55 67  1  0  0  0  0
 56 68  1  0  0  0  0
 57 68  1  0  0  0  0
 58 68  1  0  0  0  0
 59 78  1  0  0  0  0
 60 67  1  0  0  0  0
 62 63  1  0  0  0  0
 62 64  1  0  0  0  0
 63 85  1  0  0  0  0
 65 68  1  0  0  0  0
 65 77  1  0  0  0  0
 66 78  1  0  0  0  0
 69 71  1  0  0  0  0
M  CHG  1  78   1
M  ISO  4  36 100  63 101  67 100  85 101
M  END
> <Batch ID>
0093

> <Smiles>
CCc1nc(C(C)C[101CH2:1][101O:1]c2ccc3c(c2)CN(C(=O)C(NC(=O)C(C)NC)C(C)(C)C)C(C(=O)NC2CCCc4ccccc42)C3)cc(C)c1C[100C:0](C)(C)[100C:0](=O)N1CCCC(n2nc(-c3ccc(Oc4ccc(F)cc4F)cc3)c(C(N)=O)c2N)C1

> <Shape>
0.205

> <Color>
0.073

> <Negative vol penalty>
0.000

$$$$

  -OEChem-04052319163D

 84 92  0     1  0  0  0  0  0999 V2000
  -18.7539  -26.8014   19.3033 C   0  0  0  0  0  0  0  0  0  0  0  0
  -19.9405  -26.2339   19.7565 C   0  0  0  0  0  0  0  0  0  0  0  0
  -23.5462   -9.5566   19.9375 C   0  0  0  0  0  0  0  0  0  0  0  0
  -23.8404   -9.8995   22.3109 C   0  0  0  0  0  0  0  0  0  0  0  0
  -18.5419  -28.1727   19.4390 C   0  0  0  0  0  0  0  0  0  0  0  0
  -20.9164  -27.0378   20.3447 C   0  0  0  0  0  0  0  0  0  0  0  0
  -22.8413  -24.9888   24.5567 C   0  0  0  0  0  0  0  0  0  0  0  0
  -22.9422   -8.3250   20.1902 C   0  0  0  0  0  0  0  0  0  0  0  0
  -23.2363   -8.6679   22.5637 C   0  0  0  0  0  0  0  0  0  0  0  0
  -23.7836  -23.9736   24.3978 C   0  0  0  0  0  0  0  0  0  0  0  0
  -20.1019   -7.4099   22.6802 C   0  0  0  0  0  0  0  0  0  0  0  0
  -19.1472   -7.3543   23.6955 C   0  0  0  0  0  0  0  0  0  0  0  0
  -25.5537  -25.5613   24.8041 C   0  0  0  0  0  0  0  0  0  0  0  0
  -20.4892   -5.7231   24.8682 C   0  0  0  0  0  0  0  0  0  0  0  0
  -23.9953  -10.3439   20.9978 C   0  0  0  0  0  0  0  0  0  0  0  0
  -23.9863  -12.8690   20.6350 C   0  0  0  0  0  0  0  0  0  0  0  0
  -19.5117  -28.9923   20.0379 C   0  0  0  0  0  0  0  0  0  0  0  0
  -23.2494  -26.3022   24.8302 C   0  0  0  0  0  0  0  0  0  0  0  0
  -20.7178  -28.4216   20.4873 C   0  0  0  0  0  0  0  0  0  0  0  0
  -24.6146  -26.5908   24.9686 C   0  0  0  0  0  0  0  0  0  0  0  0
  -22.7872   -7.8807   21.5033 C   0  0  0  0  0  0  0  0  0  0  0  0
  -25.1402  -24.2603   24.5186 C   0  0  0  0  0  0  0  0  0  0  0  0
  -21.2504   -6.6221   22.7588 C   0  0  0  0  0  0  0  0  0  0  0  0
  -19.3408   -6.5110   24.7895 C   0  0  0  0  0  0  0  0  0  0  0  0
  -21.4440   -5.7787   23.8528 C   0  0  0  0  0  0  0  0  0  0  0  0
  -24.6199  -11.6160   20.7373 C   0  0  0  0  0  0  0  0  0  0  0  0
  -25.0084  -13.7509   20.3818 C   0  0  0  0  0  0  0  0  0  0  0  0
  -22.5980  -13.2056   20.7580 C   0  0  0  0  0  0  0  0  0  0  0  0
  -22.9723  -29.0943   23.3364 C   0  0  0  0  0  0  0  0  0  0  0  0
  -24.3043  -30.2427   26.0620 C   0  0  0  0  0  0  0  0  0  0  0  0
  -26.2202  -29.6503   28.8234 C   0  0  0  0  0  0  0  0  0  0  0  0
  -30.1475  -15.6692   21.4084 C   0  0  0  0  0  0  0  0  0  0  0  0
  -19.2575  -30.4766   20.1198 C   0  0  0  0  0  0  0  0  0  0  0  0
  -22.2192  -27.3807   25.0253 C   0  0  0  0  0  0  0  0  0  0  0  0
  -25.1036  -27.9806   25.2816 C   0  0  0  0  0  0  0  0  0  0  0  0
  -20.1838  -31.2004   21.0936 C   0  0  0  0  0  0  0  0  0  0  0  0
  -29.8130  -21.0773   17.5886 C   0  0  0  0  0  0  0  0  0  0  0  0
  -29.1738  -19.7219   17.3035 C   0  0  0  0  0  0  0  0  0  0  0  0
  -30.4906  -21.1017   18.9552 C   0  0  0  0  0  0  0  0  0  0  0  0
  -29.8475  -12.9207   19.1651 C   0  0  0  0  0  0  0  0  0  0  0  0
  -21.6286  -30.7578   20.8850 C   0  0  0  0  0  0  0  0  0  0  0  0
  -28.2102  -19.3087   18.4137 C   0  0  0  0  0  0  0  0  0  0  0  0
  -29.5293  -20.6907   20.0682 C   0  0  0  0  0  0  0  0  0  0  0  0
  -28.4112  -12.4362   19.3704 C   0  0  0  0  0  0  0  0  0  0  0  0
  -30.4742  -13.3988   20.4731 C   0  0  0  0  0  0  0  0  0  0  0  0
  -28.2555  -13.9324   21.4041 C   0  0  0  0  0  0  0  0  0  0  0  0
  -21.7899  -29.2566   21.1532 C   0  0  1  0  0  0  0  0  0  0  0  0
  -22.7715  -28.7837   24.7927 C   0  0  1  0  0  0  0  0  0  0  0  0
  -28.8908  -19.3234   19.7892 C   0  0  0  0  0  0  0  0  0  0  0  0
  -27.5624  -13.4925   20.1032 C   0  0  2  0  0  0  0  0  0  0  0  0
  -27.1642  -30.7932   30.8482 C   0  0  0  0  0  0  0  0  0  0  0  0
  -26.4132  -31.5892   24.3157 C   0  0  0  0  0  0  0  0  0  0  0  0
  -27.8175  -31.8918   26.3663 C   0  0  0  0  0  0  0  0  0  0  0  0
  -25.5824  -32.9890   26.2144 C   0  0  0  0  0  0  0  0  0  0  0  0
  -24.7588  -27.8511   30.6636 C   0  0  0  0  0  0  0  0  0  0  0  0
  -27.8942  -18.9591   20.8880 C   0  0  0  0  0  0  0  0  0  0  0  0
  -26.3005  -19.5658   23.5760 C   0  0  0  0  0  0  0  0  0  0  0  0
  -26.7341  -20.9997   23.8835 C   0  0  0  0  0  0  0  0  0  0  0  0
  -27.4387  -18.5523   23.4018 C   0  0  0  0  0  0  0  0  0  0  0  0
  -29.6629  -17.9061   22.3679 C   0  0  0  0  0  0  0  0  0  0  0  0
  -25.5699  -21.9631   24.0779 C   0  0  0  0  0  0  0  0  0  1  0  0
  -25.7146  -30.4856   26.5428 C   0  0  1  0  0  0  0  0  0  0  0  0
  -26.0052  -29.9830   30.2889 C   0  0  2  0  0  0  0  0  0  0  0  0
  -28.4827  -18.8936   22.3139 C   0  0  1  0  0  0  0  0  0  0  0  0
  -26.3731  -31.7130   25.8520 C   0  0  0  0  0  0  0  0  0  0  0  0
  -25.9420  -11.6910   20.5631 N   0  0  0  0  0  0  0  0  0  0  0  0
  -26.1476  -13.0016   20.3487 N   0  0  0  0  0  0  0  0  0  0  0  0
  -24.0580  -29.0021   25.4572 N   0  0  0  0  0  0  0  0  0  0  0  0
  -29.6207  -14.4002   21.1171 N   0  0  0  0  0  0  0  0  0  0  0  0
  -25.0347  -15.0863   20.1863 N   0  0  0  0  0  0  0  0  0  0  0  0
  -21.6819  -12.1776   21.0193 N   0  0  0  0  0  0  0  0  0  0  0  0
  -21.8220  -28.9981   22.5768 N   0  0  0  0  0  0  0  0  0  0  0  0
  -25.6384  -30.5876   27.9962 N   0  0  0  0  0  0  0  0  0  0  0  0
  -29.2697  -16.5607   22.0130 N   0  0  0  0  0  0  0  0  0  0  0  0
  -25.8755  -28.7331   31.0901 N   0  3  0  0  0  0  0  0  0  0  0  0
  -22.1803  -14.3807   20.6234 O   0  0  0  0  0  0  0  0  0  0  0  0
  -24.0880  -29.4000   22.9321 O   0  0  0  0  0  0  0  0  0  0  0  0
  -23.4510  -31.1187   26.2238 O   0  0  0  0  0  0  0  0  0  0  0  0
  -26.8451  -28.6601   28.4499 O   0  0  0  0  0  0  0  0  0  0  0  0
  -31.3123  -15.9863   21.1442 O   0  0  0  0  0  0  0  0  0  0  0  0
  -22.1977   -6.6790   21.7503 O   0  0  0  0  0  0  0  0  0  0  0  0
  -26.0684  -23.2646   24.3622 O   0  0  0  0  0  0  0  0  0  1  0  0
  -18.4246   -6.4588   25.7652 F   0  0  0  0  0  0  0  0  0  0  0  0
  -22.5459   -5.0204   23.9345 F   0  0  0  0  0  0  0  0  0  0  0  0
  1  2  1  0  0  0  0
  1  5  2  0  0  0  0
  2  6  2  0  0  0  0
  3  8  2  0  0  0  0
  3 15  1  0  0  0  0
  4  9  1  0  0  0  0
  4 15  2  0  0  0  0
  5 17  1  0  0  0  0
  6 19  1  0  0  0  0
  7 10  2  0  0  0  0
  7 18  1  0  0  0  0
  8 21  1  0  0  0  0
  9 21  2  0  0  0  0
 10 22  1  0  0  0  0
 11 12  2  0  0  0  0
 11 23  1  0  0  0  0
 12 24  1  0  0  0  0
 13 20  1  0  0  0  0
 13 22  2  0  0  0  0
 14 24  2  0  0  0  0
 14 25  1  0  0  0  0
 15 26  1  0  0  0  0
 16 26  1  0  0  0  0
 16 27  2  0  0  0  0
 16 28  1  0  0  0  0
 17 19  2  0  0  0  0
 17 33  1  0  0  0  0
 18 20  2  0  0  0  0
 18 34  1  0  0  0  0
 19 47  1  0  0  0  0
 20 35  1  0  0  0  0
 21 81  1  0  0  0  0
 22 82  1  0  0  0  0
 23 25  2  0  0  0  0
 23 81  1  0  0  0  0
 24 83  1  0  0  0  0
 25 84  1  0  0  0  0
 26 66  2  0  0  0  0
 27 67  1  0  0  0  0
 27 70  1  0  0  0  0
 28 71  1  0  0  0  0
 28 76  2  0  0  0  0
 29 48  1  0  0  0  0
 29 72  1  0  0  0  0
 29 77  2  0  0  0  0
 30 62  1  0  0  0  0
 30 68  1  0  0  0  0
 30 78  2  0  0  0  0
 31 63  1  0  0  0  0
 31 73  1  0  0  0  0
 31 79  2  0  0  0  0
 32 69  1  0  0  0  0
 32 74  1  0  0  0  0
 32 80  2  0  0  0  0
 33 36  1  0  0  0  0
 34 48  1  0  0  0  0
 35 68  1  0  0  0  0
 36 41  1  0  0  0  0
 37 38  1  0  0  0  0
 37 39  1  0  0  0  0
 38 42  1  0  0  0  0
 39 43  1  0  0  0  0
 40 44  1  0  0  0  0
 40 45  1  0  0  0  0
 41 47  1  0  0  0  0
 42 49  1  0  0  0  0
 43 49  1  0  0  0  0
 44 50  1  0  0  0  0
 45 69  1  0  0  0  0
 46 50  1  0  0  0  0
 46 69  1  0  0  0  0
 47 72  1  0  0  0  0
 48 68  1  0  0  0  0
 49 56  1  0  0  0  0
 50 67  1  0  0  0  0
 51 63  1  0  0  0  0
 52 65  1  0  0  0  0
 53 65  1  0  0  0  0
 54 65  1  0  0  0  0
 55 75  1  0  0  0  0
 56 64  1  0  0  0  0
 57 58  1  0  0  0  0
 57 59  1  0  0  0  0
 58 61  1  0  0  0  0
 59 64  1  0  0  0  0
 60 64  1  0  0  0  0
 60 74  1  0  0  0  0
 61 82  1  0  0  0  0
 62 65  1  0  0  0  0
 62 73  1  0  0  0  0
 63 75  1  0  0  0  0
 66 67  1  0  0  0  0
M  CHG  1  75   1
M  ISO  4  32 100  61 101  74 100  82 101
M  END
> <Batch ID>
0093

> <Smiles>
CNC(C)C(=O)NC(C(=O)N1Cc2cc([101O:1][101CH2:1]CCCC(C[100NH:0][100C:0](=O)N3CCCC(n4nc(-c5ccc(Oc6ccc(F)cc6F)cc5)c(C(N)=O)c4N)C3)CC3CCCCC3)ccc2CC1C(=O)NC1CCCc2ccccc21)C(C)(C)C

> <Shape>
0.274

> <Color>
0.184

> <Negative vol penalty>
0.000

$$$$

  -OEChem-04052319163D

 89 97  0     1  0  0  0  0  0999 V2000
  -28.8161  -22.9686   16.0609 C   0  0  0  0  0  0  0  0  0  0  0  0
  -27.5984  -23.3715   16.5994 C   0  0  0  0  0  0  0  0  0  0  0  0
  -27.7600  -14.4601   21.1899 C   0  0  0  0  0  0  0  0  0  0  0  0
  -25.5754  -14.9924   20.3060 C   0  0  0  0  0  0  0  0  0  0  0  0
  -29.9733  -23.0260   16.8366 C   0  0  0  0  0  0  0  0  0  0  0  0
  -27.5368  -23.8311   17.9145 C   0  0  0  0  0  0  0  0  0  0  0  0
  -24.7308  -28.0211   18.3788 C   0  0  0  0  0  0  0  0  0  0  0  0
  -27.4877  -13.0999   21.0437 C   0  0  0  0  0  0  0  0  0  0  0  0
  -25.3031  -13.6322   20.1597 C   0  0  0  0  0  0  0  0  0  0  0  0
  -23.3456  -27.8632   18.3768 C   0  0  0  0  0  0  0  0  0  0  0  0
  -23.8937  -10.2930   19.8892 C   0  0  0  0  0  0  0  0  0  0  0  0
  -22.6451   -9.8331   20.3074 C   0  0  0  0  0  0  0  0  0  0  0  0
  -23.3291  -28.0308   20.7832 C   0  0  0  0  0  0  0  0  0  0  0  0
  -23.1177  -10.5913   22.5522 C   0  0  0  0  0  0  0  0  0  0  0  0
  -21.7125  -23.4464   22.1308 C   0  0  0  0  0  0  0  0  0  0  0  0
  -26.8038  -15.4063   20.8211 C   0  0  0  0  0  0  0  0  0  0  0  0
  -27.6762  -17.6672   20.0243 C   0  0  0  0  0  0  0  0  0  0  0  0
  -29.9275  -23.4956   18.1587 C   0  0  0  0  0  0  0  0  0  0  0  0
  -25.4280  -28.1744   19.5858 C   0  0  0  0  0  0  0  0  0  0  0  0
  -28.6942  -23.8936   18.7091 C   0  0  0  0  0  0  0  0  0  0  0  0
  -24.7229  -28.1930   20.7977 C   0  0  0  0  0  0  0  0  0  0  0  0
  -26.2593  -12.6859   20.5285 C   0  0  0  0  0  0  0  0  0  0  0  0
  -22.6449  -27.8651   19.5793 C   0  0  0  0  0  0  0  0  0  0  0  0
  -24.7544  -10.9020   20.8024 C   0  0  0  0  0  0  0  0  0  0  0  0
  -22.2570   -9.9822   21.6389 C   0  0  0  0  0  0  0  0  0  0  0  0
  -24.3664  -11.0511   22.1339 C   0  0  0  0  0  0  0  0  0  0  0  0
  -27.0842  -16.8115   20.9725 C   0  0  0  0  0  0  0  0  0  0  0  0
  -21.6936  -22.3041   22.8804 C   0  0  0  0  0  0  0  0  0  0  0  0
  -27.7215  -18.8907   20.6468 C   0  0  0  0  0  0  0  0  0  0  0  0
  -20.6033  -21.9029   20.9960 C   0  0  0  0  0  0  0  0  0  0  0  0
  -28.1433  -17.3817   18.6991 C   0  0  0  0  0  0  0  0  0  0  0  0
  -27.6778  -26.5187   21.1026 C   0  0  0  0  0  0  0  0  0  0  0  0
  -27.6341  -29.0558   23.1233 C   0  0  0  0  0  0  0  0  0  0  0  0
  -25.9098  -31.7041   24.4117 C   0  0  0  0  0  0  0  0  0  0  0  0
  -24.4921  -21.3470   25.0501 C   0  0  0  0  0  0  0  0  0  0  0  0
  -31.1966  -23.4949   18.9736 C   0  0  0  0  0  0  0  0  0  0  0  0
  -26.9192  -28.3704   19.5691 C   0  0  0  0  0  0  0  0  0  0  0  0
  -25.4221  -28.3745   22.1193 C   0  0  0  0  0  0  0  0  0  0  0  0
  -31.1097  -24.3472   20.2370 C   0  0  0  0  0  0  0  0  0  0  0  0
  -28.0203  -20.8725   24.9912 C   0  0  0  0  0  0  0  0  0  0  0  0
  -29.8097  -24.0645   20.9833 C   0  0  0  0  0  0  0  0  0  0  0  0
  -28.2339  -19.8551   23.8690 C   0  0  0  0  0  0  0  0  0  0  0  0
  -26.7381  -20.5911   25.7716 C   0  0  0  0  0  0  0  0  0  0  0  0
  -25.7351  -19.4641   23.8229 C   0  0  0  0  0  0  0  0  0  0  0  0
  -28.5911  -24.4215   20.1236 C   0  0  1  0  0  0  0  0  0  0  0  0
  -27.5849  -28.0035   20.8918 C   0  0  1  0  0  0  0  0  0  0  0  0
  -26.9867  -19.7396   22.9721 C   0  0  2  0  0  0  0  0  0  0  0  0
  -23.9953  -19.5098   17.5490 C   0  0  0  0  0  0  0  0  0  0  0  0
  -17.5280  -21.8858   20.8562 C   0  0  0  0  0  0  0  0  0  0  0  0
  -26.1222  -33.5725   26.0734 C   0  0  0  0  0  0  0  0  0  0  0  0
  -18.4132  -27.2268   19.4683 C   0  0  0  0  0  0  0  0  0  0  0  0
  -27.2087  -27.0732   25.4033 C   0  0  0  0  0  0  0  0  0  0  0  0
  -26.4899  -28.9907   26.8437 C   0  0  0  0  0  0  0  0  0  0  0  0
  -28.8054  -28.9279   25.9179 C   0  0  0  0  0  0  0  0  0  0  0  0
  -25.5646  -33.7637   22.3146 C   0  0  0  0  0  0  0  0  0  0  0  0
  -22.2547  -22.0027   24.1998 C   0  0  0  0  0  0  0  0  0  0  0  0
  -22.6508  -19.1355   18.1520 C   0  0  0  0  0  0  0  0  0  0  0  0
  -18.4196  -20.7286   20.4212 C   0  0  0  0  0  0  0  0  0  0  0  0
  -21.9207  -20.3635   18.6977 C   0  0  0  0  0  0  0  0  0  0  0  0
  -20.5788  -19.9751   19.3313 C   0  0  0  0  0  0  0  0  0  0  0  0
  -19.7230  -25.1960   20.1368 C   0  0  0  0  0  0  0  0  0  0  0  0
  -20.8039  -24.1463   19.8437 C   0  0  0  0  0  0  0  0  0  0  0  0
  -20.7273  -26.9329   18.5258 C   0  0  0  0  0  0  0  0  0  1  0  0
  -19.8282  -21.2017   19.9423 C   0  0  2  0  0  0  0  0  0  0  0  0
  -26.8652  -29.4150   24.3718 C   0  0  1  0  0  0  0  0  0  0  0  0
  -26.3023  -33.1554   24.6221 C   0  0  2  0  0  0  0  0  0  0  0  0
  -19.4604  -26.2082   19.0001 C   0  0  2  0  0  0  0  0  0  0  0  0
  -27.3291  -28.5963   25.6096 C   0  0  0  0  0  0  0  0  0  0  0  0
  -26.7757  -17.4382   22.1109 N   0  0  0  0  0  0  0  0  0  0  0  0
  -21.0311  -23.1694   20.9702 N   0  0  0  0  0  0  0  0  0  0  0  0
  -27.1754  -18.7007   21.8821 N   0  0  0  0  0  0  0  0  0  0  0  0
  -21.0006  -21.3659   22.1540 N   0  3  0  0  0  0  0  0  0  0  0  0
  -26.8815  -28.5561   22.0511 N   0  0  0  0  0  0  0  0  0  0  0  0
  -25.5931  -20.4950   24.8630 N   0  0  0  0  0  0  0  0  0  0  0  0
  -28.1748  -20.0996   20.2527 N   0  0  0  0  0  0  0  0  0  0  0  0
  -28.0208  -16.0721   18.2152 N   0  0  0  0  0  0  0  0  0  0  0  0
  -28.3800  -25.8532   20.1159 N   0  0  0  0  0  0  0  0  0  0  0  0
  -26.9936  -30.8598   24.5288 N   0  0  0  0  0  0  0  0  0  0  0  0
  -23.4523  -21.1946   24.1412 N   0  0  0  0  0  0  0  0  0  0  0  0
  -25.4660  -34.0469   23.7696 N   0  3  0  0  0  0  0  0  0  0  0  0
  -28.6692  -18.2582   17.9720 O   0  0  0  0  0  0  0  0  0  0  0  0
  -27.1527  -26.0143   22.0883 O   0  0  0  0  0  0  0  0  0  0  0  0
  -28.8565  -29.2195   23.0978 O   0  0  0  0  0  0  0  0  0  0  0  0
  -24.7564  -31.3541   24.1715 O   0  0  0  0  0  0  0  0  0  0  0  0
  -24.4420  -22.1852   25.9566 O   0  0  0  0  0  0  0  0  0  0  0  0
  -25.9934  -11.3588   20.3855 O   0  0  0  0  0  0  0  0  0  0  0  0
  -21.2928  -27.7105   19.5803 O   0  0  0  0  0  0  0  0  0  1  0  0
  -21.0573   -9.5419   22.0401 F   0  0  0  0  0  0  0  0  0  0  0  0
  -25.1885  -11.6364   23.0156 F   0  0  0  0  0  0  0  0  0  0  0  0
  1  2  1  0  0  0  0
  1  5  2  0  0  0  0
  2  6  2  0  0  0  0
  3  8  2  0  0  0  0
  3 16  1  0  0  0  0
  4  9  1  0  0  0  0
  4 16  2  0  0  0  0
  5 18  1  0  0  0  0
  6 20  1  0  0  0  0
  7 10  2  0  0  0  0
  7 19  1  0  0  0  0
  8 22  1  0  0  0  0
  9 22  2  0  0  0  0
 10 23  1  0  0  0  0
 11 12  2  0  0  0  0
 11 24  1  0  0  0  0
 12 25  1  0  0  0  0
 13 21  1  0  0  0  0
 13 23  2  0  0  0  0
 14 25  2  0  0  0  0
 14 26  1  0  0  0  0
 15 28  2  0  0  0  0
 15 70  1  0  0  0  0
 16 27  1  0  0  0  0
 17 27  1  0  0  0  0
 17 29  2  0  0  0  0
 17 31  1  0  0  0  0
 18 20  2  0  0  0  0
 18 36  1  0  0  0  0
 19 21  2  0  0  0  0
 19 37  1  0  0  0  0
 20 45  1  0  0  0  0
 21 38  1  0  0  0  0
 22 86  1  0  0  0  0
 23 87  1  0  0  0  0
 24 26  2  0  0  0  0
 24 86  1  0  0  0  0
 25 88  1  0  0  0  0
 26 89  1  0  0  0  0
 27 69  2  0  0  0  0
 28 56  1  0  0  0  0
 28 72  1  0  0  0  0
 29 71  1  0  0  0  0
 29 75  1  0  0  0  0
 30 64  1  0  0  0  0
 30 70  1  0  0  0  0
 30 72  2  0  0  0  0
 31 76  1  0  0  0  0
 31 81  2  0  0  0  0
 32 46  1  0  0  0  0
 32 77  1  0  0  0  0
 32 82  2  0  0  0  0
 33 65  1  0  0  0  0
 33 73  1  0  0  0  0
 33 83  2  0  0  0  0
 34 66  1  0  0  0  0
 34 78  1  0  0  0  0
 34 84  2  0  0  0  0
 35 74  1  0  0  0  0
 35 79  1  0  0  0  0
 35 85  2  0  0  0  0
 36 39  1  0  0  0  0
 37 46  1  0  0  0  0
 38 73  1  0  0  0  0
 39 41  1  0  0  0  0
 40 42  1  0  0  0  0
 40 43  1  0  0  0  0
 41 45  1  0  0  0  0
 42 47  1  0  0  0  0
 43 74  1  0  0  0  0
 44 47  1  0  0  0  0
 44 74  1  0  0  0  0
 45 77  1  0  0  0  0
 46 73  1  0  0  0  0
 47 71  1  0  0  0  0
 48 57  1  0  0  0  0
 49 58  1  0  0  0  0
 50 66  1  0  0  0  0
 51 67  1  0  0  0  0
 52 68  1  0  0  0  0
 53 68  1  0  0  0  0
 54 68  1  0  0  0  0
 55 80  1  0  0  0  0
 56 79  1  0  0  0  0
 57 59  1  0  0  0  0
 58 64  1  0  0  0  0
 59 60  1  0  0  0  0
 60 64  1  0  0  0  0
 61 62  1  0  0  0  0
 61 67  1  0  0  0  0
 62 70  1  0  0  0  0
 63 67  1  0  0  0  0
 63 87  1  0  0  0  0
 65 68  1  0  0  0  0
 65 78  1  0  0  0  0
 66 80  1  0  0  0  0
 69 71  1  0  0  0  0
M  CHG  2  72   1  80   1
M  ISO  4  35 100  63 101  79 100  87 101
M  END
> <Batch ID>
0093

> <Smiles>
CCCCC(CC)c1nc(C[100NH:0][100C:0](=O)N2CCCC(n3nc(-c4ccc(Oc5ccc(F)cc5F)cc4)c(C(N)=O)c3N)C2)cn1CCC(C)[101CH2:1][101O:1]c1ccc2c(c1)CN(C(=O)C(NC(=O)C(C)NC)C(C)(C)C)C(C(=O)NC1CCCc3ccccc31)C2

> <Shape>
0.219

> <Color>
0.049

> <Negative vol penalty>
0.000

$$$$

  -OEChem-04052319163D

 88 96  0     1  0  0  0  0  0999 V2000
  -32.4618  -13.4536   20.9083 C   0  0  0  0  0  0  0  0  0  0  0  0
  -31.8005  -14.6574   21.1291 C   0  0  0  0  0  0  0  0  0  0  0  0
  -26.0710  -30.3773   20.7711 C   0  0  0  0  0  0  0  0  0  0  0  0
  -24.7471  -28.4347   21.3286 C   0  0  0  0  0  0  0  0  0  0  0  0
  -31.7873  -12.3878   20.3139 C   0  0  0  0  0  0  0  0  0  0  0  0
  -30.4645  -14.7966   20.7545 C   0  0  0  0  0  0  0  0  0  0  0  0
  -26.1566  -18.0652   23.6293 C   0  0  0  0  0  0  0  0  0  0  0  0
  -24.9068  -31.0850   20.4725 C   0  0  0  0  0  0  0  0  0  0  0  0
  -23.5828  -29.1425   21.0300 C   0  0  0  0  0  0  0  0  0  0  0  0
  -25.6363  -19.3383   23.4004 C   0  0  0  0  0  0  0  0  0  0  0  0
  -20.2417  -30.5504   20.7603 C   0  0  0  0  0  0  0  0  0  0  0  0
  -19.1730  -30.4476   21.6507 C   0  0  0  0  0  0  0  0  0  0  0  0
  -23.8114  -18.3629   22.1605 C   0  0  0  0  0  0  0  0  0  0  0  0
  -20.5538  -31.3558   23.4129 C   0  0  0  0  0  0  0  0  0  0  0  0
  -25.4233  -20.8410   18.2321 C   0  0  0  0  0  0  0  0  0  0  0  0
  -25.9912  -29.0521   21.1992 C   0  0  0  0  0  0  0  0  0  0  0  0
  -27.8416  -28.2362   22.7541 C   0  0  0  0  0  0  0  0  0  0  0  0
  -30.4397  -12.5109   19.9408 C   0  0  0  0  0  0  0  0  0  0  0  0
  -25.5130  -16.9303   23.1153 C   0  0  0  0  0  0  0  0  0  0  0  0
  -29.7718  -13.7320   20.1534 C   0  0  0  0  0  0  0  0  0  0  0  0
  -24.3241  -17.0764   22.3864 C   0  0  0  0  0  0  0  0  0  0  0  0
  -23.6627  -30.4677   20.6019 C   0  0  0  0  0  0  0  0  0  0  0  0
  -24.4651  -19.4875   22.6634 C   0  0  0  0  0  0  0  0  0  0  0  0
  -21.4666  -31.0559   21.1962 C   0  0  0  0  0  0  0  0  0  0  0  0
  -19.3290  -30.8503   22.9770 C   0  0  0  0  0  0  0  0  0  0  0  0
  -21.6225  -31.4586   22.5225 C   0  0  0  0  0  0  0  0  0  0  0  0
  -27.1935  -28.3202   21.5073 C   0  0  0  0  0  0  0  0  0  0  0  0
  -26.6158  -21.2841   17.7337 C   0  0  0  0  0  0  0  0  0  0  0  0
  -28.9280  -27.4283   22.5227 C   0  0  0  0  0  0  0  0  0  0  0  0
  -25.0648  -22.7792   17.2245 C   0  0  0  0  0  0  0  0  0  0  0  0
  -27.4927  -28.8347   24.0094 C   0  0  0  0  0  0  0  0  0  0  0  0
  -26.3065  -14.6399   21.0591 C   0  0  0  0  0  0  0  0  0  0  0  0
  -23.4641  -13.3725   21.9741 C   0  0  0  0  0  0  0  0  0  0  0  0
  -20.3506  -13.8800   23.2762 C   0  0  0  0  0  0  0  0  0  0  0  0
  -30.0613  -23.1865   18.4515 C   0  0  0  0  0  0  0  0  0  0  0  0
  -29.7662  -11.3466   19.2584 C   0  0  0  0  0  0  0  0  0  0  0  0
  -26.0725  -15.5621   23.3938 C   0  0  0  0  0  0  0  0  0  0  0  0
  -23.5838  -15.8885   21.8302 C   0  0  0  0  0  0  0  0  0  0  0  0
  -28.2436  -11.4534   19.2327 C   0  0  0  0  0  0  0  0  0  0  0  0
  -31.9622  -26.1356   19.0567 C   0  0  0  0  0  0  0  0  0  0  0  0
  -27.8137  -12.8511   18.7985 C   0  0  0  0  0  0  0  0  0  0  0  0
  -31.0141  -27.0223   19.8658 C   0  0  0  0  0  0  0  0  0  0  0  0
  -31.2147  -25.3309   17.9957 C   0  0  0  0  0  0  0  0  0  0  0  0
  -29.1350  -25.4210   19.3149 C   0  0  0  0  0  0  0  0  0  0  0  0
  -28.3156  -13.9136   19.7837 C   0  0  1  0  0  0  0  0  0  0  0  0
  -25.6136  -14.5125   22.3863 C   0  0  1  0  0  0  0  0  0  0  0  0
  -29.8351  -26.2100   20.4346 C   0  0  2  0  0  0  0  0  0  0  0  0
  -18.2401  -12.6585   23.8686 C   0  0  0  0  0  0  0  0  0  0  0  0
  -25.0944  -27.8036   17.3021 C   0  0  0  0  0  0  0  0  0  0  0  0
  -24.4898  -26.6634   15.1586 C   0  0  0  0  0  0  0  0  0  0  0  0
  -22.7589  -23.3225   21.8157 C   0  0  0  0  0  0  0  0  0  0  0  0
  -22.7142  -13.2401   19.0195 C   0  0  0  0  0  0  0  0  0  0  0  0
  -20.3278  -12.9312   19.7107 C   0  0  0  0  0  0  0  0  0  0  0  0
  -22.0411  -11.2373   20.3574 C   0  0  0  0  0  0  0  0  0  0  0  0
  -20.5899  -14.6147   26.1331 C   0  0  0  0  0  0  0  0  0  0  0  0
  -27.9594  -20.7014   17.7769 C   0  0  0  0  0  0  0  0  0  0  0  0
  -24.4084  -23.9954   16.6832 C   0  0  0  0  0  0  0  0  0  0  0  0
  -25.0300  -25.2925   17.2413 C   0  0  0  0  0  0  0  0  0  0  0  0
  -22.6041  -22.6325   19.4102 C   0  0  0  0  0  0  0  0  0  0  0  0
  -23.0168  -21.7096   18.2551 C   0  0  0  0  0  0  0  0  0  0  0  0
  -28.8005  -21.1210   19.0019 C   0  0  0  0  0  0  0  0  0  0  0  0
  -23.2224  -20.9204   21.2288 C   0  0  0  0  0  0  0  0  0  1  0  0
  -22.0367  -13.4937   21.4979 C   0  0  1  0  0  0  0  0  0  0  0  0
  -19.5863  -13.1570   24.3705 C   0  0  2  0  0  0  0  0  0  0  0  0
  -24.4051  -26.5848   16.6835 C   0  0  0  0  0  0  0  0  0  0  0  0
  -23.3264  -22.3751   20.7510 C   0  0  2  0  0  0  0  0  0  0  0  0
  -21.7947  -12.7483   20.1551 C   0  0  0  0  0  0  0  0  0  0  0  0
  -27.8164  -27.6217   20.5543 N   0  0  0  0  0  0  0  0  0  0  0  0
  -24.4814  -21.7858   17.9029 N   0  0  0  0  0  0  0  0  0  0  0  0
  -28.8672  -27.0910   21.2026 N   0  0  0  0  0  0  0  0  0  0  0  0
  -26.3644  -22.4850   17.1153 N   0  3  0  0  0  0  0  0  0  0  0  0
  -24.1742  -14.5722   22.1239 N   0  0  0  0  0  0  0  0  0  0  0  0
  -30.1103  -24.5824   18.6006 N   0  0  0  0  0  0  0  0  0  0  0  0
  -29.9199  -26.9807   23.3216 N   0  0  0  0  0  0  0  0  0  0  0  0
  -26.3444  -29.6360   24.0713 N   0  0  0  0  0  0  0  0  0  0  0  0
  -27.4897  -13.9314   20.9719 N   0  0  0  0  0  0  0  0  0  0  0  0
  -21.1985  -13.0299   22.5982 N   0  0  0  0  0  0  0  0  0  0  0  0
  -28.9849  -22.5539   19.0613 N   0  0  0  0  0  0  0  0  0  0  0  0
  -19.3492  -14.0683   25.5255 N   0  3  0  0  0  0  0  0  0  0  0  0
  -28.1879  -28.6774   25.0416 O   0  0  0  0  0  0  0  0  0  0  0  0
  -25.8041  -15.3286   20.1789 O   0  0  0  0  0  0  0  0  0  0  0  0
  -23.9297  -12.2551   22.2116 O   0  0  0  0  0  0  0  0  0  0  0  0
  -20.2068  -15.0782   23.0434 O   0  0  0  0  0  0  0  0  0  0  0  0
  -30.9166  -22.5506   17.8262 O   0  0  0  0  0  0  0  0  0  0  0  0
  -22.5264  -31.1581   20.3108 O   0  0  0  0  0  0  0  0  0  0  0  0
  -23.9555  -20.7290   22.4380 O   0  0  0  0  0  0  0  0  0  1  0  0
  -18.3021  -30.7530   23.8315 F   0  0  0  0  0  0  0  0  0  0  0  0
  -22.7965  -31.9461   22.9469 F   0  0  0  0  0  0  0  0  0  0  0  0
  1  2  1  0  0  0  0
  1  5  2  0  0  0  0
  2  6  2  0  0  0  0
  3  8  2  0  0  0  0
  3 16  1  0  0  0  0
  4  9  1  0  0  0  0
  4 16  2  0  0  0  0
  5 18  1  0  0  0  0
  6 20  1  0  0  0  0
  7 10  2  0  0  0  0
  7 19  1  0  0  0  0
  8 22  1  0  0  0  0
  9 22  2  0  0  0  0
 10 23  1  0  0  0  0
 11 12  2  0  0  0  0
 11 24  1  0  0  0  0
 12 25  1  0  0  0  0
 13 21  1  0  0  0  0
 13 23  2  0  0  0  0
 14 25  2  0  0  0  0
 14 26  1  0  0  0  0
 15 28  2  0  0  0  0
 15 69  1  0  0  0  0
 16 27  1  0  0  0  0
 17 27  1  0  0  0  0
 17 29  2  0  0  0  0
 17 31  1  0  0  0  0
 18 20  2  0  0  0  0
 18 36  1  0  0  0  0
 19 21  2  0  0  0  0
 19 37  1  0  0  0  0
 20 45  1  0  0  0  0
 21 38  1  0  0  0  0
 22 85  1  0  0  0  0
 23 86  1  0  0  0  0
 24 26  2  0  0  0  0
 24 85  1  0  0  0  0
 25 87  1  0  0  0  0
 26 88  1  0  0  0  0
 27 68  2  0  0  0  0
 28 56  1  0  0  0  0
 28 71  1  0  0  0  0
 29 70  1  0  0  0  0
 29 74  1  0  0  0  0
 30 57  1  0  0  0  0
 30 69  1  0  0  0  0
 30 71  2  0  0  0  0
 31 75  1  0  0  0  0
 31 80  2  0  0  0  0
 32 46  1  0  0  0  0
 32 76  1  0  0  0  0
 32 81  2  0  0  0  0
 33 63  1  0  0  0  0
 33 72  1  0  0  0  0
 33 82  2  0  0  0  0
 34 64  1  0  0  0  0
 34 77  1  0  0  0  0
 34 83  2  0  0  0  0
 35 73  1  0  0  0  0
 35 78  1  0  0  0  0
 35 84  2  0  0  0  0
 36 39  1  0  0  0  0
 37 46  1  0  0  0  0
 38 72  1  0  0  0  0
 39 41  1  0  0  0  0
 40 42  1  0  0  0  0
 40 43  1  0  0  0  0
 41 45  1  0  0  0  0
 42 47  1  0  0  0  0
 43 73  1  0  0  0  0
 44 47  1  0  0  0  0
 44 73  1  0  0  0  0
 45 76  1  0  0  0  0
 46 72  1  0  0  0  0
 47 70  1  0  0  0  0
 48 64  1  0  0  0  0
 49 65  1  0  0  0  0
 50 65  1  0  0  0  0
 51 66  1  0  0  0  0
 52 67  1  0  0  0  0
 53 67  1  0  0  0  0
 54 67  1  0  0  0  0
 55 79  1  0  0  0  0
 56 61  1  0  0  0  0
 57 58  1  0  0  0  0
 58 65  1  0  0  0  0
 59 60  1  0  0  0  0
 59 66  1  0  0  0  0
 60 69  1  0  0  0  0
 61 78  1  0  0  0  0
 62 66  1  0  0  0  0
 62 86  1  0  0  0  0
 63 67  1  0  0  0  0
 63 77  1  0  0  0  0
 64 79  1  0  0  0  0
 68 70  1  0  0  0  0
M  CHG  2  71   1  79   1
M  ISO  4  35 100  62 101  78 100  86 101
M  END
> <Batch ID>
0093

> <Smiles>
CNC(C)C(=O)NC(C(=O)N1Cc2cc([101O:1][101CH2:1]C(C)CCn3cc(CC[100NH:0][100C:0](=O)N4CCCC(n5nc(-c6ccc(Oc7ccc(F)cc7F)cc6)c(C(N)=O)c5N)C4)nc3CCC(C)C)ccc2CC1C(=O)NC1CCCc2ccccc21)C(C)(C)C

> <Shape>
0.238

> <Color>
0.059

> <Negative vol penalty>
0.000

$$$$

  -OEChem-04052319163D

 84 92  0     1  0  0  0  0  0999 V2000
  -23.1052  -13.1189   20.5613 C   0  0  0  0  0  0  0  0  0  0  0  0
  -24.0383  -14.1497   20.6067 C   0  0  0  0  0  0  0  0  0  0  0  0
  -29.2430  -17.3561   19.0543 C   0  0  0  0  0  0  0  0  0  0  0  0
  -30.1517  -17.9331   21.2173 C   0  0  0  0  0  0  0  0  0  0  0  0
  -21.7809  -13.3625   20.9231 C   0  0  0  0  0  0  0  0  0  0  0  0
  -23.6474  -15.4251   21.0128 C   0  0  0  0  0  0  0  0  0  0  0  0
  -26.1298  -21.1907   24.4642 C   0  0  0  0  0  0  0  0  0  0  0  0
  -29.8382  -16.0975   19.1399 C   0  0  0  0  0  0  0  0  0  0  0  0
  -30.7469  -16.6745   21.3029 C   0  0  0  0  0  0  0  0  0  0  0  0
  -26.2573  -22.5698   24.3042 C   0  0  0  0  0  0  0  0  0  0  0  0
  -30.8186  -12.6022   18.9498 C   0  0  0  0  0  0  0  0  0  0  0  0
  -30.0492  -11.4952   18.5917 C   0  0  0  0  0  0  0  0  0  0  0  0
  -23.9598  -22.8548   24.9820 C   0  0  0  0  0  0  0  0  0  0  0  0
  -28.4554  -12.0430   20.3228 C   0  0  0  0  0  0  0  0  0  0  0  0
  -29.3998  -18.2739   20.0930 C   0  0  0  0  0  0  0  0  0  0  0  0
  -27.5001  -19.9391   20.4478 C   0  0  0  0  0  0  0  0  0  0  0  0
  -21.3756  -14.6392   21.3431 C   0  0  0  0  0  0  0  0  0  0  0  0
  -24.9111  -20.6314   24.8745 C   0  0  0  0  0  0  0  0  0  0  0  0
  -22.3161  -15.6863   21.3793 C   0  0  0  0  0  0  0  0  0  0  0  0
  -23.8202  -21.4685   25.1490 C   0  0  0  0  0  0  0  0  0  0  0  0
  -25.5974  -27.4863   21.0361 C   0  0  0  0  0  0  0  0  0  0  0  0
  -30.5902  -15.7567   20.2642 C   0  0  0  0  0  0  0  0  0  0  0  0
  -25.1714  -23.4018   24.5603 C   0  0  0  0  0  0  0  0  0  0  0  0
  -30.4064  -13.4296   19.9944 C   0  0  0  0  0  0  0  0  0  0  0  0
  -28.8676  -11.2156   19.2782 C   0  0  0  0  0  0  0  0  0  0  0  0
  -29.2248  -13.1500   20.6809 C   0  0  0  0  0  0  0  0  0  0  0  0
  -28.7856  -19.5743   20.0049 C   0  0  0  0  0  0  0  0  0  0  0  0
  -26.8904  -28.0706   20.9128 C   0  0  0  0  0  0  0  0  0  0  0  0
  -24.6954  -28.1609   20.2422 C   0  0  0  0  0  0  0  0  0  0  0  0
  -27.3955  -21.2729   20.1370 C   0  0  0  0  0  0  0  0  0  0  0  0
  -26.4909  -19.1435   21.0836 C   0  0  0  0  0  0  0  0  0  0  0  0
  -22.8287  -18.6025   23.5898 C   0  0  0  0  0  0  0  0  0  0  0  0
  -21.4125  -18.8215   26.4999 C   0  0  0  0  0  0  0  0  0  0  0  0
  -20.9237  -20.6250   29.3557 C   0  0  0  0  0  0  0  0  0  0  0  0
  -29.5495  -26.4191   19.9887 C   0  0  0  0  0  0  0  0  0  0  0  0
  -19.9229  -14.8657   21.6792 C   0  0  0  0  0  0  0  0  0  0  0  0
  -24.7977  -19.1441   25.0681 C   0  0  0  0  0  0  0  0  0  0  0  0
  -22.4961  -20.9196   25.6114 C   0  0  0  0  0  0  0  0  0  0  0  0
  -19.6715  -16.1551   22.4567 C   0  0  0  0  0  0  0  0  0  0  0  0
  -30.3538  -24.2331   17.2959 C   0  0  0  0  0  0  0  0  0  0  0  0
  -20.4218  -17.3190   21.8172 C   0  0  0  0  0  0  0  0  0  0  0  0
  -29.9174  -22.8563   17.7996 C   0  0  0  0  0  0  0  0  0  0  0  0
  -30.9314  -25.0887   18.4212 C   0  0  0  0  0  0  0  0  0  0  0  0
  -29.6219  -23.8544   20.1051 C   0  0  0  0  0  0  0  0  0  0  0  0
  -21.9360  -17.0774   21.8382 C   0  0  1  0  0  0  0  0  0  0  0  0
  -23.3597  -18.6400   24.9949 C   0  0  1  0  0  0  0  0  0  0  0  0
  -28.9812  -22.9755   19.0172 C   0  0  2  0  0  0  0  0  0  0  0  0
  -23.4928  -26.3235   18.0545 C   0  0  0  0  0  0  0  0  0  0  0  0
  -22.4049  -29.1476   20.5083 C   0  0  0  0  0  0  0  0  0  0  0  0
  -19.6843  -20.5629   31.5368 C   0  0  0  0  0  0  0  0  0  0  0  0
  -18.8274  -19.5432   25.0486 C   0  0  0  0  0  0  0  0  0  0  0  0
  -17.9201  -20.3802   27.2269 C   0  0  0  0  0  0  0  0  0  0  0  0
  -18.5390  -17.9766   26.9766 C   0  0  0  0  0  0  0  0  0  0  0  0
  -23.4364  -20.6878   30.9183 C   0  0  0  0  0  0  0  0  0  0  0  0
  -25.2619  -26.3027   21.9079 C   0  0  0  0  0  0  0  0  0  0  0  0
  -28.1067  -27.6113   21.6184 C   0  0  0  0  0  0  0  0  0  0  0  0
  -22.8569  -27.6152   18.5538 C   0  0  0  0  0  0  0  0  0  0  0  0
  -24.5287  -26.6763   23.1981 C   0  0  0  0  0  0  0  0  0  0  0  0
  -24.1183  -25.4675   24.0310 C   0  0  0  0  0  0  0  0  0  1  0  0
  -23.2521  -27.9430   20.0268 C   0  0  1  0  0  0  0  0  0  0  0  0
  -20.3658  -19.7190   27.1147 C   0  0  1  0  0  0  0  0  0  0  0  0
  -20.9832  -20.2286   30.8199 C   0  0  2  0  0  0  0  0  0  0  0  0
  -18.9373  -19.4152   26.5811 C   0  0  0  0  0  0  0  0  0  0  0  0
  -29.4499  -20.5939   19.4543 N   0  0  0  0  0  0  0  0  0  0  0  0
  -27.0117  -29.1145   20.0962 N   0  0  0  0  0  0  0  0  0  0  0  0
  -28.5784  -21.6126   19.5492 N   0  0  0  0  0  0  0  0  0  0  0  0
  -22.4332  -19.4584   25.7798 N   0  0  0  0  0  0  0  0  0  0  0  0
  -29.9941  -25.1629   19.5445 N   0  0  0  0  0  0  0  0  0  0  0  0
  -26.4079  -22.1765   20.3116 N   0  0  0  0  0  0  0  0  0  0  0  0
  -26.7629  -17.7908   21.3293 N   0  0  0  0  0  0  0  0  0  0  0  0
  -22.4714  -17.3398   23.1569 N   0  0  0  0  0  0  0  0  0  0  0  0
  -20.5061  -19.5791   28.5601 N   0  0  0  0  0  0  0  0  0  0  0  0
  -28.6576  -26.3994   21.0540 N   0  0  0  0  0  0  0  0  0  0  0  0
  -22.0961  -20.9444   31.5055 N   0  3  0  0  0  0  0  0  0  0  0  0
  -25.3745  -19.6142   21.4088 O   0  0  0  0  0  0  0  0  0  0  0  0
  -22.7476  -19.6424   22.9466 O   0  0  0  0  0  0  0  0  0  0  0  0
  -21.3317  -17.6010   26.6590 O   0  0  0  0  0  0  0  0  0  0  0  0
  -21.2149  -21.7509   28.9580 O   0  0  0  0  0  0  0  0  0  0  0  0
  -29.9159  -27.4794   19.4706 O   0  0  0  0  0  0  0  0  0  0  0  0
  -31.1710  -14.5286   20.3482 O   0  0  0  0  0  0  0  0  0  0  0  0
  -25.2929  -24.7482   24.4043 O   0  0  0  0  0  0  0  0  0  1  0  0
  -28.1281  -10.1534   18.9332 F   0  0  0  0  0  0  0  0  0  0  0  0
  -28.8230  -13.9419   21.6845 F   0  0  0  0  0  0  0  0  0  0  0  0
  -25.5192  -29.4276   19.4356 S   0  0  0  0  0  0  0  0  0  0  0  0
  1  2  1  0  0  0  0
  1  5  2  0  0  0  0
  2  6  2  0  0  0  0
  3  8  2  0  0  0  0
  3 15  1  0  0  0  0
  4  9  1  0  0  0  0
  4 15  2  0  0  0  0
  5 17  1  0  0  0  0
  6 19  1  0  0  0  0
  7 10  2  0  0  0  0
  7 18  1  0  0  0  0
  8 22  1  0  0  0  0
  9 22  2  0  0  0  0
 10 23  1  0  0  0  0
 11 12  2  0  0  0  0
 11 24  1  0  0  0  0
 12 25  1  0  0  0  0
 13 20  1  0  0  0  0
 13 23  2  0  0  0  0
 14 25  2  0  0  0  0
 14 26  1  0  0  0  0
 15 27  1  0  0  0  0
 16 27  1  0  0  0  0
 16 30  2  0  0  0  0
 16 31  1  0  0  0  0
 17 19  2  0  0  0  0
 17 36  1  0  0  0  0
 18 20  2  0  0  0  0
 18 37  1  0  0  0  0
 19 45  1  0  0  0  0
 20 38  1  0  0  0  0
 21 28  1  0  0  0  0
 21 29  2  0  0  0  0
 21 55  1  0  0  0  0
 22 80  1  0  0  0  0
 23 81  1  0  0  0  0
 24 26  2  0  0  0  0
 24 80  1  0  0  0  0
 25 82  1  0  0  0  0
 26 83  1  0  0  0  0
 27 64  2  0  0  0  0
 28 56  1  0  0  0  0
 28 65  2  0  0  0  0
 29 60  1  0  0  0  0
 29 84  1  0  0  0  0
 30 66  1  0  0  0  0
 30 69  1  0  0  0  0
 31 70  1  0  0  0  0
 31 75  2  0  0  0  0
 32 46  1  0  0  0  0
 32 71  1  0  0  0  0
 32 76  2  0  0  0  0
 33 61  1  0  0  0  0
 33 67  1  0  0  0  0
 33 77  2  0  0  0  0
 34 62  1  0  0  0  0
 34 72  1  0  0  0  0
 34 78  2  0  0  0  0
 35 68  1  0  0  0  0
 35 73  1  0  0  0  0
 35 79  2  0  0  0  0
 36 39  1  0  0  0  0
 37 46  1  0  0  0  0
 38 67  1  0  0  0  0
 39 41  1  0  0  0  0
 40 42  1  0  0  0  0
 40 43  1  0  0  0  0
 41 45  1  0  0  0  0
 42 47  1  0  0  0  0
 43 68  1  0  0  0  0
 44 47  1  0  0  0  0
 44 68  1  0  0  0  0
 45 71  1  0  0  0  0
 46 67  1  0  0  0  0
 47 66  1  0  0  0  0
 48 57  1  0  0  0  0
 49 60  1  0  0  0  0
 50 62  1  0  0  0  0
 51 63  1  0  0  0  0
 52 63  1  0  0  0  0
 53 63  1  0  0  0  0
 54 74  1  0  0  0  0
 55 58  1  0  0  0  0
 56 73  1  0  0  0  0
 57 60  1  0  0  0  0
 58 59  1  0  0  0  0
 59 81  1  0  0  0  0
 61 63  1  0  0  0  0
 61 72  1  0  0  0  0
 62 74  1  0  0  0  0
 64 66  1  0  0  0  0
 65 84  1  0  0  0  0
M  CHG  1  74   1
M  ISO  4  35 100  59 101  73 100  81 101
M  END
> <Batch ID>
0093

> <Smiles>
CCC(C)c1snc(C[100NH:0][100C:0](=O)N2CCCC(n3nc(-c4ccc(Oc5ccc(F)cc5F)cc4)c(C(N)=O)c3N)C2)c1CC[101CH2:1][101O:1]c1ccc2c(c1)CN(C(=O)C(NC(=O)C(C)NC)C(C)(C)C)C(C(=O)NC1CCCc3ccccc31)C2

> <Shape>
0.213

> <Color>
0.054

> <Negative vol penalty>
0.000

$$$$

  -OEChem-04052319163D

 89 97  0     1  0  0  0  0  0999 V2000
  -23.5250  -24.2366   19.3439 C   0  0  0  0  0  0  0  0  0  0  0  0
  -24.6288  -23.4576   19.6755 C   0  0  0  0  0  0  0  0  0  0  0  0
  -25.4738  -27.9983   20.3226 C   0  0  0  0  0  0  0  0  0  0  0  0
  -26.8404  -27.7340   22.2974 C   0  0  0  0  0  0  0  0  0  0  0  0
  -22.2450  -23.8208   19.7081 C   0  0  0  0  0  0  0  0  0  0  0  0
  -24.4534  -22.2627   20.3726 C   0  0  0  0  0  0  0  0  0  0  0  0
  -27.2061  -18.4709   18.4518 C   0  0  0  0  0  0  0  0  0  0  0  0
  -24.3672  -28.2747   21.1254 C   0  0  0  0  0  0  0  0  0  0  0  0
  -25.7338  -28.0105   23.1002 C   0  0  0  0  0  0  0  0  0  0  0  0
  -28.5641  -18.4468   18.7667 C   0  0  0  0  0  0  0  0  0  0  0  0
  -22.1398  -26.5363   22.9805 C   0  0  0  0  0  0  0  0  0  0  0  0
  -20.9358  -25.9084   22.6617 C   0  0  0  0  0  0  0  0  0  0  0  0
  -28.1354  -16.7848   20.4618 C   0  0  0  0  0  0  0  0  0  0  0  0
  -19.8946  -28.0655   22.3456 C   0  0  0  0  0  0  0  0  0  0  0  0
  -35.1895  -20.3778   20.5385 C   0  0  0  0  0  0  0  0  0  0  0  0
  -26.7104  -27.7279   20.9086 C   0  0  0  0  0  0  0  0  0  0  0  0
  -28.7811  -28.3659   19.5621 C   0  0  0  0  0  0  0  0  0  0  0  0
  -22.0529  -22.6154   20.4015 C   0  0  0  0  0  0  0  0  0  0  0  0
  -26.2995  -17.6587   19.1481 C   0  0  0  0  0  0  0  0  0  0  0  0
  -23.1698  -21.8310   20.7476 C   0  0  0  0  0  0  0  0  0  0  0  0
  -26.7668  -16.7986   20.1520 C   0  0  0  0  0  0  0  0  0  0  0  0
  -24.4971  -28.2808   22.5142 C   0  0  0  0  0  0  0  0  0  0  0  0
  -29.0285  -17.6059   19.7738 C   0  0  0  0  0  0  0  0  0  0  0  0
  -22.2212  -27.9289   22.9820 C   0  0  0  0  0  0  0  0  0  0  0  0
  -19.8132  -26.6730   22.3442 C   0  0  0  0  0  0  0  0  0  0  0  0
  -21.0986  -28.6934   22.6645 C   0  0  0  0  0  0  0  0  0  0  0  0
  -27.8538  -27.4418   20.0798 C   0  0  0  0  0  0  0  0  0  0  0  0
  -34.5361  -21.5295   20.8754 C   0  0  0  0  0  0  0  0  0  0  0  0
  -29.6677  -27.5985   18.8468 C   0  0  0  0  0  0  0  0  0  0  0  0
  -34.2180  -20.0626   22.5025 C   0  0  0  0  0  0  0  0  0  0  0  0
  -28.8361  -29.7905   19.7141 C   0  0  0  0  0  0  0  0  0  0  0  0
  -23.7743  -18.1947   21.0027 C   0  0  0  0  0  0  0  0  0  0  0  0
  -23.4910  -14.9654   20.8849 C   0  0  0  0  0  0  0  0  0  0  0  0
  -24.9972  -11.9405   20.4076 C   0  0  0  0  0  0  0  0  0  0  0  0
  -32.2492  -22.4197   19.0202 C   0  0  0  0  0  0  0  0  0  0  0  0
  -20.6545  -22.2308   20.8152 C   0  0  0  0  0  0  0  0  0  0  0  0
  -24.8417  -17.6767   18.7782 C   0  0  0  0  0  0  0  0  0  0  0  0
  -25.8374  -15.8921   20.9156 C   0  0  0  0  0  0  0  0  0  0  0  0
  -20.5214  -20.7661   21.2242 C   0  0  0  0  0  0  0  0  0  0  0  0
  -29.5300  -23.0904   16.8219 C   0  0  0  0  0  0  0  0  0  0  0  0
  -21.6538  -20.3699   22.1664 C   0  0  0  0  0  0  0  0  0  0  0  0
  -28.9068  -24.3668   17.3898 C   0  0  0  0  0  0  0  0  0  0  0  0
  -30.0394  -22.1702   17.9290 C   0  0  0  0  0  0  0  0  0  0  0  0
  -30.3404  -24.0823   19.4544 C   0  0  0  0  0  0  0  0  0  0  0  0
  -23.0180  -20.5163   21.4815 C   0  0  1  0  0  0  0  0  0  0  0  0
  -23.9341  -17.1849   19.9016 C   0  0  1  0  0  0  0  0  0  0  0  0
  -29.8625  -25.0676   18.3740 C   0  0  2  0  0  0  0  0  0  0  0  0
  -27.5002  -20.4132   23.0004 C   0  0  0  0  0  0  0  0  0  0  0  0
  -24.5160   -9.4776   20.4129 C   0  0  0  0  0  0  0  0  0  0  0  0
  -32.7801  -14.7535   20.2552 C   0  0  0  0  0  0  0  0  0  0  0  0
  -23.4450  -14.9834   23.9357 C   0  0  0  0  0  0  0  0  0  0  0  0
  -23.9207  -12.5258   23.8879 C   0  0  0  0  0  0  0  0  0  0  0  0
  -21.8174  -13.4071   22.8771 C   0  0  0  0  0  0  0  0  0  0  0  0
  -25.7676  -11.6661   17.5633 C   0  0  0  0  0  0  0  0  0  0  0  0
  -34.4101  -22.8110   20.1764 C   0  0  0  0  0  0  0  0  0  0  0  0
  -33.7547  -19.4505   23.7727 C   0  0  0  0  0  0  0  0  0  0  0  0
  -28.8715  -19.9458   22.5391 C   0  0  0  0  0  0  0  0  0  0  0  0
  -32.3809  -19.9815   24.2055 C   0  0  0  0  0  0  0  0  0  0  0  0
  -29.9429  -20.2295   23.5915 C   0  0  0  0  0  0  0  0  0  0  0  0
  -31.3149  -19.7275   23.1382 C   0  0  0  0  0  0  0  0  0  0  0  0
  -34.7160  -17.1338   20.7172 C   0  0  0  0  0  0  0  0  0  0  0  0
  -33.2366  -17.1121   21.1157 C   0  0  0  0  0  0  0  0  0  0  0  0
  -35.5159  -18.0812   21.6160 C   0  0  0  0  0  0  0  0  0  0  0  0
  -30.8814  -16.3513   20.5791 C   0  0  0  0  0  0  0  0  0  1  0  0
  -24.0208  -13.8151   21.7064 C   0  0  1  0  0  0  0  0  0  0  0  0
  -24.6012  -10.7393   19.5681 C   0  0  2  0  0  0  0  0  0  0  0  0
  -32.3643  -16.2246   20.2017 C   0  0  2  0  0  0  0  0  0  0  0  0
  -23.3185  -13.7012   23.0889 C   0  0  0  0  0  0  0  0  0  0  0  0
  -28.1260  -26.1836   19.7236 N   0  0  0  0  0  0  0  0  0  0  0  0
  -34.9762  -19.4876   21.5633 N   0  0  0  0  0  0  0  0  0  0  0  0
  -29.2343  -26.3116   18.9744 N   0  0  0  0  0  0  0  0  0  0  0  0
  -33.9438  -21.3060   22.0949 N   0  3  0  0  0  0  0  0  0  0  0  0
  -24.4201  -15.9506   20.5214 N   0  0  0  0  0  0  0  0  0  0  0  0
  -30.9418  -22.8953   18.8266 N   0  0  0  0  0  0  0  0  0  0  0  0
  -30.7679  -27.9058   18.1274 N   0  0  0  0  0  0  0  0  0  0  0  0
  -27.8465  -30.4191   20.4822 N   0  0  0  0  0  0  0  0  0  0  0  0
  -23.2552  -19.4053   20.5849 N   0  0  0  0  0  0  0  0  0  0  0  0
  -23.8941  -12.6251   20.8720 N   0  0  0  0  0  0  0  0  0  0  0  0
  -33.0407  -23.1696   19.8816 N   0  0  0  0  0  0  0  0  0  0  0  0
  -25.5990  -10.5130   18.4846 N   0  3  0  0  0  0  0  0  0  0  0  0
  -29.7267  -30.4872   19.1711 O   0  0  0  0  0  0  0  0  0  0  0  0
  -24.0965  -17.8970   22.1469 O   0  0  0  0  0  0  0  0  0  0  0  0
  -22.2982  -14.9855   20.5709 O   0  0  0  0  0  0  0  0  0  0  0  0
  -26.1680  -12.2392   20.6323 O   0  0  0  0  0  0  0  0  0  0  0  0
  -32.6810  -21.4052   18.4623 O   0  0  0  0  0  0  0  0  0  0  0  0
  -23.4175  -28.5507   23.2979 O   0  0  0  0  0  0  0  0  0  0  0  0
  -30.3534  -17.5809   20.0836 O   0  0  0  0  0  0  0  0  0  1  0  0
  -18.6575  -26.0698   22.0366 F   0  0  0  0  0  0  0  0  0  0  0  0
  -21.1710  -30.0315   22.6630 F   0  0  0  0  0  0  0  0  0  0  0  0
  1  2  1  0  0  0  0
  1  5  2  0  0  0  0
  2  6  2  0  0  0  0
  3  8  2  0  0  0  0
  3 16  1  0  0  0  0
  4  9  1  0  0  0  0
  4 16  2  0  0  0  0
  5 18  1  0  0  0  0
  6 20  1  0  0  0  0
  7 10  2  0  0  0  0
  7 19  1  0  0  0  0
  8 22  1  0  0  0  0
  9 22  2  0  0  0  0
 10 23  1  0  0  0  0
 11 12  2  0  0  0  0
 11 24  1  0  0  0  0
 12 25  1  0  0  0  0
 13 21  1  0  0  0  0
 13 23  2  0  0  0  0
 14 25  2  0  0  0  0
 14 26  1  0  0  0  0
 15 28  2  0  0  0  0
 15 70  1  0  0  0  0
 16 27  1  0  0  0  0
 17 27  1  0  0  0  0
 17 29  2  0  0  0  0
 17 31  1  0  0  0  0
 18 20  2  0  0  0  0
 18 36  1  0  0  0  0
 19 21  2  0  0  0  0
 19 37  1  0  0  0  0
 20 45  1  0  0  0  0
 21 38  1  0  0  0  0
 22 86  1  0  0  0  0
 23 87  1  0  0  0  0
 24 26  2  0  0  0  0
 24 86  1  0  0  0  0
 25 88  1  0  0  0  0
 26 89  1  0  0  0  0
 27 69  2  0  0  0  0
 28 55  1  0  0  0  0
 28 72  1  0  0  0  0
 29 71  1  0  0  0  0
 29 75  1  0  0  0  0
 30 56  1  0  0  0  0
 30 70  1  0  0  0  0
 30 72  2  0  0  0  0
 31 76  1  0  0  0  0
 31 81  2  0  0  0  0
 32 46  1  0  0  0  0
 32 77  1  0  0  0  0
 32 82  2  0  0  0  0
 33 65  1  0  0  0  0
 33 73  1  0  0  0  0
 33 83  2  0  0  0  0
 34 66  1  0  0  0  0
 34 78  1  0  0  0  0
 34 84  2  0  0  0  0
 35 74  1  0  0  0  0
 35 79  1  0  0  0  0
 35 85  2  0  0  0  0
 36 39  1  0  0  0  0
 37 46  1  0  0  0  0
 38 73  1  0  0  0  0
 39 41  1  0  0  0  0
 40 42  1  0  0  0  0
 40 43  1  0  0  0  0
 41 45  1  0  0  0  0
 42 47  1  0  0  0  0
 43 74  1  0  0  0  0
 44 47  1  0  0  0  0
 44 74  1  0  0  0  0
 45 77  1  0  0  0  0
 46 73  1  0  0  0  0
 47 71  1  0  0  0  0
 48 57  1  0  0  0  0
 49 66  1  0  0  0  0
 50 67  1  0  0  0  0
 51 68  1  0  0  0  0
 52 68  1  0  0  0  0
 53 68  1  0  0  0  0
 54 80  1  0  0  0  0
 55 79  1  0  0  0  0
 56 58  1  0  0  0  0
 57 59  1  0  0  0  0
 58 60  1  0  0  0  0
 59 60  1  0  0  0  0
 61 62  1  0  0  0  0
 61 63  1  0  0  0  0
 62 67  1  0  0  0  0
 63 70  1  0  0  0  0
 64 67  1  0  0  0  0
 64 87  1  0  0  0  0
 65 68  1  0  0  0  0
 65 78  1  0  0  0  0
 66 80  1  0  0  0  0
 69 71  1  0  0  0  0
M  CHG  2  72   1  80   1
M  ISO  4  35 100  64 101  79 100  87 101
M  END
> <Batch ID>
0093

> <Smiles>
CCCCCCc1nc(C[100NH:0][100C:0](=O)N2CCCC(n3nc(-c4ccc(Oc5ccc(F)cc5F)cc4)c(C(N)=O)c3N)C2)cn1CCCC(C)[101CH2:1][101O:1]c1ccc2c(c1)CN(C(=O)C(NC(=O)C(C)NC)C(C)(C)C)C(C(=O)NC1CCCc3ccccc31)C2

> <Shape>
0.202

> <Color>
0.076

> <Negative vol penalty>
0.000

$$$$

  -OEChem-04052319163D

 92100  0     1  0  0  0  0  0999 V2000
  -30.3924  -33.5414   20.2085 C   0  0  0  0  0  0  0  0  0  0  0  0
  -30.9404  -32.3075   20.5440 C   0  0  0  0  0  0  0  0  0  0  0  0
  -22.9714  -10.0180   19.9165 C   0  0  0  0  0  0  0  0  0  0  0  0
  -23.8001   -9.8593   22.1804 C   0  0  0  0  0  0  0  0  0  0  0  0
  -29.0489  -33.6309   19.8467 C   0  0  0  0  0  0  0  0  0  0  0  0
  -30.1449  -31.1625   20.5189 C   0  0  0  0  0  0  0  0  0  0  0  0
  -31.8885  -25.5016   18.9631 C   0  0  0  0  0  0  0  0  0  0  0  0
  -22.1762   -8.8919   20.1286 C   0  0  0  0  0  0  0  0  0  0  0  0
  -23.0049   -8.7331   22.3925 C   0  0  0  0  0  0  0  0  0  0  0  0
  -32.2575  -24.3919   19.7221 C   0  0  0  0  0  0  0  0  0  0  0  0
  -19.2360   -8.1659   21.6322 C   0  0  0  0  0  0  0  0  0  0  0  0
  -17.9143   -8.2128   21.1890 C   0  0  0  0  0  0  0  0  0  0  0  0
  -30.0043  -23.5445   19.5676 C   0  0  0  0  0  0  0  0  0  0  0  0
  -32.4339  -18.5609   24.3128 C   0  0  0  0  0  0  0  0  0  0  0  0
  -18.3311   -6.3203   19.7460 C   0  0  0  0  0  0  0  0  0  0  0  0
  -23.7834  -10.5017   20.9424 C   0  0  0  0  0  0  0  0  0  0  0  0
  -24.2530  -13.0091   20.9473 C   0  0  0  0  0  0  0  0  0  0  0  0
  -28.2389  -32.4850   19.8078 C   0  0  0  0  0  0  0  0  0  0  0  0
  -30.5697  -25.6468   18.5091 C   0  0  0  0  0  0  0  0  0  0  0  0
  -28.7890  -31.2370   20.1575 C   0  0  0  0  0  0  0  0  0  0  0  0
  -29.6217  -24.6557   18.8008 C   0  0  0  0  0  0  0  0  0  0  0  0
  -32.5928  -17.2293   23.9459 C   0  0  0  0  0  0  0  0  0  0  0  0
  -33.8568  -16.6509   23.9793 C   0  0  0  0  0  0  0  0  0  0  0  0
  -22.1930   -8.2494   21.3666 C   0  0  0  0  0  0  0  0  0  0  0  0
  -31.3147  -23.4146   20.0269 C   0  0  0  0  0  0  0  0  0  0  0  0
  -20.1053   -7.1963   21.1323 C   0  0  0  0  0  0  0  0  0  0  0  0
  -17.4618   -7.2900   20.2459 C   0  0  0  0  0  0  0  0  0  0  0  0
  -19.6528   -6.2735   20.1893 C   0  0  0  0  0  0  0  0  0  0  0  0
  -24.6055  -11.6647   20.7238 C   0  0  0  0  0  0  0  0  0  0  0  0
  -33.5616  -19.2654   24.7024 C   0  0  0  0  0  0  0  0  0  0  0  0
  -34.9209  -17.4408   24.3837 C   0  0  0  0  0  0  0  0  0  0  0  0
  -25.3712  -13.7215   20.5888 C   0  0  0  0  0  0  0  0  0  0  0  0
  -23.0246  -13.5644   21.4355 C   0  0  0  0  0  0  0  0  0  0  0  0
  -28.2565  -27.7753   18.9803 C   0  0  0  0  0  0  0  0  0  0  0  0
  -26.7216  -26.0282   16.7189 C   0  0  0  0  0  0  0  0  0  0  0  0
  -26.3708  -23.0384   15.1110 C   0  0  0  0  0  0  0  0  0  0  0  0
  -30.9039  -14.4501   20.6491 C   0  0  0  0  0  0  0  0  0  0  0  0
  -26.7803  -32.6386   19.4563 C   0  0  0  0  0  0  0  0  0  0  0  0
  -30.1940  -26.8364   17.6687 C   0  0  0  0  0  0  0  0  0  0  0  0
  -28.1977  -24.7542   18.3200 C   0  0  0  0  0  0  0  0  0  0  0  0
  -26.0995  -31.3217   19.0924 C   0  0  0  0  0  0  0  0  0  0  0  0
  -29.5710  -12.2623   18.1765 C   0  0  0  0  0  0  0  0  0  0  0  0
  -26.4551  -30.2389   20.1063 C   0  0  0  0  0  0  0  0  0  0  0  0
  -28.1341  -12.0180   18.6406 C   0  0  0  0  0  0  0  0  0  0  0  0
  -30.5346  -12.3695   19.3564 C   0  0  0  0  0  0  0  0  0  0  0  0
  -28.7168  -13.1176   20.8429 C   0  0  0  0  0  0  0  0  0  0  0  0
  -27.9645  -29.9686   20.1183 C   0  0  1  0  0  0  0  0  0  0  0  0
  -28.6987  -27.1374   17.6938 C   0  0  1  0  0  0  0  0  0  0  0  0
  -27.6994  -13.0581   19.6907 C   0  0  2  0  0  0  0  0  0  0  0  0
  -36.3023  -16.8751   24.4414 C   0  0  0  0  0  0  0  0  0  0  0  0
  -25.0069  -21.9046   13.3357 C   0  0  0  0  0  0  0  0  0  0  0  0
  -34.5983  -12.0122   25.7638 C   0  0  0  0  0  0  0  0  0  0  0  0
  -33.2474  -12.2664   23.6731 C   0  0  0  0  0  0  0  0  0  0  0  0
  -30.1668  -17.8866   20.0697 C   0  0  0  0  0  0  0  0  0  0  0  0
  -29.1025  -18.0948   22.3294 C   0  0  0  0  0  0  0  0  0  0  0  0
  -24.3905  -25.7797   18.6719 C   0  0  0  0  0  0  0  0  0  0  0  0
  -23.5059  -23.9041   17.2690 C   0  0  0  0  0  0  0  0  0  0  0  0
  -23.7226  -26.1913   16.2972 C   0  0  0  0  0  0  0  0  0  0  0  0
  -28.7567  -22.5418   13.4318 C   0  0  0  0  0  0  0  0  0  0  0  0
  -31.3955  -16.4462   23.5189 C   0  0  0  0  0  0  0  0  0  0  0  0
  -34.0572  -15.2238   23.5936 C   0  0  0  0  0  0  0  0  0  0  0  0
  -33.4271  -20.7114   25.1084 C   0  0  0  0  0  0  0  0  0  0  0  0
  -34.2434  -14.3147   24.8226 C   0  0  0  0  0  0  0  0  0  0  0  0
  -33.5868  -21.6981   23.9465 C   0  0  0  0  0  0  0  0  0  0  0  0
  -32.5043  -21.5440   22.8771 C   0  0  0  0  0  0  0  0  0  0  0  0
  -32.7182  -22.5123   21.7216 C   0  0  0  0  0  0  0  0  0  1  0  0
  -25.8063  -24.8277   16.7340 C   0  0  1  0  0  0  0  0  0  0  0  0
  -26.2719  -22.6935   13.6360 C   0  0  2  0  0  0  0  0  0  0  0  0
  -34.4219  -12.8243   24.4782 C   0  0  0  0  0  0  0  0  0  0  0  0
  -30.4147  -17.8393   21.5818 C   0  0  0  0  0  0  0  0  0  0  0  0
  -31.1198  -16.5226   21.9972 C   0  0  2  0  0  0  0  0  0  0  0  0
  -24.3826  -25.1745   17.2539 C   0  0  0  0  0  0  0  0  0  0  0  0
  -25.8503  -11.5284   20.2591 N   0  0  0  0  0  0  0  0  0  0  0  0
  -34.8054  -18.7378   24.7475 N   0  0  0  0  0  0  0  0  0  0  0  0
  -26.2897  -12.7965   20.1876 N   0  0  0  0  0  0  0  0  0  0  0  0
  -27.8778  -25.9392   17.5071 N   0  0  0  0  0  0  0  0  0  0  0  0
  -30.0658  -13.3737   20.3143 N   0  0  0  0  0  0  0  0  0  0  0  0
  -25.6486  -15.0426   20.5807 N   0  0  0  0  0  0  0  0  0  0  0  0
  -21.9772  -12.6902   21.7568 N   0  0  0  0  0  0  0  0  0  0  0  0
  -28.3412  -29.1545   18.9826 N   0  0  0  0  0  0  0  0  0  0  0  0
  -25.8316  -24.2781   15.3829 N   0  0  0  0  0  0  0  0  0  0  0  0
  -30.3801  -15.3598   21.5595 N   0  0  0  0  0  0  0  0  0  0  0  0
  -27.4457  -21.8774   13.2151 N   0  3  0  0  0  0  0  0  0  0  0  0
  -22.8548  -14.8003   21.5669 O   0  0  0  0  0  0  0  0  0  0  0  0
  -27.8659  -27.0686   19.9021 O   0  0  0  0  0  0  0  0  0  0  0  0
  -26.4254  -27.0058   16.0275 O   0  0  0  0  0  0  0  0  0  0  0  0
  -26.8725  -22.2822   15.9398 O   0  0  0  0  0  0  0  0  0  0  0  0
  -32.0332  -14.5928   20.1681 O   0  0  0  0  0  0  0  0  0  0  0  0
  -21.4170   -7.1506   21.5740 O   0  0  0  0  0  0  0  0  0  0  0  0
  -31.6721  -22.3307   20.7682 O   0  0  0  0  0  0  0  0  0  1  0  0
  -16.1921   -7.3342   19.8215 F   0  0  0  0  0  0  0  0  0  0  0  0
  -20.4830   -5.3390   19.7063 F   0  0  0  0  0  0  0  0  0  0  0  0
  1  2  1  0  0  0  0
  1  5  2  0  0  0  0
  2  6  2  0  0  0  0
  3  8  2  0  0  0  0
  3 16  1  0  0  0  0
  4  9  1  0  0  0  0
  4 16  2  0  0  0  0
  5 18  1  0  0  0  0
  6 20  1  0  0  0  0
  7 10  2  0  0  0  0
  7 19  1  0  0  0  0
  8 24  1  0  0  0  0
  9 24  2  0  0  0  0
 10 25  1  0  0  0  0
 11 12  2  0  0  0  0
 11 26  1  0  0  0  0
 12 27  1  0  0  0  0
 13 21  1  0  0  0  0
 13 25  2  0  0  0  0
 14 22  2  0  0  0  0
 14 30  1  0  0  0  0
 15 27  2  0  0  0  0
 15 28  1  0  0  0  0
 16 29  1  0  0  0  0
 17 29  1  0  0  0  0
 17 32  2  0  0  0  0
 17 33  1  0  0  0  0
 18 20  2  0  0  0  0
 18 38  1  0  0  0  0
 19 21  2  0  0  0  0
 19 39  1  0  0  0  0
 20 47  1  0  0  0  0
 21 40  1  0  0  0  0
 22 23  1  0  0  0  0
 22 60  1  0  0  0  0
 23 31  2  0  0  0  0
 23 61  1  0  0  0  0
 24 89  1  0  0  0  0
 25 90  1  0  0  0  0
 26 28  2  0  0  0  0
 26 89  1  0  0  0  0
 27 91  1  0  0  0  0
 28 92  1  0  0  0  0
 29 73  2  0  0  0  0
 30 62  1  0  0  0  0
 30 74  2  0  0  0  0
 31 50  1  0  0  0  0
 31 74  1  0  0  0  0
 32 75  1  0  0  0  0
 32 78  1  0  0  0  0
 33 79  1  0  0  0  0
 33 84  2  0  0  0  0
 34 48  1  0  0  0  0
 34 80  1  0  0  0  0
 34 85  2  0  0  0  0
 35 67  1  0  0  0  0
 35 76  1  0  0  0  0
 35 86  2  0  0  0  0
 36 68  1  0  0  0  0
 36 81  1  0  0  0  0
 36 87  2  0  0  0  0
 37 77  1  0  0  0  0
 37 82  1  0  0  0  0
 37 88  2  0  0  0  0
 38 41  1  0  0  0  0
 39 48  1  0  0  0  0
 40 76  1  0  0  0  0
 41 43  1  0  0  0  0
 42 44  1  0  0  0  0
 42 45  1  0  0  0  0
 43 47  1  0  0  0  0
 44 49  1  0  0  0  0
 45 77  1  0  0  0  0
 46 49  1  0  0  0  0
 46 77  1  0  0  0  0
 47 80  1  0  0  0  0
 48 76  1  0  0  0  0
 49 75  1  0  0  0  0
 51 68  1  0  0  0  0
 52 69  1  0  0  0  0
 53 69  1  0  0  0  0
 54 70  1  0  0  0  0
 55 70  1  0  0  0  0
 56 72  1  0  0  0  0
 57 72  1  0  0  0  0
 58 72  1  0  0  0  0
 59 83  1  0  0  0  0
 60 71  1  0  0  0  0
 61 63  1  0  0  0  0
 62 64  1  0  0  0  0
 63 69  1  0  0  0  0
 64 65  1  0  0  0  0
 65 66  1  0  0  0  0
 66 90  1  0  0  0  0
 67 72  1  0  0  0  0
 67 81  1  0  0  0  0
 68 83  1  0  0  0  0
 70 71  1  0  0  0  0
 71 82  1  0  0  0  0
 73 75  1  0  0  0  0
M  CHG  1  83   1
M  ISO  4  37 100  66 101  82 100  90 101
M  END
> <Batch ID>
0093

> <Smiles>
CNC(C)C(=O)NC(C(=O)N1Cc2cc([101O:1][101CH2:1]CCCc3cc(CC([100NH:0][100C:0](=O)N4CCCC(n5nc(-c6ccc(Oc7ccc(F)cc7F)cc6)c(C(N)=O)c5N)C4)C(C)C)c(CCC(C)C)c(C)n3)ccc2CC1C(=O)NC1CCCc2ccccc21)C(C)(C)C

> <Shape>
0.217

> <Color>
0.195

> <Negative vol penalty>
0.000

$$$$

  -OEChem-04052319163D

 87 95  0     1  0  0  0  0  0999 V2000
  -29.4819  -24.5768   17.4676 C   0  0  0  0  0  0  0  0  0  0  0  0
  -28.1135  -24.8269   17.4862 C   0  0  0  0  0  0  0  0  0  0  0  0
  -26.5855  -14.3068   20.9993 C   0  0  0  0  0  0  0  0  0  0  0  0
  -24.4777  -14.2233   19.8215 C   0  0  0  0  0  0  0  0  0  0  0  0
  -30.2629  -24.8961   18.5775 C   0  0  0  0  0  0  0  0  0  0  0  0
  -27.5251  -25.3956   18.6153 C   0  0  0  0  0  0  0  0  0  0  0  0
  -22.8221  -29.3165   18.7363 C   0  0  0  0  0  0  0  0  0  0  0  0
  -26.1660  -13.2632   21.8241 C   0  0  0  0  0  0  0  0  0  0  0  0
  -24.0582  -13.1796   20.6463 C   0  0  0  0  0  0  0  0  0  0  0  0
  -21.4581  -29.1385   18.9636 C   0  0  0  0  0  0  0  0  0  0  0  0
  -24.5619   -9.8472   20.8953 C   0  0  0  0  0  0  0  0  0  0  0  0
  -23.9424   -8.7538   20.2901 C   0  0  0  0  0  0  0  0  0  0  0  0
  -21.7735  -29.7282   21.2813 C   0  0  0  0  0  0  0  0  0  0  0  0
  -20.0616  -21.4303   19.0421 C   0  0  0  0  0  0  0  0  0  0  0  0
  -21.9524   -9.1565   21.5996 C   0  0  0  0  0  0  0  0  0  0  0  0
  -20.2967  -23.6424   18.6939 C   0  0  0  0  0  0  0  0  0  0  0  0
  -25.7414  -14.7869   19.9980 C   0  0  0  0  0  0  0  0  0  0  0  0
  -26.8617  -15.7586   17.9223 C   0  0  0  0  0  0  0  0  0  0  0  0
  -29.6853  -25.4779   19.7171 C   0  0  0  0  0  0  0  0  0  0  0  0
  -23.6753  -29.6917   19.7840 C   0  0  0  0  0  0  0  0  0  0  0  0
  -28.2989  -25.7218   19.7420 C   0  0  0  0  0  0  0  0  0  0  0  0
  -23.1475  -29.9128   21.0642 C   0  0  0  0  0  0  0  0  0  0  0  0
  -20.8083  -22.4120   18.3450 C   0  0  0  0  0  0  0  0  0  0  0  0
  -24.9024  -12.6995   21.6477 C   0  0  0  0  0  0  0  0  0  0  0  0
  -20.9341  -29.3415   20.2369 C   0  0  0  0  0  0  0  0  0  0  0  0
  -23.8766  -10.5952   21.8528 C   0  0  0  0  0  0  0  0  0  0  0  0
  -22.6377   -8.4085   20.6422 C   0  0  0  0  0  0  0  0  0  0  0  0
  -22.5719  -10.2499   22.2049 C   0  0  0  0  0  0  0  0  0  0  0  0
  -26.1739  -15.8654   19.1460 C   0  0  0  0  0  0  0  0  0  0  0  0
  -19.1163  -22.0907   19.7955 C   0  0  0  0  0  0  0  0  0  0  0  0
  -27.0380  -17.0577   17.5130 C   0  0  0  0  0  0  0  0  0  0  0  0
  -27.3018  -14.5895   17.2185 C   0  0  0  0  0  0  0  0  0  0  0  0
  -26.1827  -28.3662   21.2191 C   0  0  0  0  0  0  0  0  0  0  0  0
  -26.3189  -31.2194   22.7565 C   0  0  0  0  0  0  0  0  0  0  0  0
  -24.6849  -34.0256   23.8063 C   0  0  0  0  0  0  0  0  0  0  0  0
  -24.0748  -22.1323   18.6613 C   0  0  0  0  0  0  0  0  0  0  0  0
  -30.5624  -25.7622   20.9107 C   0  0  0  0  0  0  0  0  0  0  0  0
  -25.1399  -29.9056   19.5165 C   0  0  0  0  0  0  0  0  0  0  0  0
  -24.0176  -30.3361   22.2184 C   0  0  0  0  0  0  0  0  0  0  0  0
  -29.9233  -26.7073   21.9249 C   0  0  0  0  0  0  0  0  0  0  0  0
  -27.5295  -21.4932   19.2381 C   0  0  0  0  0  0  0  0  0  0  0  0
  -28.4837  -26.2909   22.2094 C   0  0  0  0  0  0  0  0  0  0  0  0
  -27.6359  -19.9688   19.1695 C   0  0  0  0  0  0  0  0  0  0  0  0
  -26.2200  -21.9390   19.8849 C   0  0  0  0  0  0  0  0  0  0  0  0
  -25.1096  -19.8459   19.2068 C   0  0  0  0  0  0  0  0  0  0  0  0
  -27.6279  -26.3603   20.9388 C   0  0  1  0  0  0  0  0  0  0  0  0
  -25.9997  -29.7888   20.7713 C   0  0  1  0  0  0  0  0  0  0  0  0
  -26.3886  -19.3486   18.5116 C   0  0  2  0  0  0  0  0  0  0  0  0
  -25.0516  -36.1613   25.0719 C   0  0  0  0  0  0  0  0  0  0  0  0
  -15.8421  -25.9898   20.6401 C   0  0  0  0  0  0  0  0  0  0  0  0
  -18.1288  -19.9891   20.7724 C   0  0  0  0  0  0  0  0  0  0  0  0
  -16.6412  -21.9495   20.2434 C   0  0  0  0  0  0  0  0  0  0  0  0
  -18.1732  -22.0242   22.2001 C   0  0  0  0  0  0  0  0  0  0  0  0
  -26.3010  -29.6641   25.3815 C   0  0  0  0  0  0  0  0  0  0  0  0
  -25.7133  -31.7941   26.5588 C   0  0  0  0  0  0  0  0  0  0  0  0
  -27.8761  -31.6059   25.3301 C   0  0  0  0  0  0  0  0  0  0  0  0
  -23.9631  -35.6766   21.4585 C   0  0  0  0  0  0  0  0  0  0  0  0
  -21.9278  -22.1637   17.4168 C   0  0  0  0  0  0  0  0  0  0  0  0
  -17.7668  -25.4020   19.1349 C   0  0  0  0  0  0  0  0  0  0  0  0
  -17.7600  -27.6358   20.4475 C   0  0  0  0  0  0  0  0  0  0  0  0
  -18.4417  -24.5314   20.1996 C   0  0  0  0  0  0  0  0  0  0  0  0
  -18.9276  -28.2073   19.6510 C   0  0  0  0  0  0  0  0  0  1  0  0
  -25.7191  -31.7811   24.0229 C   0  0  1  0  0  0  0  0  0  0  0  0
  -25.0427  -35.4973   23.7037 C   0  0  2  0  0  0  0  0  0  0  0  0
  -16.9326  -26.5564   19.7246 C   0  0  2  0  0  0  0  0  0  0  0  0
  -18.0833  -21.5523   20.7045 C   0  0  0  0  0  0  0  0  0  0  0  0
  -26.3860  -31.2014   25.3022 C   0  0  0  0  0  0  0  0  0  0  0  0
  -25.9301  -17.1323   19.4916 N   0  0  0  0  0  0  0  0  0  0  0  0
  -19.2684  -23.4348   19.5758 N   0  0  0  0  0  0  0  0  0  0  0  0
  -26.4677  -17.8335   18.4789 N   0  0  0  0  0  0  0  0  0  0  0  0
  -25.4442  -30.5261   21.9078 N   0  0  0  0  0  0  0  0  0  0  0  0
  -25.0763  -21.3168   19.2135 N   0  0  0  0  0  0  0  0  0  0  0  0
  -27.6238  -17.6007   16.4247 N   0  0  0  0  0  0  0  0  0  0  0  0
  -27.0385  -13.3328   17.7804 N   0  0  0  0  0  0  0  0  0  0  0  0
  -27.2680  -27.7312   20.6461 N   0  0  0  0  0  0  0  0  0  0  0  0
  -25.8084  -33.2327   23.9079 N   0  0  0  0  0  0  0  0  0  0  0  0
  -23.0294  -21.4623   18.0375 N   0  0  0  0  0  0  0  0  0  0  0  0
  -24.0586  -36.2107   22.8414 N   0  3  0  0  0  0  0  0  0  0  0  0
  -27.9249  -14.6579   16.1320 O   0  0  0  0  0  0  0  0  0  0  0  0
  -25.3983  -27.8812   22.0260 O   0  0  0  0  0  0  0  0  0  0  0  0
  -27.5176  -31.3955   22.5251 O   0  0  0  0  0  0  0  0  0  0  0  0
  -23.5246  -33.6202   23.8008 O   0  0  0  0  0  0  0  0  0  0  0  0
  -24.1123  -23.3663   18.7152 O   0  0  0  0  0  0  0  0  0  0  0  0
  -24.4927  -11.6810   22.4522 O   0  0  0  0  0  0  0  0  0  0  0  0
  -19.6032  -29.1678   20.4616 O   0  0  0  0  0  0  0  0  0  1  0  0
  -22.0424   -7.3594   20.0598 F   0  0  0  0  0  0  0  0  0  0  0  0
  -21.9081  -10.9654   23.1231 F   0  0  0  0  0  0  0  0  0  0  0  0
  1  2  1  0  0  0  0
  1  5  2  0  0  0  0
  2  6  2  0  0  0  0
  3  8  2  0  0  0  0
  3 17  1  0  0  0  0
  4  9  1  0  0  0  0
  4 17  2  0  0  0  0
  5 19  1  0  0  0  0
  6 21  1  0  0  0  0
  7 10  2  0  0  0  0
  7 20  1  0  0  0  0
  8 24  1  0  0  0  0
  9 24  2  0  0  0  0
 10 25  1  0  0  0  0
 11 12  2  0  0  0  0
 11 26  1  0  0  0  0
 12 27  1  0  0  0  0
 13 22  1  0  0  0  0
 13 25  2  0  0  0  0
 14 23  1  0  0  0  0
 14 30  2  0  0  0  0
 15 27  2  0  0  0  0
 15 28  1  0  0  0  0
 16 23  2  0  0  0  0
 16 69  1  0  0  0  0
 17 29  1  0  0  0  0
 18 29  1  0  0  0  0
 18 31  2  0  0  0  0
 18 32  1  0  0  0  0
 19 21  2  0  0  0  0
 19 37  1  0  0  0  0
 20 22  2  0  0  0  0
 20 38  1  0  0  0  0
 21 46  1  0  0  0  0
 22 39  1  0  0  0  0
 23 58  1  0  0  0  0
 24 84  1  0  0  0  0
 25 85  1  0  0  0  0
 26 28  2  0  0  0  0
 26 84  1  0  0  0  0
 27 86  1  0  0  0  0
 28 87  1  0  0  0  0
 29 68  2  0  0  0  0
 30 66  1  0  0  0  0
 30 69  1  0  0  0  0
 31 70  1  0  0  0  0
 31 73  1  0  0  0  0
 32 74  1  0  0  0  0
 32 79  2  0  0  0  0
 33 47  1  0  0  0  0
 33 75  1  0  0  0  0
 33 80  2  0  0  0  0
 34 63  1  0  0  0  0
 34 71  1  0  0  0  0
 34 81  2  0  0  0  0
 35 64  1  0  0  0  0
 35 76  1  0  0  0  0
 35 82  2  0  0  0  0
 36 72  1  0  0  0  0
 36 77  1  0  0  0  0
 36 83  2  0  0  0  0
 37 40  1  0  0  0  0
 38 47  1  0  0  0  0
 39 71  1  0  0  0  0
 40 42  1  0  0  0  0
 41 43  1  0  0  0  0
 41 44  1  0  0  0  0
 42 46  1  0  0  0  0
 43 48  1  0  0  0  0
 44 72  1  0  0  0  0
 45 48  1  0  0  0  0
 45 72  1  0  0  0  0
 46 75  1  0  0  0  0
 47 71  1  0  0  0  0
 48 70  1  0  0  0  0
 49 64  1  0  0  0  0
 50 65  1  0  0  0  0
 51 66  1  0  0  0  0
 52 66  1  0  0  0  0
 53 66  1  0  0  0  0
 54 67  1  0  0  0  0
 55 67  1  0  0  0  0
 56 67  1  0  0  0  0
 57 78  1  0  0  0  0
 58 77  1  0  0  0  0
 59 61  1  0  0  0  0
 59 65  1  0  0  0  0
 60 62  1  0  0  0  0
 60 65  1  0  0  0  0
 61 69  1  0  0  0  0
 62 85  1  0  0  0  0
 63 67  1  0  0  0  0
 63 76  1  0  0  0  0
 64 78  1  0  0  0  0
 68 70  1  0  0  0  0
M  CHG  1  78   1
M  ISO  4  36 100  62 101  77 100  85 101
M  END
> <Batch ID>
0093

> <Smiles>
CNC(C)C(=O)NC(C(=O)N1Cc2cc([101O:1][101CH2:1]CC(C)CCn3cc(C[100NH:0][100C:0](=O)N4CCCC(n5nc(-c6ccc(Oc7ccc(F)cc7F)cc6)c(C(N)=O)c5N)C4)cc3C(C)(C)C)ccc2CC1C(=O)NC1CCCc2ccccc21)C(C)(C)C

> <Shape>
0.260

> <Color>
0.070

> <Negative vol penalty>
0.000

$$$$

  -OEChem-04052319163D

 84 93  0     1  0  0  0  0  0999 V2000
  -21.5481   -7.7468   24.3607 C   0  0  0  0  0  0  0  0  0  0  0  0
  -22.5833   -8.5844   24.7634 C   0  0  0  0  0  0  0  0  0  0  0  0
  -21.3897  -25.8790   22.5795 C   0  0  0  0  0  0  0  0  0  0  0  0
  -21.8190  -26.5902   20.3108 C   0  0  0  0  0  0  0  0  0  0  0  0
  -21.3221   -7.5228   23.0033 C   0  0  0  0  0  0  0  0  0  0  0  0
  -23.3939   -9.1976   23.8087 C   0  0  0  0  0  0  0  0  0  0  0  0
  -25.9211  -14.7654   24.1534 C   0  0  0  0  0  0  0  0  0  0  0  0
  -20.1358  -26.4883   22.5333 C   0  0  0  0  0  0  0  0  0  0  0  0
  -20.5650  -27.1994   20.2645 C   0  0  0  0  0  0  0  0  0  0  0  0
  -27.1983  -15.1953   24.5106 C   0  0  0  0  0  0  0  0  0  0  0  0
  -16.9663  -28.1660   23.1358 C   0  0  0  0  0  0  0  0  0  0  0  0
  -16.5758  -28.9340   24.2327 C   0  0  0  0  0  0  0  0  0  0  0  0
  -27.8230  -15.2552   22.1814 C   0  0  0  0  0  0  0  0  0  0  0  0
  -30.8257  -21.1705   20.1620 C   0  0  0  0  0  0  0  0  0  0  0  0
  -18.4807  -30.3818   23.8972 C   0  0  0  0  0  0  0  0  0  0  0  0
  -22.2313  -25.9300   21.4683 C   0  0  0  0  0  0  0  0  0  0  0  0
  -23.8031  -23.9390   21.7382 C   0  0  0  0  0  0  0  0  0  0  0  0
  -22.1243   -8.1411   22.0313 C   0  0  0  0  0  0  0  0  0  0  0  0
  -25.5880  -14.5664   22.8059 C   0  0  0  0  0  0  0  0  0  0  0  0
  -23.1793   -8.9806   22.4370 C   0  0  0  0  0  0  0  0  0  0  0  0
  -26.5400  -14.8253   21.8096 C   0  0  0  0  0  0  0  0  0  0  0  0
  -31.4987  -20.5075   21.1834 C   0  0  0  0  0  0  0  0  0  0  0  0
  -19.7234  -27.1485   21.3758 C   0  0  0  0  0  0  0  0  0  0  0  0
  -28.1504  -15.4375   23.5247 C   0  0  0  0  0  0  0  0  0  0  0  0
  -18.1140  -28.5059   22.4195 C   0  0  0  0  0  0  0  0  0  0  0  0
  -17.3330  -30.0419   24.6134 C   0  0  0  0  0  0  0  0  0  0  0  0
  -18.8712  -29.6137   22.8002 C   0  0  0  0  0  0  0  0  0  0  0  0
  -23.5269  -25.3013   21.5157 C   0  0  0  0  0  0  0  0  0  0  0  0
  -32.7725  -20.9589   21.5175 C   0  0  0  0  0  0  0  0  0  0  0  0
  -31.4628  -22.2161   19.5269 C   0  0  0  0  0  0  0  0  0  0  0  0
  -25.1730  -23.8537   21.6879 C   0  0  0  0  0  0  0  0  0  0  0  0
  -22.9019  -22.8481   21.9695 C   0  0  0  0  0  0  0  0  0  0  0  0
  -24.6782  -12.0669   21.0657 C   0  0  0  0  0  0  0  0  0  0  0  0
  -24.3014  -14.3088   18.7518 C   0  0  0  0  0  0  0  0  0  0  0  0
  -25.1522  -17.3777   17.5250 C   0  0  0  0  0  0  0  0  0  0  0  0
  -30.0457  -25.1540   19.2981 C   0  0  0  0  0  0  0  0  0  0  0  0
  -21.8714   -7.8312   20.5771 C   0  0  0  0  0  0  0  0  0  0  0  0
  -24.1976  -14.1281   22.4355 C   0  0  0  0  0  0  0  0  0  0  0  0
  -30.8228  -19.3891   21.9301 C   0  0  0  0  0  0  0  0  0  0  0  0
  -26.2264  -14.6464   20.3473 C   0  0  0  0  0  0  0  0  0  0  0  0
  -33.5889  -20.2884   22.5863 C   0  0  0  0  0  0  0  0  0  0  0  0
  -22.5394   -8.8148   19.6196 C   0  0  0  0  0  0  0  0  0  0  0  0
  -32.7489  -19.4442   23.5435 C   0  0  0  0  0  0  0  0  0  0  0  0
  -28.6976  -27.4815   21.6309 C   0  0  0  0  0  0  0  0  0  0  0  0
  -23.9873   -9.0610   20.0315 C   0  0  0  0  0  0  0  0  0  0  0  0
  -27.2540  -27.0131   21.8222 C   0  0  0  0  0  0  0  0  0  0  0  0
  -29.1664  -27.2912   20.1901 C   0  0  0  0  0  0  0  0  0  0  0  0
  -27.5560  -25.4568   19.8511 C   0  0  0  0  0  0  0  0  0  0  0  0
  -24.0646   -9.6834   21.4309 C   0  0  1  0  0  0  0  0  0  0  0  0
  -24.1259  -13.4643   21.0638 C   0  0  1  0  0  0  0  0  0  0  0  0
  -31.7965  -18.5353   22.7584 C   0  0  1  0  0  0  0  0  0  0  0  0
  -27.0567  -25.5769   21.3011 C   0  0  2  0  0  0  0  0  0  0  0  0
  -24.7085  -18.9203   15.5961 C   0  0  0  0  0  0  0  0  0  0  0  0
  -26.0820  -12.5879   16.9691 C   0  0  0  0  0  0  0  0  0  0  0  0
  -26.3752  -14.5697   15.4676 C   0  0  0  0  0  0  0  0  0  0  0  0
  -24.1060  -13.5923   15.8112 C   0  0  0  0  0  0  0  0  0  0  0  0
  -24.0699  -19.4800   19.3048 C   0  0  0  0  0  0  0  0  0  0  0  0
  -30.7776  -22.9492   18.4250 C   0  0  0  0  0  0  0  0  0  0  0  0
  -31.0327  -17.6032   23.6963 C   0  0  0  0  0  0  0  0  0  0  0  0
  -30.0870  -16.6860   22.9360 C   0  0  0  0  0  0  0  0  0  1  0  0
  -25.1879  -14.9022   17.6836 C   0  0  1  0  0  0  0  0  0  0  0  0
  -24.3047  -18.5263   17.0083 C   0  0  2  0  0  0  0  0  0  0  0  0
  -25.4446  -13.9146   16.5105 C   0  0  0  0  0  0  0  0  0  0  0  0
  -24.6326  -26.0292   21.3376 N   0  0  0  0  0  0  0  0  0  0  0  0
  -33.3645  -21.9859   20.8622 N   0  0  0  0  0  0  0  0  0  0  0  0
  -32.7026  -22.6238   19.8577 N   0  0  0  0  0  0  0  0  0  0  0  0
  -25.6168  -25.1209   21.4481 N   0  0  0  0  0  0  0  0  0  0  0  0
  -24.8551  -14.2102   20.0361 N   0  0  0  0  0  0  0  0  0  0  0  0
  -28.9533  -25.9079   19.7578 N   0  0  0  0  0  0  0  0  0  0  0  0
  -26.0293  -22.8192   21.8260 N   0  0  0  0  0  0  0  0  0  0  0  0
  -22.5394  -22.5494   23.2900 N   0  0  0  0  0  0  0  0  0  0  0  0
  -23.7467  -11.0942   21.3748 N   0  0  0  0  0  0  0  0  0  0  0  0
  -24.5599  -16.1564   17.2823 N   0  0  0  0  0  0  0  0  0  0  0  0
  -29.7577  -23.8501   18.9138 N   0  0  0  0  0  0  0  0  0  0  0  0
  -24.4550  -19.7184   17.8899 N   0  3  0  0  0  0  0  0  0  0  0  0
  -22.4450  -22.1482   21.0341 O   0  0  0  0  0  0  0  0  0  0  0  0
  -25.8615  -11.8846   20.8045 O   0  0  0  0  0  0  0  0  0  0  0  0
  -23.1572  -13.9527   18.4590 O   0  0  0  0  0  0  0  0  0  0  0  0
  -26.2334  -17.5468   18.0845 O   0  0  0  0  0  0  0  0  0  0  0  0
  -31.1937  -25.6075   19.2399 O   0  0  0  0  0  0  0  0  0  0  0  0
  -18.4999  -27.7429   21.3302 O   0  0  0  0  0  0  0  0  0  0  0  0
  -29.3981  -15.8565   23.8707 O   0  0  0  0  0  0  0  0  0  1  0  0
  -16.9571  -30.7802   25.6659 F   0  0  0  0  0  0  0  0  0  0  0  0
  -19.9741  -29.9458   22.1153 F   0  0  0  0  0  0  0  0  0  0  0  0
  1  2  1  0  0  0  0
  1  5  2  0  0  0  0
  2  6  2  0  0  0  0
  3  8  2  0  0  0  0
  3 16  1  0  0  0  0
  4  9  1  0  0  0  0
  4 16  2  0  0  0  0
  5 18  1  0  0  0  0
  6 20  1  0  0  0  0
  7 10  2  0  0  0  0
  7 19  1  0  0  0  0
  8 23  1  0  0  0  0
  9 23  2  0  0  0  0
 10 24  1  0  0  0  0
 11 12  2  0  0  0  0
 11 25  1  0  0  0  0
 12 26  1  0  0  0  0
 13 21  1  0  0  0  0
 13 24  2  0  0  0  0
 14 22  1  0  0  0  0
 14 30  2  0  0  0  0
 15 26  2  0  0  0  0
 15 27  1  0  0  0  0
 16 28  1  0  0  0  0
 17 28  1  0  0  0  0
 17 31  2  0  0  0  0
 17 32  1  0  0  0  0
 18 20  2  0  0  0  0
 18 37  1  0  0  0  0
 19 21  2  0  0  0  0
 19 38  1  0  0  0  0
 20 49  1  0  0  0  0
 21 40  1  0  0  0  0
 22 29  2  0  0  0  0
 22 39  1  0  0  0  0
 23 81  1  0  0  0  0
 24 82  1  0  0  0  0
 25 27  2  0  0  0  0
 25 81  1  0  0  0  0
 26 83  1  0  0  0  0
 27 84  1  0  0  0  0
 28 64  2  0  0  0  0
 29 41  1  0  0  0  0
 29 65  1  0  0  0  0
 30 58  1  0  0  0  0
 30 66  1  0  0  0  0
 31 67  1  0  0  0  0
 31 70  1  0  0  0  0
 32 71  1  0  0  0  0
 32 76  2  0  0  0  0
 33 50  1  0  0  0  0
 33 72  1  0  0  0  0
 33 77  2  0  0  0  0
 34 61  1  0  0  0  0
 34 68  1  0  0  0  0
 34 78  2  0  0  0  0
 35 62  1  0  0  0  0
 35 73  1  0  0  0  0
 35 79  2  0  0  0  0
 36 69  1  0  0  0  0
 36 74  1  0  0  0  0
 36 80  2  0  0  0  0
 37 42  1  0  0  0  0
 38 50  1  0  0  0  0
 39 51  1  0  0  0  0
 40 68  1  0  0  0  0
 41 43  1  0  0  0  0
 42 45  1  0  0  0  0
 43 51  1  0  0  0  0
 44 46  1  0  0  0  0
 44 47  1  0  0  0  0
 45 49  1  0  0  0  0
 46 52  1  0  0  0  0
 47 69  1  0  0  0  0
 48 52  1  0  0  0  0
 48 69  1  0  0  0  0
 49 72  1  0  0  0  0
 50 68  1  0  0  0  0
 51 59  1  0  0  0  0
 52 67  1  0  0  0  0
 53 62  1  0  0  0  0
 54 63  1  0  0  0  0
 55 63  1  0  0  0  0
 56 63  1  0  0  0  0
 57 75  1  0  0  0  0
 58 74  1  0  0  0  0
 59 60  1  0  0  0  0
 60 82  1  0  0  0  0
 61 63  1  0  0  0  0
 61 73  1  0  0  0  0
 62 75  1  0  0  0  0
 64 67  1  0  0  0  0
 65 66  2  0  0  0  0
M  CHG  1  75   1
M  ISO  4  36 100  60 101  74 100  82 101
M  END
> <Batch ID>
0093

> <Smiles>
CNC(C)C(=O)NC(C(=O)N1Cc2cc([101O:1][101CH2:1]CC3CCc4nnc(C[100NH:0][100C:0](=O)N5CCCC(n6nc(-c7ccc(Oc8ccc(F)cc8F)cc7)c(C(N)=O)c6N)C5)cc4C3)ccc2CC1C(=O)NC1CCCc2ccccc21)C(C)(C)C

> <Shape>
0.198

> <Color>
0.063

> <Negative vol penalty>
0.000

$$$$

  -OEChem-04052319163D

 87 95  0     1  0  0  0  0  0999 V2000
  -35.2443  -25.2504   12.4816 C   0  0  0  0  0  0  0  0  0  0  0  0
  -34.9651  -24.2697   13.4280 C   0  0  0  0  0  0  0  0  0  0  0  0
  -23.2912   -9.7965   19.9137 C   0  0  0  0  0  0  0  0  0  0  0  0
  -23.7429   -9.9385   22.2829 C   0  0  0  0  0  0  0  0  0  0  0  0
  -35.7227  -26.4949   12.8894 C   0  0  0  0  0  0  0  0  0  0  0  0
  -35.1652  -24.5326   14.7827 C   0  0  0  0  0  0  0  0  0  0  0  0
  -31.3120  -22.9449   17.6597 C   0  0  0  0  0  0  0  0  0  0  0  0
  -22.5677   -8.6224   20.1220 C   0  0  0  0  0  0  0  0  0  0  0  0
  -23.0193   -8.7644   22.4912 C   0  0  0  0  0  0  0  0  0  0  0  0
  -31.2474  -21.5809   17.9413 C   0  0  0  0  0  0  0  0  0  0  0  0
  -19.7745   -7.8458   22.7104 C   0  0  0  0  0  0  0  0  0  0  0  0
  -18.8728   -7.8222   23.7743 C   0  0  0  0  0  0  0  0  0  0  0  0
  -32.2159  -21.9895   20.1125 C   0  0  0  0  0  0  0  0  0  0  0  0
  -20.0833   -5.9780   24.7594 C   0  0  0  0  0  0  0  0  0  0  0  0
  -28.3981  -16.0757   24.6178 C   0  0  0  0  0  0  0  0  0  0  0  0
  -23.8789  -10.4546   20.9941 C   0  0  0  0  0  0  0  0  0  0  0  0
  -24.1323  -12.9852   20.7950 C   0  0  0  0  0  0  0  0  0  0  0  0
  -35.9196  -26.7765   14.2505 C   0  0  0  0  0  0  0  0  0  0  0  0
  -31.8399  -23.8415   18.5997 C   0  0  0  0  0  0  0  0  0  0  0  0
  -35.6480  -25.7816   15.2090 C   0  0  0  0  0  0  0  0  0  0  0  0
  -32.2837  -23.3647   19.8414 C   0  0  0  0  0  0  0  0  0  0  0  0
  -22.4317   -8.1063   21.4107 C   0  0  0  0  0  0  0  0  0  0  0  0
  -31.7021  -21.1027   19.1667 C   0  0  0  0  0  0  0  0  0  0  0  0
  -20.8307   -6.9355   22.6709 C   0  0  0  0  0  0  0  0  0  0  0  0
  -19.0272   -6.8883   24.7988 C   0  0  0  0  0  0  0  0  0  0  0  0
  -20.9851   -6.0016   23.6954 C   0  0  0  0  0  0  0  0  0  0  0  0
  -24.6269  -11.6673   20.7795 C   0  0  0  0  0  0  0  0  0  0  0  0
  -29.4950  -15.8446   23.8367 C   0  0  0  0  0  0  0  0  0  0  0  0
  -25.2318  -13.7676   20.5393 C   0  0  0  0  0  0  0  0  0  0  0  0
  -29.8372  -14.8774   25.7983 C   0  0  0  0  0  0  0  0  0  0  0  0
  -22.7983  -13.4597   21.0205 C   0  0  0  0  0  0  0  0  0  0  0  0
  -34.3181  -25.8313   18.6560 C   0  0  0  0  0  0  0  0  0  0  0  0
  -33.0335  -26.7307   21.4956 C   0  0  0  0  0  0  0  0  0  0  0  0
  -31.0671  -25.9328   24.1684 C   0  0  0  0  0  0  0  0  0  0  0  0
  -31.1052  -12.9383   21.3560 C   0  0  0  0  0  0  0  0  0  0  0  0
  -36.4833  -28.1201   14.6397 C   0  0  0  0  0  0  0  0  0  0  0  0
  -31.8779  -25.3132   18.2911 C   0  0  0  0  0  0  0  0  0  0  0  0
  -32.8405  -24.2884   20.8927 C   0  0  0  0  0  0  0  0  0  0  0  0
  -36.3126  -28.4463   16.1212 C   0  0  0  0  0  0  0  0  0  0  0  0
  -29.4530  -13.6734   18.2890 C   0  0  0  0  0  0  0  0  0  0  0  0
  -36.7170  -27.2527   16.9806 C   0  0  0  0  0  0  0  0  0  0  0  0
  -27.9842  -13.3615   18.5809 C   0  0  0  0  0  0  0  0  0  0  0  0
  -30.3889  -12.6963   18.9970 C   0  0  0  0  0  0  0  0  0  0  0  0
  -28.7042  -12.2633   20.7429 C   0  0  0  0  0  0  0  0  0  0  0  0
  -35.8286  -26.0372   16.6896 C   0  0  1  0  0  0  0  0  0  0  0  0
  -32.9096  -26.0712   19.1209 C   0  0  1  0  0  0  0  0  0  0  0  0
  -27.7236  -13.2561   20.0956 C   0  0  2  0  0  0  0  0  0  0  0  0
  -30.2373  -26.8568   26.3490 C   0  0  0  0  0  0  0  0  0  0  0  0
  -29.7955  -10.4911   28.2498 C   0  0  0  0  0  0  0  0  0  0  0  0
  -31.9794  -11.6904   28.0208 C   0  0  0  0  0  0  0  0  0  0  0  0
  -35.7623  -26.2032   22.7548 C   0  0  0  0  0  0  0  0  0  0  0  0
  -34.6513  -26.2131   24.9984 C   0  0  0  0  0  0  0  0  0  0  0  0
  -34.6132  -28.2652   23.5807 C   0  0  0  0  0  0  0  0  0  0  0  0
  -28.2438  -25.7711   23.2955 C   0  0  0  0  0  0  0  0  0  0  0  0
  -29.7943  -16.2695   22.4211 C   0  0  0  0  0  0  0  0  0  0  0  0
  -30.4498  -14.1174   26.9161 C   0  0  0  0  0  0  0  0  0  0  0  0
  -30.5058  -17.6232   22.3184 C   0  0  0  0  0  0  0  0  0  0  0  0
  -29.8431  -12.7066   27.0655 C   0  0  0  0  0  0  0  0  0  0  0  0
  -30.7315  -18.0728   20.8742 C   0  0  0  0  0  0  0  0  0  0  0  0
  -31.6705  -14.6283   24.1580 C   0  0  0  0  0  0  0  0  0  0  0  0
  -31.6679  -13.1537   23.7635 C   0  0  0  0  0  0  0  0  0  0  0  0
  -31.4749  -19.4002   20.8116 C   0  0  0  0  0  0  0  0  0  1  0  0
  -33.1875  -26.2818   22.9287 C   0  0  1  0  0  0  0  0  0  0  0  0
  -29.9541  -26.6959   24.8635 C   0  0  2  0  0  0  0  0  0  0  0  0
  -30.4697  -11.8642   28.1922 C   0  0  0  0  0  0  0  0  0  0  0  0
  -34.5449  -26.7229   23.5453 C   0  0  0  0  0  0  0  0  0  0  0  0
  -25.9385  -11.6116   20.5333 N   0  0  0  0  0  0  0  0  0  0  0  0
  -30.3695  -15.1014   24.5924 N   0  0  0  0  0  0  0  0  0  0  0  0
  -26.2774  -12.9043   20.3917 N   0  0  0  0  0  0  0  0  0  0  0  0
  -28.6370  -15.4657   25.8256 N   0  3  0  0  0  0  0  0  0  0  0  0
  -32.8626  -25.7179   20.5412 N   0  0  0  0  0  0  0  0  0  0  0  0
  -30.0905  -12.6444   20.4303 N   0  0  0  0  0  0  0  0  0  0  0  0
  -25.3966  -15.1029   20.4286 N   0  0  0  0  0  0  0  0  0  0  0  0
  -21.7880  -12.5205   21.2686 N   0  0  0  0  0  0  0  0  0  0  0  0
  -34.5435  -26.1833   17.3389 N   0  0  0  0  0  0  0  0  0  0  0  0
  -32.0168  -26.7821   23.6412 N   0  0  0  0  0  0  0  0  0  0  0  0
  -30.7364  -12.8721   22.6940 N   0  0  0  0  0  0  0  0  0  0  0  0
  -28.6576  -25.9777   24.7073 N   0  3  0  0  0  0  0  0  0  0  0  0
  -22.5076  -14.6795   20.9861 O   0  0  0  0  0  0  0  0  0  0  0  0
  -35.1399  -25.3630   19.4351 O   0  0  0  0  0  0  0  0  0  0  0  0
  -33.0565  -27.9358   21.2336 O   0  0  0  0  0  0  0  0  0  0  0  0
  -31.0935  -24.7058   24.1030 O   0  0  0  0  0  0  0  0  0  0  0  0
  -32.2533  -13.2427   21.0152 O   0  0  0  0  0  0  0  0  0  0  0  0
  -21.7255   -6.9607   21.6144 O   0  0  0  0  0  0  0  0  0  0  0  0
  -31.6408  -19.7718   19.4438 O   0  0  0  0  0  0  0  0  0  1  0  0
  -18.1620   -6.8668   25.8211 F   0  0  0  0  0  0  0  0  0  0  0  0
  -21.9984   -5.1252   23.6636 F   0  0  0  0  0  0  0  0  0  0  0  0
  1  2  1  0  0  0  0
  1  5  2  0  0  0  0
  2  6  2  0  0  0  0
  3  8  2  0  0  0  0
  3 16  1  0  0  0  0
  4  9  1  0  0  0  0
  4 16  2  0  0  0  0
  5 18  1  0  0  0  0
  6 20  1  0  0  0  0
  7 10  2  0  0  0  0
  7 19  1  0  0  0  0
  8 22  1  0  0  0  0
  9 22  2  0  0  0  0
 10 23  1  0  0  0  0
 11 12  2  0  0  0  0
 11 24  1  0  0  0  0
 12 25  1  0  0  0  0
 13 21  1  0  0  0  0
 13 23  2  0  0  0  0
 14 25  2  0  0  0  0
 14 26  1  0  0  0  0
 15 28  2  0  0  0  0
 15 70  1  0  0  0  0
 16 27  1  0  0  0  0
 17 27  1  0  0  0  0
 17 29  2  0  0  0  0
 17 31  1  0  0  0  0
 18 20  2  0  0  0  0
 18 36  1  0  0  0  0
 19 21  2  0  0  0  0
 19 37  1  0  0  0  0
 20 45  1  0  0  0  0
 21 38  1  0  0  0  0
 22 84  1  0  0  0  0
 23 85  1  0  0  0  0
 24 26  2  0  0  0  0
 24 84  1  0  0  0  0
 25 86  1  0  0  0  0
 26 87  1  0  0  0  0
 27 67  2  0  0  0  0
 28 55  1  0  0  0  0
 28 68  1  0  0  0  0
 29 69  1  0  0  0  0
 29 73  1  0  0  0  0
 30 56  1  0  0  0  0
 30 68  1  0  0  0  0
 30 70  2  0  0  0  0
 31 74  1  0  0  0  0
 31 79  2  0  0  0  0
 32 46  1  0  0  0  0
 32 75  1  0  0  0  0
 32 80  2  0  0  0  0
 33 63  1  0  0  0  0
 33 71  1  0  0  0  0
 33 81  2  0  0  0  0
 34 64  1  0  0  0  0
 34 76  1  0  0  0  0
 34 82  2  0  0  0  0
 35 72  1  0  0  0  0
 35 77  1  0  0  0  0
 35 83  2  0  0  0  0
 36 39  1  0  0  0  0
 37 46  1  0  0  0  0
 38 71  1  0  0  0  0
 39 41  1  0  0  0  0
 40 42  1  0  0  0  0
 40 43  1  0  0  0  0
 41 45  1  0  0  0  0
 42 47  1  0  0  0  0
 43 72  1  0  0  0  0
 44 47  1  0  0  0  0
 44 72  1  0  0  0  0
 45 75  1  0  0  0  0
 46 71  1  0  0  0  0
 47 69  1  0  0  0  0
 48 64  1  0  0  0  0
 49 65  1  0  0  0  0
 50 65  1  0  0  0  0
 51 66  1  0  0  0  0
 52 66  1  0  0  0  0
 53 66  1  0  0  0  0
 54 78  1  0  0  0  0
 55 57  1  0  0  0  0
 56 58  1  0  0  0  0
 57 59  1  0  0  0  0
 58 65  1  0  0  0  0
 59 62  1  0  0  0  0
 60 61  1  0  0  0  0
 60 68  1  0  0  0  0
 61 77  1  0  0  0  0
 62 85  1  0  0  0  0
 63 66  1  0  0  0  0
 63 76  1  0  0  0  0
 64 78  1  0  0  0  0
 67 69  1  0  0  0  0
M  CHG  2  70   1  78   1
M  ISO  4  35 100  62 101  77 100  85 101
M  END
> <Batch ID>
0093

> <Smiles>
CNC(C)C(=O)NC(C(=O)N1Cc2cc([101O:1][101CH2:1]CCCc3cnc(CCC(C)C)n3CC[100NH:0][100C:0](=O)N3CCCC(n4nc(-c5ccc(Oc6ccc(F)cc6F)cc5)c(C(N)=O)c4N)C3)ccc2CC1C(=O)NC1CCCc2ccccc21)C(C)(C)C

> <Shape>
0.171

> <Color>
0.171

> <Negative vol penalty>
0.000

$$$$

  -OEChem-04052319163D

 85 93  0     1  0  0  0  0  0999 V2000
  -27.6496  -32.3791   27.3810 C   0  0  0  0  0  0  0  0  0  0  0  0
  -27.7624  -31.2528   26.5721 C   0  0  0  0  0  0  0  0  0  0  0  0
  -26.5229  -12.8705   21.8327 C   0  0  0  0  0  0  0  0  0  0  0  0
  -25.9111  -13.7502   19.6674 C   0  0  0  0  0  0  0  0  0  0  0  0
  -26.4124  -33.0025   27.5374 C   0  0  0  0  0  0  0  0  0  0  0  0
  -26.6376  -30.7487   25.9200 C   0  0  0  0  0  0  0  0  0  0  0  0
  -27.5653  -29.5581   21.0861 C   0  0  0  0  0  0  0  0  0  0  0  0
  -25.2640  -12.2810   21.9490 C   0  0  0  0  0  0  0  0  0  0  0  0
  -24.6522  -13.1607   19.7835 C   0  0  0  0  0  0  0  0  0  0  0  0
  -28.2347  -28.3595   20.8427 C   0  0  0  0  0  0  0  0  0  0  0  0
  -21.4043  -11.5853   19.3509 C   0  0  0  0  0  0  0  0  0  0  0  0
  -20.9010  -10.9053   18.2420 C   0  0  0  0  0  0  0  0  0  0  0  0
  -26.1329  -27.3000   20.3144 C   0  0  0  0  0  0  0  0  0  0  0  0
  -28.8849  -25.7785   16.7776 C   0  0  0  0  0  0  0  0  0  0  0  0
  -22.7936   -9.4049   18.3030 C   0  0  0  0  0  0  0  0  0  0  0  0
  -27.3774  -23.5351   16.4026 C   0  0  0  0  0  0  0  0  0  0  0  0
  -26.8464  -13.6051   20.6920 C   0  0  0  0  0  0  0  0  0  0  0  0
  -29.3047  -13.6433   20.0119 C   0  0  0  0  0  0  0  0  0  0  0  0
  -25.2738  -32.5115   26.8793 C   0  0  0  0  0  0  0  0  0  0  0  0
  -26.1711  -29.6339   20.9558 C   0  0  0  0  0  0  0  0  0  0  0  0
  -25.3837  -31.3654   26.0689 C   0  0  0  0  0  0  0  0  0  0  0  0
  -25.4485  -28.5013   20.5542 C   0  0  0  0  0  0  0  0  0  0  0  0
  -28.9440  -24.7525   17.7142 C   0  0  0  0  0  0  0  0  0  0  0  0
  -28.1790  -23.6061   17.5305 C   0  0  0  0  0  0  0  0  0  0  0  0
  -24.3287  -12.4261   20.9244 C   0  0  0  0  0  0  0  0  0  0  0  0
  -27.5182  -27.2295   20.4596 C   0  0  0  0  0  0  0  0  0  0  0  0
  -22.6024  -11.1752   19.9359 C   0  0  0  0  0  0  0  0  0  0  0  0
  -21.5956   -9.8150   17.7180 C   0  0  0  0  0  0  0  0  0  0  0  0
  -23.2970  -10.0849   19.4119 C   0  0  0  0  0  0  0  0  0  0  0  0
  -28.1463  -14.2148   20.5716 C   0  0  0  0  0  0  0  0  0  0  0  0
  -28.0519  -25.6102   15.6833 C   0  0  0  0  0  0  0  0  0  0  0  0
  -30.2635  -14.6189   20.1364 C   0  0  0  0  0  0  0  0  0  0  0  0
  -29.4969  -12.3465   19.4312 C   0  0  0  0  0  0  0  0  0  0  0  0
  -23.7650  -30.2734   22.9320 C   0  0  0  0  0  0  0  0  0  0  0  0
  -22.0050  -30.1300   20.2109 C   0  0  0  0  0  0  0  0  0  0  0  0
  -21.6956  -28.9636   17.0187 C   0  0  0  0  0  0  0  0  0  0  0  0
  -29.9783  -20.5835   20.5760 C   0  0  0  0  0  0  0  0  0  0  0  0
  -23.9485  -33.1911   27.1166 C   0  0  0  0  0  0  0  0  0  0  0  0
  -25.4669  -30.9411   21.1960 C   0  0  0  0  0  0  0  0  0  0  0  0
  -23.9528  -28.5355   20.3804 C   0  0  0  0  0  0  0  0  0  0  0  0
  -22.8797  -32.8159   26.0933 C   0  0  0  0  0  0  0  0  0  0  0  0
  -31.4877  -18.3361   22.8885 C   0  0  0  0  0  0  0  0  0  0  0  0
  -22.8527  -31.3059   25.8788 C   0  0  0  0  0  0  0  0  0  0  0  0
  -30.9070  -16.9735   22.5065 C   0  0  0  0  0  0  0  0  0  0  0  0
  -30.4590  -19.4532   22.7272 C   0  0  0  0  0  0  0  0  0  0  0  0
  -29.2447  -18.1616   21.0152 C   0  0  0  0  0  0  0  0  0  0  0  0
  -24.1916  -30.8033   25.3253 C   0  0  1  0  0  0  0  0  0  0  0  0
  -23.9886  -30.7705   21.5318 C   0  0  1  0  0  0  0  0  0  0  0  0
  -30.2615  -17.0111   21.1082 C   0  0  2  0  0  0  0  0  0  0  0  0
  -26.0250  -27.9405   15.7732 C   0  0  0  0  0  0  0  0  0  0  0  0
  -28.4724  -26.2075   13.2839 C   0  0  0  0  0  0  0  0  0  0  0  0
  -20.7121  -28.6835   14.7270 C   0  0  0  0  0  0  0  0  0  0  0  0
  -20.2195  -28.0973   21.6215 C   0  0  0  0  0  0  0  0  0  0  0  0
  -19.2956  -27.4600   19.3835 C   0  0  0  0  0  0  0  0  0  0  0  0
  -18.9922  -29.7829   20.2406 C   0  0  0  0  0  0  0  0  0  0  0  0
  -23.1985  -31.2845   15.9634 C   0  0  0  0  0  0  0  0  0  0  0  0
  -29.8422  -24.9044   18.9177 C   0  0  0  0  0  0  0  0  0  0  0  0
  -28.2040  -22.4779   18.5024 C   0  0  0  0  0  0  0  0  0  0  0  0
  -26.5407  -27.2926   14.4939 C   0  0  0  0  0  0  0  0  0  0  0  0
  -29.4362  -21.5741   18.3660 C   0  0  0  0  0  0  0  0  0  0  0  0
  -29.5083  -26.1461   19.7374 C   0  0  0  0  0  0  0  0  0  1  0  0
  -27.9630  -26.6909   14.6580 C   0  0  1  0  0  0  0  0  0  0  0  0
  -21.2796  -29.0375   19.4632 C   0  0  1  0  0  0  0  0  0  0  0  0
  -21.3165  -29.6599   15.7241 C   0  0  2  0  0  0  0  0  0  0  0  0
  -19.9747  -28.5929   20.1823 C   0  0  0  0  0  0  0  0  0  0  0  0
  -27.2938  -24.5111   15.4709 N   0  0  0  0  0  0  0  0  0  0  0  0
  -28.3486  -15.4571   21.0186 N   0  0  0  0  0  0  0  0  0  0  0  0
  -29.6452  -15.6742   20.7400 N   0  0  0  0  0  0  0  0  0  0  0  0
  -23.3091  -29.8352   20.6330 N   0  0  0  0  0  0  0  0  0  0  0  0
  -29.8861  -19.4348   21.3791 N   0  0  0  0  0  0  0  0  0  0  0  0
  -31.5667  -14.6683   19.7875 N   0  0  0  0  0  0  0  0  0  0  0  0
  -28.4063  -11.4676   19.3832 N   0  0  0  0  0  0  0  0  0  0  0  0
  -24.2943  -31.0924   23.9110 N   0  0  0  0  0  0  0  0  0  0  0  0
  -21.0745  -29.5371   18.1080 N   0  0  0  0  0  0  0  0  0  0  0  0
  -29.4151  -20.4790   19.3100 N   0  0  0  0  0  0  0  0  0  0  0  0
  -22.5174  -30.2848   15.1011 N   0  3  0  0  0  0  0  0  0  0  0  0
  -30.6073  -11.9720   18.9836 O   0  0  0  0  0  0  0  0  0  0  0  0
  -23.1560  -29.2252   23.1109 O   0  0  0  0  0  0  0  0  0  0  0  0
  -21.4381  -31.2079   20.4068 O   0  0  0  0  0  0  0  0  0  0  0  0
  -22.4629  -28.0043   17.0591 O   0  0  0  0  0  0  0  0  0  0  0  0
  -30.5268  -21.6232   20.9568 O   0  0  0  0  0  0  0  0  0  0  0  0
  -23.1004  -11.8508   21.0373 O   0  0  0  0  0  0  0  0  0  0  0  0
  -28.1690  -26.0582   20.2221 O   0  0  0  0  0  0  0  0  0  1  0  0
  -21.1113   -9.1611   16.6540 F   0  0  0  0  0  0  0  0  0  0  0  0
  -24.4479   -9.6855   19.9703 F   0  0  0  0  0  0  0  0  0  0  0  0
  1  2  1  0  0  0  0
  1  5  2  0  0  0  0
  2  6  2  0  0  0  0
  3  8  2  0  0  0  0
  3 17  1  0  0  0  0
  4  9  1  0  0  0  0
  4 17  2  0  0  0  0
  5 19  1  0  0  0  0
  6 21  1  0  0  0  0
  7 10  2  0  0  0  0
  7 20  1  0  0  0  0
  8 25  1  0  0  0  0
  9 25  2  0  0  0  0
 10 26  1  0  0  0  0
 11 12  2  0  0  0  0
 11 27  1  0  0  0  0
 12 28  1  0  0  0  0
 13 22  1  0  0  0  0
 13 26  2  0  0  0  0
 14 23  2  0  0  0  0
 14 31  1  0  0  0  0
 15 28  2  0  0  0  0
 15 29  1  0  0  0  0
 16 24  2  0  0  0  0
 16 66  1  0  0  0  0
 17 30  1  0  0  0  0
 18 30  1  0  0  0  0
 18 32  2  0  0  0  0
 18 33  1  0  0  0  0
 19 21  2  0  0  0  0
 19 38  1  0  0  0  0
 20 22  2  0  0  0  0
 20 39  1  0  0  0  0
 21 47  1  0  0  0  0
 22 40  1  0  0  0  0
 23 24  1  0  0  0  0
 23 57  1  0  0  0  0
 24 58  1  0  0  0  0
 25 82  1  0  0  0  0
 26 83  1  0  0  0  0
 27 29  2  0  0  0  0
 27 82  1  0  0  0  0
 28 84  1  0  0  0  0
 29 85  1  0  0  0  0
 30 67  2  0  0  0  0
 31 62  1  0  0  0  0
 31 66  2  0  0  0  0
 32 68  1  0  0  0  0
 32 71  1  0  0  0  0
 33 72  1  0  0  0  0
 33 77  2  0  0  0  0
 34 48  1  0  0  0  0
 34 73  1  0  0  0  0
 34 78  2  0  0  0  0
 35 63  1  0  0  0  0
 35 69  1  0  0  0  0
 35 79  2  0  0  0  0
 36 64  1  0  0  0  0
 36 74  1  0  0  0  0
 36 80  2  0  0  0  0
 37 70  1  0  0  0  0
 37 75  1  0  0  0  0
 37 81  2  0  0  0  0
 38 41  1  0  0  0  0
 39 48  1  0  0  0  0
 40 69  1  0  0  0  0
 41 43  1  0  0  0  0
 42 44  1  0  0  0  0
 42 45  1  0  0  0  0
 43 47  1  0  0  0  0
 44 49  1  0  0  0  0
 45 70  1  0  0  0  0
 46 49  1  0  0  0  0
 46 70  1  0  0  0  0
 47 73  1  0  0  0  0
 48 69  1  0  0  0  0
 49 68  1  0  0  0  0
 50 59  1  0  0  0  0
 51 62  1  0  0  0  0
 52 64  1  0  0  0  0
 53 65  1  0  0  0  0
 54 65  1  0  0  0  0
 55 65  1  0  0  0  0
 56 76  1  0  0  0  0
 57 61  1  0  0  0  0
 58 60  1  0  0  0  0
 59 62  1  0  0  0  0
 60 75  1  0  0  0  0
 61 83  1  0  0  0  0
 63 65  1  0  0  0  0
 63 74  1  0  0  0  0
 64 76  1  0  0  0  0
 67 68  1  0  0  0  0
M  CHG  1  76   1
M  ISO  4  37 100  61 101  75 100  83 101
M  END
> <Batch ID>
0093

> <Smiles>
CCC(C)c1cc(C[101CH2:1][101O:1]c2ccc3c(c2)CN(C(=O)C(NC(=O)C(C)NC)C(C)(C)C)C(C(=O)NC2CCCc4ccccc42)C3)c(CC[100NH:0][100C:0](=O)N2CCCC(n3nc(-c4ccc(Oc5ccc(F)cc5F)cc4)c(C(N)=O)c3N)C2)cn1

> <Shape>
0.294

> <Color>
0.080

> <Negative vol penalty>
0.000

$$$$

  -OEChem-04052319163D

 80 88  0     1  0  0  0  0  0999 V2000
  -16.4372  -29.6593   23.3969 C   0  0  0  0  0  0  0  0  0  0  0  0
  -17.1028  -30.1350   22.2718 C   0  0  0  0  0  0  0  0  0  0  0  0
  -25.9929  -15.0137   21.5509 C   0  0  0  0  0  0  0  0  0  0  0  0
  -25.5196  -16.3360   19.5851 C   0  0  0  0  0  0  0  0  0  0  0  0
  -17.1622  -29.2779   24.5251 C   0  0  0  0  0  0  0  0  0  0  0  0
  -18.4939  -30.2307   22.2745 C   0  0  0  0  0  0  0  0  0  0  0  0
  -23.7305  -27.1258   17.3792 C   0  0  0  0  0  0  0  0  0  0  0  0
  -24.6641  -14.5910   21.5866 C   0  0  0  0  0  0  0  0  0  0  0  0
  -24.1908  -15.9133   19.6207 C   0  0  0  0  0  0  0  0  0  0  0  0
  -24.7593  -26.5013   16.6736 C   0  0  0  0  0  0  0  0  0  0  0  0
  -22.7248  -12.3322   19.9836 C   0  0  0  0  0  0  0  0  0  0  0  0
  -22.4816  -10.9761   20.2014 C   0  0  0  0  0  0  0  0  0  0  0  0
  -26.1967  -26.6553   18.6123 C   0  0  0  0  0  0  0  0  0  0  0  0
  -30.7304  -24.7651   19.6997 C   0  0  0  0  0  0  0  0  0  0  0  0
  -21.2379  -11.5203   22.2000 C   0  0  0  0  0  0  0  0  0  0  0  0
  -29.4840  -23.6501   18.1919 C   0  0  0  0  0  0  0  0  0  0  0  0
  -26.4206  -15.8862   20.5502 C   0  0  0  0  0  0  0  0  0  0  0  0
  -28.8641  -15.7063   19.8397 C   0  0  0  0  0  0  0  0  0  0  0  0
  -18.5636  -29.3599   24.5382 C   0  0  0  0  0  0  0  0  0  0  0  0
  -23.9261  -27.5039   18.7104 C   0  0  0  0  0  0  0  0  0  0  0  0
  -19.2383  -29.8513   23.4044 C   0  0  0  0  0  0  0  0  0  0  0  0
  -25.1657  -27.2699   19.3279 C   0  0  0  0  0  0  0  0  0  0  0  0
  -30.0500  -23.5491   19.4436 C   0  0  0  0  0  0  0  0  0  0  0  0
  -23.7631  -15.0408   20.6215 C   0  0  0  0  0  0  0  0  0  0  0  0
  -25.9894  -26.2669   17.2886 C   0  0  0  0  0  0  0  0  0  0  0  0
  -22.2247  -13.2824   20.8740 C   0  0  0  0  0  0  0  0  0  0  0  0
  -21.7381  -10.5702   21.3096 C   0  0  0  0  0  0  0  0  0  0  0  0
  -21.4812  -12.8764   21.9822 C   0  0  0  0  0  0  0  0  0  0  0  0
  -27.7930  -16.3237   20.5131 C   0  0  0  0  0  0  0  0  0  0  0  0
  -30.5594  -25.5723   18.5967 C   0  0  0  0  0  0  0  0  0  0  0  0
  -29.9478  -16.5042   20.1144 C   0  0  0  0  0  0  0  0  0  0  0  0
  -28.8782  -14.5180   19.0376 C   0  0  0  0  0  0  0  0  0  0  0  0
  -22.4706  -29.0627   21.7971 C   0  0  0  0  0  0  0  0  0  0  0  0
  -24.1351  -26.6548   22.7148 C   0  0  0  0  0  0  0  0  0  0  0  0
  -25.7191  -23.6854   23.2723 C   0  0  0  0  0  0  0  0  0  0  0  0
  -30.5062  -22.2732   21.5674 C   0  0  0  0  0  0  0  0  0  0  0  0
  -19.3012  -28.9806   25.7978 C   0  0  0  0  0  0  0  0  0  0  0  0
  -22.8666  -28.2347   19.4897 C   0  0  0  0  0  0  0  0  0  0  0  0
  -25.3423  -27.7251   20.7508 C   0  0  0  0  0  0  0  0  0  0  0  0
  -20.7966  -28.7597   25.5850 C   0  0  0  0  0  0  0  0  0  0  0  0
  -31.6556  -19.4812   23.4544 C   0  0  0  0  0  0  0  0  0  0  0  0
  -21.3900  -29.8911   24.7515 C   0  0  0  0  0  0  0  0  0  0  0  0
  -30.8976  -18.2976   22.8489 C   0  0  0  0  0  0  0  0  0  0  0  0
  -30.7938  -20.7416   23.5030 C   0  0  0  0  0  0  0  0  0  0  0  0
  -29.4231  -19.9409   21.6191 C   0  0  0  0  0  0  0  0  0  0  0  0
  -20.7480  -29.9464   23.3599 C   0  0  1  0  0  0  0  0  0  0  0  0
  -22.8499  -27.8609   20.9827 C   0  0  1  0  0  0  0  0  0  0  0  0
  -30.2715  -18.6654   21.4894 C   0  0  2  0  0  0  0  0  0  0  0  0
  -31.0565  -26.9387   18.3361 C   0  0  0  0  0  0  0  0  0  0  0  0
  -26.3843  -22.1244   25.1211 C   0  0  0  0  0  0  0  0  0  0  0  0
  -28.0919  -27.2170   15.1565 C   0  0  0  0  0  0  0  0  0  0  0  0
  -26.4013  -28.5437   23.4893 C   0  0  0  0  0  0  0  0  0  0  0  0
  -27.5417  -26.6083   24.5947 C   0  0  0  0  0  0  0  0  0  0  0  0
  -25.3136  -27.3745   25.4139 C   0  0  0  0  0  0  0  0  0  0  0  0
  -24.0941  -21.4801   22.1519 C   0  0  0  0  0  0  0  0  0  0  0  0
  -29.3676  -25.3901   16.3306 C   0  0  0  0  0  0  0  0  0  0  0  0
  -25.4692  -26.1527   23.2060 C   0  0  1  0  0  0  0  0  0  0  0  0
  -25.3217  -22.4693   24.0893 C   0  0  2  0  0  0  0  0  0  0  0  0
  -28.2030  -26.3817   16.4258 C   0  0  2  0  0  0  0  0  0  1  0  0
  -26.1743  -27.1686   24.1485 C   0  0  0  0  0  0  0  0  0  0  0  0
  -28.1627  -17.4284   21.1665 N   0  0  0  0  0  0  0  0  0  0  0  0
  -29.7999  -24.8843   17.6867 N   0  0  0  0  0  0  0  0  0  0  0  0
  -29.4783  -17.5114   20.9051 N   0  0  0  0  0  0  0  0  0  0  0  0
  -24.1379  -27.4062   21.5334 N   0  0  0  0  0  0  0  0  0  0  0  0
  -30.2380  -21.0304   22.1791 N   0  0  0  0  0  0  0  0  0  0  0  0
  -31.2471  -16.4353   19.7544 N   0  0  0  0  0  0  0  0  0  0  0  0
  -27.6767  -13.8191   18.8577 N   0  0  0  0  0  0  0  0  0  0  0  0
  -29.9522  -22.4216   20.2963 N   0  0  0  0  0  0  0  0  0  0  0  0
  -21.2959  -28.9119   22.5091 N   0  0  0  0  0  0  0  0  0  0  0  0
  -25.2170  -24.8502   23.8129 N   0  0  0  0  0  0  0  0  0  0  0  0
  -25.1288  -21.2886   23.2006 N   0  3  0  0  0  0  0  0  0  0  0  0
  -29.9284  -14.0797   18.5100 O   0  0  0  0  0  0  0  0  0  0  0  0
  -23.1908  -30.0540   21.7828 O   0  0  0  0  0  0  0  0  0  0  0  0
  -23.1171  -26.3942   23.3622 O   0  0  0  0  0  0  0  0  0  0  0  0
  -26.4093  -23.6100   22.2582 O   0  0  0  0  0  0  0  0  0  0  0  0
  -31.2005  -23.1313   22.1183 O   0  0  0  0  0  0  0  0  0  0  0  0
  -22.4664  -14.6283   20.6558 O   0  0  0  0  0  0  0  0  0  0  0  0
  -26.9880  -25.6528   16.5954 O   0  0  0  0  0  0  0  0  0  1  0  0
  -21.5033   -9.2680   21.5179 F   0  0  0  0  0  0  0  0  0  0  0  0
  -20.9972  -13.7847   22.8404 F   0  0  0  0  0  0  0  0  0  0  0  0
  1  2  1  0  0  0  0
  1  5  2  0  0  0  0
  2  6  2  0  0  0  0
  3  8  2  0  0  0  0
  3 17  1  0  0  0  0
  4  9  1  0  0  0  0
  4 17  2  0  0  0  0
  5 19  1  0  0  0  0
  6 21  1  0  0  0  0
  7 10  2  0  0  0  0
  7 20  1  0  0  0  0
  8 24  1  0  0  0  0
  9 24  2  0  0  0  0
 10 25  1  0  0  0  0
 11 12  2  0  0  0  0
 11 26  1  0  0  0  0
 12 27  1  0  0  0  0
 13 22  1  0  0  0  0
 13 25  2  0  0  0  0
 14 23  1  0  0  0  0
 14 30  2  0  0  0  0
 15 27  2  0  0  0  0
 15 28  1  0  0  0  0
 16 23  2  0  0  0  0
 16 62  1  0  0  0  0
 17 29  1  0  0  0  0
 18 29  1  0  0  0  0
 18 31  2  0  0  0  0
 18 32  1  0  0  0  0
 19 21  2  0  0  0  0
 19 37  1  0  0  0  0
 20 22  2  0  0  0  0
 20 38  1  0  0  0  0
 21 46  1  0  0  0  0
 22 39  1  0  0  0  0
 23 68  1  0  0  0  0
 24 77  1  0  0  0  0
 25 78  1  0  0  0  0
 26 28  2  0  0  0  0
 26 77  1  0  0  0  0
 27 79  1  0  0  0  0
 28 80  1  0  0  0  0
 29 61  2  0  0  0  0
 30 49  1  0  0  0  0
 30 62  1  0  0  0  0
 31 63  1  0  0  0  0
 31 66  1  0  0  0  0
 32 67  1  0  0  0  0
 32 72  2  0  0  0  0
 33 47  1  0  0  0  0
 33 69  1  0  0  0  0
 33 73  2  0  0  0  0
 34 57  1  0  0  0  0
 34 64  1  0  0  0  0
 34 74  2  0  0  0  0
 35 58  1  0  0  0  0
 35 70  1  0  0  0  0
 35 75  2  0  0  0  0
 36 65  1  0  0  0  0
 36 68  1  0  0  0  0
 36 76  2  0  0  0  0
 37 40  1  0  0  0  0
 38 47  1  0  0  0  0
 39 64  1  0  0  0  0
 40 42  1  0  0  0  0
 41 43  1  0  0  0  0
 41 44  1  0  0  0  0
 42 46  1  0  0  0  0
 43 48  1  0  0  0  0
 44 65  1  0  0  0  0
 45 48  1  0  0  0  0
 45 65  1  0  0  0  0
 46 69  1  0  0  0  0
 47 64  1  0  0  0  0
 48 63  1  0  0  0  0
 50 58  1  0  0  0  0
 51 59  1  0  0  0  0
 52 60  1  0  0  0  0
 53 60  1  0  0  0  0
 54 60  1  0  0  0  0
 55 71  1  0  0  0  0
 56 59  1  0  0  0  0
 56 62  1  0  0  0  0
 57 60  1  0  0  0  0
 57 70  1  0  0  0  0
 58 71  1  0  0  0  0
 59 78  1  0  0  0  0
 61 63  1  0  0  0  0
M  CHG  1  71   1
M  ISO  4  36 100  59 101  68 100  78 101
M  END
> <Batch ID>
0093

> <Smiles>
CNC(C)C(=O)NC(C(=O)N1Cc2cc([101O:1][101CH:1](C)Cn3cc([100NH:0][100C:0](=O)N4CCCC(n5nc(-c6ccc(Oc7ccc(F)cc7F)cc6)c(C(N)=O)c5N)C4)cc3C)ccc2CC1C(=O)NC1CCCc2ccccc21)C(C)(C)C

> <Shape>
0.230

> <Color>
0.055

> <Negative vol penalty>
0.000

$$$$

  -OEChem-04052319163D

 86 94  0     1  0  0  0  0  0999 V2000
  -19.5309  -28.7484   26.4501 C   0  0  0  0  0  0  0  0  0  0  0  0
  -20.8417  -28.4533   26.0892 C   0  0  0  0  0  0  0  0  0  0  0  0
  -28.1649  -14.2308   21.3538 C   0  0  0  0  0  0  0  0  0  0  0  0
  -25.8831  -15.0114   21.4975 C   0  0  0  0  0  0  0  0  0  0  0  0
  -18.5082  -28.6377   25.5090 C   0  0  0  0  0  0  0  0  0  0  0  0
  -21.1303  -28.0462   24.7872 C   0  0  0  0  0  0  0  0  0  0  0  0
  -26.1884  -29.3054   21.5722 C   0  0  0  0  0  0  0  0  0  0  0  0
  -24.7436  -21.5305   19.4690 C   0  0  0  0  0  0  0  0  0  0  0  0
  -27.7096  -12.9711   20.9647 C   0  0  0  0  0  0  0  0  0  0  0  0
  -25.4276  -13.7517   21.1084 C   0  0  0  0  0  0  0  0  0  0  0  0
  -27.3479  -28.5726   21.3226 C   0  0  0  0  0  0  0  0  0  0  0  0
  -24.9549  -10.7233   22.5352 C   0  0  0  0  0  0  0  0  0  0  0  0
  -23.8878  -10.1724   23.2446 C   0  0  0  0  0  0  0  0  0  0  0  0
  -26.0057  -22.1136   19.4907 C   0  0  0  0  0  0  0  0  0  0  0  0
  -26.4188  -27.8285   19.2244 C   0  0  0  0  0  0  0  0  0  0  0  0
  -22.5817  -10.0873   21.2138 C   0  0  0  0  0  0  0  0  0  0  0  0
  -27.2517  -15.2510   21.6202 C   0  0  0  0  0  0  0  0  0  0  0  0
  -28.5643  -17.4141   21.2957 C   0  0  0  0  0  0  0  0  0  0  0  0
  -18.7859  -28.2383   24.1921 C   0  0  0  0  0  0  0  0  0  0  0  0
  -25.1292  -29.2965   20.6532 C   0  0  0  0  0  0  0  0  0  0  0  0
  -20.1102  -27.9287   23.8279 C   0  0  0  0  0  0  0  0  0  0  0  0
  -25.2480  -28.5641   19.4635 C   0  0  0  0  0  0  0  0  0  0  0  0
  -24.1356  -21.1574   20.6625 C   0  0  0  0  0  0  0  0  0  0  0  0
  -26.3409  -12.7316   20.8420 C   0  0  0  0  0  0  0  0  0  0  0  0
  -27.4621  -27.8316   20.1500 C   0  0  0  0  0  0  0  0  0  0  0  0
  -24.8355  -10.9563   21.1651 C   0  0  0  0  0  0  0  0  0  0  0  0
  -22.7012   -9.8544   22.5839 C   0  0  0  0  0  0  0  0  0  0  0  0
  -23.6489  -10.6383   20.5044 C   0  0  0  0  0  0  0  0  0  0  0  0
  -27.7215  -16.5523   22.0227 C   0  0  0  0  0  0  0  0  0  0  0  0
  -26.6126  -22.3005   20.7222 C   0  0  0  0  0  0  0  0  0  0  0  0
  -24.8264  -21.3868   21.8415 C   0  0  0  0  0  0  0  0  0  0  0  0
  -28.7106  -18.5144   22.1047 C   0  0  0  0  0  0  0  0  0  0  0  0
  -29.1616  -17.2361   20.0044 C   0  0  0  0  0  0  0  0  0  0  0  0
  -22.0923  -28.3620   20.7398 C   0  0  0  0  0  0  0  0  0  0  0  0
  -22.0036  -29.6973   17.7849 C   0  0  0  0  0  0  0  0  0  0  0  0
  -23.7059  -30.6582   14.9875 C   0  0  0  0  0  0  0  0  0  0  0  0
  -25.0399  -20.4366   26.6180 C   0  0  0  0  0  0  0  0  0  0  0  0
  -17.6405  -28.0875   23.2225 C   0  0  0  0  0  0  0  0  0  0  0  0
  -23.8959  -30.1137   20.9247 C   0  0  0  0  0  0  0  0  0  0  0  0
  -24.1477  -28.5377   18.4353 C   0  0  0  0  0  0  0  0  0  0  0  0
  -18.0836  -28.0108   21.7637 C   0  0  0  0  0  0  0  0  0  0  0  0
  -28.6902  -19.8279   26.6991 C   0  0  0  0  0  0  0  0  0  0  0  0
  -19.2503  -27.0402   21.6105 C   0  0  0  0  0  0  0  0  0  0  0  0
  -28.9055  -18.9307   25.4815 C   0  0  0  0  0  0  0  0  0  0  0  0
  -27.2892  -19.6672   27.2815 C   0  0  0  0  0  0  0  0  0  0  0  0
  -26.4130  -18.9793   25.0740 C   0  0  0  0  0  0  0  0  0  0  0  0
  -20.4667  -27.5078   22.4187 C   0  0  1  0  0  0  0  0  0  0  0  0
  -22.6720  -29.6207   20.1591 C   0  0  1  0  0  0  0  0  0  0  0  0
  -27.7993  -19.1514   24.4350 C   0  0  2  0  0  0  0  0  0  0  0  0
  -22.7843  -20.5311   20.6454 C   0  0  0  0  0  0  0  0  0  0  0  0
  -23.3568  -31.6851   12.7245 C   0  0  0  0  0  0  0  0  0  0  0  0
  -30.7011  -27.2115   21.0462 C   0  0  0  0  0  0  0  0  0  0  0  0
  -20.8843  -27.0506   16.7592 C   0  0  0  0  0  0  0  0  0  0  0  0
  -21.4483  -27.7925   14.4355 C   0  0  0  0  0  0  0  0  0  0  0  0
  -19.8015  -29.0863   15.7909 C   0  0  0  0  0  0  0  0  0  0  0  0
  -23.1086  -21.8200   25.9579 C   0  0  0  0  0  0  0  0  0  0  0  0
  -25.4402  -32.9662   15.6390 C   0  0  0  0  0  0  0  0  0  0  0  0
  -27.9808  -22.9317   20.7833 C   0  0  0  0  0  0  0  0  0  0  0  0
  -24.2212  -21.0093   23.1537 C   0  0  0  0  0  0  0  0  0  0  0  0
  -27.9524  -24.4598   20.9049 C   0  0  0  0  0  0  0  0  0  0  0  0
  -29.3544  -25.0826   20.9560 C   0  0  0  0  0  0  0  0  0  0  0  0
  -24.9736  -21.5790   24.3612 C   0  0  0  0  0  0  0  0  0  0  0  0
  -22.2572  -29.2042   16.3808 C   0  0  1  0  0  0  0  0  0  0  0  0
  -23.6817  -31.9477   14.1868 C   0  0  2  0  0  0  0  0  0  0  0  0
  -29.3013  -26.6116   21.0359 C   0  0  2  0  0  0  0  0  0  1  0  0
  -21.1180  -28.2821   15.8617 C   0  0  0  0  0  0  0  0  0  0  0  0
  -27.3579  -17.0611   23.2029 N   0  0  0  0  0  0  0  0  0  0  0  0
  -26.0535  -21.9508   21.9023 N   0  0  0  0  0  0  0  0  0  0  0  0
  -27.9754  -18.2547   23.2237 N   0  0  0  0  0  0  0  0  0  0  0  0
  -22.9592  -29.3478   18.7494 N   0  0  0  0  0  0  0  0  0  0  0  0
  -26.2588  -19.8393   26.2569 N   0  0  0  0  0  0  0  0  0  0  0  0
  -29.3951  -19.6690   21.9609 N   0  0  0  0  0  0  0  0  0  0  0  0
  -28.4546  -17.6719   18.8754 N   0  0  0  0  0  0  0  0  0  0  0  0
  -21.1509  -28.5796   21.7277 N   0  0  0  0  0  0  0  0  0  0  0  0
  -22.4824  -30.3927   15.5652 N   0  0  0  0  0  0  0  0  0  0  0  0
  -24.3704  -21.1724   25.6286 N   0  0  0  0  0  0  0  0  0  0  0  0
  -25.0059  -32.6274   14.2593 N   0  3  0  0  0  0  0  0  0  0  0  0
  -30.2816  -16.6914   19.8549 O   0  0  0  0  0  0  0  0  0  0  0  0
  -22.4700  -27.2738   20.3214 O   0  0  0  0  0  0  0  0  0  0  0  0
  -20.9983  -30.3739   18.0159 O   0  0  0  0  0  0  0  0  0  0  0  0
  -24.7088  -29.9548   15.0872 O   0  0  0  0  0  0  0  0  0  0  0  0
  -24.5813  -20.3268   27.7623 O   0  0  0  0  0  0  0  0  0  0  0  0
  -25.8962  -11.5025   20.4621 O   0  0  0  0  0  0  0  0  0  0  0  0
  -28.5925  -27.1149   19.9042 O   0  0  0  0  0  0  0  0  0  1  0  0
  -21.6770   -9.3239   23.2650 F   0  0  0  0  0  0  0  0  0  0  0  0
  -23.5287  -10.8588   19.1881 F   0  0  0  0  0  0  0  0  0  0  0  0
  1  2  1  0  0  0  0
  1  5  2  0  0  0  0
  2  6  2  0  0  0  0
  3  9  2  0  0  0  0
  3 17  1  0  0  0  0
  4 10  1  0  0  0  0
  4 17  2  0  0  0  0
  5 19  1  0  0  0  0
  6 21  1  0  0  0  0
  7 11  2  0  0  0  0
  7 20  1  0  0  0  0
  8 14  2  0  0  0  0
  8 23  1  0  0  0  0
  9 24  1  0  0  0  0
 10 24  2  0  0  0  0
 11 25  1  0  0  0  0
 12 13  2  0  0  0  0
 12 26  1  0  0  0  0
 13 27  1  0  0  0  0
 14 30  1  0  0  0  0
 15 22  1  0  0  0  0
 15 25  2  0  0  0  0
 16 27  2  0  0  0  0
 16 28  1  0  0  0  0
 17 29  1  0  0  0  0
 18 29  1  0  0  0  0
 18 32  2  0  0  0  0
 18 33  1  0  0  0  0
 19 21  2  0  0  0  0
 19 38  1  0  0  0  0
 20 22  2  0  0  0  0
 20 39  1  0  0  0  0
 21 47  1  0  0  0  0
 22 40  1  0  0  0  0
 23 31  2  0  0  0  0
 23 50  1  0  0  0  0
 24 83  1  0  0  0  0
 25 84  1  0  0  0  0
 26 28  2  0  0  0  0
 26 83  1  0  0  0  0
 27 85  1  0  0  0  0
 28 86  1  0  0  0  0
 29 67  2  0  0  0  0
 30 58  1  0  0  0  0
 30 68  2  0  0  0  0
 31 59  1  0  0  0  0
 31 68  1  0  0  0  0
 32 69  1  0  0  0  0
 32 72  1  0  0  0  0
 33 73  1  0  0  0  0
 33 78  2  0  0  0  0
 34 48  1  0  0  0  0
 34 74  1  0  0  0  0
 34 79  2  0  0  0  0
 35 63  1  0  0  0  0
 35 70  1  0  0  0  0
 35 80  2  0  0  0  0
 36 64  1  0  0  0  0
 36 75  1  0  0  0  0
 36 81  2  0  0  0  0
 37 71  1  0  0  0  0
 37 76  1  0  0  0  0
 37 82  2  0  0  0  0
 38 41  1  0  0  0  0
 39 48  1  0  0  0  0
 40 70  1  0  0  0  0
 41 43  1  0  0  0  0
 42 44  1  0  0  0  0
 42 45  1  0  0  0  0
 43 47  1  0  0  0  0
 44 49  1  0  0  0  0
 45 71  1  0  0  0  0
 46 49  1  0  0  0  0
 46 71  1  0  0  0  0
 47 74  1  0  0  0  0
 48 70  1  0  0  0  0
 49 69  1  0  0  0  0
 51 64  1  0  0  0  0
 52 65  1  0  0  0  0
 53 66  1  0  0  0  0
 54 66  1  0  0  0  0
 55 66  1  0  0  0  0
 56 76  1  0  0  0  0
 57 77  1  0  0  0  0
 58 60  1  0  0  0  0
 59 62  1  0  0  0  0
 60 61  1  0  0  0  0
 61 65  1  0  0  0  0
 62 76  1  0  0  0  0
 63 66  1  0  0  0  0
 63 75  1  0  0  0  0
 64 77  1  0  0  0  0
 65 84  1  0  0  0  0
 67 69  1  0  0  0  0
M  CHG  1  77   1
M  ISO  4  37 100  65 101  76 100  84 101
M  END
> <Batch ID>
0093

> <Smiles>
CNC(C)C(=O)NC(C(=O)N1Cc2cc([101O:1][101CH:1](C)CCCc3ccc(C)c(CC[100N:0](C)[100C:0](=O)N4CCCC(n5nc(-c6ccc(Oc7ccc(F)cc7F)cc6)c(C(N)=O)c5N)C4)n3)ccc2CC1C(=O)NC1CCCc2ccccc21)C(C)(C)C

> <Shape>
0.207

> <Color>
0.087

> <Negative vol penalty>
0.000

$$$$

  -OEChem-04052319163D

 88 96  0     1  0  0  0  0  0999 V2000
  -26.6897  -32.9067   20.9100 C   0  0  0  0  0  0  0  0  0  0  0  0
  -26.0880  -31.8618   20.2160 C   0  0  0  0  0  0  0  0  0  0  0  0
  -23.0439   -9.8901   19.9824 C   0  0  0  0  0  0  0  0  0  0  0  0
  -23.7561   -9.9783   22.2894 C   0  0  0  0  0  0  0  0  0  0  0  0
  -27.9461  -32.7266   21.4871 C   0  0  0  0  0  0  0  0  0  0  0  0
  -26.7430  -30.6365   20.0977 C   0  0  0  0  0  0  0  0  0  0  0  0
  -25.4102  -23.6089   19.7061 C   0  0  0  0  0  0  0  0  0  0  0  0
  -22.2942   -8.7466   20.2575 C   0  0  0  0  0  0  0  0  0  0  0  0
  -23.0063   -8.8348   22.5645 C   0  0  0  0  0  0  0  0  0  0  0  0
  -25.7022  -22.4998   18.9134 C   0  0  0  0  0  0  0  0  0  0  0  0
  -23.3063   -5.4951   22.1313 C   0  0  0  0  0  0  0  0  0  0  0  0
  -23.9060   -4.4959   22.8977 C   0  0  0  0  0  0  0  0  0  0  0  0
  -27.8349  -22.2786   20.0189 C   0  0  0  0  0  0  0  0  0  0  0  0
  -22.1697   -4.7298   24.5614 C   0  0  0  0  0  0  0  0  0  0  0  0
  -30.4669  -17.0661   17.2304 C   0  0  0  0  0  0  0  0  0  0  0  0
  -23.7749  -10.5060   20.9983 C   0  0  0  0  0  0  0  0  0  0  0  0
  -24.1210  -13.0253   20.7961 C   0  0  0  0  0  0  0  0  0  0  0  0
  -28.6125  -31.4953   21.3840 C   0  0  0  0  0  0  0  0  0  0  0  0
  -26.3345  -24.0686   20.6552 C   0  0  0  0  0  0  0  0  0  0  0  0
  -28.0100  -30.4401   20.6727 C   0  0  0  0  0  0  0  0  0  0  0  0
  -27.5511  -23.3922   20.8242 C   0  0  0  0  0  0  0  0  0  0  0  0
  -30.0009  -17.3643   18.5008 C   0  0  0  0  0  0  0  0  0  0  0  0
  -30.9280  -17.7642   19.4568 C   0  0  0  0  0  0  0  0  0  0  0  0
  -32.2736  -17.8525   19.1180 C   0  0  0  0  0  0  0  0  0  0  0  0
  -22.2753   -8.2189   21.5486 C   0  0  0  0  0  0  0  0  0  0  0  0
  -26.9159  -21.8362   19.0677 C   0  0  0  0  0  0  0  0  0  0  0  0
  -22.1383   -6.1118   22.5799 C   0  0  0  0  0  0  0  0  0  0  0  0
  -23.3377   -4.1132   24.1128 C   0  0  0  0  0  0  0  0  0  0  0  0
  -21.5700   -5.7291   23.7949 C   0  0  0  0  0  0  0  0  0  0  0  0
  -24.5501  -11.6870   20.7146 C   0  0  0  0  0  0  0  0  0  0  0  0
  -32.6379  -17.5323   17.8201 C   0  0  0  0  0  0  0  0  0  0  0  0
  -25.2210  -13.7615   20.4292 C   0  0  0  0  0  0  0  0  0  0  0  0
  -22.8425  -13.5557   21.1700 C   0  0  0  0  0  0  0  0  0  0  0  0
  -27.9575  -26.7682   21.0814 C   0  0  0  0  0  0  0  0  0  0  0  0
  -28.8535  -25.3353   23.8502 C   0  0  0  0  0  0  0  0  0  0  0  0
  -29.3249  -22.4393   25.5932 C   0  0  0  0  0  0  0  0  0  0  0  0
  -30.7004  -14.7866   20.6952 C   0  0  0  0  0  0  0  0  0  0  0  0
  -29.9899  -31.3630   21.9840 C   0  0  0  0  0  0  0  0  0  0  0  0
  -25.9932  -25.2502   21.5210 C   0  0  0  0  0  0  0  0  0  0  0  0
  -28.5689  -23.8335   21.8430 C   0  0  0  0  0  0  0  0  0  0  0  0
  -30.4528  -29.9160   22.1332 C   0  0  0  0  0  0  0  0  0  0  0  0
  -29.6108  -12.3191   18.3713 C   0  0  0  0  0  0  0  0  0  0  0  0
  -30.1793  -29.1333   20.8528 C   0  0  0  0  0  0  0  0  0  0  0  0
  -28.1645  -12.0408   18.7844 C   0  0  0  0  0  0  0  0  0  0  0  0
  -30.5030  -12.5823   19.5823 C   0  0  0  0  0  0  0  0  0  0  0  0
  -28.5734  -13.3620   20.9024 C   0  0  0  0  0  0  0  0  0  0  0  0
  -28.6779  -29.0883   20.5438 C   0  0  1  0  0  0  0  0  0  0  0  0
  -27.2236  -25.9422   22.0996 C   0  0  1  0  0  0  0  0  0  0  0  0
  -27.6238  -13.1458   19.7117 C   0  0  2  0  0  0  0  0  0  0  0  0
  -34.0687  -17.6073   17.3977 C   0  0  0  0  0  0  0  0  0  0  0  0
  -30.1015  -21.5855   27.8215 C   0  0  0  0  0  0  0  0  0  0  0  0
  -35.1425  -21.6909   20.6304 C   0  0  0  0  0  0  0  0  0  0  0  0
  -34.2548  -20.1284   22.3713 C   0  0  0  0  0  0  0  0  0  0  0  0
  -31.7476  -25.8654   23.0420 C   0  0  0  0  0  0  0  0  0  0  0  0
  -32.4617  -24.1978   24.7675 C   0  0  0  0  0  0  0  0  0  0  0  0
  -31.2498  -26.2653   25.4599 C   0  0  0  0  0  0  0  0  0  0  0  0
  -26.6990  -21.1990   26.1633 C   0  0  0  0  0  0  0  0  0  0  0  0
  -28.5297  -17.2504   18.8108 C   0  0  0  0  0  0  0  0  0  0  0  0
  -30.4772  -18.0975   20.8429 C   0  0  0  0  0  0  0  0  0  0  0  0
  -33.2922  -18.2802   20.1207 C   0  0  0  0  0  0  0  0  0  0  0  0
  -27.6923  -18.4052   18.2568 C   0  0  0  0  0  0  0  0  0  0  0  0
  -33.7386  -19.7380   19.9035 C   0  0  0  0  0  0  0  0  0  0  0  0
  -30.7421  -16.9796   21.8563 C   0  0  0  0  0  0  0  0  0  0  0  0
  -28.0515  -19.7567   18.8634 C   0  0  0  0  0  0  0  0  0  1  0  0
  -29.9864  -24.4288   24.2669 C   0  0  1  0  0  0  0  0  0  0  0  0
  -28.9052  -22.0261   26.9923 C   0  0  2  0  0  0  0  0  0  0  0  0
  -34.7673  -20.2384   20.9346 C   0  0  0  0  0  0  0  0  0  0  0  0
  -31.3432  -25.1819   24.3635 C   0  0  0  0  0  0  0  0  0  0  0  0
  -31.7661  -17.1400   16.8642 N   0  0  0  0  0  0  0  0  0  0  0  0
  -25.8233  -11.5764   20.3263 N   0  0  0  0  0  0  0  0  0  0  0  0
  -26.2037  -12.8547   20.1604 N   0  0  0  0  0  0  0  0  0  0  0  0
  -28.1915  -24.9978   22.6612 N   0  0  0  0  0  0  0  0  0  0  0  0
  -29.9349  -13.6415   20.4197 N   0  0  0  0  0  0  0  0  0  0  0  0
  -25.4339  -15.0895   20.3135 N   0  0  0  0  0  0  0  0  0  0  0  0
  -21.8231  -12.6590   21.5181 N   0  0  0  0  0  0  0  0  0  0  0  0
  -28.0175  -28.1146   21.3865 N   0  0  0  0  0  0  0  0  0  0  0  0
  -29.5652  -23.7946   25.5114 N   0  0  0  0  0  0  0  0  0  0  0  0
  -30.0846  -15.7447   21.4912 N   0  0  0  0  0  0  0  0  0  0  0  0
  -27.9352  -20.8965   26.9296 N   0  3  0  0  0  0  0  0  0  0  0  0
  -22.6060  -14.7875   21.1788 O   0  0  0  0  0  0  0  0  0  0  0  0
  -28.4354  -26.2240   20.0928 O   0  0  0  0  0  0  0  0  0  0  0  0
  -28.5619  -26.3030   24.5574 O   0  0  0  0  0  0  0  0  0  0  0  0
  -29.4327  -21.6393   24.6665 O   0  0  0  0  0  0  0  0  0  0  0  0
  -31.8456  -14.9459   20.2593 O   0  0  0  0  0  0  0  0  0  0  0  0
  -21.5437   -7.1031   21.8175 O   0  0  0  0  0  0  0  0  0  0  0  0
  -27.2037  -20.7538   18.2948 O   0  0  0  0  0  0  0  0  0  1  0  0
  -23.9129   -3.1525   24.8479 F   0  0  0  0  0  0  0  0  0  0  0  0
  -20.4473   -6.3171   24.2305 F   0  0  0  0  0  0  0  0  0  0  0  0
  1  2  1  0  0  0  0
  1  5  2  0  0  0  0
  2  6  2  0  0  0  0
  3  8  2  0  0  0  0
  3 16  1  0  0  0  0
  4  9  1  0  0  0  0
  4 16  2  0  0  0  0
  5 18  1  0  0  0  0
  6 20  1  0  0  0  0
  7 10  2  0  0  0  0
  7 19  1  0  0  0  0
  8 25  1  0  0  0  0
  9 25  2  0  0  0  0
 10 26  1  0  0  0  0
 11 12  2  0  0  0  0
 11 27  1  0  0  0  0
 12 28  1  0  0  0  0
 13 21  1  0  0  0  0
 13 26  2  0  0  0  0
 14 28  2  0  0  0  0
 14 29  1  0  0  0  0
 15 22  1  0  0  0  0
 15 69  2  0  0  0  0
 16 30  1  0  0  0  0
 17 30  1  0  0  0  0
 17 32  2  0  0  0  0
 17 33  1  0  0  0  0
 18 20  2  0  0  0  0
 18 38  1  0  0  0  0
 19 21  2  0  0  0  0
 19 39  1  0  0  0  0
 20 47  1  0  0  0  0
 21 40  1  0  0  0  0
 22 23  2  0  0  0  0
 22 58  1  0  0  0  0
 23 24  1  0  0  0  0
 23 59  1  0  0  0  0
 24 31  2  0  0  0  0
 24 60  1  0  0  0  0
 25 85  1  0  0  0  0
 26 86  1  0  0  0  0
 27 29  2  0  0  0  0
 27 85  1  0  0  0  0
 28 87  1  0  0  0  0
 29 88  1  0  0  0  0
 30 70  2  0  0  0  0
 31 50  1  0  0  0  0
 31 69  1  0  0  0  0
 32 71  1  0  0  0  0
 32 74  1  0  0  0  0
 33 75  1  0  0  0  0
 33 80  2  0  0  0  0
 34 48  1  0  0  0  0
 34 76  1  0  0  0  0
 34 81  2  0  0  0  0
 35 65  1  0  0  0  0
 35 72  1  0  0  0  0
 35 82  2  0  0  0  0
 36 66  1  0  0  0  0
 36 77  1  0  0  0  0
 36 83  2  0  0  0  0
 37 73  1  0  0  0  0
 37 78  1  0  0  0  0
 37 84  2  0  0  0  0
 38 41  1  0  0  0  0
 39 48  1  0  0  0  0
 40 72  1  0  0  0  0
 41 43  1  0  0  0  0
 42 44  1  0  0  0  0
 42 45  1  0  0  0  0
 43 47  1  0  0  0  0
 44 49  1  0  0  0  0
 45 73  1  0  0  0  0
 46 49  1  0  0  0  0
 46 73  1  0  0  0  0
 47 76  1  0  0  0  0
 48 72  1  0  0  0  0
 49 71  1  0  0  0  0
 51 66  1  0  0  0  0
 52 67  1  0  0  0  0
 53 67  1  0  0  0  0
 54 68  1  0  0  0  0
 55 68  1  0  0  0  0
 56 68  1  0  0  0  0
 57 79  1  0  0  0  0
 58 61  1  0  0  0  0
 59 63  1  0  0  0  0
 60 62  1  0  0  0  0
 61 64  1  0  0  0  0
 62 67  1  0  0  0  0
 63 78  1  0  0  0  0
 64 86  1  0  0  0  0
 65 68  1  0  0  0  0
 65 77  1  0  0  0  0
 66 79  1  0  0  0  0
 70 71  1  0  0  0  0
M  CHG  1  79   1
M  ISO  4  37 100  64 101  78 100  86 101
M  END
> <Batch ID>
0093

> <Smiles>
CNC(C)C(=O)NC(C(=O)N1Cc2cc([101O:1][101CH2:1]CCc3cnc(C)c(CCC(C)C)c3CC[100NH:0][100C:0](=O)N3CCCC(n4nc(-c5ccc(Oc6ccc(F)cc6F)cc5)c(C(N)=O)c4N)C3)ccc2CC1C(=O)NC1CCCc2ccccc21)C(C)(C)C

> <Shape>
0.246

> <Color>
0.216

> <Negative vol penalty>
0.000

$$$$

  -OEChem-04052319163D

 82 90  0     1  0  0  0  0  0999 V2000
  -19.6564  -23.7470   23.0803 C   0  0  0  0  0  0  0  0  0  0  0  0
  -20.9515  -23.9959   22.6376 C   0  0  0  0  0  0  0  0  0  0  0  0
  -24.6416  -14.4172   21.3521 C   0  0  0  0  0  0  0  0  0  0  0  0
  -23.2244  -15.1734   19.5475 C   0  0  0  0  0  0  0  0  0  0  0  0
  -18.7358  -24.7911   23.1610 C   0  0  0  0  0  0  0  0  0  0  0  0
  -21.3266  -25.2889   22.2742 C   0  0  0  0  0  0  0  0  0  0  0  0
  -25.8485  -26.5971   24.1412 C   0  0  0  0  0  0  0  0  0  0  0  0
  -23.8213  -13.3032   21.5296 C   0  0  0  0  0  0  0  0  0  0  0  0
  -22.4041  -14.0593   19.7249 C   0  0  0  0  0  0  0  0  0  0  0  0
  -26.9751  -26.0954   23.4911 C   0  0  0  0  0  0  0  0  0  0  0  0
  -22.3033  -10.0730   22.2199 C   0  0  0  0  0  0  0  0  0  0  0  0
  -22.9203   -8.8332   22.3864 C   0  0  0  0  0  0  0  0  0  0  0  0
  -26.6448  -24.0340   16.6950 C   0  0  0  0  0  0  0  0  0  0  0  0
  -27.2486  -28.2035   22.3509 C   0  0  0  0  0  0  0  0  0  0  0  0
  -23.9601   -9.0594   20.2174 C   0  0  0  0  0  0  0  0  0  0  0  0
  -27.8084  -24.7561   16.5473 C   0  0  0  0  0  0  0  0  0  0  0  0
  -26.5861  -25.7728   18.1243 C   0  0  0  0  0  0  0  0  0  0  0  0
  -24.3432  -15.3524   20.3611 C   0  0  0  0  0  0  0  0  0  0  0  0
  -26.3146  -16.6065   19.3373 C   0  0  0  0  0  0  0  0  0  0  0  0
  -19.1025  -26.0992   22.8076 C   0  0  0  0  0  0  0  0  0  0  0  0
  -25.4063  -27.9044   23.8924 C   0  0  0  0  0  0  0  0  0  0  0  0
  -20.4097  -26.3511   22.3489 C   0  0  0  0  0  0  0  0  0  0  0  0
  -26.1176  -28.7203   23.0010 C   0  0  0  0  0  0  0  0  0  0  0  0
  -25.8715  -24.6771   17.6927 C   0  0  0  0  0  0  0  0  0  0  0  0
  -22.7025  -13.1242   20.7160 C   0  0  0  0  0  0  0  0  0  0  0  0
  -27.6737  -26.8976   22.5936 C   0  0  0  0  0  0  0  0  0  0  0  0
  -22.5146  -10.8060   21.0521 C   0  0  0  0  0  0  0  0  0  0  0  0
  -23.7487   -8.3264   21.3852 C   0  0  0  0  0  0  0  0  0  0  0  0
  -23.3430  -10.2992   20.0509 C   0  0  0  0  0  0  0  0  0  0  0  0
  -25.1899  -16.5037   20.1777 C   0  0  0  0  0  0  0  0  0  0  0  0
  -26.7644  -17.8912   19.5212 C   0  0  0  0  0  0  0  0  0  0  0  0
  -26.9004  -15.6283   18.4680 C   0  0  0  0  0  0  0  0  0  0  0  0
  -22.7529  -29.1863   22.7008 C   0  0  0  0  0  0  0  0  0  0  0  0
  -24.1803  -31.9714   23.5542 C   0  0  0  0  0  0  0  0  0  0  0  0
  -27.0688  -33.6578   24.2317 C   0  0  0  0  0  0  0  0  0  0  0  0
  -24.7541  -23.2420   20.4387 C   0  0  0  0  0  0  0  0  0  0  0  0
  -18.0591  -27.1866   22.8664 C   0  0  0  0  0  0  0  0  0  0  0  0
  -24.2048  -28.4397   24.6219 C   0  0  0  0  0  0  0  0  0  0  0  0
  -25.6959  -30.1376   22.7144 C   0  0  0  0  0  0  0  0  0  0  0  0
  -18.6445  -28.5957   22.8190 C   0  0  0  0  0  0  0  0  0  0  0  0
  -26.2047  -21.3067   23.0516 C   0  0  0  0  0  0  0  0  0  0  0  0
  -19.6911  -28.7020   21.7144 C   0  0  0  0  0  0  0  0  0  0  0  0
  -26.1954  -19.8804   22.4987 C   0  0  0  0  0  0  0  0  0  0  0  0
  -24.9651  -22.0873   22.6201 C   0  0  0  0  0  0  0  0  0  0  0  0
  -24.7110  -20.6799   20.6130 C   0  0  0  0  0  0  0  0  0  0  0  0
  -20.8615  -27.7446   21.9693 C   0  0  1  0  0  0  0  0  0  0  0  0
  -23.5441  -29.6130   23.9048 C   0  0  1  0  0  0  0  0  0  0  0  0
  -25.9684  -19.8711   20.9750 C   0  0  2  0  0  0  0  0  0  0  0  0
  -27.9201  -35.9325   24.8629 C   0  0  0  0  0  0  0  0  0  0  0  0
  -31.1182  -25.5017   20.4666 C   0  0  0  0  0  0  0  0  0  0  0  0
  -23.7485  -32.9256   20.6884 C   0  0  0  0  0  0  0  0  0  0  0  0
  -25.4169  -34.7427   21.1159 C   0  0  0  0  0  0  0  0  0  0  0  0
  -23.3054  -34.6536   22.4412 C   0  0  0  0  0  0  0  0  0  0  0  0
  -28.2215  -32.6510   26.7648 C   0  0  0  0  0  0  0  0  0  0  0  0
  -24.5458  -24.2521   18.1814 C   0  0  0  0  0  0  0  0  0  0  0  0
  -30.0685  -26.3667   18.3603 C   0  0  0  0  0  0  0  0  0  0  0  0
  -28.8384  -26.8548   17.5825 C   0  0  0  0  0  0  0  0  0  0  0  0
  -29.0546  -26.9280   20.6576 C   0  0  0  0  0  0  0  0  0  1  0  0
  -25.1161  -32.9441   22.8782 C   0  0  1  0  0  0  0  0  0  0  0  0
  -27.4528  -34.5791   25.3755 C   0  0  2  0  0  0  0  0  0  0  0  0
  -29.7905  -25.8879   19.8022 C   0  0  2  0  0  0  0  0  0  0  0  0
  -24.4038  -33.7892   21.7846 C   0  0  0  0  0  0  0  0  0  0  0  0
  -24.9406  -17.6329   20.8459 N   0  0  0  0  0  0  0  0  0  0  0  0
  -27.7616  -25.8111   17.4209 N   0  0  0  0  0  0  0  0  0  0  0  0
  -25.9150  -18.4575   20.4257 N   0  0  0  0  0  0  0  0  0  0  0  0
  -24.5112  -30.6131   23.4477 N   0  0  0  0  0  0  0  0  0  0  0  0
  -24.8082  -22.0405   21.1644 N   0  0  0  0  0  0  0  0  0  0  0  0
  -27.7996  -18.5802   18.9960 N   0  0  0  0  0  0  0  0  0  0  0  0
  -26.3120  -14.3581   18.3988 N   0  0  0  0  0  0  0  0  0  0  0  0
  -21.7446  -28.2840   22.9811 N   0  0  0  0  0  0  0  0  0  0  0  0
  -25.7226  -33.7347   23.9438 N   0  0  0  0  0  0  0  0  0  0  0  0
  -24.6106  -23.1080   19.0631 N   0  0  0  0  0  0  0  0  0  0  0  0
  -28.5528  -33.9757   26.1797 N   0  3  0  0  0  0  0  0  0  0  0  0
  -27.9252  -15.8681   17.7855 O   0  0  0  0  0  0  0  0  0  0  0  0
  -23.0353  -29.6430   21.5993 O   0  0  0  0  0  0  0  0  0  0  0  0
  -23.1959  -32.4014   24.1607 O   0  0  0  0  0  0  0  0  0  0  0  0
  -27.8826  -32.9442   23.6492 O   0  0  0  0  0  0  0  0  0  0  0  0
  -24.8336  -24.3518   20.9762 O   0  0  0  0  0  0  0  0  0  0  0  0
  -21.9019  -12.0371   20.8887 O   0  0  0  0  0  0  0  0  0  0  0  0
  -28.7734  -26.4101   21.9572 O   0  0  0  0  0  0  0  0  0  1  0  0
  -24.3424   -7.1365   21.5459 F   0  0  0  0  0  0  0  0  0  0  0  0
  -23.5508  -10.9994   18.9273 F   0  0  0  0  0  0  0  0  0  0  0  0
  1  2  1  0  0  0  0
  1  5  2  0  0  0  0
  2  6  2  0  0  0  0
  3  8  2  0  0  0  0
  3 18  1  0  0  0  0
  4  9  1  0  0  0  0
  4 18  2  0  0  0  0
  5 20  1  0  0  0  0
  6 22  1  0  0  0  0
  7 10  2  0  0  0  0
  7 21  1  0  0  0  0
  8 25  1  0  0  0  0
  9 25  2  0  0  0  0
 10 26  1  0  0  0  0
 11 12  2  0  0  0  0
 11 27  1  0  0  0  0
 12 28  1  0  0  0  0
 13 16  2  0  0  0  0
 13 24  1  0  0  0  0
 14 23  1  0  0  0  0
 14 26  2  0  0  0  0
 15 28  2  0  0  0  0
 15 29  1  0  0  0  0
 16 64  1  0  0  0  0
 17 24  2  0  0  0  0
 17 64  1  0  0  0  0
 18 30  1  0  0  0  0
 19 30  1  0  0  0  0
 19 31  2  0  0  0  0
 19 32  1  0  0  0  0
 20 22  2  0  0  0  0
 20 37  1  0  0  0  0
 21 23  2  0  0  0  0
 21 38  1  0  0  0  0
 22 46  1  0  0  0  0
 23 39  1  0  0  0  0
 24 55  1  0  0  0  0
 25 79  1  0  0  0  0
 26 80  1  0  0  0  0
 27 29  2  0  0  0  0
 27 79  1  0  0  0  0
 28 81  1  0  0  0  0
 29 82  1  0  0  0  0
 30 63  2  0  0  0  0
 31 65  1  0  0  0  0
 31 68  1  0  0  0  0
 32 69  1  0  0  0  0
 32 74  2  0  0  0  0
 33 47  1  0  0  0  0
 33 70  1  0  0  0  0
 33 75  2  0  0  0  0
 34 59  1  0  0  0  0
 34 66  1  0  0  0  0
 34 76  2  0  0  0  0
 35 60  1  0  0  0  0
 35 71  1  0  0  0  0
 35 77  2  0  0  0  0
 36 67  1  0  0  0  0
 36 72  1  0  0  0  0
 36 78  2  0  0  0  0
 37 40  1  0  0  0  0
 38 47  1  0  0  0  0
 39 66  1  0  0  0  0
 40 42  1  0  0  0  0
 41 43  1  0  0  0  0
 41 44  1  0  0  0  0
 42 46  1  0  0  0  0
 43 48  1  0  0  0  0
 44 67  1  0  0  0  0
 45 48  1  0  0  0  0
 45 67  1  0  0  0  0
 46 70  1  0  0  0  0
 47 66  1  0  0  0  0
 48 65  1  0  0  0  0
 49 60  1  0  0  0  0
 50 61  1  0  0  0  0
 51 62  1  0  0  0  0
 52 62  1  0  0  0  0
 53 62  1  0  0  0  0
 54 73  1  0  0  0  0
 55 72  1  0  0  0  0
 56 57  1  0  0  0  0
 56 61  1  0  0  0  0
 57 64  1  0  0  0  0
 58 61  1  0  0  0  0
 58 80  1  0  0  0  0
 59 62  1  0  0  0  0
 59 71  1  0  0  0  0
 60 73  1  0  0  0  0
 63 65  1  0  0  0  0
M  CHG  1  73   1
M  ISO  4  36 100  58 101  72 100  80 101
M  END
> <Batch ID>
0093

> <Smiles>
CNC(C)C(=O)NC(C(=O)N1Cc2cc([101O:1][101CH2:1]C(C)CCn3ccc(C[100NH:0][100C:0](=O)N4CCCC(n5nc(-c6ccc(Oc7ccc(F)cc7F)cc6)c(C(N)=O)c5N)C4)c3)ccc2CC1C(=O)NC1CCCc2ccccc21)C(C)(C)C

> <Shape>
0.226

> <Color>
0.072

> <Negative vol penalty>
0.000

$$$$

  -OEChem-04052319163D

 87 95  0     1  0  0  0  0  0999 V2000
  -28.5891   -6.3288   28.3975 C   0  0  0  0  0  0  0  0  0  0  0  0
  -29.0263   -7.6445   28.5125 C   0  0  0  0  0  0  0  0  0  0  0  0
  -23.1911   -9.8190   19.9315 C   0  0  0  0  0  0  0  0  0  0  0  0
  -23.5686   -9.9997   22.3110 C   0  0  0  0  0  0  0  0  0  0  0  0
  -27.2486   -6.0625   28.1218 C   0  0  0  0  0  0  0  0  0  0  0  0
  -28.1234   -8.6948   28.3506 C   0  0  0  0  0  0  0  0  0  0  0  0
  -28.1569  -14.0650   31.2943 C   0  0  0  0  0  0  0  0  0  0  0  0
  -22.4250   -8.6722   20.1401 C   0  0  0  0  0  0  0  0  0  0  0  0
  -22.8025   -8.8529   22.5196 C   0  0  0  0  0  0  0  0  0  0  0  0
  -28.6284  -15.3275   30.9371 C   0  0  0  0  0  0  0  0  0  0  0  0
  -23.2045   -5.5063   22.2559 C   0  0  0  0  0  0  0  0  0  0  0  0
  -23.7028   -4.5451   23.1353 C   0  0  0  0  0  0  0  0  0  0  0  0
  -26.4113  -15.9444   30.2138 C   0  0  0  0  0  0  0  0  0  0  0  0
  -27.7163  -17.4690   27.0598 C   0  0  0  0  0  0  0  0  0  0  0  0
  -29.4425  -15.7920   27.2708 C   0  0  0  0  0  0  0  0  0  0  0  0
  -21.7457   -4.8048   24.5280 C   0  0  0  0  0  0  0  0  0  0  0  0
  -23.7630  -10.4828   21.0169 C   0  0  0  0  0  0  0  0  0  0  0  0
  -24.1011  -12.9995   20.7731 C   0  0  0  0  0  0  0  0  0  0  0  0
  -26.3269   -7.1099   27.9660 C   0  0  0  0  0  0  0  0  0  0  0  0
  -26.8090  -13.7285   31.1034 C   0  0  0  0  0  0  0  0  0  0  0  0
  -26.7696   -8.4423   28.0712 C   0  0  0  0  0  0  0  0  0  0  0  0
  -25.9246  -14.6778   30.5717 C   0  0  0  0  0  0  0  0  0  0  0  0
  -28.7896  -16.9221   27.7630 C   0  0  0  0  0  0  0  0  0  0  0  0
  -27.2958  -16.8858   25.8644 C   0  0  0  0  0  0  0  0  0  0  0  0
  -29.0222  -15.2088   26.0754 C   0  0  0  0  0  0  0  0  0  0  0  0
  -27.9488  -15.7558   25.3723 C   0  0  0  0  0  0  0  0  0  0  0  0
  -22.2307   -8.1891   21.4341 C   0  0  0  0  0  0  0  0  0  0  0  0
  -27.7562  -16.2664   30.3941 C   0  0  0  0  0  0  0  0  0  0  0  0
  -21.9768   -6.1167   22.5125 C   0  0  0  0  0  0  0  0  0  0  0  0
  -22.9734   -4.1943   24.2714 C   0  0  0  0  0  0  0  0  0  0  0  0
  -21.2474   -5.7660   23.6486 C   0  0  0  0  0  0  0  0  0  0  0  0
  -24.5549  -11.6672   20.8021 C   0  0  0  0  0  0  0  0  0  0  0  0
  -25.2322  -13.7424   20.5381 C   0  0  0  0  0  0  0  0  0  0  0  0
  -22.7757  -13.5191   20.9435 C   0  0  0  0  0  0  0  0  0  0  0  0
  -25.2630  -11.5535   29.3762 C   0  0  0  0  0  0  0  0  0  0  0  0
  -22.6769  -12.6966   30.9662 C   0  0  0  0  0  0  0  0  0  0  0  0
  -21.2287  -15.2771   32.6663 C   0  0  0  0  0  0  0  0  0  0  0  0
  -31.0469  -12.7539   21.5692 C   0  0  0  0  0  0  0  0  0  0  0  0
  -24.8974   -6.7737   27.6220 C   0  0  0  0  0  0  0  0  0  0  0  0
  -26.3104  -12.3715   31.5186 C   0  0  0  0  0  0  0  0  0  0  0  0
  -24.4641  -14.3730   30.3655 C   0  0  0  0  0  0  0  0  0  0  0  0
  -23.9302   -7.9352   27.8357 C   0  0  0  0  0  0  0  0  0  0  0  0
  -29.5203  -13.4707   18.4335 C   0  0  0  0  0  0  0  0  0  0  0  0
  -24.4994   -9.2200   27.2423 C   0  0  0  0  0  0  0  0  0  0  0  0
  -28.0337  -13.2100   18.6823 C   0  0  0  0  0  0  0  0  0  0  0  0
  -30.4016  -12.4816   19.1930 C   0  0  0  0  0  0  0  0  0  0  0  0
  -28.6477  -12.1385   20.8900 C   0  0  0  0  0  0  0  0  0  0  0  0
  -25.8156   -9.6081   27.9269 C   0  0  1  0  0  0  0  0  0  0  0  0
  -25.0270  -11.9617   30.8029 C   0  0  1  0  0  0  0  0  0  0  0  0
  -27.7202  -13.1460   20.1893 C   0  0  2  0  0  0  0  0  0  0  0  0
  -26.1446  -17.4917   25.1301 C   0  0  0  0  0  0  0  0  0  0  0  0
  -26.2286  -14.3048   24.2668 C   0  0  0  0  0  0  0  0  0  0  0  0
  -29.6616  -19.0072   28.8742 C   0  0  0  0  0  0  0  0  0  0  0  0
  -19.0933  -15.9293   33.8117 C   0  0  0  0  0  0  0  0  0  0  0  0
  -21.3563  -13.1328   28.2503 C   0  0  0  0  0  0  0  0  0  0  0  0
  -19.6888  -14.6212   29.3782 C   0  0  0  0  0  0  0  0  0  0  0  0
  -19.8387  -12.2134   30.0127 C   0  0  0  0  0  0  0  0  0  0  0  0
  -31.0790  -15.4642   23.9555 C   0  0  0  0  0  0  0  0  0  0  0  0
  -32.1900  -14.4641   25.9453 C   0  0  0  0  0  0  0  0  0  0  0  0
  -22.5952  -15.6271   35.2681 C   0  0  0  0  0  0  0  0  0  0  0  0
  -29.7383  -13.9992   25.5697 C   0  0  0  0  0  0  0  0  0  0  0  0
  -27.4981  -15.1310   24.0904 C   0  0  0  0  0  0  0  0  0  0  0  0
  -31.5363  -13.0054   23.9892 C   0  0  0  0  0  0  0  0  0  0  0  0
  -29.2447  -17.5536   29.0587 C   0  0  1  0  0  0  0  0  0  1  0  0
  -21.6746  -13.7993   30.7243 C   0  0  1  0  0  0  0  0  0  0  0  0
  -20.4754  -15.3186   33.9836 C   0  0  2  0  0  0  0  0  0  0  0  0
  -20.6675  -13.4471   29.5933 C   0  0  0  0  0  0  0  0  0  0  0  0
  -31.1181  -14.2147   24.8593 C   0  0  0  0  0  0  0  0  0  0  0  0
  -25.8715  -11.5664   20.6013 N   0  0  0  0  0  0  0  0  0  0  0  0
  -26.2548  -12.8448   20.4439 N   0  0  0  0  0  0  0  0  0  0  0  0
  -24.0261  -13.0304   30.7812 N   0  0  0  0  0  0  0  0  0  0  0  0
  -30.0547  -12.4705   20.6162 N   0  0  0  0  0  0  0  0  0  0  0  0
  -25.4419  -15.0693   20.4048 N   0  0  0  0  0  0  0  0  0  0  0  0
  -21.7292  -12.6166   21.1772 N   0  0  0  0  0  0  0  0  0  0  0  0
  -25.5557  -10.2126   29.2158 N   0  0  0  0  0  0  0  0  0  0  0  0
  -21.0518  -14.0751   32.0145 N   0  0  0  0  0  0  0  0  0  0  0  0
  -30.6323  -12.7285   22.8951 N   0  0  0  0  0  0  0  0  0  0  0  0
  -21.2260  -16.1287   34.9843 N   0  3  0  0  0  0  0  0  0  0  0  0
  -22.5243  -14.7460   20.8736 O   0  0  0  0  0  0  0  0  0  0  0  0
  -25.1838  -12.3926   28.4867 O   0  0  0  0  0  0  0  0  0  0  0  0
  -22.2780  -11.5823   31.3136 O   0  0  0  0  0  0  0  0  0  0  0  0
  -21.9034  -16.2184   32.2549 O   0  0  0  0  0  0  0  0  0  0  0  0
  -32.2145  -13.0158   21.2608 O   0  0  0  0  0  0  0  0  0  0  0  0
  -21.4830   -7.0702   21.6380 O   0  0  0  0  0  0  0  0  0  0  0  0
  -28.2140  -17.4992   30.0441 O   0  0  0  0  0  0  0  0  0  1  0  0
  -23.4514   -3.2702   25.1150 F   0  0  0  0  0  0  0  0  0  0  0  0
  -20.0668   -6.3481   23.8998 F   0  0  0  0  0  0  0  0  0  0  0  0
  1  2  1  0  0  0  0
  1  5  2  0  0  0  0
  2  6  2  0  0  0  0
  3  8  2  0  0  0  0
  3 17  1  0  0  0  0
  4  9  1  0  0  0  0
  4 17  2  0  0  0  0
  5 19  1  0  0  0  0
  6 21  1  0  0  0  0
  7 10  2  0  0  0  0
  7 20  1  0  0  0  0
  8 27  1  0  0  0  0
  9 27  2  0  0  0  0
 10 28  1  0  0  0  0
 11 12  2  0  0  0  0
 11 29  1  0  0  0  0
 12 30  1  0  0  0  0
 13 22  1  0  0  0  0
 13 28  2  0  0  0  0
 14 23  1  0  0  0  0
 14 24  2  0  0  0  0
 15 23  2  0  0  0  0
 15 25  1  0  0  0  0
 16 30  2  0  0  0  0
 16 31  1  0  0  0  0
 17 32  1  0  0  0  0
 18 32  1  0  0  0  0
 18 33  2  0  0  0  0
 18 34  1  0  0  0  0
 19 21  2  0  0  0  0
 19 39  1  0  0  0  0
 20 22  2  0  0  0  0
 20 40  1  0  0  0  0
 21 48  1  0  0  0  0
 22 41  1  0  0  0  0
 23 64  1  0  0  0  0
 24 26  1  0  0  0  0
 24 51  1  0  0  0  0
 25 26  2  0  0  0  0
 25 61  1  0  0  0  0
 26 62  1  0  0  0  0
 27 84  1  0  0  0  0
 28 85  1  0  0  0  0
 29 31  2  0  0  0  0
 29 84  1  0  0  0  0
 30 86  1  0  0  0  0
 31 87  1  0  0  0  0
 32 69  2  0  0  0  0
 33 70  1  0  0  0  0
 33 73  1  0  0  0  0
 34 74  1  0  0  0  0
 34 79  2  0  0  0  0
 35 49  1  0  0  0  0
 35 75  1  0  0  0  0
 35 80  2  0  0  0  0
 36 65  1  0  0  0  0
 36 71  1  0  0  0  0
 36 81  2  0  0  0  0
 37 66  1  0  0  0  0
 37 76  1  0  0  0  0
 37 82  2  0  0  0  0
 38 72  1  0  0  0  0
 38 77  1  0  0  0  0
 38 83  2  0  0  0  0
 39 42  1  0  0  0  0
 40 49  1  0  0  0  0
 41 71  1  0  0  0  0
 42 44  1  0  0  0  0
 43 45  1  0  0  0  0
 43 46  1  0  0  0  0
 44 48  1  0  0  0  0
 45 50  1  0  0  0  0
 46 72  1  0  0  0  0
 47 50  1  0  0  0  0
 47 72  1  0  0  0  0
 48 75  1  0  0  0  0
 49 71  1  0  0  0  0
 50 70  1  0  0  0  0
 52 62  1  0  0  0  0
 53 64  1  0  0  0  0
 54 66  1  0  0  0  0
 55 67  1  0  0  0  0
 56 67  1  0  0  0  0
 57 67  1  0  0  0  0
 58 68  1  0  0  0  0
 59 68  1  0  0  0  0
 60 78  1  0  0  0  0
 61 68  1  0  0  0  0
 63 68  1  0  0  0  0
 63 77  1  0  0  0  0
 64 85  1  0  0  0  0
 65 67  1  0  0  0  0
 65 76  1  0  0  0  0
 66 78  1  0  0  0  0
 69 70  1  0  0  0  0
M  CHG  1  78   1
M  ISO  4  38 100  64 101  77 100  85 101
M  END
> <Batch ID>
0093

> <Smiles>
CCc1c(C)cc([101CH:1](C)[101O:1]c2ccc3c(c2)CN(C(=O)C(NC(=O)C(C)NC)C(C)(C)C)C(C(=O)NC2CCCc4ccccc42)C3)cc1CC(C)(C)C[100NH:0][100C:0](=O)N1CCCC(n2nc(-c3ccc(Oc4ccc(F)cc4F)cc3)c(C(N)=O)c2N)C1

> <Shape>
0.140

> <Color>
0.182

> <Negative vol penalty>
0.000

$$$$

  -OEChem-04052319163D

 84 92  0     1  0  0  0  0  0999 V2000
  -27.7554  -33.2092   26.2563 C   0  0  0  0  0  0  0  0  0  0  0  0
  -27.6968  -31.8199   26.2973 C   0  0  0  0  0  0  0  0  0  0  0  0
  -23.8030  -13.8465   19.3168 C   0  0  0  0  0  0  0  0  0  0  0  0
  -25.7531  -14.4898   20.5897 C   0  0  0  0  0  0  0  0  0  0  0  0
  -26.7543  -33.9291   25.6053 C   0  0  0  0  0  0  0  0  0  0  0  0
  -26.6365  -31.1496   25.6884 C   0  0  0  0  0  0  0  0  0  0  0  0
  -28.1636  -27.1505   22.9828 C   0  0  0  0  0  0  0  0  0  0  0  0
  -24.0798  -12.5033   19.5715 C   0  0  0  0  0  0  0  0  0  0  0  0
  -26.0299  -13.1466   20.8445 C   0  0  0  0  0  0  0  0  0  0  0  0
  -28.4834  -25.9902   23.6865 C   0  0  0  0  0  0  0  0  0  0  0  0
  -23.6891  -10.3200   22.1237 C   0  0  0  0  0  0  0  0  0  0  0  0
  -22.6277   -9.5012   22.5089 C   0  0  0  0  0  0  0  0  0  0  0  0
  -26.3223  -25.0692   23.1384 C   0  0  0  0  0  0  0  0  0  0  0  0
  -23.0068   -8.1008   20.5770 C   0  0  0  0  0  0  0  0  0  0  0  0
  -29.6886  -22.6136   21.3253 C   0  0  0  0  0  0  0  0  0  0  0  0
  -24.6397  -14.8397   19.8258 C   0  0  0  0  0  0  0  0  0  0  0  0
  -23.5623  -17.0945   20.3385 C   0  0  0  0  0  0  0  0  0  0  0  0
  -25.6863  -33.2668   24.9798 C   0  0  0  0  0  0  0  0  0  0  0  0
  -26.9144  -27.2835   22.3597 C   0  0  0  0  0  0  0  0  0  0  0  0
  -25.6195  -31.8613   25.0296 C   0  0  0  0  0  0  0  0  0  0  0  0
  -25.9900  -26.2311   22.4252 C   0  0  0  0  0  0  0  0  0  0  0  0
  -29.5590  -21.5478   22.1818 C   0  0  0  0  0  0  0  0  0  0  0  0
  -25.1932  -12.1533   20.3354 C   0  0  0  0  0  0  0  0  0  0  0  0
  -27.5616  -24.9505   23.7668 C   0  0  0  0  0  0  0  0  0  0  0  0
  -24.4094  -10.0293   20.9650 C   0  0  0  0  0  0  0  0  0  0  0  0
  -22.2865   -8.3915   21.7356 C   0  0  0  0  0  0  0  0  0  0  0  0
  -24.0683   -8.9197   20.1917 C   0  0  0  0  0  0  0  0  0  0  0  0
  -24.3546  -16.2273   19.5626 C   0  0  0  0  0  0  0  0  0  0  0  0
  -29.3928  -20.4348   21.3360 C   0  0  0  0  0  0  0  0  0  0  0  0
  -23.6061  -18.2922   19.6677 C   0  0  0  0  0  0  0  0  0  0  0  0
  -22.8504  -16.8401   21.5568 C   0  0  0  0  0  0  0  0  0  0  0  0
  -24.4468  -29.2612   22.6807 C   0  0  0  0  0  0  0  0  0  0  0  0
  -23.3360  -27.6736   20.0792 C   0  0  0  0  0  0  0  0  0  0  0  0
  -23.3729  -24.8371   18.1820 C   0  0  0  0  0  0  0  0  0  0  0  0
  -27.2504  -21.5425   16.5581 C   0  0  0  0  0  0  0  0  0  0  0  0
  -24.6029  -34.0899   24.3291 C   0  0  0  0  0  0  0  0  0  0  0  0
  -26.5950  -28.5306   21.5819 C   0  0  0  0  0  0  0  0  0  0  0  0
  -24.6431  -26.3161   21.7567 C   0  0  0  0  0  0  0  0  0  0  0  0
  -23.7109  -33.2864   23.3862 C   0  0  0  0  0  0  0  0  0  0  0  0
  -24.6486  -19.6522   15.0303 C   0  0  0  0  0  0  0  0  0  0  0  0
  -23.2835  -31.9771   24.0419 C   0  0  0  0  0  0  0  0  0  0  0  0
  -24.2339  -18.6570   16.1154 C   0  0  0  0  0  0  0  0  0  0  0  0
  -26.1532  -19.9131   15.0490 C   0  0  0  0  0  0  0  0  0  0  0  0
  -26.2784  -19.3354   17.4415 C   0  0  0  0  0  0  0  0  0  0  0  0
  -24.4984  -31.0969   24.3595 C   0  0  1  0  0  0  0  0  0  0  0  0
  -25.0965  -28.7662   21.4196 C   0  0  1  0  0  0  0  0  0  0  0  0
  -24.7620  -19.0830   17.4984 C   0  0  2  0  0  0  0  0  0  0  0  0
  -30.3463  -18.1041   21.2233 C   0  0  0  0  0  0  0  0  0  0  0  0
  -27.8487  -18.4435   21.2678 C   0  0  0  0  0  0  0  0  0  0  0  0
  -22.8549  -23.3205   16.2509 C   0  0  0  0  0  0  0  0  0  0  0  0
  -20.7740  -27.1464   21.6502 C   0  0  0  0  0  0  0  0  0  0  0  0
  -20.1945  -25.3768   19.9766 C   0  0  0  0  0  0  0  0  0  0  0  0
  -20.4198  -27.7525   19.2498 C   0  0  0  0  0  0  0  0  0  0  0  0
  -25.6823  -25.8388   16.6256 C   0  0  0  0  0  0  0  0  0  0  0  0
  -29.5894  -21.5770   23.6891 C   0  0  0  0  0  0  0  0  0  0  0  0
  -28.2088  -21.4448   24.3357 C   0  0  0  0  0  0  0  0  0  0  0  0
  -29.6731  -22.8316   18.8290 C   0  0  0  0  0  0  0  0  0  0  0  0
  -28.3065  -23.0795   18.1956 C   0  0  0  0  0  0  0  0  0  0  0  0
  -27.2735  -22.6018   24.0041 C   0  0  0  0  0  0  0  0  0  1  0  0
  -29.2081  -19.0253   21.7238 C   0  0  0  0  0  0  0  0  0  0  0  0
  -22.4936  -26.4405   19.8583 C   0  0  1  0  0  0  0  0  0  0  0  0
  -23.4978  -24.6291   16.6834 C   0  0  2  0  0  0  0  0  0  0  0  0
  -20.9950  -26.6779   20.1981 C   0  0  0  0  0  0  0  0  0  0  0  0
  -24.8643  -16.8234   18.4814 N   0  0  0  0  0  0  0  0  0  0  0  0
  -29.4142  -20.7631   20.0415 N   0  0  0  0  0  0  0  0  0  0  0  0
  -29.5954  -22.0945   20.0675 N   0  0  0  0  0  0  0  0  0  0  0  0
  -24.3911  -18.0779   18.5732 N   0  0  0  0  0  0  0  0  0  0  0  0
  -24.3751  -27.5583   21.0134 N   0  0  0  0  0  0  0  0  0  0  0  0
  -26.5894  -20.3148   16.3885 N   0  0  0  0  0  0  0  0  0  0  0  0
  -23.0493  -19.4972   19.9132 N   0  0  0  0  0  0  0  0  0  0  0  0
  -22.9122  -15.5541   22.1107 N   0  0  0  0  0  0  0  0  0  0  0  0
  -24.9769  -30.4440   23.1598 N   0  0  0  0  0  0  0  0  0  0  0  0
  -22.7352  -26.0223   18.4817 N   0  0  0  0  0  0  0  0  0  0  0  0
  -27.6241  -21.8495   17.8608 N   0  0  0  0  0  0  0  0  0  0  0  0
  -24.9327  -24.6030   16.2819 N   0  3  0  0  0  0  0  0  0  0  0  0
  -22.1661  -17.7225   22.1283 O   0  0  0  0  0  0  0  0  0  0  0  0
  -23.5313  -28.6185   23.1812 O   0  0  0  0  0  0  0  0  0  0  0  0
  -23.0859  -28.6992   19.4409 O   0  0  0  0  0  0  0  0  0  0  0  0
  -23.7952  -24.0272   19.0044 O   0  0  0  0  0  0  0  0  0  0  0  0
  -27.4849  -22.3108   15.6192 O   0  0  0  0  0  0  0  0  0  0  0  0
  -25.4634  -10.8428   20.5843 O   0  0  0  0  0  0  0  0  0  0  0  0
  -27.8710  -23.8172   24.4537 O   0  0  0  0  0  0  0  0  0  1  0  0
  -21.2682   -7.6044   22.1065 F   0  0  0  0  0  0  0  0  0  0  0  0
  -24.7573   -8.6347   19.0783 F   0  0  0  0  0  0  0  0  0  0  0  0
  1  2  1  0  0  0  0
  1  5  2  0  0  0  0
  2  6  2  0  0  0  0
  3  8  2  0  0  0  0
  3 16  1  0  0  0  0
  4  9  1  0  0  0  0
  4 16  2  0  0  0  0
  5 18  1  0  0  0  0
  6 20  1  0  0  0  0
  7 10  2  0  0  0  0
  7 19  1  0  0  0  0
  8 23  1  0  0  0  0
  9 23  2  0  0  0  0
 10 24  1  0  0  0  0
 11 12  2  0  0  0  0
 11 25  1  0  0  0  0
 12 26  1  0  0  0  0
 13 21  1  0  0  0  0
 13 24  2  0  0  0  0
 14 26  2  0  0  0  0
 14 27  1  0  0  0  0
 15 22  2  0  0  0  0
 15 66  1  0  0  0  0
 16 28  1  0  0  0  0
 17 28  1  0  0  0  0
 17 30  2  0  0  0  0
 17 31  1  0  0  0  0
 18 20  2  0  0  0  0
 18 36  1  0  0  0  0
 19 21  2  0  0  0  0
 19 37  1  0  0  0  0
 20 45  1  0  0  0  0
 21 38  1  0  0  0  0
 22 29  1  0  0  0  0
 22 55  1  0  0  0  0
 23 81  1  0  0  0  0
 24 82  1  0  0  0  0
 25 27  2  0  0  0  0
 25 81  1  0  0  0  0
 26 83  1  0  0  0  0
 27 84  1  0  0  0  0
 28 64  2  0  0  0  0
 29 60  1  0  0  0  0
 29 65  2  0  0  0  0
 30 67  1  0  0  0  0
 30 70  1  0  0  0  0
 31 71  1  0  0  0  0
 31 76  2  0  0  0  0
 32 46  1  0  0  0  0
 32 72  1  0  0  0  0
 32 77  2  0  0  0  0
 33 61  1  0  0  0  0
 33 68  1  0  0  0  0
 33 78  2  0  0  0  0
 34 62  1  0  0  0  0
 34 73  1  0  0  0  0
 34 79  2  0  0  0  0
 35 69  1  0  0  0  0
 35 74  1  0  0  0  0
 35 80  2  0  0  0  0
 36 39  1  0  0  0  0
 37 46  1  0  0  0  0
 38 68  1  0  0  0  0
 39 41  1  0  0  0  0
 40 42  1  0  0  0  0
 40 43  1  0  0  0  0
 41 45  1  0  0  0  0
 42 47  1  0  0  0  0
 43 69  1  0  0  0  0
 44 47  1  0  0  0  0
 44 69  1  0  0  0  0
 45 72  1  0  0  0  0
 46 68  1  0  0  0  0
 47 67  1  0  0  0  0
 48 60  1  0  0  0  0
 49 60  1  0  0  0  0
 50 62  1  0  0  0  0
 51 63  1  0  0  0  0
 52 63  1  0  0  0  0
 53 63  1  0  0  0  0
 54 75  1  0  0  0  0
 55 56  1  0  0  0  0
 56 59  1  0  0  0  0
 57 58  1  0  0  0  0
 57 66  1  0  0  0  0
 58 74  1  0  0  0  0
 59 82  1  0  0  0  0
 61 63  1  0  0  0  0
 61 73  1  0  0  0  0
 62 75  1  0  0  0  0
 64 67  1  0  0  0  0
 65 66  1  0  0  0  0
M  CHG  1  75   1
M  ISO  4  35 100  59 101  74 100  82 101
M  END
> <Batch ID>
0093

> <Smiles>
CNC(C)C(=O)NC(C(=O)N1Cc2cc([101O:1][101CH2:1]CCc3cn(CC[100NH:0][100C:0](=O)N4CCCC(n5nc(-c6ccc(Oc7ccc(F)cc7F)cc6)c(C(N)=O)c5N)C4)nc3C(C)C)ccc2CC1C(=O)NC1CCCc2ccccc21)C(C)(C)C

> <Shape>
0.204

> <Color>
0.067

> <Negative vol penalty>
0.000

$$$$

  -OEChem-04052319163D

 86 94  0     1  0  0  0  0  0999 V2000
  -29.6276  -12.9121   19.5998 C   0  0  0  0  0  0  0  0  0  0  0  0
  -29.4830  -14.2903   19.4771 C   0  0  0  0  0  0  0  0  0  0  0  0
  -28.6639  -26.1395   18.9612 C   0  0  0  0  0  0  0  0  0  0  0  0
  -26.6725  -25.0748   19.8203 C   0  0  0  0  0  0  0  0  0  0  0  0
  -28.4983  -12.0973   19.6696 C   0  0  0  0  0  0  0  0  0  0  0  0
  -28.2090  -14.8545   19.4230 C   0  0  0  0  0  0  0  0  0  0  0  0
  -24.6310  -20.7567   21.3407 C   0  0  0  0  0  0  0  0  0  0  0  0
  -29.2505  -24.8884   18.7703 C   0  0  0  0  0  0  0  0  0  0  0  0
  -27.2591  -23.8237   19.6293 C   0  0  0  0  0  0  0  0  0  0  0  0
  -23.7961  -21.7336   20.7999 C   0  0  0  0  0  0  0  0  0  0  0  0
  -27.8229  -21.7053   17.0573 C   0  0  0  0  0  0  0  0  0  0  0  0
  -27.0433  -20.7085   16.4707 C   0  0  0  0  0  0  0  0  0  0  0  0
  -21.9173  -20.2351   21.0092 C   0  0  0  0  0  0  0  0  0  0  0  0
  -27.3114  -19.3384   18.4426 C   0  0  0  0  0  0  0  0  0  0  0  0
  -19.1666  -26.8757   23.8571 C   0  0  0  0  0  0  0  0  0  0  0  0
  -19.7356  -28.1573   21.9889 C   0  0  0  0  0  0  0  0  0  0  0  0
  -27.3750  -26.2327   19.4863 C   0  0  0  0  0  0  0  0  0  0  0  0
  -26.5049  -28.4993   18.7032 C   0  0  0  0  0  0  0  0  0  0  0  0
  -27.2098  -12.6527   19.6261 C   0  0  0  0  0  0  0  0  0  0  0  0
  -24.1164  -19.5057   21.7104 C   0  0  0  0  0  0  0  0  0  0  0  0
  -27.0614  -14.0463   19.4909 C   0  0  0  0  0  0  0  0  0  0  0  0
  -22.7473  -19.2450   21.5568 C   0  0  0  0  0  0  0  0  0  0  0  0
  -19.8279  -27.9775   23.3539 C   0  0  0  0  0  0  0  0  0  0  0  0
  -28.5480  -23.7305   19.1043 C   0  0  0  0  0  0  0  0  0  0  0  0
  -22.4396  -21.4718   20.6314 C   0  0  0  0  0  0  0  0  0  0  0  0
  -28.3468  -21.5187   18.3366 C   0  0  0  0  0  0  0  0  0  0  0  0
  -26.7875  -19.5251   17.1633 C   0  0  0  0  0  0  0  0  0  0  0  0
  -28.0910  -20.3353   19.0292 C   0  0  0  0  0  0  0  0  0  0  0  0
  -26.7688  -27.5247   19.6843 C   0  0  0  0  0  0  0  0  0  0  0  0
  -25.9273  -29.5356   19.3953 C   0  0  0  0  0  0  0  0  0  0  0  0
  -18.4511  -26.2936   21.7795 C   0  0  0  0  0  0  0  0  0  0  0  0
  -26.7592  -28.4704   17.2925 C   0  0  0  0  0  0  0  0  0  0  0  0
  -24.6296  -16.5076   20.7876 C   0  0  0  0  0  0  0  0  0  0  0  0
  -22.6385  -15.8192   23.2541 C   0  0  0  0  0  0  0  0  0  0  0  0
  -20.1430  -16.8550   25.3388 C   0  0  0  0  0  0  0  0  0  0  0  0
  -22.8815  -29.8040   24.5433 C   0  0  0  0  0  0  0  0  0  0  0  0
  -26.0191  -11.7275   19.6574 C   0  0  0  0  0  0  0  0  0  0  0  0
  -25.0253  -18.4722   22.3172 C   0  0  0  0  0  0  0  0  0  0  0  0
  -22.1417  -17.9252   21.9567 C   0  0  0  0  0  0  0  0  0  0  0  0
  -24.7043  -12.4372   19.9703 C   0  0  0  0  0  0  0  0  0  0  0  0
  -25.8623  -31.5708   23.7247 C   0  0  0  0  0  0  0  0  0  0  0  0
  -24.5707  -13.7064   19.1347 C   0  0  0  0  0  0  0  0  0  0  0  0
  -26.4088  -30.8222   22.5079 C   0  0  0  0  0  0  0  0  0  0  0  0
  -25.2132  -30.6198   24.7278 C   0  0  0  0  0  0  0  0  0  0  0  0
  -24.7207  -28.9900   22.9460 C   0  0  0  0  0  0  0  0  0  0  0  0
  -25.6961  -14.6980   19.4539 C   0  0  1  0  0  0  0  0  0  0  0  0
  -24.4884  -17.0507   22.1814 C   0  0  1  0  0  0  0  0  0  0  0  0
  -25.3351  -29.9132   21.8800 C   0  0  2  0  0  0  0  0  0  0  0  0
  -13.2435  -27.9083   21.0625 C   0  0  0  0  0  0  0  0  0  0  0  0
  -18.6962  -16.0577   27.2279 C   0  0  0  0  0  0  0  0  0  0  0  0
  -20.9561  -14.2089   21.2827 C   0  0  0  0  0  0  0  0  0  0  0  0
  -19.0908  -14.2454   22.9522 C   0  0  0  0  0  0  0  0  0  0  0  0
  -21.2509  -13.1357   23.5223 C   0  0  0  0  0  0  0  0  0  0  0  0
  -21.1930  -18.9280   27.1716 C   0  0  0  0  0  0  0  0  0  0  0  0
  -20.5901  -28.9060   24.2236 C   0  0  0  0  0  0  0  0  0  0  0  0
  -13.9567  -26.5866   21.3012 C   0  0  0  0  0  0  0  0  0  0  0  0
  -15.4636  -26.6449   21.0362 C   0  0  0  0  0  0  0  0  0  0  0  0
  -19.7187  -23.8396   20.4630 C   0  0  0  0  0  0  0  0  0  0  0  0
  -16.1685  -25.2977   21.2456 C   0  0  0  0  0  0  0  0  0  0  0  0
  -18.2593  -23.9062   20.9225 C   0  0  0  0  0  0  0  0  0  0  0  0
  -20.2600  -22.4176   20.5271 C   0  0  0  0  0  0  0  0  0  1  0  0
  -17.6743  -25.3385   20.8867 C   0  0  2  0  0  0  0  0  0  0  0  0
  -21.1455  -15.6593   23.4102 C   0  0  1  0  0  0  0  0  0  0  0  0
  -19.9872  -16.7649   26.8462 C   0  0  2  0  0  0  0  0  0  0  0  0
  -20.6223  -14.3366   22.7824 C   0  0  0  0  0  0  0  0  0  0  0  0
  -18.4661  -26.0097   23.0958 N   0  0  0  0  0  0  0  0  0  0  0  0
  -19.0532  -27.3317   21.1684 N   0  0  0  0  0  0  0  0  0  0  0  0
  -26.3900  -27.9077   20.9065 N   0  0  0  0  0  0  0  0  0  0  0  0
  -25.8823  -29.1345   20.6981 N   0  0  0  0  0  0  0  0  0  0  0  0
  -23.0725  -16.9447   22.5395 N   0  0  0  0  0  0  0  0  0  0  0  0
  -24.2036  -29.7875   24.0691 N   0  0  0  0  0  0  0  0  0  0  0  0
  -25.4587  -30.7417   19.0104 N   0  0  0  0  0  0  0  0  0  0  0  0
  -25.7648  -27.9639   16.4446 N   0  0  0  0  0  0  0  0  0  0  0  0
  -25.4278  -15.3830   20.7002 N   0  0  0  0  0  0  0  0  0  0  0  0
  -20.8673  -15.7950   24.8359 N   0  0  0  0  0  0  0  0  0  0  0  0
  -21.9866  -28.9912   23.8583 N   0  0  0  0  0  0  0  0  0  0  0  0
  -19.9719  -18.1283   27.4478 N   0  3  0  0  0  0  0  0  0  0  0  0
  -27.8428  -28.8663   16.7999 O   0  0  0  0  0  0  0  0  0  0  0  0
  -24.0557  -17.0666   19.8603 O   0  0  0  0  0  0  0  0  0  0  0  0
  -23.3921  -14.9803   23.7541 O   0  0  0  0  0  0  0  0  0  0  0  0
  -19.6663  -17.7720   24.6736 O   0  0  0  0  0  0  0  0  0  0  0  0
  -22.5239  -30.4963   25.5024 O   0  0  0  0  0  0  0  0  0  0  0  0
  -29.1200  -22.5096   18.9179 O   0  0  0  0  0  0  0  0  0  0  0  0
  -21.6226  -22.4233   20.1031 O   0  0  0  0  0  0  0  0  0  1  0  0
  -26.0376  -18.5686   16.6004 F   0  0  0  0  0  0  0  0  0  0  0  0
  -28.5906  -20.1507   20.2589 F   0  0  0  0  0  0  0  0  0  0  0  0
  1  2  1  0  0  0  0
  1  5  2  0  0  0  0
  2  6  2  0  0  0  0
  3  8  2  0  0  0  0
  3 17  1  0  0  0  0
  4  9  1  0  0  0  0
  4 17  2  0  0  0  0
  5 19  1  0  0  0  0
  6 21  1  0  0  0  0
  7 10  2  0  0  0  0
  7 20  1  0  0  0  0
  8 24  1  0  0  0  0
  9 24  2  0  0  0  0
 10 25  1  0  0  0  0
 11 12  2  0  0  0  0
 11 26  1  0  0  0  0
 12 27  1  0  0  0  0
 13 22  1  0  0  0  0
 13 25  2  0  0  0  0
 14 27  2  0  0  0  0
 14 28  1  0  0  0  0
 15 23  1  0  0  0  0
 15 66  2  0  0  0  0
 16 23  2  0  0  0  0
 16 67  1  0  0  0  0
 17 29  1  0  0  0  0
 18 29  1  0  0  0  0
 18 30  2  0  0  0  0
 18 32  1  0  0  0  0
 19 21  2  0  0  0  0
 19 37  1  0  0  0  0
 20 22  2  0  0  0  0
 20 38  1  0  0  0  0
 21 46  1  0  0  0  0
 22 39  1  0  0  0  0
 23 55  1  0  0  0  0
 24 83  1  0  0  0  0
 25 84  1  0  0  0  0
 26 28  2  0  0  0  0
 26 83  1  0  0  0  0
 27 85  1  0  0  0  0
 28 86  1  0  0  0  0
 29 68  2  0  0  0  0
 30 69  1  0  0  0  0
 30 72  1  0  0  0  0
 31 62  1  0  0  0  0
 31 66  1  0  0  0  0
 31 67  2  0  0  0  0
 32 73  1  0  0  0  0
 32 78  2  0  0  0  0
 33 47  1  0  0  0  0
 33 74  1  0  0  0  0
 33 79  2  0  0  0  0
 34 63  1  0  0  0  0
 34 70  1  0  0  0  0
 34 80  2  0  0  0  0
 35 64  1  0  0  0  0
 35 75  1  0  0  0  0
 35 81  2  0  0  0  0
 36 71  1  0  0  0  0
 36 76  1  0  0  0  0
 36 82  2  0  0  0  0
 37 40  1  0  0  0  0
 38 47  1  0  0  0  0
 39 70  1  0  0  0  0
 40 42  1  0  0  0  0
 41 43  1  0  0  0  0
 41 44  1  0  0  0  0
 42 46  1  0  0  0  0
 43 48  1  0  0  0  0
 44 71  1  0  0  0  0
 45 48  1  0  0  0  0
 45 71  1  0  0  0  0
 46 74  1  0  0  0  0
 47 70  1  0  0  0  0
 48 69  1  0  0  0  0
 49 56  1  0  0  0  0
 50 64  1  0  0  0  0
 51 65  1  0  0  0  0
 52 65  1  0  0  0  0
 53 65  1  0  0  0  0
 54 77  1  0  0  0  0
 55 76  1  0  0  0  0
 56 57  1  0  0  0  0
 57 59  1  0  0  0  0
 58 60  1  0  0  0  0
 58 61  1  0  0  0  0
 59 62  1  0  0  0  0
 60 62  1  0  0  0  0
 61 84  1  0  0  0  0
 63 65  1  0  0  0  0
 63 75  1  0  0  0  0
 64 77  1  0  0  0  0
 68 69  1  0  0  0  0
M  CHG  1  77   1
M  ISO  4  36 100  61 101  76 100  84 101
M  END
> <Batch ID>
0093

> <Smiles>
CCCCC(CC[101CH2:1][101O:1]c1ccc2c(c1)CN(C(=O)C(NC(=O)C(C)NC)C(C)(C)C)C(C(=O)NC1CCCc3ccccc31)C2)c1ncc(C[100NH:0][100C:0](=O)N2CCCC(n3nc(-c4ccc(Oc5ccc(F)cc5F)cc4)c(C(N)=O)c3N)C2)cn1

> <Shape>
0.201

> <Color>
0.069

> <Negative vol penalty>
0.000

$$$$

  -OEChem-04052319163D

 86 94  0     1  0  0  0  0  0999 V2000
  -34.4786  -24.6536   31.5079 C   0  0  0  0  0  0  0  0  0  0  0  0
  -33.3317  -24.1074   30.9407 C   0  0  0  0  0  0  0  0  0  0  0  0
  -23.0921   -9.8395   19.9803 C   0  0  0  0  0  0  0  0  0  0  0  0
  -23.8305   -9.9082   22.2796 C   0  0  0  0  0  0  0  0  0  0  0  0
  -35.1896  -25.6407   30.8267 C   0  0  0  0  0  0  0  0  0  0  0  0
  -32.8944  -24.5489   29.6924 C   0  0  0  0  0  0  0  0  0  0  0  0
  -30.1687  -21.1991   25.3502 C   0  0  0  0  0  0  0  0  0  0  0  0
  -22.3527   -8.6884   20.2521 C   0  0  0  0  0  0  0  0  0  0  0  0
  -23.0911   -8.7571   22.5515 C   0  0  0  0  0  0  0  0  0  0  0  0
  -28.8309  -21.0352   24.9935 C   0  0  0  0  0  0  0  0  0  0  0  0
  -19.3958   -7.9103   21.6956 C   0  0  0  0  0  0  0  0  0  0  0  0
  -18.0938   -7.8441   21.1997 C   0  0  0  0  0  0  0  0  0  0  0  0
  -29.0882  -22.7146   23.2809 C   0  0  0  0  0  0  0  0  0  0  0  0
  -18.6771   -5.8721   19.9316 C   0  0  0  0  0  0  0  0  0  0  0  0
  -28.2184  -18.8211   21.7326 C   0  0  0  0  0  0  0  0  0  0  0  0
  -23.8311  -10.4494   20.9940 C   0  0  0  0  0  0  0  0  0  0  0  0
  -24.1593  -12.9728   20.8142 C   0  0  0  0  0  0  0  0  0  0  0  0
  -34.7663  -26.0876   29.5650 C   0  0  0  0  0  0  0  0  0  0  0  0
  -30.9747  -22.1312   24.6811 C   0  0  0  0  0  0  0  0  0  0  0  0
  -33.5997  -25.5439   28.9942 C   0  0  0  0  0  0  0  0  0  0  0  0
  -30.4365  -22.8865   23.6294 C   0  0  0  0  0  0  0  0  0  0  0  0
  -29.0488  -18.4300   20.7057 C   0  0  0  0  0  0  0  0  0  0  0  0
  -28.2771  -18.4208   19.5177 C   0  0  0  0  0  0  0  0  0  0  0  0
  -22.3522   -8.1472   21.5377 C   0  0  0  0  0  0  0  0  0  0  0  0
  -28.2897  -21.7951   23.9606 C   0  0  0  0  0  0  0  0  0  0  0  0
  -20.3385   -6.9575   21.3095 C   0  0  0  0  0  0  0  0  0  0  0  0
  -17.7344   -6.8250   20.3177 C   0  0  0  0  0  0  0  0  0  0  0  0
  -19.9792   -5.9384   20.4275 C   0  0  0  0  0  0  0  0  0  0  0  0
  -24.5956  -11.6381   20.7137 C   0  0  0  0  0  0  0  0  0  0  0  0
  -26.9985  -18.8068   19.8547 C   0  0  0  0  0  0  0  0  0  0  0  0
  -25.2503  -13.7196   20.4424 C   0  0  0  0  0  0  0  0  0  0  0  0
  -22.8819  -13.4911   21.2084 C   0  0  0  0  0  0  0  0  0  0  0  0
  -32.5620  -24.7484   25.5383 C   0  0  0  0  0  0  0  0  0  0  0  0
  -33.6495  -24.6173   22.4851 C   0  0  0  0  0  0  0  0  0  0  0  0
  -33.1639  -23.5507   19.2799 C   0  0  0  0  0  0  0  0  0  0  0  0
  -30.7260  -14.7764   20.6556 C   0  0  0  0  0  0  0  0  0  0  0  0
  -35.5410  -27.1903   28.8880 C   0  0  0  0  0  0  0  0  0  0  0  0
  -32.4230  -22.2769   25.0602 C   0  0  0  0  0  0  0  0  0  0  0  0
  -31.2650  -23.8862   22.8661 C   0  0  0  0  0  0  0  0  0  0  0  0
  -35.2212  -27.3360   27.4024 C   0  0  0  0  0  0  0  0  0  0  0  0
  -29.6247  -12.3263   18.3187 C   0  0  0  0  0  0  0  0  0  0  0  0
  -33.7128  -27.3125   27.1763 C   0  0  0  0  0  0  0  0  0  0  0  0
  -28.1850  -12.0347   18.7456 C   0  0  0  0  0  0  0  0  0  0  0  0
  -30.5293  -12.5825   19.5221 C   0  0  0  0  0  0  0  0  0  0  0  0
  -28.6105  -13.3363   20.8725 C   0  0  0  0  0  0  0  0  0  0  0  0
  -33.1075  -25.9789   27.6309 C   0  0  1  0  0  0  0  0  0  0  0  0
  -33.0149  -23.6225   24.6523 C   0  0  1  0  0  0  0  0  0  0  0  0
  -27.6484  -13.1265   19.6907 C   0  0  2  0  0  0  0  0  0  0  0  0
  -25.7966  -18.9677   19.0094 C   0  0  0  0  0  0  0  0  0  0  0  0
  -30.8096  -19.9702   15.4546 C   0  0  0  0  0  0  0  0  0  0  0  0
  -34.2056  -23.6298   16.9982 C   0  0  0  0  0  0  0  0  0  0  0  0
  -32.7118  -27.5026   22.1597 C   0  0  0  0  0  0  0  0  0  0  0  0
  -32.8932  -27.2086   19.6800 C   0  0  0  0  0  0  0  0  0  0  0  0
  -34.9260  -27.0007   21.1109 C   0  0  0  0  0  0  0  0  0  0  0  0
  -33.4353  -20.6055   19.1745 C   0  0  0  0  0  0  0  0  0  0  0  0
  -30.4791  -18.0856   20.8322 C   0  0  0  0  0  0  0  0  0  0  0  0
  -28.7533  -18.0635   18.1654 C   0  0  0  0  0  0  0  0  0  0  0  0
  -30.0323  -18.8319   16.0961 C   0  0  0  0  0  0  0  0  0  0  0  0
  -29.5791  -19.1905   17.5114 C   0  0  0  0  0  0  0  0  0  0  0  0
  -25.4679  -20.9869   21.8689 C   0  0  0  0  0  0  0  0  0  0  0  0
  -25.7749  -19.4936   22.0009 C   0  0  0  0  0  0  0  0  0  0  0  0
  -30.7678  -16.9574   21.8390 C   0  0  0  0  0  0  0  0  0  0  0  0
  -26.6432  -21.8809   22.2466 C   0  0  0  0  0  0  0  0  0  1  0  0
  -33.1835  -25.1695   21.1596 C   0  0  1  0  0  0  0  0  0  0  0  0
  -34.0889  -22.8519   18.2998 C   0  0  2  0  0  0  0  0  0  0  0  0
  -33.4122  -26.7030   21.0430 C   0  0  0  0  0  0  0  0  0  0  0  0
  -25.8648  -11.5396   20.3096 N   0  0  0  0  0  0  0  0  0  0  0  0
  -26.9746  -19.0478   21.2036 N   0  0  0  0  0  0  0  0  0  0  0  0
  -26.2354  -12.8218   20.1527 N   0  0  0  0  0  0  0  0  0  0  0  0
  -32.6740  -23.9968   23.2783 N   0  0  0  0  0  0  0  0  0  0  0  0
  -29.9645  -13.6294   20.3770 N   0  0  0  0  0  0  0  0  0  0  0  0
  -25.4536  -15.0501   20.3381 N   0  0  0  0  0  0  0  0  0  0  0  0
  -21.8722  -12.5845   21.5590 N   0  0  0  0  0  0  0  0  0  0  0  0
  -33.3611  -24.9475   26.6479 N   0  0  0  0  0  0  0  0  0  0  0  0
  -33.8576  -24.3849   20.1308 N   0  0  0  0  0  0  0  0  0  0  0  0
  -30.1136  -15.7222   21.4686 N   0  0  0  0  0  0  0  0  0  0  0  0
  -33.5773  -21.4874   17.9875 N   0  3  0  0  0  0  0  0  0  0  0  0
  -22.6380  -14.7213   21.2329 O   0  0  0  0  0  0  0  0  0  0  0  0
  -31.5624  -25.3899   25.2368 O   0  0  0  0  0  0  0  0  0  0  0  0
  -34.8367  -24.7261   22.8017 O   0  0  0  0  0  0  0  0  0  0  0  0
  -31.9472  -23.3768   19.2873 O   0  0  0  0  0  0  0  0  0  0  0  0
  -31.8651  -14.9474   20.2082 O   0  0  0  0  0  0  0  0  0  0  0  0
  -21.6306   -7.0242   21.8033 O   0  0  0  0  0  0  0  0  0  0  0  0
  -26.9840  -21.6376   23.6108 O   0  0  0  0  0  0  0  0  0  1  0  0
  -16.4836   -6.7606   19.8428 F   0  0  0  0  0  0  0  0  0  0  0  0
  -20.8802   -5.0195   20.0538 F   0  0  0  0  0  0  0  0  0  0  0  0
  1  2  1  0  0  0  0
  1  5  2  0  0  0  0
  2  6  2  0  0  0  0
  3  8  2  0  0  0  0
  3 16  1  0  0  0  0
  4  9  1  0  0  0  0
  4 16  2  0  0  0  0
  5 18  1  0  0  0  0
  6 20  1  0  0  0  0
  7 10  2  0  0  0  0
  7 19  1  0  0  0  0
  8 24  1  0  0  0  0
  9 24  2  0  0  0  0
 10 25  1  0  0  0  0
 11 12  2  0  0  0  0
 11 26  1  0  0  0  0
 12 27  1  0  0  0  0
 13 21  1  0  0  0  0
 13 25  2  0  0  0  0
 14 27  2  0  0  0  0
 14 28  1  0  0  0  0
 15 22  2  0  0  0  0
 15 68  1  0  0  0  0
 16 29  1  0  0  0  0
 17 29  1  0  0  0  0
 17 31  2  0  0  0  0
 17 32  1  0  0  0  0
 18 20  2  0  0  0  0
 18 37  1  0  0  0  0
 19 21  2  0  0  0  0
 19 38  1  0  0  0  0
 20 46  1  0  0  0  0
 21 39  1  0  0  0  0
 22 23  1  0  0  0  0
 22 56  1  0  0  0  0
 23 30  2  0  0  0  0
 23 57  1  0  0  0  0
 24 83  1  0  0  0  0
 25 84  1  0  0  0  0
 26 28  2  0  0  0  0
 26 83  1  0  0  0  0
 27 85  1  0  0  0  0
 28 86  1  0  0  0  0
 29 67  2  0  0  0  0
 30 49  1  0  0  0  0
 30 68  1  0  0  0  0
 31 69  1  0  0  0  0
 31 72  1  0  0  0  0
 32 73  1  0  0  0  0
 32 78  2  0  0  0  0
 33 47  1  0  0  0  0
 33 74  1  0  0  0  0
 33 79  2  0  0  0  0
 34 64  1  0  0  0  0
 34 70  1  0  0  0  0
 34 80  2  0  0  0  0
 35 65  1  0  0  0  0
 35 75  1  0  0  0  0
 35 81  2  0  0  0  0
 36 71  1  0  0  0  0
 36 76  1  0  0  0  0
 36 82  2  0  0  0  0
 37 40  1  0  0  0  0
 38 47  1  0  0  0  0
 39 70  1  0  0  0  0
 40 42  1  0  0  0  0
 41 43  1  0  0  0  0
 41 44  1  0  0  0  0
 42 46  1  0  0  0  0
 43 48  1  0  0  0  0
 44 71  1  0  0  0  0
 45 48  1  0  0  0  0
 45 71  1  0  0  0  0
 46 74  1  0  0  0  0
 47 70  1  0  0  0  0
 48 69  1  0  0  0  0
 50 58  1  0  0  0  0
 51 65  1  0  0  0  0
 52 66  1  0  0  0  0
 53 66  1  0  0  0  0
 54 66  1  0  0  0  0
 55 77  1  0  0  0  0
 56 62  1  0  0  0  0
 57 59  1  0  0  0  0
 58 59  1  0  0  0  0
 60 61  1  0  0  0  0
 60 63  1  0  0  0  0
 61 68  1  0  0  0  0
 62 76  1  0  0  0  0
 63 84  1  0  0  0  0
 64 66  1  0  0  0  0
 64 75  1  0  0  0  0
 65 77  1  0  0  0  0
 67 69  1  0  0  0  0
M  CHG  1  77   1
M  ISO  4  36 100  63 101  76 100  84 101
M  END
> <Batch ID>
0093

> <Smiles>
CCCCc1c(CC[100NH:0][100C:0](=O)N2CCCC(n3nc(-c4ccc(Oc5ccc(F)cc5F)cc4)c(C(N)=O)c3N)C2)cn(CC[101CH2:1][101O:1]c2ccc3c(c2)CN(C(=O)C(NC(=O)C(C)NC)C(C)(C)C)C(C(=O)NC2CCCc4ccccc42)C3)c1C

> <Shape>
0.182

> <Color>
0.195

> <Negative vol penalty>
0.000

$$$$

  -OEChem-04052319163D

 89 97  0     1  0  0  0  0  0999 V2000
  -40.6318  -17.6835   13.8917 C   0  0  0  0  0  0  0  0  0  0  0  0
  -39.8895  -18.5564   14.6806 C   0  0  0  0  0  0  0  0  0  0  0  0
  -23.0749   -9.8681   19.9417 C   0  0  0  0  0  0  0  0  0  0  0  0
  -23.8384   -9.8747   22.2338 C   0  0  0  0  0  0  0  0  0  0  0  0
  -40.7045  -16.3323   14.2278 C   0  0  0  0  0  0  0  0  0  0  0  0
  -39.2186  -18.0784   15.8057 C   0  0  0  0  0  0  0  0  0  0  0  0
  -38.3235  -21.0377   21.0922 C   0  0  0  0  0  0  0  0  0  0  0  0
  -22.3324   -8.7142   20.1923 C   0  0  0  0  0  0  0  0  0  0  0  0
  -23.0959   -8.7208   22.4845 C   0  0  0  0  0  0  0  0  0  0  0  0
  -37.2353  -21.7484   21.5967 C   0  0  0  0  0  0  0  0  0  0  0  0
  -21.1155   -5.9814   23.8230 C   0  0  0  0  0  0  0  0  0  0  0  0
  -20.3612   -5.9366   24.9954 C   0  0  0  0  0  0  0  0  0  0  0  0
  -36.5083  -19.7794   22.7857 C   0  0  0  0  0  0  0  0  0  0  0  0
  -33.0179  -20.8943   20.9586 C   0  0  0  0  0  0  0  0  0  0  0  0
  -19.1137   -7.8731   24.2667 C   0  0  0  0  0  0  0  0  0  0  0  0
  -23.8279  -10.4483   20.9624 C   0  0  0  0  0  0  0  0  0  0  0  0
  -24.1673  -12.9739   20.8430 C   0  0  0  0  0  0  0  0  0  0  0  0
  -40.0420  -15.8393   15.3630 C   0  0  0  0  0  0  0  0  0  0  0  0
  -38.5065  -19.6872   21.4225 C   0  0  0  0  0  0  0  0  0  0  0  0
  -39.2814  -16.7191   16.1566 C   0  0  0  0  0  0  0  0  0  0  0  0
  -37.6010  -19.0545   22.2861 C   0  0  0  0  0  0  0  0  0  0  0  0
  -32.5124  -21.6966   21.9816 C   0  0  0  0  0  0  0  0  0  0  0  0
  -32.3682  -19.7082   20.6169 C   0  0  0  0  0  0  0  0  0  0  0  0
  -31.3574  -21.3127   22.6629 C   0  0  0  0  0  0  0  0  0  0  0  0
  -31.2132  -19.3243   21.2982 C   0  0  0  0  0  0  0  0  0  0  0  0
  -30.7078  -20.1265   22.3212 C   0  0  0  0  0  0  0  0  0  0  0  0
  -22.3429   -8.1405   21.4637 C   0  0  0  0  0  0  0  0  0  0  0  0
  -36.3259  -21.1185   22.4413 C   0  0  0  0  0  0  0  0  0  0  0  0
  -20.8691   -6.9720   22.8725 C   0  0  0  0  0  0  0  0  0  0  0  0
  -19.3603   -6.8824   25.2173 C   0  0  0  0  0  0  0  0  0  0  0  0
  -19.8682   -7.9179   23.0943 C   0  0  0  0  0  0  0  0  0  0  0  0
  -24.5955  -11.6400   20.7040 C   0  0  0  0  0  0  0  0  0  0  0  0
  -25.2582  -13.7245   20.4783 C   0  0  0  0  0  0  0  0  0  0  0  0
  -22.8971  -13.4884   21.2642 C   0  0  0  0  0  0  0  0  0  0  0  0
  -38.5949  -16.9680   19.7787 C   0  0  0  0  0  0  0  0  0  0  0  0
  -39.4228  -15.7116   22.6524 C   0  0  0  0  0  0  0  0  0  0  0  0
  -39.3629  -15.9735   26.0545 C   0  0  0  0  0  0  0  0  0  0  0  0
  -30.7414  -14.7483   20.6584 C   0  0  0  0  0  0  0  0  0  0  0  0
  -40.1112  -14.3621   15.6595 C   0  0  0  0  0  0  0  0  0  0  0  0
  -39.7002  -18.9419   20.8913 C   0  0  0  0  0  0  0  0  0  0  0  0
  -37.7637  -17.6120   22.6874 C   0  0  0  0  0  0  0  0  0  0  0  0
  -39.6776  -14.0048   17.0789 C   0  0  0  0  0  0  0  0  0  0  0  0
  -29.6021  -12.3638   18.2723 C   0  0  0  0  0  0  0  0  0  0  0  0
  -38.3791  -14.7208   17.4366 C   0  0  0  0  0  0  0  0  0  0  0  0
  -28.1656  -12.0686   18.7074 C   0  0  0  0  0  0  0  0  0  0  0  0
  -30.5209  -12.5849   19.4719 C   0  0  0  0  0  0  0  0  0  0  0  0
  -28.6208  -13.3137   20.8618 C   0  0  0  0  0  0  0  0  0  0  0  0
  -38.5599  -16.2431   17.3988 C   0  0  1  0  0  0  0  0  0  0  0  0
  -39.5044  -17.4290   20.8823 C   0  0  1  0  0  0  0  0  0  0  0  0
  -27.6449  -13.1388   19.6857 C   0  0  2  0  0  0  0  0  0  0  0  0
  -30.5008  -23.5871   23.2791 C   0  0  0  0  0  0  0  0  0  0  0  0
  -34.3427  -18.3482   19.8388 C   0  0  0  0  0  0  0  0  0  0  0  0
  -32.9361  -19.6009   18.1633 C   0  0  0  0  0  0  0  0  0  0  0  0
  -28.3219  -20.7252   22.8716 C   0  0  0  0  0  0  0  0  0  0  0  0
  -29.7263  -19.4724   24.5490 C   0  0  0  0  0  0  0  0  0  0  0  0
  -40.0890  -14.7740   28.1357 C   0  0  0  0  0  0  0  0  0  0  0  0
  -37.1358  -13.7226   22.3010 C   0  0  0  0  0  0  0  0  0  0  0  0
  -37.2996  -13.2088   24.7459 C   0  0  0  0  0  0  0  0  0  0  0  0
  -39.2351  -12.7427   23.2428 C   0  0  0  0  0  0  0  0  0  0  0  0
  -41.0826  -18.2308   26.8950 C   0  0  0  0  0  0  0  0  0  0  0  0
  -33.2349  -22.9747   22.3318 C   0  0  0  0  0  0  0  0  0  0  0  0
  -30.8173  -22.1751   23.7596 C   0  0  0  0  0  0  0  0  0  0  0  0
  -30.5190  -18.0513   20.9301 C   0  0  0  0  0  0  0  0  0  0  0  0
  -30.8073  -16.8983   21.8961 C   0  0  0  0  0  0  0  0  0  0  0  0
  -34.7417  -22.8641   22.1263 C   0  0  0  0  0  0  0  0  0  1  0  0
  -32.9296  -18.8677   19.5170 C   0  0  0  0  0  0  0  0  0  0  0  0
  -29.4684  -19.7151   23.0517 C   0  0  0  0  0  0  0  0  0  0  0  0
  -38.6666  -15.1363   23.8255 C   0  0  1  0  0  0  0  0  0  0  0  0
  -40.4568  -15.8211   27.0960 C   0  0  2  0  0  0  0  0  0  0  0  0
  -38.0798  -13.7292   23.5199 C   0  0  0  0  0  0  0  0  0  0  0  0
  -25.8598  -11.5455   20.2836 N   0  0  0  0  0  0  0  0  0  0  0  0
  -26.2354  -12.8295   20.1553 N   0  0  0  0  0  0  0  0  0  0  0  0
  -38.9433  -16.9241   22.1370 N   0  0  0  0  0  0  0  0  0  0  0  0
  -29.9709  -13.6125   20.3592 N   0  0  0  0  0  0  0  0  0  0  0  0
  -25.4674  -15.0561   20.4055 N   0  0  0  0  0  0  0  0  0  0  0  0
  -21.8865  -12.5781   21.6026 N   0  0  0  0  0  0  0  0  0  0  0  0
  -39.2446  -16.7004   18.5889 N   0  0  0  0  0  0  0  0  0  0  0  0
  -39.5854  -15.1673   24.9583 N   0  0  0  0  0  0  0  0  0  0  0  0
  -30.1428  -15.6762   21.5018 N   0  0  0  0  0  0  0  0  0  0  0  0
  -40.6903  -17.1162   27.7954 N   0  3  0  0  0  0  0  0  0  0  0  0
  -22.6598  -14.7187   21.3224 O   0  0  0  0  0  0  0  0  0  0  0  0
  -37.3927  -16.8615   19.9914 O   0  0  0  0  0  0  0  0  0  0  0  0
  -40.4071  -15.1110   22.2141 O   0  0  0  0  0  0  0  0  0  0  0  0
  -38.4047  -16.7293   26.2007 O   0  0  0  0  0  0  0  0  0  0  0  0
  -31.8765  -14.9249   20.2030 O   0  0  0  0  0  0  0  0  0  0  0  0
  -21.6183   -7.0147   21.7087 O   0  0  0  0  0  0  0  0  0  0  0  0
  -35.2626  -21.8097   22.9346 O   0  0  0  0  0  0  0  0  0  1  0  0
  -18.6349   -6.8383   26.3425 F   0  0  0  0  0  0  0  0  0  0  0  0
  -19.6260   -8.8713   22.1843 F   0  0  0  0  0  0  0  0  0  0  0  0
  1  2  1  0  0  0  0
  1  5  2  0  0  0  0
  2  6  2  0  0  0  0
  3  8  2  0  0  0  0
  3 16  1  0  0  0  0
  4  9  1  0  0  0  0
  4 16  2  0  0  0  0
  5 18  1  0  0  0  0
  6 20  1  0  0  0  0
  7 10  2  0  0  0  0
  7 19  1  0  0  0  0
  8 27  1  0  0  0  0
  9 27  2  0  0  0  0
 10 28  1  0  0  0  0
 11 12  2  0  0  0  0
 11 29  1  0  0  0  0
 12 30  1  0  0  0  0
 13 21  1  0  0  0  0
 13 28  2  0  0  0  0
 14 22  2  0  0  0  0
 14 23  1  0  0  0  0
 15 30  2  0  0  0  0
 15 31  1  0  0  0  0
 16 32  1  0  0  0  0
 17 32  1  0  0  0  0
 17 33  2  0  0  0  0
 17 34  1  0  0  0  0
 18 20  2  0  0  0  0
 18 39  1  0  0  0  0
 19 21  2  0  0  0  0
 19 40  1  0  0  0  0
 20 48  1  0  0  0  0
 21 41  1  0  0  0  0
 22 24  1  0  0  0  0
 22 61  1  0  0  0  0
 23 25  2  0  0  0  0
 23 66  1  0  0  0  0
 24 26  2  0  0  0  0
 24 62  1  0  0  0  0
 25 26  1  0  0  0  0
 25 63  1  0  0  0  0
 26 67  1  0  0  0  0
 27 86  1  0  0  0  0
 28 87  1  0  0  0  0
 29 31  2  0  0  0  0
 29 86  1  0  0  0  0
 30 88  1  0  0  0  0
 31 89  1  0  0  0  0
 32 71  2  0  0  0  0
 33 72  1  0  0  0  0
 33 75  1  0  0  0  0
 34 76  1  0  0  0  0
 34 81  2  0  0  0  0
 35 49  1  0  0  0  0
 35 77  1  0  0  0  0
 35 82  2  0  0  0  0
 36 68  1  0  0  0  0
 36 73  1  0  0  0  0
 36 83  2  0  0  0  0
 37 69  1  0  0  0  0
 37 78  1  0  0  0  0
 37 84  2  0  0  0  0
 38 74  1  0  0  0  0
 38 79  1  0  0  0  0
 38 85  2  0  0  0  0
 39 42  1  0  0  0  0
 40 49  1  0  0  0  0
 41 73  1  0  0  0  0
 42 44  1  0  0  0  0
 43 45  1  0  0  0  0
 43 46  1  0  0  0  0
 44 48  1  0  0  0  0
 45 50  1  0  0  0  0
 46 74  1  0  0  0  0
 47 50  1  0  0  0  0
 47 74  1  0  0  0  0
 48 77  1  0  0  0  0
 49 73  1  0  0  0  0
 50 72  1  0  0  0  0
 51 62  1  0  0  0  0
 52 66  1  0  0  0  0
 53 66  1  0  0  0  0
 54 67  1  0  0  0  0
 55 67  1  0  0  0  0
 56 69  1  0  0  0  0
 57 70  1  0  0  0  0
 58 70  1  0  0  0  0
 59 70  1  0  0  0  0
 60 80  1  0  0  0  0
 61 65  1  0  0  0  0
 63 64  1  0  0  0  0
 64 79  1  0  0  0  0
 65 87  1  0  0  0  0
 68 70  1  0  0  0  0
 68 78  1  0  0  0  0
 69 80  1  0  0  0  0
 71 72  1  0  0  0  0
M  CHG  1  80   1
M  ISO  4  38 100  65 101  79 100  87 101
M  END
> <Batch ID>
0093

> <Smiles>
CCc1c(C[101CH2:1][101O:1]c2ccc3c(c2)CN(C(=O)C(NC(=O)C(C)NC)C(C)(C)C)C(C(=O)NC2CCCc4ccccc42)C3)cc(C(C)C)c(CC[100NH:0][100C:0](=O)N2CCCC(n3nc(-c4ccc(Oc5ccc(F)cc5F)cc4)c(C(N)=O)c3N)C2)c1C(C)C

> <Shape>
0.162

> <Color>
0.187

> <Negative vol penalty>
0.000

$$$$

  -OEChem-04052319163D

 89 97  0     1  0  0  0  0  0999 V2000
  -34.1925  -28.9048   24.5812 C   0  0  0  0  0  0  0  0  0  0  0  0
  -32.9428  -29.0421   23.9855 C   0  0  0  0  0  0  0  0  0  0  0  0
  -23.1352  -13.8059   20.5590 C   0  0  0  0  0  0  0  0  0  0  0  0
  -24.9061  -15.0101   21.6775 C   0  0  0  0  0  0  0  0  0  0  0  0
  -35.1308  -28.0292   24.0363 C   0  0  0  0  0  0  0  0  0  0  0  0
  -32.6311  -28.3047   22.8438 C   0  0  0  0  0  0  0  0  0  0  0  0
  -28.0126  -26.2395   23.0658 C   0  0  0  0  0  0  0  0  0  0  0  0
  -24.0066  -12.7423   20.3246 C   0  0  0  0  0  0  0  0  0  0  0  0
  -25.7774  -13.9464   21.4432 C   0  0  0  0  0  0  0  0  0  0  0  0
  -26.9276  -27.0774   22.8121 C   0  0  0  0  0  0  0  0  0  0  0  0
  -27.6096  -12.7481   18.8667 C   0  0  0  0  0  0  0  0  0  0  0  0
  -28.8892  -13.0493   18.4004 C   0  0  0  0  0  0  0  0  0  0  0  0
  -26.7991  -26.2193   20.5612 C   0  0  0  0  0  0  0  0  0  0  0  0
  -18.8571  -28.6938   22.5408 C   0  0  0  0  0  0  0  0  0  0  0  0
  -29.8481  -12.0014   20.3548 C   0  0  0  0  0  0  0  0  0  0  0  0
  -23.5850  -14.9399   21.2355 C   0  0  0  0  0  0  0  0  0  0  0  0
  -21.8522  -16.2253   22.5967 C   0  0  0  0  0  0  0  0  0  0  0  0
  -34.8269  -27.2735   22.8930 C   0  0  0  0  0  0  0  0  0  0  0  0
  -28.5067  -25.3917   22.0641 C   0  0  0  0  0  0  0  0  0  0  0  0
  -33.5667  -27.4192   22.2823 C   0  0  0  0  0  0  0  0  0  0  0  0
  -27.8889  -25.3698   20.8056 C   0  0  0  0  0  0  0  0  0  0  0  0
  -18.1933  -27.7292   23.3382 C   0  0  0  0  0  0  0  0  0  0  0  0
  -25.3277  -12.8125   20.7667 C   0  0  0  0  0  0  0  0  0  0  0  0
  -26.3225  -27.0695   21.5587 C   0  0  0  0  0  0  0  0  0  0  0  0
  -27.4492  -12.0736   20.0771 C   0  0  0  0  0  0  0  0  0  0  0  0
  -30.0085  -12.6759   19.1444 C   0  0  0  0  0  0  0  0  0  0  0  0
  -28.5684  -11.7002   20.8211 C   0  0  0  0  0  0  0  0  0  0  0  0
  -22.6855  -16.0392   21.4774 C   0  0  0  0  0  0  0  0  0  0  0  0
  -19.8698  -28.0456   21.8689 C   0  0  0  0  0  0  0  0  0  0  0  0
  -18.8206  -26.5208   23.1293 C   0  0  0  0  0  0  0  0  0  0  0  0
  -21.2039  -17.4105   22.3489 C   0  0  0  0  0  0  0  0  0  0  0  0
  -21.6797  -15.4005   23.7568 C   0  0  0  0  0  0  0  0  0  0  0  0
  -31.2777  -25.1053   20.5333 C   0  0  0  0  0  0  0  0  0  0  0  0
  -29.8609  -22.4764   19.2667 C   0  0  0  0  0  0  0  0  0  0  0  0
  -26.9731  -20.8432   18.4670 C   0  0  0  0  0  0  0  0  0  0  0  0
  -21.1026  -22.5632   20.7995 C   0  0  0  0  0  0  0  0  0  0  0  0
  -35.8905  -26.3752   22.3129 C   0  0  0  0  0  0  0  0  0  0  0  0
  -29.6610  -24.4745   22.3621 C   0  0  0  0  0  0  0  0  0  0  0  0
  -28.3684  -24.4634   19.7024 C   0  0  0  0  0  0  0  0  0  0  0  0
  -35.3475  -25.3513   21.3194 C   0  0  0  0  0  0  0  0  0  0  0  0
  -20.9401  -20.2200   18.1622 C   0  0  0  0  0  0  0  0  0  0  0  0
  -34.3936  -26.0180   20.3333 C   0  0  0  0  0  0  0  0  0  0  0  0
  -21.3231  -18.9276   18.8817 C   0  0  0  0  0  0  0  0  0  0  0  0
  -21.7725  -21.4116   18.6392 C   0  0  0  0  0  0  0  0  0  0  0  0
  -22.1361  -20.3129   20.8263 C   0  0  0  0  0  0  0  0  0  0  0  0
  -33.1823  -26.6181   21.0573 C   0  0  1  0  0  0  0  0  0  0  0  0
  -30.4061  -24.0252   21.1089 C   0  0  1  0  0  0  0  0  0  0  0  0
  -21.2734  -19.1122   20.4083 C   0  0  2  0  0  0  0  0  0  0  0  0
  -18.5382  -25.1887   23.7054 C   0  0  0  0  0  0  0  0  0  0  0  0
  -15.7897  -28.4776   23.4661 C   0  0  0  0  0  0  0  0  0  0  0  0
  -17.3657  -28.9676   25.3717 C   0  0  0  0  0  0  0  0  0  0  0  0
  -25.4978  -18.9737   17.6758 C   0  0  0  0  0  0  0  0  0  0  0  0
  -25.3928  -30.7520   20.1040 C   0  0  0  0  0  0  0  0  0  0  0  0
  -30.5402  -23.5925   16.5094 C   0  0  0  0  0  0  0  0  0  0  0  0
  -28.8913  -21.9839   15.5288 C   0  0  0  0  0  0  0  0  0  0  0  0
  -30.8896  -21.1281   16.7524 C   0  0  0  0  0  0  0  0  0  0  0  0
  -22.0549  -24.3041   19.2288 C   0  0  0  0  0  0  0  0  0  0  0  0
  -26.8249  -19.6588   21.1752 C   0  0  0  0  0  0  0  0  0  0  0  0
  -20.8818  -28.5874   20.8909 C   0  0  0  0  0  0  0  0  0  0  0  0
  -22.1752  -29.0822   21.5508 C   0  0  0  0  0  0  0  0  0  0  0  0
  -23.1950  -29.6169   20.5372 C   0  0  0  0  0  0  0  0  0  0  0  0
  -20.7421  -25.7033   21.7494 C   0  0  0  0  0  0  0  0  0  0  0  0
  -20.1206  -24.8209   20.6700 C   0  0  0  0  0  0  0  0  0  0  0  0
  -25.2135  -29.1219   22.0212 C   0  0  0  0  0  0  0  0  0  1  0  0
  -17.0411  -27.9808   24.2265 C   0  0  0  0  0  0  0  0  0  0  0  0
  -29.0064  -22.2027   18.0527 C   0  0  1  0  0  0  0  0  0  0  0  0
  -26.5249  -19.4129   18.7077 C   0  0  2  0  0  0  0  0  0  0  0  0
  -24.4735  -30.1776   21.1899 C   0  0  1  0  0  0  0  0  0  0  0  0
  -29.8238  -22.2454   16.7308 C   0  0  0  0  0  0  0  0  0  0  0  0
  -22.5782  -17.0270   20.5848 N   0  0  0  0  0  0  0  0  0  0  0  0
  -19.8384  -26.7252   22.2346 N   0  0  0  0  0  0  0  0  0  0  0  0
  -21.6699  -17.8452   21.1430 N   0  0  0  0  0  0  0  0  0  0  0  0
  -29.5041  -23.5898   20.0407 N   0  0  0  0  0  0  0  0  0  0  0  0
  -21.7362  -21.5230   20.1038 N   0  0  0  0  0  0  0  0  0  0  0  0
  -20.2864  -18.1128   23.0470 N   0  0  0  0  0  0  0  0  0  0  0  0
  -22.4239  -14.2167   23.8515 N   0  0  0  0  0  0  0  0  0  0  0  0
  -32.2372  -25.5795   21.4073 N   0  0  0  0  0  0  0  0  0  0  0  0
  -28.3393  -20.9294   18.3018 N   0  0  0  0  0  0  0  0  0  0  0  0
  -21.0504  -23.8169   20.1721 N   0  0  0  0  0  0  0  0  0  0  0  0
  -25.9165  -19.2817   20.0618 N   0  3  0  0  0  0  0  0  0  0  0  0
  -20.8769  -15.6961   24.6742 O   0  0  0  0  0  0  0  0  0  0  0  0
  -31.0943  -25.4797   19.3809 O   0  0  0  0  0  0  0  0  0  0  0  0
  -30.8056  -21.7258   19.5230 O   0  0  0  0  0  0  0  0  0  0  0  0
  -26.1891  -21.7888   18.4256 O   0  0  0  0  0  0  0  0  0  0  0  0
  -20.6165  -22.3849   21.9238 O   0  0  0  0  0  0  0  0  0  0  0  0
  -26.1781  -11.7747   20.5383 O   0  0  0  0  0  0  0  0  0  0  0  0
  -25.2637  -27.8868   21.3082 O   0  0  0  0  0  0  0  0  0  1  0  0
  -31.2373  -12.9639   18.6958 F   0  0  0  0  0  0  0  0  0  0  0  0
  -28.4206  -11.0510   21.9841 F   0  0  0  0  0  0  0  0  0  0  0  0
  1  2  1  0  0  0  0
  1  5  2  0  0  0  0
  2  6  2  0  0  0  0
  3  8  2  0  0  0  0
  3 16  1  0  0  0  0
  4  9  1  0  0  0  0
  4 16  2  0  0  0  0
  5 18  1  0  0  0  0
  6 20  1  0  0  0  0
  7 10  2  0  0  0  0
  7 19  1  0  0  0  0
  8 23  1  0  0  0  0
  9 23  2  0  0  0  0
 10 24  1  0  0  0  0
 11 12  2  0  0  0  0
 11 25  1  0  0  0  0
 12 26  1  0  0  0  0
 13 21  1  0  0  0  0
 13 24  2  0  0  0  0
 14 22  1  0  0  0  0
 14 29  2  0  0  0  0
 15 26  2  0  0  0  0
 15 27  1  0  0  0  0
 16 28  1  0  0  0  0
 17 28  1  0  0  0  0
 17 31  2  0  0  0  0
 17 32  1  0  0  0  0
 18 20  2  0  0  0  0
 18 37  1  0  0  0  0
 19 21  2  0  0  0  0
 19 38  1  0  0  0  0
 20 46  1  0  0  0  0
 21 39  1  0  0  0  0
 22 30  2  0  0  0  0
 22 65  1  0  0  0  0
 23 86  1  0  0  0  0
 24 87  1  0  0  0  0
 25 27  2  0  0  0  0
 25 86  1  0  0  0  0
 26 88  1  0  0  0  0
 27 89  1  0  0  0  0
 28 70  2  0  0  0  0
 29 59  1  0  0  0  0
 29 71  1  0  0  0  0
 30 49  1  0  0  0  0
 30 71  1  0  0  0  0
 31 72  1  0  0  0  0
 31 75  1  0  0  0  0
 32 76  1  0  0  0  0
 32 81  2  0  0  0  0
 33 47  1  0  0  0  0
 33 77  1  0  0  0  0
 33 82  2  0  0  0  0
 34 66  1  0  0  0  0
 34 73  1  0  0  0  0
 34 83  2  0  0  0  0
 35 67  1  0  0  0  0
 35 78  1  0  0  0  0
 35 84  2  0  0  0  0
 36 74  1  0  0  0  0
 36 79  1  0  0  0  0
 36 85  2  0  0  0  0
 37 40  1  0  0  0  0
 38 47  1  0  0  0  0
 39 73  1  0  0  0  0
 40 42  1  0  0  0  0
 41 43  1  0  0  0  0
 41 44  1  0  0  0  0
 42 46  1  0  0  0  0
 43 48  1  0  0  0  0
 44 74  1  0  0  0  0
 45 48  1  0  0  0  0
 45 74  1  0  0  0  0
 46 77  1  0  0  0  0
 47 73  1  0  0  0  0
 48 72  1  0  0  0  0
 50 65  1  0  0  0  0
 51 65  1  0  0  0  0
 52 67  1  0  0  0  0
 53 68  1  0  0  0  0
 54 69  1  0  0  0  0
 55 69  1  0  0  0  0
 56 69  1  0  0  0  0
 57 79  1  0  0  0  0
 58 80  1  0  0  0  0
 59 60  1  0  0  0  0
 60 61  1  0  0  0  0
 61 68  1  0  0  0  0
 62 63  1  0  0  0  0
 62 71  1  0  0  0  0
 63 79  1  0  0  0  0
 64 68  1  0  0  0  0
 64 87  1  0  0  0  0
 66 69  1  0  0  0  0
 66 78  1  0  0  0  0
 67 80  1  0  0  0  0
 70 72  1  0  0  0  0
M  CHG  1  80   1
M  ISO  4  36 100  64 101  79 100  87 101
M  END
> <Batch ID>
0093

> <Smiles>
CNC(C)C(=O)NC(C(=O)N1Cc2cc([101O:1][101CH2:1]C(C)CCCc3cc(C(C)C)c(C)n3CC[100N:0](C)[100C:0](=O)N3CCCC(n4nc(-c5ccc(Oc6ccc(F)cc6F)cc5)c(C(N)=O)c4N)C3)ccc2CC1C(=O)NC1CCCc2ccccc21)C(C)(C)C

> <Shape>
0.206

> <Color>
0.070

> <Negative vol penalty>
0.000

$$$$

  -OEChem-04052319163D

 86 94  0     1  0  0  0  0  0999 V2000
  -29.9334  -22.4715   14.5439 C   0  0  0  0  0  0  0  0  0  0  0  0
  -29.4391  -22.2158   15.8190 C   0  0  0  0  0  0  0  0  0  0  0  0
  -22.2619  -19.4571   18.5161 C   0  0  0  0  0  0  0  0  0  0  0  0
  -22.4020  -18.0128   16.5844 C   0  0  0  0  0  0  0  0  0  0  0  0
  -30.3648  -23.7544   14.2091 C   0  0  0  0  0  0  0  0  0  0  0  0
  -29.3770  -23.2427   16.7603 C   0  0  0  0  0  0  0  0  0  0  0  0
  -24.9792  -23.3139   19.2701 C   0  0  0  0  0  0  0  0  0  0  0  0
  -21.2739  -20.2099   17.8815 C   0  0  0  0  0  0  0  0  0  0  0  0
  -21.4139  -18.7656   15.9498 C   0  0  0  0  0  0  0  0  0  0  0  0
  -24.8131  -22.3784   20.2904 C   0  0  0  0  0  0  0  0  0  0  0  0
  -18.4585  -22.2960   16.9134 C   0  0  0  0  0  0  0  0  0  0  0  0
  -17.3349  -22.6517   17.6594 C   0  0  0  0  0  0  0  0  0  0  0  0
  -25.3478  -24.0723   21.9225 C   0  0  0  0  0  0  0  0  0  0  0  0
  -16.8330  -20.3157   18.0175 C   0  0  0  0  0  0  0  0  0  0  0  0
  -28.4779  -19.3772   22.0778 C   0  0  0  0  0  0  0  0  0  0  0  0
  -28.5868  -21.5779   22.4781 C   0  0  0  0  0  0  0  0  0  0  0  0
  -22.8260  -18.3585   17.8675 C   0  0  0  0  0  0  0  0  0  0  0  0
  -29.3527  -19.9190   21.1621 C   0  0  0  0  0  0  0  0  0  0  0  0
  -23.6604  -16.4567   19.3489 C   0  0  0  0  0  0  0  0  0  0  0  0
  -30.2989  -24.7997   15.1437 C   0  0  0  0  0  0  0  0  0  0  0  0
  -25.3421  -24.6353   19.5682 C   0  0  0  0  0  0  0  0  0  0  0  0
  -29.8092  -24.5404   16.4381 C   0  0  0  0  0  0  0  0  0  0  0  0
  -25.5153  -25.0234   20.9044 C   0  0  0  0  0  0  0  0  0  0  0  0
  -29.4215  -21.3114   21.4153 C   0  0  0  0  0  0  0  0  0  0  0  0
  -20.8499  -19.8642   16.5984 C   0  0  0  0  0  0  0  0  0  0  0  0
  -25.0002  -22.7568   21.6166 C   0  0  0  0  0  0  0  0  0  0  0  0
  -18.7693  -20.9500   16.7193 C   0  0  0  0  0  0  0  0  0  0  0  0
  -16.5222  -21.6617   18.2115 C   0  0  0  0  0  0  0  0  0  0  0  0
  -17.9566  -19.9599   17.2714 C   0  0  0  0  0  0  0  0  0  0  0  0
  -23.8470  -17.5808   18.5222 C   0  0  0  0  0  0  0  0  0  0  0  0
  -24.9308  -16.0864   19.7169 C   0  0  0  0  0  0  0  0  0  0  0  0
  -30.0570  -19.1443   20.1322 C   0  0  0  0  0  0  0  0  0  0  0  0
  -22.4471  -15.8055   19.7484 C   0  0  0  0  0  0  0  0  0  0  0  0
  -27.8278  -26.4901   18.8724 C   0  0  0  0  0  0  0  0  0  0  0  0
  -26.0401  -28.7686   20.3335 C   0  0  0  0  0  0  0  0  0  0  0  0
  -23.5586  -29.5242   22.5511 C   0  0  0  0  0  0  0  0  0  0  0  0
  -30.8209  -26.1590   14.7506 C   0  0  0  0  0  0  0  0  0  0  0  0
  -25.4912  -25.6390   18.4580 C   0  0  0  0  0  0  0  0  0  0  0  0
  -25.8854  -26.4345   21.2787 C   0  0  0  0  0  0  0  0  0  0  0  0
  -30.3727  -27.2779   15.6873 C   0  0  0  0  0  0  0  0  0  0  0  0
  -29.4661  -16.2065   18.1927 C   0  0  0  0  0  0  0  0  0  0  0  0
  -30.5579  -26.8617   17.1431 C   0  0  0  0  0  0  0  0  0  0  0  0
  -27.9402  -16.1293   18.1170 C   0  0  0  0  0  0  0  0  0  0  0  0
  -29.9594  -17.6509   18.1649 C   0  0  0  0  0  0  0  0  0  0  0  0
  -27.8242  -18.4502   19.1173 C   0  0  0  0  0  0  0  0  0  0  0  0
  -29.7029  -25.6338   17.4789 C   0  0  1  0  0  0  0  0  0  0  0  0
  -26.3644  -26.8295   18.8421 C   0  0  1  0  0  0  0  0  0  0  0  0
  -27.2829  -17.0131   19.1937 C   0  0  1  0  0  0  0  0  0  0  0  0
  -33.6416  -26.0626   20.9635 C   0  0  0  0  0  0  0  0  0  0  0  0
  -28.8866  -19.9174   25.7548 C   0  0  0  0  0  0  0  0  0  0  0  0
  -22.3473  -31.4755   23.5624 C   0  0  0  0  0  0  0  0  0  0  0  0
  -25.4814  -18.2317   23.3871 C   0  0  0  0  0  0  0  0  0  0  0  0
  -28.4468  -29.3325   22.1223 C   0  0  0  0  0  0  0  0  0  0  0  0
  -26.9160  -30.5613   23.6762 C   0  0  0  0  0  0  0  0  0  0  0  0
  -27.2296  -31.3714   21.3379 C   0  0  0  0  0  0  0  0  0  0  0  0
  -20.9592  -28.6257   21.4581 C   0  0  0  0  0  0  0  0  0  0  0  0
  -30.2331  -22.3036   20.6826 C   0  0  0  0  0  0  0  0  0  0  0  0
  -32.8935  -24.9775   21.7215 C   0  0  0  0  0  0  0  0  0  0  0  0
  -27.5762  -19.3806   25.1879 C   0  0  0  0  0  0  0  0  0  0  0  0
  -31.1933  -23.1152   21.5729 C   0  0  0  0  0  0  0  0  0  0  0  0
  -31.9728  -24.1811   20.7961 C   0  0  0  0  0  0  0  0  0  0  0  0
  -25.1312  -20.4836   22.3034 C   0  0  0  0  0  0  0  0  0  1  0  0
  -25.8926  -29.2658   21.7513 C   0  0  1  0  0  0  0  0  0  0  0  0
  -22.3574  -30.4461   22.4430 C   0  0  2  0  0  0  0  0  0  0  0  0
  -25.6123  -19.7501   23.5671 C   0  0  2  0  0  0  0  0  0  0  0  0
  -27.0268  -20.2355   24.0185 C   0  0  2  0  0  0  0  0  0  0  0  0
  -27.1162  -30.1056   22.2151 C   0  0  0  0  0  0  0  0  0  0  0  0
  -25.1346  -17.9035   18.3737 N   0  0  0  0  0  0  0  0  0  0  0  0
  -28.0184  -20.3948   22.8726 N   0  0  0  0  0  0  0  0  0  0  0  0
  -25.7685  -16.9767   19.1121 N   0  0  0  0  0  0  0  0  0  0  0  0
  -29.2919  -18.4455   19.1953 N   0  0  0  0  0  0  0  0  0  0  0  0
  -26.0260  -27.3778   20.1571 N   0  0  0  0  0  0  0  0  0  0  0  0
  -25.4018  -15.0893   20.4956 N   0  0  0  0  0  0  0  0  0  0  0  0
  -21.2291  -16.3160   19.2792 N   0  0  0  0  0  0  0  0  0  0  0  0
  -28.3208  -26.0177   17.6710 N   0  0  0  0  0  0  0  0  0  0  0  0
  -24.6225  -29.9817   21.8028 N   0  0  0  0  0  0  0  0  0  0  0  0
  -21.0932  -29.6603   22.5158 N   0  3  0  0  0  0  0  0  0  0  0  0
  -31.2859  -19.1624   20.1840 O   0  0  0  0  0  0  0  0  0  0  0  0
  -22.4423  -14.8106   20.5123 O   0  0  0  0  0  0  0  0  0  0  0  0
  -28.4631  -26.6468   19.9086 O   0  0  0  0  0  0  0  0  0  0  0  0
  -26.1562  -29.5844   19.4156 O   0  0  0  0  0  0  0  0  0  0  0  0
  -23.5548  -28.5025   23.2343 O   0  0  0  0  0  0  0  0  0  0  0  0
  -19.8856  -20.5984   15.9791 O   0  0  0  0  0  0  0  0  0  0  0  0
  -24.8394  -21.8454   22.6144 O   0  0  0  0  0  0  0  0  0  1  0  0
  -15.4442  -22.0035   18.9292 F   0  0  0  0  0  0  0  0  0  0  0  0
  -18.2508  -18.6653   17.0895 F   0  0  0  0  0  0  0  0  0  0  0  0
  1  2  1  0  0  0  0
  1  5  2  0  0  0  0
  2  6  2  0  0  0  0
  3  8  2  0  0  0  0
  3 17  1  0  0  0  0
  4  9  1  0  0  0  0
  4 17  2  0  0  0  0
  5 20  1  0  0  0  0
  6 22  1  0  0  0  0
  7 10  2  0  0  0  0
  7 21  1  0  0  0  0
  8 25  1  0  0  0  0
  9 25  2  0  0  0  0
 10 26  1  0  0  0  0
 11 12  2  0  0  0  0
 11 27  1  0  0  0  0
 12 28  1  0  0  0  0
 13 23  1  0  0  0  0
 13 26  2  0  0  0  0
 14 28  2  0  0  0  0
 14 29  1  0  0  0  0
 15 18  2  0  0  0  0
 15 69  1  0  0  0  0
 16 24  2  0  0  0  0
 16 69  1  0  0  0  0
 17 30  1  0  0  0  0
 18 24  1  0  0  0  0
 18 32  1  0  0  0  0
 19 30  1  0  0  0  0
 19 31  2  0  0  0  0
 19 33  1  0  0  0  0
 20 22  2  0  0  0  0
 20 37  1  0  0  0  0
 21 23  2  0  0  0  0
 21 38  1  0  0  0  0
 22 46  1  0  0  0  0
 23 39  1  0  0  0  0
 24 57  1  0  0  0  0
 25 83  1  0  0  0  0
 26 84  1  0  0  0  0
 27 29  2  0  0  0  0
 27 83  1  0  0  0  0
 28 85  1  0  0  0  0
 29 86  1  0  0  0  0
 30 68  2  0  0  0  0
 31 70  1  0  0  0  0
 31 73  1  0  0  0  0
 32 71  1  0  0  0  0
 32 78  2  0  0  0  0
 33 74  1  0  0  0  0
 33 79  2  0  0  0  0
 34 47  1  0  0  0  0
 34 75  1  0  0  0  0
 34 80  2  0  0  0  0
 35 63  1  0  0  0  0
 35 72  1  0  0  0  0
 35 81  2  0  0  0  0
 36 64  1  0  0  0  0
 36 76  1  0  0  0  0
 36 82  2  0  0  0  0
 37 40  1  0  0  0  0
 38 47  1  0  0  0  0
 39 72  1  0  0  0  0
 40 42  1  0  0  0  0
 41 43  1  0  0  0  0
 41 44  1  0  0  0  0
 42 46  1  0  0  0  0
 43 48  1  0  0  0  0
 44 71  1  0  0  0  0
 45 48  1  0  0  0  0
 45 71  1  0  0  0  0
 46 75  1  0  0  0  0
 47 72  1  0  0  0  0
 48 70  1  0  0  0  0
 49 58  1  0  0  0  0
 50 59  1  0  0  0  0
 51 64  1  0  0  0  0
 52 65  1  0  0  0  0
 53 67  1  0  0  0  0
 54 67  1  0  0  0  0
 55 67  1  0  0  0  0
 56 77  1  0  0  0  0
 57 60  1  0  0  0  0
 58 61  1  0  0  0  0
 59 66  1  0  0  0  0
 60 61  1  0  0  0  0
 62 65  1  0  0  0  0
 62 84  1  0  0  0  0
 63 67  1  0  0  0  0
 63 76  1  0  0  0  0
 64 77  1  0  0  0  0
 65 66  1  0  0  0  0
 66 69  1  0  0  0  0
 68 70  1  0  0  0  0
M  CHG  1  77   1
M  ISO  4  18 100  32 100  62 101  84 101
M  END
> <Batch ID>
0093

> <Smiles>
CCCCCc1cn(C(CC)C(C)[101CH2:1][101O:1]c2ccc3c(c2)CN(C(=O)C(NC(=O)C(C)NC)C(C)(C)C)C(C(=O)NC2CCCc4ccccc42)C3)c[100c:0]1[100C:0](=O)N1CCCC(n2nc(-c3ccc(Oc4ccc(F)cc4F)cc3)c(C(N)=O)c2N)C1

> <Shape>
0.159

> <Color>
0.109

> <Negative vol penalty>
0.000

$$$$

  -OEChem-04052319163D

 83 90  0     1  0  0  0  0  0999 V2000
  -20.4818   -9.3759   23.9894 C   0  0  0  0  0  0  0  0  0  0  0  0
  -21.2196  -10.5505   24.0968 C   0  0  0  0  0  0  0  0  0  0  0  0
  -26.5001  -28.6053   18.8545 C   0  0  0  0  0  0  0  0  0  0  0  0
  -26.2708  -27.9647   21.1727 C   0  0  0  0  0  0  0  0  0  0  0  0
  -20.8875   -8.3778   23.1044 C   0  0  0  0  0  0  0  0  0  0  0  0
  -22.3641  -10.7271   23.3201 C   0  0  0  0  0  0  0  0  0  0  0  0
  -22.5983  -15.3313   21.2246 C   0  0  0  0  0  0  0  0  0  0  0  0
  -25.5214  -29.5839   19.0280 C   0  0  0  0  0  0  0  0  0  0  0  0
  -25.2922  -28.9434   21.3463 C   0  0  0  0  0  0  0  0  0  0  0  0
  -23.0011  -16.3844   22.0447 C   0  0  0  0  0  0  0  0  0  0  0  0
  -25.1713  -32.2907   21.7948 C   0  0  0  0  0  0  0  0  0  0  0  0
  -25.2525  -33.0913   22.9341 C   0  0  0  0  0  0  0  0  0  0  0  0
  -25.2222  -16.2526   21.1128 C   0  0  0  0  0  0  0  0  0  0  0  0
  -23.0739  -32.3160   23.6341 C   0  0  0  0  0  0  0  0  0  0  0  0
  -26.8747  -27.7956   19.9268 C   0  0  0  0  0  0  0  0  0  0  0  0
  -29.2741  -26.9293   19.9256 C   0  0  0  0  0  0  0  0  0  0  0  0
  -22.0321   -8.5463   22.3094 C   0  0  0  0  0  0  0  0  0  0  0  0
  -23.5088  -14.7228   20.3488 C   0  0  0  0  0  0  0  0  0  0  0  0
  -22.7862   -9.7297   22.4247 C   0  0  0  0  0  0  0  0  0  0  0  0
  -24.8278  -15.1936   20.2808 C   0  0  0  0  0  0  0  0  0  0  0  0
  -24.9175  -29.7530   20.2740 C   0  0  0  0  0  0  0  0  0  0  0  0
  -24.3140  -16.8433   21.9910 C   0  0  0  0  0  0  0  0  0  0  0  0
  -24.0414  -31.5028   21.5750 C   0  0  0  0  0  0  0  0  0  0  0  0
  -24.2038  -33.1039   23.8538 C   0  0  0  0  0  0  0  0  0  0  0  0
  -22.9927  -31.5155   22.4947 C   0  0  0  0  0  0  0  0  0  0  0  0
  -27.8852  -26.7841   19.7479 C   0  0  0  0  0  0  0  0  0  0  0  0
  -29.7889  -25.6896   19.6348 C   0  0  0  0  0  0  0  0  0  0  0  0
  -30.0313  -28.0817   20.3184 C   0  0  0  0  0  0  0  0  0  0  0  0
  -24.7055  -11.7946   20.0360 C   0  0  0  0  0  0  0  0  0  0  0  0
  -26.0363  -13.0463   17.3556 C   0  0  0  0  0  0  0  0  0  0  0  0
  -27.1034  -15.8170   15.6731 C   0  0  0  0  0  0  0  0  0  0  0  0
  -29.6253  -20.1281   20.0689 C   0  0  0  0  0  0  0  0  0  0  0  0
  -22.4578   -7.4196   21.4017 C   0  0  0  0  0  0  0  0  0  0  0  0
  -23.0517  -13.6055   19.4515 C   0  0  0  0  0  0  0  0  0  0  0  0
  -25.8388  -14.5878   19.3431 C   0  0  0  0  0  0  0  0  0  0  0  0
  -23.4718   -7.8416   20.3415 C   0  0  0  0  0  0  0  0  0  0  0  0
  -27.6141  -21.6296   17.5436 C   0  0  0  0  0  0  0  0  0  0  0  0
  -24.5813   -8.6804   20.9679 C   0  0  0  0  0  0  0  0  0  0  0  0
  -27.6149  -23.1147   17.9103 C   0  0  0  0  0  0  0  0  0  0  0  0
  -27.5971  -20.7416   18.7859 C   0  0  0  0  0  0  0  0  0  0  0  0
  -28.6651  -22.5094   20.1305 C   0  0  0  0  0  0  0  0  0  0  0  0
  -24.0195   -9.9688   21.5810 C   0  0  1  0  0  0  0  0  0  0  0  0
  -24.1967  -12.7209   18.9680 C   0  0  1  0  0  0  0  0  0  0  0  0
  -28.7385  -23.4445   18.9113 C   0  0  2  0  0  0  0  0  0  0  0  0
  -28.1809  -16.5200   13.5186 C   0  0  0  0  0  0  0  0  0  0  0  0
  -28.1074  -20.8345   23.8585 C   0  0  0  0  0  0  0  0  0  0  0  0
  -28.7344  -12.0635   18.3872 C   0  0  0  0  0  0  0  0  0  0  0  0
  -29.8415  -13.5829   16.7338 C   0  0  0  0  0  0  0  0  0  0  0  0
  -28.3717  -11.7325   15.9350 C   0  0  0  0  0  0  0  0  0  0  0  0
  -27.4623  -19.3776   26.5419 C   0  0  0  0  0  0  0  0  0  0  0  0
  -28.1324  -17.2287   25.4694 C   0  0  0  0  0  0  0  0  0  0  0  0
  -24.7644  -17.4594   14.9045 C   0  0  0  0  0  0  0  0  0  0  0  0
  -32.2435  -20.5576   24.3551 C   0  0  0  0  0  0  0  0  0  0  0  0
  -26.1688  -18.5286   24.5817 C   0  0  0  0  0  0  0  0  0  0  0  0
  -31.6716  -19.6706   21.3966 C   0  0  0  0  0  0  0  0  0  0  0  0
  -31.2910  -18.9717   22.6884 C   0  0  0  0  0  0  0  0  0  0  0  0
  -30.0371  -19.4830   24.7781 C   0  0  0  0  0  0  0  0  0  0  0  0
  -26.0771  -17.8836   23.2013 C   0  0  0  0  0  0  0  0  0  1  0  0
  -27.3296  -13.7561   17.0354 C   0  0  1  0  0  0  0  0  0  0  0  0
  -26.8676  -16.2830   14.2477 C   0  0  2  0  0  0  0  0  0  0  0  0
  -28.5976  -19.4205   24.2221 C   0  0  1  0  0  0  0  0  0  0  0  0
  -28.5510  -12.7941   17.0420 C   0  0  0  0  0  0  0  0  0  0  0  0
  -27.6030  -18.6545   25.1826 C   0  0  0  0  0  0  0  0  0  0  0  0
  -27.5395  -25.5496   19.3731 N   0  0  0  0  0  0  0  0  0  0  0  0
  -28.7187  -24.9078   19.3129 N   0  0  0  0  0  0  0  0  0  0  0  0
  -25.3452  -13.4938   18.4905 N   0  0  0  0  0  0  0  0  0  0  0  0
  -28.6883  -21.1047   19.6932 N   0  0  0  0  0  0  0  0  0  0  0  0
  -31.0480  -25.2029   19.6256 N   0  0  0  0  0  0  0  0  0  0  0  0
  -29.3445  -29.2752   20.5795 N   0  0  0  0  0  0  0  0  0  0  0  0
  -23.7446  -10.9428   20.5464 N   0  0  0  0  0  0  0  0  0  0  0  0
  -27.1155  -14.4413   15.7653 N   0  0  0  0  0  0  0  0  0  0  0  0
  -30.6308  -20.5575   20.9264 N   0  0  0  0  0  0  0  0  0  0  0  0
  -26.0898  -17.5542   14.2403 N   0  3  0  0  0  0  0  0  0  0  0  0
  -30.9814  -19.9961   23.7507 N   0  3  1  0  0  0  0  0  0  0  0  0
  -31.2815  -28.0583   20.4186 O   0  0  0  0  0  0  0  0  0  0  0  0
  -25.8830  -11.8478   20.3712 O   0  0  0  0  0  0  0  0  0  0  0  0
  -25.6498  -12.1333   16.6217 O   0  0  0  0  0  0  0  0  0  0  0  0
  -27.2647  -16.5956   16.6103 O   0  0  0  0  0  0  0  0  0  0  0  0
  -29.5731  -18.9613   19.6654 O   0  0  0  0  0  0  0  0  0  0  0  0
  -23.9627  -30.7080   20.4438 O   0  0  0  0  0  0  0  0  0  0  0  0
  -24.7125  -17.8772   22.7960 O   0  0  0  0  0  0  0  0  0  1  0  0
  -24.2825  -33.8716   24.9486 F   0  0  0  0  0  0  0  0  0  0  0  0
  -21.9052  -30.7598   22.2896 F   0  0  0  0  0  0  0  0  0  0  0  0
  1  2  1  0  0  0  0
  1  5  2  0  0  0  0
  2  6  2  0  0  0  0
  3  8  2  0  0  0  0
  3 15  1  0  0  0  0
  4  9  1  0  0  0  0
  4 15  2  0  0  0  0
  5 17  1  0  0  0  0
  6 19  1  0  0  0  0
  7 10  2  0  0  0  0
  7 18  1  0  0  0  0
  8 21  1  0  0  0  0
  9 21  2  0  0  0  0
 10 22  1  0  0  0  0
 11 12  2  0  0  0  0
 11 23  1  0  0  0  0
 12 24  1  0  0  0  0
 13 20  1  0  0  0  0
 13 22  2  0  0  0  0
 14 24  2  0  0  0  0
 14 25  1  0  0  0  0
 15 26  1  0  0  0  0
 16 26  1  0  0  0  0
 16 27  2  0  0  0  0
 16 28  1  0  0  0  0
 17 19  2  0  0  0  0
 17 33  1  0  0  0  0
 18 20  2  0  0  0  0
 18 34  1  0  0  0  0
 19 42  1  0  0  0  0
 20 35  1  0  0  0  0
 21 80  1  0  0  0  0
 22 81  1  0  0  0  0
 23 25  2  0  0  0  0
 23 80  1  0  0  0  0
 24 82  1  0  0  0  0
 25 83  1  0  0  0  0
 26 64  2  0  0  0  0
 27 65  1  0  0  0  0
 27 68  1  0  0  0  0
 28 69  1  0  0  0  0
 28 75  2  0  0  0  0
 29 43  1  0  0  0  0
 29 70  1  0  0  0  0
 29 76  2  0  0  0  0
 30 59  1  0  0  0  0
 30 66  1  0  0  0  0
 30 77  2  0  0  0  0
 31 60  1  0  0  0  0
 31 71  1  0  0  0  0
 31 78  2  0  0  0  0
 32 67  1  0  0  0  0
 32 72  1  0  0  0  0
 32 79  2  0  0  0  0
 33 36  1  0  0  0  0
 34 43  1  0  0  0  0
 35 66  1  0  0  0  0
 36 38  1  0  0  0  0
 37 39  1  0  0  0  0
 37 40  1  0  0  0  0
 38 42  1  0  0  0  0
 39 44  1  0  0  0  0
 40 67  1  0  0  0  0
 41 44  1  0  0  0  0
 41 67  1  0  0  0  0
 42 70  1  0  0  0  0
 43 66  1  0  0  0  0
 44 65  1  0  0  0  0
 45 60  1  0  0  0  0
 46 61  1  0  0  0  0
 47 62  1  0  0  0  0
 48 62  1  0  0  0  0
 49 62  1  0  0  0  0
 50 63  1  0  0  0  0
 51 63  1  0  0  0  0
 52 73  1  0  0  0  0
 53 74  1  0  0  0  0
 54 58  1  0  0  0  0
 54 63  1  0  0  0  0
 55 56  1  0  0  0  0
 55 72  1  0  0  0  0
 56 74  1  0  0  0  0
 57 61  1  0  0  0  0
 57 74  1  0  0  0  0
 58 81  1  0  0  0  0
 59 62  1  0  0  0  0
 59 71  1  0  0  0  0
 60 73  1  0  0  0  0
 61 63  1  0  0  0  0
 64 65  1  0  0  0  0
M  CHG  2  73   1  74   1
M  ISO  4  32 100  58 101  72 100  81 101
M  END
> <Batch ID>
0093

> <Smiles>
CNC(C)C(=O)NC(C(=O)N1Cc2cc([101O:1][101CH2:1]CC(C)(C)C(C)CN(C)CC[100NH:0][100C:0](=O)N3CCCC(n4nc(-c5ccc(Oc6ccc(F)cc6F)cc5)c(C(N)=O)c4N)C3)ccc2CC1C(=O)NC1CCCc2ccccc21)C(C)(C)C

> <Shape>
0.230

> <Color>
0.066

> <Negative vol penalty>
0.000

$$$$

  -OEChem-04052319163D

 91 99  0     1  0  0  0  0  0999 V2000
  -36.9850  -25.9679   22.2100 C   0  0  0  0  0  0  0  0  0  0  0  0
  -36.3816  -25.3635   21.1118 C   0  0  0  0  0  0  0  0  0  0  0  0
  -23.0019   -9.8895   19.9909 C   0  0  0  0  0  0  0  0  0  0  0  0
  -23.7249   -9.9588   22.2952 C   0  0  0  0  0  0  0  0  0  0  0  0
  -36.2629  -26.1489   23.3888 C   0  0  0  0  0  0  0  0  0  0  0  0
  -35.0559  -24.9388   21.1922 C   0  0  0  0  0  0  0  0  0  0  0  0
  -29.1772  -24.1977   17.1663 C   0  0  0  0  0  0  0  0  0  0  0  0
  -22.2367   -8.7561   20.2650 C   0  0  0  0  0  0  0  0  0  0  0  0
  -22.9595   -8.8253   22.5693 C   0  0  0  0  0  0  0  0  0  0  0  0
  -28.2220  -23.2429   16.8203 C   0  0  0  0  0  0  0  0  0  0  0  0
  -23.2087   -5.4832   22.1227 C   0  0  0  0  0  0  0  0  0  0  0  0
  -23.7969   -4.4725   22.8830 C   0  0  0  0  0  0  0  0  0  0  0  0
  -27.0479  -23.6793   18.8819 C   0  0  0  0  0  0  0  0  0  0  0  0
  -28.7158  -19.3272   18.6915 C   0  0  0  0  0  0  0  0  0  0  0  0
  -22.0711   -4.7257   24.5547 C   0  0  0  0  0  0  0  0  0  0  0  0
  -27.6937  -17.8914   20.8070 C   0  0  0  0  0  0  0  0  0  0  0  0
  -23.7461  -10.4909   21.0060 C   0  0  0  0  0  0  0  0  0  0  0  0
  -24.1282  -13.0056   20.8114 C   0  0  0  0  0  0  0  0  0  0  0  0
  -34.9246  -25.7349   23.4805 C   0  0  0  0  0  0  0  0  0  0  0  0
  -29.0807  -24.8939   18.3797 C   0  0  0  0  0  0  0  0  0  0  0  0
  -34.3155  -25.1132   22.3738 C   0  0  0  0  0  0  0  0  0  0  0  0
  -28.0017  -24.6443   19.2398 C   0  0  0  0  0  0  0  0  0  0  0  0
  -29.0080  -18.3324   20.8660 C   0  0  0  0  0  0  0  0  0  0  0  0
  -29.5204  -19.0577   19.7945 C   0  0  0  0  0  0  0  0  0  0  0  0
  -22.2154   -8.2239   21.5542 C   0  0  0  0  0  0  0  0  0  0  0  0
  -27.1587  -22.9815   17.6795 C   0  0  0  0  0  0  0  0  0  0  0  0
  -22.0518   -6.1153   22.5784 C   0  0  0  0  0  0  0  0  0  0  0  0
  -23.2281   -4.0937   24.0989 C   0  0  0  0  0  0  0  0  0  0  0  0
  -21.4830   -5.7365   23.7944 C   0  0  0  0  0  0  0  0  0  0  0  0
  -24.5373  -11.6614   20.7233 C   0  0  0  0  0  0  0  0  0  0  0  0
  -27.4089  -18.8609   18.6875 C   0  0  0  0  0  0  0  0  0  0  0  0
  -25.2374  -13.7269   20.4427 C   0  0  0  0  0  0  0  0  0  0  0  0
  -22.8592  -13.5532   21.1927 C   0  0  0  0  0  0  0  0  0  0  0  0
  -30.8936  -25.1315   20.9798 C   0  0  0  0  0  0  0  0  0  0  0  0
  -28.7068  -27.3733   21.8251 C   0  0  0  0  0  0  0  0  0  0  0  0
  -25.5396  -28.6005   21.4945 C   0  0  0  0  0  0  0  0  0  0  0  0
  -30.7323  -14.6706   20.6893 C   0  0  0  0  0  0  0  0  0  0  0  0
  -34.1991  -25.9090   24.7912 C   0  0  0  0  0  0  0  0  0  0  0  0
  -30.1046  -25.9399   18.7259 C   0  0  0  0  0  0  0  0  0  0  0  0
  -27.8414  -25.3790   20.5448 C   0  0  0  0  0  0  0  0  0  0  0  0
  -32.6836  -25.7699   24.6717 C   0  0  0  0  0  0  0  0  0  0  0  0
  -29.5970  -12.2279   18.3610 C   0  0  0  0  0  0  0  0  0  0  0  0
  -32.3241  -24.5419   23.8413 C   0  0  0  0  0  0  0  0  0  0  0  0
  -28.1485  -11.9694   18.7792 C   0  0  0  0  0  0  0  0  0  0  0  0
  -30.4980  -12.4736   19.5693 C   0  0  0  0  0  0  0  0  0  0  0  0
  -28.5855  -13.2766   20.9003 C   0  0  0  0  0  0  0  0  0  0  0  0
  -32.8718  -24.6614   22.4140 C   0  0  1  0  0  0  0  0  0  0  0  0
  -30.1886  -26.2214   20.2230 C   0  0  1  0  0  0  0  0  0  0  0  0
  -27.6279  -13.0787   19.7128 C   0  0  2  0  0  0  0  0  0  0  0  0
  -27.1556  -16.9572   16.3161 C   0  0  0  0  0  0  0  0  0  0  0  0
  -24.0338  -30.4206   22.3415 C   0  0  0  0  0  0  0  0  0  0  0  0
  -33.7310  -20.6567   16.6558 C   0  0  0  0  0  0  0  0  0  0  0  0
  -34.9772  -21.9508   18.4045 C   0  0  0  0  0  0  0  0  0  0  0  0
  -32.7414  -22.7405   17.6158 C   0  0  0  0  0  0  0  0  0  0  0  0
  -28.3418  -25.8495   24.4433 C   0  0  0  0  0  0  0  0  0  0  0  0
  -26.2162  -27.1217   24.8064 C   0  0  0  0  0  0  0  0  0  0  0  0
  -28.3903  -28.3385   24.6828 C   0  0  0  0  0  0  0  0  0  0  0  0
  -25.2097  -29.7473   18.7862 C   0  0  0  0  0  0  0  0  0  0  0  0
  -29.8318  -18.0196   22.0691 C   0  0  0  0  0  0  0  0  0  0  0  0
  -26.0029  -17.7968   16.8544 C   0  0  0  0  0  0  0  0  0  0  0  0
  -32.8593  -20.6901   19.0496 C   0  0  0  0  0  0  0  0  0  0  0  0
  -25.2351  -19.9461   17.9422 C   0  0  0  0  0  0  0  0  0  0  0  0
  -30.8110  -16.8585   21.8582 C   0  0  0  0  0  0  0  0  0  0  0  0
  -31.4227  -20.2756   18.7347 C   0  0  0  0  0  0  0  0  0  0  0  0
  -25.5895  -21.3531   18.4156 C   0  0  0  0  0  0  0  0  0  1  0  0
  -26.4651  -19.1122   17.5218 C   0  0  1  0  0  0  0  0  0  0  0  0
  -27.3963  -27.3593   22.5744 C   0  0  1  0  0  0  0  0  0  0  0  0
  -25.0243  -30.0096   21.2632 C   0  0  2  0  0  0  0  0  0  0  0  0
  -33.5856  -21.4921   17.9384 C   0  0  0  0  0  0  0  0  0  0  0  0
  -27.5900  -27.1518   24.1031 C   0  0  0  0  0  0  0  0  0  0  0  0
  -25.8071  -11.5337   20.3293 N   0  0  0  0  0  0  0  0  0  0  0  0
  -26.2055  -12.8068   20.1665 N   0  0  0  0  0  0  0  0  0  0  0  0
  -26.9410  -18.1650   19.7326 N   0  3  0  0  0  0  0  0  0  0  0  0
  -28.8718  -26.3878   20.8415 N   0  0  0  0  0  0  0  0  0  0  0  0
  -29.9490  -13.5379   20.4129 N   0  0  0  0  0  0  0  0  0  0  0  0
  -25.4692  -15.0521   20.3309 N   0  0  0  0  0  0  0  0  0  0  0  0
  -21.8282  -12.6703   21.5418 N   0  0  0  0  0  0  0  0  0  0  0  0
  -30.8518  -19.5269   19.8102 N   0  0  0  0  0  0  0  0  0  0  0  0
  -32.0416  -25.5477   21.6267 N   0  0  0  0  0  0  0  0  0  0  0  0
  -26.7112  -28.5980   22.2216 N   0  0  0  0  0  0  0  0  0  0  0  0
  -30.1339  -15.6347   21.4914 N   0  0  0  0  0  0  0  0  0  0  0  0
  -24.3442  -30.1018   19.9404 N   0  3  0  0  0  0  0  0  0  0  0  0
  -22.6408  -14.7883   21.2069 O   0  0  0  0  0  0  0  0  0  0  0  0
  -30.4296  -23.9973   20.9782 O   0  0  0  0  0  0  0  0  0  0  0  0
  -29.5500  -28.2315   22.0974 O   0  0  0  0  0  0  0  0  0  0  0  0
  -24.9587  -27.6017   21.0755 O   0  0  0  0  0  0  0  0  0  0  0  0
  -31.8779  -14.8148   20.2493 O   0  0  0  0  0  0  0  0  0  0  0  0
  -21.4686   -7.1180   21.8221 O   0  0  0  0  0  0  0  0  0  0  0  0
  -26.2253  -22.0495   17.3446 O   0  0  0  0  0  0  0  0  0  1  0  0
  -23.7922   -3.1220   24.8282 F   0  0  0  0  0  0  0  0  0  0  0  0
  -20.3709   -6.3392   24.2369 F   0  0  0  0  0  0  0  0  0  0  0  0
  1  2  1  0  0  0  0
  1  5  2  0  0  0  0
  2  6  2  0  0  0  0
  3  8  2  0  0  0  0
  3 17  1  0  0  0  0
  4  9  1  0  0  0  0
  4 17  2  0  0  0  0
  5 19  1  0  0  0  0
  6 21  1  0  0  0  0
  7 10  2  0  0  0  0
  7 20  1  0  0  0  0
  8 25  1  0  0  0  0
  9 25  2  0  0  0  0
 10 26  1  0  0  0  0
 11 12  2  0  0  0  0
 11 27  1  0  0  0  0
 12 28  1  0  0  0  0
 13 22  1  0  0  0  0
 13 26  2  0  0  0  0
 14 24  2  0  0  0  0
 14 31  1  0  0  0  0
 15 28  2  0  0  0  0
 15 29  1  0  0  0  0
 16 23  2  0  0  0  0
 16 73  1  0  0  0  0
 17 30  1  0  0  0  0
 18 30  1  0  0  0  0
 18 32  2  0  0  0  0
 18 33  1  0  0  0  0
 19 21  2  0  0  0  0
 19 38  1  0  0  0  0
 20 22  2  0  0  0  0
 20 39  1  0  0  0  0
 21 47  1  0  0  0  0
 22 40  1  0  0  0  0
 23 24  1  0  0  0  0
 23 59  1  0  0  0  0
 24 78  1  0  0  0  0
 25 88  1  0  0  0  0
 26 89  1  0  0  0  0
 27 29  2  0  0  0  0
 27 88  1  0  0  0  0
 28 90  1  0  0  0  0
 29 91  1  0  0  0  0
 30 71  2  0  0  0  0
 31 66  1  0  0  0  0
 31 73  2  0  0  0  0
 32 72  1  0  0  0  0
 32 76  1  0  0  0  0
 33 77  1  0  0  0  0
 33 83  2  0  0  0  0
 34 48  1  0  0  0  0
 34 79  1  0  0  0  0
 34 84  2  0  0  0  0
 35 67  1  0  0  0  0
 35 74  1  0  0  0  0
 35 85  2  0  0  0  0
 36 68  1  0  0  0  0
 36 80  1  0  0  0  0
 36 86  2  0  0  0  0
 37 75  1  0  0  0  0
 37 81  1  0  0  0  0
 37 87  2  0  0  0  0
 38 41  1  0  0  0  0
 39 48  1  0  0  0  0
 40 74  1  0  0  0  0
 41 43  1  0  0  0  0
 42 44  1  0  0  0  0
 42 45  1  0  0  0  0
 43 47  1  0  0  0  0
 44 49  1  0  0  0  0
 45 75  1  0  0  0  0
 46 49  1  0  0  0  0
 46 75  1  0  0  0  0
 47 79  1  0  0  0  0
 48 74  1  0  0  0  0
 49 72  1  0  0  0  0
 50 60  1  0  0  0  0
 51 68  1  0  0  0  0
 52 69  1  0  0  0  0
 53 69  1  0  0  0  0
 54 69  1  0  0  0  0
 55 70  1  0  0  0  0
 56 70  1  0  0  0  0
 57 70  1  0  0  0  0
 58 82  1  0  0  0  0
 59 63  1  0  0  0  0
 60 66  1  0  0  0  0
 61 64  1  0  0  0  0
 61 69  1  0  0  0  0
 62 65  1  0  0  0  0
 62 66  1  0  0  0  0
 63 81  1  0  0  0  0
 64 78  1  0  0  0  0
 65 89  1  0  0  0  0
 67 70  1  0  0  0  0
 67 80  1  0  0  0  0
 68 82  1  0  0  0  0
 71 72  1  0  0  0  0
M  CHG  2  73   1  82   1
M  ISO  4  37 100  65 101  81 100  89 101
M  END
> <Batch ID>
0093

> <Smiles>
CCC(C[101CH2:1][101O:1]c1ccc2c(c1)CN(C(=O)C(NC(=O)C(C)NC)C(C)(C)C)C(C(=O)NC1CCCc3ccccc31)C2)c1cc(NCCC(C)(C)C)c(CC[100NH:0][100C:0](=O)N2CCCC(n3nc(-c4ccc(Oc5ccc(F)cc5F)cc4)c(C(N)=O)c3N)C2)cn1

> <Shape>
0.296

> <Color>
0.190

> <Negative vol penalty>
0.000

$$$$

  -OEChem-04052319163D

 81 88  0     1  0  0  0  0  0999 V2000
  -30.0543  -23.9286   22.6940 C   0  0  0  0  0  0  0  0  0  0  0  0
  -28.7247  -23.7733   22.3152 C   0  0  0  0  0  0  0  0  0  0  0  0
  -25.9605  -28.0670   21.9853 C   0  0  0  0  0  0  0  0  0  0  0  0
  -25.1237  -28.9878   19.9144 C   0  0  0  0  0  0  0  0  0  0  0  0
  -31.0127  -23.0130   22.2613 C   0  0  0  0  0  0  0  0  0  0  0  0
  -28.3529  -22.7028   21.5025 C   0  0  0  0  0  0  0  0  0  0  0  0
  -24.1330  -20.4139   23.1145 C   0  0  0  0  0  0  0  0  0  0  0  0
  -27.1845  -27.7999   21.3720 C   0  0  0  0  0  0  0  0  0  0  0  0
  -26.3477  -28.7207   19.3010 C   0  0  0  0  0  0  0  0  0  0  0  0
  -22.9205  -21.0409   22.8310 C   0  0  0  0  0  0  0  0  0  0  0  0
  -29.9589  -29.5217   20.4938 C   0  0  0  0  0  0  0  0  0  0  0  0
  -31.1198  -29.8566   21.1906 C   0  0  0  0  0  0  0  0  0  0  0  0
  -22.5844  -19.5380   20.9743 C   0  0  0  0  0  0  0  0  0  0  0  0
  -31.8135  -27.5427   21.1470 C   0  0  0  0  0  0  0  0  0  0  0  0
  -24.9301  -28.6609   21.2565 C   0  0  0  0  0  0  0  0  0  0  0  0
  -23.2910  -30.1141   22.5639 C   0  0  0  0  0  0  0  0  0  0  0  0
  -30.6508  -21.9254   21.4509 C   0  0  0  0  0  0  0  0  0  0  0  0
  -24.5863  -19.3495   22.3221 C   0  0  0  0  0  0  0  0  0  0  0  0
  -29.3076  -21.7726   21.0575 C   0  0  0  0  0  0  0  0  0  0  0  0
  -23.8017  -18.8974   21.2514 C   0  0  0  0  0  0  0  0  0  0  0  0
  -27.3781  -28.1268   20.0299 C   0  0  0  0  0  0  0  0  0  0  0  0
  -22.1473  -20.6049   21.7590 C   0  0  0  0  0  0  0  0  0  0  0  0
  -29.7251  -28.1972   20.1236 C   0  0  0  0  0  0  0  0  0  0  0  0
  -32.0471  -28.8671   21.5172 C   0  0  0  0  0  0  0  0  0  0  0  0
  -30.6524  -27.2078   20.4502 C   0  0  0  0  0  0  0  0  0  0  0  0
  -23.6653  -28.9365   21.8893 C   0  0  0  0  0  0  0  0  0  0  0  0
  -22.0030  -29.8777   22.9783 C   0  0  0  0  0  0  0  0  0  0  0  0
  -24.0405  -31.3142   22.7952 C   0  0  0  0  0  0  0  0  0  0  0  0
  -27.1203  -18.8534   20.4684 C   0  0  0  0  0  0  0  0  0  0  0  0
  -25.9001  -15.8545   20.2685 C   0  0  0  0  0  0  0  0  0  0  0  0
  -23.1717  -13.8163   20.4882 C   0  0  0  0  0  0  0  0  0  0  0  0
  -17.6698  -26.2686   20.9662 C   0  0  0  0  0  0  0  0  0  0  0  0
  -31.7300  -20.9884   20.9692 C   0  0  0  0  0  0  0  0  0  0  0  0
  -25.8837  -18.6663   22.6574 C   0  0  0  0  0  0  0  0  0  0  0  0
  -24.2339  -17.7456   20.3825 C   0  0  0  0  0  0  0  0  0  0  0  0
  -31.1911  -19.6707   20.4182 C   0  0  0  0  0  0  0  0  0  0  0  0
  -19.0696  -26.3147   24.2396 C   0  0  0  0  0  0  0  0  0  0  0  0
  -30.0244  -19.9261   19.4694 C   0  0  0  0  0  0  0  0  0  0  0  0
  -20.3723  -27.0981   24.0693 C   0  0  0  0  0  0  0  0  0  0  0  0
  -18.7738  -25.4402   23.0232 C   0  0  0  0  0  0  0  0  0  0  0  0
  -20.0769  -26.9373   21.5622 C   0  0  0  0  0  0  0  0  0  0  0  0
  -28.8610  -20.6105   20.1972 C   0  0  1  0  0  0  0  0  0  0  0  0
  -26.4934  -17.9262   21.4708 C   0  0  1  0  0  0  0  0  0  0  0  0
  -20.3890  -27.8764   22.7399 C   0  0  2  0  0  0  0  0  0  0  0  0
  -22.4793  -11.4176   20.2348 C   0  0  0  0  0  0  0  0  0  0  0  0
  -26.0188  -16.1434   17.2333 C   0  0  0  0  0  0  0  0  0  0  0  0
  -24.4757  -14.1798   17.0558 C   0  0  0  0  0  0  0  0  0  0  0  0
  -26.7260  -13.9054   18.0967 C   0  0  0  0  0  0  0  0  0  0  0  0
  -22.2962  -13.6499   23.3104 C   0  0  0  0  0  0  0  0  0  0  0  0
  -18.9210  -26.6314   15.8615 C   0  0  0  0  0  0  0  0  0  0  0  0
  -19.6943  -22.4618   19.8496 C   0  0  0  0  0  0  0  0  0  0  0  0
  -16.6955  -27.1914   18.8785 C   0  0  0  0  0  0  0  0  0  0  0  0
  -17.1940  -27.4336   17.4660 C   0  0  0  0  0  0  0  0  0  0  0  0
  -17.1732  -25.0658   16.6956 C   0  0  0  0  0  0  0  0  0  0  0  0
  -20.5471  -21.2311   20.1149 C   0  0  0  0  0  0  0  0  0  1  0  0
  -19.2395  -22.5371   18.4005 C   0  0  0  0  0  0  0  0  0  0  0  0
  -18.0067  -23.8097   16.8566 C   0  0  0  0  0  0  0  0  0  0  0  0
  -24.9236  -15.1565   19.3529 C   0  0  1  0  0  0  0  0  0  0  0  0
  -22.9584  -12.4918   21.1987 C   0  0  2  0  0  0  0  0  0  0  0  0
  -25.5285  -14.8693   17.9497 C   0  0  0  0  0  0  0  0  0  0  0  0
  -22.6937  -28.0201   21.8738 N   0  0  0  0  0  0  0  0  0  0  0  0
  -21.6962  -28.6218   22.5439 N   0  0  0  0  0  0  0  0  0  0  0  0
  -25.5131  -17.1144   20.7468 N   0  0  0  0  0  0  0  0  0  0  0  0
  -18.8031  -26.2389   21.7955 N   0  0  0  0  0  0  0  0  0  0  0  0
  -21.1143  -30.6238   23.6682 N   0  0  0  0  0  0  0  0  0  0  0  0
  -25.3497  -31.3901   22.3007 N   0  0  0  0  0  0  0  0  0  0  0  0
  -28.1238  -19.6486   20.9882 N   0  0  0  0  0  0  0  0  0  0  0  0
  -24.4758  -13.9650   20.0658 N   0  0  0  0  0  0  0  0  0  0  0  0
  -17.7793  -27.0551   19.8259 N   0  0  0  0  0  0  0  0  0  0  0  0
  -21.9424  -12.6412   22.2788 N   0  3  0  0  0  0  0  0  0  0  0  0
  -18.0107  -26.2524   17.0033 N   0  3  1  0  0  0  0  0  0  0  0  0
  -23.5691  -32.2841   23.4359 O   0  0  0  0  0  0  0  0  0  0  0  0
  -26.7241  -18.8468   19.3088 O   0  0  0  0  0  0  0  0  0  0  0  0
  -26.9637  -15.2992   20.5546 O   0  0  0  0  0  0  0  0  0  0  0  0
  -22.2706  -14.6352   20.3211 O   0  0  0  0  0  0  0  0  0  0  0  0
  -16.6350  -25.6451   21.2256 O   0  0  0  0  0  0  0  0  0  0  0  0
  -28.5724  -27.8665   19.4312 O   0  0  0  0  0  0  0  0  0  0  0  0
  -20.9637  -21.2156   21.4796 O   0  0  0  0  0  0  0  0  0  1  0  0
  -18.4519  -23.7034   18.2021 O   0  0  0  0  0  0  0  0  0  0  0  0
  -33.1627  -29.1891   22.1850 F   0  0  0  0  0  0  0  0  0  0  0  0
  -30.4340  -25.9339   20.0962 F   0  0  0  0  0  0  0  0  0  0  0  0
  1  2  1  0  0  0  0
  1  5  2  0  0  0  0
  2  6  2  0  0  0  0
  3  8  2  0  0  0  0
  3 15  1  0  0  0  0
  4  9  1  0  0  0  0
  4 15  2  0  0  0  0
  5 17  1  0  0  0  0
  6 19  1  0  0  0  0
  7 10  2  0  0  0  0
  7 18  1  0  0  0  0
  8 21  1  0  0  0  0
  9 21  2  0  0  0  0
 10 22  1  0  0  0  0
 11 12  2  0  0  0  0
 11 23  1  0  0  0  0
 12 24  1  0  0  0  0
 13 20  1  0  0  0  0
 13 22  2  0  0  0  0
 14 24  2  0  0  0  0
 14 25  1  0  0  0  0
 15 26  1  0  0  0  0
 16 26  1  0  0  0  0
 16 27  2  0  0  0  0
 16 28  1  0  0  0  0
 17 19  2  0  0  0  0
 17 33  1  0  0  0  0
 18 20  2  0  0  0  0
 18 34  1  0  0  0  0
 19 42  1  0  0  0  0
 20 35  1  0  0  0  0
 21 77  1  0  0  0  0
 22 78  1  0  0  0  0
 23 25  2  0  0  0  0
 23 77  1  0  0  0  0
 24 80  1  0  0  0  0
 25 81  1  0  0  0  0
 26 61  2  0  0  0  0
 27 62  1  0  0  0  0
 27 65  1  0  0  0  0
 28 66  1  0  0  0  0
 28 72  2  0  0  0  0
 29 43  1  0  0  0  0
 29 67  1  0  0  0  0
 29 73  2  0  0  0  0
 30 58  1  0  0  0  0
 30 63  1  0  0  0  0
 30 74  2  0  0  0  0
 31 59  1  0  0  0  0
 31 68  1  0  0  0  0
 31 75  2  0  0  0  0
 32 64  1  0  0  0  0
 32 69  1  0  0  0  0
 32 76  2  0  0  0  0
 33 36  1  0  0  0  0
 34 43  1  0  0  0  0
 35 63  1  0  0  0  0
 36 38  1  0  0  0  0
 37 39  1  0  0  0  0
 37 40  1  0  0  0  0
 38 42  1  0  0  0  0
 39 44  1  0  0  0  0
 40 64  1  0  0  0  0
 41 44  1  0  0  0  0
 41 64  1  0  0  0  0
 42 67  1  0  0  0  0
 43 63  1  0  0  0  0
 44 62  1  0  0  0  0
 45 59  1  0  0  0  0
 46 60  1  0  0  0  0
 47 60  1  0  0  0  0
 48 60  1  0  0  0  0
 49 70  1  0  0  0  0
 50 71  1  0  0  0  0
 51 55  1  0  0  0  0
 51 56  1  0  0  0  0
 52 53  1  0  0  0  0
 52 69  1  0  0  0  0
 53 71  1  0  0  0  0
 54 57  1  0  0  0  0
 54 71  1  0  0  0  0
 55 78  1  0  0  0  0
 56 79  1  0  0  0  0
 57 79  1  0  0  0  0
 58 60  1  0  0  0  0
 58 68  1  0  0  0  0
 59 70  1  0  0  0  0
 61 62  1  0  0  0  0
M  CHG  2  70   1  71   1
M  ISO  4  32 100  55 101  69 100  78 101
M  END
> <Batch ID>
0093

> <Smiles>
CNC(C)C(=O)NC(C(=O)N1Cc2cc([101O:1][101CH2:1]CCOCCN(C)CC[100NH:0][100C:0](=O)N3CCCC(n4nc(-c5ccc(Oc6ccc(F)cc6F)cc5)c(C(N)=O)c4N)C3)ccc2CC1C(=O)NC1CCCc2ccccc21)C(C)(C)C

> <Shape>
0.216

> <Color>
0.080

> <Negative vol penalty>
0.000

$$$$

  -OEChem-04052319163D

 91 99  0     1  0  0  0  0  0999 V2000
  -27.1117  -36.5921   22.5393 C   0  0  0  0  0  0  0  0  0  0  0  0
  -28.0187  -35.6169   22.1373 C   0  0  0  0  0  0  0  0  0  0  0  0
  -23.9064  -11.7986   20.9477 C   0  0  0  0  0  0  0  0  0  0  0  0
  -25.5041  -13.6052   21.0924 C   0  0  0  0  0  0  0  0  0  0  0  0
  -25.9155  -36.2200   23.1514 C   0  0  0  0  0  0  0  0  0  0  0  0
  -27.7306  -34.2690   22.3482 C   0  0  0  0  0  0  0  0  0  0  0  0
  -28.7724  -27.8132   19.4234 C   0  0  0  0  0  0  0  0  0  0  0  0
  -24.9383  -10.9102   20.6454 C   0  0  0  0  0  0  0  0  0  0  0  0
  -26.5361  -12.7167   20.7903 C   0  0  0  0  0  0  0  0  0  0  0  0
  -29.2455  -26.5443   19.7548 C   0  0  0  0  0  0  0  0  0  0  0  0
  -27.8060  -11.2160   18.0396 C   0  0  0  0  0  0  0  0  0  0  0  0
  -28.7539  -11.6194   17.0992 C   0  0  0  0  0  0  0  0  0  0  0  0
  -27.1126  -26.0158   20.7501 C   0  0  0  0  0  0  0  0  0  0  0  0
  -30.4951  -11.3978   18.7594 C   0  0  0  0  0  0  0  0  0  0  0  0
  -26.4349  -22.2421   18.4557 C   0  0  0  0  0  0  0  0  0  0  0  0
  -24.1893  -13.1462   21.1711 C   0  0  0  0  0  0  0  0  0  0  0  0
  -22.6334  -14.3960   22.7601 C   0  0  0  0  0  0  0  0  0  0  0  0
  -25.6083  -34.8664   23.3613 C   0  0  0  0  0  0  0  0  0  0  0  0
  -27.4673  -28.1975   19.7631 C   0  0  0  0  0  0  0  0  0  0  0  0
  -26.5298  -33.8785   22.9650 C   0  0  0  0  0  0  0  0  0  0  0  0
  -26.6245  -27.2892   20.4196 C   0  0  0  0  0  0  0  0  0  0  0  0
  -25.9877  -20.9430   18.6356 C   0  0  0  0  0  0  0  0  0  0  0  0
  -26.8321  -20.0478   19.2827 C   0  0  0  0  0  0  0  0  0  0  0  0
  -28.0803  -20.4729   19.7240 C   0  0  0  0  0  0  0  0  0  0  0  0
  -26.2532  -11.3692   20.5668 C   0  0  0  0  0  0  0  0  0  0  0  0
  -28.4165  -25.6464   20.4208 C   0  0  0  0  0  0  0  0  0  0  0  0
  -28.2026  -10.9036   19.3399 C   0  0  0  0  0  0  0  0  0  0  0  0
  -30.0984  -11.7103   17.4591 C   0  0  0  0  0  0  0  0  0  0  0  0
  -29.5472  -10.9945   19.6997 C   0  0  0  0  0  0  0  0  0  0  0  0
  -23.1236  -14.0645   21.4828 C   0  0  0  0  0  0  0  0  0  0  0  0
  -28.4339  -21.7929   19.4952 C   0  0  0  0  0  0  0  0  0  0  0  0
  -21.6309  -15.3031   22.5184 C   0  0  0  0  0  0  0  0  0  0  0  0
  -23.0474  -13.9259   24.0499 C   0  0  0  0  0  0  0  0  0  0  0  0
  -26.2022  -30.4589   21.6041 C   0  0  0  0  0  0  0  0  0  0  0  0
  -23.4130  -29.3655   20.3601 C   0  0  0  0  0  0  0  0  0  0  0  0
  -21.6977  -26.7965   18.9094 C   0  0  0  0  0  0  0  0  0  0  0  0
  -20.5580  -19.0881   18.0047 C   0  0  0  0  0  0  0  0  0  0  0  0
  -24.3241  -34.5149   24.0697 C   0  0  0  0  0  0  0  0  0  0  0  0
  -26.9633  -29.5604   19.3749 C   0  0  0  0  0  0  0  0  0  0  0  0
  -25.2085  -27.6457   20.7887 C   0  0  0  0  0  0  0  0  0  0  0  0
  -23.9263  -33.0490   23.9179 C   0  0  0  0  0  0  0  0  0  0  0  0
  -18.4021  -16.5211   19.2044 C   0  0  0  0  0  0  0  0  0  0  0  0
  -25.1257  -32.1413   24.1717 C   0  0  0  0  0  0  0  0  0  0  0  0
  -19.3235  -15.6303   20.0396 C   0  0  0  0  0  0  0  0  0  0  0  0
  -19.1161  -17.0741   17.9729 C   0  0  0  0  0  0  0  0  0  0  0  0
  -21.3050  -16.8831   19.0893 C   0  0  0  0  0  0  0  0  0  0  0  0
  -26.2421  -32.4049   23.1541 C   0  0  1  0  0  0  0  0  0  0  0  0
  -25.7866  -30.0272   20.2262 C   0  0  1  0  0  0  0  0  0  0  0  0
  -20.6462  -16.3469   20.3718 C   0  0  2  0  0  0  0  0  0  0  0  0
  -25.6446  -16.4244   18.4486 C   0  0  0  0  0  0  0  0  0  0  0  0
  -25.1618  -18.5635   20.4219 C   0  0  0  0  0  0  0  0  0  0  0  0
  -19.4230  -26.1889   18.0410 C   0  0  0  0  0  0  0  0  0  0  0  0
  -31.3271  -16.6963   19.0557 C   0  0  0  0  0  0  0  0  0  0  0  0
  -31.7944  -18.3399   20.8834 C   0  0  0  0  0  0  0  0  0  0  0  0
  -22.4117  -29.0323   23.2230 C   0  0  0  0  0  0  0  0  0  0  0  0
  -20.5788  -27.5742   22.3383 C   0  0  0  0  0  0  0  0  0  0  0  0
  -20.7235  -29.9614   21.6288 C   0  0  0  0  0  0  0  0  0  0  0  0
  -22.7348  -26.3452   16.1745 C   0  0  0  0  0  0  0  0  0  0  0  0
  -24.6403  -20.5434   18.1416 C   0  0  0  0  0  0  0  0  0  0  0  0
  -29.0082  -19.5370   20.4230 C   0  0  0  0  0  0  0  0  0  0  0  0
  -29.7760  -22.3125   19.9501 C   0  0  0  0  0  0  0  0  0  0  0  0
  -26.1091  -17.8530   18.1924 C   0  0  0  0  0  0  0  0  0  0  0  0
  -23.4801  -21.4056   18.6792 C   0  0  0  0  0  0  0  0  0  0  0  0
  -29.7019  -18.5730   19.4427 C   0  0  0  0  0  0  0  0  0  0  0  0
  -22.1071  -21.0229   18.1308 C   0  0  0  0  0  0  0  0  0  0  0  0
  -29.8606  -23.8337   19.8871 C   0  0  0  0  0  0  0  0  0  1  0  0
  -26.3975  -18.6340   19.5021 C   0  0  1  0  0  0  0  0  0  0  0  0
  -22.4143  -28.3015   20.7467 C   0  0  1  0  0  0  0  0  0  0  0  0
  -20.7924  -26.7505   17.6917 C   0  0  2  0  0  0  0  0  0  0  0  0
  -30.6960  -17.6063   20.1125 C   0  0  0  0  0  0  0  0  0  0  0  0
  -21.5594  -28.7110   21.9791 C   0  0  0  0  0  0  0  0  0  0  0  0
  -27.6405  -22.6917   18.8703 N   0  0  0  0  0  0  0  0  0  0  0  0
  -22.4850  -14.7086   20.5023 N   0  0  0  0  0  0  0  0  0  0  0  0
  -21.5832  -15.4538   21.1637 N   0  0  0  0  0  0  0  0  0  0  0  0
  -24.7641  -28.9924   20.3932 N   0  0  0  0  0  0  0  0  0  0  0  0
  -20.3617  -17.7426   18.3569 N   0  0  0  0  0  0  0  0  0  0  0  0
  -20.7942  -15.9786   23.3346 N   0  0  0  0  0  0  0  0  0  0  0  0
  -24.0928  -12.9949   24.1178 N   0  0  0  0  0  0  0  0  0  0  0  0
  -25.9268  -31.7834   21.8857 N   0  0  0  0  0  0  0  0  0  0  0  0
  -21.6350  -28.0178   19.5465 N   0  0  0  0  0  0  0  0  0  0  0  0
  -21.7629  -19.6472   18.4128 N   0  0  0  0  0  0  0  0  0  0  0  0
  -21.3947  -25.8947   16.6306 N   0  3  0  0  0  0  0  0  0  0  0  0
  -22.4952  -14.3074   25.1096 O   0  0  0  0  0  0  0  0  0  0  0  0
  -26.7320  -29.6498   22.3566 O   0  0  0  0  0  0  0  0  0  0  0  0
  -23.0088  -30.4843   20.0336 O   0  0  0  0  0  0  0  0  0  0  0  0
  -22.3882  -25.8431   19.2625 O   0  0  0  0  0  0  0  0  0  0  0  0
  -19.7192  -19.7443   17.3779 O   0  0  0  0  0  0  0  0  0  0  0  0
  -27.2604  -10.5025   20.2721 O   0  0  0  0  0  0  0  0  0  0  0  0
  -28.8759  -24.4074   20.7460 O   0  0  0  0  0  0  0  0  0  1  0  0
  -31.0088  -12.0963   16.5555 F   0  0  0  0  0  0  0  0  0  0  0  0
  -29.9344  -10.6944   20.9471 F   0  0  0  0  0  0  0  0  0  0  0  0
  1  2  1  0  0  0  0
  1  5  2  0  0  0  0
  2  6  2  0  0  0  0
  3  8  2  0  0  0  0
  3 16  1  0  0  0  0
  4  9  1  0  0  0  0
  4 16  2  0  0  0  0
  5 18  1  0  0  0  0
  6 20  1  0  0  0  0
  7 10  2  0  0  0  0
  7 19  1  0  0  0  0
  8 25  1  0  0  0  0
  9 25  2  0  0  0  0
 10 26  1  0  0  0  0
 11 12  2  0  0  0  0
 11 27  1  0  0  0  0
 12 28  1  0  0  0  0
 13 21  1  0  0  0  0
 13 26  2  0  0  0  0
 14 28  2  0  0  0  0
 14 29  1  0  0  0  0
 15 22  2  0  0  0  0
 15 72  1  0  0  0  0
 16 30  1  0  0  0  0
 17 30  1  0  0  0  0
 17 32  2  0  0  0  0
 17 33  1  0  0  0  0
 18 20  2  0  0  0  0
 18 38  1  0  0  0  0
 19 21  2  0  0  0  0
 19 39  1  0  0  0  0
 20 47  1  0  0  0  0
 21 40  1  0  0  0  0
 22 23  1  0  0  0  0
 22 59  1  0  0  0  0
 23 24  2  0  0  0  0
 23 67  1  0  0  0  0
 24 31  1  0  0  0  0
 24 60  1  0  0  0  0
 25 88  1  0  0  0  0
 26 89  1  0  0  0  0
 27 29  2  0  0  0  0
 27 88  1  0  0  0  0
 28 90  1  0  0  0  0
 29 91  1  0  0  0  0
 30 73  2  0  0  0  0
 31 61  1  0  0  0  0
 31 72  2  0  0  0  0
 32 74  1  0  0  0  0
 32 77  1  0  0  0  0
 33 78  1  0  0  0  0
 33 83  2  0  0  0  0
 34 48  1  0  0  0  0
 34 79  1  0  0  0  0
 34 84  2  0  0  0  0
 35 68  1  0  0  0  0
 35 75  1  0  0  0  0
 35 85  2  0  0  0  0
 36 69  1  0  0  0  0
 36 80  1  0  0  0  0
 36 86  2  0  0  0  0
 37 76  1  0  0  0  0
 37 81  1  0  0  0  0
 37 87  2  0  0  0  0
 38 41  1  0  0  0  0
 39 48  1  0  0  0  0
 40 75  1  0  0  0  0
 41 43  1  0  0  0  0
 42 44  1  0  0  0  0
 42 45  1  0  0  0  0
 43 47  1  0  0  0  0
 44 49  1  0  0  0  0
 45 76  1  0  0  0  0
 46 49  1  0  0  0  0
 46 76  1  0  0  0  0
 47 79  1  0  0  0  0
 48 75  1  0  0  0  0
 49 74  1  0  0  0  0
 50 62  1  0  0  0  0
 51 67  1  0  0  0  0
 52 69  1  0  0  0  0
 53 70  1  0  0  0  0
 54 70  1  0  0  0  0
 55 71  1  0  0  0  0
 56 71  1  0  0  0  0
 57 71  1  0  0  0  0
 58 82  1  0  0  0  0
 59 63  1  0  0  0  0
 60 64  1  0  0  0  0
 61 66  1  0  0  0  0
 62 67  1  0  0  0  0
 63 65  1  0  0  0  0
 64 70  1  0  0  0  0
 65 81  1  0  0  0  0
 66 89  1  0  0  0  0
 68 71  1  0  0  0  0
 68 80  1  0  0  0  0
 69 82  1  0  0  0  0
 73 74  1  0  0  0  0
M  CHG  1  82   1
M  ISO  4  37 100  66 101  81 100  89 101
M  END
> <Batch ID>
0093

> <Smiles>
CCC(C)c1c(CCC[100NH:0][100C:0](=O)N2CCCC(n3nc(-c4ccc(Oc5ccc(F)cc5F)cc4)c(C(N)=O)c3N)C2)cnc(C[101CH2:1][101O:1]c2ccc3c(c2)CN(C(=O)C(NC(=O)C(C)NC)C(C)(C)C)C(C(=O)NC2CCCc4ccccc42)C3)c1CCC(C)C

> <Shape>
0.274

> <Color>
0.052

> <Negative vol penalty>
0.000

$$$$

  -OEChem-04052319163D

 86 94  0     1  0  0  0  0  0999 V2000
  -28.7914  -36.0307   24.3153 C   0  0  0  0  0  0  0  0  0  0  0  0
  -28.9634  -34.7346   23.8400 C   0  0  0  0  0  0  0  0  0  0  0  0
  -26.5149  -12.5191   21.5691 C   0  0  0  0  0  0  0  0  0  0  0  0
  -26.1853  -13.3619   19.3290 C   0  0  0  0  0  0  0  0  0  0  0  0
  -27.6250  -36.3723   24.9985 C   0  0  0  0  0  0  0  0  0  0  0  0
  -27.9696  -33.7789   24.0486 C   0  0  0  0  0  0  0  0  0  0  0  0
  -27.0057  -31.0406   19.8993 C   0  0  0  0  0  0  0  0  0  0  0  0
  -25.2230  -11.9934   21.5615 C   0  0  0  0  0  0  0  0  0  0  0  0
  -24.8933  -12.8362   19.3213 C   0  0  0  0  0  0  0  0  0  0  0  0
  -27.9065  -30.0243   19.5836 C   0  0  0  0  0  0  0  0  0  0  0  0
  -23.6425   -9.2870   20.2926 C   0  0  0  0  0  0  0  0  0  0  0  0
  -23.4684   -7.9879   20.7697 C   0  0  0  0  0  0  0  0  0  0  0  0
  -26.4069  -28.4023   20.5528 C   0  0  0  0  0  0  0  0  0  0  0  0
  -21.9658   -8.8143   22.4716 C   0  0  0  0  0  0  0  0  0  0  0  0
  -27.6773  -22.0656   15.7364 C   0  0  0  0  0  0  0  0  0  0  0  0
  -26.9961  -13.2034   20.4529 C   0  0  0  0  0  0  0  0  0  0  0  0
  -29.5123  -13.1053   20.0448 C   0  0  0  0  0  0  0  0  0  0  0  0
  -26.6122  -35.4229   25.2072 C   0  0  0  0  0  0  0  0  0  0  0  0
  -25.8016  -30.7461   20.5550 C   0  0  0  0  0  0  0  0  0  0  0  0
  -26.7892  -34.1078   24.7365 C   0  0  0  0  0  0  0  0  0  0  0  0
  -25.4913  -29.4163   20.8734 C   0  0  0  0  0  0  0  0  0  0  0  0
  -28.6819  -22.1706   16.6768 C   0  0  0  0  0  0  0  0  0  0  0  0
  -24.4122  -12.1519   20.4376 C   0  0  0  0  0  0  0  0  0  0  0  0
  -27.6084  -28.7053   19.9129 C   0  0  0  0  0  0  0  0  0  0  0  0
  -22.9783  -10.3498   20.9050 C   0  0  0  0  0  0  0  0  0  0  0  0
  -22.6300   -7.7515   21.8592 C   0  0  0  0  0  0  0  0  0  0  0  0
  -22.1399  -10.1134   21.9945 C   0  0  0  0  0  0  0  0  0  0  0  0
  -28.3304  -13.7472   20.4604 C   0  0  0  0  0  0  0  0  0  0  0  0
  -29.1330  -20.9778   17.2040 C   0  0  0  0  0  0  0  0  0  0  0  0
  -30.4997  -14.0379   20.2495 C   0  0  0  0  0  0  0  0  0  0  0  0
  -27.6713  -19.8001   15.9221 C   0  0  0  0  0  0  0  0  0  0  0  0
  -29.7008  -11.7842   19.5206 C   0  0  0  0  0  0  0  0  0  0  0  0
  -24.5136  -31.5493   23.3478 C   0  0  0  0  0  0  0  0  0  0  0  0
  -21.9365  -29.9688   22.1718 C   0  0  0  0  0  0  0  0  0  0  0  0
  -20.7130  -27.6147   20.0252 C   0  0  0  0  0  0  0  0  0  0  0  0
  -30.4680  -20.0197   20.5092 C   0  0  0  0  0  0  0  0  0  0  0  0
  -25.3895  -35.8265   25.9927 C   0  0  0  0  0  0  0  0  0  0  0  0
  -24.8285  -31.8504   20.8646 C   0  0  0  0  0  0  0  0  0  0  0  0
  -24.2029  -29.0450   21.5594 C   0  0  0  0  0  0  0  0  0  0  0  0
  -24.2221  -34.8541   25.8447 C   0  0  0  0  0  0  0  0  0  0  0  0
  -31.6044  -17.7735   23.0271 C   0  0  0  0  0  0  0  0  0  0  0  0
  -24.7023  -33.4152   26.0057 C   0  0  0  0  0  0  0  0  0  0  0  0
  -31.0008  -16.4290   22.6174 C   0  0  0  0  0  0  0  0  0  0  0  0
  -30.6565  -18.9326   22.7271 C   0  0  0  0  0  0  0  0  0  0  0  0
  -29.5708  -17.6493   20.9248 C   0  0  0  0  0  0  0  0  0  0  0  0
  -25.7232  -33.0497   24.9214 C   0  0  1  0  0  0  0  0  0  0  0  0
  -23.8647  -31.4984   21.9935 C   0  0  1  0  0  0  0  0  0  0  0  0
  -30.5128  -16.4554   21.1564 C   0  0  2  0  0  0  0  0  0  0  0  0
  -31.6206  -20.8892   17.6110 C   0  0  0  0  0  0  0  0  0  0  0  0
  -26.4369  -17.7323   16.6665 C   0  0  0  0  0  0  0  0  0  0  0  0
  -28.1657  -17.5787   14.8381 C   0  0  0  0  0  0  0  0  0  0  0  0
  -18.5696  -26.5177   19.3181 C   0  0  0  0  0  0  0  0  0  0  0  0
  -21.9490  -28.3024   24.7278 C   0  0  0  0  0  0  0  0  0  0  0  0
  -20.4542  -26.6554   23.5785 C   0  0  0  0  0  0  0  0  0  0  0  0
  -19.6771  -28.9970   23.9465 C   0  0  0  0  0  0  0  0  0  0  0  0
  -21.0014  -28.5803   17.2425 C   0  0  0  0  0  0  0  0  0  0  0  0
  -29.2327  -23.5139   17.0843 C   0  0  0  0  0  0  0  0  0  0  0  0
  -28.3159  -24.2980   18.0296 C   0  0  0  0  0  0  0  0  0  0  0  0
  -28.8550  -25.6881   18.3700 C   0  0  0  0  0  0  0  0  0  0  0  0
  -27.9390  -26.4207   19.3410 C   0  0  0  0  0  0  0  0  0  1  0  0
  -30.2181  -20.9686   18.2297 C   0  0  2  0  0  0  0  0  0  0  0  0
  -27.1106  -18.4834   15.5024 C   0  0  0  0  0  0  0  0  0  0  0  0
  -21.4522  -28.5393   22.2053 C   0  0  1  0  0  0  0  0  0  0  0  0
  -19.5505  -27.6483   19.0495 C   0  0  2  0  0  0  0  0  0  0  0  0
  -20.9084  -28.1304   23.6034 C   0  0  0  0  0  0  0  0  0  0  0  0
  -27.1467  -20.8922   15.3342 N   0  0  0  0  0  0  0  0  0  0  0  0
  -28.5452  -14.9913   20.8964 N   0  0  0  0  0  0  0  0  0  0  0  0
  -28.6484  -19.7699   16.8483 N   0  0  0  0  0  0  0  0  0  0  0  0
  -29.8736  -15.1387   20.7559 N   0  0  0  0  0  0  0  0  0  0  0  0
  -23.2868  -30.1610   21.8469 N   0  0  0  0  0  0  0  0  0  0  0  0
  -30.2323  -18.9011   21.3253 N   0  0  0  0  0  0  0  0  0  0  0  0
  -31.8338  -14.0154   20.0440 N   0  0  0  0  0  0  0  0  0  0  0  0
  -28.5790  -10.9567   19.3751 N   0  0  0  0  0  0  0  0  0  0  0  0
  -25.0536  -32.7805   23.6670 N   0  0  0  0  0  0  0  0  0  0  0  0
  -20.4796  -28.4124   21.1253 N   0  0  0  0  0  0  0  0  0  0  0  0
  -30.0403  -19.9043   19.1922 N   0  0  0  0  0  0  0  0  0  0  0  0
  -20.0452  -27.5187   17.6497 N   0  3  0  0  0  0  0  0  0  0  0  0
  -30.8329  -11.3446   19.2062 O   0  0  0  0  0  0  0  0  0  0  0  0
  -24.5224  -30.5462   24.0516 O   0  0  0  0  0  0  0  0  0  0  0  0
  -21.1441  -30.8816   22.4177 O   0  0  0  0  0  0  0  0  0  0  0  0
  -21.7251  -26.9446   19.8326 O   0  0  0  0  0  0  0  0  0  0  0  0
  -31.0237  -21.0433   20.9222 O   0  0  0  0  0  0  0  0  0  0  0  0
  -23.1515  -11.6388   20.4296 O   0  0  0  0  0  0  0  0  0  0  0  0
  -28.4862  -27.7116   19.6065 O   0  0  0  0  0  0  0  0  0  1  0  0
  -22.4618   -6.5038   22.3163 F   0  0  0  0  0  0  0  0  0  0  0  0
  -21.4982  -11.1303   22.5862 F   0  0  0  0  0  0  0  0  0  0  0  0
  1  2  1  0  0  0  0
  1  5  2  0  0  0  0
  2  6  2  0  0  0  0
  3  8  2  0  0  0  0
  3 16  1  0  0  0  0
  4  9  1  0  0  0  0
  4 16  2  0  0  0  0
  5 18  1  0  0  0  0
  6 20  1  0  0  0  0
  7 10  2  0  0  0  0
  7 19  1  0  0  0  0
  8 23  1  0  0  0  0
  9 23  2  0  0  0  0
 10 24  1  0  0  0  0
 11 12  2  0  0  0  0
 11 25  1  0  0  0  0
 12 26  1  0  0  0  0
 13 21  1  0  0  0  0
 13 24  2  0  0  0  0
 14 26  2  0  0  0  0
 14 27  1  0  0  0  0
 15 22  1  0  0  0  0
 15 66  2  0  0  0  0
 16 28  1  0  0  0  0
 17 28  1  0  0  0  0
 17 30  2  0  0  0  0
 17 32  1  0  0  0  0
 18 20  2  0  0  0  0
 18 37  1  0  0  0  0
 19 21  2  0  0  0  0
 19 38  1  0  0  0  0
 20 46  1  0  0  0  0
 21 39  1  0  0  0  0
 22 29  2  0  0  0  0
 22 57  1  0  0  0  0
 23 83  1  0  0  0  0
 24 84  1  0  0  0  0
 25 27  2  0  0  0  0
 25 83  1  0  0  0  0
 26 85  1  0  0  0  0
 27 86  1  0  0  0  0
 28 67  2  0  0  0  0
 29 61  1  0  0  0  0
 29 68  1  0  0  0  0
 30 69  1  0  0  0  0
 30 72  1  0  0  0  0
 31 62  1  0  0  0  0
 31 66  1  0  0  0  0
 31 68  2  0  0  0  0
 32 73  1  0  0  0  0
 32 78  2  0  0  0  0
 33 47  1  0  0  0  0
 33 74  1  0  0  0  0
 33 79  2  0  0  0  0
 34 63  1  0  0  0  0
 34 70  1  0  0  0  0
 34 80  2  0  0  0  0
 35 64  1  0  0  0  0
 35 75  1  0  0  0  0
 35 81  2  0  0  0  0
 36 71  1  0  0  0  0
 36 76  1  0  0  0  0
 36 82  2  0  0  0  0
 37 40  1  0  0  0  0
 38 47  1  0  0  0  0
 39 70  1  0  0  0  0
 40 42  1  0  0  0  0
 41 43  1  0  0  0  0
 41 44  1  0  0  0  0
 42 46  1  0  0  0  0
 43 48  1  0  0  0  0
 44 71  1  0  0  0  0
 45 48  1  0  0  0  0
 45 71  1  0  0  0  0
 46 74  1  0  0  0  0
 47 70  1  0  0  0  0
 48 69  1  0  0  0  0
 49 61  1  0  0  0  0
 50 62  1  0  0  0  0
 51 62  1  0  0  0  0
 52 64  1  0  0  0  0
 53 65  1  0  0  0  0
 54 65  1  0  0  0  0
 55 65  1  0  0  0  0
 56 77  1  0  0  0  0
 57 58  1  0  0  0  0
 58 59  1  0  0  0  0
 59 60  1  0  0  0  0
 60 84  1  0  0  0  0
 61 76  1  0  0  0  0
 63 65  1  0  0  0  0
 63 75  1  0  0  0  0
 64 77  1  0  0  0  0
 67 69  1  0  0  0  0
M  CHG  1  77   1
M  ISO  4  36 100  60 101  76 100  84 101
M  END
> <Batch ID>
0093

> <Smiles>
CNC(C)C(=O)NC(C(=O)N1Cc2cc([101O:1][101CH2:1]CCCc3cnc(C(C)C)nc3C(C)[100NH:0][100C:0](=O)N3CCCC(n4nc(-c5ccc(Oc6ccc(F)cc6F)cc5)c(C(N)=O)c4N)C3)ccc2CC1C(=O)NC1CCCc2ccccc21)C(C)(C)C

> <Shape>
0.331

> <Color>
0.071

> <Negative vol penalty>
0.000

$$$$

  -OEChem-04052319163D

 85 93  0     1  0  0  0  0  0999 V2000
  -26.9913   -9.3706   21.4593 C   0  0  0  0  0  0  0  0  0  0  0  0
  -27.7633  -10.5020   21.2154 C   0  0  0  0  0  0  0  0  0  0  0  0
  -19.8172  -28.6125   22.4954 C   0  0  0  0  0  0  0  0  0  0  0  0
  -20.7395  -26.3987   22.7877 C   0  0  0  0  0  0  0  0  0  0  0  0
  -25.6057   -9.4293   21.3160 C   0  0  0  0  0  0  0  0  0  0  0  0
  -27.1500  -11.6926   20.8270 C   0  0  0  0  0  0  0  0  0  0  0  0
  -28.8896  -17.3786   22.2930 C   0  0  0  0  0  0  0  0  0  0  0  0
  -18.5289  -28.0783   22.5140 C   0  0  0  0  0  0  0  0  0  0  0  0
  -19.4511  -25.8644   22.8063 C   0  0  0  0  0  0  0  0  0  0  0  0
  -29.6292  -18.3398   21.6054 C   0  0  0  0  0  0  0  0  0  0  0  0
  -16.9054  -25.5814   25.0108 C   0  0  0  0  0  0  0  0  0  0  0  0
  -16.6117  -24.6357   25.9932 C   0  0  0  0  0  0  0  0  0  0  0  0
  -27.5813  -19.3589   20.8394 C   0  0  0  0  0  0  0  0  0  0  0  0
  -16.0996  -23.0131   24.2780 C   0  0  0  0  0  0  0  0  0  0  0  0
  -20.9225  -27.7727   22.6322 C   0  0  0  0  0  0  0  0  0  0  0  0
  -23.0011  -28.7805   23.7146 C   0  0  0  0  0  0  0  0  0  0  0  0
  -24.9743  -10.6238   20.9350 C   0  0  0  0  0  0  0  0  0  0  0  0
  -27.4880  -17.3938   22.2499 C   0  0  0  0  0  0  0  0  0  0  0  0
  -25.7548  -11.7669   20.6771 C   0  0  0  0  0  0  0  0  0  0  0  0
  -26.8262  -18.3983   21.5294 C   0  0  0  0  0  0  0  0  0  0  0  0
  -18.3458  -26.7043   22.6695 C   0  0  0  0  0  0  0  0  0  0  0  0
  -28.9751  -19.3285   20.8761 C   0  0  0  0  0  0  0  0  0  0  0  0
  -16.7961  -25.2429   23.6620 C   0  0  0  0  0  0  0  0  0  0  0  0
  -16.2088  -23.3515   25.6268 C   0  0  0  0  0  0  0  0  0  0  0  0
  -16.3932  -23.9588   23.2956 C   0  0  0  0  0  0  0  0  0  0  0  0
  -22.2537  -28.3239   22.6125 C   0  0  0  0  0  0  0  0  0  0  0  0
  -24.1899  -29.2031   23.1718 C   0  0  0  0  0  0  0  0  0  0  0  0
  -22.6520  -28.8190   25.1047 C   0  0  0  0  0  0  0  0  0  0  0  0
  -25.2541  -15.3900   21.2021 C   0  0  0  0  0  0  0  0  0  0  0  0
  -23.2402  -17.5460   22.5505 C   0  0  0  0  0  0  0  0  0  0  0  0
  -22.7017  -20.7515   23.5906 C   0  0  0  0  0  0  0  0  0  0  0  0
  -27.8662  -27.7264   19.0833 C   0  0  0  0  0  0  0  0  0  0  0  0
  -23.4779  -10.6260   20.7472 C   0  0  0  0  0  0  0  0  0  0  0  0
  -26.7044  -16.3657   23.0189 C   0  0  0  0  0  0  0  0  0  0  0  0
  -25.3230  -18.4708   21.4679 C   0  0  0  0  0  0  0  0  0  0  0  0
  -22.8726  -12.0264   20.6956 C   0  0  0  0  0  0  0  0  0  0  0  0
  -25.6689  -30.5701   18.6555 C   0  0  0  0  0  0  0  0  0  0  0  0
  -23.6859  -12.9258   19.7701 C   0  0  0  0  0  0  0  0  0  0  0  0
  -32.6303  -22.5037   20.9543 C   0  0  0  0  0  0  0  0  0  0  0  0
  -30.1519  -23.0078   20.8549 C   0  0  0  0  0  0  0  0  0  0  0  0
  -24.6305  -30.3195   19.7505 C   0  0  0  0  0  0  0  0  0  0  0  0
  -32.9401  -23.9674   20.6409 C   0  0  0  0  0  0  0  0  0  0  0  0
  -30.4626  -24.4713   20.5417 C   0  0  0  0  0  0  0  0  0  0  0  0
  -26.1137  -29.2630   18.0060 C   0  0  0  0  0  0  0  0  0  0  0  0
  -25.6031  -27.9957   20.0571 C   0  0  0  0  0  0  0  0  0  0  0  0
  -25.1242  -13.0835   20.2781 C   0  0  1  0  0  0  0  0  0  0  0  0
  -25.2885  -16.1715   22.4850 C   0  0  1  0  0  0  0  0  0  0  0  0
  -31.2738  -22.0748   20.3765 C   0  0  0  0  0  0  0  0  0  0  0  0
  -25.1297  -29.2766   20.7680 C   0  0  2  0  0  0  0  0  0  0  0  0
  -31.8139  -24.8773   21.1235 C   0  0  0  0  0  0  0  0  0  0  0  0
  -20.9451  -22.2206   24.6170 C   0  0  0  0  0  0  0  0  0  0  0  0
  -31.1933  -29.8253   18.1451 C   0  0  0  0  0  0  0  0  0  0  0  0
  -21.7889  -17.6793   19.8698 C   0  0  0  0  0  0  0  0  0  0  0  0
  -20.6954  -19.7936   20.6459 C   0  0  0  0  0  0  0  0  0  0  0  0
  -20.2869  -17.6585   21.8694 C   0  0  0  0  0  0  0  0  0  0  0  0
  -24.3875  -21.3109   25.9579 C   0  0  0  0  0  0  0  0  0  0  0  0
  -33.0431  -26.9713   21.6753 C   0  0  0  0  0  0  0  0  0  0  0  0
  -30.9642  -20.6258   20.7478 C   0  0  0  0  0  0  0  0  0  1  0  0
  -32.5368  -27.7958   18.7800 C   0  0  0  0  0  0  0  0  0  0  0  0
  -30.0890  -27.5566   17.9937 C   0  0  0  0  0  0  0  0  0  0  0  0
  -32.6247  -26.3634   19.2971 C   0  0  0  0  0  0  0  0  0  0  0  0
  -22.5363  -18.7942   22.0754 C   0  0  1  0  0  0  0  0  0  0  0  0
  -22.1329  -21.3090   24.8830 C   0  0  2  0  0  0  0  0  0  0  0  0
  -31.1225  -28.4134   18.7401 C   0  0  2  0  0  0  0  0  0  0  0  0
  -21.3552  -18.4792   21.1145 C   0  0  0  0  0  0  0  0  0  0  0  0
  -22.9124  -28.4452   21.4569 N   0  0  0  0  0  0  0  0  0  0  0  0
  -24.0862  -28.9829   21.8299 N   0  0  0  0  0  0  0  0  0  0  0  0
  -24.6012  -17.4393   22.2313 N   0  0  0  0  0  0  0  0  0  0  0  0
  -26.5947  -28.3211   19.0265 N   0  0  0  0  0  0  0  0  0  0  0  0
  -25.3034  -29.7381   23.7163 N   0  0  0  0  0  0  0  0  0  0  0  0
  -21.3906  -28.3453   25.4902 N   0  0  0  0  0  0  0  0  0  0  0  0
  -25.1714  -14.0220   21.3787 N   0  0  0  0  0  0  0  0  0  0  0  0
  -22.1504  -19.5274   23.2762 N   0  0  0  0  0  0  0  0  0  0  0  0
  -28.7437  -28.0819   18.0663 N   0  0  0  0  0  0  0  0  0  0  0  0
  -23.1717  -22.0910   25.6112 N   0  3  0  0  0  0  0  0  0  0  0  0
  -32.1145  -26.2745   20.7131 N   0  3  1  0  0  0  0  0  0  0  0  0
  -23.4292  -29.2758   25.9770 O   0  0  0  0  0  0  0  0  0  0  0  0
  -25.2976  -15.9843   20.1313 O   0  0  0  0  0  0  0  0  0  0  0  0
  -22.6074  -16.7003   23.1877 O   0  0  0  0  0  0  0  0  0  0  0  0
  -23.5474  -21.3444   22.9246 O   0  0  0  0  0  0  0  0  0  0  0  0
  -28.1971  -26.9405   19.9776 O   0  0  0  0  0  0  0  0  0  0  0  0
  -17.0887  -26.1827   22.6879 O   0  0  0  0  0  0  0  0  0  0  0  0
  -29.6946  -20.2676   20.2036 O   0  0  0  0  0  0  0  0  0  1  0  0
  -15.9283  -22.4430   26.5703 F   0  0  0  0  0  0  0  0  0  0  0  0
  -16.2875  -23.6274   22.0015 F   0  0  0  0  0  0  0  0  0  0  0  0
  1  2  1  0  0  0  0
  1  5  2  0  0  0  0
  2  6  2  0  0  0  0
  3  8  2  0  0  0  0
  3 15  1  0  0  0  0
  4  9  1  0  0  0  0
  4 15  2  0  0  0  0
  5 17  1  0  0  0  0
  6 19  1  0  0  0  0
  7 10  2  0  0  0  0
  7 18  1  0  0  0  0
  8 21  1  0  0  0  0
  9 21  2  0  0  0  0
 10 22  1  0  0  0  0
 11 12  2  0  0  0  0
 11 23  1  0  0  0  0
 12 24  1  0  0  0  0
 13 20  1  0  0  0  0
 13 22  2  0  0  0  0
 14 24  2  0  0  0  0
 14 25  1  0  0  0  0
 15 26  1  0  0  0  0
 16 26  1  0  0  0  0
 16 27  2  0  0  0  0
 16 28  1  0  0  0  0
 17 19  2  0  0  0  0
 17 33  1  0  0  0  0
 18 20  2  0  0  0  0
 18 34  1  0  0  0  0
 19 46  1  0  0  0  0
 20 35  1  0  0  0  0
 21 82  1  0  0  0  0
 22 83  1  0  0  0  0
 23 25  2  0  0  0  0
 23 82  1  0  0  0  0
 24 84  1  0  0  0  0
 25 85  1  0  0  0  0
 26 66  2  0  0  0  0
 27 67  1  0  0  0  0
 27 70  1  0  0  0  0
 28 71  1  0  0  0  0
 28 77  2  0  0  0  0
 29 47  1  0  0  0  0
 29 72  1  0  0  0  0
 29 78  2  0  0  0  0
 30 62  1  0  0  0  0
 30 68  1  0  0  0  0
 30 79  2  0  0  0  0
 31 63  1  0  0  0  0
 31 73  1  0  0  0  0
 31 80  2  0  0  0  0
 32 69  1  0  0  0  0
 32 74  1  0  0  0  0
 32 81  2  0  0  0  0
 33 36  1  0  0  0  0
 34 47  1  0  0  0  0
 35 68  1  0  0  0  0
 36 38  1  0  0  0  0
 37 41  1  0  0  0  0
 37 44  1  0  0  0  0
 38 46  1  0  0  0  0
 39 42  1  0  0  0  0
 39 48  1  0  0  0  0
 40 43  1  0  0  0  0
 40 48  1  0  0  0  0
 41 49  1  0  0  0  0
 42 50  1  0  0  0  0
 43 50  1  0  0  0  0
 44 69  1  0  0  0  0
 45 49  1  0  0  0  0
 45 69  1  0  0  0  0
 46 72  1  0  0  0  0
 47 68  1  0  0  0  0
 48 58  1  0  0  0  0
 49 67  1  0  0  0  0
 50 76  1  0  0  0  0
 51 63  1  0  0  0  0
 52 64  1  0  0  0  0
 53 65  1  0  0  0  0
 54 65  1  0  0  0  0
 55 65  1  0  0  0  0
 56 75  1  0  0  0  0
 57 76  1  0  0  0  0
 58 83  1  0  0  0  0
 59 61  1  0  0  0  0
 59 64  1  0  0  0  0
 60 64  1  0  0  0  0
 60 74  1  0  0  0  0
 61 76  1  0  0  0  0
 62 65  1  0  0  0  0
 62 73  1  0  0  0  0
 63 75  1  0  0  0  0
 66 67  1  0  0  0  0
M  CHG  2  75   1  76   1
M  ISO  4  32 100  58 101  74 100  83 101
M  END
> <Batch ID>
0093

> <Smiles>
CNC(C)C(=O)NC(C(=O)N1Cc2cc([101O:1][101CH2:1]C3CCC(N(C)CCC(C)C[100NH:0][100C:0](=O)N4CCCC(n5nc(-c6ccc(Oc7ccc(F)cc7F)cc6)c(C(N)=O)c5N)C4)CC3)ccc2CC1C(=O)NC1CCCc2ccccc21)C(C)(C)C

> <Shape>
0.196

> <Color>
0.066

> <Negative vol penalty>
0.000

$$$$

  -OEChem-04052319163D

 87 95  0     1  0  0  0  0  0999 V2000
  -25.5465  -13.7855   30.2927 C   0  0  0  0  0  0  0  0  0  0  0  0
  -26.0789  -12.9088   29.3528 C   0  0  0  0  0  0  0  0  0  0  0  0
  -23.2862   -9.8003   19.9134 C   0  0  0  0  0  0  0  0  0  0  0  0
  -23.7340   -9.9421   22.2833 C   0  0  0  0  0  0  0  0  0  0  0  0
  -25.4477  -13.3979   31.6283 C   0  0  0  0  0  0  0  0  0  0  0  0
  -26.5139  -11.6443   29.7483 C   0  0  0  0  0  0  0  0  0  0  0  0
  -24.9857   -7.9895   26.5936 C   0  0  0  0  0  0  0  0  0  0  0  0
  -22.5586   -8.6286   20.1209 C   0  0  0  0  0  0  0  0  0  0  0  0
  -23.0063   -8.7703   22.4908 C   0  0  0  0  0  0  0  0  0  0  0  0
  -25.6858   -7.8479   25.3963 C   0  0  0  0  0  0  0  0  0  0  0  0
  -20.8853   -5.4030   19.9825 C   0  0  0  0  0  0  0  0  0  0  0  0
  -21.1104   -4.3355   19.1134 C   0  0  0  0  0  0  0  0  0  0  0  0
  -26.9200   -6.0041   26.3431 C   0  0  0  0  0  0  0  0  0  0  0  0
  -29.8089   -8.7552   25.6080 C   0  0  0  0  0  0  0  0  0  0  0  0
  -31.2176   -9.7159   23.8964 C   0  0  0  0  0  0  0  0  0  0  0  0
  -23.4325   -4.2837   19.7785 C   0  0  0  0  0  0  0  0  0  0  0  0
  -23.8740  -10.4571   20.9946 C   0  0  0  0  0  0  0  0  0  0  0  0
  -24.1357  -12.9868   20.7947 C   0  0  0  0  0  0  0  0  0  0  0  0
  -25.8728  -12.1245   32.0387 C   0  0  0  0  0  0  0  0  0  0  0  0
  -25.2555   -7.1450   27.6801 C   0  0  0  0  0  0  0  0  0  0  0  0
  -26.4219  -11.2399   31.0909 C   0  0  0  0  0  0  0  0  0  0  0  0
  -26.2201   -6.1354   27.5522 C   0  0  0  0  0  0  0  0  0  0  0  0
  -30.3726   -8.6959   24.3335 C   0  0  0  0  0  0  0  0  0  0  0  0
  -30.0903   -9.8347   26.4454 C   0  0  0  0  0  0  0  0  0  0  0  0
  -31.4990  -10.7954   24.7338 C   0  0  0  0  0  0  0  0  0  0  0  0
  -30.9353  -10.8548   26.0083 C   0  0  0  0  0  0  0  0  0  0  0  0
  -22.4186   -8.1135   21.4096 C   0  0  0  0  0  0  0  0  0  0  0  0
  -26.6552   -6.8570   25.2719 C   0  0  0  0  0  0  0  0  0  0  0  0
  -21.9338   -5.9109   20.7496 C   0  0  0  0  0  0  0  0  0  0  0  0
  -22.3840   -3.7758   19.0114 C   0  0  0  0  0  0  0  0  0  0  0  0
  -23.2073   -5.3513   20.6476 C   0  0  0  0  0  0  0  0  0  0  0  0
  -24.6262  -11.6673   20.7807 C   0  0  0  0  0  0  0  0  0  0  0  0
  -25.2382  -13.7656   20.5407 C   0  0  0  0  0  0  0  0  0  0  0  0
  -22.8028  -13.4656   21.0174 C   0  0  0  0  0  0  0  0  0  0  0  0
  -26.3256   -7.5735   30.6424 C   0  0  0  0  0  0  0  0  0  0  0  0
  -25.6698   -4.4089   30.9204 C   0  0  0  0  0  0  0  0  0  0  0  0
  -25.2396   -1.3931   29.3818 C   0  0  0  0  0  0  0  0  0  0  0  0
  -31.1074  -12.9182   21.3687 C   0  0  0  0  0  0  0  0  0  0  0  0
  -25.7897  -11.7680   33.5018 C   0  0  0  0  0  0  0  0  0  0  0  0
  -24.4727   -7.2935   28.9559 C   0  0  0  0  0  0  0  0  0  0  0  0
  -26.5332   -5.1900   28.6822 C   0  0  0  0  0  0  0  0  0  0  0  0
  -25.9271  -10.2721   33.7730 C   0  0  0  0  0  0  0  0  0  0  0  0
  -29.4632  -13.6570   18.2983 C   0  0  0  0  0  0  0  0  0  0  0  0
  -27.0986   -9.6924   32.9865 C   0  0  0  0  0  0  0  0  0  0  0  0
  -27.9928  -13.3499   18.5876 C   0  0  0  0  0  0  0  0  0  0  0  0
  -30.3947  -12.6773   19.0085 C   0  0  0  0  0  0  0  0  0  0  0  0
  -28.7054  -12.2505   20.7514 C   0  0  0  0  0  0  0  0  0  0  0  0
  -26.8816   -9.8507   31.4767 C   0  0  1  0  0  0  0  0  0  0  0  0
  -25.1908   -6.7100   30.1689 C   0  0  1  0  0  0  0  0  0  0  0  0
  -27.7291  -13.2461   20.1018 C   0  0  2  0  0  0  0  0  0  0  0  0
  -29.4748   -9.8738   27.8060 C   0  0  0  0  0  0  0  0  0  0  0  0
  -24.7497    1.0180   29.8754 C   0  0  0  0  0  0  0  0  0  0  0  0
  -33.2543  -10.9151   28.0140 C   0  0  0  0  0  0  0  0  0  0  0  0
  -32.1298  -12.8645   29.1090 C   0  0  0  0  0  0  0  0  0  0  0  0
  -28.5369   -4.0278   31.8923 C   0  0  0  0  0  0  0  0  0  0  0  0
  -28.2842   -1.5751   31.4581 C   0  0  0  0  0  0  0  0  0  0  0  0
  -26.8264   -2.6985   33.1420 C   0  0  0  0  0  0  0  0  0  0  0  0
  -22.7477   -1.4525   27.7863 C   0  0  0  0  0  0  0  0  0  0  0  0
  -30.0679   -7.5293   23.4279 C   0  0  0  0  0  0  0  0  0  0  0  0
  -32.4072  -11.8748   24.2420 C   0  0  0  0  0  0  0  0  0  0  0  0
  -31.2372  -12.0118   26.9066 C   0  0  0  0  0  0  0  0  0  0  0  0
  -28.8410   -7.7437   22.5390 C   0  0  0  0  0  0  0  0  0  0  0  0
  -31.6662  -13.1330   23.7771 C   0  0  0  0  0  0  0  0  0  0  0  0
  -27.5443   -7.8953   23.3258 C   0  0  0  0  0  0  0  0  0  1  0  0
  -26.4397   -3.1325   30.6815 C   0  0  1  0  0  0  0  0  0  0  0  0
  -24.1579   -0.3370   29.5200 C   0  0  2  0  0  0  0  0  0  0  0  0
  -31.9156  -11.6220   28.2410 C   0  0  0  0  0  0  0  0  0  0  0  0
  -27.5175   -2.8774   31.7726 C   0  0  0  0  0  0  0  0  0  0  0  0
  -25.9381  -11.6074   20.5370 N   0  0  0  0  0  0  0  0  0  0  0  0
  -26.2813  -12.8990   20.3953 N   0  0  0  0  0  0  0  0  0  0  0  0
  -25.7453   -5.3794   29.9114 N   0  0  0  0  0  0  0  0  0  0  0  0
  -30.0935  -12.6271   20.4412 N   0  0  0  0  0  0  0  0  0  0  0  0
  -25.4074  -15.1003   20.4296 N   0  0  0  0  0  0  0  0  0  0  0  0
  -21.7891  -12.5297   21.2641 N   0  0  0  0  0  0  0  0  0  0  0  0
  -25.9485   -8.8557   30.9932 N   0  0  0  0  0  0  0  0  0  0  0  0
  -25.4450   -2.0716   30.5645 N   0  0  0  0  0  0  0  0  0  0  0  0
  -30.7358  -12.8538   22.7060 N   0  0  0  0  0  0  0  0  0  0  0  0
  -23.4022   -0.1995   28.2430 N   0  3  0  0  0  0  0  0  0  0  0  0
  -22.5159  -14.6863   20.9819 O   0  0  0  0  0  0  0  0  0  0  0  0
  -27.4592   -7.1102   30.6876 O   0  0  0  0  0  0  0  0  0  0  0  0
  -25.0193   -4.5370   31.9607 O   0  0  0  0  0  0  0  0  0  0  0  0
  -25.8446   -1.5935   28.3309 O   0  0  0  0  0  0  0  0  0  0  0  0
  -32.2571  -13.2188   21.0299 O   0  0  0  0  0  0  0  0  0  0  0  0
  -21.7085   -6.9703   21.6125 O   0  0  0  0  0  0  0  0  0  0  0  0
  -27.3406   -6.7171   24.1046 O   0  0  0  0  0  0  0  0  0  1  0  0
  -22.5997   -2.7497   18.1780 F   0  0  0  0  0  0  0  0  0  0  0  0
  -24.2183   -5.8342   21.3829 F   0  0  0  0  0  0  0  0  0  0  0  0
  1  2  1  0  0  0  0
  1  5  2  0  0  0  0
  2  6  2  0  0  0  0
  3  8  2  0  0  0  0
  3 17  1  0  0  0  0
  4  9  1  0  0  0  0
  4 17  2  0  0  0  0
  5 19  1  0  0  0  0
  6 21  1  0  0  0  0
  7 10  2  0  0  0  0
  7 20  1  0  0  0  0
  8 27  1  0  0  0  0
  9 27  2  0  0  0  0
 10 28  1  0  0  0  0
 11 12  2  0  0  0  0
 11 29  1  0  0  0  0
 12 30  1  0  0  0  0
 13 22  1  0  0  0  0
 13 28  2  0  0  0  0
 14 23  1  0  0  0  0
 14 24  2  0  0  0  0
 15 23  2  0  0  0  0
 15 25  1  0  0  0  0
 16 30  2  0  0  0  0
 16 31  1  0  0  0  0
 17 32  1  0  0  0  0
 18 32  1  0  0  0  0
 18 33  2  0  0  0  0
 18 34  1  0  0  0  0
 19 21  2  0  0  0  0
 19 39  1  0  0  0  0
 20 22  2  0  0  0  0
 20 40  1  0  0  0  0
 21 48  1  0  0  0  0
 22 41  1  0  0  0  0
 23 59  1  0  0  0  0
 24 26  1  0  0  0  0
 24 51  1  0  0  0  0
 25 26  2  0  0  0  0
 25 60  1  0  0  0  0
 26 61  1  0  0  0  0
 27 84  1  0  0  0  0
 28 85  1  0  0  0  0
 29 31  2  0  0  0  0
 29 84  1  0  0  0  0
 30 86  1  0  0  0  0
 31 87  1  0  0  0  0
 32 69  2  0  0  0  0
 33 70  1  0  0  0  0
 33 73  1  0  0  0  0
 34 74  1  0  0  0  0
 34 79  2  0  0  0  0
 35 49  1  0  0  0  0
 35 75  1  0  0  0  0
 35 80  2  0  0  0  0
 36 65  1  0  0  0  0
 36 71  1  0  0  0  0
 36 81  2  0  0  0  0
 37 66  1  0  0  0  0
 37 76  1  0  0  0  0
 37 82  2  0  0  0  0
 38 72  1  0  0  0  0
 38 77  1  0  0  0  0
 38 83  2  0  0  0  0
 39 42  1  0  0  0  0
 40 49  1  0  0  0  0
 41 71  1  0  0  0  0
 42 44  1  0  0  0  0
 43 45  1  0  0  0  0
 43 46  1  0  0  0  0
 44 48  1  0  0  0  0
 45 50  1  0  0  0  0
 46 72  1  0  0  0  0
 47 50  1  0  0  0  0
 47 72  1  0  0  0  0
 48 75  1  0  0  0  0
 49 71  1  0  0  0  0
 50 70  1  0  0  0  0
 52 66  1  0  0  0  0
 53 67  1  0  0  0  0
 54 67  1  0  0  0  0
 55 68  1  0  0  0  0
 56 68  1  0  0  0  0
 57 68  1  0  0  0  0
 58 78  1  0  0  0  0
 59 62  1  0  0  0  0
 60 63  1  0  0  0  0
 61 67  1  0  0  0  0
 62 64  1  0  0  0  0
 63 77  1  0  0  0  0
 64 85  1  0  0  0  0
 65 68  1  0  0  0  0
 65 76  1  0  0  0  0
 66 78  1  0  0  0  0
 69 70  1  0  0  0  0
M  CHG  1  78   1
M  ISO  4  38 100  64 101  77 100  85 101
M  END
> <Batch ID>
0093

> <Smiles>
CNC(C)C(=O)NC(C(=O)N1Cc2cc([101O:1][101CH2:1]CCc3cc(C)c(CC(C)C)c(CC[100NH:0][100C:0](=O)N4CCCC(n5nc(-c6ccc(Oc7ccc(F)cc7F)cc6)c(C(N)=O)c5N)C4)c3)ccc2CC1C(=O)NC1CCCc2ccccc21)C(C)(C)C

> <Shape>
0.119

> <Color>
0.178

> <Negative vol penalty>
0.000

$$$$

  -OEChem-04052319163D

 84 92  0     1  0  0  0  0  0999 V2000
  -21.6795  -11.8500   21.2103 C   0  0  0  0  0  0  0  0  0  0  0  0
  -21.8517  -13.0711   21.8543 C   0  0  0  0  0  0  0  0  0  0  0  0
  -25.0202  -28.0676   19.1156 C   0  0  0  0  0  0  0  0  0  0  0  0
  -25.7801  -28.0609   21.4090 C   0  0  0  0  0  0  0  0  0  0  0  0
  -22.7615  -11.2370   20.5799 C   0  0  0  0  0  0  0  0  0  0  0  0
  -23.1064  -13.6793   21.8693 C   0  0  0  0  0  0  0  0  0  0  0  0
  -22.8756  -18.6347   20.8516 C   0  0  0  0  0  0  0  0  0  0  0  0
  -26.1775  -28.7464   18.7341 C   0  0  0  0  0  0  0  0  0  0  0  0
  -26.9375  -28.7396   21.0275 C   0  0  0  0  0  0  0  0  0  0  0  0
  -22.4626  -19.4778   21.8822 C   0  0  0  0  0  0  0  0  0  0  0  0
  -30.2602  -30.1523   20.6011 C   0  0  0  0  0  0  0  0  0  0  0  0
  -31.4759  -29.7039   21.1175 C   0  0  0  0  0  0  0  0  0  0  0  0
  -24.7631  -20.0526   22.3258 C   0  0  0  0  0  0  0  0  0  0  0  0
  -19.1602  -22.8181   26.3311 C   0  0  0  0  0  0  0  0  0  0  0  0
  -31.1153  -27.5460   20.0926 C   0  0  0  0  0  0  0  0  0  0  0  0
  -24.8214  -27.7249   20.4531 C   0  0  0  0  0  0  0  0  0  0  0  0
  -23.4375  -25.6305   20.9064 C   0  0  0  0  0  0  0  0  0  0  0  0
  -24.0279  -11.8426   20.5790 C   0  0  0  0  0  0  0  0  0  0  0  0
  -24.2385  -18.4855   20.5569 C   0  0  0  0  0  0  0  0  0  0  0  0
  -24.2067  -13.0731   21.2395 C   0  0  0  0  0  0  0  0  0  0  0  0
  -25.1906  -19.2089   21.2892 C   0  0  0  0  0  0  0  0  0  0  0  0
  -19.3932  -21.4746   26.0951 C   0  0  0  0  0  0  0  0  0  0  0  0
  -27.1361  -29.0823   19.6900 C   0  0  0  0  0  0  0  0  0  0  0  0
  -23.4065  -20.1847   22.6214 C   0  0  0  0  0  0  0  0  0  0  0  0
  -29.4720  -29.2975   19.8306 C   0  0  0  0  0  0  0  0  0  0  0  0
  -31.9035  -28.4008   20.8632 C   0  0  0  0  0  0  0  0  0  0  0  0
  -29.8995  -27.9944   19.5763 C   0  0  0  0  0  0  0  0  0  0  0  0
  -23.6259  -27.0243   20.8479 C   0  0  0  0  0  0  0  0  0  0  0  0
  -17.9832  -23.3625   25.8579 C   0  0  0  0  0  0  0  0  0  0  0  0
  -18.4337  -20.7644   25.4019 C   0  0  0  0  0  0  0  0  0  0  0  0
  -22.1421  -25.4768   21.3362 C   0  0  0  0  0  0  0  0  0  0  0  0
  -24.3519  -24.5695   20.5999 C   0  0  0  0  0  0  0  0  0  0  0  0
  -26.2884  -16.0565   20.5924 C   0  0  0  0  0  0  0  0  0  0  0  0
  -28.2956  -18.2392   19.2774 C   0  0  0  0  0  0  0  0  0  0  0  0
  -29.1148  -21.5218   18.8297 C   0  0  0  0  0  0  0  0  0  0  0  0
  -17.9454  -26.8736   24.7394 C   0  0  0  0  0  0  0  0  0  0  0  0
  -25.1782  -11.1189   19.9248 C   0  0  0  0  0  0  0  0  0  0  0  0
  -24.6660  -17.5926   19.4245 C   0  0  0  0  0  0  0  0  0  0  0  0
  -26.6646  -19.0994   20.9994 C   0  0  0  0  0  0  0  0  0  0  0  0
  -26.3899  -12.0103   19.6650 C   0  0  0  0  0  0  0  0  0  0  0  0
  -18.4109  -28.8577   21.8199 C   0  0  0  0  0  0  0  0  0  0  0  0
  -26.7124  -12.8459   20.8998 C   0  0  0  0  0  0  0  0  0  0  0  0
  -19.7955  -28.4472   21.3157 C   0  0  0  0  0  0  0  0  0  0  0  0
  -18.3500  -28.8811   23.3456 C   0  0  0  0  0  0  0  0  0  0  0  0
  -20.1664  -27.2223   23.4976 C   0  0  0  0  0  0  0  0  0  0  0  0
  -25.5467  -13.7762   21.2563 C   0  0  1  0  0  0  0  0  0  0  0  0
  -26.1119  -17.1220   19.5478 C   0  0  1  0  0  0  0  0  0  0  0  0
  -20.2610  -27.1301   21.9650 C   0  0  2  0  0  0  0  0  0  0  0  0
  -17.8181  -17.3307   23.7478 C   0  0  0  0  0  0  0  0  0  0  0  0
  -30.8304  -22.9928   17.7388 C   0  0  0  0  0  0  0  0  0  0  0  0
  -30.2800  -17.5652   21.4950 C   0  0  0  0  0  0  0  0  0  0  0  0
  -31.5132  -19.6712   20.9360 C   0  0  0  0  0  0  0  0  0  0  0  0
  -31.3044  -17.8606   19.2328 C   0  0  0  0  0  0  0  0  0  0  0  0
  -27.0822  -22.8143   17.1101 C   0  0  0  0  0  0  0  0  0  0  0  0
  -20.6629  -20.8300   26.5909 C   0  0  0  0  0  0  0  0  0  0  0  0
  -18.6164  -19.3133   25.1098 C   0  0  0  0  0  0  0  0  0  0  0  0
  -17.6843  -24.8047   26.0851 C   0  0  0  0  0  0  0  0  0  0  0  0
  -17.6082  -18.8019   24.0696 C   0  0  0  0  0  0  0  0  0  0  0  0
  -21.8950  -21.1684   25.7488 C   0  0  0  0  0  0  0  0  0  0  0  0
  -21.8057  -20.6570   24.3156 C   0  0  0  0  0  0  0  0  0  1  0  0
  -29.2761  -19.2519   19.8178 C   0  0  1  0  0  0  0  0  0  0  0  0
  -29.4817  -22.3075   17.5837 C   0  0  2  0  0  0  0  0  0  0  0  0
  -30.5658  -18.5880   20.3774 C   0  0  0  0  0  0  0  0  0  0  0  0
  -22.5372  -27.7075   21.2112 N   0  0  0  0  0  0  0  0  0  0  0  0
  -17.0618  -22.6436   25.1824 N   0  0  0  0  0  0  0  0  0  0  0  0
  -17.2907  -21.3231   24.9508 N   0  0  0  0  0  0  0  0  0  0  0  0
  -21.6522  -26.7388   21.5021 N   0  0  0  0  0  0  0  0  0  0  0  0
  -27.0331  -18.2087   19.8865 N   0  0  0  0  0  0  0  0  0  0  0  0
  -18.8027  -27.6023   23.8986 N   0  0  0  0  0  0  0  0  0  0  0  0
  -21.3856  -24.3866   21.5844 N   0  0  0  0  0  0  0  0  0  0  0  0
  -25.6439  -24.9037   20.1719 N   0  0  0  0  0  0  0  0  0  0  0  0
  -25.5278  -14.9236   20.3746 N   0  0  0  0  0  0  0  0  0  0  0  0
  -29.5143  -20.2052   18.7393 N   0  0  0  0  0  0  0  0  0  0  0  0
  -18.4499  -25.6694   25.2150 N   0  0  0  0  0  0  0  0  0  0  0  0
  -28.4536  -23.3504   17.3075 N   0  3  0  0  0  0  0  0  0  0  0  0
  -24.0273  -23.3609   20.6867 O   0  0  0  0  0  0  0  0  0  0  0  0
  -27.0588  -16.2474   21.5261 O   0  0  0  0  0  0  0  0  0  0  0  0
  -28.6348  -17.5072   18.3443 O   0  0  0  0  0  0  0  0  0  0  0  0
  -28.5353  -22.0265   19.7888 O   0  0  0  0  0  0  0  0  0  0  0  0
  -16.8121  -27.2644   25.0393 O   0  0  0  0  0  0  0  0  0  0  0  0
  -28.2656  -29.7444   19.3180 O   0  0  0  0  0  0  0  0  0  0  0  0
  -23.0061  -21.0078   23.6284 O   0  0  0  0  0  0  0  0  0  1  0  0
  -33.0716  -27.9708   21.3578 F   0  0  0  0  0  0  0  0  0  0  0  0
  -29.1471  -27.1690   18.8357 F   0  0  0  0  0  0  0  0  0  0  0  0
  1  2  1  0  0  0  0
  1  5  2  0  0  0  0
  2  6  2  0  0  0  0
  3  8  2  0  0  0  0
  3 16  1  0  0  0  0
  4  9  1  0  0  0  0
  4 16  2  0  0  0  0
  5 18  1  0  0  0  0
  6 20  1  0  0  0  0
  7 10  2  0  0  0  0
  7 19  1  0  0  0  0
  8 23  1  0  0  0  0
  9 23  2  0  0  0  0
 10 24  1  0  0  0  0
 11 12  2  0  0  0  0
 11 25  1  0  0  0  0
 12 26  1  0  0  0  0
 13 21  1  0  0  0  0
 13 24  2  0  0  0  0
 14 22  1  0  0  0  0
 14 29  2  0  0  0  0
 15 26  2  0  0  0  0
 15 27  1  0  0  0  0
 16 28  1  0  0  0  0
 17 28  1  0  0  0  0
 17 31  2  0  0  0  0
 17 32  1  0  0  0  0
 18 20  2  0  0  0  0
 18 37  1  0  0  0  0
 19 21  2  0  0  0  0
 19 38  1  0  0  0  0
 20 46  1  0  0  0  0
 21 39  1  0  0  0  0
 22 30  2  0  0  0  0
 22 55  1  0  0  0  0
 23 81  1  0  0  0  0
 24 82  1  0  0  0  0
 25 27  2  0  0  0  0
 25 81  1  0  0  0  0
 26 83  1  0  0  0  0
 27 84  1  0  0  0  0
 28 64  2  0  0  0  0
 29 57  1  0  0  0  0
 29 65  1  0  0  0  0
 30 56  1  0  0  0  0
 30 66  1  0  0  0  0
 31 67  1  0  0  0  0
 31 70  1  0  0  0  0
 32 71  1  0  0  0  0
 32 76  2  0  0  0  0
 33 47  1  0  0  0  0
 33 72  1  0  0  0  0
 33 77  2  0  0  0  0
 34 61  1  0  0  0  0
 34 68  1  0  0  0  0
 34 78  2  0  0  0  0
 35 62  1  0  0  0  0
 35 73  1  0  0  0  0
 35 79  2  0  0  0  0
 36 69  1  0  0  0  0
 36 74  1  0  0  0  0
 36 80  2  0  0  0  0
 37 40  1  0  0  0  0
 38 47  1  0  0  0  0
 39 68  1  0  0  0  0
 40 42  1  0  0  0  0
 41 43  1  0  0  0  0
 41 44  1  0  0  0  0
 42 46  1  0  0  0  0
 43 48  1  0  0  0  0
 44 69  1  0  0  0  0
 45 48  1  0  0  0  0
 45 69  1  0  0  0  0
 46 72  1  0  0  0  0
 47 68  1  0  0  0  0
 48 67  1  0  0  0  0
 49 58  1  0  0  0  0
 50 62  1  0  0  0  0
 51 63  1  0  0  0  0
 52 63  1  0  0  0  0
 53 63  1  0  0  0  0
 54 75  1  0  0  0  0
 55 59  1  0  0  0  0
 56 58  1  0  0  0  0
 57 74  1  0  0  0  0
 59 60  1  0  0  0  0
 60 82  1  0  0  0  0
 61 63  1  0  0  0  0
 61 73  1  0  0  0  0
 62 75  1  0  0  0  0
 64 67  1  0  0  0  0
 65 66  2  0  0  0  0
M  CHG  1  75   1
M  ISO  4  36 100  60 101  74 100  82 101
M  END
> <Batch ID>
0093

> <Smiles>
CCCc1nnc(C[100NH:0][100C:0](=O)N2CCCC(n3nc(-c4ccc(Oc5ccc(F)cc5F)cc4)c(C(N)=O)c3N)C2)cc1CC[101CH2:1][101O:1]c1ccc2c(c1)CN(C(=O)C(NC(=O)C(C)NC)C(C)(C)C)C(C(=O)NC1CCCc3ccccc31)C2

> <Shape>
0.204

> <Color>
0.073

> <Negative vol penalty>
0.000

$$$$

  -OEChem-04052319163D

 81 89  0     1  0  0  0  0  0999 V2000
  -24.4009  -19.5991   27.7487 C   0  0  0  0  0  0  0  0  0  0  0  0
  -25.3216  -20.1912   26.8901 C   0  0  0  0  0  0  0  0  0  0  0  0
  -24.2986  -13.9737   20.6072 C   0  0  0  0  0  0  0  0  0  0  0  0
  -26.6831  -13.6648   20.8437 C   0  0  0  0  0  0  0  0  0  0  0  0
  -23.0346  -19.7495   27.5150 C   0  0  0  0  0  0  0  0  0  0  0  0
  -24.8764  -20.9332   25.7966 C   0  0  0  0  0  0  0  0  0  0  0  0
  -27.5062  -25.9275   23.4203 C   0  0  0  0  0  0  0  0  0  0  0  0
  -24.1491  -12.6133   20.3377 C   0  0  0  0  0  0  0  0  0  0  0  0
  -26.5336  -12.3044   20.5742 C   0  0  0  0  0  0  0  0  0  0  0  0
  -28.3503  -26.1127   22.3263 C   0  0  0  0  0  0  0  0  0  0  0  0
  -23.0958   -9.1564   19.9433 C   0  0  0  0  0  0  0  0  0  0  0  0
  -22.0586   -8.4786   20.5837 C   0  0  0  0  0  0  0  0  0  0  0  0
  -30.1640  -23.4643   14.3731 C   0  0  0  0  0  0  0  0  0  0  0  0
  -26.4459  -26.6885   20.9621 C   0  0  0  0  0  0  0  0  0  0  0  0
  -23.0143   -9.0438   22.7295 C   0  0  0  0  0  0  0  0  0  0  0  0
  -30.0217  -24.6031   13.5969 C   0  0  0  0  0  0  0  0  0  0  0  0
  -29.3411  -25.8549   15.3992 C   0  0  0  0  0  0  0  0  0  0  0  0
  -25.5656  -14.4995   20.8601 C   0  0  0  0  0  0  0  0  0  0  0  0
  -25.6772  -16.5321   22.3975 C   0  0  0  0  0  0  0  0  0  0  0  0
  -22.5725  -20.5017   26.4236 C   0  0  0  0  0  0  0  0  0  0  0  0
  -26.1220  -26.1111   23.2905 C   0  0  0  0  0  0  0  0  0  0  0  0
  -23.5027  -21.0926   25.5473 C   0  0  0  0  0  0  0  0  0  0  0  0
  -25.5867  -26.5075   22.0566 C   0  0  0  0  0  0  0  0  0  0  0  0
  -29.8713  -23.5600   15.7290 C   0  0  0  0  0  0  0  0  0  0  0  0
  -29.4513  -24.7746   16.2598 C   0  0  0  0  0  0  0  0  0  0  0  0
  -25.2666  -11.7787   20.3212 C   0  0  0  0  0  0  0  0  0  0  0  0
  -27.8199  -26.4904   21.0962 C   0  0  0  0  0  0  0  0  0  0  0  0
  -24.0924   -9.7779   20.6959 C   0  0  0  0  0  0  0  0  0  0  0  0
  -22.0178   -8.4223   21.9769 C   0  0  0  0  0  0  0  0  0  0  0  0
  -24.0516   -9.7216   22.0890 C   0  0  0  0  0  0  0  0  0  0  0  0
  -25.7207  -15.9048   21.1380 C   0  0  0  0  0  0  0  0  0  0  0  0
  -25.8775  -17.8633   22.1251 C   0  0  0  0  0  0  0  0  0  0  0  0
  -25.4741  -15.9624   23.6975 C   0  0  0  0  0  0  0  0  0  0  0  0
  -23.5710  -24.2434   23.6184 C   0  0  0  0  0  0  0  0  0  0  0  0
  -21.9614  -27.0224   23.1614 C   0  0  0  0  0  0  0  0  0  0  0  0
  -21.9524  -30.1903   21.8920 C   0  0  0  0  0  0  0  0  0  0  0  0
  -28.6381  -20.5965   17.6794 C   0  0  0  0  0  0  0  0  0  0  0  0
  -21.0863  -20.5968   26.1848 C   0  0  0  0  0  0  0  0  0  0  0  0
  -25.2279  -25.9334   24.4869 C   0  0  0  0  0  0  0  0  0  0  0  0
  -24.1099  -26.7372   21.8699 C   0  0  0  0  0  0  0  0  0  0  0  0
  -20.6949  -21.7112   25.2177 C   0  0  0  0  0  0  0  0  0  0  0  0
  -25.2029  -21.1253   18.6883 C   0  0  0  0  0  0  0  0  0  0  0  0
  -21.5923  -21.6874   23.9845 C   0  0  0  0  0  0  0  0  0  0  0  0
  -24.9479  -19.8924   19.5572 C   0  0  0  0  0  0  0  0  0  0  0  0
  -26.0843  -20.7845   17.4903 C   0  0  0  0  0  0  0  0  0  0  0  0
  -27.1339  -18.9191   18.7119 C   0  0  0  0  0  0  0  0  0  0  0  0
  -23.0587  -21.9258   24.3646 C   0  0  1  0  0  0  0  0  0  0  0  0
  -23.7771  -25.6477   24.1115 C   0  0  1  0  0  0  0  0  0  0  0  0
  -26.2672  -19.2027   19.9523 C   0  0  2  0  0  0  0  0  0  0  0  0
  -20.4807  -32.2071   21.6395 C   0  0  0  0  0  0  0  0  0  0  0  0
  -20.4313  -25.6226   20.9233 C   0  0  0  0  0  0  0  0  0  0  0  0
  -19.7000  -27.8745   20.1094 C   0  0  0  0  0  0  0  0  0  0  0  0
  -19.0312  -27.0941   22.3823 C   0  0  0  0  0  0  0  0  0  0  0  0
  -23.8039  -31.8820   23.4634 C   0  0  0  0  0  0  0  0  0  0  0  0
  -29.1222  -24.9344   17.7226 C   0  0  0  0  0  0  0  0  0  0  0  0
  -30.0157  -22.3510   16.5926 C   0  0  0  0  0  0  0  0  0  0  0  0
  -30.2102  -25.6528   18.5237 C   0  0  0  0  0  0  0  0  0  0  0  0
  -29.8320  -25.8856   19.9819 C   0  0  0  0  0  0  0  0  0  1  0  0
  -21.4315  -27.7657   21.9590 C   0  0  1  0  0  0  0  0  0  0  0  0
  -21.5297  -31.5168   22.4972 C   0  0  2  0  0  0  0  0  0  0  0  0
  -20.1762  -27.0831   21.3462 C   0  0  0  0  0  0  0  0  0  0  0  0
  -29.6164  -25.8003   14.0767 N   0  0  0  0  0  0  0  0  0  0  0  0
  -25.9319  -16.7666   20.1397 N   0  0  0  0  0  0  0  0  0  0  0  0
  -26.0228  -17.9491   20.7717 N   0  0  0  0  0  0  0  0  0  0  0  0
  -23.2762  -26.5446   23.0680 N   0  0  0  0  0  0  0  0  0  0  0  0
  -27.3318  -20.1480   17.9361 N   0  0  0  0  0  0  0  0  0  0  0  0
  -25.9417  -18.9572   22.9137 N   0  0  0  0  0  0  0  0  0  0  0  0
  -25.2840  -14.5775   23.7978 N   0  0  0  0  0  0  0  0  0  0  0  0
  -23.2930  -23.3311   24.6184 N   0  0  0  0  0  0  0  0  0  0  0  0
  -21.2117  -29.1410   22.3935 N   0  0  0  0  0  0  0  0  0  0  0  0
  -28.7387  -21.7636   16.9321 N   0  0  0  0  0  0  0  0  0  0  0  0
  -22.7041  -32.4253   22.6254 N   0  3  0  0  0  0  0  0  0  0  0  0
  -25.4451  -16.6630   24.7376 O   0  0  0  0  0  0  0  0  0  0  0  0
  -23.6562  -24.0055   22.4193 O   0  0  0  0  0  0  0  0  0  0  0  0
  -21.2379  -26.8776   24.1499 O   0  0  0  0  0  0  0  0  0  0  0  0
  -22.8475  -30.0950   21.0551 O   0  0  0  0  0  0  0  0  0  0  0  0
  -29.6412  -20.0035   18.0906 O   0  0  0  0  0  0  0  0  0  0  0  0
  -25.1210  -10.4512   20.0585 O   0  0  0  0  0  0  0  0  0  0  0  0
  -28.6415  -26.6712   20.0266 O   0  0  0  0  0  0  0  0  0  1  0  0
  -21.0209   -7.7726   22.5919 F   0  0  0  0  0  0  0  0  0  0  0  0
  -25.0055  -10.3177   22.8174 F   0  0  0  0  0  0  0  0  0  0  0  0
  1  2  1  0  0  0  0
  1  5  2  0  0  0  0
  2  6  2  0  0  0  0
  3  8  2  0  0  0  0
  3 18  1  0  0  0  0
  4  9  1  0  0  0  0
  4 18  2  0  0  0  0
  5 20  1  0  0  0  0
  6 22  1  0  0  0  0
  7 10  2  0  0  0  0
  7 21  1  0  0  0  0
  8 26  1  0  0  0  0
  9 26  2  0  0  0  0
 10 27  1  0  0  0  0
 11 12  2  0  0  0  0
 11 28  1  0  0  0  0
 12 29  1  0  0  0  0
 13 16  2  0  0  0  0
 13 24  1  0  0  0  0
 14 23  1  0  0  0  0
 14 27  2  0  0  0  0
 15 29  2  0  0  0  0
 15 30  1  0  0  0  0
 16 62  1  0  0  0  0
 17 25  1  0  0  0  0
 17 62  2  0  0  0  0
 18 31  1  0  0  0  0
 19 31  1  0  0  0  0
 19 32  2  0  0  0  0
 19 33  1  0  0  0  0
 20 22  2  0  0  0  0
 20 38  1  0  0  0  0
 21 23  2  0  0  0  0
 21 39  1  0  0  0  0
 22 47  1  0  0  0  0
 23 40  1  0  0  0  0
 24 25  2  0  0  0  0
 24 56  1  0  0  0  0
 25 55  1  0  0  0  0
 26 78  1  0  0  0  0
 27 79  1  0  0  0  0
 28 30  2  0  0  0  0
 28 78  1  0  0  0  0
 29 80  1  0  0  0  0
 30 81  1  0  0  0  0
 31 63  2  0  0  0  0
 32 64  1  0  0  0  0
 32 67  1  0  0  0  0
 33 68  1  0  0  0  0
 33 73  2  0  0  0  0
 34 48  1  0  0  0  0
 34 69  1  0  0  0  0
 34 74  2  0  0  0  0
 35 59  1  0  0  0  0
 35 65  1  0  0  0  0
 35 75  2  0  0  0  0
 36 60  1  0  0  0  0
 36 70  1  0  0  0  0
 36 76  2  0  0  0  0
 37 66  1  0  0  0  0
 37 71  1  0  0  0  0
 37 77  2  0  0  0  0
 38 41  1  0  0  0  0
 39 48  1  0  0  0  0
 40 65  1  0  0  0  0
 41 43  1  0  0  0  0
 42 44  1  0  0  0  0
 42 45  1  0  0  0  0
 43 47  1  0  0  0  0
 44 49  1  0  0  0  0
 45 66  1  0  0  0  0
 46 49  1  0  0  0  0
 46 66  1  0  0  0  0
 47 69  1  0  0  0  0
 48 65  1  0  0  0  0
 49 64  1  0  0  0  0
 50 60  1  0  0  0  0
 51 61  1  0  0  0  0
 52 61  1  0  0  0  0
 53 61  1  0  0  0  0
 54 72  1  0  0  0  0
 55 57  1  0  0  0  0
 56 71  1  0  0  0  0
 57 58  1  0  0  0  0
 58 79  1  0  0  0  0
 59 61  1  0  0  0  0
 59 70  1  0  0  0  0
 60 72  1  0  0  0  0
 63 64  1  0  0  0  0
M  CHG  1  72   1
M  ISO  4  37 100  58 101  71 100  79 101
M  END
> <Batch ID>
0093

> <Smiles>
CNC(C)C(=O)NC(C(=O)N1Cc2cc([101O:1][101CH2:1]CCc3cnccc3C[100NH:0][100C:0](=O)N3CCCC(n4nc(-c5ccc(Oc6ccc(F)cc6F)cc5)c(C(N)=O)c4N)C3)ccc2CC1C(=O)NC1CCCc2ccccc21)C(C)(C)C

> <Shape>
0.182

> <Color>
0.073

> <Negative vol penalty>
0.000

$$$$

  -OEChem-04052319163D

 87 95  0     1  0  0  0  0  0999 V2000
  -18.6943  -33.6242   21.4978 C   0  0  0  0  0  0  0  0  0  0  0  0
  -20.0241  -33.4489   21.1284 C   0  0  0  0  0  0  0  0  0  0  0  0
  -26.9784  -17.6775   18.8704 C   0  0  0  0  0  0  0  0  0  0  0  0
  -29.2267  -17.3612   19.6964 C   0  0  0  0  0  0  0  0  0  0  0  0
  -18.1353  -32.8184   22.4888 C   0  0  0  0  0  0  0  0  0  0  0  0
  -20.7959  -32.4682   21.7505 C   0  0  0  0  0  0  0  0  0  0  0  0
  -25.2189  -29.0919   19.1926 C   0  0  0  0  0  0  0  0  0  0  0  0
  -26.6616  -16.3679   19.2312 C   0  0  0  0  0  0  0  0  0  0  0  0
  -28.9098  -16.0516   20.0572 C   0  0  0  0  0  0  0  0  0  0  0  0
  -26.6082  -29.2094   19.1940 C   0  0  0  0  0  0  0  0  0  0  0  0
  -28.7991  -12.5103   20.8676 C   0  0  0  0  0  0  0  0  0  0  0  0
  -29.7161  -11.5095   20.5466 C   0  0  0  0  0  0  0  0  0  0  0  0
  -26.7319  -27.6510   21.0313 C   0  0  0  0  0  0  0  0  0  0  0  0
  -34.5832  -24.8922   18.7450 C   0  0  0  0  0  0  0  0  0  0  0  0
  -32.6671  -25.9280   17.6997 C   0  0  0  0  0  0  0  0  0  0  0  0
  -29.4913  -12.0549   18.2037 C   0  0  0  0  0  0  0  0  0  0  0  0
  -28.2610  -18.1742   19.1030 C   0  0  0  0  0  0  0  0  0  0  0  0
  -28.4603  -20.6824   19.5236 C   0  0  0  0  0  0  0  0  0  0  0  0
  -18.8979  -31.8209   23.1165 C   0  0  0  0  0  0  0  0  0  0  0  0
  -24.5740  -28.2601   20.1191 C   0  0  0  0  0  0  0  0  0  0  0  0
  -20.2469  -31.6492   22.7517 C   0  0  0  0  0  0  0  0  0  0  0  0
  -25.3346  -27.5228   21.0378 C   0  0  0  0  0  0  0  0  0  0  0  0
  -33.9246  -25.3331   17.5972 C   0  0  0  0  0  0  0  0  0  0  0  0
  -33.9843  -25.0462   19.9953 C   0  0  0  0  0  0  0  0  0  0  0  0
  -32.0682  -26.0821   18.9500 C   0  0  0  0  0  0  0  0  0  0  0  0
  -32.7269  -25.6412   20.0978 C   0  0  0  0  0  0  0  0  0  0  0  0
  -27.6273  -15.5550   19.8246 C   0  0  0  0  0  0  0  0  0  0  0  0
  -27.3647  -28.4911   20.1154 C   0  0  0  0  0  0  0  0  0  0  0  0
  -28.2281  -13.2833   19.8566 C   0  0  0  0  0  0  0  0  0  0  0  0
  -30.0623  -11.2818   19.2147 C   0  0  0  0  0  0  0  0  0  0  0  0
  -28.5742  -13.0556   18.5247 C   0  0  0  0  0  0  0  0  0  0  0  0
  -28.5890  -19.5267   18.7300 C   0  0  0  0  0  0  0  0  0  0  0  0
  -28.9010  -21.7033   18.7174 C   0  0  0  0  0  0  0  0  0  0  0  0
  -27.9849  -20.8206   20.8692 C   0  0  0  0  0  0  0  0  0  0  0  0
  -22.4756  -28.7162   22.4628 C   0  0  0  0  0  0  0  0  0  0  0  0
  -22.5018  -25.4750   22.5904 C   0  0  0  0  0  0  0  0  0  0  0  0
  -24.1651  -22.5638   21.9538 C   0  0  0  0  0  0  0  0  0  0  0  0
  -32.8775  -22.7898   14.6528 C   0  0  0  0  0  0  0  0  0  0  0  0
  -18.2634  -31.0059   24.2156 C   0  0  0  0  0  0  0  0  0  0  0  0
  -23.0764  -28.1238   20.0870 C   0  0  0  0  0  0  0  0  0  0  0  0
  -24.6918  -26.6005   22.0401 C   0  0  0  0  0  0  0  0  0  0  0  0
  -19.0424  -29.7396   24.5621 C   0  0  0  0  0  0  0  0  0  0  0  0
  -29.4451  -22.3047   13.8405 C   0  0  0  0  0  0  0  0  0  0  0  0
  -20.5294  -30.0493   24.7027 C   0  0  0  0  0  0  0  0  0  0  0  0
  -28.8625  -21.6463   15.0923 C   0  0  0  0  0  0  0  0  0  0  0  0
  -30.8700  -21.8299   13.5643 C   0  0  0  0  0  0  0  0  0  0  0  0
  -31.2196  -21.3180   15.9496 C   0  0  0  0  0  0  0  0  0  0  0  0
  -21.1094  -30.5795   23.3859 C   0  0  1  0  0  0  0  0  0  0  0  0
  -22.4916  -27.6428   21.4115 C   0  0  1  0  0  0  0  0  0  0  0  0
  -29.8043  -21.8077   16.3007 C   0  0  2  0  0  0  0  0  0  0  0  0
  -36.0771  -25.2281   21.3641 C   0  0  0  0  0  0  0  0  0  0  0  0
  -31.4957  -24.5007   21.9607 C   0  0  0  0  0  0  0  0  0  0  0  0
  -35.8775  -25.9704   16.1467 C   0  0  0  0  0  0  0  0  0  0  0  0
  -23.9485  -20.0762   22.2034 C   0  0  0  0  0  0  0  0  0  0  0  0
  -23.1241  -25.7221   25.5673 C   0  0  0  0  0  0  0  0  0  0  0  0
  -23.8240  -23.3183   25.5493 C   0  0  0  0  0  0  0  0  0  0  0  0
  -21.4721  -23.9349   24.9917 C   0  0  0  0  0  0  0  0  0  0  0  0
  -24.3170  -22.1404   19.0286 C   0  0  0  0  0  0  0  0  0  0  0  0
  -34.7112  -24.5666   21.2091 C   0  0  0  0  0  0  0  0  0  0  0  0
  -30.7085  -26.7284   19.0336 C   0  0  0  0  0  0  0  0  0  0  0  0
  -32.0852  -25.8066   21.4386 C   0  0  0  0  0  0  0  0  0  0  0  0
  -30.7387  -28.2497   18.8709 C   0  0  0  0  0  0  0  0  0  0  0  0
  -34.8346  -23.6904   15.8849 C   0  0  0  0  0  0  0  0  0  0  0  0
  -29.3529  -28.8845   18.8711 C   0  0  0  0  0  0  0  0  0  1  0  0
  -34.5645  -25.1678   16.2603 C   0  0  1  0  0  0  0  0  0  0  0  0
  -23.3125  -24.4409   23.3337 C   0  0  1  0  0  0  0  0  0  0  0  0
  -23.7183  -21.2723   21.2928 C   0  0  2  0  0  0  0  0  0  0  0  0
  -22.9455  -24.3728   24.8430 C   0  0  0  0  0  0  0  0  0  0  0  0
  -29.0734  -19.7882   17.5131 N   0  0  0  0  0  0  0  0  0  0  0  0
  -29.2529  -21.1199   17.5359 N   0  0  0  0  0  0  0  0  0  0  0  0
  -23.2241  -26.5060   21.9730 N   0  0  0  0  0  0  0  0  0  0  0  0
  -31.7120  -22.0118   14.7491 N   0  0  0  0  0  0  0  0  0  0  0  0
  -29.0179  -23.0342   18.9110 N   0  0  0  0  0  0  0  0  0  0  0  0
  -27.5709  -19.6695   21.5531 N   0  0  0  0  0  0  0  0  0  0  0  0
  -21.3321  -29.4920   22.4575 N   0  0  0  0  0  0  0  0  0  0  0  0
  -23.1271  -23.1841   22.6164 N   0  0  0  0  0  0  0  0  0  0  0  0
  -33.6147  -22.9165   15.8238 N   0  0  0  0  0  0  0  0  0  0  0  0
  -24.4721  -21.0508   20.0264 N   0  3  0  0  0  0  0  0  0  0  0  0
  -27.9135  -21.9342   21.4422 O   0  0  0  0  0  0  0  0  0  0  0  0
  -23.4295  -28.8311   23.2235 O   0  0  0  0  0  0  0  0  0  0  0  0
  -21.2735  -25.3679   22.5529 O   0  0  0  0  0  0  0  0  0  0  0  0
  -25.3203  -22.9789   21.8918 O   0  0  0  0  0  0  0  0  0  0  0  0
  -33.2319  -23.3358   13.6024 O   0  0  0  0  0  0  0  0  0  0  0  0
  -27.3184  -14.2771   20.1770 O   0  0  0  0  0  0  0  0  0  0  0  0
  -28.7208  -28.6044   20.1194 O   0  0  0  0  0  0  0  0  0  1  0  0
  -30.9441  -10.3217   18.9067 F   0  0  0  0  0  0  0  0  0  0  0  0
  -28.0299  -13.7959   17.5492 F   0  0  0  0  0  0  0  0  0  0  0  0
  1  2  1  0  0  0  0
  1  5  2  0  0  0  0
  2  6  2  0  0  0  0
  3  8  2  0  0  0  0
  3 17  1  0  0  0  0
  4  9  1  0  0  0  0
  4 17  2  0  0  0  0
  5 19  1  0  0  0  0
  6 21  1  0  0  0  0
  7 10  2  0  0  0  0
  7 20  1  0  0  0  0
  8 27  1  0  0  0  0
  9 27  2  0  0  0  0
 10 28  1  0  0  0  0
 11 12  2  0  0  0  0
 11 29  1  0  0  0  0
 12 30  1  0  0  0  0
 13 22  1  0  0  0  0
 13 28  2  0  0  0  0
 14 23  2  0  0  0  0
 14 24  1  0  0  0  0
 15 23  1  0  0  0  0
 15 25  2  0  0  0  0
 16 30  2  0  0  0  0
 16 31  1  0  0  0  0
 17 32  1  0  0  0  0
 18 32  1  0  0  0  0
 18 33  2  0  0  0  0
 18 34  1  0  0  0  0
 19 21  2  0  0  0  0
 19 39  1  0  0  0  0
 20 22  2  0  0  0  0
 20 40  1  0  0  0  0
 21 48  1  0  0  0  0
 22 41  1  0  0  0  0
 23 65  1  0  0  0  0
 24 26  2  0  0  0  0
 24 59  1  0  0  0  0
 25 26  1  0  0  0  0
 25 60  1  0  0  0  0
 26 61  1  0  0  0  0
 27 84  1  0  0  0  0
 28 85  1  0  0  0  0
 29 31  2  0  0  0  0
 29 84  1  0  0  0  0
 30 86  1  0  0  0  0
 31 87  1  0  0  0  0
 32 69  2  0  0  0  0
 33 70  1  0  0  0  0
 33 73  1  0  0  0  0
 34 74  1  0  0  0  0
 34 79  2  0  0  0  0
 35 49  1  0  0  0  0
 35 75  1  0  0  0  0
 35 80  2  0  0  0  0
 36 66  1  0  0  0  0
 36 71  1  0  0  0  0
 36 81  2  0  0  0  0
 37 67  1  0  0  0  0
 37 76  1  0  0  0  0
 37 82  2  0  0  0  0
 38 72  1  0  0  0  0
 38 77  1  0  0  0  0
 38 83  2  0  0  0  0
 39 42  1  0  0  0  0
 40 49  1  0  0  0  0
 41 71  1  0  0  0  0
 42 44  1  0  0  0  0
 43 45  1  0  0  0  0
 43 46  1  0  0  0  0
 44 48  1  0  0  0  0
 45 50  1  0  0  0  0
 46 72  1  0  0  0  0
 47 50  1  0  0  0  0
 47 72  1  0  0  0  0
 48 75  1  0  0  0  0
 49 71  1  0  0  0  0
 50 70  1  0  0  0  0
 51 59  1  0  0  0  0
 52 61  1  0  0  0  0
 53 65  1  0  0  0  0
 54 67  1  0  0  0  0
 55 68  1  0  0  0  0
 56 68  1  0  0  0  0
 57 68  1  0  0  0  0
 58 78  1  0  0  0  0
 60 62  1  0  0  0  0
 62 64  1  0  0  0  0
 63 65  1  0  0  0  0
 63 77  1  0  0  0  0
 64 85  1  0  0  0  0
 66 68  1  0  0  0  0
 66 76  1  0  0  0  0
 67 78  1  0  0  0  0
 69 70  1  0  0  0  0
M  CHG  1  78   1
M  ISO  4  38 100  64 101  77 100  85 101
M  END
> <Batch ID>
0093

> <Smiles>
CCc1cc(C(C)C[100NH:0][100C:0](=O)N2CCCC(n3nc(-c4ccc(Oc5ccc(F)cc5F)cc4)c(C(N)=O)c3N)C2)cc(CC[101CH2:1][101O:1]c2ccc3c(c2)CN(C(=O)C(NC(=O)C(C)NC)C(C)(C)C)C(C(=O)NC2CCCc4ccccc42)C3)c1CC

> <Shape>
0.189

> <Color>
0.091

> <Negative vol penalty>
0.000

$$$$

  -OEChem-04052319163D

 86 94  0     1  0  0  0  0  0999 V2000
  -17.2750  -30.6084   24.9350 C   0  0  0  0  0  0  0  0  0  0  0  0
  -17.6078  -29.2733   24.7295 C   0  0  0  0  0  0  0  0  0  0  0  0
  -23.6741  -10.6681   23.4811 C   0  0  0  0  0  0  0  0  0  0  0  0
  -23.3308  -12.5105   25.0058 C   0  0  0  0  0  0  0  0  0  0  0  0
  -17.8002  -31.5932   24.0994 C   0  0  0  0  0  0  0  0  0  0  0  0
  -18.4652  -28.9221   23.6874 C   0  0  0  0  0  0  0  0  0  0  0  0
  -22.5892  -24.3946   23.6801 C   0  0  0  0  0  0  0  0  0  0  0  0
  -22.9082   -9.8434   24.3051 C   0  0  0  0  0  0  0  0  0  0  0  0
  -22.5649  -11.6858   25.8298 C   0  0  0  0  0  0  0  0  0  0  0  0
  -22.5566  -23.0970   23.1714 C   0  0  0  0  0  0  0  0  0  0  0  0
  -23.3232   -8.1232   27.1848 C   0  0  0  0  0  0  0  0  0  0  0  0
  -23.8119   -6.8452   27.4559 C   0  0  0  0  0  0  0  0  0  0  0  0
  -23.6611  -23.8613   21.1676 C   0  0  0  0  0  0  0  0  0  0  0  0
  -25.6094  -19.4485   19.8818 C   0  0  0  0  0  0  0  0  0  0  0  0
  -21.8333   -5.8779   26.4626 C   0  0  0  0  0  0  0  0  0  0  0  0
  -26.2215  -19.8478   22.0115 C   0  0  0  0  0  0  0  0  0  0  0  0
  -23.8855  -12.0016   23.8315 C   0  0  0  0  0  0  0  0  0  0  0  0
  -24.2201  -13.6514   21.9147 C   0  0  0  0  0  0  0  0  0  0  0  0
  -18.6721  -31.2549   23.0525 C   0  0  0  0  0  0  0  0  0  0  0  0
  -23.1492  -25.4392   22.9306 C   0  0  0  0  0  0  0  0  0  0  0  0
  -19.0015  -29.9032   22.8361 C   0  0  0  0  0  0  0  0  0  0  0  0
  -23.7019  -25.1708   21.6702 C   0  0  0  0  0  0  0  0  0  0  0  0
  -25.1463  -19.5111   21.2193 C   0  0  0  0  0  0  0  0  0  0  0  0
  -22.3536  -10.3523   25.4794 C   0  0  0  0  0  0  0  0  0  0  0  0
  -23.0900  -22.8307   21.9137 C   0  0  0  0  0  0  0  0  0  0  0  0
  -22.0894   -8.2785   26.5527 C   0  0  0  0  0  0  0  0  0  0  0  0
  -23.0670   -5.7225   27.0948 C   0  0  0  0  0  0  0  0  0  0  0  0
  -21.3445   -7.1559   26.1916 C   0  0  0  0  0  0  0  0  0  0  0  0
  -24.6770  -12.8538   22.9810 C   0  0  0  0  0  0  0  0  0  0  0  0
  -26.9536  -19.7487   19.8976 C   0  0  0  0  0  0  0  0  0  0  0  0
  -25.3522  -14.2620   21.4331 C   0  0  0  0  0  0  0  0  0  0  0  0
  -22.8912  -13.8248   21.4052 C   0  0  0  0  0  0  0  0  0  0  0  0
  -22.0495  -28.1536   21.6952 C   0  0  0  0  0  0  0  0  0  0  0  0
  -25.1726  -28.6290   20.9587 C   0  0  0  0  0  0  0  0  0  0  0  0
  -28.2451  -27.2732   20.3522 C   0  0  0  0  0  0  0  0  0  0  0  0
  -30.1655  -16.9555   22.2831 C   0  0  0  0  0  0  0  0  0  0  0  0
  -19.1771  -32.3493   22.1460 C   0  0  0  0  0  0  0  0  0  0  0  0
  -23.2006  -26.8284   23.5048 C   0  0  0  0  0  0  0  0  0  0  0  0
  -24.3328  -26.2532   20.8342 C   0  0  0  0  0  0  0  0  0  0  0  0
  -20.3752  -31.9325   21.2967 C   0  0  0  0  0  0  0  0  0  0  0  0
  -30.2358  -13.3987   22.4289 C   0  0  0  0  0  0  0  0  0  0  0  0
  -20.1299  -30.5677   20.6611 C   0  0  0  0  0  0  0  0  0  0  0  0
  -28.7592  -13.0065   22.5038 C   0  0  0  0  0  0  0  0  0  0  0  0
  -30.5186  -14.6833   23.2046 C   0  0  0  0  0  0  0  0  0  0  0  0
  -28.1909  -15.4376   22.9103 C   0  0  0  0  0  0  0  0  0  0  0  0
  -19.9479  -29.4851   21.7317 C   0  0  1  0  0  0  0  0  0  0  0  0
  -23.3327  -27.9112   22.4383 C   0  0  1  0  0  0  0  0  0  0  0  0
  -27.8463  -14.1786   22.0964 C   0  0  2  0  0  0  0  0  0  0  0  0
  -23.6685  -18.0514   22.6394 C   0  0  0  0  0  0  0  0  0  0  0  0
  -27.5649  -20.9198   17.7508 C   0  0  0  0  0  0  0  0  0  0  0  0
  -28.1074  -18.4765   18.0525 C   0  0  0  0  0  0  0  0  0  0  0  0
  -30.5937  -27.9109   19.7399 C   0  0  0  0  0  0  0  0  0  0  0  0
  -24.2926  -29.0903   18.0738 C   0  0  0  0  0  0  0  0  0  0  0  0
  -26.6745  -28.7745   17.3702 C   0  0  0  0  0  0  0  0  0  0  0  0
  -26.0633  -30.6577   18.8876 C   0  0  0  0  0  0  0  0  0  0  0  0
  -29.1895  -21.6517   21.0434 C   0  0  0  0  0  0  0  0  0  0  0  0
  -28.5942  -20.5577   23.1892 C   0  0  0  0  0  0  0  0  0  0  0  0
  -29.3305  -26.1410   22.8620 C   0  0  0  0  0  0  0  0  0  0  0  0
  -29.6515  -19.2003   21.3580 C   0  0  0  0  0  0  0  0  0  0  0  0
  -23.1076  -20.4940   22.3563 C   0  0  0  0  0  0  0  0  0  1  0  0
  -23.7246  -19.2546   21.6940 C   0  0  1  0  0  0  0  0  0  0  0  0
  -27.9209  -19.8258   18.7832 C   0  0  0  0  0  0  0  0  0  0  0  0
  -26.0567  -28.2930   19.7821 C   0  0  1  0  0  0  0  0  0  0  0  0
  -29.6244  -27.6286   20.8773 C   0  0  2  0  0  0  0  0  0  0  0  0
  -25.7582  -29.1836   18.5431 C   0  0  0  0  0  0  0  0  0  0  0  0
  -28.6405  -20.3406   21.6576 C   0  0  0  0  0  0  0  0  0  0  0  0
  -25.9965  -12.9471   23.1662 N   0  0  0  0  0  0  0  0  0  0  0  0
  -27.3149  -19.9894   21.1974 N   0  0  0  0  0  0  0  0  0  0  0  0
  -26.3784  -13.8104   22.2097 N   0  0  0  0  0  0  0  0  0  0  0  0
  -24.3533  -27.5964   21.4365 N   0  0  0  0  0  0  0  0  0  0  0  0
  -29.6205  -15.7557   22.7695 N   0  0  0  0  0  0  0  0  0  0  0  0
  -25.5600  -15.1357   20.4252 N   0  0  0  0  0  0  0  0  0  0  0  0
  -21.8441  -13.1223   22.0171 N   0  0  0  0  0  0  0  0  0  0  0  0
  -21.2292  -29.0981   22.2821 N   0  0  0  0  0  0  0  0  0  0  0  0
  -27.4304  -28.3822   20.2651 N   0  0  0  0  0  0  0  0  0  0  0  0
  -29.2445  -17.9171   21.8859 N   0  0  0  0  0  0  0  0  0  0  0  0
  -30.1720  -26.5090   21.6944 N   0  3  0  0  0  0  0  0  0  0  0  0
  -22.6421  -14.5677   20.4256 O   0  0  0  0  0  0  0  0  0  0  0  0
  -21.8211  -27.5309   20.6648 O   0  0  0  0  0  0  0  0  0  0  0  0
  -25.2128  -29.7638   21.4408 O   0  0  0  0  0  0  0  0  0  0  0  0
  -27.9239  -26.1270   20.0462 O   0  0  0  0  0  0  0  0  0  0  0  0
  -31.3828  -17.1528   22.2034 O   0  0  0  0  0  0  0  0  0  0  0  0
  -21.6060   -9.5480   26.2836 O   0  0  0  0  0  0  0  0  0  0  0  0
  -23.0589  -21.5651   21.4145 O   0  0  0  0  0  0  0  0  0  1  0  0
  -23.5371   -4.4953   27.3538 F   0  0  0  0  0  0  0  0  0  0  0  0
  -20.1592   -7.2988   25.5830 F   0  0  0  0  0  0  0  0  0  0  0  0
  1  2  1  0  0  0  0
  1  5  2  0  0  0  0
  2  6  2  0  0  0  0
  3  8  2  0  0  0  0
  3 17  1  0  0  0  0
  4  9  1  0  0  0  0
  4 17  2  0  0  0  0
  5 19  1  0  0  0  0
  6 21  1  0  0  0  0
  7 10  2  0  0  0  0
  7 20  1  0  0  0  0
  8 24  1  0  0  0  0
  9 24  2  0  0  0  0
 10 25  1  0  0  0  0
 11 12  2  0  0  0  0
 11 26  1  0  0  0  0
 12 27  1  0  0  0  0
 13 22  1  0  0  0  0
 13 25  2  0  0  0  0
 14 23  1  0  0  0  0
 14 30  2  0  0  0  0
 15 27  2  0  0  0  0
 15 28  1  0  0  0  0
 16 23  2  0  0  0  0
 16 68  1  0  0  0  0
 17 29  1  0  0  0  0
 18 29  1  0  0  0  0
 18 31  2  0  0  0  0
 18 32  1  0  0  0  0
 19 21  2  0  0  0  0
 19 37  1  0  0  0  0
 20 22  2  0  0  0  0
 20 38  1  0  0  0  0
 21 46  1  0  0  0  0
 22 39  1  0  0  0  0
 23 61  1  0  0  0  0
 24 83  1  0  0  0  0
 25 84  1  0  0  0  0
 26 28  2  0  0  0  0
 26 83  1  0  0  0  0
 27 85  1  0  0  0  0
 28 86  1  0  0  0  0
 29 67  2  0  0  0  0
 30 62  1  0  0  0  0
 30 68  1  0  0  0  0
 31 69  1  0  0  0  0
 31 72  1  0  0  0  0
 32 73  1  0  0  0  0
 32 78  2  0  0  0  0
 33 47  1  0  0  0  0
 33 74  1  0  0  0  0
 33 79  2  0  0  0  0
 34 63  1  0  0  0  0
 34 70  1  0  0  0  0
 34 80  2  0  0  0  0
 35 64  1  0  0  0  0
 35 75  1  0  0  0  0
 35 81  2  0  0  0  0
 36 71  1  0  0  0  0
 36 76  1  0  0  0  0
 36 82  2  0  0  0  0
 37 40  1  0  0  0  0
 38 47  1  0  0  0  0
 39 70  1  0  0  0  0
 40 42  1  0  0  0  0
 41 43  1  0  0  0  0
 41 44  1  0  0  0  0
 42 46  1  0  0  0  0
 43 48  1  0  0  0  0
 44 71  1  0  0  0  0
 45 48  1  0  0  0  0
 45 71  1  0  0  0  0
 46 74  1  0  0  0  0
 47 70  1  0  0  0  0
 48 69  1  0  0  0  0
 49 61  1  0  0  0  0
 50 62  1  0  0  0  0
 51 62  1  0  0  0  0
 52 64  1  0  0  0  0
 53 65  1  0  0  0  0
 54 65  1  0  0  0  0
 55 65  1  0  0  0  0
 56 66  1  0  0  0  0
 57 66  1  0  0  0  0
 58 77  1  0  0  0  0
 59 66  1  0  0  0  0
 59 76  1  0  0  0  0
 60 61  1  0  0  0  0
 60 84  1  0  0  0  0
 63 65  1  0  0  0  0
 63 75  1  0  0  0  0
 64 77  1  0  0  0  0
 66 68  1  0  0  0  0
 67 69  1  0  0  0  0
M  CHG  1  77   1
M  ISO  4  36 100  60 101  76 100  84 101
M  END
> <Batch ID>
0093

> <Smiles>
CNC(C)C(=O)NC(C(=O)N1Cc2cc([101O:1][101CH2:1]C(C)c3cc(C(C)C)n(C(C)(C)C[100NH:0][100C:0](=O)N4CCCC(n5nc(-c6ccc(Oc7ccc(F)cc7F)cc6)c(C(N)=O)c5N)C4)c3)ccc2CC1C(=O)NC1CCCc2ccccc21)C(C)(C)C

> <Shape>
0.199

> <Color>
0.108

> <Negative vol penalty>
0.000

$$$$

  -OEChem-04052319163D

 85 92  0     1  0  0  0  0  0999 V2000
  -35.4170  -29.4728   26.4664 C   0  0  0  0  0  0  0  0  0  0  0  0
  -34.7459  -28.2643   26.6227 C   0  0  0  0  0  0  0  0  0  0  0  0
  -23.2101   -9.7092   20.0778 C   0  0  0  0  0  0  0  0  0  0  0  0
  -23.8300   -9.9851   22.3966 C   0  0  0  0  0  0  0  0  0  0  0  0
  -34.7886  -30.5401   25.8260 C   0  0  0  0  0  0  0  0  0  0  0  0
  -33.4455  -28.1226   26.1397 C   0  0  0  0  0  0  0  0  0  0  0  0
  -32.7550  -23.7553   23.6710 C   0  0  0  0  0  0  0  0  0  0  0  0
  -22.5008   -8.5535   20.4049 C   0  0  0  0  0  0  0  0  0  0  0  0
  -23.1206   -8.8294   22.7237 C   0  0  0  0  0  0  0  0  0  0  0  0
  -32.5854  -22.6071   24.4435 C   0  0  0  0  0  0  0  0  0  0  0  0
  -19.8979   -7.9453   23.2261 C   0  0  0  0  0  0  0  0  0  0  0  0
  -19.0743   -7.9888   24.3509 C   0  0  0  0  0  0  0  0  0  0  0  0
  -30.1998  -22.7442   24.1125 C   0  0  0  0  0  0  0  0  0  0  0  0
  -20.3482   -6.1971   25.3530 C   0  0  0  0  0  0  0  0  0  0  0  0
  -23.8747  -10.4249   21.0737 C   0  0  0  0  0  0  0  0  0  0  0  0
  -24.1186  -12.9381   20.7104 C   0  0  0  0  0  0  0  0  0  0  0  0
  -33.4834  -30.4084   25.3263 C   0  0  0  0  0  0  0  0  0  0  0  0
  -31.6455  -24.4138   23.1216 C   0  0  0  0  0  0  0  0  0  0  0  0
  -32.7986  -29.1895   25.4932 C   0  0  0  0  0  0  0  0  0  0  0  0
  -30.3583  -23.8990   23.3313 C   0  0  0  0  0  0  0  0  0  0  0  0
  -22.4561   -8.1137   21.7278 C   0  0  0  0  0  0  0  0  0  0  0  0
  -31.3075  -22.1030   24.6668 C   0  0  0  0  0  0  0  0  0  0  0  0
  -20.9466   -7.0276   23.1646 C   0  0  0  0  0  0  0  0  0  0  0  0
  -19.2994   -7.1147   25.4144 C   0  0  0  0  0  0  0  0  0  0  0  0
  -21.1717   -6.1535   24.2280 C   0  0  0  0  0  0  0  0  0  0  0  0
  -24.6081  -11.6185   20.7363 C   0  0  0  0  0  0  0  0  0  0  0  0
  -25.1987  -13.6976   20.3321 C   0  0  0  0  0  0  0  0  0  0  0  0
  -22.8050  -13.4332   21.0021 C   0  0  0  0  0  0  0  0  0  0  0  0
  -30.3691  -27.3072   23.4420 C   0  0  0  0  0  0  0  0  0  0  0  0
  -28.4249  -26.2874   21.0540 C   0  0  0  0  0  0  0  0  0  0  0  0
  -27.0071  -23.6651   19.3926 C   0  0  0  0  0  0  0  0  0  0  0  0
  -30.3848  -15.1034   20.6296 C   0  0  0  0  0  0  0  0  0  0  0  0
  -32.8281  -31.6049   24.6832 C   0  0  0  0  0  0  0  0  0  0  0  0
  -31.8475  -25.6360   22.2684 C   0  0  0  0  0  0  0  0  0  0  0  0
  -29.1360  -24.5572   22.7469 C   0  0  0  0  0  0  0  0  0  0  0  0
  -31.5862  -31.2543   23.8678 C   0  0  0  0  0  0  0  0  0  0  0  0
  -29.7153  -12.3490   18.5231 C   0  0  0  0  0  0  0  0  0  0  0  0
  -30.6811  -30.3103   24.6530 C   0  0  0  0  0  0  0  0  0  0  0  0
  -28.2782  -12.0099   18.9161 C   0  0  0  0  0  0  0  0  0  0  0  0
  -30.5662  -12.7355   19.7343 C   0  0  0  0  0  0  0  0  0  0  0  0
  -28.5428  -13.4794   20.9488 C   0  0  0  0  0  0  0  0  0  0  0  0
  -31.3962  -28.9892   24.9608 C   0  0  1  0  0  0  0  0  0  0  0  0
  -30.6058  -26.5185   22.1852 C   0  0  1  0  0  0  0  0  0  0  0  0
  -27.6512  -13.1458   19.7428 C   0  0  2  0  0  0  0  0  0  0  0  0
  -33.9331  -18.4634   20.5407 C   0  0  0  0  0  0  0  0  0  0  0  0
  -25.4326  -23.1463   17.5087 C   0  0  0  0  0  0  0  0  0  0  0  0
  -34.1661  -15.0648   26.8544 C   0  0  0  0  0  0  0  0  0  0  0  0
  -33.4481  -13.9266   19.4201 C   0  0  0  0  0  0  0  0  0  0  0  0
  -26.0592  -27.0466   22.8252 C   0  0  0  0  0  0  0  0  0  0  0  0
  -24.5931  -25.6631   21.3404 C   0  0  0  0  0  0  0  0  0  0  0  0
  -25.7900  -27.6451   20.4120 C   0  0  0  0  0  0  0  0  0  0  0  0
  -29.1002  -22.2085   17.8905 C   0  0  0  0  0  0  0  0  0  0  0  0
  -33.2922  -17.1849   21.0625 C   0  0  0  0  0  0  0  0  0  0  0  0
  -32.6954  -17.5081   25.6034 C   0  0  0  0  0  0  0  0  0  0  0  0
  -32.8444  -14.5806   23.2137 C   0  0  0  0  0  0  0  0  0  0  0  0
  -31.6393  -18.6211   25.6239 C   0  0  0  0  0  0  0  0  0  0  0  0
  -32.0997  -16.1109   25.8099 C   0  0  0  0  0  0  0  0  0  0  0  0
  -33.8155  -14.7867   24.3807 C   0  0  0  0  0  0  0  0  0  0  0  0
  -33.6001  -14.3317   21.9023 C   0  0  0  0  0  0  0  0  0  0  0  0
  -32.4030  -16.5067   20.0272 C   0  0  0  0  0  0  0  0  0  0  0  0
  -32.1938  -20.0252   25.4103 C   0  0  0  0  0  0  0  0  0  1  0  0
  -27.1024  -25.5624   20.9881 C   0  0  1  0  0  0  0  0  0  0  0  0
  -26.8837  -23.3598   17.9107 C   0  0  2  0  0  0  0  0  0  0  0  0
  -33.1154  -14.9500   25.7447 C   0  0  1  0  0  0  0  0  0  0  0  0
  -32.6564  -14.1482   20.7050 C   0  0  1  0  0  0  0  0  0  0  0  0
  -25.9088  -26.4678   21.4042 C   0  0  0  0  0  0  0  0  0  0  0  0
  -25.8986  -11.5405   20.4011 N   0  0  0  0  0  0  0  0  0  0  0  0
  -26.2292  -12.8208   20.1609 N   0  0  0  0  0  0  0  0  0  0  0  0
  -29.3849  -25.7531   21.9251 N   0  0  0  0  0  0  0  0  0  0  0  0
  -29.9095  -13.7882   20.5212 N   0  0  0  0  0  0  0  0  0  0  0  0
  -25.3579  -15.0232   20.1326 N   0  0  0  0  0  0  0  0  0  0  0  0
  -21.8131  -12.5162   21.3756 N   0  0  0  0  0  0  0  0  0  0  0  0
  -31.4157  -28.1400   23.7891 N   0  0  0  0  0  0  0  0  0  0  0  0
  -26.9999  -25.0222   19.6368 N   0  0  0  0  0  0  0  0  0  0  0  0
  -31.7722  -15.2939   20.5446 N   0  0  0  0  0  0  0  0  0  0  0  0
  -27.6518  -22.1291   17.5697 N   0  3  0  0  0  0  0  0  0  0  0  0
  -22.5151  -14.6507   20.9177 O   0  0  0  0  0  0  0  0  0  0  0  0
  -29.3143  -27.1715   24.0509 O   0  0  0  0  0  0  0  0  0  0  0  0
  -28.6022  -27.2868   20.3530 O   0  0  0  0  0  0  0  0  0  0  0  0
  -27.0969  -22.7875   20.2483 O   0  0  0  0  0  0  0  0  0  0  0  0
  -29.6133  -16.0560   20.8011 O   0  0  0  0  0  0  0  0  0  0  0  0
  -21.7638   -6.9862   22.0474 O   0  0  0  0  0  0  0  0  0  0  0  0
  -31.1378  -20.9743   25.4267 O   0  0  0  0  0  0  0  0  0  1  0  0
  -18.5094   -7.1577   26.4952 F   0  0  0  0  0  0  0  0  0  0  0  0
  -22.1784   -5.2706   24.1752 F   0  0  0  0  0  0  0  0  0  0  0  0
  1  2  1  0  0  0  0
  1  5  2  0  0  0  0
  2  6  2  0  0  0  0
  3  8  2  0  0  0  0
  3 15  1  0  0  0  0
  4  9  1  0  0  0  0
  4 15  2  0  0  0  0
  5 17  1  0  0  0  0
  6 19  1  0  0  0  0
  7 10  2  0  0  0  0
  7 18  1  0  0  0  0
  8 21  1  0  0  0  0
  9 21  2  0  0  0  0
 10 22  1  0  0  0  0
 11 12  2  0  0  0  0
 11 23  1  0  0  0  0
 12 24  1  0  0  0  0
 13 20  1  0  0  0  0
 13 22  2  0  0  0  0
 14 24  2  0  0  0  0
 14 25  1  0  0  0  0
 15 26  1  0  0  0  0
 16 26  1  0  0  0  0
 16 27  2  0  0  0  0
 16 28  1  0  0  0  0
 17 19  2  0  0  0  0
 17 33  1  0  0  0  0
 18 20  2  0  0  0  0
 18 34  1  0  0  0  0
 19 42  1  0  0  0  0
 20 35  1  0  0  0  0
 21 82  1  0  0  0  0
 22 83  1  0  0  0  0
 23 25  2  0  0  0  0
 23 82  1  0  0  0  0
 24 84  1  0  0  0  0
 25 85  1  0  0  0  0
 26 67  2  0  0  0  0
 27 68  1  0  0  0  0
 27 71  1  0  0  0  0
 28 72  1  0  0  0  0
 28 77  2  0  0  0  0
 29 43  1  0  0  0  0
 29 73  1  0  0  0  0
 29 78  2  0  0  0  0
 30 62  1  0  0  0  0
 30 69  1  0  0  0  0
 30 79  2  0  0  0  0
 31 63  1  0  0  0  0
 31 74  1  0  0  0  0
 31 80  2  0  0  0  0
 32 70  1  0  0  0  0
 32 75  1  0  0  0  0
 32 81  2  0  0  0  0
 33 36  1  0  0  0  0
 34 43  1  0  0  0  0
 35 69  1  0  0  0  0
 36 38  1  0  0  0  0
 37 39  1  0  0  0  0
 37 40  1  0  0  0  0
 38 42  1  0  0  0  0
 39 44  1  0  0  0  0
 40 70  1  0  0  0  0
 41 44  1  0  0  0  0
 41 70  1  0  0  0  0
 42 73  1  0  0  0  0
 43 69  1  0  0  0  0
 44 68  1  0  0  0  0
 45 53  1  0  0  0  0
 46 63  1  0  0  0  0
 47 64  1  0  0  0  0
 48 65  1  0  0  0  0
 49 66  1  0  0  0  0
 50 66  1  0  0  0  0
 51 66  1  0  0  0  0
 52 76  1  0  0  0  0
 53 60  1  0  0  0  0
 54 56  1  0  0  0  0
 54 57  1  0  0  0  0
 55 58  1  0  0  0  0
 55 59  1  0  0  0  0
 56 61  1  0  0  0  0
 57 64  1  0  0  0  0
 58 64  1  0  0  0  0
 59 65  1  0  0  0  0
 60 75  1  0  0  0  0
 61 83  1  0  0  0  0
 62 66  1  0  0  0  0
 62 74  1  0  0  0  0
 63 76  1  0  0  0  0
 65 75  1  0  0  0  0
 67 68  1  0  0  0  0
M  CHG  1  76   1
M  ISO  4  32 100  61 101  75 100  83 101
M  END
> <Batch ID>
0093

> <Smiles>
CCC[100N:0](C(C)CCCC(C)CCC[101CH2:1][101O:1]c1ccc2c(c1)CN(C(=O)C(NC(=O)C(C)NC)C(C)(C)C)C(C(=O)NC1CCCc3ccccc31)C2)[100C:0](=O)N1CCCC(n2nc(-c3ccc(Oc4ccc(F)cc4F)cc3)c(C(N)=O)c2N)C1

> <Shape>
0.191

> <Color>
0.185

> <Negative vol penalty>
0.000

$$$$

  -OEChem-04052319163D

 90 98  0     1  0  0  0  0  0999 V2000
  -22.0067   -8.2079   20.9180 C   0  0  0  0  0  0  0  0  0  0  0  0
  -21.7378   -9.3363   21.6860 C   0  0  0  0  0  0  0  0  0  0  0  0
  -29.8312  -27.1736   21.2274 C   0  0  0  0  0  0  0  0  0  0  0  0
  -28.2628  -25.4402   21.8379 C   0  0  0  0  0  0  0  0  0  0  0  0
  -23.2912   -7.9955   20.4192 C   0  0  0  0  0  0  0  0  0  0  0  0
  -22.7536  -10.2524   21.9567 C   0  0  0  0  0  0  0  0  0  0  0  0
  -21.2531  -15.0513   21.3538 C   0  0  0  0  0  0  0  0  0  0  0  0
  -30.8190  -26.5477   21.9878 C   0  0  0  0  0  0  0  0  0  0  0  0
  -29.2506  -24.8143   22.5983 C   0  0  0  0  0  0  0  0  0  0  0  0
  -20.4858  -15.6115   22.3743 C   0  0  0  0  0  0  0  0  0  0  0  0
  -33.6528  -25.5984   24.0595 C   0  0  0  0  0  0  0  0  0  0  0  0
  -34.4380  -26.3979   24.8900 C   0  0  0  0  0  0  0  0  0  0  0  0
  -22.4483  -16.7217   23.2320 C   0  0  0  0  0  0  0  0  0  0  0  0
  -20.2311  -27.0959   22.7624 C   0  0  0  0  0  0  0  0  0  0  0  0
  -32.4585  -27.1038   26.0819 C   0  0  0  0  0  0  0  0  0  0  0  0
  -28.5531  -26.6199   21.1525 C   0  0  0  0  0  0  0  0  0  0  0  0
  -27.2413  -27.0502   19.0074 C   0  0  0  0  0  0  0  0  0  0  0  0
  -24.3210   -8.9144   20.6758 C   0  0  0  0  0  0  0  0  0  0  0  0
  -22.6281  -15.3138   21.2710 C   0  0  0  0  0  0  0  0  0  0  0  0
  -24.0534  -10.0514   21.4620 C   0  0  0  0  0  0  0  0  0  0  0  0
  -23.2302  -16.1656   22.2080 C   0  0  0  0  0  0  0  0  0  0  0  0
  -18.9893  -26.5654   23.0934 C   0  0  0  0  0  0  0  0  0  0  0  0
  -17.9099  -27.4161   23.3046 C   0  0  0  0  0  0  0  0  0  0  0  0
  -30.5287  -25.3680   22.6732 C   0  0  0  0  0  0  0  0  0  0  0  0
  -21.0840  -16.4445   23.3153 C   0  0  0  0  0  0  0  0  0  0  0  0
  -32.2704  -25.5516   24.2400 C   0  0  0  0  0  0  0  0  0  0  0  0
  -33.8409  -27.1505   25.9013 C   0  0  0  0  0  0  0  0  0  0  0  0
  -31.6733  -26.3043   25.2512 C   0  0  0  0  0  0  0  0  0  0  0  0
  -27.5322  -27.2663   20.3677 C   0  0  0  0  0  0  0  0  0  0  0  0
  -18.1231  -28.7789   23.1736 C   0  0  0  0  0  0  0  0  0  0  0  0
  -20.3403  -28.4730   22.6556 C   0  0  0  0  0  0  0  0  0  0  0  0
  -26.1962  -27.9005   18.7404 C   0  0  0  0  0  0  0  0  0  0  0  0
  -27.8603  -26.1602   18.0690 C   0  0  0  0  0  0  0  0  0  0  0  0
  -25.2630  -13.5425   21.4237 C   0  0  0  0  0  0  0  0  0  0  0  0
  -26.7175  -16.3359   20.6465 C   0  0  0  0  0  0  0  0  0  0  0  0
  -26.6170  -19.7471   20.6267 C   0  0  0  0  0  0  0  0  0  0  0  0
  -21.9487  -30.3470   22.1578 C   0  0  0  0  0  0  0  0  0  0  0  0
  -25.7050   -8.6179   20.1549 C   0  0  0  0  0  0  0  0  0  0  0  0
  -23.4365  -14.7232   20.1486 C   0  0  0  0  0  0  0  0  0  0  0  0
  -24.6987  -16.4952   22.1514 C   0  0  0  0  0  0  0  0  0  0  0  0
  -26.6350   -9.8282   20.1734 C   0  0  0  0  0  0  0  0  0  0  0  0
  -24.3161  -32.0773   20.1383 C   0  0  0  0  0  0  0  0  0  0  0  0
  -26.5418  -10.5527   21.5125 C   0  0  0  0  0  0  0  0  0  0  0  0
  -25.3800  -31.0186   19.8391 C   0  0  0  0  0  0  0  0  0  0  0  0
  -23.7597  -31.9379   21.5541 C   0  0  0  0  0  0  0  0  0  0  0  0
  -24.3260  -29.5407   21.5975 C   0  0  0  0  0  0  0  0  0  0  0  0
  -25.1229  -11.0807   21.7565 C   0  0  1  0  0  0  0  0  0  0  0  0
  -24.9276  -14.6471   20.4619 C   0  0  1  0  0  0  0  0  0  0  0  0
  -24.8695  -29.6002   20.1606 C   0  0  2  0  0  0  0  0  0  0  0  0
  -16.5656  -26.8759   23.6598 C   0  0  0  0  0  0  0  0  0  0  0  0
  -16.6721  -30.5525   22.1234 C   0  0  0  0  0  0  0  0  0  0  0  0
  -17.2652  -30.6946   24.5695 C   0  0  0  0  0  0  0  0  0  0  0  0
  -27.9684  -21.7539   19.9604 C   0  0  0  0  0  0  0  0  0  0  0  0
  -28.5047  -15.9397   23.0875 C   0  0  0  0  0  0  0  0  0  0  0  0
  -29.1476  -18.3538   22.9219 C   0  0  0  0  0  0  0  0  0  0  0  0
  -29.6882  -16.7900   21.0551 C   0  0  0  0  0  0  0  0  0  0  0  0
  -24.5424  -20.6563   18.7218 C   0  0  0  0  0  0  0  0  0  0  0  0
  -18.1099  -20.6337   27.6311 C   0  0  0  0  0  0  0  0  0  0  0  0
  -18.8389  -25.0701   23.2177 C   0  0  0  0  0  0  0  0  0  0  0  0
  -18.8335  -24.5662   24.6654 C   0  0  0  0  0  0  0  0  0  0  0  0
  -18.7575  -23.0399   24.7690 C   0  0  0  0  0  0  0  0  0  0  0  0
  -19.5287  -19.0161   25.3140 C   0  0  0  0  0  0  0  0  0  0  0  0
  -18.7218  -22.5950   26.2241 C   0  0  0  0  0  0  0  0  0  0  0  0
  -19.8426  -20.4019   25.8574 C   0  0  0  0  0  0  0  0  0  0  0  0
  -20.7544  -18.2615   24.8139 C   0  0  0  0  0  0  0  0  0  1  0  0
  -17.0009  -29.7415   23.3898 C   0  0  0  0  0  0  0  0  0  0  0  0
  -27.2889  -17.4964   21.4248 C   0  0  1  0  0  0  0  0  0  0  0  0
  -26.9036  -20.7569   19.5301 C   0  0  2  0  0  0  0  0  0  0  0  0
  -28.6300  -17.1374   22.1248 C   0  0  0  0  0  0  0  0  0  0  0  0
  -26.7363  -28.1823   20.9260 N   0  0  0  0  0  0  0  0  0  0  0  0
  -19.3147  -29.3313   22.8534 N   0  0  0  0  0  0  0  0  0  0  0  0
  -25.9351  -28.5493   19.9113 N   0  0  0  0  0  0  0  0  0  0  0  0
  -25.4480  -15.8883   21.0389 N   0  0  0  0  0  0  0  0  0  0  0  0
  -23.2912  -30.5697   21.7852 N   0  0  0  0  0  0  0  0  0  0  0  0
  -25.4845  -28.1492   17.6206 N   0  0  0  0  0  0  0  0  0  0  0  0
  -28.9208  -25.3568   18.5097 N   0  0  0  0  0  0  0  0  0  0  0  0
  -21.6100  -29.0038   22.3181 N   0  0  0  0  0  0  0  0  0  0  0  0
  -24.8925  -12.2848   20.9874 N   0  0  0  0  0  0  0  0  0  0  0  0
  -27.3838  -18.6098   20.4868 N   0  0  0  0  0  0  0  0  0  0  0  0
  -25.6659  -21.5114   19.1842 N   0  3  0  0  0  0  0  0  0  0  0  0
  -18.6002  -21.0910   26.2783 N   0  3  1  0  0  0  0  0  0  0  0  0
  -27.4948  -26.0917   16.8710 O   0  0  0  0  0  0  0  0  0  0  0  0
  -25.8182  -13.8113   22.4826 O   0  0  0  0  0  0  0  0  0  0  0  0
  -27.3702  -15.8493   19.7198 O   0  0  0  0  0  0  0  0  0  0  0  0
  -25.7976  -19.9488   21.5203 O   0  0  0  0  0  0  0  0  0  0  0  0
  -21.1507  -31.2776   22.2960 O   0  0  0  0  0  0  0  0  0  0  0  0
  -31.4923  -24.7568   23.4151 O   0  0  0  0  0  0  0  0  0  0  0  0
  -20.3376  -16.9921   24.3127 O   0  0  0  0  0  0  0  0  0  1  0  0
  -34.5952  -27.9170   26.6998 F   0  0  0  0  0  0  0  0  0  0  0  0
  -30.3459  -26.2626   25.4302 F   0  0  0  0  0  0  0  0  0  0  0  0
  1  2  1  0  0  0  0
  1  5  2  0  0  0  0
  2  6  2  0  0  0  0
  3  8  2  0  0  0  0
  3 16  1  0  0  0  0
  4  9  1  0  0  0  0
  4 16  2  0  0  0  0
  5 18  1  0  0  0  0
  6 20  1  0  0  0  0
  7 10  2  0  0  0  0
  7 19  1  0  0  0  0
  8 24  1  0  0  0  0
  9 24  2  0  0  0  0
 10 25  1  0  0  0  0
 11 12  2  0  0  0  0
 11 26  1  0  0  0  0
 12 27  1  0  0  0  0
 13 21  1  0  0  0  0
 13 25  2  0  0  0  0
 14 22  1  0  0  0  0
 14 31  2  0  0  0  0
 15 27  2  0  0  0  0
 15 28  1  0  0  0  0
 16 29  1  0  0  0  0
 17 29  1  0  0  0  0
 17 32  2  0  0  0  0
 17 33  1  0  0  0  0
 18 20  2  0  0  0  0
 18 38  1  0  0  0  0
 19 21  2  0  0  0  0
 19 39  1  0  0  0  0
 20 47  1  0  0  0  0
 21 40  1  0  0  0  0
 22 23  2  0  0  0  0
 22 59  1  0  0  0  0
 23 30  1  0  0  0  0
 23 50  1  0  0  0  0
 24 87  1  0  0  0  0
 25 88  1  0  0  0  0
 26 28  2  0  0  0  0
 26 87  1  0  0  0  0
 27 89  1  0  0  0  0
 28 90  1  0  0  0  0
 29 70  2  0  0  0  0
 30 66  1  0  0  0  0
 30 71  2  0  0  0  0
 31 71  1  0  0  0  0
 31 77  1  0  0  0  0
 32 72  1  0  0  0  0
 32 75  1  0  0  0  0
 33 76  1  0  0  0  0
 33 82  2  0  0  0  0
 34 48  1  0  0  0  0
 34 78  1  0  0  0  0
 34 83  2  0  0  0  0
 35 67  1  0  0  0  0
 35 73  1  0  0  0  0
 35 84  2  0  0  0  0
 36 68  1  0  0  0  0
 36 79  1  0  0  0  0
 36 85  2  0  0  0  0
 37 74  1  0  0  0  0
 37 77  1  0  0  0  0
 37 86  2  0  0  0  0
 38 41  1  0  0  0  0
 39 48  1  0  0  0  0
 40 73  1  0  0  0  0
 41 43  1  0  0  0  0
 42 44  1  0  0  0  0
 42 45  1  0  0  0  0
 43 47  1  0  0  0  0
 44 49  1  0  0  0  0
 45 74  1  0  0  0  0
 46 49  1  0  0  0  0
 46 74  1  0  0  0  0
 47 78  1  0  0  0  0
 48 73  1  0  0  0  0
 49 72  1  0  0  0  0
 51 66  1  0  0  0  0
 52 66  1  0  0  0  0
 53 68  1  0  0  0  0
 54 69  1  0  0  0  0
 55 69  1  0  0  0  0
 56 69  1  0  0  0  0
 57 80  1  0  0  0  0
 58 81  1  0  0  0  0
 59 60  1  0  0  0  0
 60 61  1  0  0  0  0
 61 63  1  0  0  0  0
 62 64  1  0  0  0  0
 62 65  1  0  0  0  0
 63 81  1  0  0  0  0
 64 81  1  0  0  0  0
 65 88  1  0  0  0  0
 67 69  1  0  0  0  0
 67 79  1  0  0  0  0
 68 80  1  0  0  0  0
 70 72  1  0  0  0  0
M  CHG  2  80   1  81   1
M  ISO  4  37 100  65 101  77 100  88 101
M  END
> <Batch ID>
0093

> <Smiles>
CNC(C)C(=O)NC(C(=O)N1Cc2cc([101O:1][101CH2:1]CCN(C)CCCCc3cc([100NH:0][100C:0](=O)N4CCCC(n5nc(-c6ccc(Oc7ccc(F)cc7F)cc6)c(C(N)=O)c5N)C4)nc(C(C)C)c3C)ccc2CC1C(=O)NC1CCCc2ccccc21)C(C)(C)C

> <Shape>
0.235

> <Color>
0.066

> <Negative vol penalty>
0.000

$$$$

  -OEChem-04052319163D

 86 94  0     1  0  0  0  0  0999 V2000
  -30.5703  -24.3027   20.1975 C   0  0  0  0  0  0  0  0  0  0  0  0
  -29.3908  -23.8315   20.7652 C   0  0  0  0  0  0  0  0  0  0  0  0
  -24.7034  -29.1170   22.2071 C   0  0  0  0  0  0  0  0  0  0  0  0
  -23.6991  -29.2498   20.0138 C   0  0  0  0  0  0  0  0  0  0  0  0
  -31.1401  -23.6299   19.1174 C   0  0  0  0  0  0  0  0  0  0  0  0
  -28.7798  -22.6878   20.2522 C   0  0  0  0  0  0  0  0  0  0  0  0
  -24.8945  -17.0329   22.3120 C   0  0  0  0  0  0  0  0  0  0  0  0
  -25.4177  -30.2874   21.9509 C   0  0  0  0  0  0  0  0  0  0  0  0
  -24.4133  -30.4203   19.7576 C   0  0  0  0  0  0  0  0  0  0  0  0
  -23.7092  -16.3689   21.9991 C   0  0  0  0  0  0  0  0  0  0  0  0
  -27.2315  -33.4372   22.0120 C   0  0  0  0  0  0  0  0  0  0  0  0
  -27.2715  -34.4053   23.0154 C   0  0  0  0  0  0  0  0  0  0  0  0
  -24.8265  -15.2435   20.1813 C   0  0  0  0  0  0  0  0  0  0  0  0
  -22.0176  -17.3445   18.0167 C   0  0  0  0  0  0  0  0  0  0  0  0
  -24.8634  -34.5849   22.9382 C   0  0  0  0  0  0  0  0  0  0  0  0
  -23.8442  -28.5982   21.2385 C   0  0  0  0  0  0  0  0  0  0  0  0
  -21.8277  -27.2824   22.0812 C   0  0  0  0  0  0  0  0  0  0  0  0
  -30.5410  -22.4719   18.5971 C   0  0  0  0  0  0  0  0  0  0  0  0
  -26.0539  -16.8149   21.5538 C   0  0  0  0  0  0  0  0  0  0  0  0
  -29.3414  -21.9997   19.1633 C   0  0  0  0  0  0  0  0  0  0  0  0
  -26.0259  -15.9040   20.4882 C   0  0  0  0  0  0  0  0  0  0  0  0
  -20.7464  -16.7962   18.1451 C   0  0  0  0  0  0  0  0  0  0  0  0
  -19.6269  -17.6042   17.9804 C   0  0  0  0  0  0  0  0  0  0  0  0
  -25.2727  -30.9390   20.7262 C   0  0  0  0  0  0  0  0  0  0  0  0
  -23.6742  -15.4762   20.9319 C   0  0  0  0  0  0  0  0  0  0  0  0
  -26.0074  -33.0430   21.4716 C   0  0  0  0  0  0  0  0  0  0  0  0
  -26.0875  -34.9791   23.4785 C   0  0  0  0  0  0  0  0  0  0  0  0
  -24.8234  -33.6168   21.9347 C   0  0  0  0  0  0  0  0  0  0  0  0
  -23.1065  -27.3889   21.5023 C   0  0  0  0  0  0  0  0  0  0  0  0
  -22.1148  -18.6956   17.7251 C   0  0  0  0  0  0  0  0  0  0  0  0
  -19.8310  -18.9437   17.6907 C   0  0  0  0  0  0  0  0  0  0  0  0
  -21.5768  -25.9324   22.1134 C   0  0  0  0  0  0  0  0  0  0  0  0
  -20.9455  -28.3117   22.5480 C   0  0  0  0  0  0  0  0  0  0  0  0
  -27.9233  -18.6368   19.7400 C   0  0  0  0  0  0  0  0  0  0  0  0
  -29.7482  -15.9581   19.6107 C   0  0  0  0  0  0  0  0  0  0  0  0
  -29.9264  -12.5590   19.8592 C   0  0  0  0  0  0  0  0  0  0  0  0
  -23.5756  -21.4798   18.7916 C   0  0  0  0  0  0  0  0  0  0  0  0
  -31.1686  -21.8057   17.3984 C   0  0  0  0  0  0  0  0  0  0  0  0
  -27.3315  -17.5188   21.9208 C   0  0  0  0  0  0  0  0  0  0  0  0
  -27.2484  -15.6195   19.6558 C   0  0  0  0  0  0  0  0  0  0  0  0
  -30.6594  -20.3876   17.1536 C   0  0  0  0  0  0  0  0  0  0  0  0
  -23.8176  -21.7126   22.3950 C   0  0  0  0  0  0  0  0  0  0  0  0
  -29.1378  -20.3426   17.2506 C   0  0  0  0  0  0  0  0  0  0  0  0
  -23.5375  -23.1991   22.6233 C   0  0  0  0  0  0  0  0  0  0  0  0
  -24.6396  -21.4931   21.1283 C   0  0  0  0  0  0  0  0  0  0  0  0
  -23.7589  -23.5630   20.1216 C   0  0  0  0  0  0  0  0  0  0  0  0
  -28.6620  -20.7483   18.6508 C   0  0  1  0  0  0  0  0  0  0  0  0
  -28.3189  -17.6081   20.7613 C   0  0  1  0  0  0  0  0  0  0  0  0
  -22.9122  -23.8495   21.3750 C   0  0  2  0  0  0  0  0  0  0  0  0
  -17.6022  -17.3991   19.4450 C   0  0  0  0  0  0  0  0  0  0  0  0
  -18.6171  -20.4593   16.0835 C   0  0  0  0  0  0  0  0  0  0  0  0
  -18.6337  -20.9896   18.5480 C   0  0  0  0  0  0  0  0  0  0  0  0
  -31.5458  -10.6519   19.6652 C   0  0  0  0  0  0  0  0  0  0  0  0
  -29.6602  -16.1958   16.5700 C   0  0  0  0  0  0  0  0  0  0  0  0
  -30.4442  -13.8222   16.4314 C   0  0  0  0  0  0  0  0  0  0  0  0
  -31.8895  -15.5507   17.5019 C   0  0  0  0  0  0  0  0  0  0  0  0
  -29.4992  -11.7577   22.6760 C   0  0  0  0  0  0  0  0  0  0  0  0
  -20.6099  -15.3290   18.4648 C   0  0  0  0  0  0  0  0  0  0  0  0
  -18.2508  -17.0431   18.1099 C   0  0  0  0  0  0  0  0  0  0  0  0
  -23.4631  -19.3180   17.5787 C   0  0  0  0  0  0  0  0  0  0  0  0
  -20.2349  -15.0483   19.9216 C   0  0  0  0  0  0  0  0  0  0  0  0
  -21.2962  -15.5033   20.9166 C   0  0  0  0  0  0  0  0  0  1  0  0
  -18.6674  -19.8612   17.5012 C   0  0  0  0  0  0  0  0  0  0  0  0
  -29.8142  -14.7521   18.7050 C   0  0  1  0  0  0  0  0  0  0  0  0
  -30.8899  -11.6526   20.6038 C   0  0  2  0  0  0  0  0  0  0  0  0
  -30.4283  -15.0868   17.3163 C   0  0  0  0  0  0  0  0  0  0  0  0
  -23.6314  -26.2012   21.1894 N   0  0  0  0  0  0  0  0  0  0  0  0
  -21.0504  -19.5122   17.5582 N   0  0  0  0  0  0  0  0  0  0  0  0
  -22.6778  -25.3356   21.5732 N   0  0  0  0  0  0  0  0  0  0  0  0
  -28.4719  -16.3372   20.0502 N   0  0  0  0  0  0  0  0  0  0  0  0
  -23.9804  -22.1206   19.9743 N   0  0  0  0  0  0  0  0  0  0  0  0
  -20.5240  -25.2094   22.5509 N   0  0  0  0  0  0  0  0  0  0  0  0
  -21.3596  -29.6463   22.4400 N   0  0  0  0  0  0  0  0  0  0  0  0
  -28.8432  -19.6558   19.5824 N   0  0  0  0  0  0  0  0  0  0  0  0
  -30.5371  -13.7242   19.4460 N   0  0  0  0  0  0  0  0  0  0  0  0
  -23.8278  -20.1148   18.7290 N   0  0  0  0  0  0  0  0  0  0  0  0
  -30.1720  -10.8971   21.6691 N   0  3  0  0  0  0  0  0  0  0  0  0
  -19.8301  -28.0546   23.0612 O   0  0  0  0  0  0  0  0  0  0  0  0
  -26.8628  -18.5142   19.1384 O   0  0  0  0  0  0  0  0  0  0  0  0
  -30.7913  -16.5378   19.9227 O   0  0  0  0  0  0  0  0  0  0  0  0
  -28.7506  -12.2615   19.6605 O   0  0  0  0  0  0  0  0  0  0  0  0
  -23.0247  -22.0789   17.8617 O   0  0  0  0  0  0  0  0  0  0  0  0
  -25.9693  -32.0812   20.4760 O   0  0  0  0  0  0  0  0  0  0  0  0
  -22.5184  -14.8273   20.6239 O   0  0  0  0  0  0  0  0  0  1  0  0
  -26.1260  -35.9076   24.4432 F   0  0  0  0  0  0  0  0  0  0  0  0
  -23.6444  -33.2413   21.4202 F   0  0  0  0  0  0  0  0  0  0  0  0
  1  2  1  0  0  0  0
  1  5  2  0  0  0  0
  2  6  2  0  0  0  0
  3  8  2  0  0  0  0
  3 16  1  0  0  0  0
  4  9  1  0  0  0  0
  4 16  2  0  0  0  0
  5 18  1  0  0  0  0
  6 20  1  0  0  0  0
  7 10  2  0  0  0  0
  7 19  1  0  0  0  0
  8 24  1  0  0  0  0
  9 24  2  0  0  0  0
 10 25  1  0  0  0  0
 11 12  2  0  0  0  0
 11 26  1  0  0  0  0
 12 27  1  0  0  0  0
 13 21  1  0  0  0  0
 13 25  2  0  0  0  0
 14 22  2  0  0  0  0
 14 30  1  0  0  0  0
 15 27  2  0  0  0  0
 15 28  1  0  0  0  0
 16 29  1  0  0  0  0
 17 29  1  0  0  0  0
 17 32  2  0  0  0  0
 17 33  1  0  0  0  0
 18 20  2  0  0  0  0
 18 38  1  0  0  0  0
 19 21  2  0  0  0  0
 19 39  1  0  0  0  0
 20 47  1  0  0  0  0
 21 40  1  0  0  0  0
 22 23  1  0  0  0  0
 22 58  1  0  0  0  0
 23 31  2  0  0  0  0
 23 59  1  0  0  0  0
 24 83  1  0  0  0  0
 25 84  1  0  0  0  0
 26 28  2  0  0  0  0
 26 83  1  0  0  0  0
 27 85  1  0  0  0  0
 28 86  1  0  0  0  0
 29 67  2  0  0  0  0
 30 60  1  0  0  0  0
 30 68  2  0  0  0  0
 31 63  1  0  0  0  0
 31 68  1  0  0  0  0
 32 69  1  0  0  0  0
 32 72  1  0  0  0  0
 33 73  1  0  0  0  0
 33 78  2  0  0  0  0
 34 48  1  0  0  0  0
 34 74  1  0  0  0  0
 34 79  2  0  0  0  0
 35 64  1  0  0  0  0
 35 70  1  0  0  0  0
 35 80  2  0  0  0  0
 36 65  1  0  0  0  0
 36 75  1  0  0  0  0
 36 81  2  0  0  0  0
 37 71  1  0  0  0  0
 37 76  1  0  0  0  0
 37 82  2  0  0  0  0
 38 41  1  0  0  0  0
 39 48  1  0  0  0  0
 40 70  1  0  0  0  0
 41 43  1  0  0  0  0
 42 44  1  0  0  0  0
 42 45  1  0  0  0  0
 43 47  1  0  0  0  0
 44 49  1  0  0  0  0
 45 71  1  0  0  0  0
 46 49  1  0  0  0  0
 46 71  1  0  0  0  0
 47 74  1  0  0  0  0
 48 70  1  0  0  0  0
 49 69  1  0  0  0  0
 50 59  1  0  0  0  0
 51 63  1  0  0  0  0
 52 63  1  0  0  0  0
 53 65  1  0  0  0  0
 54 66  1  0  0  0  0
 55 66  1  0  0  0  0
 56 66  1  0  0  0  0
 57 77  1  0  0  0  0
 58 61  1  0  0  0  0
 60 76  1  0  0  0  0
 61 62  1  0  0  0  0
 62 84  1  0  0  0  0
 64 66  1  0  0  0  0
 64 75  1  0  0  0  0
 65 77  1  0  0  0  0
 67 69  1  0  0  0  0
M  CHG  1  77   1
M  ISO  4  37 100  62 101  76 100  84 101
M  END
> <Batch ID>
0093

> <Smiles>
CCc1c(CC[101CH2:1][101O:1]c2ccc3c(c2)CN(C(=O)C(NC(=O)C(C)NC)C(C)(C)C)C(C(=O)NC2CCCc4ccccc42)C3)cc(C[100NH:0][100C:0](=O)N2CCCC(n3nc(-c4ccc(Oc5ccc(F)cc5F)cc4)c(C(N)=O)c3N)C2)nc1C(C)C

> <Shape>
0.207

> <Color>
0.054

> <Negative vol penalty>
0.000

$$$$

  -OEChem-04052319163D

 89 97  0     1  0  0  0  0  0999 V2000
  -21.6882  -29.5703   23.3600 C   0  0  0  0  0  0  0  0  0  0  0  0
  -21.6043  -28.2783   22.8507 C   0  0  0  0  0  0  0  0  0  0  0  0
  -23.3739  -10.0531   22.2538 C   0  0  0  0  0  0  0  0  0  0  0  0
  -24.0801   -9.3503   20.0528 C   0  0  0  0  0  0  0  0  0  0  0  0
  -22.7198  -30.4141   22.9504 C   0  0  0  0  0  0  0  0  0  0  0  0
  -22.5513  -27.8299   21.9307 C   0  0  0  0  0  0  0  0  0  0  0  0
  -24.2182  -23.1638   22.9767 C   0  0  0  0  0  0  0  0  0  0  0  0
  -22.4994   -8.9684   22.3196 C   0  0  0  0  0  0  0  0  0  0  0  0
  -23.2057   -8.2655   20.1186 C   0  0  0  0  0  0  0  0  0  0  0  0
  -23.3880  -22.0986   22.6305 C   0  0  0  0  0  0  0  0  0  0  0  0
  -20.3446   -6.1814   23.2164 C   0  0  0  0  0  0  0  0  0  0  0  0
  -20.3123   -5.4454   24.4008 C   0  0  0  0  0  0  0  0  0  0  0  0
  -24.7061  -21.7245   20.6450 C   0  0  0  0  0  0  0  0  0  0  0  0
  -22.6543   -4.9149   24.1350 C   0  0  0  0  0  0  0  0  0  0  0  0
  -21.7713  -18.8388   15.7721 C   0  0  0  0  0  0  0  0  0  0  0  0
  -24.1642  -10.2441   21.1204 C   0  0  0  0  0  0  0  0  0  0  0  0
  -26.4106  -11.4010   21.4709 C   0  0  0  0  0  0  0  0  0  0  0  0
  -23.6855  -29.9725   22.0322 C   0  0  0  0  0  0  0  0  0  0  0  0
  -25.2939  -23.5248   22.1527 C   0  0  0  0  0  0  0  0  0  0  0  0
  -23.5960  -28.6690   21.5075 C   0  0  0  0  0  0  0  0  0  0  0  0
  -25.5500  -22.7930   20.9843 C   0  0  0  0  0  0  0  0  0  0  0  0
  -21.0343  -19.9569   16.0772 C   0  0  0  0  0  0  0  0  0  0  0  0
  -22.4154   -8.0746   21.2520 C   0  0  0  0  0  0  0  0  0  0  0  0
  -23.6301  -21.3806   21.4630 C   0  0  0  0  0  0  0  0  0  0  0  0
  -21.5317   -6.2841   22.4913 C   0  0  0  0  0  0  0  0  0  0  0  0
  -21.4671   -4.8121   24.8601 C   0  0  0  0  0  0  0  0  0  0  0  0
  -22.6866   -5.6509   22.9506 C   0  0  0  0  0  0  0  0  0  0  0  0
  -25.0673  -11.3648   21.0516 C   0  0  0  0  0  0  0  0  0  0  0  0
  -21.8077  -21.0303   15.5960 C   0  0  0  0  0  0  0  0  0  0  0  0
  -26.8226  -12.6815   21.1933 C   0  0  0  0  0  0  0  0  0  0  0  0
  -27.2143  -10.3693   22.0587 C   0  0  0  0  0  0  0  0  0  0  0  0
  -26.0840  -26.1270   20.5070 C   0  0  0  0  0  0  0  0  0  0  0  0
  -28.8294  -24.4830   19.9756 C   0  0  0  0  0  0  0  0  0  0  0  0
  -30.4093  -21.4634   19.7939 C   0  0  0  0  0  0  0  0  0  0  0  0
  -24.9780  -16.6305   17.2110 C   0  0  0  0  0  0  0  0  0  0  0  0
  -24.7549  -30.9366   21.5834 C   0  0  0  0  0  0  0  0  0  0  0  0
  -26.1961  -24.6595   22.5539 C   0  0  0  0  0  0  0  0  0  0  0  0
  -26.7038  -23.1276   20.0760 C   0  0  0  0  0  0  0  0  0  0  0  0
  -25.9338  -30.2589   20.8898 C   0  0  0  0  0  0  0  0  0  0  0  0
  -25.1514  -17.1481   20.7887 C   0  0  0  0  0  0  0  0  0  0  0  0
  -25.4383  -29.2489   19.8596 C   0  0  0  0  0  0  0  0  0  0  0  0
  -25.2783  -15.7112   21.2981 C   0  0  0  0  0  0  0  0  0  0  0  0
  -24.2131  -17.2281   19.5881 C   0  0  0  0  0  0  0  0  0  0  0  0
  -24.7115  -14.8971   18.9623 C   0  0  0  0  0  0  0  0  0  0  0  0
  -24.6186  -28.1377   20.5265 C   0  0  1  0  0  0  0  0  0  0  0  0
  -26.9545  -25.2648   21.3767 C   0  0  1  0  0  0  0  0  0  0  0  0
  -25.6646  -14.7460   20.1618 C   0  0  2  0  0  0  0  0  0  0  0  0
  -18.6172  -19.3038   15.9358 C   0  0  0  0  0  0  0  0  0  0  0  0
  -32.6456  -20.4367   19.3019 C   0  0  0  0  0  0  0  0  0  0  0  0
  -21.7129  -25.0571   18.6004 C   0  0  0  0  0  0  0  0  0  0  0  0
  -22.2857  -25.4007   16.1892 C   0  0  0  0  0  0  0  0  0  0  0  0
  -28.3870  -24.9541   16.9936 C   0  0  0  0  0  0  0  0  0  0  0  0
  -30.0617  -23.1513   16.5314 C   0  0  0  0  0  0  0  0  0  0  0  0
  -30.7564  -25.2138   17.7506 C   0  0  0  0  0  0  0  0  0  0  0  0
  -30.5962  -20.2895   22.5042 C   0  0  0  0  0  0  0  0  0  0  0  0
  -21.4936  -22.4685   15.6571 C   0  0  0  0  0  0  0  0  0  0  0  0
  -21.7278  -23.0697   17.0631 C   0  0  0  0  0  0  0  0  0  0  0  0
  -20.6421  -20.2002   19.1517 C   0  0  0  0  0  0  0  0  0  0  0  0
  -20.5732  -19.6384   20.5757 C   0  0  0  0  0  0  0  0  0  0  0  0
  -19.7216  -19.4205   18.2041 C   0  0  0  0  0  0  0  0  0  0  0  0
  -23.9804  -18.4846   14.6437 C   0  0  0  0  0  0  0  0  0  0  0  0
  -25.1983  -18.4732   15.5639 C   0  0  0  0  0  0  0  0  0  0  0  0
  -21.4596  -20.4121   21.5442 C   0  0  0  0  0  0  0  0  0  1  0  0
  -19.6875  -20.0096   16.7777 C   0  0  1  0  0  0  0  0  0  0  0  0
  -29.3059  -23.5087   18.9256 C   0  0  1  0  0  0  0  0  0  0  0  0
  -31.7209  -20.9759   20.3823 C   0  0  2  0  0  0  0  0  0  0  0  0
  -21.4473  -24.5802   17.1703 C   0  0  0  0  0  0  0  0  0  0  0  0
  -29.6048  -24.2017   17.5662 C   0  0  0  0  0  0  0  0  0  0  0  0
  -24.6533  -12.5297   20.5462 N   0  0  0  0  0  0  0  0  0  0  0  0
  -22.9486  -20.6300   15.0285 N   0  0  0  0  0  0  0  0  0  0  0  0
  -22.8976  -19.2927   15.1513 N   0  0  0  0  0  0  0  0  0  0  0  0
  -25.7429  -13.3100   20.6462 N   0  0  0  0  0  0  0  0  0  0  0  0
  -27.5536  -24.2494   20.5082 N   0  0  0  0  0  0  0  0  0  0  0  0
  -24.6471  -16.2988   18.5354 N   0  0  0  0  0  0  0  0  0  0  0  0
  -27.9994  -13.3198   21.3663 N   0  0  0  0  0  0  0  0  0  0  0  0
  -26.6341   -9.1119   22.2748 N   0  0  0  0  0  0  0  0  0  0  0  0
  -25.4932  -27.1834   21.1737 N   0  0  0  0  0  0  0  0  0  0  0  0
  -30.4488  -22.8111   19.5047 N   0  0  0  0  0  0  0  0  0  0  0  0
  -24.8844  -17.9781   16.8858 N   0  0  0  0  0  0  0  0  0  0  0  0
  -31.4726  -19.8906   21.3729 N   0  3  0  0  0  0  0  0  0  0  0  0
  -28.4066  -10.5617   22.3977 O   0  0  0  0  0  0  0  0  0  0  0  0
  -25.9588  -25.8549   19.3187 O   0  0  0  0  0  0  0  0  0  0  0  0
  -29.5651  -25.4128   20.3161 O   0  0  0  0  0  0  0  0  0  0  0  0
  -29.4471  -20.7222   19.6059 O   0  0  0  0  0  0  0  0  0  0  0  0
  -25.3360  -15.7882   16.3807 O   0  0  0  0  0  0  0  0  0  0  0  0
  -21.5624   -7.0159   21.3160 O   0  0  0  0  0  0  0  0  0  0  0  0
  -22.8210  -20.3408   21.1224 O   0  0  0  0  0  0  0  0  0  1  0  0
  -21.4363   -4.1067   25.9983 F   0  0  0  0  0  0  0  0  0  0  0  0
  -23.8303   -5.7470   22.2589 F   0  0  0  0  0  0  0  0  0  0  0  0
  1  2  1  0  0  0  0
  1  5  2  0  0  0  0
  2  6  2  0  0  0  0
  3  8  2  0  0  0  0
  3 16  1  0  0  0  0
  4  9  1  0  0  0  0
  4 16  2  0  0  0  0
  5 18  1  0  0  0  0
  6 20  1  0  0  0  0
  7 10  2  0  0  0  0
  7 19  1  0  0  0  0
  8 23  1  0  0  0  0
  9 23  2  0  0  0  0
 10 24  1  0  0  0  0
 11 12  2  0  0  0  0
 11 25  1  0  0  0  0
 12 26  1  0  0  0  0
 13 21  1  0  0  0  0
 13 24  2  0  0  0  0
 14 26  2  0  0  0  0
 14 27  1  0  0  0  0
 15 22  2  0  0  0  0
 15 71  1  0  0  0  0
 16 28  1  0  0  0  0
 17 28  1  0  0  0  0
 17 30  2  0  0  0  0
 17 31  1  0  0  0  0
 18 20  2  0  0  0  0
 18 36  1  0  0  0  0
 19 21  2  0  0  0  0
 19 37  1  0  0  0  0
 20 45  1  0  0  0  0
 21 38  1  0  0  0  0
 22 29  1  0  0  0  0
 22 64  1  0  0  0  0
 23 86  1  0  0  0  0
 24 87  1  0  0  0  0
 25 27  2  0  0  0  0
 25 86  1  0  0  0  0
 26 88  1  0  0  0  0
 27 89  1  0  0  0  0
 28 69  2  0  0  0  0
 29 56  1  0  0  0  0
 29 70  2  0  0  0  0
 30 72  1  0  0  0  0
 30 75  1  0  0  0  0
 31 76  1  0  0  0  0
 31 81  2  0  0  0  0
 32 46  1  0  0  0  0
 32 77  1  0  0  0  0
 32 82  2  0  0  0  0
 33 65  1  0  0  0  0
 33 73  1  0  0  0  0
 33 83  2  0  0  0  0
 34 66  1  0  0  0  0
 34 78  1  0  0  0  0
 34 84  2  0  0  0  0
 35 74  1  0  0  0  0
 35 79  1  0  0  0  0
 35 85  2  0  0  0  0
 36 39  1  0  0  0  0
 37 46  1  0  0  0  0
 38 73  1  0  0  0  0
 39 41  1  0  0  0  0
 40 42  1  0  0  0  0
 40 43  1  0  0  0  0
 41 45  1  0  0  0  0
 42 47  1  0  0  0  0
 43 74  1  0  0  0  0
 44 47  1  0  0  0  0
 44 74  1  0  0  0  0
 45 77  1  0  0  0  0
 46 73  1  0  0  0  0
 47 72  1  0  0  0  0
 48 64  1  0  0  0  0
 49 66  1  0  0  0  0
 50 67  1  0  0  0  0
 51 67  1  0  0  0  0
 52 68  1  0  0  0  0
 53 68  1  0  0  0  0
 54 68  1  0  0  0  0
 55 80  1  0  0  0  0
 56 57  1  0  0  0  0
 57 67  1  0  0  0  0
 58 59  1  0  0  0  0
 58 60  1  0  0  0  0
 59 63  1  0  0  0  0
 60 64  1  0  0  0  0
 61 62  1  0  0  0  0
 61 71  1  0  0  0  0
 62 79  1  0  0  0  0
 63 87  1  0  0  0  0
 65 68  1  0  0  0  0
 65 78  1  0  0  0  0
 66 80  1  0  0  0  0
 69 72  1  0  0  0  0
 70 71  1  0  0  0  0
M  CHG  1  80   1
M  ISO  4  35 100  63 101  79 100  87 101
M  END
> <Batch ID>
0093

> <Smiles>
CNC(C)C(=O)NC(C(=O)N1Cc2cc([101O:1][101CH2:1]CCCC(C)c3cn(CC[100NH:0][100C:0](=O)N4CCCC(n5nc(-c6ccc(Oc7ccc(F)cc7F)cc6)c(C(N)=O)c5N)C4)nc3CCC(C)C)ccc2CC1C(=O)NC1CCCc2ccccc21)C(C)(C)C

> <Shape>
0.214

> <Color>
0.098

> <Negative vol penalty>
0.000

$$$$

  -OEChem-04052319163D

 88 96  0     1  0  0  0  0  0999 V2000
  -27.2901  -31.7151   23.3605 C   0  0  0  0  0  0  0  0  0  0  0  0
  -27.4326  -30.3695   23.6839 C   0  0  0  0  0  0  0  0  0  0  0  0
  -24.9474  -20.5832   24.6343 C   0  0  0  0  0  0  0  0  0  0  0  0
  -24.1863  -18.3109   24.9421 C   0  0  0  0  0  0  0  0  0  0  0  0
  -26.3826  -32.1017   22.3753 C   0  0  0  0  0  0  0  0  0  0  0  0
  -26.6667  -29.4098   23.0230 C   0  0  0  0  0  0  0  0  0  0  0  0
  -26.9806  -22.6343   20.7188 C   0  0  0  0  0  0  0  0  0  0  0  0
  -23.6241  -21.0134   24.5380 C   0  0  0  0  0  0  0  0  0  0  0  0
  -22.8630  -18.7411   24.8458 C   0  0  0  0  0  0  0  0  0  0  0  0
  -26.2696  -21.4373   20.7931 C   0  0  0  0  0  0  0  0  0  0  0  0
  -19.2942  -19.1874   24.3218 C   0  0  0  0  0  0  0  0  0  0  0  0
  -18.4259  -18.4405   23.5258 C   0  0  0  0  0  0  0  0  0  0  0  0
  -24.7909  -22.2146   19.0530 C   0  0  0  0  0  0  0  0  0  0  0  0
  -26.7359  -13.6775   19.6938 C   0  0  0  0  0  0  0  0  0  0  0  0
  -19.8271  -18.8608   21.6030 C   0  0  0  0  0  0  0  0  0  0  0  0
  -25.2286  -19.2319   24.8363 C   0  0  0  0  0  0  0  0  0  0  0  0
  -27.3735  -18.6842   26.1039 C   0  0  0  0  0  0  0  0  0  0  0  0
  -25.6121  -31.1454   21.6951 C   0  0  0  0  0  0  0  0  0  0  0  0
  -26.5948  -23.6365   19.8170 C   0  0  0  0  0  0  0  0  0  0  0  0
  -25.7470  -29.7842   22.0286 C   0  0  0  0  0  0  0  0  0  0  0  0
  -25.5002  -23.4223   18.9673 C   0  0  0  0  0  0  0  0  0  0  0  0
  -25.3746  -13.8573   19.8655 C   0  0  0  0  0  0  0  0  0  0  0  0
  -22.5818  -20.0924   24.6438 C   0  0  0  0  0  0  0  0  0  0  0  0
  -25.1728  -21.2285   19.9622 C   0  0  0  0  0  0  0  0  0  0  0  0
  -20.4289  -19.7712   23.7584 C   0  0  0  0  0  0  0  0  0  0  0  0
  -18.6923  -18.2771   22.1664 C   0  0  0  0  0  0  0  0  0  0  0  0
  -20.6953  -19.6078   22.3990 C   0  0  0  0  0  0  0  0  0  0  0  0
  -26.5954  -18.7868   24.9353 C   0  0  0  0  0  0  0  0  0  0  0  0
  -27.2851  -12.4774   20.0983 C   0  0  0  0  0  0  0  0  0  0  0  0
  -24.6527  -12.8249   20.4300 C   0  0  0  0  0  0  0  0  0  0  0  0
  -28.5890  -18.2171   25.6672 C   0  0  0  0  0  0  0  0  0  0  0  0
  -27.0284  -18.9843   27.4628 C   0  0  0  0  0  0  0  0  0  0  0  0
  -25.5891  -26.6389   20.0960 C   0  0  0  0  0  0  0  0  0  0  0  0
  -25.8009  -26.5995   16.8593 C   0  0  0  0  0  0  0  0  0  0  0  0
  -25.8127  -24.7695   13.9788 C   0  0  0  0  0  0  0  0  0  0  0  0
  -30.2531  -15.0429   20.8707 C   0  0  0  0  0  0  0  0  0  0  0  0
  -24.6100  -31.6157   20.6708 C   0  0  0  0  0  0  0  0  0  0  0  0
  -27.3884  -24.9112   19.7303 C   0  0  0  0  0  0  0  0  0  0  0  0
  -25.0575  -24.4584   17.9678 C   0  0  0  0  0  0  0  0  0  0  0  0
  -24.1071  -30.5027   19.7551 C   0  0  0  0  0  0  0  0  0  0  0  0
  -31.4572  -18.2509   21.8380 C   0  0  0  0  0  0  0  0  0  0  0  0
  -23.7338  -29.2686   20.5702 C   0  0  0  0  0  0  0  0  0  0  0  0
  -30.4180  -18.7427   22.8469 C   0  0  0  0  0  0  0  0  0  0  0  0
  -30.8126  -17.4506   20.7084 C   0  0  0  0  0  0  0  0  0  0  0  0
  -28.9224  -16.8219   22.1595 C   0  0  0  0  0  0  0  0  0  0  0  0
  -24.9520  -28.7113   21.3166 C   0  0  1  0  0  0  0  0  0  0  0  0
  -26.5945  -26.0700   19.1351 C   0  0  1  0  0  0  0  0  0  0  0  0
  -29.5313  -17.5866   23.3473 C   0  0  2  0  0  0  0  0  0  0  0  0
  -19.4836  -14.6749   23.6697 C   0  0  0  0  0  0  0  0  0  0  0  0
  -25.9638  -25.0199   11.4864 C   0  0  0  0  0  0  0  0  0  0  0  0
  -22.9070  -27.5636   16.7832 C   0  0  0  0  0  0  0  0  0  0  0  0
  -22.8190  -26.8897   14.3736 C   0  0  0  0  0  0  0  0  0  0  0  0
  -24.4152  -28.6575   15.1149 C   0  0  0  0  0  0  0  0  0  0  0  0
  -28.2917  -23.1578   13.8507 C   0  0  0  0  0  0  0  0  0  0  0  0
  -24.7239  -15.1494   19.4401 C   0  0  0  0  0  0  0  0  0  0  0  0
  -28.7464  -12.2336   19.9359 C   0  0  0  0  0  0  0  0  0  0  0  0
  -23.1821  -12.9472   20.6467 C   0  0  0  0  0  0  0  0  0  0  0  0
  -20.9778  -14.6478   23.3898 C   0  0  0  0  0  0  0  0  0  0  0  0
  -25.3006  -16.3899   20.1314 C   0  0  0  0  0  0  0  0  0  0  0  0
  -22.8079  -13.7767   21.8823 C   0  0  0  0  0  0  0  0  0  0  0  0
  -21.2982  -13.8323   22.1366 C   0  0  0  0  0  0  0  0  0  0  0  0
  -24.5773  -17.6809   19.7454 C   0  0  0  0  0  0  0  0  0  0  0  0
  -29.5812  -12.6698   21.1464 C   0  0  0  0  0  0  0  0  0  0  0  0
  -25.2022  -18.8948   20.4195 C   0  0  0  0  0  0  0  0  0  1  0  0
  -24.8624  -26.2465   15.7308 C   0  0  1  0  0  0  0  0  0  0  0  0
  -26.7378  -24.7912   12.7754 C   0  0  2  0  0  0  0  0  0  0  0  0
  -23.7578  -27.3204   15.5207 C   0  0  0  0  0  0  0  0  0  0  0  0
  -27.2608  -18.4148   23.8385 N   0  0  0  0  0  0  0  0  0  0  0  0
  -26.5545  -11.4844   20.6480 N   0  0  0  0  0  0  0  0  0  0  0  0
  -25.2165  -11.6610   20.8164 N   0  0  0  0  0  0  0  0  0  0  0  0
  -28.4698  -18.0741   24.3161 N   0  0  0  0  0  0  0  0  0  0  0  0
  -25.8619  -25.6908   17.9253 N   0  0  0  0  0  0  0  0  0  0  0  0
  -29.9866  -16.3688   21.2501 N   0  0  0  0  0  0  0  0  0  0  0  0
  -29.7375  -17.9188   26.3110 N   0  0  0  0  0  0  0  0  0  0  0  0
  -25.7367  -19.4547   27.7358 N   0  0  0  0  0  0  0  0  0  0  0  0
  -25.8020  -27.9671   20.4122 N   0  0  0  0  0  0  0  0  0  0  0  0
  -25.7011  -26.0150   14.5597 N   0  0  0  0  0  0  0  0  0  0  0  0
  -29.4274  -14.0783   21.4350 N   0  0  0  0  0  0  0  0  0  0  0  0
  -27.4695  -23.4980   12.6610 N   0  3  0  0  0  0  0  0  0  0  0  0
  -27.8466  -18.8552   28.4048 O   0  0  0  0  0  0  0  0  0  0  0  0
  -24.6862  -25.9260   20.5181 O   0  0  0  0  0  0  0  0  0  0  0  0
  -26.4610  -27.6395   16.7940 O   0  0  0  0  0  0  0  0  0  0  0  0
  -25.2430  -23.7503   14.3626 O   0  0  0  0  0  0  0  0  0  0  0  0
  -31.1630  -14.7407   20.0911 O   0  0  0  0  0  0  0  0  0  0  0  0
  -21.2904  -20.5119   24.5502 O   0  0  0  0  0  0  0  0  0  0  0  0
  -24.4767  -20.0613   20.0332 O   0  0  0  0  0  0  0  0  0  1  0  0
  -17.8592  -17.5584   21.4024 F   0  0  0  0  0  0  0  0  0  0  0  0
  -21.7845  -20.1652   21.8523 F   0  0  0  0  0  0  0  0  0  0  0  0
  1  2  1  0  0  0  0
  1  5  2  0  0  0  0
  2  6  2  0  0  0  0
  3  8  2  0  0  0  0
  3 16  1  0  0  0  0
  4  9  1  0  0  0  0
  4 16  2  0  0  0  0
  5 18  1  0  0  0  0
  6 20  1  0  0  0  0
  7 10  2  0  0  0  0
  7 19  1  0  0  0  0
  8 23  1  0  0  0  0
  9 23  2  0  0  0  0
 10 24  1  0  0  0  0
 11 12  2  0  0  0  0
 11 25  1  0  0  0  0
 12 26  1  0  0  0  0
 13 21  1  0  0  0  0
 13 24  2  0  0  0  0
 14 22  1  0  0  0  0
 14 29  2  0  0  0  0
 15 26  2  0  0  0  0
 15 27  1  0  0  0  0
 16 28  1  0  0  0  0
 17 28  1  0  0  0  0
 17 31  2  0  0  0  0
 17 32  1  0  0  0  0
 18 20  2  0  0  0  0
 18 37  1  0  0  0  0
 19 21  2  0  0  0  0
 19 38  1  0  0  0  0
 20 46  1  0  0  0  0
 21 39  1  0  0  0  0
 22 30  2  0  0  0  0
 22 55  1  0  0  0  0
 23 85  1  0  0  0  0
 24 86  1  0  0  0  0
 25 27  2  0  0  0  0
 25 85  1  0  0  0  0
 26 87  1  0  0  0  0
 27 88  1  0  0  0  0
 28 68  2  0  0  0  0
 29 56  1  0  0  0  0
 29 69  1  0  0  0  0
 30 57  1  0  0  0  0
 30 70  1  0  0  0  0
 31 71  1  0  0  0  0
 31 74  1  0  0  0  0
 32 75  1  0  0  0  0
 32 80  2  0  0  0  0
 33 47  1  0  0  0  0
 33 76  1  0  0  0  0
 33 81  2  0  0  0  0
 34 65  1  0  0  0  0
 34 72  1  0  0  0  0
 34 82  2  0  0  0  0
 35 66  1  0  0  0  0
 35 77  1  0  0  0  0
 35 83  2  0  0  0  0
 36 73  1  0  0  0  0
 36 78  1  0  0  0  0
 36 84  2  0  0  0  0
 37 40  1  0  0  0  0
 38 47  1  0  0  0  0
 39 72  1  0  0  0  0
 40 42  1  0  0  0  0
 41 43  1  0  0  0  0
 41 44  1  0  0  0  0
 42 46  1  0  0  0  0
 43 48  1  0  0  0  0
 44 73  1  0  0  0  0
 45 48  1  0  0  0  0
 45 73  1  0  0  0  0
 46 76  1  0  0  0  0
 47 72  1  0  0  0  0
 48 71  1  0  0  0  0
 49 58  1  0  0  0  0
 50 66  1  0  0  0  0
 51 67  1  0  0  0  0
 52 67  1  0  0  0  0
 53 67  1  0  0  0  0
 54 79  1  0  0  0  0
 55 59  1  0  0  0  0
 56 63  1  0  0  0  0
 57 60  1  0  0  0  0
 58 61  1  0  0  0  0
 59 62  1  0  0  0  0
 60 61  1  0  0  0  0
 62 64  1  0  0  0  0
 63 78  1  0  0  0  0
 64 86  1  0  0  0  0
 65 67  1  0  0  0  0
 65 77  1  0  0  0  0
 66 79  1  0  0  0  0
 68 71  1  0  0  0  0
 69 70  2  0  0  0  0
M  CHG  1  79   1
M  ISO  4  36 100  64 101  78 100  86 101
M  END
> <Batch ID>
0093

> <Smiles>
CCCCCc1nnc(CC[100NH:0][100C:0](=O)N2CCCC(n3nc(-c4ccc(Oc5ccc(F)cc5F)cc4)c(C(N)=O)c3N)C2)cc1CCC[101CH2:1][101O:1]c1ccc2c(c1)CN(C(=O)C(NC(=O)C(C)NC)C(C)(C)C)C(C(=O)NC1CCCc3ccccc31)C2

> <Shape>
0.168

> <Color>
0.062

> <Negative vol penalty>
0.000

$$$$

  -OEChem-04052319163D

 86 94  0     1  0  0  0  0  0999 V2000
  -30.2542  -11.9765   19.8720 C   0  0  0  0  0  0  0  0  0  0  0  0
  -29.8077  -12.8982   20.8122 C   0  0  0  0  0  0  0  0  0  0  0  0
  -28.0549  -20.9419   18.9701 C   0  0  0  0  0  0  0  0  0  0  0  0
  -30.3679  -21.3019   19.5680 C   0  0  0  0  0  0  0  0  0  0  0  0
  -29.5982  -11.8615   18.6482 C   0  0  0  0  0  0  0  0  0  0  0  0
  -28.6979  -13.6967   20.5338 C   0  0  0  0  0  0  0  0  0  0  0  0
  -26.1541  -18.2039   23.7498 C   0  0  0  0  0  0  0  0  0  0  0  0
  -28.0647  -19.7304   19.6613 C   0  0  0  0  0  0  0  0  0  0  0  0
  -30.3777  -20.0904   20.2593 C   0  0  0  0  0  0  0  0  0  0  0  0
  -26.2629  -19.5908   23.8418 C   0  0  0  0  0  0  0  0  0  0  0  0
  -31.1182  -16.9219   21.8786 C   0  0  0  0  0  0  0  0  0  0  0  0
  -32.2120  -16.0770   21.6905 C   0  0  0  0  0  0  0  0  0  0  0  0
  -24.3784  -19.8312   22.3551 C   0  0  0  0  0  0  0  0  0  0  0  0
  -23.5686  -29.4576   20.9952 C   0  0  0  0  0  0  0  0  0  0  0  0
  -31.7114  -15.9546   19.3301 C   0  0  0  0  0  0  0  0  0  0  0  0
  -29.2065  -21.7276   18.9234 C   0  0  0  0  0  0  0  0  0  0  0  0
  -28.9354  -23.1741   16.8397 C   0  0  0  0  0  0  0  0  0  0  0  0
  -28.4875  -12.6682   18.3506 C   0  0  0  0  0  0  0  0  0  0  0  0
  -25.1619  -17.6193   22.9497 C   0  0  0  0  0  0  0  0  0  0  0  0
  -28.0077  -13.5788   19.3139 C   0  0  0  0  0  0  0  0  0  0  0  0
  -24.2576  -18.4366   22.2566 C   0  0  0  0  0  0  0  0  0  0  0  0
  -23.6555  -30.8138   21.2894 C   0  0  0  0  0  0  0  0  0  0  0  0
  -24.7214  -28.7433   20.6882 C   0  0  0  0  0  0  0  0  0  0  0  0
  -29.2261  -19.3047   20.3060 C   0  0  0  0  0  0  0  0  0  0  0  0
  -25.3768  -20.4047   23.1422 C   0  0  0  0  0  0  0  0  0  0  0  0
  -30.3210  -17.2831   20.7925 C   0  0  0  0  0  0  0  0  0  0  0  0
  -32.5086  -15.5933   20.4163 C   0  0  0  0  0  0  0  0  0  0  0  0
  -30.6176  -16.7995   19.5182 C   0  0  0  0  0  0  0  0  0  0  0  0
  -29.1972  -22.9789   18.2090 C   0  0  0  0  0  0  0  0  0  0  0  0
  -24.9087  -31.4041   21.2631 C   0  0  0  0  0  0  0  0  0  0  0  0
  -25.9269  -29.4264   20.6886 C   0  0  0  0  0  0  0  0  0  0  0  0
  -29.0479  -24.5309   16.6586 C   0  0  0  0  0  0  0  0  0  0  0  0
  -28.6186  -22.2147   15.8224 C   0  0  0  0  0  0  0  0  0  0  0  0
  -25.1660  -15.7278   20.3951 C   0  0  0  0  0  0  0  0  0  0  0  0
  -21.9611  -15.6978   20.8953 C   0  0  0  0  0  0  0  0  0  0  0  0
  -19.2203  -17.2439   22.2162 C   0  0  0  0  0  0  0  0  0  0  0  0
  -28.4099  -29.2056   20.3254 C   0  0  0  0  0  0  0  0  0  0  0  0
  -27.8103  -12.4967   17.0137 C   0  0  0  0  0  0  0  0  0  0  0  0
  -25.0410  -16.1215   22.8822 C   0  0  0  0  0  0  0  0  0  0  0  0
  -23.1618  -17.8585   21.4001 C   0  0  0  0  0  0  0  0  0  0  0  0
  -26.9294  -13.6835   16.6369 C   0  0  0  0  0  0  0  0  0  0  0  0
  -31.3016  -28.3703   18.4234 C   0  0  0  0  0  0  0  0  0  0  0  0
  -26.0103  -14.0373   17.7964 C   0  0  0  0  0  0  0  0  0  0  0  0
  -31.0634  -26.9125   18.0228 C   0  0  0  0  0  0  0  0  0  0  0  0
  -30.7840  -28.6636   19.8304 C   0  0  0  0  0  0  0  0  0  0  0  0
  -29.1461  -26.8306   19.6673 C   0  0  0  0  0  0  0  0  0  0  0  0
  -26.8214  -14.4794   19.0210 C   0  0  1  0  0  0  0  0  0  0  0  0
  -24.3158  -15.6364   21.6307 C   0  0  1  0  0  0  0  0  0  0  0  0
  -29.5923  -26.5035   18.2328 C   0  0  2  0  0  0  0  0  0  0  0  0
  -25.0627  -32.8571   21.5729 C   0  0  0  0  0  0  0  0  0  0  0  0
  -21.7288  -31.0682   22.8946 C   0  0  0  0  0  0  0  0  0  0  0  0
  -21.4172  -31.6178   20.4542 C   0  0  0  0  0  0  0  0  0  0  0  0
  -16.7324  -16.9973   22.4320 C   0  0  0  0  0  0  0  0  0  0  0  0
  -21.6255  -16.5644   17.9890 C   0  0  0  0  0  0  0  0  0  0  0  0
  -19.2675  -17.2111   18.5270 C   0  0  0  0  0  0  0  0  0  0  0  0
  -19.9906  -14.8348   18.7573 C   0  0  0  0  0  0  0  0  0  0  0  0
  -19.3694  -17.1493   25.1705 C   0  0  0  0  0  0  0  0  0  0  0  0
  -24.6231  -27.2730   20.3677 C   0  0  0  0  0  0  0  0  0  0  0  0
  -25.0228  -26.3575   21.5304 C   0  0  0  0  0  0  0  0  0  0  0  0
  -24.8430  -24.8700   21.2113 C   0  0  0  0  0  0  0  0  0  0  0  0
  -25.2814  -23.9955   22.3846 C   0  0  0  0  0  0  0  0  0  0  0  0
  -25.0675  -22.5168   22.0937 C   0  0  0  0  0  0  0  0  0  1  0  0
  -22.4245  -31.5846   21.6201 C   0  0  0  0  0  0  0  0  0  0  0  0
  -20.7992  -16.5447   20.4350 C   0  0  1  0  0  0  0  0  0  0  0  0
  -18.0829  -16.7186   23.0733 C   0  0  2  0  0  0  0  0  0  0  0  0
  -20.4425  -16.3000   18.9416 C   0  0  0  0  0  0  0  0  0  0  0  0
  -29.4567  -24.1204   18.8522 N   0  0  0  0  0  0  0  0  0  0  0  0
  -26.0507  -30.7431   20.9693 N   0  0  0  0  0  0  0  0  0  0  0  0
  -29.3585  -25.0459   17.8827 N   0  0  0  0  0  0  0  0  0  0  0  0
  -23.0887  -16.3886   21.3612 N   0  0  0  0  0  0  0  0  0  0  0  0
  -29.3834  -28.2541   19.9540 N   0  0  0  0  0  0  0  0  0  0  0  0
  -28.9106  -25.3218   15.5732 N   0  0  0  0  0  0  0  0  0  0  0  0
  -29.6705  -21.6349   15.1001 N   0  0  0  0  0  0  0  0  0  0  0  0
  -27.1083  -28.7081   20.3786 N   0  0  0  0  0  0  0  0  0  0  0  0
  -25.9332  -14.6037   20.1557 N   0  0  0  0  0  0  0  0  0  0  0  0
  -19.7056  -16.2760   21.3624 N   0  0  0  0  0  0  0  0  0  0  0  0
  -18.1068  -17.3625   24.4171 N   0  3  0  0  0  0  0  0  0  0  0  0
  -27.4369  -21.8936   15.5504 O   0  0  0  0  0  0  0  0  0  0  0  0
  -25.1275  -16.7423   19.7089 O   0  0  0  0  0  0  0  0  0  0  0  0
  -21.8687  -14.4685   20.8500 O   0  0  0  0  0  0  0  0  0  0  0  0
  -19.6344  -18.3985   22.2935 O   0  0  0  0  0  0  0  0  0  0  0  0
  -28.7053  -30.3819   20.5512 O   0  0  0  0  0  0  0  0  0  0  0  0
  -29.2360  -18.1227   20.9808 O   0  0  0  0  0  0  0  0  0  0  0  0
  -25.4811  -21.7587   23.2298 O   0  0  0  0  0  0  0  0  0  1  0  0
  -33.5599  -14.7832   20.2355 F   0  0  0  0  0  0  0  0  0  0  0  0
  -29.8561  -17.1440   18.4707 F   0  0  0  0  0  0  0  0  0  0  0  0
  1  2  1  0  0  0  0
  1  5  2  0  0  0  0
  2  6  2  0  0  0  0
  3  8  2  0  0  0  0
  3 16  1  0  0  0  0
  4  9  1  0  0  0  0
  4 16  2  0  0  0  0
  5 18  1  0  0  0  0
  6 20  1  0  0  0  0
  7 10  2  0  0  0  0
  7 19  1  0  0  0  0
  8 24  1  0  0  0  0
  9 24  2  0  0  0  0
 10 25  1  0  0  0  0
 11 12  2  0  0  0  0
 11 26  1  0  0  0  0
 12 27  1  0  0  0  0
 13 21  1  0  0  0  0
 13 25  2  0  0  0  0
 14 22  2  0  0  0  0
 14 23  1  0  0  0  0
 15 27  2  0  0  0  0
 15 28  1  0  0  0  0
 16 29  1  0  0  0  0
 17 29  1  0  0  0  0
 17 32  2  0  0  0  0
 17 33  1  0  0  0  0
 18 20  2  0  0  0  0
 18 38  1  0  0  0  0
 19 21  2  0  0  0  0
 19 39  1  0  0  0  0
 20 47  1  0  0  0  0
 21 40  1  0  0  0  0
 22 30  1  0  0  0  0
 22 63  1  0  0  0  0
 23 31  2  0  0  0  0
 23 58  1  0  0  0  0
 24 83  1  0  0  0  0
 25 84  1  0  0  0  0
 26 28  2  0  0  0  0
 26 83  1  0  0  0  0
 27 85  1  0  0  0  0
 28 86  1  0  0  0  0
 29 67  2  0  0  0  0
 30 50  1  0  0  0  0
 30 68  2  0  0  0  0
 31 68  1  0  0  0  0
 31 74  1  0  0  0  0
 32 69  1  0  0  0  0
 32 72  1  0  0  0  0
 33 73  1  0  0  0  0
 33 78  2  0  0  0  0
 34 48  1  0  0  0  0
 34 75  1  0  0  0  0
 34 79  2  0  0  0  0
 35 64  1  0  0  0  0
 35 70  1  0  0  0  0
 35 80  2  0  0  0  0
 36 65  1  0  0  0  0
 36 76  1  0  0  0  0
 36 81  2  0  0  0  0
 37 71  1  0  0  0  0
 37 74  1  0  0  0  0
 37 82  2  0  0  0  0
 38 41  1  0  0  0  0
 39 48  1  0  0  0  0
 40 70  1  0  0  0  0
 41 43  1  0  0  0  0
 42 44  1  0  0  0  0
 42 45  1  0  0  0  0
 43 47  1  0  0  0  0
 44 49  1  0  0  0  0
 45 71  1  0  0  0  0
 46 49  1  0  0  0  0
 46 71  1  0  0  0  0
 47 75  1  0  0  0  0
 48 70  1  0  0  0  0
 49 69  1  0  0  0  0
 51 63  1  0  0  0  0
 52 63  1  0  0  0  0
 53 65  1  0  0  0  0
 54 66  1  0  0  0  0
 55 66  1  0  0  0  0
 56 66  1  0  0  0  0
 57 77  1  0  0  0  0
 58 59  1  0  0  0  0
 59 60  1  0  0  0  0
 60 61  1  0  0  0  0
 61 62  1  0  0  0  0
 62 84  1  0  0  0  0
 64 66  1  0  0  0  0
 64 76  1  0  0  0  0
 65 77  1  0  0  0  0
 67 69  1  0  0  0  0
M  CHG  1  77   1
M  ISO  4  37 100  62 101  74 100  84 101
M  END
> <Batch ID>
0093

> <Smiles>
CNC(C)C(=O)NC(C(=O)N1Cc2cc([101O:1][101CH2:1]CCCCc3cc(C(C)C)c(C)nc3[100NH:0][100C:0](=O)N3CCCC(n4nc(-c5ccc(Oc6ccc(F)cc6F)cc5)c(C(N)=O)c4N)C3)ccc2CC1C(=O)NC1CCCc2ccccc21)C(C)(C)C

> <Shape>
0.236

> <Color>
0.068

> <Negative vol penalty>
0.000

$$$$

  -OEChem-04052319163D

 86 94  0     1  0  0  0  0  0999 V2000
  -31.7918  -12.8778   21.8225 C   0  0  0  0  0  0  0  0  0  0  0  0
  -31.2847  -14.1422   22.1047 C   0  0  0  0  0  0  0  0  0  0  0  0
  -25.7007  -31.4881   20.4092 C   0  0  0  0  0  0  0  0  0  0  0  0
  -24.1263  -30.2087   21.7213 C   0  0  0  0  0  0  0  0  0  0  0  0
  -31.1310  -12.0492   20.9166 C   0  0  0  0  0  0  0  0  0  0  0  0
  -30.1169  -14.5791   21.4803 C   0  0  0  0  0  0  0  0  0  0  0  0
  -26.9086  -16.8089   24.7021 C   0  0  0  0  0  0  0  0  0  0  0  0
  -25.1099  -32.6709   20.8536 C   0  0  0  0  0  0  0  0  0  0  0  0
  -23.5355  -31.3915   22.1657 C   0  0  0  0  0  0  0  0  0  0  0  0
  -27.1915  -18.1219   25.0758 C   0  0  0  0  0  0  0  0  0  0  0  0
  -24.2456  -36.0353   21.9256 C   0  0  0  0  0  0  0  0  0  0  0  0
  -25.0894  -37.0677   22.3349 C   0  0  0  0  0  0  0  0  0  0  0  0
  -25.5646  -18.9193   23.4830 C   0  0  0  0  0  0  0  0  0  0  0  0
  -30.1933  -22.7806   20.6198 C   0  0  0  0  0  0  0  0  0  0  0  0
  -28.3935  -21.1985   20.3123 C   0  0  0  0  0  0  0  0  0  0  0  0
  -26.0192  -35.6316   24.0408 C   0  0  0  0  0  0  0  0  0  0  0  0
  -25.2089  -30.2570   20.8430 C   0  0  0  0  0  0  0  0  0  0  0  0
  -26.8844  -28.3386   20.9845 C   0  0  0  0  0  0  0  0  0  0  0  0
  -29.9493  -12.4724   20.2881 C   0  0  0  0  0  0  0  0  0  0  0  0
  -25.9579  -16.5412   23.7067 C   0  0  0  0  0  0  0  0  0  0  0  0
  -29.4404  -13.7558   20.5641 C   0  0  0  0  0  0  0  0  0  0  0  0
  -25.2697  -17.6018   23.1003 C   0  0  0  0  0  0  0  0  0  0  0  0
  -29.2987  -21.8508   21.1495 C   0  0  0  0  0  0  0  0  0  0  0  0
  -30.1827  -23.0583   19.2528 C   0  0  0  0  0  0  0  0  0  0  0  0
  -28.3830  -21.4761   18.9454 C   0  0  0  0  0  0  0  0  0  0  0  0
  -29.2776  -22.4060   18.4156 C   0  0  0  0  0  0  0  0  0  0  0  0
  -24.0273  -32.6226   21.7318 C   0  0  0  0  0  0  0  0  0  0  0  0
  -26.5216  -19.1775   24.4642 C   0  0  0  0  0  0  0  0  0  0  0  0
  -24.2885  -34.8009   22.5739 C   0  0  0  0  0  0  0  0  0  0  0  0
  -25.9762  -36.8659   23.3924 C   0  0  0  0  0  0  0  0  0  0  0  0
  -25.1753  -34.5991   23.6315 C   0  0  0  0  0  0  0  0  0  0  0  0
  -25.8184  -29.0348   20.3839 C   0  0  0  0  0  0  0  0  0  0  0  0
  -27.0871  -27.2517   20.1696 C   0  0  0  0  0  0  0  0  0  0  0  0
  -27.6250  -28.6467   22.1729 C   0  0  0  0  0  0  0  0  0  0  0  0
  -26.0352  -15.1628   20.8435 C   0  0  0  0  0  0  0  0  0  0  0  0
  -22.8183  -15.5486   21.0019 C   0  0  0  0  0  0  0  0  0  0  0  0
  -20.1650  -17.2443   22.3178 C   0  0  0  0  0  0  0  0  0  0  0  0
  -25.1078  -22.9938   17.1534 C   0  0  0  0  0  0  0  0  0  0  0  0
  -29.2961  -11.5599   19.2804 C   0  0  0  0  0  0  0  0  0  0  0  0
  -25.6450  -15.1180   23.3338 C   0  0  0  0  0  0  0  0  0  0  0  0
  -24.2255  -17.3669   22.0407 C   0  0  0  0  0  0  0  0  0  0  0  0
  -27.8596  -11.9522   18.9446 C   0  0  0  0  0  0  0  0  0  0  0  0
  -25.2408  -26.1862   15.5824 C   0  0  0  0  0  0  0  0  0  0  0  0
  -27.7631  -13.4518   18.6827 C   0  0  0  0  0  0  0  0  0  0  0  0
  -25.4845  -27.1543   16.7415 C   0  0  0  0  0  0  0  0  0  0  0  0
  -24.3233  -25.0360   15.9913 C   0  0  0  0  0  0  0  0  0  0  0  0
  -24.9991  -25.2636   18.3503 C   0  0  0  0  0  0  0  0  0  0  0  0
  -28.1627  -14.2559   19.9258 C   0  0  1  0  0  0  0  0  0  0  0  0
  -25.0283  -14.9860   21.9447 C   0  0  1  0  0  0  0  0  0  0  0  0
  -25.9638  -26.4102   18.0023 C   0  0  2  0  0  0  0  0  0  0  0  0
  -31.1519  -24.0574   18.7105 C   0  0  0  0  0  0  0  0  0  0  0  0
  -29.2668  -22.7035   16.9500 C   0  0  0  0  0  0  0  0  0  0  0  0
  -27.6500  -19.2417   18.0541 C   0  0  0  0  0  0  0  0  0  0  0  0
  -17.6598  -17.3580   22.2286 C   0  0  0  0  0  0  0  0  0  0  0  0
  -22.9810  -16.9650   18.3043 C   0  0  0  0  0  0  0  0  0  0  0  0
  -20.6828  -17.8679   18.7182 C   0  0  0  0  0  0  0  0  0  0  0  0
  -21.0416  -15.4051   18.5482 C   0  0  0  0  0  0  0  0  0  0  0  0
  -19.9175  -16.5983   25.1953 C   0  0  0  0  0  0  0  0  0  0  0  0
  -29.3096  -21.5512   22.6273 C   0  0  0  0  0  0  0  0  0  0  0  0
  -28.3790  -22.4507   23.4484 C   0  0  0  0  0  0  0  0  0  0  0  0
  -28.4614  -22.1836   24.9520 C   0  0  0  0  0  0  0  0  0  0  0  0
  -25.9292  -21.0415   18.4468 C   0  0  0  0  0  0  0  0  0  0  0  0
  -28.1198  -20.7370   25.2824 C   0  0  0  0  0  0  0  0  0  1  0  0
  -27.4038  -20.7639   18.0702 C   0  0  1  0  0  0  0  0  0  0  0  0
  -21.8511  -16.6367   20.6025 C   0  0  1  0  0  0  0  0  0  0  0  0
  -18.8659  -16.7594   22.9355 C   0  0  2  0  0  0  0  0  0  0  0  0
  -21.6601  -16.7235   19.0619 C   0  0  0  0  0  0  0  0  0  0  0  0
  -25.3750  -28.4402   19.2731 N   0  0  0  0  0  0  0  0  0  0  0  0
  -26.1664  -27.3590   19.1692 N   0  0  0  0  0  0  0  0  0  0  0  0
  -23.9595  -15.9581   21.7061 N   0  0  0  0  0  0  0  0  0  0  0  0
  -24.8349  -24.3711   17.1921 N   0  0  0  0  0  0  0  0  0  0  0  0
  -27.9615  -26.2243   20.2183 N   0  0  0  0  0  0  0  0  0  0  0  0
  -27.2859  -29.8017   22.8908 N   0  0  0  0  0  0  0  0  0  0  0  0
  -27.0840  -14.2643   20.8905 N   0  0  0  0  0  0  0  0  0  0  0  0
  -20.6207  -16.3814   21.3436 N   0  0  0  0  0  0  0  0  0  0  0  0
  -25.5958  -22.4438   18.3324 N   0  0  0  0  0  0  0  0  0  0  0  0
  -18.8033  -17.1395   24.3752 N   0  3  0  0  0  0  0  0  0  0  0  0
  -28.5706  -27.9282   22.5768 O   0  0  0  0  0  0  0  0  0  0  0  0
  -25.8719  -16.0478   20.0118 O   0  0  0  0  0  0  0  0  0  0  0  0
  -22.5669  -14.3776   20.7065 O   0  0  0  0  0  0  0  0  0  0  0  0
  -20.7182  -18.2864   22.6622 O   0  0  0  0  0  0  0  0  0  0  0  0
  -24.9348  -22.3063   16.1413 O   0  0  0  0  0  0  0  0  0  0  0  0
  -23.4507  -33.7766   22.1659 O   0  0  0  0  0  0  0  0  0  0  0  0
  -26.7962  -20.4601   24.8266 O   0  0  0  0  0  0  0  0  0  1  0  0
  -26.7876  -37.8570   23.7844 F   0  0  0  0  0  0  0  0  0  0  0  0
  -25.2220  -33.4151   24.2574 F   0  0  0  0  0  0  0  0  0  0  0  0
  1  2  1  0  0  0  0
  1  5  2  0  0  0  0
  2  6  2  0  0  0  0
  3  8  2  0  0  0  0
  3 17  1  0  0  0  0
  4  9  1  0  0  0  0
  4 17  2  0  0  0  0
  5 19  1  0  0  0  0
  6 21  1  0  0  0  0
  7 10  2  0  0  0  0
  7 20  1  0  0  0  0
  8 27  1  0  0  0  0
  9 27  2  0  0  0  0
 10 28  1  0  0  0  0
 11 12  2  0  0  0  0
 11 29  1  0  0  0  0
 12 30  1  0  0  0  0
 13 22  1  0  0  0  0
 13 28  2  0  0  0  0
 14 23  1  0  0  0  0
 14 24  2  0  0  0  0
 15 23  2  0  0  0  0
 15 25  1  0  0  0  0
 16 30  2  0  0  0  0
 16 31  1  0  0  0  0
 17 32  1  0  0  0  0
 18 32  1  0  0  0  0
 18 33  2  0  0  0  0
 18 34  1  0  0  0  0
 19 21  2  0  0  0  0
 19 39  1  0  0  0  0
 20 22  2  0  0  0  0
 20 40  1  0  0  0  0
 21 48  1  0  0  0  0
 22 41  1  0  0  0  0
 23 59  1  0  0  0  0
 24 26  1  0  0  0  0
 24 51  1  0  0  0  0
 25 26  2  0  0  0  0
 25 64  1  0  0  0  0
 26 52  1  0  0  0  0
 27 83  1  0  0  0  0
 28 84  1  0  0  0  0
 29 31  2  0  0  0  0
 29 83  1  0  0  0  0
 30 85  1  0  0  0  0
 31 86  1  0  0  0  0
 32 68  2  0  0  0  0
 33 69  1  0  0  0  0
 33 72  1  0  0  0  0
 34 73  1  0  0  0  0
 34 78  2  0  0  0  0
 35 49  1  0  0  0  0
 35 74  1  0  0  0  0
 35 79  2  0  0  0  0
 36 65  1  0  0  0  0
 36 70  1  0  0  0  0
 36 80  2  0  0  0  0
 37 66  1  0  0  0  0
 37 75  1  0  0  0  0
 37 81  2  0  0  0  0
 38 71  1  0  0  0  0
 38 76  1  0  0  0  0
 38 82  2  0  0  0  0
 39 42  1  0  0  0  0
 40 49  1  0  0  0  0
 41 70  1  0  0  0  0
 42 44  1  0  0  0  0
 43 45  1  0  0  0  0
 43 46  1  0  0  0  0
 44 48  1  0  0  0  0
 45 50  1  0  0  0  0
 46 71  1  0  0  0  0
 47 50  1  0  0  0  0
 47 71  1  0  0  0  0
 48 74  1  0  0  0  0
 49 70  1  0  0  0  0
 50 69  1  0  0  0  0
 53 64  1  0  0  0  0
 54 66  1  0  0  0  0
 55 67  1  0  0  0  0
 56 67  1  0  0  0  0
 57 67  1  0  0  0  0
 58 77  1  0  0  0  0
 59 60  1  0  0  0  0
 60 61  1  0  0  0  0
 61 63  1  0  0  0  0
 62 64  1  0  0  0  0
 62 76  1  0  0  0  0
 63 84  1  0  0  0  0
 65 67  1  0  0  0  0
 65 75  1  0  0  0  0
 66 77  1  0  0  0  0
 68 69  1  0  0  0  0
M  CHG  1  77   1
M  ISO  4  38 100  63 101  76 100  84 101
M  END
> <Batch ID>
0093

> <Smiles>
CNC(C)C(=O)NC(C(=O)N1Cc2cc([101O:1][101CH2:1]CCCc3cc(C)c(C)c(C(C)C[100NH:0][100C:0](=O)N4CCCC(n5nc(-c6ccc(Oc7ccc(F)cc7F)cc6)c(C(N)=O)c5N)C4)c3)ccc2CC1C(=O)NC1CCCc2ccccc21)C(C)(C)C

> <Shape>
0.230

> <Color>
0.076

> <Negative vol penalty>
0.000

$$$$

  -OEChem-04052319163D

 79 86  0     1  0  0  0  0  0999 V2000
  -23.9205  -27.3081   24.8931 C   0  0  0  0  0  0  0  0  0  0  0  0
  -24.1072  -26.4747   23.7950 C   0  0  0  0  0  0  0  0  0  0  0  0
  -23.4536   -9.5817   21.0218 C   0  0  0  0  0  0  0  0  0  0  0  0
  -24.3188  -10.3270   23.1509 C   0  0  0  0  0  0  0  0  0  0  0  0
  -24.7670  -28.3981   25.0914 C   0  0  0  0  0  0  0  0  0  0  0  0
  -25.1399  -26.7314   22.8938 C   0  0  0  0  0  0  0  0  0  0  0  0
  -27.6972  -22.5483   21.6265 C   0  0  0  0  0  0  0  0  0  0  0  0
  -22.8914   -8.4654   21.6410 C   0  0  0  0  0  0  0  0  0  0  0  0
  -23.7566   -9.2107   23.7701 C   0  0  0  0  0  0  0  0  0  0  0  0
  -27.1047  -21.6977   20.6941 C   0  0  0  0  0  0  0  0  0  0  0  0
  -20.1595   -7.7629   23.5055 C   0  0  0  0  0  0  0  0  0  0  0  0
  -18.8493   -7.4250   23.1670 C   0  0  0  0  0  0  0  0  0  0  0  0
  -28.5028  -22.6306   18.9637 C   0  0  0  0  0  0  0  0  0  0  0  0
  -19.6079   -5.2696   22.3823 C   0  0  0  0  0  0  0  0  0  0  0  0
  -24.1673  -10.5125   21.7768 C   0  0  0  0  0  0  0  0  0  0  0  0
  -24.1469  -12.9230   20.9422 C   0  0  0  0  0  0  0  0  0  0  0  0
  -25.8166  -28.6628   24.1975 C   0  0  0  0  0  0  0  0  0  0  0  0
  -28.6909  -23.4555   21.2317 C   0  0  0  0  0  0  0  0  0  0  0  0
  -26.0004  -27.8268   23.0796 C   0  0  0  0  0  0  0  0  0  0  0  0
  -29.1081  -23.4898   19.8935 C   0  0  0  0  0  0  0  0  0  0  0  0
  -23.0429   -8.2799   23.0152 C   0  0  0  0  0  0  0  0  0  0  0  0
  -27.5054  -21.7408   19.3619 C   0  0  0  0  0  0  0  0  0  0  0  0
  -21.1940   -6.8542   23.2824 C   0  0  0  0  0  0  0  0  0  0  0  0
  -18.5734   -6.1783   22.6054 C   0  0  0  0  0  0  0  0  0  0  0  0
  -20.9182   -5.6075   22.7209 C   0  0  0  0  0  0  0  0  0  0  0  0
  -24.7488  -11.6655   21.1376 C   0  0  0  0  0  0  0  0  0  0  0  0
  -25.1042  -13.6649   20.2944 C   0  0  0  0  0  0  0  0  0  0  0  0
  -22.8394  -13.3797   21.3132 C   0  0  0  0  0  0  0  0  0  0  0  0
  -28.9659  -26.6222   21.2336 C   0  0  0  0  0  0  0  0  0  0  0  0
  -31.9947  -25.9701   20.2729 C   0  0  0  0  0  0  0  0  0  0  0  0
  -34.1542  -23.7909   18.7780 C   0  0  0  0  0  0  0  0  0  0  0  0
  -30.5796  -15.1909   20.2040 C   0  0  0  0  0  0  0  0  0  0  0  0
  -26.6764  -29.8803   24.4275 C   0  0  0  0  0  0  0  0  0  0  0  0
  -29.3390  -24.3476   22.2548 C   0  0  0  0  0  0  0  0  0  0  0  0
  -30.1851  -24.4314   19.4225 C   0  0  0  0  0  0  0  0  0  0  0  0
  -27.9788  -29.8654   23.6314 C   0  0  0  0  0  0  0  0  0  0  0  0
  -29.4782  -12.2980   18.1744 C   0  0  0  0  0  0  0  0  0  0  0  0
  -27.7139  -29.4710   22.1819 C   0  0  0  0  0  0  0  0  0  0  0  0
  -28.1320  -11.9429   18.8035 C   0  0  0  0  0  0  0  0  0  0  0  0
  -30.4205  -12.9502   19.1815 C   0  0  0  0  0  0  0  0  0  0  0  0
  -28.4973  -13.7858   20.4919 C   0  0  0  0  0  0  0  0  0  0  0  0
  -27.1247  -28.0580   22.0934 C   0  0  1  0  0  0  0  0  0  0  0  0
  -29.9785  -25.5908   21.6441 C   0  0  1  0  0  0  0  0  0  0  0  0
  -27.5078  -13.1691   19.4920 C   0  0  2  0  0  0  0  0  0  0  0  0
  -36.5593  -23.5524   18.1028 C   0  0  0  0  0  0  0  0  0  0  0  0
  -31.5142  -27.8397   17.9098 C   0  0  0  0  0  0  0  0  0  0  0  0
  -33.5255  -26.8424   16.8014 C   0  0  0  0  0  0  0  0  0  0  0  0
  -33.7700  -28.0543   18.9680 C   0  0  0  0  0  0  0  0  0  0  0  0
  -28.1637  -18.7482   15.6084 C   0  0  0  0  0  0  0  0  0  0  0  0
  -25.8181  -19.2395   16.3105 C   0  0  0  0  0  0  0  0  0  0  0  0
  -30.7389  -17.6252   20.5626 C   0  0  0  0  0  0  0  0  0  0  0  0
  -34.5307  -21.4306   20.5234 C   0  0  0  0  0  0  0  0  0  0  0  0
  -28.6958  -17.7698   18.5309 C   0  0  0  0  0  0  0  0  0  0  0  0
  -27.3182  -18.0269   17.9023 C   0  0  0  0  0  0  0  0  0  0  0  0
  -28.6420  -16.7154   19.6346 C   0  0  0  0  0  0  0  0  0  0  0  0
  -27.7318  -20.5041   17.3432 C   0  0  0  0  0  0  0  0  0  1  0  0
  -32.6748  -25.7758   18.9392 C   0  0  1  0  0  0  0  0  0  0  0  0
  -35.5277  -23.2922   19.1895 C   0  0  2  0  0  0  0  0  0  0  0  0
  -32.8494  -27.1115   18.1628 C   0  0  0  0  0  0  0  0  0  0  0  0
  -27.2764  -19.1301   16.8066 C   0  0  0  0  0  0  0  0  0  0  0  0
  -25.9921  -11.6081   20.6530 N   0  0  0  0  0  0  0  0  0  0  0  0
  -26.1793  -12.8388   20.1466 N   0  0  0  0  0  0  0  0  0  0  0  0
  -30.7840  -25.2881   20.4593 N   0  0  0  0  0  0  0  0  0  0  0  0
  -29.7870  -14.0860   19.8522 N   0  0  0  0  0  0  0  0  0  0  0  0
  -25.1228  -14.9368   19.8424 N   0  0  0  0  0  0  0  0  0  0  0  0
  -21.9825  -12.4881   21.9727 N   0  0  0  0  0  0  0  0  0  0  0  0
  -28.1634  -27.0655   22.2676 N   0  0  0  0  0  0  0  0  0  0  0  0
  -33.9256  -25.0780   19.2166 N   0  0  0  0  0  0  0  0  0  0  0  0
  -29.9560  -16.4477   20.2155 N   0  0  0  0  0  0  0  0  0  0  0  0
  -35.4876  -21.8269   19.4584 N   0  3  0  0  0  0  0  0  0  0  0  0
  -22.4369  -14.5388   21.0525 O   0  0  0  0  0  0  0  0  0  0  0  0
  -28.9173  -26.9899   20.0656 O   0  0  0  0  0  0  0  0  0  0  0  0
  -32.5221  -26.6945   21.1207 O   0  0  0  0  0  0  0  0  0  0  0  0
  -33.3646  -23.1083   18.1290 O   0  0  0  0  0  0  0  0  0  0  0  0
  -31.7788  -15.0626   20.4823 O   0  0  0  0  0  0  0  0  0  0  0  0
  -22.4942   -7.1908   23.6198 O   0  0  0  0  0  0  0  0  0  0  0  0
  -26.9283  -20.9122   18.4497 O   0  0  0  0  0  0  0  0  0  1  0  0
  -17.3149   -5.8534   22.2818 F   0  0  0  0  0  0  0  0  0  0  0  0
  -21.9077   -4.7299   22.5053 F   0  0  0  0  0  0  0  0  0  0  0  0
  1  2  1  0  0  0  0
  1  5  2  0  0  0  0
  2  6  2  0  0  0  0
  3  8  2  0  0  0  0
  3 15  1  0  0  0  0
  4  9  1  0  0  0  0
  4 15  2  0  0  0  0
  5 17  1  0  0  0  0
  6 19  1  0  0  0  0
  7 10  2  0  0  0  0
  7 18  1  0  0  0  0
  8 21  1  0  0  0  0
  9 21  2  0  0  0  0
 10 22  1  0  0  0  0
 11 12  2  0  0  0  0
 11 23  1  0  0  0  0
 12 24  1  0  0  0  0
 13 20  1  0  0  0  0
 13 22  2  0  0  0  0
 14 24  2  0  0  0  0
 14 25  1  0  0  0  0
 15 26  1  0  0  0  0
 16 26  1  0  0  0  0
 16 27  2  0  0  0  0
 16 28  1  0  0  0  0
 17 19  2  0  0  0  0
 17 33  1  0  0  0  0
 18 20  2  0  0  0  0
 18 34  1  0  0  0  0
 19 42  1  0  0  0  0
 20 35  1  0  0  0  0
 21 76  1  0  0  0  0
 22 77  1  0  0  0  0
 23 25  2  0  0  0  0
 23 76  1  0  0  0  0
 24 78  1  0  0  0  0
 25 79  1  0  0  0  0
 26 61  2  0  0  0  0
 27 62  1  0  0  0  0
 27 65  1  0  0  0  0
 28 66  1  0  0  0  0
 28 71  2  0  0  0  0
 29 43  1  0  0  0  0
 29 67  1  0  0  0  0
 29 72  2  0  0  0  0
 30 57  1  0  0  0  0
 30 63  1  0  0  0  0
 30 73  2  0  0  0  0
 31 58  1  0  0  0  0
 31 68  1  0  0  0  0
 31 74  2  0  0  0  0
 32 64  1  0  0  0  0
 32 69  1  0  0  0  0
 32 75  2  0  0  0  0
 33 36  1  0  0  0  0
 34 43  1  0  0  0  0
 35 63  1  0  0  0  0
 36 38  1  0  0  0  0
 37 39  1  0  0  0  0
 37 40  1  0  0  0  0
 38 42  1  0  0  0  0
 39 44  1  0  0  0  0
 40 64  1  0  0  0  0
 41 44  1  0  0  0  0
 41 64  1  0  0  0  0
 42 67  1  0  0  0  0
 43 63  1  0  0  0  0
 44 62  1  0  0  0  0
 45 58  1  0  0  0  0
 46 59  1  0  0  0  0
 47 59  1  0  0  0  0
 48 59  1  0  0  0  0
 49 60  1  0  0  0  0
 50 60  1  0  0  0  0
 51 69  1  0  0  0  0
 52 70  1  0  0  0  0
 53 54  1  0  0  0  0
 53 55  1  0  0  0  0
 54 60  1  0  0  0  0
 55 69  1  0  0  0  0
 56 60  1  0  0  0  0
 56 77  1  0  0  0  0
 57 59  1  0  0  0  0
 57 68  1  0  0  0  0
 58 70  1  0  0  0  0
 61 62  1  0  0  0  0
M  CHG  1  70   1
M  ISO  4  32 100  56 101  69 100  77 101
M  END
> <Batch ID>
0093

> <Smiles>
CNC(C)C(=O)NC(C(=O)N1Cc2cc([101O:1][101CH2:1]C(C)(C)CCC[100N:0](C)[100C:0](=O)N3CCCC(n4nc(-c5ccc(Oc6ccc(F)cc6F)cc5)c(C(N)=O)c4N)C3)ccc2CC1C(=O)NC1CCCc2ccccc21)C(C)(C)C

> <Shape>
0.251

> <Color>
0.164

> <Negative vol penalty>
0.000

$$$$

  -OEChem-04052319163D

 81 89  0     1  0  0  0  0  0999 V2000
  -20.6452  -24.5596   24.1404 C   0  0  0  0  0  0  0  0  0  0  0  0
  -21.8653  -25.0095   23.6460 C   0  0  0  0  0  0  0  0  0  0  0  0
  -23.2538  -13.9972   20.6449 C   0  0  0  0  0  0  0  0  0  0  0  0
  -25.1956  -14.4218   22.0183 C   0  0  0  0  0  0  0  0  0  0  0  0
  -19.4847  -25.2953   23.9042 C   0  0  0  0  0  0  0  0  0  0  0  0
  -21.9254  -26.1949   22.9141 C   0  0  0  0  0  0  0  0  0  0  0  0
  -25.7931  -29.1487   24.3143 C   0  0  0  0  0  0  0  0  0  0  0  0
  -23.7411  -12.7240   20.3497 C   0  0  0  0  0  0  0  0  0  0  0  0
  -25.6828  -13.1486   21.7231 C   0  0  0  0  0  0  0  0  0  0  0  0
  -27.0600  -28.8036   23.8456 C   0  0  0  0  0  0  0  0  0  0  0  0
  -23.8912   -9.7024   21.8598 C   0  0  0  0  0  0  0  0  0  0  0  0
  -22.9956   -8.6350   21.9225 C   0  0  0  0  0  0  0  0  0  0  0  0
  -26.8772  -30.4884   22.1288 C   0  0  0  0  0  0  0  0  0  0  0  0
  -23.4008   -8.1578   19.5890 C   0  0  0  0  0  0  0  0  0  0  0  0
  -23.9812  -14.8462   21.4791 C   0  0  0  0  0  0  0  0  0  0  0  0
  -22.6414  -16.5246   22.8559 C   0  0  0  0  0  0  0  0  0  0  0  0
  -19.5321  -26.4953   23.1773 C   0  0  0  0  0  0  0  0  0  0  0  0
  -25.0530  -30.1605   23.6859 C   0  0  0  0  0  0  0  0  0  0  0  0
  -20.7642  -26.9466   22.6668 C   0  0  0  0  0  0  0  0  0  0  0  0
  -25.6022  -30.8462   22.5930 C   0  0  0  0  0  0  0  0  0  0  0  0
  -24.9555  -12.2997   20.8888 C   0  0  0  0  0  0  0  0  0  0  0  0
  -27.6011  -29.4715   22.7510 C   0  0  0  0  0  0  0  0  0  0  0  0
  -24.5416   -9.9976   20.6616 C   0  0  0  0  0  0  0  0  0  0  0  0
  -22.7504   -7.8626   20.7872 C   0  0  0  0  0  0  0  0  0  0  0  0
  -24.2964   -9.2253   19.5263 C   0  0  0  0  0  0  0  0  0  0  0  0
  -23.4787  -16.1617   21.7840 C   0  0  0  0  0  0  0  0  0  0  0  0
  -22.4547  -17.8767   22.7033 C   0  0  0  0  0  0  0  0  0  0  0  0
  -22.0824  -15.7121   23.8966 C   0  0  0  0  0  0  0  0  0  0  0  0
  -22.2667  -30.2842   22.1611 C   0  0  0  0  0  0  0  0  0  0  0  0
  -22.8588  -33.4735   22.1473 C   0  0  0  0  0  0  0  0  0  0  0  0
  -25.1539  -35.9948   22.2962 C   0  0  0  0  0  0  0  0  0  0  0  0
  -25.6885  -22.1666   20.0593 C   0  0  0  0  0  0  0  0  0  0  0  0
  -18.2439  -27.2317   22.9070 C   0  0  0  0  0  0  0  0  0  0  0  0
  -23.6989  -30.5392   24.2202 C   0  0  0  0  0  0  0  0  0  0  0  0
  -24.8568  -31.9537   21.8958 C   0  0  0  0  0  0  0  0  0  0  0  0
  -18.4509  -28.6710   22.4424 C   0  0  0  0  0  0  0  0  0  0  0  0
  -32.4184  -24.3008   20.6868 C   0  0  0  0  0  0  0  0  0  0  0  0
  -22.3145  -21.2818   19.3452 C   0  0  0  0  0  0  0  0  0  0  0  0
  -19.5223  -28.7331   21.3584 C   0  0  0  0  0  0  0  0  0  0  0  0
  -31.3126  -23.3373   20.2646 C   0  0  0  0  0  0  0  0  0  0  0  0
  -31.9528  -25.7531   20.6283 C   0  0  0  0  0  0  0  0  0  0  0  0
  -22.1547  -19.9020   19.9860 C   0  0  0  0  0  0  0  0  0  0  0  0
  -29.5723  -25.0038   21.0285 C   0  0  0  0  0  0  0  0  0  0  0  0
  -23.7071  -21.4683   18.7468 C   0  0  0  0  0  0  0  0  0  0  0  0
  -24.6613  -19.8268   20.3180 C   0  0  0  0  0  0  0  0  0  0  0  0
  -20.8738  -28.2405   21.8896 C   0  0  1  0  0  0  0  0  0  0  0  0
  -22.8210  -31.2347   23.1844 C   0  0  1  0  0  0  0  0  0  0  0  0
  -30.0379  -23.5420   21.0929 C   0  0  1  0  0  0  0  0  0  0  0  0
  -30.6826  -25.9730   21.4595 C   0  0  2  0  0  0  0  0  0  0  0  0
  -23.2916  -19.6124   20.9845 C   0  0  2  0  0  0  0  0  0  0  0  0
  -25.3400  -38.4963   22.2215 C   0  0  0  0  0  0  0  0  0  0  0  0
  -22.4334  -33.4126   19.1265 C   0  0  0  0  0  0  0  0  0  0  0  0
  -23.5403  -35.6545   18.9955 C   0  0  0  0  0  0  0  0  0  0  0  0
  -21.4208  -35.3853   20.2830 C   0  0  0  0  0  0  0  0  0  0  0  0
  -26.3144  -36.1056   25.0165 C   0  0  0  0  0  0  0  0  0  0  0  0
  -28.9307  -22.6021   20.6187 C   0  0  0  0  0  0  0  0  0  0  0  0
  -30.2114  -27.4117   21.3470 C   0  0  0  0  0  0  0  0  0  0  0  0
  -27.6643  -22.7237   21.4540 C   0  0  0  0  0  0  0  0  0  0  0  0
  -29.2498  -27.7814   22.4661 C   0  0  0  0  0  0  0  0  0  1  0  0
  -23.5666  -34.4254   21.2136 C   0  0  1  0  0  0  0  0  0  0  0  0
  -25.1943  -37.2733   23.1137 C   0  0  2  0  0  0  0  0  0  0  0  0
  -22.7538  -34.6973   19.9164 C   0  0  0  0  0  0  0  0  0  0  0  0
  -23.8014  -17.1995   21.0076 N   0  0  0  0  0  0  0  0  0  0  0  0
  -23.1636  -18.2278   21.5923 N   0  0  0  0  0  0  0  0  0  0  0  0
  -23.5339  -32.2830   22.4516 N   0  0  0  0  0  0  0  0  0  0  0  0
  -24.7393  -21.1799   19.7454 N   0  0  0  0  0  0  0  0  0  0  0  0
  -21.7548  -18.7877   23.4123 N   0  0  0  0  0  0  0  0  0  0  0  0
  -22.3756  -14.3415   23.9046 N   0  0  0  0  0  0  0  0  0  0  0  0
  -21.5034  -29.2641   22.6960 N   0  0  0  0  0  0  0  0  0  0  0  0
  -23.8611  -35.6212   21.9959 N   0  0  0  0  0  0  0  0  0  0  0  0
  -26.6277  -21.8135   21.0206 N   0  0  0  0  0  0  0  0  0  0  0  0
  -26.3424  -37.2449   24.0634 N   0  3  0  0  0  0  0  0  0  0  0  0
  -21.3315  -16.1844   24.7835 O   0  0  0  0  0  0  0  0  0  0  0  0
  -22.5121  -30.4641   20.9740 O   0  0  0  0  0  0  0  0  0  0  0  0
  -21.7509  -33.7784   22.5960 O   0  0  0  0  0  0  0  0  0  0  0  0
  -26.1681  -35.3903   21.9547 O   0  0  0  0  0  0  0  0  0  0  0  0
  -25.6951  -23.2815   19.5266 O   0  0  0  0  0  0  0  0  0  0  0  0
  -25.4311  -11.0572   20.6012 O   0  0  0  0  0  0  0  0  0  0  0  0
  -28.8372  -29.1361   22.2911 O   0  0  0  0  0  0  0  0  0  1  0  0
  -21.8914   -6.8366   20.8480 F   0  0  0  0  0  0  0  0  0  0  0  0
  -24.9192   -9.5033   18.3727 F   0  0  0  0  0  0  0  0  0  0  0  0
  1  2  1  0  0  0  0
  1  5  2  0  0  0  0
  2  6  2  0  0  0  0
  3  8  2  0  0  0  0
  3 15  1  0  0  0  0
  4  9  1  0  0  0  0
  4 15  2  0  0  0  0
  5 17  1  0  0  0  0
  6 19  1  0  0  0  0
  7 10  2  0  0  0  0
  7 18  1  0  0  0  0
  8 21  1  0  0  0  0
  9 21  2  0  0  0  0
 10 22  1  0  0  0  0
 11 12  2  0  0  0  0
 11 23  1  0  0  0  0
 12 24  1  0  0  0  0
 13 20  1  0  0  0  0
 13 22  2  0  0  0  0
 14 24  2  0  0  0  0
 14 25  1  0  0  0  0
 15 26  1  0  0  0  0
 16 26  1  0  0  0  0
 16 27  2  0  0  0  0
 16 28  1  0  0  0  0
 17 19  2  0  0  0  0
 17 33  1  0  0  0  0
 18 20  2  0  0  0  0
 18 34  1  0  0  0  0
 19 46  1  0  0  0  0
 20 35  1  0  0  0  0
 21 78  1  0  0  0  0
 22 79  1  0  0  0  0
 23 25  2  0  0  0  0
 23 78  1  0  0  0  0
 24 80  1  0  0  0  0
 25 81  1  0  0  0  0
 26 63  2  0  0  0  0
 27 64  1  0  0  0  0
 27 67  1  0  0  0  0
 28 68  1  0  0  0  0
 28 73  2  0  0  0  0
 29 47  1  0  0  0  0
 29 69  1  0  0  0  0
 29 74  2  0  0  0  0
 30 60  1  0  0  0  0
 30 65  1  0  0  0  0
 30 75  2  0  0  0  0
 31 61  1  0  0  0  0
 31 70  1  0  0  0  0
 31 76  2  0  0  0  0
 32 66  1  0  0  0  0
 32 71  1  0  0  0  0
 32 77  2  0  0  0  0
 33 36  1  0  0  0  0
 34 47  1  0  0  0  0
 35 65  1  0  0  0  0
 36 39  1  0  0  0  0
 37 40  1  0  0  0  0
 37 41  1  0  0  0  0
 38 42  1  0  0  0  0
 38 44  1  0  0  0  0
 39 46  1  0  0  0  0
 40 48  1  0  0  0  0
 41 49  1  0  0  0  0
 42 50  1  0  0  0  0
 43 48  1  0  0  0  0
 43 49  1  0  0  0  0
 44 66  1  0  0  0  0
 45 50  1  0  0  0  0
 45 66  1  0  0  0  0
 46 69  1  0  0  0  0
 47 65  1  0  0  0  0
 48 56  1  0  0  0  0
 49 57  1  0  0  0  0
 50 64  1  0  0  0  0
 51 61  1  0  0  0  0
 52 62  1  0  0  0  0
 53 62  1  0  0  0  0
 54 62  1  0  0  0  0
 55 72  1  0  0  0  0
 56 58  1  0  0  0  0
 57 59  1  0  0  0  0
 58 71  1  0  0  0  0
 59 79  1  0  0  0  0
 60 62  1  0  0  0  0
 60 70  1  0  0  0  0
 61 72  1  0  0  0  0
 63 64  1  0  0  0  0
M  CHG  1  72   1
M  ISO  4  32 100  59 101  71 100  79 101
M  END
> <Batch ID>
0093

> <Smiles>
CNC(C)C(=O)NC(C(=O)N1Cc2cc([101O:1][101CH2:1]CC3CCCC(CC[100NH:0][100C:0](=O)N4CCCC(n5nc(-c6ccc(Oc7ccc(F)cc7F)cc6)c(C(N)=O)c5N)C4)C3)ccc2CC1C(=O)NC1CCCc2ccccc21)C(C)(C)C

> <Shape>
0.224

> <Color>
0.114

> <Negative vol penalty>
0.000

$$$$

  -OEChem-04052319163D

 85 93  0     1  0  0  0  0  0999 V2000
  -23.3506  -23.8136   18.5874 C   0  0  0  0  0  0  0  0  0  0  0  0
  -24.4624  -23.0816   18.9916 C   0  0  0  0  0  0  0  0  0  0  0  0
  -26.4612  -28.6132   19.1402 C   0  0  0  0  0  0  0  0  0  0  0  0
  -26.6175  -27.1981   21.0922 C   0  0  0  0  0  0  0  0  0  0  0  0
  -22.0725  -23.4026   18.9635 C   0  0  0  0  0  0  0  0  0  0  0  0
  -24.2969  -21.9387   19.7731 C   0  0  0  0  0  0  0  0  0  0  0  0
  -27.1436  -18.0659   18.1785 C   0  0  0  0  0  0  0  0  0  0  0  0
  -25.2702  -29.1524   19.6264 C   0  0  0  0  0  0  0  0  0  0  0  0
  -25.4265  -27.7374   21.5784 C   0  0  0  0  0  0  0  0  0  0  0  0
  -28.4967  -18.0900   18.5134 C   0  0  0  0  0  0  0  0  0  0  0  0
  -22.1127  -27.3655   21.0207 C   0  0  0  0  0  0  0  0  0  0  0  0
  -21.1641  -26.4821   21.5358 C   0  0  0  0  0  0  0  0  0  0  0  0
  -33.3299  -20.7820   22.9771 C   0  0  0  0  0  0  0  0  0  0  0  0
  -34.5929  -21.4018   22.8111 C   0  0  0  0  0  0  0  0  0  0  0  0
  -28.0707  -16.5508   20.3212 C   0  0  0  0  0  0  0  0  0  0  0  0
  -21.2893  -27.5956   23.6763 C   0  0  0  0  0  0  0  0  0  0  0  0
  -27.1349  -27.6360   19.8731 C   0  0  0  0  0  0  0  0  0  0  0  0
  -29.6705  -27.5485   19.6076 C   0  0  0  0  0  0  0  0  0  0  0  0
  -21.8905  -22.2486   19.7419 C   0  0  0  0  0  0  0  0  0  0  0  0
  -26.2405  -17.2911   18.9205 C   0  0  0  0  0  0  0  0  0  0  0  0
  -23.0152  -21.5126   20.1611 C   0  0  0  0  0  0  0  0  0  0  0  0
  -26.7070  -16.5165   19.9921 C   0  0  0  0  0  0  0  0  0  0  0  0
  -24.7529  -28.7145   20.8455 C   0  0  0  0  0  0  0  0  0  0  0  0
  -28.9600  -17.3347   19.5866 C   0  0  0  0  0  0  0  0  0  0  0  0
  -22.6497  -28.3639   21.8335 C   0  0  0  0  0  0  0  0  0  0  0  0
  -20.7523  -26.5972   22.8635 C   0  0  0  0  0  0  0  0  0  0  0  0
  -22.2380  -28.4790   23.1612 C   0  0  0  0  0  0  0  0  0  0  0  0
  -28.3649  -27.0782   19.3710 C   0  0  0  0  0  0  0  0  0  0  0  0
  -32.9880  -20.2150   21.7693 C   0  0  0  0  0  0  0  0  0  0  0  0
  -34.9844  -21.1948   21.5068 C   0  0  0  0  0  0  0  0  0  0  0  0
  -30.4789  -26.6807   18.9148 C   0  0  0  0  0  0  0  0  0  0  0  0
  -30.1131  -28.6695   20.3843 C   0  0  0  0  0  0  0  0  0  0  0  0
  -23.6782  -17.9169   20.6944 C   0  0  0  0  0  0  0  0  0  0  0  0
  -23.4523  -14.6831   20.8132 C   0  0  0  0  0  0  0  0  0  0  0  0
  -25.0175  -11.6591   20.5835 C   0  0  0  0  0  0  0  0  0  0  0  0
  -31.8869  -21.4963   17.4034 C   0  0  0  0  0  0  0  0  0  0  0  0
  -20.4927  -21.8702   20.1634 C   0  0  0  0  0  0  0  0  0  0  0  0
  -24.7884  -17.2550   18.5299 C   0  0  0  0  0  0  0  0  0  0  0  0
  -25.7817  -15.6522   20.8079 C   0  0  0  0  0  0  0  0  0  0  0  0
  -20.3786  -20.4377   20.6784 C   0  0  0  0  0  0  0  0  0  0  0  0
  -29.3306  -23.1092   15.5218 C   0  0  0  0  0  0  0  0  0  0  0  0
  -21.5030  -20.1332   21.6632 C   0  0  0  0  0  0  0  0  0  0  0  0
  -28.9552  -24.3202   16.3778 C   0  0  0  0  0  0  0  0  0  0  0  0
  -29.6653  -21.8923   16.3816 C   0  0  0  0  0  0  0  0  0  0  0  0
  -30.3187  -23.3373   18.2682 C   0  0  0  0  0  0  0  0  0  0  0  0
  -22.8748  -20.2533   20.9886 C   0  0  1  0  0  0  0  0  0  0  0  0
  -23.8723  -16.8313   19.6738 C   0  0  1  0  0  0  0  0  0  0  0  0
  -30.0270  -24.6050   17.4471 C   0  0  2  0  0  0  0  0  0  0  0  0
  -37.4975  -21.0212   21.4178 C   0  0  0  0  0  0  0  0  0  0  0  0
  -36.3569  -23.1632   20.7352 C   0  0  0  0  0  0  0  0  0  0  0  0
  -24.5786   -9.1950   20.7652 C   0  0  0  0  0  0  0  0  0  0  0  0
  -35.1939  -19.0848   19.2456 C   0  0  0  0  0  0  0  0  0  0  0  0
  -23.3591  -14.9263   23.8533 C   0  0  0  0  0  0  0  0  0  0  0  0
  -23.8777  -12.4811   23.9951 C   0  0  0  0  0  0  0  0  0  0  0  0
  -21.7753  -13.2464   22.8921 C   0  0  0  0  0  0  0  0  0  0  0  0
  -25.8360  -11.1888   17.7786 C   0  0  0  0  0  0  0  0  0  0  0  0
  -31.7568  -19.4354   21.3821 C   0  0  0  0  0  0  0  0  0  0  0  0
  -31.8882  -17.9269   21.6031 C   0  0  0  0  0  0  0  0  0  0  0  0
  -34.0867  -21.2305   18.5212 C   0  0  0  0  0  0  0  0  0  0  0  0
  -30.6103  -17.1572   21.2899 C   0  0  0  0  0  0  0  0  0  1  0  0
  -36.2124  -21.6259   20.8074 C   0  0  0  0  0  0  0  0  0  0  0  0
  -23.9891  -13.6067   21.7254 C   0  0  1  0  0  0  0  0  0  0  0  0
  -24.6551  -10.3920   19.8302 C   0  0  2  0  0  0  0  0  0  0  0  0
  -34.0282  -20.0466   19.4994 C   0  0  2  0  0  0  0  0  0  0  0  0
  -23.2677  -13.5828   23.1025 C   0  0  0  0  0  0  0  0  0  0  0  0
  -28.3405  -25.9958   18.5889 N   0  0  0  0  0  0  0  0  0  0  0  0
  -34.0010  -20.4725   20.8829 N   0  0  0  0  0  0  0  0  0  0  0  0
  -29.6409  -25.7787   18.3280 N   0  0  0  0  0  0  0  0  0  0  0  0
  -24.3699  -15.6554   20.3906 N   0  0  0  0  0  0  0  0  0  0  0  0
  -30.6889  -22.2290   17.3740 N   0  0  0  0  0  0  0  0  0  0  0  0
  -31.8176  -26.6088   18.7564 N   0  0  0  0  0  0  0  0  0  0  0  0
  -29.1501  -29.4563   21.0308 N   0  0  0  0  0  0  0  0  0  0  0  0
  -23.1448  -19.0834   20.1805 N   0  0  0  0  0  0  0  0  0  0  0  0
  -23.8957  -12.3560   20.9801 N   0  0  0  0  0  0  0  0  0  0  0  0
  -32.8059  -21.8845   18.3707 N   0  0  0  0  0  0  0  0  0  0  0  0
  -25.6732  -10.1042   18.7807 N   0  3  0  0  0  0  0  0  0  0  0  0
  -31.3254  -28.9744   20.4881 O   0  0  0  0  0  0  0  0  0  0  0  0
  -23.9879  -17.7108   21.8620 O   0  0  0  0  0  0  0  0  0  0  0  0
  -22.2644  -14.6580   20.4819 O   0  0  0  0  0  0  0  0  0  0  0  0
  -26.1794  -11.9951   20.8018 O   0  0  0  0  0  0  0  0  0  0  0  0
  -32.1224  -20.5685   16.6219 O   0  0  0  0  0  0  0  0  0  0  0  0
  -23.5909  -29.2406   21.3204 O   0  0  0  0  0  0  0  0  0  0  0  0
  -30.2802  -17.3570   19.9160 O   0  0  0  0  0  0  0  0  0  1  0  0
  -19.8402  -25.7498   23.3576 F   0  0  0  0  0  0  0  0  0  0  0  0
  -22.7495  -29.4369   23.9465 F   0  0  0  0  0  0  0  0  0  0  0  0
  1  2  1  0  0  0  0
  1  5  2  0  0  0  0
  2  6  2  0  0  0  0
  3  8  2  0  0  0  0
  3 17  1  0  0  0  0
  4  9  1  0  0  0  0
  4 17  2  0  0  0  0
  5 19  1  0  0  0  0
  6 21  1  0  0  0  0
  7 10  2  0  0  0  0
  7 20  1  0  0  0  0
  8 23  1  0  0  0  0
  9 23  2  0  0  0  0
 10 24  1  0  0  0  0
 11 12  2  0  0  0  0
 11 25  1  0  0  0  0
 12 26  1  0  0  0  0
 13 14  1  0  0  0  0
 13 29  2  0  0  0  0
 14 30  2  0  0  0  0
 15 22  1  0  0  0  0
 15 24  2  0  0  0  0
 16 26  2  0  0  0  0
 16 27  1  0  0  0  0
 17 28  1  0  0  0  0
 18 28  1  0  0  0  0
 18 31  2  0  0  0  0
 18 32  1  0  0  0  0
 19 21  2  0  0  0  0
 19 37  1  0  0  0  0
 20 22  2  0  0  0  0
 20 38  1  0  0  0  0
 21 46  1  0  0  0  0
 22 39  1  0  0  0  0
 23 82  1  0  0  0  0
 24 83  1  0  0  0  0
 25 27  2  0  0  0  0
 25 82  1  0  0  0  0
 26 84  1  0  0  0  0
 27 85  1  0  0  0  0
 28 66  2  0  0  0  0
 29 57  1  0  0  0  0
 29 67  1  0  0  0  0
 30 61  1  0  0  0  0
 30 67  1  0  0  0  0
 31 68  1  0  0  0  0
 31 71  1  0  0  0  0
 32 72  1  0  0  0  0
 32 77  2  0  0  0  0
 33 47  1  0  0  0  0
 33 73  1  0  0  0  0
 33 78  2  0  0  0  0
 34 62  1  0  0  0  0
 34 69  1  0  0  0  0
 34 79  2  0  0  0  0
 35 63  1  0  0  0  0
 35 74  1  0  0  0  0
 35 80  2  0  0  0  0
 36 70  1  0  0  0  0
 36 75  1  0  0  0  0
 36 81  2  0  0  0  0
 37 40  1  0  0  0  0
 38 47  1  0  0  0  0
 39 69  1  0  0  0  0
 40 42  1  0  0  0  0
 41 43  1  0  0  0  0
 41 44  1  0  0  0  0
 42 46  1  0  0  0  0
 43 48  1  0  0  0  0
 44 70  1  0  0  0  0
 45 48  1  0  0  0  0
 45 70  1  0  0  0  0
 46 73  1  0  0  0  0
 47 69  1  0  0  0  0
 48 68  1  0  0  0  0
 49 61  1  0  0  0  0
 50 61  1  0  0  0  0
 51 63  1  0  0  0  0
 52 64  1  0  0  0  0
 53 65  1  0  0  0  0
 54 65  1  0  0  0  0
 55 65  1  0  0  0  0
 56 76  1  0  0  0  0
 57 58  1  0  0  0  0
 58 60  1  0  0  0  0
 59 64  1  0  0  0  0
 59 75  1  0  0  0  0
 60 83  1  0  0  0  0
 62 65  1  0  0  0  0
 62 74  1  0  0  0  0
 63 76  1  0  0  0  0
 64 67  1  0  0  0  0
 66 68  1  0  0  0  0
M  CHG  1  76   1
M  ISO  4  36 100  60 101  75 100  83 101
M  END
> <Batch ID>
0093

> <Smiles>
CNC(C)C(=O)NC(C(=O)N1Cc2cc([101O:1][101CH2:1]CCc3ccc(C(C)C)n3C(C)C[100NH:0][100C:0](=O)N3CCCC(n4nc(-c5ccc(Oc6ccc(F)cc6F)cc5)c(C(N)=O)c4N)C3)ccc2CC1C(=O)NC1CCCc2ccccc21)C(C)(C)C

> <Shape>
0.200

> <Color>
0.073

> <Negative vol penalty>
0.000

$$$$

  -OEChem-04052319163D

 85 93  0     1  0  0  0  0  0999 V2000
  -17.1743  -30.0024   23.7174 C   0  0  0  0  0  0  0  0  0  0  0  0
  -18.1165  -29.8387   24.7277 C   0  0  0  0  0  0  0  0  0  0  0  0
  -26.6529  -17.8115   19.7529 C   0  0  0  0  0  0  0  0  0  0  0  0
  -28.4051  -17.9044   21.4138 C   0  0  0  0  0  0  0  0  0  0  0  0
  -17.2760  -29.2570   22.5435 C   0  0  0  0  0  0  0  0  0  0  0  0
  -19.1605  -28.9287   24.5652 C   0  0  0  0  0  0  0  0  0  0  0  0
  -26.0344  -27.9456   26.3256 C   0  0  0  0  0  0  0  0  0  0  0  0
  -26.6739  -16.4179   19.8087 C   0  0  0  0  0  0  0  0  0  0  0  0
  -28.4260  -16.5108   21.4696 C   0  0  0  0  0  0  0  0  0  0  0  0
  -26.8717  -26.9953   26.9084 C   0  0  0  0  0  0  0  0  0  0  0  0
  -25.4929  -13.9883   21.8422 C   0  0  0  0  0  0  0  0  0  0  0  0
  -24.2682  -13.3235   21.9032 C   0  0  0  0  0  0  0  0  0  0  0  0
  -26.9918  -25.8200   24.8053 C   0  0  0  0  0  0  0  0  0  0  0  0
  -24.7879  -12.1769   19.8411 C   0  0  0  0  0  0  0  0  0  0  0  0
  -31.5359  -26.1422   23.3494 C   0  0  0  0  0  0  0  0  0  0  0  0
  -27.5186  -18.5547   20.5555 C   0  0  0  0  0  0  0  0  0  0  0  0
  -26.7130  -20.8650   21.2774 C   0  0  0  0  0  0  0  0  0  0  0  0
  -18.3272  -28.3445   22.3625 C   0  0  0  0  0  0  0  0  0  0  0  0
  -25.6602  -27.8340   24.9788 C   0  0  0  0  0  0  0  0  0  0  0  0
  -19.2756  -28.1695   23.3883 C   0  0  0  0  0  0  0  0  0  0  0  0
  -26.1518  -26.7715   24.2070 C   0  0  0  0  0  0  0  0  0  0  0  0
  -27.5604  -15.7676   20.6670 C   0  0  0  0  0  0  0  0  0  0  0  0
  -27.3482  -25.9307   26.1491 C   0  0  0  0  0  0  0  0  0  0  0  0
  -26.3651  -13.7475   20.7806 C   0  0  0  0  0  0  0  0  0  0  0  0
  -23.9157  -12.4178   20.9027 C   0  0  0  0  0  0  0  0  0  0  0  0
  -26.0126  -12.8418   19.7801 C   0  0  0  0  0  0  0  0  0  0  0  0
  -27.4978  -19.9943   20.4979 C   0  0  0  0  0  0  0  0  0  0  0  0
  -32.5768  -26.0780   22.4665 C   0  0  0  0  0  0  0  0  0  0  0  0
  -27.0593  -22.1212   20.8431 C   0  0  0  0  0  0  0  0  0  0  0  0
  -33.4002  -25.8644   24.5102 C   0  0  0  0  0  0  0  0  0  0  0  0
  -25.7565  -20.5652   22.3026 C   0  0  0  0  0  0  0  0  0  0  0  0
  -22.9031  -27.4684   23.4397 C   0  0  0  0  0  0  0  0  0  0  0  0
  -24.7654  -27.8599   20.8127 C   0  0  0  0  0  0  0  0  0  0  0  0
  -27.8672  -27.6579   19.4039 C   0  0  0  0  0  0  0  0  0  0  0  0
  -31.6628  -25.0929   18.9749 C   0  0  0  0  0  0  0  0  0  0  0  0
  -18.3688  -27.5269   21.0958 C   0  0  0  0  0  0  0  0  0  0  0  0
  -24.7779  -28.8820   24.3578 C   0  0  0  0  0  0  0  0  0  0  0  0
  -25.7961  -26.6175   22.7516 C   0  0  0  0  0  0  0  0  0  0  0  0
  -19.7175  -26.8563   20.8476 C   0  0  0  0  0  0  0  0  0  0  0  0
  -29.1395  -23.9398   16.7434 C   0  0  0  0  0  0  0  0  0  0  0  0
  -20.2215  -26.1836   22.1205 C   0  0  0  0  0  0  0  0  0  0  0  0
  -28.3860  -22.8857   17.5565 C   0  0  0  0  0  0  0  0  0  0  0  0
  -30.6359  -23.9237   17.0476 C   0  0  0  0  0  0  0  0  0  0  0  0
  -30.2251  -22.9882   19.2903 C   0  0  0  0  0  0  0  0  0  0  0  0
  -20.4366  -27.2103   23.2390 C   0  0  1  0  0  0  0  0  0  0  0  0
  -24.0467  -28.3870   23.1138 C   0  0  1  0  0  0  0  0  0  0  0  0
  -28.7043  -23.0036   19.0592 C   0  0  2  0  0  0  0  0  0  0  0  0
  -35.3862  -26.8408   25.7169 C   0  0  0  0  0  0  0  0  0  0  0  0
  -35.1067  -24.3399   25.5676 C   0  0  0  0  0  0  0  0  0  0  0  0
  -29.0696  -28.0069   17.2291 C   0  0  0  0  0  0  0  0  0  0  0  0
  -31.1888  -25.0908   28.9856 C   0  0  0  0  0  0  0  0  0  0  0  0
  -23.6052  -25.2437   19.7544 C   0  0  0  0  0  0  0  0  0  0  0  0
  -25.4844  -25.1598   18.1021 C   0  0  0  0  0  0  0  0  0  0  0  0
  -23.8525  -27.0453   18.0375 C   0  0  0  0  0  0  0  0  0  0  0  0
  -29.6118  -29.7450   20.5699 C   0  0  0  0  0  0  0  0  0  0  0  0
  -32.6122  -26.1607   21.0041 C   0  0  0  0  0  0  0  0  0  0  0  0
  -31.1026  -24.6295   26.5225 C   0  0  0  0  0  0  0  0  0  0  0  0
  -31.2870  -26.0172   25.8927 C   0  0  0  0  0  0  0  0  0  0  0  0
  -29.0089  -25.4407   27.7794 C   0  0  0  0  0  0  0  0  0  1  0  0
  -34.3618  -25.6901   25.6273 C   0  0  0  0  0  0  0  0  0  0  0  0
  -25.5480  -26.9371   19.9098 C   0  0  1  0  0  0  0  0  0  0  0  0
  -28.6506  -28.6370   18.5482 C   0  0  2  0  0  0  0  0  0  0  0  0
  -30.2941  -24.6041   27.8384 C   0  0  2  0  0  0  0  0  0  0  0  0
  -24.6279  -26.0980   18.9789 C   0  0  0  0  0  0  0  0  0  0  0  0
  -28.2833  -20.6424   19.6337 N   0  0  0  0  0  0  0  0  0  0  0  0
  -32.0743  -26.0067   24.6063 N   0  0  0  0  0  0  0  0  0  0  0  0
  -27.9938  -21.9338   19.8675 N   0  0  0  0  0  0  0  0  0  0  0  0
  -33.7180  -25.9061   23.2122 N   0  3  0  0  0  0  0  0  0  0  0  0
  -24.9254  -27.6644   22.1918 N   0  0  0  0  0  0  0  0  0  0  0  0
  -30.8696  -24.0405   18.4890 N   0  0  0  0  0  0  0  0  0  0  0  0
  -26.6525  -23.3567   21.2043 N   0  0  0  0  0  0  0  0  0  0  0  0
  -25.5214  -19.2215   22.6247 N   0  0  0  0  0  0  0  0  0  0  0  0
  -21.6702  -27.9370   23.0278 N   0  0  0  0  0  0  0  0  0  0  0  0
  -26.5084  -27.7766   19.2019 N   0  0  0  0  0  0  0  0  0  0  0  0
  -31.8286  -25.1341   20.3539 N   0  0  0  0  0  0  0  0  0  0  0  0
  -29.8775  -29.0854   19.2655 N   0  3  0  0  0  0  0  0  0  0  0  0
  -25.1170  -21.4615   22.9035 O   0  0  0  0  0  0  0  0  0  0  0  0
  -23.1233  -26.4120   24.0204 O   0  0  0  0  0  0  0  0  0  0  0  0
  -24.0443  -28.7269   20.3127 O   0  0  0  0  0  0  0  0  0  0  0  0
  -28.4069  -26.8645   20.1719 O   0  0  0  0  0  0  0  0  0  0  0  0
  -32.1804  -25.9366   18.2351 O   0  0  0  0  0  0  0  0  0  0  0  0
  -27.5810  -14.4077   20.7219 O   0  0  0  0  0  0  0  0  0  0  0  0
  -28.1651  -25.0014   26.7157 O   0  0  0  0  0  0  0  0  0  1  0  0
  -22.7403  -11.7783   20.9622 F   0  0  0  0  0  0  0  0  0  0  0  0
  -26.8469  -12.6054   18.7584 F   0  0  0  0  0  0  0  0  0  0  0  0
  1  2  1  0  0  0  0
  1  5  2  0  0  0  0
  2  6  2  0  0  0  0
  3  8  2  0  0  0  0
  3 16  1  0  0  0  0
  4  9  1  0  0  0  0
  4 16  2  0  0  0  0
  5 18  1  0  0  0  0
  6 20  1  0  0  0  0
  7 10  2  0  0  0  0
  7 19  1  0  0  0  0
  8 22  1  0  0  0  0
  9 22  2  0  0  0  0
 10 23  1  0  0  0  0
 11 12  2  0  0  0  0
 11 24  1  0  0  0  0
 12 25  1  0  0  0  0
 13 21  1  0  0  0  0
 13 23  2  0  0  0  0
 14 25  2  0  0  0  0
 14 26  1  0  0  0  0
 15 28  2  0  0  0  0
 15 66  1  0  0  0  0
 16 27  1  0  0  0  0
 17 27  1  0  0  0  0
 17 29  2  0  0  0  0
 17 31  1  0  0  0  0
 18 20  2  0  0  0  0
 18 36  1  0  0  0  0
 19 21  2  0  0  0  0
 19 37  1  0  0  0  0
 20 45  1  0  0  0  0
 21 38  1  0  0  0  0
 22 82  1  0  0  0  0
 23 83  1  0  0  0  0
 24 26  2  0  0  0  0
 24 82  1  0  0  0  0
 25 84  1  0  0  0  0
 26 85  1  0  0  0  0
 27 65  2  0  0  0  0
 28 56  1  0  0  0  0
 28 68  1  0  0  0  0
 29 67  1  0  0  0  0
 29 71  1  0  0  0  0
 30 60  1  0  0  0  0
 30 66  1  0  0  0  0
 30 68  2  0  0  0  0
 31 72  1  0  0  0  0
 31 77  2  0  0  0  0
 32 46  1  0  0  0  0
 32 73  1  0  0  0  0
 32 78  2  0  0  0  0
 33 61  1  0  0  0  0
 33 69  1  0  0  0  0
 33 79  2  0  0  0  0
 34 62  1  0  0  0  0
 34 74  1  0  0  0  0
 34 80  2  0  0  0  0
 35 70  1  0  0  0  0
 35 75  1  0  0  0  0
 35 81  2  0  0  0  0
 36 39  1  0  0  0  0
 37 46  1  0  0  0  0
 38 69  1  0  0  0  0
 39 41  1  0  0  0  0
 40 42  1  0  0  0  0
 40 43  1  0  0  0  0
 41 45  1  0  0  0  0
 42 47  1  0  0  0  0
 43 70  1  0  0  0  0
 44 47  1  0  0  0  0
 44 70  1  0  0  0  0
 45 73  1  0  0  0  0
 46 69  1  0  0  0  0
 47 67  1  0  0  0  0
 48 60  1  0  0  0  0
 49 60  1  0  0  0  0
 50 62  1  0  0  0  0
 51 63  1  0  0  0  0
 52 64  1  0  0  0  0
 53 64  1  0  0  0  0
 54 64  1  0  0  0  0
 55 76  1  0  0  0  0
 56 75  1  0  0  0  0
 57 58  1  0  0  0  0
 57 63  1  0  0  0  0
 58 66  1  0  0  0  0
 59 63  1  0  0  0  0
 59 83  1  0  0  0  0
 61 64  1  0  0  0  0
 61 74  1  0  0  0  0
 62 76  1  0  0  0  0
 65 67  1  0  0  0  0
M  CHG  2  68   1  76   1
M  ISO  4  35 100  59 101  75 100  83 101
M  END
> <Batch ID>
0093

> <Smiles>
CNC(C)C(=O)NC(C(=O)N1Cc2cc([101O:1][101CH2:1]C(C)CCn3cc(C[100NH:0][100C:0](=O)N4CCCC(n5nc(-c6ccc(Oc7ccc(F)cc7F)cc6)c(C(N)=O)c5N)C4)nc3C(C)C)ccc2CC1C(=O)NC1CCCc2ccccc21)C(C)(C)C

> <Shape>
0.221

> <Color>
0.068

> <Negative vol penalty>
0.000

$$$$

  -OEChem-04052319163D

 89 97  0     1  0  0  0  0  0999 V2000
  -26.9939  -34.8611   24.5605 C   0  0  0  0  0  0  0  0  0  0  0  0
  -27.3776  -33.5890   24.1483 C   0  0  0  0  0  0  0  0  0  0  0  0
  -26.4684  -14.6964   21.5968 C   0  0  0  0  0  0  0  0  0  0  0  0
  -26.2364  -14.6415   19.1926 C   0  0  0  0  0  0  0  0  0  0  0  0
  -25.6774  -35.0977   24.9538 C   0  0  0  0  0  0  0  0  0  0  0  0
  -26.4451  -32.5524   24.1302 C   0  0  0  0  0  0  0  0  0  0  0  0
  -26.6931  -29.7902   19.8930 C   0  0  0  0  0  0  0  0  0  0  0  0
  -26.3701  -13.3057   21.6381 C   0  0  0  0  0  0  0  0  0  0  0  0
  -26.1381  -13.2507   19.2338 C   0  0  0  0  0  0  0  0  0  0  0  0
  -27.7234  -28.8553   19.8018 C   0  0  0  0  0  0  0  0  0  0  0  0
  -25.8193   -9.7950   22.4097 C   0  0  0  0  0  0  0  0  0  0  0  0
  -24.9917   -9.2303   23.3801 C   0  0  0  0  0  0  0  0  0  0  0  0
  -26.1806  -27.1044   20.4126 C   0  0  0  0  0  0  0  0  0  0  0  0
  -25.0119  -22.1915   16.2739 C   0  0  0  0  0  0  0  0  0  0  0  0
  -23.0982  -10.4086   22.4509 C   0  0  0  0  0  0  0  0  0  0  0  0
  -26.4015  -15.3643   20.3740 C   0  0  0  0  0  0  0  0  0  0  0  0
  -27.6761  -17.5672   20.1998 C   0  0  0  0  0  0  0  0  0  0  0  0
  -24.7259  -34.0657   24.9313 C   0  0  0  0  0  0  0  0  0  0  0  0
  -25.3990  -29.3901   20.2560 C   0  0  0  0  0  0  0  0  0  0  0  0
  -25.1149  -32.7750   24.5248 C   0  0  0  0  0  0  0  0  0  0  0  0
  -25.1350  -28.0357   20.5052 C   0  0  0  0  0  0  0  0  0  0  0  0
  -26.2601  -21.7559   15.8650 C   0  0  0  0  0  0  0  0  0  0  0  0
  -26.2050  -12.5828   20.4566 C   0  0  0  0  0  0  0  0  0  0  0  0
  -27.4679  -27.5126   20.0644 C   0  0  0  0  0  0  0  0  0  0  0  0
  -25.2864  -10.6665   21.4598 C   0  0  0  0  0  0  0  0  0  0  0  0
  -23.6312   -9.5371   23.4008 C   0  0  0  0  0  0  0  0  0  0  0  0
  -23.9259  -10.9733   21.4804 C   0  0  0  0  0  0  0  0  0  0  0  0
  -26.5024  -16.8010   20.3307 C   0  0  0  0  0  0  0  0  0  0  0  0
  -23.9796  -22.1450   15.3586 C   0  0  0  0  0  0  0  0  0  0  0  0
  -26.3932  -21.3022   14.5680 C   0  0  0  0  0  0  0  0  0  0  0  0
  -27.2393  -18.8693   20.2113 C   0  0  0  0  0  0  0  0  0  0  0  0
  -29.0394  -17.1401   20.0784 C   0  0  0  0  0  0  0  0  0  0  0  0
  -23.4404  -30.0531   22.6701 C   0  0  0  0  0  0  0  0  0  0  0  0
  -21.3435  -28.2785   20.9449 C   0  0  0  0  0  0  0  0  0  0  0  0
  -20.8467  -25.8556   18.5935 C   0  0  0  0  0  0  0  0  0  0  0  0
  -22.0147  -21.4298   18.7977 C   0  0  0  0  0  0  0  0  0  0  0  0
  -23.3261  -34.3583   25.4105 C   0  0  0  0  0  0  0  0  0  0  0  0
  -24.2927  -30.4068   20.3239 C   0  0  0  0  0  0  0  0  0  0  0  0
  -23.7586  -27.5518   20.8789 C   0  0  0  0  0  0  0  0  0  0  0  0
  -22.3089  -33.2946   25.0055 C   0  0  0  0  0  0  0  0  0  0  0  0
  -23.7183  -21.6225   21.9182 C   0  0  0  0  0  0  0  0  0  0  0  0
  -22.8566  -31.8985   25.2846 C   0  0  0  0  0  0  0  0  0  0  0  0
  -24.7309  -20.4778   21.8534 C   0  0  0  0  0  0  0  0  0  0  0  0
  -22.4025  -21.2512   21.2379 C   0  0  0  0  0  0  0  0  0  0  0  0
  -23.5498  -19.6235   19.7860 C   0  0  0  0  0  0  0  0  0  0  0  0
  -24.1264  -31.6306   24.4678 C   0  0  1  0  0  0  0  0  0  0  0  0
  -23.1273  -29.9640   21.2032 C   0  0  1  0  0  0  0  0  0  0  0  0
  -24.9123  -19.9707   20.4101 C   0  0  2  0  0  0  0  0  0  0  0  0
  -19.0223  -24.5934   17.4206 C   0  0  0  0  0  0  0  0  0  0  0  0
  -30.5050  -24.5004   19.7881 C   0  0  0  0  0  0  0  0  0  0  0  0
  -28.2264  -19.6045   14.8891 C   0  0  0  0  0  0  0  0  0  0  0  0
  -28.7918  -21.9378   14.1328 C   0  0  0  0  0  0  0  0  0  0  0  0
  -27.7129  -20.3346   12.5685 C   0  0  0  0  0  0  0  0  0  0  0  0
  -20.9050  -26.5906   23.4486 C   0  0  0  0  0  0  0  0  0  0  0  0
  -19.8568  -24.8387   21.9993 C   0  0  0  0  0  0  0  0  0  0  0  0
  -18.8246  -27.1040   22.1591 C   0  0  0  0  0  0  0  0  0  0  0  0
  -21.6872  -26.8726   15.9443 C   0  0  0  0  0  0  0  0  0  0  0  0
  -27.4222  -21.7850   16.8256 C   0  0  0  0  0  0  0  0  0  0  0  0
  -22.6161  -22.6031   15.7485 C   0  0  0  0  0  0  0  0  0  0  0  0
  -27.7336  -23.1824   17.3763 C   0  0  0  0  0  0  0  0  0  0  0  0
  -28.9102  -23.1868   18.3607 C   0  0  0  0  0  0  0  0  0  0  0  0
  -21.7367  -21.4902   16.3323 C   0  0  0  0  0  0  0  0  0  0  0  0
  -28.1094  -25.2696   19.6028 C   0  0  0  0  0  0  0  0  0  1  0  0
  -20.9846  -26.8137   20.8777 C   0  0  1  0  0  0  0  0  0  0  0  0
  -19.9415  -25.8040   17.3759 C   0  0  2  0  0  0  0  0  0  0  0  0
  -29.2770  -24.5933   18.8730 C   0  0  1  0  0  0  0  0  0  0  0  0
  -27.7080  -20.8181   14.0568 C   0  0  0  0  0  0  0  0  0  0  0  0
  -20.1693  -26.3458   22.1161 C   0  0  0  0  0  0  0  0  0  0  0  0
  -25.4025  -17.5536   20.4192 N   0  0  0  0  0  0  0  0  0  0  0  0
  -24.1386  -21.6961   14.0956 N   0  0  0  0  0  0  0  0  0  0  0  0
  -25.3653  -21.2676   13.6939 N   0  0  0  0  0  0  0  0  0  0  0  0
  -25.8833  -18.8064   20.3437 N   0  0  0  0  0  0  0  0  0  0  0  0
  -22.7116  -28.5851   20.9384 N   0  0  0  0  0  0  0  0  0  0  0  0
  -22.6442  -20.7799   19.8721 N   0  0  0  0  0  0  0  0  0  0  0  0
  -27.8866  -20.0505   20.1212 N   0  0  0  0  0  0  0  0  0  0  0  0
  -29.3119  -15.7653   20.0843 N   0  0  0  0  0  0  0  0  0  0  0  0
  -23.7885  -31.3211   23.0950 N   0  0  0  0  0  0  0  0  0  0  0  0
  -20.3009  -26.6191   19.6037 N   0  0  0  0  0  0  0  0  0  0  0  0
  -22.3030  -20.9238   17.5362 N   0  0  0  0  0  0  0  0  0  0  0  0
  -20.7543  -25.7313   16.1289 N   0  3  0  0  0  0  0  0  0  0  0  0
  -29.9894  -17.9538   19.9846 O   0  0  0  0  0  0  0  0  0  0  0  0
  -23.3699  -29.0463   23.3652 O   0  0  0  0  0  0  0  0  0  0  0  0
  -20.4429  -29.1201   20.9941 O   0  0  0  0  0  0  0  0  0  0  0  0
  -21.9279  -25.2735   18.6448 O   0  0  0  0  0  0  0  0  0  0  0  0
  -21.2563  -22.3933   18.9510 O   0  0  0  0  0  0  0  0  0  0  0  0
  -26.1092  -11.2256   20.4965 O   0  0  0  0  0  0  0  0  0  0  0  0
  -28.4718  -26.5982   19.9767 O   0  0  0  0  0  0  0  0  0  1  0  0
  -22.8362   -8.9936   24.3318 F   0  0  0  0  0  0  0  0  0  0  0  0
  -23.4079  -11.8089   20.5698 F   0  0  0  0  0  0  0  0  0  0  0  0
  1  2  1  0  0  0  0
  1  5  2  0  0  0  0
  2  6  2  0  0  0  0
  3  8  2  0  0  0  0
  3 16  1  0  0  0  0
  4  9  1  0  0  0  0
  4 16  2  0  0  0  0
  5 18  1  0  0  0  0
  6 20  1  0  0  0  0
  7 10  2  0  0  0  0
  7 19  1  0  0  0  0
  8 23  1  0  0  0  0
  9 23  2  0  0  0  0
 10 24  1  0  0  0  0
 11 12  2  0  0  0  0
 11 25  1  0  0  0  0
 12 26  1  0  0  0  0
 13 21  1  0  0  0  0
 13 24  2  0  0  0  0
 14 22  1  0  0  0  0
 14 29  2  0  0  0  0
 15 26  2  0  0  0  0
 15 27  1  0  0  0  0
 16 28  1  0  0  0  0
 17 28  1  0  0  0  0
 17 31  2  0  0  0  0
 17 32  1  0  0  0  0
 18 20  2  0  0  0  0
 18 37  1  0  0  0  0
 19 21  2  0  0  0  0
 19 38  1  0  0  0  0
 20 46  1  0  0  0  0
 21 39  1  0  0  0  0
 22 30  2  0  0  0  0
 22 58  1  0  0  0  0
 23 86  1  0  0  0  0
 24 87  1  0  0  0  0
 25 27  2  0  0  0  0
 25 86  1  0  0  0  0
 26 88  1  0  0  0  0
 27 89  1  0  0  0  0
 28 69  2  0  0  0  0
 29 59  1  0  0  0  0
 29 70  1  0  0  0  0
 30 67  1  0  0  0  0
 30 71  1  0  0  0  0
 31 72  1  0  0  0  0
 31 75  1  0  0  0  0
 32 76  1  0  0  0  0
 32 81  2  0  0  0  0
 33 47  1  0  0  0  0
 33 77  1  0  0  0  0
 33 82  2  0  0  0  0
 34 64  1  0  0  0  0
 34 73  1  0  0  0  0
 34 83  2  0  0  0  0
 35 65  1  0  0  0  0
 35 78  1  0  0  0  0
 35 84  2  0  0  0  0
 36 74  1  0  0  0  0
 36 79  1  0  0  0  0
 36 85  2  0  0  0  0
 37 40  1  0  0  0  0
 38 47  1  0  0  0  0
 39 73  1  0  0  0  0
 40 42  1  0  0  0  0
 41 43  1  0  0  0  0
 41 44  1  0  0  0  0
 42 46  1  0  0  0  0
 43 48  1  0  0  0  0
 44 74  1  0  0  0  0
 45 48  1  0  0  0  0
 45 74  1  0  0  0  0
 46 77  1  0  0  0  0
 47 73  1  0  0  0  0
 48 72  1  0  0  0  0
 49 65  1  0  0  0  0
 50 66  1  0  0  0  0
 51 67  1  0  0  0  0
 52 67  1  0  0  0  0
 53 67  1  0  0  0  0
 54 68  1  0  0  0  0
 55 68  1  0  0  0  0
 56 68  1  0  0  0  0
 57 80  1  0  0  0  0
 58 60  1  0  0  0  0
 59 62  1  0  0  0  0
 60 61  1  0  0  0  0
 61 66  1  0  0  0  0
 62 79  1  0  0  0  0
 63 66  1  0  0  0  0
 63 87  1  0  0  0  0
 64 68  1  0  0  0  0
 64 78  1  0  0  0  0
 65 80  1  0  0  0  0
 69 72  1  0  0  0  0
 70 71  2  0  0  0  0
M  CHG  1  80   1
M  ISO  4  36 100  63 101  79 100  87 101
M  END
> <Batch ID>
0093

> <Smiles>
CNC(C)C(=O)NC(C(=O)N1Cc2cc([101O:1][101CH2:1]C(C)CCCc3cc(CC[100NH:0][100C:0](=O)N4CCCC(n5nc(-c6ccc(Oc7ccc(F)cc7F)cc6)c(C(N)=O)c5N)C4)nnc3C(C)(C)C)ccc2CC1C(=O)NC1CCCc2ccccc21)C(C)(C)C

> <Shape>
0.242

> <Color>
0.086

> <Negative vol penalty>
0.000

$$$$

  -OEChem-04052319163D

 89 97  0     1  0  0  0  0  0999 V2000
  -16.4411  -13.7476   18.8650 C   0  0  0  0  0  0  0  0  0  0  0  0
  -17.5314  -13.4692   19.6829 C   0  0  0  0  0  0  0  0  0  0  0  0
  -23.1907   -9.8193   19.9318 C   0  0  0  0  0  0  0  0  0  0  0  0
  -23.5690   -9.9995   22.3112 C   0  0  0  0  0  0  0  0  0  0  0  0
  -15.9919  -15.0603   18.7268 C   0  0  0  0  0  0  0  0  0  0  0  0
  -18.1740  -14.5035   20.3623 C   0  0  0  0  0  0  0  0  0  0  0  0
  -19.1669  -13.3355   25.1888 C   0  0  0  0  0  0  0  0  0  0  0  0
  -28.3058  -12.7316   26.9061 C   0  0  0  0  0  0  0  0  0  0  0  0
  -29.5458  -12.9253   26.2974 C   0  0  0  0  0  0  0  0  0  0  0  0
  -22.4245   -8.6726   20.1404 C   0  0  0  0  0  0  0  0  0  0  0  0
  -22.8027   -8.8528   22.5198 C   0  0  0  0  0  0  0  0  0  0  0  0
  -20.2612  -12.5062   25.4310 C   0  0  0  0  0  0  0  0  0  0  0  0
  -23.2040   -5.5061   22.2554 C   0  0  0  0  0  0  0  0  0  0  0  0
  -23.7024   -4.5447   23.1345 C   0  0  0  0  0  0  0  0  0  0  0  0
  -21.5872  -14.4359   26.0118 C   0  0  0  0  0  0  0  0  0  0  0  0
  -21.7459   -4.8045   24.5279 C   0  0  0  0  0  0  0  0  0  0  0  0
  -23.7630  -10.4828   21.0172 C   0  0  0  0  0  0  0  0  0  0  0  0
  -24.1016  -12.9994   20.7737 C   0  0  0  0  0  0  0  0  0  0  0  0
  -16.6233  -16.1100   19.4124 C   0  0  0  0  0  0  0  0  0  0  0  0
  -19.2779  -14.7245   25.3460 C   0  0  0  0  0  0  0  0  0  0  0  0
  -17.7338  -15.8317   20.2321 C   0  0  0  0  0  0  0  0  0  0  0  0
  -20.4922  -15.2803   25.7734 C   0  0  0  0  0  0  0  0  0  0  0  0
  -27.2675  -13.6344   26.6765 C   0  0  0  0  0  0  0  0  0  0  0  0
  -29.7475  -14.0218   25.4591 C   0  0  0  0  0  0  0  0  0  0  0  0
  -27.4693  -14.7309   25.8383 C   0  0  0  0  0  0  0  0  0  0  0  0
  -28.7093  -14.9246   25.2296 C   0  0  0  0  0  0  0  0  0  0  0  0
  -22.2305   -8.1893   21.4344 C   0  0  0  0  0  0  0  0  0  0  0  0
  -21.4724  -13.0566   25.8398 C   0  0  0  0  0  0  0  0  0  0  0  0
  -21.9765   -6.1168   22.5125 C   0  0  0  0  0  0  0  0  0  0  0  0
  -22.9734   -4.1939   24.2707 C   0  0  0  0  0  0  0  0  0  0  0  0
  -21.2475   -5.7659   23.6487 C   0  0  0  0  0  0  0  0  0  0  0  0
  -24.5551  -11.6670   20.8023 C   0  0  0  0  0  0  0  0  0  0  0  0
  -25.2327  -13.7422   20.5385 C   0  0  0  0  0  0  0  0  0  0  0  0
  -22.7763  -13.5193   20.9446 C   0  0  0  0  0  0  0  0  0  0  0  0
  -18.9935  -17.2307   23.4115 C   0  0  0  0  0  0  0  0  0  0  0  0
  -19.3377  -18.9051   26.1684 C   0  0  0  0  0  0  0  0  0  0  0  0
  -20.4942  -18.9959   29.3779 C   0  0  0  0  0  0  0  0  0  0  0  0
  -31.0476  -12.7525   21.5676 C   0  0  0  0  0  0  0  0  0  0  0  0
  -16.1314  -17.5190   19.1946 C   0  0  0  0  0  0  0  0  0  0  0  0
  -18.0806  -15.6028   25.1064 C   0  0  0  0  0  0  0  0  0  0  0  0
  -20.6575  -16.7635   25.9766 C   0  0  0  0  0  0  0  0  0  0  0  0
  -16.6340  -18.5085   20.2427 C   0  0  0  0  0  0  0  0  0  0  0  0
  -29.5201  -13.4701   18.4325 C   0  0  0  0  0  0  0  0  0  0  0  0
  -18.1310  -18.3276   20.4730 C   0  0  0  0  0  0  0  0  0  0  0  0
  -28.0335  -13.2096   18.6818 C   0  0  0  0  0  0  0  0  0  0  0  0
  -30.4015  -12.4807   19.1916 C   0  0  0  0  0  0  0  0  0  0  0  0
  -28.6480  -12.1376   20.8890 C   0  0  0  0  0  0  0  0  0  0  0  0
  -18.4417  -16.9233   21.0049 C   0  0  1  0  0  0  0  0  0  0  0  0
  -18.4529  -17.0506   24.8019 C   0  0  1  0  0  0  0  0  0  0  0  0
  -27.7205  -13.1454   20.1888 C   0  0  2  0  0  0  0  0  0  0  0  0
  -25.4150  -17.9879   26.1161 C   0  0  0  0  0  0  0  0  0  0  0  0
  -29.2603  -15.6807   22.8890 C   0  0  0  0  0  0  0  0  0  0  0  0
  -30.0138  -17.0507   24.8664 C   0  0  0  0  0  0  0  0  0  0  0  0
  -20.6622  -20.5139   31.3691 C   0  0  0  0  0  0  0  0  0  0  0  0
  -23.5216  -11.6638   28.1876 C   0  0  0  0  0  0  0  0  0  0  0  0
  -21.6102  -20.4257   24.8144 C   0  0  0  0  0  0  0  0  0  0  0  0
  -22.3374  -21.2141   27.0766 C   0  0  0  0  0  0  0  0  0  0  0  0
  -20.0877  -21.8436   26.2021 C   0  0  0  0  0  0  0  0  0  0  0  0
  -18.8805  -17.1668   31.0541 C   0  0  0  0  0  0  0  0  0  0  0  0
  -25.9370  -13.4013   27.3466 C   0  0  0  0  0  0  0  0  0  0  0  0
  -31.0857  -14.2070   24.8213 C   0  0  0  0  0  0  0  0  0  0  0  0
  -26.3536  -15.6967   25.5928 C   0  0  0  0  0  0  0  0  0  0  0  0
  -26.5324  -16.9944   26.3922 C   0  0  0  0  0  0  0  0  0  0  0  0
  -24.8593  -12.8428   26.4060 C   0  0  0  0  0  0  0  0  0  0  0  0
  -31.5377  -13.0034   23.9875 C   0  0  0  0  0  0  0  0  0  0  0  0
  -28.9280  -16.1009   24.3314 C   0  0  0  0  0  0  0  0  0  0  0  0
  -20.5083  -19.4628   26.9414 C   0  0  1  0  0  0  0  0  0  0  0  0
  -19.8388  -19.4417   30.6725 C   0  0  2  0  0  0  0  0  0  0  0  0
  -23.4805  -12.6861   27.0589 C   0  0  1  0  0  0  0  0  0  1  0  0
  -21.1337  -20.7087   26.2530 C   0  0  0  0  0  0  0  0  0  0  0  0
  -25.8716  -11.5661   20.6011 N   0  0  0  0  0  0  0  0  0  0  0  0
  -26.2551  -12.8444   20.4438 N   0  0  0  0  0  0  0  0  0  0  0  0
  -19.4596  -17.5811   25.7235 N   0  0  0  0  0  0  0  0  0  0  0  0
  -30.0549  -12.4694   20.6149 N   0  0  0  0  0  0  0  0  0  0  0  0
  -25.4426  -15.0691   20.4054 N   0  0  0  0  0  0  0  0  0  0  0  0
  -21.7297  -12.6169   21.1785 N   0  0  0  0  0  0  0  0  0  0  0  0
  -18.1233  -16.8346   22.4139 N   0  0  0  0  0  0  0  0  0  0  0  0
  -20.0235  -19.7085   28.2953 N   0  0  0  0  0  0  0  0  0  0  0  0
  -30.6333  -12.7269   22.8936 N   0  0  0  0  0  0  0  0  0  0  0  0
  -19.6890  -18.2864   31.6019 N   0  3  0  0  0  0  0  0  0  0  0  0
  -22.5250  -14.7463   20.8750 O   0  0  0  0  0  0  0  0  0  0  0  0
  -20.1164  -17.6959   23.2554 O   0  0  0  0  0  0  0  0  0  0  0  0
  -18.3485  -19.6157   25.9728 O   0  0  0  0  0  0  0  0  0  0  0  0
  -21.3419  -18.1071   29.3320 O   0  0  0  0  0  0  0  0  0  0  0  0
  -32.2151  -13.0142   21.2589 O   0  0  0  0  0  0  0  0  0  0  0  0
  -21.4827   -7.0705   21.6384 O   0  0  0  0  0  0  0  0  0  0  0  0
  -22.5423  -12.2495   26.0763 O   0  0  0  0  0  0  0  0  0  1  0  0
  -23.4514   -3.2695   25.1140 F   0  0  0  0  0  0  0  0  0  0  0  0
  -20.0670   -6.3482   23.9005 F   0  0  0  0  0  0  0  0  0  0  0  0
  1  2  1  0  0  0  0
  1  5  2  0  0  0  0
  2  6  2  0  0  0  0
  3 10  2  0  0  0  0
  3 17  1  0  0  0  0
  4 11  1  0  0  0  0
  4 17  2  0  0  0  0
  5 19  1  0  0  0  0
  6 21  1  0  0  0  0
  7 12  2  0  0  0  0
  7 20  1  0  0  0  0
  8  9  1  0  0  0  0
  8 23  2  0  0  0  0
  9 24  2  0  0  0  0
 10 27  1  0  0  0  0
 11 27  2  0  0  0  0
 12 28  1  0  0  0  0
 13 14  2  0  0  0  0
 13 29  1  0  0  0  0
 14 30  1  0  0  0  0
 15 22  1  0  0  0  0
 15 28  2  0  0  0  0
 16 30  2  0  0  0  0
 16 31  1  0  0  0  0
 17 32  1  0  0  0  0
 18 32  1  0  0  0  0
 18 33  2  0  0  0  0
 18 34  1  0  0  0  0
 19 21  2  0  0  0  0
 19 39  1  0  0  0  0
 20 22  2  0  0  0  0
 20 40  1  0  0  0  0
 21 48  1  0  0  0  0
 22 41  1  0  0  0  0
 23 25  1  0  0  0  0
 23 60  1  0  0  0  0
 24 26  1  0  0  0  0
 24 61  1  0  0  0  0
 25 26  2  0  0  0  0
 25 62  1  0  0  0  0
 26 66  1  0  0  0  0
 27 86  1  0  0  0  0
 28 87  1  0  0  0  0
 29 31  2  0  0  0  0
 29 86  1  0  0  0  0
 30 88  1  0  0  0  0
 31 89  1  0  0  0  0
 32 71  2  0  0  0  0
 33 72  1  0  0  0  0
 33 75  1  0  0  0  0
 34 76  1  0  0  0  0
 34 81  2  0  0  0  0
 35 49  1  0  0  0  0
 35 77  1  0  0  0  0
 35 82  2  0  0  0  0
 36 67  1  0  0  0  0
 36 73  1  0  0  0  0
 36 83  2  0  0  0  0
 37 68  1  0  0  0  0
 37 78  1  0  0  0  0
 37 84  2  0  0  0  0
 38 74  1  0  0  0  0
 38 79  1  0  0  0  0
 38 85  2  0  0  0  0
 39 42  1  0  0  0  0
 40 49  1  0  0  0  0
 41 73  1  0  0  0  0
 42 44  1  0  0  0  0
 43 45  1  0  0  0  0
 43 46  1  0  0  0  0
 44 48  1  0  0  0  0
 45 50  1  0  0  0  0
 46 74  1  0  0  0  0
 47 50  1  0  0  0  0
 47 74  1  0  0  0  0
 48 77  1  0  0  0  0
 49 73  1  0  0  0  0
 50 72  1  0  0  0  0
 51 63  1  0  0  0  0
 52 66  1  0  0  0  0
 53 66  1  0  0  0  0
 54 68  1  0  0  0  0
 55 69  1  0  0  0  0
 56 70  1  0  0  0  0
 57 70  1  0  0  0  0
 58 70  1  0  0  0  0
 59 80  1  0  0  0  0
 60 64  1  0  0  0  0
 61 65  1  0  0  0  0
 62 63  1  0  0  0  0
 64 69  1  0  0  0  0
 65 79  1  0  0  0  0
 67 70  1  0  0  0  0
 67 78  1  0  0  0  0
 68 80  1  0  0  0  0
 69 87  1  0  0  0  0
 71 72  1  0  0  0  0
M  CHG  1  80   1
M  ISO  4  38 100  69 101  79 100  87 101
M  END
> <Batch ID>
0093

> <Smiles>
CCCc1c(CC[101CH:1](C)[101O:1]c2ccc3c(c2)CN(C(=O)C(NC(=O)C(C)NC)C(C)(C)C)C(C(=O)NC2CCCc4ccccc42)C3)ccc(CC[100NH:0][100C:0](=O)N2CCCC(n3nc(-c4ccc(Oc5ccc(F)cc5F)cc4)c(C(N)=O)c3N)C2)c1C(C)C

> <Shape>
0.141

> <Color>
0.182

> <Negative vol penalty>
0.000

$$$$

  -OEChem-04052319163D

 85 93  0     1  0  0  0  0  0999 V2000
  -19.8177  -15.2542   25.2941 C   0  0  0  0  0  0  0  0  0  0  0  0
  -21.1907  -15.1375   25.4859 C   0  0  0  0  0  0  0  0  0  0  0  0
  -23.2880   -9.7990   19.9131 C   0  0  0  0  0  0  0  0  0  0  0  0
  -23.7389   -9.9390   22.2826 C   0  0  0  0  0  0  0  0  0  0  0  0
  -18.9552  -15.2024   26.3883 C   0  0  0  0  0  0  0  0  0  0  0  0
  -21.7020  -14.9700   26.7723 C   0  0  0  0  0  0  0  0  0  0  0  0
  -25.2667  -11.3799   26.9937 C   0  0  0  0  0  0  0  0  0  0  0  0
  -22.5616   -8.6265   20.1206 C   0  0  0  0  0  0  0  0  0  0  0  0
  -23.0124   -8.7665   22.4901 C   0  0  0  0  0  0  0  0  0  0  0  0
  -26.5405  -11.7185   26.5393 C   0  0  0  0  0  0  0  0  0  0  0  0
  -19.7653   -7.8556   22.7073 C   0  0  0  0  0  0  0  0  0  0  0  0
  -18.8630   -7.8337   23.7707 C   0  0  0  0  0  0  0  0  0  0  0  0
  -27.2582  -12.0520   28.8181 C   0  0  0  0  0  0  0  0  0  0  0  0
  -28.5823  -15.4805   25.8374 C   0  0  0  0  0  0  0  0  0  0  0  0
  -20.0687   -5.9861   24.7557 C   0  0  0  0  0  0  0  0  0  0  0  0
  -29.5270  -15.8267   23.8231 C   0  0  0  0  0  0  0  0  0  0  0  0
  -23.8767  -10.4552   20.9941 C   0  0  0  0  0  0  0  0  0  0  0  0
  -24.1363  -12.9853   20.7961 C   0  0  0  0  0  0  0  0  0  0  0  0
  -19.4556  -15.0245   27.6878 C   0  0  0  0  0  0  0  0  0  0  0  0
  -24.9756  -11.3854   28.3655 C   0  0  0  0  0  0  0  0  0  0  0  0
  -20.8455  -14.9171   27.8851 C   0  0  0  0  0  0  0  0  0  0  0  0
  -25.9807  -11.7106   29.2875 C   0  0  0  0  0  0  0  0  0  0  0  0
  -28.4000  -16.0881   24.5707 C   0  0  0  0  0  0  0  0  0  0  0  0
  -22.4237   -8.1102   21.4091 C   0  0  0  0  0  0  0  0  0  0  0  0
  -27.5357  -12.0574   27.4513 C   0  0  0  0  0  0  0  0  0  0  0  0
  -20.8193   -6.9427   22.6680 C   0  0  0  0  0  0  0  0  0  0  0  0
  -19.0147   -6.8990   24.7949 C   0  0  0  0  0  0  0  0  0  0  0  0
  -20.9710   -6.0080   23.6922 C   0  0  0  0  0  0  0  0  0  0  0  0
  -24.6277  -11.6662   20.7803 C   0  0  0  0  0  0  0  0  0  0  0  0
  -29.8152  -14.8664   25.8255 C   0  0  0  0  0  0  0  0  0  0  0  0
  -25.2378  -13.7652   20.5413 C   0  0  0  0  0  0  0  0  0  0  0  0
  -22.8033  -13.4629   21.0211 C   0  0  0  0  0  0  0  0  0  0  0  0
  -22.9664  -12.9998   30.2257 C   0  0  0  0  0  0  0  0  0  0  0  0
  -24.0509  -10.9606   32.5034 C   0  0  0  0  0  0  0  0  0  0  0  0
  -26.5349   -8.8889   33.5920 C   0  0  0  0  0  0  0  0  0  0  0  0
  -31.1088  -12.9216   21.3605 C   0  0  0  0  0  0  0  0  0  0  0  0
  -18.4876  -15.0221   28.8443 C   0  0  0  0  0  0  0  0  0  0  0  0
  -23.6040  -10.9917   28.8411 C   0  0  0  0  0  0  0  0  0  0  0  0
  -25.7250  -11.7119   30.7718 C   0  0  0  0  0  0  0  0  0  0  0  0
  -19.0829  -14.4667   30.1356 C   0  0  0  0  0  0  0  0  0  0  0  0
  -29.4598  -13.6618   18.2930 C   0  0  0  0  0  0  0  0  0  0  0  0
  -20.4612  -15.0684   30.3901 C   0  0  0  0  0  0  0  0  0  0  0  0
  -27.9901  -13.3533   18.5841 C   0  0  0  0  0  0  0  0  0  0  0  0
  -30.3930  -12.6822   19.0011 C   0  0  0  0  0  0  0  0  0  0  0  0
  -28.7064  -12.2525   20.7459 C   0  0  0  0  0  0  0  0  0  0  0  0
  -21.4366  -14.7095   29.2626 C   0  0  1  0  0  0  0  0  0  0  0  0
  -23.2762  -11.5295   30.2306 C   0  0  1  0  0  0  0  0  0  0  0  0
  -27.7285  -13.2479   20.0986 C   0  0  2  0  0  0  0  0  0  0  0  0
  -31.4241  -14.9710   27.7573 C   0  0  0  0  0  0  0  0  0  0  0  0
  -27.1516   -7.3900   35.5078 C   0  0  0  0  0  0  0  0  0  0  0  0
  -26.9751  -18.1123   25.0375 C   0  0  0  0  0  0  0  0  0  0  0  0
  -25.9132  -15.9982   24.1779 C   0  0  0  0  0  0  0  0  0  0  0  0
  -27.2769  -17.4260   22.6669 C   0  0  0  0  0  0  0  0  0  0  0  0
  -24.7114  -13.4076   34.2022 C   0  0  0  0  0  0  0  0  0  0  0  0
  -26.1525  -11.9407   35.6303 C   0  0  0  0  0  0  0  0  0  0  0  0
  -23.7025  -11.5007   35.4674 C   0  0  0  0  0  0  0  0  0  0  0  0
  -26.6655   -6.5082   31.8387 C   0  0  0  0  0  0  0  0  0  0  0  0
  -31.6767  -14.6091   24.1635 C   0  0  0  0  0  0  0  0  0  0  0  0
  -31.6707  -13.1347   23.7684 C   0  0  0  0  0  0  0  0  0  0  0  0
  -29.5255  -13.3114   27.8036 C   0  0  0  0  0  0  0  0  0  1  0  0
  -30.5190  -14.0698   26.9129 C   0  0  1  0  0  0  0  0  0  0  0  0
  -25.1907  -10.9717   33.4932 C   0  0  1  0  0  0  0  0  0  0  0  0
  -26.4987   -7.4725   34.1368 C   0  0  2  0  0  0  0  0  0  0  0  0
  -27.2210  -16.8587   24.1317 C   0  0  0  0  0  0  0  0  0  0  0  0
  -24.9439  -11.9571   34.6703 C   0  0  0  0  0  0  0  0  0  0  0  0
  -25.9393  -11.6075   20.5347 N   0  0  0  0  0  0  0  0  0  0  0  0
  -30.3806  -15.0837   24.5961 N   0  0  0  0  0  0  0  0  0  0  0  0
  -26.2814  -12.8995   20.3938 N   0  0  0  0  0  0  0  0  0  0  0  0
  -24.3662  -11.3260   31.1870 N   0  0  0  0  0  0  0  0  0  0  0  0
  -30.0938  -12.6305   20.4342 N   0  0  0  0  0  0  0  0  0  0  0  0
  -25.4058  -15.1001   20.4312 N   0  0  0  0  0  0  0  0  0  0  0  0
  -21.7906  -12.5260   21.2684 N   0  0  0  0  0  0  0  0  0  0  0  0
  -21.9044  -13.3482   29.4132 N   0  0  0  0  0  0  0  0  0  0  0  0
  -25.3872   -9.5860   33.9052 N   0  0  0  0  0  0  0  0  0  0  0  0
  -30.7391  -12.8557   22.6983 N   0  0  0  0  0  0  0  0  0  0  0  0
  -27.2173   -6.5454   33.2175 N   0  3  0  0  0  0  0  0  0  0  0  0
  -22.5155  -14.6834   20.9871 O   0  0  0  0  0  0  0  0  0  0  0  0
  -23.6400  -13.7614   30.9097 O   0  0  0  0  0  0  0  0  0  0  0  0
  -22.9239  -10.6326   32.8826 O   0  0  0  0  0  0  0  0  0  0  0  0
  -27.4877   -9.3338   32.9558 O   0  0  0  0  0  0  0  0  0  0  0  0
  -32.2578  -13.2234   21.0204 O   0  0  0  0  0  0  0  0  0  0  0  0
  -21.7148   -6.9662   21.6119 O   0  0  0  0  0  0  0  0  0  0  0  0
  -28.7797  -12.3890   27.0104 O   0  0  0  0  0  0  0  0  0  1  0  0
  -18.1490   -6.8791   25.8169 F   0  0  0  0  0  0  0  0  0  0  0  0
  -21.9822   -5.1293   23.6606 F   0  0  0  0  0  0  0  0  0  0  0  0
  1  2  1  0  0  0  0
  1  5  2  0  0  0  0
  2  6  2  0  0  0  0
  3  8  2  0  0  0  0
  3 17  1  0  0  0  0
  4  9  1  0  0  0  0
  4 17  2  0  0  0  0
  5 19  1  0  0  0  0
  6 21  1  0  0  0  0
  7 10  2  0  0  0  0
  7 20  1  0  0  0  0
  8 24  1  0  0  0  0
  9 24  2  0  0  0  0
 10 25  1  0  0  0  0
 11 12  2  0  0  0  0
 11 26  1  0  0  0  0
 12 27  1  0  0  0  0
 13 22  1  0  0  0  0
 13 25  2  0  0  0  0
 14 23  1  0  0  0  0
 14 30  2  0  0  0  0
 15 27  2  0  0  0  0
 15 28  1  0  0  0  0
 16 23  2  0  0  0  0
 16 67  1  0  0  0  0
 17 29  1  0  0  0  0
 18 29  1  0  0  0  0
 18 31  2  0  0  0  0
 18 32  1  0  0  0  0
 19 21  2  0  0  0  0
 19 37  1  0  0  0  0
 20 22  2  0  0  0  0
 20 38  1  0  0  0  0
 21 46  1  0  0  0  0
 22 39  1  0  0  0  0
 23 64  1  0  0  0  0
 24 82  1  0  0  0  0
 25 83  1  0  0  0  0
 26 28  2  0  0  0  0
 26 82  1  0  0  0  0
 27 84  1  0  0  0  0
 28 85  1  0  0  0  0
 29 66  2  0  0  0  0
 30 61  1  0  0  0  0
 30 67  1  0  0  0  0
 31 68  1  0  0  0  0
 31 71  1  0  0  0  0
 32 72  1  0  0  0  0
 32 77  2  0  0  0  0
 33 47  1  0  0  0  0
 33 73  1  0  0  0  0
 33 78  2  0  0  0  0
 34 62  1  0  0  0  0
 34 69  1  0  0  0  0
 34 79  2  0  0  0  0
 35 63  1  0  0  0  0
 35 74  1  0  0  0  0
 35 80  2  0  0  0  0
 36 70  1  0  0  0  0
 36 75  1  0  0  0  0
 36 81  2  0  0  0  0
 37 40  1  0  0  0  0
 38 47  1  0  0  0  0
 39 69  1  0  0  0  0
 40 42  1  0  0  0  0
 41 43  1  0  0  0  0
 41 44  1  0  0  0  0
 42 46  1  0  0  0  0
 43 48  1  0  0  0  0
 44 70  1  0  0  0  0
 45 48  1  0  0  0  0
 45 70  1  0  0  0  0
 46 73  1  0  0  0  0
 47 69  1  0  0  0  0
 48 68  1  0  0  0  0
 49 61  1  0  0  0  0
 50 63  1  0  0  0  0
 51 64  1  0  0  0  0
 52 64  1  0  0  0  0
 53 64  1  0  0  0  0
 54 65  1  0  0  0  0
 55 65  1  0  0  0  0
 56 65  1  0  0  0  0
 57 76  1  0  0  0  0
 58 59  1  0  0  0  0
 58 67  1  0  0  0  0
 59 75  1  0  0  0  0
 60 61  1  0  0  0  0
 60 83  1  0  0  0  0
 62 65  1  0  0  0  0
 62 74  1  0  0  0  0
 63 76  1  0  0  0  0
 66 68  1  0  0  0  0
M  CHG  1  76   1
M  ISO  4  36 100  60 101  75 100  83 101
M  END
> <Batch ID>
0093

> <Smiles>
CNC(C)C(=O)NC(C(=O)N1Cc2cc([101O:1][101CH2:1]C(C)c3cc(C(C)(C)C)cn3CC[100NH:0][100C:0](=O)N3CCCC(n4nc(-c5ccc(Oc6ccc(F)cc6F)cc5)c(C(N)=O)c4N)C3)ccc2CC1C(=O)NC1CCCc2ccccc21)C(C)(C)C

> <Shape>
0.136

> <Color>
0.174

> <Negative vol penalty>
0.000

$$$$

  -OEChem-04052319163D

 84 92  0     1  0  0  0  0  0999 V2000
  -24.3990  -35.5129   22.4141 C   0  0  0  0  0  0  0  0  0  0  0  0
  -25.2222  -34.3996   22.2786 C   0  0  0  0  0  0  0  0  0  0  0  0
  -24.7849  -11.6705   20.3337 C   0  0  0  0  0  0  0  0  0  0  0  0
  -25.3273  -12.4420   22.5580 C   0  0  0  0  0  0  0  0  0  0  0  0
  -23.1296  -35.3758   22.9741 C   0  0  0  0  0  0  0  0  0  0  0  0
  -24.7766  -33.1486   22.7039 C   0  0  0  0  0  0  0  0  0  0  0  0
  -25.7783  -29.4869   19.3523 C   0  0  0  0  0  0  0  0  0  0  0  0
  -25.1286  -10.3696   20.7011 C   0  0  0  0  0  0  0  0  0  0  0  0
  -25.6709  -11.1410   22.9254 C   0  0  0  0  0  0  0  0  0  0  0  0
  -27.0842  -29.0002   19.3123 C   0  0  0  0  0  0  0  0  0  0  0  0
  -25.5193   -6.7844   21.1582 C   0  0  0  0  0  0  0  0  0  0  0  0
  -24.6606   -5.7541   20.7753 C   0  0  0  0  0  0  0  0  0  0  0  0
  -26.4091  -27.0975   20.6326 C   0  0  0  0  0  0  0  0  0  0  0  0
  -22.8694   -6.7807   22.0302 C   0  0  0  0  0  0  0  0  0  0  0  0
  -31.9852  -23.0053   18.2053 C   0  0  0  0  0  0  0  0  0  0  0  0
  -30.9555  -23.2029   20.1840 C   0  0  0  0  0  0  0  0  0  0  0  0
  -24.8844  -12.7068   21.2621 C   0  0  0  0  0  0  0  0  0  0  0  0
  -23.2629  -14.6562   20.9823 C   0  0  0  0  0  0  0  0  0  0  0  0
  -22.6645  -34.1208   23.3976 C   0  0  0  0  0  0  0  0  0  0  0  0
  -24.7787  -28.7869   20.0431 C   0  0  0  0  0  0  0  0  0  0  0  0
  -23.5002  -32.9948   23.2713 C   0  0  0  0  0  0  0  0  0  0  0  0
  -25.0908  -27.5761   20.6777 C   0  0  0  0  0  0  0  0  0  0  0  0
  -31.2635  -21.8502   18.4105 C   0  0  0  0  0  0  0  0  0  0  0  0
  -30.6121  -21.9751   19.6624 C   0  0  0  0  0  0  0  0  0  0  0  0
  -25.5716  -10.1048   21.9969 C   0  0  0  0  0  0  0  0  0  0  0  0
  -27.4004  -27.8068   19.9549 C   0  0  0  0  0  0  0  0  0  0  0  0
  -25.0531   -7.8128   21.9772 C   0  0  0  0  0  0  0  0  0  0  0  0
  -23.3356   -5.7523   21.2113 C   0  0  0  0  0  0  0  0  0  0  0  0
  -23.7282   -7.8110   22.4132 C   0  0  0  0  0  0  0  0  0  0  0  0
  -24.5301  -14.0510   20.8830 C   0  0  0  0  0  0  0  0  0  0  0  0
  -23.4505  -15.9272   20.4966 C   0  0  0  0  0  0  0  0  0  0  0  0
  -22.0269  -14.1177   21.4700 C   0  0  0  0  0  0  0  0  0  0  0  0
  -22.9039  -29.4245   22.5296 C   0  0  0  0  0  0  0  0  0  0  0  0
  -27.4478  -20.0294   20.6003 C   0  0  0  0  0  0  0  0  0  0  0  0
  -21.5562  -26.5797   21.7465 C   0  0  0  0  0  0  0  0  0  0  0  0
  -21.8829  -23.5373   20.2352 C   0  0  0  0  0  0  0  0  0  0  0  0
  -21.3031  -34.0302   24.0403 C   0  0  0  0  0  0  0  0  0  0  0  0
  -23.3691  -29.3116   20.0544 C   0  0  0  0  0  0  0  0  0  0  0  0
  -24.0497  -26.7762   21.4158 C   0  0  0  0  0  0  0  0  0  0  0  0
  -20.7618  -32.6052   24.1220 C   0  0  0  0  0  0  0  0  0  0  0  0
  -26.7955  -18.0984   17.5882 C   0  0  0  0  0  0  0  0  0  0  0  0
  -21.8357  -31.6552   24.6426 C   0  0  0  0  0  0  0  0  0  0  0  0
  -26.0438  -16.8942   18.1539 C   0  0  0  0  0  0  0  0  0  0  0  0
  -27.8747  -18.5888   18.5499 C   0  0  0  0  0  0  0  0  0  0  0  0
  -26.6116  -17.7037   20.4853 C   0  0  0  0  0  0  0  0  0  0  0  0
  -23.0431  -31.6167   23.6981 C   0  0  1  0  0  0  0  0  0  0  0  0
  -22.5428  -28.7797   21.2213 C   0  0  1  0  0  0  0  0  0  0  0  0
  -25.4937  -17.1972   19.5586 C   0  0  2  0  0  0  0  0  0  0  0  0
  -31.1889  -20.7005   17.4873 C   0  0  0  0  0  0  0  0  0  0  0  0
  -26.1906  -22.6590   20.0709 C   0  0  0  0  0  0  0  0  0  0  0  0
  -20.6235  -21.4124   19.7922 C   0  0  0  0  0  0  0  0  0  0  0  0
  -22.0089  -25.7118   24.6365 C   0  0  0  0  0  0  0  0  0  0  0  0
  -21.6330  -23.3451   23.9113 C   0  0  0  0  0  0  0  0  0  0  0  0
  -19.8048  -25.0257   23.6742 C   0  0  0  0  0  0  0  0  0  0  0  0
  -22.0526  -23.9112   17.3042 C   0  0  0  0  0  0  0  0  0  0  0  0
  -29.7272  -20.9808   20.3006 C   0  0  0  0  0  0  0  0  0  0  0  0
  -27.6724  -22.4958   20.3857 C   0  0  0  0  0  0  0  0  0  0  0  0
  -31.3691  -26.2991   19.7043 C   0  0  0  0  0  0  0  0  0  0  0  0
  -30.4385  -26.5144   18.5098 C   0  0  0  0  0  0  0  0  0  0  0  0
  -32.3991  -25.1883   19.4699 C   0  0  0  0  0  0  0  0  0  0  0  0
  -29.4535  -27.6473   18.7653 C   0  0  0  0  0  0  0  0  0  1  0  0
  -28.2267  -21.1363   19.9355 C   0  0  2  0  0  0  0  0  0  0  0  0
  -21.8014  -25.1396   22.1274 C   0  0  1  0  0  0  0  0  0  0  0  0
  -20.9835  -22.7928   19.2650 C   0  0  2  0  0  0  0  0  0  0  0  0
  -21.3323  -24.8214   23.5752 C   0  0  0  0  0  0  0  0  0  0  0  0
  -25.4543  -14.8700   20.3741 N   0  0  0  0  0  0  0  0  0  0  0  0
  -31.7902  -23.8205   19.2896 N   0  0  0  0  0  0  0  0  0  0  0  0
  -24.7672  -16.0029   20.1492 N   0  0  0  0  0  0  0  0  0  0  0  0
  -22.6872  -27.3340   21.4035 N   0  0  0  0  0  0  0  0  0  0  0  0
  -27.3158  -18.8397   19.8837 N   0  0  0  0  0  0  0  0  0  0  0  0
  -22.6160  -16.9762   20.3370 N   0  0  0  0  0  0  0  0  0  0  0  0
  -22.0106  -12.7946   21.9320 N   0  0  0  0  0  0  0  0  0  0  0  0
  -22.7534  -30.7980   22.5404 N   0  0  0  0  0  0  0  0  0  0  0  0
  -21.1570  -24.3300   21.0989 N   0  0  0  0  0  0  0  0  0  0  0  0
  -21.6632  -22.6306   17.9488 N   0  3  0  0  0  0  0  0  0  0  0  0
  -20.9645  -14.7846   21.4800 O   0  0  0  0  0  0  0  0  0  0  0  0
  -23.2892  -28.7272   23.4608 O   0  0  0  0  0  0  0  0  0  0  0  0
  -26.9693  -20.2193   21.7215 O   0  0  0  0  0  0  0  0  0  0  0  0
  -20.4028  -27.0172   21.7462 O   0  0  0  0  0  0  0  0  0  0  0  0
  -23.1067  -23.4240   20.2298 O   0  0  0  0  0  0  0  0  0  0  0  0
  -25.9067   -8.8354   22.3559 O   0  0  0  0  0  0  0  0  0  0  0  0
  -28.6744  -27.3298   19.9179 O   0  0  0  0  0  0  0  0  0  1  0  0
  -22.5106   -4.7636   20.8422 F   0  0  0  0  0  0  0  0  0  0  0  0
  -23.2742   -8.7969   23.1991 F   0  0  0  0  0  0  0  0  0  0  0  0
  1  2  1  0  0  0  0
  1  5  2  0  0  0  0
  2  6  2  0  0  0  0
  3  8  2  0  0  0  0
  3 17  1  0  0  0  0
  4  9  1  0  0  0  0
  4 17  2  0  0  0  0
  5 19  1  0  0  0  0
  6 21  1  0  0  0  0
  7 10  2  0  0  0  0
  7 20  1  0  0  0  0
  8 25  1  0  0  0  0
  9 25  2  0  0  0  0
 10 26  1  0  0  0  0
 11 12  2  0  0  0  0
 11 27  1  0  0  0  0
 12 28  1  0  0  0  0
 13 22  1  0  0  0  0
 13 26  2  0  0  0  0
 14 28  2  0  0  0  0
 14 29  1  0  0  0  0
 15 23  2  0  0  0  0
 15 67  1  0  0  0  0
 16 24  2  0  0  0  0
 16 67  1  0  0  0  0
 17 30  1  0  0  0  0
 18 30  1  0  0  0  0
 18 31  2  0  0  0  0
 18 32  1  0  0  0  0
 19 21  2  0  0  0  0
 19 37  1  0  0  0  0
 20 22  2  0  0  0  0
 20 38  1  0  0  0  0
 21 46  1  0  0  0  0
 22 39  1  0  0  0  0
 23 24  1  0  0  0  0
 23 49  1  0  0  0  0
 24 56  1  0  0  0  0
 25 81  1  0  0  0  0
 26 82  1  0  0  0  0
 27 29  2  0  0  0  0
 27 81  1  0  0  0  0
 28 83  1  0  0  0  0
 29 84  1  0  0  0  0
 30 66  2  0  0  0  0
 31 68  1  0  0  0  0
 31 71  1  0  0  0  0
 32 72  1  0  0  0  0
 32 76  2  0  0  0  0
 33 47  1  0  0  0  0
 33 73  1  0  0  0  0
 33 77  2  0  0  0  0
 34 62  1  0  0  0  0
 34 70  1  0  0  0  0
 34 78  2  0  0  0  0
 35 63  1  0  0  0  0
 35 69  1  0  0  0  0
 35 79  2  0  0  0  0
 36 64  1  0  0  0  0
 36 74  1  0  0  0  0
 36 80  2  0  0  0  0
 37 40  1  0  0  0  0
 38 47  1  0  0  0  0
 39 69  1  0  0  0  0
 40 42  1  0  0  0  0
 41 43  1  0  0  0  0
 41 44  1  0  0  0  0
 42 46  1  0  0  0  0
 43 48  1  0  0  0  0
 44 70  1  0  0  0  0
 45 48  1  0  0  0  0
 45 70  1  0  0  0  0
 46 73  1  0  0  0  0
 47 69  1  0  0  0  0
 48 68  1  0  0  0  0
 50 57  1  0  0  0  0
 51 64  1  0  0  0  0
 52 65  1  0  0  0  0
 53 65  1  0  0  0  0
 54 65  1  0  0  0  0
 55 75  1  0  0  0  0
 56 62  1  0  0  0  0
 57 62  1  0  0  0  0
 58 59  1  0  0  0  0
 58 60  1  0  0  0  0
 59 61  1  0  0  0  0
 60 67  1  0  0  0  0
 61 82  1  0  0  0  0
 63 65  1  0  0  0  0
 63 74  1  0  0  0  0
 64 75  1  0  0  0  0
 66 68  1  0  0  0  0
M  CHG  1  75   1
M  ISO  4  34 100  61 101  62 100  82 101
M  END
> <Batch ID>
0093

> <Smiles>
CC[100CH:0](Cc1cn(CCC[101CH2:1][101O:1]c2ccc3c(c2)CN(C(=O)C(NC(=O)C(C)NC)C(C)(C)C)C(C(=O)NC2CCCc4ccccc42)C3)cc1C)[100C:0](=O)N1CCCC(n2nc(-c3ccc(Oc4ccc(F)cc4F)cc3)c(C(N)=O)c2N)C1

> <Shape>
0.240

> <Color>
0.094

> <Negative vol penalty>
0.000

$$$$

  -OEChem-04052319163D

 84 92  0     1  0  0  0  0  0999 V2000
  -18.0969  -24.2476   21.5663 C   0  0  0  0  0  0  0  0  0  0  0  0
  -19.4601  -24.0223   21.4042 C   0  0  0  0  0  0  0  0  0  0  0  0
  -22.0596  -11.1406   22.3258 C   0  0  0  0  0  0  0  0  0  0  0  0
  -21.6107  -11.1649   19.9520 C   0  0  0  0  0  0  0  0  0  0  0  0
  -17.6451  -25.4878   22.0152 C   0  0  0  0  0  0  0  0  0  0  0  0
  -20.3723  -25.0375   21.6900 C   0  0  0  0  0  0  0  0  0  0  0  0
  -24.3451  -23.3846   24.3602 C   0  0  0  0  0  0  0  0  0  0  0  0
  -21.3935   -9.9203   22.4393 C   0  0  0  0  0  0  0  0  0  0  0  0
  -20.9446   -9.9446   20.0655 C   0  0  0  0  0  0  0  0  0  0  0  0
  -25.3388  -22.6977   23.6641 C   0  0  0  0  0  0  0  0  0  0  0  0
  -20.1245   -6.6225   23.2931 C   0  0  0  0  0  0  0  0  0  0  0  0
  -20.7262   -5.6240   24.0589 C   0  0  0  0  0  0  0  0  0  0  0  0
  -26.6788  -24.7028   23.6103 C   0  0  0  0  0  0  0  0  0  0  0  0
  -26.7643  -20.1327   18.4998 C   0  0  0  0  0  0  0  0  0  0  0  0
  -22.6482   -5.6598   22.5954 C   0  0  0  0  0  0  0  0  0  0  0  0
  -25.5484  -22.1283   18.9424 C   0  0  0  0  0  0  0  0  0  0  0  0
  -22.1681  -11.7629   21.0822 C   0  0  0  0  0  0  0  0  0  0  0  0
  -24.2250  -13.2246   20.7073 C   0  0  0  0  0  0  0  0  0  0  0  0
  -18.5527  -26.5156   22.3159 C   0  0  0  0  0  0  0  0  0  0  0  0
  -24.5064  -24.7410   24.6775 C   0  0  0  0  0  0  0  0  0  0  0  0
  -19.9321  -26.2931   22.1421 C   0  0  0  0  0  0  0  0  0  0  0  0
  -25.6868  -25.4040   24.3127 C   0  0  0  0  0  0  0  0  0  0  0  0
  -25.5997  -20.8772   18.3492 C   0  0  0  0  0  0  0  0  0  0  0  0
  -27.8271  -20.6547   19.2287 C   0  0  0  0  0  0  0  0  0  0  0  0
  -20.8360   -9.3223   21.3092 C   0  0  0  0  0  0  0  0  0  0  0  0
  -26.5046  -23.3575   23.2865 C   0  0  0  0  0  0  0  0  0  0  0  0
  -20.7846   -7.1396   22.1783 C   0  0  0  0  0  0  0  0  0  0  0  0
  -21.9880   -5.1427   23.7101 C   0  0  0  0  0  0  0  0  0  0  0  0
  -22.0464   -6.6583   21.8296 C   0  0  0  0  0  0  0  0  0  0  0  0
  -22.8556  -13.0238   20.9644 C   0  0  0  0  0  0  0  0  0  0  0  0
  -27.6762  -21.9159   19.7824 C   0  0  0  0  0  0  0  0  0  0  0  0
  -24.3749  -14.5898   20.6921 C   0  0  0  0  0  0  0  0  0  0  0  0
  -25.2683  -12.2630   20.5005 C   0  0  0  0  0  0  0  0  0  0  0  0
  -22.9607  -27.4175   23.9355 C   0  0  0  0  0  0  0  0  0  0  0  0
  -25.0195  -28.7364   26.0672 C   0  0  0  0  0  0  0  0  0  0  0  0
  -28.0156  -28.5595   27.6917 C   0  0  0  0  0  0  0  0  0  0  0  0
  -22.6396  -19.6592   19.1319 C   0  0  0  0  0  0  0  0  0  0  0  0
  -18.0141  -27.8548   22.7531 C   0  0  0  0  0  0  0  0  0  0  0  0
  -23.4367  -25.4607   25.4522 C   0  0  0  0  0  0  0  0  0  0  0  0
  -25.9175  -26.8543   24.6471 C   0  0  0  0  0  0  0  0  0  0  0  0
  -19.0678  -28.7560   23.3918 C   0  0  0  0  0  0  0  0  0  0  0  0
  -21.1869  -18.2675   22.0694 C   0  0  0  0  0  0  0  0  0  0  0  0
  -20.3421  -28.7646   22.5534 C   0  0  0  0  0  0  0  0  0  0  0  0
  -21.5991  -16.7952   22.0191 C   0  0  0  0  0  0  0  0  0  0  0  0
  -20.8941  -18.8195   20.6760 C   0  0  0  0  0  0  0  0  0  0  0  0
  -22.3893  -17.1548   19.6432 C   0  0  0  0  0  0  0  0  0  0  0  0
  -20.9541  -27.3613   22.4654 C   0  0  1  0  0  0  0  0  0  0  0  0
  -23.4850  -26.9749   25.2722 C   0  0  1  0  0  0  0  0  0  0  0  0
  -22.7490  -16.5688   21.0192 C   0  0  2  0  0  0  0  0  0  0  0  0
  -29.7767  -19.5728   18.0529 C   0  0  0  0  0  0  0  0  0  0  0  0
  -28.8422  -18.5414   20.1549 C   0  0  0  0  0  0  0  0  0  0  0  0
  -29.7761  -23.2986   19.6814 C   0  0  0  0  0  0  0  0  0  0  0  0
  -29.4366  -29.8028   29.3446 C   0  0  0  0  0  0  0  0  0  0  0  0
  -25.7873  -30.7390   23.8970 C   0  0  0  0  0  0  0  0  0  0  0  0
  -27.8198  -31.3116   25.2421 C   0  0  0  0  0  0  0  0  0  0  0  0
  -25.5467  -31.7208   26.1846 C   0  0  0  0  0  0  0  0  0  0  0  0
  -27.9598  -26.3064   29.6100 C   0  0  0  0  0  0  0  0  0  0  0  0
  -24.4454  -20.3478   17.5750 C   0  0  0  0  0  0  0  0  0  0  0  0
  -28.2783  -23.4509   21.7049 C   0  0  0  0  0  0  0  0  0  1  0  0
  -29.0772  -19.8616   19.3954 C   0  0  0  0  0  0  0  0  0  0  0  0
  -28.8050  -22.5383   20.5890 C   0  0  1  0  0  0  0  0  0  0  0  0
  -26.3971  -29.3482   25.9850 C   0  0  1  0  0  0  0  0  0  0  0  0
  -28.3788  -28.7266   29.1562 C   0  0  2  0  0  0  0  0  0  0  0  0
  -26.3829  -30.7531   25.3190 C   0  0  0  0  0  0  0  0  0  0  0  0
  -26.5603  -22.6687   19.6577 N   0  0  0  0  0  0  0  0  0  0  0  0
  -22.1835  -14.1697   21.1028 N   0  0  0  0  0  0  0  0  0  0  0  0
  -23.1346  -15.1037   20.9320 N   0  0  0  0  0  0  0  0  0  0  0  0
  -24.8395  -27.5163   25.4002 N   0  0  0  0  0  0  0  0  0  0  0  0
  -22.0242  -18.5738   19.7770 N   0  0  0  0  0  0  0  0  0  0  0  0
  -25.4455  -15.3887   20.4971 N   0  0  0  0  0  0  0  0  0  0  0  0
  -24.9409  -10.9011   20.5492 N   0  0  0  0  0  0  0  0  0  0  0  0
  -21.6550  -27.0380   23.6896 N   0  0  0  0  0  0  0  0  0  0  0  0
  -26.9309  -29.3359   27.3427 N   0  0  0  0  0  0  0  0  0  0  0  0
  -23.7073  -19.3393   18.3022 N   0  0  0  0  0  0  0  0  0  0  0  0
  -28.9067  -27.4470   29.7082 N   0  3  0  0  0  0  0  0  0  0  0  0
  -26.4587  -12.6013   20.2955 O   0  0  0  0  0  0  0  0  0  0  0  0
  -23.6865  -28.0574   23.1835 O   0  0  0  0  0  0  0  0  0  0  0  0
  -24.1376  -29.3159   26.7060 O   0  0  0  0  0  0  0  0  0  0  0  0
  -28.6346  -27.8173   26.9324 O   0  0  0  0  0  0  0  0  0  0  0  0
  -22.2685  -20.8275   19.2881 O   0  0  0  0  0  0  0  0  0  0  0  0
  -20.1862   -8.1315   21.4195 O   0  0  0  0  0  0  0  0  0  0  0  0
  -27.4758  -22.6895   22.6064 O   0  0  0  0  0  0  0  0  0  1  0  0
  -22.5664   -4.1849   24.4465 F   0  0  0  0  0  0  0  0  0  0  0  0
  -22.6860   -7.1521   20.7605 F   0  0  0  0  0  0  0  0  0  0  0  0
  1  2  1  0  0  0  0
  1  5  2  0  0  0  0
  2  6  2  0  0  0  0
  3  8  2  0  0  0  0
  3 17  1  0  0  0  0
  4  9  1  0  0  0  0
  4 17  2  0  0  0  0
  5 19  1  0  0  0  0
  6 21  1  0  0  0  0
  7 10  2  0  0  0  0
  7 20  1  0  0  0  0
  8 25  1  0  0  0  0
  9 25  2  0  0  0  0
 10 26  1  0  0  0  0
 11 12  2  0  0  0  0
 11 27  1  0  0  0  0
 12 28  1  0  0  0  0
 13 22  1  0  0  0  0
 13 26  2  0  0  0  0
 14 23  2  0  0  0  0
 14 24  1  0  0  0  0
 15 28  2  0  0  0  0
 15 29  1  0  0  0  0
 16 23  1  0  0  0  0
 16 65  2  0  0  0  0
 17 30  1  0  0  0  0
 18 30  1  0  0  0  0
 18 32  2  0  0  0  0
 18 33  1  0  0  0  0
 19 21  2  0  0  0  0
 19 38  1  0  0  0  0
 20 22  2  0  0  0  0
 20 39  1  0  0  0  0
 21 47  1  0  0  0  0
 22 40  1  0  0  0  0
 23 58  1  0  0  0  0
 24 31  2  0  0  0  0
 24 60  1  0  0  0  0
 25 81  1  0  0  0  0
 26 82  1  0  0  0  0
 27 29  2  0  0  0  0
 27 81  1  0  0  0  0
 28 83  1  0  0  0  0
 29 84  1  0  0  0  0
 30 66  2  0  0  0  0
 31 61  1  0  0  0  0
 31 65  1  0  0  0  0
 32 67  1  0  0  0  0
 32 70  1  0  0  0  0
 33 71  1  0  0  0  0
 33 76  2  0  0  0  0
 34 48  1  0  0  0  0
 34 72  1  0  0  0  0
 34 77  2  0  0  0  0
 35 62  1  0  0  0  0
 35 68  1  0  0  0  0
 35 78  2  0  0  0  0
 36 63  1  0  0  0  0
 36 73  1  0  0  0  0
 36 79  2  0  0  0  0
 37 69  1  0  0  0  0
 37 74  1  0  0  0  0
 37 80  2  0  0  0  0
 38 41  1  0  0  0  0
 39 48  1  0  0  0  0
 40 68  1  0  0  0  0
 41 43  1  0  0  0  0
 42 44  1  0  0  0  0
 42 45  1  0  0  0  0
 43 47  1  0  0  0  0
 44 49  1  0  0  0  0
 45 69  1  0  0  0  0
 46 49  1  0  0  0  0
 46 69  1  0  0  0  0
 47 72  1  0  0  0  0
 48 68  1  0  0  0  0
 49 67  1  0  0  0  0
 50 60  1  0  0  0  0
 51 60  1  0  0  0  0
 52 61  1  0  0  0  0
 53 63  1  0  0  0  0
 54 64  1  0  0  0  0
 55 64  1  0  0  0  0
 56 64  1  0  0  0  0
 57 75  1  0  0  0  0
 58 74  1  0  0  0  0
 59 61  1  0  0  0  0
 59 82  1  0  0  0  0
 62 64  1  0  0  0  0
 62 73  1  0  0  0  0
 63 75  1  0  0  0  0
 66 67  1  0  0  0  0
M  CHG  1  75   1
M  ISO  4  37 100  59 101  74 100  82 101
M  END
> <Batch ID>
0093

> <Smiles>
CNC(C)C(=O)NC(C(=O)N1Cc2cc([101O:1][101CH2:1]C(C)c3ncc(C[100NH:0][100C:0](=O)N4CCCC(n5nc(-c6ccc(Oc7ccc(F)cc7F)cc6)c(C(N)=O)c5N)C4)cc3C(C)C)ccc2CC1C(=O)NC1CCCc2ccccc21)C(C)(C)C

> <Shape>
0.228

> <Color>
0.106

> <Negative vol penalty>
0.000

$$$$

  -OEChem-04052319163D

 85 93  0     1  0  0  0  0  0999 V2000
  -16.6611  -29.0035   23.9788 C   0  0  0  0  0  0  0  0  0  0  0  0
  -17.2522  -28.0556   23.1496 C   0  0  0  0  0  0  0  0  0  0  0  0
  -26.1586  -12.0965   21.5766 C   0  0  0  0  0  0  0  0  0  0  0  0
  -25.1879  -13.7358   20.0909 C   0  0  0  0  0  0  0  0  0  0  0  0
  -17.2555  -30.2543   24.1402 C   0  0  0  0  0  0  0  0  0  0  0  0
  -18.4376  -28.3584   22.4806 C   0  0  0  0  0  0  0  0  0  0  0  0
  -23.0297  -24.5131   21.2034 C   0  0  0  0  0  0  0  0  0  0  0  0
  -25.1185  -11.2146   21.2831 C   0  0  0  0  0  0  0  0  0  0  0  0
  -24.1479  -12.8540   19.7973 C   0  0  0  0  0  0  0  0  0  0  0  0
  -23.3678  -23.8059   20.0504 C   0  0  0  0  0  0  0  0  0  0  0  0
  -21.8907  -10.7814   22.1875 C   0  0  0  0  0  0  0  0  0  0  0  0
  -21.2939  -10.1068   23.2526 C   0  0  0  0  0  0  0  0  0  0  0  0
  -24.9057  -25.5590   19.4333 C   0  0  0  0  0  0  0  0  0  0  0  0
  -26.9778  -21.9137   20.0852 C   0  0  0  0  0  0  0  0  0  0  0  0
  -21.9268   -7.9930   22.2684 C   0  0  0  0  0  0  0  0  0  0  0  0
  -28.6403  -20.9012   18.7187 C   0  0  0  0  0  0  0  0  0  0  0  0
  -26.1933  -13.3571   20.9805 C   0  0  0  0  0  0  0  0  0  0  0  0
  -28.4976  -14.3871   20.6102 C   0  0  0  0  0  0  0  0  0  0  0  0
  -18.4538  -30.5692   23.4804 C   0  0  0  0  0  0  0  0  0  0  0  0
  -23.6201  -25.7557   21.4750 C   0  0  0  0  0  0  0  0  0  0  0  0
  -19.0479  -29.6151   22.6324 C   0  0  0  0  0  0  0  0  0  0  0  0
  -24.5753  -26.2787   20.5917 C   0  0  0  0  0  0  0  0  0  0  0  0
  -27.3456  -21.3748   18.8574 C   0  0  0  0  0  0  0  0  0  0  0  0
  -27.9028  -21.9619   21.1222 C   0  0  0  0  0  0  0  0  0  0  0  0
  -24.1132  -11.5933   20.3934 C   0  0  0  0  0  0  0  0  0  0  0  0
  -24.3038  -24.3301   19.1637 C   0  0  0  0  0  0  0  0  0  0  0  0
  -22.5055  -10.0618   21.1628 C   0  0  0  0  0  0  0  0  0  0  0  0
  -21.3120   -8.7127   23.2931 C   0  0  0  0  0  0  0  0  0  0  0  0
  -22.5236   -8.6676   21.2033 C   0  0  0  0  0  0  0  0  0  0  0  0
  -27.2671  -14.2688   21.2838 C   0  0  0  0  0  0  0  0  0  0  0  0
  -29.1725  -21.4618   20.8822 C   0  0  0  0  0  0  0  0  0  0  0  0
  -29.1604  -15.3869   21.2791 C   0  0  0  0  0  0  0  0  0  0  0  0
  -28.9967  -13.6584   19.4808 C   0  0  0  0  0  0  0  0  0  0  0  0
  -22.5399  -28.7258   21.8154 C   0  0  0  0  0  0  0  0  0  0  0  0
  -25.6168  -29.3344   22.6426 C   0  0  0  0  0  0  0  0  0  0  0  0
  -28.9011  -28.4257   22.4562 C   0  0  0  0  0  0  0  0  0  0  0  0
  -27.2912  -20.0103   24.5930 C   0  0  0  0  0  0  0  0  0  0  0  0
  -19.0339  -31.9512   23.6490 C   0  0  0  0  0  0  0  0  0  0  0  0
  -23.2644  -26.4936   22.7365 C   0  0  0  0  0  0  0  0  0  0  0  0
  -25.2530  -27.5992   20.8476 C   0  0  0  0  0  0  0  0  0  0  0  0
  -20.4883  -32.0604   23.1983 C   0  0  0  0  0  0  0  0  0  0  0  0
  -29.5057  -17.4107   25.6006 C   0  0  0  0  0  0  0  0  0  0  0  0
  -20.6778  -31.3930   21.8399 C   0  0  0  0  0  0  0  0  0  0  0  0
  -29.2941  -16.3214   24.5478 C   0  0  0  0  0  0  0  0  0  0  0  0
  -28.2033  -18.1362   25.9317 C   0  0  0  0  0  0  0  0  0  0  0  0
  -27.2758  -17.5974   23.7129 C   0  0  0  0  0  0  0  0  0  0  0  0
  -20.3468  -29.8973   21.9091 C   0  0  1  0  0  0  0  0  0  0  0  0
  -23.5473  -27.9904   22.6532 C   0  0  1  0  0  0  0  0  0  0  0  0
  -28.5714  -16.8754   23.3051 C   0  0  2  0  0  0  0  0  0  0  0  0
  -30.8085  -22.8755   22.1516 C   0  0  0  0  0  0  0  0  0  0  0  0
  -27.1520  -24.0358   22.3301 C   0  0  0  0  0  0  0  0  0  0  0  0
  -31.3624  -28.4768   22.9428 C   0  0  0  0  0  0  0  0  0  0  0  0
  -25.6222  -31.5270   20.5207 C   0  0  0  0  0  0  0  0  0  0  0  0
  -28.1227  -31.5443   20.6447 C   0  0  0  0  0  0  0  0  0  0  0  0
  -26.7718  -32.1388   22.6558 C   0  0  0  0  0  0  0  0  0  0  0  0
  -28.5956  -26.6275   24.7869 C   0  0  0  0  0  0  0  0  0  0  0  0
  -26.3662  -21.3069   17.7129 C   0  0  0  0  0  0  0  0  0  0  0  0
  -30.2071  -21.4867   21.9595 C   0  0  0  0  0  0  0  0  0  0  0  0
  -26.3830  -22.5450   16.8137 C   0  0  0  0  0  0  0  0  0  0  0  0
  -26.3544  -21.7820   23.1293 C   0  0  0  0  0  0  0  0  0  0  0  0
  -25.9583  -23.8198   17.5334 C   0  0  0  0  0  0  0  0  0  1  0  0
  -27.5158  -22.5397   22.4396 C   0  0  1  0  0  0  0  0  0  0  0  0
  -26.8669  -29.7298   21.8943 C   0  0  1  0  0  0  0  0  0  0  0  0
  -29.9703  -28.2878   23.5250 C   0  0  2  0  0  0  0  0  0  0  0  0
  -26.8319  -31.2110   21.4228 C   0  0  0  0  0  0  0  0  0  0  0  0
  -29.5665  -20.9309   19.7030 N   0  0  0  0  0  0  0  0  0  0  0  0
  -27.1525  -15.1249   22.3025 N   0  0  0  0  0  0  0  0  0  0  0  0
  -28.3196  -15.7908   22.2741 N   0  0  0  0  0  0  0  0  0  0  0  0
  -24.8670  -28.2858   22.0915 N   0  0  0  0  0  0  0  0  0  0  0  0
  -27.5689  -18.6384   24.7106 N   0  0  0  0  0  0  0  0  0  0  0  0
  -30.3747  -15.9513   21.1073 N   0  0  0  0  0  0  0  0  0  0  0  0
  -28.1859  -12.6648   18.9153 N   0  0  0  0  0  0  0  0  0  0  0  0
  -21.4361  -29.1664   22.5204 N   0  0  0  0  0  0  0  0  0  0  0  0
  -27.9870  -29.4085   22.7721 N   0  0  0  0  0  0  0  0  0  0  0  0
  -26.6951  -20.4033   23.4010 N   0  0  0  0  0  0  0  0  0  0  0  0
  -29.9031  -26.9383   24.1538 N   0  3  0  0  0  0  0  0  0  0  0  0
  -30.1348  -13.8705   18.9979 O   0  0  0  0  0  0  0  0  0  0  0  0
  -22.7493  -28.8831   20.6183 O   0  0  0  0  0  0  0  0  0  0  0  0
  -25.3206  -29.9293   23.6819 O   0  0  0  0  0  0  0  0  0  0  0  0
  -28.8811  -27.7335   21.4408 O   0  0  0  0  0  0  0  0  0  0  0  0
  -27.5598  -20.8253   25.4821 O   0  0  0  0  0  0  0  0  0  0  0  0
  -23.0982  -10.7330   20.1065 O   0  0  0  0  0  0  0  0  0  0  0  0
  -24.6351  -23.6422   18.0373 O   0  0  0  0  0  0  0  0  0  1  0  0
  -20.7402   -8.0651   24.3167 F   0  0  0  0  0  0  0  0  0  0  0  0
  -23.1137   -7.9709   20.2225 F   0  0  0  0  0  0  0  0  0  0  0  0
  1  2  1  0  0  0  0
  1  5  2  0  0  0  0
  2  6  2  0  0  0  0
  3  8  2  0  0  0  0
  3 17  1  0  0  0  0
  4  9  1  0  0  0  0
  4 17  2  0  0  0  0
  5 19  1  0  0  0  0
  6 21  1  0  0  0  0
  7 10  2  0  0  0  0
  7 20  1  0  0  0  0
  8 25  1  0  0  0  0
  9 25  2  0  0  0  0
 10 26  1  0  0  0  0
 11 12  2  0  0  0  0
 11 27  1  0  0  0  0
 12 28  1  0  0  0  0
 13 22  1  0  0  0  0
 13 26  2  0  0  0  0
 14 23  2  0  0  0  0
 14 24  1  0  0  0  0
 15 28  2  0  0  0  0
 15 29  1  0  0  0  0
 16 23  1  0  0  0  0
 16 66  2  0  0  0  0
 17 30  1  0  0  0  0
 18 30  1  0  0  0  0
 18 32  2  0  0  0  0
 18 33  1  0  0  0  0
 19 21  2  0  0  0  0
 19 38  1  0  0  0  0
 20 22  2  0  0  0  0
 20 39  1  0  0  0  0
 21 47  1  0  0  0  0
 22 40  1  0  0  0  0
 23 57  1  0  0  0  0
 24 31  2  0  0  0  0
 24 62  1  0  0  0  0
 25 82  1  0  0  0  0
 26 83  1  0  0  0  0
 27 29  2  0  0  0  0
 27 82  1  0  0  0  0
 28 84  1  0  0  0  0
 29 85  1  0  0  0  0
 30 67  2  0  0  0  0
 31 58  1  0  0  0  0
 31 66  1  0  0  0  0
 32 68  1  0  0  0  0
 32 71  1  0  0  0  0
 33 72  1  0  0  0  0
 33 77  2  0  0  0  0
 34 48  1  0  0  0  0
 34 73  1  0  0  0  0
 34 78  2  0  0  0  0
 35 63  1  0  0  0  0
 35 69  1  0  0  0  0
 35 79  2  0  0  0  0
 36 64  1  0  0  0  0
 36 74  1  0  0  0  0
 36 80  2  0  0  0  0
 37 70  1  0  0  0  0
 37 75  1  0  0  0  0
 37 81  2  0  0  0  0
 38 41  1  0  0  0  0
 39 48  1  0  0  0  0
 40 69  1  0  0  0  0
 41 43  1  0  0  0  0
 42 44  1  0  0  0  0
 42 45  1  0  0  0  0
 43 47  1  0  0  0  0
 44 49  1  0  0  0  0
 45 70  1  0  0  0  0
 46 49  1  0  0  0  0
 46 70  1  0  0  0  0
 47 73  1  0  0  0  0
 48 69  1  0  0  0  0
 49 68  1  0  0  0  0
 50 58  1  0  0  0  0
 51 62  1  0  0  0  0
 52 64  1  0  0  0  0
 53 65  1  0  0  0  0
 54 65  1  0  0  0  0
 55 65  1  0  0  0  0
 56 76  1  0  0  0  0
 57 59  1  0  0  0  0
 59 61  1  0  0  0  0
 60 62  1  0  0  0  0
 60 75  1  0  0  0  0
 61 83  1  0  0  0  0
 63 65  1  0  0  0  0
 63 74  1  0  0  0  0
 64 76  1  0  0  0  0
 67 68  1  0  0  0  0
M  CHG  1  76   1
M  ISO  4  37 100  61 101  75 100  83 101
M  END
> <Batch ID>
0093

> <Smiles>
CCc1ncc(CC[101CH2:1][101O:1]c2ccc3c(c2)CN(C(=O)C(NC(=O)C(C)NC)C(C)(C)C)C(C(=O)NC2CCCc4ccccc42)C3)cc1C(C)C[100NH:0][100C:0](=O)N1CCCC(n2nc(-c3ccc(Oc4ccc(F)cc4F)cc3)c(C(N)=O)c2N)C1

> <Shape>
0.239

> <Color>
0.070

> <Negative vol penalty>
0.000

$$$$

  -OEChem-04052319163D

 88 96  0     1  0  0  0  0  0999 V2000
  -29.6238  -10.3575   17.0261 C   0  0  0  0  0  0  0  0  0  0  0  0
  -28.4548  -11.0075   16.6434 C   0  0  0  0  0  0  0  0  0  0  0  0
  -26.7528  -27.1314   19.7911 C   0  0  0  0  0  0  0  0  0  0  0  0
  -24.6948  -28.1141   20.5886 C   0  0  0  0  0  0  0  0  0  0  0  0
  -30.2144  -10.6532   18.2539 C   0  0  0  0  0  0  0  0  0  0  0  0
  -27.8753  -11.9529   17.4888 C   0  0  0  0  0  0  0  0  0  0  0  0
  -24.1297  -18.0564   17.3039 C   0  0  0  0  0  0  0  0  0  0  0  0
  -27.3875  -28.3682   19.9050 C   0  0  0  0  0  0  0  0  0  0  0  0
  -25.3295  -29.3510   20.7025 C   0  0  0  0  0  0  0  0  0  0  0  0
  -22.9630  -18.6201   17.8183 C   0  0  0  0  0  0  0  0  0  0  0  0
  -26.5022  -32.6873   21.5460 C   0  0  0  0  0  0  0  0  0  0  0  0
  -26.2796  -33.4268   22.7076 C   0  0  0  0  0  0  0  0  0  0  0  0
  -24.1152  -19.1077   19.8808 C   0  0  0  0  0  0  0  0  0  0  0  0
  -17.7111  -24.7066   19.7311 C   0  0  0  0  0  0  0  0  0  0  0  0
  -27.2007  -31.6268   24.0299 C   0  0  0  0  0  0  0  0  0  0  0  0
  -25.4064  -27.0044   20.1328 C   0  0  0  0  0  0  0  0  0  0  0  0
  -24.6539  -24.7265   21.0004 C   0  0  0  0  0  0  0  0  0  0  0  0
  -29.6471  -11.6097   19.1106 C   0  0  0  0  0  0  0  0  0  0  0  0
  -25.2969  -18.0042   18.0793 C   0  0  0  0  0  0  0  0  0  0  0  0
  -28.4582  -12.2607   18.7298 C   0  0  0  0  0  0  0  0  0  0  0  0
  -25.2961  -18.5452   19.3729 C   0  0  0  0  0  0  0  0  0  0  0  0
  -17.8997  -24.2557   21.0608 C   0  0  0  0  0  0  0  0  0  0  0  0
  -26.6759  -29.4780   20.3607 C   0  0  0  0  0  0  0  0  0  0  0  0
  -22.9548  -19.1433   19.1080 C   0  0  0  0  0  0  0  0  0  0  0  0
  -27.0740  -31.4175   21.6264 C   0  0  0  0  0  0  0  0  0  0  0  0
  -26.6289  -32.8965   23.9495 C   0  0  0  0  0  0  0  0  0  0  0  0
  -27.4233  -30.8873   22.8683 C   0  0  0  0  0  0  0  0  0  0  0  0
  -24.7500  -25.7271   20.0149 C   0  0  0  0  0  0  0  0  0  0  0  0
  -17.3899  -23.6075   18.9656 C   0  0  0  0  0  0  0  0  0  0  0  0
  -17.6882  -22.8946   21.0674 C   0  0  0  0  0  0  0  0  0  0  0  0
  -23.9390  -23.7197   20.3989 C   0  0  0  0  0  0  0  0  0  0  0  0
  -25.1649  -24.7087   22.3399 C   0  0  0  0  0  0  0  0  0  0  0  0
  -27.1252  -15.6709   19.2268 C   0  0  0  0  0  0  0  0  0  0  0  0
  -29.0188  -18.1375   20.1499 C   0  0  0  0  0  0  0  0  0  0  0  0
  -29.2836  -21.4439   20.9526 C   0  0  0  0  0  0  0  0  0  0  0  0
  -19.9899  -23.6496   15.8988 C   0  0  0  0  0  0  0  0  0  0  0  0
  -30.2959  -11.8615   20.4486 C   0  0  0  0  0  0  0  0  0  0  0  0
  -26.5547  -17.4169   17.5000 C   0  0  0  0  0  0  0  0  0  0  0  0
  -26.5285  -18.5320   20.2387 C   0  0  0  0  0  0  0  0  0  0  0  0
  -29.8243  -13.1479   21.1218 C   0  0  0  0  0  0  0  0  0  0  0  0
  -23.0371  -21.8193   16.1017 C   0  0  0  0  0  0  0  0  0  0  0  0
  -28.3040  -13.2562   21.0603 C   0  0  0  0  0  0  0  0  0  0  0  0
  -23.8129  -22.5230   17.2165 C   0  0  0  0  0  0  0  0  0  0  0  0
  -22.2317  -22.8092   15.2630 C   0  0  0  0  0  0  0  0  0  0  0  0
  -22.1074  -24.3899   17.1496 C   0  0  0  0  0  0  0  0  0  0  0  0
  -27.8130  -13.3104   19.6085 C   0  0  1  0  0  0  0  0  0  0  0  0
  -27.5435  -16.9535   18.5653 C   0  0  1  0  0  0  0  0  0  0  0  0
  -22.8909  -23.4263   18.0574 C   0  0  2  0  0  0  0  0  0  0  0  0
  -18.2565  -25.0967   22.2208 C   0  0  0  0  0  0  0  0  0  0  0  0
  -30.9523  -23.1613   21.7033 C   0  0  0  0  0  0  0  0  0  0  0  0
  -15.2394  -21.1342   25.0868 C   0  0  0  0  0  0  0  0  0  0  0  0
  -16.6347  -19.5329   23.7642 C   0  0  0  0  0  0  0  0  0  0  0  0
  -28.9353  -16.9813   22.9724 C   0  0  0  0  0  0  0  0  0  0  0  0
  -29.7807  -19.1792   23.8227 C   0  0  0  0  0  0  0  0  0  0  0  0
  -31.1772  -17.8286   22.2580 C   0  0  0  0  0  0  0  0  0  0  0  0
  -28.8675  -23.0798   18.5216 C   0  0  0  0  0  0  0  0  0  0  0  0
  -17.0931  -23.5139   17.5214 C   0  0  0  0  0  0  0  0  0  0  0  0
  -17.7539  -21.9257   22.1824 C   0  0  0  0  0  0  0  0  0  0  0  0
  -16.5096  -21.9918   23.0958 C   0  0  0  0  0  0  0  0  0  0  0  0
  -18.2459  -20.4003   18.6551 C   0  0  0  0  0  0  0  0  0  0  0  0
  -19.5177  -20.3725   19.5043 C   0  0  0  0  0  0  0  0  0  0  0  0
  -17.0741  -21.1005   19.3523 C   0  0  0  0  0  0  0  0  0  0  0  0
  -17.8143  -24.5677   16.6623 C   0  0  0  0  0  0  0  0  0  0  0  0
  -20.6684  -19.7015   18.7663 C   0  0  0  0  0  0  0  0  0  1  0  0
  -29.1190  -19.0059   21.3807 C   0  0  1  0  0  0  0  0  0  0  0  0
  -30.2676  -22.5121   20.5106 C   0  0  2  0  0  0  0  0  0  0  0  0
  -16.5140  -20.9767   24.2539 C   0  0  0  0  0  0  0  0  0  0  0  0
  -29.7291  -18.2474   22.5931 C   0  0  0  0  0  0  0  0  0  0  0  0
  -24.1448  -25.3869   18.8738 N   0  0  0  0  0  0  0  0  0  0  0  0
  -17.3793  -22.5115   19.7884 N   0  0  0  0  0  0  0  0  0  0  0  0
  -23.6616  -24.1611   19.1386 N   0  0  0  0  0  0  0  0  0  0  0  0
  -27.7317  -17.9413   19.6298 N   0  0  0  0  0  0  0  0  0  0  0  0
  -21.3769  -23.6342   16.1201 N   0  0  0  0  0  0  0  0  0  0  0  0
  -23.5271  -22.5086   20.8303 N   0  0  0  0  0  0  0  0  0  0  0  0
  -25.8768  -25.8256   22.7983 N   0  0  0  0  0  0  0  0  0  0  0  0
  -28.0191  -14.6313   19.0543 N   0  0  0  0  0  0  0  0  0  0  0  0
  -29.8656  -20.1942   20.9822 N   0  0  0  0  0  0  0  0  0  0  0  0
  -19.2523  -24.4528   16.7600 N   0  0  0  0  0  0  0  0  0  0  0  0
  -29.5657  -23.5743   19.7361 N   0  3  0  0  0  0  0  0  0  0  0  0
  -25.0095  -23.7246   23.1020 O   0  0  0  0  0  0  0  0  0  0  0  0
  -26.0702  -15.6280   19.8489 O   0  0  0  0  0  0  0  0  0  0  0  0
  -30.0456  -17.6569   19.6637 O   0  0  0  0  0  0  0  0  0  0  0  0
  -28.1166  -21.6937   21.2460 O   0  0  0  0  0  0  0  0  0  0  0  0
  -19.4483  -22.9920   15.0038 O   0  0  0  0  0  0  0  0  0  0  0  0
  -27.2950  -30.6850   20.4722 O   0  0  0  0  0  0  0  0  0  0  0  0
  -21.8171  -19.6935   19.6129 O   0  0  0  0  0  0  0  0  0  1  0  0
  -26.4165  -33.6074   25.0648 F   0  0  0  0  0  0  0  0  0  0  0  0
  -27.9740  -29.6685   22.9518 F   0  0  0  0  0  0  0  0  0  0  0  0
  1  2  1  0  0  0  0
  1  5  2  0  0  0  0
  2  6  2  0  0  0  0
  3  8  2  0  0  0  0
  3 16  1  0  0  0  0
  4  9  1  0  0  0  0
  4 16  2  0  0  0  0
  5 18  1  0  0  0  0
  6 20  1  0  0  0  0
  7 10  2  0  0  0  0
  7 19  1  0  0  0  0
  8 23  1  0  0  0  0
  9 23  2  0  0  0  0
 10 24  1  0  0  0  0
 11 12  2  0  0  0  0
 11 25  1  0  0  0  0
 12 26  1  0  0  0  0
 13 21  1  0  0  0  0
 13 24  2  0  0  0  0
 14 22  1  0  0  0  0
 14 29  2  0  0  0  0
 15 26  2  0  0  0  0
 15 27  1  0  0  0  0
 16 28  1  0  0  0  0
 17 28  1  0  0  0  0
 17 31  2  0  0  0  0
 17 32  1  0  0  0  0
 18 20  2  0  0  0  0
 18 37  1  0  0  0  0
 19 21  2  0  0  0  0
 19 38  1  0  0  0  0
 20 46  1  0  0  0  0
 21 39  1  0  0  0  0
 22 30  2  0  0  0  0
 22 49  1  0  0  0  0
 23 85  1  0  0  0  0
 24 86  1  0  0  0  0
 25 27  2  0  0  0  0
 25 85  1  0  0  0  0
 26 87  1  0  0  0  0
 27 88  1  0  0  0  0
 28 69  2  0  0  0  0
 29 57  1  0  0  0  0
 29 70  1  0  0  0  0
 30 58  1  0  0  0  0
 30 70  1  0  0  0  0
 31 71  1  0  0  0  0
 31 74  1  0  0  0  0
 32 75  1  0  0  0  0
 32 80  2  0  0  0  0
 33 47  1  0  0  0  0
 33 76  1  0  0  0  0
 33 81  2  0  0  0  0
 34 65  1  0  0  0  0
 34 72  1  0  0  0  0
 34 82  2  0  0  0  0
 35 66  1  0  0  0  0
 35 77  1  0  0  0  0
 35 83  2  0  0  0  0
 36 73  1  0  0  0  0
 36 78  1  0  0  0  0
 36 84  2  0  0  0  0
 37 40  1  0  0  0  0
 38 47  1  0  0  0  0
 39 72  1  0  0  0  0
 40 42  1  0  0  0  0
 41 43  1  0  0  0  0
 41 44  1  0  0  0  0
 42 46  1  0  0  0  0
 43 48  1  0  0  0  0
 44 73  1  0  0  0  0
 45 48  1  0  0  0  0
 45 73  1  0  0  0  0
 46 76  1  0  0  0  0
 47 72  1  0  0  0  0
 48 71  1  0  0  0  0
 50 66  1  0  0  0  0
 51 67  1  0  0  0  0
 52 67  1  0  0  0  0
 53 68  1  0  0  0  0
 54 68  1  0  0  0  0
 55 68  1  0  0  0  0
 56 79  1  0  0  0  0
 57 63  1  0  0  0  0
 58 59  1  0  0  0  0
 59 67  1  0  0  0  0
 60 61  1  0  0  0  0
 60 62  1  0  0  0  0
 61 64  1  0  0  0  0
 62 70  1  0  0  0  0
 63 78  1  0  0  0  0
 64 86  1  0  0  0  0
 65 68  1  0  0  0  0
 65 77  1  0  0  0  0
 66 79  1  0  0  0  0
 69 71  1  0  0  0  0
M  CHG  1  79   1
M  ISO  4  36 100  64 101  78 100  86 101
M  END
> <Batch ID>
0093

> <Smiles>
CNC(C)C(=O)NC(C(=O)N1Cc2cc([101O:1][101CH2:1]CCCn3c(CC[100NH:0][100C:0](=O)N4CCCC(n5nc(-c6ccc(Oc7ccc(F)cc7F)cc6)c(C(N)=O)c5N)C4)cc(C)c3CCC(C)C)ccc2CC1C(=O)NC1CCCc2ccccc21)C(C)(C)C

> <Shape>
0.196

> <Color>
0.058

> <Negative vol penalty>
0.000

$$$$

  -OEChem-04052319163D

 81 89  0     1  0  0  0  0  0999 V2000
  -22.0588  -12.9258   26.0857 C   0  0  0  0  0  0  0  0  0  0  0  0
  -22.8309  -13.8689   25.4151 C   0  0  0  0  0  0  0  0  0  0  0  0
  -23.1001   -9.8625   21.4194 C   0  0  0  0  0  0  0  0  0  0  0  0
  -23.8895  -10.7050   23.5417 C   0  0  0  0  0  0  0  0  0  0  0  0
  -20.7512  -13.2347   26.4583 C   0  0  0  0  0  0  0  0  0  0  0  0
  -22.2955  -15.1212   25.1156 C   0  0  0  0  0  0  0  0  0  0  0  0
  -25.5048  -18.9018   26.1414 C   0  0  0  0  0  0  0  0  0  0  0  0
  -22.3869   -8.8632   22.0814 C   0  0  0  0  0  0  0  0  0  0  0  0
  -23.1762   -9.7057   24.2037 C   0  0  0  0  0  0  0  0  0  0  0  0
  -26.5323  -19.1305   25.2272 C   0  0  0  0  0  0  0  0  0  0  0  0
  -20.6467   -5.8702   23.1938 C   0  0  0  0  0  0  0  0  0  0  0  0
  -20.7220   -4.5731   22.6864 C   0  0  0  0  0  0  0  0  0  0  0  0
  -25.2712  -20.9530   24.2748 C   0  0  0  0  0  0  0  0  0  0  0  0
  -28.6651  -18.7700   19.2363 C   0  0  0  0  0  0  0  0  0  0  0  0
  -23.1144   -4.5803   23.0228 C   0  0  0  0  0  0  0  0  0  0  0  0
  -29.7432  -19.4411   21.0956 C   0  0  0  0  0  0  0  0  0  0  0  0
  -23.8515  -10.7834   22.1495 C   0  0  0  0  0  0  0  0  0  0  0  0
  -24.1323  -13.1028   21.1253 C   0  0  0  0  0  0  0  0  0  0  0  0
  -20.2028  -14.4948   26.1718 C   0  0  0  0  0  0  0  0  0  0  0  0
  -24.3461  -19.6913   26.1221 C   0  0  0  0  0  0  0  0  0  0  0  0
  -20.9790  -15.4467   25.4836 C   0  0  0  0  0  0  0  0  0  0  0  0
  -24.2315  -20.7339   25.1915 C   0  0  0  0  0  0  0  0  0  0  0  0
  -29.7055  -18.4476   20.1423 C   0  0  0  0  0  0  0  0  0  0  0  0
  -22.4249   -8.7848   23.4735 C   0  0  0  0  0  0  0  0  0  0  0  0
  -26.4144  -20.1543   24.2919 C   0  0  0  0  0  0  0  0  0  0  0  0
  -21.8053   -6.5224   23.6156 C   0  0  0  0  0  0  0  0  0  0  0  0
  -21.9558   -3.9281   22.6010 C   0  0  0  0  0  0  0  0  0  0  0  0
  -23.0392   -5.8775   23.5301 C   0  0  0  0  0  0  0  0  0  0  0  0
  -24.5890  -11.8156   21.4663 C   0  0  0  0  0  0  0  0  0  0  0  0
  -28.0989  -19.9508   19.6634 C   0  0  0  0  0  0  0  0  0  0  0  0
  -25.2017  -13.6908   20.4951 C   0  0  0  0  0  0  0  0  0  0  0  0
  -22.8556  -13.7126   21.3576 C   0  0  0  0  0  0  0  0  0  0  0  0
  -21.2560  -19.1282   25.6344 C   0  0  0  0  0  0  0  0  0  0  0  0
  -30.6856  -14.7772   20.3065 C   0  0  0  0  0  0  0  0  0  0  0  0
  -20.9565  -22.2520   26.4557 C   0  0  0  0  0  0  0  0  0  0  0  0
  -22.3988  -25.3357   26.6956 C   0  0  0  0  0  0  0  0  0  0  0  0
  -18.7689  -14.7660   26.5527 C   0  0  0  0  0  0  0  0  0  0  0  0
  -23.2584  -19.4490   27.1323 C   0  0  0  0  0  0  0  0  0  0  0  0
  -23.0168  -21.6230   25.1423 C   0  0  0  0  0  0  0  0  0  0  0  0
  -18.4024  -16.2477   26.5296 C   0  0  0  0  0  0  0  0  0  0  0  0
  -29.5427  -11.7197   18.8281 C   0  0  0  0  0  0  0  0  0  0  0  0
  -18.9132  -16.9042   25.2510 C   0  0  0  0  0  0  0  0  0  0  0  0
  -28.1259  -11.5625   19.3786 C   0  0  0  0  0  0  0  0  0  0  0  0
  -30.4738  -12.3551   19.8560 C   0  0  0  0  0  0  0  0  0  0  0  0
  -28.5721  -13.5102   20.9382 C   0  0  0  0  0  0  0  0  0  0  0  0
  -20.4421  -16.8248   25.1628 C   0  0  1  0  0  0  0  0  0  0  0  0
  -21.9004  -19.9839   26.6881 C   0  0  1  0  0  0  0  0  0  0  0  0
  -27.5918  -12.9002   19.9207 C   0  0  2  0  0  0  0  0  0  0  0  0
  -26.9828  -20.7296   19.0880 C   0  0  0  0  0  0  0  0  0  0  0  0
  -30.3314  -16.1165   22.3402 C   0  0  0  0  0  0  0  0  0  0  0  0
  -21.8928  -27.7003   27.3666 C   0  0  0  0  0  0  0  0  0  0  0  0
  -19.4216  -22.6604   23.8505 C   0  0  0  0  0  0  0  0  0  0  0  0
  -19.7752  -25.1253   24.1098 C   0  0  0  0  0  0  0  0  0  0  0  0
  -18.4690  -23.8675   25.8228 C   0  0  0  0  0  0  0  0  0  0  0  0
  -24.4546  -25.2942   28.8241 C   0  0  0  0  0  0  0  0  0  0  0  0
  -30.5864  -17.2659   20.0781 C   0  0  0  0  0  0  0  0  0  0  0  0
  -28.4716  -21.5939   21.5977 C   0  0  0  0  0  0  0  0  0  0  0  0
  -27.2282  -21.4450   22.4677 C   0  0  0  0  0  0  0  0  0  1  0  0
  -30.0468  -16.0329   20.8443 C   0  0  1  0  0  0  0  0  0  0  0  0
  -20.9759  -23.5615   25.7047 C   0  0  1  0  0  0  0  0  0  0  0  0
  -22.4243  -26.3508   27.8240 C   0  0  2  0  0  0  0  0  0  0  0  0
  -19.6826  -23.7859   24.8713 C   0  0  0  0  0  0  0  0  0  0  0  0
  -25.8502  -11.5979   21.0841 N   0  0  0  0  0  0  0  0  0  0  0  0
  -28.7624  -20.3497   20.7942 N   0  0  0  0  0  0  0  0  0  0  0  0
  -26.1951  -12.7563   20.4965 N   0  0  0  0  0  0  0  0  0  0  0  0
  -21.9776  -21.3422   26.1467 N   0  0  0  0  0  0  0  0  0  0  0  0
  -29.9205  -13.6121   20.3630 N   0  0  0  0  0  0  0  0  0  0  0  0
  -25.3798  -14.9108   19.9453 N   0  0  0  0  0  0  0  0  0  0  0  0
  -21.8698  -12.9677   22.0191 N   0  0  0  0  0  0  0  0  0  0  0  0
  -21.0501  -17.8180   26.0221 N   0  0  0  0  0  0  0  0  0  0  0  0
  -21.2338  -24.5981   26.6983 N   0  0  0  0  0  0  0  0  0  0  0  0
  -23.8168  -26.5380   28.3210 N   0  3  0  0  0  0  0  0  0  0  0  0
  -22.5913  -14.8776   20.9749 O   0  0  0  0  0  0  0  0  0  0  0  0
  -20.9656  -19.6207   24.5505 O   0  0  0  0  0  0  0  0  0  0  0  0
  -31.8295  -14.8328   19.8475 O   0  0  0  0  0  0  0  0  0  0  0  0
  -20.0723  -22.0470   27.2910 O   0  0  0  0  0  0  0  0  0  0  0  0
  -23.3186  -25.2123   25.8898 O   0  0  0  0  0  0  0  0  0  0  0  0
  -21.7289   -7.8099   24.1198 O   0  0  0  0  0  0  0  0  0  0  0  0
  -27.4155  -20.3793   23.3980 O   0  0  0  0  0  0  0  0  0  1  0  0
  -22.0277   -2.6819   22.1152 F   0  0  0  0  0  0  0  0  0  0  0  0
  -24.1555   -6.4985   23.9349 F   0  0  0  0  0  0  0  0  0  0  0  0
  1  2  1  0  0  0  0
  1  5  2  0  0  0  0
  2  6  2  0  0  0  0
  3  8  2  0  0  0  0
  3 17  1  0  0  0  0
  4  9  1  0  0  0  0
  4 17  2  0  0  0  0
  5 19  1  0  0  0  0
  6 21  1  0  0  0  0
  7 10  2  0  0  0  0
  7 20  1  0  0  0  0
  8 24  1  0  0  0  0
  9 24  2  0  0  0  0
 10 25  1  0  0  0  0
 11 12  2  0  0  0  0
 11 26  1  0  0  0  0
 12 27  1  0  0  0  0
 13 22  1  0  0  0  0
 13 25  2  0  0  0  0
 14 23  1  0  0  0  0
 14 30  2  0  0  0  0
 15 27  2  0  0  0  0
 15 28  1  0  0  0  0
 16 23  2  0  0  0  0
 16 64  1  0  0  0  0
 17 29  1  0  0  0  0
 18 29  1  0  0  0  0
 18 31  2  0  0  0  0
 18 32  1  0  0  0  0
 19 21  2  0  0  0  0
 19 37  1  0  0  0  0
 20 22  2  0  0  0  0
 20 38  1  0  0  0  0
 21 46  1  0  0  0  0
 22 39  1  0  0  0  0
 23 56  1  0  0  0  0
 24 78  1  0  0  0  0
 25 79  1  0  0  0  0
 26 28  2  0  0  0  0
 26 78  1  0  0  0  0
 27 80  1  0  0  0  0
 28 81  1  0  0  0  0
 29 63  2  0  0  0  0
 30 49  1  0  0  0  0
 30 64  1  0  0  0  0
 31 65  1  0  0  0  0
 31 68  1  0  0  0  0
 32 69  1  0  0  0  0
 32 73  2  0  0  0  0
 33 47  1  0  0  0  0
 33 70  1  0  0  0  0
 33 74  2  0  0  0  0
 34 59  1  0  0  0  0
 34 67  1  0  0  0  0
 34 75  2  0  0  0  0
 35 60  1  0  0  0  0
 35 66  1  0  0  0  0
 35 76  2  0  0  0  0
 36 61  1  0  0  0  0
 36 71  1  0  0  0  0
 36 77  2  0  0  0  0
 37 40  1  0  0  0  0
 38 47  1  0  0  0  0
 39 66  1  0  0  0  0
 40 42  1  0  0  0  0
 41 43  1  0  0  0  0
 41 44  1  0  0  0  0
 42 46  1  0  0  0  0
 43 48  1  0  0  0  0
 44 67  1  0  0  0  0
 45 48  1  0  0  0  0
 45 67  1  0  0  0  0
 46 70  1  0  0  0  0
 47 66  1  0  0  0  0
 48 65  1  0  0  0  0
 50 59  1  0  0  0  0
 51 61  1  0  0  0  0
 52 62  1  0  0  0  0
 53 62  1  0  0  0  0
 54 62  1  0  0  0  0
 55 72  1  0  0  0  0
 56 59  1  0  0  0  0
 57 58  1  0  0  0  0
 57 64  1  0  0  0  0
 58 79  1  0  0  0  0
 60 62  1  0  0  0  0
 60 71  1  0  0  0  0
 61 72  1  0  0  0  0
 63 65  1  0  0  0  0
M  CHG  1  72   1
M  ISO  4  34 100  58 101  59 100  79 101
M  END
> <Batch ID>
0093

> <Smiles>
CNC(C)C(=O)NC(C(=O)N1Cc2cc([101O:1][101CH2:1]Cn3cc(C[100CH:0](C)[100C:0](=O)N4CCCC(n5nc(-c6ccc(Oc7ccc(F)cc7F)cc6)c(C(N)=O)c5N)C4)cc3C)ccc2CC1C(=O)NC1CCCc2ccccc21)C(C)(C)C

> <Shape>
0.192

> <Color>
0.162

> <Negative vol penalty>
0.000

$$$$

  -OEChem-04052319163D

 88 96  0     1  0  0  0  0  0999 V2000
  -31.0364  -30.3558   23.6519 C   0  0  0  0  0  0  0  0  0  0  0  0
  -31.3927  -29.1785   23.0020 C   0  0  0  0  0  0  0  0  0  0  0  0
  -23.0609   -9.9065   19.9412 C   0  0  0  0  0  0  0  0  0  0  0  0
  -23.8335   -9.8939   22.2304 C   0  0  0  0  0  0  0  0  0  0  0  0
  -29.6907  -30.6888   23.8007 C   0  0  0  0  0  0  0  0  0  0  0  0
  -30.4034  -28.3328   22.5016 C   0  0  0  0  0  0  0  0  0  0  0  0
  -30.6976  -24.9244   17.4220 C   0  0  0  0  0  0  0  0  0  0  0  0
  -22.3088   -8.7581   20.1887 C   0  0  0  0  0  0  0  0  0  0  0  0
  -23.0814   -8.7455   22.4779 C   0  0  0  0  0  0  0  0  0  0  0  0
  -30.9873  -23.5769   17.2120 C   0  0  0  0  0  0  0  0  0  0  0  0
  -19.8501   -7.9710   23.0938 C   0  0  0  0  0  0  0  0  0  0  0  0
  -19.0993   -7.9306   24.2686 C   0  0  0  0  0  0  0  0  0  0  0  0
  -28.6271  -23.0789   17.1912 C   0  0  0  0  0  0  0  0  0  0  0  0
  -20.3286   -5.9787   24.9870 C   0  0  0  0  0  0  0  0  0  0  0  0
  -27.1527  -18.7363   19.6812 C   0  0  0  0  0  0  0  0  0  0  0  0
  -23.8232  -10.4744   20.9621 C   0  0  0  0  0  0  0  0  0  0  0  0
  -24.1854  -12.9972   20.8546 C   0  0  0  0  0  0  0  0  0  0  0  0
  -28.6847  -29.8516   23.2933 C   0  0  0  0  0  0  0  0  0  0  0  0
  -29.3684  -25.3583   17.5292 C   0  0  0  0  0  0  0  0  0  0  0  0
  -29.0429  -28.6542   22.6449 C   0  0  0  0  0  0  0  0  0  0  0  0
  -28.3231  -24.4328   17.3999 C   0  0  0  0  0  0  0  0  0  0  0  0
  -28.4854  -18.3800   19.6444 C   0  0  0  0  0  0  0  0  0  0  0  0
  -22.3190   -8.1776   21.4570 C   0  0  0  0  0  0  0  0  0  0  0  0
  -29.9521  -22.6535   17.0995 C   0  0  0  0  0  0  0  0  0  0  0  0
  -20.8401   -7.0152   22.8655 C   0  0  0  0  0  0  0  0  0  0  0  0
  -19.3385   -6.9345   25.2153 C   0  0  0  0  0  0  0  0  0  0  0  0
  -21.0793   -6.0191   23.8121 C   0  0  0  0  0  0  0  0  0  0  0  0
  -24.6008  -11.6603   20.7069 C   0  0  0  0  0  0  0  0  0  0  0  0
  -29.1384  -18.3847   20.8600 C   0  0  0  0  0  0  0  0  0  0  0  0
  -25.2817  -13.7397   20.4895 C   0  0  0  0  0  0  0  0  0  0  0  0
  -27.2439  -19.0389   21.9323 C   0  0  0  0  0  0  0  0  0  0  0  0
  -22.9216  -13.5211   21.2835 C   0  0  0  0  0  0  0  0  0  0  0  0
  -27.6407  -26.7535   19.8034 C   0  0  0  0  0  0  0  0  0  0  0  0
  -25.3921  -26.8890   17.4694 C   0  0  0  0  0  0  0  0  0  0  0  0
  -24.1716  -25.6218   14.5451 C   0  0  0  0  0  0  0  0  0  0  0  0
  -30.7747  -14.7122   20.6532 C   0  0  0  0  0  0  0  0  0  0  0  0
  -27.2424  -30.2301   23.5199 C   0  0  0  0  0  0  0  0  0  0  0  0
  -29.0719  -26.8194   17.7290 C   0  0  0  0  0  0  0  0  0  0  0  0
  -26.8787  -24.8506   17.4873 C   0  0  0  0  0  0  0  0  0  0  0  0
  -26.2651  -29.4653   22.6311 C   0  0  0  0  0  0  0  0  0  0  0  0
  -29.6042  -12.3510   18.2592 C   0  0  0  0  0  0  0  0  0  0  0  0
  -26.5963  -27.9763   22.6312 C   0  0  0  0  0  0  0  0  0  0  0  0
  -28.1667  -12.0667   18.6984 C   0  0  0  0  0  0  0  0  0  0  0  0
  -30.5297  -12.5573   19.4562 C   0  0  0  0  0  0  0  0  0  0  0  0
  -28.6418  -13.2961   20.8575 C   0  0  0  0  0  0  0  0  0  0  0  0
  -27.9994  -27.7233   22.0666 C   0  0  1  0  0  0  0  0  0  0  0  0
  -27.6953  -27.0721   18.3360 C   0  0  1  0  0  0  0  0  0  0  0  0
  -27.6597  -13.1364   19.6843 C   0  0  2  0  0  0  0  0  0  0  0  0
  -22.2989  -25.9151   12.9007 C   0  0  0  0  0  0  0  0  0  0  0  0
  -28.9143  -23.8776   23.5663 C   0  0  0  0  0  0  0  0  0  0  0  0
  -26.8600  -23.5127   24.9473 C   0  0  0  0  0  0  0  0  0  0  0  0
  -23.4792  -25.5097   19.4056 C   0  0  0  0  0  0  0  0  0  0  0  0
  -21.9979  -24.9826   17.4572 C   0  0  0  0  0  0  0  0  0  0  0  0
  -22.4558  -27.3578   18.0670 C   0  0  0  0  0  0  0  0  0  0  0  0
  -26.0477  -26.2515   12.3445 C   0  0  0  0  0  0  0  0  0  0  0  0
  -29.1602  -18.0144   18.3465 C   0  0  0  0  0  0  0  0  0  0  0  0
  -30.5830  -18.0159   20.9419 C   0  0  0  0  0  0  0  0  0  0  0  0
  -26.5543  -19.4041   23.2032 C   0  0  0  0  0  0  0  0  0  0  0  0
  -30.0624  -19.1176   17.7892 C   0  0  0  0  0  0  0  0  0  0  0  0
  -26.3737  -20.9195   23.4146 C   0  0  0  0  0  0  0  0  0  0  0  0
  -27.7035  -21.6837   23.3814 C   0  0  0  0  0  0  0  0  0  0  0  0
  -30.8653  -16.8550   21.9020 C   0  0  0  0  0  0  0  0  0  0  0  0
  -29.3050  -20.3873   17.4185 C   0  0  0  0  0  0  0  0  0  1  0  0
  -24.2847  -25.9779   16.9977 C   0  0  1  0  0  0  0  0  0  0  0  0
  -23.7251  -26.2995   13.2623 C   0  0  2  0  0  0  0  0  0  0  0  0
  -27.5437  -23.1978   23.6160 C   0  0  0  0  0  0  0  0  0  0  0  0
  -23.0816  -25.9485   17.9821 C   0  0  0  0  0  0  0  0  0  0  0  0
  -26.4977  -19.0728   20.8118 N   0  0  0  0  0  0  0  0  0  0  0  0
  -25.8625  -11.5564   20.2810 N   0  0  0  0  0  0  0  0  0  0  0  0
  -28.5464  -18.7102   22.0278 N   0  0  0  0  0  0  0  0  0  0  0  0
  -26.2493  -12.8375   20.1579 N   0  0  0  0  0  0  0  0  0  0  0  0
  -26.6401  -26.2892   17.6896 N   0  0  0  0  0  0  0  0  0  0  0  0
  -29.9926  -13.5852   20.3511 N   0  0  0  0  0  0  0  0  0  0  0  0
  -25.5028  -15.0698   20.4230 N   0  0  0  0  0  0  0  0  0  0  0  0
  -21.9040  -12.6185   21.6212 N   0  0  0  0  0  0  0  0  0  0  0  0
  -27.9865  -27.8117   20.6221 N   0  0  0  0  0  0  0  0  0  0  0  0
  -23.9425  -26.4159   15.6488 N   0  0  0  0  0  0  0  0  0  0  0  0
  -30.1880  -15.6411   21.5039 N   0  0  0  0  0  0  0  0  0  0  0  0
  -24.6172  -25.9108   12.1335 N   0  3  0  0  0  0  0  0  0  0  0  0
  -22.6959  -14.7533   21.3492 O   0  0  0  0  0  0  0  0  0  0  0  0
  -27.3080  -25.6313   20.1661 O   0  0  0  0  0  0  0  0  0  0  0  0
  -25.1602  -28.0899   17.6296 O   0  0  0  0  0  0  0  0  0  0  0  0
  -24.6701  -24.4986   14.5665 O   0  0  0  0  0  0  0  0  0  0  0  0
  -31.9096  -14.8809   20.1943 O   0  0  0  0  0  0  0  0  0  0  0  0
  -21.5851   -7.0572   21.6990 O   0  0  0  0  0  0  0  0  0  0  0  0
  -30.2321  -21.3375   16.8952 O   0  0  0  0  0  0  0  0  0  1  0  0
  -18.6185   -6.8967   26.3441 F   0  0  0  0  0  0  0  0  0  0  0  0
  -22.0299   -5.0989   23.5990 F   0  0  0  0  0  0  0  0  0  0  0  0
  1  2  1  0  0  0  0
  1  5  2  0  0  0  0
  2  6  2  0  0  0  0
  3  8  2  0  0  0  0
  3 16  1  0  0  0  0
  4  9  1  0  0  0  0
  4 16  2  0  0  0  0
  5 18  1  0  0  0  0
  6 20  1  0  0  0  0
  7 10  2  0  0  0  0
  7 19  1  0  0  0  0
  8 23  1  0  0  0  0
  9 23  2  0  0  0  0
 10 24  1  0  0  0  0
 11 12  2  0  0  0  0
 11 25  1  0  0  0  0
 12 26  1  0  0  0  0
 13 21  1  0  0  0  0
 13 24  2  0  0  0  0
 14 26  2  0  0  0  0
 14 27  1  0  0  0  0
 15 22  1  0  0  0  0
 15 68  2  0  0  0  0
 16 28  1  0  0  0  0
 17 28  1  0  0  0  0
 17 30  2  0  0  0  0
 17 32  1  0  0  0  0
 18 20  2  0  0  0  0
 18 37  1  0  0  0  0
 19 21  2  0  0  0  0
 19 38  1  0  0  0  0
 20 46  1  0  0  0  0
 21 39  1  0  0  0  0
 22 29  2  0  0  0  0
 22 56  1  0  0  0  0
 23 85  1  0  0  0  0
 24 86  1  0  0  0  0
 25 27  2  0  0  0  0
 25 85  1  0  0  0  0
 26 87  1  0  0  0  0
 27 88  1  0  0  0  0
 28 69  2  0  0  0  0
 29 57  1  0  0  0  0
 29 70  1  0  0  0  0
 30 71  1  0  0  0  0
 30 74  1  0  0  0  0
 31 58  1  0  0  0  0
 31 68  1  0  0  0  0
 31 70  2  0  0  0  0
 32 75  1  0  0  0  0
 32 80  2  0  0  0  0
 33 47  1  0  0  0  0
 33 76  1  0  0  0  0
 33 81  2  0  0  0  0
 34 64  1  0  0  0  0
 34 72  1  0  0  0  0
 34 82  2  0  0  0  0
 35 65  1  0  0  0  0
 35 77  1  0  0  0  0
 35 83  2  0  0  0  0
 36 73  1  0  0  0  0
 36 78  1  0  0  0  0
 36 84  2  0  0  0  0
 37 40  1  0  0  0  0
 38 47  1  0  0  0  0
 39 72  1  0  0  0  0
 40 42  1  0  0  0  0
 41 43  1  0  0  0  0
 41 44  1  0  0  0  0
 42 46  1  0  0  0  0
 43 48  1  0  0  0  0
 44 73  1  0  0  0  0
 45 48  1  0  0  0  0
 45 73  1  0  0  0  0
 46 76  1  0  0  0  0
 47 72  1  0  0  0  0
 48 71  1  0  0  0  0
 49 65  1  0  0  0  0
 50 66  1  0  0  0  0
 51 66  1  0  0  0  0
 52 67  1  0  0  0  0
 53 67  1  0  0  0  0
 54 67  1  0  0  0  0
 55 79  1  0  0  0  0
 56 59  1  0  0  0  0
 57 62  1  0  0  0  0
 58 60  1  0  0  0  0
 59 63  1  0  0  0  0
 60 61  1  0  0  0  0
 61 66  1  0  0  0  0
 62 78  1  0  0  0  0
 63 86  1  0  0  0  0
 64 67  1  0  0  0  0
 64 77  1  0  0  0  0
 65 79  1  0  0  0  0
 69 71  1  0  0  0  0
M  CHG  1  79   1
M  ISO  4  36 100  63 101  78 100  86 101
M  END
> <Batch ID>
0093

> <Smiles>
CNC(C)C(=O)NC(C(=O)N1Cc2cc([101O:1][101CH2:1]CCc3cnc(CCCC(C)C)nc3CC[100NH:0][100C:0](=O)N3CCCC(n4nc(-c5ccc(Oc6ccc(F)cc6F)cc5)c(C(N)=O)c4N)C3)ccc2CC1C(=O)NC1CCCc2ccccc21)C(C)(C)C

> <Shape>
0.278

> <Color>
0.186

> <Negative vol penalty>
0.000

$$$$

  -OEChem-04052319163D

 87 95  0     1  0  0  0  0  0999 V2000
  -17.7145  -30.3139   23.4961 C   0  0  0  0  0  0  0  0  0  0  0  0
  -19.0782  -30.3787   23.2285 C   0  0  0  0  0  0  0  0  0  0  0  0
  -25.8779  -14.8842   22.3629 C   0  0  0  0  0  0  0  0  0  0  0  0
  -25.6968  -14.2076   20.0507 C   0  0  0  0  0  0  0  0  0  0  0  0
  -17.0849  -29.0747   23.6056 C   0  0  0  0  0  0  0  0  0  0  0  0
  -19.8133  -29.2043   23.0713 C   0  0  0  0  0  0  0  0  0  0  0  0
  -24.5566  -28.3067   19.3028 C   0  0  0  0  0  0  0  0  0  0  0  0
  -24.8394  -14.0156   22.6985 C   0  0  0  0  0  0  0  0  0  0  0  0
  -24.6583  -13.3390   20.3862 C   0  0  0  0  0  0  0  0  0  0  0  0
  -25.9353  -28.3264   19.5091 C   0  0  0  0  0  0  0  0  0  0  0  0
  -22.2010  -10.6770   20.6925 C   0  0  0  0  0  0  0  0  0  0  0  0
  -22.2307   -9.3908   20.1536 C   0  0  0  0  0  0  0  0  0  0  0  0
  -25.9242  -25.9285   19.7719 C   0  0  0  0  0  0  0  0  0  0  0  0
  -24.3534   -8.9869   21.2342 C   0  0  0  0  0  0  0  0  0  0  0  0
  -28.2778  -25.6651   15.4515 C   0  0  0  0  0  0  0  0  0  0  0  0
  -26.3066  -14.9803   21.0390 C   0  0  0  0  0  0  0  0  0  0  0  0
  -28.7563  -15.5879   20.6685 C   0  0  0  0  0  0  0  0  0  0  0  0
  -17.8108  -27.8846   23.4401 C   0  0  0  0  0  0  0  0  0  0  0  0
  -23.8485  -27.0969   19.3404 C   0  0  0  0  0  0  0  0  0  0  0  0
  -19.1931  -27.9480   23.1801 C   0  0  0  0  0  0  0  0  0  0  0  0
  -24.5369  -25.8958   19.5633 C   0  0  0  0  0  0  0  0  0  0  0  0
  -28.8992  -25.1528   14.3340 C   0  0  0  0  0  0  0  0  0  0  0  0
  -24.2296  -13.2430   21.7101 C   0  0  0  0  0  0  0  0  0  0  0  0
  -26.6189  -27.1375   19.7466 C   0  0  0  0  0  0  0  0  0  0  0  0
  -23.2476  -11.1182   21.5023 C   0  0  0  0  0  0  0  0  0  0  0  0
  -23.3068   -8.5457   20.4244 C   0  0  0  0  0  0  0  0  0  0  0  0
  -24.3238  -10.2731   21.7732 C   0  0  0  0  0  0  0  0  0  0  0  0
  -29.4808  -26.2405   13.6372 C   0  0  0  0  0  0  0  0  0  0  0  0
  -27.3789  -15.8778   20.6917 C   0  0  0  0  0  0  0  0  0  0  0  0
  -29.1972  -27.3845   14.3502 C   0  0  0  0  0  0  0  0  0  0  0  0
  -29.3482  -16.7639   20.2771 C   0  0  0  0  0  0  0  0  0  0  0  0
  -29.4396  -14.3648   20.9733 C   0  0  0  0  0  0  0  0  0  0  0  0
  -21.5210  -25.9155   21.1544 C   0  0  0  0  0  0  0  0  0  0  0  0
  -21.6257  -23.4756   19.0195 C   0  0  0  0  0  0  0  0  0  0  0  0
  -23.4240  -21.7239   16.7076 C   0  0  0  0  0  0  0  0  0  0  0  0
  -29.5867  -21.0845   16.9270 C   0  0  0  0  0  0  0  0  0  0  0  0
  -17.0960  -26.5681   23.6144 C   0  0  0  0  0  0  0  0  0  0  0  0
  -22.3655  -27.0896   19.0894 C   0  0  0  0  0  0  0  0  0  0  0  0
  -23.8262  -24.5683   19.5933 C   0  0  0  0  0  0  0  0  0  0  0  0
  -17.8730  -25.3754   23.0629 C   0  0  0  0  0  0  0  0  0  0  0  0
  -27.4313  -21.4225   19.8145 C   0  0  0  0  0  0  0  0  0  0  0  0
  -19.3301  -25.4345   23.5104 C   0  0  0  0  0  0  0  0  0  0  0  0
  -27.3415  -19.9741   20.2983 C   0  0  0  0  0  0  0  0  0  0  0  0
  -27.4503  -21.4962   18.2906 C   0  0  0  0  0  0  0  0  0  0  0  0
  -28.4413  -19.2454   18.1305 C   0  0  0  0  0  0  0  0  0  0  0  0
  -20.0198  -26.6966   22.9785 C   0  0  1  0  0  0  0  0  0  0  0  0
  -21.6689  -25.8582   19.6603 C   0  0  1  0  0  0  0  0  0  0  0  0
  -28.4409  -19.1021   19.6633 C   0  0  2  0  0  0  0  0  0  0  0  0
  -29.5558  -28.7939   14.0805 C   0  0  0  0  0  0  0  0  0  0  0  0
  -23.2543  -19.7581   15.1571 C   0  0  0  0  0  0  0  0  0  0  0  0
  -30.7244  -28.0412   19.2649 C   0  0  0  0  0  0  0  0  0  0  0  0
  -29.4690  -25.2879   19.7957 C   0  0  0  0  0  0  0  0  0  0  0  0
  -21.9494  -21.5814   21.3896 C   0  0  0  0  0  0  0  0  0  0  0  0
  -22.7150  -19.8176   19.7861 C   0  0  0  0  0  0  0  0  0  0  0  0
  -20.4118  -20.7570   19.5977 C   0  0  0  0  0  0  0  0  0  0  0  0
  -23.8705  -23.4187   14.3228 C   0  0  0  0  0  0  0  0  0  0  0  0
  -28.9369  -23.7266   13.9513 C   0  0  0  0  0  0  0  0  0  0  0  0
  -30.2569  -22.9944   14.2920 C   0  0  0  0  0  0  0  0  0  0  0  0
  -29.0123  -28.4557   17.4912 C   0  0  0  0  0  0  0  0  0  0  0  0
  -27.9406  -27.9584   16.5107 C   0  0  0  0  0  0  0  0  0  0  0  0
  -30.6211  -23.0234   15.7749 C   0  0  0  0  0  0  0  0  0  0  0  0
  -22.3893  -22.1774   18.9163 C   0  0  1  0  0  0  0  0  0  0  0  0
  -23.0799  -21.2617   15.3032 C   0  0  2  0  0  0  0  0  0  0  0  0
  -29.7447  -27.3555   18.2996 C   0  0  2  0  0  0  0  0  0  0  0  0
  -28.7679  -26.4089   19.0348 C   0  0  2  0  0  0  0  0  0  1  0  0
  -21.8798  -21.1084   19.9238 C   0  0  0  0  0  0  0  0  0  0  0  0
  -27.1115  -17.1392   20.3430 N   0  0  0  0  0  0  0  0  0  0  0  0
  -28.4658  -27.0226   15.4511 N   0  0  0  0  0  0  0  0  0  0  0  0
  -28.3290  -17.6522   20.0971 N   0  0  0  0  0  0  0  0  0  0  0  0
  -22.3752  -24.6139   19.3486 N   0  0  0  0  0  0  0  0  0  0  0  0
  -28.5308  -20.6591   17.7503 N   0  0  0  0  0  0  0  0  0  0  0  0
  -30.6357  -17.1144   20.0729 N   0  0  0  0  0  0  0  0  0  0  0  0
  -28.6789  -13.2527   21.3591 N   0  0  0  0  0  0  0  0  0  0  0  0
  -20.3620  -26.5350   21.5817 N   0  0  0  0  0  0  0  0  0  0  0  0
  -22.3097  -21.7670   17.5186 N   0  0  0  0  0  0  0  0  0  0  0  0
  -29.5949  -22.4368   16.6078 N   0  0  0  0  0  0  0  0  0  0  0  0
  -23.9588  -21.9358   14.3061 N   0  3  0  0  0  0  0  0  0  0  0  0
  -30.6891  -14.2659   20.9214 O   0  0  0  0  0  0  0  0  0  0  0  0
  -22.3930  -25.4322   21.8669 O   0  0  0  0  0  0  0  0  0  0  0  0
  -20.4103  -23.4807   18.8087 O   0  0  0  0  0  0  0  0  0  0  0  0
  -24.5676  -22.0139   17.0520 O   0  0  0  0  0  0  0  0  0  0  0  0
  -30.4611  -20.3166   16.5113 O   0  0  0  0  0  0  0  0  0  0  0  0
  -23.2164  -12.3951   22.0372 O   0  0  0  0  0  0  0  0  0  0  0  0
  -27.9645  -27.1540   19.9489 O   0  0  0  0  0  0  0  0  0  1  0  0
  -23.3344   -7.3101   19.9081 F   0  0  0  0  0  0  0  0  0  0  0  0
  -25.3316  -10.6909   22.5514 F   0  0  0  0  0  0  0  0  0  0  0  0
  -30.3592  -26.1267   12.1856 Cl  0  0  0  0  0  0  0  0  0  0  0  0
  1  2  1  0  0  0  0
  1  5  2  0  0  0  0
  2  6  2  0  0  0  0
  3  8  2  0  0  0  0
  3 16  1  0  0  0  0
  4  9  1  0  0  0  0
  4 16  2  0  0  0  0
  5 18  1  0  0  0  0
  6 20  1  0  0  0  0
  7 10  2  0  0  0  0
  7 19  1  0  0  0  0
  8 23  1  0  0  0  0
  9 23  2  0  0  0  0
 10 24  1  0  0  0  0
 11 12  2  0  0  0  0
 11 25  1  0  0  0  0
 12 26  1  0  0  0  0
 13 21  1  0  0  0  0
 13 24  2  0  0  0  0
 14 26  2  0  0  0  0
 14 27  1  0  0  0  0
 15 22  2  0  0  0  0
 15 68  1  0  0  0  0
 16 29  1  0  0  0  0
 17 29  1  0  0  0  0
 17 31  2  0  0  0  0
 17 32  1  0  0  0  0
 18 20  2  0  0  0  0
 18 37  1  0  0  0  0
 19 21  2  0  0  0  0
 19 38  1  0  0  0  0
 20 46  1  0  0  0  0
 21 39  1  0  0  0  0
 22 28  1  0  0  0  0
 22 57  1  0  0  0  0
 23 83  1  0  0  0  0
 24 84  1  0  0  0  0
 25 27  2  0  0  0  0
 25 83  1  0  0  0  0
 26 85  1  0  0  0  0
 27 86  1  0  0  0  0
 28 30  2  0  0  0  0
 28 87  1  0  0  0  0
 29 67  2  0  0  0  0
 30 49  1  0  0  0  0
 30 68  1  0  0  0  0
 31 69  1  0  0  0  0
 31 72  1  0  0  0  0
 32 73  1  0  0  0  0
 32 78  2  0  0  0  0
 33 47  1  0  0  0  0
 33 74  1  0  0  0  0
 33 79  2  0  0  0  0
 34 62  1  0  0  0  0
 34 70  1  0  0  0  0
 34 80  2  0  0  0  0
 35 63  1  0  0  0  0
 35 75  1  0  0  0  0
 35 81  2  0  0  0  0
 36 71  1  0  0  0  0
 36 76  1  0  0  0  0
 36 82  2  0  0  0  0
 37 40  1  0  0  0  0
 38 47  1  0  0  0  0
 39 70  1  0  0  0  0
 40 42  1  0  0  0  0
 41 43  1  0  0  0  0
 41 44  1  0  0  0  0
 42 46  1  0  0  0  0
 43 48  1  0  0  0  0
 44 71  1  0  0  0  0
 45 48  1  0  0  0  0
 45 71  1  0  0  0  0
 46 74  1  0  0  0  0
 47 70  1  0  0  0  0
 48 69  1  0  0  0  0
 50 63  1  0  0  0  0
 51 64  1  0  0  0  0
 52 65  1  0  0  0  0
 53 66  1  0  0  0  0
 54 66  1  0  0  0  0
 55 66  1  0  0  0  0
 56 77  1  0  0  0  0
 57 58  1  0  0  0  0
 58 61  1  0  0  0  0
 59 60  1  0  0  0  0
 59 64  1  0  0  0  0
 60 68  1  0  0  0  0
 61 76  1  0  0  0  0
 62 66  1  0  0  0  0
 62 75  1  0  0  0  0
 63 77  1  0  0  0  0
 64 65  1  0  0  0  0
 65 84  1  0  0  0  0
 67 69  1  0  0  0  0
M  CHG  1  77   1
M  ISO  4  36 100  65 101  76 100  84 101
M  END
> <Batch ID>
0093

> <Smiles>
CNC(C)C(=O)NC(C(=O)N1Cc2cc([101O:1][101CH:1](C)C(C)CCn3cc(CCC[100NH:0][100C:0](=O)N4CCCC(n5nc(-c6ccc(Oc7ccc(F)cc7F)cc6)c(C(N)=O)c5N)C4)c(Cl)c3C)ccc2CC1C(=O)NC1CCCc2ccccc21)C(C)(C)C

> <Shape>
0.230

> <Color>
0.059

> <Negative vol penalty>
0.000

$$$$

  -OEChem-04052319163D

 83 91  0     1  0  0  0  0  0999 V2000
  -31.7130  -22.2785   23.2587 C   0  0  0  0  0  0  0  0  0  0  0  0
  -30.8823  -23.3479   22.9398 C   0  0  0  0  0  0  0  0  0  0  0  0
  -29.3619  -17.2199   19.0069 C   0  0  0  0  0  0  0  0  0  0  0  0
  -30.5199  -17.8918   21.0181 C   0  0  0  0  0  0  0  0  0  0  0  0
  -31.1936  -21.1673   23.9216 C   0  0  0  0  0  0  0  0  0  0  0  0
  -29.5314  -23.3063   23.2827 C   0  0  0  0  0  0  0  0  0  0  0  0
  -26.0195  -28.0243   24.9896 C   0  0  0  0  0  0  0  0  0  0  0  0
  -29.9698  -15.9664   19.0756 C   0  0  0  0  0  0  0  0  0  0  0  0
  -31.1277  -16.6382   21.0868 C   0  0  0  0  0  0  0  0  0  0  0  0
  -25.1089  -28.8165   24.2918 C   0  0  0  0  0  0  0  0  0  0  0  0
  -30.9390  -12.4661   18.9226 C   0  0  0  0  0  0  0  0  0  0  0  0
  -30.1382  -11.3443   18.7081 C   0  0  0  0  0  0  0  0  0  0  0  0
  -23.3034  -27.4232   25.0781 C   0  0  0  0  0  0  0  0  0  0  0  0
  -28.7600  -11.9679   20.5920 C   0  0  0  0  0  0  0  0  0  0  0  0
  -25.9634  -27.4612   20.9443 C   0  0  0  0  0  0  0  0  0  0  0  0
  -29.6370  -18.1827   19.9781 C   0  0  0  0  0  0  0  0  0  0  0  0
  -27.7846  -19.8618   20.4847 C   0  0  0  0  0  0  0  0  0  0  0  0
  -29.8377  -21.1162   24.2814 C   0  0  0  0  0  0  0  0  0  0  0  0
  -25.5793  -26.9172   25.7294 C   0  0  0  0  0  0  0  0  0  0  0  0
  -28.9930  -22.1929   23.9499 C   0  0  0  0  0  0  0  0  0  0  0  0
  -24.2102  -26.6201   25.7866 C   0  0  0  0  0  0  0  0  0  0  0  0
  -27.1956  -28.0089   20.6631 C   0  0  0  0  0  0  0  0  0  0  0  0
  -26.9910  -29.0529   19.7275 C   0  0  0  0  0  0  0  0  0  0  0  0
  -30.8527  -15.6755   20.1156 C   0  0  0  0  0  0  0  0  0  0  0  0
  -23.7509  -28.5143   24.3336 C   0  0  0  0  0  0  0  0  0  0  0  0
  -30.6504  -13.3387   19.9719 C   0  0  0  0  0  0  0  0  0  0  0  0
  -29.0487  -11.0953   19.5427 C   0  0  0  0  0  0  0  0  0  0  0  0
  -29.5609  -13.0897   20.8065 C   0  0  0  0  0  0  0  0  0  0  0  0
  -29.0098  -19.4779   19.9074 C   0  0  0  0  0  0  0  0  0  0  0  0
  -25.6399  -29.1115   19.4656 C   0  0  0  0  0  0  0  0  0  0  0  0
  -27.6364  -21.1806   20.1305 C   0  0  0  0  0  0  0  0  0  0  0  0
  -26.8629  -19.0950   21.2710 C   0  0  0  0  0  0  0  0  0  0  0  0
  -26.0929  -23.7832   25.5970 C   0  0  0  0  0  0  0  0  0  0  0  0
  -24.3631  -23.7776   28.3411 C   0  0  0  0  0  0  0  0  0  0  0  0
  -22.0441  -25.3280   30.3072 C   0  0  0  0  0  0  0  0  0  0  0  0
  -29.7298  -26.3153   19.5002 C   0  0  0  0  0  0  0  0  0  0  0  0
  -29.3117  -19.8736   24.9550 C   0  0  0  0  0  0  0  0  0  0  0  0
  -26.5715  -26.0885   26.4983 C   0  0  0  0  0  0  0  0  0  0  0  0
  -23.6843  -25.4546   26.5826 C   0  0  0  0  0  0  0  0  0  0  0  0
  -27.9497  -20.0692   25.6161 C   0  0  0  0  0  0  0  0  0  0  0  0
  -30.2177  -24.0128   16.8287 C   0  0  0  0  0  0  0  0  0  0  0  0
  -26.9983  -20.7985   24.6728 C   0  0  0  0  0  0  0  0  0  0  0  0
  -29.8520  -22.6594   17.4409 C   0  0  0  0  0  0  0  0  0  0  0  0
  -30.9212  -24.9172   17.8382 C   0  0  0  0  0  0  0  0  0  0  0  0
  -29.8292  -23.7583   19.7192 C   0  0  0  0  0  0  0  0  0  0  0  0
  -27.5275  -22.1956   24.3272 C   0  0  1  0  0  0  0  0  0  0  0  0
  -26.0668  -24.6811   26.8014 C   0  0  1  0  0  0  0  0  0  0  0  0
  -29.0677  -22.8322   18.7555 C   0  0  2  0  0  0  0  0  0  0  0  0
  -28.0326  -29.9202   19.1396 C   0  0  0  0  0  0  0  0  0  0  0  0
  -24.8799  -30.0093   18.5703 C   0  0  0  0  0  0  0  0  0  0  0  0
  -20.8051  -25.0638   32.4734 C   0  0  0  0  0  0  0  0  0  0  0  0
  -21.9618  -30.3091   21.6767 C   0  0  0  0  0  0  0  0  0  0  0  0
  -22.5521  -21.6900   27.0479 C   0  0  0  0  0  0  0  0  0  0  0  0
  -20.8511  -22.1683   28.8216 C   0  0  0  0  0  0  0  0  0  0  0  0
  -23.0873  -21.2607   29.4528 C   0  0  0  0  0  0  0  0  0  0  0  0
  -23.1991  -27.8216   31.4058 C   0  0  0  0  0  0  0  0  0  0  0  0
  -28.4860  -27.5782   21.2372 C   0  0  0  0  0  0  0  0  0  0  0  0
  -22.9111  -27.9744   21.6259 C   0  0  0  0  0  0  0  0  0  0  0  0
  -23.5464  -27.8459   20.2339 C   0  0  0  0  0  0  0  0  0  0  0  0
  -22.8967  -23.6605   28.6802 C   0  0  1  0  0  0  0  0  0  0  0  0
  -22.0331  -25.6466   31.7914 C   0  0  2  0  0  0  0  0  0  0  0  0
  -23.0268  -29.3757   22.2385 C   0  0  2  0  0  0  0  0  0  1  0  0
  -22.3566  -22.2158   28.4840 C   0  0  0  0  0  0  0  0  0  0  0  0
  -29.5980  -20.4723   19.2371 N   0  0  0  0  0  0  0  0  0  0  0  0
  -25.0252  -28.1396   20.2110 N   0  0  0  0  0  0  0  0  0  0  0  0
  -28.7387  -21.4941   19.3910 N   0  0  0  0  0  0  0  0  0  0  0  0
  -24.6945  -24.6706   27.3122 N   0  0  0  0  0  0  0  0  0  0  0  0
  -30.1247  -25.0408   19.0614 N   0  0  0  0  0  0  0  0  0  0  0  0
  -26.6720  -22.0910   20.3825 N   0  0  0  0  0  0  0  0  0  0  0  0
  -27.1696  -17.7544   21.5414 N   0  0  0  0  0  0  0  0  0  0  0  0
  -27.2879  -23.1119   25.4215 N   0  0  0  0  0  0  0  0  0  0  0  0
  -22.7494  -24.1742   30.0377 N   0  0  0  0  0  0  0  0  0  0  0  0
  -28.9719  -26.3426   20.6645 N   0  0  0  0  0  0  0  0  0  0  0  0
  -22.0336  -27.1215   32.0046 N   0  3  0  0  0  0  0  0  0  0  0  0
  -25.7910  -19.5795   21.7067 O   0  0  0  0  0  0  0  0  0  0  0  0
  -25.1017  -23.7040   24.8808 O   0  0  0  0  0  0  0  0  0  0  0  0
  -25.1848  -23.1070   28.9708 O   0  0  0  0  0  0  0  0  0  0  0  0
  -21.4801  -26.0302   29.4710 O   0  0  0  0  0  0  0  0  0  0  0  0
  -30.0259  -27.3518   18.8960 O   0  0  0  0  0  0  0  0  0  0  0  0
  -31.4459  -14.4524   20.1831 O   0  0  0  0  0  0  0  0  0  0  0  0
  -22.8600  -29.2855   23.6529 O   0  0  0  0  0  0  0  0  0  1  0  0
  -28.2789  -10.0189   19.3356 F   0  0  0  0  0  0  0  0  0  0  0  0
  -29.2779  -13.9250   21.8154 F   0  0  0  0  0  0  0  0  0  0  0  0
  1  2  1  0  0  0  0
  1  5  2  0  0  0  0
  2  6  2  0  0  0  0
  3  8  2  0  0  0  0
  3 16  1  0  0  0  0
  4  9  1  0  0  0  0
  4 16  2  0  0  0  0
  5 18  1  0  0  0  0
  6 20  1  0  0  0  0
  7 10  2  0  0  0  0
  7 19  1  0  0  0  0
  8 24  1  0  0  0  0
  9 24  2  0  0  0  0
 10 25  1  0  0  0  0
 11 12  2  0  0  0  0
 11 26  1  0  0  0  0
 12 27  1  0  0  0  0
 13 21  1  0  0  0  0
 13 25  2  0  0  0  0
 14 27  2  0  0  0  0
 14 28  1  0  0  0  0
 15 22  2  0  0  0  0
 15 65  1  0  0  0  0
 16 29  1  0  0  0  0
 17 29  1  0  0  0  0
 17 31  2  0  0  0  0
 17 32  1  0  0  0  0
 18 20  2  0  0  0  0
 18 37  1  0  0  0  0
 19 21  2  0  0  0  0
 19 38  1  0  0  0  0
 20 46  1  0  0  0  0
 21 39  1  0  0  0  0
 22 23  1  0  0  0  0
 22 57  1  0  0  0  0
 23 30  2  0  0  0  0
 23 49  1  0  0  0  0
 24 80  1  0  0  0  0
 25 81  1  0  0  0  0
 26 28  2  0  0  0  0
 26 80  1  0  0  0  0
 27 82  1  0  0  0  0
 28 83  1  0  0  0  0
 29 64  2  0  0  0  0
 30 50  1  0  0  0  0
 30 65  1  0  0  0  0
 31 66  1  0  0  0  0
 31 69  1  0  0  0  0
 32 70  1  0  0  0  0
 32 75  2  0  0  0  0
 33 47  1  0  0  0  0
 33 71  1  0  0  0  0
 33 76  2  0  0  0  0
 34 60  1  0  0  0  0
 34 67  1  0  0  0  0
 34 77  2  0  0  0  0
 35 61  1  0  0  0  0
 35 72  1  0  0  0  0
 35 78  2  0  0  0  0
 36 68  1  0  0  0  0
 36 73  1  0  0  0  0
 36 79  2  0  0  0  0
 37 40  1  0  0  0  0
 38 47  1  0  0  0  0
 39 67  1  0  0  0  0
 40 42  1  0  0  0  0
 41 43  1  0  0  0  0
 41 44  1  0  0  0  0
 42 46  1  0  0  0  0
 43 48  1  0  0  0  0
 44 68  1  0  0  0  0
 45 48  1  0  0  0  0
 45 68  1  0  0  0  0
 46 71  1  0  0  0  0
 47 67  1  0  0  0  0
 48 66  1  0  0  0  0
 51 61  1  0  0  0  0
 52 62  1  0  0  0  0
 53 63  1  0  0  0  0
 54 63  1  0  0  0  0
 55 63  1  0  0  0  0
 56 74  1  0  0  0  0
 57 73  1  0  0  0  0
 58 59  1  0  0  0  0
 58 62  1  0  0  0  0
 59 65  1  0  0  0  0
 60 63  1  0  0  0  0
 60 72  1  0  0  0  0
 61 74  1  0  0  0  0
 62 81  1  0  0  0  0
 64 66  1  0  0  0  0
M  CHG  1  74   1
M  ISO  4  36 100  62 101  73 100  81 101
M  END
> <Batch ID>
0093

> <Smiles>
CNC(C)C(=O)NC(C(=O)N1Cc2cc([101O:1][101CH:1](C)CCn3cc(C[100NH:0][100C:0](=O)N4CCCC(n5nc(-c6ccc(Oc7ccc(F)cc7F)cc6)c(C(N)=O)c5N)C4)c(C)c3C)ccc2CC1C(=O)NC1CCCc2ccccc21)C(C)(C)C

> <Shape>
0.207

> <Color>
0.065

> <Negative vol penalty>
0.000

$$$$

  -OEChem-04052319163D

 87 95  0     1  0  0  0  0  0999 V2000
  -13.8456  -19.2079   21.4252 C   0  0  0  0  0  0  0  0  0  0  0  0
  -14.9656  -18.7384   22.1037 C   0  0  0  0  0  0  0  0  0  0  0  0
  -23.5045  -29.8341   21.2612 C   0  0  0  0  0  0  0  0  0  0  0  0
  -25.7912  -30.1062   21.9919 C   0  0  0  0  0  0  0  0  0  0  0  0
  -13.7886  -19.1245   20.0346 C   0  0  0  0  0  0  0  0  0  0  0  0
  -16.0290  -18.1841   21.3920 C   0  0  0  0  0  0  0  0  0  0  0  0
  -23.1632  -17.5680   21.5930 C   0  0  0  0  0  0  0  0  0  0  0  0
  -23.1169  -30.8956   22.0788 C   0  0  0  0  0  0  0  0  0  0  0  0
  -25.4036  -31.1678   22.8095 C   0  0  0  0  0  0  0  0  0  0  0  0
  -24.1626  -16.5979   21.5316 C   0  0  0  0  0  0  0  0  0  0  0  0
  -24.6582  -34.4441   22.4487 C   0  0  0  0  0  0  0  0  0  0  0  0
  -25.4487  -35.5933   22.4344 C   0  0  0  0  0  0  0  0  0  0  0  0
  -23.9874  -16.5781   19.1258 C   0  0  0  0  0  0  0  0  0  0  0  0
  -25.8691  -35.3334   24.7993 C   0  0  0  0  0  0  0  0  0  0  0  0
  -28.8066  -18.0990   20.9830 C   0  0  0  0  0  0  0  0  0  0  0  0
  -24.8417  -29.4393   21.2178 C   0  0  0  0  0  0  0  0  0  0  0  0
  -25.6633  -28.4118   19.0322 C   0  0  0  0  0  0  0  0  0  0  0  0
  -14.8559  -18.5778   19.3048 C   0  0  0  0  0  0  0  0  0  0  0  0
  -22.5597  -18.0433   20.4198 C   0  0  0  0  0  0  0  0  0  0  0  0
  -15.9857  -18.0921   19.9905 C   0  0  0  0  0  0  0  0  0  0  0  0
  -22.9824  -17.5561   19.1748 C   0  0  0  0  0  0  0  0  0  0  0  0
  -24.0665  -31.5625   22.8529 C   0  0  0  0  0  0  0  0  0  0  0  0
  -24.5729  -16.1007   20.2981 C   0  0  0  0  0  0  0  0  0  0  0  0
  -24.4731  -33.7397   23.6383 C   0  0  0  0  0  0  0  0  0  0  0  0
  -26.0541  -36.0379   23.6097 C   0  0  0  0  0  0  0  0  0  0  0  0
  -25.0785  -34.1843   24.8136 C   0  0  0  0  0  0  0  0  0  0  0  0
  -25.2426  -28.3424   20.3738 C   0  0  0  0  0  0  0  0  0  0  0  0
  -29.5309  -18.8452   20.0968 C   0  0  0  0  0  0  0  0  0  0  0  0
  -25.9292  -27.1090   18.6879 C   0  0  0  0  0  0  0  0  0  0  0  0
  -30.8350  -17.2226   20.8497 C   0  0  0  0  0  0  0  0  0  0  0  0
  -25.8014  -29.5519   18.1739 C   0  0  0  0  0  0  0  0  0  0  0  0
  -19.6047  -18.0191   19.2488 C   0  0  0  0  0  0  0  0  0  0  0  0
  -20.9224  -19.8772   16.9393 C   0  0  0  0  0  0  0  0  0  0  0  0
  -23.7223  -20.8406   15.2425 C   0  0  0  0  0  0  0  0  0  0  0  0
  -28.2413  -22.2739   19.7938 C   0  0  0  0  0  0  0  0  0  0  0  0
  -14.7285  -18.4657   17.8062 C   0  0  0  0  0  0  0  0  0  0  0  0
  -21.5017  -19.1094   20.5014 C   0  0  0  0  0  0  0  0  0  0  0  0
  -22.3805  -18.0482   17.8848 C   0  0  0  0  0  0  0  0  0  0  0  0
  -16.0568  -18.2070   17.0997 C   0  0  0  0  0  0  0  0  0  0  0  0
  -24.9101  -22.7872   21.1117 C   0  0  0  0  0  0  0  0  0  0  0  0
  -16.8339  -17.1039   17.8111 C   0  0  0  0  0  0  0  0  0  0  0  0
  -24.7374  -24.2954   20.9230 C   0  0  0  0  0  0  0  0  0  0  0  0
  -26.3410  -22.4405   21.5124 C   0  0  0  0  0  0  0  0  0  0  0  0
  -27.2121  -24.4502   20.3829 C   0  0  0  0  0  0  0  0  0  0  0  0
  -17.1699  -17.5070   19.2520 C   0  0  1  0  0  0  0  0  0  0  0  0
  -20.5963  -19.1477   19.2741 C   0  0  1  0  0  0  0  0  0  0  0  0
  -25.7922  -24.8634   19.9550 C   0  0  2  0  0  0  0  0  0  0  0  0
  -33.2227  -17.1137   21.6501 C   0  0  0  0  0  0  0  0  0  0  0  0
  -32.4554  -15.6240   19.7668 C   0  0  0  0  0  0  0  0  0  0  0  0
  -24.4785  -22.3480   13.3842 C   0  0  0  0  0  0  0  0  0  0  0  0
  -27.6897  -13.1644   20.2752 C   0  0  0  0  0  0  0  0  0  0  0  0
  -19.7923  -17.9169   14.8924 C   0  0  0  0  0  0  0  0  0  0  0  0
  -21.3402  -18.9077   13.1923 C   0  0  0  0  0  0  0  0  0  0  0  0
  -19.5846  -20.3261   14.2547 C   0  0  0  0  0  0  0  0  0  0  0  0
  -25.4854  -22.3806   17.0532 C   0  0  0  0  0  0  0  0  0  0  0  0
  -28.9991  -14.6591   21.8044 C   0  0  0  0  0  0  0  0  0  0  0  0
  -29.2547  -16.0372   22.4302 C   0  0  0  0  0  0  0  0  0  0  0  0
  -28.5898  -19.6739   17.9161 C   0  0  0  0  0  0  0  0  0  0  0  0
  -26.5350  -15.1681   21.2657 C   0  0  0  0  0  0  0  0  0  1  0  0
  -29.1737  -20.0265   19.3071 C   0  0  1  0  0  0  0  0  0  0  0  0
  -32.0193  -16.3521   21.0556 C   0  0  0  0  0  0  0  0  0  0  0  0
  -21.5958  -19.6180   15.6133 C   0  0  1  0  0  0  0  0  0  0  0  0
  -24.2597  -22.2141   14.8832 C   0  0  2  0  0  0  0  0  0  0  0  0
  -27.8696  -14.6114   20.7519 C   0  0  2  0  0  0  0  0  0  0  0  0
  -20.5884  -19.1813   14.5124 C   0  0  0  0  0  0  0  0  0  0  0  0
  -25.2397  -27.0943   20.8494 N   0  0  0  0  0  0  0  0  0  0  0  0
  -29.6380  -17.1017   21.4329 N   0  0  0  0  0  0  0  0  0  0  0  0
  -25.6617  -26.3674   19.8009 N   0  0  0  0  0  0  0  0  0  0  0  0
  -30.7820  -18.2805   20.0341 N   0  3  0  0  0  0  0  0  0  0  0  0
  -21.3451  -19.0865   18.0172 N   0  0  0  0  0  0  0  0  0  0  0  0
  -27.2941  -22.9943   20.5403 N   0  0  0  0  0  0  0  0  0  0  0  0
  -26.3633  -26.5369   17.5448 N   0  0  0  0  0  0  0  0  0  0  0  0
  -25.4859  -30.8172   18.6876 N   0  0  0  0  0  0  0  0  0  0  0  0
  -18.2853  -18.4289   19.2719 N   0  0  0  0  0  0  0  0  0  0  0  0
  -22.3444  -20.8283   15.2921 N   0  0  0  0  0  0  0  0  0  0  0  0
  -28.2587  -20.9009   20.0066 N   0  0  0  0  0  0  0  0  0  0  0  0
  -27.3337  -18.8907   18.0408 N   0  3  0  0  0  0  0  0  0  0  0  0
  -25.5588  -22.4583   15.5715 N   0  3  0  0  0  0  0  0  0  0  0  0
  -26.1773  -29.4498   16.9815 O   0  0  0  0  0  0  0  0  0  0  0  0
  -20.0069  -16.8623   19.2096 O   0  0  0  0  0  0  0  0  0  0  0  0
  -20.0583  -20.7541   17.0175 O   0  0  0  0  0  0  0  0  0  0  0  0
  -24.4517  -19.8743   15.4541 O   0  0  0  0  0  0  0  0  0  0  0  0
  -29.0115  -22.8139   18.9923 O   0  0  0  0  0  0  0  0  0  0  0  0
  -23.6886  -32.5985   23.6507 O   0  0  0  0  0  0  0  0  0  0  0  0
  -25.5477  -15.1533   20.2355 O   0  0  0  0  0  0  0  0  0  1  0  0
  -26.8145  -37.1406   23.5955 F   0  0  0  0  0  0  0  0  0  0  0  0
  -24.9054  -33.5110   25.9593 F   0  0  0  0  0  0  0  0  0  0  0  0
  1  2  1  0  0  0  0
  1  5  2  0  0  0  0
  2  6  2  0  0  0  0
  3  8  2  0  0  0  0
  3 16  1  0  0  0  0
  4  9  1  0  0  0  0
  4 16  2  0  0  0  0
  5 18  1  0  0  0  0
  6 20  1  0  0  0  0
  7 10  2  0  0  0  0
  7 19  1  0  0  0  0
  8 22  1  0  0  0  0
  9 22  2  0  0  0  0
 10 23  1  0  0  0  0
 11 12  2  0  0  0  0
 11 24  1  0  0  0  0
 12 25  1  0  0  0  0
 13 21  1  0  0  0  0
 13 23  2  0  0  0  0
 14 25  2  0  0  0  0
 14 26  1  0  0  0  0
 15 28  2  0  0  0  0
 15 67  1  0  0  0  0
 16 27  1  0  0  0  0
 17 27  1  0  0  0  0
 17 29  2  0  0  0  0
 17 31  1  0  0  0  0
 18 20  2  0  0  0  0
 18 36  1  0  0  0  0
 19 21  2  0  0  0  0
 19 37  1  0  0  0  0
 20 45  1  0  0  0  0
 21 38  1  0  0  0  0
 22 84  1  0  0  0  0
 23 85  1  0  0  0  0
 24 26  2  0  0  0  0
 24 84  1  0  0  0  0
 25 86  1  0  0  0  0
 26 87  1  0  0  0  0
 27 66  2  0  0  0  0
 28 60  1  0  0  0  0
 28 69  1  0  0  0  0
 29 68  1  0  0  0  0
 29 72  1  0  0  0  0
 30 61  1  0  0  0  0
 30 67  1  0  0  0  0
 30 69  2  0  0  0  0
 31 73  1  0  0  0  0
 31 79  2  0  0  0  0
 32 46  1  0  0  0  0
 32 74  1  0  0  0  0
 32 80  2  0  0  0  0
 33 62  1  0  0  0  0
 33 70  1  0  0  0  0
 33 81  2  0  0  0  0
 34 63  1  0  0  0  0
 34 75  1  0  0  0  0
 34 82  2  0  0  0  0
 35 71  1  0  0  0  0
 35 76  1  0  0  0  0
 35 83  2  0  0  0  0
 36 39  1  0  0  0  0
 37 46  1  0  0  0  0
 38 70  1  0  0  0  0
 39 41  1  0  0  0  0
 40 42  1  0  0  0  0
 40 43  1  0  0  0  0
 41 45  1  0  0  0  0
 42 47  1  0  0  0  0
 43 71  1  0  0  0  0
 44 47  1  0  0  0  0
 44 71  1  0  0  0  0
 45 74  1  0  0  0  0
 46 70  1  0  0  0  0
 47 68  1  0  0  0  0
 48 61  1  0  0  0  0
 49 61  1  0  0  0  0
 50 63  1  0  0  0  0
 51 64  1  0  0  0  0
 52 65  1  0  0  0  0
 53 65  1  0  0  0  0
 54 65  1  0  0  0  0
 55 78  1  0  0  0  0
 56 57  1  0  0  0  0
 56 64  1  0  0  0  0
 57 67  1  0  0  0  0
 58 60  1  0  0  0  0
 58 77  1  0  0  0  0
 59 64  1  0  0  0  0
 59 85  1  0  0  0  0
 60 76  1  0  0  0  0
 62 65  1  0  0  0  0
 62 75  1  0  0  0  0
 63 78  1  0  0  0  0
 66 68  1  0  0  0  0
M  CHG  3  69   1  77   1  78   1
M  ISO  4  35 100  59 101  76 100  85 101
M  END
> <Batch ID>
0093

> <Smiles>
CNC(C)C(=O)NC(C(=O)N1Cc2cc([101O:1][101CH2:1]C(C)CCn3cc(C(CN)[100NH:0][100C:0](=O)N4CCCC(n5nc(-c6ccc(Oc7ccc(F)cc7F)cc6)c(C(N)=O)c5N)C4)nc3C(C)C)ccc2CC1C(=O)NC1CCCc2ccccc21)C(C)(C)C

> <Shape>
0.194

> <Color>
0.059

> <Negative vol penalty>
0.000

$$$$

  -OEChem-04052319163D

 80 88  0     1  0  0  0  0  0999 V2000
  -33.9219  -29.9277   11.4858 C   0  0  0  0  0  0  0  0  0  0  0  0
  -33.6817  -28.7118   12.1177 C   0  0  0  0  0  0  0  0  0  0  0  0
  -23.0767   -9.8544   19.9418 C   0  0  0  0  0  0  0  0  0  0  0  0
  -23.8302   -9.8755   22.2372 C   0  0  0  0  0  0  0  0  0  0  0  0
  -33.6784  -31.1230   12.1610 C   0  0  0  0  0  0  0  0  0  0  0  0
  -33.1989  -28.6906   13.4257 C   0  0  0  0  0  0  0  0  0  0  0  0
  -29.3244  -24.6166   15.8541 C   0  0  0  0  0  0  0  0  0  0  0  0
  -22.3593   -8.6838   20.1881 C   0  0  0  0  0  0  0  0  0  0  0  0
  -23.1128   -8.7049   22.4835 C   0  0  0  0  0  0  0  0  0  0  0  0
  -29.5262  -23.4847   16.6426 C   0  0  0  0  0  0  0  0  0  0  0  0
  -23.4827   -5.3915   21.9219 C   0  0  0  0  0  0  0  0  0  0  0  0
  -24.1201   -4.3797   22.6399 C   0  0  0  0  0  0  0  0  0  0  0  0
  -29.1024  -24.7957   18.6227 C   0  0  0  0  0  0  0  0  0  0  0  0
  -29.0092  -19.8382   19.9567 C   0  0  0  0  0  0  0  0  0  0  0  0
  -22.4106   -4.5108   24.3422 C   0  0  0  0  0  0  0  0  0  0  0  0
  -31.4105  -18.5498   20.0979 C   0  0  0  0  0  0  0  0  0  0  0  0
  -23.8122  -10.4502   20.9664 C   0  0  0  0  0  0  0  0  0  0  0  0
  -24.0952  -12.9829   20.8511 C   0  0  0  0  0  0  0  0  0  0  0  0
  -33.1833  -31.1165   13.4745 C   0  0  0  0  0  0  0  0  0  0  0  0
  -29.0203  -25.8511   16.4457 C   0  0  0  0  0  0  0  0  0  0  0  0
  -32.9499  -29.8869   14.1196 C   0  0  0  0  0  0  0  0  0  0  0  0
  -28.8947  -25.9413   17.8394 C   0  0  0  0  0  0  0  0  0  0  0  0
  -29.1818  -18.8167   20.8842 C   0  0  0  0  0  0  0  0  0  0  0  0
  -30.4023  -18.1553   20.9625 C   0  0  0  0  0  0  0  0  0  0  0  0
  -22.3773   -8.1090   21.4589 C   0  0  0  0  0  0  0  0  0  0  0  0
  -29.4181  -23.5747   18.0272 C   0  0  0  0  0  0  0  0  0  0  0  0
  -22.3093   -5.9630   22.4140 C   0  0  0  0  0  0  0  0  0  0  0  0
  -23.5840   -3.9393   23.8500 C   0  0  0  0  0  0  0  0  0  0  0  0
  -21.7732   -5.5227   23.6241 C   0  0  0  0  0  0  0  0  0  0  0  0
  -24.5539  -11.6591   20.7125 C   0  0  0  0  0  0  0  0  0  0  0  0
  -30.0799  -20.1575   19.1372 C   0  0  0  0  0  0  0  0  0  0  0  0
  -25.1705  -13.7582   20.4919 C   0  0  0  0  0  0  0  0  0  0  0  0
  -22.8120  -13.4682   21.2675 C   0  0  0  0  0  0  0  0  0  0  0  0
  -30.4306  -28.6980   16.5471 C   0  0  0  0  0  0  0  0  0  0  0  0
  -27.6944  -29.5662   18.0575 C   0  0  0  0  0  0  0  0  0  0  0  0
  -24.9803  -28.6286   19.9018 C   0  0  0  0  0  0  0  0  0  0  0  0
  -30.6285  -14.9048   20.6964 C   0  0  0  0  0  0  0  0  0  0  0  0
  -32.9802  -32.4337   14.1804 C   0  0  0  0  0  0  0  0  0  0  0  0
  -28.7792  -27.0570   15.5796 C   0  0  0  0  0  0  0  0  0  0  0  0
  -28.5502  -27.2388   18.5223 C   0  0  0  0  0  0  0  0  0  0  0  0
  -32.1140  -32.3265   15.4327 C   0  0  0  0  0  0  0  0  0  0  0  0
  -29.5531  -12.4981   18.3030 C   0  0  0  0  0  0  0  0  0  0  0  0
  -32.5582  -31.1453   16.2896 C   0  0  0  0  0  0  0  0  0  0  0  0
  -28.1218  -12.1702   18.7316 C   0  0  0  0  0  0  0  0  0  0  0  0
  -30.4617  -12.7384   19.5066 C   0  0  0  0  0  0  0  0  0  0  0  0
  -28.5398  -13.4227   20.8893 C   0  0  0  0  0  0  0  0  0  0  0  0
  -32.4028  -29.8228   15.5291 C   0  0  1  0  0  0  0  0  0  0  0  0
  -28.9807  -28.3750   16.3209 C   0  0  1  0  0  0  0  0  0  0  0  0
  -27.5730  -13.2272   19.7088 C   0  0  2  0  0  0  0  0  0  0  0  0
  -28.0476  -18.4487   21.7823 C   0  0  0  0  0  0  0  0  0  0  0  0
  -22.9388  -29.5667   21.0196 C   0  0  0  0  0  0  0  0  0  0  0  0
  -29.4340  -30.6556   20.3151 C   0  0  0  0  0  0  0  0  0  0  0  0
  -27.3975  -30.6969   21.7708 C   0  0  0  0  0  0  0  0  0  0  0  0
  -27.4843  -32.1004   19.7104 C   0  0  0  0  0  0  0  0  0  0  0  0
  -23.1694  -26.9975   18.2228 C   0  0  0  0  0  0  0  0  0  0  0  0
  -30.6408  -17.0543   21.9367 C   0  0  0  0  0  0  0  0  0  0  0  0
  -29.9298  -21.2542   18.1242 C   0  0  0  0  0  0  0  0  0  1  0  0
  -27.2285  -29.5946   19.4932 C   0  0  1  0  0  0  0  0  0  0  0  0
  -23.5030  -28.9440   19.7521 C   0  0  2  0  0  0  0  0  0  0  0  0
  -27.8945  -30.7377   20.3099 C   0  0  0  0  0  0  0  0  0  0  0  0
  -31.2803  -19.5374   19.1840 N   0  0  0  0  0  0  0  0  0  0  0  0
  -25.8217  -11.5935   20.2975 N   0  0  0  0  0  0  0  0  0  0  0  0
  -26.1689  -12.8858   20.1721 N   0  0  0  0  0  0  0  0  0  0  0  0
  -28.3301  -28.3910   17.6326 N   0  0  0  0  0  0  0  0  0  0  0  0
  -29.8849  -13.7524   20.3927 N   0  0  0  0  0  0  0  0  0  0  0  0
  -25.3500  -15.0943   20.4215 N   0  0  0  0  0  0  0  0  0  0  0  0
  -21.8207  -12.5351   21.6007 N   0  0  0  0  0  0  0  0  0  0  0  0
  -31.0166  -29.4072   15.5160 N   0  0  0  0  0  0  0  0  0  0  0  0
  -25.7718  -29.6625   19.4484 N   0  0  0  0  0  0  0  0  0  0  0  0
  -30.0056  -15.8180   21.5383 N   0  0  0  0  0  0  0  0  0  0  0  0
  -22.7353  -27.7012   19.4570 N   0  3  0  0  0  0  0  0  0  0  0  0
  -22.5469  -14.6929   21.3261 O   0  0  0  0  0  0  0  0  0  0  0  0
  -30.9769  -28.3321   17.5812 O   0  0  0  0  0  0  0  0  0  0  0  0
  -27.4951  -30.5478   17.3376 O   0  0  0  0  0  0  0  0  0  0  0  0
  -25.3910  -27.5722   20.3772 O   0  0  0  0  0  0  0  0  0  0  0  0
  -31.7612  -15.1074   20.2461 O   0  0  0  0  0  0  0  0  0  0  0  0
  -21.6772   -6.9669   21.6996 O   0  0  0  0  0  0  0  0  0  0  0  0
  -29.6152  -22.4715   18.7992 O   0  0  0  0  0  0  0  0  0  1  0  0
  -24.1954   -2.9666   24.5387 F   0  0  0  0  0  0  0  0  0  0  0  0
  -20.6455   -6.0671   24.1014 F   0  0  0  0  0  0  0  0  0  0  0  0
  1  2  1  0  0  0  0
  1  5  2  0  0  0  0
  2  6  2  0  0  0  0
  3  8  2  0  0  0  0
  3 17  1  0  0  0  0
  4  9  1  0  0  0  0
  4 17  2  0  0  0  0
  5 19  1  0  0  0  0
  6 21  1  0  0  0  0
  7 10  2  0  0  0  0
  7 20  1  0  0  0  0
  8 25  1  0  0  0  0
  9 25  2  0  0  0  0
 10 26  1  0  0  0  0
 11 12  2  0  0  0  0
 11 27  1  0  0  0  0
 12 28  1  0  0  0  0
 13 22  1  0  0  0  0
 13 26  2  0  0  0  0
 14 23  2  0  0  0  0
 14 31  1  0  0  0  0
 15 28  2  0  0  0  0
 15 29  1  0  0  0  0
 16 24  2  0  0  0  0
 16 61  1  0  0  0  0
 17 30  1  0  0  0  0
 18 30  1  0  0  0  0
 18 32  2  0  0  0  0
 18 33  1  0  0  0  0
 19 21  2  0  0  0  0
 19 38  1  0  0  0  0
 20 22  2  0  0  0  0
 20 39  1  0  0  0  0
 21 47  1  0  0  0  0
 22 40  1  0  0  0  0
 23 24  1  0  0  0  0
 23 50  1  0  0  0  0
 24 56  1  0  0  0  0
 25 77  1  0  0  0  0
 26 78  1  0  0  0  0
 27 29  2  0  0  0  0
 27 77  1  0  0  0  0
 28 79  1  0  0  0  0
 29 80  1  0  0  0  0
 30 62  2  0  0  0  0
 31 57  1  0  0  0  0
 31 61  2  0  0  0  0
 32 63  1  0  0  0  0
 32 66  1  0  0  0  0
 33 67  1  0  0  0  0
 33 72  2  0  0  0  0
 34 48  1  0  0  0  0
 34 68  1  0  0  0  0
 34 73  2  0  0  0  0
 35 58  1  0  0  0  0
 35 64  1  0  0  0  0
 35 74  2  0  0  0  0
 36 59  1  0  0  0  0
 36 69  1  0  0  0  0
 36 75  2  0  0  0  0
 37 65  1  0  0  0  0
 37 70  1  0  0  0  0
 37 76  2  0  0  0  0
 38 41  1  0  0  0  0
 39 48  1  0  0  0  0
 40 64  1  0  0  0  0
 41 43  1  0  0  0  0
 42 44  1  0  0  0  0
 42 45  1  0  0  0  0
 43 47  1  0  0  0  0
 44 49  1  0  0  0  0
 45 65  1  0  0  0  0
 46 49  1  0  0  0  0
 46 65  1  0  0  0  0
 47 68  1  0  0  0  0
 48 64  1  0  0  0  0
 49 63  1  0  0  0  0
 51 59  1  0  0  0  0
 52 60  1  0  0  0  0
 53 60  1  0  0  0  0
 54 60  1  0  0  0  0
 55 71  1  0  0  0  0
 56 70  1  0  0  0  0
 57 78  1  0  0  0  0
 58 60  1  0  0  0  0
 58 69  1  0  0  0  0
 59 71  1  0  0  0  0
 62 63  1  0  0  0  0
M  CHG  1  71   1
M  ISO  4  37 100  57 101  70 100  78 101
M  END
> <Batch ID>
0093

> <Smiles>
CNC(C)C(=O)NC(C(=O)N1Cc2cc([101O:1][101CH2:1]c3cc(C)c(C[100NH:0][100C:0](=O)N4CCCC(n5nc(-c6ccc(Oc7ccc(F)cc7F)cc6)c(C(N)=O)c5N)C4)cn3)ccc2CC1C(=O)NC1CCCc2ccccc21)C(C)(C)C

> <Shape>
0.284

> <Color>
0.210

> <Negative vol penalty>
0.000

$$$$

  -OEChem-04052319163D

 85 93  0     1  0  0  0  0  0999 V2000
  -29.8286  -27.6077   29.2653 C   0  0  0  0  0  0  0  0  0  0  0  0
  -30.2626  -26.9566   28.1150 C   0  0  0  0  0  0  0  0  0  0  0  0
  -23.1329   -9.8079   19.9314 C   0  0  0  0  0  0  0  0  0  0  0  0
  -23.9037   -9.8240   22.2211 C   0  0  0  0  0  0  0  0  0  0  0  0
  -28.4662  -27.6781   29.5531 C   0  0  0  0  0  0  0  0  0  0  0  0
  -29.3344  -26.3745   27.2524 C   0  0  0  0  0  0  0  0  0  0  0  0
  -29.7048  -26.0075   21.1504 C   0  0  0  0  0  0  0  0  0  0  0  0
  -22.4494   -8.6156   20.1699 C   0  0  0  0  0  0  0  0  0  0  0  0
  -23.2202   -8.6317   22.4596 C   0  0  0  0  0  0  0  0  0  0  0  0
  -30.1096  -24.9835   20.2952 C   0  0  0  0  0  0  0  0  0  0  0  0
  -19.5528   -7.6529   21.6245 C   0  0  0  0  0  0  0  0  0  0  0  0
  -18.2474   -7.5470   21.1448 C   0  0  0  0  0  0  0  0  0  0  0  0
  -27.8084  -24.3169   20.0138 C   0  0  0  0  0  0  0  0  0  0  0  0
  -27.7224  -18.4673   21.8411 C   0  0  0  0  0  0  0  0  0  0  0  0
  -18.8972   -5.6516   19.7949 C   0  0  0  0  0  0  0  0  0  0  0  0
  -23.8601  -10.4121   20.9570 C   0  0  0  0  0  0  0  0  0  0  0  0
  -24.0736  -12.9526   20.8682 C   0  0  0  0  0  0  0  0  0  0  0  0
  -27.5202  -27.1050   28.6886 C   0  0  0  0  0  0  0  0  0  0  0  0
  -28.3473  -26.1873   21.4529 C   0  0  0  0  0  0  0  0  0  0  0  0
  -27.9582  -26.4362   27.5296 C   0  0  0  0  0  0  0  0  0  0  0  0
  -27.3887  -25.3454   20.8712 C   0  0  0  0  0  0  0  0  0  0  0  0
  -26.5060  -18.8871   21.2485 C   0  0  0  0  0  0  0  0  0  0  0  0
  -22.4930   -8.0275   21.4339 C   0  0  0  0  0  0  0  0  0  0  0  0
  -29.1617  -24.1362   19.7290 C   0  0  0  0  0  0  0  0  0  0  0  0
  -20.5306   -6.7582   21.1893 C   0  0  0  0  0  0  0  0  0  0  0  0
  -17.9195   -6.5463   20.2300 C   0  0  0  0  0  0  0  0  0  0  0  0
  -20.2027   -5.7576   20.2745 C   0  0  0  0  0  0  0  0  0  0  0  0
  -24.5668  -11.6435   20.7112 C   0  0  0  0  0  0  0  0  0  0  0  0
  -28.7145  -18.6232   20.8983 C   0  0  0  0  0  0  0  0  0  0  0  0
  -26.7917  -19.2866   19.9616 C   0  0  0  0  0  0  0  0  0  0  0  0
  -25.1247  -13.7608   20.5096 C   0  0  0  0  0  0  0  0  0  0  0  0
  -22.7810  -13.3983   21.2997 C   0  0  0  0  0  0  0  0  0  0  0  0
  -26.6068  -26.0709   24.1101 C   0  0  0  0  0  0  0  0  0  0  0  0
  -24.2464  -27.1149   22.1451 C   0  0  0  0  0  0  0  0  0  0  0  0
  -23.0122  -27.3551   18.9724 C   0  0  0  0  0  0  0  0  0  0  0  0
  -30.5511  -15.0527   20.6854 C   0  0  0  0  0  0  0  0  0  0  0  0
  -26.0613  -27.1657   29.0660 C   0  0  0  0  0  0  0  0  0  0  0  0
  -27.9246  -27.3132   22.3562 C   0  0  0  0  0  0  0  0  0  0  0  0
  -25.9172  -25.5091   21.1478 C   0  0  0  0  0  0  0  0  0  0  0  0
  -25.1188  -26.8482   27.9079 C   0  0  0  0  0  0  0  0  0  0  0  0
  -29.5223  -12.6444   18.2732 C   0  0  0  0  0  0  0  0  0  0  0  0
  -25.5883  -25.6022   27.1638 C   0  0  0  0  0  0  0  0  0  0  0  0
  -28.1038  -12.2731   18.7091 C   0  0  0  0  0  0  0  0  0  0  0  0
  -30.4336  -12.8959   19.4726 C   0  0  0  0  0  0  0  0  0  0  0  0
  -28.5048  -13.5124   20.8775 C   0  0  0  0  0  0  0  0  0  0  0  0
  -26.9804  -25.8139   26.5565 C   0  0  1  0  0  0  0  0  0  0  0  0
  -26.5609  -27.0828   23.0002 C   0  0  1  0  0  0  0  0  0  0  0  0
  -27.5344  -13.3039   19.7022 C   0  0  2  0  0  0  0  0  0  0  0  0
  -25.1801  -18.8929   21.8980 C   0  0  0  0  0  0  0  0  0  0  0  0
  -24.1192  -19.2500   17.1757 C   0  0  0  0  0  0  0  0  0  0  0  0
  -21.0437  -28.2305   17.6855 C   0  0  0  0  0  0  0  0  0  0  0  0
  -22.5664  -24.7611   23.1183 C   0  0  0  0  0  0  0  0  0  0  0  0
  -21.0499  -25.1236   21.1595 C   0  0  0  0  0  0  0  0  0  0  0  0
  -21.3110  -26.9108   22.8800 C   0  0  0  0  0  0  0  0  0  0  0  0
  -24.7134  -29.1923   17.3946 C   0  0  0  0  0  0  0  0  0  0  0  0
  -30.1613  -18.3386   20.9909 C   0  0  0  0  0  0  0  0  0  0  0  0
  -25.8987  -19.8114   18.9065 C   0  0  0  0  0  0  0  0  0  0  0  0
  -25.0640  -18.7038   18.2343 C   0  0  0  0  0  0  0  0  0  0  0  0
  -29.6310  -20.7668   18.5210 C   0  0  0  0  0  0  0  0  0  0  0  0
  -28.8706  -19.4394   18.4812 C   0  0  0  0  0  0  0  0  0  0  0  0
  -30.5151  -17.1879   21.9498 C   0  0  0  0  0  0  0  0  0  0  0  0
  -28.7466  -21.9594   18.8658 C   0  0  0  0  0  0  0  0  0  1  0  0
  -23.2083  -26.4499   21.2739 C   0  0  1  0  0  0  0  0  0  0  0  0
  -22.4432  -28.5311   18.1993 C   0  0  2  0  0  0  0  0  0  0  0  0
  -22.0617  -25.8068   22.1040 C   0  0  0  0  0  0  0  0  0  0  0  0
  -25.8327  -11.6169   20.2857 N   0  0  0  0  0  0  0  0  0  0  0  0
  -28.1371  -19.1215   19.7597 N   0  0  0  0  0  0  0  0  0  0  0  0
  -26.1437  -12.9194   20.1723 N   0  0  0  0  0  0  0  0  0  0  0  0
  -25.5544  -26.6206   22.0424 N   0  0  0  0  0  0  0  0  0  0  0  0
  -29.8366  -13.8840   20.3744 N   0  0  0  0  0  0  0  0  0  0  0  0
  -25.2674  -15.1020   20.4528 N   0  0  0  0  0  0  0  0  0  0  0  0
  -21.8180  -12.4350   21.6299 N   0  0  0  0  0  0  0  0  0  0  0  0
  -26.8902  -26.6092   25.3508 N   0  0  0  0  0  0  0  0  0  0  0  0
  -22.7624  -27.4636   20.3241 N   0  0  0  0  0  0  0  0  0  0  0  0
  -29.9104  -15.9393   21.5422 N   0  0  0  0  0  0  0  0  0  0  0  0
  -23.3129  -28.8537   17.0329 N   0  3  0  0  0  0  0  0  0  0  0  0
  -22.4834  -14.6146   21.3741 O   0  0  0  0  0  0  0  0  0  0  0  0
  -26.3988  -24.8895   23.8596 O   0  0  0  0  0  0  0  0  0  0  0  0
  -23.9105  -28.0437   22.8842 O   0  0  0  0  0  0  0  0  0  0  0  0
  -23.6146  -26.4307   18.4310 O   0  0  0  0  0  0  0  0  0  0  0  0
  -31.6743  -15.2910   20.2288 O   0  0  0  0  0  0  0  0  0  0  0  0
  -21.8260   -6.8642   21.6671 O   0  0  0  0  0  0  0  0  0  0  0  0
  -29.5542  -23.1356   18.8944 O   0  0  0  0  0  0  0  0  0  1  0  0
  -16.6655   -6.4438   19.7707 F   0  0  0  0  0  0  0  0  0  0  0  0
  -21.1374   -4.8944   19.8537 F   0  0  0  0  0  0  0  0  0  0  0  0
  1  2  1  0  0  0  0
  1  5  2  0  0  0  0
  2  6  2  0  0  0  0
  3  8  2  0  0  0  0
  3 16  1  0  0  0  0
  4  9  1  0  0  0  0
  4 16  2  0  0  0  0
  5 18  1  0  0  0  0
  6 20  1  0  0  0  0
  7 10  2  0  0  0  0
  7 19  1  0  0  0  0
  8 23  1  0  0  0  0
  9 23  2  0  0  0  0
 10 24  1  0  0  0  0
 11 12  2  0  0  0  0
 11 25  1  0  0  0  0
 12 26  1  0  0  0  0
 13 21  1  0  0  0  0
 13 24  2  0  0  0  0
 14 22  1  0  0  0  0
 14 29  2  0  0  0  0
 15 26  2  0  0  0  0
 15 27  1  0  0  0  0
 16 28  1  0  0  0  0
 17 28  1  0  0  0  0
 17 31  2  0  0  0  0
 17 32  1  0  0  0  0
 18 20  2  0  0  0  0
 18 37  1  0  0  0  0
 19 21  2  0  0  0  0
 19 38  1  0  0  0  0
 20 46  1  0  0  0  0
 21 39  1  0  0  0  0
 22 30  2  0  0  0  0
 22 49  1  0  0  0  0
 23 82  1  0  0  0  0
 24 83  1  0  0  0  0
 25 27  2  0  0  0  0
 25 82  1  0  0  0  0
 26 84  1  0  0  0  0
 27 85  1  0  0  0  0
 28 66  2  0  0  0  0
 29 56  1  0  0  0  0
 29 67  1  0  0  0  0
 30 57  1  0  0  0  0
 30 67  1  0  0  0  0
 31 68  1  0  0  0  0
 31 71  1  0  0  0  0
 32 72  1  0  0  0  0
 32 77  2  0  0  0  0
 33 47  1  0  0  0  0
 33 73  1  0  0  0  0
 33 78  2  0  0  0  0
 34 63  1  0  0  0  0
 34 69  1  0  0  0  0
 34 79  2  0  0  0  0
 35 64  1  0  0  0  0
 35 74  1  0  0  0  0
 35 80  2  0  0  0  0
 36 70  1  0  0  0  0
 36 75  1  0  0  0  0
 36 81  2  0  0  0  0
 37 40  1  0  0  0  0
 38 47  1  0  0  0  0
 39 69  1  0  0  0  0
 40 42  1  0  0  0  0
 41 43  1  0  0  0  0
 41 44  1  0  0  0  0
 42 46  1  0  0  0  0
 43 48  1  0  0  0  0
 44 70  1  0  0  0  0
 45 48  1  0  0  0  0
 45 70  1  0  0  0  0
 46 73  1  0  0  0  0
 47 69  1  0  0  0  0
 48 68  1  0  0  0  0
 50 58  1  0  0  0  0
 51 64  1  0  0  0  0
 52 65  1  0  0  0  0
 53 65  1  0  0  0  0
 54 65  1  0  0  0  0
 55 76  1  0  0  0  0
 56 61  1  0  0  0  0
 57 58  1  0  0  0  0
 59 60  1  0  0  0  0
 59 62  1  0  0  0  0
 60 67  1  0  0  0  0
 61 75  1  0  0  0  0
 62 83  1  0  0  0  0
 63 65  1  0  0  0  0
 63 74  1  0  0  0  0
 64 76  1  0  0  0  0
 66 68  1  0  0  0  0
M  CHG  1  76   1
M  ISO  4  36 100  62 101  75 100  83 101
M  END
> <Batch ID>
0093

> <Smiles>
CCCc1c(C)cc(CC[100NH:0][100C:0](=O)N2CCCC(n3nc(-c4ccc(Oc5ccc(F)cc5F)cc4)c(C(N)=O)c3N)C2)n1CC[101CH2:1][101O:1]c1ccc2c(c1)CN(C(=O)C(NC(=O)C(C)NC)C(C)(C)C)C(C(=O)NC1CCCc3ccccc31)C2

> <Shape>
0.238

> <Color>
0.213

> <Negative vol penalty>
0.000

$$$$

  -OEChem-04052319163D

 86 94  0     1  0  0  0  0  0999 V2000
  -20.1140  -21.0053   22.2104 C   0  0  0  0  0  0  0  0  0  0  0  0
  -21.3363  -21.5365   21.8115 C   0  0  0  0  0  0  0  0  0  0  0  0
  -26.9550  -13.0113   21.0498 C   0  0  0  0  0  0  0  0  0  0  0  0
  -26.6758  -13.5269   18.7060 C   0  0  0  0  0  0  0  0  0  0  0  0
  -18.9466  -21.7513   22.0539 C   0  0  0  0  0  0  0  0  0  0  0  0
  -21.3918  -22.8139   21.2549 C   0  0  0  0  0  0  0  0  0  0  0  0
  -25.1814  -25.5925   23.1424 C   0  0  0  0  0  0  0  0  0  0  0  0
  -26.3051  -11.7920   20.8590 C   0  0  0  0  0  0  0  0  0  0  0  0
  -26.0259  -12.3075   18.5152 C   0  0  0  0  0  0  0  0  0  0  0  0
  -26.4631  -25.3338   22.6584 C   0  0  0  0  0  0  0  0  0  0  0  0
  -23.1271  -10.6878   20.5344 C   0  0  0  0  0  0  0  0  0  0  0  0
  -22.1593  -10.3171   21.4679 C   0  0  0  0  0  0  0  0  0  0  0  0
  -26.2875  -27.2410   21.1917 C   0  0  0  0  0  0  0  0  0  0  0  0
  -23.4300   -8.3313   21.9965 C   0  0  0  0  0  0  0  0  0  0  0  0
  -26.7414  -24.1240   17.4169 C   0  0  0  0  0  0  0  0  0  0  0  0
  -27.1403  -13.8788   19.9733 C   0  0  0  0  0  0  0  0  0  0  0  0
  -29.1914  -15.3930   20.0611 C   0  0  0  0  0  0  0  0  0  0  0  0
  -18.9890  -23.0423   21.5041 C   0  0  0  0  0  0  0  0  0  0  0  0
  -24.4377  -26.6728   22.6460 C   0  0  0  0  0  0  0  0  0  0  0  0
  -20.2237  -23.5774   21.0898 C   0  0  0  0  0  0  0  0  0  0  0  0
  -24.9977  -27.5128   21.6729 C   0  0  0  0  0  0  0  0  0  0  0  0
  -25.8406  -11.4400   19.5917 C   0  0  0  0  0  0  0  0  0  0  0  0
  -27.0152  -26.1564   21.6808 C   0  0  0  0  0  0  0  0  0  0  0  0
  -24.2463   -9.8803   20.3318 C   0  0  0  0  0  0  0  0  0  0  0  0
  -22.3108   -9.1388   22.1990 C   0  0  0  0  0  0  0  0  0  0  0  0
  -24.3977   -8.7021   21.0628 C   0  0  0  0  0  0  0  0  0  0  0  0
  -27.8111  -15.1388   20.1698 C   0  0  0  0  0  0  0  0  0  0  0  0
  -26.4161  -22.8287   17.1286 C   0  0  0  0  0  0  0  0  0  0  0  0
  -29.3169  -16.7321   20.3399 C   0  0  0  0  0  0  0  0  0  0  0  0
  -28.3378  -23.2887   16.1307 C   0  0  0  0  0  0  0  0  0  0  0  0
  -30.2643  -14.4988   19.7370 C   0  0  0  0  0  0  0  0  0  0  0  0
  -21.6812  -26.9727   21.0918 C   0  0  0  0  0  0  0  0  0  0  0  0
  -22.2212  -30.1398   21.5396 C   0  0  0  0  0  0  0  0  0  0  0  0
  -24.4712  -32.6455   22.0925 C   0  0  0  0  0  0  0  0  0  0  0  0
  -25.5428  -21.3596   19.9003 C   0  0  0  0  0  0  0  0  0  0  0  0
  -17.6947  -23.7920   21.3112 C   0  0  0  0  0  0  0  0  0  0  0  0
  -23.0671  -26.9542   23.1978 C   0  0  0  0  0  0  0  0  0  0  0  0
  -24.2485  -28.6974   21.1217 C   0  0  0  0  0  0  0  0  0  0  0  0
  -17.8875  -25.2851   21.0582 C   0  0  0  0  0  0  0  0  0  0  0  0
  -27.2373  -20.2497   22.8284 C   0  0  0  0  0  0  0  0  0  0  0  0
  -18.9795  -25.5136   20.0179 C   0  0  0  0  0  0  0  0  0  0  0  0
  -27.7010  -18.8369   22.4692 C   0  0  0  0  0  0  0  0  0  0  0  0
  -25.8711  -20.5659   22.2239 C   0  0  0  0  0  0  0  0  0  0  0  0
  -26.2375  -18.9398   20.4086 C   0  0  0  0  0  0  0  0  0  0  0  0
  -20.3278  -24.9691   20.5047 C   0  0  1  0  0  0  0  0  0  0  0  0
  -22.1990  -27.7769   22.2507 C   0  0  1  0  0  0  0  0  0  0  0  0
  -27.6357  -18.5947   20.9493 C   0  0  2  0  0  0  0  0  0  0  0  0
  -24.6177  -35.1348   22.3743 C   0  0  0  0  0  0  0  0  0  0  0  0
  -30.3218  -20.9672   16.4314 C   0  0  0  0  0  0  0  0  0  0  0  0
  -31.9722  -22.3404   15.1453 C   0  0  0  0  0  0  0  0  0  0  0  0
  -30.9116  -25.4758   20.0401 C   0  0  0  0  0  0  0  0  0  0  0  0
  -21.8581  -30.4993   18.5314 C   0  0  0  0  0  0  0  0  0  0  0  0
  -22.9306  -32.7518   18.7415 C   0  0  0  0  0  0  0  0  0  0  0  0
  -20.7901  -32.2757   19.9307 C   0  0  0  0  0  0  0  0  0  0  0  0
  -25.5743  -32.3876   24.8267 C   0  0  0  0  0  0  0  0  0  0  0  0
  -25.2668  -22.0089   17.5210 C   0  0  0  0  0  0  0  0  0  0  0  0
  -29.5732  -23.1385   15.3219 C   0  0  0  0  0  0  0  0  0  0  0  0
  -29.8995  -25.6912   17.7562 C   0  0  0  0  0  0  0  0  0  0  0  0
  -28.6737  -25.6960   16.8324 C   0  0  0  0  0  0  0  0  0  0  0  0
  -28.5357  -26.2824   19.8565 C   0  0  0  0  0  0  0  0  0  1  0  0
  -22.9321  -31.2231   20.7649 C   0  0  1  0  0  0  0  0  0  0  0  0
  -24.4740  -33.7965   23.0822 C   0  0  2  0  0  0  0  0  0  0  0  0
  -30.7287  -22.3891   16.0365 C   0  0  0  0  0  0  0  0  0  0  0  0
  -29.6071  -25.3736   19.2393 C   0  0  2  0  0  0  0  0  0  0  0  0
  -22.1414  -31.6641   19.5009 C   0  0  0  0  0  0  0  0  0  0  0  0
  -27.1099  -16.2288   20.4927 N   0  0  0  0  0  0  0  0  0  0  0  0
  -27.9352  -24.3817   16.7870 N   0  0  0  0  0  0  0  0  0  0  0  0
  -28.0534  -17.1809   20.5893 N   0  0  0  0  0  0  0  0  0  0  0  0
  -27.4210  -22.3365   16.3312 N   0  3  0  0  0  0  0  0  0  0  0  0
  -22.9094  -28.9274   21.6885 N   0  0  0  0  0  0  0  0  0  0  0  0
  -25.8767  -20.3169   20.7803 N   0  0  0  0  0  0  0  0  0  0  0  0
  -30.3837  -17.5576   20.3937 N   0  0  0  0  0  0  0  0  0  0  0  0
  -29.9594  -13.1554   19.4786 N   0  0  0  0  0  0  0  0  0  0  0  0
  -20.9241  -25.8773   21.4609 N   0  0  0  0  0  0  0  0  0  0  0  0
  -23.1910  -32.3006   21.7139 N   0  0  0  0  0  0  0  0  0  0  0  0
  -25.5790  -21.0406   18.5484 N   0  0  0  0  0  0  0  0  0  0  0  0
  -25.6030  -33.6499   24.0440 N   0  3  0  0  0  0  0  0  0  0  0  0
  -31.4598  -14.8762   19.6945 O   0  0  0  0  0  0  0  0  0  0  0  0
  -21.9476  -27.3212   19.9476 O   0  0  0  0  0  0  0  0  0  0  0  0
  -21.0996  -30.3636   22.0017 O   0  0  0  0  0  0  0  0  0  0  0  0
  -25.5018  -32.1087   21.6922 O   0  0  0  0  0  0  0  0  0  0  0  0
  -25.2402  -22.4924   20.2904 O   0  0  0  0  0  0  0  0  0  0  0  0
  -25.2066  -10.2502   19.4051 O   0  0  0  0  0  0  0  0  0  0  0  0
  -28.2657  -25.9057   21.2061 O   0  0  0  0  0  0  0  0  0  1  0  0
  -21.3821   -8.7837   23.0966 F   0  0  0  0  0  0  0  0  0  0  0  0
  -25.4714   -7.9228   20.8734 F   0  0  0  0  0  0  0  0  0  0  0  0
  1  2  1  0  0  0  0
  1  5  2  0  0  0  0
  2  6  2  0  0  0  0
  3  8  2  0  0  0  0
  3 16  1  0  0  0  0
  4  9  1  0  0  0  0
  4 16  2  0  0  0  0
  5 18  1  0  0  0  0
  6 20  1  0  0  0  0
  7 10  2  0  0  0  0
  7 19  1  0  0  0  0
  8 22  1  0  0  0  0
  9 22  2  0  0  0  0
 10 23  1  0  0  0  0
 11 12  2  0  0  0  0
 11 24  1  0  0  0  0
 12 25  1  0  0  0  0
 13 21  1  0  0  0  0
 13 23  2  0  0  0  0
 14 25  2  0  0  0  0
 14 26  1  0  0  0  0
 15 28  2  0  0  0  0
 15 67  1  0  0  0  0
 16 27  1  0  0  0  0
 17 27  1  0  0  0  0
 17 29  2  0  0  0  0
 17 31  1  0  0  0  0
 18 20  2  0  0  0  0
 18 36  1  0  0  0  0
 19 21  2  0  0  0  0
 19 37  1  0  0  0  0
 20 45  1  0  0  0  0
 21 38  1  0  0  0  0
 22 83  1  0  0  0  0
 23 84  1  0  0  0  0
 24 26  2  0  0  0  0
 24 83  1  0  0  0  0
 25 85  1  0  0  0  0
 26 86  1  0  0  0  0
 27 66  2  0  0  0  0
 28 56  1  0  0  0  0
 28 69  1  0  0  0  0
 29 68  1  0  0  0  0
 29 72  1  0  0  0  0
 30 57  1  0  0  0  0
 30 67  1  0  0  0  0
 30 69  2  0  0  0  0
 31 73  1  0  0  0  0
 31 78  2  0  0  0  0
 32 46  1  0  0  0  0
 32 74  1  0  0  0  0
 32 79  2  0  0  0  0
 33 61  1  0  0  0  0
 33 70  1  0  0  0  0
 33 80  2  0  0  0  0
 34 62  1  0  0  0  0
 34 75  1  0  0  0  0
 34 81  2  0  0  0  0
 35 71  1  0  0  0  0
 35 76  1  0  0  0  0
 35 82  2  0  0  0  0
 36 39  1  0  0  0  0
 37 46  1  0  0  0  0
 38 70  1  0  0  0  0
 39 41  1  0  0  0  0
 40 42  1  0  0  0  0
 40 43  1  0  0  0  0
 41 45  1  0  0  0  0
 42 47  1  0  0  0  0
 43 71  1  0  0  0  0
 44 47  1  0  0  0  0
 44 71  1  0  0  0  0
 45 74  1  0  0  0  0
 46 70  1  0  0  0  0
 47 68  1  0  0  0  0
 48 62  1  0  0  0  0
 49 63  1  0  0  0  0
 50 63  1  0  0  0  0
 51 64  1  0  0  0  0
 52 65  1  0  0  0  0
 53 65  1  0  0  0  0
 54 65  1  0  0  0  0
 55 77  1  0  0  0  0
 56 76  1  0  0  0  0
 57 63  1  0  0  0  0
 58 59  1  0  0  0  0
 58 64  1  0  0  0  0
 59 67  1  0  0  0  0
 60 64  1  0  0  0  0
 60 84  1  0  0  0  0
 61 65  1  0  0  0  0
 61 75  1  0  0  0  0
 62 77  1  0  0  0  0
 66 68  1  0  0  0  0
M  CHG  2  69   1  77   1
M  ISO  4  35 100  60 101  76 100  84 101
M  END
> <Batch ID>
0093

> <Smiles>
CNC(C)C(=O)NC(C(=O)N1Cc2cc([101O:1][101CH2:1]C(C)CCn3cc(C[100NH:0][100C:0](=O)N4CCCC(n5nc(-c6ccc(Oc7ccc(F)cc7F)cc6)c(C(N)=O)c5N)C4)nc3CC(C)C)ccc2CC1C(=O)NC1CCCc2ccccc21)C(C)(C)C

> <Shape>
0.212

> <Color>
0.067

> <Negative vol penalty>
0.000

$$$$

  -OEChem-04052319163D

 85 93  0     1  0  0  0  0  0999 V2000
  -31.0120  -26.0859   12.6880 C   0  0  0  0  0  0  0  0  0  0  0  0
  -30.2551  -24.9493   12.9541 C   0  0  0  0  0  0  0  0  0  0  0  0
  -22.9571  -10.0725   19.8759 C   0  0  0  0  0  0  0  0  0  0  0  0
  -23.8802   -9.7237   22.0812 C   0  0  0  0  0  0  0  0  0  0  0  0
  -31.7298  -26.6998   13.7135 C   0  0  0  0  0  0  0  0  0  0  0  0
  -30.2165  -24.4254   14.2458 C   0  0  0  0  0  0  0  0  0  0  0  0
  -25.8267  -20.9985   18.7516 C   0  0  0  0  0  0  0  0  0  0  0  0
  -22.1889   -8.9167   20.0146 C   0  0  0  0  0  0  0  0  0  0  0  0
  -23.1119   -8.5678   22.2199 C   0  0  0  0  0  0  0  0  0  0  0  0
  -25.7869  -19.8661   19.5639 C   0  0  0  0  0  0  0  0  0  0  0  0
  -22.6510   -5.5765   19.7820 C   0  0  0  0  0  0  0  0  0  0  0  0
  -22.6098   -4.6933   18.7032 C   0  0  0  0  0  0  0  0  0  0  0  0
  -27.0038  -21.0567   21.2730 C   0  0  0  0  0  0  0  0  0  0  0  0
  -30.7048  -18.3918   23.7832 C   0  0  0  0  0  0  0  0  0  0  0  0
  -20.2143   -4.9756   18.5636 C   0  0  0  0  0  0  0  0  0  0  0  0
  -23.8029  -10.4761   20.9092 C   0  0  0  0  0  0  0  0  0  0  0  0
  -24.2333  -12.9811   21.1263 C   0  0  0  0  0  0  0  0  0  0  0  0
  -31.6923  -26.1888   15.0204 C   0  0  0  0  0  0  0  0  0  0  0  0
  -26.4660  -22.1670   19.1903 C   0  0  0  0  0  0  0  0  0  0  0  0
  -30.9356  -25.0323   15.2895 C   0  0  0  0  0  0  0  0  0  0  0  0
  -27.0481  -22.2034   20.4654 C   0  0  0  0  0  0  0  0  0  0  0  0
  -31.9534  -18.8195   23.3457 C   0  0  0  0  0  0  0  0  0  0  0  0
  -30.1341  -17.2506   23.2307 C   0  0  0  0  0  0  0  0  0  0  0  0
  -22.2662   -8.1643   21.1866 C   0  0  0  0  0  0  0  0  0  0  0  0
  -26.3780  -19.8941   20.8237 C   0  0  0  0  0  0  0  0  0  0  0  0
  -21.4738   -6.1592   20.2517 C   0  0  0  0  0  0  0  0  0  0  0  0
  -21.3915   -4.3928   18.0940 C   0  0  0  0  0  0  0  0  0  0  0  0
  -20.2556   -5.8587   19.6425 C   0  0  0  0  0  0  0  0  0  0  0  0
  -24.5972  -11.6697   20.7663 C   0  0  0  0  0  0  0  0  0  0  0  0
  -32.5851  -18.0767   22.3613 C   0  0  0  0  0  0  0  0  0  0  0  0
  -30.8471  -16.5782   22.2512 C   0  0  0  0  0  0  0  0  0  0  0  0
  -25.3248  -13.7445   20.7911 C   0  0  0  0  0  0  0  0  0  0  0  0
  -23.0174  -13.4658   21.7114 C   0  0  0  0  0  0  0  0  0  0  0  0
  -28.9461  -23.8806   18.1823 C   0  0  0  0  0  0  0  0  0  0  0  0
  -28.0059  -25.9056   20.5355 C   0  0  0  0  0  0  0  0  0  0  0  0
  -26.3586  -26.3463   23.4917 C   0  0  0  0  0  0  0  0  0  0  0  0
  -30.8259  -14.5994   20.6924 C   0  0  0  0  0  0  0  0  0  0  0  0
  -32.5226  -26.8593   16.0861 C   0  0  0  0  0  0  0  0  0  0  0  0
  -26.4769  -23.3886   18.3128 C   0  0  0  0  0  0  0  0  0  0  0  0
  -27.7290  -23.4396   20.9913 C   0  0  0  0  0  0  0  0  0  0  0  0
  -32.1295  -26.4595   17.5060 C   0  0  0  0  0  0  0  0  0  0  0  0
  -29.4503  -12.5890   18.0956 C   0  0  0  0  0  0  0  0  0  0  0  0
  -31.9656  -24.9464   17.6085 C   0  0  0  0  0  0  0  0  0  0  0  0
  -28.0352  -12.2785   18.5885 C   0  0  0  0  0  0  0  0  0  0  0  0
  -30.4580  -12.6143   19.2435 C   0  0  0  0  0  0  0  0  0  0  0  0
  -28.6853  -13.1830   20.8571 C   0  0  0  0  0  0  0  0  0  0  0  0
  -30.8488  -24.4485   16.6829 C   0  0  1  0  0  0  0  0  0  0  0  0
  -27.6027  -24.3598   18.6547 C   0  0  1  0  0  0  0  0  0  0  0  0
  -27.6240  -13.2107   19.7450 C   0  0  2  0  0  0  0  0  0  0  0  0
  -33.9287  -18.4874   21.8544 C   0  0  0  0  0  0  0  0  0  0  0  0
  -25.7936  -28.1067   25.1885 C   0  0  0  0  0  0  0  0  0  0  0  0
  -30.7125  -21.6206   23.1909 C   0  0  0  0  0  0  0  0  0  0  0  0
  -32.9477  -22.5406   23.8401 C   0  0  0  0  0  0  0  0  0  0  0  0
  -30.8592  -25.7827   21.6094 C   0  0  0  0  0  0  0  0  0  0  0  0
  -30.0166  -26.7464   23.7611 C   0  0  0  0  0  0  0  0  0  0  0  0
  -29.8268  -28.0602   21.6491 C   0  0  0  0  0  0  0  0  0  0  0  0
  -23.4521  -25.9977   23.0565 C   0  0  0  0  0  0  0  0  0  0  0  0
  -32.5709  -20.0407   23.9341 C   0  0  0  0  0  0  0  0  0  0  0  0
  -28.7790  -16.7910   23.7062 C   0  0  0  0  0  0  0  0  0  0  0  0
  -27.6433  -17.1104   22.7316 C   0  0  0  0  0  0  0  0  0  0  0  0
  -27.4283  -18.6051   22.5240 C   0  0  0  0  0  0  0  0  0  1  0  0
  -28.3226  -26.0592   22.0035 C   0  0  1  0  0  0  0  0  0  0  0  0
  -25.3387  -27.3809   23.9320 C   0  0  2  0  0  0  0  0  0  0  0  0
  -32.2205  -21.3573   23.1965 C   0  0  0  0  0  0  0  0  0  0  0  0
  -29.7452  -26.6381   22.2454 C   0  0  0  0  0  0  0  0  0  0  0  0
  -25.8239  -11.6003   20.2424 N   0  0  0  0  0  0  0  0  0  0  0  0
  -32.0622  -16.9631   21.8008 N   0  0  0  0  0  0  0  0  0  0  0  0
  -26.2403  -12.8778   20.2707 N   0  0  0  0  0  0  0  0  0  0  0  0
  -27.7190  -24.6063   20.0934 N   0  0  0  0  0  0  0  0  0  0  0  0
  -30.0043  -13.5215   20.3000 N   0  0  0  0  0  0  0  0  0  0  0  0
  -25.5811  -15.0660   20.8937 N   0  0  0  0  0  0  0  0  0  0  0  0
  -21.9978  -12.5460   21.9918 N   0  0  0  0  0  0  0  0  0  0  0  0
  -30.2758  -15.4130   21.6823 N   0  0  0  0  0  0  0  0  0  0  0  0
  -29.5518  -24.7184   17.2654 N   0  0  0  0  0  0  0  0  0  0  0  0
  -27.2459  -26.8632   22.5714 N   0  0  0  0  0  0  0  0  0  0  0  0
  -24.0285  -26.7292   24.2140 N   0  3  0  0  0  0  0  0  0  0  0  0
  -22.8340  -14.6811   21.9625 O   0  0  0  0  0  0  0  0  0  0  0  0
  -29.4003  -22.8293   18.6185 O   0  0  0  0  0  0  0  0  0  0  0  0
  -28.0058  -26.9027   19.8093 O   0  0  0  0  0  0  0  0  0  0  0  0
  -26.3697  -25.1959   23.9239 O   0  0  0  0  0  0  0  0  0  0  0  0
  -31.9240  -14.8027   20.1682 O   0  0  0  0  0  0  0  0  0  0  0  0
  -21.5165   -7.0364   21.3223 O   0  0  0  0  0  0  0  0  0  0  0  0
  -26.3411  -18.7900   21.6183 O   0  0  0  0  0  0  0  0  0  1  0  0
  -21.3523   -3.5459   17.0570 F   0  0  0  0  0  0  0  0  0  0  0  0
  -19.1216   -6.4163   20.0885 F   0  0  0  0  0  0  0  0  0  0  0  0
  1  2  1  0  0  0  0
  1  5  2  0  0  0  0
  2  6  2  0  0  0  0
  3  8  2  0  0  0  0
  3 16  1  0  0  0  0
  4  9  1  0  0  0  0
  4 16  2  0  0  0  0
  5 18  1  0  0  0  0
  6 20  1  0  0  0  0
  7 10  2  0  0  0  0
  7 19  1  0  0  0  0
  8 24  1  0  0  0  0
  9 24  2  0  0  0  0
 10 25  1  0  0  0  0
 11 12  2  0  0  0  0
 11 26  1  0  0  0  0
 12 27  1  0  0  0  0
 13 21  1  0  0  0  0
 13 25  2  0  0  0  0
 14 22  2  0  0  0  0
 14 23  1  0  0  0  0
 15 27  2  0  0  0  0
 15 28  1  0  0  0  0
 16 29  1  0  0  0  0
 17 29  1  0  0  0  0
 17 32  2  0  0  0  0
 17 33  1  0  0  0  0
 18 20  2  0  0  0  0
 18 38  1  0  0  0  0
 19 21  2  0  0  0  0
 19 39  1  0  0  0  0
 20 47  1  0  0  0  0
 21 40  1  0  0  0  0
 22 30  1  0  0  0  0
 22 58  1  0  0  0  0
 23 31  2  0  0  0  0
 23 59  1  0  0  0  0
 24 82  1  0  0  0  0
 25 83  1  0  0  0  0
 26 28  2  0  0  0  0
 26 82  1  0  0  0  0
 27 84  1  0  0  0  0
 28 85  1  0  0  0  0
 29 66  2  0  0  0  0
 30 50  1  0  0  0  0
 30 67  2  0  0  0  0
 31 67  1  0  0  0  0
 31 73  1  0  0  0  0
 32 68  1  0  0  0  0
 32 71  1  0  0  0  0
 33 72  1  0  0  0  0
 33 77  2  0  0  0  0
 34 48  1  0  0  0  0
 34 74  1  0  0  0  0
 34 78  2  0  0  0  0
 35 62  1  0  0  0  0
 35 69  1  0  0  0  0
 35 79  2  0  0  0  0
 36 63  1  0  0  0  0
 36 75  1  0  0  0  0
 36 80  2  0  0  0  0
 37 70  1  0  0  0  0
 37 73  1  0  0  0  0
 37 81  2  0  0  0  0
 38 41  1  0  0  0  0
 39 48  1  0  0  0  0
 40 69  1  0  0  0  0
 41 43  1  0  0  0  0
 42 44  1  0  0  0  0
 42 45  1  0  0  0  0
 43 47  1  0  0  0  0
 44 49  1  0  0  0  0
 45 70  1  0  0  0  0
 46 49  1  0  0  0  0
 46 70  1  0  0  0  0
 47 74  1  0  0  0  0
 48 69  1  0  0  0  0
 49 68  1  0  0  0  0
 51 63  1  0  0  0  0
 52 64  1  0  0  0  0
 53 64  1  0  0  0  0
 54 65  1  0  0  0  0
 55 65  1  0  0  0  0
 56 65  1  0  0  0  0
 57 76  1  0  0  0  0
 58 64  1  0  0  0  0
 59 60  1  0  0  0  0
 60 61  1  0  0  0  0
 61 83  1  0  0  0  0
 62 65  1  0  0  0  0
 62 75  1  0  0  0  0
 63 76  1  0  0  0  0
 66 68  1  0  0  0  0
M  CHG  1  76   1
M  ISO  4  37 100  61 101  73 100  83 101
M  END
> <Batch ID>
0093

> <Smiles>
CNC(C)C(=O)NC(C(=O)N1Cc2cc([101O:1][101CH2:1]CCc3cc(CC(C)C)c(C)nc3[100NH:0][100C:0](=O)N3CCCC(n4nc(-c5ccc(Oc6ccc(F)cc6F)cc5)c(C(N)=O)c4N)C3)ccc2CC1C(=O)NC1CCCc2ccccc21)C(C)(C)C

> <Shape>
0.218

> <Color>
0.214

> <Negative vol penalty>
0.000

$$$$

  -OEChem-04052319163D

 89 97  0     1  0  0  0  0  0999 V2000
  -28.6786  -29.6677   27.4901 C   0  0  0  0  0  0  0  0  0  0  0  0
  -28.4465  -28.8335   26.4012 C   0  0  0  0  0  0  0  0  0  0  0  0
  -23.9434   -9.0292   20.2880 C   0  0  0  0  0  0  0  0  0  0  0  0
  -22.8814  -10.9629   21.2731 C   0  0  0  0  0  0  0  0  0  0  0  0
  -27.6440  -30.4513   27.9995 C   0  0  0  0  0  0  0  0  0  0  0  0
  -27.1792  -28.7817   25.8218 C   0  0  0  0  0  0  0  0  0  0  0  0
  -27.3494  -28.9185   20.7624 C   0  0  0  0  0  0  0  0  0  0  0  0
  -23.0971   -8.1933   21.0164 C   0  0  0  0  0  0  0  0  0  0  0  0
  -22.0350  -10.1270   22.0015 C   0  0  0  0  0  0  0  0  0  0  0  0
  -27.6906  -27.7375   20.1046 C   0  0  0  0  0  0  0  0  0  0  0  0
  -22.8740   -7.0184   24.1778 C   0  0  0  0  0  0  0  0  0  0  0  0
  -23.4440   -5.9162   24.8149 C   0  0  0  0  0  0  0  0  0  0  0  0
  -25.3582  -27.3261   19.6462 C   0  0  0  0  0  0  0  0  0  0  0  0
  -28.2067  -20.6084   20.2953 C   0  0  0  0  0  0  0  0  0  0  0  0
  -29.4442  -19.2264   18.2117 C   0  0  0  0  0  0  0  0  0  0  0  0
  -22.0283   -4.4404   23.5284 C   0  0  0  0  0  0  0  0  0  0  0  0
  -23.8356  -10.4140   20.4164 C   0  0  0  0  0  0  0  0  0  0  0  0
  -24.4830  -11.8079   18.3803 C   0  0  0  0  0  0  0  0  0  0  0  0
  -26.3659  -30.4163   27.4200 C   0  0  0  0  0  0  0  0  0  0  0  0
  -26.0069  -29.3073   20.8767 C   0  0  0  0  0  0  0  0  0  0  0  0
  -26.1262  -29.5646   26.3247 C   0  0  0  0  0  0  0  0  0  0  0  0
  -25.0028  -28.5138   20.3037 C   0  0  0  0  0  0  0  0  0  0  0  0
  -28.0103  -19.2345   20.1561 C   0  0  0  0  0  0  0  0  0  0  0  0
  -29.0218  -21.2914   19.3926 C   0  0  0  0  0  0  0  0  0  0  0  0
  -28.6291  -18.5435   19.1144 C   0  0  0  0  0  0  0  0  0  0  0  0
  -29.6406  -20.6004   18.3508 C   0  0  0  0  0  0  0  0  0  0  0  0
  -22.1429   -8.7422   21.8731 C   0  0  0  0  0  0  0  0  0  0  0  0
  -26.6947  -26.9397   19.5489 C   0  0  0  0  0  0  0  0  0  0  0  0
  -21.8811   -6.8316   23.2160 C   0  0  0  0  0  0  0  0  0  0  0  0
  -23.0212   -4.6272   24.4902 C   0  0  0  0  0  0  0  0  0  0  0  0
  -21.4583   -5.5426   22.8913 C   0  0  0  0  0  0  0  0  0  0  0  0
  -24.7100  -11.2780   19.6646 C   0  0  0  0  0  0  0  0  0  0  0  0
  -25.6025  -12.5585   18.1158 C   0  0  0  0  0  0  0  0  0  0  0  0
  -23.3607  -11.6370   17.5047 C   0  0  0  0  0  0  0  0  0  0  0  0
  -24.0132  -29.8002   23.3027 C   0  0  0  0  0  0  0  0  0  0  0  0
  -29.4083  -16.2974   19.7968 C   0  0  0  0  0  0  0  0  0  0  0  0
  -22.0265  -30.8264   20.9528 C   0  0  0  0  0  0  0  0  0  0  0  0
  -21.1571  -30.7466   17.6536 C   0  0  0  0  0  0  0  0  0  0  0  0
  -25.2669  -31.2460   28.0351 C   0  0  0  0  0  0  0  0  0  0  0  0
  -25.6576  -30.5977   21.5661 C   0  0  0  0  0  0  0  0  0  0  0  0
  -23.5483  -28.8970   20.3813 C   0  0  0  0  0  0  0  0  0  0  0  0
  -24.0501  -31.4135   27.1286 C   0  0  0  0  0  0  0  0  0  0  0  0
  -30.0304  -12.8452   20.5282 C   0  0  0  0  0  0  0  0  0  0  0  0
  -23.6466  -30.0726   26.5235 C   0  0  0  0  0  0  0  0  0  0  0  0
  -28.6757  -12.1785   20.2925 C   0  0  0  0  0  0  0  0  0  0  0  0
  -29.8694  -14.2490   21.1029 C   0  0  0  0  0  0  0  0  0  0  0  0
  -27.6448  -14.4809   20.0451 C   0  0  0  0  0  0  0  0  0  0  0  0
  -24.7716  -29.4993   25.6533 C   0  0  1  0  0  0  0  0  0  0  0  0
  -24.2182  -30.6350   22.0704 C   0  0  1  0  0  0  0  0  0  0  0  0
  -27.7613  -13.0724   19.4362 C   0  0  2  0  0  0  0  0  0  0  0  0
  -25.7564  -18.2123   20.5582 C   0  0  0  0  0  0  0  0  0  0  0  0
  -30.3726  -20.6766   15.9687 C   0  0  0  0  0  0  0  0  0  0  0  0
  -19.4662  -31.6589   16.0394 C   0  0  0  0  0  0  0  0  0  0  0  0
  -32.7438  -22.5425   17.1027 C   0  0  0  0  0  0  0  0  0  0  0  0
  -32.7975  -20.0953   17.5718 C   0  0  0  0  0  0  0  0  0  0  0  0
  -19.9480  -28.8677   22.0267 C   0  0  0  0  0  0  0  0  0  0  0  0
  -18.6975  -29.1218   19.8726 C   0  0  0  0  0  0  0  0  0  0  0  0
  -19.0331  -31.0972   21.3585 C   0  0  0  0  0  0  0  0  0  0  0  0
  -23.2445  -32.1064   16.0560 C   0  0  0  0  0  0  0  0  0  0  0  0
  -27.1339  -18.5244   21.1350 C   0  0  0  0  0  0  0  0  0  0  0  0
  -29.2184  -22.7766   19.5626 C   0  0  0  0  0  0  0  0  0  0  0  0
  -28.0233  -23.6131   19.1004 C   0  0  0  0  0  0  0  0  0  0  0  0
  -28.5567  -16.5694   17.4964 C   0  0  0  0  0  0  0  0  0  0  0  0
  -28.1966  -25.1059   19.3551 C   0  0  0  0  0  0  0  0  0  1  0  0
  -28.4340  -17.0724   18.9458 C   0  0  2  0  0  0  0  0  0  0  0  0
  -30.5169  -21.3104   17.3718 C   0  0  2  0  0  0  0  0  0  0  0  0
  -20.9973  -30.1735   20.0620 C   0  0  1  0  0  0  0  0  0  0  0  0
  -20.8361  -31.8568   16.6693 C   0  0  2  0  0  0  0  0  0  0  0  0
  -32.0195  -21.3936   17.8200 C   0  0  0  0  0  0  0  0  0  0  0  0
  -19.6961  -29.8066   20.8300 C   0  0  0  0  0  0  0  0  0  0  0  0
  -25.8816  -11.6595   20.1802 N   0  0  0  0  0  0  0  0  0  0  0  0
  -26.4009  -12.4370   19.2149 N   0  0  0  0  0  0  0  0  0  0  0  0
  -23.2568  -30.1646   21.0711 N   0  0  0  0  0  0  0  0  0  0  0  0
  -28.9762  -15.0595   20.2732 N   0  0  0  0  0  0  0  0  0  0  0  0
  -25.9719  -13.3039   17.0527 N   0  0  0  0  0  0  0  0  0  0  0  0
  -22.2955  -10.8329   17.9329 N   0  0  0  0  0  0  0  0  0  0  0  0
  -24.8092  -30.1683   24.3706 N   0  0  0  0  0  0  0  0  0  0  0  0
  -20.7925  -31.0833   18.9400 N   0  0  0  0  0  0  0  0  0  0  0  0
  -27.5509  -17.2491   16.6415 N   0  3  0  0  0  0  0  0  0  0  0  0
  -21.8531  -31.8939   15.5806 N   0  3  0  0  0  0  0  0  0  0  0  0
  -23.3113  -12.1678   16.3692 O   0  0  0  0  0  0  0  0  0  0  0  0
  -23.1924  -28.8904   23.2865 O   0  0  0  0  0  0  0  0  0  0  0  0
  -30.5208  -16.7782   20.0278 O   0  0  0  0  0  0  0  0  0  0  0  0
  -21.7515  -31.8883   21.5170 O   0  0  0  0  0  0  0  0  0  0  0  0
  -21.6758  -29.6852   17.3145 O   0  0  0  0  0  0  0  0  0  0  0  0
  -21.3167   -7.9268   22.5839 O   0  0  0  0  0  0  0  0  0  0  0  0
  -27.0249  -25.7861   18.9069 O   0  0  0  0  0  0  0  0  0  1  0  0
  -23.5698   -3.5688   25.1009 F   0  0  0  0  0  0  0  0  0  0  0  0
  -20.5056   -5.3569   21.9673 F   0  0  0  0  0  0  0  0  0  0  0  0
  1  2  1  0  0  0  0
  1  5  2  0  0  0  0
  2  6  2  0  0  0  0
  3  8  2  0  0  0  0
  3 17  1  0  0  0  0
  4  9  1  0  0  0  0
  4 17  2  0  0  0  0
  5 19  1  0  0  0  0
  6 21  1  0  0  0  0
  7 10  2  0  0  0  0
  7 20  1  0  0  0  0
  8 27  1  0  0  0  0
  9 27  2  0  0  0  0
 10 28  1  0  0  0  0
 11 12  2  0  0  0  0
 11 29  1  0  0  0  0
 12 30  1  0  0  0  0
 13 22  1  0  0  0  0
 13 28  2  0  0  0  0
 14 23  1  0  0  0  0
 14 24  2  0  0  0  0
 15 25  1  0  0  0  0
 15 26  2  0  0  0  0
 16 30  2  0  0  0  0
 16 31  1  0  0  0  0
 17 32  1  0  0  0  0
 18 32  1  0  0  0  0
 18 33  2  0  0  0  0
 18 34  1  0  0  0  0
 19 21  2  0  0  0  0
 19 39  1  0  0  0  0
 20 22  2  0  0  0  0
 20 40  1  0  0  0  0
 21 48  1  0  0  0  0
 22 41  1  0  0  0  0
 23 25  2  0  0  0  0
 23 60  1  0  0  0  0
 24 26  1  0  0  0  0
 24 61  1  0  0  0  0
 25 65  1  0  0  0  0
 26 66  1  0  0  0  0
 27 86  1  0  0  0  0
 28 87  1  0  0  0  0
 29 31  2  0  0  0  0
 29 86  1  0  0  0  0
 30 88  1  0  0  0  0
 31 89  1  0  0  0  0
 32 71  2  0  0  0  0
 33 72  1  0  0  0  0
 33 75  1  0  0  0  0
 34 76  1  0  0  0  0
 34 81  2  0  0  0  0
 35 49  1  0  0  0  0
 35 77  1  0  0  0  0
 35 82  2  0  0  0  0
 36 65  1  0  0  0  0
 36 74  1  0  0  0  0
 36 83  2  0  0  0  0
 37 67  1  0  0  0  0
 37 73  1  0  0  0  0
 37 84  2  0  0  0  0
 38 68  1  0  0  0  0
 38 78  1  0  0  0  0
 38 85  2  0  0  0  0
 39 42  1  0  0  0  0
 40 49  1  0  0  0  0
 41 73  1  0  0  0  0
 42 44  1  0  0  0  0
 43 45  1  0  0  0  0
 43 46  1  0  0  0  0
 44 48  1  0  0  0  0
 45 50  1  0  0  0  0
 46 74  1  0  0  0  0
 47 50  1  0  0  0  0
 47 74  1  0  0  0  0
 48 77  1  0  0  0  0
 49 73  1  0  0  0  0
 50 72  1  0  0  0  0
 51 60  1  0  0  0  0
 52 66  1  0  0  0  0
 53 68  1  0  0  0  0
 54 69  1  0  0  0  0
 55 69  1  0  0  0  0
 56 70  1  0  0  0  0
 57 70  1  0  0  0  0
 58 70  1  0  0  0  0
 59 80  1  0  0  0  0
 61 62  1  0  0  0  0
 62 64  1  0  0  0  0
 63 65  1  0  0  0  0
 63 79  1  0  0  0  0
 64 87  1  0  0  0  0
 66 69  1  0  0  0  0
 67 70  1  0  0  0  0
 67 78  1  0  0  0  0
 68 80  1  0  0  0  0
 71 72  1  0  0  0  0
M  CHG  2  79   1  80   1
M  ISO  4  36 100  64 101  65 100  87 101
M  END
> <Batch ID>
0093

> <Smiles>
CCc1cc(CC[101CH2:1][101O:1]c2ccc3c(c2)CN(C(=O)C(NC(=O)C(C)NC)C(C)(C)C)C(C(=O)NC2CCCc4ccccc42)C3)c(C(C)C(C)C)cc1[100CH:0](CN)[100C:0](=O)N1CCCC(n2nc(-c3ccc(Oc4ccc(F)cc4F)cc3)c(C(N)=O)c2N)C1

> <Shape>
0.281

> <Color>
0.106

> <Negative vol penalty>
0.000

$$$$

  -OEChem-04052319163D

 86 94  0     1  0  0  0  0  0999 V2000
  -23.5304  -16.3260   24.3319 C   0  0  0  0  0  0  0  0  0  0  0  0
  -24.4364  -17.3360   24.0243 C   0  0  0  0  0  0  0  0  0  0  0  0
  -25.5907  -14.3327   21.1784 C   0  0  0  0  0  0  0  0  0  0  0  0
  -25.4817  -14.6314   18.7834 C   0  0  0  0  0  0  0  0  0  0  0  0
  -22.1930  -16.4536   23.9592 C   0  0  0  0  0  0  0  0  0  0  0  0
  -24.0056  -18.4737   23.3428 C   0  0  0  0  0  0  0  0  0  0  0  0
  -25.8326  -22.7489   25.3500 C   0  0  0  0  0  0  0  0  0  0  0  0
  -24.6189  -13.3353   21.0983 C   0  0  0  0  0  0  0  0  0  0  0  0
  -24.5100  -13.6339   18.7033 C   0  0  0  0  0  0  0  0  0  0  0  0
  -27.1538  -23.0789   25.0511 C   0  0  0  0  0  0  0  0  0  0  0  0
  -24.4687  -10.0668   20.2456 C   0  0  0  0  0  0  0  0  0  0  0  0
  -24.6828   -8.8936   20.9690 C   0  0  0  0  0  0  0  0  0  0  0  0
  -26.3803  -24.6325   23.3756 C   0  0  0  0  0  0  0  0  0  0  0  0
  -30.6120  -27.3760   20.9941 C   0  0  0  0  0  0  0  0  0  0  0  0
  -22.6435   -9.2833   22.2046 C   0  0  0  0  0  0  0  0  0  0  0  0
  -26.0220  -14.9808   20.0210 C   0  0  0  0  0  0  0  0  0  0  0  0
  -28.4211  -15.8481   20.0191 C   0  0  0  0  0  0  0  0  0  0  0  0
  -21.7437  -17.5978   23.2813 C   0  0  0  0  0  0  0  0  0  0  0  0
  -24.7739  -23.3513   24.6553 C   0  0  0  0  0  0  0  0  0  0  0  0
  -22.6612  -18.6161   22.9595 C   0  0  0  0  0  0  0  0  0  0  0  0
  -25.0466  -24.3103   23.6694 C   0  0  0  0  0  0  0  0  0  0  0  0
  -29.4097  -27.8888   20.4477 C   0  0  0  0  0  0  0  0  0  0  0  0
  -24.0786  -12.9858   19.8607 C   0  0  0  0  0  0  0  0  0  0  0  0
  -27.4279  -24.0187   24.0617 C   0  0  0  0  0  0  0  0  0  0  0  0
  -23.3421  -10.8483   20.5017 C   0  0  0  0  0  0  0  0  0  0  0  0
  -23.7702   -8.5018   21.9485 C   0  0  0  0  0  0  0  0  0  0  0  0
  -22.4295  -10.4566   21.4812 C   0  0  0  0  0  0  0  0  0  0  0  0
  -27.0254  -16.0116   20.1032 C   0  0  0  0  0  0  0  0  0  0  0  0
  -30.8651  -26.1723   20.3740 C   0  0  0  0  0  0  0  0  0  0  0  0
  -28.9645  -26.9828   19.5104 C   0  0  0  0  0  0  0  0  0  0  0  0
  -28.9244  -17.1189   20.1539 C   0  0  0  0  0  0  0  0  0  0  0  0
  -29.1935  -14.6542   19.8356 C   0  0  0  0  0  0  0  0  0  0  0  0
  -22.4454  -22.2996   22.7643 C   0  0  0  0  0  0  0  0  0  0  0  0
  -21.4515  -25.3831   22.9259 C   0  0  0  0  0  0  0  0  0  0  0  0
  -22.2448  -28.6584   23.4644 C   0  0  0  0  0  0  0  0  0  0  0  0
  -28.8593  -22.4269   18.8254 C   0  0  0  0  0  0  0  0  0  0  0  0
  -20.2981  -17.6695   22.8572 C   0  0  0  0  0  0  0  0  0  0  0  0
  -23.3536  -23.0041   25.0082 C   0  0  0  0  0  0  0  0  0  0  0  0
  -23.9452  -25.0007   22.9085 C   0  0  0  0  0  0  0  0  0  0  0  0
  -19.8464  -19.0748   22.4681 C   0  0  0  0  0  0  0  0  0  0  0  0
  -26.6602  -21.4330   21.5185 C   0  0  0  0  0  0  0  0  0  0  0  0
  -20.8700  -19.7280   21.5448 C   0  0  0  0  0  0  0  0  0  0  0  0
  -26.6780  -19.9094   21.3799 C   0  0  0  0  0  0  0  0  0  0  0  0
  -26.6857  -22.1116   20.1524 C   0  0  0  0  0  0  0  0  0  0  0  0
  -27.8488  -20.1862   19.1450 C   0  0  0  0  0  0  0  0  0  0  0  0
  -22.2272  -19.8764   22.2431 C   0  0  1  0  0  0  0  0  0  0  0  0
  -22.3684  -23.3011   23.8818 C   0  0  1  0  0  0  0  0  0  0  0  0
  -27.8460  -19.4404   20.4917 C   0  0  2  0  0  0  0  0  0  0  0  0
  -27.7655  -27.0178   18.6460 C   0  0  0  0  0  0  0  0  0  0  0  0
  -28.0097  -29.0801   22.1528 C   0  0  0  0  0  0  0  0  0  0  0  0
  -21.2289  -30.9529   23.4895 C   0  0  0  0  0  0  0  0  0  0  0  0
  -32.2855  -24.9945   24.4760 C   0  0  0  0  0  0  0  0  0  0  0  0
  -21.4348  -25.4065   19.8748 C   0  0  0  0  0  0  0  0  0  0  0  0
  -21.3527  -27.9072   19.9638 C   0  0  0  0  0  0  0  0  0  0  0  0
  -19.4895  -26.5645   20.9376 C   0  0  0  0  0  0  0  0  0  0  0  0
  -22.9124  -29.0492   26.3210 C   0  0  0  0  0  0  0  0  0  0  0  0
  -28.7602  -29.1616   20.8194 C   0  0  0  0  0  0  0  0  0  0  0  0
  -32.0064  -25.2056   20.5697 C   0  0  0  0  0  0  0  0  0  0  0  0
  -32.5882  -25.2045   21.9902 C   0  0  0  0  0  0  0  0  0  0  0  0
  -30.8374  -23.5615   22.9697 C   0  0  0  0  0  0  0  0  0  0  0  0
  -29.7009  -23.3265   23.9581 C   0  0  0  0  0  0  0  0  0  1  0  0
  -29.7476  -24.7376   18.5853 C   0  0  0  0  0  0  0  0  0  0  0  0
  -21.7192  -26.6359   22.1273 C   0  0  1  0  0  0  0  0  0  0  0  0
  -21.5853  -29.7276   24.3167 C   0  0  2  0  0  0  0  0  0  0  0  0
  -31.5786  -24.9037   23.1184 C   0  0  1  0  0  0  0  0  0  0  0  0
  -21.0201  -26.6143   20.7387 C   0  0  0  0  0  0  0  0  0  0  0  0
  -26.6652  -17.2859   20.2780 N   0  0  0  0  0  0  0  0  0  0  0  0
  -29.8569  -25.9433   19.4744 N   0  0  0  0  0  0  0  0  0  0  0  0
  -27.8418  -17.9346   20.3049 N   0  0  0  0  0  0  0  0  0  0  0  0
  -22.5732  -24.6227   23.2856 N   0  0  0  0  0  0  0  0  0  0  0  0
  -27.8325  -21.6357   19.3662 N   0  0  0  0  0  0  0  0  0  0  0  0
  -30.1831  -17.6070   20.1568 N   0  0  0  0  0  0  0  0  0  0  0  0
  -28.5170  -13.4327   19.7148 N   0  0  0  0  0  0  0  0  0  0  0  0
  -22.2047  -20.9972   23.1584 N   0  0  0  0  0  0  0  0  0  0  0  0
  -21.3248  -27.7540   22.9775 N   0  0  0  0  0  0  0  0  0  0  0  0
  -28.7600  -23.7907   19.0755 N   0  0  0  0  0  0  0  0  0  0  0  0
  -22.4994  -30.1515   25.4147 N   0  3  0  0  0  0  0  0  0  0  0  0
  -30.4472  -14.6681   19.7968 O   0  0  0  0  0  0  0  0  0  0  0  0
  -22.7026  -22.6804   21.6283 O   0  0  0  0  0  0  0  0  0  0  0  0
  -20.2905  -25.0937   23.2259 O   0  0  0  0  0  0  0  0  0  0  0  0
  -23.4544  -28.6306   23.2488 O   0  0  0  0  0  0  0  0  0  0  0  0
  -29.7955  -21.9541   18.1723 O   0  0  0  0  0  0  0  0  0  0  0  0
  -23.1305  -12.0124   19.7821 O   0  0  0  0  0  0  0  0  0  0  0  0
  -28.7166  -24.3421   23.7675 O   0  0  0  0  0  0  0  0  0  1  0  0
  -23.9751   -7.3744   22.6420 F   0  0  0  0  0  0  0  0  0  0  0  0
  -21.3447  -11.2027   21.7309 F   0  0  0  0  0  0  0  0  0  0  0  0
  1  2  1  0  0  0  0
  1  5  2  0  0  0  0
  2  6  2  0  0  0  0
  3  8  2  0  0  0  0
  3 16  1  0  0  0  0
  4  9  1  0  0  0  0
  4 16  2  0  0  0  0
  5 18  1  0  0  0  0
  6 20  1  0  0  0  0
  7 10  2  0  0  0  0
  7 19  1  0  0  0  0
  8 23  1  0  0  0  0
  9 23  2  0  0  0  0
 10 24  1  0  0  0  0
 11 12  2  0  0  0  0
 11 25  1  0  0  0  0
 12 26  1  0  0  0  0
 13 21  1  0  0  0  0
 13 24  2  0  0  0  0
 14 22  1  0  0  0  0
 14 29  2  0  0  0  0
 15 26  2  0  0  0  0
 15 27  1  0  0  0  0
 16 28  1  0  0  0  0
 17 28  1  0  0  0  0
 17 31  2  0  0  0  0
 17 32  1  0  0  0  0
 18 20  2  0  0  0  0
 18 37  1  0  0  0  0
 19 21  2  0  0  0  0
 19 38  1  0  0  0  0
 20 46  1  0  0  0  0
 21 39  1  0  0  0  0
 22 30  2  0  0  0  0
 22 57  1  0  0  0  0
 23 83  1  0  0  0  0
 24 84  1  0  0  0  0
 25 27  2  0  0  0  0
 25 83  1  0  0  0  0
 26 85  1  0  0  0  0
 27 86  1  0  0  0  0
 28 67  2  0  0  0  0
 29 58  1  0  0  0  0
 29 68  1  0  0  0  0
 30 49  1  0  0  0  0
 30 68  1  0  0  0  0
 31 69  1  0  0  0  0
 31 72  1  0  0  0  0
 32 73  1  0  0  0  0
 32 78  2  0  0  0  0
 33 47  1  0  0  0  0
 33 74  1  0  0  0  0
 33 79  2  0  0  0  0
 34 63  1  0  0  0  0
 34 70  1  0  0  0  0
 34 80  2  0  0  0  0
 35 64  1  0  0  0  0
 35 75  1  0  0  0  0
 35 81  2  0  0  0  0
 36 71  1  0  0  0  0
 36 76  1  0  0  0  0
 36 82  2  0  0  0  0
 37 40  1  0  0  0  0
 38 47  1  0  0  0  0
 39 70  1  0  0  0  0
 40 42  1  0  0  0  0
 41 43  1  0  0  0  0
 41 44  1  0  0  0  0
 42 46  1  0  0  0  0
 43 48  1  0  0  0  0
 44 71  1  0  0  0  0
 45 48  1  0  0  0  0
 45 71  1  0  0  0  0
 46 74  1  0  0  0  0
 47 70  1  0  0  0  0
 48 69  1  0  0  0  0
 50 57  1  0  0  0  0
 51 64  1  0  0  0  0
 52 65  1  0  0  0  0
 53 66  1  0  0  0  0
 54 66  1  0  0  0  0
 55 66  1  0  0  0  0
 56 77  1  0  0  0  0
 58 59  1  0  0  0  0
 59 65  1  0  0  0  0
 60 61  1  0  0  0  0
 60 65  1  0  0  0  0
 61 84  1  0  0  0  0
 62 68  1  0  0  0  0
 62 76  1  0  0  0  0
 63 66  1  0  0  0  0
 63 75  1  0  0  0  0
 64 77  1  0  0  0  0
 67 69  1  0  0  0  0
M  CHG  1  77   1
M  ISO  4  36 100  61 101  76 100  84 101
M  END
> <Batch ID>
0093

> <Smiles>
CCc1cc(CCC(C)C[101CH2:1][101O:1]c2ccc3c(c2)CN(C(=O)C(NC(=O)C(C)NC)C(C)(C)C)C(C(=O)NC2CCCc4ccccc42)C3)n(C[100NH:0][100C:0](=O)N2CCCC(n3nc(-c4ccc(Oc5ccc(F)cc5F)cc4)c(C(N)=O)c3N)C2)c1C

> <Shape>
0.210

> <Color>
0.056

> <Negative vol penalty>
0.000

$$$$

  -OEChem-04052319163D

 87 95  0     1  0  0  0  0  0999 V2000
  -15.7179  -25.2944   23.4718 C   0  0  0  0  0  0  0  0  0  0  0  0
  -16.4641  -24.4070   22.7030 C   0  0  0  0  0  0  0  0  0  0  0  0
  -22.9637  -10.0341   20.0119 C   0  0  0  0  0  0  0  0  0  0  0  0
  -23.7574  -10.0160   22.2938 C   0  0  0  0  0  0  0  0  0  0  0  0
  -16.2072  -26.5744   23.7286 C   0  0  0  0  0  0  0  0  0  0  0  0
  -17.6997  -24.7996   22.1895 C   0  0  0  0  0  0  0  0  0  0  0  0
  -22.6489  -21.2780   21.4087 C   0  0  0  0  0  0  0  0  0  0  0  0
  -22.1602   -8.9266   20.2826 C   0  0  0  0  0  0  0  0  0  0  0  0
  -22.9538   -8.9085   22.5645 C   0  0  0  0  0  0  0  0  0  0  0  0
  -23.1681  -20.6240   20.2922 C   0  0  0  0  0  0  0  0  0  0  0  0
  -19.1942   -8.3083   21.7837 C   0  0  0  0  0  0  0  0  0  0  0  0
  -17.8796   -8.3319   21.3180 C   0  0  0  0  0  0  0  0  0  0  0  0
  -24.6539  -22.4838   19.9012 C   0  0  0  0  0  0  0  0  0  0  0  0
  -28.7359  -18.0845   19.5589 C   0  0  0  0  0  0  0  0  0  0  0  0
  -18.3093   -6.3502   20.0044 C   0  0  0  0  0  0  0  0  0  0  0  0
  -26.8649  -18.9533   20.7220 C   0  0  0  0  0  0  0  0  0  0  0  0
  -23.7624  -10.5788   21.0175 C   0  0  0  0  0  0  0  0  0  0  0  0
  -24.2435  -13.0797   20.8708 C   0  0  0  0  0  0  0  0  0  0  0  0
  -17.4538  -26.9796   23.2262 C   0  0  0  0  0  0  0  0  0  0  0  0
  -23.1215  -22.5467   21.7741 C   0  0  0  0  0  0  0  0  0  0  0  0
  -18.2056  -26.0868   22.4388 C   0  0  0  0  0  0  0  0  0  0  0  0
  -24.1409  -23.1507   21.0243 C   0  0  0  0  0  0  0  0  0  0  0  0
  -27.4080  -18.4737   19.5471 C   0  0  0  0  0  0  0  0  0  0  0  0
  -22.1552   -8.3638   21.5589 C   0  0  0  0  0  0  0  0  0  0  0  0
  -24.1687  -21.2282   19.5366 C   0  0  0  0  0  0  0  0  0  0  0  0
  -20.0664   -7.3057   21.3596 C   0  0  0  0  0  0  0  0  0  0  0  0
  -17.4371   -7.3529   20.4284 C   0  0  0  0  0  0  0  0  0  0  0  0
  -19.6240   -6.3267   20.4700 C   0  0  0  0  0  0  0  0  0  0  0  0
  -24.5931  -11.7225   20.7383 C   0  0  0  0  0  0  0  0  0  0  0  0
  -29.4329  -18.2010   20.7447 C   0  0  0  0  0  0  0  0  0  0  0  0
  -25.3704  -13.7638   20.4852 C   0  0  0  0  0  0  0  0  0  0  0  0
  -23.0105  -13.6694   21.3039 C   0  0  0  0  0  0  0  0  0  0  0  0
  -21.8204  -25.4349   22.0372 C   0  0  0  0  0  0  0  0  0  0  0  0
  -24.7298  -26.2082   23.2453 C   0  0  0  0  0  0  0  0  0  0  0  0
  -28.0639  -25.5073   23.4437 C   0  0  0  0  0  0  0  0  0  0  0  0
  -30.9049  -14.4742   20.5845 C   0  0  0  0  0  0  0  0  0  0  0  0
  -17.9197  -28.3895   23.4908 C   0  0  0  0  0  0  0  0  0  0  0  0
  -22.5698  -23.2273   22.9967 C   0  0  0  0  0  0  0  0  0  0  0  0
  -24.6968  -24.5028   21.3863 C   0  0  0  0  0  0  0  0  0  0  0  0
  -19.4079  -28.5995   23.2232 C   0  0  0  0  0  0  0  0  0  0  0  0
  -29.5994  -12.1391   18.2352 C   0  0  0  0  0  0  0  0  0  0  0  0
  -19.8022  -27.9816   21.8855 C   0  0  0  0  0  0  0  0  0  0  0  0
  -28.1544  -11.9301   18.6916 C   0  0  0  0  0  0  0  0  0  0  0  0
  -30.5455  -12.3173   19.4206 C   0  0  0  0  0  0  0  0  0  0  0  0
  -28.7089  -13.1648   20.8286 C   0  0  0  0  0  0  0  0  0  0  0  0
  -19.5616  -26.4672   21.8850 C   0  0  1  0  0  0  0  0  0  0  0  0
  -22.7644  -24.7403   22.9774 C   0  0  1  0  0  0  0  0  0  0  0  0
  -27.7088  -13.0362   19.6668 C   0  0  2  0  0  0  0  0  0  0  0  0
  -30.1937  -26.3397   24.4774 C   0  0  0  0  0  0  0  0  0  0  0  0
  -32.3452  -21.9155   21.8877 C   0  0  0  0  0  0  0  0  0  0  0  0
  -32.5804  -22.3820   19.4406 C   0  0  0  0  0  0  0  0  0  0  0  0
  -24.8508  -28.4532   21.1824 C   0  0  0  0  0  0  0  0  0  0  0  0
  -27.3118  -28.6200   21.6110 C   0  0  0  0  0  0  0  0  0  0  0  0
  -25.6930  -29.0765   23.4532 C   0  0  0  0  0  0  0  0  0  0  0  0
  -28.4493  -22.9924   24.9555 C   0  0  0  0  0  0  0  0  0  0  0  0
  -26.5802  -18.3768   18.2905 C   0  0  0  0  0  0  0  0  0  0  0  0
  -26.6261  -19.6372   17.4240 C   0  0  0  0  0  0  0  0  0  0  0  0
  -31.8266  -18.9682   21.1771 C   0  0  0  0  0  0  0  0  0  0  0  0
  -31.7505  -20.1253   20.1700 C   0  0  0  0  0  0  0  0  0  0  0  0
  -31.1100  -16.6272   21.8019 C   0  0  0  0  0  0  0  0  0  0  0  0
  -26.0370  -20.8639   18.1109 C   0  0  0  0  0  0  0  0  0  1  0  0
  -30.8655  -17.7962   20.8109 C   0  0  1  0  0  0  0  0  0  0  0  0
  -26.0331  -26.6992   22.6629 C   0  0  1  0  0  0  0  0  0  0  0  0
  -29.0030  -25.4064   24.6321 C   0  0  2  0  0  0  0  0  0  0  0  0
  -32.6752  -21.3054   20.5248 C   0  0  0  0  0  0  0  0  0  0  0  0
  -25.9605  -28.1876   22.2191 C   0  0  0  0  0  0  0  0  0  0  0  0
  -27.5706  -19.0564   21.8681 N   0  0  0  0  0  0  0  0  0  0  0  0
  -25.8441  -11.5525   20.3024 N   0  0  0  0  0  0  0  0  0  0  0  0
  -28.8758  -18.6742   21.8795 N   0  0  0  0  0  0  0  0  0  0  0  0
  -26.2905  -12.8118   20.1576 N   0  0  0  0  0  0  0  0  0  0  0  0
  -24.1205  -25.1308   22.5867 N   0  0  0  0  0  0  0  0  0  0  0  0
  -30.0670  -13.3819   20.3057 N   0  0  0  0  0  0  0  0  0  0  0  0
  -25.6541  -15.0807   20.3977 N   0  0  0  0  0  0  0  0  0  0  0  0
  -21.9544  -12.8212   21.6637 N   0  0  0  0  0  0  0  0  0  0  0  0
  -20.6137  -25.7881   22.6105 N   0  0  0  0  0  0  0  0  0  0  0  0
  -27.0574  -26.4236   23.6645 N   0  0  0  0  0  0  0  0  0  0  0  0
  -30.3716  -15.4418   21.4273 N   0  0  0  0  0  0  0  0  0  0  0  0
  -29.5130  -24.0132   24.7725 N   0  3  0  0  0  0  0  0  0  0  0  0
  -22.8446  -14.9118   21.3542 O   0  0  0  0  0  0  0  0  0  0  0  0
  -22.1621  -25.6369   20.8778 O   0  0  0  0  0  0  0  0  0  0  0  0
  -24.2729  -26.7557   24.2519 O   0  0  0  0  0  0  0  0  0  0  0  0
  -28.2108  -24.8427   22.4204 O   0  0  0  0  0  0  0  0  0  0  0  0
  -32.0420  -14.5820   20.1128 O   0  0  0  0  0  0  0  0  0  0  0  0
  -21.3710   -7.2832   21.8234 O   0  0  0  0  0  0  0  0  0  0  0  0
  -24.6768  -20.5923   18.4460 O   0  0  0  0  0  0  0  0  0  1  0  0
  -16.1742   -7.3747   19.9825 F   0  0  0  0  0  0  0  0  0  0  0  0
  -20.4569   -5.3603   20.0600 F   0  0  0  0  0  0  0  0  0  0  0  0
  1  2  1  0  0  0  0
  1  5  2  0  0  0  0
  2  6  2  0  0  0  0
  3  8  2  0  0  0  0
  3 17  1  0  0  0  0
  4  9  1  0  0  0  0
  4 17  2  0  0  0  0
  5 19  1  0  0  0  0
  6 21  1  0  0  0  0
  7 10  2  0  0  0  0
  7 20  1  0  0  0  0
  8 24  1  0  0  0  0
  9 24  2  0  0  0  0
 10 25  1  0  0  0  0
 11 12  2  0  0  0  0
 11 26  1  0  0  0  0
 12 27  1  0  0  0  0
 13 22  1  0  0  0  0
 13 25  2  0  0  0  0
 14 23  2  0  0  0  0
 14 30  1  0  0  0  0
 15 27  2  0  0  0  0
 15 28  1  0  0  0  0
 16 23  1  0  0  0  0
 16 67  2  0  0  0  0
 17 29  1  0  0  0  0
 18 29  1  0  0  0  0
 18 31  2  0  0  0  0
 18 32  1  0  0  0  0
 19 21  2  0  0  0  0
 19 37  1  0  0  0  0
 20 22  2  0  0  0  0
 20 38  1  0  0  0  0
 21 46  1  0  0  0  0
 22 39  1  0  0  0  0
 23 56  1  0  0  0  0
 24 84  1  0  0  0  0
 25 85  1  0  0  0  0
 26 28  2  0  0  0  0
 26 84  1  0  0  0  0
 27 86  1  0  0  0  0
 28 87  1  0  0  0  0
 29 68  2  0  0  0  0
 30 62  1  0  0  0  0
 30 69  2  0  0  0  0
 31 70  1  0  0  0  0
 31 73  1  0  0  0  0
 32 74  1  0  0  0  0
 32 79  2  0  0  0  0
 33 47  1  0  0  0  0
 33 75  1  0  0  0  0
 33 80  2  0  0  0  0
 34 63  1  0  0  0  0
 34 71  1  0  0  0  0
 34 81  2  0  0  0  0
 35 64  1  0  0  0  0
 35 76  1  0  0  0  0
 35 82  2  0  0  0  0
 36 72  1  0  0  0  0
 36 77  1  0  0  0  0
 36 83  2  0  0  0  0
 37 40  1  0  0  0  0
 38 47  1  0  0  0  0
 39 71  1  0  0  0  0
 40 42  1  0  0  0  0
 41 43  1  0  0  0  0
 41 44  1  0  0  0  0
 42 46  1  0  0  0  0
 43 48  1  0  0  0  0
 44 72  1  0  0  0  0
 45 48  1  0  0  0  0
 45 72  1  0  0  0  0
 46 75  1  0  0  0  0
 47 71  1  0  0  0  0
 48 70  1  0  0  0  0
 49 64  1  0  0  0  0
 50 65  1  0  0  0  0
 51 65  1  0  0  0  0
 52 66  1  0  0  0  0
 53 66  1  0  0  0  0
 54 66  1  0  0  0  0
 55 78  1  0  0  0  0
 56 57  1  0  0  0  0
 57 61  1  0  0  0  0
 58 59  1  0  0  0  0
 58 62  1  0  0  0  0
 59 65  1  0  0  0  0
 60 62  1  0  0  0  0
 60 77  1  0  0  0  0
 61 85  1  0  0  0  0
 63 66  1  0  0  0  0
 63 76  1  0  0  0  0
 64 78  1  0  0  0  0
 67 69  1  0  0  0  0
 68 70  1  0  0  0  0
M  CHG  1  78   1
M  ISO  4  36 100  61 101  77 100  85 101
M  END
> <Batch ID>
0093

> <Smiles>
CNC(C)C(=O)NC(C(=O)N1Cc2cc([101O:1][101CH2:1]CCc3cnnc(C(CCC(C)C)C[100NH:0][100C:0](=O)N4CCCC(n5nc(-c6ccc(Oc7ccc(F)cc7F)cc6)c(C(N)=O)c5N)C4)c3)ccc2CC1C(=O)NC1CCCc2ccccc21)C(C)(C)C

> <Shape>
0.242

> <Color>
0.187

> <Negative vol penalty>
0.000

$$$$

  -OEChem-04052319163D

 81 89  0     1  0  0  0  0  0999 V2000
  -17.4298  -30.5778   23.2338 C   0  0  0  0  0  0  0  0  0  0  0  0
  -18.7847  -30.8478   23.0708 C   0  0  0  0  0  0  0  0  0  0  0  0
  -27.0669  -18.3302   19.7471 C   0  0  0  0  0  0  0  0  0  0  0  0
  -28.6748  -17.4835   21.3393 C   0  0  0  0  0  0  0  0  0  0  0  0
  -16.9900  -29.2583   23.3319 C   0  0  0  0  0  0  0  0  0  0  0  0
  -19.7009  -29.7986   23.0070 C   0  0  0  0  0  0  0  0  0  0  0  0
  -24.8161  -29.5769   19.6468 C   0  0  0  0  0  0  0  0  0  0  0  0
  -26.6673  -17.0257   19.4570 C   0  0  0  0  0  0  0  0  0  0  0  0
  -28.2751  -16.1790   21.0492 C   0  0  0  0  0  0  0  0  0  0  0  0
  -26.1543  -29.8133   19.9587 C   0  0  0  0  0  0  0  0  0  0  0  0
  -28.8086  -13.8928   18.6162 C   0  0  0  0  0  0  0  0  0  0  0  0
  -29.8061  -12.9370   18.4240 C   0  0  0  0  0  0  0  0  0  0  0  0
  -26.4881  -27.4477   20.2928 C   0  0  0  0  0  0  0  0  0  0  0  0
  -28.9297  -11.6508   20.2719 C   0  0  0  0  0  0  0  0  0  0  0  0
  -33.2626  -28.8044   18.0058 C   0  0  0  0  0  0  0  0  0  0  0  0
  -28.0707  -18.5591   20.6882 C   0  0  0  0  0  0  0  0  0  0  0  0
  -27.9551  -20.7583   21.9758 C   0  0  0  0  0  0  0  0  0  0  0  0
  -17.9001  -28.1920   23.2595 C   0  0  0  0  0  0  0  0  0  0  0  0
  -24.3004  -28.2730   19.6662 C   0  0  0  0  0  0  0  0  0  0  0  0
  -19.2731  -28.4637   23.1056 C   0  0  0  0  0  0  0  0  0  0  0  0
  -25.1437  -27.1971   19.9783 C   0  0  0  0  0  0  0  0  0  0  0  0
  -32.9849  -28.1716   19.2511 C   0  0  0  0  0  0  0  0  0  0  0  0
  -27.2713  -15.9501   20.1080 C   0  0  0  0  0  0  0  0  0  0  0  0
  -26.9898  -28.7490   20.2846 C   0  0  0  0  0  0  0  0  0  0  0  0
  -27.8716  -13.7277   19.6363 C   0  0  0  0  0  0  0  0  0  0  0  0
  -29.8667  -11.8160   19.2518 C   0  0  0  0  0  0  0  0  0  0  0  0
  -27.9322  -12.6066   20.4641 C   0  0  0  0  0  0  0  0  0  0  0  0
  -28.4844  -19.9064   20.9880 C   0  0  0  0  0  0  0  0  0  0  0  0
  -34.0985  -28.2131   20.0618 C   0  0  0  0  0  0  0  0  0  0  0  0
  -28.6839  -21.9164   21.8569 C   0  0  0  0  0  0  0  0  0  0  0  0
  -26.8990  -20.5238   22.9168 C   0  0  0  0  0  0  0  0  0  0  0  0
  -22.0408  -26.7791   21.3295 C   0  0  0  0  0  0  0  0  0  0  0  0
  -22.6902  -24.3463   19.2845 C   0  0  0  0  0  0  0  0  0  0  0  0
  -24.9168  -22.8520   17.1735 C   0  0  0  0  0  0  0  0  0  0  0  0
  -33.4932  -24.4807   21.3658 C   0  0  0  0  0  0  0  0  0  0  0  0
  -17.3829  -26.7841   23.4179 C   0  0  0  0  0  0  0  0  0  0  0  0
  -22.8613  -28.0319   19.3013 C   0  0  0  0  0  0  0  0  0  0  0  0
  -24.6440  -25.7764   19.9936 C   0  0  0  0  0  0  0  0  0  0  0  0
  -18.3752  -25.7162   22.9649 C   0  0  0  0  0  0  0  0  0  0  0  0
  -31.9339  -23.4113   18.2800 C   0  0  0  0  0  0  0  0  0  0  0  0
  -19.7649  -26.0080   23.5221 C   0  0  0  0  0  0  0  0  0  0  0  0
  -30.8469  -22.4684   18.7993 C   0  0  0  0  0  0  0  0  0  0  0  0
  -33.2104  -23.2923   19.1074 C   0  0  0  0  0  0  0  0  0  0  0  0
  -31.9347  -22.5736   21.0897 C   0  0  0  0  0  0  0  0  0  0  0  0
  -20.2947  -27.3517   23.0070 C   0  0  1  0  0  0  0  0  0  0  0  0
  -22.3168  -26.7182   19.8537 C   0  0  1  0  0  0  0  0  0  0  0  0
  -30.6109  -22.6628   20.3089 C   0  0  2  0  0  0  0  0  0  0  0  0
  -25.1759  -20.8557   15.6752 C   0  0  0  0  0  0  0  0  0  0  0  0
  -23.1055  -22.5684   21.7292 C   0  0  0  0  0  0  0  0  0  0  0  0
  -24.2593  -20.9154   20.2444 C   0  0  0  0  0  0  0  0  0  0  0  0
  -21.8627  -21.4837   19.8494 C   0  0  0  0  0  0  0  0  0  0  0  0
  -25.2917  -24.5518   14.7799 C   0  0  0  0  0  0  0  0  0  0  0  0
  -31.6614  -27.5509   19.6208 C   0  0  0  0  0  0  0  0  0  0  0  0
  -34.3120  -27.7004   21.4291 C   0  0  0  0  0  0  0  0  0  0  0  0
  -30.5834  -28.5725   19.9891 C   0  0  0  0  0  0  0  0  0  0  0  0
  -35.0920  -26.3743   21.4898 C   0  0  0  0  0  0  0  0  0  0  0  0
  -29.2265  -27.9410   20.2780 C   0  0  0  0  0  0  0  0  0  1  0  0
  -23.6489  -23.1801   19.2804 C   0  0  1  0  0  0  0  0  0  0  0  0
  -24.7627  -22.3167   15.7614 C   0  0  2  0  0  0  0  0  0  0  0  0
  -23.2283  -22.0637   20.2776 C   0  0  0  0  0  0  0  0  0  0  0  0
  -34.4837  -29.3058   17.8361 N   0  0  0  0  0  0  0  0  0  0  0  0
  -29.4730  -20.4749   20.2926 N   0  0  0  0  0  0  0  0  0  0  0  0
  -29.5707  -21.6964   20.8443 N   0  0  0  0  0  0  0  0  0  0  0  0
  -23.2278  -25.5926   19.6358 N   0  0  0  0  0  0  0  0  0  0  0  0
  -32.9197  -23.5063   20.5321 N   0  0  0  0  0  0  0  0  0  0  0  0
  -28.6462  -23.0913   22.5208 N   0  0  0  0  0  0  0  0  0  0  0  0
  -26.2560  -19.2785   22.9029 N   0  0  0  0  0  0  0  0  0  0  0  0
  -20.7700  -27.2195   21.6465 N   0  0  0  0  0  0  0  0  0  0  0  0
  -23.7467  -22.7370   17.8939 N   0  0  0  0  0  0  0  0  0  0  0  0
  -34.4219  -25.3196   20.7620 N   0  0  0  0  0  0  0  0  0  0  0  0
  -25.6064  -23.1004   14.8154 N   0  3  0  0  0  0  0  0  0  0  0  0
  -26.5254  -21.3985   23.7346 O   0  0  0  0  0  0  0  0  0  0  0  0
  -22.9156  -26.4495   22.1218 O   0  0  0  0  0  0  0  0  0  0  0  0
  -21.5095  -24.1595   18.9800 O   0  0  0  0  0  0  0  0  0  0  0  0
  -25.9709  -23.3216   17.5965 O   0  0  0  0  0  0  0  0  0  0  0  0
  -33.1956  -24.5982   22.5594 O   0  0  0  0  0  0  0  0  0  0  0  0
  -26.8814  -14.6771   19.8253 O   0  0  0  0  0  0  0  0  0  0  0  0
  -28.2961  -28.9770   20.5900 O   0  0  0  0  0  0  0  0  0  1  0  0
  -30.8237  -10.8974   19.0661 F   0  0  0  0  0  0  0  0  0  0  0  0
  -27.0341  -12.4419   21.4450 F   0  0  0  0  0  0  0  0  0  0  0  0
  -35.3561  -29.0160   19.2207 S   0  0  0  0  0  0  0  0  0  0  0  0
  1  2  1  0  0  0  0
  1  5  2  0  0  0  0
  2  6  2  0  0  0  0
  3  8  2  0  0  0  0
  3 16  1  0  0  0  0
  4  9  1  0  0  0  0
  4 16  2  0  0  0  0
  5 18  1  0  0  0  0
  6 20  1  0  0  0  0
  7 10  2  0  0  0  0
  7 19  1  0  0  0  0
  8 23  1  0  0  0  0
  9 23  2  0  0  0  0
 10 24  1  0  0  0  0
 11 12  2  0  0  0  0
 11 25  1  0  0  0  0
 12 26  1  0  0  0  0
 13 21  1  0  0  0  0
 13 24  2  0  0  0  0
 14 26  2  0  0  0  0
 14 27  1  0  0  0  0
 15 22  1  0  0  0  0
 15 61  2  0  0  0  0
 16 28  1  0  0  0  0
 17 28  1  0  0  0  0
 17 30  2  0  0  0  0
 17 31  1  0  0  0  0
 18 20  2  0  0  0  0
 18 36  1  0  0  0  0
 19 21  2  0  0  0  0
 19 37  1  0  0  0  0
 20 45  1  0  0  0  0
 21 38  1  0  0  0  0
 22 29  2  0  0  0  0
 22 53  1  0  0  0  0
 23 77  1  0  0  0  0
 24 78  1  0  0  0  0
 25 27  2  0  0  0  0
 25 77  1  0  0  0  0
 26 79  1  0  0  0  0
 27 80  1  0  0  0  0
 28 62  2  0  0  0  0
 29 54  1  0  0  0  0
 29 81  1  0  0  0  0
 30 63  1  0  0  0  0
 30 66  1  0  0  0  0
 31 67  1  0  0  0  0
 31 72  2  0  0  0  0
 32 46  1  0  0  0  0
 32 68  1  0  0  0  0
 32 73  2  0  0  0  0
 33 58  1  0  0  0  0
 33 64  1  0  0  0  0
 33 74  2  0  0  0  0
 34 59  1  0  0  0  0
 34 69  1  0  0  0  0
 34 75  2  0  0  0  0
 35 65  1  0  0  0  0
 35 70  1  0  0  0  0
 35 76  2  0  0  0  0
 36 39  1  0  0  0  0
 37 46  1  0  0  0  0
 38 64  1  0  0  0  0
 39 41  1  0  0  0  0
 40 42  1  0  0  0  0
 40 43  1  0  0  0  0
 41 45  1  0  0  0  0
 42 47  1  0  0  0  0
 43 65  1  0  0  0  0
 44 47  1  0  0  0  0
 44 65  1  0  0  0  0
 45 68  1  0  0  0  0
 46 64  1  0  0  0  0
 47 63  1  0  0  0  0
 48 59  1  0  0  0  0
 49 60  1  0  0  0  0
 50 60  1  0  0  0  0
 51 60  1  0  0  0  0
 52 71  1  0  0  0  0
 53 55  1  0  0  0  0
 54 56  1  0  0  0  0
 55 57  1  0  0  0  0
 56 70  1  0  0  0  0
 57 78  1  0  0  0  0
 58 60  1  0  0  0  0
 58 69  1  0  0  0  0
 59 71  1  0  0  0  0
 61 81  1  0  0  0  0
 62 63  1  0  0  0  0
M  CHG  1  71   1
M  ISO  4  35 100  57 101  70 100  78 101
M  END
> <Batch ID>
0093

> <Smiles>
CNC(C)C(=O)NC(C(=O)N1Cc2cc([101O:1][101CH2:1]CCc3cnsc3CC[100NH:0][100C:0](=O)N3CCCC(n4nc(-c5ccc(Oc6ccc(F)cc6F)cc5)c(C(N)=O)c4N)C3)ccc2CC1C(=O)NC1CCCc2ccccc21)C(C)(C)C

> <Shape>
0.220

> <Color>
0.073

> <Negative vol penalty>
0.000

$$$$

  -OEChem-04052319163D

 87 95  0     1  0  0  0  0  0999 V2000
  -18.3142  -28.4512   23.3922 C   0  0  0  0  0  0  0  0  0  0  0  0
  -17.8886  -27.2222   22.8985 C   0  0  0  0  0  0  0  0  0  0  0  0
  -29.8489  -26.3093   18.0238 C   0  0  0  0  0  0  0  0  0  0  0  0
  -30.9630  -25.5810   20.0401 C   0  0  0  0  0  0  0  0  0  0  0  0
  -19.6348  -28.8571   23.2043 C   0  0  0  0  0  0  0  0  0  0  0  0
  -18.7831  -26.3987   22.2157 C   0  0  0  0  0  0  0  0  0  0  0  0
  -20.2720  -19.4795   21.1096 C   0  0  0  0  0  0  0  0  0  0  0  0
  -25.6517  -13.3267   22.5286 C   0  0  0  0  0  0  0  0  0  0  0  0
  -29.7862  -27.6084   18.5277 C   0  0  0  0  0  0  0  0  0  0  0  0
  -30.9003  -26.8801   20.5440 C   0  0  0  0  0  0  0  0  0  0  0  0
  -20.4841  -18.5764   20.0688 C   0  0  0  0  0  0  0  0  0  0  0  0
  -29.0112  -31.0433   19.4356 C   0  0  0  0  0  0  0  0  0  0  0  0
  -27.8066  -31.7341   19.3041 C   0  0  0  0  0  0  0  0  0  0  0  0
  -24.4369  -13.5432   21.8877 C   0  0  0  0  0  0  0  0  0  0  0  0
  -22.7618  -19.3465   19.8730 C   0  0  0  0  0  0  0  0  0  0  0  0
  -26.6878  -30.0297   20.6004 C   0  0  0  0  0  0  0  0  0  0  0  0
  -30.4373  -25.2955   18.7800 C   0  0  0  0  0  0  0  0  0  0  0  0
  -31.5343  -23.3899   17.4866 C   0  0  0  0  0  0  0  0  0  0  0  0
  -20.5484  -28.0340   22.5273 C   0  0  0  0  0  0  0  0  0  0  0  0
  -21.3016  -20.3319   21.5333 C   0  0  0  0  0  0  0  0  0  0  0  0
  -20.1168  -26.7946   22.0174 C   0  0  0  0  0  0  0  0  0  0  0  0
  -22.5609  -20.2577   20.9211 C   0  0  0  0  0  0  0  0  0  0  0  0
  -26.8011  -13.9512   22.0571 C   0  0  0  0  0  0  0  0  0  0  0  0
  -30.3119  -27.8938   19.7877 C   0  0  0  0  0  0  0  0  0  0  0  0
  -21.7283  -18.5119   19.4484 C   0  0  0  0  0  0  0  0  0  0  0  0
  -29.0542  -29.8457   20.1494 C   0  0  0  0  0  0  0  0  0  0  0  0
  -26.6449  -31.2273   19.8866 C   0  0  0  0  0  0  0  0  0  0  0  0
  -27.8925  -29.3389   20.7318 C   0  0  0  0  0  0  0  0  0  0  0  0
  -30.5018  -23.9532   18.2603 C   0  0  0  0  0  0  0  0  0  0  0  0
  -24.4248  -14.3863   20.7882 C   0  0  0  0  0  0  0  0  0  0  0  0
  -26.6832  -14.7759   20.9500 C   0  0  0  0  0  0  0  0  0  0  0  0
  -31.1220  -22.1013   17.2500 C   0  0  0  0  0  0  0  0  0  0  0  0
  -32.7567  -23.9788   17.0234 C   0  0  0  0  0  0  0  0  0  0  0  0
  -21.7088  -23.4829   21.6284 C   0  0  0  0  0  0  0  0  0  0  0  0
  -24.4334  -22.6918   23.2009 C   0  0  0  0  0  0  0  0  0  0  0  0
  -26.8446  -20.3588   23.8259 C   0  0  0  0  0  0  0  0  0  0  0  0
  -28.4344  -17.8438   19.9075 C   0  0  0  0  0  0  0  0  0  0  0  0
  -21.9534  -28.5363   22.3073 C   0  0  0  0  0  0  0  0  0  0  0  0
  -21.0646  -21.2818   22.6753 C   0  0  0  0  0  0  0  0  0  0  0  0
  -23.7053  -21.1369   21.3522 C   0  0  0  0  0  0  0  0  0  0  0  0
  -22.9352  -27.4407   21.9000 C   0  0  0  0  0  0  0  0  0  0  0  0
  -26.7647  -19.7646   17.3346 C   0  0  0  0  0  0  0  0  0  0  0  0
  -22.3349  -26.5667   20.8034 C   0  0  0  0  0  0  0  0  0  0  0  0
  -27.6694  -20.9944   17.2377 C   0  0  0  0  0  0  0  0  0  0  0  0
  -26.6354  -19.2858   18.7776 C   0  0  0  0  0  0  0  0  0  0  0  0
  -28.8395  -20.2254   19.3542 C   0  0  0  0  0  0  0  0  0  0  0  0
  -21.0637  -25.8625   21.2931 C   0  0  1  0  0  0  0  0  0  0  0  0
  -22.0320  -22.4614   22.6818 C   0  0  1  0  0  0  0  0  0  0  0  0
  -29.0288  -20.7448   17.9174 C   0  0  2  0  0  0  0  0  0  0  0  0
  -28.2293  -14.5118   24.0401 C   0  0  0  0  0  0  0  0  0  0  0  0
  -28.9639  -20.0156   25.1251 C   0  0  0  0  0  0  0  0  0  0  0  0
  -22.3126  -15.6058   16.3598 C   0  0  0  0  0  0  0  0  0  0  0  0
  -25.9500  -24.3925   21.1717 C   0  0  0  0  0  0  0  0  0  0  0  0
  -28.0614  -23.2699   21.9132 C   0  0  0  0  0  0  0  0  0  0  0  0
  -26.7404  -24.6324   23.5322 C   0  0  0  0  0  0  0  0  0  0  0  0
  -25.6711  -18.1257   25.3734 C   0  0  0  0  0  0  0  0  0  0  0  0
  -28.1055  -13.7222   22.7387 C   0  0  0  0  0  0  0  0  0  0  0  0
  -23.1242  -14.6452   20.0698 C   0  0  0  0  0  0  0  0  0  0  0  0
  -23.2863  -14.9374   18.5716 C   0  0  0  0  0  0  0  0  0  0  0  0
  -28.6047  -14.6365   19.3326 C   0  0  0  0  0  0  0  0  0  0  0  0
  -21.1858  -16.4194   18.4569 C   0  0  0  0  0  0  0  0  0  1  0  0
  -27.8836  -15.4753   20.4016 C   0  0  1  0  0  0  0  0  0  0  0  0
  -25.8534  -22.3839   22.7910 C   0  0  1  0  0  0  0  0  0  0  0  0
  -27.4511  -19.8602   25.1251 C   0  0  2  0  0  0  0  0  0  0  0  0
  -21.9791  -15.2708   17.8192 C   0  0  1  0  0  0  0  0  0  0  0  0
  -26.6294  -23.6544   22.3424 C   0  0  0  0  0  0  0  0  0  0  0  0
  -29.5084  -23.0929   18.4991 N   0  0  0  0  0  0  0  0  0  0  0  0
  -25.5206  -15.0105   20.3011 N   0  0  0  0  0  0  0  0  0  0  0  0
  -29.9146  -21.9760   17.8718 N   0  0  0  0  0  0  0  0  0  0  0  0
  -23.4221  -22.0536   22.4689 N   0  0  0  0  0  0  0  0  0  0  0  0
  -27.9638  -19.0489   19.3601 N   0  0  0  0  0  0  0  0  0  0  0  0
  -31.6782  -21.0745   16.5726 N   0  0  0  0  0  0  0  0  0  0  0  0
  -33.0237  -25.3136   17.3570 N   0  0  0  0  0  0  0  0  0  0  0  0
  -21.4029  -24.7329   22.1318 N   0  0  0  0  0  0  0  0  0  0  0  0
  -26.4594  -21.6797   23.9159 N   0  0  0  0  0  0  0  0  0  0  0  0
  -27.5409  -16.7800   19.8806 N   0  0  0  0  0  0  0  0  0  0  0  0
  -27.7057  -14.3907   18.1759 N   0  3  0  0  0  0  0  0  0  0  0  0
  -27.1265  -18.4201   25.3292 N   0  3  0  0  0  0  0  0  0  0  0  0
  -33.5798  -23.3453   16.3201 O   0  0  0  0  0  0  0  0  0  0  0  0
  -21.7364  -23.1612   20.4462 O   0  0  0  0  0  0  0  0  0  0  0  0
  -24.2292  -23.4643   24.1406 O   0  0  0  0  0  0  0  0  0  0  0  0
  -26.7279  -19.6487   22.8296 O   0  0  0  0  0  0  0  0  0  0  0  0
  -29.5697  -17.7229   20.3805 O   0  0  0  0  0  0  0  0  0  0  0  0
  -30.2511  -29.1615   20.2796 O   0  0  0  0  0  0  0  0  0  0  0  0
  -21.9379  -17.6318   18.4318 O   0  0  0  0  0  0  0  0  0  1  0  0
  -25.4885  -31.8916   19.7616 F   0  0  0  0  0  0  0  0  0  0  0  0
  -27.9278  -28.1894   21.4198 F   0  0  0  0  0  0  0  0  0  0  0  0
  1  2  1  0  0  0  0
  1  5  2  0  0  0  0
  2  6  2  0  0  0  0
  3  9  2  0  0  0  0
  3 17  1  0  0  0  0
  4 10  1  0  0  0  0
  4 17  2  0  0  0  0
  5 19  1  0  0  0  0
  6 21  1  0  0  0  0
  7 11  2  0  0  0  0
  7 20  1  0  0  0  0
  8 14  2  0  0  0  0
  8 23  1  0  0  0  0
  9 24  1  0  0  0  0
 10 24  2  0  0  0  0
 11 25  1  0  0  0  0
 12 13  2  0  0  0  0
 12 26  1  0  0  0  0
 13 27  1  0  0  0  0
 14 30  1  0  0  0  0
 15 22  1  0  0  0  0
 15 25  2  0  0  0  0
 16 27  2  0  0  0  0
 16 28  1  0  0  0  0
 17 29  1  0  0  0  0
 18 29  1  0  0  0  0
 18 32  2  0  0  0  0
 18 33  1  0  0  0  0
 19 21  2  0  0  0  0
 19 38  1  0  0  0  0
 20 22  2  0  0  0  0
 20 39  1  0  0  0  0
 21 47  1  0  0  0  0
 22 40  1  0  0  0  0
 23 31  2  0  0  0  0
 23 57  1  0  0  0  0
 24 84  1  0  0  0  0
 25 85  1  0  0  0  0
 26 28  2  0  0  0  0
 26 84  1  0  0  0  0
 27 86  1  0  0  0  0
 28 87  1  0  0  0  0
 29 67  2  0  0  0  0
 30 58  1  0  0  0  0
 30 68  2  0  0  0  0
 31 62  1  0  0  0  0
 31 68  1  0  0  0  0
 32 69  1  0  0  0  0
 32 72  1  0  0  0  0
 33 73  1  0  0  0  0
 33 79  2  0  0  0  0
 34 48  1  0  0  0  0
 34 74  1  0  0  0  0
 34 80  2  0  0  0  0
 35 63  1  0  0  0  0
 35 70  1  0  0  0  0
 35 81  2  0  0  0  0
 36 64  1  0  0  0  0
 36 75  1  0  0  0  0
 36 82  2  0  0  0  0
 37 71  1  0  0  0  0
 37 76  1  0  0  0  0
 37 83  2  0  0  0  0
 38 41  1  0  0  0  0
 39 48  1  0  0  0  0
 40 70  1  0  0  0  0
 41 43  1  0  0  0  0
 42 44  1  0  0  0  0
 42 45  1  0  0  0  0
 43 47  1  0  0  0  0
 44 49  1  0  0  0  0
 45 71  1  0  0  0  0
 46 49  1  0  0  0  0
 46 71  1  0  0  0  0
 47 74  1  0  0  0  0
 48 70  1  0  0  0  0
 49 69  1  0  0  0  0
 50 57  1  0  0  0  0
 51 64  1  0  0  0  0
 52 65  1  0  0  0  0
 53 66  1  0  0  0  0
 54 66  1  0  0  0  0
 55 66  1  0  0  0  0
 56 78  1  0  0  0  0
 58 59  1  0  0  0  0
 59 65  1  0  0  0  0
 60 62  1  0  0  0  0
 60 77  1  0  0  0  0
 61 65  1  0  0  0  0
 61 85  1  0  0  0  0
 62 76  1  0  0  0  0
 63 66  1  0  0  0  0
 63 75  1  0  0  0  0
 64 78  1  0  0  0  0
 67 69  1  0  0  0  0
M  CHG  2  77   1  78   1
M  ISO  4  37 100  61 101  76 100  85 101
M  END
> <Batch ID>
0093

> <Smiles>
CCc1ccc(CCC(C)[101CH2:1][101O:1]c2ccc3c(c2)CN(C(=O)C(NC(=O)C(C)NC)C(C)(C)C)C(C(=O)NC2CCCc4ccccc42)C3)nc1C(CN)[100NH:0][100C:0](=O)N1CCCC(n2nc(-c3ccc(Oc4ccc(F)cc4F)cc3)c(C(N)=O)c2N)C1

> <Shape>
0.192

> <Color>
0.055

> <Negative vol penalty>
0.000

$$$$

  -OEChem-04052319163D

 89 97  0     1  0  0  0  0  0999 V2000
  -26.8931   -8.8258   18.3917 C   0  0  0  0  0  0  0  0  0  0  0  0
  -27.1795  -10.0794   17.8610 C   0  0  0  0  0  0  0  0  0  0  0  0
  -18.6468  -26.9620   20.1521 C   0  0  0  0  0  0  0  0  0  0  0  0
  -19.7250  -25.1758   21.3703 C   0  0  0  0  0  0  0  0  0  0  0  0
  -26.0151   -8.7099   19.4685 C   0  0  0  0  0  0  0  0  0  0  0  0
  -26.5871  -11.2180   18.4062 C   0  0  0  0  0  0  0  0  0  0  0  0
  -29.0922  -16.7823   18.9241 C   0  0  0  0  0  0  0  0  0  0  0  0
  -17.8319  -26.0309   19.5082 C   0  0  0  0  0  0  0  0  0  0  0  0
  -18.9101  -24.2447   20.7264 C   0  0  0  0  0  0  0  0  0  0  0  0
  -28.9813  -17.9367   18.1501 C   0  0  0  0  0  0  0  0  0  0  0  0
  -15.7373  -23.1112   20.9888 C   0  0  0  0  0  0  0  0  0  0  0  0
  -15.1564  -22.1114   21.7690 C   0  0  0  0  0  0  0  0  0  0  0  0
  -27.2754  -18.7652   19.6411 C   0  0  0  0  0  0  0  0  0  0  0  0
  -16.2847  -20.4287   20.4527 C   0  0  0  0  0  0  0  0  0  0  0  0
  -29.3881  -25.4113   18.1159 C   0  0  0  0  0  0  0  0  0  0  0  0
  -19.5934  -26.5344   21.0832 C   0  0  0  0  0  0  0  0  0  0  0  0
  -20.1725  -28.1626   22.9597 C   0  0  0  0  0  0  0  0  0  0  0  0
  -25.4191   -9.8485   20.0334 C   0  0  0  0  0  0  0  0  0  0  0  0
  -28.2864  -16.6056   20.0581 C   0  0  0  0  0  0  0  0  0  0  0  0
  -25.6992  -11.1171   19.4907 C   0  0  0  0  0  0  0  0  0  0  0  0
  -27.3798  -17.6089   20.4292 C   0  0  0  0  0  0  0  0  0  0  0  0
  -30.4075  -24.7829   17.4433 C   0  0  0  0  0  0  0  0  0  0  0  0
  -17.9635  -24.6723   19.7954 C   0  0  0  0  0  0  0  0  0  0  0  0
  -28.0708  -18.9270   18.5069 C   0  0  0  0  0  0  0  0  0  0  0  0
  -16.5918  -22.7698   19.9405 C   0  0  0  0  0  0  0  0  0  0  0  0
  -15.4302  -20.7702   21.5010 C   0  0  0  0  0  0  0  0  0  0  0  0
  -16.8655  -21.4285   19.6725 C   0  0  0  0  0  0  0  0  0  0  0  0
  -20.4359  -27.4956   21.7482 C   0  0  0  0  0  0  0  0  0  0  0  0
  -31.5302  -24.9421   18.2776 C   0  0  0  0  0  0  0  0  0  0  0  0
  -21.2724  -28.9609   23.1584 C   0  0  0  0  0  0  0  0  0  0  0  0
  -19.0353  -28.0688   23.8279 C   0  0  0  0  0  0  0  0  0  0  0  0
  -26.0696  -14.5005   20.9288 C   0  0  0  0  0  0  0  0  0  0  0  0
  -26.2096  -16.1042   23.7450 C   0  0  0  0  0  0  0  0  0  0  0  0
  -26.9645  -18.9914   25.4005 C   0  0  0  0  0  0  0  0  0  0  0  0
  -26.9517  -28.6152   21.2938 C   0  0  0  0  0  0  0  0  0  0  0  0
  -24.4398   -9.6689   21.1662 C   0  0  0  0  0  0  0  0  0  0  0  0
  -28.4371  -15.3667   20.8976 C   0  0  0  0  0  0  0  0  0  0  0  0
  -26.5062  -17.4766   21.6489 C   0  0  0  0  0  0  0  0  0  0  0  0
  -24.1445  -10.9593   21.9264 C   0  0  0  0  0  0  0  0  0  0  0  0
  -24.6814  -31.3044   20.7548 C   0  0  0  0  0  0  0  0  0  0  0  0
  -23.8724  -12.1019   20.9531 C   0  0  0  0  0  0  0  0  0  0  0  0
  -23.3121  -30.6934   21.0576 C   0  0  0  0  0  0  0  0  0  0  0  0
  -25.6088  -30.3011   20.0728 C   0  0  0  0  0  0  0  0  0  0  0  0
  -24.3997  -28.4098   21.0901 C   0  0  0  0  0  0  0  0  0  0  0  0
  -25.0956  -12.3779   20.0705 C   0  0  1  0  0  0  0  0  0  0  0  0
  -27.2025  -15.0623   21.7405 C   0  0  1  0  0  0  0  0  0  0  0  0
  -23.4483  -29.3667   21.8287 C   0  0  2  0  0  0  0  0  0  0  0  0
  -32.9032  -24.4603   18.0459 C   0  0  0  0  0  0  0  0  0  0  0  0
  -26.9382  -20.0124   27.6927 C   0  0  0  0  0  0  0  0  0  0  0  0
  -26.8027  -22.4110   21.7352 C   0  0  0  0  0  0  0  0  0  0  0  0
  -27.2775  -24.0131   23.5812 C   0  0  0  0  0  0  0  0  0  0  0  0
  -23.1856  -16.4601   23.5491 C   0  0  0  0  0  0  0  0  0  0  0  0
  -23.3525  -18.2455   25.2963 C   0  0  0  0  0  0  0  0  0  0  0  0
  -24.0245  -15.9052   25.8388 C   0  0  0  0  0  0  0  0  0  0  0  0
  -30.1021  -25.3211   22.3178 C   0  0  0  0  0  0  0  0  0  0  0  0
  -29.8962  -19.3958   25.3807 C   0  0  0  0  0  0  0  0  0  0  0  0
  -30.3285  -24.0832   16.1099 C   0  0  0  0  0  0  0  0  0  0  0  0
  -30.3156  -22.5540   16.2129 C   0  0  0  0  0  0  0  0  0  0  0  0
  -29.0906  -22.0141   16.9524 C   0  0  0  0  0  0  0  0  0  0  0  0
  -27.8862  -24.6648   21.2211 C   0  0  0  0  0  0  0  0  0  0  0  0
  -29.2574  -26.6279   20.3027 C   0  0  0  0  0  0  0  0  0  0  0  0
  -28.1571  -26.8542   22.5608 C   0  0  0  0  0  0  0  0  0  0  0  0
  -29.1323  -20.4966   17.0697 C   0  0  0  0  0  0  0  0  0  1  0  0
  -25.4985  -17.3000   24.3308 C   0  0  1  0  0  0  0  0  0  0  0  0
  -27.7606  -19.2475   26.6674 C   0  0  2  0  0  0  0  0  0  0  0  0
  -27.7709  -23.4925   22.2260 C   0  0  0  0  0  0  0  0  0  0  0  0
  -24.0302  -16.9796   24.7296 C   0  0  0  0  0  0  0  0  0  0  0  0
  -28.8438  -25.8423   21.5965 C   0  0  2  0  0  0  0  0  0  0  0  0
  -21.6109  -27.8404   21.2147 N   0  0  0  0  0  0  0  0  0  0  0  0
  -31.2506  -25.6187   19.3948 N   0  0  0  0  0  0  0  0  0  0  0  0
  -29.9406  -25.8903   19.2672 N   0  0  0  0  0  0  0  0  0  0  0  0
  -22.0955  -28.7327   22.0951 N   0  0  0  0  0  0  0  0  0  0  0  0
  -26.6860  -16.2441   22.4338 N   0  0  0  0  0  0  0  0  0  0  0  0
  -25.6956  -29.0658   20.8554 N   0  0  0  0  0  0  0  0  0  0  0  0
  -21.6060  -29.8288   24.1371 N   0  0  0  0  0  0  0  0  0  0  0  0
  -17.9943  -27.1998   23.4738 N   0  0  0  0  0  0  0  0  0  0  0  0
  -26.0927  -13.1242   20.8077 N   0  0  0  0  0  0  0  0  0  0  0  0
  -26.3290  -17.7683   25.4351 N   0  0  0  0  0  0  0  0  0  0  0  0
  -26.9441  -27.4399   22.0349 N   0  0  0  0  0  0  0  0  0  0  0  0
  -28.9836  -20.0413   26.3592 N   0  3  0  0  0  0  0  0  0  0  0  0
  -18.9377  -28.7480   24.8779 O   0  0  0  0  0  0  0  0  0  0  0  0
  -25.2356  -15.2595   20.4492 O   0  0  0  0  0  0  0  0  0  0  0  0
  -26.3440  -15.0860   24.4283 O   0  0  0  0  0  0  0  0  0  0  0  0
  -26.9088  -19.7976   24.4745 O   0  0  0  0  0  0  0  0  0  0  0  0
  -28.0016  -29.2188   21.0479 O   0  0  0  0  0  0  0  0  0  0  0  0
  -17.1683  -23.7635   19.1674 O   0  0  0  0  0  0  0  0  0  0  0  0
  -27.9601  -20.0544   17.7528 O   0  0  0  0  0  0  0  0  0  1  0  0
  -14.8735  -19.8103   22.2512 F   0  0  0  0  0  0  0  0  0  0  0  0
  -17.6866  -21.0944   18.6675 F   0  0  0  0  0  0  0  0  0  0  0  0
  1  2  1  0  0  0  0
  1  5  2  0  0  0  0
  2  6  2  0  0  0  0
  3  8  2  0  0  0  0
  3 16  1  0  0  0  0
  4  9  1  0  0  0  0
  4 16  2  0  0  0  0
  5 18  1  0  0  0  0
  6 20  1  0  0  0  0
  7 10  2  0  0  0  0
  7 19  1  0  0  0  0
  8 23  1  0  0  0  0
  9 23  2  0  0  0  0
 10 24  1  0  0  0  0
 11 12  2  0  0  0  0
 11 25  1  0  0  0  0
 12 26  1  0  0  0  0
 13 21  1  0  0  0  0
 13 24  2  0  0  0  0
 14 26  2  0  0  0  0
 14 27  1  0  0  0  0
 15 22  2  0  0  0  0
 15 71  1  0  0  0  0
 16 28  1  0  0  0  0
 17 28  1  0  0  0  0
 17 30  2  0  0  0  0
 17 31  1  0  0  0  0
 18 20  2  0  0  0  0
 18 36  1  0  0  0  0
 19 21  2  0  0  0  0
 19 37  1  0  0  0  0
 20 45  1  0  0  0  0
 21 38  1  0  0  0  0
 22 29  1  0  0  0  0
 22 57  1  0  0  0  0
 23 86  1  0  0  0  0
 24 87  1  0  0  0  0
 25 27  2  0  0  0  0
 25 86  1  0  0  0  0
 26 88  1  0  0  0  0
 27 89  1  0  0  0  0
 28 69  2  0  0  0  0
 29 48  1  0  0  0  0
 29 70  2  0  0  0  0
 30 72  1  0  0  0  0
 30 75  1  0  0  0  0
 31 76  1  0  0  0  0
 31 81  2  0  0  0  0
 32 46  1  0  0  0  0
 32 77  1  0  0  0  0
 32 82  2  0  0  0  0
 33 64  1  0  0  0  0
 33 73  1  0  0  0  0
 33 83  2  0  0  0  0
 34 65  1  0  0  0  0
 34 78  1  0  0  0  0
 34 84  2  0  0  0  0
 35 74  1  0  0  0  0
 35 79  1  0  0  0  0
 35 85  2  0  0  0  0
 36 39  1  0  0  0  0
 37 46  1  0  0  0  0
 38 73  1  0  0  0  0
 39 41  1  0  0  0  0
 40 42  1  0  0  0  0
 40 43  1  0  0  0  0
 41 45  1  0  0  0  0
 42 47  1  0  0  0  0
 43 74  1  0  0  0  0
 44 47  1  0  0  0  0
 44 74  1  0  0  0  0
 45 77  1  0  0  0  0
 46 73  1  0  0  0  0
 47 72  1  0  0  0  0
 49 65  1  0  0  0  0
 50 66  1  0  0  0  0
 51 66  1  0  0  0  0
 52 67  1  0  0  0  0
 53 67  1  0  0  0  0
 54 67  1  0  0  0  0
 55 68  1  0  0  0  0
 56 80  1  0  0  0  0
 57 58  1  0  0  0  0
 58 59  1  0  0  0  0
 59 63  1  0  0  0  0
 60 66  1  0  0  0  0
 60 68  1  0  0  0  0
 61 68  1  0  0  0  0
 61 71  1  0  0  0  0
 62 68  1  0  0  0  0
 62 79  1  0  0  0  0
 63 87  1  0  0  0  0
 64 67  1  0  0  0  0
 64 78  1  0  0  0  0
 65 80  1  0  0  0  0
 69 72  1  0  0  0  0
 70 71  1  0  0  0  0
M  CHG  1  80   1
M  ISO  4  35 100  63 101  79 100  87 101
M  END
> <Batch ID>
0093

> <Smiles>
CNC(C)C(=O)NC(C(=O)N1Cc2cc([101O:1][101CH2:1]CCCc3cn(CC(C)(C[100NH:0][100C:0](=O)N4CCCC(n5nc(-c6ccc(Oc7ccc(F)cc7F)cc6)c(C(N)=O)c5N)C4)CC(C)C)nc3C)ccc2CC1C(=O)NC1CCCc2ccccc21)C(C)(C)C

> <Shape>
0.221

> <Color>
0.050

> <Negative vol penalty>
0.000

$$$$

  -OEChem-04052319163D

 90 98  0     1  0  0  0  0  0999 V2000
  -29.0925  -11.6474   18.9853 C   0  0  0  0  0  0  0  0  0  0  0  0
  -29.3393  -12.7171   19.8399 C   0  0  0  0  0  0  0  0  0  0  0  0
  -28.7787  -23.4242   21.6365 C   0  0  0  0  0  0  0  0  0  0  0  0
  -26.4805  -23.4528   20.8921 C   0  0  0  0  0  0  0  0  0  0  0  0
  -27.9980  -11.6841   18.1225 C   0  0  0  0  0  0  0  0  0  0  0  0
  -28.4922  -13.8247   19.8313 C   0  0  0  0  0  0  0  0  0  0  0  0
  -25.8005  -18.8286   24.1939 C   0  0  0  0  0  0  0  0  0  0  0  0
  -28.7264  -22.0345   21.7446 C   0  0  0  0  0  0  0  0  0  0  0  0
  -26.4282  -22.0631   21.0001 C   0  0  0  0  0  0  0  0  0  0  0  0
  -25.6687  -20.2130   24.2934 C   0  0  0  0  0  0  0  0  0  0  0  0
  -29.3097  -18.4486   21.8709 C   0  0  0  0  0  0  0  0  0  0  0  0
  -30.3840  -17.7178   21.3636 C   0  0  0  0  0  0  0  0  0  0  0  0
  -23.7632  -20.1317   22.8164 C   0  0  0  0  0  0  0  0  0  0  0  0
  -20.2466  -28.3901   23.3046 C   0  0  0  0  0  0  0  0  0  0  0  0
  -29.9705  -18.6347   19.1669 C   0  0  0  0  0  0  0  0  0  0  0  0
  -27.6557  -24.1334   21.2103 C   0  0  0  0  0  0  0  0  0  0  0  0
  -28.5717  -26.3271   20.2849 C   0  0  0  0  0  0  0  0  0  0  0  0
  -27.1315  -12.7885   18.1101 C   0  0  0  0  0  0  0  0  0  0  0  0
  -24.9197  -18.0853   23.3950 C   0  0  0  0  0  0  0  0  0  0  0  0
  -27.3858  -13.8768   18.9665 C   0  0  0  0  0  0  0  0  0  0  0  0
  -23.8843  -18.7377   22.7105 C   0  0  0  0  0  0  0  0  0  0  0  0
  -19.8982  -28.8116   22.0262 C   0  0  0  0  0  0  0  0  0  0  0  0
  -19.2227  -27.9447   21.1744 C   0  0  0  0  0  0  0  0  0  0  0  0
  -27.5512  -21.3540   21.4263 C   0  0  0  0  0  0  0  0  0  0  0  0
  -24.6518  -20.8651   23.6023 C   0  0  0  0  0  0  0  0  0  0  0  0
  -28.5657  -19.2724   21.0261 C   0  0  0  0  0  0  0  0  0  0  0  0
  -30.7144  -17.8109   20.0116 C   0  0  0  0  0  0  0  0  0  0  0  0
  -28.8961  -19.3655   19.6742 C   0  0  0  0  0  0  0  0  0  0  0  0
  -27.7090  -25.5690   21.0990 C   0  0  0  0  0  0  0  0  0  0  0  0
  -19.8994  -27.1024   23.6801 C   0  0  0  0  0  0  0  0  0  0  0  0
  -18.9214  -26.6768   21.6453 C   0  0  0  0  0  0  0  0  0  0  0  0
  -28.2262  -27.6317   20.5400 C   0  0  0  0  0  0  0  0  0  0  0  0
  -29.5939  -25.8910   19.3790 C   0  0  0  0  0  0  0  0  0  0  0  0
  -25.2366  -16.2352   20.8297 C   0  0  0  0  0  0  0  0  0  0  0  0
  -22.0876  -15.6502   21.3439 C   0  0  0  0  0  0  0  0  0  0  0  0
  -19.1283  -16.6937   22.6856 C   0  0  0  0  0  0  0  0  0  0  0  0
  -23.1866  -30.2078   22.4937 C   0  0  0  0  0  0  0  0  0  0  0  0
  -25.9884  -12.8035   17.1263 C   0  0  0  0  0  0  0  0  0  0  0  0
  -25.0588  -16.5896   23.3195 C   0  0  0  0  0  0  0  0  0  0  0  0
  -22.9002  -17.9832   21.8556 C   0  0  0  0  0  0  0  0  0  0  0  0
  -24.9245  -13.8508   17.4447 C   0  0  0  0  0  0  0  0  0  0  0  0
  -26.4153  -30.4218   23.9790 C   0  0  0  0  0  0  0  0  0  0  0  0
  -25.5754  -15.1921   17.7672 C   0  0  0  0  0  0  0  0  0  0  0  0
  -27.1908  -29.2708   23.3359 C   0  0  0  0  0  0  0  0  0  0  0  0
  -24.9540  -30.0513   24.2224 C   0  0  0  0  0  0  0  0  0  0  0  0
  -25.0107  -28.4026   22.3914 C   0  0  0  0  0  0  0  0  0  0  0  0
  -26.4756  -15.0852   19.0040 C   0  0  1  0  0  0  0  0  0  0  0  0
  -24.4216  -15.9926   22.0685 C   0  0  1  0  0  0  0  0  0  0  0  0
  -26.4759  -28.7483   22.0753 C   0  0  2  0  0  0  0  0  0  0  0  0
  -18.8340  -28.3701   19.7985 C   0  0  0  0  0  0  0  0  0  0  0  0
  -16.7214  -16.0204   22.9110 C   0  0  0  0  0  0  0  0  0  0  0  0
  -19.8563  -23.1942   21.2054 C   0  0  0  0  0  0  0  0  0  0  0  0
  -21.2595  -23.7810   19.2186 C   0  0  0  0  0  0  0  0  0  0  0  0
  -21.5921  -16.4598   18.4441 C   0  0  0  0  0  0  0  0  0  0  0  0
  -19.1607  -16.6873   18.9961 C   0  0  0  0  0  0  0  0  0  0  0  0
  -20.2843  -14.4704   19.2098 C   0  0  0  0  0  0  0  0  0  0  0  0
  -19.3072  -16.6120   25.6386 C   0  0  0  0  0  0  0  0  0  0  0  0
  -20.2620  -30.1933   21.5931 C   0  0  0  0  0  0  0  0  0  0  0  0
  -20.2598  -26.6114   25.0597 C   0  0  0  0  0  0  0  0  0  0  0  0
  -18.1957  -25.7016   20.7770 C   0  0  0  0  0  0  0  0  0  0  0  0
  -21.6334  -25.9354   25.1374 C   0  0  0  0  0  0  0  0  0  0  0  0
  -19.1198  -25.0786   19.7154 C   0  0  0  0  0  0  0  0  0  0  0  0
  -21.7240  -24.6630   24.2891 C   0  0  0  0  0  0  0  0  0  0  0  0
  -23.1168  -24.0407   24.3722 C   0  0  0  0  0  0  0  0  0  0  0  0
  -21.4924  -30.2453   20.6806 C   0  0  0  0  0  0  0  0  0  0  0  0
  -23.2054  -22.7526   23.5663 C   0  0  0  0  0  0  0  0  0  1  0  0
  -20.7947  -16.2860   20.8935 C   0  0  1  0  0  0  0  0  0  0  0  0
  -18.1031  -15.9759   23.5448 C   0  0  2  0  0  0  0  0  0  0  0  0
  -20.3336  -24.3346   20.3027 C   0  0  0  0  0  0  0  0  0  0  0  0
  -20.4775  -15.9906   19.4003 C   0  0  0  0  0  0  0  0  0  0  0  0
  -26.8781  -26.3287   21.8176 N   0  0  0  0  0  0  0  0  0  0  0  0
  -19.2434  -26.2318   22.8806 N   0  0  0  0  0  0  0  0  0  0  0  0
  -27.2171  -27.5778   21.4560 N   0  0  0  0  0  0  0  0  0  0  0  0
  -23.0816  -16.5230   21.8087 N   0  0  0  0  0  0  0  0  0  0  0  0
  -24.3337  -29.5650   22.9876 N   0  0  0  0  0  0  0  0  0  0  0  0
  -28.6903  -28.8083   20.0680 N   0  0  0  0  0  0  0  0  0  0  0  0
  -29.2440  -25.6476   18.0438 N   0  0  0  0  0  0  0  0  0  0  0  0
  -25.6773  -15.0809   20.2112 N   0  0  0  0  0  0  0  0  0  0  0  0
  -19.7687  -15.8282   21.8242 N   0  0  0  0  0  0  0  0  0  0  0  0
  -22.6659  -29.6876   21.3152 N   0  0  0  0  0  0  0  0  0  0  0  0
  -18.0228  -16.6077   24.8921 N   0  3  0  0  0  0  0  0  0  0  0  0
  -30.7789  -25.7064   19.7465 O   0  0  0  0  0  0  0  0  0  0  0  0
  -25.4485  -17.3847   20.4615 O   0  0  0  0  0  0  0  0  0  0  0  0
  -22.2086  -14.4237   21.2920 O   0  0  0  0  0  0  0  0  0  0  0  0
  -19.3373  -17.9020   22.7676 O   0  0  0  0  0  0  0  0  0  0  0  0
  -22.6682  -31.1771   23.0582 O   0  0  0  0  0  0  0  0  0  0  0  0
  -27.4999  -19.9979   21.5314 O   0  0  0  0  0  0  0  0  0  0  0  0
  -24.5214  -22.2163   23.6970 O   0  0  0  0  0  0  0  0  0  1  0  0
  -31.7471  -17.1102   19.5250 F   0  0  0  0  0  0  0  0  0  0  0  0
  -28.1858  -20.1562   18.8581 F   0  0  0  0  0  0  0  0  0  0  0  0
  1  2  1  0  0  0  0
  1  5  2  0  0  0  0
  2  6  2  0  0  0  0
  3  8  2  0  0  0  0
  3 16  1  0  0  0  0
  4  9  1  0  0  0  0
  4 16  2  0  0  0  0
  5 18  1  0  0  0  0
  6 20  1  0  0  0  0
  7 10  2  0  0  0  0
  7 19  1  0  0  0  0
  8 24  1  0  0  0  0
  9 24  2  0  0  0  0
 10 25  1  0  0  0  0
 11 12  2  0  0  0  0
 11 26  1  0  0  0  0
 12 27  1  0  0  0  0
 13 21  1  0  0  0  0
 13 25  2  0  0  0  0
 14 22  2  0  0  0  0
 14 30  1  0  0  0  0
 15 27  2  0  0  0  0
 15 28  1  0  0  0  0
 16 29  1  0  0  0  0
 17 29  1  0  0  0  0
 17 32  2  0  0  0  0
 17 33  1  0  0  0  0
 18 20  2  0  0  0  0
 18 38  1  0  0  0  0
 19 21  2  0  0  0  0
 19 39  1  0  0  0  0
 20 47  1  0  0  0  0
 21 40  1  0  0  0  0
 22 23  1  0  0  0  0
 22 58  1  0  0  0  0
 23 31  2  0  0  0  0
 23 50  1  0  0  0  0
 24 87  1  0  0  0  0
 25 88  1  0  0  0  0
 26 28  2  0  0  0  0
 26 87  1  0  0  0  0
 27 89  1  0  0  0  0
 28 90  1  0  0  0  0
 29 71  2  0  0  0  0
 30 59  1  0  0  0  0
 30 72  2  0  0  0  0
 31 60  1  0  0  0  0
 31 72  1  0  0  0  0
 32 73  1  0  0  0  0
 32 76  1  0  0  0  0
 33 77  1  0  0  0  0
 33 82  2  0  0  0  0
 34 48  1  0  0  0  0
 34 78  1  0  0  0  0
 34 83  2  0  0  0  0
 35 67  1  0  0  0  0
 35 74  1  0  0  0  0
 35 84  2  0  0  0  0
 36 68  1  0  0  0  0
 36 79  1  0  0  0  0
 36 85  2  0  0  0  0
 37 75  1  0  0  0  0
 37 80  1  0  0  0  0
 37 86  2  0  0  0  0
 38 41  1  0  0  0  0
 39 48  1  0  0  0  0
 40 74  1  0  0  0  0
 41 43  1  0  0  0  0
 42 44  1  0  0  0  0
 42 45  1  0  0  0  0
 43 47  1  0  0  0  0
 44 49  1  0  0  0  0
 45 75  1  0  0  0  0
 46 49  1  0  0  0  0
 46 75  1  0  0  0  0
 47 78  1  0  0  0  0
 48 74  1  0  0  0  0
 49 73  1  0  0  0  0
 51 68  1  0  0  0  0
 52 69  1  0  0  0  0
 53 69  1  0  0  0  0
 54 70  1  0  0  0  0
 55 70  1  0  0  0  0
 56 70  1  0  0  0  0
 57 81  1  0  0  0  0
 58 65  1  0  0  0  0
 59 61  1  0  0  0  0
 60 62  1  0  0  0  0
 61 63  1  0  0  0  0
 62 69  1  0  0  0  0
 63 64  1  0  0  0  0
 64 66  1  0  0  0  0
 65 80  1  0  0  0  0
 66 88  1  0  0  0  0
 67 70  1  0  0  0  0
 67 79  1  0  0  0  0
 68 81  1  0  0  0  0
 71 73  1  0  0  0  0
M  CHG  1  81   1
M  ISO  4  37 100  66 101  80 100  88 101
M  END
> <Batch ID>
0093

> <Smiles>
CNC(C)C(=O)NC(C(=O)N1Cc2cc([101O:1][101CH2:1]CCCCc3cc(CC[100NH:0][100C:0](=O)N4CCCC(n5nc(-c6ccc(Oc7ccc(F)cc7F)cc6)c(C(N)=O)c5N)C4)c(C)c(CCC(C)C)n3)ccc2CC1C(=O)NC1CCCc2ccccc21)C(C)(C)C

> <Shape>
0.231

> <Color>
0.071

> <Negative vol penalty>
0.000

$$$$

  -OEChem-04052319163D

 89 97  0     1  0  0  0  0  0999 V2000
  -27.9122  -33.7623   25.3758 C   0  0  0  0  0  0  0  0  0  0  0  0
  -28.0357  -32.4763   24.8597 C   0  0  0  0  0  0  0  0  0  0  0  0
  -24.3838   -9.5413   20.8725 C   0  0  0  0  0  0  0  0  0  0  0  0
  -22.4382  -10.7196   21.6870 C   0  0  0  0  0  0  0  0  0  0  0  0
  -26.6549  -34.2552   25.7227 C   0  0  0  0  0  0  0  0  0  0  0  0
  -26.9021  -31.6821   24.6911 C   0  0  0  0  0  0  0  0  0  0  0  0
  -26.8417  -29.3066   20.2191 C   0  0  0  0  0  0  0  0  0  0  0  0
  -23.6874   -8.3355   20.9533 C   0  0  0  0  0  0  0  0  0  0  0  0
  -21.7418   -9.5137   21.7678 C   0  0  0  0  0  0  0  0  0  0  0  0
  -27.6453  -28.1748   20.0885 C   0  0  0  0  0  0  0  0  0  0  0  0
  -20.1412   -7.4173   19.6550 C   0  0  0  0  0  0  0  0  0  0  0  0
  -18.8355   -7.3907   19.1650 C   0  0  0  0  0  0  0  0  0  0  0  0
  -25.7156  -26.7713   20.4428 C   0  0  0  0  0  0  0  0  0  0  0  0
  -27.8725  -21.0886   19.0208 C   0  0  0  0  0  0  0  0  0  0  0  0
  -18.0268   -6.7647   21.3540 C   0  0  0  0  0  0  0  0  0  0  0  0
  -30.0794  -20.8902   18.1568 C   0  0  0  0  0  0  0  0  0  0  0  0
  -23.7592  -10.7334   21.2394 C   0  0  0  0  0  0  0  0  0  0  0  0
  -24.5442  -12.8512   20.0534 C   0  0  0  0  0  0  0  0  0  0  0  0
  -25.5042  -33.4701   25.5493 C   0  0  0  0  0  0  0  0  0  0  0  0
  -25.4687  -29.1791   20.4739 C   0  0  0  0  0  0  0  0  0  0  0  0
  -25.6284  -32.1645   25.0372 C   0  0  0  0  0  0  0  0  0  0  0  0
  -24.8964  -27.9030   20.5738 C   0  0  0  0  0  0  0  0  0  0  0  0
  -28.8427  -21.5138   18.1201 C   0  0  0  0  0  0  0  0  0  0  0  0
  -28.1645  -20.0672   19.9179 C   0  0  0  0  0  0  0  0  0  0  0  0
  -22.3664   -8.3217   21.4009 C   0  0  0  0  0  0  0  0  0  0  0  0
  -27.0828  -26.9069   20.2032 C   0  0  0  0  0  0  0  0  0  0  0  0
  -20.3897   -7.1176   20.9945 C   0  0  0  0  0  0  0  0  0  0  0  0
  -17.7783   -7.0644   20.0145 C   0  0  0  0  0  0  0  0  0  0  0  0
  -19.3325   -6.7913   21.8439 C   0  0  0  0  0  0  0  0  0  0  0  0
  -24.4783  -11.9793   21.1567 C   0  0  0  0  0  0  0  0  0  0  0  0
  -29.4316  -19.5083   19.8740 C   0  0  0  0  0  0  0  0  0  0  0  0
  -25.3456  -13.8826   20.4782 C   0  0  0  0  0  0  0  0  0  0  0  0
  -23.9353  -12.7388   18.7602 C   0  0  0  0  0  0  0  0  0  0  0  0
  -23.5349  -30.0584   22.8384 C   0  0  0  0  0  0  0  0  0  0  0  0
  -21.2292  -28.9560   20.8407 C   0  0  0  0  0  0  0  0  0  0  0  0
  -20.3829  -26.9170   18.2383 C   0  0  0  0  0  0  0  0  0  0  0  0
  -26.8520  -17.5914   24.3668 C   0  0  0  0  0  0  0  0  0  0  0  0
  -24.1721  -34.0289   25.9828 C   0  0  0  0  0  0  0  0  0  0  0  0
  -24.6108  -30.4096   20.5856 C   0  0  0  0  0  0  0  0  0  0  0  0
  -23.4240  -27.7118   20.8266 C   0  0  0  0  0  0  0  0  0  0  0  0
  -22.9779  -33.2604   25.4228 C   0  0  0  0  0  0  0  0  0  0  0  0
  -28.2372  -14.3201   24.6054 C   0  0  0  0  0  0  0  0  0  0  0  0
  -23.1839  -31.7582   25.5897 C   0  0  0  0  0  0  0  0  0  0  0  0
  -27.3845  -13.4908   23.6436 C   0  0  0  0  0  0  0  0  0  0  0  0
  -27.4056  -15.3769   25.3291 C   0  0  0  0  0  0  0  0  0  0  0  0
  -25.7734  -15.4344   23.4834 C   0  0  0  0  0  0  0  0  0  0  0  0
  -24.4194  -31.2815   24.8165 C   0  0  1  0  0  0  0  0  0  0  0  0
  -23.3164  -30.1675   21.3559 C   0  0  1  0  0  0  0  0  0  0  0  0
  -26.5788  -14.3922   22.6888 C   0  0  2  0  0  0  0  0  0  0  0  0
  -30.0876  -14.5488   20.4184 C   0  0  0  0  0  0  0  0  0  0  0  0
  -27.4450  -22.2049   16.1565 C   0  0  0  0  0  0  0  0  0  0  0  0
  -18.4152  -26.2033   16.8541 C   0  0  0  0  0  0  0  0  0  0  0  0
  -20.2514  -27.2032   23.1389 C   0  0  0  0  0  0  0  0  0  0  0  0
  -18.9511  -25.8629   21.4713 C   0  0  0  0  0  0  0  0  0  0  0  0
  -18.4331  -28.2805   21.8019 C   0  0  0  0  0  0  0  0  0  0  0  0
  -21.6150  -27.9403   15.7495 C   0  0  0  0  0  0  0  0  0  0  0  0
  -27.1302  -19.6081   20.8867 C   0  0  0  0  0  0  0  0  0  0  0  0
  -29.8013  -18.4072   20.8134 C   0  0  0  0  0  0  0  0  0  0  0  0
  -30.1353  -15.9079   21.0982 C   0  0  0  0  0  0  0  0  0  0  0  0
  -27.2981  -20.1667   22.3144 C   0  0  0  0  0  0  0  0  0  0  0  0
  -29.7944  -17.0346   20.1229 C   0  0  0  0  0  0  0  0  0  0  0  0
  -29.3473  -24.5395   18.6430 C   0  0  0  0  0  0  0  0  0  0  0  0
  -28.1966  -23.9673   17.8025 C   0  0  0  0  0  0  0  0  0  0  0  0
  -26.2069  -19.7327   23.2907 C   0  0  0  0  0  0  0  0  0  0  0  0
  -29.0066  -25.9059   19.2270 C   0  0  0  0  0  0  0  0  0  1  0  0
  -28.5557  -22.6263   17.1265 C   0  0  1  0  0  0  0  0  0  0  0  0
  -20.5631  -27.6210   20.6102 C   0  0  1  0  0  0  0  0  0  0  0  0
  -19.5787  -27.1748   16.9768 C   0  0  2  0  0  0  0  0  0  0  0  0
  -19.5778  -27.2452   21.7527 C   0  0  0  0  0  0  0  0  0  0  0  0
  -30.4001  -19.8948   19.0136 N   0  0  0  0  0  0  0  0  0  0  0  0
  -25.1819  -12.4184   22.2037 N   0  0  0  0  0  0  0  0  0  0  0  0
  -25.6976  -13.5775   21.7601 N   0  0  0  0  0  0  0  0  0  0  0  0
  -22.6281  -28.9457   20.9346 N   0  0  0  0  0  0  0  0  0  0  0  0
  -26.6676  -16.1989   24.3670 N   0  0  0  0  0  0  0  0  0  0  0  0
  -25.7765  -15.0116   19.8766 N   0  0  0  0  0  0  0  0  0  0  0  0
  -23.1426  -11.6150   18.4903 N   0  0  0  0  0  0  0  0  0  0  0  0
  -24.1214  -31.1743   23.4043 N   0  0  0  0  0  0  0  0  0  0  0  0
  -19.9469  -27.6949   19.2899 N   0  0  0  0  0  0  0  0  0  0  0  0
  -26.1194  -18.2950   23.4187 N   0  0  0  0  0  0  0  0  0  0  0  0
  -20.4433  -27.0272   15.7720 N   0  3  0  0  0  0  0  0  0  0  0  0
  -24.1030  -13.6012   17.8648 O   0  0  0  0  0  0  0  0  0  0  0  0
  -23.1951  -29.0380   23.4257 O   0  0  0  0  0  0  0  0  0  0  0  0
  -20.5344  -29.9716   20.9269 O   0  0  0  0  0  0  0  0  0  0  0  0
  -21.3033  -26.1039   18.2869 O   0  0  0  0  0  0  0  0  0  0  0  0
  -27.6173  -18.1645   25.1497 O   0  0  0  0  0  0  0  0  0  0  0  0
  -21.6865   -7.1452   21.4796 O   0  0  0  0  0  0  0  0  0  0  0  0
  -27.8650  -25.8006   20.0767 O   0  0  0  0  0  0  0  0  0  1  0  0
  -16.5244   -7.0404   19.5442 F   0  0  0  0  0  0  0  0  0  0  0  0
  -19.5650   -6.5036   23.1320 F   0  0  0  0  0  0  0  0  0  0  0  0
  1  2  1  0  0  0  0
  1  5  2  0  0  0  0
  2  6  2  0  0  0  0
  3  8  2  0  0  0  0
  3 17  1  0  0  0  0
  4  9  1  0  0  0  0
  4 17  2  0  0  0  0
  5 19  1  0  0  0  0
  6 21  1  0  0  0  0
  7 10  2  0  0  0  0
  7 20  1  0  0  0  0
  8 25  1  0  0  0  0
  9 25  2  0  0  0  0
 10 26  1  0  0  0  0
 11 12  2  0  0  0  0
 11 27  1  0  0  0  0
 12 28  1  0  0  0  0
 13 22  1  0  0  0  0
 13 26  2  0  0  0  0
 14 23  2  0  0  0  0
 14 24  1  0  0  0  0
 15 28  2  0  0  0  0
 15 29  1  0  0  0  0
 16 23  1  0  0  0  0
 16 70  2  0  0  0  0
 17 30  1  0  0  0  0
 18 30  1  0  0  0  0
 18 32  2  0  0  0  0
 18 33  1  0  0  0  0
 19 21  2  0  0  0  0
 19 38  1  0  0  0  0
 20 22  2  0  0  0  0
 20 39  1  0  0  0  0
 21 47  1  0  0  0  0
 22 40  1  0  0  0  0
 23 66  1  0  0  0  0
 24 31  2  0  0  0  0
 24 57  1  0  0  0  0
 25 86  1  0  0  0  0
 26 87  1  0  0  0  0
 27 29  2  0  0  0  0
 27 86  1  0  0  0  0
 28 88  1  0  0  0  0
 29 89  1  0  0  0  0
 30 71  2  0  0  0  0
 31 58  1  0  0  0  0
 31 70  1  0  0  0  0
 32 72  1  0  0  0  0
 32 75  1  0  0  0  0
 33 76  1  0  0  0  0
 33 81  2  0  0  0  0
 34 48  1  0  0  0  0
 34 77  1  0  0  0  0
 34 82  2  0  0  0  0
 35 67  1  0  0  0  0
 35 73  1  0  0  0  0
 35 83  2  0  0  0  0
 36 68  1  0  0  0  0
 36 78  1  0  0  0  0
 36 84  2  0  0  0  0
 37 74  1  0  0  0  0
 37 79  1  0  0  0  0
 37 85  2  0  0  0  0
 38 41  1  0  0  0  0
 39 48  1  0  0  0  0
 40 73  1  0  0  0  0
 41 43  1  0  0  0  0
 42 44  1  0  0  0  0
 42 45  1  0  0  0  0
 43 47  1  0  0  0  0
 44 49  1  0  0  0  0
 45 74  1  0  0  0  0
 46 49  1  0  0  0  0
 46 74  1  0  0  0  0
 47 77  1  0  0  0  0
 48 73  1  0  0  0  0
 49 72  1  0  0  0  0
 50 59  1  0  0  0  0
 51 66  1  0  0  0  0
 52 68  1  0  0  0  0
 53 69  1  0  0  0  0
 54 69  1  0  0  0  0
 55 69  1  0  0  0  0
 56 80  1  0  0  0  0
 57 60  1  0  0  0  0
 58 61  1  0  0  0  0
 59 61  1  0  0  0  0
 60 64  1  0  0  0  0
 62 63  1  0  0  0  0
 62 65  1  0  0  0  0
 63 66  1  0  0  0  0
 64 79  1  0  0  0  0
 65 87  1  0  0  0  0
 67 69  1  0  0  0  0
 67 78  1  0  0  0  0
 68 80  1  0  0  0  0
 71 72  1  0  0  0  0
M  CHG  1  80   1
M  ISO  4  37 100  65 101  79 100  87 101
M  END
> <Batch ID>
0093

> <Smiles>
CCCCc1ncc(C(C)CC[101CH2:1][101O:1]c2ccc3c(c2)CN(C(=O)C(NC(=O)C(C)NC)C(C)(C)C)C(C(=O)NC2CCCc4ccccc42)C3)cc1CCC[100NH:0][100C:0](=O)N1CCCC(n2nc(-c3ccc(Oc4ccc(F)cc4F)cc3)c(C(N)=O)c2N)C1

> <Shape>
0.282

> <Color>
0.122

> <Negative vol penalty>
0.000

$$$$

  -OEChem-04052319163D

 85 93  0     1  0  0  0  0  0999 V2000
  -26.1144  -23.5479   17.6898 C   0  0  0  0  0  0  0  0  0  0  0  0
  -25.0172  -24.1659   18.2811 C   0  0  0  0  0  0  0  0  0  0  0  0
  -26.7944  -13.1523   20.6082 C   0  0  0  0  0  0  0  0  0  0  0  0
  -24.4377  -13.6010   20.3227 C   0  0  0  0  0  0  0  0  0  0  0  0
  -27.3904  -23.7424   18.2169 C   0  0  0  0  0  0  0  0  0  0  0  0
  -25.1952  -24.9779   19.4006 C   0  0  0  0  0  0  0  0  0  0  0  0
  -22.5878  -29.3083   19.0940 C   0  0  0  0  0  0  0  0  0  0  0  0
  -26.4878  -11.9679   21.2780 C   0  0  0  0  0  0  0  0  0  0  0  0
  -24.1310  -12.4165   20.9925 C   0  0  0  0  0  0  0  0  0  0  0  0
  -21.2212  -29.2491   19.3632 C   0  0  0  0  0  0  0  0  0  0  0  0
  -24.0437   -9.1117   20.2917 C   0  0  0  0  0  0  0  0  0  0  0  0
  -23.0595   -8.2924   19.7388 C   0  0  0  0  0  0  0  0  0  0  0  0
  -21.6297  -30.0836   21.5894 C   0  0  0  0  0  0  0  0  0  0  0  0
  -20.9534  -24.4650   22.6250 C   0  0  0  0  0  0  0  0  0  0  0  0
  -21.7456   -8.5104   21.7546 C   0  0  0  0  0  0  0  0  0  0  0  0
  -25.7693  -13.9690   20.1306 C   0  0  0  0  0  0  0  0  0  0  0  0
  -26.2847  -15.3607   18.0557 C   0  0  0  0  0  0  0  0  0  0  0  0
  -27.5854  -24.5650   19.3377 C   0  0  0  0  0  0  0  0  0  0  0  0
  -23.4884  -29.7460   20.0758 C   0  0  0  0  0  0  0  0  0  0  0  0
  -26.4748  -25.1825   19.9441 C   0  0  0  0  0  0  0  0  0  0  0  0
  -23.0070  -30.1498   21.3293 C   0  0  0  0  0  0  0  0  0  0  0  0
  -19.6097  -24.9041   22.5312 C   0  0  0  0  0  0  0  0  0  0  0  0
  -25.1561  -11.5999   21.4701 C   0  0  0  0  0  0  0  0  0  0  0  0
  -20.7422  -29.6340   20.6120 C   0  0  0  0  0  0  0  0  0  0  0  0
  -23.8789   -9.6302   21.5761 C   0  0  0  0  0  0  0  0  0  0  0  0
  -21.9104   -7.9918   20.4702 C   0  0  0  0  0  0  0  0  0  0  0  0
  -22.7299   -9.3296   22.3075 C   0  0  0  0  0  0  0  0  0  0  0  0
  -26.0854  -15.1929   19.4392 C   0  0  0  0  0  0  0  0  0  0  0  0
  -20.9715  -23.1251   22.3063 C   0  0  0  0  0  0  0  0  0  0  0  0
  -18.8475  -23.8191   22.1582 C   0  0  0  0  0  0  0  0  0  0  0  0
  -26.5565  -16.6988   17.9077 C   0  0  0  0  0  0  0  0  0  0  0  0
  -26.2290  -14.3934   16.9989 C   0  0  0  0  0  0  0  0  0  0  0  0
  -25.9399  -28.4339   21.6160 C   0  0  0  0  0  0  0  0  0  0  0  0
  -26.2955  -31.4319   22.8026 C   0  0  0  0  0  0  0  0  0  0  0  0
  -24.8704  -34.4438   23.5400 C   0  0  0  0  0  0  0  0  0  0  0  0
  -25.1827  -21.5243   21.1755 C   0  0  0  0  0  0  0  0  0  0  0  0
  -28.9775  -24.7073   19.9003 C   0  0  0  0  0  0  0  0  0  0  0  0
  -24.9568  -29.8294   19.7607 C   0  0  0  0  0  0  0  0  0  0  0  0
  -23.9301  -30.6465   22.4108 C   0  0  0  0  0  0  0  0  0  0  0  0
  -29.1283  -25.8828   20.8625 C   0  0  0  0  0  0  0  0  0  0  0  0
  -28.4394  -20.4191   20.2541 C   0  0  0  0  0  0  0  0  0  0  0  0
  -27.9745  -25.9075   21.8601 C   0  0  0  0  0  0  0  0  0  0  0  0
  -28.2234  -18.9695   19.8159 C   0  0  0  0  0  0  0  0  0  0  0  0
  -27.5366  -20.7946   21.4271 C   0  0  0  0  0  0  0  0  0  0  0  0
  -25.8846  -19.0868   20.7726 C   0  0  0  0  0  0  0  0  0  0  0  0
  -26.6306  -26.0905   21.1447 C   0  0  1  0  0  0  0  0  0  0  0  0
  -25.8375  -29.8033   21.0061 C   0  0  1  0  0  0  0  0  0  0  0  0
  -26.7330  -18.6784   19.5562 C   0  0  2  0  0  0  0  0  0  0  0  0
  -17.3924  -23.7146   21.9176 C   0  0  0  0  0  0  0  0  0  0  0  0
  -18.6233  -20.6573   22.7922 C   0  0  0  0  0  0  0  0  0  0  0  0
  -25.4036  -36.6838   24.5378 C   0  0  0  0  0  0  0  0  0  0  0  0
  -17.4850  -28.8421   22.1104 C   0  0  0  0  0  0  0  0  0  0  0  0
  -26.2417  -30.1989   25.5931 C   0  0  0  0  0  0  0  0  0  0  0  0
  -25.8202  -32.4862   26.5197 C   0  0  0  0  0  0  0  0  0  0  0  0
  -27.9362  -32.0125   25.2864 C   0  0  0  0  0  0  0  0  0  0  0  0
  -24.1991  -35.8532   21.0256 C   0  0  0  0  0  0  0  0  0  0  0  0
  -19.1137  -26.3039   22.7926 C   0  0  0  0  0  0  0  0  0  0  0  0
  -22.1067  -22.1815   22.2474 C   0  0  0  0  0  0  0  0  0  0  0  0
  -19.4201  -27.2915   21.6574 C   0  0  0  0  0  0  0  0  0  0  0  0
  -19.2767  -21.4074   21.6442 C   0  0  0  0  0  0  0  0  0  0  0  0
  -22.7892  -22.1049   20.8701 C   0  0  0  0  0  0  0  0  0  0  0  0
  -25.7638  -32.1764   24.0034 C   0  0  1  0  0  0  0  0  0  0  0  0
  -25.3191  -35.8664   23.2582 C   0  0  2  0  0  0  0  0  0  0  0  0
  -18.9966  -28.7354   21.9542 C   0  0  1  0  0  0  0  0  0  1  0  0
  -26.4231  -31.7073   25.3312 C   0  0  0  0  0  0  0  0  0  0  0  0
  -26.2194  -16.3334   20.1214 N   0  0  0  0  0  0  0  0  0  0  0  0
  -19.6858  -22.7432   22.0247 N   0  0  0  0  0  0  0  0  0  0  0  0
  -26.5058  -17.2305   19.1627 N   0  0  0  0  0  0  0  0  0  0  0  0
  -25.3580  -30.7038   22.0565 N   0  0  0  0  0  0  0  0  0  0  0  0
  -26.1368  -20.4952   21.1158 N   0  0  0  0  0  0  0  0  0  0  0  0
  -26.8317  -17.4608   16.8279 N   0  0  0  0  0  0  0  0  0  0  0  0
  -25.9368  -13.0623   17.3262 N   0  0  0  0  0  0  0  0  0  0  0  0
  -26.4464  -27.4737   20.7610 N   0  0  0  0  0  0  0  0  0  0  0  0
  -25.9430  -33.5954   23.7161 N   0  0  0  0  0  0  0  0  0  0  0  0
  -23.8805  -21.1564   20.8595 N   0  0  0  0  0  0  0  0  0  0  0  0
  -24.3621  -36.5379   22.3339 N   0  3  0  0  0  0  0  0  0  0  0  0
  -26.4486  -14.6972   15.8018 O   0  0  0  0  0  0  0  0  0  0  0  0
  -25.5869  -28.2615   22.7767 O   0  0  0  0  0  0  0  0  0  0  0  0
  -27.4972  -31.4998   22.5323 O   0  0  0  0  0  0  0  0  0  0  0  0
  -23.6868  -34.1186   23.6017 O   0  0  0  0  0  0  0  0  0  0  0  0
  -25.4709  -22.6861   21.4822 O   0  0  0  0  0  0  0  0  0  0  0  0
  -24.8566  -10.4440   22.1234 O   0  0  0  0  0  0  0  0  0  0  0  0
  -19.4088  -29.5766   20.8777 O   0  0  0  0  0  0  0  0  0  1  0  0
  -20.9646   -7.2063   19.9385 F   0  0  0  0  0  0  0  0  0  0  0  0
  -22.5654   -9.8258   23.5414 F   0  0  0  0  0  0  0  0  0  0  0  0
  1  2  1  0  0  0  0
  1  5  2  0  0  0  0
  2  6  2  0  0  0  0
  3  8  2  0  0  0  0
  3 16  1  0  0  0  0
  4  9  1  0  0  0  0
  4 16  2  0  0  0  0
  5 18  1  0  0  0  0
  6 20  1  0  0  0  0
  7 10  2  0  0  0  0
  7 19  1  0  0  0  0
  8 23  1  0  0  0  0
  9 23  2  0  0  0  0
 10 24  1  0  0  0  0
 11 12  2  0  0  0  0
 11 25  1  0  0  0  0
 12 26  1  0  0  0  0
 13 21  1  0  0  0  0
 13 24  2  0  0  0  0
 14 22  1  0  0  0  0
 14 29  2  0  0  0  0
 15 26  2  0  0  0  0
 15 27  1  0  0  0  0
 16 28  1  0  0  0  0
 17 28  1  0  0  0  0
 17 31  2  0  0  0  0
 17 32  1  0  0  0  0
 18 20  2  0  0  0  0
 18 37  1  0  0  0  0
 19 21  2  0  0  0  0
 19 38  1  0  0  0  0
 20 46  1  0  0  0  0
 21 39  1  0  0  0  0
 22 30  2  0  0  0  0
 22 57  1  0  0  0  0
 23 82  1  0  0  0  0
 24 83  1  0  0  0  0
 25 27  2  0  0  0  0
 25 82  1  0  0  0  0
 26 84  1  0  0  0  0
 27 85  1  0  0  0  0
 28 66  2  0  0  0  0
 29 58  1  0  0  0  0
 29 67  1  0  0  0  0
 30 49  1  0  0  0  0
 30 67  1  0  0  0  0
 31 68  1  0  0  0  0
 31 71  1  0  0  0  0
 32 72  1  0  0  0  0
 32 77  2  0  0  0  0
 33 47  1  0  0  0  0
 33 73  1  0  0  0  0
 33 78  2  0  0  0  0
 34 62  1  0  0  0  0
 34 69  1  0  0  0  0
 34 79  2  0  0  0  0
 35 63  1  0  0  0  0
 35 74  1  0  0  0  0
 35 80  2  0  0  0  0
 36 70  1  0  0  0  0
 36 75  1  0  0  0  0
 36 81  2  0  0  0  0
 37 40  1  0  0  0  0
 38 47  1  0  0  0  0
 39 69  1  0  0  0  0
 40 42  1  0  0  0  0
 41 43  1  0  0  0  0
 41 44  1  0  0  0  0
 42 46  1  0  0  0  0
 43 48  1  0  0  0  0
 44 70  1  0  0  0  0
 45 48  1  0  0  0  0
 45 70  1  0  0  0  0
 46 73  1  0  0  0  0
 47 69  1  0  0  0  0
 48 68  1  0  0  0  0
 50 60  1  0  0  0  0
 51 63  1  0  0  0  0
 52 64  1  0  0  0  0
 53 65  1  0  0  0  0
 54 65  1  0  0  0  0
 55 65  1  0  0  0  0
 56 76  1  0  0  0  0
 57 59  1  0  0  0  0
 58 61  1  0  0  0  0
 59 64  1  0  0  0  0
 60 67  1  0  0  0  0
 61 75  1  0  0  0  0
 62 65  1  0  0  0  0
 62 74  1  0  0  0  0
 63 76  1  0  0  0  0
 64 83  1  0  0  0  0
 66 68  1  0  0  0  0
M  CHG  1  76   1
M  ISO  4  36 100  64 101  75 100  83 101
M  END
> <Batch ID>
0093

> <Smiles>
CCn1c(CC[100NH:0][100C:0](=O)N2CCCC(n3nc(-c4ccc(Oc5ccc(F)cc5F)cc4)c(C(N)=O)c3N)C2)cc(CC[101CH:1](C)[101O:1]c2ccc3c(c2)CN(C(=O)C(NC(=O)C(C)NC)C(C)(C)C)C(C(=O)NC2CCCc4ccccc42)C3)c1C

> <Shape>
0.280

> <Color>
0.085

> <Negative vol penalty>
0.000

$$$$

  -OEChem-04052319163D

 89 97  0     1  0  0  0  0  0999 V2000
  -30.8375  -15.5779   26.0062 C   0  0  0  0  0  0  0  0  0  0  0  0
  -31.9263  -16.0178   25.2620 C   0  0  0  0  0  0  0  0  0  0  0  0
  -23.0621   -9.8462   19.9484 C   0  0  0  0  0  0  0  0  0  0  0  0
  -23.8231   -9.8667   22.2413 C   0  0  0  0  0  0  0  0  0  0  0  0
  -30.2381  -16.4323   26.9292 C   0  0  0  0  0  0  0  0  0  0  0  0
  -32.4236  -17.3080   25.4489 C   0  0  0  0  0  0  0  0  0  0  0  0
  -36.5882  -18.4607   23.0972 C   0  0  0  0  0  0  0  0  0  0  0  0
  -22.3231   -8.6912   20.2039 C   0  0  0  0  0  0  0  0  0  0  0  0
  -23.0841   -8.7117   22.4969 C   0  0  0  0  0  0  0  0  0  0  0  0
  -36.6447  -18.6607   21.7186 C   0  0  0  0  0  0  0  0  0  0  0  0
  -19.3789   -7.8890   21.6604 C   0  0  0  0  0  0  0  0  0  0  0  0
  -18.0720   -7.8352   21.1760 C   0  0  0  0  0  0  0  0  0  0  0  0
  -36.7360  -21.0449   22.0743 C   0  0  0  0  0  0  0  0  0  0  0  0
  -30.1787  -20.0165   19.0793 C   0  0  0  0  0  0  0  0  0  0  0  0
  -29.3177  -18.6562   20.8661 C   0  0  0  0  0  0  0  0  0  0  0  0
  -18.6390   -5.8885   19.8623 C   0  0  0  0  0  0  0  0  0  0  0  0
  -23.8121  -10.4340   20.9670 C   0  0  0  0  0  0  0  0  0  0  0  0
  -24.1435  -12.9600   20.8354 C   0  0  0  0  0  0  0  0  0  0  0  0
  -30.7211  -17.7377   27.1180 C   0  0  0  0  0  0  0  0  0  0  0  0
  -36.5942  -19.5536   23.9758 C   0  0  0  0  0  0  0  0  0  0  0  0
  -31.8473  -18.1772   26.3928 C   0  0  0  0  0  0  0  0  0  0  0  0
  -36.6821  -20.8560   23.4637 C   0  0  0  0  0  0  0  0  0  0  0  0
  -29.1396  -19.6763   19.9383 C   0  0  0  0  0  0  0  0  0  0  0  0
  -22.3341   -8.1239   21.4782 C   0  0  0  0  0  0  0  0  0  0  0  0
  -36.7157  -19.9530   21.2068 C   0  0  0  0  0  0  0  0  0  0  0  0
  -20.3160   -6.9426   21.2456 C   0  0  0  0  0  0  0  0  0  0  0  0
  -17.7020   -6.8349   20.2770 C   0  0  0  0  0  0  0  0  0  0  0  0
  -19.9460   -5.9423   20.3466 C   0  0  0  0  0  0  0  0  0  0  0  0
  -24.5762  -11.6269   20.7035 C   0  0  0  0  0  0  0  0  0  0  0  0
  -31.3667  -19.3116   19.1875 C   0  0  0  0  0  0  0  0  0  0  0  0
  -30.5442  -18.0121   20.8942 C   0  0  0  0  0  0  0  0  0  0  0  0
  -25.2323  -13.7123   20.4681 C   0  0  0  0  0  0  0  0  0  0  0  0
  -22.8711  -13.4724   21.2526 C   0  0  0  0  0  0  0  0  0  0  0  0
  -34.5655  -20.7084   26.1333 C   0  0  0  0  0  0  0  0  0  0  0  0
  -37.0136  -22.7367   26.7775 C   0  0  0  0  0  0  0  0  0  0  0  0
  -39.8525  -24.2885   25.6916 C   0  0  0  0  0  0  0  0  0  0  0  0
  -30.7119  -14.7548   20.6489 C   0  0  0  0  0  0  0  0  0  0  0  0
  -30.0393  -18.6178   28.1358 C   0  0  0  0  0  0  0  0  0  0  0  0
  -36.5596  -19.3199   25.4613 C   0  0  0  0  0  0  0  0  0  0  0  0
  -36.7120  -22.0622   24.3652 C   0  0  0  0  0  0  0  0  0  0  0  0
  -30.3516  -20.0986   27.9456 C   0  0  0  0  0  0  0  0  0  0  0  0
  -29.5830  -12.3548   18.2736 C   0  0  0  0  0  0  0  0  0  0  0  0
  -31.8533  -20.2994   27.8067 C   0  0  0  0  0  0  0  0  0  0  0  0
  -28.1470  -12.0572   18.7086 C   0  0  0  0  0  0  0  0  0  0  0  0
  -30.4998  -12.5849   19.4730 C   0  0  0  0  0  0  0  0  0  0  0  0
  -28.5957  -13.3144   20.8573 C   0  0  0  0  0  0  0  0  0  0  0  0
  -32.3863  -19.5868   26.5573 C   0  0  1  0  0  0  0  0  0  0  0  0
  -36.0530  -20.5271   26.2444 C   0  0  1  0  0  0  0  0  0  0  0  0
  -27.6217  -13.1304   19.6810 C   0  0  2  0  0  0  0  0  0  0  0  0
  -41.6123  -25.9180   26.4300 C   0  0  0  0  0  0  0  0  0  0  0  0
  -26.5818  -23.6363   21.6781 C   0  0  0  0  0  0  0  0  0  0  0  0
  -26.1843  -22.9263   19.3121 C   0  0  0  0  0  0  0  0  0  0  0  0
  -34.2208  -21.6100   16.6037 C   0  0  0  0  0  0  0  0  0  0  0  0
  -35.0480  -25.0362   26.3793 C   0  0  0  0  0  0  0  0  0  0  0  0
  -37.0061  -26.5840   26.1835 C   0  0  0  0  0  0  0  0  0  0  0  0
  -36.6186  -25.3278   28.3035 C   0  0  0  0  0  0  0  0  0  0  0  0
  -42.0065  -22.2837   25.3752 C   0  0  0  0  0  0  0  0  0  0  0  0
  -27.8397  -20.4035   19.8654 C   0  0  0  0  0  0  0  0  0  0  0  0
  -32.5166  -19.6542   18.2732 C   0  0  0  0  0  0  0  0  0  0  0  0
  -30.7695  -16.9112   21.8760 C   0  0  0  0  0  0  0  0  0  0  0  0
  -27.8144  -21.6350   20.7900 C   0  0  0  0  0  0  0  0  0  0  0  0
  -33.4598  -20.7292   18.8308 C   0  0  0  0  0  0  0  0  0  0  0  0
  -35.6588  -19.8717   17.7569 C   0  0  0  0  0  0  0  0  0  0  0  0
  -36.1227  -19.1841   19.0359 C   0  0  0  0  0  0  0  0  0  1  0  0
  -37.4465  -24.0878   26.2617 C   0  0  1  0  0  0  0  0  0  0  0  0
  -41.2190  -24.4523   26.3323 C   0  0  2  0  0  0  0  0  0  0  0  0
  -26.5029  -22.4399   20.7265 C   0  0  0  0  0  0  0  0  0  0  0  0
  -34.6880  -21.0515   17.9530 C   0  0  1  0  0  0  0  0  0  0  0  0
  -36.5273  -25.2365   26.7647 C   0  0  0  0  0  0  0  0  0  0  0  0
  -25.8412  -11.5344   20.2850 N   0  0  0  0  0  0  0  0  0  0  0  0
  -31.5770  -18.3147   20.0760 N   0  0  0  0  0  0  0  0  0  0  0  0
  -26.2127  -12.8189   20.1506 N   0  0  0  0  0  0  0  0  0  0  0  0
  -36.6697  -21.7821   25.8099 N   0  0  0  0  0  0  0  0  0  0  0  0
  -29.9454  -13.6151   20.3546 N   0  0  0  0  0  0  0  0  0  0  0  0
  -25.4372  -15.0443   20.3890 N   0  0  0  0  0  0  0  0  0  0  0  0
  -21.8631  -12.5606   21.5946 N   0  0  0  0  0  0  0  0  0  0  0  0
  -33.8320  -19.6232   26.5737 N   0  0  0  0  0  0  0  0  0  0  0  0
  -38.8487  -24.2374   26.6355 N   0  0  0  0  0  0  0  0  0  0  0  0
  -30.1094  -15.6850   21.4871 N   0  0  0  0  0  0  0  0  0  0  0  0
  -42.2550  -23.7400   25.5321 N   0  3  0  0  0  0  0  0  0  0  0  0
  -22.6298  -14.7023   21.3045 O   0  0  0  0  0  0  0  0  0  0  0  0
  -34.1165  -21.7558   25.6828 O   0  0  0  0  0  0  0  0  0  0  0  0
  -36.9886  -22.5335   27.9939 O   0  0  0  0  0  0  0  0  0  0  0  0
  -39.6914  -24.2171   24.4753 O   0  0  0  0  0  0  0  0  0  0  0  0
  -31.8469  -14.9329   20.1939 O   0  0  0  0  0  0  0  0  0  0  0  0
  -21.6129   -6.9969   21.7280 O   0  0  0  0  0  0  0  0  0  0  0  0
  -36.7703  -20.1511   19.8616 O   0  0  0  0  0  0  0  0  0  1  0  0
  -16.4465   -6.7824   19.8132 F   0  0  0  0  0  0  0  0  0  0  0  0
  -20.8415   -5.0296   19.9455 F   0  0  0  0  0  0  0  0  0  0  0  0
  1  2  1  0  0  0  0
  1  5  2  0  0  0  0
  2  6  2  0  0  0  0
  3  8  2  0  0  0  0
  3 17  1  0  0  0  0
  4  9  1  0  0  0  0
  4 17  2  0  0  0  0
  5 19  1  0  0  0  0
  6 21  1  0  0  0  0
  7 10  2  0  0  0  0
  7 20  1  0  0  0  0
  8 24  1  0  0  0  0
  9 24  2  0  0  0  0
 10 25  1  0  0  0  0
 11 12  2  0  0  0  0
 11 26  1  0  0  0  0
 12 27  1  0  0  0  0
 13 22  1  0  0  0  0
 13 25  2  0  0  0  0
 14 23  2  0  0  0  0
 14 30  1  0  0  0  0
 15 23  1  0  0  0  0
 15 31  2  0  0  0  0
 16 27  2  0  0  0  0
 16 28  1  0  0  0  0
 17 29  1  0  0  0  0
 18 29  1  0  0  0  0
 18 32  2  0  0  0  0
 18 33  1  0  0  0  0
 19 21  2  0  0  0  0
 19 38  1  0  0  0  0
 20 22  2  0  0  0  0
 20 39  1  0  0  0  0
 21 47  1  0  0  0  0
 22 40  1  0  0  0  0
 23 58  1  0  0  0  0
 24 86  1  0  0  0  0
 25 87  1  0  0  0  0
 26 28  2  0  0  0  0
 26 86  1  0  0  0  0
 27 88  1  0  0  0  0
 28 89  1  0  0  0  0
 29 70  2  0  0  0  0
 30 59  1  0  0  0  0
 30 71  2  0  0  0  0
 31 60  1  0  0  0  0
 31 71  1  0  0  0  0
 32 72  1  0  0  0  0
 32 75  1  0  0  0  0
 33 76  1  0  0  0  0
 33 81  2  0  0  0  0
 34 48  1  0  0  0  0
 34 77  1  0  0  0  0
 34 82  2  0  0  0  0
 35 65  1  0  0  0  0
 35 73  1  0  0  0  0
 35 83  2  0  0  0  0
 36 66  1  0  0  0  0
 36 78  1  0  0  0  0
 36 84  2  0  0  0  0
 37 74  1  0  0  0  0
 37 79  1  0  0  0  0
 37 85  2  0  0  0  0
 38 41  1  0  0  0  0
 39 48  1  0  0  0  0
 40 73  1  0  0  0  0
 41 43  1  0  0  0  0
 42 44  1  0  0  0  0
 42 45  1  0  0  0  0
 43 47  1  0  0  0  0
 44 49  1  0  0  0  0
 45 74  1  0  0  0  0
 46 49  1  0  0  0  0
 46 74  1  0  0  0  0
 47 77  1  0  0  0  0
 48 73  1  0  0  0  0
 49 72  1  0  0  0  0
 50 66  1  0  0  0  0
 51 67  1  0  0  0  0
 52 67  1  0  0  0  0
 53 68  1  0  0  0  0
 54 69  1  0  0  0  0
 55 69  1  0  0  0  0
 56 69  1  0  0  0  0
 57 80  1  0  0  0  0
 58 61  1  0  0  0  0
 59 62  1  0  0  0  0
 60 79  1  0  0  0  0
 61 67  1  0  0  0  0
 62 68  1  0  0  0  0
 63 64  1  0  0  0  0
 63 68  1  0  0  0  0
 64 87  1  0  0  0  0
 65 69  1  0  0  0  0
 65 78  1  0  0  0  0
 66 80  1  0  0  0  0
 70 72  1  0  0  0  0
M  CHG  1  80   1
M  ISO  4  37 100  64 101  79 100  87 101
M  END
> <Batch ID>
0093

> <Smiles>
CNC(C)C(=O)NC(C(=O)N1Cc2cc([101O:1][101CH2:1]CC(C)CCc3cc(CCC(C)C)cc(C[100NH:0][100C:0](=O)N4CCCC(n5nc(-c6ccc(Oc7ccc(F)cc7F)cc6)c(C(N)=O)c5N)C4)n3)ccc2CC1C(=O)NC1CCCc2ccccc21)C(C)(C)C

> <Shape>
0.175

> <Color>
0.187

> <Negative vol penalty>
0.000

$$$$

  -OEChem-04052319163D

 84 92  0     1  0  0  0  0  0999 V2000
  -17.5961  -26.1640   22.7927 C   0  0  0  0  0  0  0  0  0  0  0  0
  -18.9014  -25.7267   22.5920 C   0  0  0  0  0  0  0  0  0  0  0  0
  -26.4904  -11.8051   21.5948 C   0  0  0  0  0  0  0  0  0  0  0  0
  -25.6720  -12.1261   19.3444 C   0  0  0  0  0  0  0  0  0  0  0  0
  -17.2587  -27.4912   22.5307 C   0  0  0  0  0  0  0  0  0  0  0  0
  -19.8700  -26.6162   22.1282 C   0  0  0  0  0  0  0  0  0  0  0  0
  -25.8094  -26.6972   23.6188 C   0  0  0  0  0  0  0  0  0  0  0  0
  -25.2810  -11.2073   21.9493 C   0  0  0  0  0  0  0  0  0  0  0  0
  -24.4627  -11.5283   19.6989 C   0  0  0  0  0  0  0  0  0  0  0  0
  -26.9444  -26.2036   22.9769 C   0  0  0  0  0  0  0  0  0  0  0  0
  -21.2927   -9.7612   19.9162 C   0  0  0  0  0  0  0  0  0  0  0  0
  -20.7525   -8.8197   19.0403 C   0  0  0  0  0  0  0  0  0  0  0  0
  -27.3420  -28.3814   22.0185 C   0  0  0  0  0  0  0  0  0  0  0  0
  -22.7315   -7.4558   19.2858 C   0  0  0  0  0  0  0  0  0  0  0  0
  -26.6859  -12.2645   20.2923 C   0  0  0  0  0  0  0  0  0  0  0  0
  -29.0820  -12.2446   19.4172 C   0  0  0  0  0  0  0  0  0  0  0  0
  -18.2258  -28.3998   22.0727 C   0  0  0  0  0  0  0  0  0  0  0  0
  -25.4255  -28.0361   23.4564 C   0  0  0  0  0  0  0  0  0  0  0  0
  -19.5449  -27.9565   21.8587 C   0  0  0  0  0  0  0  0  0  0  0  0
  -26.2032  -28.8901   22.6615 C   0  0  0  0  0  0  0  0  0  0  0  0
  -24.2672  -11.0689   21.0014 C   0  0  0  0  0  0  0  0  0  0  0  0
  -27.7093  -27.0450   22.1743 C   0  0  0  0  0  0  0  0  0  0  0  0
  -22.5524   -9.5501   20.4769 C   0  0  0  0  0  0  0  0  0  0  0  0
  -21.4719   -7.6670   18.7251 C   0  0  0  0  0  0  0  0  0  0  0  0
  -23.2718   -8.3974   20.1617 C   0  0  0  0  0  0  0  0  0  0  0  0
  -27.9347  -12.8826   19.9256 C   0  0  0  0  0  0  0  0  0  0  0  0
  -29.9868  -13.2613   19.2323 C   0  0  0  0  0  0  0  0  0  0  0  0
  -29.3095  -10.8570   19.1370 C   0  0  0  0  0  0  0  0  0  0  0  0
  -22.8734  -29.5089   22.2640 C   0  0  0  0  0  0  0  0  0  0  0  0
  -24.3614  -32.1618   23.3912 C   0  0  0  0  0  0  0  0  0  0  0  0
  -27.2765  -33.6767   24.3151 C   0  0  0  0  0  0  0  0  0  0  0  0
  -29.4927  -18.9225   18.1548 C   0  0  0  0  0  0  0  0  0  0  0  0
  -17.8030  -29.8130   21.7583 C   0  0  0  0  0  0  0  0  0  0  0  0
  -24.2135  -28.5598   24.1770 C   0  0  0  0  0  0  0  0  0  0  0  0
  -25.8452  -30.3406   22.4708 C   0  0  0  0  0  0  0  0  0  0  0  0
  -18.9735  -30.7839   21.6264 C   0  0  0  0  0  0  0  0  0  0  0  0
  -31.1876  -17.5679   20.9197 C   0  0  0  0  0  0  0  0  0  0  0  0
  -20.0711  -30.1816   20.7551 C   0  0  0  0  0  0  0  0  0  0  0  0
  -30.6533  -16.1360   20.9318 C   0  0  0  0  0  0  0  0  0  0  0  0
  -28.1890  -22.1018   18.9094 C   0  0  0  0  0  0  0  0  0  0  0  0
  -30.0924  -18.5852   20.5947 C   0  0  0  0  0  0  0  0  0  0  0  0
  -29.2872  -21.1378   19.3653 C   0  0  0  0  0  0  0  0  0  0  0  0
  -30.1795  -21.0344   17.0585 C   0  0  0  0  0  0  0  0  0  0  0  0
  -28.8214  -16.8623   19.3554 C   0  0  0  0  0  0  0  0  0  0  0  0
  -20.6293  -28.8974   21.3802 C   0  0  1  0  0  0  0  0  0  0  0  0
  -23.6267  -29.8100   23.5287 C   0  0  1  0  0  0  0  0  0  0  0  0
  -28.5866  -22.9269   17.6721 C   0  0  2  0  0  0  0  0  0  0  0  0
  -29.0812  -21.9789   16.5515 C   0  0  1  0  0  0  0  0  0  0  0  0
  -29.9109  -15.8123   19.6231 C   0  0  2  0  0  0  0  0  0  0  0  0
  -28.1806  -35.8608   25.1576 C   0  0  0  0  0  0  0  0  0  0  0  0
  -29.9221  -21.7352   14.1986 C   0  0  0  0  0  0  0  0  0  0  0  0
  -28.4704  -23.6881   14.8172 C   0  0  0  0  0  0  0  0  0  0  0  0
  -31.1980  -25.6805   20.1080 C   0  0  0  0  0  0  0  0  0  0  0  0
  -24.0879  -33.3509   20.5946 C   0  0  0  0  0  0  0  0  0  0  0  0
  -25.8003  -35.0630   21.2309 C   0  0  0  0  0  0  0  0  0  0  0  0
  -23.6318  -34.9541   22.4590 C   0  0  0  0  0  0  0  0  0  0  0  0
  -28.2821  -32.4328   26.8052 C   0  0  0  0  0  0  0  0  0  0  0  0
  -29.5898  -24.0228   18.0513 C   0  0  0  0  0  0  0  0  0  0  0  0
  -28.9781  -24.9999   19.0518 C   0  0  0  0  0  0  0  0  0  0  0  0
  -29.1735  -27.1698   20.3045 C   0  0  0  0  0  0  0  0  0  1  0  0
  -25.3597  -33.1466   22.8322 C   0  0  1  0  0  0  0  0  0  0  0  0
  -27.6435  -34.4911   25.5425 C   0  0  2  0  0  0  0  0  0  0  0  0
  -29.5495  -22.7231   15.3009 C   0  0  0  0  0  0  0  0  0  0  0  0
  -29.9189  -26.1641   19.4157 C   0  0  1  0  0  0  0  0  0  0  0  0
  -24.7258  -34.1009   21.7810 C   0  0  0  0  0  0  0  0  0  0  0  0
  -28.0936  -14.2024   20.0556 N   0  0  0  0  0  0  0  0  0  0  0  0
  -29.3513  -14.4020   19.6262 N   0  0  0  0  0  0  0  0  0  0  0  0
  -24.6477  -30.8039   23.1912 N   0  0  0  0  0  0  0  0  0  0  0  0
  -29.3860  -18.2135   19.3608 N   0  0  0  0  0  0  0  0  0  0  0  0
  -29.7401  -20.3009   18.2465 N   0  0  0  0  0  0  0  0  0  0  0  0
  -31.2560  -13.2819   18.7729 N   0  0  0  0  0  0  0  0  0  0  0  0
  -28.2731   -9.9467   19.3848 N   0  0  0  0  0  0  0  0  0  0  0  0
  -21.5377  -29.2149   22.4612 N   0  0  0  0  0  0  0  0  0  0  0  0
  -25.9475  -33.8282   23.9803 N   0  0  0  0  0  0  0  0  0  0  0  0
  -28.6855  -33.7848   26.3402 N   0  3  0  0  0  0  0  0  0  0  0  0
  -30.4052  -10.4346   18.6958 O   0  0  0  0  0  0  0  0  0  0  0  0
  -23.4602  -29.5422   21.1887 O   0  0  0  0  0  0  0  0  0  0  0  0
  -23.3678  -32.5817   23.9896 O   0  0  0  0  0  0  0  0  0  0  0  0
  -28.0885  -32.9791   23.7114 O   0  0  0  0  0  0  0  0  0  0  0  0
  -29.3739  -18.3576   17.0604 O   0  0  0  0  0  0  0  0  0  0  0  0
  -23.0870  -10.4854   21.3469 O   0  0  0  0  0  0  0  0  0  0  0  0
  -28.8250  -26.5623   21.5417 O   0  0  0  0  0  0  0  0  0  1  0  0
  -20.9523   -6.7621   17.8851 F   0  0  0  0  0  0  0  0  0  0  0  0
  -24.4819   -8.1884   20.6982 F   0  0  0  0  0  0  0  0  0  0  0  0
  1  2  1  0  0  0  0
  1  5  2  0  0  0  0
  2  6  2  0  0  0  0
  3  8  2  0  0  0  0
  3 15  1  0  0  0  0
  4  9  1  0  0  0  0
  4 15  2  0  0  0  0
  5 17  1  0  0  0  0
  6 19  1  0  0  0  0
  7 10  2  0  0  0  0
  7 18  1  0  0  0  0
  8 21  1  0  0  0  0
  9 21  2  0  0  0  0
 10 22  1  0  0  0  0
 11 12  2  0  0  0  0
 11 23  1  0  0  0  0
 12 24  1  0  0  0  0
 13 20  1  0  0  0  0
 13 22  2  0  0  0  0
 14 24  2  0  0  0  0
 14 25  1  0  0  0  0
 15 26  1  0  0  0  0
 16 26  1  0  0  0  0
 16 27  2  0  0  0  0
 16 28  1  0  0  0  0
 17 19  2  0  0  0  0
 17 33  1  0  0  0  0
 18 20  2  0  0  0  0
 18 34  1  0  0  0  0
 19 45  1  0  0  0  0
 20 35  1  0  0  0  0
 21 81  1  0  0  0  0
 22 82  1  0  0  0  0
 23 25  2  0  0  0  0
 23 81  1  0  0  0  0
 24 83  1  0  0  0  0
 25 84  1  0  0  0  0
 26 66  2  0  0  0  0
 27 67  1  0  0  0  0
 27 71  1  0  0  0  0
 28 72  1  0  0  0  0
 28 76  2  0  0  0  0
 29 46  1  0  0  0  0
 29 73  1  0  0  0  0
 29 77  2  0  0  0  0
 30 61  1  0  0  0  0
 30 68  1  0  0  0  0
 30 78  2  0  0  0  0
 31 62  1  0  0  0  0
 31 74  1  0  0  0  0
 31 79  2  0  0  0  0
 32 69  1  0  0  0  0
 32 70  1  0  0  0  0
 32 80  2  0  0  0  0
 33 36  1  0  0  0  0
 34 46  1  0  0  0  0
 35 68  1  0  0  0  0
 36 38  1  0  0  0  0
 37 39  1  0  0  0  0
 37 41  1  0  0  0  0
 38 45  1  0  0  0  0
 39 49  1  0  0  0  0
 40 42  1  0  0  0  0
 40 47  1  0  0  0  0
 41 69  1  0  0  0  0
 42 70  1  0  0  0  0
 43 48  1  0  0  0  0
 43 70  1  0  0  0  0
 44 49  1  0  0  0  0
 44 69  1  0  0  0  0
 45 73  1  0  0  0  0
 46 68  1  0  0  0  0
 47 48  1  0  0  0  0
 47 58  1  0  0  0  0
 48 63  1  0  0  0  0
 49 67  1  0  0  0  0
 50 62  1  0  0  0  0
 51 63  1  0  0  0  0
 52 63  1  0  0  0  0
 53 64  1  0  0  0  0
 54 65  1  0  0  0  0
 55 65  1  0  0  0  0
 56 65  1  0  0  0  0
 57 75  1  0  0  0  0
 58 59  1  0  0  0  0
 59 64  1  0  0  0  0
 60 64  1  0  0  0  0
 60 82  1  0  0  0  0
 61 65  1  0  0  0  0
 61 74  1  0  0  0  0
 62 75  1  0  0  0  0
 66 67  1  0  0  0  0
M  CHG  1  75   1
M  ISO  4  32 100  60 101  70 100  82 101
M  END
> <Batch ID>
0093

> <Smiles>
CNC(C)C(=O)NC(C(=O)N1Cc2cc([101O:1][101CH2:1]C(C)CCC3CC[100N:0]([100C:0](=O)N4CCCC(n5nc(-c6ccc(Oc7ccc(F)cc7F)cc6)c(C(N)=O)c5N)C4)CC3C(C)C)ccc2CC1C(=O)NC1CCCc2ccccc21)C(C)(C)C

> <Shape>
0.327

> <Color>
0.080

> <Negative vol penalty>
0.000

$$$$

  -OEChem-04052319163D

 92100  0     1  0  0  0  0  0999 V2000
  -18.4947  -31.7065   22.9995 C   0  0  0  0  0  0  0  0  0  0  0  0
  -19.8800  -31.6491   22.8855 C   0  0  0  0  0  0  0  0  0  0  0  0
  -25.7260  -13.8569   21.3878 C   0  0  0  0  0  0  0  0  0  0  0  0
  -25.1098  -14.5315   19.1512 C   0  0  0  0  0  0  0  0  0  0  0  0
  -17.7473  -30.5296   23.0031 C   0  0  0  0  0  0  0  0  0  0  0  0
  -20.5189  -30.4144   22.7762 C   0  0  0  0  0  0  0  0  0  0  0  0
  -25.5543  -29.1496   19.5282 C   0  0  0  0  0  0  0  0  0  0  0  0
  -24.7151  -12.8960   21.3765 C   0  0  0  0  0  0  0  0  0  0  0  0
  -24.0989  -13.5705   19.1399 C   0  0  0  0  0  0  0  0  0  0  0  0
  -26.8973  -29.0369   19.8854 C   0  0  0  0  0  0  0  0  0  0  0  0
  -24.2306   -9.8052   20.0939 C   0  0  0  0  0  0  0  0  0  0  0  0
  -24.5431   -8.5300   20.5649 C   0  0  0  0  0  0  0  0  0  0  0  0
  -26.6398  -26.6459   20.0758 C   0  0  0  0  0  0  0  0  0  0  0  0
  -22.8439   -8.7431   22.2691 C   0  0  0  0  0  0  0  0  0  0  0  0
  -25.9234  -14.6748   20.2751 C   0  0  0  0  0  0  0  0  0  0  0  0
  -28.3015  -15.5038   19.8690 C   0  0  0  0  0  0  0  0  0  0  0  0
  -18.3765  -29.2803   22.8840 C   0  0  0  0  0  0  0  0  0  0  0  0
  -24.7400  -28.0105   19.4525 C   0  0  0  0  0  0  0  0  0  0  0  0
  -19.7793  -29.2196   22.7796 C   0  0  0  0  0  0  0  0  0  0  0  0
  -25.2875  -26.7466   19.7149 C   0  0  0  0  0  0  0  0  0  0  0  0
  -31.8640  -22.1663   21.2316 C   0  0  0  0  0  0  0  0  0  0  0  0
  -31.8050  -22.5710   22.5605 C   0  0  0  0  0  0  0  0  0  0  0  0
  -31.8347  -23.1184   20.2187 C   0  0  0  0  0  0  0  0  0  0  0  0
  -23.9016  -12.7527   20.2526 C   0  0  0  0  0  0  0  0  0  0  0  0
  -27.4395  -27.7853   20.1621 C   0  0  0  0  0  0  0  0  0  0  0  0
  -23.2248  -10.5494   20.7105 C   0  0  0  0  0  0  0  0  0  0  0  0
  -23.8497   -7.9990   21.6525 C   0  0  0  0  0  0  0  0  0  0  0  0
  -22.5314  -10.0183   21.7981 C   0  0  0  0  0  0  0  0  0  0  0  0
  -26.9671  -15.6680   20.2864 C   0  0  0  0  0  0  0  0  0  0  0  0
  -31.7180  -23.9289   22.8217 C   0  0  0  0  0  0  0  0  0  0  0  0
  -31.7461  -24.4518   20.5847 C   0  0  0  0  0  0  0  0  0  0  0  0
  -28.8805  -16.7314   20.0788 C   0  0  0  0  0  0  0  0  0  0  0  0
  -28.9588  -14.3451   19.3389 C   0  0  0  0  0  0  0  0  0  0  0  0
  -22.1262  -27.0173   20.9644 C   0  0  0  0  0  0  0  0  0  0  0  0
  -22.2487  -24.6186   18.7841 C   0  0  0  0  0  0  0  0  0  0  0  0
  -24.1292  -22.7507   16.6344 C   0  0  0  0  0  0  0  0  0  0  0  0
  -28.7417  -22.3000   19.7371 C   0  0  0  0  0  0  0  0  0  0  0  0
  -17.5304  -28.0331   22.9403 C   0  0  0  0  0  0  0  0  0  0  0  0
  -23.2999  -28.1461   19.0397 C   0  0  0  0  0  0  0  0  0  0  0  0
  -24.4607  -25.4906   19.6280 C   0  0  0  0  0  0  0  0  0  0  0  0
  -18.2533  -26.7838   22.4434 C   0  0  0  0  0  0  0  0  0  0  0  0
  -27.1725  -20.7967   22.5574 C   0  0  0  0  0  0  0  0  0  0  0  0
  -19.6502  -26.6985   23.0500 C   0  0  0  0  0  0  0  0  0  0  0  0
  -27.0837  -19.3167   22.1808 C   0  0  0  0  0  0  0  0  0  0  0  0
  -26.9560  -21.7011   21.3461 C   0  0  0  0  0  0  0  0  0  0  0  0
  -27.7437  -19.9349   19.8184 C   0  0  0  0  0  0  0  0  0  0  0  0
  -20.5067  -27.9005   22.6341 C   0  0  1  0  0  0  0  0  0  0  0  0
  -22.4351  -26.9745   19.4945 C   0  0  1  0  0  0  0  0  0  0  0  0
  -28.0109  -18.9828   20.9967 C   0  0  2  0  0  0  0  0  0  0  0  0
  -31.9564  -20.7126   20.8925 C   0  0  0  0  0  0  0  0  0  0  0  0
  -30.8403  -27.8876   25.8019 C   0  0  0  0  0  0  0  0  0  0  0  0
  -23.9574  -20.8385   15.0183 C   0  0  0  0  0  0  0  0  0  0  0  0
  -34.7907  -19.5391   25.2335 C   0  0  0  0  0  0  0  0  0  0  0  0
  -32.8448  -20.5980   26.3965 C   0  0  0  0  0  0  0  0  0  0  0  0
  -22.1315  -22.6585   21.1195 C   0  0  0  0  0  0  0  0  0  0  0  0
  -22.9096  -20.8614   19.5596 C   0  0  0  0  0  0  0  0  0  0  0  0
  -20.7366  -22.0146   19.1462 C   0  0  0  0  0  0  0  0  0  0  0  0
  -24.9921  -24.4408   14.3633 C   0  0  0  0  0  0  0  0  0  0  0  0
  -31.8357  -21.5730   23.6692 C   0  0  0  0  0  0  0  0  0  0  0  0
  -31.8964  -22.7162   18.7832 C   0  0  0  0  0  0  0  0  0  0  0  0
  -31.6517  -24.4243   24.2293 C   0  0  0  0  0  0  0  0  0  0  0  0
  -31.7079  -25.5305   19.5318 C   0  0  0  0  0  0  0  0  0  0  0  0
  -31.2106  -26.4143   25.7410 C   0  0  0  0  0  0  0  0  0  0  0  0
  -33.2547  -21.0280   23.9154 C   0  0  0  0  0  0  0  0  0  0  0  0
  -31.2386  -25.9025   24.3008 C   0  0  0  0  0  0  0  0  0  0  0  0
  -30.8939  -26.7605   19.9394 C   0  0  0  0  0  0  0  0  0  0  0  0
  -30.5347  -22.7432   18.0794 C   0  0  0  0  0  0  0  0  0  0  0  0
  -29.4150  -26.4612   20.1559 C   0  0  0  0  0  0  0  0  0  1  0  0
  -22.8984  -23.2571   18.7280 C   0  0  1  0  0  0  0  0  0  0  0  0
  -23.9045  -22.3489   15.1878 C   0  0  2  0  0  0  0  0  0  0  0  0
  -33.3452  -20.0168   25.0734 C   0  0  0  0  0  0  0  0  0  0  0  0
  -22.1844  -22.2216   19.6420 C   0  0  0  0  0  0  0  0  0  0  0  0
  -26.7133  -16.9027   20.7282 N   0  0  0  0  0  0  0  0  0  0  0  0
  -31.6869  -24.8832   21.8646 N   0  0  0  0  0  0  0  0  0  0  0  0
  -27.8962  -17.5254   20.5896 N   0  0  0  0  0  0  0  0  0  0  0  0
  -23.0564  -25.6758   19.2265 N   0  0  0  0  0  0  0  0  0  0  0  0
  -27.8670  -21.3331   20.2595 N   0  0  0  0  0  0  0  0  0  0  0  0
  -30.1305  -17.1984   19.8745 N   0  0  0  0  0  0  0  0  0  0  0  0
  -28.2163  -13.1659   19.1886 N   0  0  0  0  0  0  0  0  0  0  0  0
  -20.9874  -27.7339   21.2792 N   0  0  0  0  0  0  0  0  0  0  0  0
  -22.9394  -22.8821   17.3187 N   0  0  0  0  0  0  0  0  0  0  0  0
  -29.5757  -21.8665   18.7138 N   0  0  0  0  0  0  0  0  0  0  0  0
  -24.9471  -22.9567   14.3135 N   0  3  0  0  0  0  0  0  0  0  0  0
  -30.1729  -14.3504   19.0236 O   0  0  0  0  0  0  0  0  0  0  0  0
  -22.8654  -26.4416   21.7542 O   0  0  0  0  0  0  0  0  0  0  0  0
  -21.0702  -24.7409   18.4411 O   0  0  0  0  0  0  0  0  0  0  0  0
  -25.2485  -22.9264   17.1108 O   0  0  0  0  0  0  0  0  0  0  0  0
  -28.7806  -23.4621   20.1555 O   0  0  0  0  0  0  0  0  0  0  0  0
  -22.9152  -11.8149   20.2411 O   0  0  0  0  0  0  0  0  0  0  0  0
  -28.7498  -27.6725   20.5117 O   0  0  0  0  0  0  0  0  0  1  0  0
  -24.1489   -6.7738   22.1038 F   0  0  0  0  0  0  0  0  0  0  0  0
  -21.5633  -10.7281   22.3938 F   0  0  0  0  0  0  0  0  0  0  0  0
  1  2  1  0  0  0  0
  1  5  2  0  0  0  0
  2  6  2  0  0  0  0
  3  8  2  0  0  0  0
  3 15  1  0  0  0  0
  4  9  1  0  0  0  0
  4 15  2  0  0  0  0
  5 17  1  0  0  0  0
  6 19  1  0  0  0  0
  7 10  2  0  0  0  0
  7 18  1  0  0  0  0
  8 24  1  0  0  0  0
  9 24  2  0  0  0  0
 10 25  1  0  0  0  0
 11 12  2  0  0  0  0
 11 26  1  0  0  0  0
 12 27  1  0  0  0  0
 13 20  1  0  0  0  0
 13 25  2  0  0  0  0
 14 27  2  0  0  0  0
 14 28  1  0  0  0  0
 15 29  1  0  0  0  0
 16 29  1  0  0  0  0
 16 32  2  0  0  0  0
 16 33  1  0  0  0  0
 17 19  2  0  0  0  0
 17 38  1  0  0  0  0
 18 20  2  0  0  0  0
 18 39  1  0  0  0  0
 19 47  1  0  0  0  0
 20 40  1  0  0  0  0
 21 22  1  0  0  0  0
 21 23  2  0  0  0  0
 21 50  1  0  0  0  0
 22 30  2  0  0  0  0
 22 59  1  0  0  0  0
 23 31  1  0  0  0  0
 23 60  1  0  0  0  0
 24 89  1  0  0  0  0
 25 90  1  0  0  0  0
 26 28  2  0  0  0  0
 26 89  1  0  0  0  0
 27 91  1  0  0  0  0
 28 92  1  0  0  0  0
 29 73  2  0  0  0  0
 30 61  1  0  0  0  0
 30 74  1  0  0  0  0
 31 62  1  0  0  0  0
 31 74  2  0  0  0  0
 32 75  1  0  0  0  0
 32 78  1  0  0  0  0
 33 79  1  0  0  0  0
 33 84  2  0  0  0  0
 34 48  1  0  0  0  0
 34 80  1  0  0  0  0
 34 85  2  0  0  0  0
 35 69  1  0  0  0  0
 35 76  1  0  0  0  0
 35 86  2  0  0  0  0
 36 70  1  0  0  0  0
 36 81  1  0  0  0  0
 36 87  2  0  0  0  0
 37 77  1  0  0  0  0
 37 82  1  0  0  0  0
 37 88  2  0  0  0  0
 38 41  1  0  0  0  0
 39 48  1  0  0  0  0
 40 76  1  0  0  0  0
 41 43  1  0  0  0  0
 42 44  1  0  0  0  0
 42 45  1  0  0  0  0
 43 47  1  0  0  0  0
 44 49  1  0  0  0  0
 45 77  1  0  0  0  0
 46 49  1  0  0  0  0
 46 77  1  0  0  0  0
 47 80  1  0  0  0  0
 48 76  1  0  0  0  0
 49 75  1  0  0  0  0
 51 63  1  0  0  0  0
 52 70  1  0  0  0  0
 53 71  1  0  0  0  0
 54 71  1  0  0  0  0
 55 72  1  0  0  0  0
 56 72  1  0  0  0  0
 57 72  1  0  0  0  0
 58 83  1  0  0  0  0
 59 64  1  0  0  0  0
 60 67  1  0  0  0  0
 61 65  1  0  0  0  0
 62 66  1  0  0  0  0
 63 65  1  0  0  0  0
 64 71  1  0  0  0  0
 66 68  1  0  0  0  0
 67 82  1  0  0  0  0
 68 90  1  0  0  0  0
 69 72  1  0  0  0  0
 69 81  1  0  0  0  0
 70 83  1  0  0  0  0
 73 75  1  0  0  0  0
M  CHG  1  83   1
M  ISO  4  37 100  68 101  82 100  90 101
M  END
> <Batch ID>
0093

> <Smiles>
CCCCc1nc(CC[101CH2:1][101O:1]c2ccc3c(c2)CN(C(=O)C(NC(=O)C(C)NC)C(C)(C)C)C(C(=O)NC2CCCc4ccccc42)C3)c(CC[100NH:0][100C:0](=O)N2CCCC(n3nc(-c4ccc(Oc5ccc(F)cc5F)cc4)c(C(N)=O)c3N)C2)c(C)c1CCC(C)C

> <Shape>
0.254

> <Color>
0.075

> <Negative vol penalty>
0.000

$$$$

  -OEChem-04052319163D

 87 95  0     1  0  0  0  0  0999 V2000
  -30.6310  -21.1600   15.1799 C   0  0  0  0  0  0  0  0  0  0  0  0
  -29.8971  -20.9457   16.3421 C   0  0  0  0  0  0  0  0  0  0  0  0
  -23.2117   -9.8358   19.8662 C   0  0  0  0  0  0  0  0  0  0  0  0
  -24.0753   -9.7165   22.1194 C   0  0  0  0  0  0  0  0  0  0  0  0
  -31.3083  -22.3648   14.9967 C   0  0  0  0  0  0  0  0  0  0  0  0
  -29.8410  -21.9357   17.3225 C   0  0  0  0  0  0  0  0  0  0  0  0
  -25.1529  -22.6452   19.1010 C   0  0  0  0  0  0  0  0  0  0  0  0
  -22.5813   -8.6041   20.0426 C   0  0  0  0  0  0  0  0  0  0  0  0
  -23.4448   -8.4849   22.2959 C   0  0  0  0  0  0  0  0  0  0  0  0
  -24.6741  -21.7154   20.0229 C   0  0  0  0  0  0  0  0  0  0  0  0
  -21.7650   -5.4792   23.4632 C   0  0  0  0  0  0  0  0  0  0  0  0
  -21.0712   -5.2699   24.6549 C   0  0  0  0  0  0  0  0  0  0  0  0
  -25.1885  -23.2407   21.8195 C   0  0  0  0  0  0  0  0  0  0  0  0
  -28.5023  -18.3251   25.2520 C   0  0  0  0  0  0  0  0  0  0  0  0
  -19.6332   -7.1438   24.1469 C   0  0  0  0  0  0  0  0  0  0  0  0
  -28.8067  -19.1627   22.6730 C   0  0  0  0  0  0  0  0  0  0  0  0
  -23.9588  -10.3920   20.9046 C   0  0  0  0  0  0  0  0  0  0  0  0
  -24.0786  -12.9386   20.9944 C   0  0  0  0  0  0  0  0  0  0  0  0
  -31.2526  -23.3739   15.9711 C   0  0  0  0  0  0  0  0  0  0  0  0
  -25.6640  -23.8775   19.5330 C   0  0  0  0  0  0  0  0  0  0  0  0
  -30.5193  -23.1546   17.1528 C   0  0  0  0  0  0  0  0  0  0  0  0
  -25.6709  -24.1855   20.9009 C   0  0  0  0  0  0  0  0  0  0  0  0
  -29.3501  -17.6231   24.4024 C   0  0  0  0  0  0  0  0  0  0  0  0
  -29.5108  -18.0434   23.0868 C   0  0  0  0  0  0  0  0  0  0  0  0
  -22.6978   -7.9287   21.2575 C   0  0  0  0  0  0  0  0  0  0  0  0
  -24.6945  -22.0118   21.3826 C   0  0  0  0  0  0  0  0  0  0  0  0
  -21.3931   -6.5209   22.6133 C   0  0  0  0  0  0  0  0  0  0  0  0
  -20.0052   -6.1021   24.9968 C   0  0  0  0  0  0  0  0  0  0  0  0
  -20.3272   -7.3531   22.9551 C   0  0  0  0  0  0  0  0  0  0  0  0
  -24.6108  -11.6639   20.7227 C   0  0  0  0  0  0  0  0  0  0  0  0
  -27.8435  -19.4319   24.7414 C   0  0  0  0  0  0  0  0  0  0  0  0
  -25.0847  -13.8101   20.6558 C   0  0  0  0  0  0  0  0  0  0  0  0
  -22.7899  -13.3023   21.5070 C   0  0  0  0  0  0  0  0  0  0  0  0
  -28.4912  -25.3196   19.3557 C   0  0  0  0  0  0  0  0  0  0  0  0
  -26.8654  -27.8102   20.6503 C   0  0  0  0  0  0  0  0  0  0  0  0
  -24.1989  -28.8881   22.4872 C   0  0  0  0  0  0  0  0  0  0  0  0
  -30.4646  -15.2927   20.7165 C   0  0  0  0  0  0  0  0  0  0  0  0
  -32.0399  -24.6411   15.7496 C   0  0  0  0  0  0  0  0  0  0  0  0
  -26.1521  -24.8805   18.5239 C   0  0  0  0  0  0  0  0  0  0  0  0
  -26.1905  -25.5025   21.4147 C   0  0  0  0  0  0  0  0  0  0  0  0
  -31.6233  -25.7857   16.6697 C   0  0  0  0  0  0  0  0  0  0  0  0
  -29.4230  -13.0266   18.1755 C   0  0  0  0  0  0  0  0  0  0  0  0
  -31.4954  -25.2948   18.1082 C   0  0  0  0  0  0  0  0  0  0  0  0
  -28.0377  -12.5709   18.6373 C   0  0  0  0  0  0  0  0  0  0  0  0
  -30.3735  -13.2259   19.3540 C   0  0  0  0  0  0  0  0  0  0  0  0
  -28.4838  -13.6654   20.8737 C   0  0  0  0  0  0  0  0  0  0  0  0
  -30.4141  -24.2141   18.2283 C   0  0  1  0  0  0  0  0  0  0  0  0
  -27.1251  -25.8967   19.1139 C   0  0  1  0  0  0  0  0  0  0  0  0
  -27.4737  -13.5050   19.7247 C   0  0  2  0  0  0  0  0  0  0  0  0
  -30.0751  -16.4261   24.9222 C   0  0  0  0  0  0  0  0  0  0  0  0
  -23.1578  -30.9766   23.4103 C   0  0  0  0  0  0  0  0  0  0  0  0
  -28.9985  -27.9073   22.8299 C   0  0  0  0  0  0  0  0  0  0  0  0
  -27.4423  -29.3176   24.1928 C   0  0  0  0  0  0  0  0  0  0  0  0
  -28.2648  -30.1449   21.9879 C   0  0  0  0  0  0  0  0  0  0  0  0
  -23.3062  -17.6807   24.7889 C   0  0  0  0  0  0  0  0  0  0  0  0
  -22.3281  -19.9715   25.0297 C   0  0  0  0  0  0  0  0  0  0  0  0
  -21.7097  -28.4692   20.9421 C   0  0  0  0  0  0  0  0  0  0  0  0
  -30.4054  -17.3284   22.1347 C   0  0  0  0  0  0  0  0  0  0  0  0
  -26.9156  -20.2174   25.6339 C   0  0  0  0  0  0  0  0  0  0  0  0
  -25.4601  -19.7226   25.6106 C   0  0  0  0  0  0  0  0  0  0  0  0
  -24.8237  -21.1151   23.5815 C   0  0  0  0  0  0  0  0  0  1  0  0
  -26.5636  -28.2758   22.0542 C   0  0  1  0  0  0  0  0  0  0  0  0
  -23.1925  -29.9988   22.2460 C   0  0  2  0  0  0  0  0  0  0  0  0
  -24.7787  -19.7102   24.2189 C   0  0  2  0  0  0  0  0  0  0  0  0
  -27.8092  -28.8857   22.7570 C   0  0  0  0  0  0  0  0  0  0  0  0
  -23.3343  -19.1170   24.2606 C   0  0  0  0  0  0  0  0  0  0  0  0
  -27.9742  -19.8703   23.4692 N   0  0  0  0  0  0  0  0  0  0  0  0
  -25.8582  -11.7165   20.2480 N   0  0  0  0  0  0  0  0  0  0  0  0
  -26.1181  -13.0347   20.2186 N   0  0  0  0  0  0  0  0  0  0  0  0
  -26.6625  -26.4477   20.3893 N   0  0  0  0  0  0  0  0  0  0  0  0
  -29.7797  -14.1229   20.3483 N   0  0  0  0  0  0  0  0  0  0  0  0
  -25.1774  -15.1564   20.6922 N   0  0  0  0  0  0  0  0  0  0  0  0
  -21.8760  -12.2816   21.8025 N   0  0  0  0  0  0  0  0  0  0  0  0
  -29.0971  -24.8139   18.2214 N   0  0  0  0  0  0  0  0  0  0  0  0
  -25.4311  -29.1893   21.9468 N   0  0  0  0  0  0  0  0  0  0  0  0
  -29.8289  -16.0902   21.6602 N   0  0  0  0  0  0  0  0  0  0  0  0
  -21.8263  -29.4304   22.0688 N   0  3  0  0  0  0  0  0  0  0  0  0
  -22.4528  -14.4978   21.6820 O   0  0  0  0  0  0  0  0  0  0  0  0
  -28.9614  -25.3335   20.4872 O   0  0  0  0  0  0  0  0  0  0  0  0
  -27.2597  -28.6268   19.8140 O   0  0  0  0  0  0  0  0  0  0  0  0
  -23.9207  -27.8582   23.0975 O   0  0  0  0  0  0  0  0  0  0  0  0
  -31.5589  -15.6060   20.2356 O   0  0  0  0  0  0  0  0  0  0  0  0
  -22.0825   -6.7270   21.4301 O   0  0  0  0  0  0  0  0  0  0  0  0
  -24.2284  -21.1058   22.2846 O   0  0  0  0  0  0  0  0  0  1  0  0
  -19.3380   -5.9000   26.1405 F   0  0  0  0  0  0  0  0  0  0  0  0
  -19.9645   -8.3547   22.1421 F   0  0  0  0  0  0  0  0  0  0  0  0
  -22.8812  -19.0403   22.9675 F   0  0  0  0  0  0  0  0  0  0  0  0
  1  2  1  0  0  0  0
  1  5  2  0  0  0  0
  2  6  2  0  0  0  0
  3  8  2  0  0  0  0
  3 17  1  0  0  0  0
  4  9  1  0  0  0  0
  4 17  2  0  0  0  0
  5 19  1  0  0  0  0
  6 21  1  0  0  0  0
  7 10  2  0  0  0  0
  7 20  1  0  0  0  0
  8 25  1  0  0  0  0
  9 25  2  0  0  0  0
 10 26  1  0  0  0  0
 11 12  2  0  0  0  0
 11 27  1  0  0  0  0
 12 28  1  0  0  0  0
 13 22  1  0  0  0  0
 13 26  2  0  0  0  0
 14 23  2  0  0  0  0
 14 31  1  0  0  0  0
 15 28  2  0  0  0  0
 15 29  1  0  0  0  0
 16 24  2  0  0  0  0
 16 67  1  0  0  0  0
 17 30  1  0  0  0  0
 18 30  1  0  0  0  0
 18 32  2  0  0  0  0
 18 33  1  0  0  0  0
 19 21  2  0  0  0  0
 19 38  1  0  0  0  0
 20 22  2  0  0  0  0
 20 39  1  0  0  0  0
 21 47  1  0  0  0  0
 22 40  1  0  0  0  0
 23 24  1  0  0  0  0
 23 50  1  0  0  0  0
 24 58  1  0  0  0  0
 25 83  1  0  0  0  0
 26 84  1  0  0  0  0
 27 29  2  0  0  0  0
 27 83  1  0  0  0  0
 28 85  1  0  0  0  0
 29 86  1  0  0  0  0
 30 68  2  0  0  0  0
 31 59  1  0  0  0  0
 31 67  2  0  0  0  0
 32 69  1  0  0  0  0
 32 72  1  0  0  0  0
 33 73  1  0  0  0  0
 33 78  2  0  0  0  0
 34 48  1  0  0  0  0
 34 74  1  0  0  0  0
 34 79  2  0  0  0  0
 35 62  1  0  0  0  0
 35 70  1  0  0  0  0
 35 80  2  0  0  0  0
 36 63  1  0  0  0  0
 36 75  1  0  0  0  0
 36 81  2  0  0  0  0
 37 71  1  0  0  0  0
 37 76  1  0  0  0  0
 37 82  2  0  0  0  0
 38 41  1  0  0  0  0
 39 48  1  0  0  0  0
 40 70  1  0  0  0  0
 41 43  1  0  0  0  0
 42 44  1  0  0  0  0
 42 45  1  0  0  0  0
 43 47  1  0  0  0  0
 44 49  1  0  0  0  0
 45 71  1  0  0  0  0
 46 49  1  0  0  0  0
 46 71  1  0  0  0  0
 47 74  1  0  0  0  0
 48 70  1  0  0  0  0
 49 69  1  0  0  0  0
 51 63  1  0  0  0  0
 52 65  1  0  0  0  0
 53 65  1  0  0  0  0
 54 65  1  0  0  0  0
 55 66  1  0  0  0  0
 56 66  1  0  0  0  0
 57 77  1  0  0  0  0
 58 76  1  0  0  0  0
 59 60  1  0  0  0  0
 60 64  1  0  0  0  0
 61 64  1  0  0  0  0
 61 84  1  0  0  0  0
 62 65  1  0  0  0  0
 62 75  1  0  0  0  0
 63 77  1  0  0  0  0
 64 66  1  0  0  0  0
 66 87  1  0  0  0  0
 68 69  1  0  0  0  0
M  CHG  1  77   1
M  ISO  4  37 100  61 101  76 100  84 101
M  END
> <Batch ID>
0093

> <Smiles>
CNC(C)C(=O)NC(C(=O)N1Cc2cc([101O:1][101CH2:1]C(CCc3cc(C)c(C[100NH:0][100C:0](=O)N4CCCC(n5nc(-c6ccc(Oc7ccc(F)cc7F)cc6)c(C(N)=O)c5N)C4)cn3)C(C)(C)F)ccc2CC1C(=O)NC1CCCc2ccccc21)C(C)(C)C

> <Shape>
0.274

> <Color>
0.187

> <Negative vol penalty>
0.000

$$$$

  -OEChem-04052319163D

 85 93  0     1  0  0  0  0  0999 V2000
  -28.1165  -24.8892   27.7484 C   0  0  0  0  0  0  0  0  0  0  0  0
  -29.2771  -24.3145   27.2405 C   0  0  0  0  0  0  0  0  0  0  0  0
  -23.8108   -9.8391   21.7948 C   0  0  0  0  0  0  0  0  0  0  0  0
  -24.3910  -11.0679   23.7924 C   0  0  0  0  0  0  0  0  0  0  0  0
  -26.9588  -24.9220   26.9721 C   0  0  0  0  0  0  0  0  0  0  0  0
  -29.2805  -23.7712   25.9563 C   0  0  0  0  0  0  0  0  0  0  0  0
  -33.5861  -22.8098   20.3123 C   0  0  0  0  0  0  0  0  0  0  0  0
  -23.2944   -8.8077   22.5792 C   0  0  0  0  0  0  0  0  0  0  0  0
  -23.8746  -10.0365   24.5769 C   0  0  0  0  0  0  0  0  0  0  0  0
  -34.0352  -21.8025   19.4595 C   0  0  0  0  0  0  0  0  0  0  0  0
  -24.8562   -6.9782   25.6322 C   0  0  0  0  0  0  0  0  0  0  0  0
  -25.6106   -6.5567   26.7271 C   0  0  0  0  0  0  0  0  0  0  0  0
  -31.9988  -21.9867   18.1795 C   0  0  0  0  0  0  0  0  0  0  0  0
  -32.9714  -17.4611   20.3285 C   0  0  0  0  0  0  0  0  0  0  0  0
  -23.7928   -7.1450   28.2059 C   0  0  0  0  0  0  0  0  0  0  0  0
  -24.3592  -10.9691   22.4015 C   0  0  0  0  0  0  0  0  0  0  0  0
  -24.2016  -13.1585   21.1016 C   0  0  0  0  0  0  0  0  0  0  0  0
  -26.9507  -24.3875   25.6741 C   0  0  0  0  0  0  0  0  0  0  0  0
  -32.3331  -23.4066   20.1113 C   0  0  0  0  0  0  0  0  0  0  0  0
  -28.1212  -23.7957   25.1624 C   0  0  0  0  0  0  0  0  0  0  0  0
  -31.5372  -23.0032   19.0297 C   0  0  0  0  0  0  0  0  0  0  0  0
  -31.7193  -17.3131   20.9922 C   0  0  0  0  0  0  0  0  0  0  0  0
  -23.3262   -8.9065   23.9702 C   0  0  0  0  0  0  0  0  0  0  0  0
  -33.2402  -21.3888   18.3945 C   0  0  0  0  0  0  0  0  0  0  0  0
  -23.5702   -7.4831   25.8241 C   0  0  0  0  0  0  0  0  0  0  0  0
  -25.0789   -6.6401   28.0140 C   0  0  0  0  0  0  0  0  0  0  0  0
  -23.0385   -7.5665   27.1109 C   0  0  0  0  0  0  0  0  0  0  0  0
  -24.8933  -12.0346   21.5917 C   0  0  0  0  0  0  0  0  0  0  0  0
  -32.8172  -17.7960   19.0013 C   0  0  0  0  0  0  0  0  0  0  0  0
  -30.6556  -17.5407   20.1467 C   0  0  0  0  0  0  0  0  0  0  0  0
  -25.1464  -13.8620   20.3954 C   0  0  0  0  0  0  0  0  0  0  0  0
  -22.8278  -13.5330   21.2697 C   0  0  0  0  0  0  0  0  0  0  0  0
  -29.6505  -23.6151   21.8035 C   0  0  0  0  0  0  0  0  0  0  0  0
  -28.7455  -25.5917   19.3960 C   0  0  0  0  0  0  0  0  0  0  0  0
  -29.1220  -26.5588   16.1448 C   0  0  0  0  0  0  0  0  0  0  0  0
  -31.1183  -14.1371   20.7291 C   0  0  0  0  0  0  0  0  0  0  0  0
  -25.6621  -24.4037   24.8904 C   0  0  0  0  0  0  0  0  0  0  0  0
  -31.8748  -24.5105   21.0244 C   0  0  0  0  0  0  0  0  0  0  0  0
  -30.1930  -23.6261   18.7585 C   0  0  0  0  0  0  0  0  0  0  0  0
  -25.8532  -24.1420   23.3987 C   0  0  0  0  0  0  0  0  0  0  0  0
  -29.1720  -13.2453   17.8843 C   0  0  0  0  0  0  0  0  0  0  0  0
  -26.7792  -22.9497   23.1802 C   0  0  0  0  0  0  0  0  0  0  0  0
  -27.7923  -12.9353   18.4677 C   0  0  0  0  0  0  0  0  0  0  0  0
  -30.2936  -12.7947   18.8176 C   0  0  0  0  0  0  0  0  0  0  0  0
  -28.8164  -12.9991   20.7798 C   0  0  0  0  0  0  0  0  0  0  0  0
  -28.1714  -23.2181   23.7645 C   0  0  1  0  0  0  0  0  0  0  0  0
  -30.3599  -24.6906   21.0304 C   0  0  1  0  0  0  0  0  0  0  0  0
  -27.6524  -13.4857   19.8997 C   0  0  2  0  0  0  0  0  0  0  0  0
  -28.2160  -28.1756   14.4530 C   0  0  0  0  0  0  0  0  0  0  0  0
  -28.7497  -19.9296   19.8616 C   0  0  0  0  0  0  0  0  0  0  0  0
  -27.1043  -18.6562   21.2526 C   0  0  0  0  0  0  0  0  0  0  0  0
  -35.8752  -19.4742   17.3847 C   0  0  0  0  0  0  0  0  0  0  0  0
  -26.2542  -23.8591   19.0779 C   0  0  0  0  0  0  0  0  0  0  0  0
  -25.8933  -24.9120   16.8352 C   0  0  0  0  0  0  0  0  0  0  0  0
  -25.8442  -26.3193   18.8943 C   0  0  0  0  0  0  0  0  0  0  0  0
  -31.7574  -27.8628   15.8082 C   0  0  0  0  0  0  0  0  0  0  0  0
  -31.5899  -16.9552   22.4250 C   0  0  0  0  0  0  0  0  0  0  0  0
  -33.8874  -18.0401   17.9636 C   0  0  0  0  0  0  0  0  0  0  0  0
  -29.2060  -17.4875   20.4419 C   0  0  0  0  0  0  0  0  0  0  0  0
  -31.7991  -15.4604   22.7152 C   0  0  0  0  0  0  0  0  0  0  0  0
  -28.0535  -25.4102   18.0666 C   0  0  1  0  0  0  0  0  0  0  0  0
  -29.2780  -27.9305   15.5135 C   0  0  2  0  0  0  0  0  0  0  0  0
  -28.5871  -18.8311   20.9153 C   0  0  0  0  0  0  0  0  0  0  0  0
  -34.5414  -19.4173   18.1186 C   0  0  2  0  0  0  0  0  0  1  0  0
  -26.5357  -25.1119   18.2245 C   0  0  0  0  0  0  0  0  0  0  0  0
  -26.1783  -12.0208   21.2276 N   0  0  0  0  0  0  0  0  0  0  0  0
  -26.3015  -13.1446   20.5010 N   0  0  0  0  0  0  0  0  0  0  0  0
  -29.7861  -24.6971   19.6832 N   0  0  0  0  0  0  0  0  0  0  0  0
  -30.1026  -13.3523   20.1587 N   0  0  0  0  0  0  0  0  0  0  0  0
  -25.0935  -15.0182   19.7004 N   0  0  0  0  0  0  0  0  0  0  0  0
  -21.9949  -12.6965   22.0252 N   0  0  0  0  0  0  0  0  0  0  0  0
  -28.9301  -24.0826   22.8861 N   0  0  0  0  0  0  0  0  0  0  0  0
  -28.3492  -26.6065   17.2857 N   0  0  0  0  0  0  0  0  0  0  0  0
  -30.8539  -14.6319   22.0003 N   0  0  0  0  0  0  0  0  0  0  0  0
  -30.6184  -28.0572   14.8745 N   0  3  0  0  0  0  0  0  0  0  0  0
  -22.3491  -14.5700   20.7511 O   0  0  0  0  0  0  0  0  0  0  0  0
  -29.7482  -22.4478   21.4436 O   0  0  0  0  0  0  0  0  0  0  0  0
  -28.3811  -26.4986   20.1486 O   0  0  0  0  0  0  0  0  0  0  0  0
  -29.6315  -25.5456   15.6710 O   0  0  0  0  0  0  0  0  0  0  0  0
  -32.1799  -14.3833   20.1465 O   0  0  0  0  0  0  0  0  0  0  0  0
  -22.8222   -7.9004   24.7359 O   0  0  0  0  0  0  0  0  0  0  0  0
  -33.6759  -20.4054   17.5609 O   0  0  0  0  0  0  0  0  0  1  0  0
  -25.8028   -6.2339   29.0652 F   0  0  0  0  0  0  0  0  0  0  0  0
  -21.8031   -8.0495   27.3014 F   0  0  0  0  0  0  0  0  0  0  0  0
  -31.1681  -17.9307   18.5601 S   0  0  0  0  0  0  0  0  0  0  0  0
  1  2  1  0  0  0  0
  1  5  2  0  0  0  0
  2  6  2  0  0  0  0
  3  8  2  0  0  0  0
  3 16  1  0  0  0  0
  4  9  1  0  0  0  0
  4 16  2  0  0  0  0
  5 18  1  0  0  0  0
  6 20  1  0  0  0  0
  7 10  2  0  0  0  0
  7 19  1  0  0  0  0
  8 23  1  0  0  0  0
  9 23  2  0  0  0  0
 10 24  1  0  0  0  0
 11 12  2  0  0  0  0
 11 25  1  0  0  0  0
 12 26  1  0  0  0  0
 13 21  1  0  0  0  0
 13 24  2  0  0  0  0
 14 22  1  0  0  0  0
 14 29  2  0  0  0  0
 15 26  2  0  0  0  0
 15 27  1  0  0  0  0
 16 28  1  0  0  0  0
 17 28  1  0  0  0  0
 17 31  2  0  0  0  0
 17 32  1  0  0  0  0
 18 20  2  0  0  0  0
 18 37  1  0  0  0  0
 19 21  2  0  0  0  0
 19 38  1  0  0  0  0
 20 46  1  0  0  0  0
 21 39  1  0  0  0  0
 22 30  2  0  0  0  0
 22 57  1  0  0  0  0
 23 81  1  0  0  0  0
 24 82  1  0  0  0  0
 25 27  2  0  0  0  0
 25 81  1  0  0  0  0
 26 83  1  0  0  0  0
 27 84  1  0  0  0  0
 28 66  2  0  0  0  0
 29 58  1  0  0  0  0
 29 85  1  0  0  0  0
 30 59  1  0  0  0  0
 30 85  1  0  0  0  0
 31 67  1  0  0  0  0
 31 70  1  0  0  0  0
 32 71  1  0  0  0  0
 32 76  2  0  0  0  0
 33 47  1  0  0  0  0
 33 72  1  0  0  0  0
 33 77  2  0  0  0  0
 34 61  1  0  0  0  0
 34 68  1  0  0  0  0
 34 78  2  0  0  0  0
 35 62  1  0  0  0  0
 35 73  1  0  0  0  0
 35 79  2  0  0  0  0
 36 69  1  0  0  0  0
 36 74  1  0  0  0  0
 36 80  2  0  0  0  0
 37 40  1  0  0  0  0
 38 47  1  0  0  0  0
 39 68  1  0  0  0  0
 40 42  1  0  0  0  0
 41 43  1  0  0  0  0
 41 44  1  0  0  0  0
 42 46  1  0  0  0  0
 43 48  1  0  0  0  0
 44 69  1  0  0  0  0
 45 48  1  0  0  0  0
 45 69  1  0  0  0  0
 46 72  1  0  0  0  0
 47 68  1  0  0  0  0
 48 67  1  0  0  0  0
 49 62  1  0  0  0  0
 50 63  1  0  0  0  0
 51 63  1  0  0  0  0
 52 64  1  0  0  0  0
 53 65  1  0  0  0  0
 54 65  1  0  0  0  0
 55 65  1  0  0  0  0
 56 75  1  0  0  0  0
 57 60  1  0  0  0  0
 58 64  1  0  0  0  0
 59 63  1  0  0  0  0
 60 74  1  0  0  0  0
 61 65  1  0  0  0  0
 61 73  1  0  0  0  0
 62 75  1  0  0  0  0
 64 82  1  0  0  0  0
 66 67  1  0  0  0  0
M  CHG  1  75   1
M  ISO  4  36 100  64 101  74 100  82 101
M  END
> <Batch ID>
0093

> <Smiles>
CNC(C)C(=O)NC(C(=O)N1Cc2cc([101O:1][101CH:1](C)Cc3cc(CC[100NH:0][100C:0](=O)N4CCCC(n5nc(-c6ccc(Oc7ccc(F)cc7F)cc6)c(C(N)=O)c5N)C4)c(CC(C)C)s3)ccc2CC1C(=O)NC1CCCc2ccccc21)C(C)(C)C

> <Shape>
0.195

> <Color>
0.145

> <Negative vol penalty>
0.000

$$$$

  -OEChem-04052319163D

 82 90  0     1  0  0  0  0  0999 V2000
  -28.8605  -20.7451   25.3132 C   0  0  0  0  0  0  0  0  0  0  0  0
  -29.0396  -21.7754   24.3957 C   0  0  0  0  0  0  0  0  0  0  0  0
  -24.4064  -13.6348   21.0568 C   0  0  0  0  0  0  0  0  0  0  0  0
  -26.5283  -13.0033   20.0893 C   0  0  0  0  0  0  0  0  0  0  0  0
  -27.5802  -20.2566   25.5701 C   0  0  0  0  0  0  0  0  0  0  0  0
  -27.9384  -22.3171   23.7337 C   0  0  0  0  0  0  0  0  0  0  0  0
  -28.0478  -27.3783   23.6014 C   0  0  0  0  0  0  0  0  0  0  0  0
  -23.8803  -12.3887   20.7163 C   0  0  0  0  0  0  0  0  0  0  0  0
  -26.0022  -11.7572   19.7488 C   0  0  0  0  0  0  0  0  0  0  0  0
  -28.8935  -27.9727   22.6659 C   0  0  0  0  0  0  0  0  0  0  0  0
  -22.0857   -9.2408   20.4237 C   0  0  0  0  0  0  0  0  0  0  0  0
  -21.3296   -8.5713   21.3857 C   0  0  0  0  0  0  0  0  0  0  0  0
  -27.0087  -28.3439   21.2068 C   0  0  0  0  0  0  0  0  0  0  0  0
  -23.2340   -8.5566   22.8723 C   0  0  0  0  0  0  0  0  0  0  0  0
  -29.2789  -25.3988   17.9030 C   0  0  0  0  0  0  0  0  0  0  0  0
  -25.7304  -13.9421   20.7433 C   0  0  0  0  0  0  0  0  0  0  0  0
  -26.9251  -15.5793   22.2926 C   0  0  0  0  0  0  0  0  0  0  0  0
  -26.4617  -20.7992   24.9180 C   0  0  0  0  0  0  0  0  0  0  0  0
  -26.6755  -27.2523   23.3416 C   0  0  0  0  0  0  0  0  0  0  0  0
  -26.6420  -21.8345   23.9811 C   0  0  0  0  0  0  0  0  0  0  0  0
  -26.1473  -27.7499   22.1418 C   0  0  0  0  0  0  0  0  0  0  0  0
  -24.6782  -11.4498   20.0623 C   0  0  0  0  0  0  0  0  0  0  0  0
  -28.3745  -28.4530   21.4671 C   0  0  0  0  0  0  0  0  0  0  0  0
  -23.4161   -9.5682   20.6859 C   0  0  0  0  0  0  0  0  0  0  0  0
  -21.9037   -8.2292   22.6100 C   0  0  0  0  0  0  0  0  0  0  0  0
  -23.9902   -9.2262   21.9102 C   0  0  0  0  0  0  0  0  0  0  0  0
  -26.2743  -15.2294   21.0943 C   0  0  0  0  0  0  0  0  0  0  0  0
  -30.1748  -24.3649   17.7963 C   0  0  0  0  0  0  0  0  0  0  0  0
  -27.2480  -16.9047   22.1336 C   0  0  0  0  0  0  0  0  0  0  0  0
  -27.2120  -14.7777   23.4462 C   0  0  0  0  0  0  0  0  0  0  0  0
  -24.6671  -24.8086   23.0283 C   0  0  0  0  0  0  0  0  0  0  0  0
  -22.4405  -27.1628   22.8790 C   0  0  0  0  0  0  0  0  0  0  0  0
  -21.7170  -30.4272   22.1955 C   0  0  0  0  0  0  0  0  0  0  0  0
  -29.3305  -20.9639   19.1115 C   0  0  0  0  0  0  0  0  0  0  0  0
  -25.1025  -20.2063   25.1933 C   0  0  0  0  0  0  0  0  0  0  0  0
  -25.7724  -26.6327   24.3725 C   0  0  0  0  0  0  0  0  0  0  0  0
  -24.6781  -27.6572   21.8234 C   0  0  0  0  0  0  0  0  0  0  0  0
  -23.9473  -21.0888   24.7275 C   0  0  0  0  0  0  0  0  0  0  0  0
  -25.8189  -20.2446   18.6131 C   0  0  0  0  0  0  0  0  0  0  0  0
  -24.2035  -21.6014   23.3139 C   0  0  0  0  0  0  0  0  0  0  0  0
  -25.6816  -18.8947   19.3196 C   0  0  0  0  0  0  0  0  0  0  0  0
  -27.1567  -20.3555   17.8878 C   0  0  0  0  0  0  0  0  0  0  0  0
  -28.2127  -18.7797   19.4612 C   0  0  0  0  0  0  0  0  0  0  0  0
  -25.4696  -22.4650   23.2612 C   0  0  1  0  0  0  0  0  0  0  0  0
  -24.4730  -26.0938   23.7821 C   0  0  1  0  0  0  0  0  0  0  0  0
  -26.8904  -18.6144   20.2320 C   0  0  2  0  0  0  0  0  0  0  0  0
  -19.8026  -32.0482   22.1281 C   0  0  0  0  0  0  0  0  0  0  0  0
  -30.8329  -30.2532   18.4584 C   0  0  0  0  0  0  0  0  0  0  0  0
  -21.4823  -25.9188   20.2628 C   0  0  0  0  0  0  0  0  0  0  0  0
  -20.2625  -28.0505   19.7768 C   0  0  0  0  0  0  0  0  0  0  0  0
  -19.6525  -26.6954   21.7804 C   0  0  0  0  0  0  0  0  0  0  0  0
  -22.9588  -32.1580   24.2499 C   0  0  0  0  0  0  0  0  0  0  0  0
  -30.3349  -23.1873   18.6591 C   0  0  0  0  0  0  0  0  0  0  0  0
  -29.7455  -28.7416   16.7793 C   0  0  0  0  0  0  0  0  0  0  0  0
  -28.9217  -27.4908   16.4428 C   0  0  0  0  0  0  0  0  0  0  0  0
  -28.8307  -28.9107   19.1784 C   0  0  0  0  0  0  0  0  0  1  0  0
  -21.8269  -27.9853   21.7717 C   0  0  1  0  0  0  0  0  0  0  0  0
  -20.9282  -31.4676   22.9699 C   0  0  2  0  0  0  0  0  0  0  0  0
  -30.0723  -28.9334   18.2767 C   0  0  2  0  0  0  0  0  0  0  0  0
  -20.8341  -27.1626   20.9028 C   0  0  0  0  0  0  0  0  0  0  0  0
  -26.1880  -16.2503   20.2373 N   0  0  0  0  0  0  0  0  0  0  0  0
  -30.9731  -24.5596   16.7034 N   0  0  0  0  0  0  0  0  0  0  0  0
  -30.5989  -25.6938   16.1215 N   0  0  0  0  0  0  0  0  0  0  0  0
  -29.5831  -26.1955   16.8424 N   0  0  0  0  0  0  0  0  0  0  0  0
  -26.7886  -17.2547   20.8980 N   0  0  0  0  0  0  0  0  0  0  0  0
  -23.8368  -27.0374   22.8606 N   0  0  0  0  0  0  0  0  0  0  0  0
  -28.2662  -20.0959   18.8162 N   0  0  0  0  0  0  0  0  0  0  0  0
  -27.8771  -17.7934   22.9317 N   0  0  0  0  0  0  0  0  0  0  0  0
  -26.8104  -13.4350   23.4436 N   0  0  0  0  0  0  0  0  0  0  0  0
  -25.2026  -23.7861   23.7881 N   0  0  0  0  0  0  0  0  0  0  0  0
  -21.2336  -29.1541   22.4122 N   0  0  0  0  0  0  0  0  0  0  0  0
  -29.3106  -22.1875   18.4535 N   0  0  0  0  0  0  0  0  0  0  0  0
  -21.8203  -32.5829   23.3955 N   0  3  0  0  0  0  0  0  0  0  0  0
  -27.7924  -15.2429   24.4563 O   0  0  0  0  0  0  0  0  0  0  0  0
  -24.3527  -24.7485   21.8454 O   0  0  0  0  0  0  0  0  0  0  0  0
  -21.7084  -26.6563   23.7329 O   0  0  0  0  0  0  0  0  0  0  0  0
  -22.6647  -30.7154   21.4679 O   0  0  0  0  0  0  0  0  0  0  0  0
  -30.2298  -20.6721   19.9072 O   0  0  0  0  0  0  0  0  0  0  0  0
  -24.1652  -10.2337   19.7301 O   0  0  0  0  0  0  0  0  0  0  0  0
  -29.1978  -29.0330   20.5520 O   0  0  0  0  0  0  0  0  0  1  0  0
  -21.1770   -7.5876   23.5344 F   0  0  0  0  0  0  0  0  0  0  0  0
  -25.2674   -9.5391   22.1684 F   0  0  0  0  0  0  0  0  0  0  0  0
  1  2  1  0  0  0  0
  1  5  2  0  0  0  0
  2  6  2  0  0  0  0
  3  8  2  0  0  0  0
  3 16  1  0  0  0  0
  4  9  1  0  0  0  0
  4 16  2  0  0  0  0
  5 18  1  0  0  0  0
  6 20  1  0  0  0  0
  7 10  2  0  0  0  0
  7 19  1  0  0  0  0
  8 22  1  0  0  0  0
  9 22  2  0  0  0  0
 10 23  1  0  0  0  0
 11 12  2  0  0  0  0
 11 24  1  0  0  0  0
 12 25  1  0  0  0  0
 13 21  1  0  0  0  0
 13 23  2  0  0  0  0
 14 25  2  0  0  0  0
 14 26  1  0  0  0  0
 15 28  2  0  0  0  0
 15 64  1  0  0  0  0
 16 27  1  0  0  0  0
 17 27  1  0  0  0  0
 17 29  2  0  0  0  0
 17 30  1  0  0  0  0
 18 20  2  0  0  0  0
 18 35  1  0  0  0  0
 19 21  2  0  0  0  0
 19 36  1  0  0  0  0
 20 44  1  0  0  0  0
 21 37  1  0  0  0  0
 22 79  1  0  0  0  0
 23 80  1  0  0  0  0
 24 26  2  0  0  0  0
 24 79  1  0  0  0  0
 25 81  1  0  0  0  0
 26 82  1  0  0  0  0
 27 61  2  0  0  0  0
 28 53  1  0  0  0  0
 28 62  1  0  0  0  0
 29 65  1  0  0  0  0
 29 68  1  0  0  0  0
 30 69  1  0  0  0  0
 30 74  2  0  0  0  0
 31 45  1  0  0  0  0
 31 70  1  0  0  0  0
 31 75  2  0  0  0  0
 32 57  1  0  0  0  0
 32 66  1  0  0  0  0
 32 76  2  0  0  0  0
 33 58  1  0  0  0  0
 33 71  1  0  0  0  0
 33 77  2  0  0  0  0
 34 67  1  0  0  0  0
 34 72  1  0  0  0  0
 34 78  2  0  0  0  0
 35 38  1  0  0  0  0
 36 45  1  0  0  0  0
 37 66  1  0  0  0  0
 38 40  1  0  0  0  0
 39 41  1  0  0  0  0
 39 42  1  0  0  0  0
 40 44  1  0  0  0  0
 41 46  1  0  0  0  0
 42 67  1  0  0  0  0
 43 46  1  0  0  0  0
 43 67  1  0  0  0  0
 44 70  1  0  0  0  0
 45 66  1  0  0  0  0
 46 65  1  0  0  0  0
 47 58  1  0  0  0  0
 48 59  1  0  0  0  0
 49 60  1  0  0  0  0
 50 60  1  0  0  0  0
 51 60  1  0  0  0  0
 52 73  1  0  0  0  0
 53 72  1  0  0  0  0
 54 55  1  0  0  0  0
 54 59  1  0  0  0  0
 55 64  1  0  0  0  0
 56 59  1  0  0  0  0
 56 80  1  0  0  0  0
 57 60  1  0  0  0  0
 57 71  1  0  0  0  0
 58 73  1  0  0  0  0
 61 65  1  0  0  0  0
 62 63  2  0  0  0  0
 63 64  1  0  0  0  0
M  CHG  1  73   1
M  ISO  4  34 100  56 101  72 100  80 101
M  END
> <Batch ID>
0093

> <Smiles>
CNC(C)C(=O)NC(C(=O)N1Cc2cc([101O:1][101CH2:1]C(C)CCn3cc(C[100NH:0][100C:0](=O)N4CCCC(n5nc(-c6ccc(Oc7ccc(F)cc7F)cc6)c(C(N)=O)c5N)C4)nn3)ccc2CC1C(=O)NC1CCCc2ccccc21)C(C)(C)C

> <Shape>
0.204

> <Color>
0.056

> <Negative vol penalty>
0.000

$$$$

  -OEChem-04052319163D

 87 95  0     1  0  0  0  0  0999 V2000
  -35.2675  -30.3052   19.1427 C   0  0  0  0  0  0  0  0  0  0  0  0
  -34.6778  -29.5929   20.1821 C   0  0  0  0  0  0  0  0  0  0  0  0
  -23.1522   -9.9742   19.8589 C   0  0  0  0  0  0  0  0  0  0  0  0
  -23.8623   -9.8751   22.1660 C   0  0  0  0  0  0  0  0  0  0  0  0
  -34.8084  -30.1389   17.8367 C   0  0  0  0  0  0  0  0  0  0  0  0
  -33.6278  -28.7147   19.9162 C   0  0  0  0  0  0  0  0  0  0  0  0
  -32.4501  -23.4179   22.7556 C   0  0  0  0  0  0  0  0  0  0  0  0
  -22.4171   -8.8019   20.0347 C   0  0  0  0  0  0  0  0  0  0  0  0
  -23.1272   -8.7027   22.3419 C   0  0  0  0  0  0  0  0  0  0  0  0
  -31.5636  -23.0778   23.7766 C   0  0  0  0  0  0  0  0  0  0  0  0
  -21.1472   -5.8806   23.4965 C   0  0  0  0  0  0  0  0  0  0  0  0
  -20.3664   -5.7702   24.6471 C   0  0  0  0  0  0  0  0  0  0  0  0
  -29.9599  -22.3429   22.1312 C   0  0  0  0  0  0  0  0  0  0  0  0
  -19.1145   -7.7278   23.9853 C   0  0  0  0  0  0  0  0  0  0  0  0
  -29.6077  -18.5450   25.5119 C   0  0  0  0  0  0  0  0  0  0  0  0
  -27.6115  -19.3740   24.9265 C   0  0  0  0  0  0  0  0  0  0  0  0
  -23.8748  -10.5108   20.9245 C   0  0  0  0  0  0  0  0  0  0  0  0
  -24.1885  -13.0424   20.9377 C   0  0  0  0  0  0  0  0  0  0  0  0
  -33.7587  -29.2509   17.5534 C   0  0  0  0  0  0  0  0  0  0  0  0
  -32.0932  -23.2329   21.4122 C   0  0  0  0  0  0  0  0  0  0  0  0
  -33.1534  -28.5374   18.6054 C   0  0  0  0  0  0  0  0  0  0  0  0
  -30.8446  -22.6791   21.0952 C   0  0  0  0  0  0  0  0  0  0  0  0
  -28.9909  -17.6072   24.7135 C   0  0  0  0  0  0  0  0  0  0  0  0
  -27.7280  -18.1316   24.3433 C   0  0  0  0  0  0  0  0  0  0  0  0
  -22.4046   -8.1662   21.2762 C   0  0  0  0  0  0  0  0  0  0  0  0
  -30.3172  -22.5429   23.4644 C   0  0  0  0  0  0  0  0  0  0  0  0
  -20.9117   -6.9146   22.5904 C   0  0  0  0  0  0  0  0  0  0  0  0
  -19.3500   -6.6938   24.8915 C   0  0  0  0  0  0  0  0  0  0  0  0
  -19.8953   -7.8381   22.8347 C   0  0  0  0  0  0  0  0  0  0  0  0
  -24.6348  -11.7215   20.7434 C   0  0  0  0  0  0  0  0  0  0  0  0
  -25.2791  -13.8211   20.6364 C   0  0  0  0  0  0  0  0  0  0  0  0
  -22.9031  -13.5226   21.3535 C   0  0  0  0  0  0  0  0  0  0  0  0
  -31.6992  -25.1543   18.9109 C   0  0  0  0  0  0  0  0  0  0  0  0
  -31.3220  -22.3560   17.3141 C   0  0  0  0  0  0  0  0  0  0  0  0
  -30.4984  -19.0459   17.4239 C   0  0  0  0  0  0  0  0  0  0  0  0
  -31.0470  -13.8180   21.1319 C   0  0  0  0  0  0  0  0  0  0  0  0
  -33.2653  -29.1400   16.1325 C   0  0  0  0  0  0  0  0  0  0  0  0
  -33.0712  -23.5799   20.3234 C   0  0  0  0  0  0  0  0  0  0  0  0
  -30.4214  -22.4417   19.6693 C   0  0  0  0  0  0  0  0  0  0  0  0
  -32.3971  -27.9093   15.8836 C   0  0  0  0  0  0  0  0  0  0  0  0
  -29.4276  -13.1490   18.0325 C   0  0  0  0  0  0  0  0  0  0  0  0
  -31.3575  -27.7568   16.9894 C   0  0  0  0  0  0  0  0  0  0  0  0
  -27.9851  -12.8355   18.4336 C   0  0  0  0  0  0  0  0  0  0  0  0
  -30.4268  -12.6157   19.0567 C   0  0  0  0  0  0  0  0  0  0  0  0
  -28.7368  -12.7325   20.8467 C   0  0  0  0  0  0  0  0  0  0  0  0
  -32.0286  -27.5568   18.3536 C   0  0  1  0  0  0  0  0  0  0  0  0
  -32.4014  -23.8274   18.9752 C   0  0  1  0  0  0  0  0  0  0  0  0
  -27.6899  -13.2994   19.8727 C   0  0  2  0  0  0  0  0  0  0  0  0
  -25.7727  -16.5477   24.2985 C   0  0  0  0  0  0  0  0  0  0  0  0
  -30.2459  -17.0290   15.9523 C   0  0  0  0  0  0  0  0  0  0  0  0
  -28.6771  -23.4565   16.2637 C   0  0  0  0  0  0  0  0  0  0  0  0
  -28.0446  -21.1230   15.6132 C   0  0  0  0  0  0  0  0  0  0  0  0
  -30.0338  -22.2104   14.5723 C   0  0  0  0  0  0  0  0  0  0  0  0
  -32.5910  -17.5629   18.9004 C   0  0  0  0  0  0  0  0  0  0  0  0
  -27.6117  -18.4503   20.9100 C   0  0  0  0  0  0  0  0  0  0  0  0
  -25.9351  -20.2902   20.9778 C   0  0  0  0  0  0  0  0  0  0  0  0
  -29.5534  -16.2997   24.3212 C   0  0  0  0  0  0  0  0  0  0  0  0
  -30.9328  -16.3654   23.6223 C   0  0  0  0  0  0  0  0  0  0  0  0
  -29.0483  -20.8676   26.4254 C   0  0  0  0  0  0  0  0  0  0  0  0
  -31.5152  -15.0000   23.2634 C   0  0  0  0  0  0  0  0  0  0  0  0
  -25.8418  -18.4583   22.6619 C   0  0  0  0  0  0  0  0  0  0  0  0
  -30.0150  -21.8000   25.7033 C   0  0  0  0  0  0  0  0  0  1  0  0
  -26.7156  -17.4775   23.4911 C   0  0  1  0  0  0  0  0  0  0  0  0
  -30.1505  -21.4627   16.9846 C   0  0  1  0  0  0  0  0  0  0  0  0
  -31.1840  -17.8179   16.8526 C   0  0  2  0  0  0  0  0  0  0  0  0
  -29.2334  -22.0693   15.8854 C   0  0  0  0  0  0  0  0  0  0  0  0
  -25.9094  -11.6606   20.3490 N   0  0  0  0  0  0  0  0  0  0  0  0
  -28.7601  -19.6150   25.6342 N   0  0  0  0  0  0  0  0  0  0  0  0
  -26.2734  -12.9530   20.2929 N   0  0  0  0  0  0  0  0  0  0  0  0
  -31.4101  -22.8031   18.6401 N   0  0  0  0  0  0  0  0  0  0  0  0
  -30.0915  -13.0937   20.4003 N   0  0  0  0  0  0  0  0  0  0  0  0
  -25.4749  -15.1568   20.6343 N   0  0  0  0  0  0  0  0  0  0  0  0
  -21.8953  -12.5866   21.6227 N   0  0  0  0  0  0  0  0  0  0  0  0
  -32.5029  -26.1962   18.4889 N   0  0  0  0  0  0  0  0  0  0  0  0
  -30.7134  -20.1611   16.6419 N   0  0  0  0  0  0  0  0  0  0  0  0
  -30.6457  -14.2393   22.3938 N   0  0  0  0  0  0  0  0  0  0  0  0
  -31.6437  -16.9228   17.9519 N   0  3  0  0  0  0  0  0  0  0  0  0
  -26.7143  -19.2853   21.7890 N   0  3  0  0  0  0  0  0  0  0  0  0
  -22.6508  -14.7461   21.4667 O   0  0  0  0  0  0  0  0  0  0  0  0
  -30.5156  -25.2271   19.2197 O   0  0  0  0  0  0  0  0  0  0  0  0
  -32.1331  -22.6407   16.4294 O   0  0  0  0  0  0  0  0  0  0  0  0
  -29.8351  -19.0179   18.4582 O   0  0  0  0  0  0  0  0  0  0  0  0
  -32.1724  -14.0751   20.6910 O   0  0  0  0  0  0  0  0  0  0  0  0
  -21.6872   -7.0223   21.4482 O   0  0  0  0  0  0  0  0  0  0  0  0
  -29.4499  -22.2107   24.4590 O   0  0  0  0  0  0  0  0  0  1  0  0
  -18.5993   -6.5868   25.9956 F   0  0  0  0  0  0  0  0  0  0  0  0
  -19.6636   -8.8329   21.9673 F   0  0  0  0  0  0  0  0  0  0  0  0
  1  2  1  0  0  0  0
  1  5  2  0  0  0  0
  2  6  2  0  0  0  0
  3  8  2  0  0  0  0
  3 17  1  0  0  0  0
  4  9  1  0  0  0  0
  4 17  2  0  0  0  0
  5 19  1  0  0  0  0
  6 21  1  0  0  0  0
  7 10  2  0  0  0  0
  7 20  1  0  0  0  0
  8 25  1  0  0  0  0
  9 25  2  0  0  0  0
 10 26  1  0  0  0  0
 11 12  2  0  0  0  0
 11 27  1  0  0  0  0
 12 28  1  0  0  0  0
 13 22  1  0  0  0  0
 13 26  2  0  0  0  0
 14 28  2  0  0  0  0
 14 29  1  0  0  0  0
 15 23  2  0  0  0  0
 15 68  1  0  0  0  0
 16 24  2  0  0  0  0
 16 68  1  0  0  0  0
 17 30  1  0  0  0  0
 18 30  1  0  0  0  0
 18 31  2  0  0  0  0
 18 32  1  0  0  0  0
 19 21  2  0  0  0  0
 19 37  1  0  0  0  0
 20 22  2  0  0  0  0
 20 38  1  0  0  0  0
 21 46  1  0  0  0  0
 22 39  1  0  0  0  0
 23 24  1  0  0  0  0
 23 57  1  0  0  0  0
 24 63  1  0  0  0  0
 25 84  1  0  0  0  0
 26 85  1  0  0  0  0
 27 29  2  0  0  0  0
 27 84  1  0  0  0  0
 28 86  1  0  0  0  0
 29 87  1  0  0  0  0
 30 67  2  0  0  0  0
 31 69  1  0  0  0  0
 31 72  1  0  0  0  0
 32 73  1  0  0  0  0
 32 79  2  0  0  0  0
 33 47  1  0  0  0  0
 33 74  1  0  0  0  0
 33 80  2  0  0  0  0
 34 64  1  0  0  0  0
 34 70  1  0  0  0  0
 34 81  2  0  0  0  0
 35 65  1  0  0  0  0
 35 75  1  0  0  0  0
 35 82  2  0  0  0  0
 36 71  1  0  0  0  0
 36 76  1  0  0  0  0
 36 83  2  0  0  0  0
 37 40  1  0  0  0  0
 38 47  1  0  0  0  0
 39 70  1  0  0  0  0
 40 42  1  0  0  0  0
 41 43  1  0  0  0  0
 41 44  1  0  0  0  0
 42 46  1  0  0  0  0
 43 48  1  0  0  0  0
 44 71  1  0  0  0  0
 45 48  1  0  0  0  0
 45 71  1  0  0  0  0
 46 74  1  0  0  0  0
 47 70  1  0  0  0  0
 48 69  1  0  0  0  0
 49 63  1  0  0  0  0
 50 65  1  0  0  0  0
 51 66  1  0  0  0  0
 52 66  1  0  0  0  0
 53 66  1  0  0  0  0
 54 77  1  0  0  0  0
 55 78  1  0  0  0  0
 56 78  1  0  0  0  0
 57 58  1  0  0  0  0
 58 60  1  0  0  0  0
 59 62  1  0  0  0  0
 59 68  1  0  0  0  0
 60 76  1  0  0  0  0
 61 63  1  0  0  0  0
 61 78  1  0  0  0  0
 62 85  1  0  0  0  0
 64 66  1  0  0  0  0
 64 75  1  0  0  0  0
 65 77  1  0  0  0  0
 67 69  1  0  0  0  0
M  CHG  2  77   1  78   1
M  ISO  4  36 100  62 101  76 100  85 101
M  END
> <Batch ID>
0093

> <Smiles>
CNC(C)C(=O)NC(C(=O)N1Cc2cc([101O:1][101CH2:1]Cn3cc(CCC[100NH:0][100C:0](=O)N4CCCC(n5nc(-c6ccc(Oc7ccc(F)cc7F)cc6)c(C(N)=O)c5N)C4)c(C(C)CN(C)C)c3)ccc2CC1C(=O)NC1CCCc2ccccc21)C(C)(C)C

> <Shape>
0.198

> <Color>
0.196

> <Negative vol penalty>
0.000

$$$$

  -OEChem-04052319163D

 87 95  0     1  0  0  0  0  0999 V2000
  -27.5218  -33.5149   23.9018 C   0  0  0  0  0  0  0  0  0  0  0  0
  -27.8275  -32.5279   24.8334 C   0  0  0  0  0  0  0  0  0  0  0  0
  -23.7695   -9.0838   21.2282 C   0  0  0  0  0  0  0  0  0  0  0  0
  -25.1987   -9.7030   23.0751 C   0  0  0  0  0  0  0  0  0  0  0  0
  -26.7239  -33.2089   22.8002 C   0  0  0  0  0  0  0  0  0  0  0  0
  -27.3345  -31.2345   24.6644 C   0  0  0  0  0  0  0  0  0  0  0  0
  -29.0763  -24.3929   25.8789 C   0  0  0  0  0  0  0  0  0  0  0  0
  -23.4125   -7.9129   21.8969 C   0  0  0  0  0  0  0  0  0  0  0  0
  -24.8417   -8.5321   23.7438 C   0  0  0  0  0  0  0  0  0  0  0  0
  -28.5634  -23.2398   26.4714 C   0  0  0  0  0  0  0  0  0  0  0  0
  -21.3258   -7.0113   24.4000 C   0  0  0  0  0  0  0  0  0  0  0  0
  -19.9754   -6.6629   24.4213 C   0  0  0  0  0  0  0  0  0  0  0  0
  -27.2601  -22.8075   24.4881 C   0  0  0  0  0  0  0  0  0  0  0  0
  -20.4929   -4.5877   23.2977 C   0  0  0  0  0  0  0  0  0  0  0  0
  -28.9198  -17.3353   24.2834 C   0  0  0  0  0  0  0  0  0  0  0  0
  -24.6626   -9.9789   21.8172 C   0  0  0  0  0  0  0  0  0  0  0  0
  -24.1754  -12.2242   20.7087 C   0  0  0  0  0  0  0  0  0  0  0  0
  -26.2288  -31.9088   22.6125 C   0  0  0  0  0  0  0  0  0  0  0  0
  -28.6759  -24.7684   24.5885 C   0  0  0  0  0  0  0  0  0  0  0  0
  -26.5281  -30.9112   23.5599 C   0  0  0  0  0  0  0  0  0  0  0  0
  -27.7713  -23.9644   23.8804 C   0  0  0  0  0  0  0  0  0  0  0  0
  -27.5592  -17.5347   24.2041 C   0  0  0  0  0  0  0  0  0  0  0  0
  -27.2155  -17.5650   22.8300 C   0  0  0  0  0  0  0  0  0  0  0  0
  -23.9486   -7.6371   23.1547 C   0  0  0  0  0  0  0  0  0  0  0  0
  -27.6530  -22.4484   25.7772 C   0  0  0  0  0  0  0  0  0  0  0  0
  -22.2599   -6.1478   23.8274 C   0  0  0  0  0  0  0  0  0  0  0  0
  -19.5589   -5.4511   23.8702 C   0  0  0  0  0  0  0  0  0  0  0  0
  -21.8434   -4.9360   23.2763 C   0  0  0  0  0  0  0  0  0  0  0  0
  -25.0321  -11.1883   21.1267 C   0  0  0  0  0  0  0  0  0  0  0  0
  -28.3766  -17.3830   22.1115 C   0  0  0  0  0  0  0  0  0  0  0  0
  -25.0075  -13.1360   20.1064 C   0  0  0  0  0  0  0  0  0  0  0  0
  -22.7545  -12.3510   20.8521 C   0  0  0  0  0  0  0  0  0  0  0  0
  -27.1713  -27.2788   23.3483 C   0  0  0  0  0  0  0  0  0  0  0  0
  -27.8745  -25.8201   20.5376 C   0  0  0  0  0  0  0  0  0  0  0  0
  -28.6160  -22.9313   18.8787 C   0  0  0  0  0  0  0  0  0  0  0  0
  -30.8387  -14.3547   20.7092 C   0  0  0  0  0  0  0  0  0  0  0  0
  -25.3312  -31.6373   21.4312 C   0  0  0  0  0  0  0  0  0  0  0  0
  -29.2587  -26.0009   23.9530 C   0  0  0  0  0  0  0  0  0  0  0  0
  -27.3249  -24.3128   22.4847 C   0  0  0  0  0  0  0  0  0  0  0  0
  -25.1579  -30.1516   21.1268 C   0  0  0  0  0  0  0  0  0  0  0  0
  -29.1438  -13.4248   17.7193 C   0  0  0  0  0  0  0  0  0  0  0  0
  -24.8682  -29.3745   22.4070 C   0  0  0  0  0  0  0  0  0  0  0  0
  -27.8206  -12.8397   18.2158 C   0  0  0  0  0  0  0  0  0  0  0  0
  -30.3001  -13.0793   18.6550 C   0  0  0  0  0  0  0  0  0  0  0  0
  -28.7588  -12.8547   20.5649 C   0  0  0  0  0  0  0  0  0  0  0  0
  -26.0325  -29.4905   23.3982 C   0  0  1  0  0  0  0  0  0  0  0  0
  -28.3887  -26.5643   22.8335 C   0  0  1  0  0  0  0  0  0  0  0  0
  -27.5532  -13.2237   19.6836 C   0  0  2  0  0  0  0  0  0  0  0  0
  -28.5957  -17.3286   20.6506 C   0  0  0  0  0  0  0  0  0  0  0  0
  -26.1532  -15.1740   25.5315 C   0  0  0  0  0  0  0  0  0  0  0  0
  -25.2470  -19.1269   22.6327 C   0  0  0  0  0  0  0  0  0  0  0  0
  -24.8788  -16.6333   22.6695 C   0  0  0  0  0  0  0  0  0  0  0  0
  -29.2777  -21.4496   16.9645 C   0  0  0  0  0  0  0  0  0  0  0  0
  -24.9089  -26.0039   19.8440 C   0  0  0  0  0  0  0  0  0  0  0  0
  -25.2962  -24.3080   18.0435 C   0  0  0  0  0  0  0  0  0  0  0  0
  -26.4573  -26.5137   17.9475 C   0  0  0  0  0  0  0  0  0  0  0  0
  -31.4977  -23.2673   19.4632 C   0  0  0  0  0  0  0  0  0  0  0  0
  -26.5813  -16.4326   26.2773 C   0  0  0  0  0  0  0  0  0  0  0  0
  -26.9506  -18.9335   26.2367 C   0  0  0  0  0  0  0  0  0  0  0  0
  -30.7974  -17.0340   22.6705 C   0  0  0  0  0  0  0  0  0  0  0  0
  -31.2364  -15.5808   22.8300 C   0  0  0  0  0  0  0  0  0  0  0  0
  -26.7937  -20.2506   25.4819 C   0  0  0  0  0  0  0  0  0  1  0  0
  -26.6109  -17.6926   25.3823 C   0  0  1  0  0  0  0  0  0  0  0  0
  -25.8623  -17.7564   22.2685 C   0  0  0  0  0  0  0  0  0  0  0  0
  -27.1868  -24.8026   19.6597 C   0  0  1  0  0  0  0  0  0  0  0  0
  -29.6972  -22.6005   17.8657 C   0  0  2  0  0  0  0  0  0  0  0  0
  -25.9690  -25.4012   18.9007 C   0  0  0  0  0  0  0  0  0  0  0  0
  -26.3104  -11.4195   20.8161 N   0  0  0  0  0  0  0  0  0  0  0  0
  -29.4061  -17.2442   23.0053 N   0  0  0  0  0  0  0  0  0  0  0  0
  -26.2631  -12.6111   20.1965 N   0  0  0  0  0  0  0  0  0  0  0  0
  -27.9182  -25.5309   21.9088 N   0  0  0  0  0  0  0  0  0  0  0  0
  -29.9837  -13.4705   20.0308 N   0  0  0  0  0  0  0  0  0  0  0  0
  -24.7803  -14.3274   19.5138 N   0  0  0  0  0  0  0  0  0  0  0  0
  -22.2522  -12.9785   22.0002 N   0  0  0  0  0  0  0  0  0  0  0  0
  -27.1180  -28.6168   23.0072 N   0  0  0  0  0  0  0  0  0  0  0  0
  -28.2194  -24.2489   18.7905 N   0  0  0  0  0  0  0  0  0  0  0  0
  -30.4621  -14.6787   22.0069 N   0  0  0  0  0  0  0  0  0  0  0  0
  -30.9586  -22.2176   18.5608 N   0  3  0  0  0  0  0  0  0  0  0  0
  -21.9534  -11.9058   19.9955 O   0  0  0  0  0  0  0  0  0  0  0  0
  -26.3410  -26.6615   24.0049 O   0  0  0  0  0  0  0  0  0  0  0  0
  -28.3615  -26.8307   20.0246 O   0  0  0  0  0  0  0  0  0  0  0  0
  -28.1656  -22.1027   19.6667 O   0  0  0  0  0  0  0  0  0  0  0  0
  -31.8590  -14.8249   20.1947 O   0  0  0  0  0  0  0  0  0  0  0  0
  -23.6004   -6.4947   23.8076 O   0  0  0  0  0  0  0  0  0  0  0  0
  -27.1505  -21.3227   26.3534 O   0  0  0  0  0  0  0  0  0  1  0  0
  -18.2622   -5.1160   23.8922 F   0  0  0  0  0  0  0  0  0  0  0  0
  -22.7362   -4.1019   22.7259 F   0  0  0  0  0  0  0  0  0  0  0  0
  1  2  1  0  0  0  0
  1  5  2  0  0  0  0
  2  6  2  0  0  0  0
  3  8  2  0  0  0  0
  3 16  1  0  0  0  0
  4  9  1  0  0  0  0
  4 16  2  0  0  0  0
  5 18  1  0  0  0  0
  6 20  1  0  0  0  0
  7 10  2  0  0  0  0
  7 19  1  0  0  0  0
  8 24  1  0  0  0  0
  9 24  2  0  0  0  0
 10 25  1  0  0  0  0
 11 12  2  0  0  0  0
 11 26  1  0  0  0  0
 12 27  1  0  0  0  0
 13 21  1  0  0  0  0
 13 25  2  0  0  0  0
 14 27  2  0  0  0  0
 14 28  1  0  0  0  0
 15 22  2  0  0  0  0
 15 69  1  0  0  0  0
 16 29  1  0  0  0  0
 17 29  1  0  0  0  0
 17 31  2  0  0  0  0
 17 32  1  0  0  0  0
 18 20  2  0  0  0  0
 18 37  1  0  0  0  0
 19 21  2  0  0  0  0
 19 38  1  0  0  0  0
 20 46  1  0  0  0  0
 21 39  1  0  0  0  0
 22 23  1  0  0  0  0
 22 63  1  0  0  0  0
 23 30  2  0  0  0  0
 23 64  1  0  0  0  0
 24 84  1  0  0  0  0
 25 85  1  0  0  0  0
 26 28  2  0  0  0  0
 26 84  1  0  0  0  0
 27 86  1  0  0  0  0
 28 87  1  0  0  0  0
 29 68  2  0  0  0  0
 30 49  1  0  0  0  0
 30 69  1  0  0  0  0
 31 70  1  0  0  0  0
 31 73  1  0  0  0  0
 32 74  1  0  0  0  0
 32 79  2  0  0  0  0
 33 47  1  0  0  0  0
 33 75  1  0  0  0  0
 33 80  2  0  0  0  0
 34 65  1  0  0  0  0
 34 71  1  0  0  0  0
 34 81  2  0  0  0  0
 35 66  1  0  0  0  0
 35 76  1  0  0  0  0
 35 82  2  0  0  0  0
 36 72  1  0  0  0  0
 36 77  1  0  0  0  0
 36 83  2  0  0  0  0
 37 40  1  0  0  0  0
 38 47  1  0  0  0  0
 39 71  1  0  0  0  0
 40 42  1  0  0  0  0
 41 43  1  0  0  0  0
 41 44  1  0  0  0  0
 42 46  1  0  0  0  0
 43 48  1  0  0  0  0
 44 72  1  0  0  0  0
 45 48  1  0  0  0  0
 45 72  1  0  0  0  0
 46 75  1  0  0  0  0
 47 71  1  0  0  0  0
 48 70  1  0  0  0  0
 50 58  1  0  0  0  0
 51 64  1  0  0  0  0
 52 64  1  0  0  0  0
 53 66  1  0  0  0  0
 54 67  1  0  0  0  0
 55 67  1  0  0  0  0
 56 67  1  0  0  0  0
 57 78  1  0  0  0  0
 58 63  1  0  0  0  0
 59 62  1  0  0  0  0
 59 63  1  0  0  0  0
 60 61  1  0  0  0  0
 60 69  1  0  0  0  0
 61 77  1  0  0  0  0
 62 85  1  0  0  0  0
 65 67  1  0  0  0  0
 65 76  1  0  0  0  0
 66 78  1  0  0  0  0
 68 70  1  0  0  0  0
M  CHG  1  78   1
M  ISO  4  36 100  62 101  77 100  85 101
M  END
> <Batch ID>
0093

> <Smiles>
CCC(C[101CH2:1][101O:1]c1ccc2c(c1)CN(C(=O)C(NC(=O)C(C)NC)C(C)(C)C)C(C(=O)NC1CCCc3ccccc31)C2)c1cn(CC[100NH:0][100C:0](=O)N2CCCC(n3nc(-c4ccc(Oc5ccc(F)cc5F)cc4)c(C(N)=O)c3N)C2)c(C)c1C(C)C

> <Shape>
0.274

> <Color>
0.120

> <Negative vol penalty>
0.000

$$$$

  -OEChem-04052319163D

 81 89  0     1  0  0  0  0  0999 V2000
  -29.7280  -13.4100   20.9563 C   0  0  0  0  0  0  0  0  0  0  0  0
  -29.7414  -14.6842   20.3981 C   0  0  0  0  0  0  0  0  0  0  0  0
  -22.8896  -28.7425   20.7082 C   0  0  0  0  0  0  0  0  0  0  0  0
  -23.9422  -29.9338   22.5275 C   0  0  0  0  0  0  0  0  0  0  0  0
  -28.5316  -12.6986   21.0381 C   0  0  0  0  0  0  0  0  0  0  0  0
  -28.5586  -15.2474   19.9204 C   0  0  0  0  0  0  0  0  0  0  0  0
  -27.9959  -20.0767   21.3368 C   0  0  0  0  0  0  0  0  0  0  0  0
  -21.6382  -29.1684   21.1533 C   0  0  0  0  0  0  0  0  0  0  0  0
  -22.6908  -30.3598   22.9726 C   0  0  0  0  0  0  0  0  0  0  0  0
  -28.7268  -21.0351   20.6360 C   0  0  0  0  0  0  0  0  0  0  0  0
  -19.4357  -28.3235   23.5739 C   0  0  0  0  0  0  0  0  0  0  0  0
  -18.4111  -27.3785   23.6263 C   0  0  0  0  0  0  0  0  0  0  0  0
  -26.7656  -21.5734   19.3387 C   0  0  0  0  0  0  0  0  0  0  0  0
  -17.1140  -28.6989   22.0735 C   0  0  0  0  0  0  0  0  0  0  0  0
  -31.5394  -26.1257   18.3039 C   0  0  0  0  0  0  0  0  0  0  0  0
  -24.0417  -29.1251   21.3953 C   0  0  0  0  0  0  0  0  0  0  0  0
  -25.7824  -27.3570   20.8026 C   0  0  0  0  0  0  0  0  0  0  0  0
  -27.3319  -13.2573   20.5700 C   0  0  0  0  0  0  0  0  0  0  0  0
  -26.6449  -19.8515   21.0358 C   0  0  0  0  0  0  0  0  0  0  0  0
  -27.3453  -14.5423   19.9948 C   0  0  0  0  0  0  0  0  0  0  0  0
  -26.0191  -20.6134   20.0388 C   0  0  0  0  0  0  0  0  0  0  0  0
  -21.5388  -29.9771   22.2854 C   0  0  0  0  0  0  0  0  0  0  0  0
  -28.1124  -21.7816   19.6348 C   0  0  0  0  0  0  0  0  0  0  0  0
  -19.2994  -29.4563   22.7714 C   0  0  0  0  0  0  0  0  0  0  0  0
  -17.2503  -27.5662   22.8761 C   0  0  0  0  0  0  0  0  0  0  0  0
  -18.1386  -29.6439   22.0212 C   0  0  0  0  0  0  0  0  0  0  0  0
  -25.3346  -28.6849   20.9364 C   0  0  0  0  0  0  0  0  0  0  0  0
  -31.8579  -25.9168   16.9801 C   0  0  0  0  0  0  0  0  0  0  0  0
  -31.1114  -23.7611   17.1408 C   0  0  0  0  0  0  0  0  0  0  0  0
  -30.7937  -23.9699   18.4648 C   0  0  0  0  0  0  0  0  0  0  0  0
  -27.0682  -27.4737   20.3342 C   0  0  0  0  0  0  0  0  0  0  0  0
  -25.0972  -26.1278   21.0771 C   0  0  0  0  0  0  0  0  0  0  0  0
  -24.9673  -17.3703   19.9713 C   0  0  0  0  0  0  0  0  0  0  0  0
  -22.4464  -19.3361   20.5214 C   0  0  0  0  0  0  0  0  0  0  0  0
  -21.2784  -22.5252   20.8564 C   0  0  0  0  0  0  0  0  0  0  0  0
  -30.8061  -29.8006   16.9049 C   0  0  0  0  0  0  0  0  0  0  0  0
  -26.0718  -12.4312   20.6367 C   0  0  0  0  0  0  0  0  0  0  0  0
  -25.8633  -18.8327   21.8191 C   0  0  0  0  0  0  0  0  0  0  0  0
  -24.5658  -20.4243   19.6912 C   0  0  0  0  0  0  0  0  0  0  0  0
  -24.7966  -13.2491   20.4491 C   0  0  0  0  0  0  0  0  0  0  0  0
  -30.0704  -31.5249   19.9319 C   0  0  0  0  0  0  0  0  0  0  0  0
  -24.9395  -14.1958   19.2616 C   0  0  0  0  0  0  0  0  0  0  0  0
  -28.8068  -30.8345   20.4482 C   0  0  0  0  0  0  0  0  0  0  0  0
  -30.0744  -31.6284   18.4083 C   0  0  0  0  0  0  0  0  0  0  0  0
  -28.6023  -29.6611   18.2166 C   0  0  0  0  0  0  0  0  0  0  0  0
  -26.0786  -15.1971   19.4883 C   0  0  1  0  0  0  0  0  0  0  0  0
  -24.6288  -18.3281   21.0784 C   0  0  1  0  0  0  0  0  0  0  0  0
  -28.5786  -29.4833   19.7444 C   0  0  2  0  0  0  0  0  0  0  0  0
  -30.8753  -22.4444   16.4833 C   0  0  0  0  0  0  0  0  0  0  0  0
  -19.1658  -23.8167   21.2649 C   0  0  0  0  0  0  0  0  0  0  0  0
  -21.5807  -18.8265   17.6403 C   0  0  0  0  0  0  0  0  0  0  0  0
  -20.0763  -20.8203   17.8131 C   0  0  0  0  0  0  0  0  0  0  0  0
  -19.7119  -18.8523   19.3021 C   0  0  0  0  0  0  0  0  0  0  0  0
  -22.3437  -23.7028   23.3539 C   0  0  0  0  0  0  0  0  0  0  0  0
  -32.4516  -27.0112   16.1642 C   0  0  0  0  0  0  0  0  0  0  0  0
  -30.1952  -22.8818   19.3069 C   0  0  0  0  0  0  0  0  0  1  0  0
  -31.4102  -27.8830   15.4499 C   0  0  0  0  0  0  0  0  0  0  0  0
  -21.6961  -20.3650   19.7105 C   0  0  1  0  0  0  0  0  0  0  0  0
  -20.3835  -23.1655   21.9022 C   0  0  2  0  0  0  0  0  0  0  0  0
  -20.7941  -19.7185   18.6215 C   0  0  0  0  0  0  0  0  0  0  0  0
  -31.0017  -25.1560   19.0701 N   0  0  0  0  0  0  0  0  0  0  0  0
  -26.2608  -29.5796   20.5818 N   0  0  0  0  0  0  0  0  0  0  0  0
  -31.6495  -24.7307   16.3748 N   0  0  0  0  0  0  0  0  0  0  0  0
  -27.3034  -28.8124   20.2206 N   0  0  0  0  0  0  0  0  0  0  0  0
  -23.8458  -19.4117   20.4810 N   0  0  0  0  0  0  0  0  0  0  0  0
  -29.8547  -30.3129   17.8023 N   0  0  0  0  0  0  0  0  0  0  0  0
  -28.0093  -26.5609   20.0125 N   0  0  0  0  0  0  0  0  0  0  0  0
  -24.3583  -25.5302   20.0468 N   0  0  0  0  0  0  0  0  0  0  0  0
  -25.6560  -16.2477   20.3895 N   0  0  0  0  0  0  0  0  0  0  0  0
  -20.9739  -21.1934   20.6699 N   0  0  0  0  0  0  0  0  0  0  0  0
  -30.5239  -28.5449   16.3812 N   0  0  0  0  0  0  0  0  0  0  0  0
  -21.1334  -24.2090   22.6570 N   0  3  0  0  0  0  0  0  0  0  0  0
  -25.1255  -25.5842   22.2072 O   0  0  0  0  0  0  0  0  0  0  0  0
  -24.6275  -17.6299   18.8229 O   0  0  0  0  0  0  0  0  0  0  0  0
  -21.8140  -18.5008   21.1725 O   0  0  0  0  0  0  0  0  0  0  0  0
  -22.1570  -23.1455   20.2616 O   0  0  0  0  0  0  0  0  0  0  0  0
  -31.8337  -30.4142   16.5976 O   0  0  0  0  0  0  0  0  0  0  0  0
  -20.3179  -30.3932   22.7199 O   0  0  0  0  0  0  0  0  0  0  0  0
  -28.8237  -22.7172   18.9488 O   0  0  0  0  0  0  0  0  0  1  0  0
  -16.2671  -26.6578   22.9253 F   0  0  0  0  0  0  0  0  0  0  0  0
  -18.0024  -30.7296   21.2475 F   0  0  0  0  0  0  0  0  0  0  0  0
  1  2  1  0  0  0  0
  1  5  2  0  0  0  0
  2  6  2  0  0  0  0
  3  8  2  0  0  0  0
  3 16  1  0  0  0  0
  4  9  1  0  0  0  0
  4 16  2  0  0  0  0
  5 18  1  0  0  0  0
  6 20  1  0  0  0  0
  7 10  2  0  0  0  0
  7 19  1  0  0  0  0
  8 22  1  0  0  0  0
  9 22  2  0  0  0  0
 10 23  1  0  0  0  0
 11 12  2  0  0  0  0
 11 24  1  0  0  0  0
 12 25  1  0  0  0  0
 13 21  1  0  0  0  0
 13 23  2  0  0  0  0
 14 25  2  0  0  0  0
 14 26  1  0  0  0  0
 15 28  1  0  0  0  0
 15 61  2  0  0  0  0
 16 27  1  0  0  0  0
 17 27  1  0  0  0  0
 17 31  2  0  0  0  0
 17 32  1  0  0  0  0
 18 20  2  0  0  0  0
 18 37  1  0  0  0  0
 19 21  2  0  0  0  0
 19 38  1  0  0  0  0
 20 46  1  0  0  0  0
 21 39  1  0  0  0  0
 22 78  1  0  0  0  0
 23 79  1  0  0  0  0
 24 26  2  0  0  0  0
 24 78  1  0  0  0  0
 25 80  1  0  0  0  0
 26 81  1  0  0  0  0
 27 62  2  0  0  0  0
 28 55  1  0  0  0  0
 28 63  2  0  0  0  0
 29 30  2  0  0  0  0
 29 49  1  0  0  0  0
 29 63  1  0  0  0  0
 30 56  1  0  0  0  0
 30 61  1  0  0  0  0
 31 64  1  0  0  0  0
 31 67  1  0  0  0  0
 32 68  1  0  0  0  0
 32 73  2  0  0  0  0
 33 47  1  0  0  0  0
 33 69  1  0  0  0  0
 33 74  2  0  0  0  0
 34 58  1  0  0  0  0
 34 65  1  0  0  0  0
 34 75  2  0  0  0  0
 35 59  1  0  0  0  0
 35 70  1  0  0  0  0
 35 76  2  0  0  0  0
 36 66  1  0  0  0  0
 36 71  1  0  0  0  0
 36 77  2  0  0  0  0
 37 40  1  0  0  0  0
 38 47  1  0  0  0  0
 39 65  1  0  0  0  0
 40 42  1  0  0  0  0
 41 43  1  0  0  0  0
 41 44  1  0  0  0  0
 42 46  1  0  0  0  0
 43 48  1  0  0  0  0
 44 66  1  0  0  0  0
 45 48  1  0  0  0  0
 45 66  1  0  0  0  0
 46 69  1  0  0  0  0
 47 65  1  0  0  0  0
 48 64  1  0  0  0  0
 50 59  1  0  0  0  0
 51 60  1  0  0  0  0
 52 60  1  0  0  0  0
 53 60  1  0  0  0  0
 54 72  1  0  0  0  0
 55 57  1  0  0  0  0
 56 79  1  0  0  0  0
 57 71  1  0  0  0  0
 58 60  1  0  0  0  0
 58 70  1  0  0  0  0
 59 72  1  0  0  0  0
 62 64  1  0  0  0  0
M  CHG  1  72   1
M  ISO  4  36 100  56 101  71 100  79 101
M  END
> <Batch ID>
0093

> <Smiles>
CNC(C)C(=O)NC(C(=O)N1Cc2cc([101O:1][101CH2:1]c3ncc(CC[100NH:0][100C:0](=O)N4CCCC(n5nc(-c6ccc(Oc7ccc(F)cc7F)cc6)c(C(N)=O)c5N)C4)nc3C)ccc2CC1C(=O)NC1CCCc2ccccc21)C(C)(C)C

> <Shape>
0.208

> <Color>
0.080

> <Negative vol penalty>
0.000

$$$$

  -OEChem-04052319163D

 88 96  0     1  0  0  0  0  0999 V2000
  -30.7491  -25.8943   13.6125 C   0  0  0  0  0  0  0  0  0  0  0  0
  -29.7635  -25.2731   14.3727 C   0  0  0  0  0  0  0  0  0  0  0  0
  -29.4890  -18.4806   21.5597 C   0  0  0  0  0  0  0  0  0  0  0  0
  -27.8032  -17.8676   19.9412 C   0  0  0  0  0  0  0  0  0  0  0  0
  -31.6152  -26.8093   14.2096 C   0  0  0  0  0  0  0  0  0  0  0  0
  -29.6440  -25.5657   15.7308 C   0  0  0  0  0  0  0  0  0  0  0  0
  -24.8372  -26.3013   17.1442 C   0  0  0  0  0  0  0  0  0  0  0  0
  -30.2478  -17.3701   21.1899 C   0  0  0  0  0  0  0  0  0  0  0  0
  -28.5620  -16.7572   19.5714 C   0  0  0  0  0  0  0  0  0  0  0  0
  -24.0465  -25.1675   17.3264 C   0  0  0  0  0  0  0  0  0  0  0  0
  -29.1846  -13.6558   20.7649 C   0  0  0  0  0  0  0  0  0  0  0  0
  -28.5210  -12.4381   20.6154 C   0  0  0  0  0  0  0  0  0  0  0  0
  -24.3830  -25.3232   19.7100 C   0  0  0  0  0  0  0  0  0  0  0  0
  -19.0618  -19.8297   19.1820 C   0  0  0  0  0  0  0  0  0  0  0  0
  -29.2194  -12.3412   18.3046 C   0  0  0  0  0  0  0  0  0  0  0  0
  -28.2667  -18.7293   20.9354 C   0  0  0  0  0  0  0  0  0  0  0  0
  -27.5421  -21.1693   20.7647 C   0  0  0  0  0  0  0  0  0  0  0  0
  -31.5002  -27.1206   15.5736 C   0  0  0  0  0  0  0  0  0  0  0  0
  -25.4166  -26.9492   18.2446 C   0  0  0  0  0  0  0  0  0  0  0  0
  -30.5103  -26.4848   16.3470 C   0  0  0  0  0  0  0  0  0  0  0  0
  -25.1786  -26.4664   19.5394 C   0  0  0  0  0  0  0  0  0  0  0  0
  -19.2283  -20.2632   20.4926 C   0  0  0  0  0  0  0  0  0  0  0  0
  -19.3177  -18.5023   18.8569 C   0  0  0  0  0  0  0  0  0  0  0  0
  -29.7843  -16.5084   20.1958 C   0  0  0  0  0  0  0  0  0  0  0  0
  -23.8216  -24.6766   18.6092 C   0  0  0  0  0  0  0  0  0  0  0  0
  -29.8656  -14.2163   19.6842 C   0  0  0  0  0  0  0  0  0  0  0  0
  -28.5384  -11.7808   19.3853 C   0  0  0  0  0  0  0  0  0  0  0  0
  -29.8829  -13.5590   18.4541 C   0  0  0  0  0  0  0  0  0  0  0  0
  -27.4821  -19.8759   21.3173 C   0  0  0  0  0  0  0  0  0  0  0  0
  -19.6493  -19.3372   21.4334 C   0  0  0  0  0  0  0  0  0  0  0  0
  -19.7348  -17.6551   19.8709 C   0  0  0  0  0  0  0  0  0  0  0  0
  -26.6052  -21.8868   21.4676 C   0  0  0  0  0  0  0  0  0  0  0  0
  -28.3705  -21.6768   19.7103 C   0  0  0  0  0  0  0  0  0  0  0  0
  -28.3942  -27.5445   19.1846 C   0  0  0  0  0  0  0  0  0  0  0  0
  -26.9055  -29.2585   21.5016 C   0  0  0  0  0  0  0  0  0  0  0  0
  -24.0937  -29.7829   23.3632 C   0  0  0  0  0  0  0  0  0  0  0  0
  -21.6604  -20.3105   24.4534 C   0  0  0  0  0  0  0  0  0  0  0  0
  -32.4896  -28.0807   16.1850 C   0  0  0  0  0  0  0  0  0  0  0  0
  -26.2451  -28.1867   18.0334 C   0  0  0  0  0  0  0  0  0  0  0  0
  -25.7611  -27.1374   20.7555 C   0  0  0  0  0  0  0  0  0  0  0  0
  -32.0564  -28.6164   17.5473 C   0  0  0  0  0  0  0  0  0  0  0  0
  -24.4696  -22.0761   25.7448 C   0  0  0  0  0  0  0  0  0  0  0  0
  -31.5588  -27.4795   18.4343 C   0  0  0  0  0  0  0  0  0  0  0  0
  -25.5656  -21.8292   24.7066 C   0  0  0  0  0  0  0  0  0  0  0  0
  -23.5777  -20.8500   25.9264 C   0  0  0  0  0  0  0  0  0  0  0  0
  -24.0861  -20.0747   23.6429 C   0  0  0  0  0  0  0  0  0  0  0  0
  -30.3332  -26.7946   17.8177 C   0  0  1  0  0  0  0  0  0  0  0  0
  -27.2069  -28.4654   19.1844 C   0  0  1  0  0  0  0  0  0  0  0  0
  -24.9769  -21.3018   23.3843 C   0  0  2  0  0  0  0  0  0  0  0  0
  -20.3043  -17.3595   15.3036 C   0  0  0  0  0  0  0  0  0  0  0  0
  -19.0917  -15.2656   20.3504 C   0  0  0  0  0  0  0  0  0  0  0  0
  -21.4926  -15.8485   19.8494 C   0  0  0  0  0  0  0  0  0  0  0  0
  -23.1913  -31.2307   25.2036 C   0  0  0  0  0  0  0  0  0  0  0  0
  -28.5218  -27.6673   23.5426 C   0  0  0  0  0  0  0  0  0  0  0  0
  -26.9314  -28.4518   25.3099 C   0  0  0  0  0  0  0  0  0  0  0  0
  -28.3105  -30.1066   24.0521 C   0  0  0  0  0  0  0  0  0  0  0  0
  -21.9531  -30.8582   21.6253 C   0  0  0  0  0  0  0  0  0  0  0  0
  -18.9523  -21.7015   20.8518 C   0  0  0  0  0  0  0  0  0  0  0  0
  -19.1414  -18.0315   17.4545 C   0  0  0  0  0  0  0  0  0  0  0  0
  -19.8465  -19.7455   22.8566 C   0  0  0  0  0  0  0  0  0  0  0  0
  -20.4840  -17.8731   16.7234 C   0  0  0  0  0  0  0  0  0  0  0  0
  -20.2173  -22.5449   21.0456 C   0  0  0  0  0  0  0  0  0  0  0  0
  -21.0557  -22.6681   19.7725 C   0  0  0  0  0  0  0  0  0  0  0  0
  -22.3222  -23.4782   20.0133 C   0  0  0  0  0  0  0  0  0  1  0  0
  -20.0229  -16.2187   19.5792 C   0  0  0  0  0  0  0  0  0  0  0  0
  -26.3840  -28.9575   22.8860 C   0  0  1  0  0  0  0  0  0  0  0  0
  -23.3306  -31.0513   23.6999 C   0  0  2  0  0  0  0  0  0  0  0  0
  -27.5274  -28.7818   23.9248 C   0  0  0  0  0  0  0  0  0  0  0  0
  -26.5787  -19.7747   22.2959 N   0  0  0  0  0  0  0  0  0  0  0  0
  -19.9078  -18.0397   21.1554 N   0  0  0  0  0  0  0  0  0  0  0  0
  -26.0625  -21.0136   22.3638 N   0  0  0  0  0  0  0  0  0  0  0  0
  -26.5693  -28.3405   20.4966 N   0  0  0  0  0  0  0  0  0  0  0  0
  -23.0502  -20.4013   24.6354 N   0  0  0  0  0  0  0  0  0  0  0  0
  -26.2011  -23.1731   21.4004 N   0  0  0  0  0  0  0  0  0  0  0  0
  -29.2789  -20.8043   19.0956 N   0  0  0  0  0  0  0  0  0  0  0  0
  -29.1471  -27.5969   18.0271 N   0  0  0  0  0  0  0  0  0  0  0  0
  -25.4425  -30.0242   23.2083 N   0  0  0  0  0  0  0  0  0  0  0  0
  -21.2448  -19.8832   23.1983 N   0  0  0  0  0  0  0  0  0  0  0  0
  -21.9657  -31.0084   23.1033 N   0  3  0  0  0  0  0  0  0  0  0  0
  -28.3186  -22.8728   19.3357 O   0  0  0  0  0  0  0  0  0  0  0  0
  -28.6119  -26.8397   20.1632 O   0  0  0  0  0  0  0  0  0  0  0  0
  -27.5802  -30.2746   21.3173 O   0  0  0  0  0  0  0  0  0  0  0  0
  -23.5485  -28.6870   23.2527 O   0  0  0  0  0  0  0  0  0  0  0  0
  -20.8499  -20.5947   25.3418 O   0  0  0  0  0  0  0  0  0  0  0  0
  -30.5246  -15.4249   19.8345 O   0  0  0  0  0  0  0  0  0  0  0  0
  -23.0508  -23.5698   18.7898 O   0  0  0  0  0  0  0  0  0  1  0  0
  -27.9023  -10.6106   19.2423 F   0  0  0  0  0  0  0  0  0  0  0  0
  -30.5364  -14.0919   17.4126 F   0  0  0  0  0  0  0  0  0  0  0  0
  1  2  1  0  0  0  0
  1  5  2  0  0  0  0
  2  6  2  0  0  0  0
  3  8  2  0  0  0  0
  3 16  1  0  0  0  0
  4  9  1  0  0  0  0
  4 16  2  0  0  0  0
  5 18  1  0  0  0  0
  6 20  1  0  0  0  0
  7 10  2  0  0  0  0
  7 19  1  0  0  0  0
  8 24  1  0  0  0  0
  9 24  2  0  0  0  0
 10 25  1  0  0  0  0
 11 12  2  0  0  0  0
 11 26  1  0  0  0  0
 12 27  1  0  0  0  0
 13 21  1  0  0  0  0
 13 25  2  0  0  0  0
 14 22  2  0  0  0  0
 14 23  1  0  0  0  0
 15 27  2  0  0  0  0
 15 28  1  0  0  0  0
 16 29  1  0  0  0  0
 17 29  1  0  0  0  0
 17 32  2  0  0  0  0
 17 33  1  0  0  0  0
 18 20  2  0  0  0  0
 18 38  1  0  0  0  0
 19 21  2  0  0  0  0
 19 39  1  0  0  0  0
 20 47  1  0  0  0  0
 21 40  1  0  0  0  0
 22 30  1  0  0  0  0
 22 58  1  0  0  0  0
 23 31  2  0  0  0  0
 23 59  1  0  0  0  0
 24 85  1  0  0  0  0
 25 86  1  0  0  0  0
 26 28  2  0  0  0  0
 26 85  1  0  0  0  0
 27 87  1  0  0  0  0
 28 88  1  0  0  0  0
 29 69  2  0  0  0  0
 30 60  1  0  0  0  0
 30 70  2  0  0  0  0
 31 65  1  0  0  0  0
 31 70  1  0  0  0  0
 32 71  1  0  0  0  0
 32 74  1  0  0  0  0
 33 75  1  0  0  0  0
 33 80  2  0  0  0  0
 34 48  1  0  0  0  0
 34 76  1  0  0  0  0
 34 81  2  0  0  0  0
 35 66  1  0  0  0  0
 35 72  1  0  0  0  0
 35 82  2  0  0  0  0
 36 67  1  0  0  0  0
 36 77  1  0  0  0  0
 36 83  2  0  0  0  0
 37 73  1  0  0  0  0
 37 78  1  0  0  0  0
 37 84  2  0  0  0  0
 38 41  1  0  0  0  0
 39 48  1  0  0  0  0
 40 72  1  0  0  0  0
 41 43  1  0  0  0  0
 42 44  1  0  0  0  0
 42 45  1  0  0  0  0
 43 47  1  0  0  0  0
 44 49  1  0  0  0  0
 45 73  1  0  0  0  0
 46 49  1  0  0  0  0
 46 73  1  0  0  0  0
 47 76  1  0  0  0  0
 48 72  1  0  0  0  0
 49 71  1  0  0  0  0
 50 61  1  0  0  0  0
 51 65  1  0  0  0  0
 52 65  1  0  0  0  0
 53 67  1  0  0  0  0
 54 68  1  0  0  0  0
 55 68  1  0  0  0  0
 56 68  1  0  0  0  0
 57 79  1  0  0  0  0
 58 62  1  0  0  0  0
 59 61  1  0  0  0  0
 60 78  1  0  0  0  0
 62 63  1  0  0  0  0
 63 64  1  0  0  0  0
 64 86  1  0  0  0  0
 66 68  1  0  0  0  0
 66 77  1  0  0  0  0
 67 79  1  0  0  0  0
 69 71  1  0  0  0  0
M  CHG  1  79   1
M  ISO  4  37 100  64 101  78 100  86 101
M  END
> <Batch ID>
0093

> <Smiles>
CCCc1cc(CCC[101CH2:1][101O:1]c2ccc3c(c2)CN(C(=O)C(NC(=O)C(C)NC)C(C)(C)C)C(C(=O)NC2CCCc4ccccc42)C3)c(C[100NH:0][100C:0](=O)N2CCCC(n3nc(-c4ccc(Oc5ccc(F)cc5F)cc4)c(C(N)=O)c3N)C2)nc1C(C)C

> <Shape>
0.175

> <Color>
0.072

> <Negative vol penalty>
0.000

$$$$

  -OEChem-04052319163D

 91 99  0     1  0  0  0  0  0999 V2000
  -26.6423   -4.3106   20.9449 C   0  0  0  0  0  0  0  0  0  0  0  0
  -26.3553   -5.6669   21.0610 C   0  0  0  0  0  0  0  0  0  0  0  0
  -23.2010   -9.8516   19.9519 C   0  0  0  0  0  0  0  0  0  0  0  0
  -23.9121   -9.9302   22.2596 C   0  0  0  0  0  0  0  0  0  0  0  0
  -26.3598   -3.4465   22.0020 C   0  0  0  0  0  0  0  0  0  0  0  0
  -25.7844   -6.1598   22.2338 C   0  0  0  0  0  0  0  0  0  0  0  0
  -26.7975  -11.6237   24.8078 C   0  0  0  0  0  0  0  0  0  0  0  0
  -22.5095   -8.6670   20.2054 C   0  0  0  0  0  0  0  0  0  0  0  0
  -23.2205   -8.7457   22.5130 C   0  0  0  0  0  0  0  0  0  0  0  0
  -26.0864  -12.8224   24.7748 C   0  0  0  0  0  0  0  0  0  0  0  0
  -21.3448   -5.9344   23.8533 C   0  0  0  0  0  0  0  0  0  0  0  0
  -20.5675   -5.8711   25.0097 C   0  0  0  0  0  0  0  0  0  0  0  0
  -25.0211  -12.2409   26.8595 C   0  0  0  0  0  0  0  0  0  0  0  0
  -30.1640  -17.1013   24.5302 C   0  0  0  0  0  0  0  0  0  0  0  0
  -19.2449   -7.7336   24.2228 C   0  0  0  0  0  0  0  0  0  0  0  0
  -23.9024  -10.4832   20.9790 C   0  0  0  0  0  0  0  0  0  0  0  0
  -24.1226  -13.0200   20.8256 C   0  0  0  0  0  0  0  0  0  0  0  0
  -25.7941   -3.9306   23.1921 C   0  0  0  0  0  0  0  0  0  0  0  0
  -26.6173  -10.7180   25.8632 C   0  0  0  0  0  0  0  0  0  0  0  0
  -25.4928   -5.3011   23.3073 C   0  0  0  0  0  0  0  0  0  0  0  0
  -25.7330  -11.0325   26.9049 C   0  0  0  0  0  0  0  0  0  0  0  0
  -29.6258  -17.0281   25.8387 C   0  0  0  0  0  0  0  0  0  0  0  0
  -22.5192   -8.1141   21.4859 C   0  0  0  0  0  0  0  0  0  0  0  0
  -25.1959  -13.1299   25.7992 C   0  0  0  0  0  0  0  0  0  0  0  0
  -21.0722   -6.8973   22.8816 C   0  0  0  0  0  0  0  0  0  0  0  0
  -19.5176   -6.7706   25.1945 C   0  0  0  0  0  0  0  0  0  0  0  0
  -20.0223   -7.7969   23.0663 C   0  0  0  0  0  0  0  0  0  0  0  0
  -24.6174  -11.7065   20.7177 C   0  0  0  0  0  0  0  0  0  0  0  0
  -30.6921  -15.8644   24.2328 C   0  0  0  0  0  0  0  0  0  0  0  0
  -29.8416  -15.7486   26.3011 C   0  0  0  0  0  0  0  0  0  0  0  0
  -25.1840  -13.8169   20.4723 C   0  0  0  0  0  0  0  0  0  0  0  0
  -22.8200  -13.4788   21.2109 C   0  0  0  0  0  0  0  0  0  0  0  0
  -25.5774   -7.7234   26.0963 C   0  0  0  0  0  0  0  0  0  0  0  0
  -26.4863   -8.0609   29.1918 C   0  0  0  0  0  0  0  0  0  0  0  0
  -27.1215  -10.1515   31.8134 C   0  0  0  0  0  0  0  0  0  0  0  0
  -30.9476  -14.0588   20.9585 C   0  0  0  0  0  0  0  0  0  0  0  0
  -25.4628   -2.9505   24.2896 C   0  0  0  0  0  0  0  0  0  0  0  0
  -27.4118   -9.4413   25.8978 C   0  0  0  0  0  0  0  0  0  0  0  0
  -25.5186  -10.1034   28.0708 C   0  0  0  0  0  0  0  0  0  0  0  0
  -25.2037   -3.6132   25.6401 C   0  0  0  0  0  0  0  0  0  0  0  0
  -29.3570  -13.1286   17.9120 C   0  0  0  0  0  0  0  0  0  0  0  0
  -24.2709   -4.8092   25.4778 C   0  0  0  0  0  0  0  0  0  0  0  0
  -27.9266  -12.7892   18.3349 C   0  0  0  0  0  0  0  0  0  0  0  0
  -30.3742  -12.7009   18.9676 C   0  0  0  0  0  0  0  0  0  0  0  0
  -28.6793  -12.8726   20.7485 C   0  0  0  0  0  0  0  0  0  0  0  0
  -24.8964   -5.8777   24.5730 C   0  0  1  0  0  0  0  0  0  0  0  0
  -26.7669   -8.3593   26.7584 C   0  0  1  0  0  0  0  0  0  0  0  0
  -27.6131  -13.3354   19.7409 C   0  0  2  0  0  0  0  0  0  0  0  0
  -27.8669  -10.8529   34.1047 C   0  0  0  0  0  0  0  0  0  0  0  0
  -31.6474  -14.3107   30.7646 C   0  0  0  0  0  0  0  0  0  0  0  0
  -29.3067  -15.1895   30.6697 C   0  0  0  0  0  0  0  0  0  0  0  0
  -23.6786   -7.1661   29.9832 C   0  0  0  0  0  0  0  0  0  0  0  0
  -24.1151   -8.0640   32.2792 C   0  0  0  0  0  0  0  0  0  0  0  0
  -25.5138   -6.2030   31.3829 C   0  0  0  0  0  0  0  0  0  0  0  0
  -24.6945  -18.1470   23.7728 C   0  0  0  0  0  0  0  0  0  0  0  0
  -24.6682  -19.2157   26.0222 C   0  0  0  0  0  0  0  0  0  0  0  0
  -30.9010  -13.6647   25.4071 C   0  0  0  0  0  0  0  0  0  0  0  0
  -29.9183  -10.5188   30.9177 C   0  0  0  0  0  0  0  0  0  0  0  0
  -28.9431  -18.1492   26.5811 C   0  0  0  0  0  0  0  0  0  0  0  0
  -29.4852  -15.1311   27.5964 C   0  0  0  0  0  0  0  0  0  0  0  0
  -31.3699  -15.3945   23.0071 C   0  0  0  0  0  0  0  0  0  0  0  0
  -27.4141  -18.0221   26.6325 C   0  0  0  0  0  0  0  0  0  0  0  0
  -30.7004  -14.9989   28.5413 C   0  0  0  0  0  0  0  0  0  0  0  0
  -26.7654  -18.0885   25.2414 C   0  0  0  0  0  0  0  0  0  0  0  0
  -24.6565  -16.6907   25.8104 C   0  0  0  0  0  0  0  0  0  0  0  0
  -25.1236  -15.4095   25.1255 C   0  0  0  0  0  0  0  0  0  1  0  0
  -25.8148   -8.5365   30.4575 C   0  0  1  0  0  0  0  0  0  0  0  0
  -28.2857  -10.2238   32.7849 C   0  0  2  0  0  0  0  0  0  0  0  0
  -30.3741  -14.3924   29.9188 C   0  0  0  0  0  0  0  0  0  0  0  0
  -24.7829   -7.5092   31.0029 C   0  0  0  0  0  0  0  0  0  0  0  0
  -25.2124  -18.0136   25.2206 C   0  0  0  0  0  0  0  0  0  0  0  0
  -25.8938  -11.6669   20.3263 N   0  0  0  0  0  0  0  0  0  0  0  0
  -30.4907  -15.0503   25.3167 N   0  0  0  0  0  0  0  0  0  0  0  0
  -26.2100  -12.9654   20.1850 N   0  0  0  0  0  0  0  0  0  0  0  0
  -26.3139   -8.8646   28.0560 N   0  0  0  0  0  0  0  0  0  0  0  0
  -30.0202  -13.2533   20.2773 N   0  0  0  0  0  0  0  0  0  0  0  0
  -25.3304  -15.1559   20.3822 N   0  0  0  0  0  0  0  0  0  0  0  0
  -21.8470  -12.5260   21.5424 N   0  0  0  0  0  0  0  0  0  0  0  0
  -25.8900   -6.6376   25.3008 N   0  0  0  0  0  0  0  0  0  0  0  0
  -26.8874   -8.8596   31.3920 N   0  0  0  0  0  0  0  0  0  0  0  0
  -30.5299  -14.5469   22.1905 N   0  0  0  0  0  0  0  0  0  0  0  0
  -29.3929  -11.0370   32.2071 N   0  3  0  0  0  0  0  0  0  0  0  0
  -22.5226  -14.6970   21.2439 O   0  0  0  0  0  0  0  0  0  0  0  0
  -24.4586   -8.1828   26.2939 O   0  0  0  0  0  0  0  0  0  0  0  0
  -27.1457   -7.0185   29.2121 O   0  0  0  0  0  0  0  0  0  0  0  0
  -26.4813  -11.1415   31.4661 O   0  0  0  0  0  0  0  0  0  0  0  0
  -32.0632  -14.3277   20.5000 O   0  0  0  0  0  0  0  0  0  0  0  0
  -21.8443   -6.9584   21.7336 O   0  0  0  0  0  0  0  0  0  0  0  0
  -24.5000  -14.2990   25.7691 O   0  0  0  0  0  0  0  0  0  1  0  0
  -18.7702   -6.7087   26.3044 F   0  0  0  0  0  0  0  0  0  0  0  0
  -19.7549   -8.7234   22.1358 F   0  0  0  0  0  0  0  0  0  0  0  0
  1  2  1  0  0  0  0
  1  5  2  0  0  0  0
  2  6  2  0  0  0  0
  3  8  2  0  0  0  0
  3 16  1  0  0  0  0
  4  9  1  0  0  0  0
  4 16  2  0  0  0  0
  5 18  1  0  0  0  0
  6 20  1  0  0  0  0
  7 10  2  0  0  0  0
  7 19  1  0  0  0  0
  8 23  1  0  0  0  0
  9 23  2  0  0  0  0
 10 24  1  0  0  0  0
 11 12  2  0  0  0  0
 11 25  1  0  0  0  0
 12 26  1  0  0  0  0
 13 21  1  0  0  0  0
 13 24  2  0  0  0  0
 14 22  1  0  0  0  0
 14 29  2  0  0  0  0
 15 26  2  0  0  0  0
 15 27  1  0  0  0  0
 16 28  1  0  0  0  0
 17 28  1  0  0  0  0
 17 31  2  0  0  0  0
 17 32  1  0  0  0  0
 18 20  2  0  0  0  0
 18 37  1  0  0  0  0
 19 21  2  0  0  0  0
 19 38  1  0  0  0  0
 20 46  1  0  0  0  0
 21 39  1  0  0  0  0
 22 30  2  0  0  0  0
 22 59  1  0  0  0  0
 23 88  1  0  0  0  0
 24 89  1  0  0  0  0
 25 27  2  0  0  0  0
 25 88  1  0  0  0  0
 26 90  1  0  0  0  0
 27 91  1  0  0  0  0
 28 72  2  0  0  0  0
 29 61  1  0  0  0  0
 29 73  1  0  0  0  0
 30 60  1  0  0  0  0
 30 73  1  0  0  0  0
 31 74  1  0  0  0  0
 31 77  1  0  0  0  0
 32 78  1  0  0  0  0
 32 83  2  0  0  0  0
 33 47  1  0  0  0  0
 33 79  1  0  0  0  0
 33 84  2  0  0  0  0
 34 67  1  0  0  0  0
 34 75  1  0  0  0  0
 34 85  2  0  0  0  0
 35 68  1  0  0  0  0
 35 80  1  0  0  0  0
 35 86  2  0  0  0  0
 36 76  1  0  0  0  0
 36 81  1  0  0  0  0
 36 87  2  0  0  0  0
 37 40  1  0  0  0  0
 38 47  1  0  0  0  0
 39 75  1  0  0  0  0
 40 42  1  0  0  0  0
 41 43  1  0  0  0  0
 41 44  1  0  0  0  0
 42 46  1  0  0  0  0
 43 48  1  0  0  0  0
 44 76  1  0  0  0  0
 45 48  1  0  0  0  0
 45 76  1  0  0  0  0
 46 79  1  0  0  0  0
 47 75  1  0  0  0  0
 48 74  1  0  0  0  0
 49 68  1  0  0  0  0
 50 69  1  0  0  0  0
 51 69  1  0  0  0  0
 52 70  1  0  0  0  0
 53 70  1  0  0  0  0
 54 70  1  0  0  0  0
 55 71  1  0  0  0  0
 56 71  1  0  0  0  0
 57 73  1  0  0  0  0
 58 82  1  0  0  0  0
 59 62  1  0  0  0  0
 60 63  1  0  0  0  0
 61 81  1  0  0  0  0
 62 64  1  0  0  0  0
 63 69  1  0  0  0  0
 64 71  1  0  0  0  0
 65 66  1  0  0  0  0
 65 71  1  0  0  0  0
 66 89  1  0  0  0  0
 67 70  1  0  0  0  0
 67 80  1  0  0  0  0
 68 82  1  0  0  0  0
 72 74  1  0  0  0  0
M  CHG  1  82   1
M  ISO  4  36 100  66 101  81 100  89 101
M  END
> <Batch ID>
0093

> <Smiles>
CNC(C)C(=O)NC(C(=O)N1Cc2cc([101O:1][101CH2:1]CC(C)(C)CCCc3cc(C[100NH:0][100C:0](=O)N4CCCC(n5nc(-c6ccc(Oc7ccc(F)cc7F)cc6)c(C(N)=O)c5N)C4)n(C)c3CCC(C)C)ccc2CC1C(=O)NC1CCCc2ccccc21)C(C)(C)C

> <Shape>
0.147

> <Color>
0.181

> <Negative vol penalty>
0.000

$$$$

  -OEChem-04052319163D

 81 89  0     1  0  0  0  0  0999 V2000
  -26.9910  -18.6470   27.1470 C   0  0  0  0  0  0  0  0  0  0  0  0
  -27.0572  -17.4797   26.3947 C   0  0  0  0  0  0  0  0  0  0  0  0
  -26.0923  -27.5969   19.1211 C   0  0  0  0  0  0  0  0  0  0  0  0
  -26.4405  -27.1649   21.4725 C   0  0  0  0  0  0  0  0  0  0  0  0
  -27.5030  -19.8350   26.6297 C   0  0  0  0  0  0  0  0  0  0  0  0
  -27.6460  -17.4975   25.1298 C   0  0  0  0  0  0  0  0  0  0  0  0
  -28.2386  -13.1631   22.8793 C   0  0  0  0  0  0  0  0  0  0  0  0
  -25.5354  -28.8375   19.4314 C   0  0  0  0  0  0  0  0  0  0  0  0
  -25.8836  -28.4055   21.7829 C   0  0  0  0  0  0  0  0  0  0  0  0
  -27.1727  -12.4365   22.3505 C   0  0  0  0  0  0  0  0  0  0  0  0
  -22.7950  -29.7584   22.0293 C   0  0  0  0  0  0  0  0  0  0  0  0
  -21.8700  -29.8109   23.0720 C   0  0  0  0  0  0  0  0  0  0  0  0
  -27.7983  -13.1455   20.1312 C   0  0  0  0  0  0  0  0  0  0  0  0
  -23.2969  -31.3570   24.2599 C   0  0  0  0  0  0  0  0  0  0  0  0
  -24.2246  -14.9195   20.4713 C   0  0  0  0  0  0  0  0  0  0  0  0
  -26.5449  -26.7606   20.1416 C   0  0  0  0  0  0  0  0  0  0  0  0
  -28.4751  -25.1940   19.5689 C   0  0  0  0  0  0  0  0  0  0  0  0
  -28.0870  -19.8692   25.3527 C   0  0  0  0  0  0  0  0  0  0  0  0
  -29.0872  -13.8964   22.0376 C   0  0  0  0  0  0  0  0  0  0  0  0
  -28.1899  -18.6816   24.6001 C   0  0  0  0  0  0  0  0  0  0  0  0
  -28.8757  -13.8785   20.6516 C   0  0  0  0  0  0  0  0  0  0  0  0
  -25.4311  -29.2418   20.7623 C   0  0  0  0  0  0  0  0  0  0  0  0
  -26.9507  -12.4299   20.9765 C   0  0  0  0  0  0  0  0  0  0  0  0
  -23.9710  -30.5051   22.1019 C   0  0  0  0  0  0  0  0  0  0  0  0
  -22.1209  -30.6103   24.1873 C   0  0  0  0  0  0  0  0  0  0  0  0
  -24.2219  -31.3044   23.2171 C   0  0  0  0  0  0  0  0  0  0  0  0
  -27.1197  -25.4787   19.8217 C   0  0  0  0  0  0  0  0  0  0  0  0
  -23.7356  -15.9216   21.2610 C   0  0  0  0  0  0  0  0  0  0  0  0
  -28.5014  -23.8439   19.3178 C   0  0  0  0  0  0  0  0  0  0  0  0
  -22.1329  -14.4181   20.9944 C   0  0  0  0  0  0  0  0  0  0  0  0
  -29.6089  -26.0716   19.5618 C   0  0  0  0  0  0  0  0  0  0  0  0
  -29.8266  -16.9721   21.7258 C   0  0  0  0  0  0  0  0  0  0  0  0
  -31.9852  -15.8352   19.5879 C   0  0  0  0  0  0  0  0  0  0  0  0
  -32.9014  -13.3456   17.4409 C   0  0  0  0  0  0  0  0  0  0  0  0
  -24.9443  -19.4545   21.0313 C   0  0  0  0  0  0  0  0  0  0  0  0
  -28.6323  -21.1806   24.8449 C   0  0  0  0  0  0  0  0  0  0  0  0
  -30.2486  -14.6535   22.6213 C   0  0  0  0  0  0  0  0  0  0  0  0
  -29.7701  -14.6328   19.7031 C   0  0  0  0  0  0  0  0  0  0  0  0
  -28.8317  -21.1959   23.3328 C   0  0  0  0  0  0  0  0  0  0  0  0
  -25.7762  -20.2984   17.6118 C   0  0  0  0  0  0  0  0  0  0  0  0
  -29.5968  -19.9553   22.8968 C   0  0  0  0  0  0  0  0  0  0  0  0
  -26.3480  -21.7077   17.7768 C   0  0  0  0  0  0  0  0  0  0  0  0
  -24.6043  -20.0628   18.5601 C   0  0  0  0  0  0  0  0  0  0  0  0
  -25.4879  -21.7118   20.1643 C   0  0  0  0  0  0  0  0  0  0  0  0
  -28.7983  -18.6834   23.2093 C   0  0  1  0  0  0  0  0  0  0  0  0
  -30.7415  -15.7803   21.7186 C   0  0  1  0  0  0  0  0  0  0  0  0
  -26.6905  -22.0047   19.2487 C   0  0  2  0  0  0  0  0  0  0  0  0
  -20.8242  -13.7253   21.0958 C   0  0  0  0  0  0  0  0  0  0  0  0
  -34.6975  -12.7170   15.8051 C   0  0  0  0  0  0  0  0  0  0  0  0
  -30.8171  -17.7906   17.5577 C   0  0  0  0  0  0  0  0  0  0  0  0
  -31.9561  -16.4858   15.7499 C   0  0  0  0  0  0  0  0  0  0  0  0
  -33.3111  -17.6102   17.5169 C   0  0  0  0  0  0  0  0  0  0  0  0
  -33.6302  -10.9322   18.9912 C   0  0  0  0  0  0  0  0  0  0  0  0
  -24.3541  -17.1552   21.7535 C   0  0  0  0  0  0  0  0  0  0  0  0
  -23.5249  -11.4785   20.3852 C   0  0  0  0  0  0  0  0  0  0  0  0
  -23.3078  -12.7262   19.5262 C   0  0  0  0  0  0  0  0  0  0  0  0
  -24.7550  -11.5682   21.2807 C   0  0  0  0  0  0  0  0  0  1  0  0
  -31.9727  -15.5478   18.1060 C   0  0  1  0  0  0  0  0  0  0  0  0
  -34.2195  -12.6185   17.2454 C   0  0  2  0  0  0  0  0  0  0  0  0
  -31.9961  -16.8459   17.2504 C   0  0  0  0  0  0  0  0  0  0  0  0
  -26.3414  -24.3964   19.7386 N   0  0  0  0  0  0  0  0  0  0  0  0
  -23.2120  -14.0026   20.3232 N   0  0  0  0  0  0  0  0  0  0  0  0
  -27.2104  -23.4186   19.4307 N   0  0  0  0  0  0  0  0  0  0  0  0
  -22.4396  -15.5854   21.5695 N   0  3  0  0  0  0  0  0  0  0  0  0
  -30.8884  -15.3630   20.3227 N   0  0  0  0  0  0  0  0  0  0  0  0
  -25.0018  -20.3452   19.9465 N   0  0  0  0  0  0  0  0  0  0  0  0
  -29.5025  -22.9910   19.0136 N   0  0  0  0  0  0  0  0  0  0  0  0
  -29.4044  -27.4297   19.8408 N   0  0  0  0  0  0  0  0  0  0  0  0
  -29.6384  -17.5294   22.9761 N   0  0  0  0  0  0  0  0  0  0  0  0
  -33.0924  -14.6468   17.8554 N   0  0  0  0  0  0  0  0  0  0  0  0
  -24.4658  -18.1825   20.7420 N   0  0  0  0  0  0  0  0  0  0  0  0
  -34.0728  -11.1771   17.5944 N   0  3  0  0  0  0  0  0  0  0  0  0
  -30.7666  -25.6663   19.2991 O   0  0  0  0  0  0  0  0  0  0  0  0
  -29.3295  -17.3585   20.6744 O   0  0  0  0  0  0  0  0  0  0  0  0
  -32.9366  -16.4495   20.0768 O   0  0  0  0  0  0  0  0  0  0  0  0
  -31.8114  -12.8137   17.2421 O   0  0  0  0  0  0  0  0  0  0  0  0
  -25.2985  -19.7680   22.1730 O   0  0  0  0  0  0  0  0  0  0  0  0
  -24.8879  -30.4525   21.0655 O   0  0  0  0  0  0  0  0  0  0  0  0
  -25.9106  -11.7220   20.4578 O   0  0  0  0  0  0  0  0  0  1  0  0
  -21.2319  -30.6618   25.1879 F   0  0  0  0  0  0  0  0  0  0  0  0
  -25.3493  -32.0249   23.2920 F   0  0  0  0  0  0  0  0  0  0  0  0
  1  2  1  0  0  0  0
  1  5  2  0  0  0  0
  2  6  2  0  0  0  0
  3  8  2  0  0  0  0
  3 16  1  0  0  0  0
  4  9  1  0  0  0  0
  4 16  2  0  0  0  0
  5 18  1  0  0  0  0
  6 20  1  0  0  0  0
  7 10  2  0  0  0  0
  7 19  1  0  0  0  0
  8 22  1  0  0  0  0
  9 22  2  0  0  0  0
 10 23  1  0  0  0  0
 11 12  2  0  0  0  0
 11 24  1  0  0  0  0
 12 25  1  0  0  0  0
 13 21  1  0  0  0  0
 13 23  2  0  0  0  0
 14 25  2  0  0  0  0
 14 26  1  0  0  0  0
 15 28  2  0  0  0  0
 15 62  1  0  0  0  0
 16 27  1  0  0  0  0
 17 27  1  0  0  0  0
 17 29  2  0  0  0  0
 17 31  1  0  0  0  0
 18 20  2  0  0  0  0
 18 36  1  0  0  0  0
 19 21  2  0  0  0  0
 19 37  1  0  0  0  0
 20 45  1  0  0  0  0
 21 38  1  0  0  0  0
 22 78  1  0  0  0  0
 23 79  1  0  0  0  0
 24 26  2  0  0  0  0
 24 78  1  0  0  0  0
 25 80  1  0  0  0  0
 26 81  1  0  0  0  0
 27 61  2  0  0  0  0
 28 54  1  0  0  0  0
 28 64  1  0  0  0  0
 29 63  1  0  0  0  0
 29 67  1  0  0  0  0
 30 48  1  0  0  0  0
 30 62  1  0  0  0  0
 30 64  2  0  0  0  0
 31 68  1  0  0  0  0
 31 73  2  0  0  0  0
 32 46  1  0  0  0  0
 32 69  1  0  0  0  0
 32 74  2  0  0  0  0
 33 58  1  0  0  0  0
 33 65  1  0  0  0  0
 33 75  2  0  0  0  0
 34 59  1  0  0  0  0
 34 70  1  0  0  0  0
 34 76  2  0  0  0  0
 35 66  1  0  0  0  0
 35 71  1  0  0  0  0
 35 77  2  0  0  0  0
 36 39  1  0  0  0  0
 37 46  1  0  0  0  0
 38 65  1  0  0  0  0
 39 41  1  0  0  0  0
 40 42  1  0  0  0  0
 40 43  1  0  0  0  0
 41 45  1  0  0  0  0
 42 47  1  0  0  0  0
 43 66  1  0  0  0  0
 44 47  1  0  0  0  0
 44 66  1  0  0  0  0
 45 69  1  0  0  0  0
 46 65  1  0  0  0  0
 47 63  1  0  0  0  0
 49 59  1  0  0  0  0
 50 60  1  0  0  0  0
 51 60  1  0  0  0  0
 52 60  1  0  0  0  0
 53 72  1  0  0  0  0
 54 71  1  0  0  0  0
 55 56  1  0  0  0  0
 55 57  1  0  0  0  0
 56 62  1  0  0  0  0
 57 79  1  0  0  0  0
 58 60  1  0  0  0  0
 58 70  1  0  0  0  0
 59 72  1  0  0  0  0
 61 63  1  0  0  0  0
M  CHG  2  64   1  72   1
M  ISO  4  35 100  57 101  71 100  79 101
M  END
> <Batch ID>
0093

> <Smiles>
CNC(C)C(=O)NC(C(=O)N1Cc2cc([101O:1][101CH2:1]CCn3cc(C[100NH:0][100C:0](=O)N4CCCC(n5nc(-c6ccc(Oc7ccc(F)cc7F)cc6)c(C(N)=O)c5N)C4)nc3C)ccc2CC1C(=O)NC1CCCc2ccccc21)C(C)(C)C

> <Shape>
0.210

> <Color>
0.070

> <Negative vol penalty>
0.000

$$$$

  -OEChem-04052319163D

 90 98  0     1  0  0  0  0  0999 V2000
  -26.2905  -31.5106   17.0620 C   0  0  0  0  0  0  0  0  0  0  0  0
  -26.6165  -30.5182   17.9809 C   0  0  0  0  0  0  0  0  0  0  0  0
  -23.0501   -9.9148   19.9157 C   0  0  0  0  0  0  0  0  0  0  0  0
  -24.0470   -9.7491   22.1101 C   0  0  0  0  0  0  0  0  0  0  0  0
  -25.3017  -32.4447   17.3680 C   0  0  0  0  0  0  0  0  0  0  0  0
  -25.9547  -30.4601   19.2069 C   0  0  0  0  0  0  0  0  0  0  0  0
  -24.5637  -25.7502   20.4424 C   0  0  0  0  0  0  0  0  0  0  0  0
  -22.3578   -8.7249   20.1403 C   0  0  0  0  0  0  0  0  0  0  0  0
  -23.3547   -8.5592   22.3348 C   0  0  0  0  0  0  0  0  0  0  0  0
  -25.5525  -24.9052   20.9444 C   0  0  0  0  0  0  0  0  0  0  0  0
  -20.2230   -7.6261   23.1964 C   0  0  0  0  0  0  0  0  0  0  0  0
  -19.5944   -7.4671   24.4314 C   0  0  0  0  0  0  0  0  0  0  0  0
  -26.0550  -18.2837   18.0736 C   0  0  0  0  0  0  0  0  0  0  0  0
  -26.1775  -19.2382   19.1132 C   0  0  0  0  0  0  0  0  0  0  0  0
  -24.7681  -25.3287   23.1859 C   0  0  0  0  0  0  0  0  0  0  0  0
  -20.9415   -5.5089   24.8649 C   0  0  0  0  0  0  0  0  0  0  0  0
  -23.8948  -10.4269   20.9006 C   0  0  0  0  0  0  0  0  0  0  0  0
  -24.1761  -12.9615   20.9651 C   0  0  0  0  0  0  0  0  0  0  0  0
  -24.6206  -32.3922   18.5944 C   0  0  0  0  0  0  0  0  0  0  0  0
  -23.6750  -26.4004   21.3107 C   0  0  0  0  0  0  0  0  0  0  0  0
  -24.9568  -31.3952   19.5301 C   0  0  0  0  0  0  0  0  0  0  0  0
  -23.7672  -26.1794   22.6922 C   0  0  0  0  0  0  0  0  0  0  0  0
  -22.5101   -8.0471   21.3499 C   0  0  0  0  0  0  0  0  0  0  0  0
  -25.6567  -24.6966   22.3165 C   0  0  0  0  0  0  0  0  0  0  0  0
  -21.2108   -6.7265   22.7956 C   0  0  0  0  0  0  0  0  0  0  0  0
  -19.9537   -6.4085   25.2657 C   0  0  0  0  0  0  0  0  0  0  0  0
  -21.5701   -5.6679   23.6299 C   0  0  0  0  0  0  0  0  0  0  0  0
  -24.6106  -11.6557   20.6689 C   0  0  0  0  0  0  0  0  0  0  0  0
  -27.1674  -17.4732   18.1261 C   0  0  0  0  0  0  0  0  0  0  0  0
  -27.3613  -18.9820   19.7694 C   0  0  0  0  0  0  0  0  0  0  0  0
  -25.2101  -13.7683   20.5572 C   0  0  0  0  0  0  0  0  0  0  0  0
  -22.9476  -13.4055   21.5563 C   0  0  0  0  0  0  0  0  0  0  0  0
  -23.0288  -29.4356   21.9990 C   0  0  0  0  0  0  0  0  0  0  0  0
  -20.6550  -28.1205   23.7762 C   0  0  0  0  0  0  0  0  0  0  0  0
  -19.4663  -25.4049   25.4671 C   0  0  0  0  0  0  0  0  0  0  0  0
  -30.8361  -14.5784   20.6518 C   0  0  0  0  0  0  0  0  0  0  0  0
  -23.5923  -33.4523   18.8997 C   0  0  0  0  0  0  0  0  0  0  0  0
  -22.5969  -27.2878   20.7515 C   0  0  0  0  0  0  0  0  0  0  0  0
  -22.8248  -26.8378   23.6653 C   0  0  0  0  0  0  0  0  0  0  0  0
  -22.6768  -33.0945   20.0677 C   0  0  0  0  0  0  0  0  0  0  0  0
  -29.3239  -12.7443   17.8144 C   0  0  0  0  0  0  0  0  0  0  0  0
  -23.4927  -32.5653   21.2428 C   0  0  0  0  0  0  0  0  0  0  0  0
  -27.9551  -12.3483   18.3654 C   0  0  0  0  0  0  0  0  0  0  0  0
  -30.3633  -12.8819   18.9227 C   0  0  0  0  0  0  0  0  0  0  0  0
  -28.5927  -13.4153   20.5643 C   0  0  0  0  0  0  0  0  0  0  0  0
  -24.2440  -31.2843   20.8604 C   0  0  1  0  0  0  0  0  0  0  0  0
  -22.0721  -28.3010   21.7640 C   0  0  1  0  0  0  0  0  0  0  0  0
  -27.5113  -13.3137   19.4781 C   0  0  2  0  0  0  0  0  0  0  0  0
  -17.5152  -24.6446   26.8500 C   0  0  0  0  0  0  0  0  0  0  0  0
  -28.5721  -18.0503   13.9077 C   0  0  0  0  0  0  0  0  0  0  0  0
  -26.3409  -17.1214   14.5551 C   0  0  0  0  0  0  0  0  0  0  0  0
  -30.3879  -20.7047   22.5937 C   0  0  0  0  0  0  0  0  0  0  0  0
  -21.7197  -29.7143   26.1502 C   0  0  0  0  0  0  0  0  0  0  0  0
  -20.3827  -28.2287   27.6580 C   0  0  0  0  0  0  0  0  0  0  0  0
  -19.2262  -29.6537   25.9685 C   0  0  0  0  0  0  0  0  0  0  0  0
  -31.3217  -16.6903   21.8281 C   0  0  0  0  0  0  0  0  0  0  0  0
  -18.7808  -23.2697   23.5358 C   0  0  0  0  0  0  0  0  0  0  0  0
  -27.5423  -16.3239   17.2766 C   0  0  0  0  0  0  0  0  0  0  0  0
  -27.9851  -19.6874   20.9478 C   0  0  0  0  0  0  0  0  0  0  0  0
  -28.3767  -16.7456   16.0461 C   0  0  0  0  0  0  0  0  0  0  0  0
  -28.9155  -20.8458   20.5621 C   0  0  0  0  0  0  0  0  0  0  0  0
  -28.4730  -22.3635   22.6175 C   0  0  0  0  0  0  0  0  0  0  0  0
  -29.2192  -17.3200   19.5506 C   0  0  0  0  0  0  0  0  0  0  0  0
  -29.1057  -16.4202   20.7785 C   0  0  0  0  0  0  0  0  0  0  0  0
  -27.4929  -23.2549   21.8632 C   0  0  0  0  0  0  0  0  0  1  0  0
  -20.5308  -27.6296   25.1983 C   0  0  1  0  0  0  0  0  0  0  0  0
  -18.1097  -24.7238   25.4525 C   0  0  2  0  0  0  0  0  0  0  0  0
  -27.6531  -17.7040   15.0819 C   0  0  0  0  0  0  0  0  0  0  0  0
  -29.5138  -21.6361   21.7455 C   0  0  1  0  0  0  0  0  0  0  0  0
  -20.4840  -28.7955   26.2258 C   0  0  0  0  0  0  0  0  0  0  0  0
  -25.8259  -11.6298   20.1154 N   0  0  0  0  0  0  0  0  0  0  0  0
  -27.9547  -17.9072   19.1606 N   0  0  0  0  0  0  0  0  0  0  0  0
  -26.1638  -12.9294   20.0605 N   0  0  0  0  0  0  0  0  0  0  0  0
  -21.7916  -27.7015   23.0702 N   0  0  0  0  0  0  0  0  0  0  0  0
  -29.8981  -13.7709   19.9878 N   0  0  0  0  0  0  0  0  0  0  0  0
  -25.3874  -15.1064   20.5785 N   0  0  0  0  0  0  0  0  0  0  0  0
  -21.9935  -12.4440   21.9163 N   0  0  0  0  0  0  0  0  0  0  0  0
  -23.3435  -30.1514   20.8597 N   0  0  0  0  0  0  0  0  0  0  0  0
  -19.3605  -26.7589   25.2288 N   0  0  0  0  0  0  0  0  0  0  0  0
  -30.3838  -15.8127   21.1425 N   0  0  0  0  0  0  0  0  0  0  0  0
  -18.2309  -23.3395   24.9141 N   0  3  0  0  0  0  0  0  0  0  0  0
  -22.6964  -14.6200   21.7441 O   0  0  0  0  0  0  0  0  0  0  0  0
  -23.4492  -29.6469   23.1306 O   0  0  0  0  0  0  0  0  0  0  0  0
  -19.7725  -28.8432   23.3066 O   0  0  0  0  0  0  0  0  0  0  0  0
  -20.5145  -24.7973   25.6732 O   0  0  0  0  0  0  0  0  0  0  0  0
  -32.0131  -14.2210   20.7893 O   0  0  0  0  0  0  0  0  0  0  0  0
  -21.8345   -6.8861   21.5695 O   0  0  0  0  0  0  0  0  0  0  0  0
  -26.6214  -23.8729   22.8092 O   0  0  0  0  0  0  0  0  0  1  0  0
  -19.3511   -6.2568   26.4523 F   0  0  0  0  0  0  0  0  0  0  0  0
  -22.5192   -4.8011   23.2508 F   0  0  0  0  0  0  0  0  0  0  0  0
  1  2  1  0  0  0  0
  1  5  2  0  0  0  0
  2  6  2  0  0  0  0
  3  8  2  0  0  0  0
  3 17  1  0  0  0  0
  4  9  1  0  0  0  0
  4 17  2  0  0  0  0
  5 19  1  0  0  0  0
  6 21  1  0  0  0  0
  7 10  2  0  0  0  0
  7 20  1  0  0  0  0
  8 23  1  0  0  0  0
  9 23  2  0  0  0  0
 10 24  1  0  0  0  0
 11 12  2  0  0  0  0
 11 25  1  0  0  0  0
 12 26  1  0  0  0  0
 13 14  1  0  0  0  0
 13 29  2  0  0  0  0
 14 30  2  0  0  0  0
 15 22  1  0  0  0  0
 15 24  2  0  0  0  0
 16 26  2  0  0  0  0
 16 27  1  0  0  0  0
 17 28  1  0  0  0  0
 18 28  1  0  0  0  0
 18 31  2  0  0  0  0
 18 32  1  0  0  0  0
 19 21  2  0  0  0  0
 19 37  1  0  0  0  0
 20 22  2  0  0  0  0
 20 38  1  0  0  0  0
 21 46  1  0  0  0  0
 22 39  1  0  0  0  0
 23 87  1  0  0  0  0
 24 88  1  0  0  0  0
 25 27  2  0  0  0  0
 25 87  1  0  0  0  0
 26 89  1  0  0  0  0
 27 90  1  0  0  0  0
 28 71  2  0  0  0  0
 29 58  1  0  0  0  0
 29 72  1  0  0  0  0
 30 59  1  0  0  0  0
 30 72  1  0  0  0  0
 31 73  1  0  0  0  0
 31 76  1  0  0  0  0
 32 77  1  0  0  0  0
 32 82  2  0  0  0  0
 33 47  1  0  0  0  0
 33 78  1  0  0  0  0
 33 83  2  0  0  0  0
 34 66  1  0  0  0  0
 34 74  1  0  0  0  0
 34 84  2  0  0  0  0
 35 67  1  0  0  0  0
 35 79  1  0  0  0  0
 35 85  2  0  0  0  0
 36 75  1  0  0  0  0
 36 80  1  0  0  0  0
 36 86  2  0  0  0  0
 37 40  1  0  0  0  0
 38 47  1  0  0  0  0
 39 74  1  0  0  0  0
 40 42  1  0  0  0  0
 41 43  1  0  0  0  0
 41 44  1  0  0  0  0
 42 46  1  0  0  0  0
 43 48  1  0  0  0  0
 44 75  1  0  0  0  0
 45 48  1  0  0  0  0
 45 75  1  0  0  0  0
 46 78  1  0  0  0  0
 47 74  1  0  0  0  0
 48 73  1  0  0  0  0
 49 67  1  0  0  0  0
 50 68  1  0  0  0  0
 51 68  1  0  0  0  0
 52 69  1  0  0  0  0
 53 70  1  0  0  0  0
 54 70  1  0  0  0  0
 55 70  1  0  0  0  0
 56 80  1  0  0  0  0
 57 81  1  0  0  0  0
 58 60  1  0  0  0  0
 59 61  1  0  0  0  0
 60 68  1  0  0  0  0
 61 69  1  0  0  0  0
 62 65  1  0  0  0  0
 62 69  1  0  0  0  0
 63 64  1  0  0  0  0
 63 72  1  0  0  0  0
 64 80  1  0  0  0  0
 65 88  1  0  0  0  0
 66 70  1  0  0  0  0
 66 79  1  0  0  0  0
 67 81  1  0  0  0  0
 71 73  1  0  0  0  0
M  CHG  1  81   1
M  ISO  4  36 100  65 101  80 100  88 101
M  END
> <Batch ID>
0093

> <Smiles>
CNC(C)C(=O)NC(C(=O)N1Cc2cc([101O:1][101CH2:1]CC(C)CCc3ccc(CCC(C)C)n3CC[100N:0](C)[100C:0](=O)N3CCCC(n4nc(-c5ccc(Oc6ccc(F)cc6F)cc5)c(C(N)=O)c4N)C3)ccc2CC1C(=O)NC1CCCc2ccccc21)C(C)(C)C

> <Shape>
0.281

> <Color>
0.180

> <Negative vol penalty>
0.000

$$$$

  -OEChem-04052319163D

 83 91  0     1  0  0  0  0  0999 V2000
  -27.6871  -30.9007   28.9603 C   0  0  0  0  0  0  0  0  0  0  0  0
  -28.0466  -29.9746   27.9864 C   0  0  0  0  0  0  0  0  0  0  0  0
  -23.0760   -9.8677   19.9443 C   0  0  0  0  0  0  0  0  0  0  0  0
  -23.8356   -9.8803   22.2378 C   0  0  0  0  0  0  0  0  0  0  0  0
  -26.4116  -30.8605   29.5218 C   0  0  0  0  0  0  0  0  0  0  0  0
  -27.1310  -29.0070   27.5742 C   0  0  0  0  0  0  0  0  0  0  0  0
  -26.5175  -26.6812   21.9421 C   0  0  0  0  0  0  0  0  0  0  0  0
  -28.2427  -21.7481   18.2229 C   0  0  0  0  0  0  0  0  0  0  0  0
  -28.5173  -20.5019   17.6599 C   0  0  0  0  0  0  0  0  0  0  0  0
  -22.3329   -8.7145   20.1967 C   0  0  0  0  0  0  0  0  0  0  0  0
  -23.0924   -8.7271   22.4902 C   0  0  0  0  0  0  0  0  0  0  0  0
  -26.9797  -25.5024   21.3586 C   0  0  0  0  0  0  0  0  0  0  0  0
  -19.8648   -7.9284   23.0940 C   0  0  0  0  0  0  0  0  0  0  0  0
  -19.1077   -7.8905   24.2648 C   0  0  0  0  0  0  0  0  0  0  0  0
  -24.8620  -24.4468   21.8282 C   0  0  0  0  0  0  0  0  0  0  0  0
  -28.4843  -20.8029   20.4332 C   0  0  0  0  0  0  0  0  0  0  0  0
  -20.3503   -5.9555   25.0058 C   0  0  0  0  0  0  0  0  0  0  0  0
  -23.8274  -10.4505   20.9648 C   0  0  0  0  0  0  0  0  0  0  0  0
  -24.1674  -12.9756   20.8393 C   0  0  0  0  0  0  0  0  0  0  0  0
  -25.4766  -29.8980   29.1094 C   0  0  0  0  0  0  0  0  0  0  0  0
  -25.2258  -26.7485   22.4837 C   0  0  0  0  0  0  0  0  0  0  0  0
  -25.8422  -28.9530   28.1317 C   0  0  0  0  0  0  0  0  0  0  0  0
  -24.3849  -25.6284   22.4157 C   0  0  0  0  0  0  0  0  0  0  0  0
  -28.2263  -21.8987   19.6096 C   0  0  0  0  0  0  0  0  0  0  0  0
  -28.7753  -19.4061   18.4835 C   0  0  0  0  0  0  0  0  0  0  0  0
  -28.7588  -19.5566   19.8702 C   0  0  0  0  0  0  0  0  0  0  0  0
  -22.3411   -8.1443   21.4696 C   0  0  0  0  0  0  0  0  0  0  0  0
  -26.1530  -24.3840   21.3042 C   0  0  0  0  0  0  0  0  0  0  0  0
  -20.8646   -6.9798   22.8789 C   0  0  0  0  0  0  0  0  0  0  0  0
  -19.3504   -6.9041   25.2208 C   0  0  0  0  0  0  0  0  0  0  0  0
  -21.1074   -5.9934   23.8348 C   0  0  0  0  0  0  0  0  0  0  0  0
  -24.5957  -11.6414   20.7046 C   0  0  0  0  0  0  0  0  0  0  0  0
  -25.2591  -13.7251   20.4745 C   0  0  0  0  0  0  0  0  0  0  0  0
  -22.8965  -13.4915   21.2569 C   0  0  0  0  0  0  0  0  0  0  0  0
  -24.0338  -27.2701   25.3839 C   0  0  0  0  0  0  0  0  0  0  0  0
  -21.2026  -27.2355   23.8010 C   0  0  0  0  0  0  0  0  0  0  0  0
  -19.4194  -26.2159   21.0757 C   0  0  0  0  0  0  0  0  0  0  0  0
  -30.7421  -14.7485   20.6614 C   0  0  0  0  0  0  0  0  0  0  0  0
  -24.1258  -29.8643   29.7792 C   0  0  0  0  0  0  0  0  0  0  0  0
  -24.7327  -28.0357   23.0857 C   0  0  0  0  0  0  0  0  0  0  0  0
  -22.9826  -25.6551   22.9646 C   0  0  0  0  0  0  0  0  0  0  0  0
  -23.0888  -29.0422   29.0182 C   0  0  0  0  0  0  0  0  0  0  0  0
  -29.6066  -12.3579   18.2798 C   0  0  0  0  0  0  0  0  0  0  0  0
  -23.6800  -27.7033   28.5884 C   0  0  0  0  0  0  0  0  0  0  0  0
  -28.1693  -12.0641   18.7131 C   0  0  0  0  0  0  0  0  0  0  0  0
  -30.5234  -12.5820   19.4803 C   0  0  0  0  0  0  0  0  0  0  0  0
  -28.6209  -13.3148   20.8650 C   0  0  0  0  0  0  0  0  0  0  0  0
  -24.8686  -27.9038   27.6405 C   0  0  1  0  0  0  0  0  0  0  0  0
  -23.5818  -27.8343   24.0667 C   0  0  1  0  0  0  0  0  0  0  0  0
  -27.6470  -13.1369   19.6876 C   0  0  2  0  0  0  0  0  0  0  0  0
  -27.8034  -17.3949   17.3447 C   0  0  0  0  0  0  0  0  0  0  0  0
  -17.1177  -26.3090   20.0802 C   0  0  0  0  0  0  0  0  0  0  0  0
  -20.2602  -25.1207   25.7883 C   0  0  0  0  0  0  0  0  0  0  0  0
  -18.3877  -24.5788   24.2172 C   0  0  0  0  0  0  0  0  0  0  0  0
  -18.5506  -26.8560   25.2225 C   0  0  0  0  0  0  0  0  0  0  0  0
  -20.3893  -27.6509   18.6758 C   0  0  0  0  0  0  0  0  0  0  0  0
  -29.0656  -18.0814   17.8578 C   0  0  0  0  0  0  0  0  0  0  0  0
  -29.0318  -18.3976   20.7718 C   0  0  0  0  0  0  0  0  0  0  0  0
  -27.9304  -23.2393   20.2150 C   0  0  0  0  0  0  0  0  0  1  0  0
  -30.5250  -18.0536   20.9310 C   0  0  0  0  0  0  0  0  0  0  0  0
  -30.8062  -16.9018   21.8936 C   0  0  0  0  0  0  0  0  0  0  0  0
  -20.1977  -26.1714   23.4308 C   0  0  1  0  0  0  0  0  0  0  0  0
  -18.4869  -26.9679   20.1432 C   0  0  2  0  0  0  0  0  0  0  0  0
  -19.3761  -25.6803   24.6560 C   0  0  0  0  0  0  0  0  0  0  0  0
  -25.8607  -11.5455   20.2867 N   0  0  0  0  0  0  0  0  0  0  0  0
  -26.2367  -12.8291   20.1556 N   0  0  0  0  0  0  0  0  0  0  0  0
  -22.5487  -26.9349   23.5489 N   0  0  0  0  0  0  0  0  0  0  0  0
  -29.9719  -13.6121   20.3639 N   0  0  0  0  0  0  0  0  0  0  0  0
  -25.4686  -15.0565   20.3986 N   0  0  0  0  0  0  0  0  0  0  0  0
  -21.8852  -12.5823   21.5960 N   0  0  0  0  0  0  0  0  0  0  0  0
  -24.4039  -28.2278   26.3088 N   0  0  0  0  0  0  0  0  0  0  0  0
  -19.3881  -26.7315   22.3541 N   0  0  0  0  0  0  0  0  0  0  0  0
  -30.1421  -15.6787   21.5013 N   0  0  0  0  0  0  0  0  0  0  0  0
  -19.0533  -27.0073   18.7653 N   0  3  0  0  0  0  0  0  0  0  0  0
  -22.6594  -14.7220   21.3114 O   0  0  0  0  0  0  0  0  0  0  0  0
  -24.0446  -26.0560   25.5494 O   0  0  0  0  0  0  0  0  0  0  0  0
  -20.8072  -28.2971   24.2890 O   0  0  0  0  0  0  0  0  0  0  0  0
  -20.1040  -25.2639   20.7077 O   0  0  0  0  0  0  0  0  0  0  0  0
  -31.8780  -14.9237   20.2076 O   0  0  0  0  0  0  0  0  0  0  0  0
  -21.6159   -7.0192   21.7163 O   0  0  0  0  0  0  0  0  0  0  0  0
  -26.6018  -23.2319   20.7358 O   0  0  0  0  0  0  0  0  0  1  0  0
  -18.6244   -6.8688   26.3458 F   0  0  0  0  0  0  0  0  0  0  0  0
  -22.0674   -5.0802   23.6344 F   0  0  0  0  0  0  0  0  0  0  0  0
  1  2  1  0  0  0  0
  1  5  2  0  0  0  0
  2  6  2  0  0  0  0
  3 10  2  0  0  0  0
  3 18  1  0  0  0  0
  4 11  1  0  0  0  0
  4 18  2  0  0  0  0
  5 20  1  0  0  0  0
  6 22  1  0  0  0  0
  7 12  2  0  0  0  0
  7 21  1  0  0  0  0
  8  9  2  0  0  0  0
  8 24  1  0  0  0  0
  9 25  1  0  0  0  0
 10 27  1  0  0  0  0
 11 27  2  0  0  0  0
 12 28  1  0  0  0  0
 13 14  2  0  0  0  0
 13 29  1  0  0  0  0
 14 30  1  0  0  0  0
 15 23  1  0  0  0  0
 15 28  2  0  0  0  0
 16 24  2  0  0  0  0
 16 26  1  0  0  0  0
 17 30  2  0  0  0  0
 17 31  1  0  0  0  0
 18 32  1  0  0  0  0
 19 32  1  0  0  0  0
 19 33  2  0  0  0  0
 19 34  1  0  0  0  0
 20 22  2  0  0  0  0
 20 39  1  0  0  0  0
 21 23  2  0  0  0  0
 21 40  1  0  0  0  0
 22 48  1  0  0  0  0
 23 41  1  0  0  0  0
 24 59  1  0  0  0  0
 25 26  2  0  0  0  0
 25 57  1  0  0  0  0
 26 58  1  0  0  0  0
 27 80  1  0  0  0  0
 28 81  1  0  0  0  0
 29 31  2  0  0  0  0
 29 80  1  0  0  0  0
 30 82  1  0  0  0  0
 31 83  1  0  0  0  0
 32 65  2  0  0  0  0
 33 66  1  0  0  0  0
 33 69  1  0  0  0  0
 34 70  1  0  0  0  0
 34 75  2  0  0  0  0
 35 49  1  0  0  0  0
 35 71  1  0  0  0  0
 35 76  2  0  0  0  0
 36 62  1  0  0  0  0
 36 67  1  0  0  0  0
 36 77  2  0  0  0  0
 37 63  1  0  0  0  0
 37 72  1  0  0  0  0
 37 78  2  0  0  0  0
 38 68  1  0  0  0  0
 38 73  1  0  0  0  0
 38 79  2  0  0  0  0
 39 42  1  0  0  0  0
 40 49  1  0  0  0  0
 41 67  1  0  0  0  0
 42 44  1  0  0  0  0
 43 45  1  0  0  0  0
 43 46  1  0  0  0  0
 44 48  1  0  0  0  0
 45 50  1  0  0  0  0
 46 68  1  0  0  0  0
 47 50  1  0  0  0  0
 47 68  1  0  0  0  0
 48 71  1  0  0  0  0
 49 67  1  0  0  0  0
 50 66  1  0  0  0  0
 51 57  1  0  0  0  0
 52 63  1  0  0  0  0
 53 64  1  0  0  0  0
 54 64  1  0  0  0  0
 55 64  1  0  0  0  0
 56 74  1  0  0  0  0
 58 60  1  0  0  0  0
 59 81  1  0  0  0  0
 60 61  1  0  0  0  0
 61 73  1  0  0  0  0
 62 64  1  0  0  0  0
 62 72  1  0  0  0  0
 63 74  1  0  0  0  0
 65 66  1  0  0  0  0
M  CHG  1  74   1
M  ISO  4  38 100  59 101  73 100  81 101
M  END
> <Batch ID>
0093

> <Smiles>
CCc1ccc([101CH2:1][101O:1]c2ccc3c(c2)CN(C(=O)C(NC(=O)C(C)NC)C(C)(C)C)C(C(=O)NC2CCCc4ccccc42)C3)cc1CCC[100NH:0][100C:0](=O)N1CCCC(n2nc(-c3ccc(Oc4ccc(F)cc4F)cc3)c(C(N)=O)c2N)C1

> <Shape>
0.272

> <Color>
0.196

> <Negative vol penalty>
0.000

$$$$

  -OEChem-04052319163D

 85 93  0     1  0  0  0  0  0999 V2000
  -25.8119  -35.4954   22.1559 C   0  0  0  0  0  0  0  0  0  0  0  0
  -26.3909  -34.2317   22.0980 C   0  0  0  0  0  0  0  0  0  0  0  0
  -24.8648  -13.9184   21.3063 C   0  0  0  0  0  0  0  0  0  0  0  0
  -25.6484  -13.8911   19.0211 C   0  0  0  0  0  0  0  0  0  0  0  0
  -24.5122  -35.6440   22.6380 C   0  0  0  0  0  0  0  0  0  0  0  0
  -25.6707  -33.1159   22.5232 C   0  0  0  0  0  0  0  0  0  0  0  0
  -26.0742  -29.2093   19.3263 C   0  0  0  0  0  0  0  0  0  0  0  0
  -24.1171  -12.7661   21.0637 C   0  0  0  0  0  0  0  0  0  0  0  0
  -24.9007  -12.7388   18.7784 C   0  0  0  0  0  0  0  0  0  0  0  0
  -27.2498  -28.4618   19.3796 C   0  0  0  0  0  0  0  0  0  0  0  0
  -24.6746   -9.4400   20.8208 C   0  0  0  0  0  0  0  0  0  0  0  0
  -24.7262   -8.4214   21.7724 C   0  0  0  0  0  0  0  0  0  0  0  0
  -26.1188  -26.7882   20.6983 C   0  0  0  0  0  0  0  0  0  0  0  0
  -22.3394   -8.6052   22.0985 C   0  0  0  0  0  0  0  0  0  0  0  0
  -28.2254  -23.8393   16.1380 C   0  0  0  0  0  0  0  0  0  0  0  0
  -30.1406  -22.7163   15.8455 C   0  0  0  0  0  0  0  0  0  0  0  0
  -25.6304  -14.4809   20.2850 C   0  0  0  0  0  0  0  0  0  0  0  0
  -27.7329  -15.7420   20.9900 C   0  0  0  0  0  0  0  0  0  0  0  0
  -23.7722  -34.5283   23.0603 C   0  0  0  0  0  0  0  0  0  0  0  0
  -24.9130  -28.7564   19.9689 C   0  0  0  0  0  0  0  0  0  0  0  0
  -24.3603  -33.2499   23.0127 C   0  0  0  0  0  0  0  0  0  0  0  0
  -24.9290  -27.5306   20.6496 C   0  0  0  0  0  0  0  0  0  0  0  0
  -27.8999  -22.5156   15.9405 C   0  0  0  0  0  0  0  0  0  0  0  0
  -29.1116  -21.8051   15.7553 C   0  0  0  0  0  0  0  0  0  0  0  0
  -24.1350  -12.1764   19.7998 C   0  0  0  0  0  0  0  0  0  0  0  0
  -27.2730  -27.2524   20.0681 C   0  0  0  0  0  0  0  0  0  0  0  0
  -23.4554  -10.0413   20.5082 C   0  0  0  0  0  0  0  0  0  0  0  0
  -23.5586   -8.0040   22.4112 C   0  0  0  0  0  0  0  0  0  0  0  0
  -22.2878   -9.6238   21.1470 C   0  0  0  0  0  0  0  0  0  0  0  0
  -26.4026  -15.6715   20.5349 C   0  0  0  0  0  0  0  0  0  0  0  0
  -27.9994  -17.0873   21.0645 C   0  0  0  0  0  0  0  0  0  0  0  0
  -28.6460  -14.6859   21.3162 C   0  0  0  0  0  0  0  0  0  0  0  0
  -23.0748  -29.8562   22.3174 C   0  0  0  0  0  0  0  0  0  0  0  0
  -21.2096  -27.3259   21.5169 C   0  0  0  0  0  0  0  0  0  0  0  0
  -20.9791  -24.2300   20.0995 C   0  0  0  0  0  0  0  0  0  0  0  0
  -25.7081  -21.8590   18.2659 C   0  0  0  0  0  0  0  0  0  0  0  0
  -22.3877  -34.7443   23.6181 C   0  0  0  0  0  0  0  0  0  0  0  0
  -23.6456  -29.5615   19.8795 C   0  0  0  0  0  0  0  0  0  0  0  0
  -23.7038  -26.9903   21.3390 C   0  0  0  0  0  0  0  0  0  0  0  0
  -21.5571  -33.4661   23.6984 C   0  0  0  0  0  0  0  0  0  0  0  0
  -25.8427  -21.2979   21.7792 C   0  0  0  0  0  0  0  0  0  0  0  0
  -22.3778  -32.3335   24.3072 C   0  0  0  0  0  0  0  0  0  0  0  0
  -26.1215  -19.7986   21.8998 C   0  0  0  0  0  0  0  0  0  0  0  0
  -24.9215  -21.6077   20.6014 C   0  0  0  0  0  0  0  0  0  0  0  0
  -25.6497  -19.5680   19.4253 C   0  0  0  0  0  0  0  0  0  0  0  0
  -23.6021  -32.0124   23.4415 C   0  0  1  0  0  0  0  0  0  0  0  0
  -22.6618  -29.2541   21.0042 C   0  0  1  0  0  0  0  0  0  0  0  0
  -26.6193  -19.2118   20.5652 C   0  0  2  0  0  0  0  0  0  0  0  0
  -30.0453  -19.6316   16.6257 C   0  0  0  0  0  0  0  0  0  0  0  0
  -29.9030  -20.0376   14.1417 C   0  0  0  0  0  0  0  0  0  0  0  0
  -19.3311  -22.3974   19.6274 C   0  0  0  0  0  0  0  0  0  0  0  0
  -30.9451  -25.0496   20.0937 C   0  0  0  0  0  0  0  0  0  0  0  0
  -21.3067  -26.4866   24.4488 C   0  0  0  0  0  0  0  0  0  0  0  0
  -20.4868  -24.2247   23.7562 C   0  0  0  0  0  0  0  0  0  0  0  0
  -19.0661  -26.2376   23.3661 C   0  0  0  0  0  0  0  0  0  0  0  0
  -21.3888  -24.4561   17.1772 C   0  0  0  0  0  0  0  0  0  0  0  0
  -26.5353  -21.9521   15.9279 C   0  0  0  0  0  0  0  0  0  0  0  0
  -31.0597  -25.3674   17.6092 C   0  0  0  0  0  0  0  0  0  0  0  0
  -30.3673  -25.2313   16.2460 C   0  0  0  0  0  0  0  0  0  0  0  0
  -29.3117  -26.6293   19.0138 C   0  0  0  0  0  0  0  0  0  1  0  0
  -29.2574  -20.3567   15.5101 C   0  0  0  0  0  0  0  0  0  0  0  0
  -21.1268  -25.8808   21.9455 C   0  0  1  0  0  0  0  0  0  0  0  0
  -20.0005  -23.6537   19.0922 C   0  0  2  0  0  0  0  0  0  0  0  0
  -30.1186  -25.3364   18.8336 C   0  0  2  0  0  0  0  0  0  0  0  0
  -20.5204  -25.7183   23.3679 C   0  0  0  0  0  0  0  0  0  0  0  0
  -25.8616  -16.8761   20.3345 N   0  0  0  0  0  0  0  0  0  0  0  0
  -29.5901  -23.9496   16.0785 N   0  0  0  0  0  0  0  0  0  0  0  0
  -26.8569  -17.7163   20.6653 N   0  0  0  0  0  0  0  0  0  0  0  0
  -22.4907  -27.8172   21.2284 N   0  0  0  0  0  0  0  0  0  0  0  0
  -25.4512  -21.0247   19.3663 N   0  0  0  0  0  0  0  0  0  0  0  0
  -29.0972  -17.7818   21.4319 N   0  0  0  0  0  0  0  0  0  0  0  0
  -28.2098  -13.3606   21.1832 N   0  0  0  0  0  0  0  0  0  0  0  0
  -23.2139  -31.2307   22.2871 N   0  0  0  0  0  0  0  0  0  0  0  0
  -20.3870  -25.1860   20.8975 N   0  0  0  0  0  0  0  0  0  0  0  0
  -26.2150  -21.2268   17.1371 N   0  0  0  0  0  0  0  0  0  0  0  0
  -20.7049  -23.3076   17.8253 N   0  3  0  0  0  0  0  0  0  0  0  0
  -29.8088  -14.9109   21.7295 O   0  0  0  0  0  0  0  0  0  0  0  0
  -23.2527  -29.1279   23.2868 O   0  0  0  0  0  0  0  0  0  0  0  0
  -20.1748  -27.9923   21.4341 O   0  0  0  0  0  0  0  0  0  0  0  0
  -22.1506  -23.8658   20.1737 O   0  0  0  0  0  0  0  0  0  0  0  0
  -25.5061  -23.0779   18.2895 O   0  0  0  0  0  0  0  0  0  0  0  0
  -23.4057  -11.0519   19.5627 O   0  0  0  0  0  0  0  0  0  0  0  0
  -28.4194  -26.5211   20.1222 O   0  0  0  0  0  0  0  0  0  1  0  0
  -23.6081   -7.0248   23.3238 F   0  0  0  0  0  0  0  0  0  0  0  0
  -21.1134  -10.1969   20.8499 F   0  0  0  0  0  0  0  0  0  0  0  0
  1  2  1  0  0  0  0
  1  5  2  0  0  0  0
  2  6  2  0  0  0  0
  3  8  2  0  0  0  0
  3 17  1  0  0  0  0
  4  9  1  0  0  0  0
  4 17  2  0  0  0  0
  5 19  1  0  0  0  0
  6 21  1  0  0  0  0
  7 10  2  0  0  0  0
  7 20  1  0  0  0  0
  8 25  1  0  0  0  0
  9 25  2  0  0  0  0
 10 26  1  0  0  0  0
 11 12  2  0  0  0  0
 11 27  1  0  0  0  0
 12 28  1  0  0  0  0
 13 22  1  0  0  0  0
 13 26  2  0  0  0  0
 14 28  2  0  0  0  0
 14 29  1  0  0  0  0
 15 23  2  0  0  0  0
 15 67  1  0  0  0  0
 16 24  2  0  0  0  0
 16 67  1  0  0  0  0
 17 30  1  0  0  0  0
 18 30  1  0  0  0  0
 18 31  2  0  0  0  0
 18 32  1  0  0  0  0
 19 21  2  0  0  0  0
 19 37  1  0  0  0  0
 20 22  2  0  0  0  0
 20 38  1  0  0  0  0
 21 46  1  0  0  0  0
 22 39  1  0  0  0  0
 23 24  1  0  0  0  0
 23 57  1  0  0  0  0
 24 61  1  0  0  0  0
 25 82  1  0  0  0  0
 26 83  1  0  0  0  0
 27 29  2  0  0  0  0
 27 82  1  0  0  0  0
 28 84  1  0  0  0  0
 29 85  1  0  0  0  0
 30 66  2  0  0  0  0
 31 68  1  0  0  0  0
 31 71  1  0  0  0  0
 32 72  1  0  0  0  0
 32 77  2  0  0  0  0
 33 47  1  0  0  0  0
 33 73  1  0  0  0  0
 33 78  2  0  0  0  0
 34 62  1  0  0  0  0
 34 69  1  0  0  0  0
 34 79  2  0  0  0  0
 35 63  1  0  0  0  0
 35 74  1  0  0  0  0
 35 80  2  0  0  0  0
 36 70  1  0  0  0  0
 36 75  1  0  0  0  0
 36 81  2  0  0  0  0
 37 40  1  0  0  0  0
 38 47  1  0  0  0  0
 39 69  1  0  0  0  0
 40 42  1  0  0  0  0
 41 43  1  0  0  0  0
 41 44  1  0  0  0  0
 42 46  1  0  0  0  0
 43 48  1  0  0  0  0
 44 70  1  0  0  0  0
 45 48  1  0  0  0  0
 45 70  1  0  0  0  0
 46 73  1  0  0  0  0
 47 69  1  0  0  0  0
 48 68  1  0  0  0  0
 49 61  1  0  0  0  0
 50 61  1  0  0  0  0
 51 63  1  0  0  0  0
 52 64  1  0  0  0  0
 53 65  1  0  0  0  0
 54 65  1  0  0  0  0
 55 65  1  0  0  0  0
 56 76  1  0  0  0  0
 57 75  1  0  0  0  0
 58 59  1  0  0  0  0
 58 64  1  0  0  0  0
 59 67  1  0  0  0  0
 60 64  1  0  0  0  0
 60 83  1  0  0  0  0
 62 65  1  0  0  0  0
 62 74  1  0  0  0  0
 63 76  1  0  0  0  0
 66 68  1  0  0  0  0
M  CHG  1  76   1
M  ISO  4  36 100  60 101  75 100  83 101
M  END
> <Batch ID>
0093

> <Smiles>
CNC(C)C(=O)NC(C(=O)N1Cc2cc([101O:1][101CH2:1]C(C)CCn3cc(C[100NH:0][100C:0](=O)N4CCCC(n5nc(-c6ccc(Oc7ccc(F)cc7F)cc6)c(C(N)=O)c5N)C4)c(C(C)C)c3)ccc2CC1C(=O)NC1CCCc2ccccc21)C(C)(C)C

> <Shape>
0.249

> <Color>
0.077

> <Negative vol penalty>
0.000

$$$$

  -OEChem-04052319163D

 87 95  0     1  0  0  0  0  0999 V2000
  -29.2375  -35.7775   21.1310 C   0  0  0  0  0  0  0  0  0  0  0  0
  -29.3238  -34.3894   21.1643 C   0  0  0  0  0  0  0  0  0  0  0  0
  -24.5383  -15.2948   19.5008 C   0  0  0  0  0  0  0  0  0  0  0  0
  -26.0107  -14.1501   21.0366 C   0  0  0  0  0  0  0  0  0  0  0  0
  -28.1934  -36.4259   21.7893 C   0  0  0  0  0  0  0  0  0  0  0  0
  -28.3665  -33.6489   21.8568 C   0  0  0  0  0  0  0  0  0  0  0  0
  -26.7516  -29.6276   19.2365 C   0  0  0  0  0  0  0  0  0  0  0  0
  -24.0012  -14.0705   19.1031 C   0  0  0  0  0  0  0  0  0  0  0  0
  -25.4735  -12.9257   20.6390 C   0  0  0  0  0  0  0  0  0  0  0  0
  -27.5846  -28.5101   19.2075 C   0  0  0  0  0  0  0  0  0  0  0  0
  -24.2378   -9.5244   20.2897 C   0  0  0  0  0  0  0  0  0  0  0  0
  -23.9159   -8.6024   21.2856 C   0  0  0  0  0  0  0  0  0  0  0  0
  -26.2398  -27.4708   20.9193 C   0  0  0  0  0  0  0  0  0  0  0  0
  -22.3675  -10.1859   22.2510 C   0  0  0  0  0  0  0  0  0  0  0  0
  -31.8786  -24.0755   23.3285 C   0  0  0  0  0  0  0  0  0  0  0  0
  -25.5431  -15.3346   20.4676 C   0  0  0  0  0  0  0  0  0  0  0  0
  -25.6488  -17.4251   21.9257 C   0  0  0  0  0  0  0  0  0  0  0  0
  -27.2175  -35.6925   22.4822 C   0  0  0  0  0  0  0  0  0  0  0  0
  -25.6609  -29.6798   20.1163 C   0  0  0  0  0  0  0  0  0  0  0  0
  -27.3091  -34.2882   22.5262 C   0  0  0  0  0  0  0  0  0  0  0  0
  -25.3929  -28.5890   20.9557 C   0  0  0  0  0  0  0  0  0  0  0  0
  -24.4688  -12.8860   19.6722 C   0  0  0  0  0  0  0  0  0  0  0  0
  -27.3305  -27.4326   20.0511 C   0  0  0  0  0  0  0  0  0  0  0  0
  -23.6247  -10.7772   20.2744 C   0  0  0  0  0  0  0  0  0  0  0  0
  -22.9807   -8.9332   22.2663 C   0  0  0  0  0  0  0  0  0  0  0  0
  -22.6895  -11.1079   21.2551 C   0  0  0  0  0  0  0  0  0  0  0  0
  -26.0987  -16.5990   20.8784 C   0  0  0  0  0  0  0  0  0  0  0  0
  -31.4187  -22.8979   23.8468 C   0  0  0  0  0  0  0  0  0  0  0  0
  -26.5045  -18.4993   21.9074 C   0  0  0  0  0  0  0  0  0  0  0  0
  -29.9545  -24.4817   24.3451 C   0  0  0  0  0  0  0  0  0  0  0  0
  -24.5553  -17.2382   22.8340 C   0  0  0  0  0  0  0  0  0  0  0  0
  -24.8260  -31.5520   22.5456 C   0  0  0  0  0  0  0  0  0  0  0  0
  -22.0857  -29.8200   22.4306 C   0  0  0  0  0  0  0  0  0  0  0  0
  -20.5266  -26.9202   21.5322 C   0  0  0  0  0  0  0  0  0  0  0  0
  -31.6573  -20.6112   21.5408 C   0  0  0  0  0  0  0  0  0  0  0  0
  -26.1340  -36.4402   23.2183 C   0  0  0  0  0  0  0  0  0  0  0  0
  -24.7561  -30.8813   20.1163 C   0  0  0  0  0  0  0  0  0  0  0  0
  -24.2229  -28.5870   21.9042 C   0  0  0  0  0  0  0  0  0  0  0  0
  -24.9501  -35.5622   23.6154 C   0  0  0  0  0  0  0  0  0  0  0  0
  -29.9646  -19.8945   18.4916 C   0  0  0  0  0  0  0  0  0  0  0  0
  -25.4378  -34.2596   24.2417 C   0  0  0  0  0  0  0  0  0  0  0  0
  -28.7751  -19.0366   18.9264 C   0  0  0  0  0  0  0  0  0  0  0  0
  -31.2091  -19.5977   19.3253 C   0  0  0  0  0  0  0  0  0  0  0  0
  -29.8260  -18.8393   21.2189 C   0  0  0  0  0  0  0  0  0  0  0  0
  -26.2760  -33.4487   23.2460 C   0  0  1  0  0  0  0  0  0  0  0  0
  -23.9753  -31.0414   21.4172 C   0  0  1  0  0  0  0  0  0  0  0  0
  -28.5323  -19.1427   20.4440 C   0  0  2  0  0  0  0  0  0  0  0  0
  -18.2911  -25.7822   21.6018 C   0  0  0  0  0  0  0  0  0  0  0  0
  -24.9300  -24.5387   24.3043 C   0  0  0  0  0  0  0  0  0  0  0  0
  -26.0965  -25.1530   26.4309 C   0  0  0  0  0  0  0  0  0  0  0  0
  -29.8149  -25.7868   18.3989 C   0  0  0  0  0  0  0  0  0  0  0  0
  -22.4795  -29.2334   25.3989 C   0  0  0  0  0  0  0  0  0  0  0  0
  -20.8120  -27.3785   25.1822 C   0  0  0  0  0  0  0  0  0  0  0  0
  -20.1198  -29.7336   24.7385 C   0  0  0  0  0  0  0  0  0  0  0  0
  -20.3895  -26.7540   18.5805 C   0  0  0  0  0  0  0  0  0  0  0  0
  -31.9777  -21.5439   23.8182 C   0  0  0  0  0  0  0  0  0  0  0  0
  -28.7540  -25.1667   24.8859 C   0  0  0  0  0  0  0  0  0  0  0  0
  -27.4422  -24.5601   24.3460 C   0  0  0  0  0  0  0  0  0  0  0  0
  -30.1365  -26.9013   22.1169 C   0  0  0  0  0  0  0  0  0  0  0  0
  -30.4213  -26.1176   20.8285 C   0  0  0  0  0  0  0  0  0  0  0  0
  -31.0517  -26.4960   23.2783 C   0  0  0  0  0  0  0  0  0  0  0  0
  -21.6010  -28.5421   23.0716 C   0  0  1  0  0  0  0  0  0  0  0  0
  -19.2277  -26.6631   20.7897 C   0  0  2  0  0  0  0  0  0  0  0  0
  -26.1651  -25.2152   24.9043 C   0  0  0  0  0  0  0  0  0  0  0  0
  -29.5095  -26.5562   19.6771 C   0  0  2  0  0  0  0  0  0  1  0  0
  -21.2763  -28.7224   24.5814 C   0  0  0  0  0  0  0  0  0  0  0  0
  -27.1578  -17.1050   20.2410 N   0  0  0  0  0  0  0  0  0  0  0  0
  -30.9528  -25.0382   23.6514 N   0  0  0  0  0  0  0  0  0  0  0  0
  -27.3805  -18.2608   20.8897 N   0  0  0  0  0  0  0  0  0  0  0  0
  -30.2270  -23.1788   24.4704 N   0  3  0  0  0  0  0  0  0  0  0  0
  -23.3711  -29.7873   21.8716 N   0  0  0  0  0  0  0  0  0  0  0  0
  -30.9117  -19.7172   20.7547 N   0  0  0  0  0  0  0  0  0  0  0  0
  -26.5855  -19.6153   22.6627 N   0  0  0  0  0  0  0  0  0  0  0  0
  -23.7777  -16.0783   22.7138 N   0  0  0  0  0  0  0  0  0  0  0  0
  -25.4187  -32.7748   22.2946 N   0  0  0  0  0  0  0  0  0  0  0  0
  -20.4723  -28.0850   22.2681 N   0  0  0  0  0  0  0  0  0  0  0  0
  -31.3066  -20.6675   22.8842 N   0  0  0  0  0  0  0  0  0  0  0  0
  -19.4993  -25.9872   19.4896 N   0  3  0  0  0  0  0  0  0  0  0  0
  -24.2659  -18.0827   23.7152 O   0  0  0  0  0  0  0  0  0  0  0  0
  -24.9354  -30.8866   23.5688 O   0  0  0  0  0  0  0  0  0  0  0  0
  -21.3481  -30.8087   22.4198 O   0  0  0  0  0  0  0  0  0  0  0  0
  -21.4915  -26.1616   21.4688 O   0  0  0  0  0  0  0  0  0  0  0  0
  -32.5644  -21.3114   21.0786 O   0  0  0  0  0  0  0  0  0  0  0  0
  -23.9448  -11.6911   19.2845 O   0  0  0  0  0  0  0  0  0  0  0  0
  -28.1425  -26.3409   20.0253 O   0  0  0  0  0  0  0  0  0  1  0  0
  -22.6705   -8.0471   23.2217 F   0  0  0  0  0  0  0  0  0  0  0  0
  -22.0962  -12.3095   21.2449 F   0  0  0  0  0  0  0  0  0  0  0  0
  1  2  1  0  0  0  0
  1  5  2  0  0  0  0
  2  6  2  0  0  0  0
  3  8  2  0  0  0  0
  3 16  1  0  0  0  0
  4  9  1  0  0  0  0
  4 16  2  0  0  0  0
  5 18  1  0  0  0  0
  6 20  1  0  0  0  0
  7 10  2  0  0  0  0
  7 19  1  0  0  0  0
  8 22  1  0  0  0  0
  9 22  2  0  0  0  0
 10 23  1  0  0  0  0
 11 12  2  0  0  0  0
 11 24  1  0  0  0  0
 12 25  1  0  0  0  0
 13 21  1  0  0  0  0
 13 23  2  0  0  0  0
 14 25  2  0  0  0  0
 14 26  1  0  0  0  0
 15 28  2  0  0  0  0
 15 68  1  0  0  0  0
 16 27  1  0  0  0  0
 17 27  1  0  0  0  0
 17 29  2  0  0  0  0
 17 31  1  0  0  0  0
 18 20  2  0  0  0  0
 18 36  1  0  0  0  0
 19 21  2  0  0  0  0
 19 37  1  0  0  0  0
 20 45  1  0  0  0  0
 21 38  1  0  0  0  0
 22 84  1  0  0  0  0
 23 85  1  0  0  0  0
 24 26  2  0  0  0  0
 24 84  1  0  0  0  0
 25 86  1  0  0  0  0
 26 87  1  0  0  0  0
 27 67  2  0  0  0  0
 28 56  1  0  0  0  0
 28 70  1  0  0  0  0
 29 69  1  0  0  0  0
 29 73  1  0  0  0  0
 30 57  1  0  0  0  0
 30 68  1  0  0  0  0
 30 70  2  0  0  0  0
 31 74  1  0  0  0  0
 31 79  2  0  0  0  0
 32 46  1  0  0  0  0
 32 75  1  0  0  0  0
 32 80  2  0  0  0  0
 33 62  1  0  0  0  0
 33 71  1  0  0  0  0
 33 81  2  0  0  0  0
 34 63  1  0  0  0  0
 34 76  1  0  0  0  0
 34 82  2  0  0  0  0
 35 72  1  0  0  0  0
 35 77  1  0  0  0  0
 35 83  2  0  0  0  0
 36 39  1  0  0  0  0
 37 46  1  0  0  0  0
 38 71  1  0  0  0  0
 39 41  1  0  0  0  0
 40 42  1  0  0  0  0
 40 43  1  0  0  0  0
 41 45  1  0  0  0  0
 42 47  1  0  0  0  0
 43 72  1  0  0  0  0
 44 47  1  0  0  0  0
 44 72  1  0  0  0  0
 45 75  1  0  0  0  0
 46 71  1  0  0  0  0
 47 69  1  0  0  0  0
 48 63  1  0  0  0  0
 49 64  1  0  0  0  0
 50 64  1  0  0  0  0
 51 65  1  0  0  0  0
 52 66  1  0  0  0  0
 53 66  1  0  0  0  0
 54 66  1  0  0  0  0
 55 78  1  0  0  0  0
 56 77  1  0  0  0  0
 57 58  1  0  0  0  0
 58 64  1  0  0  0  0
 59 60  1  0  0  0  0
 59 61  1  0  0  0  0
 60 65  1  0  0  0  0
 61 68  1  0  0  0  0
 62 66  1  0  0  0  0
 62 76  1  0  0  0  0
 63 78  1  0  0  0  0
 65 85  1  0  0  0  0
 67 69  1  0  0  0  0
M  CHG  2  70   1  78   1
M  ISO  4  35 100  65 101  77 100  85 101
M  END
> <Batch ID>
0093

> <Smiles>
CNC(C)C(=O)NC(C(=O)N1Cc2cc([101O:1][101CH:1](C)CCCn3cc(C[100NH:0][100C:0](=O)N4CCCC(n5nc(-c6ccc(Oc7ccc(F)cc7F)cc6)c(C(N)=O)c5N)C4)nc3CCC(C)C)ccc2CC1C(=O)NC1CCCc2ccccc21)C(C)(C)C

> <Shape>
0.272

> <Color>
0.061

> <Negative vol penalty>
0.000

$$$$

  -OEChem-04052319163D

 88 96  0     1  0  0  0  0  0999 V2000
  -23.3809   -9.2523   22.6943 C   0  0  0  0  0  0  0  0  0  0  0  0
  -24.4105  -10.1131   23.0608 C   0  0  0  0  0  0  0  0  0  0  0  0
  -19.9111  -28.8353   23.2125 C   0  0  0  0  0  0  0  0  0  0  0  0
  -20.7987  -26.6144   22.8708 C   0  0  0  0  0  0  0  0  0  0  0  0
  -22.6704   -9.4789   21.5163 C   0  0  0  0  0  0  0  0  0  0  0  0
  -24.7310  -11.2005   22.2488 C   0  0  0  0  0  0  0  0  0  0  0  0
  -27.1369  -17.9370   22.6323 C   0  0  0  0  0  0  0  0  0  0  0  0
  -18.6847  -28.4257   22.6893 C   0  0  0  0  0  0  0  0  0  0  0  0
  -19.5723  -26.2048   22.3477 C   0  0  0  0  0  0  0  0  0  0  0  0
  -28.1294  -18.7582   22.0990 C   0  0  0  0  0  0  0  0  0  0  0  0
  -16.5401  -25.2957   23.5309 C   0  0  0  0  0  0  0  0  0  0  0  0
  -16.0272  -24.0738   23.9661 C   0  0  0  0  0  0  0  0  0  0  0  0
  -26.7816  -19.0964   20.1271 C   0  0  0  0  0  0  0  0  0  0  0  0
  -27.5423  -22.8404   22.3977 C   0  0  0  0  0  0  0  0  0  0  0  0
  -16.0517  -23.2541   21.6935 C   0  0  0  0  0  0  0  0  0  0  0  0
  -20.9681  -27.9297   23.3032 C   0  0  0  0  0  0  0  0  0  0  0  0
  -22.6431  -28.3079   25.1898 C   0  0  0  0  0  0  0  0  0  0  0  0
  -22.9759  -10.5751   20.6943 C   0  0  0  0  0  0  0  0  0  0  0  0
  -25.9621  -17.6801   21.9110 C   0  0  0  0  0  0  0  0  0  0  0  0
  -24.0248  -11.4412   21.0580 C   0  0  0  0  0  0  0  0  0  0  0  0
  -25.7746  -18.2736   20.6545 C   0  0  0  0  0  0  0  0  0  0  0  0
  -26.3649  -23.4126   22.8667 C   0  0  0  0  0  0  0  0  0  0  0  0
  -28.3206  -23.5254   21.4713 C   0  0  0  0  0  0  0  0  0  0  0  0
  -18.5153  -27.1104   22.2569 C   0  0  0  0  0  0  0  0  0  0  0  0
  -27.9531  -19.3357   20.8450 C   0  0  0  0  0  0  0  0  0  0  0  0
  -16.8087  -25.4969   22.1770 C   0  0  0  0  0  0  0  0  0  0  0  0
  -15.7831  -23.0530   23.0475 C   0  0  0  0  0  0  0  0  0  0  0  0
  -16.5646  -24.4760   21.2583 C   0  0  0  0  0  0  0  0  0  0  0  0
  -22.2354  -28.3524   23.8431 C   0  0  0  0  0  0  0  0  0  0  0  0
  -26.0130  -24.6619   22.3817 C   0  0  0  0  0  0  0  0  0  0  0  0
  -27.8810  -24.7696   21.0487 C   0  0  0  0  0  0  0  0  0  0  0  0
  -23.9182  -28.8182   25.1795 C   0  0  0  0  0  0  0  0  0  0  0  0
  -21.9327  -27.8465   26.3466 C   0  0  0  0  0  0  0  0  0  0  0  0
  -24.5918  -15.0758   20.7096 C   0  0  0  0  0  0  0  0  0  0  0  0
  -22.1776  -17.1332   20.0304 C   0  0  0  0  0  0  0  0  0  0  0  0
  -21.1876  -20.3465   19.4463 C   0  0  0  0  0  0  0  0  0  0  0  0
  -28.1452  -29.1454   20.9515 C   0  0  0  0  0  0  0  0  0  0  0  0
  -22.2113  -10.7522   19.4064 C   0  0  0  0  0  0  0  0  0  0  0  0
  -24.8895  -16.8135   22.5117 C   0  0  0  0  0  0  0  0  0  0  0  0
  -24.5228  -18.0457   19.8487 C   0  0  0  0  0  0  0  0  0  0  0  0
  -22.3661  -12.1412   18.7923 C   0  0  0  0  0  0  0  0  0  0  0  0
  -26.7163  -31.8561   22.7645 C   0  0  0  0  0  0  0  0  0  0  0  0
  -23.8320  -12.5629   18.7885 C   0  0  0  0  0  0  0  0  0  0  0  0
  -25.4427  -31.2615   23.3680 C   0  0  0  0  0  0  0  0  0  0  0  0
  -26.9938  -31.2984   21.3702 C   0  0  0  0  0  0  0  0  0  0  0  0
  -25.7567  -29.2317   21.8916 C   0  0  0  0  0  0  0  0  0  0  0  0
  -24.3859  -12.6458   20.2161 C   0  0  1  0  0  0  0  0  0  0  0  0
  -23.9569  -16.2070   21.4678 C   0  0  1  0  0  0  0  0  0  0  0  0
  -25.4654  -29.7219   23.3202 C   0  0  2  0  0  0  0  0  0  0  0  0
  -24.7587  -25.3252   22.8485 C   0  0  0  0  0  0  0  0  0  0  0  0
  -25.0628  -23.0042   27.7103 C   0  0  0  0  0  0  0  0  0  0  0  0
  -27.8991  -25.7748   18.7437 C   0  0  0  0  0  0  0  0  0  0  0  0
  -19.1584  -21.7109   18.8823 C   0  0  0  0  0  0  0  0  0  0  0  0
  -22.3319  -16.1640   17.1413 C   0  0  0  0  0  0  0  0  0  0  0  0
  -21.0015  -18.1754   16.4688 C   0  0  0  0  0  0  0  0  0  0  0  0
  -20.0093  -16.4847   18.0115 C   0  0  0  0  0  0  0  0  0  0  0  0
  -21.3989  -21.9088   21.9510 C   0  0  0  0  0  0  0  0  0  0  0  0
  -25.5267  -22.6839   23.8593 C   0  0  0  0  0  0  0  0  0  0  0  0
  -29.5983  -22.9104   20.9586 C   0  0  0  0  0  0  0  0  0  0  0  0
  -24.8610  -22.4677   26.3021 C   0  0  0  0  0  0  0  0  0  0  0  0
  -25.6927  -23.2449   25.2818 C   0  0  0  0  0  0  0  0  0  0  0  0
  -29.4817  -22.3366   19.5448 C   0  0  0  0  0  0  0  0  0  0  0  0
  -29.1704  -26.9129   20.5992 C   0  0  0  0  0  0  0  0  0  0  0  0
  -28.4963  -21.1782   19.4428 C   0  0  0  0  0  0  0  0  0  1  0  0
  -28.6779  -25.5507   20.0557 C   0  0  1  0  0  0  0  0  0  0  0  0
  -21.8275  -18.0221   18.8615 C   0  0  1  0  0  0  0  0  0  0  0  0
  -20.0318  -21.1607   19.9991 C   0  0  2  0  0  0  0  0  0  0  0  0
  -21.3171  -17.2145   17.6349 C   0  0  0  0  0  0  0  0  0  0  0  0
  -23.1753  -28.8517   23.0360 N   0  0  0  0  0  0  0  0  0  0  0  0
  -26.7433  -25.3576   21.4816 N   0  0  0  0  0  0  0  0  0  0  0  0
  -24.1862  -29.1257   23.8781 N   0  0  0  0  0  0  0  0  0  0  0  0
  -23.5059  -17.1856   20.4762 N   0  0  0  0  0  0  0  0  0  0  0  0
  -27.0036  -29.8338   21.3942 N   0  0  0  0  0  0  0  0  0  0  0  0
  -24.8251  -29.0295   26.1569 N   0  0  0  0  0  0  0  0  0  0  0  0
  -20.6316  -27.3531   26.1789 N   0  0  0  0  0  0  0  0  0  0  0  0
  -23.9441  -13.8644   20.8597 N   0  0  0  0  0  0  0  0  0  0  0  0
  -20.8761  -19.0056   19.3673 N   0  0  0  0  0  0  0  0  0  0  0  0
  -28.0735  -27.7592   21.0135 N   0  0  0  0  0  0  0  0  0  0  0  0
  -20.5431  -22.3062   20.8036 N   0  3  0  0  0  0  0  0  0  0  0  0
  -22.4307  -27.8863   27.4972 O   0  0  0  0  0  0  0  0  0  0  0  0
  -25.5942  -15.2866   20.0370 O   0  0  0  0  0  0  0  0  0  0  0  0
  -21.3030  -16.4240   20.5341 O   0  0  0  0  0  0  0  0  0  0  0  0
  -22.2583  -20.8502   19.1140 O   0  0  0  0  0  0  0  0  0  0  0  0
  -29.1556  -29.7236   20.5370 O   0  0  0  0  0  0  0  0  0  0  0  0
  -17.3186  -26.7103   21.7465 O   0  0  0  0  0  0  0  0  0  0  0  0
  -28.9205  -20.1372   20.3219 O   0  0  0  0  0  0  0  0  0  1  0  0
  -15.2920  -21.8790   23.4658 F   0  0  0  0  0  0  0  0  0  0  0  0
  -16.8217  -24.6630   19.9565 F   0  0  0  0  0  0  0  0  0  0  0  0
  1  2  1  0  0  0  0
  1  5  2  0  0  0  0
  2  6  2  0  0  0  0
  3  8  2  0  0  0  0
  3 16  1  0  0  0  0
  4  9  1  0  0  0  0
  4 16  2  0  0  0  0
  5 18  1  0  0  0  0
  6 20  1  0  0  0  0
  7 10  2  0  0  0  0
  7 19  1  0  0  0  0
  8 24  1  0  0  0  0
  9 24  2  0  0  0  0
 10 25  1  0  0  0  0
 11 12  2  0  0  0  0
 11 26  1  0  0  0  0
 12 27  1  0  0  0  0
 13 21  1  0  0  0  0
 13 25  2  0  0  0  0
 14 22  1  0  0  0  0
 14 23  2  0  0  0  0
 15 27  2  0  0  0  0
 15 28  1  0  0  0  0
 16 29  1  0  0  0  0
 17 29  1  0  0  0  0
 17 32  2  0  0  0  0
 17 33  1  0  0  0  0
 18 20  2  0  0  0  0
 18 38  1  0  0  0  0
 19 21  2  0  0  0  0
 19 39  1  0  0  0  0
 20 47  1  0  0  0  0
 21 40  1  0  0  0  0
 22 30  2  0  0  0  0
 22 58  1  0  0  0  0
 23 31  1  0  0  0  0
 23 59  1  0  0  0  0
 24 85  1  0  0  0  0
 25 86  1  0  0  0  0
 26 28  2  0  0  0  0
 26 85  1  0  0  0  0
 27 87  1  0  0  0  0
 28 88  1  0  0  0  0
 29 69  2  0  0  0  0
 30 50  1  0  0  0  0
 30 70  1  0  0  0  0
 31 65  1  0  0  0  0
 31 70  2  0  0  0  0
 32 71  1  0  0  0  0
 32 74  1  0  0  0  0
 33 75  1  0  0  0  0
 33 80  2  0  0  0  0
 34 48  1  0  0  0  0
 34 76  1  0  0  0  0
 34 81  2  0  0  0  0
 35 66  1  0  0  0  0
 35 72  1  0  0  0  0
 35 82  2  0  0  0  0
 36 67  1  0  0  0  0
 36 77  1  0  0  0  0
 36 83  2  0  0  0  0
 37 73  1  0  0  0  0
 37 78  1  0  0  0  0
 37 84  2  0  0  0  0
 38 41  1  0  0  0  0
 39 48  1  0  0  0  0
 40 72  1  0  0  0  0
 41 43  1  0  0  0  0
 42 44  1  0  0  0  0
 42 45  1  0  0  0  0
 43 47  1  0  0  0  0
 44 49  1  0  0  0  0
 45 73  1  0  0  0  0
 46 49  1  0  0  0  0
 46 73  1  0  0  0  0
 47 76  1  0  0  0  0
 48 72  1  0  0  0  0
 49 71  1  0  0  0  0
 51 60  1  0  0  0  0
 52 65  1  0  0  0  0
 53 67  1  0  0  0  0
 54 68  1  0  0  0  0
 55 68  1  0  0  0  0
 56 68  1  0  0  0  0
 57 79  1  0  0  0  0
 58 61  1  0  0  0  0
 59 62  1  0  0  0  0
 60 61  1  0  0  0  0
 62 64  1  0  0  0  0
 63 65  1  0  0  0  0
 63 78  1  0  0  0  0
 64 86  1  0  0  0  0
 66 68  1  0  0  0  0
 66 77  1  0  0  0  0
 67 79  1  0  0  0  0
 69 71  1  0  0  0  0
M  CHG  1  79   1
M  ISO  4  37 100  64 101  78 100  86 101
M  END
> <Batch ID>
0093

> <Smiles>
CCCCc1cc(CC[101CH2:1][101O:1]c2ccc3c(c2)CN(C(=O)C(NC(=O)C(C)NC)C(C)(C)C)C(C(=O)NC2CCCc4ccccc42)C3)c(C(C)C[100NH:0][100C:0](=O)N2CCCC(n3nc(-c4ccc(Oc5ccc(F)cc5F)cc4)c(C(N)=O)c3N)C2)nc1C

> <Shape>
0.204

> <Color>
0.063

> <Negative vol penalty>
0.000

$$$$

  -OEChem-04052319163D

 83 91  0     1  0  0  0  0  0999 V2000
  -28.9631  -24.6880   16.5008 C   0  0  0  0  0  0  0  0  0  0  0  0
  -27.7647  -25.3027   16.8453 C   0  0  0  0  0  0  0  0  0  0  0  0
  -29.6016  -19.3505   25.5115 C   0  0  0  0  0  0  0  0  0  0  0  0
  -28.4974  -17.4261   24.5553 C   0  0  0  0  0  0  0  0  0  0  0  0
  -30.0611  -24.7831   17.3532 C   0  0  0  0  0  0  0  0  0  0  0  0
  -27.6672  -26.0227   18.0365 C   0  0  0  0  0  0  0  0  0  0  0  0
  -23.5092  -28.5412   18.7921 C   0  0  0  0  0  0  0  0  0  0  0  0
  -29.8342  -18.6338   26.6853 C   0  0  0  0  0  0  0  0  0  0  0  0
  -28.7300  -16.7094   25.7291 C   0  0  0  0  0  0  0  0  0  0  0  0
  -22.2965  -27.9217   19.0912 C   0  0  0  0  0  0  0  0  0  0  0  0
  -29.3510  -14.2566   28.3399 C   0  0  0  0  0  0  0  0  0  0  0  0
  -29.8218  -12.9491   28.2199 C   0  0  0  0  0  0  0  0  0  0  0  0
  -22.5499  -28.5561   21.4047 C   0  0  0  0  0  0  0  0  0  0  0  0
  -31.7782  -13.7604   27.0574 C   0  0  0  0  0  0  0  0  0  0  0  0
  -19.0646  -21.3171   20.5942 C   0  0  0  0  0  0  0  0  0  0  0  0
  -28.9332  -18.7466   24.4464 C   0  0  0  0  0  0  0  0  0  0  0  0
  -29.5303  -19.5660   22.1056 C   0  0  0  0  0  0  0  0  0  0  0  0
  -29.9725  -25.4943   18.5612 C   0  0  0  0  0  0  0  0  0  0  0  0
  -24.2579  -29.1644   19.8008 C   0  0  0  0  0  0  0  0  0  0  0  0
  -28.7713  -26.1503   18.8988 C   0  0  0  0  0  0  0  0  0  0  0  0
  -23.7705  -29.1850   21.1154 C   0  0  0  0  0  0  0  0  0  0  0  0
  -29.3984  -17.3133   26.7941 C   0  0  0  0  0  0  0  0  0  0  0  0
  -21.8181  -27.9265   20.3982 C   0  0  0  0  0  0  0  0  0  0  0  0
  -30.0937  -15.3160   27.8186 C   0  0  0  0  0  0  0  0  0  0  0  0
  -31.0354  -12.7010   27.5786 C   0  0  0  0  0  0  0  0  0  0  0  0
  -31.3073  -15.0679   27.1774 C   0  0  0  0  0  0  0  0  0  0  0  0
  -28.6922  -19.4866   23.2338 C   0  0  0  0  0  0  0  0  0  0  0  0
  -20.0755  -20.5594   21.1276 C   0  0  0  0  0  0  0  0  0  0  0  0
  -28.8558  -20.3853   21.2337 C   0  0  0  0  0  0  0  0  0  0  0  0
  -19.0412  -22.5570   22.4815 C   0  0  0  0  0  0  0  0  0  0  0  0
  -30.8047  -18.9539   21.8670 C   0  0  0  0  0  0  0  0  0  0  0  0
  -27.1482  -28.7219   21.0472 C   0  0  0  0  0  0  0  0  0  0  0  0
  -26.4405  -31.4433   22.6644 C   0  0  0  0  0  0  0  0  0  0  0  0
  -24.0483  -33.5434   23.8948 C   0  0  0  0  0  0  0  0  0  0  0  0
  -23.0598  -21.7258   20.5544 C   0  0  0  0  0  0  0  0  0  0  0  0
  -31.1941  -25.5717   19.4427 C   0  0  0  0  0  0  0  0  0  0  0  0
  -25.5510  -29.8514   19.4569 C   0  0  0  0  0  0  0  0  0  0  0  0
  -24.5263  -29.8580   22.2309 C   0  0  0  0  0  0  0  0  0  0  0  0
  -30.8675  -25.9739   20.8773 C   0  0  0  0  0  0  0  0  0  0  0  0
  -25.7281  -24.0050   21.1562 C   0  0  0  0  0  0  0  0  0  0  0  0
  -29.9772  -27.2075   20.8814 C   0  0  0  0  0  0  0  0  0  0  0  0
  -26.8659  -23.1126   21.6551 C   0  0  0  0  0  0  0  0  0  0  0  0
  -24.3691  -23.5181   21.6543 C   0  0  0  0  0  0  0  0  0  0  0  0
  -25.2106  -21.2109   21.8604 C   0  0  0  0  0  0  0  0  0  0  0  0
  -28.6328  -26.9131   20.2039 C   0  0  1  0  0  0  0  0  0  0  0  0
  -26.4807  -30.0099   20.6561 C   0  0  1  0  0  0  0  0  0  0  0  0
  -26.5956  -21.6295   21.3380 C   0  0  2  0  0  0  0  0  0  0  0  0
  -23.7756  -35.6663   25.2048 C   0  0  0  0  0  0  0  0  0  0  0  0
  -27.1026  -29.9392   25.2353 C   0  0  0  0  0  0  0  0  0  0  0  0
  -25.9265  -31.7436   26.5115 C   0  0  0  0  0  0  0  0  0  0  0  0
  -27.9475  -32.2917   25.1559 C   0  0  0  0  0  0  0  0  0  0  0  0
  -22.6756  -34.8913   21.6459 C   0  0  0  0  0  0  0  0  0  0  0  0
  -20.6695  -19.4257   20.3709 C   0  0  0  0  0  0  0  0  0  0  0  0
  -18.4673  -23.6981   23.2829 C   0  0  0  0  0  0  0  0  0  0  0  0
  -19.3616  -24.9425   23.3166 C   0  0  0  0  0  0  0  0  0  0  0  0
  -19.5693  -25.5679   21.9366 C   0  0  0  0  0  0  0  0  0  0  0  0
  -21.8658  -19.8252   19.4956 C   0  0  0  0  0  0  0  0  0  0  0  0
  -20.4935  -26.7762   22.0038 C   0  0  0  0  0  0  0  0  0  1  0  0
  -25.7728  -31.7620   23.9803 C   0  0  1  0  0  0  0  0  0  0  0  0
  -23.8966  -35.0519   23.8189 C   0  0  2  0  0  0  0  0  0  0  0  0
  -26.6738  -31.4197   25.2003 C   0  0  0  0  0  0  0  0  0  0  0  0
  -18.5189  -22.3430   21.2647 N   0  0  0  0  0  0  0  0  0  0  0  0
  -27.5708  -20.1988   23.0943 N   0  0  0  0  0  0  0  0  0  0  0  0
  -20.5596  -20.8217   22.3551 N   0  0  0  0  0  0  0  0  0  0  0  0
  -20.0321  -21.8470   23.0559 N   0  0  0  0  0  0  0  0  0  0  0  0
  -27.6997  -20.7335   21.8681 N   0  0  0  0  0  0  0  0  0  0  0  0
  -25.7886  -30.5104   21.8455 N   0  0  0  0  0  0  0  0  0  0  0  0
  -24.1745  -22.1051   21.3204 N   0  0  0  0  0  0  0  0  0  0  0  0
  -29.1446  -20.8346   19.9939 N   0  0  0  0  0  0  0  0  0  0  0  0
  -31.3539  -18.1419   22.8687 N   0  0  0  0  0  0  0  0  0  0  0  0
  -27.9049  -28.1522   20.0410 N   0  0  0  0  0  0  0  0  0  0  0  0
  -25.3737  -33.1633   23.9067 N   0  0  0  0  0  0  0  0  0  0  0  0
  -22.9541  -20.3682   20.2776 N   0  0  0  0  0  0  0  0  0  0  0  0
  -22.6797  -35.4115   23.0375 N   0  3  0  0  0  0  0  0  0  0  0  0
  -31.4452  -19.1351   20.8038 O   0  0  0  0  0  0  0  0  0  0  0  0
  -26.9899  -28.2785   22.1786 O   0  0  0  0  0  0  0  0  0  0  0  0
  -27.4978  -32.0068   22.3707 O   0  0  0  0  0  0  0  0  0  0  0  0
  -23.0873  -32.7788   23.9428 O   0  0  0  0  0  0  0  0  0  0  0  0
  -22.2239  -22.5375   20.1429 O   0  0  0  0  0  0  0  0  0  0  0  0
  -29.6253  -16.6136   27.9393 O   0  0  0  0  0  0  0  0  0  0  0  0
  -20.6351  -27.3220   20.6929 O   0  0  0  0  0  0  0  0  0  1  0  0
  -31.4881  -11.4455   27.4648 F   0  0  0  0  0  0  0  0  0  0  0  0
  -32.0259  -16.0816   26.6756 F   0  0  0  0  0  0  0  0  0  0  0  0
  1  2  1  0  0  0  0
  1  5  2  0  0  0  0
  2  6  2  0  0  0  0
  3  8  2  0  0  0  0
  3 16  1  0  0  0  0
  4  9  1  0  0  0  0
  4 16  2  0  0  0  0
  5 18  1  0  0  0  0
  6 20  1  0  0  0  0
  7 10  2  0  0  0  0
  7 19  1  0  0  0  0
  8 22  1  0  0  0  0
  9 22  2  0  0  0  0
 10 23  1  0  0  0  0
 11 12  2  0  0  0  0
 11 24  1  0  0  0  0
 12 25  1  0  0  0  0
 13 21  1  0  0  0  0
 13 23  2  0  0  0  0
 14 25  2  0  0  0  0
 14 26  1  0  0  0  0
 15 28  1  0  0  0  0
 15 62  2  0  0  0  0
 16 27  1  0  0  0  0
 17 27  1  0  0  0  0
 17 29  2  0  0  0  0
 17 31  1  0  0  0  0
 18 20  2  0  0  0  0
 18 36  1  0  0  0  0
 19 21  2  0  0  0  0
 19 37  1  0  0  0  0
 20 45  1  0  0  0  0
 21 38  1  0  0  0  0
 22 80  1  0  0  0  0
 23 81  1  0  0  0  0
 24 26  2  0  0  0  0
 24 80  1  0  0  0  0
 25 82  1  0  0  0  0
 26 83  1  0  0  0  0
 27 63  2  0  0  0  0
 28 53  1  0  0  0  0
 28 64  2  0  0  0  0
 29 66  1  0  0  0  0
 29 69  1  0  0  0  0
 30 54  1  0  0  0  0
 30 62  1  0  0  0  0
 30 65  2  0  0  0  0
 31 70  1  0  0  0  0
 31 75  2  0  0  0  0
 32 46  1  0  0  0  0
 32 71  1  0  0  0  0
 32 76  2  0  0  0  0
 33 59  1  0  0  0  0
 33 67  1  0  0  0  0
 33 77  2  0  0  0  0
 34 60  1  0  0  0  0
 34 72  1  0  0  0  0
 34 78  2  0  0  0  0
 35 68  1  0  0  0  0
 35 73  1  0  0  0  0
 35 79  2  0  0  0  0
 36 39  1  0  0  0  0
 37 46  1  0  0  0  0
 38 67  1  0  0  0  0
 39 41  1  0  0  0  0
 40 42  1  0  0  0  0
 40 43  1  0  0  0  0
 41 45  1  0  0  0  0
 42 47  1  0  0  0  0
 43 68  1  0  0  0  0
 44 47  1  0  0  0  0
 44 68  1  0  0  0  0
 45 71  1  0  0  0  0
 46 67  1  0  0  0  0
 47 66  1  0  0  0  0
 48 60  1  0  0  0  0
 49 61  1  0  0  0  0
 50 61  1  0  0  0  0
 51 61  1  0  0  0  0
 52 74  1  0  0  0  0
 53 57  1  0  0  0  0
 54 55  1  0  0  0  0
 55 56  1  0  0  0  0
 56 58  1  0  0  0  0
 57 73  1  0  0  0  0
 58 81  1  0  0  0  0
 59 61  1  0  0  0  0
 59 72  1  0  0  0  0
 60 74  1  0  0  0  0
 63 66  1  0  0  0  0
 64 65  1  0  0  0  0
M  CHG  1  74   1
M  ISO  4  35 100  58 101  73 100  81 101
M  END
> <Batch ID>
0093

> <Smiles>
CNC(C)C(=O)NC(C(=O)N1Cc2cc([101O:1][101CH2:1]CCCc3ncc(CC[100NH:0][100C:0](=O)N4CCCC(n5nc(-c6ccc(Oc7ccc(F)cc7F)cc6)c(C(N)=O)c5N)C4)nn3)ccc2CC1C(=O)NC1CCCc2ccccc21)C(C)(C)C

> <Shape>
0.203

> <Color>
0.066

> <Negative vol penalty>
0.000

$$$$

  -OEChem-04052319163D

 89 97  0     1  0  0  0  0  0999 V2000
  -16.4195  -26.8745   25.5300 C   0  0  0  0  0  0  0  0  0  0  0  0
  -17.2735  -25.7990   25.7520 C   0  0  0  0  0  0  0  0  0  0  0  0
  -24.1514  -13.2607   21.3471 C   0  0  0  0  0  0  0  0  0  0  0  0
  -26.3154  -12.8368   20.3599 C   0  0  0  0  0  0  0  0  0  0  0  0
  -16.6262  -27.7128   24.4352 C   0  0  0  0  0  0  0  0  0  0  0  0
  -18.3341  -25.5605   24.8788 C   0  0  0  0  0  0  0  0  0  0  0  0
  -25.0402  -23.0429   24.7969 C   0  0  0  0  0  0  0  0  0  0  0  0
  -23.8532  -11.8999   21.2777 C   0  0  0  0  0  0  0  0  0  0  0  0
  -26.0172  -11.4760   20.2906 C   0  0  0  0  0  0  0  0  0  0  0  0
  -25.8317  -22.1082   24.1309 C   0  0  0  0  0  0  0  0  0  0  0  0
  -24.5962   -9.0953   23.0142 C   0  0  0  0  0  0  0  0  0  0  0  0
  -24.0179   -8.5005   24.1354 C   0  0  0  0  0  0  0  0  0  0  0  0
  -26.1390  -23.6694   22.3178 C   0  0  0  0  0  0  0  0  0  0  0  0
  -22.0865   -7.8932   22.8171 C   0  0  0  0  0  0  0  0  0  0  0  0
  -30.2775  -20.5395   18.1580 C   0  0  0  0  0  0  0  0  0  0  0  0
  -25.3825  -13.7292   20.8881 C   0  0  0  0  0  0  0  0  0  0  0  0
  -26.3103  -15.8167   22.0235 C   0  0  0  0  0  0  0  0  0  0  0  0
  -17.6957  -27.4902   23.5536 C   0  0  0  0  0  0  0  0  0  0  0  0
  -24.7828  -24.2959   24.2224 C   0  0  0  0  0  0  0  0  0  0  0  0
  -18.5546  -26.3958   23.7705 C   0  0  0  0  0  0  0  0  0  0  0  0
  -25.3460  -24.6192   22.9797 C   0  0  0  0  0  0  0  0  0  0  0  0
  -24.7861  -11.0075   20.7495 C   0  0  0  0  0  0  0  0  0  0  0  0
  -26.3789  -22.4202   22.8898 C   0  0  0  0  0  0  0  0  0  0  0  0
  -23.9197   -9.0892   21.7943 C   0  0  0  0  0  0  0  0  0  0  0  0
  -22.7630   -7.8994   24.0369 C   0  0  0  0  0  0  0  0  0  0  0  0
  -22.6649   -8.4881   21.6958 C   0  0  0  0  0  0  0  0  0  0  0  0
  -25.6909  -15.1349   20.9590 C   0  0  0  0  0  0  0  0  0  0  0  0
  -30.1366  -21.6179   19.0074 C   0  0  0  0  0  0  0  0  0  0  0  0
  -29.9307  -20.7668   16.8418 C   0  0  0  0  0  0  0  0  0  0  0  0
  -26.3754  -17.1227   21.6033 C   0  0  0  0  0  0  0  0  0  0  0  0
  -29.3869  -22.9247   17.3053 C   0  0  0  0  0  0  0  0  0  0  0  0
  -26.7846  -15.3144   23.2799 C   0  0  0  0  0  0  0  0  0  0  0  0
  -22.1695  -25.8275   23.2587 C   0  0  0  0  0  0  0  0  0  0  0  0
  -24.2457  -28.2779   22.8037 C   0  0  0  0  0  0  0  0  0  0  0  0
  -27.4577  -29.2885   22.2478 C   0  0  0  0  0  0  0  0  0  0  0  0
  -26.4650  -19.6617   16.1814 C   0  0  0  0  0  0  0  0  0  0  0  0
  -17.8509  -28.3955   22.3573 C   0  0  0  0  0  0  0  0  0  0  0  0
  -23.9489  -25.3031   24.9659 C   0  0  0  0  0  0  0  0  0  0  0  0
  -25.1166  -25.9581   22.3292 C   0  0  0  0  0  0  0  0  0  0  0  0
  -19.2207  -28.2951   21.6912 C   0  0  0  0  0  0  0  0  0  0  0  0
  -24.1197  -20.2680   18.7908 C   0  0  0  0  0  0  0  0  0  0  0  0
  -19.6194  -26.8342   21.5078 C   0  0  0  0  0  0  0  0  0  0  0  0
  -24.3123  -19.0827   19.7384 C   0  0  0  0  0  0  0  0  0  0  0  0
  -24.2783  -19.8538   17.3295 C   0  0  0  0  0  0  0  0  0  0  0  0
  -25.7301  -17.9666   17.9655 C   0  0  0  0  0  0  0  0  0  0  0  0
  -19.7309  -26.1190   22.8597 C   0  0  1  0  0  0  0  0  0  0  0  0
  -23.3299  -26.3569   24.0529 C   0  0  1  0  0  0  0  0  0  0  0  0
  -25.6349  -18.3460   19.4533 C   0  0  2  0  0  0  0  0  0  0  0  0
  -29.3850  -30.8706   21.9652 C   0  0  0  0  0  0  0  0  0  0  0  0
  -25.2910  -25.5179   15.9824 C   0  0  0  0  0  0  0  0  0  0  0  0
  -27.1397  -26.7471   17.1364 C   0  0  0  0  0  0  0  0  0  0  0  0
  -30.5799  -18.2979   16.4181 C   0  0  0  0  0  0  0  0  0  0  0  0
  -31.0696  -20.0446   14.7254 C   0  0  0  0  0  0  0  0  0  0  0  0
  -23.1990  -28.4688   19.9440 C   0  0  0  0  0  0  0  0  0  0  0  0
  -25.2126  -29.8426   19.3727 C   0  0  0  0  0  0  0  0  0  0  0  0
  -23.5784  -30.6718   21.0652 C   0  0  0  0  0  0  0  0  0  0  0  0
  -28.0140  -29.3134   25.1545 C   0  0  0  0  0  0  0  0  0  0  0  0
  -30.4913  -21.4670   20.4651 C   0  0  0  0  0  0  0  0  0  0  0  0
  -28.8956  -24.2502   16.8303 C   0  0  0  0  0  0  0  0  0  0  0  0
  -29.3206  -21.0140   21.3402 C   0  0  0  0  0  0  0  0  0  0  0  0
  -27.3698  -24.2592   16.6205 C   0  0  0  0  0  0  0  0  0  0  0  0
  -28.6906  -19.3440   15.1302 C   0  0  0  0  0  0  0  0  0  0  0  0
  -28.1753  -22.0189   21.3840 C   0  0  0  0  0  0  0  0  0  1  0  0
  -25.1091  -28.7490   21.6584 C   0  0  1  0  0  0  0  0  0  0  0  0
  -28.3039  -30.3630   22.9066 C   0  0  2  0  0  0  0  0  0  0  0  0
  -26.8081  -25.6173   16.1604 C   0  0  0  0  0  0  0  0  0  0  0  0
  -30.0515  -19.6602   15.8483 C   0  0  0  0  0  0  0  0  0  0  0  0
  -24.2777  -29.4070   20.5212 C   0  0  0  0  0  0  0  0  0  0  0  0
  -25.3842  -15.9411   19.9392 N   0  0  0  0  0  0  0  0  0  0  0  0
  -29.6925  -22.8294   18.6133 N   0  0  0  0  0  0  0  0  0  0  0  0
  -29.4799  -21.9514   16.3792 N   0  0  0  0  0  0  0  0  0  0  0  0
  -25.8126  -17.1430   20.3611 N   0  0  0  0  0  0  0  0  0  0  0  0
  -24.2892  -26.9067   23.0927 N   0  0  0  0  0  0  0  0  0  0  0  0
  -25.5534  -19.1619   17.1260 N   0  0  0  0  0  0  0  0  0  0  0  0
  -26.8584  -18.2442   22.1789 N   0  0  0  0  0  0  0  0  0  0  0  0
  -26.6393  -13.9469   23.5505 N   0  0  0  0  0  0  0  0  0  0  0  0
  -20.9727  -26.4687   23.5155 N   0  0  0  0  0  0  0  0  0  0  0  0
  -26.1202  -29.6237   22.2423 N   0  0  0  0  0  0  0  0  0  0  0  0
  -27.6517  -18.9500   16.0556 N   0  0  0  0  0  0  0  0  0  0  0  0
  -28.9614  -29.8260   24.1314 N   0  3  0  0  0  0  0  0  0  0  0  0
  -27.3064  -16.0592   24.1439 O   0  0  0  0  0  0  0  0  0  0  0  0
  -22.3471  -24.9065   22.4700 O   0  0  0  0  0  0  0  0  0  0  0  0
  -23.5636  -29.0976   23.4237 O   0  0  0  0  0  0  0  0  0  0  0  0
  -27.9358  -28.2569   21.7812 O   0  0  0  0  0  0  0  0  0  0  0  0
  -26.2403  -20.6707   15.5044 O   0  0  0  0  0  0  0  0  0  0  0  0
  -24.4956   -9.6795   20.6819 O   0  0  0  0  0  0  0  0  0  0  0  0
  -27.1512  -21.5095   22.2372 O   0  0  0  0  0  0  0  0  0  1  0  0
  -22.2085   -7.3269   25.1134 F   0  0  0  0  0  0  0  0  0  0  0  0
  -22.0106   -8.4780   20.5263 F   0  0  0  0  0  0  0  0  0  0  0  0
  1  2  1  0  0  0  0
  1  5  2  0  0  0  0
  2  6  2  0  0  0  0
  3  8  2  0  0  0  0
  3 16  1  0  0  0  0
  4  9  1  0  0  0  0
  4 16  2  0  0  0  0
  5 18  1  0  0  0  0
  6 20  1  0  0  0  0
  7 10  2  0  0  0  0
  7 19  1  0  0  0  0
  8 22  1  0  0  0  0
  9 22  2  0  0  0  0
 10 23  1  0  0  0  0
 11 12  2  0  0  0  0
 11 24  1  0  0  0  0
 12 25  1  0  0  0  0
 13 21  1  0  0  0  0
 13 23  2  0  0  0  0
 14 25  2  0  0  0  0
 14 26  1  0  0  0  0
 15 28  1  0  0  0  0
 15 29  2  0  0  0  0
 16 27  1  0  0  0  0
 17 27  1  0  0  0  0
 17 30  2  0  0  0  0
 17 32  1  0  0  0  0
 18 20  2  0  0  0  0
 18 37  1  0  0  0  0
 19 21  2  0  0  0  0
 19 38  1  0  0  0  0
 20 46  1  0  0  0  0
 21 39  1  0  0  0  0
 22 86  1  0  0  0  0
 23 87  1  0  0  0  0
 24 26  2  0  0  0  0
 24 86  1  0  0  0  0
 25 88  1  0  0  0  0
 26 89  1  0  0  0  0
 27 69  2  0  0  0  0
 28 58  1  0  0  0  0
 28 70  2  0  0  0  0
 29 67  1  0  0  0  0
 29 71  1  0  0  0  0
 30 72  1  0  0  0  0
 30 75  1  0  0  0  0
 31 59  1  0  0  0  0
 31 70  1  0  0  0  0
 31 71  2  0  0  0  0
 32 76  1  0  0  0  0
 32 81  2  0  0  0  0
 33 47  1  0  0  0  0
 33 77  1  0  0  0  0
 33 82  2  0  0  0  0
 34 64  1  0  0  0  0
 34 73  1  0  0  0  0
 34 83  2  0  0  0  0
 35 65  1  0  0  0  0
 35 78  1  0  0  0  0
 35 84  2  0  0  0  0
 36 74  1  0  0  0  0
 36 79  1  0  0  0  0
 36 85  2  0  0  0  0
 37 40  1  0  0  0  0
 38 47  1  0  0  0  0
 39 73  1  0  0  0  0
 40 42  1  0  0  0  0
 41 43  1  0  0  0  0
 41 44  1  0  0  0  0
 42 46  1  0  0  0  0
 43 48  1  0  0  0  0
 44 74  1  0  0  0  0
 45 48  1  0  0  0  0
 45 74  1  0  0  0  0
 46 77  1  0  0  0  0
 47 73  1  0  0  0  0
 48 72  1  0  0  0  0
 49 65  1  0  0  0  0
 50 66  1  0  0  0  0
 51 66  1  0  0  0  0
 52 67  1  0  0  0  0
 53 67  1  0  0  0  0
 54 68  1  0  0  0  0
 55 68  1  0  0  0  0
 56 68  1  0  0  0  0
 57 80  1  0  0  0  0
 58 60  1  0  0  0  0
 59 61  1  0  0  0  0
 60 63  1  0  0  0  0
 61 66  1  0  0  0  0
 62 67  1  0  0  0  0
 62 79  1  0  0  0  0
 63 87  1  0  0  0  0
 64 68  1  0  0  0  0
 64 78  1  0  0  0  0
 65 80  1  0  0  0  0
 69 72  1  0  0  0  0
M  CHG  1  80   1
M  ISO  4  36 100  63 101  79 100  87 101
M  END
> <Batch ID>
0093

> <Smiles>
CNC(C)C(=O)NC(C(=O)N1Cc2cc([101O:1][101CH2:1]CCc3cc(C(C)(C)C[100NH:0][100C:0](=O)N4CCCC(n5nc(-c6ccc(Oc7ccc(F)cc7F)cc6)c(C(N)=O)c5N)C4)nc(CCC(C)C)n3)ccc2CC1C(=O)NC1CCCc2ccccc21)C(C)(C)C

> <Shape>
0.203

> <Color>
0.063

> <Negative vol penalty>
0.000

$$$$

  -OEChem-04052319163D

 85 93  0     1  0  0  0  0  0999 V2000
  -26.9082  -24.1694   16.8176 C   0  0  0  0  0  0  0  0  0  0  0  0
  -25.7743  -24.5516   17.5272 C   0  0  0  0  0  0  0  0  0  0  0  0
  -26.5314  -14.9592   19.6367 C   0  0  0  0  0  0  0  0  0  0  0  0
  -24.5816  -14.9931   21.0630 C   0  0  0  0  0  0  0  0  0  0  0  0
  -28.1744  -24.5034   17.2965 C   0  0  0  0  0  0  0  0  0  0  0  0
  -25.9059  -25.2671   18.7168 C   0  0  0  0  0  0  0  0  0  0  0  0
  -22.6783  -29.1582   19.0107 C   0  0  0  0  0  0  0  0  0  0  0  0
  -26.6483  -13.5827   19.8291 C   0  0  0  0  0  0  0  0  0  0  0  0
  -24.6985  -13.6165   21.2554 C   0  0  0  0  0  0  0  0  0  0  0  0
  -21.3560  -28.8651   19.3417 C   0  0  0  0  0  0  0  0  0  0  0  0
  -23.9562  -10.7933   19.5528 C   0  0  0  0  0  0  0  0  0  0  0  0
  -22.7944  -10.0268   19.4620 C   0  0  0  0  0  0  0  0  0  0  0  0
  -21.7858  -29.5289   21.6207 C   0  0  0  0  0  0  0  0  0  0  0  0
  -20.8498  -25.5665   22.2634 C   0  0  0  0  0  0  0  0  0  0  0  0
  -23.1052   -9.2858   21.7404 C   0  0  0  0  0  0  0  0  0  0  0  0
  -25.4981  -15.6645   20.2537 C   0  0  0  0  0  0  0  0  0  0  0  0
  -24.6500  -17.7455   19.0464 C   0  0  0  0  0  0  0  0  0  0  0  0
  -28.3212  -25.2317   18.4875 C   0  0  0  0  0  0  0  0  0  0  0  0
  -23.5686  -29.6293   19.9863 C   0  0  0  0  0  0  0  0  0  0  0  0
  -27.1752  -25.6100   19.2128 C   0  0  0  0  0  0  0  0  0  0  0  0
  -23.1181  -29.8297   21.2990 C   0  0  0  0  0  0  0  0  0  0  0  0
  -19.4861  -25.3276   22.1352 C   0  0  0  0  0  0  0  0  0  0  0  0
  -19.0388  -24.0623   21.7716 C   0  0  0  0  0  0  0  0  0  0  0  0
  -25.7318  -12.9113   20.6384 C   0  0  0  0  0  0  0  0  0  0  0  0
  -20.9104  -29.0476   20.6475 C   0  0  0  0  0  0  0  0  0  0  0  0
  -24.6926  -10.8059   20.7374 C   0  0  0  0  0  0  0  0  0  0  0  0
  -22.3688   -9.2731   20.5558 C   0  0  0  0  0  0  0  0  0  0  0  0
  -24.2670  -10.0522   21.8312 C   0  0  0  0  0  0  0  0  0  0  0  0
  -25.3771  -17.0865   20.0558 C   0  0  0  0  0  0  0  0  0  0  0  0
  -21.7183  -24.5149   22.0189 C   0  0  0  0  0  0  0  0  0  0  0  0
  -19.9883  -23.0780   21.5490 C   0  0  0  0  0  0  0  0  0  0  0  0
  -24.8529  -19.0813   19.2935 C   0  0  0  0  0  0  0  0  0  0  0  0
  -23.8616  -17.1991   17.9808 C   0  0  0  0  0  0  0  0  0  0  0  0
  -26.2830  -28.5613   21.2491 C   0  0  0  0  0  0  0  0  0  0  0  0
  -26.2745  -31.4469   22.7308 C   0  0  0  0  0  0  0  0  0  0  0  0
  -24.4763  -34.1190   23.8592 C   0  0  0  0  0  0  0  0  0  0  0  0
  -25.1552  -23.3847   22.8340 C   0  0  0  0  0  0  0  0  0  0  0  0
  -29.7119  -25.5286   18.9901 C   0  0  0  0  0  0  0  0  0  0  0  0
  -24.9846  -29.9663   19.6072 C   0  0  0  0  0  0  0  0  0  0  0  0
  -24.0287  -30.3524   22.3788 C   0  0  0  0  0  0  0  0  0  0  0  0
  -29.7530  -26.6128   20.0639 C   0  0  0  0  0  0  0  0  0  0  0  0
  -28.0807  -21.3970   22.4249 C   0  0  0  0  0  0  0  0  0  0  0  0
  -28.6772  -26.3630   21.1161 C   0  0  0  0  0  0  0  0  0  0  0  0
  -27.5770  -20.1508   21.6948 C   0  0  0  0  0  0  0  0  0  0  0  0
  -27.0561  -21.9134   23.4326 C   0  0  0  0  0  0  0  0  0  0  0  0
  -25.2071  -20.9099   22.1488 C   0  0  0  0  0  0  0  0  0  0  0  0
  -27.2762  -26.4084   20.4943 C   0  0  1  0  0  0  0  0  0  0  0  0
  -25.9408  -29.9523   20.7957 C   0  0  1  0  0  0  0  0  0  0  0  0
  -26.1831  -20.3848   21.0820 C   0  0  2  0  0  0  0  0  0  0  0  0
  -17.5817  -23.7761   21.6289 C   0  0  0  0  0  0  0  0  0  0  0  0
  -19.9831  -20.6423   22.1977 C   0  0  0  0  0  0  0  0  0  0  0  0
  -20.0933  -21.2989   19.7663 C   0  0  0  0  0  0  0  0  0  0  0  0
  -24.7413  -36.3049   25.0630 C   0  0  0  0  0  0  0  0  0  0  0  0
  -26.5882  -29.9516   25.3719 C   0  0  0  0  0  0  0  0  0  0  0  0
  -25.8992  -32.0454   26.5591 C   0  0  0  0  0  0  0  0  0  0  0  0
  -27.9746  -32.0236   25.1752 C   0  0  0  0  0  0  0  0  0  0  0  0
  -23.4396  -35.6500   21.5483 C   0  0  0  0  0  0  0  0  0  0  0  0
  -18.5173  -26.4540   22.3924 C   0  0  0  0  0  0  0  0  0  0  0  0
  -23.1887  -24.7344   22.1482 C   0  0  0  0  0  0  0  0  0  0  0  0
  -17.9305  -27.0647   21.1179 C   0  0  0  0  0  0  0  0  0  0  0  0
  -18.9763  -27.7283   20.2294 C   0  0  0  0  0  0  0  0  0  1  0  0
  -19.5688  -21.6988   21.1574 C   0  0  0  0  0  0  0  0  0  0  0  0
  -25.7209  -31.9798   24.0302 C   0  0  1  0  0  0  0  0  0  0  0  0
  -24.6921  -35.6141   23.7090 C   0  0  2  0  0  0  0  0  0  0  0  0
  -26.5288  -31.4884   25.2644 C   0  0  0  0  0  0  0  0  0  0  0  0
  -25.9959  -17.9338   20.8824 N   0  0  0  0  0  0  0  0  0  0  0  0
  -21.3212  -23.2724   21.6637 N   0  0  0  0  0  0  0  0  0  0  0  0
  -25.6582  -19.1389   20.3928 N   0  0  0  0  0  0  0  0  0  0  0  0
  -25.4059  -30.6614   21.9599 N   0  0  0  0  0  0  0  0  0  0  0  0
  -25.7565  -22.1161   22.7876 N   0  0  0  0  0  0  0  0  0  0  0  0
  -24.4193  -20.2004   18.6755 N   0  0  0  0  0  0  0  0  0  0  0  0
  -23.7589  -15.8056   17.8724 N   0  0  0  0  0  0  0  0  0  0  0  0
  -26.8664  -27.7784   20.2713 N   0  0  0  0  0  0  0  0  0  0  0  0
  -25.6709  -33.4309   23.8880 N   0  0  0  0  0  0  0  0  0  0  0  0
  -23.9274  -23.4921   22.1923 N   0  0  0  0  0  0  0  0  0  0  0  0
  -23.5876  -36.2195   22.9125 N   0  3  0  0  0  0  0  0  0  0  0  0
  -23.2791  -17.9249   17.1397 O   0  0  0  0  0  0  0  0  0  0  0  0
  -26.0374  -28.2237   22.4012 O   0  0  0  0  0  0  0  0  0  0  0  0
  -27.4325  -31.7235   22.4081 O   0  0  0  0  0  0  0  0  0  0  0  0
  -23.3598  -33.6126   23.9462 O   0  0  0  0  0  0  0  0  0  0  0  0
  -25.6765  -24.3513   23.4004 O   0  0  0  0  0  0  0  0  0  0  0  0
  -25.8454  -11.5680   20.8262 O   0  0  0  0  0  0  0  0  0  0  0  0
  -19.6204  -28.7617   20.9734 O   0  0  0  0  0  0  0  0  0  1  0  0
  -21.2522   -8.5383   20.4690 F   0  0  0  0  0  0  0  0  0  0  0  0
  -24.9697  -10.0614   22.9723 F   0  0  0  0  0  0  0  0  0  0  0  0
  1  2  1  0  0  0  0
  1  5  2  0  0  0  0
  2  6  2  0  0  0  0
  3  8  2  0  0  0  0
  3 16  1  0  0  0  0
  4  9  1  0  0  0  0
  4 16  2  0  0  0  0
  5 18  1  0  0  0  0
  6 20  1  0  0  0  0
  7 10  2  0  0  0  0
  7 19  1  0  0  0  0
  8 24  1  0  0  0  0
  9 24  2  0  0  0  0
 10 25  1  0  0  0  0
 11 12  2  0  0  0  0
 11 26  1  0  0  0  0
 12 27  1  0  0  0  0
 13 21  1  0  0  0  0
 13 25  2  0  0  0  0
 14 22  1  0  0  0  0
 14 30  2  0  0  0  0
 15 27  2  0  0  0  0
 15 28  1  0  0  0  0
 16 29  1  0  0  0  0
 17 29  1  0  0  0  0
 17 32  2  0  0  0  0
 17 33  1  0  0  0  0
 18 20  2  0  0  0  0
 18 38  1  0  0  0  0
 19 21  2  0  0  0  0
 19 39  1  0  0  0  0
 20 47  1  0  0  0  0
 21 40  1  0  0  0  0
 22 23  2  0  0  0  0
 22 58  1  0  0  0  0
 23 31  1  0  0  0  0
 23 50  1  0  0  0  0
 24 82  1  0  0  0  0
 25 83  1  0  0  0  0
 26 28  2  0  0  0  0
 26 82  1  0  0  0  0
 27 84  1  0  0  0  0
 28 85  1  0  0  0  0
 29 66  2  0  0  0  0
 30 59  1  0  0  0  0
 30 67  1  0  0  0  0
 31 62  1  0  0  0  0
 31 67  2  0  0  0  0
 32 68  1  0  0  0  0
 32 71  1  0  0  0  0
 33 72  1  0  0  0  0
 33 77  2  0  0  0  0
 34 48  1  0  0  0  0
 34 73  1  0  0  0  0
 34 78  2  0  0  0  0
 35 63  1  0  0  0  0
 35 69  1  0  0  0  0
 35 79  2  0  0  0  0
 36 64  1  0  0  0  0
 36 74  1  0  0  0  0
 36 80  2  0  0  0  0
 37 70  1  0  0  0  0
 37 75  1  0  0  0  0
 37 81  2  0  0  0  0
 38 41  1  0  0  0  0
 39 48  1  0  0  0  0
 40 69  1  0  0  0  0
 41 43  1  0  0  0  0
 42 44  1  0  0  0  0
 42 45  1  0  0  0  0
 43 47  1  0  0  0  0
 44 49  1  0  0  0  0
 45 70  1  0  0  0  0
 46 49  1  0  0  0  0
 46 70  1  0  0  0  0
 47 73  1  0  0  0  0
 48 69  1  0  0  0  0
 49 68  1  0  0  0  0
 51 62  1  0  0  0  0
 52 62  1  0  0  0  0
 53 64  1  0  0  0  0
 54 65  1  0  0  0  0
 55 65  1  0  0  0  0
 56 65  1  0  0  0  0
 57 76  1  0  0  0  0
 58 60  1  0  0  0  0
 59 75  1  0  0  0  0
 60 61  1  0  0  0  0
 61 83  1  0  0  0  0
 63 65  1  0  0  0  0
 63 74  1  0  0  0  0
 64 76  1  0  0  0  0
 66 68  1  0  0  0  0
M  CHG  1  76   1
M  ISO  4  37 100  61 101  75 100  83 101
M  END
> <Batch ID>
0093

> <Smiles>
CNC(C)C(=O)NC(C(=O)N1Cc2cc([101O:1][101CH2:1]CCc3cc(C[100NH:0][100C:0](=O)N4CCCC(n5nc(-c6ccc(Oc7ccc(F)cc7F)cc6)c(C(N)=O)c5N)C4)nc(C(C)C)c3C)ccc2CC1C(=O)NC1CCCc2ccccc21)C(C)(C)C

> <Shape>
0.283

> <Color>
0.078

> <Negative vol penalty>
0.000

$$$$

  -OEChem-04052319163D

 88 96  0     1  0  0  0  0  0999 V2000
  -25.8030  -35.6083   17.8681 C   0  0  0  0  0  0  0  0  0  0  0  0
  -26.3488  -34.5360   18.5665 C   0  0  0  0  0  0  0  0  0  0  0  0
  -23.8182  -13.3138   20.3635 C   0  0  0  0  0  0  0  0  0  0  0  0
  -26.1476  -13.7178   20.8611 C   0  0  0  0  0  0  0  0  0  0  0  0
  -24.4431  -35.8938   17.9829 C   0  0  0  0  0  0  0  0  0  0  0  0
  -25.5352  -33.7492   19.3810 C   0  0  0  0  0  0  0  0  0  0  0  0
  -26.3900  -28.7948   18.7747 C   0  0  0  0  0  0  0  0  0  0  0  0
  -24.0700  -11.9436   20.2966 C   0  0  0  0  0  0  0  0  0  0  0  0
  -26.3995  -12.3475   20.7943 C   0  0  0  0  0  0  0  0  0  0  0  0
  -27.5173  -28.2621   19.3985 C   0  0  0  0  0  0  0  0  0  0  0  0
  -24.5162   -9.3843   22.4610 C   0  0  0  0  0  0  0  0  0  0  0  0
  -23.6227   -8.5288   23.1054 C   0  0  0  0  0  0  0  0  0  0  0  0
  -26.1271  -27.4271   21.1844 C   0  0  0  0  0  0  0  0  0  0  0  0
  -28.8808  -22.3582   21.9653 C   0  0  0  0  0  0  0  0  0  0  0  0
  -23.1345   -7.4517   20.9986 C   0  0  0  0  0  0  0  0  0  0  0  0
  -24.8570  -14.2010   20.6457 C   0  0  0  0  0  0  0  0  0  0  0  0
  -24.2261  -16.3586   21.8516 C   0  0  0  0  0  0  0  0  0  0  0  0
  -23.6106  -35.1042   18.7917 C   0  0  0  0  0  0  0  0  0  0  0  0
  -25.1220  -28.6568   19.3575 C   0  0  0  0  0  0  0  0  0  0  0  0
  -24.1632  -34.0252   19.5078 C   0  0  0  0  0  0  0  0  0  0  0  0
  -24.9849  -27.9567   20.5647 C   0  0  0  0  0  0  0  0  0  0  0  0
  -28.8288  -22.8023   20.6488 C   0  0  0  0  0  0  0  0  0  0  0  0
  -29.1011  -21.0111   22.2305 C   0  0  0  0  0  0  0  0  0  0  0  0
  -25.3607  -11.4604   20.5120 C   0  0  0  0  0  0  0  0  0  0  0  0
  -27.3863  -27.5807   20.6050 C   0  0  0  0  0  0  0  0  0  0  0  0
  -24.7188   -9.2737   21.0853 C   0  0  0  0  0  0  0  0  0  0  0  0
  -22.9319   -7.5625   22.3742 C   0  0  0  0  0  0  0  0  0  0  0  0
  -24.0280   -8.3073   20.3541 C   0  0  0  0  0  0  0  0  0  0  0  0
  -24.5975  -15.6166   20.7143 C   0  0  0  0  0  0  0  0  0  0  0  0
  -29.0017  -21.8668   19.6414 C   0  0  0  0  0  0  0  0  0  0  0  0
  -29.2617  -20.1558   21.1524 C   0  0  0  0  0  0  0  0  0  0  0  0
  -24.1011  -17.6478   21.3946 C   0  0  0  0  0  0  0  0  0  0  0  0
  -24.0133  -15.9217   23.2004 C   0  0  0  0  0  0  0  0  0  0  0  0
  -22.9294  -30.6756   20.4622 C   0  0  0  0  0  0  0  0  0  0  0  0
  -21.1667  -27.9720   20.7874 C   0  0  0  0  0  0  0  0  0  0  0  0
  -21.1061  -24.5796   21.1547 C   0  0  0  0  0  0  0  0  0  0  0  0
  -26.5012  -20.5818   16.7597 C   0  0  0  0  0  0  0  0  0  0  0  0
  -22.1558  -35.4803   18.9214 C   0  0  0  0  0  0  0  0  0  0  0  0
  -23.9123  -29.2140   18.6585 C   0  0  0  0  0  0  0  0  0  0  0  0
  -23.6433  -27.7636   21.2214 C   0  0  0  0  0  0  0  0  0  0  0  0
  -21.2899  -34.3703   19.5115 C   0  0  0  0  0  0  0  0  0  0  0  0
  -23.0367  -20.1350   17.4485 C   0  0  0  0  0  0  0  0  0  0  0  0
  -21.9598  -33.7681   20.7426 C   0  0  0  0  0  0  0  0  0  0  0  0
  -23.0104  -18.9933   18.4662 C   0  0  0  0  0  0  0  0  0  0  0  0
  -24.1355  -19.9371   16.4066 C   0  0  0  0  0  0  0  0  0  0  0  0
  -25.4577  -18.5774   17.9804 C   0  0  0  0  0  0  0  0  0  0  0  0
  -23.3084  -33.1334   20.3819 C   0  0  1  0  0  0  0  0  0  0  0  0
  -22.7379  -29.4595   19.6008 C   0  0  1  0  0  0  0  0  0  0  0  0
  -24.4022  -18.7608   19.0842 C   0  0  2  0  0  0  0  0  0  0  0  0
  -29.1562  -20.5382   23.6434 C   0  0  0  0  0  0  0  0  0  0  0  0
  -20.1329  -22.2725   21.3200 C   0  0  0  0  0  0  0  0  0  0  0  0
  -29.3641  -16.4313   20.9345 C   0  0  0  0  0  0  0  0  0  0  0  0
  -31.0880  -17.9172   19.8546 C   0  0  0  0  0  0  0  0  0  0  0  0
  -30.7962  -27.4708   20.7159 C   0  0  0  0  0  0  0  0  0  0  0  0
  -20.7234  -28.7610   23.7013 C   0  0  0  0  0  0  0  0  0  0  0  0
  -19.9777  -26.4137   24.1508 C   0  0  0  0  0  0  0  0  0  0  0  0
  -18.7026  -27.8408   22.5507 C   0  0  0  0  0  0  0  0  0  0  0  0
  -21.2040  -24.2023   18.2209 C   0  0  0  0  0  0  0  0  0  0  0  0
  -28.5902  -24.2618   20.3546 C   0  0  0  0  0  0  0  0  0  0  0  0
  -28.9560  -22.2872   18.2088 C   0  0  0  0  0  0  0  0  0  0  0  0
  -29.8211  -25.1498   20.5882 C   0  0  0  0  0  0  0  0  0  0  0  0
  -28.8800  -21.1118   17.2284 C   0  0  0  0  0  0  0  0  0  0  0  0
  -20.9709  -26.9483   21.8795 C   0  0  1  0  0  0  0  0  0  0  0  0
  -20.3050  -23.5037   20.4441 C   0  0  2  0  0  0  0  0  0  0  0  0
  -29.6641  -17.8170   20.3818 C   0  0  0  0  0  0  0  0  0  0  0  0
  -29.5612  -26.6463   20.3756 C   0  0  1  0  0  0  0  0  0  1  0  0
  -20.1193  -27.4961   23.0594 C   0  0  0  0  0  0  0  0  0  0  0  0
  -24.7014  -16.3715   19.6174 N   0  0  0  0  0  0  0  0  0  0  0  0
  -29.2176  -20.5503   19.8600 N   0  0  0  0  0  0  0  0  0  0  0  0
  -24.3934  -17.6014   20.0632 N   0  0  0  0  0  0  0  0  0  0  0  0
  -22.4914  -28.3322   20.5022 N   0  0  0  0  0  0  0  0  0  0  0  0
  -25.4301  -19.7234   17.0581 N   0  0  0  0  0  0  0  0  0  0  0  0
  -23.7706  -18.8053   22.0057 N   0  0  0  0  0  0  0  0  0  0  0  0
  -24.1848  -14.5627   23.4974 N   0  0  0  0  0  0  0  0  0  0  0  0
  -29.4860  -18.7816   21.4174 N   0  0  0  0  0  0  0  0  0  0  0  0
  -23.1086  -31.8466   19.7506 N   0  0  0  0  0  0  0  0  0  0  0  0
  -20.4087  -25.7664   21.2351 N   0  0  0  0  0  0  0  0  0  0  0  0
  -27.6909  -20.3131   17.4254 N   0  0  0  0  0  0  0  0  0  0  0  0
  -20.9905  -23.0933   19.1860 N   0  3  0  0  0  0  0  0  0  0  0  0
  -23.6650  -16.7101   24.1118 O   0  0  0  0  0  0  0  0  0  0  0  0
  -22.9140  -30.5604   21.6821 O   0  0  0  0  0  0  0  0  0  0  0  0
  -20.1810  -28.4297   20.2037 O   0  0  0  0  0  0  0  0  0  0  0  0
  -22.2360  -24.3856   21.5977 O   0  0  0  0  0  0  0  0  0  0  0  0
  -26.4029  -21.5214   15.9632 O   0  0  0  0  0  0  0  0  0  0  0  0
  -25.6068  -10.1233   20.4471 O   0  0  0  0  0  0  0  0  0  0  0  0
  -28.4851  -27.0603   21.2164 O   0  0  0  0  0  0  0  0  0  1  0  0
  -22.0751   -6.7400   22.9935 F   0  0  0  0  0  0  0  0  0  0  0  0
  -24.2193   -8.1954   19.0325 F   0  0  0  0  0  0  0  0  0  0  0  0
  1  2  1  0  0  0  0
  1  5  2  0  0  0  0
  2  6  2  0  0  0  0
  3  8  2  0  0  0  0
  3 16  1  0  0  0  0
  4  9  1  0  0  0  0
  4 16  2  0  0  0  0
  5 18  1  0  0  0  0
  6 20  1  0  0  0  0
  7 10  2  0  0  0  0
  7 19  1  0  0  0  0
  8 24  1  0  0  0  0
  9 24  2  0  0  0  0
 10 25  1  0  0  0  0
 11 12  2  0  0  0  0
 11 26  1  0  0  0  0
 12 27  1  0  0  0  0
 13 21  1  0  0  0  0
 13 25  2  0  0  0  0
 14 22  1  0  0  0  0
 14 23  2  0  0  0  0
 15 27  2  0  0  0  0
 15 28  1  0  0  0  0
 16 29  1  0  0  0  0
 17 29  1  0  0  0  0
 17 32  2  0  0  0  0
 17 33  1  0  0  0  0
 18 20  2  0  0  0  0
 18 38  1  0  0  0  0
 19 21  2  0  0  0  0
 19 39  1  0  0  0  0
 20 47  1  0  0  0  0
 21 40  1  0  0  0  0
 22 30  2  0  0  0  0
 22 59  1  0  0  0  0
 23 31  1  0  0  0  0
 23 50  1  0  0  0  0
 24 85  1  0  0  0  0
 25 86  1  0  0  0  0
 26 28  2  0  0  0  0
 26 85  1  0  0  0  0
 27 87  1  0  0  0  0
 28 88  1  0  0  0  0
 29 68  2  0  0  0  0
 30 60  1  0  0  0  0
 30 69  1  0  0  0  0
 31 69  2  0  0  0  0
 31 75  1  0  0  0  0
 32 70  1  0  0  0  0
 32 73  1  0  0  0  0
 33 74  1  0  0  0  0
 33 80  2  0  0  0  0
 34 48  1  0  0  0  0
 34 76  1  0  0  0  0
 34 81  2  0  0  0  0
 35 63  1  0  0  0  0
 35 71  1  0  0  0  0
 35 82  2  0  0  0  0
 36 64  1  0  0  0  0
 36 77  1  0  0  0  0
 36 83  2  0  0  0  0
 37 72  1  0  0  0  0
 37 78  1  0  0  0  0
 37 84  2  0  0  0  0
 38 41  1  0  0  0  0
 39 48  1  0  0  0  0
 40 71  1  0  0  0  0
 41 43  1  0  0  0  0
 42 44  1  0  0  0  0
 42 45  1  0  0  0  0
 43 47  1  0  0  0  0
 44 49  1  0  0  0  0
 45 72  1  0  0  0  0
 46 49  1  0  0  0  0
 46 72  1  0  0  0  0
 47 76  1  0  0  0  0
 48 71  1  0  0  0  0
 49 70  1  0  0  0  0
 51 64  1  0  0  0  0
 52 65  1  0  0  0  0
 53 65  1  0  0  0  0
 54 66  1  0  0  0  0
 55 67  1  0  0  0  0
 56 67  1  0  0  0  0
 57 67  1  0  0  0  0
 58 79  1  0  0  0  0
 59 61  1  0  0  0  0
 60 62  1  0  0  0  0
 61 66  1  0  0  0  0
 62 78  1  0  0  0  0
 63 67  1  0  0  0  0
 63 77  1  0  0  0  0
 64 79  1  0  0  0  0
 65 75  1  0  0  0  0
 66 86  1  0  0  0  0
 68 70  1  0  0  0  0
M  CHG  1  79   1
M  ISO  4  37 100  66 101  78 100  86 101
M  END
> <Batch ID>
0093

> <Smiles>
CNC(C)C(=O)NC(C(=O)N1Cc2cc([101O:1][101CH:1](C)CCc3cc(C)c(NC(C)C)nc3CC[100NH:0][100C:0](=O)N3CCCC(n4nc(-c5ccc(Oc6ccc(F)cc6F)cc5)c(C(N)=O)c4N)C3)ccc2CC1C(=O)NC1CCCc2ccccc21)C(C)(C)C

> <Shape>
0.243

> <Color>
0.065

> <Negative vol penalty>
0.000

$$$$

  -OEChem-04052319163D

 87 95  0     1  0  0  0  0  0999 V2000
  -29.4047  -35.8383   17.5231 C   0  0  0  0  0  0  0  0  0  0  0  0
  -29.3112  -34.4530   17.4371 C   0  0  0  0  0  0  0  0  0  0  0  0
  -22.7545  -10.1471   20.5703 C   0  0  0  0  0  0  0  0  0  0  0  0
  -24.4325   -9.2029   22.0297 C   0  0  0  0  0  0  0  0  0  0  0  0
  -29.1946  -36.4755   18.7453 C   0  0  0  0  0  0  0  0  0  0  0  0
  -29.0087  -33.7038   18.5737 C   0  0  0  0  0  0  0  0  0  0  0  0
  -25.6983  -28.5572   18.8169 C   0  0  0  0  0  0  0  0  0  0  0  0
  -22.1190   -8.9075   20.4988 C   0  0  0  0  0  0  0  0  0  0  0  0
  -23.7970   -7.9632   21.9583 C   0  0  0  0  0  0  0  0  0  0  0  0
  -26.0590  -27.2115   18.8688 C   0  0  0  0  0  0  0  0  0  0  0  0
  -21.1050   -6.4625   23.3446 C   0  0  0  0  0  0  0  0  0  0  0  0
  -20.9300   -5.7562   24.5346 C   0  0  0  0  0  0  0  0  0  0  0  0
  -25.8385  -27.2513   21.2707 C   0  0  0  0  0  0  0  0  0  0  0  0
  -29.3987  -18.3465   23.0633 C   0  0  0  0  0  0  0  0  0  0  0  0
  -22.2384   -3.9310   23.6436 C   0  0  0  0  0  0  0  0  0  0  0  0
  -30.5640  -20.0351   21.2643 C   0  0  0  0  0  0  0  0  0  0  0  0
  -23.9113  -10.2948   21.3357 C   0  0  0  0  0  0  0  0  0  0  0  0
  -24.3314  -12.5996   22.3452 C   0  0  0  0  0  0  0  0  0  0  0  0
  -28.8798  -35.7346   19.8953 C   0  0  0  0  0  0  0  0  0  0  0  0
  -25.4151  -29.2641   19.9944 C   0  0  0  0  0  0  0  0  0  0  0  0
  -28.7955  -34.3316   19.8127 C   0  0  0  0  0  0  0  0  0  0  0  0
  -25.4719  -28.6052   21.2308 C   0  0  0  0  0  0  0  0  0  0  0  0
  -28.9117  -19.6419   22.9292 C   0  0  0  0  0  0  0  0  0  0  0  0
  -29.4999  -20.5086   22.0148 C   0  0  0  0  0  0  0  0  0  0  0  0
  -22.6402   -7.8156   21.1928 C   0  0  0  0  0  0  0  0  0  0  0  0
  -26.1320  -26.5591   20.0961 C   0  0  0  0  0  0  0  0  0  0  0  0
  -21.8467   -5.9031   22.3041 C   0  0  0  0  0  0  0  0  0  0  0  0
  -21.4967   -4.4905   24.6841 C   0  0  0  0  0  0  0  0  0  0  0  0
  -22.4134   -4.6373   22.4536 C   0  0  0  0  0  0  0  0  0  0  0  0
  -24.5685  -11.5749   21.4094 C   0  0  0  0  0  0  0  0  0  0  0  0
  -30.4672  -17.9697   22.2657 C   0  0  0  0  0  0  0  0  0  0  0  0
  -25.2044  -13.5984   21.9892 C   0  0  0  0  0  0  0  0  0  0  0  0
  -23.4051  -12.6444   23.4386 C   0  0  0  0  0  0  0  0  0  0  0  0
  -26.6839  -31.7845   21.4578 C   0  0  0  0  0  0  0  0  0  0  0  0
  -24.1337  -31.4328   23.4314 C   0  0  0  0  0  0  0  0  0  0  0  0
  -21.7392  -29.3788   24.7331 C   0  0  0  0  0  0  0  0  0  0  0  0
  -30.2808  -15.2882   20.4018 C   0  0  0  0  0  0  0  0  0  0  0  0
  -28.7078  -36.4640   21.2042 C   0  0  0  0  0  0  0  0  0  0  0  0
  -25.0015  -30.7083   19.9192 C   0  0  0  0  0  0  0  0  0  0  0  0
  -25.1578  -29.3138   22.5222 C   0  0  0  0  0  0  0  0  0  0  0  0
  -28.0224  -35.6278   22.2819 C   0  0  0  0  0  0  0  0  0  0  0  0
  -28.0675  -14.1500   17.8558 C   0  0  0  0  0  0  0  0  0  0  0  0
  -28.6347  -34.2321   22.3445 C   0  0  0  0  0  0  0  0  0  0  0  0
  -26.9443  -13.4581   18.6301 C   0  0  0  0  0  0  0  0  0  0  0  0
  -29.4270  -13.9287   18.5153 C   0  0  0  0  0  0  0  0  0  0  0  0
  -28.3670  -13.6045   20.7164 C   0  0  0  0  0  0  0  0  0  0  0  0
  -28.4448  -33.4864   21.0180 C   0  0  1  0  0  0  0  0  0  0  0  0
  -25.2345  -31.4653   21.2231 C   0  0  1  0  0  0  0  0  0  0  0  0
  -26.9694  -13.8458   20.1208 C   0  0  2  0  0  0  0  0  0  0  0  0
  -28.0889  -20.0410   25.2781 C   0  0  0  0  0  0  0  0  0  0  0  0
  -26.4867  -19.2547   23.4978 C   0  0  0  0  0  0  0  0  0  0  0  0
  -19.8209  -29.3674   26.3510 C   0  0  0  0  0  0  0  0  0  0  0  0
  -30.7075  -23.3630   22.6580 C   0  0  0  0  0  0  0  0  0  0  0  0
  -26.1026  -31.3833   25.7618 C   0  0  0  0  0  0  0  0  0  0  0  0
  -24.2786  -30.4367   27.1919 C   0  0  0  0  0  0  0  0  0  0  0  0
  -24.0208  -32.7034   26.1829 C   0  0  0  0  0  0  0  0  0  0  0  0
  -19.8036  -28.6615   22.6123 C   0  0  0  0  0  0  0  0  0  0  0  0
  -31.0170  -16.5872   22.3842 C   0  0  0  0  0  0  0  0  0  0  0  0
  -28.2147  -23.6248   19.6725 C   0  0  0  0  0  0  0  0  0  0  0  0
  -29.0594  -24.0549   20.8800 C   0  0  0  0  0  0  0  0  0  0  0  0
  -27.3619  -24.7667   19.1313 C   0  0  0  0  0  0  0  0  0  1  0  0
  -27.7594  -20.0757   23.7746 C   0  0  0  0  0  0  0  0  0  0  0  0
  -23.8624  -30.6615   24.7005 C   0  0  1  0  0  0  0  0  0  0  0  0
  -20.2413  -29.5585   24.9020 C   0  0  2  0  0  0  0  0  0  0  0  0
  -29.9033  -22.9042   21.4457 C   0  0  2  0  0  0  0  0  0  0  0  0
  -24.5740  -31.2831   25.9353 C   0  0  0  0  0  0  0  0  0  0  0  0
  -31.0646  -18.7835   21.3666 N   0  0  0  0  0  0  0  0  0  0  0  0
  -25.5175  -11.8936   20.5252 N   0  0  0  0  0  0  0  0  0  0  0  0
  -25.8845  -13.1298   20.9038 N   0  0  0  0  0  0  0  0  0  0  0  0
  -24.7644  -30.7270   22.3970 N   0  0  0  0  0  0  0  0  0  0  0  0
  -29.3837  -14.3173   19.9270 N   0  0  0  0  0  0  0  0  0  0  0  0
  -25.4488  -14.8232   22.5017 N   0  0  0  0  0  0  0  0  0  0  0  0
  -22.5825  -11.5321   23.6635 N   0  0  0  0  0  0  0  0  0  0  0  0
  -29.0494  -21.8057   21.8471 N   0  0  0  0  0  0  0  0  0  0  0  0
  -27.0915  -32.9854   20.9090 N   0  0  0  0  0  0  0  0  0  0  0  0
  -22.4112  -30.5793   24.8258 N   0  0  0  0  0  0  0  0  0  0  0  0
  -30.1683  -15.6029   21.7506 N   0  0  0  0  0  0  0  0  0  0  0  0
  -19.5035  -28.5710   24.0645 N   0  3  0  0  0  0  0  0  0  0  0  0
  -23.2981  -13.6478   24.1838 O   0  0  0  0  0  0  0  0  0  0  0  0
  -27.3805  -31.0001   22.0912 O   0  0  0  0  0  0  0  0  0  0  0  0
  -23.7920  -32.6158   23.3579 O   0  0  0  0  0  0  0  0  0  0  0  0
  -22.2613  -28.2827   24.5420 O   0  0  0  0  0  0  0  0  0  0  0  0
  -31.1164  -15.8380   19.6763 O   0  0  0  0  0  0  0  0  0  0  0  0
  -22.0202   -6.6059   21.1236 O   0  0  0  0  0  0  0  0  0  0  0  0
  -26.4844  -25.2458   20.1496 O   0  0  0  0  0  0  0  0  0  1  0  0
  -21.3298   -3.8129   25.8275 F   0  0  0  0  0  0  0  0  0  0  0  0
  -23.1279   -4.0951   21.4580 F   0  0  0  0  0  0  0  0  0  0  0  0
  1  2  1  0  0  0  0
  1  5  2  0  0  0  0
  2  6  2  0  0  0  0
  3  8  2  0  0  0  0
  3 17  1  0  0  0  0
  4  9  1  0  0  0  0
  4 17  2  0  0  0  0
  5 19  1  0  0  0  0
  6 21  1  0  0  0  0
  7 10  2  0  0  0  0
  7 20  1  0  0  0  0
  8 25  1  0  0  0  0
  9 25  2  0  0  0  0
 10 26  1  0  0  0  0
 11 12  2  0  0  0  0
 11 27  1  0  0  0  0
 12 28  1  0  0  0  0
 13 22  1  0  0  0  0
 13 26  2  0  0  0  0
 14 23  1  0  0  0  0
 14 31  2  0  0  0  0
 15 28  2  0  0  0  0
 15 29  1  0  0  0  0
 16 24  1  0  0  0  0
 16 67  2  0  0  0  0
 17 30  1  0  0  0  0
 18 30  1  0  0  0  0
 18 32  2  0  0  0  0
 18 33  1  0  0  0  0
 19 21  2  0  0  0  0
 19 38  1  0  0  0  0
 20 22  2  0  0  0  0
 20 39  1  0  0  0  0
 21 47  1  0  0  0  0
 22 40  1  0  0  0  0
 23 24  2  0  0  0  0
 23 62  1  0  0  0  0
 24 74  1  0  0  0  0
 25 84  1  0  0  0  0
 26 85  1  0  0  0  0
 27 29  2  0  0  0  0
 27 84  1  0  0  0  0
 28 86  1  0  0  0  0
 29 87  1  0  0  0  0
 30 68  2  0  0  0  0
 31 58  1  0  0  0  0
 31 67  1  0  0  0  0
 32 69  1  0  0  0  0
 32 72  1  0  0  0  0
 33 73  1  0  0  0  0
 33 79  2  0  0  0  0
 34 48  1  0  0  0  0
 34 75  1  0  0  0  0
 34 80  2  0  0  0  0
 35 63  1  0  0  0  0
 35 70  1  0  0  0  0
 35 81  2  0  0  0  0
 36 64  1  0  0  0  0
 36 76  1  0  0  0  0
 36 82  2  0  0  0  0
 37 71  1  0  0  0  0
 37 77  1  0  0  0  0
 37 83  2  0  0  0  0
 38 41  1  0  0  0  0
 39 48  1  0  0  0  0
 40 70  1  0  0  0  0
 41 43  1  0  0  0  0
 42 44  1  0  0  0  0
 42 45  1  0  0  0  0
 43 47  1  0  0  0  0
 44 49  1  0  0  0  0
 45 71  1  0  0  0  0
 46 49  1  0  0  0  0
 46 71  1  0  0  0  0
 47 75  1  0  0  0  0
 48 70  1  0  0  0  0
 49 69  1  0  0  0  0
 50 62  1  0  0  0  0
 51 62  1  0  0  0  0
 52 64  1  0  0  0  0
 53 65  1  0  0  0  0
 54 66  1  0  0  0  0
 55 66  1  0  0  0  0
 56 66  1  0  0  0  0
 57 78  1  0  0  0  0
 58 77  1  0  0  0  0
 59 60  1  0  0  0  0
 59 61  1  0  0  0  0
 60 65  1  0  0  0  0
 61 85  1  0  0  0  0
 63 66  1  0  0  0  0
 63 76  1  0  0  0  0
 64 78  1  0  0  0  0
 65 74  1  0  0  0  0
 68 69  1  0  0  0  0
M  CHG  1  78   1
M  ISO  4  37 100  61 101  77 100  85 101
M  END
> <Batch ID>
0093

> <Smiles>
CNC(C)C(=O)NC(C(=O)N1Cc2cc([101O:1][101CH2:1]CCC(C)Nc3cnc(C[100NH:0][100C:0](=O)N4CCCC(n5nc(-c6ccc(Oc7ccc(F)cc7F)cc6)c(C(N)=O)c5N)C4)cc3C(C)C)ccc2CC1C(=O)NC1CCCc2ccccc21)C(C)(C)C

> <Shape>
0.305

> <Color>
0.132

> <Negative vol penalty>
0.000

$$$$

  -OEChem-04052319163D

 86 94  0     1  0  0  0  0  0999 V2000
  -25.0176  -28.9706   20.3328 C   0  0  0  0  0  0  0  0  0  0  0  0
  -24.7586  -27.9129   19.4669 C   0  0  0  0  0  0  0  0  0  0  0  0
  -20.7816  -22.7993   21.7381 C   0  0  0  0  0  0  0  0  0  0  0  0
  -23.1775  -23.0877   21.6219 C   0  0  0  0  0  0  0  0  0  0  0  0
  -26.2191  -29.0138   21.0388 C   0  0  0  0  0  0  0  0  0  0  0  0
  -25.7015  -26.8984   19.3057 C   0  0  0  0  0  0  0  0  0  0  0  0
  -26.1714  -19.8636   18.0376 C   0  0  0  0  0  0  0  0  0  0  0  0
  -20.6650  -24.0288   22.3864 C   0  0  0  0  0  0  0  0  0  0  0  0
  -23.0609  -24.3172   22.2702 C   0  0  0  0  0  0  0  0  0  0  0  0
  -26.7998  -18.9638   17.1779 C   0  0  0  0  0  0  0  0  0  0  0  0
  -19.7008  -27.2578   23.7497 C   0  0  0  0  0  0  0  0  0  0  0  0
  -18.6942  -28.1235   23.3221 C   0  0  0  0  0  0  0  0  0  0  0  0
  -28.8066  -19.1025   18.5093 C   0  0  0  0  0  0  0  0  0  0  0  0
  -27.0289  -15.0423   18.4123 C   0  0  0  0  0  0  0  0  0  0  0  0
  -19.6717  -28.1691   21.1131 C   0  0  0  0  0  0  0  0  0  0  0  0
  -22.0378  -22.3287   21.3558 C   0  0  0  0  0  0  0  0  0  0  0  0
  -22.1205  -20.8213   19.2995 C   0  0  0  0  0  0  0  0  0  0  0  0
  -27.1731  -27.9942   20.8934 C   0  0  0  0  0  0  0  0  0  0  0  0
  -26.8606  -20.3989   19.1353 C   0  0  0  0  0  0  0  0  0  0  0  0
  -26.9174  -26.9286   20.0094 C   0  0  0  0  0  0  0  0  0  0  0  0
  -28.1839  -20.0070   19.3829 C   0  0  0  0  0  0  0  0  0  0  0  0
  -28.0328  -14.3473   17.7471 C   0  0  0  0  0  0  0  0  0  0  0  0
  -28.6303  -13.2487   18.3549 C   0  0  0  0  0  0  0  0  0  0  0  0
  -21.8046  -24.7878   22.6524 C   0  0  0  0  0  0  0  0  0  0  0  0
  -28.1186  -18.5853   17.4120 C   0  0  0  0  0  0  0  0  0  0  0  0
  -20.6929  -26.8478   22.8590 C   0  0  0  0  0  0  0  0  0  0  0  0
  -18.6796  -28.5792   22.0039 C   0  0  0  0  0  0  0  0  0  0  0  0
  -20.6783  -27.3034   21.5407 C   0  0  0  0  0  0  0  0  0  0  0  0
  -22.1590  -21.0584   20.6866 C   0  0  0  0  0  0  0  0  0  0  0  0
  -28.1914  -12.8885   19.6188 C   0  0  0  0  0  0  0  0  0  0  0  0
  -26.6615  -14.6016   19.6735 C   0  0  0  0  0  0  0  0  0  0  0  0
  -22.2791  -19.4623   19.1790 C   0  0  0  0  0  0  0  0  0  0  0  0
  -21.9561  -21.7467   18.2168 C   0  0  0  0  0  0  0  0  0  0  0  0
  -27.7260  -23.3233   20.0315 C   0  0  0  0  0  0  0  0  0  0  0  0
  -28.6776  -21.7931   22.7287 C   0  0  0  0  0  0  0  0  0  0  0  0
  -30.3561  -18.7076   23.5530 C   0  0  0  0  0  0  0  0  0  0  0  0
  -25.1126  -15.0543   21.6080 C   0  0  0  0  0  0  0  0  0  0  0  0
  -28.4775  -28.1086   21.6418 C   0  0  0  0  0  0  0  0  0  0  0  0
  -26.1599  -21.3479   20.0686 C   0  0  0  0  0  0  0  0  0  0  0  0
  -28.9612  -20.5372   20.5590 C   0  0  0  0  0  0  0  0  0  0  0  0
  -29.2639  -26.8015   21.6984 C   0  0  0  0  0  0  0  0  0  0  0  0
  -21.6446  -15.5979   22.2034 C   0  0  0  0  0  0  0  0  0  0  0  0
  -29.3131  -26.1480   20.3210 C   0  0  0  0  0  0  0  0  0  0  0  0
  -21.4182  -17.0380   21.7377 C   0  0  0  0  0  0  0  0  0  0  0  0
  -23.0066  -15.4260   22.8736 C   0  0  0  0  0  0  0  0  0  0  0  0
  -23.9250  -17.3357   21.6170 C   0  0  0  0  0  0  0  0  0  0  0  0
  -27.9048  -25.7965   19.8265 C   0  0  1  0  0  0  0  0  0  0  0  0
  -27.1229  -22.2258   20.8619 C   0  0  1  0  0  0  0  0  0  0  0  0
  -22.5931  -17.5435   20.8776 C   0  0  2  0  0  0  0  0  0  0  0  0
  -28.8219  -11.9017   21.8358 C   0  0  0  0  0  0  0  0  0  0  0  0
  -30.2429  -17.2907   25.6211 C   0  0  0  0  0  0  0  0  0  0  0  0
  -28.1319  -10.8147   16.5562 C   0  0  0  0  0  0  0  0  0  0  0  0
  -30.5681  -10.2818   16.7668 C   0  0  0  0  0  0  0  0  0  0  0  0
  -31.1250  -23.3898   23.6065 C   0  0  0  0  0  0  0  0  0  0  0  0
  -32.0563  -21.2864   24.5948 C   0  0  0  0  0  0  0  0  0  0  0  0
  -29.9160  -22.2291   25.4627 C   0  0  0  0  0  0  0  0  0  0  0  0
  -29.6107  -16.2994   22.0025 C   0  0  0  0  0  0  0  0  0  0  0  0
  -28.4549  -14.8030   16.3731 C   0  0  0  0  0  0  0  0  0  0  0  0
  -29.7089  -12.4831   17.6653 C   0  0  0  0  0  0  0  0  0  0  0  0
  -28.7972  -11.7175   20.3217 C   0  0  0  0  0  0  0  0  0  0  0  0
  -29.7841  -15.5611   16.3570 C   0  0  0  0  0  0  0  0  0  0  0  0
  -29.7424  -16.8695   17.1379 C   0  0  0  0  0  0  0  0  0  1  0  0
  -29.9529  -21.1279   23.1872 C   0  0  1  0  0  0  0  0  0  0  0  0
  -29.7377  -17.4811   24.1994 C   0  0  2  0  0  0  0  0  0  0  0  0
  -29.3805  -10.9891   17.4244 C   0  0  0  0  0  0  0  0  0  0  0  0
  -30.7554  -22.0094   24.1852 C   0  0  0  0  0  0  0  0  0  0  0  0
  -22.3286  -19.9398   21.3965 N   0  0  0  0  0  0  0  0  0  0  0  0
  -27.2189  -13.5390   20.2962 N   0  0  0  0  0  0  0  0  0  0  0  0
  -22.3980  -18.9866   20.4516 N   0  0  0  0  0  0  0  0  0  0  0  0
  -28.2344  -21.4672   21.4391 N   0  0  0  0  0  0  0  0  0  0  0  0
  -24.0713  -15.9224   21.9989 N   0  0  0  0  0  0  0  0  0  0  0  0
  -22.3269  -18.6398   18.1096 N   0  0  0  0  0  0  0  0  0  0  0  0
  -21.8061  -23.1073   18.5177 N   0  0  0  0  0  0  0  0  0  0  0  0
  -25.6378  -15.3167   20.3431 N   0  0  0  0  0  0  0  0  0  0  0  0
  -27.4255  -24.5962   20.4775 N   0  0  0  0  0  0  0  0  0  0  0  0
  -29.5658  -19.8253   23.7181 N   0  0  0  0  0  0  0  0  0  0  0  0
  -30.0703  -16.2587   23.4146 N   0  3  0  0  0  0  0  0  0  0  0  0
  -21.9261  -21.3760   17.0188 O   0  0  0  0  0  0  0  0  0  0  0  0
  -28.4142  -23.0364   19.0590 O   0  0  0  0  0  0  0  0  0  0  0  0
  -28.0922  -22.5676   23.4897 O   0  0  0  0  0  0  0  0  0  0  0  0
  -31.4344  -18.6779   22.9640 O   0  0  0  0  0  0  0  0  0  0  0  0
  -25.4909  -14.1282   22.3300 O   0  0  0  0  0  0  0  0  0  0  0  0
  -21.6912  -25.9877   23.2848 O   0  0  0  0  0  0  0  0  0  0  0  0
  -28.7345  -17.7077   16.5740 O   0  0  0  0  0  0  0  0  0  1  0  0
  -17.7120  -29.4093   21.5930 F   0  0  0  0  0  0  0  0  0  0  0  0
  -21.6281  -26.9121   20.6802 F   0  0  0  0  0  0  0  0  0  0  0  0
  1  2  1  0  0  0  0
  1  5  2  0  0  0  0
  2  6  2  0  0  0  0
  3  8  2  0  0  0  0
  3 16  1  0  0  0  0
  4  9  1  0  0  0  0
  4 16  2  0  0  0  0
  5 18  1  0  0  0  0
  6 20  1  0  0  0  0
  7 10  2  0  0  0  0
  7 19  1  0  0  0  0
  8 24  1  0  0  0  0
  9 24  2  0  0  0  0
 10 25  1  0  0  0  0
 11 12  2  0  0  0  0
 11 26  1  0  0  0  0
 12 27  1  0  0  0  0
 13 21  1  0  0  0  0
 13 25  2  0  0  0  0
 14 22  2  0  0  0  0
 14 31  1  0  0  0  0
 15 27  2  0  0  0  0
 15 28  1  0  0  0  0
 16 29  1  0  0  0  0
 17 29  1  0  0  0  0
 17 32  2  0  0  0  0
 17 33  1  0  0  0  0
 18 20  2  0  0  0  0
 18 38  1  0  0  0  0
 19 21  2  0  0  0  0
 19 39  1  0  0  0  0
 20 47  1  0  0  0  0
 21 40  1  0  0  0  0
 22 23  1  0  0  0  0
 22 58  1  0  0  0  0
 23 30  2  0  0  0  0
 23 59  1  0  0  0  0
 24 83  1  0  0  0  0
 25 84  1  0  0  0  0
 26 28  2  0  0  0  0
 26 83  1  0  0  0  0
 27 85  1  0  0  0  0
 28 86  1  0  0  0  0
 29 67  2  0  0  0  0
 30 60  1  0  0  0  0
 30 68  1  0  0  0  0
 31 68  2  0  0  0  0
 31 74  1  0  0  0  0
 32 69  1  0  0  0  0
 32 72  1  0  0  0  0
 33 73  1  0  0  0  0
 33 78  2  0  0  0  0
 34 48  1  0  0  0  0
 34 75  1  0  0  0  0
 34 79  2  0  0  0  0
 35 63  1  0  0  0  0
 35 70  1  0  0  0  0
 35 80  2  0  0  0  0
 36 64  1  0  0  0  0
 36 76  1  0  0  0  0
 36 81  2  0  0  0  0
 37 71  1  0  0  0  0
 37 74  1  0  0  0  0
 37 82  2  0  0  0  0
 38 41  1  0  0  0  0
 39 48  1  0  0  0  0
 40 70  1  0  0  0  0
 41 43  1  0  0  0  0
 42 44  1  0  0  0  0
 42 45  1  0  0  0  0
 43 47  1  0  0  0  0
 44 49  1  0  0  0  0
 45 71  1  0  0  0  0
 46 49  1  0  0  0  0
 46 71  1  0  0  0  0
 47 75  1  0  0  0  0
 48 70  1  0  0  0  0
 49 69  1  0  0  0  0
 50 60  1  0  0  0  0
 51 64  1  0  0  0  0
 52 65  1  0  0  0  0
 53 65  1  0  0  0  0
 54 66  1  0  0  0  0
 55 66  1  0  0  0  0
 56 66  1  0  0  0  0
 57 77  1  0  0  0  0
 58 61  1  0  0  0  0
 59 65  1  0  0  0  0
 61 62  1  0  0  0  0
 62 84  1  0  0  0  0
 63 66  1  0  0  0  0
 63 76  1  0  0  0  0
 64 77  1  0  0  0  0
 67 69  1  0  0  0  0
M  CHG  1  77   1
M  ISO  4  37 100  62 101  74 100  84 101
M  END
> <Batch ID>
0093

> <Smiles>
CCc1nc([100NH:0][100C:0](=O)N2CCCC(n3nc(-c4ccc(Oc5ccc(F)cc5F)cc4)c(C(N)=O)c3N)C2)cc(CC[101CH2:1][101O:1]c2ccc3c(c2)CN(C(=O)C(NC(=O)C(C)NC)C(C)(C)C)C(C(=O)NC2CCCc4ccccc42)C3)c1CC(C)C

> <Shape>
0.203

> <Color>
0.064

> <Negative vol penalty>
0.000

$$$$

  -OEChem-04052319163D

 86 94  0     1  0  0  0  0  0999 V2000
  -23.9762   -8.7763   24.3507 C   0  0  0  0  0  0  0  0  0  0  0  0
  -24.7120   -9.5896   23.4949 C   0  0  0  0  0  0  0  0  0  0  0  0
  -22.2843  -28.3272   20.9894 C   0  0  0  0  0  0  0  0  0  0  0  0
  -23.4030  -27.4371   22.9371 C   0  0  0  0  0  0  0  0  0  0  0  0
  -22.5850   -8.8669   24.3721 C   0  0  0  0  0  0  0  0  0  0  0  0
  -24.0570  -10.4932   22.6590 C   0  0  0  0  0  0  0  0  0  0  0  0
  -26.2560  -15.0549   22.6267 C   0  0  0  0  0  0  0  0  0  0  0  0
  -21.0510  -28.1476   21.6157 C   0  0  0  0  0  0  0  0  0  0  0  0
  -22.1696  -27.2576   23.5634 C   0  0  0  0  0  0  0  0  0  0  0  0
  -27.4134  -15.1984   21.8629 C   0  0  0  0  0  0  0  0  0  0  0  0
  -19.1941  -29.7262   23.9594 C   0  0  0  0  0  0  0  0  0  0  0  0
  -18.2712  -30.7694   23.8848 C   0  0  0  0  0  0  0  0  0  0  0  0
  -26.1180  -16.2194   20.1027 C   0  0  0  0  0  0  0  0  0  0  0  0
  -30.4953  -20.3419   20.4034 C   0  0  0  0  0  0  0  0  0  0  0  0
  -16.7065  -29.3053   22.7689 C   0  0  0  0  0  0  0  0  0  0  0  0
  -23.4603  -27.9719   21.6501 C   0  0  0  0  0  0  0  0  0  0  0  0
  -25.5559  -29.2988   21.0539 C   0  0  0  0  0  0  0  0  0  0  0  0
  -21.9132   -9.7790   23.5430 C   0  0  0  0  0  0  0  0  0  0  0  0
  -25.0170  -15.4834   22.1290 C   0  0  0  0  0  0  0  0  0  0  0  0
  -22.6555  -10.5952   22.6683 C   0  0  0  0  0  0  0  0  0  0  0  0
  -24.9467  -16.0826   20.8632 C   0  0  0  0  0  0  0  0  0  0  0  0
  -29.8993  -21.4401   21.0133 C   0  0  0  0  0  0  0  0  0  0  0  0
  -28.8586  -21.2477   21.9151 C   0  0  0  0  0  0  0  0  0  0  0  0
  -20.9936  -27.6128   22.9027 C   0  0  0  0  0  0  0  0  0  0  0  0
  -27.3441  -15.7781   20.5995 C   0  0  0  0  0  0  0  0  0  0  0  0
  -18.8733  -28.4726   23.4387 C   0  0  0  0  0  0  0  0  0  0  0  0
  -17.0274  -30.5590   23.2896 C   0  0  0  0  0  0  0  0  0  0  0  0
  -17.6295  -28.2621   22.8435 C   0  0  0  0  0  0  0  0  0  0  0  0
  -24.7346  -28.1566   21.0034 C   0  0  0  0  0  0  0  0  0  0  0  0
  -30.0177  -19.0821   20.7267 C   0  0  0  0  0  0  0  0  0  0  0  0
  -28.4542  -19.9473   22.1706 C   0  0  0  0  0  0  0  0  0  0  0  0
  -26.6440  -28.9738   20.2814 C   0  0  0  0  0  0  0  0  0  0  0  0
  -25.3533  -30.5425   21.7380 C   0  0  0  0  0  0  0  0  0  0  0  0
  -22.2644  -14.0550   21.4313 C   0  0  0  0  0  0  0  0  0  0  0  0
  -21.2600  -17.0986   20.9315 C   0  0  0  0  0  0  0  0  0  0  0  0
  -22.0657  -20.3293   20.1830 C   0  0  0  0  0  0  0  0  0  0  0  0
  -29.1464  -23.7532   18.7534 C   0  0  0  0  0  0  0  0  0  0  0  0
  -20.4055   -9.8076   23.5671 C   0  0  0  0  0  0  0  0  0  0  0  0
  -23.7819  -15.3458   22.9763 C   0  0  0  0  0  0  0  0  0  0  0  0
  -23.6442  -16.5776   20.2914 C   0  0  0  0  0  0  0  0  0  0  0  0
  -19.8095  -11.0553   22.9202 C   0  0  0  0  0  0  0  0  0  0  0  0
  -27.9104  -26.2613   16.5492 C   0  0  0  0  0  0  0  0  0  0  0  0
  -20.4841  -11.3365   21.5813 C   0  0  0  0  0  0  0  0  0  0  0  0
  -27.0305  -27.1345   17.4453 C   0  0  0  0  0  0  0  0  0  0  0  0
  -27.8199  -24.7863   16.9341 C   0  0  0  0  0  0  0  0  0  0  0  0
  -27.2154  -25.3721   19.2504 C   0  0  0  0  0  0  0  0  0  0  0  0
  -21.9827  -11.6054   21.7644 C   0  0  1  0  0  0  0  0  0  0  0  0
  -22.4935  -15.3492   22.1594 C   0  0  1  0  0  0  0  0  0  0  0  0
  -27.3165  -26.8746   18.9366 C   0  0  2  0  0  0  0  0  0  0  0  0
  -28.2020  -22.4067   22.5865 C   0  0  0  0  0  0  0  0  0  0  0  0
  -21.0263  -22.5823   19.8071 C   0  0  0  0  0  0  0  0  0  0  0  0
  -26.6153  -19.2067   25.5288 C   0  0  0  0  0  0  0  0  0  0  0  0
  -28.8032  -18.3281   24.6892 C   0  0  0  0  0  0  0  0  0  0  0  0
  -20.3237  -16.2032   18.1690 C   0  0  0  0  0  0  0  0  0  0  0  0
  -20.1863  -18.6147   17.5105 C   0  0  0  0  0  0  0  0  0  0  0  0
  -18.7506  -17.7436   19.3551 C   0  0  0  0  0  0  0  0  0  0  0  0
  -23.5495  -21.5207   22.4497 C   0  0  0  0  0  0  0  0  0  0  0  0
  -30.3915  -22.8102   20.6819 C   0  0  0  0  0  0  0  0  0  0  0  0
  -30.6407  -17.8677   20.0858 C   0  0  0  0  0  0  0  0  0  0  0  0
  -27.3423  -19.6772   23.1311 C   0  0  0  0  0  0  0  0  0  0  0  0
  -29.9711  -17.4515   18.7743 C   0  0  0  0  0  0  0  0  0  0  0  0
  -28.5189  -17.0220   18.9477 C   0  0  0  0  0  0  0  0  0  1  0  0
  -21.2314  -18.0341   19.7470 C   0  0  1  0  0  0  0  0  0  0  0  0
  -21.6574  -21.6436   20.8236 C   0  0  2  0  0  0  0  0  0  0  0  0
  -27.7985  -19.4793   24.5966 C   0  0  0  0  0  0  0  0  0  0  0  0
  -20.1474  -17.6379   18.7051 C   0  0  0  0  0  0  0  0  0  0  0  0
  -25.2563  -27.1790   20.2576 N   0  0  0  0  0  0  0  0  0  0  0  0
  -29.0089  -18.8557   21.5977 N   0  0  0  0  0  0  0  0  0  0  0  0
  -26.4170  -27.7061   19.8323 N   0  0  0  0  0  0  0  0  0  0  0  0
  -22.4634  -16.4150   21.1556 N   0  0  0  0  0  0  0  0  0  0  0  0
  -28.1035  -24.6081   18.3602 N   0  0  0  0  0  0  0  0  0  0  0  0
  -27.7632  -29.6515   19.9492 N   0  0  0  0  0  0  0  0  0  0  0  0
  -24.1806  -30.7097   22.4871 N   0  0  0  0  0  0  0  0  0  0  0  0
  -22.1986  -12.9489   22.2570 N   0  0  0  0  0  0  0  0  0  0  0  0
  -21.0734  -19.3781   20.2920 N   0  0  0  0  0  0  0  0  0  0  0  0
  -29.3523  -23.6460   20.1233 N   0  0  0  0  0  0  0  0  0  0  0  0
  -22.8448  -22.3220   21.4160 N   0  3  0  0  0  0  0  0  0  0  0  0
  -26.1798  -31.4838   21.6732 O   0  0  0  0  0  0  0  0  0  0  0  0
  -22.1540  -14.0597   20.2108 O   0  0  0  0  0  0  0  0  0  0  0  0
  -20.2541  -16.9843   21.6363 O   0  0  0  0  0  0  0  0  0  0  0  0
  -23.1543  -20.1643   19.6369 O   0  0  0  0  0  0  0  0  0  0  0  0
  -29.8458  -23.1356   17.9433 O   0  0  0  0  0  0  0  0  0  0  0  0
  -19.7903  -27.4377   23.5143 O   0  0  0  0  0  0  0  0  0  0  0  0
  -28.4723  -15.9187   19.8516 O   0  0  0  0  0  0  0  0  0  1  0  0
  -16.1407  -31.5604   23.2194 F   0  0  0  0  0  0  0  0  0  0  0  0
  -17.3151  -27.0596   22.3426 F   0  0  0  0  0  0  0  0  0  0  0  0
  1  2  1  0  0  0  0
  1  5  2  0  0  0  0
  2  6  2  0  0  0  0
  3  8  2  0  0  0  0
  3 16  1  0  0  0  0
  4  9  1  0  0  0  0
  4 16  2  0  0  0  0
  5 18  1  0  0  0  0
  6 20  1  0  0  0  0
  7 10  2  0  0  0  0
  7 19  1  0  0  0  0
  8 24  1  0  0  0  0
  9 24  2  0  0  0  0
 10 25  1  0  0  0  0
 11 12  2  0  0  0  0
 11 26  1  0  0  0  0
 12 27  1  0  0  0  0
 13 21  1  0  0  0  0
 13 25  2  0  0  0  0
 14 22  2  0  0  0  0
 14 30  1  0  0  0  0
 15 27  2  0  0  0  0
 15 28  1  0  0  0  0
 16 29  1  0  0  0  0
 17 29  1  0  0  0  0
 17 32  2  0  0  0  0
 17 33  1  0  0  0  0
 18 20  2  0  0  0  0
 18 38  1  0  0  0  0
 19 21  2  0  0  0  0
 19 39  1  0  0  0  0
 20 47  1  0  0  0  0
 21 40  1  0  0  0  0
 22 23  1  0  0  0  0
 22 58  1  0  0  0  0
 23 31  2  0  0  0  0
 23 50  1  0  0  0  0
 24 83  1  0  0  0  0
 25 84  1  0  0  0  0
 26 28  2  0  0  0  0
 26 83  1  0  0  0  0
 27 85  1  0  0  0  0
 28 86  1  0  0  0  0
 29 67  2  0  0  0  0
 30 59  1  0  0  0  0
 30 68  2  0  0  0  0
 31 60  1  0  0  0  0
 31 68  1  0  0  0  0
 32 69  1  0  0  0  0
 32 72  1  0  0  0  0
 33 73  1  0  0  0  0
 33 78  2  0  0  0  0
 34 48  1  0  0  0  0
 34 74  1  0  0  0  0
 34 79  2  0  0  0  0
 35 63  1  0  0  0  0
 35 70  1  0  0  0  0
 35 80  2  0  0  0  0
 36 64  1  0  0  0  0
 36 75  1  0  0  0  0
 36 81  2  0  0  0  0
 37 71  1  0  0  0  0
 37 76  1  0  0  0  0
 37 82  2  0  0  0  0
 38 41  1  0  0  0  0
 39 48  1  0  0  0  0
 40 70  1  0  0  0  0
 41 43  1  0  0  0  0
 42 44  1  0  0  0  0
 42 45  1  0  0  0  0
 43 47  1  0  0  0  0
 44 49  1  0  0  0  0
 45 71  1  0  0  0  0
 46 49  1  0  0  0  0
 46 71  1  0  0  0  0
 47 74  1  0  0  0  0
 48 70  1  0  0  0  0
 49 69  1  0  0  0  0
 51 64  1  0  0  0  0
 52 65  1  0  0  0  0
 53 65  1  0  0  0  0
 54 66  1  0  0  0  0
 55 66  1  0  0  0  0
 56 66  1  0  0  0  0
 57 77  1  0  0  0  0
 58 76  1  0  0  0  0
 59 61  1  0  0  0  0
 60 65  1  0  0  0  0
 61 62  1  0  0  0  0
 62 84  1  0  0  0  0
 63 66  1  0  0  0  0
 63 75  1  0  0  0  0
 64 77  1  0  0  0  0
 67 69  1  0  0  0  0
M  CHG  1  77   1
M  ISO  4  37 100  62 101  76 100  84 101
M  END
> <Batch ID>
0093

> <Smiles>
CNC(C)C(=O)NC(C(=O)N1Cc2cc([101O:1][101CH2:1]CCc3cc(C[100NH:0][100C:0](=O)N4CCCC(n5nc(-c6ccc(Oc7ccc(F)cc7F)cc6)c(C(N)=O)c5N)C4)c(C)c(CC(C)C)n3)ccc2CC1C(=O)NC1CCCc2ccccc21)C(C)(C)C

> <Shape>
0.236

> <Color>
0.066

> <Negative vol penalty>
0.000

$$$$

  -OEChem-04052319163D

 85 93  0     1  0  0  0  0  0999 V2000
  -27.8281  -10.3261   21.3708 C   0  0  0  0  0  0  0  0  0  0  0  0
  -28.4760  -11.3683   20.7154 C   0  0  0  0  0  0  0  0  0  0  0  0
  -25.4098  -28.1686   19.4682 C   0  0  0  0  0  0  0  0  0  0  0  0
  -26.6928  -29.5161   21.0094 C   0  0  0  0  0  0  0  0  0  0  0  0
  -26.4437  -10.3597   21.5329 C   0  0  0  0  0  0  0  0  0  0  0  0
  -27.7397  -12.4442   20.2208 C   0  0  0  0  0  0  0  0  0  0  0  0
  -29.8825  -16.9109   21.2704 C   0  0  0  0  0  0  0  0  0  0  0  0
  -24.2292  -28.7057   19.9814 C   0  0  0  0  0  0  0  0  0  0  0  0
  -25.5122  -30.0533   21.5226 C   0  0  0  0  0  0  0  0  0  0  0  0
  -30.9651  -17.2987   20.4821 C   0  0  0  0  0  0  0  0  0  0  0  0
  -22.2679  -28.2659   22.6988 C   0  0  0  0  0  0  0  0  0  0  0  0
  -21.2211  -27.3854   22.9716 C   0  0  0  0  0  0  0  0  0  0  0  0
  -29.5066  -18.7200   19.1890 C   0  0  0  0  0  0  0  0  0  0  0  0
  -19.8147  -28.5723   21.4063 C   0  0  0  0  0  0  0  0  0  0  0  0
  -37.3867  -19.8678   22.1172 C   0  0  0  0  0  0  0  0  0  0  0  0
  -26.6416  -28.5738   19.9823 C   0  0  0  0  0  0  0  0  0  0  0  0
  -28.6268  -28.5163   18.3813 C   0  0  0  0  0  0  0  0  0  0  0  0
  -25.6912  -11.4413   21.0486 C   0  0  0  0  0  0  0  0  0  0  0  0
  -28.5997  -17.4173   21.0166 C   0  0  0  0  0  0  0  0  0  0  0  0
  -26.3438  -12.4917   20.3754 C   0  0  0  0  0  0  0  0  0  0  0  0
  -28.4099  -18.3390   19.9771 C   0  0  0  0  0  0  0  0  0  0  0  0
  -36.6864  -19.8088   20.9291 C   0  0  0  0  0  0  0  0  0  0  0  0
  -36.1571  -20.9860   20.4302 C   0  0  0  0  0  0  0  0  0  0  0  0
  -24.2804  -29.6481   21.0085 C   0  0  0  0  0  0  0  0  0  0  0  0
  -30.7767  -18.2011   19.4394 C   0  0  0  0  0  0  0  0  0  0  0  0
  -22.0881  -29.2997   21.7797 C   0  0  0  0  0  0  0  0  0  0  0  0
  -19.9945  -27.5385   22.3254 C   0  0  0  0  0  0  0  0  0  0  0  0
  -20.8615  -29.4529   21.1335 C   0  0  0  0  0  0  0  0  0  0  0  0
  -27.8615  -28.0189   19.4530 C   0  0  0  0  0  0  0  0  0  0  0  0
  -36.3629  -22.1442   21.1525 C   0  0  0  0  0  0  0  0  0  0  0  0
  -29.6783  -27.6392   18.2741 C   0  0  0  0  0  0  0  0  0  0  0  0
  -28.4070  -29.6683   17.5564 C   0  0  0  0  0  0  0  0  0  0  0  0
  -25.8095  -16.1428   20.1835 C   0  0  0  0  0  0  0  0  0  0  0  0
  -24.7347  -19.1702   20.6332 C   0  0  0  0  0  0  0  0  0  0  0  0
  -25.4384  -22.5077   20.7450 C   0  0  0  0  0  0  0  0  0  0  0  0
  -33.6953  -24.7246   20.5798 C   0  0  0  0  0  0  0  0  0  0  0  0
  -24.1915  -11.4105   21.2059 C   0  0  0  0  0  0  0  0  0  0  0  0
  -27.4473  -17.0095   21.8930 C   0  0  0  0  0  0  0  0  0  0  0  0
  -27.0565  -18.9274   19.6763 C   0  0  0  0  0  0  0  0  0  0  0  0
  -23.5277  -12.7669   20.9827 C   0  0  0  0  0  0  0  0  0  0  0  0
  -30.4465  -23.1356   20.4464 C   0  0  0  0  0  0  0  0  0  0  0  0
  -24.0763  -13.4288   19.7226 C   0  0  0  0  0  0  0  0  0  0  0  0
  -29.5447  -24.3171   20.0847 C   0  0  0  0  0  0  0  0  0  0  0  0
  -31.5588  -23.5609   21.4005 C   0  0  0  0  0  0  0  0  0  0  0  0
  -31.4981  -25.8707   20.5432 C   0  0  0  0  0  0  0  0  0  0  0  0
  -25.5826  -13.6880   19.8467 C   0  0  1  0  0  0  0  0  0  0  0  0
  -26.0905  -17.1936   21.2201 C   0  0  1  0  0  0  0  0  0  0  0  0
  -30.3669  -25.5105   19.5632 C   0  0  2  0  0  0  0  0  0  0  0  0
  -35.6246  -16.1388   20.3737 C   0  0  0  0  0  0  0  0  0  0  0  0
  -24.3476  -24.7401   21.0971 C   0  0  0  0  0  0  0  0  0  0  0  0
  -23.5622  -19.0383   17.8194 C   0  0  0  0  0  0  0  0  0  0  0  0
  -23.3428  -21.5319   17.8692 C   0  0  0  0  0  0  0  0  0  0  0  0
  -22.0874  -20.1380   19.5136 C   0  0  0  0  0  0  0  0  0  0  0  0
  -27.1086  -23.0791   23.1205 C   0  0  0  0  0  0  0  0  0  0  0  0
  -36.5199  -18.5069   20.2252 C   0  0  0  0  0  0  0  0  0  0  0  0
  -35.3804  -20.9996   19.1377 C   0  0  0  0  0  0  0  0  0  0  0  0
  -35.8227  -23.4512   20.6781 C   0  0  0  0  0  0  0  0  0  0  0  0
  -35.8249  -17.4562   21.1058 C   0  0  0  0  0  0  0  0  0  0  0  0
  -33.9547  -20.4520   19.2663 C   0  0  0  0  0  0  0  0  0  0  0  0
  -33.2098  -20.4022   17.9316 C   0  0  0  0  0  0  0  0  0  0  0  0
  -31.7859  -19.8912   18.1048 C   0  0  0  0  0  0  0  0  0  1  0  0
  -24.5905  -20.3940   19.7612 C   0  0  1  0  0  0  0  0  0  0  0  0
  -25.0768  -23.5800   21.7568 C   0  0  2  0  0  0  0  0  0  0  0  0
  -23.4210  -20.2632   18.7450 C   0  0  0  0  0  0  0  0  0  0  0  0
  -37.5728  -21.0155   22.8029 N   0  0  0  0  0  0  0  0  0  0  0  0
  -28.3823  -26.9116   19.9884 N   0  0  0  0  0  0  0  0  0  0  0  0
  -37.0522  -22.1724   22.3127 N   0  0  0  0  0  0  0  0  0  0  0  0
  -29.4862  -26.7059   19.2499 N   0  0  0  0  0  0  0  0  0  0  0  0
  -25.9600  -18.4928   20.5574 N   0  0  0  0  0  0  0  0  0  0  0  0
  -32.3147  -24.6882   20.8366 N   0  0  0  0  0  0  0  0  0  0  0  0
  -30.7393  -27.5829   17.4413 N   0  0  0  0  0  0  0  0  0  0  0  0
  -27.2775  -30.4606   17.8027 N   0  0  0  0  0  0  0  0  0  0  0  0
  -25.8290  -14.8506   20.6727 N   0  0  0  0  0  0  0  0  0  0  0  0
  -24.4692  -21.5298   20.6687 N   0  0  0  0  0  0  0  0  0  0  0  0
  -34.3973  -23.5668   20.8920 N   0  0  0  0  0  0  0  0  0  0  0  0
  -26.3060  -24.1093   22.4123 N   0  3  0  0  0  0  0  0  0  0  0  0
  -29.1802  -29.9762   16.6179 O   0  0  0  0  0  0  0  0  0  0  0  0
  -25.5896  -16.4795   19.0260 O   0  0  0  0  0  0  0  0  0  0  0  0
  -23.7975  -18.8319   21.3604 O   0  0  0  0  0  0  0  0  0  0  0  0
  -26.4750  -22.5367   20.0853 O   0  0  0  0  0  0  0  0  0  0  0  0
  -34.2603  -25.7144   20.1021 O   0  0  0  0  0  0  0  0  0  0  0  0
  -23.1286  -30.1726   21.5093 O   0  0  0  0  0  0  0  0  0  0  0  0
  -31.8315  -18.5808   18.6679 O   0  0  0  0  0  0  0  0  0  1  0  0
  -18.9898  -26.6920   22.5864 F   0  0  0  0  0  0  0  0  0  0  0  0
  -20.6832  -30.4434   20.2487 F   0  0  0  0  0  0  0  0  0  0  0  0
  1  2  1  0  0  0  0
  1  5  2  0  0  0  0
  2  6  2  0  0  0  0
  3  8  2  0  0  0  0
  3 16  1  0  0  0  0
  4  9  1  0  0  0  0
  4 16  2  0  0  0  0
  5 18  1  0  0  0  0
  6 20  1  0  0  0  0
  7 10  2  0  0  0  0
  7 19  1  0  0  0  0
  8 24  1  0  0  0  0
  9 24  2  0  0  0  0
 10 25  1  0  0  0  0
 11 12  2  0  0  0  0
 11 26  1  0  0  0  0
 12 27  1  0  0  0  0
 13 21  1  0  0  0  0
 13 25  2  0  0  0  0
 14 27  2  0  0  0  0
 14 28  1  0  0  0  0
 15 22  1  0  0  0  0
 15 65  2  0  0  0  0
 16 29  1  0  0  0  0
 17 29  1  0  0  0  0
 17 31  2  0  0  0  0
 17 32  1  0  0  0  0
 18 20  2  0  0  0  0
 18 37  1  0  0  0  0
 19 21  2  0  0  0  0
 19 38  1  0  0  0  0
 20 46  1  0  0  0  0
 21 39  1  0  0  0  0
 22 23  2  0  0  0  0
 22 55  1  0  0  0  0
 23 30  1  0  0  0  0
 23 56  1  0  0  0  0
 24 82  1  0  0  0  0
 25 83  1  0  0  0  0
 26 28  2  0  0  0  0
 26 82  1  0  0  0  0
 27 84  1  0  0  0  0
 28 85  1  0  0  0  0
 29 66  2  0  0  0  0
 30 57  1  0  0  0  0
 30 67  2  0  0  0  0
 31 68  1  0  0  0  0
 31 71  1  0  0  0  0
 32 72  1  0  0  0  0
 32 77  2  0  0  0  0
 33 47  1  0  0  0  0
 33 73  1  0  0  0  0
 33 78  2  0  0  0  0
 34 62  1  0  0  0  0
 34 69  1  0  0  0  0
 34 79  2  0  0  0  0
 35 63  1  0  0  0  0
 35 74  1  0  0  0  0
 35 80  2  0  0  0  0
 36 70  1  0  0  0  0
 36 75  1  0  0  0  0
 36 81  2  0  0  0  0
 37 40  1  0  0  0  0
 38 47  1  0  0  0  0
 39 69  1  0  0  0  0
 40 42  1  0  0  0  0
 41 43  1  0  0  0  0
 41 44  1  0  0  0  0
 42 46  1  0  0  0  0
 43 48  1  0  0  0  0
 44 70  1  0  0  0  0
 45 48  1  0  0  0  0
 45 70  1  0  0  0  0
 46 73  1  0  0  0  0
 47 69  1  0  0  0  0
 48 68  1  0  0  0  0
 49 58  1  0  0  0  0
 50 63  1  0  0  0  0
 51 64  1  0  0  0  0
 52 64  1  0  0  0  0
 53 64  1  0  0  0  0
 54 76  1  0  0  0  0
 55 58  1  0  0  0  0
 56 59  1  0  0  0  0
 57 75  1  0  0  0  0
 59 60  1  0  0  0  0
 60 61  1  0  0  0  0
 61 83  1  0  0  0  0
 62 64  1  0  0  0  0
 62 74  1  0  0  0  0
 63 76  1  0  0  0  0
 65 67  1  0  0  0  0
 66 68  1  0  0  0  0
M  CHG  1  76   1
M  ISO  4  36 100  61 101  75 100  83 101
M  END
> <Batch ID>
0093

> <Smiles>
CCCc1cnnc(C[100NH:0][100C:0](=O)N2CCCC(n3nc(-c4ccc(Oc5ccc(F)cc5F)cc4)c(C(N)=O)c3N)C2)c1CCC[101CH2:1][101O:1]c1ccc2c(c1)CN(C(=O)C(NC(=O)C(C)NC)C(C)(C)C)C(C(=O)NC1CCCc3ccccc31)C2

> <Shape>
0.215

> <Color>
0.056

> <Negative vol penalty>
0.000

$$$$

  -OEChem-04052319163D

 90 98  0     1  0  0  0  0  0999 V2000
  -33.2824  -32.0142   17.5533 C   0  0  0  0  0  0  0  0  0  0  0  0
  -32.0881  -31.5396   17.0231 C   0  0  0  0  0  0  0  0  0  0  0  0
  -24.3218   -9.7728   21.6655 C   0  0  0  0  0  0  0  0  0  0  0  0
  -24.6179  -10.9507   23.7540 C   0  0  0  0  0  0  0  0  0  0  0  0
  -33.7045  -31.5806   18.8083 C   0  0  0  0  0  0  0  0  0  0  0  0
  -31.3095  -30.6405   17.7527 C   0  0  0  0  0  0  0  0  0  0  0  0
  -25.5522  -26.3738   17.5110 C   0  0  0  0  0  0  0  0  0  0  0  0
  -23.9031   -8.6402   22.3636 C   0  0  0  0  0  0  0  0  0  0  0  0
  -24.1991   -9.8181   24.4522 C   0  0  0  0  0  0  0  0  0  0  0  0
  -25.1036  -25.0610   17.6483 C   0  0  0  0  0  0  0  0  0  0  0  0
  -21.0892   -7.5553   23.8927 C   0  0  0  0  0  0  0  0  0  0  0  0
  -19.9602   -6.8845   23.4225 C   0  0  0  0  0  0  0  0  0  0  0  0
  -25.2133  -25.2808   20.0481 C   0  0  0  0  0  0  0  0  0  0  0  0
  -21.2790   -4.8847   23.1086 C   0  0  0  0  0  0  0  0  0  0  0  0
  -28.6157  -23.2773   19.2325 C   0  0  0  0  0  0  0  0  0  0  0  0
  -24.6792  -10.9281   22.3607 C   0  0  0  0  0  0  0  0  0  0  0  0
  -24.3066  -13.1489   21.1620 C   0  0  0  0  0  0  0  0  0  0  0  0
  -32.9363  -30.6661   19.5476 C   0  0  0  0  0  0  0  0  0  0  0  0
  -25.8456  -27.1478   18.6429 C   0  0  0  0  0  0  0  0  0  0  0  0
  -31.7066  -30.2093   19.0314 C   0  0  0  0  0  0  0  0  0  0  0  0
  -25.6630  -26.6041   19.9224 C   0  0  0  0  0  0  0  0  0  0  0  0
  -29.7685  -23.1348   18.4922 C   0  0  0  0  0  0  0  0  0  0  0  0
  -30.0376  -21.7475   18.3911 C   0  0  0  0  0  0  0  0  0  0  0  0
  -23.8417   -8.6628   23.7570 C   0  0  0  0  0  0  0  0  0  0  0  0
  -24.9368  -24.5133   18.9169 C   0  0  0  0  0  0  0  0  0  0  0  0
  -22.3132   -6.8908   23.9708 C   0  0  0  0  0  0  0  0  0  0  0  0
  -20.0551   -5.5493   23.0305 C   0  0  0  0  0  0  0  0  0  0  0  0
  -22.4081   -5.5555   23.5788 C   0  0  0  0  0  0  0  0  0  0  0  0
  -25.1124  -12.0982   21.6401 C   0  0  0  0  0  0  0  0  0  0  0  0
  -29.0409  -21.0845   19.0726 C   0  0  0  0  0  0  0  0  0  0  0  0
  -25.1883  -14.0082   20.5533 C   0  0  0  0  0  0  0  0  0  0  0  0
  -22.8879  -13.3317   21.2595 C   0  0  0  0  0  0  0  0  0  0  0  0
  -28.4592  -28.5511   19.7847 C   0  0  0  0  0  0  0  0  0  0  0  0
  -26.3869  -29.7502   21.9735 C   0  0  0  0  0  0  0  0  0  0  0  0
  -23.4176  -29.4388   23.6265 C   0  0  0  0  0  0  0  0  0  0  0  0
  -30.0278  -16.7871   20.5055 C   0  0  0  0  0  0  0  0  0  0  0  0
  -33.4365  -30.2361   20.9041 C   0  0  0  0  0  0  0  0  0  0  0  0
  -26.3031  -28.5712   18.4783 C   0  0  0  0  0  0  0  0  0  0  0  0
  -25.9447  -27.3999   21.1698 C   0  0  0  0  0  0  0  0  0  0  0  0
  -32.7755  -28.9553   21.4030 C   0  0  0  0  0  0  0  0  0  0  0  0
  -30.0676  -13.4170   19.3579 C   0  0  0  0  0  0  0  0  0  0  0  0
  -31.2642  -29.0629   21.2658 C   0  0  0  0  0  0  0  0  0  0  0  0
  -28.7188  -12.8589   19.8152 C   0  0  0  0  0  0  0  0  0  0  0  0
  -30.6499  -14.3927   20.3781 C   0  0  0  0  0  0  0  0  0  0  0  0
  -28.3997  -14.9354   21.2242 C   0  0  0  0  0  0  0  0  0  0  0  0
  -30.8583  -29.2074   19.7936 C   0  0  1  0  0  0  0  0  0  0  0  0
  -27.0630  -29.0987   19.6914 C   0  0  1  0  0  0  0  0  0  0  0  0
  -27.7464  -13.9893   20.2022 C   0  0  2  0  0  0  0  0  0  0  0  0
  -30.7361  -20.2150   16.5157 C   0  0  0  0  0  0  0  0  0  0  0  0
  -32.1065  -20.3271   18.6286 C   0  0  0  0  0  0  0  0  0  0  0  0
  -22.0150  -30.5533   25.3839 C   0  0  0  0  0  0  0  0  0  0  0  0
  -30.8287  -25.6139   14.2518 C   0  0  0  0  0  0  0  0  0  0  0  0
  -30.8143  -26.9026   16.3964 C   0  0  0  0  0  0  0  0  0  0  0  0
  -24.4814  -21.4859   17.4072 C   0  0  0  0  0  0  0  0  0  0  0  0
  -28.2390  -28.6600   24.1394 C   0  0  0  0  0  0  0  0  0  0  0  0
  -26.3711  -28.9445   25.7820 C   0  0  0  0  0  0  0  0  0  0  0  0
  -27.3111  -30.9347   24.6081 C   0  0  0  0  0  0  0  0  0  0  0  0
  -21.1884  -29.8827   21.7311 C   0  0  0  0  0  0  0  0  0  0  0  0
  -30.5685  -24.2337   17.9155 C   0  0  0  0  0  0  0  0  0  0  0  0
  -28.8310  -19.6367   19.2850 C   0  0  0  0  0  0  0  0  0  0  0  0
  -30.3434  -24.3952   16.3948 C   0  0  0  0  0  0  0  0  0  0  0  0
  -25.7579  -21.2358   19.5665 C   0  0  0  0  0  0  0  0  0  0  0  0
  -26.9460  -21.7434   20.3962 C   0  0  0  0  0  0  0  0  0  0  0  0
  -29.2546  -19.1391   20.6780 C   0  0  0  0  0  0  0  0  0  0  0  0
  -31.1765  -21.1243   17.6856 C   0  0  0  0  0  0  0  0  0  0  0  0
  -25.8755  -29.2997   23.3205 C   0  0  1  0  0  0  0  0  0  0  0  0
  -22.3051  -30.4361   23.8957 C   0  0  2  0  0  0  0  0  0  0  0  0
  -31.1299  -25.5524   15.7514 C   0  0  0  0  0  0  0  0  0  0  0  0
  -25.3018  -22.2062   18.4698 C   0  0  2  0  0  0  0  0  0  1  0  0
  -26.9456  -29.4438   24.4392 C   0  0  0  0  0  0  0  0  0  0  0  0
  -26.4066  -12.2721   21.3592 N   0  0  0  0  0  0  0  0  0  0  0  0
  -28.1821  -22.0244   19.5796 N   0  0  0  0  0  0  0  0  0  0  0  0
  -26.4206  -13.4420   20.6979 N   0  0  0  0  0  0  0  0  0  0  0  0
  -26.3959  -28.7850   20.9565 N   0  0  0  0  0  0  0  0  0  0  0  0
  -29.6785  -15.4407   20.7008 N   0  0  0  0  0  0  0  0  0  0  0  0
  -25.0220  -15.1854   19.9138 N   0  0  0  0  0  0  0  0  0  0  0  0
  -22.1317  -12.3525   21.9181 N   0  0  0  0  0  0  0  0  0  0  0  0
  -29.4470  -29.5152   19.7210 N   0  0  0  0  0  0  0  0  0  0  0  0
  -24.6504  -30.0533   23.5648 N   0  0  0  0  0  0  0  0  0  0  0  0
  -29.0470  -17.7162   20.8303 N   0  0  0  0  0  0  0  0  0  0  0  0
  -21.0537  -30.0151   23.2046 N   0  3  0  0  0  0  0  0  0  0  0  0
  -22.3059  -14.3256   20.7626 O   0  0  0  0  0  0  0  0  0  0  0  0
  -28.6276  -27.3435   19.9071 O   0  0  0  0  0  0  0  0  0  0  0  0
  -26.7579  -30.9175   21.8270 O   0  0  0  0  0  0  0  0  0  0  0  0
  -23.2137  -28.2347   23.4888 O   0  0  0  0  0  0  0  0  0  0  0  0
  -31.1301  -17.1352   20.0687 O   0  0  0  0  0  0  0  0  0  0  0  0
  -23.4329   -7.5578   24.4385 O   0  0  0  0  0  0  0  0  0  0  0  0
  -24.4997  -23.2319   19.0538 O   0  0  0  0  0  0  0  0  0  1  0  0
  -18.9705   -4.9048   22.5805 F   0  0  0  0  0  0  0  0  0  0  0  0
  -23.5809   -4.9115   23.6527 F   0  0  0  0  0  0  0  0  0  0  0  0
  1  2  1  0  0  0  0
  1  5  2  0  0  0  0
  2  6  2  0  0  0  0
  3  8  2  0  0  0  0
  3 16  1  0  0  0  0
  4  9  1  0  0  0  0
  4 16  2  0  0  0  0
  5 18  1  0  0  0  0
  6 20  1  0  0  0  0
  7 10  2  0  0  0  0
  7 19  1  0  0  0  0
  8 24  1  0  0  0  0
  9 24  2  0  0  0  0
 10 25  1  0  0  0  0
 11 12  2  0  0  0  0
 11 26  1  0  0  0  0
 12 27  1  0  0  0  0
 13 21  1  0  0  0  0
 13 25  2  0  0  0  0
 14 27  2  0  0  0  0
 14 28  1  0  0  0  0
 15 22  2  0  0  0  0
 15 72  1  0  0  0  0
 16 29  1  0  0  0  0
 17 29  1  0  0  0  0
 17 31  2  0  0  0  0
 17 32  1  0  0  0  0
 18 20  2  0  0  0  0
 18 37  1  0  0  0  0
 19 21  2  0  0  0  0
 19 38  1  0  0  0  0
 20 46  1  0  0  0  0
 21 39  1  0  0  0  0
 22 23  1  0  0  0  0
 22 59  1  0  0  0  0
 23 30  2  0  0  0  0
 23 65  1  0  0  0  0
 24 87  1  0  0  0  0
 25 88  1  0  0  0  0
 26 28  2  0  0  0  0
 26 87  1  0  0  0  0
 27 89  1  0  0  0  0
 28 90  1  0  0  0  0
 29 71  2  0  0  0  0
 30 60  1  0  0  0  0
 30 72  1  0  0  0  0
 31 73  1  0  0  0  0
 31 76  1  0  0  0  0
 32 77  1  0  0  0  0
 32 82  2  0  0  0  0
 33 47  1  0  0  0  0
 33 78  1  0  0  0  0
 33 83  2  0  0  0  0
 34 66  1  0  0  0  0
 34 74  1  0  0  0  0
 34 84  2  0  0  0  0
 35 67  1  0  0  0  0
 35 79  1  0  0  0  0
 35 85  2  0  0  0  0
 36 75  1  0  0  0  0
 36 80  1  0  0  0  0
 36 86  2  0  0  0  0
 37 40  1  0  0  0  0
 38 47  1  0  0  0  0
 39 74  1  0  0  0  0
 40 42  1  0  0  0  0
 41 43  1  0  0  0  0
 41 44  1  0  0  0  0
 42 46  1  0  0  0  0
 43 48  1  0  0  0  0
 44 75  1  0  0  0  0
 45 48  1  0  0  0  0
 45 75  1  0  0  0  0
 46 78  1  0  0  0  0
 47 74  1  0  0  0  0
 48 73  1  0  0  0  0
 49 65  1  0  0  0  0
 50 65  1  0  0  0  0
 51 67  1  0  0  0  0
 52 68  1  0  0  0  0
 53 68  1  0  0  0  0
 54 69  1  0  0  0  0
 55 70  1  0  0  0  0
 56 70  1  0  0  0  0
 57 70  1  0  0  0  0
 58 81  1  0  0  0  0
 59 61  1  0  0  0  0
 60 64  1  0  0  0  0
 61 68  1  0  0  0  0
 62 63  1  0  0  0  0
 62 69  1  0  0  0  0
 63 72  1  0  0  0  0
 64 80  1  0  0  0  0
 66 70  1  0  0  0  0
 66 79  1  0  0  0  0
 67 81  1  0  0  0  0
 69 88  1  0  0  0  0
 71 73  1  0  0  0  0
M  CHG  1  81   1
M  ISO  4  36 100  69 101  80 100  88 101
M  END
> <Batch ID>
0093

> <Smiles>
CNC(C)C(=O)NC(C(=O)N1Cc2cc([101O:1][101CH:1](C)CCn3cc(CCC(C)C)c(C(C)C)c3CC[100NH:0][100C:0](=O)N3CCCC(n4nc(-c5ccc(Oc6ccc(F)cc6F)cc5)c(C(N)=O)c4N)C3)ccc2CC1C(=O)NC1CCCc2ccccc21)C(C)(C)C

> <Shape>
0.287

> <Color>
0.149

> <Negative vol penalty>
0.000

$$$$

  -OEChem-04052319163D

 84 92  0     1  0  0  0  0  0999 V2000
  -25.1363  -31.4524   24.5416 C   0  0  0  0  0  0  0  0  0  0  0  0
  -25.1249  -30.0801   24.7696 C   0  0  0  0  0  0  0  0  0  0  0  0
  -23.1732   -9.7371   19.9329 C   0  0  0  0  0  0  0  0  0  0  0  0
  -23.8362   -9.8560   22.2532 C   0  0  0  0  0  0  0  0  0  0  0  0
  -25.1619  -31.9407   23.2359 C   0  0  0  0  0  0  0  0  0  0  0  0
  -25.1380  -29.1952   23.6920 C   0  0  0  0  0  0  0  0  0  0  0  0
  -27.8846  -23.7267   23.4517 C   0  0  0  0  0  0  0  0  0  0  0  0
  -22.4813   -8.5539   20.1913 C   0  0  0  0  0  0  0  0  0  0  0  0
  -23.1441   -8.6728   22.5115 C   0  0  0  0  0  0  0  0  0  0  0  0
  -27.4062  -22.4285   23.6229 C   0  0  0  0  0  0  0  0  0  0  0  0
  -23.6319   -5.3556   22.0766 C   0  0  0  0  0  0  0  0  0  0  0  0
  -24.2702   -4.3877   22.8520 C   0  0  0  0  0  0  0  0  0  0  0  0
  -27.1640  -22.2090   21.2329 C   0  0  0  0  0  0  0  0  0  0  0  0
  -22.4929   -4.5223   24.4830 C   0  0  0  0  0  0  0  0  0  0  0  0
  -30.2041  -19.2653   22.8798 C   0  0  0  0  0  0  0  0  0  0  0  0
  -23.8508  -10.3882   20.9639 C   0  0  0  0  0  0  0  0  0  0  0  0
  -24.0642  -12.9231   20.7739 C   0  0  0  0  0  0  0  0  0  0  0  0
  -25.1851  -31.0614   22.1419 C   0  0  0  0  0  0  0  0  0  0  0  0
  -27.9962  -24.2807   22.1683 C   0  0  0  0  0  0  0  0  0  0  0  0
  -25.1626  -29.6723   22.3704 C   0  0  0  0  0  0  0  0  0  0  0  0
  -27.6465  -23.5136   21.0479 C   0  0  0  0  0  0  0  0  0  0  0  0
  -29.4176  -18.1496   22.7276 C   0  0  0  0  0  0  0  0  0  0  0  0
  -22.4667   -8.0218   21.4806 C   0  0  0  0  0  0  0  0  0  0  0  0
  -27.0430  -21.6704   22.5136 C   0  0  0  0  0  0  0  0  0  0  0  0
  -22.4242   -5.9070   22.5044 C   0  0  0  0  0  0  0  0  0  0  0  0
  -23.7007   -3.9710   24.0552 C   0  0  0  0  0  0  0  0  0  0  0  0
  -21.8546   -5.4903   23.7076 C   0  0  0  0  0  0  0  0  0  0  0  0
  -24.5662  -11.6101   20.6975 C   0  0  0  0  0  0  0  0  0  0  0  0
  -30.2007  -17.2694   21.9570 C   0  0  0  0  0  0  0  0  0  0  0  0
  -25.1296  -13.7187   20.4296 C   0  0  0  0  0  0  0  0  0  0  0  0
  -22.7521  -13.3825   21.1247 C   0  0  0  0  0  0  0  0  0  0  0  0
  -26.6918  -26.7661   20.6767 C   0  0  0  0  0  0  0  0  0  0  0  0
  -28.7757  -25.9533   18.3274 C   0  0  0  0  0  0  0  0  0  0  0  0
  -30.6898  -23.5387   16.8603 C   0  0  0  0  0  0  0  0  0  0  0  0
  -30.5213  -15.0620   20.7862 C   0  0  0  0  0  0  0  0  0  0  0  0
  -25.1647  -31.6365   20.7478 C   0  0  0  0  0  0  0  0  0  0  0  0
  -28.5393  -25.6731   21.9988 C   0  0  0  0  0  0  0  0  0  0  0  0
  -27.7667  -24.0547   19.6475 C   0  0  0  0  0  0  0  0  0  0  0  0
  -25.5558  -30.6306   19.6682 C   0  0  0  0  0  0  0  0  0  0  0  0
  -29.6343  -12.5193   18.4570 C   0  0  0  0  0  0  0  0  0  0  0  0
  -24.8251  -29.3085   19.8805 C   0  0  0  0  0  0  0  0  0  0  0  0
  -28.1954  -12.1641   18.8386 C   0  0  0  0  0  0  0  0  0  0  0  0
  -30.4856  -12.8342   19.6858 C   0  0  0  0  0  0  0  0  0  0  0  0
  -28.4876  -13.4975   20.9654 C   0  0  0  0  0  0  0  0  0  0  0  0
  -25.2012  -28.6805   21.2280 C   0  0  1  0  0  0  0  0  0  0  0  0
  -28.1263  -26.3190   20.6799 C   0  0  1  0  0  0  0  0  0  0  0  0
  -27.5749  -13.2356   19.7564 C   0  0  2  0  0  0  0  0  0  0  0  0
  -32.2535  -23.1648   14.9336 C   0  0  0  0  0  0  0  0  0  0  0  0
  -35.5269  -20.4050   22.1572 C   0  0  0  0  0  0  0  0  0  0  0  0
  -35.3166  -20.8419   24.6119 C   0  0  0  0  0  0  0  0  0  0  0  0
  -26.3991  -25.8854   16.4150 C   0  0  0  0  0  0  0  0  0  0  0  0
  -27.8262  -24.6146   14.7974 C   0  0  0  0  0  0  0  0  0  0  0  0
  -28.4672  -26.9290   15.4724 C   0  0  0  0  0  0  0  0  0  0  0  0
  -32.9276  -22.8309   18.6632 C   0  0  0  0  0  0  0  0  0  0  0  0
  -28.0281  -17.9352   23.2726 C   0  0  0  0  0  0  0  0  0  0  0  0
  -26.9257  -18.0741   22.2205 C   0  0  0  0  0  0  0  0  0  0  0  0
  -33.3432  -19.9024   23.3736 C   0  0  0  0  0  0  0  0  0  0  0  0
  -32.5047  -19.8734   22.0941 C   0  0  0  0  0  0  0  0  0  0  0  0
  -26.8320  -19.4743   21.6255 C   0  0  0  0  0  0  0  0  0  1  0  0
  -28.7308  -25.0370   17.1285 C   0  0  1  0  0  0  0  0  0  0  0  0
  -32.1372  -23.5405   16.4026 C   0  0  2  0  0  0  0  0  0  0  0  0
  -34.5715  -20.8247   23.2751 C   0  0  0  0  0  0  0  0  0  0  0  0
  -27.8516  -25.6067   15.9797 C   0  0  0  0  0  0  0  0  0  0  0  0
  -25.8506  -11.5696   20.3332 N   0  0  0  0  0  0  0  0  0  0  0  0
  -31.3931  -17.7819   21.6414 N   0  0  0  0  0  0  0  0  0  0  0  0
  -31.3651  -18.9962   22.2165 N   0  0  0  0  0  0  0  0  0  0  0  0
  -26.1646  -12.8670   20.1774 N   0  0  0  0  0  0  0  0  0  0  0  0
  -28.2969  -25.4234   19.5340 N   0  0  0  0  0  0  0  0  0  0  0  0
  -29.8374  -13.8602   20.5056 N   0  0  0  0  0  0  0  0  0  0  0  0
  -25.2726  -15.0566   20.3209 N   0  0  0  0  0  0  0  0  0  0  0  0
  -21.7763  -12.4311   21.4516 N   0  0  0  0  0  0  0  0  0  0  0  0
  -29.7929  -15.9758   21.5470 N   0  0  0  0  0  0  0  0  0  0  0  0
  -26.5021  -28.0515   21.1470 N   0  0  0  0  0  0  0  0  0  0  0  0
  -30.1184  -24.7889   16.7523 N   0  0  0  0  0  0  0  0  0  0  0  0
  -32.9343  -22.5670   17.2013 N   0  3  0  0  0  0  0  0  0  0  0  0
  -22.4494  -14.5998   21.1318 O   0  0  0  0  0  0  0  0  0  0  0  0
  -25.8217  -26.0020   20.2758 O   0  0  0  0  0  0  0  0  0  0  0  0
  -29.2257  -27.0947   18.1996 O   0  0  0  0  0  0  0  0  0  0  0  0
  -30.1218  -22.5284   17.2691 O   0  0  0  0  0  0  0  0  0  0  0  0
  -31.6584  -15.2767   20.3584 O   0  0  0  0  0  0  0  0  0  0  0  0
  -21.7913   -6.8673   21.7331 O   0  0  0  0  0  0  0  0  0  0  0  0
  -26.5751  -20.4031   22.6780 O   0  0  0  0  0  0  0  0  0  1  0  0
  -24.3129   -3.0403   24.7990 F   0  0  0  0  0  0  0  0  0  0  0  0
  -20.6939   -6.0155   24.1232 F   0  0  0  0  0  0  0  0  0  0  0  0
  1  2  1  0  0  0  0
  1  5  2  0  0  0  0
  2  6  2  0  0  0  0
  3  8  2  0  0  0  0
  3 16  1  0  0  0  0
  4  9  1  0  0  0  0
  4 16  2  0  0  0  0
  5 18  1  0  0  0  0
  6 20  1  0  0  0  0
  7 10  2  0  0  0  0
  7 19  1  0  0  0  0
  8 23  1  0  0  0  0
  9 23  2  0  0  0  0
 10 24  1  0  0  0  0
 11 12  2  0  0  0  0
 11 25  1  0  0  0  0
 12 26  1  0  0  0  0
 13 21  1  0  0  0  0
 13 24  2  0  0  0  0
 14 26  2  0  0  0  0
 14 27  1  0  0  0  0
 15 22  2  0  0  0  0
 15 66  1  0  0  0  0
 16 28  1  0  0  0  0
 17 28  1  0  0  0  0
 17 30  2  0  0  0  0
 17 31  1  0  0  0  0
 18 20  2  0  0  0  0
 18 36  1  0  0  0  0
 19 21  2  0  0  0  0
 19 37  1  0  0  0  0
 20 45  1  0  0  0  0
 21 38  1  0  0  0  0
 22 29  1  0  0  0  0
 22 55  1  0  0  0  0
 23 81  1  0  0  0  0
 24 82  1  0  0  0  0
 25 27  2  0  0  0  0
 25 81  1  0  0  0  0
 26 83  1  0  0  0  0
 27 84  1  0  0  0  0
 28 64  2  0  0  0  0
 29 65  2  0  0  0  0
 29 72  1  0  0  0  0
 30 67  1  0  0  0  0
 30 70  1  0  0  0  0
 31 71  1  0  0  0  0
 31 76  2  0  0  0  0
 32 46  1  0  0  0  0
 32 73  1  0  0  0  0
 32 77  2  0  0  0  0
 33 60  1  0  0  0  0
 33 68  1  0  0  0  0
 33 78  2  0  0  0  0
 34 61  1  0  0  0  0
 34 74  1  0  0  0  0
 34 79  2  0  0  0  0
 35 69  1  0  0  0  0
 35 72  1  0  0  0  0
 35 80  2  0  0  0  0
 36 39  1  0  0  0  0
 37 46  1  0  0  0  0
 38 68  1  0  0  0  0
 39 41  1  0  0  0  0
 40 42  1  0  0  0  0
 40 43  1  0  0  0  0
 41 45  1  0  0  0  0
 42 47  1  0  0  0  0
 43 69  1  0  0  0  0
 44 47  1  0  0  0  0
 44 69  1  0  0  0  0
 45 73  1  0  0  0  0
 46 68  1  0  0  0  0
 47 67  1  0  0  0  0
 48 61  1  0  0  0  0
 49 62  1  0  0  0  0
 50 62  1  0  0  0  0
 51 63  1  0  0  0  0
 52 63  1  0  0  0  0
 53 63  1  0  0  0  0
 54 75  1  0  0  0  0
 55 56  1  0  0  0  0
 56 59  1  0  0  0  0
 57 58  1  0  0  0  0
 57 62  1  0  0  0  0
 58 66  1  0  0  0  0
 59 82  1  0  0  0  0
 60 63  1  0  0  0  0
 60 74  1  0  0  0  0
 61 75  1  0  0  0  0
 64 67  1  0  0  0  0
 65 66  1  0  0  0  0
M  CHG  1  75   1
M  ISO  4  35 100  59 101  72 100  82 101
M  END
> <Batch ID>
0093

> <Smiles>
CNC(C)C(=O)NC(C(=O)N1Cc2cc([101O:1][101CH2:1]CCc3cn(CCC(C)C)nc3[100NH:0][100C:0](=O)N3CCCC(n4nc(-c5ccc(Oc6ccc(F)cc6F)cc5)c(C(N)=O)c4N)C3)ccc2CC1C(=O)NC1CCCc2ccccc21)C(C)(C)C

> <Shape>
0.294

> <Color>
0.207

> <Negative vol penalty>
0.000

$$$$
