
  -OEChem-04052319193D

 90 98  0     1  0  0  0  0  0999 V2000
  -17.0097  -30.2946   23.4958 C   0  0  0  0  0  0  0  0  0  0  0  0
  -18.3200  -30.7429   23.3639 C   0  0  0  0  0  0  0  0  0  0  0  0
  -25.5107  -13.2036   21.9777 C   0  0  0  0  0  0  0  0  0  0  0  0
  -25.6117  -13.8538   19.6530 C   0  0  0  0  0  0  0  0  0  0  0  0
  -16.7286  -28.9316   23.4112 C   0  0  0  0  0  0  0  0  0  0  0  0
  -19.3503  -29.8283   23.1484 C   0  0  0  0  0  0  0  0  0  0  0  0
  -25.6498  -29.2031   19.7955 C   0  0  0  0  0  0  0  0  0  0  0  0
  -24.8262  -12.0412   21.6229 C   0  0  0  0  0  0  0  0  0  0  0  0
  -24.9272  -12.6913   19.2982 C   0  0  0  0  0  0  0  0  0  0  0  0
  -26.9711  -28.8350   20.0454 C   0  0  0  0  0  0  0  0  0  0  0  0
  -21.7351  -11.5770   19.3127 C   0  0  0  0  0  0  0  0  0  0  0  0
  -20.6924  -11.6939   18.3937 C   0  0  0  0  0  0  0  0  0  0  0  0
  -31.0786  -21.7858   20.4720 C   0  0  0  0  0  0  0  0  0  0  0  0
  -26.3567  -26.5115   19.8376 C   0  0  0  0  0  0  0  0  0  0  0  0
  -21.8445  -10.1893   16.8951 C   0  0  0  0  0  0  0  0  0  0  0  0
  -32.2621  -21.3931   19.8678 C   0  0  0  0  0  0  0  0  0  0  0  0
  -25.9034  -14.1099   20.9927 C   0  0  0  0  0  0  0  0  0  0  0  0
  -28.0037  -15.4784   21.4657 C   0  0  0  0  0  0  0  0  0  0  0  0
  -17.7547  -28.0007   23.1848 C   0  0  0  0  0  0  0  0  0  0  0  0
  -24.6682  -28.2261   19.5752 C   0  0  0  0  0  0  0  0  0  0  0  0
  -19.0829  -28.4515   23.0619 C   0  0  0  0  0  0  0  0  0  0  0  0
  -25.0242  -26.8699   19.5826 C   0  0  0  0  0  0  0  0  0  0  0  0
  -30.2685  -22.6879   19.7914 C   0  0  0  0  0  0  0  0  0  0  0  0
  -30.6611  -23.1632   18.5451 C   0  0  0  0  0  0  0  0  0  0  0  0
  -24.5345  -11.7850   20.2832 C   0  0  0  0  0  0  0  0  0  0  0  0
  -27.3242  -27.4889   20.0694 C   0  0  0  0  0  0  0  0  0  0  0  0
  -22.8327  -10.7664   19.0229 C   0  0  0  0  0  0  0  0  0  0  0  0
  -20.7470  -11.0001   17.1849 C   0  0  0  0  0  0  0  0  0  0  0  0
  -22.8873  -10.0725   17.8141 C   0  0  0  0  0  0  0  0  0  0  0  0
  -26.6100  -15.3111   21.3586 C   0  0  0  0  0  0  0  0  0  0  0  0
  -31.8634  -22.7090   18.0273 C   0  0  0  0  0  0  0  0  0  0  0  0
  -28.1644  -16.7904   21.8387 C   0  0  0  0  0  0  0  0  0  0  0  0
  -29.0587  -14.5323   21.2474 C   0  0  0  0  0  0  0  0  0  0  0  0
  -21.9869  -27.3677   21.0507 C   0  0  0  0  0  0  0  0  0  0  0  0
  -21.6648  -25.4059   18.4875 C   0  0  0  0  0  0  0  0  0  0  0  0
  -23.1612  -23.7005   15.9382 C   0  0  0  0  0  0  0  0  0  0  0  0
  -26.8696  -22.1934   21.3121 C   0  0  0  0  0  0  0  0  0  0  0  0
  -17.4084  -26.5332   23.1479 C   0  0  0  0  0  0  0  0  0  0  0  0
  -23.2527  -28.6405   19.2805 C   0  0  0  0  0  0  0  0  0  0  0  0
  -24.0121  -25.7830   19.3320 C   0  0  0  0  0  0  0  0  0  0  0  0
  -18.5075  -25.6630   22.5440 C   0  0  0  0  0  0  0  0  0  0  0  0
  -24.7775  -20.2079   23.3997 C   0  0  0  0  0  0  0  0  0  0  0  0
  -19.8661  -26.0373   23.1279 C   0  0  0  0  0  0  0  0  0  0  0  0
  -25.1783  -18.7715   23.0590 C   0  0  0  0  0  0  0  0  0  0  0  0
  -24.8127  -21.1107   22.1685 C   0  0  0  0  0  0  0  0  0  0  0  0
  -26.4894  -19.6632   21.0880 C   0  0  0  0  0  0  0  0  0  0  0  0
  -20.2244  -27.4924   22.8025 C   0  0  1  0  0  0  0  0  0  0  0  0
  -22.2347  -27.5443   19.5793 C   0  0  1  0  0  0  0  0  0  0  0  0
  -26.5230  -18.7275   22.3085 C   0  0  2  0  0  0  0  0  0  0  0  0
  -32.3373  -23.1845   16.6928 C   0  0  0  0  0  0  0  0  0  0  0  0
  -28.4029  -23.6021   17.4959 C   0  0  0  0  0  0  0  0  0  0  0  0
  -22.6425  -22.1539   14.0313 C   0  0  0  0  0  0  0  0  0  0  0  0
  -33.2506  -27.1261   16.6106 C   0  0  0  0  0  0  0  0  0  0  0  0
  -31.8080  -28.7369   15.3534 C   0  0  0  0  0  0  0  0  0  0  0  0
  -31.4488  -26.5525   20.8242 C   0  0  0  0  0  0  0  0  0  0  0  0
  -21.3291  -23.0974   20.4543 C   0  0  0  0  0  0  0  0  0  0  0  0
  -21.7680  -21.5151   18.5644 C   0  0  0  0  0  0  0  0  0  0  0  0
  -19.7846  -23.0261   18.4886 C   0  0  0  0  0  0  0  0  0  0  0  0
  -24.1941  -25.6267   13.9428 C   0  0  0  0  0  0  0  0  0  0  0  0
  -28.9870  -23.1292   20.4176 C   0  0  0  0  0  0  0  0  0  0  0  0
  -30.7699  -27.0918   17.0145 C   0  0  0  0  0  0  0  0  0  0  0  0
  -29.6320  -28.0375   19.8991 C   0  0  0  0  0  0  0  0  0  1  0  0
  -29.8011  -24.1442   17.7822 C   0  0  1  0  0  0  0  0  0  0  0  0
  -22.0957  -23.9969   18.1588 C   0  0  1  0  0  0  0  0  0  0  0  0
  -22.8277  -23.6010   14.4606 C   0  0  2  0  0  0  0  0  0  0  0  0
  -31.9831  -27.9847   16.6730 C   0  0  0  0  0  0  0  0  0  0  0  0
  -30.9378  -27.2921   19.5770 C   0  0  2  0  0  0  0  0  0  0  0  0
  -30.8428  -26.3404   18.3566 C   0  0  1  0  0  0  0  0  0  0  0  0
  -21.2633  -22.9290   18.9232 C   0  0  0  0  0  0  0  0  0  0  0  0
  -32.6768  -21.8331   18.6587 N   0  0  0  0  0  0  0  0  0  0  0  0
  -25.9335  -16.4277   21.6410 N   0  0  0  0  0  0  0  0  0  0  0  0
  -26.9062  -17.3090   21.9292 N   0  0  0  0  0  0  0  0  0  0  0  0
  -22.6398  -26.2385   19.0547 N   0  0  0  0  0  0  0  0  0  0  0  0
  -26.1152  -21.0241   21.5037 N   0  0  0  0  0  0  0  0  0  0  0  0
  -29.2578  -17.5396   22.0950 N   0  0  0  0  0  0  0  0  0  0  0  0
  -28.7176  -13.2269   20.8683 N   0  0  0  0  0  0  0  0  0  0  0  0
  -20.6810  -27.6067   21.4340 N   0  0  0  0  0  0  0  0  0  0  0  0
  -22.0299  -23.8783   16.7062 N   0  0  0  0  0  0  0  0  0  0  0  0
  -28.0949  -22.0218   20.6797 N   0  0  0  0  0  0  0  0  0  0  0  0
  -23.9204  -24.1980   13.6416 N   0  3  0  0  0  0  0  0  0  0  0  0
  -29.6568  -25.4458   18.4830 N   0  3  0  0  0  0  0  0  0  0  0  0
  -30.2673  -14.8312   21.4004 O   0  0  0  0  0  0  0  0  0  0  0  0
  -22.9117  -27.0375   21.7838 O   0  0  0  0  0  0  0  0  0  0  0  0
  -20.5077  -25.7570   18.2432 O   0  0  0  0  0  0  0  0  0  0  0  0
  -24.3099  -23.6241   16.3684 O   0  0  0  0  0  0  0  0  0  0  0  0
  -26.4825  -23.3069   21.6824 O   0  0  0  0  0  0  0  0  0  0  0  0
  -23.8668  -10.6508   19.9366 O   0  0  0  0  0  0  0  0  0  0  0  0
  -28.6210  -27.1246   20.3153 O   0  0  0  0  0  0  0  0  0  1  0  0
  -19.7448  -11.1112   16.3032 F   0  0  0  0  0  0  0  0  0  0  0  0
  -23.9385   -9.2912   17.5305 F   0  0  0  0  0  0  0  0  0  0  0  0
  1  2  1  0  0  0  0
  1  5  2  0  0  0  0
  2  6  2  0  0  0  0
  3  8  2  0  0  0  0
  3 17  1  0  0  0  0
  4  9  1  0  0  0  0
  4 17  2  0  0  0  0
  5 19  1  0  0  0  0
  6 21  1  0  0  0  0
  7 10  2  0  0  0  0
  7 20  1  0  0  0  0
  8 25  1  0  0  0  0
  9 25  2  0  0  0  0
 10 26  1  0  0  0  0
 11 12  2  0  0  0  0
 11 27  1  0  0  0  0
 12 28  1  0  0  0  0
 13 16  1  0  0  0  0
 13 23  2  0  0  0  0
 14 22  1  0  0  0  0
 14 26  2  0  0  0  0
 15 28  2  0  0  0  0
 15 29  1  0  0  0  0
 16 70  2  0  0  0  0
 17 30  1  0  0  0  0
 18 30  1  0  0  0  0
 18 32  2  0  0  0  0
 18 33  1  0  0  0  0
 19 21  2  0  0  0  0
 19 38  1  0  0  0  0
 20 22  2  0  0  0  0
 20 39  1  0  0  0  0
 21 47  1  0  0  0  0
 22 40  1  0  0  0  0
 23 24  1  0  0  0  0
 23 60  1  0  0  0  0
 24 31  2  0  0  0  0
 24 63  1  0  0  0  0
 25 87  1  0  0  0  0
 26 88  1  0  0  0  0
 27 29  2  0  0  0  0
 27 87  1  0  0  0  0
 28 89  1  0  0  0  0
 29 90  1  0  0  0  0
 30 71  2  0  0  0  0
 31 50  1  0  0  0  0
 31 70  1  0  0  0  0
 32 72  1  0  0  0  0
 32 75  1  0  0  0  0
 33 76  1  0  0  0  0
 33 82  2  0  0  0  0
 34 48  1  0  0  0  0
 34 77  1  0  0  0  0
 34 83  2  0  0  0  0
 35 64  1  0  0  0  0
 35 73  1  0  0  0  0
 35 84  2  0  0  0  0
 36 65  1  0  0  0  0
 36 78  1  0  0  0  0
 36 85  2  0  0  0  0
 37 74  1  0  0  0  0
 37 79  1  0  0  0  0
 37 86  2  0  0  0  0
 38 41  1  0  0  0  0
 39 48  1  0  0  0  0
 40 73  1  0  0  0  0
 41 43  1  0  0  0  0
 42 44  1  0  0  0  0
 42 45  1  0  0  0  0
 43 47  1  0  0  0  0
 44 49  1  0  0  0  0
 45 74  1  0  0  0  0
 46 49  1  0  0  0  0
 46 74  1  0  0  0  0
 47 77  1  0  0  0  0
 48 73  1  0  0  0  0
 49 72  1  0  0  0  0
 51 63  1  0  0  0  0
 52 65  1  0  0  0  0
 53 66  1  0  0  0  0
 54 66  1  0  0  0  0
 55 67  1  0  0  0  0
 56 69  1  0  0  0  0
 57 69  1  0  0  0  0
 58 69  1  0  0  0  0
 59 80  1  0  0  0  0
 60 79  1  0  0  0  0
 61 66  1  0  0  0  0
 61 68  1  0  0  0  0
 62 67  1  0  0  0  0
 62 88  1  0  0  0  0
 63 81  1  0  0  0  0
 64 69  1  0  0  0  0
 64 78  1  0  0  0  0
 65 80  1  0  0  0  0
 67 68  1  0  0  0  0
 68 81  1  0  0  0  0
 71 72  1  0  0  0  0
M  CHG  2  80   1  81   1
M  ISO  4  37 100  62 101  79 100  88 101
M  END
> <Batch ID>
0094

> <Smiles>
CNC(C)C(=O)NC(C(=O)N1Cc2cc([101O:1][101CH2:1]C(C)C(CC(C)C)NC(C)c3c(C[100NH:0][100C:0](=O)N4CCCC(n5nc(-c6ccc(Oc7ccc(F)cc7F)cc6)c(C(N)=O)c5N)C4)ccnc3C)ccc2CC1C(=O)NC1CCCc2ccccc21)C(C)(C)C

> <Shape>
0.246

> <Color>
0.070

> <Negative vol penalty>
0.000

$$$$

  -OEChem-04052319193D

 91 99  0     1  0  0  0  0  0999 V2000
  -17.6198  -24.5282   22.8751 C   0  0  0  0  0  0  0  0  0  0  0  0
  -18.8872  -24.1520   22.4421 C   0  0  0  0  0  0  0  0  0  0  0  0
  -22.9517  -10.2237   20.9410 C   0  0  0  0  0  0  0  0  0  0  0  0
  -24.5700   -8.8934   22.1445 C   0  0  0  0  0  0  0  0  0  0  0  0
  -17.3292  -25.8746   23.0908 C   0  0  0  0  0  0  0  0  0  0  0  0
  -19.8646  -25.1222   22.2236 C   0  0  0  0  0  0  0  0  0  0  0  0
  -24.3619  -23.8184   24.1522 C   0  0  0  0  0  0  0  0  0  0  0  0
  -22.1294   -9.1047   20.8098 C   0  0  0  0  0  0  0  0  0  0  0  0
  -23.7476   -7.7743   22.0133 C   0  0  0  0  0  0  0  0  0  0  0  0
  -25.1224  -22.9000   23.4298 C   0  0  0  0  0  0  0  0  0  0  0  0
  -20.9696   -6.5400   23.4896 C   0  0  0  0  0  0  0  0  0  0  0  0
  -20.7786   -5.7422   24.6177 C   0  0  0  0  0  0  0  0  0  0  0  0
  -26.4451  -24.7081   22.5351 C   0  0  0  0  0  0  0  0  0  0  0  0
  -30.4355  -17.1063   24.1509 C   0  0  0  0  0  0  0  0  0  0  0  0
  -21.7190   -3.8532   23.4411 C   0  0  0  0  0  0  0  0  0  0  0  0
  -24.1720  -10.1180   21.6083 C   0  0  0  0  0  0  0  0  0  0  0  0
  -25.0173  -12.2144   22.7908 C   0  0  0  0  0  0  0  0  0  0  0  0
  -18.3064  -26.8610   22.8841 C   0  0  0  0  0  0  0  0  0  0  0  0
  -24.6308  -25.1918   24.0629 C   0  0  0  0  0  0  0  0  0  0  0  0
  -19.5864  -26.4833   22.4355 C   0  0  0  0  0  0  0  0  0  0  0  0
  -25.6882  -25.6417   23.2594 C   0  0  0  0  0  0  0  0  0  0  0  0
  -29.2175  -17.6428   24.5535 C   0  0  0  0  0  0  0  0  0  0  0  0
  -28.3642  -16.8920   25.3543 C   0  0  0  0  0  0  0  0  0  0  0  0
  -22.5273   -7.8800   21.3459 C   0  0  0  0  0  0  0  0  0  0  0  0
  -26.1623  -23.3450   22.6188 C   0  0  0  0  0  0  0  0  0  0  0  0
  -21.5353   -5.9944   22.3372 C   0  0  0  0  0  0  0  0  0  0  0  0
  -21.1533   -4.3988   24.5935 C   0  0  0  0  0  0  0  0  0  0  0  0
  -21.9100   -4.6510   22.3129 C   0  0  0  0  0  0  0  0  0  0  0  0
  -25.0222  -11.2734   21.7437 C   0  0  0  0  0  0  0  0  0  0  0  0
  -30.7508  -15.8247   24.5728 C   0  0  0  0  0  0  0  0  0  0  0  0
  -28.7721  -15.6199   25.7222 C   0  0  0  0  0  0  0  0  0  0  0  0
  -26.0041  -13.1083   22.4536 C   0  0  0  0  0  0  0  0  0  0  0  0
  -24.1945  -12.2750   23.9633 C   0  0  0  0  0  0  0  0  0  0  0  0
  -23.0038  -27.7362   23.0716 C   0  0  0  0  0  0  0  0  0  0  0  0
  -25.5789  -29.3434   24.2155 C   0  0  0  0  0  0  0  0  0  0  0  0
  -28.8918  -29.3005   25.0336 C   0  0  0  0  0  0  0  0  0  0  0  0
  -31.1452  -14.2037   20.5787 C   0  0  0  0  0  0  0  0  0  0  0  0
  -17.9313  -28.3079   23.0852 C   0  0  0  0  0  0  0  0  0  0  0  0
  -23.8183  -26.1675   24.8693 C   0  0  0  0  0  0  0  0  0  0  0  0
  -26.0306  -27.1039   23.1448 C   0  0  0  0  0  0  0  0  0  0  0  0
  -19.1353  -29.2404   23.1903 C   0  0  0  0  0  0  0  0  0  0  0  0
  -28.5965  -13.6813   18.1481 C   0  0  0  0  0  0  0  0  0  0  0  0
  -20.1445  -28.9355   22.0878 C   0  0  0  0  0  0  0  0  0  0  0  0
  -27.4421  -13.0804   18.9519 C   0  0  0  0  0  0  0  0  0  0  0  0
  -29.9517  -13.1947   18.6567 C   0  0  0  0  0  0  0  0  0  0  0  0
  -29.0244  -12.7921   20.9043 C   0  0  0  0  0  0  0  0  0  0  0  0
  -20.6807  -27.5042   22.2111 C   0  0  1  0  0  0  0  0  0  0  0  0
  -23.8510  -27.5837   24.3031 C   0  0  1  0  0  0  0  0  0  0  0  0
  -27.6395  -13.2969   20.4643 C   0  0  2  0  0  0  0  0  0  0  0  0
  -27.0525  -17.4424   25.8035 C   0  0  0  0  0  0  0  0  0  0  0  0
  -27.1962  -12.4037   27.1635 C   0  0  0  0  0  0  0  0  0  0  0  0
  -29.8291  -20.0545   24.7167 C   0  0  0  0  0  0  0  0  0  0  0  0
  -30.7242  -30.7754   25.9078 C   0  0  0  0  0  0  0  0  0  0  0  0
  -27.7268  -18.1689   21.9740 C   0  0  0  0  0  0  0  0  0  0  0  0
  -32.3121  -13.7644   24.6903 C   0  0  0  0  0  0  0  0  0  0  0  0
  -33.2452  -16.0633   24.7098 C   0  0  0  0  0  0  0  0  0  0  0  0
  -25.7935  -30.6904   21.4861 C   0  0  0  0  0  0  0  0  0  0  0  0
  -28.1202  -31.3893   22.0916 C   0  0  0  0  0  0  0  0  0  0  0  0
  -26.1841  -32.2104   23.4333 C   0  0  0  0  0  0  0  0  0  0  0  0
  -29.2923  -27.5885   27.4143 C   0  0  0  0  0  0  0  0  0  0  0  0
  -27.8991  -14.7662   26.5828 C   0  0  0  0  0  0  0  0  0  0  0  0
  -28.0604  -13.2731   26.2639 C   0  0  0  0  0  0  0  0  0  0  0  0
  -28.4177  -20.5961   22.0486 C   0  0  0  0  0  0  0  0  0  0  0  0
  -32.2207  -15.1599   22.6007 C   0  0  0  0  0  0  0  0  0  0  0  0
  -27.0613  -21.1480   22.4735 C   0  0  0  0  0  0  0  0  0  1  0  0
  -28.8421  -19.0502   24.1023 C   0  0  1  0  0  0  0  0  0  0  0  0
  -26.8997  -29.7944   23.6401 C   0  0  1  0  0  0  0  0  0  0  0  0
  -29.6306  -29.7823   26.2691 C   0  0  2  0  0  0  0  0  0  0  0  0
  -28.7414  -19.1708   22.5498 C   0  0  1  0  0  0  0  0  0  0  0  0
  -32.0502  -15.2173   24.1611 C   0  0  0  0  0  0  0  0  0  0  0  0
  -26.7419  -30.9937   22.6632 C   0  0  0  0  0  0  0  0  0  0  0  0
  -25.9392  -11.5444   20.8112 N   0  0  0  0  0  0  0  0  0  0  0  0
  -29.9476  -15.0650   25.3509 N   0  0  0  0  0  0  0  0  0  0  0  0
  -26.5197  -12.6658   21.2710 N   0  0  0  0  0  0  0  0  0  0  0  0
  -25.2031  -28.0193   23.9479 N   0  0  0  0  0  0  0  0  0  0  0  0
  -30.0759  -13.4306   20.0972 N   0  0  0  0  0  0  0  0  0  0  0  0
  -26.4724  -14.2218   23.0563 N   0  0  0  0  0  0  0  0  0  0  0  0
  -23.2299  -11.2764   24.1550 N   0  0  0  0  0  0  0  0  0  0  0  0
  -21.6713  -27.4245   23.2632 N   0  0  0  0  0  0  0  0  0  0  0  0
  -27.7710  -30.0622   24.7792 N   0  0  0  0  0  0  0  0  0  0  0  0
  -31.1850  -14.3837   21.9560 N   0  0  0  0  0  0  0  0  0  0  0  0
  -30.2566  -28.6318   26.9799 N   0  3  0  0  0  0  0  0  0  0  0  0
  -24.3000  -13.1968   24.8076 O   0  0  0  0  0  0  0  0  0  0  0  0
  -23.5205  -28.1104   22.0253 O   0  0  0  0  0  0  0  0  0  0  0  0
  -24.9087  -30.1344   24.8839 O   0  0  0  0  0  0  0  0  0  0  0  0
  -29.2731  -28.3463   24.3593 O   0  0  0  0  0  0  0  0  0  0  0  0
  -31.9981  -14.7013   19.8358 O   0  0  0  0  0  0  0  0  0  0  0  0
  -21.7250   -6.7880   21.2183 O   0  0  0  0  0  0  0  0  0  0  0  0
  -26.9058  -22.4507   21.9121 O   0  0  0  0  0  0  0  0  0  1  0  0
  -20.9712   -3.6332   25.6774 F   0  0  0  0  0  0  0  0  0  0  0  0
  -22.4550   -4.1216   21.2091 F   0  0  0  0  0  0  0  0  0  0  0  0
  1  2  1  0  0  0  0
  1  5  2  0  0  0  0
  2  6  2  0  0  0  0
  3  8  2  0  0  0  0
  3 16  1  0  0  0  0
  4  9  1  0  0  0  0
  4 16  2  0  0  0  0
  5 18  1  0  0  0  0
  6 20  1  0  0  0  0
  7 10  2  0  0  0  0
  7 19  1  0  0  0  0
  8 24  1  0  0  0  0
  9 24  2  0  0  0  0
 10 25  1  0  0  0  0
 11 12  2  0  0  0  0
 11 26  1  0  0  0  0
 12 27  1  0  0  0  0
 13 21  1  0  0  0  0
 13 25  2  0  0  0  0
 14 22  2  0  0  0  0
 14 30  1  0  0  0  0
 15 27  2  0  0  0  0
 15 28  1  0  0  0  0
 16 29  1  0  0  0  0
 17 29  1  0  0  0  0
 17 32  2  0  0  0  0
 17 33  1  0  0  0  0
 18 20  2  0  0  0  0
 18 38  1  0  0  0  0
 19 21  2  0  0  0  0
 19 39  1  0  0  0  0
 20 47  1  0  0  0  0
 21 40  1  0  0  0  0
 22 23  1  0  0  0  0
 22 66  1  0  0  0  0
 23 31  2  0  0  0  0
 23 50  1  0  0  0  0
 24 88  1  0  0  0  0
 25 89  1  0  0  0  0
 26 28  2  0  0  0  0
 26 88  1  0  0  0  0
 27 90  1  0  0  0  0
 28 91  1  0  0  0  0
 29 72  2  0  0  0  0
 30 70  1  0  0  0  0
 30 73  2  0  0  0  0
 31 61  1  0  0  0  0
 31 73  1  0  0  0  0
 32 74  1  0  0  0  0
 32 77  1  0  0  0  0
 33 78  1  0  0  0  0
 33 83  2  0  0  0  0
 34 48  1  0  0  0  0
 34 79  1  0  0  0  0
 34 84  2  0  0  0  0
 35 67  1  0  0  0  0
 35 75  1  0  0  0  0
 35 85  2  0  0  0  0
 36 68  1  0  0  0  0
 36 80  1  0  0  0  0
 36 86  2  0  0  0  0
 37 76  1  0  0  0  0
 37 81  1  0  0  0  0
 37 87  2  0  0  0  0
 38 41  1  0  0  0  0
 39 48  1  0  0  0  0
 40 75  1  0  0  0  0
 41 43  1  0  0  0  0
 42 44  1  0  0  0  0
 42 45  1  0  0  0  0
 43 47  1  0  0  0  0
 44 49  1  0  0  0  0
 45 76  1  0  0  0  0
 46 49  1  0  0  0  0
 46 76  1  0  0  0  0
 47 79  1  0  0  0  0
 48 75  1  0  0  0  0
 49 74  1  0  0  0  0
 51 62  1  0  0  0  0
 52 66  1  0  0  0  0
 53 68  1  0  0  0  0
 54 69  1  0  0  0  0
 55 70  1  0  0  0  0
 56 70  1  0  0  0  0
 57 71  1  0  0  0  0
 58 71  1  0  0  0  0
 59 71  1  0  0  0  0
 60 82  1  0  0  0  0
 61 62  1  0  0  0  0
 63 65  1  0  0  0  0
 63 69  1  0  0  0  0
 64 70  1  0  0  0  0
 64 81  1  0  0  0  0
 65 89  1  0  0  0  0
 66 69  1  0  0  0  0
 67 71  1  0  0  0  0
 67 80  1  0  0  0  0
 68 82  1  0  0  0  0
 72 74  1  0  0  0  0
M  CHG  1  82   1
M  ISO  4  37 100  65 101  81 100  89 101
M  END
> <Batch ID>
0094

> <Smiles>
CCCc1nc(C(C)(C)C[100NH:0][100C:0](=O)N2CCCC(n3nc(-c4ccc(Oc5ccc(F)cc5F)cc4)c(C(N)=O)c3N)C2)cc(C(C)C(C)C[101CH2:1][101O:1]c2ccc3c(c2)CN(C(=O)C(NC(=O)C(C)NC)C(C)(C)C)C(C(=O)NC2CCCc4ccccc42)C3)c1C

> <Shape>
0.254

> <Color>
0.124

> <Negative vol penalty>
0.000

$$$$

  -OEChem-04052319193D

 90 98  0     1  0  0  0  0  0999 V2000
  -31.7144  -15.6598   21.9820 C   0  0  0  0  0  0  0  0  0  0  0  0
  -30.6793  -16.5499   21.7142 C   0  0  0  0  0  0  0  0  0  0  0  0
  -29.9813  -28.5808   21.1647 C   0  0  0  0  0  0  0  0  0  0  0  0
  -28.1869  -28.0728   19.6288 C   0  0  0  0  0  0  0  0  0  0  0  0
  -31.5516  -14.3016   21.7123 C   0  0  0  0  0  0  0  0  0  0  0  0
  -29.4811  -16.0825   21.1755 C   0  0  0  0  0  0  0  0  0  0  0  0
  -25.4198  -18.0639   23.4612 C   0  0  0  0  0  0  0  0  0  0  0  0
  -30.7227  -27.5172   20.6504 C   0  0  0  0  0  0  0  0  0  0  0  0
  -28.9284  -27.0091   19.1144 C   0  0  0  0  0  0  0  0  0  0  0  0
  -25.0623  -19.3647   23.1090 C   0  0  0  0  0  0  0  0  0  0  0  0
  -29.6719  -23.8321   20.0000 C   0  0  0  0  0  0  0  0  0  0  0  0
  -29.0124  -22.6194   19.7996 C   0  0  0  0  0  0  0  0  0  0  0  0
  -23.3540  -18.4926   21.6459 C   0  0  0  0  0  0  0  0  0  0  0  0
  -25.5805  -25.0483   18.3703 C   0  0  0  0  0  0  0  0  0  0  0  0
  -29.5384  -22.7226   17.4438 C   0  0  0  0  0  0  0  0  0  0  0  0
  -24.3553  -26.8970   18.7588 C   0  0  0  0  0  0  0  0  0  0  0  0
  -28.7134  -28.8586   20.6540 C   0  0  0  0  0  0  0  0  0  0  0  0
  -27.9514  -31.2917   20.7381 C   0  0  0  0  0  0  0  0  0  0  0  0
  -30.3472  -13.8159   21.1790 C   0  0  0  0  0  0  0  0  0  0  0  0
  -24.7532  -16.9657   22.8991 C   0  0  0  0  0  0  0  0  0  0  0  0
  -29.3025  -14.7167   20.8972 C   0  0  0  0  0  0  0  0  0  0  0  0
  -23.7032  -17.1790   21.9946 C   0  0  0  0  0  0  0  0  0  0  0  0
  -25.0619  -26.2288   17.7834 C   0  0  0  0  0  0  0  0  0  0  0  0
  -30.1963  -26.7313   19.6252 C   0  0  0  0  0  0  0  0  0  0  0  0
  -24.0312  -19.5791   22.1991 C   0  0  0  0  0  0  0  0  0  0  0  0
  -30.2646  -24.4901   18.9222 C   0  0  0  0  0  0  0  0  0  0  0  0
  -28.9457  -22.0646   18.5215 C   0  0  0  0  0  0  0  0  0  0  0  0
  -30.1979  -23.9353   17.6442 C   0  0  0  0  0  0  0  0  0  0  0  0
  -27.9468  -29.9568   21.1853 C   0  0  0  0  0  0  0  0  0  0  0  0
  -25.1749  -25.0309   19.6866 C   0  0  0  0  0  0  0  0  0  0  0  0
  -27.0614  -31.9336   21.5642 C   0  0  0  0  0  0  0  0  0  0  0  0
  -28.6937  -31.8972   19.6713 C   0  0  0  0  0  0  0  0  0  0  0  0
  -25.6174  -14.5116   21.0731 C   0  0  0  0  0  0  0  0  0  0  0  0
  -22.5641  -13.5496   21.5968 C   0  0  0  0  0  0  0  0  0  0  0  0
  -19.3561  -14.3970   22.3953 C   0  0  0  0  0  0  0  0  0  0  0  0
  -22.3693  -30.0359   24.7633 C   0  0  0  0  0  0  0  0  0  0  0  0
  -30.2351  -12.3461   20.8601 C   0  0  0  0  0  0  0  0  0  0  0  0
  -25.1330  -15.5694   23.3097 C   0  0  0  0  0  0  0  0  0  0  0  0
  -22.9427  -16.0344   21.3782 C   0  0  0  0  0  0  0  0  0  0  0  0
  -28.7988  -11.8787   20.6391 C   0  0  0  0  0  0  0  0  0  0  0  0
  -25.2470  -31.7383   25.9870 C   0  0  0  0  0  0  0  0  0  0  0  0
  -28.0592  -12.8435   19.7177 C   0  0  0  0  0  0  0  0  0  0  0  0
  -26.2656  -31.5952   24.8548 C   0  0  0  0  0  0  0  0  0  0  0  0
  -24.3845  -30.4864   26.1317 C   0  0  0  0  0  0  0  0  0  0  0  0
  -24.7306  -29.9081   23.7611 C   0  0  0  0  0  0  0  0  0  0  0  0
  -27.9788  -14.2445   20.3360 C   0  0  1  0  0  0  0  0  0  0  0  0
  -24.7287  -14.5143   22.2847 C   0  0  1  0  0  0  0  0  0  0  0  0
  -25.5863  -31.1672   23.5400 C   0  0  2  0  0  0  0  0  0  0  0  0
  -24.6358  -25.6779   15.3609 C   0  0  0  0  0  0  0  0  0  0  0  0
  -26.7249  -26.9246   16.0215 C   0  0  0  0  0  0  0  0  0  0  0  0
  -17.0749  -13.3993   22.7087 C   0  0  0  0  0  0  0  0  0  0  0  0
  -18.3951  -28.1553   23.6734 C   0  0  0  0  0  0  0  0  0  0  0  0
  -22.2457  -13.3329   18.5699 C   0  0  0  0  0  0  0  0  0  0  0  0
  -19.7653  -13.2724   18.9051 C   0  0  0  0  0  0  0  0  0  0  0  0
  -21.1962  -11.4688   19.8654 C   0  0  0  0  0  0  0  0  0  0  0  0
  -19.2434  -15.2531   25.2261 C   0  0  0  0  0  0  0  0  0  0  0  0
  -21.9568  -25.7609   23.6057 C   0  0  0  0  0  0  0  0  0  0  0  0
  -25.4404  -24.0136   20.7674 C   0  0  0  0  0  0  0  0  0  0  0  0
  -24.3879  -22.9054   20.8421 C   0  0  0  0  0  0  0  0  0  0  0  0
  -23.8127  -26.5313   21.1654 C   0  0  0  0  0  0  0  0  0  0  0  0
  -20.4483  -29.5717   23.2621 C   0  0  0  0  0  0  0  0  0  0  0  0
  -22.3083  -26.2963   21.1994 C   0  0  0  0  0  0  0  0  0  0  0  0
  -20.2928  -27.1538   22.3839 C   0  0  0  0  0  0  0  0  0  0  0  0
  -24.7097  -21.8360   21.8795 C   0  0  0  0  0  0  0  0  0  1  0  0
  -25.2445  -26.6637   16.3855 C   0  0  0  0  0  0  0  0  0  0  0  0
  -21.2399  -13.7722   20.9069 C   0  0  1  0  0  0  0  0  0  0  0  0
  -18.3745  -13.8016   23.3885 C   0  0  2  0  0  0  0  0  0  0  0  0
  -19.9167  -28.1474   23.4900 C   0  0  2  0  0  0  0  0  0  0  0  0
  -21.1272  -12.9833   19.5718 C   0  0  0  0  0  0  0  0  0  0  0  0
  -27.1196  -29.7610   22.2156 N   0  0  0  0  0  0  0  0  0  0  0  0
  -24.4306  -26.1595   19.9115 N   0  0  0  0  0  0  0  0  0  0  0  0
  -26.5962  -30.9814   22.4228 N   0  0  0  0  0  0  0  0  0  0  0  0
  -23.3555  -14.6878   21.8066 N   0  0  0  0  0  0  0  0  0  0  0  0
  -23.7677  -30.1352   24.8502 N   0  0  0  0  0  0  0  0  0  0  0  0
  -26.6393  -33.2140   21.6328 N   0  0  0  0  0  0  0  0  0  0  0  0
  -29.5635  -31.0932   18.9222 N   0  0  0  0  0  0  0  0  0  0  0  0
  -26.9518  -14.2891   21.3547 N   0  0  0  0  0  0  0  0  0  0  0  0
  -20.2093  -13.4415   21.8851 N   0  0  0  0  0  0  0  0  0  0  0  0
  -21.8664  -29.7049   23.5110 N   0  0  0  0  0  0  0  0  0  0  0  0
  -18.0586  -14.7884   24.4596 N   0  3  0  0  0  0  0  0  0  0  0  0
  -21.7448  -26.7570   22.4921 N   0  3  1  0  0  0  0  0  0  0  0  0
  -28.6010  -33.1187   19.4013 O   0  0  0  0  0  0  0  0  0  0  0  0
  -25.1284  -14.6961   19.9647 O   0  0  0  0  0  0  0  0  0  0  0  0
  -22.8812  -12.4090   21.9433 O   0  0  0  0  0  0  0  0  0  0  0  0
  -19.3627  -15.5897   22.0988 O   0  0  0  0  0  0  0  0  0  0  0  0
  -21.6238  -30.2331   25.7289 O   0  0  0  0  0  0  0  0  0  0  0  0
  -30.9196  -25.6935   19.1229 O   0  0  0  0  0  0  0  0  0  0  0  0
  -23.6806  -20.8477   21.8531 O   0  0  0  0  0  0  0  0  0  1  0  0
  -28.3137  -20.8993   18.3296 F   0  0  0  0  0  0  0  0  0  0  0  0
  -30.7664  -24.5622   16.6051 F   0  0  0  0  0  0  0  0  0  0  0  0
  1  2  1  0  0  0  0
  1  5  2  0  0  0  0
  2  6  2  0  0  0  0
  3  8  2  0  0  0  0
  3 17  1  0  0  0  0
  4  9  1  0  0  0  0
  4 17  2  0  0  0  0
  5 19  1  0  0  0  0
  6 21  1  0  0  0  0
  7 10  2  0  0  0  0
  7 20  1  0  0  0  0
  8 24  1  0  0  0  0
  9 24  2  0  0  0  0
 10 25  1  0  0  0  0
 11 12  2  0  0  0  0
 11 26  1  0  0  0  0
 12 27  1  0  0  0  0
 13 22  1  0  0  0  0
 13 25  2  0  0  0  0
 14 23  1  0  0  0  0
 14 30  2  0  0  0  0
 15 27  2  0  0  0  0
 15 28  1  0  0  0  0
 16 23  2  0  0  0  0
 16 71  1  0  0  0  0
 17 29  1  0  0  0  0
 18 29  1  0  0  0  0
 18 31  2  0  0  0  0
 18 32  1  0  0  0  0
 19 21  2  0  0  0  0
 19 37  1  0  0  0  0
 20 22  2  0  0  0  0
 20 38  1  0  0  0  0
 21 46  1  0  0  0  0
 22 39  1  0  0  0  0
 23 65  1  0  0  0  0
 24 87  1  0  0  0  0
 25 88  1  0  0  0  0
 26 28  2  0  0  0  0
 26 87  1  0  0  0  0
 27 89  1  0  0  0  0
 28 90  1  0  0  0  0
 29 70  2  0  0  0  0
 30 58  1  0  0  0  0
 30 71  1  0  0  0  0
 31 72  1  0  0  0  0
 31 75  1  0  0  0  0
 32 76  1  0  0  0  0
 32 82  2  0  0  0  0
 33 47  1  0  0  0  0
 33 77  1  0  0  0  0
 33 83  2  0  0  0  0
 34 66  1  0  0  0  0
 34 73  1  0  0  0  0
 34 84  2  0  0  0  0
 35 67  1  0  0  0  0
 35 78  1  0  0  0  0
 35 85  2  0  0  0  0
 36 74  1  0  0  0  0
 36 79  1  0  0  0  0
 36 86  2  0  0  0  0
 37 40  1  0  0  0  0
 38 47  1  0  0  0  0
 39 73  1  0  0  0  0
 40 42  1  0  0  0  0
 41 43  1  0  0  0  0
 41 44  1  0  0  0  0
 42 46  1  0  0  0  0
 43 48  1  0  0  0  0
 44 74  1  0  0  0  0
 45 48  1  0  0  0  0
 45 74  1  0  0  0  0
 46 77  1  0  0  0  0
 47 73  1  0  0  0  0
 48 72  1  0  0  0  0
 49 65  1  0  0  0  0
 50 65  1  0  0  0  0
 51 67  1  0  0  0  0
 52 68  1  0  0  0  0
 53 69  1  0  0  0  0
 54 69  1  0  0  0  0
 55 69  1  0  0  0  0
 56 80  1  0  0  0  0
 57 81  1  0  0  0  0
 58 59  1  0  0  0  0
 59 64  1  0  0  0  0
 60 62  1  0  0  0  0
 60 71  1  0  0  0  0
 61 68  1  0  0  0  0
 61 79  1  0  0  0  0
 62 81  1  0  0  0  0
 63 68  1  0  0  0  0
 63 81  1  0  0  0  0
 64 88  1  0  0  0  0
 66 69  1  0  0  0  0
 66 78  1  0  0  0  0
 67 80  1  0  0  0  0
 70 72  1  0  0  0  0
M  CHG  2  80   1  81   1
M  ISO  4  36 100  64 101  79 100  88 101
M  END
> <Batch ID>
0094

> <Smiles>
CNC(C)C(=O)NC(C(=O)N1Cc2cc([101O:1][101CH2:1]CCc3cc(C(C)C)cn3CCN(C)CC(C)C[100NH:0][100C:0](=O)N3CCCC(n4nc(-c5ccc(Oc6ccc(F)cc6F)cc5)c(C(N)=O)c4N)C3)ccc2CC1C(=O)NC1CCCc2ccccc21)C(C)(C)C

> <Shape>
0.269

> <Color>
0.034

> <Negative vol penalty>
0.000

$$$$

  -OEChem-04052319193D

 84 92  0     1  0  0  0  0  0999 V2000
  -21.8886  -11.9657   22.0224 C   0  0  0  0  0  0  0  0  0  0  0  0
  -22.2123  -13.1738   22.6316 C   0  0  0  0  0  0  0  0  0  0  0  0
  -24.8853  -29.3564   19.6326 C   0  0  0  0  0  0  0  0  0  0  0  0
  -25.4407  -27.1040   20.3075 C   0  0  0  0  0  0  0  0  0  0  0  0
  -22.7910  -11.3642   21.1462 C   0  0  0  0  0  0  0  0  0  0  0  0
  -23.4392  -13.7807   22.3656 C   0  0  0  0  0  0  0  0  0  0  0  0
  -23.0040  -18.7551   21.5229 C   0  0  0  0  0  0  0  0  0  0  0  0
  -26.2360  -29.7021   19.6748 C   0  0  0  0  0  0  0  0  0  0  0  0
  -26.7914  -27.4497   20.3496 C   0  0  0  0  0  0  0  0  0  0  0  0
  -22.8465  -19.5783   22.6371 C   0  0  0  0  0  0  0  0  0  0  0  0
  -29.3175  -27.8912   18.1486 C   0  0  0  0  0  0  0  0  0  0  0  0
  -30.2295  -27.0068   17.5727 C   0  0  0  0  0  0  0  0  0  0  0  0
  -25.1900  -20.1426   22.5439 C   0  0  0  0  0  0  0  0  0  0  0  0
  -22.2445  -22.7087   26.6785 C   0  0  0  0  0  0  0  0  0  0  0  0
  -31.3339  -26.7558   19.7068 C   0  0  0  0  0  0  0  0  0  0  0  0
  -23.4142  -25.1725   26.5925 C   0  0  0  0  0  0  0  0  0  0  0  0
  -24.4876  -28.0574   19.9491 C   0  0  0  0  0  0  0  0  0  0  0  0
  -22.3781  -27.1933   18.8041 C   0  0  0  0  0  0  0  0  0  0  0  0
  -24.0256  -11.9689   20.8619 C   0  0  0  0  0  0  0  0  0  0  0  0
  -24.2601  -18.6108   20.9165 C   0  0  0  0  0  0  0  0  0  0  0  0
  -24.3596  -13.1861   21.4858 C   0  0  0  0  0  0  0  0  0  0  0  0
  -25.3602  -19.3190   21.4206 C   0  0  0  0  0  0  0  0  0  0  0  0
  -23.6278  -22.8038   26.5750 C   0  0  0  0  0  0  0  0  0  0  0  0
  -24.2317  -24.0555   26.5306 C   0  0  0  0  0  0  0  0  0  0  0  0
  -27.1890  -28.7487   20.0332 C   0  0  0  0  0  0  0  0  0  0  0  0
  -23.9402  -20.2699   23.1495 C   0  0  0  0  0  0  0  0  0  0  0  0
  -29.4138  -28.2080   19.5037 C   0  0  0  0  0  0  0  0  0  0  0  0
  -31.2376  -26.4391   18.3518 C   0  0  0  0  0  0  0  0  0  0  0  0
  -30.4219  -27.6403   20.2828 C   0  0  0  0  0  0  0  0  0  0  0  0
  -23.0925  -27.6999   19.9063 C   0  0  0  0  0  0  0  0  0  0  0  0
  -21.5160  -23.8860   26.7341 C   0  0  0  0  0  0  0  0  0  0  0  0
  -21.0997  -27.0181   19.2746 C   0  0  0  0  0  0  0  0  0  0  0  0
  -22.8298  -26.9066   17.4739 C   0  0  0  0  0  0  0  0  0  0  0  0
  -26.2493  -16.1801   20.4283 C   0  0  0  0  0  0  0  0  0  0  0  0
  -27.9068  -18.3866   18.7236 C   0  0  0  0  0  0  0  0  0  0  0  0
  -29.2221  -21.7009   18.1732 C   0  0  0  0  0  0  0  0  0  0  0  0
  -18.8585  -26.1228   24.7542 C   0  0  0  0  0  0  0  0  0  0  0  0
  -24.9883  -11.2573   19.9446 C   0  0  0  0  0  0  0  0  0  0  0  0
  -24.4078  -17.7399   19.6991 C   0  0  0  0  0  0  0  0  0  0  0  0
  -26.7257  -19.2142   20.7937 C   0  0  0  0  0  0  0  0  0  0  0  0
  -26.1110  -12.1527   19.4268 C   0  0  0  0  0  0  0  0  0  0  0  0
  -18.0280  -28.7552   22.5054 C   0  0  0  0  0  0  0  0  0  0  0  0
  -26.7163  -12.9638   20.5681 C   0  0  0  0  0  0  0  0  0  0  0  0
  -19.1673  -28.7375   21.4848 C   0  0  0  0  0  0  0  0  0  0  0  0
  -18.5250  -28.4284   23.9118 C   0  0  0  0  0  0  0  0  0  0  0  0
  -20.4278  -27.1536   23.0017 C   0  0  0  0  0  0  0  0  0  0  0  0
  -25.6704  -13.8877   21.2036 C   0  0  1  0  0  0  0  0  0  0  0  0
  -25.8402  -17.2659   19.4737 C   0  0  1  0  0  0  0  0  0  0  0  0
  -19.9663  -27.4225   21.5592 C   0  0  2  0  0  0  0  0  0  0  0  0
  -26.3183  -24.9349   27.6378 C   0  0  0  0  0  0  0  0  0  0  0  0
  -26.1293  -24.9356   25.1240 C   0  0  0  0  0  0  0  0  0  0  0  0
  -30.5282  -22.6387   16.2465 C   0  0  0  0  0  0  0  0  0  0  0  0
  -30.3491  -17.6680   20.4055 C   0  0  0  0  0  0  0  0  0  0  0  0
  -31.4295  -19.7836   19.6146 C   0  0  0  0  0  0  0  0  0  0  0  0
  -30.8207  -18.0068   17.9730 C   0  0  0  0  0  0  0  0  0  0  0  0
  -27.2692  -23.8865   17.7626 C   0  0  0  0  0  0  0  0  0  0  0  0
  -24.4507  -21.5399   26.5127 C   0  0  0  0  0  0  0  0  0  0  0  0
  -20.0293  -23.8222   26.8450 C   0  0  0  0  0  0  0  0  0  0  0  0
  -19.3136  -23.7966   25.4895 C   0  0  0  0  0  0  0  0  0  0  0  0
  -24.9188  -21.2220   25.0968 C   0  0  0  0  0  0  0  0  0  1  0  0
  -25.7083  -24.2146   26.4195 C   0  0  0  0  0  0  0  0  0  0  0  0
  -28.9914  -19.3879   19.0399 C   0  0  1  0  0  0  0  0  0  0  0  0
  -29.1551  -22.5030   16.8861 C   0  0  2  0  0  0  0  0  0  0  0  0
  -30.3725  -18.7123   19.2715 C   0  0  0  0  0  0  0  0  0  0  0  0
  -22.0672  -25.1198   26.6935 N   0  0  0  0  0  0  0  0  0  0  0  0
  -22.3310  -27.8378   20.9950 N   0  0  0  0  0  0  0  0  0  0  0  0
  -21.1249  -27.4153   20.5791 N   0  0  0  0  0  0  0  0  0  0  0  0
  -26.8206  -18.3451   19.6091 N   0  0  0  0  0  0  0  0  0  0  0  0
  -19.2733  -27.1690   23.9137 N   0  0  0  0  0  0  0  0  0  0  0  0
  -19.9676  -26.5648   18.6955 N   0  0  0  0  0  0  0  0  0  0  0  0
  -24.1747  -27.1447   17.1591 N   0  0  0  0  0  0  0  0  0  0  0  0
  -25.4529  -15.0522   20.3722 N   0  0  0  0  0  0  0  0  0  0  0  0
  -28.9773  -20.3618   17.9538 N   0  0  0  0  0  0  0  0  0  0  0  0
  -19.6191  -24.9618   24.6897 N   0  0  0  0  0  0  0  0  0  0  0  0
  -28.6245  -23.8695   17.1544 N   0  3  0  0  0  0  0  0  0  0  0  0
  -22.0598  -26.4682   16.5859 O   0  0  0  0  0  0  0  0  0  0  0  0
  -27.2167  -16.3522   21.1605 O   0  0  0  0  0  0  0  0  0  0  0  0
  -28.0159  -17.6727   17.7236 O   0  0  0  0  0  0  0  0  0  0  0  0
  -29.4706  -22.2106   19.2636 O   0  0  0  0  0  0  0  0  0  0  0  0
  -17.8795  -26.2146   25.5025 O   0  0  0  0  0  0  0  0  0  0  0  0
  -28.5071  -29.0856   20.0742 O   0  0  0  0  0  0  0  0  0  0  0  0
  -23.7893  -21.0736   24.2373 O   0  0  0  0  0  0  0  0  0  1  0  0
  -32.1124  -25.5886   17.7989 F   0  0  0  0  0  0  0  0  0  0  0  0
  -30.5187  -27.9399   21.5853 F   0  0  0  0  0  0  0  0  0  0  0  0
  1  2  1  0  0  0  0
  1  5  2  0  0  0  0
  2  6  2  0  0  0  0
  3  8  2  0  0  0  0
  3 17  1  0  0  0  0
  4  9  1  0  0  0  0
  4 17  2  0  0  0  0
  5 19  1  0  0  0  0
  6 21  1  0  0  0  0
  7 10  2  0  0  0  0
  7 20  1  0  0  0  0
  8 25  1  0  0  0  0
  9 25  2  0  0  0  0
 10 26  1  0  0  0  0
 11 12  2  0  0  0  0
 11 27  1  0  0  0  0
 12 28  1  0  0  0  0
 13 22  1  0  0  0  0
 13 26  2  0  0  0  0
 14 23  1  0  0  0  0
 14 31  2  0  0  0  0
 15 28  2  0  0  0  0
 15 29  1  0  0  0  0
 16 24  1  0  0  0  0
 16 65  2  0  0  0  0
 17 30  1  0  0  0  0
 18 30  1  0  0  0  0
 18 32  2  0  0  0  0
 18 33  1  0  0  0  0
 19 21  2  0  0  0  0
 19 38  1  0  0  0  0
 20 22  2  0  0  0  0
 20 39  1  0  0  0  0
 21 47  1  0  0  0  0
 22 40  1  0  0  0  0
 23 24  2  0  0  0  0
 23 57  1  0  0  0  0
 24 61  1  0  0  0  0
 25 81  1  0  0  0  0
 26 82  1  0  0  0  0
 27 29  2  0  0  0  0
 27 81  1  0  0  0  0
 28 83  1  0  0  0  0
 29 84  1  0  0  0  0
 30 66  2  0  0  0  0
 31 58  1  0  0  0  0
 31 65  1  0  0  0  0
 32 67  1  0  0  0  0
 32 70  1  0  0  0  0
 33 71  1  0  0  0  0
 33 76  2  0  0  0  0
 34 48  1  0  0  0  0
 34 72  1  0  0  0  0
 34 77  2  0  0  0  0
 35 62  1  0  0  0  0
 35 68  1  0  0  0  0
 35 78  2  0  0  0  0
 36 63  1  0  0  0  0
 36 73  1  0  0  0  0
 36 79  2  0  0  0  0
 37 69  1  0  0  0  0
 37 74  1  0  0  0  0
 37 80  2  0  0  0  0
 38 41  1  0  0  0  0
 39 48  1  0  0  0  0
 40 68  1  0  0  0  0
 41 43  1  0  0  0  0
 42 44  1  0  0  0  0
 42 45  1  0  0  0  0
 43 47  1  0  0  0  0
 44 49  1  0  0  0  0
 45 69  1  0  0  0  0
 46 49  1  0  0  0  0
 46 69  1  0  0  0  0
 47 72  1  0  0  0  0
 48 68  1  0  0  0  0
 49 67  1  0  0  0  0
 50 61  1  0  0  0  0
 51 61  1  0  0  0  0
 52 63  1  0  0  0  0
 53 64  1  0  0  0  0
 54 64  1  0  0  0  0
 55 64  1  0  0  0  0
 56 75  1  0  0  0  0
 57 60  1  0  0  0  0
 58 59  1  0  0  0  0
 59 74  1  0  0  0  0
 60 82  1  0  0  0  0
 62 64  1  0  0  0  0
 62 73  1  0  0  0  0
 63 75  1  0  0  0  0
 66 67  1  0  0  0  0
M  CHG  1  75   1
M  ISO  4  37 100  60 101  74 100  82 101
M  END
> <Batch ID>
0094

> <Smiles>
CNC(C)C(=O)NC(C(=O)N1Cc2cc([101O:1][101CH2:1]Cc3cc(CC[100NH:0][100C:0](=O)N4CCCC(n5nc(-c6ccc(Oc7ccc(F)cc7F)cc6)c(C(N)=O)c5N)C4)ncc3C(C)C)ccc2CC1C(=O)NC1CCCc2ccccc21)C(C)(C)C

> <Shape>
0.210

> <Color>
0.080

> <Negative vol penalty>
0.000

$$$$

  -OEChem-04052319193D

 85 93  0     1  0  0  0  0  0999 V2000
  -27.9867  -10.4867   21.8882 C   0  0  0  0  0  0  0  0  0  0  0  0
  -28.5765  -11.7409   21.7679 C   0  0  0  0  0  0  0  0  0  0  0  0
  -21.6470  -28.2970   20.7225 C   0  0  0  0  0  0  0  0  0  0  0  0
  -23.2649  -27.0467   22.0094 C   0  0  0  0  0  0  0  0  0  0  0  0
  -26.6572  -10.3037   21.5102 C   0  0  0  0  0  0  0  0  0  0  0  0
  -27.8373  -12.8127   21.2685 C   0  0  0  0  0  0  0  0  0  0  0  0
  -28.2705  -18.6852   22.9514 C   0  0  0  0  0  0  0  0  0  0  0  0
  -20.7036  -27.2909   20.9310 C   0  0  0  0  0  0  0  0  0  0  0  0
  -22.3215  -26.0406   22.2180 C   0  0  0  0  0  0  0  0  0  0  0  0
  -28.9342  -19.7753   22.3902 C   0  0  0  0  0  0  0  0  0  0  0  0
  -17.7577  -25.2198   21.4280 C   0  0  0  0  0  0  0  0  0  0  0  0
  -16.4660  -25.6060   21.7856 C   0  0  0  0  0  0  0  0  0  0  0  0
  -26.8984  -20.4336   21.2761 C   0  0  0  0  0  0  0  0  0  0  0  0
  -17.3361  -26.6817   23.7663 C   0  0  0  0  0  0  0  0  0  0  0  0
  -30.2134  -24.5266   17.8778 C   0  0  0  0  0  0  0  0  0  0  0  0
  -22.9277  -28.1748   21.2617 C   0  0  0  0  0  0  0  0  0  0  0  0
  -24.1339  -30.3433   21.8535 C   0  0  0  0  0  0  0  0  0  0  0  0
  -25.8985  -11.3760   21.0150 C   0  0  0  0  0  0  0  0  0  0  0  0
  -26.9162  -18.4546   22.6700 C   0  0  0  0  0  0  0  0  0  0  0  0
  -26.4968  -12.6436   20.8823 C   0  0  0  0  0  0  0  0  0  0  0  0
  -26.2191  -19.3414   21.8370 C   0  0  0  0  0  0  0  0  0  0  0  0
  -21.0409  -26.1627   21.6788 C   0  0  0  0  0  0  0  0  0  0  0  0
  -28.2490  -20.6480   21.5500 C   0  0  0  0  0  0  0  0  0  0  0  0
  -18.8386  -25.5644   22.2395 C   0  0  0  0  0  0  0  0  0  0  0  0
  -16.2552  -26.3370   22.9548 C   0  0  0  0  0  0  0  0  0  0  0  0
  -18.6278  -26.2954   23.4086 C   0  0  0  0  0  0  0  0  0  0  0  0
  -23.9028  -29.2135   21.0462 C   0  0  0  0  0  0  0  0  0  0  0  0
  -30.6027  -25.5827   18.6718 C   0  0  0  0  0  0  0  0  0  0  0  0
  -29.0203  -23.6544   19.6229 C   0  0  0  0  0  0  0  0  0  0  0  0
  -29.4101  -24.7102   20.4172 C   0  0  0  0  0  0  0  0  0  0  0  0
  -25.1541  -31.0129   21.2232 C   0  0  0  0  0  0  0  0  0  0  0  0
  -23.4846  -30.7510   23.0651 C   0  0  0  0  0  0  0  0  0  0  0  0
  -25.2820  -16.1107   21.2774 C   0  0  0  0  0  0  0  0  0  0  0  0
  -22.7198  -17.8513   22.2408 C   0  0  0  0  0  0  0  0  0  0  0  0
  -20.9638  -20.9545   22.7919 C   0  0  0  0  0  0  0  0  0  0  0  0
  -29.5072  -29.2485   17.5099 C   0  0  0  0  0  0  0  0  0  0  0  0
  -24.4790  -11.1188   20.5750 C   0  0  0  0  0  0  0  0  0  0  0  0
  -26.2078  -17.2894   23.3046 C   0  0  0  0  0  0  0  0  0  0  0  0
  -24.7594  -19.1496   21.5196 C   0  0  0  0  0  0  0  0  0  0  0  0
  -23.6534  -12.3917   20.4067 C   0  0  0  0  0  0  0  0  0  0  0  0
  -27.0394  -31.7380   16.8860 C   0  0  0  0  0  0  0  0  0  0  0  0
  -24.4399  -13.4386   19.6243 C   0  0  0  0  0  0  0  0  0  0  0  0
  -25.9766  -31.4752   17.9543 C   0  0  0  0  0  0  0  0  0  0  0  0
  -27.6565  -30.4390   16.3723 C   0  0  0  0  0  0  0  0  0  0  0  0
  -27.1331  -29.2900   18.4888 C   0  0  0  0  0  0  0  0  0  0  0  0
  -25.7204  -13.8365   20.3683 C   0  0  1  0  0  0  0  0  0  0  0  0
  -24.9599  -16.8600   22.5393 C   0  0  1  0  0  0  0  0  0  0  0  0
  -26.5217  -30.5728   19.0776 C   0  0  2  0  0  0  0  0  0  0  0  0
  -28.0704  -26.0676   22.0229 C   0  0  0  0  0  0  0  0  0  0  0  0
  -18.7060  -21.3956   23.7946 C   0  0  0  0  0  0  0  0  0  0  0  0
  -30.9747  -23.5098   22.7318 C   0  0  0  0  0  0  0  0  0  0  0  0
  -29.6874  -24.9285   24.3260 C   0  0  0  0  0  0  0  0  0  0  0  0
  -21.7436  -17.7814   19.3508 C   0  0  0  0  0  0  0  0  0  0  0  0
  -20.1782  -19.6544   19.9076 C   0  0  0  0  0  0  0  0  0  0  0  0
  -19.9521  -17.4563   21.0653 C   0  0  0  0  0  0  0  0  0  0  0  0
  -22.0902  -22.8148   24.7991 C   0  0  0  0  0  0  0  0  0  0  0  0
  -31.4846  -26.6515   18.1280 C   0  0  0  0  0  0  0  0  0  0  0  0
  -28.1313  -22.5661   20.1489 C   0  0  0  0  0  0  0  0  0  1  0  0
  -31.2587  -28.0255   18.7730 C   0  0  0  0  0  0  0  0  0  0  0  0
  -28.9669  -24.8203   21.8361 C   0  0  2  0  0  0  0  0  0  0  0  0
  -21.8973  -18.9655   21.6400 C   0  0  1  0  0  0  0  0  0  0  0  0
  -20.2059  -21.3600   24.0432 C   0  0  2  0  0  0  0  0  0  0  0  0
  -30.1505  -24.7985   22.8696 C   0  0  0  0  0  0  0  0  0  0  0  0
  -20.9708  -18.4672   20.4952 C   0  0  0  0  0  0  0  0  0  0  0  0
  -29.4151  -23.5434   18.3391 N   0  0  0  0  0  0  0  0  0  0  0  0
  -24.7109  -29.1648   19.9838 N   0  0  0  0  0  0  0  0  0  0  0  0
  -30.2081  -25.6935   19.9558 N   0  0  0  0  0  0  0  0  0  0  0  0
  -25.4598  -30.2725   20.1193 N   0  0  0  0  0  0  0  0  0  0  0  0
  -24.1124  -17.9921   22.1592 N   0  0  0  0  0  0  0  0  0  0  0  0
  -28.1556  -29.6301   17.4870 N   0  0  0  0  0  0  0  0  0  0  0  0
  -25.8104  -32.1570   21.5109 N   0  0  0  0  0  0  0  0  0  0  0  0
  -22.4563  -29.9469   23.5753 N   0  0  0  0  0  0  0  0  0  0  0  0
  -25.4137  -14.7462   21.4512 N   0  0  0  0  0  0  0  0  0  0  0  0
  -21.1901  -19.5949   22.7499 N   0  0  0  0  0  0  0  0  0  0  0  0
  -29.8992  -28.4884   18.6049 N   0  0  0  0  0  0  0  0  0  0  0  0
  -20.6395  -22.7119   24.4961 N   0  3  0  0  0  0  0  0  0  0  0  0
  -23.7957  -31.8060   23.6683 O   0  0  0  0  0  0  0  0  0  0  0  0
  -25.4008  -16.7250   20.2236 O   0  0  0  0  0  0  0  0  0  0  0  0
  -22.1478  -16.8947   22.7695 O   0  0  0  0  0  0  0  0  0  0  0  0
  -21.3162  -21.7624   21.9354 O   0  0  0  0  0  0  0  0  0  0  0  0
  -30.3067  -29.5666   16.6230 O   0  0  0  0  0  0  0  0  0  0  0  0
  -20.1205  -25.1809   21.8826 O   0  0  0  0  0  0  0  0  0  0  0  0
  -28.8946  -21.7124   21.0004 O   0  0  0  0  0  0  0  0  0  1  0  0
  -15.0149  -26.7091   23.2973 F   0  0  0  0  0  0  0  0  0  0  0  0
  -19.6624  -26.6305   24.1917 F   0  0  0  0  0  0  0  0  0  0  0  0
  1  2  1  0  0  0  0
  1  5  2  0  0  0  0
  2  6  2  0  0  0  0
  3  8  2  0  0  0  0
  3 16  1  0  0  0  0
  4  9  1  0  0  0  0
  4 16  2  0  0  0  0
  5 18  1  0  0  0  0
  6 20  1  0  0  0  0
  7 10  2  0  0  0  0
  7 19  1  0  0  0  0
  8 22  1  0  0  0  0
  9 22  2  0  0  0  0
 10 23  1  0  0  0  0
 11 12  2  0  0  0  0
 11 24  1  0  0  0  0
 12 25  1  0  0  0  0
 13 21  1  0  0  0  0
 13 23  2  0  0  0  0
 14 25  2  0  0  0  0
 14 26  1  0  0  0  0
 15 28  1  0  0  0  0
 15 65  2  0  0  0  0
 16 27  1  0  0  0  0
 17 27  1  0  0  0  0
 17 31  2  0  0  0  0
 17 32  1  0  0  0  0
 18 20  2  0  0  0  0
 18 37  1  0  0  0  0
 19 21  2  0  0  0  0
 19 38  1  0  0  0  0
 20 46  1  0  0  0  0
 21 39  1  0  0  0  0
 22 82  1  0  0  0  0
 23 83  1  0  0  0  0
 24 26  2  0  0  0  0
 24 82  1  0  0  0  0
 25 84  1  0  0  0  0
 26 85  1  0  0  0  0
 27 66  2  0  0  0  0
 28 57  1  0  0  0  0
 28 67  2  0  0  0  0
 29 30  2  0  0  0  0
 29 58  1  0  0  0  0
 29 65  1  0  0  0  0
 30 60  1  0  0  0  0
 30 67  1  0  0  0  0
 31 68  1  0  0  0  0
 31 71  1  0  0  0  0
 32 72  1  0  0  0  0
 32 77  2  0  0  0  0
 33 47  1  0  0  0  0
 33 73  1  0  0  0  0
 33 78  2  0  0  0  0
 34 61  1  0  0  0  0
 34 69  1  0  0  0  0
 34 79  2  0  0  0  0
 35 62  1  0  0  0  0
 35 74  1  0  0  0  0
 35 80  2  0  0  0  0
 36 70  1  0  0  0  0
 36 75  1  0  0  0  0
 36 81  2  0  0  0  0
 37 40  1  0  0  0  0
 38 47  1  0  0  0  0
 39 69  1  0  0  0  0
 40 42  1  0  0  0  0
 41 43  1  0  0  0  0
 41 44  1  0  0  0  0
 42 46  1  0  0  0  0
 43 48  1  0  0  0  0
 44 70  1  0  0  0  0
 45 48  1  0  0  0  0
 45 70  1  0  0  0  0
 46 73  1  0  0  0  0
 47 69  1  0  0  0  0
 48 68  1  0  0  0  0
 49 60  1  0  0  0  0
 50 62  1  0  0  0  0
 51 63  1  0  0  0  0
 52 63  1  0  0  0  0
 53 64  1  0  0  0  0
 54 64  1  0  0  0  0
 55 64  1  0  0  0  0
 56 76  1  0  0  0  0
 57 59  1  0  0  0  0
 58 83  1  0  0  0  0
 59 75  1  0  0  0  0
 60 63  1  0  0  0  0
 61 64  1  0  0  0  0
 61 74  1  0  0  0  0
 62 76  1  0  0  0  0
 66 68  1  0  0  0  0
M  CHG  1  76   1
M  ISO  4  36 100  58 101  75 100  83 101
M  END
> <Batch ID>
0094

> <Smiles>
CNC(C)C(=O)NC(C(=O)N1Cc2cc([101O:1][101CH2:1]c3ncc(CC[100NH:0][100C:0](=O)N4CCCC(n5nc(-c6ccc(Oc7ccc(F)cc7F)cc6)c(C(N)=O)c5N)C4)nc3C(C)C(C)C)ccc2CC1C(=O)NC1CCCc2ccccc21)C(C)(C)C

> <Shape>
0.208

> <Color>
0.077

> <Negative vol penalty>
0.000

$$$$

  -OEChem-04052319193D

 87 95  0     1  0  0  0  0  0999 V2000
  -26.7310  -33.9798   24.8275 C   0  0  0  0  0  0  0  0  0  0  0  0
  -26.9369  -33.1851   23.7044 C   0  0  0  0  0  0  0  0  0  0  0  0
  -26.6871  -13.8978   19.4902 C   0  0  0  0  0  0  0  0  0  0  0  0
  -24.8577  -14.3108   21.0132 C   0  0  0  0  0  0  0  0  0  0  0  0
  -25.9909  -33.4880   25.9019 C   0  0  0  0  0  0  0  0  0  0  0  0
  -26.4036  -31.8976   23.6554 C   0  0  0  0  0  0  0  0  0  0  0  0
  -24.2523  -28.9894   18.7138 C   0  0  0  0  0  0  0  0  0  0  0  0
  -26.6463  -12.5406   19.8092 C   0  0  0  0  0  0  0  0  0  0  0  0
  -24.8168  -12.9535   21.3322 C   0  0  0  0  0  0  0  0  0  0  0  0
  -24.8194  -28.0428   17.8615 C   0  0  0  0  0  0  0  0  0  0  0  0
  -23.6186  -10.1084   19.9573 C   0  0  0  0  0  0  0  0  0  0  0  0
  -22.3677   -9.4933   20.0069 C   0  0  0  0  0  0  0  0  0  0  0  0
  -23.7704  -26.2802   19.1311 C   0  0  0  0  0  0  0  0  0  0  0  0
  -27.7515  -25.5412   19.6434 C   0  0  0  0  0  0  0  0  0  0  0  0
  -22.7386   -8.9258   22.3258 C   0  0  0  0  0  0  0  0  0  0  0  0
  -29.6837  -24.5891   18.6350 C   0  0  0  0  0  0  0  0  0  0  0  0
  -25.7929  -14.7830   20.0923 C   0  0  0  0  0  0  0  0  0  0  0  0
  -25.1277  -16.8394   18.7370 C   0  0  0  0  0  0  0  0  0  0  0  0
  -25.4401  -32.1974   25.8621 C   0  0  0  0  0  0  0  0  0  0  0  0
  -23.4476  -28.5872   19.7894 C   0  0  0  0  0  0  0  0  0  0  0  0
  -25.6565  -31.3876   24.7308 C   0  0  0  0  0  0  0  0  0  0  0  0
  -23.1922  -27.2237   19.9940 C   0  0  0  0  0  0  0  0  0  0  0  0
  -28.3049  -24.7232   18.6647 C   0  0  0  0  0  0  0  0  0  0  0  0
  -28.5820  -26.1910   20.5497 C   0  0  0  0  0  0  0  0  0  0  0  0
  -25.7111  -12.0684   20.7301 C   0  0  0  0  0  0  0  0  0  0  0  0
  -24.5808  -26.6879   18.0718 C   0  0  0  0  0  0  0  0  0  0  0  0
  -24.4295  -10.1322   21.0920 C   0  0  0  0  0  0  0  0  0  0  0  0
  -21.9277   -8.9020   21.1911 C   0  0  0  0  0  0  0  0  0  0  0  0
  -23.9896   -9.5409   22.2763 C   0  0  0  0  0  0  0  0  0  0  0  0
  -25.8349  -16.1852   19.7636 C   0  0  0  0  0  0  0  0  0  0  0  0
  -29.9484  -25.9910   20.4358 C   0  0  0  0  0  0  0  0  0  0  0  0
  -25.5100  -18.1545   18.8409 C   0  0  0  0  0  0  0  0  0  0  0  0
  -24.2075  -16.3059   17.7756 C   0  0  0  0  0  0  0  0  0  0  0  0
  -23.6248  -28.8664   22.9508 C   0  0  0  0  0  0  0  0  0  0  0  0
  -20.6613  -27.5519   22.8427 C   0  0  0  0  0  0  0  0  0  0  0  0
  -18.3967  -25.6477   21.1418 C   0  0  0  0  0  0  0  0  0  0  0  0
  -27.4725  -21.3309   23.4141 C   0  0  0  0  0  0  0  0  0  0  0  0
  -24.6872  -31.6920   27.0672 C   0  0  0  0  0  0  0  0  0  0  0  0
  -22.8215  -29.6219   20.6836 C   0  0  0  0  0  0  0  0  0  0  0  0
  -22.3189  -26.7410   21.1222 C   0  0  0  0  0  0  0  0  0  0  0  0
  -23.8396  -30.4550   26.7811 C   0  0  0  0  0  0  0  0  0  0  0  0
  -29.1763  -20.8884   20.2520 C   0  0  0  0  0  0  0  0  0  0  0  0
  -24.6431  -29.4289   25.9887 C   0  0  0  0  0  0  0  0  0  0  0  0
  -28.4335  -19.6833   19.6723 C   0  0  0  0  0  0  0  0  0  0  0  0
  -29.3518  -20.7557   21.7619 C   0  0  0  0  0  0  0  0  0  0  0  0
  -27.3380  -19.3458   21.9364 C   0  0  0  0  0  0  0  0  0  0  0  0
  -25.0732  -29.9949   24.6299 C   0  0  1  0  0  0  0  0  0  0  0  0
  -22.4369  -29.0733   22.0542 C   0  0  1  0  0  0  0  0  0  0  0  0
  -27.1088  -19.4306   20.4164 C   0  0  2  0  0  0  0  0  0  0  0  0
  -30.8887  -26.6627   21.3824 C   0  0  0  0  0  0  0  0  0  0  0  0
  -27.2622  -28.2876   20.9921 C   0  0  0  0  0  0  0  0  0  0  0  0
  -16.0731  -24.7176   21.3242 C   0  0  0  0  0  0  0  0  0  0  0  0
  -21.6634  -25.4390   24.8026 C   0  0  0  0  0  0  0  0  0  0  0  0
  -19.6685  -24.0459   24.2128 C   0  0  0  0  0  0  0  0  0  0  0  0
  -19.3563  -26.2840   25.2692 C   0  0  0  0  0  0  0  0  0  0  0  0
  -17.4967  -27.1119   18.7325 C   0  0  0  0  0  0  0  0  0  0  0  0
  -27.4322  -24.0038   17.6674 C   0  0  0  0  0  0  0  0  0  0  0  0
  -27.1637  -24.8062   16.3924 C   0  0  0  0  0  0  0  0  0  0  0  0
  -27.7482  -23.3498   24.8301 C   0  0  0  0  0  0  0  0  0  0  0  0
  -26.9371  -24.4917   24.2467 C   0  0  0  0  0  0  0  0  0  0  0  0
  -27.0354  -26.3394   22.5689 C   0  0  0  0  0  0  0  0  0  0  0  0
  -26.3851  -26.0927   16.6413 C   0  0  0  0  0  0  0  0  0  1  0  0
  -27.9958  -27.0703   21.5997 C   0  0  1  0  0  0  0  0  0  0  0  0
  -20.1145  -26.1449   22.8613 C   0  0  1  0  0  0  0  0  0  0  0  0
  -16.9291  -25.8711   20.8246 C   0  0  2  0  0  0  0  0  0  0  0  0
  -20.2187  -25.4871   24.2663 C   0  0  0  0  0  0  0  0  0  0  0  0
  -30.5227  -25.2041   19.4984 N   0  0  0  0  0  0  0  0  0  0  0  0
  -26.6080  -17.0163   20.4677 N   0  0  0  0  0  0  0  0  0  0  0  0
  -26.3889  -18.2061   19.8825 N   0  0  0  0  0  0  0  0  0  0  0  0
  -21.7347  -27.7909   21.9730 N   0  0  0  0  0  0  0  0  0  0  0  0
  -28.0521  -20.5354   22.4118 N   0  0  0  0  0  0  0  0  0  0  0  0
  -25.1767  -19.2602   18.1418 N   0  0  0  0  0  0  0  0  0  0  0  0
  -23.9269  -14.9331   17.8096 N   0  0  0  0  0  0  0  0  0  0  0  0
  -23.9638  -29.9764   23.7007 N   0  0  0  0  0  0  0  0  0  0  0  0
  -18.7544  -26.2285   22.3401 N   0  0  0  0  0  0  0  0  0  0  0  0
  -28.2163  -22.4347   23.8129 N   0  0  0  0  0  0  0  0  0  0  0  0
  -16.7311  -26.0004   19.3532 N   0  3  0  0  0  0  0  0  0  0  0  0
  -27.7549  -25.2313   23.2483 N   0  3  0  0  0  0  0  0  0  0  0  0
  -23.6632  -17.0224   16.9016 O   0  0  0  0  0  0  0  0  0  0  0  0
  -24.1909  -27.7796   22.9624 O   0  0  0  0  0  0  0  0  0  0  0  0
  -20.1500  -28.4090   23.5676 O   0  0  0  0  0  0  0  0  0  0  0  0
  -19.1496  -25.0175   20.4025 O   0  0  0  0  0  0  0  0  0  0  0  0
  -26.3704  -21.0791   23.9133 O   0  0  0  0  0  0  0  0  0  0  0  0
  -25.6708  -10.7440   21.0414 O   0  0  0  0  0  0  0  0  0  0  0  0
  -25.1336  -25.7619   17.2418 O   0  0  0  0  0  0  0  0  0  1  0  0
  -20.7258   -8.3127   21.2390 F   0  0  0  0  0  0  0  0  0  0  0  0
  -24.7637   -9.5616   23.3699 F   0  0  0  0  0  0  0  0  0  0  0  0
  1  2  1  0  0  0  0
  1  5  2  0  0  0  0
  2  6  2  0  0  0  0
  3  8  2  0  0  0  0
  3 17  1  0  0  0  0
  4  9  1  0  0  0  0
  4 17  2  0  0  0  0
  5 19  1  0  0  0  0
  6 21  1  0  0  0  0
  7 10  2  0  0  0  0
  7 20  1  0  0  0  0
  8 25  1  0  0  0  0
  9 25  2  0  0  0  0
 10 26  1  0  0  0  0
 11 12  2  0  0  0  0
 11 27  1  0  0  0  0
 12 28  1  0  0  0  0
 13 22  1  0  0  0  0
 13 26  2  0  0  0  0
 14 23  2  0  0  0  0
 14 24  1  0  0  0  0
 15 28  2  0  0  0  0
 15 29  1  0  0  0  0
 16 23  1  0  0  0  0
 16 67  2  0  0  0  0
 17 30  1  0  0  0  0
 18 30  1  0  0  0  0
 18 32  2  0  0  0  0
 18 33  1  0  0  0  0
 19 21  2  0  0  0  0
 19 38  1  0  0  0  0
 20 22  2  0  0  0  0
 20 39  1  0  0  0  0
 21 47  1  0  0  0  0
 22 40  1  0  0  0  0
 23 57  1  0  0  0  0
 24 31  2  0  0  0  0
 24 63  1  0  0  0  0
 25 84  1  0  0  0  0
 26 85  1  0  0  0  0
 27 29  2  0  0  0  0
 27 84  1  0  0  0  0
 28 86  1  0  0  0  0
 29 87  1  0  0  0  0
 30 68  2  0  0  0  0
 31 50  1  0  0  0  0
 31 67  1  0  0  0  0
 32 69  1  0  0  0  0
 32 72  1  0  0  0  0
 33 73  1  0  0  0  0
 33 79  2  0  0  0  0
 34 48  1  0  0  0  0
 34 74  1  0  0  0  0
 34 80  2  0  0  0  0
 35 64  1  0  0  0  0
 35 70  1  0  0  0  0
 35 81  2  0  0  0  0
 36 65  1  0  0  0  0
 36 75  1  0  0  0  0
 36 82  2  0  0  0  0
 37 71  1  0  0  0  0
 37 76  1  0  0  0  0
 37 83  2  0  0  0  0
 38 41  1  0  0  0  0
 39 48  1  0  0  0  0
 40 70  1  0  0  0  0
 41 43  1  0  0  0  0
 42 44  1  0  0  0  0
 42 45  1  0  0  0  0
 43 47  1  0  0  0  0
 44 49  1  0  0  0  0
 45 71  1  0  0  0  0
 46 49  1  0  0  0  0
 46 71  1  0  0  0  0
 47 74  1  0  0  0  0
 48 70  1  0  0  0  0
 49 69  1  0  0  0  0
 51 63  1  0  0  0  0
 52 65  1  0  0  0  0
 53 66  1  0  0  0  0
 54 66  1  0  0  0  0
 55 66  1  0  0  0  0
 56 77  1  0  0  0  0
 57 58  1  0  0  0  0
 58 62  1  0  0  0  0
 59 60  1  0  0  0  0
 59 76  1  0  0  0  0
 60 78  1  0  0  0  0
 61 63  1  0  0  0  0
 61 78  1  0  0  0  0
 62 85  1  0  0  0  0
 64 66  1  0  0  0  0
 64 75  1  0  0  0  0
 65 77  1  0  0  0  0
 68 69  1  0  0  0  0
M  CHG  2  77   1  78   1
M  ISO  4  37 100  62 101  76 100  85 101
M  END
> <Batch ID>
0094

> <Smiles>
CNC(C)C(=O)NC(C(=O)N1Cc2cc([101O:1][101CH2:1]CCc3cnc(C)c(C(C)CNCC[100NH:0][100C:0](=O)N4CCCC(n5nc(-c6ccc(Oc7ccc(F)cc7F)cc6)c(C(N)=O)c5N)C4)c3)ccc2CC1C(=O)NC1CCCc2ccccc21)C(C)(C)C

> <Shape>
0.281

> <Color>
0.049

> <Negative vol penalty>
0.000

$$$$

  -OEChem-04052319193D

 87 95  0     1  0  0  0  0  0999 V2000
  -36.2411  -29.3354   15.2187 C   0  0  0  0  0  0  0  0  0  0  0  0
  -35.8371  -28.3295   16.0907 C   0  0  0  0  0  0  0  0  0  0  0  0
  -22.9985   -9.9054   19.9789 C   0  0  0  0  0  0  0  0  0  0  0  0
  -23.7348   -9.9406   22.2797 C   0  0  0  0  0  0  0  0  0  0  0  0
  -35.5364  -30.5374   15.1685 C   0  0  0  0  0  0  0  0  0  0  0  0
  -34.7287  -28.5254   16.9138 C   0  0  0  0  0  0  0  0  0  0  0  0
  -30.6503  -24.3052   18.6634 C   0  0  0  0  0  0  0  0  0  0  0  0
  -22.2307   -8.7710   20.2420 C   0  0  0  0  0  0  0  0  0  0  0  0
  -22.9669   -8.8062   22.5428 C   0  0  0  0  0  0  0  0  0  0  0  0
  -30.5199  -23.5539   19.8306 C   0  0  0  0  0  0  0  0  0  0  0  0
  -23.2015   -5.4697   22.0493 C   0  0  0  0  0  0  0  0  0  0  0  0
  -23.7904   -4.4466   22.7924 C   0  0  0  0  0  0  0  0  0  0  0  0
  -28.9449  -25.1681   20.6866 C   0  0  0  0  0  0  0  0  0  0  0  0
  -22.0750   -4.6831   24.4773 C   0  0  0  0  0  0  0  0  0  0  0  0
  -27.1754  -19.0646   21.0830 C   0  0  0  0  0  0  0  0  0  0  0  0
  -23.7506  -10.4902   20.9978 C   0  0  0  0  0  0  0  0  0  0  0  0
  -24.1407  -13.0059   20.8353 C   0  0  0  0  0  0  0  0  0  0  0  0
  -34.4131  -30.7445   15.9845 C   0  0  0  0  0  0  0  0  0  0  0  0
  -29.9359  -25.5012   18.5034 C   0  0  0  0  0  0  0  0  0  0  0  0
  -34.0092  -29.7319   16.8755 C   0  0  0  0  0  0  0  0  0  0  0  0
  -29.0659  -25.9314   19.5154 C   0  0  0  0  0  0  0  0  0  0  0  0
  -22.2149   -8.2214   21.5239 C   0  0  0  0  0  0  0  0  0  0  0  0
  -29.6693  -23.9867   20.8437 C   0  0  0  0  0  0  0  0  0  0  0  0
  -22.0495   -6.0996   22.5203 C   0  0  0  0  0  0  0  0  0  0  0  0
  -23.2271   -4.0533   24.0063 C   0  0  0  0  0  0  0  0  0  0  0  0
  -21.4862   -5.7062   23.7342 C   0  0  0  0  0  0  0  0  0  0  0  0
  -24.5444  -11.6617   20.7265 C   0  0  0  0  0  0  0  0  0  0  0  0
  -27.2874  -18.3233   19.8915 C   0  0  0  0  0  0  0  0  0  0  0  0
  -28.4331  -19.0221   21.6333 C   0  0  0  0  0  0  0  0  0  0  0  0
  -25.2503  -13.7283   20.4700 C   0  0  0  0  0  0  0  0  0  0  0  0
  -22.8758  -13.5528   21.2313 C   0  0  0  0  0  0  0  0  0  0  0  0
  -30.7313  -28.5533   18.1081 C   0  0  0  0  0  0  0  0  0  0  0  0
  -27.5355  -28.9286   17.6981 C   0  0  0  0  0  0  0  0  0  0  0  0
  -24.3828  -27.7579   18.2785 C   0  0  0  0  0  0  0  0  0  0  0  0
  -30.7499  -14.6491   20.6979 C   0  0  0  0  0  0  0  0  0  0  0  0
  -33.7116  -32.0785   15.9291 C   0  0  0  0  0  0  0  0  0  0  0  0
  -30.0672  -26.2864   17.2272 C   0  0  0  0  0  0  0  0  0  0  0  0
  -28.2613  -27.1978   19.3842 C   0  0  0  0  0  0  0  0  0  0  0  0
  -32.3238  -32.0638   16.5648 C   0  0  0  0  0  0  0  0  0  0  0  0
  -29.5926  -12.2424   18.3432 C   0  0  0  0  0  0  0  0  0  0  0  0
  -32.3639  -31.3605   17.9178 C   0  0  0  0  0  0  0  0  0  0  0  0
  -28.1455  -11.9834   18.7661 C   0  0  0  0  0  0  0  0  0  0  0  0
  -30.5013  -12.4684   19.5495 C   0  0  0  0  0  0  0  0  0  0  0  0
  -28.5994  -13.2599   20.9022 C   0  0  0  0  0  0  0  0  0  0  0  0
  -32.7971  -29.8973   17.7664 C   0  0  1  0  0  0  0  0  0  0  0  0
  -29.6833  -27.7542   17.3865 C   0  0  1  0  0  0  0  0  0  0  0  0
  -27.6343  -13.0817   19.7177 C   0  0  2  0  0  0  0  0  0  0  0  0
  -28.2811  -19.0146   24.1367 C   0  0  0  0  0  0  0  0  0  0  0  0
  -21.9703  -28.3000   17.8503 C   0  0  0  0  0  0  0  0  0  0  0  0
  -25.7712  -21.5099   17.1168 C   0  0  0  0  0  0  0  0  0  0  0  0
  -24.5017  -20.5941   19.0687 C   0  0  0  0  0  0  0  0  0  0  0  0
  -27.6368  -31.0775   19.8619 C   0  0  0  0  0  0  0  0  0  0  0  0
  -25.1475  -30.8976   20.0594 C   0  0  0  0  0  0  0  0  0  0  0  0
  -26.1765  -31.6318   17.9088 C   0  0  0  0  0  0  0  0  0  0  0  0
  -23.9703  -25.2542   16.7553 C   0  0  0  0  0  0  0  0  0  0  0  0
  -26.2299  -18.0447   18.9052 C   0  0  0  0  0  0  0  0  0  0  0  0
  -26.1506  -19.1208   17.7962 C   0  0  0  0  0  0  0  0  0  0  0  0
  -28.8834  -21.1604   22.9534 C   0  0  0  0  0  0  0  0  0  0  0  0
  -30.5924  -17.9592   20.9108 C   0  0  0  0  0  0  0  0  0  0  0  0
  -30.8432  -16.8206   21.8960 C   0  0  0  0  0  0  0  0  0  0  0  0
  -29.7179  -21.8439   21.8742 C   0  0  0  0  0  0  0  0  0  1  0  0
  -28.9817  -19.6231   22.9159 C   0  0  2  0  0  0  0  0  0  0  0  0
  -26.3664  -29.2104   18.6107 C   0  0  1  0  0  0  0  0  0  0  0  0
  -23.1978  -27.5533   17.3520 C   0  0  2  0  0  0  0  0  0  0  0  0
  -25.8221  -20.5389   18.2991 C   0  0  0  0  0  0  0  0  0  0  0  0
  -26.3483  -30.6814   19.1138 C   0  0  0  0  0  0  0  0  0  0  0  0
  -25.8114  -11.5348   20.3235 N   0  0  0  0  0  0  0  0  0  0  0  0
  -28.5190  -17.8451   19.6956 N   0  0  0  0  0  0  0  0  0  0  0  0
  -29.1925  -18.2869   20.7714 N   0  0  0  0  0  0  0  0  0  0  0  0
  -26.2135  -12.8086   20.1758 N   0  0  0  0  0  0  0  0  0  0  0  0
  -28.4289  -27.9339   18.1202 N   0  0  0  0  0  0  0  0  0  0  0  0
  -29.9610  -13.5231   20.4106 N   0  0  0  0  0  0  0  0  0  0  0  0
  -25.4863  -15.0541   20.3750 N   0  0  0  0  0  0  0  0  0  0  0  0
  -21.8437  -12.6688   21.5743 N   0  0  0  0  0  0  0  0  0  0  0  0
  -31.6972  -29.0923   17.2799 N   0  0  0  0  0  0  0  0  0  0  0  0
  -25.1699  -28.8157   17.8750 N   0  0  0  0  0  0  0  0  0  0  0  0
  -30.1596  -15.6042   21.5165 N   0  0  0  0  0  0  0  0  0  0  0  0
  -22.8599  -26.1051   17.2553 N   0  3  0  0  0  0  0  0  0  0  0  0
  -22.6620  -14.7884   21.2636 O   0  0  0  0  0  0  0  0  0  0  0  0
  -30.6675  -28.6732   19.3260 O   0  0  0  0  0  0  0  0  0  0  0  0
  -27.6479  -29.5627   16.6460 O   0  0  0  0  0  0  0  0  0  0  0  0
  -24.5875  -27.0525   19.2639 O   0  0  0  0  0  0  0  0  0  0  0  0
  -31.8935  -14.7952   20.2533 O   0  0  0  0  0  0  0  0  0  0  0  0
  -21.4656   -7.1146   21.7810 O   0  0  0  0  0  0  0  0  0  0  0  0
  -29.5408  -23.2556   21.9842 O   0  0  0  0  0  0  0  0  0  1  0  0
  -23.7918   -3.0697   24.7190 F   0  0  0  0  0  0  0  0  0  0  0  0
  -20.3788   -6.3068   24.1912 F   0  0  0  0  0  0  0  0  0  0  0  0
  1  2  1  0  0  0  0
  1  5  2  0  0  0  0
  2  6  2  0  0  0  0
  3  8  2  0  0  0  0
  3 16  1  0  0  0  0
  4  9  1  0  0  0  0
  4 16  2  0  0  0  0
  5 18  1  0  0  0  0
  6 20  1  0  0  0  0
  7 10  2  0  0  0  0
  7 19  1  0  0  0  0
  8 22  1  0  0  0  0
  9 22  2  0  0  0  0
 10 23  1  0  0  0  0
 11 12  2  0  0  0  0
 11 24  1  0  0  0  0
 12 25  1  0  0  0  0
 13 21  1  0  0  0  0
 13 23  2  0  0  0  0
 14 25  2  0  0  0  0
 14 26  1  0  0  0  0
 15 28  1  0  0  0  0
 15 29  2  0  0  0  0
 16 27  1  0  0  0  0
 17 27  1  0  0  0  0
 17 30  2  0  0  0  0
 17 31  1  0  0  0  0
 18 20  2  0  0  0  0
 18 36  1  0  0  0  0
 19 21  2  0  0  0  0
 19 37  1  0  0  0  0
 20 45  1  0  0  0  0
 21 38  1  0  0  0  0
 22 84  1  0  0  0  0
 23 85  1  0  0  0  0
 24 26  2  0  0  0  0
 24 84  1  0  0  0  0
 25 86  1  0  0  0  0
 26 87  1  0  0  0  0
 27 67  2  0  0  0  0
 28 56  1  0  0  0  0
 28 68  2  0  0  0  0
 29 62  1  0  0  0  0
 29 69  1  0  0  0  0
 30 70  1  0  0  0  0
 30 73  1  0  0  0  0
 31 74  1  0  0  0  0
 31 79  2  0  0  0  0
 32 46  1  0  0  0  0
 32 75  1  0  0  0  0
 32 80  2  0  0  0  0
 33 63  1  0  0  0  0
 33 71  1  0  0  0  0
 33 81  2  0  0  0  0
 34 64  1  0  0  0  0
 34 76  1  0  0  0  0
 34 82  2  0  0  0  0
 35 72  1  0  0  0  0
 35 77  1  0  0  0  0
 35 83  2  0  0  0  0
 36 39  1  0  0  0  0
 37 46  1  0  0  0  0
 38 71  1  0  0  0  0
 39 41  1  0  0  0  0
 40 42  1  0  0  0  0
 40 43  1  0  0  0  0
 41 45  1  0  0  0  0
 42 47  1  0  0  0  0
 43 72  1  0  0  0  0
 44 47  1  0  0  0  0
 44 72  1  0  0  0  0
 45 75  1  0  0  0  0
 46 71  1  0  0  0  0
 47 70  1  0  0  0  0
 48 62  1  0  0  0  0
 49 64  1  0  0  0  0
 50 65  1  0  0  0  0
 51 65  1  0  0  0  0
 52 66  1  0  0  0  0
 53 66  1  0  0  0  0
 54 66  1  0  0  0  0
 55 78  1  0  0  0  0
 56 57  1  0  0  0  0
 57 65  1  0  0  0  0
 58 61  1  0  0  0  0
 58 62  1  0  0  0  0
 59 60  1  0  0  0  0
 59 69  1  0  0  0  0
 60 77  1  0  0  0  0
 61 85  1  0  0  0  0
 63 66  1  0  0  0  0
 63 76  1  0  0  0  0
 64 78  1  0  0  0  0
 67 70  1  0  0  0  0
 68 69  1  0  0  0  0
M  CHG  1  78   1
M  ISO  4  35 100  61 101  77 100  85 101
M  END
> <Batch ID>
0094

> <Smiles>
CNC(C)C(=O)NC(C(=O)N1Cc2cc([101O:1][101CH2:1]CC(C)c3cc(CCC(C)C)nn3CC[100NH:0][100C:0](=O)N3CCCC(n4nc(-c5ccc(Oc6ccc(F)cc6F)cc5)c(C(N)=O)c4N)C3)ccc2CC1C(=O)NC1CCCc2ccccc21)C(C)(C)C

> <Shape>
0.279

> <Color>
0.194

> <Negative vol penalty>
0.000

$$$$

  -OEChem-04052319193D

 91 99  0     1  0  0  0  0  0999 V2000
  -19.3827  -23.8373   23.8029 C   0  0  0  0  0  0  0  0  0  0  0  0
  -20.7556  -23.9653   23.6179 C   0  0  0  0  0  0  0  0  0  0  0  0
  -25.4554  -15.4150   19.6800 C   0  0  0  0  0  0  0  0  0  0  0  0
  -27.7564  -15.0149   20.2982 C   0  0  0  0  0  0  0  0  0  0  0  0
  -18.5363  -24.9004   23.4911 C   0  0  0  0  0  0  0  0  0  0  0  0
  -21.2828  -25.1563   23.1199 C   0  0  0  0  0  0  0  0  0  0  0  0
  -25.3849  -26.6807   25.6682 C   0  0  0  0  0  0  0  0  0  0  0  0
  -25.1519  -14.0796   19.9449 C   0  0  0  0  0  0  0  0  0  0  0  0
  -27.4530  -13.6794   20.5632 C   0  0  0  0  0  0  0  0  0  0  0  0
  -26.5880  -26.0369   25.3819 C   0  0  0  0  0  0  0  0  0  0  0  0
  -24.5580  -12.1510   22.6580 C   0  0  0  0  0  0  0  0  0  0  0  0
  -23.3999  -11.8818   23.3872 C   0  0  0  0  0  0  0  0  0  0  0  0
  -27.2334  -27.8836   23.9704 C   0  0  0  0  0  0  0  0  0  0  0  0
  -30.7795  -24.6158   20.0477 C   0  0  0  0  0  0  0  0  0  0  0  0
  -28.5757  -24.6080   21.0376 C   0  0  0  0  0  0  0  0  0  0  0  0
  -22.5341  -10.5927   21.5363 C   0  0  0  0  0  0  0  0  0  0  0  0
  -26.7576  -15.8826   19.8566 C   0  0  0  0  0  0  0  0  0  0  0  0
  -27.0175  -18.3415   20.4843 C   0  0  0  0  0  0  0  0  0  0  0  0
  -19.0543  -26.1084   22.9981 C   0  0  0  0  0  0  0  0  0  0  0  0
  -25.0919  -27.9279   25.0981 C   0  0  0  0  0  0  0  0  0  0  0  0
  -20.4423  -26.2362   22.7999 C   0  0  0  0  0  0  0  0  0  0  0  0
  -26.0270  -28.5423   24.2531 C   0  0  0  0  0  0  0  0  0  0  0  0
  -29.9631  -24.5709   21.1777 C   0  0  0  0  0  0  0  0  0  0  0  0
  -30.2087  -24.6979   18.7776 C   0  0  0  0  0  0  0  0  0  0  0  0
  -28.8214  -24.7349   18.6375 C   0  0  0  0  0  0  0  0  0  0  0  0
  -26.1507  -13.2118   20.3865 C   0  0  0  0  0  0  0  0  0  0  0  0
  -27.5112  -26.6370   24.5306 C   0  0  0  0  0  0  0  0  0  0  0  0
  -24.7042  -11.6412   21.3678 C   0  0  0  0  0  0  0  0  0  0  0  0
  -28.0049  -24.6900   19.7675 C   0  0  0  0  0  0  0  0  0  0  0  0
  -22.3880  -11.1026   22.8265 C   0  0  0  0  0  0  0  0  0  0  0  0
  -23.6922  -10.8620   20.8071 C   0  0  0  0  0  0  0  0  0  0  0  0
  -27.0718  -17.2619   19.5825 C   0  0  0  0  0  0  0  0  0  0  0  0
  -27.4071  -19.4292   19.7415 C   0  0  0  0  0  0  0  0  0  0  0  0
  -26.6480  -18.3596   21.8695 C   0  0  0  0  0  0  0  0  0  0  0  0
  -22.8393  -29.0271   23.1433 C   0  0  0  0  0  0  0  0  0  0  0  0
  -24.2340  -31.8868   23.7755 C   0  0  0  0  0  0  0  0  0  0  0  0
  -27.0189  -33.5980   24.7567 C   0  0  0  0  0  0  0  0  0  0  0  0
  -30.8216  -21.8160   16.0281 C   0  0  0  0  0  0  0  0  0  0  0  0
  -18.0955  -27.2131   22.6306 C   0  0  0  0  0  0  0  0  0  0  0  0
  -23.8012  -28.6215   25.4381 C   0  0  0  0  0  0  0  0  0  0  0  0
  -25.7692  -29.8898   23.6315 C   0  0  0  0  0  0  0  0  0  0  0  0
  -18.7688  -28.5726   22.4609 C   0  0  0  0  0  0  0  0  0  0  0  0
  -28.0762  -19.9410   14.7539 C   0  0  0  0  0  0  0  0  0  0  0  0
  -20.0295  -28.4418   21.6122 C   0  0  0  0  0  0  0  0  0  0  0  0
  -27.5701  -19.1617   15.9690 C   0  0  0  0  0  0  0  0  0  0  0  0
  -29.5975  -20.0737   14.7622 C   0  0  0  0  0  0  0  0  0  0  0  0
  -29.6570  -19.8596   17.2166 C   0  0  0  0  0  0  0  0  0  0  0  0
  -21.0544  -27.5209   22.2852 C   0  0  1  0  0  0  0  0  0  0  0  0
  -23.3850  -29.6540   24.3950 C   0  0  1  0  0  0  0  0  0  0  0  0
  -28.1241  -19.7478   17.2815 C   0  0  2  0  0  0  0  0  0  0  0  0
  -28.2848  -26.2296   16.6973 C   0  0  0  0  0  0  0  0  0  0  0  0
  -23.6257  -27.5406   18.5358 C   0  0  0  0  0  0  0  0  0  0  0  0
  -31.9931  -26.0066   17.5830 C   0  0  0  0  0  0  0  0  0  0  0  0
  -27.8651  -35.9290   25.1411 C   0  0  0  0  0  0  0  0  0  0  0  0
  -31.5612  -25.6493   24.5500 C   0  0  0  0  0  0  0  0  0  0  0  0
  -24.4799  -32.2919   20.7613 C   0  0  0  0  0  0  0  0  0  0  0  0
  -26.1360  -34.1147   21.2117 C   0  0  0  0  0  0  0  0  0  0  0  0
  -23.7913  -34.3309   22.0352 C   0  0  0  0  0  0  0  0  0  0  0  0
  -27.5428  -33.0603   27.6195 C   0  0  0  0  0  0  0  0  0  0  0  0
  -30.5811  -24.4835   22.5520 C   0  0  0  0  0  0  0  0  0  0  0  0
  -28.2042  -24.8219   17.2782 C   0  0  0  0  0  0  0  0  0  0  0  0
  -24.9135  -26.9755   19.1132 C   0  0  0  0  0  0  0  0  0  0  0  0
  -24.6328  -25.9150   20.1739 C   0  0  0  0  0  0  0  0  0  0  0  0
  -31.9961  -23.4902   17.4340 C   0  0  0  0  0  0  0  0  0  0  0  0
  -25.9193  -25.3157   20.7239 C   0  0  0  0  0  0  0  0  0  0  0  0
  -29.5859  -26.6827   23.3689 C   0  0  0  0  0  0  0  0  0  1  0  0
  -31.1049  -24.7460   17.5835 C   0  0  1  0  0  0  0  0  0  0  0  0
  -25.3531  -32.6902   23.1582 C   0  0  1  0  0  0  0  0  0  0  0  0
  -27.2125  -34.7092   25.7727 C   0  0  2  0  0  0  0  0  0  0  0  0
  -30.8670  -25.8542   23.1974 C   0  0  1  0  0  0  0  0  0  0  0  0
  -24.9444  -33.3306   21.8016 C   0  0  0  0  0  0  0  0  0  0  0  0
  -27.4648  -17.6302   18.3602 N   0  0  0  0  0  0  0  0  0  0  0  0
  -27.6609  -18.9535   18.4887 N   0  0  0  0  0  0  0  0  0  0  0  0
  -24.4902  -30.5250   23.9895 N   0  0  0  0  0  0  0  0  0  0  0  0
  -30.0581  -20.6369   16.0336 N   0  0  0  0  0  0  0  0  0  0  0  0
  -27.5539  -20.7365   20.0444 N   0  0  0  0  0  0  0  0  0  0  0  0
  -26.2742  -17.1532   22.4771 N   0  0  0  0  0  0  0  0  0  0  0  0
  -21.7376  -28.2197   23.3526 N   0  0  0  0  0  0  0  0  0  0  0  0
  -25.7716  -33.6528   24.1714 N   0  0  0  0  0  0  0  0  0  0  0  0
  -31.2122  -22.2855   17.2762 N   0  0  0  0  0  0  0  0  0  0  0  0
  -28.0762  -34.2416   26.8936 N   0  3  0  0  0  0  0  0  0  0  0  0
  -26.6335  -19.4170   22.5441 O   0  0  0  0  0  0  0  0  0  0  0  0
  -23.3770  -29.2599   22.0670 O   0  0  0  0  0  0  0  0  0  0  0  0
  -23.1743  -32.4483   24.0640 O   0  0  0  0  0  0  0  0  0  0  0  0
  -27.8886  -32.7670   24.5047 O   0  0  0  0  0  0  0  0  0  0  0  0
  -31.1277  -22.4093   14.9883 O   0  0  0  0  0  0  0  0  0  0  0  0
  -25.8549  -11.9087   20.6454 O   0  0  0  0  0  0  0  0  0  0  0  0
  -28.6860  -26.0105   24.2490 O   0  0  0  0  0  0  0  0  0  1  0  0
  -26.6479  -24.7241   19.6501 O   0  0  0  0  0  0  0  0  0  0  0  0
  -21.2765  -10.8428   23.5275 F   0  0  0  0  0  0  0  0  0  0  0  0
  -23.8274  -10.3684   19.5685 F   0  0  0  0  0  0  0  0  0  0  0  0
  1  2  1  0  0  0  0
  1  5  2  0  0  0  0
  2  6  2  0  0  0  0
  3  8  2  0  0  0  0
  3 17  1  0  0  0  0
  4  9  1  0  0  0  0
  4 17  2  0  0  0  0
  5 19  1  0  0  0  0
  6 21  1  0  0  0  0
  7 10  2  0  0  0  0
  7 20  1  0  0  0  0
  8 26  1  0  0  0  0
  9 26  2  0  0  0  0
 10 27  1  0  0  0  0
 11 12  2  0  0  0  0
 11 28  1  0  0  0  0
 12 30  1  0  0  0  0
 13 22  1  0  0  0  0
 13 27  2  0  0  0  0
 14 23  1  0  0  0  0
 14 24  2  0  0  0  0
 15 23  2  0  0  0  0
 15 29  1  0  0  0  0
 16 30  2  0  0  0  0
 16 31  1  0  0  0  0
 17 32  1  0  0  0  0
 18 32  1  0  0  0  0
 18 33  2  0  0  0  0
 18 34  1  0  0  0  0
 19 21  2  0  0  0  0
 19 39  1  0  0  0  0
 20 22  2  0  0  0  0
 20 40  1  0  0  0  0
 21 48  1  0  0  0  0
 22 41  1  0  0  0  0
 23 60  1  0  0  0  0
 24 25  1  0  0  0  0
 24 67  1  0  0  0  0
 25 29  2  0  0  0  0
 25 61  1  0  0  0  0
 26 87  1  0  0  0  0
 27 88  1  0  0  0  0
 28 31  2  0  0  0  0
 28 87  1  0  0  0  0
 29 89  1  0  0  0  0
 30 90  1  0  0  0  0
 31 91  1  0  0  0  0
 32 72  2  0  0  0  0
 33 73  1  0  0  0  0
 33 76  1  0  0  0  0
 34 77  1  0  0  0  0
 34 82  2  0  0  0  0
 35 49  1  0  0  0  0
 35 78  1  0  0  0  0
 35 83  2  0  0  0  0
 36 68  1  0  0  0  0
 36 74  1  0  0  0  0
 36 84  2  0  0  0  0
 37 69  1  0  0  0  0
 37 79  1  0  0  0  0
 37 85  2  0  0  0  0
 38 75  1  0  0  0  0
 38 80  1  0  0  0  0
 38 86  2  0  0  0  0
 39 42  1  0  0  0  0
 40 49  1  0  0  0  0
 41 74  1  0  0  0  0
 42 44  1  0  0  0  0
 43 45  1  0  0  0  0
 43 46  1  0  0  0  0
 44 48  1  0  0  0  0
 45 50  1  0  0  0  0
 46 75  1  0  0  0  0
 47 50  1  0  0  0  0
 47 75  1  0  0  0  0
 48 78  1  0  0  0  0
 49 74  1  0  0  0  0
 50 73  1  0  0  0  0
 51 61  1  0  0  0  0
 52 62  1  0  0  0  0
 53 67  1  0  0  0  0
 54 69  1  0  0  0  0
 55 70  1  0  0  0  0
 56 71  1  0  0  0  0
 57 71  1  0  0  0  0
 58 71  1  0  0  0  0
 59 81  1  0  0  0  0
 60 70  1  0  0  0  0
 62 63  1  0  0  0  0
 63 65  1  0  0  0  0
 64 67  1  0  0  0  0
 64 80  1  0  0  0  0
 65 89  1  0  0  0  0
 66 70  1  0  0  0  0
 66 88  1  0  0  0  0
 68 71  1  0  0  0  0
 68 79  1  0  0  0  0
 69 81  1  0  0  0  0
 72 73  1  0  0  0  0
M  CHG  1  81   1
M  ISO  4  38 100  66 101  80 100  88 101
M  END
> <Batch ID>
0094

> <Smiles>
CCCCOc1cc(CC(C)[101CH2:1][101O:1]c2ccc3c(c2)CN(C(=O)C(NC(=O)C(C)NC)C(C)(C)C)C(C(=O)NC2CCCc4ccccc42)C3)cc(C(C)C[100NH:0][100C:0](=O)N2CCCC(n3nc(-c4ccc(Oc5ccc(F)cc5F)cc4)c(C(N)=O)c3N)C2)c1CC

> <Shape>
0.244

> <Color>
0.068

> <Negative vol penalty>
0.000

$$$$

  -OEChem-04052319193D

 86 94  0     1  0  0  0  0  0999 V2000
  -29.7011  -23.2779   18.4597 C   0  0  0  0  0  0  0  0  0  0  0  0
  -28.4792  -23.4214   19.1093 C   0  0  0  0  0  0  0  0  0  0  0  0
  -25.2161  -15.5415   19.9828 C   0  0  0  0  0  0  0  0  0  0  0  0
  -24.2852  -14.7465   22.0657 C   0  0  0  0  0  0  0  0  0  0  0  0
  -30.7832  -24.0761   18.8284 C   0  0  0  0  0  0  0  0  0  0  0  0
  -28.3391  -24.3624   20.1287 C   0  0  0  0  0  0  0  0  0  0  0  0
  -24.0573  -27.0366   19.7288 C   0  0  0  0  0  0  0  0  0  0  0  0
  -25.7796  -14.2860   19.7554 C   0  0  0  0  0  0  0  0  0  0  0  0
  -24.8486  -13.4909   21.8383 C   0  0  0  0  0  0  0  0  0  0  0  0
  -22.8794  -26.4189   20.1469 C   0  0  0  0  0  0  0  0  0  0  0  0
  -28.4730  -12.5370   20.8097 C   0  0  0  0  0  0  0  0  0  0  0  0
  -29.7962  -12.4912   20.3711 C   0  0  0  0  0  0  0  0  0  0  0  0
  -22.9984  -27.6194   22.2358 C   0  0  0  0  0  0  0  0  0  0  0  0
  -21.7059  -23.2637   28.0141 C   0  0  0  0  0  0  0  0  0  0  0  0
  -29.0910  -11.3479   18.3629 C   0  0  0  0  0  0  0  0  0  0  0  0
  -21.4531  -21.7533   26.3634 C   0  0  0  0  0  0  0  0  0  0  0  0
  -24.4690  -15.7718   21.1380 C   0  0  0  0  0  0  0  0  0  0  0  0
  -22.6128  -17.5141   20.9744 C   0  0  0  0  0  0  0  0  0  0  0  0
  -30.6535  -25.0341   19.8463 C   0  0  0  0  0  0  0  0  0  0  0  0
  -24.7215  -27.9437   20.5669 C   0  0  0  0  0  0  0  0  0  0  0  0
  -29.4208  -25.1732   20.5123 C   0  0  0  0  0  0  0  0  0  0  0  0
  -24.1831  -28.2493   21.8250 C   0  0  0  0  0  0  0  0  0  0  0  0
  -22.0175  -21.9434   27.6054 C   0  0  0  0  0  0  0  0  0  0  0  0
  -25.5958  -13.2607   20.6831 C   0  0  0  0  0  0  0  0  0  0  0  0
  -22.3513  -26.7081   21.4017 C   0  0  0  0  0  0  0  0  0  0  0  0
  -27.4587  -11.9883   20.0249 C   0  0  0  0  0  0  0  0  0  0  0  0
  -30.1053  -11.8967   19.1477 C   0  0  0  0  0  0  0  0  0  0  0  0
  -27.7677  -11.3938   18.8016 C   0  0  0  0  0  0  0  0  0  0  0  0
  -23.8872  -17.0687   21.3738 C   0  0  0  0  0  0  0  0  0  0  0  0
  -20.9604  -23.8400   27.0094 C   0  0  0  0  0  0  0  0  0  0  0  0
  -22.5403  -18.8057   21.4359 C   0  0  0  0  0  0  0  0  0  0  0  0
  -21.5864  -16.8221   20.2510 C   0  0  0  0  0  0  0  0  0  0  0  0
  -27.5848  -28.0425   21.9437 C   0  0  0  0  0  0  0  0  0  0  0  0
  -26.6292  -31.0156   22.8212 C   0  0  0  0  0  0  0  0  0  0  0  0
  -24.0522  -33.1648   23.4430 C   0  0  0  0  0  0  0  0  0  0  0  0
  -25.2765  -21.6972   25.9085 C   0  0  0  0  0  0  0  0  0  0  0  0
  -31.8646  -25.8411   20.2423 C   0  0  0  0  0  0  0  0  0  0  0  0
  -25.9768  -28.6217   20.0904 C   0  0  0  0  0  0  0  0  0  0  0  0
  -24.8469  -29.2312   22.7544 C   0  0  0  0  0  0  0  0  0  0  0  0
  -31.5285  -27.0740   21.0773 C   0  0  0  0  0  0  0  0  0  0  0  0
  -25.3009  -22.5772   22.4586 C   0  0  0  0  0  0  0  0  0  0  0  0
  -30.5449  -26.7155   22.1867 C   0  0  0  0  0  0  0  0  0  0  0  0
  -24.8263  -21.3054   21.7533 C   0  0  0  0  0  0  0  0  0  0  0  0
  -26.1752  -22.2583   23.6693 C   0  0  0  0  0  0  0  0  0  0  0  0
  -25.0952  -20.0595   23.9383 C   0  0  0  0  0  0  0  0  0  0  0  0
  -29.2225  -26.2000   21.6061 C   0  0  1  0  0  0  0  0  0  0  0  0
  -26.8459  -29.1403   21.2319 C   0  0  1  0  0  0  0  0  0  0  0  0
  -24.1641  -20.3288   22.7438 C   0  0  2  0  0  0  0  0  0  0  0  0
  -22.5941  -26.4716   27.0903 C   0  0  0  0  0  0  0  0  0  0  0  0
  -18.9159  -25.2314   27.4278 C   0  0  0  0  0  0  0  0  0  0  0  0
  -23.5833  -35.5173   24.1802 C   0  0  0  0  0  0  0  0  0  0  0  0
  -27.2926  -30.2439   25.6977 C   0  0  0  0  0  0  0  0  0  0  0  0
  -25.9464  -32.2114   26.4624 C   0  0  0  0  0  0  0  0  0  0  0  0
  -27.9762  -32.5622   25.0554 C   0  0  0  0  0  0  0  0  0  0  0  0
  -22.6785  -33.8105   20.9023 C   0  0  0  0  0  0  0  0  0  0  0  0
  -22.8022  -20.9539   28.3681 C   0  0  0  0  0  0  0  0  0  0  0  0
  -21.1911  -26.3003   27.6597 C   0  0  0  0  0  0  0  0  0  0  0  0
  -20.8489  -23.9157   23.6692 C   0  0  0  0  0  0  0  0  0  0  0  0
  -20.1142  -24.0310   22.3326 C   0  0  0  0  0  0  0  0  0  0  0  0
  -20.0652  -23.1181   24.7178 C   0  0  0  0  0  0  0  0  0  0  0  0
  -24.3156  -20.9976   28.0871 C   0  0  0  0  0  0  0  0  0  0  0  0
  -20.9372  -24.7983   21.3065 C   0  0  0  0  0  0  0  0  0  1  0  0
  -20.3781  -25.1951   26.9191 C   0  0  1  0  0  0  0  0  0  0  0  0
  -25.8904  -31.5958   24.0029 C   0  0  1  0  0  0  0  0  0  0  0  0
  -23.8002  -34.5924   22.9926 C   0  0  2  0  0  0  0  0  0  0  0  0
  -26.7647  -31.6333   25.2881 C   0  0  0  0  0  0  0  0  0  0  0  0
  -24.5748  -18.0017   22.0377 N   0  0  0  0  0  0  0  0  0  0  0  0
  -20.8127  -22.9127   26.0113 N   0  0  0  0  0  0  0  0  0  0  0  0
  -23.7294  -19.0462   22.0591 N   0  0  0  0  0  0  0  0  0  0  0  0
  -26.0753  -29.8633   22.2456 N   0  0  0  0  0  0  0  0  0  0  0  0
  -25.4887  -21.3289   24.5697 N   0  0  0  0  0  0  0  0  0  0  0  0
  -21.5760  -19.7478   21.3654 N   0  0  0  0  0  0  0  0  0  0  0  0
  -21.8255  -15.4999   19.8524 N   0  0  0  0  0  0  0  0  0  0  0  0
  -28.4174  -27.3026   21.1259 N   0  0  0  0  0  0  0  0  0  0  0  0
  -25.3991  -32.9015   23.5762 N   0  0  0  0  0  0  0  0  0  0  0  0
  -24.6128  -20.7610   26.6920 N   0  0  0  0  0  0  0  0  0  0  0  0
  -22.5927  -34.6552   22.1214 N   0  3  0  0  0  0  0  0  0  0  0  0
  -20.4961  -17.3658   19.9523 O   0  0  0  0  0  0  0  0  0  0  0  0
  -27.4134  -27.8798   23.1462 O   0  0  0  0  0  0  0  0  0  0  0  0
  -27.6559  -31.5686   22.4190 O   0  0  0  0  0  0  0  0  0  0  0  0
  -23.1448  -32.3645   23.6590 O   0  0  0  0  0  0  0  0  0  0  0  0
  -25.6460  -22.7823   26.3699 O   0  0  0  0  0  0  0  0  0  0  0  0
  -26.1453  -12.0353   20.4614 O   0  0  0  0  0  0  0  0  0  0  0  0
  -21.2021  -26.1061   21.8125 O   0  0  0  0  0  0  0  0  0  1  0  0
  -31.3759  -11.8541   18.7259 F   0  0  0  0  0  0  0  0  0  0  0  0
  -26.7974  -10.8660   18.0427 F   0  0  0  0  0  0  0  0  0  0  0  0
  1  2  1  0  0  0  0
  1  5  2  0  0  0  0
  2  6  2  0  0  0  0
  3  8  2  0  0  0  0
  3 17  1  0  0  0  0
  4  9  1  0  0  0  0
  4 17  2  0  0  0  0
  5 19  1  0  0  0  0
  6 21  1  0  0  0  0
  7 10  2  0  0  0  0
  7 20  1  0  0  0  0
  8 24  1  0  0  0  0
  9 24  2  0  0  0  0
 10 25  1  0  0  0  0
 11 12  2  0  0  0  0
 11 26  1  0  0  0  0
 12 27  1  0  0  0  0
 13 22  1  0  0  0  0
 13 25  2  0  0  0  0
 14 23  1  0  0  0  0
 14 30  2  0  0  0  0
 15 27  2  0  0  0  0
 15 28  1  0  0  0  0
 16 23  2  0  0  0  0
 16 68  1  0  0  0  0
 17 29  1  0  0  0  0
 18 29  1  0  0  0  0
 18 31  2  0  0  0  0
 18 32  1  0  0  0  0
 19 21  2  0  0  0  0
 19 37  1  0  0  0  0
 20 22  2  0  0  0  0
 20 38  1  0  0  0  0
 21 46  1  0  0  0  0
 22 39  1  0  0  0  0
 23 56  1  0  0  0  0
 24 83  1  0  0  0  0
 25 84  1  0  0  0  0
 26 28  2  0  0  0  0
 26 83  1  0  0  0  0
 27 85  1  0  0  0  0
 28 86  1  0  0  0  0
 29 67  2  0  0  0  0
 30 63  1  0  0  0  0
 30 68  1  0  0  0  0
 31 69  1  0  0  0  0
 31 72  1  0  0  0  0
 32 73  1  0  0  0  0
 32 78  2  0  0  0  0
 33 47  1  0  0  0  0
 33 74  1  0  0  0  0
 33 79  2  0  0  0  0
 34 64  1  0  0  0  0
 34 70  1  0  0  0  0
 34 80  2  0  0  0  0
 35 65  1  0  0  0  0
 35 75  1  0  0  0  0
 35 81  2  0  0  0  0
 36 71  1  0  0  0  0
 36 76  1  0  0  0  0
 36 82  2  0  0  0  0
 37 40  1  0  0  0  0
 38 47  1  0  0  0  0
 39 70  1  0  0  0  0
 40 42  1  0  0  0  0
 41 43  1  0  0  0  0
 41 44  1  0  0  0  0
 42 46  1  0  0  0  0
 43 48  1  0  0  0  0
 44 71  1  0  0  0  0
 45 48  1  0  0  0  0
 45 71  1  0  0  0  0
 46 74  1  0  0  0  0
 47 70  1  0  0  0  0
 48 69  1  0  0  0  0
 49 57  1  0  0  0  0
 50 63  1  0  0  0  0
 51 65  1  0  0  0  0
 52 66  1  0  0  0  0
 53 66  1  0  0  0  0
 54 66  1  0  0  0  0
 55 77  1  0  0  0  0
 56 61  1  0  0  0  0
 57 63  1  0  0  0  0
 58 59  1  0  0  0  0
 58 60  1  0  0  0  0
 59 62  1  0  0  0  0
 60 68  1  0  0  0  0
 61 76  1  0  0  0  0
 62 84  1  0  0  0  0
 64 66  1  0  0  0  0
 64 75  1  0  0  0  0
 65 77  1  0  0  0  0
 67 69  1  0  0  0  0
M  CHG  1  77   1
M  ISO  4  36 100  62 101  76 100  84 101
M  END
> <Batch ID>
0094

> <Smiles>
CCC(C)c1cc(CC[100NH:0][100C:0](=O)N2CCCC(n3nc(-c4ccc(Oc5ccc(F)cc5F)cc4)c(C(N)=O)c3N)C2)cn1CCC[101CH2:1][101O:1]c1ccc2c(c1)CN(C(=O)C(NC(=O)C(C)NC)C(C)(C)C)C(C(=O)NC1CCCc3ccccc31)C2

> <Shape>
0.224

> <Color>
0.063

> <Negative vol penalty>
0.000

$$$$

  -OEChem-04052319193D

 93101  0     1  0  0  0  0  0999 V2000
  -28.1482  -24.2813   17.4151 C   0  0  0  0  0  0  0  0  0  0  0  0
  -26.9405  -24.5600   18.0470 C   0  0  0  0  0  0  0  0  0  0  0  0
  -26.7525  -16.9265   20.3729 C   0  0  0  0  0  0  0  0  0  0  0  0
  -26.1966  -16.4411   22.6734 C   0  0  0  0  0  0  0  0  0  0  0  0
  -29.3386  -24.7881   17.9346 C   0  0  0  0  0  0  0  0  0  0  0  0
  -26.9227  -25.3447   19.1995 C   0  0  0  0  0  0  0  0  0  0  0  0
  -23.2506  -28.8310   19.1194 C   0  0  0  0  0  0  0  0  0  0  0  0
  -26.8922  -15.5622   20.1187 C   0  0  0  0  0  0  0  0  0  0  0  0
  -26.3363  -15.0767   22.4193 C   0  0  0  0  0  0  0  0  0  0  0  0
  -21.9558  -28.3986   19.4026 C   0  0  0  0  0  0  0  0  0  0  0  0
  -27.7469  -12.2250   18.9541 C   0  0  0  0  0  0  0  0  0  0  0  0
  -28.8569  -11.8113   18.2178 C   0  0  0  0  0  0  0  0  0  0  0  0
  -22.1806  -29.2224   21.6587 C   0  0  0  0  0  0  0  0  0  0  0  0
  -30.3198  -12.7403   19.9012 C   0  0  0  0  0  0  0  0  0  0  0  0
  -22.4150  -26.2910   25.6983 C   0  0  0  0  0  0  0  0  0  0  0  0
  -26.4047  -17.3660   21.6502 C   0  0  0  0  0  0  0  0  0  0  0  0
  -25.0897  -19.5472   21.7936 C   0  0  0  0  0  0  0  0  0  0  0  0
  -29.3344  -25.5875   19.0886 C   0  0  0  0  0  0  0  0  0  0  0  0
  -24.0254  -29.4537   20.1086 C   0  0  0  0  0  0  0  0  0  0  0  0
  -28.1144  -25.8616   19.7357 C   0  0  0  0  0  0  0  0  0  0  0  0
  -23.4840  -29.6641   21.3848 C   0  0  0  0  0  0  0  0  0  0  0  0
  -26.6841  -14.6373   21.1419 C   0  0  0  0  0  0  0  0  0  0  0  0
  -21.4216  -28.5916   20.6732 C   0  0  0  0  0  0  0  0  0  0  0  0
  -27.9233  -12.8964   20.1640 C   0  0  0  0  0  0  0  0  0  0  0  0
  -30.1434  -12.0689   18.6913 C   0  0  0  0  0  0  0  0  0  0  0  0
  -29.2097  -13.1541   20.6375 C   0  0  0  0  0  0  0  0  0  0  0  0
  -26.2608  -18.7753   21.9135 C   0  0  0  0  0  0  0  0  0  0  0  0
  -23.5667  -25.6741   25.2985 C   0  0  0  0  0  0  0  0  0  0  0  0
  -25.4754  -20.8149   22.1552 C   0  0  0  0  0  0  0  0  0  0  0  0
  -22.2079  -24.1255   26.1086 C   0  0  0  0  0  0  0  0  0  0  0  0
  -23.7709  -19.1536   21.3915 C   0  0  0  0  0  0  0  0  0  0  0  0
  -26.7737  -28.7830   21.5580 C   0  0  0  0  0  0  0  0  0  0  0  0
  -26.3471  -31.7174   22.8732 C   0  0  0  0  0  0  0  0  0  0  0  0
  -24.1899  -34.2080   23.7623 C   0  0  0  0  0  0  0  0  0  0  0  0
  -28.2292  -24.2805   25.5540 C   0  0  0  0  0  0  0  0  0  0  0  0
  -30.6515  -26.0736   19.6397 C   0  0  0  0  0  0  0  0  0  0  0  0
  -25.4107  -29.9384   19.7794 C   0  0  0  0  0  0  0  0  0  0  0  0
  -24.2672  -30.3455   22.4759 C   0  0  0  0  0  0  0  0  0  0  0  0
  -30.5070  -27.2073   20.6517 C   0  0  0  0  0  0  0  0  0  0  0  0
  -30.0808  -22.7626   22.9188 C   0  0  0  0  0  0  0  0  0  0  0  0
  -29.4124  -26.8835   21.6635 C   0  0  0  0  0  0  0  0  0  0  0  0
  -29.1584  -21.6503   22.4171 C   0  0  0  0  0  0  0  0  0  0  0  0
  -29.9827  -22.9373   24.4327 C   0  0  0  0  0  0  0  0  0  0  0  0
  -27.6923  -22.0276   24.4437 C   0  0  0  0  0  0  0  0  0  0  0  0
  -28.0515  -26.7296   20.9737 C   0  0  1  0  0  0  0  0  0  0  0  0
  -26.2961  -30.0986   21.0114 C   0  0  1  0  0  0  0  0  0  0  0  0
  -27.7147  -21.8516   22.9157 C   0  0  2  0  0  0  0  0  0  0  0  0
  -23.3909  -22.9680   31.3209 C   0  0  0  0  0  0  0  0  0  0  0  0
  -21.5132  -21.8440   25.3347 C   0  0  0  0  0  0  0  0  0  0  0  0
  -24.1315  -36.4673   24.8528 C   0  0  0  0  0  0  0  0  0  0  0  0
  -18.1924  -23.3866   25.2826 C   0  0  0  0  0  0  0  0  0  0  0  0
  -26.6898  -30.4045   25.6061 C   0  0  0  0  0  0  0  0  0  0  0  0
  -25.6972  -32.4576   26.6394 C   0  0  0  0  0  0  0  0  0  0  0  0
  -27.8329  -32.6152   25.3601 C   0  0  0  0  0  0  0  0  0  0  0  0
  -23.1081  -35.4862   21.3221 C   0  0  0  0  0  0  0  0  0  0  0  0
  -24.7915  -26.2069   24.6965 C   0  0  0  0  0  0  0  0  0  0  0  0
  -23.3193  -22.1605   30.0347 C   0  0  0  0  0  0  0  0  0  0  0  0
  -25.8926  -26.6389   25.7022 C   0  0  0  0  0  0  0  0  0  0  0  0
  -22.5491  -22.9086   28.9459 C   0  0  0  0  0  0  0  0  0  0  0  0
  -19.3696  -25.7818   22.4064 C   0  0  0  0  0  0  0  0  0  0  0  0
  -18.7023  -26.2695   21.1216 C   0  0  0  0  0  0  0  0  0  0  0  0
  -22.5064  -22.1015   27.6425 C   0  0  0  0  0  0  0  0  0  0  0  0
  -18.4282  -24.9809   23.3153 C   0  0  0  0  0  0  0  0  0  0  0  0
  -19.1218  -25.6805   25.6746 C   0  0  0  0  0  0  0  0  0  0  0  0
  -20.2083  -25.5361   26.7503 C   0  0  0  0  0  0  0  0  0  0  0  0
  -26.3628  -25.5167   26.6252 C   0  0  0  0  0  0  0  0  0  0  0  0
  -19.6809  -27.0308   20.2376 C   0  0  0  0  0  0  0  0  0  1  0  0
  -21.6719  -22.8081   26.5329 C   0  0  1  0  0  0  0  0  0  0  0  0
  -25.6652  -32.2445   24.1127 C   0  0  1  0  0  0  0  0  0  0  0  0
  -24.2370  -35.7087   23.5390 C   0  0  2  0  0  0  0  0  0  0  0  0
  -19.0238  -24.5154   24.6608 C   0  0  1  0  0  0  0  0  0  0  0  0
  -26.4570  -31.9158   25.4098 C   0  0  0  0  0  0  0  0  0  0  0  0
  -27.3119  -19.4926   22.3194 N   0  0  0  0  0  0  0  0  0  0  0  0
  -21.5920  -25.3091   26.1950 N   0  0  0  0  0  0  0  0  0  0  0  0
  -26.8026  -20.7286   22.4576 N   0  0  0  0  0  0  0  0  0  0  0  0
  -23.4109  -24.3350   25.5643 N   0  3  0  0  0  0  0  0  0  0  0  0
  -25.6195  -30.7958   22.1069 N   0  0  0  0  0  0  0  0  0  0  0  0
  -28.5882  -23.1254   24.8400 N   0  0  0  0  0  0  0  0  0  0  0  0
  -24.8055  -21.9838   22.2407 N   0  0  0  0  0  0  0  0  0  0  0  0
  -23.5481  -17.8117   21.0537 N   0  0  0  0  0  0  0  0  0  0  0  0
  -27.4969  -28.0277   20.6547 N   0  0  0  0  0  0  0  0  0  0  0  0
  -25.4535  -33.6702   23.8870 N   0  0  0  0  0  0  0  0  0  0  0  0
  -26.8862  -24.3834   25.8956 N   0  0  0  0  0  0  0  0  0  0  0  0
  -23.1141  -36.1368   22.6576 N   0  3  0  0  0  0  0  0  0  0  0  0
  -22.8223  -19.9710   21.3176 O   0  0  0  0  0  0  0  0  0  0  0  0
  -26.5071  -28.4766   22.7142 O   0  0  0  0  0  0  0  0  0  0  0  0
  -27.4805  -32.1142   22.5914 O   0  0  0  0  0  0  0  0  0  0  0  0
  -23.1373  -33.5764   23.8240 O   0  0  0  0  0  0  0  0  0  0  0  0
  -29.0440  -25.1578   25.8596 O   0  0  0  0  0  0  0  0  0  0  0  0
  -26.8202  -13.3059   20.8942 O   0  0  0  0  0  0  0  0  0  0  0  0
  -20.1583  -28.1699   20.9525 O   0  0  0  0  0  0  0  0  0  1  0  0
  -31.2093  -11.6702   17.9848 F   0  0  0  0  0  0  0  0  0  0  0  0
  -29.3855  -13.7977   21.7997 F   0  0  0  0  0  0  0  0  0  0  0  0
  1  2  1  0  0  0  0
  1  5  2  0  0  0  0
  2  6  2  0  0  0  0
  3  8  2  0  0  0  0
  3 16  1  0  0  0  0
  4  9  1  0  0  0  0
  4 16  2  0  0  0  0
  5 18  1  0  0  0  0
  6 20  1  0  0  0  0
  7 10  2  0  0  0  0
  7 19  1  0  0  0  0
  8 22  1  0  0  0  0
  9 22  2  0  0  0  0
 10 23  1  0  0  0  0
 11 12  2  0  0  0  0
 11 24  1  0  0  0  0
 12 25  1  0  0  0  0
 13 21  1  0  0  0  0
 13 23  2  0  0  0  0
 14 25  2  0  0  0  0
 14 26  1  0  0  0  0
 15 28  2  0  0  0  0
 15 74  1  0  0  0  0
 16 27  1  0  0  0  0
 17 27  1  0  0  0  0
 17 29  2  0  0  0  0
 17 31  1  0  0  0  0
 18 20  2  0  0  0  0
 18 36  1  0  0  0  0
 19 21  2  0  0  0  0
 19 37  1  0  0  0  0
 20 45  1  0  0  0  0
 21 38  1  0  0  0  0
 22 90  1  0  0  0  0
 23 91  1  0  0  0  0
 24 26  2  0  0  0  0
 24 90  1  0  0  0  0
 25 92  1  0  0  0  0
 26 93  1  0  0  0  0
 27 73  2  0  0  0  0
 28 56  1  0  0  0  0
 28 76  1  0  0  0  0
 29 75  1  0  0  0  0
 29 79  1  0  0  0  0
 30 68  1  0  0  0  0
 30 74  1  0  0  0  0
 30 76  2  0  0  0  0
 31 80  1  0  0  0  0
 31 85  2  0  0  0  0
 32 46  1  0  0  0  0
 32 81  1  0  0  0  0
 32 86  2  0  0  0  0
 33 69  1  0  0  0  0
 33 77  1  0  0  0  0
 33 87  2  0  0  0  0
 34 70  1  0  0  0  0
 34 82  1  0  0  0  0
 34 88  2  0  0  0  0
 35 78  1  0  0  0  0
 35 83  1  0  0  0  0
 35 89  2  0  0  0  0
 36 39  1  0  0  0  0
 37 46  1  0  0  0  0
 38 77  1  0  0  0  0
 39 41  1  0  0  0  0
 40 42  1  0  0  0  0
 40 43  1  0  0  0  0
 41 45  1  0  0  0  0
 42 47  1  0  0  0  0
 43 78  1  0  0  0  0
 44 47  1  0  0  0  0
 44 78  1  0  0  0  0
 45 81  1  0  0  0  0
 46 77  1  0  0  0  0
 47 75  1  0  0  0  0
 48 57  1  0  0  0  0
 49 68  1  0  0  0  0
 50 70  1  0  0  0  0
 51 71  1  0  0  0  0
 52 72  1  0  0  0  0
 53 72  1  0  0  0  0
 54 72  1  0  0  0  0
 55 84  1  0  0  0  0
 56 58  1  0  0  0  0
 57 59  1  0  0  0  0
 58 66  1  0  0  0  0
 59 62  1  0  0  0  0
 60 61  1  0  0  0  0
 60 63  1  0  0  0  0
 61 67  1  0  0  0  0
 62 68  1  0  0  0  0
 63 71  1  0  0  0  0
 64 65  1  0  0  0  0
 64 71  1  0  0  0  0
 65 74  1  0  0  0  0
 66 83  1  0  0  0  0
 67 91  1  0  0  0  0
 69 72  1  0  0  0  0
 69 82  1  0  0  0  0
 70 84  1  0  0  0  0
 73 75  1  0  0  0  0
M  CHG  2  76   1  84   1
M  ISO  4  35 100  67 101  83 100  91 101
M  END
> <Batch ID>
0094

> <Smiles>
CCCCC(C)c1nc(CCC[100NH:0][100C:0](=O)N2CCCC(n3nc(-c4ccc(Oc5ccc(F)cc5F)cc4)c(C(N)=O)c3N)C2)cn1CCC(C)CCC[101CH2:1][101O:1]c1ccc2c(c1)CN(C(=O)C(NC(=O)C(C)NC)C(C)(C)C)C(C(=O)NC1CCCc3ccccc31)C2

> <Shape>
0.264

> <Color>
0.062

> <Negative vol penalty>
0.000

$$$$

  -OEChem-04052319193D

 85 93  0     1  0  0  0  0  0999 V2000
  -16.8893  -26.9626   23.6541 C   0  0  0  0  0  0  0  0  0  0  0  0
  -18.1056  -26.3602   23.3489 C   0  0  0  0  0  0  0  0  0  0  0  0
  -26.4456  -12.8563   20.7710 C   0  0  0  0  0  0  0  0  0  0  0  0
  -26.7607  -12.6772   18.3823 C   0  0  0  0  0  0  0  0  0  0  0  0
  -16.6832  -28.3077   23.3503 C   0  0  0  0  0  0  0  0  0  0  0  0
  -19.1162  -27.1023   22.7387 C   0  0  0  0  0  0  0  0  0  0  0  0
  -25.1497  -26.5250   23.6163 C   0  0  0  0  0  0  0  0  0  0  0  0
  -25.2418  -12.1599   20.6644 C   0  0  0  0  0  0  0  0  0  0  0  0
  -25.5569  -11.9806   18.2757 C   0  0  0  0  0  0  0  0  0  0  0  0
  -26.1440  -25.8674   22.8934 C   0  0  0  0  0  0  0  0  0  0  0  0
  -24.2446   -8.9473   20.3206 C   0  0  0  0  0  0  0  0  0  0  0  0
  -23.9984   -7.9331   21.2460 C   0  0  0  0  0  0  0  0  0  0  0  0
  -27.2719  -23.8867   15.6237 C   0  0  0  0  0  0  0  0  0  0  0  0
  -26.6884  -27.9338   21.7740 C   0  0  0  0  0  0  0  0  0  0  0  0
  -22.0179   -9.0969   21.9946 C   0  0  0  0  0  0  0  0  0  0  0  0
  -26.2917  -22.9287   15.4207 C   0  0  0  0  0  0  0  0  0  0  0  0
  -27.2050  -13.1151   19.6299 C   0  0  0  0  0  0  0  0  0  0  0  0
  -29.7299  -13.2913   19.9489 C   0  0  0  0  0  0  0  0  0  0  0  0
  -17.6952  -29.0691   22.7448 C   0  0  0  0  0  0  0  0  0  0  0  0
  -24.9095  -27.8919   23.4152 C   0  0  0  0  0  0  0  0  0  0  0  0
  -18.9230  -28.4585   22.4253 C   0  0  0  0  0  0  0  0  0  0  0  0
  -25.6922  -28.6070   22.4975 C   0  0  0  0  0  0  0  0  0  0  0  0
  -28.3113  -23.5799   16.4949 C   0  0  0  0  0  0  0  0  0  0  0  0
  -28.3383  -22.3420   17.1274 C   0  0  0  0  0  0  0  0  0  0  0  0
  -24.7974  -11.7220   19.4168 C   0  0  0  0  0  0  0  0  0  0  0  0
  -26.9116  -26.5711   21.9699 C   0  0  0  0  0  0  0  0  0  0  0  0
  -23.3776  -10.0364   20.2323 C   0  0  0  0  0  0  0  0  0  0  0  0
  -22.8851   -8.0078   22.0829 C   0  0  0  0  0  0  0  0  0  0  0  0
  -22.2642  -10.1111   21.0692 C   0  0  0  0  0  0  0  0  0  0  0  0
  -28.4484  -13.8350   19.7393 C   0  0  0  0  0  0  0  0  0  0  0  0
  -27.3102  -21.4532   16.8573 C   0  0  0  0  0  0  0  0  0  0  0  0
  -30.5650  -14.3814   19.9765 C   0  0  0  0  0  0  0  0  0  0  0  0
  -30.1296  -11.9233   20.1047 C   0  0  0  0  0  0  0  0  0  0  0  0
  -22.4342  -29.6092   22.4018 C   0  0  0  0  0  0  0  0  0  0  0  0
  -24.3338  -32.1093   23.2162 C   0  0  0  0  0  0  0  0  0  0  0  0
  -27.4879  -33.2974   23.7517 C   0  0  0  0  0  0  0  0  0  0  0  0
  -30.3221  -19.6606   17.5936 C   0  0  0  0  0  0  0  0  0  0  0  0
  -17.4091  -30.5074   22.3924 C   0  0  0  0  0  0  0  0  0  0  0  0
  -23.8512  -28.5925   24.2224 C   0  0  0  0  0  0  0  0  0  0  0  0
  -25.4877  -30.0800   22.2593 C   0  0  0  0  0  0  0  0  0  0  0  0
  -18.6642  -31.3209   22.0867 C   0  0  0  0  0  0  0  0  0  0  0  0
  -30.6307  -19.0336   21.0554 C   0  0  0  0  0  0  0  0  0  0  0  0
  -19.5844  -30.5494   21.1460 C   0  0  0  0  0  0  0  0  0  0  0  0
  -30.2189  -17.5643   21.1346 C   0  0  0  0  0  0  0  0  0  0  0  0
  -29.7687  -19.8194   20.0655 C   0  0  0  0  0  0  0  0  0  0  0  0
  -29.3010  -17.7496   18.7927 C   0  0  0  0  0  0  0  0  0  0  0  0
  -20.0524  -29.2367   21.7858 C   0  0  1  0  0  0  0  0  0  0  0  0
  -23.3485  -29.8738   23.5644 C   0  0  1  0  0  0  0  0  0  0  0  0
  -30.1903  -16.9247   19.7356 C   0  0  2  0  0  0  0  0  0  0  0  0
  -27.2855  -20.1085   17.5074 C   0  0  0  0  0  0  0  0  0  0  0  0
  -32.6779  -21.8809   17.0528 C   0  0  0  0  0  0  0  0  0  0  0  0
  -28.7258  -35.3910   24.3696 C   0  0  0  0  0  0  0  0  0  0  0  0
  -23.9034  -33.1931   20.3966 C   0  0  0  0  0  0  0  0  0  0  0  0
  -25.8622  -34.7104   20.7559 C   0  0  0  0  0  0  0  0  0  0  0  0
  -23.8398  -34.9240   22.2005 C   0  0  0  0  0  0  0  0  0  0  0  0
  -28.6020  -32.0557   26.1963 C   0  0  0  0  0  0  0  0  0  0  0  0
  -29.3929  -24.6026   16.7357 C   0  0  0  0  0  0  0  0  0  0  0  0
  -29.4409  -21.9854   18.0668 C   0  0  0  0  0  0  0  0  0  0  0  0
  -28.9680  -25.7465   17.6632 C   0  0  0  0  0  0  0  0  0  0  0  0
  -28.6261  -25.2750   19.0773 C   0  0  0  0  0  0  0  0  0  0  0  0
  -31.2970  -21.6326   16.4805 C   0  0  0  0  0  0  0  0  0  0  0  0
  -28.1709  -26.4312   19.9574 C   0  0  0  0  0  0  0  0  0  1  0  0
  -25.3747  -32.9379   22.5029 C   0  0  1  0  0  0  0  0  0  0  0  0
  -28.0767  -34.1164   24.8861 C   0  0  2  0  0  0  0  0  0  0  0  0
  -24.7479  -33.9132   21.4668 C   0  0  0  0  0  0  0  0  0  0  0  0
  -26.2840  -21.7156   16.0172 N   0  0  0  0  0  0  0  0  0  0  0  0
  -28.4631  -15.1669   19.6408 N   0  0  0  0  0  0  0  0  0  0  0  0
  -29.7641  -15.4694   19.7893 N   0  0  0  0  0  0  0  0  0  0  0  0
  -24.4365  -30.7189   23.0682 N   0  0  0  0  0  0  0  0  0  0  0  0
  -29.7302  -19.1499   18.7582 N   0  0  0  0  0  0  0  0  0  0  0  0
  -31.8989  -14.5058   20.1424 N   0  0  0  0  0  0  0  0  0  0  0  0
  -29.1437  -10.9287   20.0500 N   0  0  0  0  0  0  0  0  0  0  0  0
  -21.1021  -29.4902   22.7494 N   0  0  0  0  0  0  0  0  0  0  0  0
  -26.1576  -33.5946   23.5441 N   0  0  0  0  0  0  0  0  0  0  0  0
  -30.3991  -21.0562   17.4713 N   0  0  0  0  0  0  0  0  0  0  0  0
  -29.1085  -33.3255   25.6147 N   0  3  0  0  0  0  0  0  0  0  0  0
  -31.3236  -11.5938   20.3035 O   0  0  0  0  0  0  0  0  0  0  0  0
  -22.9024  -29.5211   21.2728 O   0  0  0  0  0  0  0  0  0  0  0  0
  -23.4658  -32.6747   23.8861 O   0  0  0  0  0  0  0  0  0  0  0  0
  -28.1436  -32.4787   23.1110 O   0  0  0  0  0  0  0  0  0  0  0  0
  -30.7516  -18.9117   16.7066 O   0  0  0  0  0  0  0  0  0  0  0  0
  -23.6229  -11.0421   19.3125 O   0  0  0  0  0  0  0  0  0  0  0  0
  -27.8823  -25.9315   21.2625 O   0  0  0  0  0  0  0  0  0  1  0  0
  -22.6479   -7.0330   22.9705 F   0  0  0  0  0  0  0  0  0  0  0  0
  -21.4269  -11.1543   20.9881 F   0  0  0  0  0  0  0  0  0  0  0  0
  1  2  1  0  0  0  0
  1  5  2  0  0  0  0
  2  6  2  0  0  0  0
  3  8  2  0  0  0  0
  3 17  1  0  0  0  0
  4  9  1  0  0  0  0
  4 17  2  0  0  0  0
  5 19  1  0  0  0  0
  6 21  1  0  0  0  0
  7 10  2  0  0  0  0
  7 20  1  0  0  0  0
  8 25  1  0  0  0  0
  9 25  2  0  0  0  0
 10 26  1  0  0  0  0
 11 12  2  0  0  0  0
 11 27  1  0  0  0  0
 12 28  1  0  0  0  0
 13 16  1  0  0  0  0
 13 23  2  0  0  0  0
 14 22  1  0  0  0  0
 14 26  2  0  0  0  0
 15 28  2  0  0  0  0
 15 29  1  0  0  0  0
 16 66  2  0  0  0  0
 17 30  1  0  0  0  0
 18 30  1  0  0  0  0
 18 32  2  0  0  0  0
 18 33  1  0  0  0  0
 19 21  2  0  0  0  0
 19 38  1  0  0  0  0
 20 22  2  0  0  0  0
 20 39  1  0  0  0  0
 21 47  1  0  0  0  0
 22 40  1  0  0  0  0
 23 24  1  0  0  0  0
 23 57  1  0  0  0  0
 24 31  2  0  0  0  0
 24 58  1  0  0  0  0
 25 82  1  0  0  0  0
 26 83  1  0  0  0  0
 27 29  2  0  0  0  0
 27 82  1  0  0  0  0
 28 84  1  0  0  0  0
 29 85  1  0  0  0  0
 30 67  2  0  0  0  0
 31 50  1  0  0  0  0
 31 66  1  0  0  0  0
 32 68  1  0  0  0  0
 32 71  1  0  0  0  0
 33 72  1  0  0  0  0
 33 77  2  0  0  0  0
 34 48  1  0  0  0  0
 34 73  1  0  0  0  0
 34 78  2  0  0  0  0
 35 63  1  0  0  0  0
 35 69  1  0  0  0  0
 35 79  2  0  0  0  0
 36 64  1  0  0  0  0
 36 74  1  0  0  0  0
 36 80  2  0  0  0  0
 37 70  1  0  0  0  0
 37 75  1  0  0  0  0
 37 81  2  0  0  0  0
 38 41  1  0  0  0  0
 39 48  1  0  0  0  0
 40 69  1  0  0  0  0
 41 43  1  0  0  0  0
 42 44  1  0  0  0  0
 42 45  1  0  0  0  0
 43 47  1  0  0  0  0
 44 49  1  0  0  0  0
 45 70  1  0  0  0  0
 46 49  1  0  0  0  0
 46 70  1  0  0  0  0
 47 73  1  0  0  0  0
 48 69  1  0  0  0  0
 49 68  1  0  0  0  0
 51 61  1  0  0  0  0
 52 64  1  0  0  0  0
 53 65  1  0  0  0  0
 54 65  1  0  0  0  0
 55 65  1  0  0  0  0
 56 76  1  0  0  0  0
 57 59  1  0  0  0  0
 58 75  1  0  0  0  0
 59 60  1  0  0  0  0
 60 62  1  0  0  0  0
 61 75  1  0  0  0  0
 62 83  1  0  0  0  0
 63 65  1  0  0  0  0
 63 74  1  0  0  0  0
 64 76  1  0  0  0  0
 67 68  1  0  0  0  0
M  CHG  1  76   1
M  ISO  4  37 100  62 101  75 100  83 101
M  END
> <Batch ID>
0094

> <Smiles>
CC[100N:0](Cc1c(CCC[101CH2:1][101O:1]c2ccc3c(c2)CN(C(=O)C(NC(=O)C(C)NC)C(C)(C)C)C(C(=O)NC2CCCc4ccccc42)C3)ccnc1C)[100C:0](=O)N1CCCC(n2nc(-c3ccc(Oc4ccc(F)cc4F)cc3)c(C(N)=O)c2N)C1

> <Shape>
0.294

> <Color>
0.087

> <Negative vol penalty>
0.000

$$$$

  -OEChem-04052319193D

 91 99  0     1  0  0  0  0  0999 V2000
  -34.1410  -29.0670   17.5434 C   0  0  0  0  0  0  0  0  0  0  0  0
  -32.7687  -29.0304   17.3236 C   0  0  0  0  0  0  0  0  0  0  0  0
  -26.2076  -12.8544   21.5201 C   0  0  0  0  0  0  0  0  0  0  0  0
  -26.0740  -13.4395   19.1798 C   0  0  0  0  0  0  0  0  0  0  0  0
  -34.6328  -29.1451   18.8446 C   0  0  0  0  0  0  0  0  0  0  0  0
  -31.8876  -29.0839   18.4042 C   0  0  0  0  0  0  0  0  0  0  0  0
  -25.8117  -28.6619   18.5856 C   0  0  0  0  0  0  0  0  0  0  0  0
  -25.0160  -12.1380   21.4090 C   0  0  0  0  0  0  0  0  0  0  0  0
  -24.8824  -12.7230   19.0687 C   0  0  0  0  0  0  0  0  0  0  0  0
  -24.8539  -27.6611   18.7437 C   0  0  0  0  0  0  0  0  0  0  0  0
  -22.1977   -9.8552   21.6561 C   0  0  0  0  0  0  0  0  0  0  0  0
  -22.1428   -8.5926   22.2462 C   0  0  0  0  0  0  0  0  0  0  0  0
  -24.7076  -28.1810   21.0947 C   0  0  0  0  0  0  0  0  0  0  0  0
  -27.0092  -25.2713   20.3348 C   0  0  0  0  0  0  0  0  0  0  0  0
  -23.9662   -7.8570   20.8422 C   0  0  0  0  0  0  0  0  0  0  0  0
  -26.7366  -13.5052   20.4054 C   0  0  0  0  0  0  0  0  0  0  0  0
  -29.2736  -13.7594   20.3232 C   0  0  0  0  0  0  0  0  0  0  0  0
  -33.7568  -29.1870   19.9418 C   0  0  0  0  0  0  0  0  0  0  0  0
  -26.2333  -29.4237   19.6848 C   0  0  0  0  0  0  0  0  0  0  0  0
  -32.3640  -29.1870   19.7236 C   0  0  0  0  0  0  0  0  0  0  0  0
  -25.6690  -29.1925   20.9475 C   0  0  0  0  0  0  0  0  0  0  0  0
  -28.1527  -25.3696   19.5500 C   0  0  0  0  0  0  0  0  0  0  0  0
  -28.4301  -24.3843   18.6089 C   0  0  0  0  0  0  0  0  0  0  0  0
  -24.3534  -12.0723   20.1834 C   0  0  0  0  0  0  0  0  0  0  0  0
  -24.3038  -27.4186   19.9989 C   0  0  0  0  0  0  0  0  0  0  0  0
  -23.1369  -10.1188   20.6590 C   0  0  0  0  0  0  0  0  0  0  0  0
  -23.0270   -7.5935   21.8393 C   0  0  0  0  0  0  0  0  0  0  0  0
  -24.0211   -9.1197   20.2521 C   0  0  0  0  0  0  0  0  0  0  0  0
  -27.9673  -14.2459   20.5196 C   0  0  0  0  0  0  0  0  0  0  0  0
  -26.1819  -24.1769   20.1413 C   0  0  0  0  0  0  0  0  0  0  0  0
  -27.5392  -23.3294   18.4928 C   0  0  0  0  0  0  0  0  0  0  0  0
  -30.0823  -14.8466   20.5479 C   0  0  0  0  0  0  0  0  0  0  0  0
  -29.7165  -12.4425   19.9692 C   0  0  0  0  0  0  0  0  0  0  0  0
  -29.0043  -29.8636   21.1787 C   0  0  0  0  0  0  0  0  0  0  0  0
  -27.3150  -32.0853   22.8318 C   0  0  0  0  0  0  0  0  0  0  0  0
  -24.2766  -33.1983   23.9162 C   0  0  0  0  0  0  0  0  0  0  0  0
  -29.1735  -20.7525   20.1662 C   0  0  0  0  0  0  0  0  0  0  0  0
  -34.3431  -29.2792   21.3285 C   0  0  0  0  0  0  0  0  0  0  0  0
  -27.2478  -30.5174   19.4925 C   0  0  0  0  0  0  0  0  0  0  0  0
  -26.0727  -29.9961   22.1557 C   0  0  0  0  0  0  0  0  0  0  0  0
  -33.3533  -28.8845   22.4198 C   0  0  0  0  0  0  0  0  0  0  0  0
  -30.2575  -18.9339   23.0287 C   0  0  0  0  0  0  0  0  0  0  0  0
  -32.0354  -29.6165   22.2157 C   0  0  0  0  0  0  0  0  0  0  0  0
  -29.9113  -17.4823   22.6926 C   0  0  0  0  0  0  0  0  0  0  0  0
  -29.2062  -19.9034   22.4931 C   0  0  0  0  0  0  0  0  0  0  0  0
  -28.5703  -18.3175   20.7170 C   0  0  0  0  0  0  0  0  0  0  0  0
  -31.3871  -29.2132   20.8852 C   0  0  1  0  0  0  0  0  0  0  0  0
  -27.9792  -30.8869   20.7794 C   0  0  1  0  0  0  0  0  0  0  0  0
  -29.6301  -17.3069   21.1881 C   0  0  2  0  0  0  0  0  0  0  0  0
  -29.0643  -26.5368   19.7385 C   0  0  0  0  0  0  0  0  0  0  0  0
  -26.1312  -22.7218   22.8207 C   0  0  0  0  0  0  0  0  0  0  0  0
  -30.9502  -24.4206   18.5728 C   0  0  0  0  0  0  0  0  0  0  0  0
  -29.6461  -25.7071   16.8410 C   0  0  0  0  0  0  0  0  0  0  0  0
  -23.2178  -35.0192   25.2801 C   0  0  0  0  0  0  0  0  0  0  0  0
  -22.1703  -25.2502   18.4527 C   0  0  0  0  0  0  0  0  0  0  0  0
  -27.8538  -22.7024   16.0019 C   0  0  0  0  0  0  0  0  0  0  0  0
  -26.6205  -21.1969   17.5409 C   0  0  0  0  0  0  0  0  0  0  0  0
  -28.2423  -30.7049   25.3900 C   0  0  0  0  0  0  0  0  0  0  0  0
  -26.4420  -31.9330   26.6224 C   0  0  0  0  0  0  0  0  0  0  0  0
  -28.2634  -33.2038   25.4866 C   0  0  0  0  0  0  0  0  0  0  0  0
  -22.7085  -34.1770   21.6049 C   0  0  0  0  0  0  0  0  0  0  0  0
  -24.9489  -22.7645   21.8596 C   0  0  0  0  0  0  0  0  0  0  0  0
  -23.6395  -24.0415   20.1087 C   0  0  0  0  0  0  0  0  0  0  0  0
  -29.1085  -21.4509   17.7856 C   0  0  0  0  0  0  0  0  0  0  0  0
  -29.6480  -24.4646   17.7513 C   0  0  0  0  0  0  0  0  0  0  0  0
  -24.9215  -24.0366   20.9805 C   0  0  2  0  0  0  0  0  0  0  0  0
  -26.4822  -32.0762   24.0909 C   0  0  1  0  0  0  0  0  0  0  0  0
  -23.6398  -34.5760   23.8879 C   0  0  2  0  0  0  0  0  0  0  0  0
  -23.4488  -25.3196   19.2786 C   0  0  2  0  0  0  0  0  0  1  0  0
  -27.7826  -22.2414   17.4985 C   0  0  0  0  0  0  0  0  0  0  0  0
  -27.3511  -31.9628   25.3753 C   0  0  0  0  0  0  0  0  0  0  0  0
  -27.9428  -15.5413   20.8443 N   0  0  0  0  0  0  0  0  0  0  0  0
  -26.4182  -23.1999   19.2373 N   0  0  0  0  0  0  0  0  0  0  0  0
  -29.2438  -15.8780   20.8537 N   0  0  0  0  0  0  0  0  0  0  0  0
  -27.0727  -31.0501   21.9178 N   0  0  0  0  0  0  0  0  0  0  0  0
  -28.9876  -19.6859   21.0610 N   0  0  0  0  0  0  0  0  0  0  0  0
  -31.4217  -15.0115   20.5119 N   0  0  0  0  0  0  0  0  0  0  0  0
  -28.7531  -11.4433   19.7752 N   0  0  0  0  0  0  0  0  0  0  0  0
  -30.2549  -30.0765   20.6309 N   0  0  0  0  0  0  0  0  0  0  0  0
  -25.6481  -33.2719   24.0372 N   0  0  0  0  0  0  0  0  0  0  0  0
  -28.9516  -20.4593   18.8262 N   0  0  0  0  0  0  0  0  0  0  0  0
  -22.4350  -34.5719   23.0107 N   0  3  0  0  0  0  0  0  0  0  0  0
  -30.9315  -12.1563   19.8451 O   0  0  0  0  0  0  0  0  0  0  0  0
  -28.6847  -28.9493   21.9295 O   0  0  0  0  0  0  0  0  0  0  0  0
  -28.1449  -32.9821   22.6621 O   0  0  0  0  0  0  0  0  0  0  0  0
  -23.6224  -32.1604   23.8422 O   0  0  0  0  0  0  0  0  0  0  0  0
  -29.5174  -21.8811   20.5336 O   0  0  0  0  0  0  0  0  0  0  0  0
  -23.1907  -11.3731   20.0746 O   0  0  0  0  0  0  0  0  0  0  0  0
  -23.3693  -26.4420   20.1562 O   0  0  0  0  0  0  0  0  0  1  0  0
  -22.9751   -6.3814   22.4072 F   0  0  0  0  0  0  0  0  0  0  0  0
  -24.9263   -9.3673   19.2954 F   0  0  0  0  0  0  0  0  0  0  0  0
  1  2  1  0  0  0  0
  1  5  2  0  0  0  0
  2  6  2  0  0  0  0
  3  8  2  0  0  0  0
  3 16  1  0  0  0  0
  4  9  1  0  0  0  0
  4 16  2  0  0  0  0
  5 18  1  0  0  0  0
  6 20  1  0  0  0  0
  7 10  2  0  0  0  0
  7 19  1  0  0  0  0
  8 24  1  0  0  0  0
  9 24  2  0  0  0  0
 10 25  1  0  0  0  0
 11 12  2  0  0  0  0
 11 26  1  0  0  0  0
 12 27  1  0  0  0  0
 13 21  1  0  0  0  0
 13 25  2  0  0  0  0
 14 22  2  0  0  0  0
 14 30  1  0  0  0  0
 15 27  2  0  0  0  0
 15 28  1  0  0  0  0
 16 29  1  0  0  0  0
 17 29  1  0  0  0  0
 17 32  2  0  0  0  0
 17 33  1  0  0  0  0
 18 20  2  0  0  0  0
 18 38  1  0  0  0  0
 19 21  2  0  0  0  0
 19 39  1  0  0  0  0
 20 47  1  0  0  0  0
 21 40  1  0  0  0  0
 22 23  1  0  0  0  0
 22 50  1  0  0  0  0
 23 31  2  0  0  0  0
 23 65  1  0  0  0  0
 24 88  1  0  0  0  0
 25 89  1  0  0  0  0
 26 28  2  0  0  0  0
 26 88  1  0  0  0  0
 27 90  1  0  0  0  0
 28 91  1  0  0  0  0
 29 72  2  0  0  0  0
 30 66  1  0  0  0  0
 30 73  2  0  0  0  0
 31 70  1  0  0  0  0
 31 73  1  0  0  0  0
 32 74  1  0  0  0  0
 32 77  1  0  0  0  0
 33 78  1  0  0  0  0
 33 83  2  0  0  0  0
 34 48  1  0  0  0  0
 34 79  1  0  0  0  0
 34 84  2  0  0  0  0
 35 67  1  0  0  0  0
 35 75  1  0  0  0  0
 35 85  2  0  0  0  0
 36 68  1  0  0  0  0
 36 80  1  0  0  0  0
 36 86  2  0  0  0  0
 37 76  1  0  0  0  0
 37 81  1  0  0  0  0
 37 87  2  0  0  0  0
 38 41  1  0  0  0  0
 39 48  1  0  0  0  0
 40 75  1  0  0  0  0
 41 43  1  0  0  0  0
 42 44  1  0  0  0  0
 42 45  1  0  0  0  0
 43 47  1  0  0  0  0
 44 49  1  0  0  0  0
 45 76  1  0  0  0  0
 46 49  1  0  0  0  0
 46 76  1  0  0  0  0
 47 79  1  0  0  0  0
 48 75  1  0  0  0  0
 49 74  1  0  0  0  0
 51 62  1  0  0  0  0
 52 65  1  0  0  0  0
 53 65  1  0  0  0  0
 54 68  1  0  0  0  0
 55 69  1  0  0  0  0
 56 70  1  0  0  0  0
 57 70  1  0  0  0  0
 58 71  1  0  0  0  0
 59 71  1  0  0  0  0
 60 71  1  0  0  0  0
 61 82  1  0  0  0  0
 62 66  1  0  0  0  0
 63 66  1  0  0  0  0
 63 69  1  0  0  0  0
 64 70  1  0  0  0  0
 64 81  1  0  0  0  0
 67 71  1  0  0  0  0
 67 80  1  0  0  0  0
 68 82  1  0  0  0  0
 69 89  1  0  0  0  0
 72 74  1  0  0  0  0
M  CHG  1  82   1
M  ISO  4  37 100  69 101  81 100  89 101
M  END
> <Batch ID>
0094

> <Smiles>
CCC(C[101CH:1](C)[101O:1]c1ccc2c(c1)CN(C(=O)C(NC(=O)C(C)NC)C(C)(C)C)C(C(=O)NC1CCCc3ccccc31)C2)c1cc(C)c(C(C)C)c(C(C)(C)C[100NH:0][100C:0](=O)N2CCCC(n3nc(-c4ccc(Oc5ccc(F)cc5F)cc4)c(C(N)=O)c3N)C2)n1

> <Shape>
0.292

> <Color>
0.091

> <Negative vol penalty>
0.000

$$$$

  -OEChem-04052319193D

 87 95  0     1  0  0  0  0  0999 V2000
  -18.1374  -32.5765   24.3307 C   0  0  0  0  0  0  0  0  0  0  0  0
  -19.3793  -32.8482   23.7656 C   0  0  0  0  0  0  0  0  0  0  0  0
  -25.4471  -13.1738   22.3160 C   0  0  0  0  0  0  0  0  0  0  0  0
  -25.8216  -13.9199   20.0488 C   0  0  0  0  0  0  0  0  0  0  0  0
  -17.8620  -31.3027   24.8262 C   0  0  0  0  0  0  0  0  0  0  0  0
  -20.3469  -31.8465   23.6967 C   0  0  0  0  0  0  0  0  0  0  0  0
  -25.7451  -29.5729   19.5728 C   0  0  0  0  0  0  0  0  0  0  0  0
  -24.4305  -12.3293   21.8703 C   0  0  0  0  0  0  0  0  0  0  0  0
  -24.8049  -13.0753   19.6030 C   0  0  0  0  0  0  0  0  0  0  0  0
  -27.0934  -29.2283   19.6567 C   0  0  0  0  0  0  0  0  0  0  0  0
  -24.1795   -9.3148   20.3594 C   0  0  0  0  0  0  0  0  0  0  0  0
  -24.1553   -8.0114   20.8555 C   0  0  0  0  0  0  0  0  0  0  0  0
  -26.4779  -27.0434   20.4730 C   0  0  0  0  0  0  0  0  0  0  0  0
  -30.1674  -24.9302   19.2813 C   0  0  0  0  0  0  0  0  0  0  0  0
  -30.3994  -25.8343   17.0530 C   0  0  0  0  0  0  0  0  0  0  0  0
  -21.9566   -8.4030   21.7772 C   0  0  0  0  0  0  0  0  0  0  0  0
  -26.1427  -13.9692   21.4053 C   0  0  0  0  0  0  0  0  0  0  0  0
  -28.5607  -14.5344   21.9897 C   0  0  0  0  0  0  0  0  0  0  0  0
  -18.8234  -30.2823   24.7547 C   0  0  0  0  0  0  0  0  0  0  0  0
  -24.7517  -28.6576   19.9492 C   0  0  0  0  0  0  0  0  0  0  0  0
  -20.0846  -30.5583   24.1930 C   0  0  0  0  0  0  0  0  0  0  0  0
  -25.1177  -27.3779   20.3904 C   0  0  0  0  0  0  0  0  0  0  0  0
  -30.4672  -25.9987   18.4365 C   0  0  0  0  0  0  0  0  0  0  0  0
  -29.8000  -23.6970   18.7428 C   0  0  0  0  0  0  0  0  0  0  0  0
  -30.0319  -24.6012   16.5144 C   0  0  0  0  0  0  0  0  0  0  0  0
  -29.7322  -23.5325   17.3593 C   0  0  0  0  0  0  0  0  0  0  0  0
  -24.1093  -12.2800   20.5138 C   0  0  0  0  0  0  0  0  0  0  0  0
  -27.4601  -27.9644   20.1097 C   0  0  0  0  0  0  0  0  0  0  0  0
  -23.0923  -10.1623   20.5722 C   0  0  0  0  0  0  0  0  0  0  0  0
  -23.0439   -7.5555   21.5644 C   0  0  0  0  0  0  0  0  0  0  0  0
  -21.9808   -9.7064   21.2811 C   0  0  0  0  0  0  0  0  0  0  0  0
  -27.1926  -14.8422   21.8653 C   0  0  0  0  0  0  0  0  0  0  0  0
  -29.1310  -15.6905   22.4634 C   0  0  0  0  0  0  0  0  0  0  0  0
  -29.2539  -13.3126   21.7026 C   0  0  0  0  0  0  0  0  0  0  0  0
  -22.4792  -28.6012   22.1710 C   0  0  0  0  0  0  0  0  0  0  0  0
  -21.6175  -25.8607   20.6646 C   0  0  0  0  0  0  0  0  0  0  0  0
  -22.5279  -23.2310   18.6890 C   0  0  0  0  0  0  0  0  0  0  0  0
  -27.5455  -21.4545   22.1268 C   0  0  0  0  0  0  0  0  0  0  0  0
  -18.4964  -28.9341   25.3465 C   0  0  0  0  0  0  0  0  0  0  0  0
  -23.3009  -29.0353   19.8274 C   0  0  0  0  0  0  0  0  0  0  0  0
  -24.0892  -26.3517   20.7874 C   0  0  0  0  0  0  0  0  0  0  0  0
  -19.4438  -27.8252   24.8960 C   0  0  0  0  0  0  0  0  0  0  0  0
  -28.1212  -19.5619   25.0871 C   0  0  0  0  0  0  0  0  0  0  0  0
  -20.8936  -28.2891   24.9942 C   0  0  0  0  0  0  0  0  0  0  0  0
  -28.0719  -18.1099   24.6083 C   0  0  0  0  0  0  0  0  0  0  0  0
  -27.1138  -20.4359   24.3432 C   0  0  0  0  0  0  0  0  0  0  0  0
  -27.1637  -18.9288   22.3939 C   0  0  0  0  0  0  0  0  0  0  0  0
  -21.1515  -29.4912   24.0778 C   0  0  1  0  0  0  0  0  0  0  0  0
  -22.3896  -28.2037   20.7248 C   0  0  1  0  0  0  0  0  0  0  0  0
  -28.2009  -18.0202   23.0758 C   0  0  2  0  0  0  0  0  0  0  0  0
  -31.3342  -24.6706   14.3574 C   0  0  0  0  0  0  0  0  0  0  0  0
  -28.9143  -25.3763   14.3920 C   0  0  0  0  0  0  0  0  0  0  0  0
  -30.4568  -21.5876   15.9290 C   0  0  0  0  0  0  0  0  0  0  0  0
  -28.0372  -22.2942   15.9638 C   0  0  0  0  0  0  0  0  0  0  0  0
  -21.6160  -21.1317   17.6602 C   0  0  0  0  0  0  0  0  0  0  0  0
  -21.7595  -24.4721   23.3778 C   0  0  0  0  0  0  0  0  0  0  0  0
  -21.7851  -22.2766   22.1749 C   0  0  0  0  0  0  0  0  0  0  0  0
  -19.8158  -23.7924   21.9585 C   0  0  0  0  0  0  0  0  0  0  0  0
  -23.0640  -24.2043   15.9460 C   0  0  0  0  0  0  0  0  0  0  0  0
  -30.8655  -27.3329   19.0193 C   0  0  0  0  0  0  0  0  0  0  0  0
  -29.4829  -22.5689   19.6694 C   0  0  0  0  0  0  0  0  0  0  0  0
  -27.9802  -22.3242   19.8434 C   0  0  0  0  0  0  0  0  0  0  0  0
  -29.6650  -28.2411   19.2624 C   0  0  0  0  0  0  0  0  0  1  0  0
  -29.9667  -24.4510   15.0295 C   0  0  0  0  0  0  0  0  0  0  0  0
  -29.3377  -22.2104   16.7821 C   0  0  0  0  0  0  0  0  0  0  0  0
  -21.9820  -24.4026   20.8065 C   0  0  1  0  0  0  0  0  0  0  0  0
  -21.8739  -22.6176   17.4641 C   0  0  2  0  0  0  0  0  0  0  0  0
  -21.3553  -23.7557   22.0739 C   0  0  0  0  0  0  0  0  0  0  0  0
  -26.9108  -16.0956   22.2307 N   0  0  0  0  0  0  0  0  0  0  0  0
  -28.1097  -16.5856   22.5894 N   0  0  0  0  0  0  0  0  0  0  0  0
  -22.6839  -26.7709   20.6567 N   0  0  0  0  0  0  0  0  0  0  0  0
  -27.2906  -20.3064   22.8948 N   0  0  0  0  0  0  0  0  0  0  0  0
  -30.4016  -16.0186   22.7805 N   0  0  0  0  0  0  0  0  0  0  0  0
  -28.5155  -12.2223   21.2227 N   0  0  0  0  0  0  0  0  0  0  0  0
  -21.2891  -29.0588   22.7036 N   0  0  0  0  0  0  0  0  0  0  0  0
  -21.5948  -23.7613   19.5546 N   0  0  0  0  0  0  0  0  0  0  0  0
  -27.7065  -21.2424   20.7630 N   0  0  0  0  0  0  0  0  0  0  0  0
  -22.7482  -22.7892   16.2695 N   0  3  0  0  0  0  0  0  0  0  0  0
  -30.4889  -13.1862   21.8824 O   0  0  0  0  0  0  0  0  0  0  0  0
  -23.5487  -28.4989   22.7605 O   0  0  0  0  0  0  0  0  0  0  0  0
  -20.4307  -26.1797   20.5573 O   0  0  0  0  0  0  0  0  0  0  0  0
  -23.7447  -23.2358   18.8625 O   0  0  0  0  0  0  0  0  0  0  0  0
  -27.6290  -22.5842   22.6206 O   0  0  0  0  0  0  0  0  0  0  0  0
  -23.1175  -11.4558   20.0784 O   0  0  0  0  0  0  0  0  0  0  0  0
  -28.7755  -27.6257   20.1932 O   0  0  0  0  0  0  0  0  0  1  0  0
  -23.0202   -6.3033   22.0394 F   0  0  0  0  0  0  0  0  0  0  0  0
  -20.9329  -10.5157   21.4877 F   0  0  0  0  0  0  0  0  0  0  0  0
  1  2  1  0  0  0  0
  1  5  2  0  0  0  0
  2  6  2  0  0  0  0
  3  8  2  0  0  0  0
  3 17  1  0  0  0  0
  4  9  1  0  0  0  0
  4 17  2  0  0  0  0
  5 19  1  0  0  0  0
  6 21  1  0  0  0  0
  7 10  2  0  0  0  0
  7 20  1  0  0  0  0
  8 27  1  0  0  0  0
  9 27  2  0  0  0  0
 10 28  1  0  0  0  0
 11 12  2  0  0  0  0
 11 29  1  0  0  0  0
 12 30  1  0  0  0  0
 13 22  1  0  0  0  0
 13 28  2  0  0  0  0
 14 23  1  0  0  0  0
 14 24  2  0  0  0  0
 15 23  2  0  0  0  0
 15 25  1  0  0  0  0
 16 30  2  0  0  0  0
 16 31  1  0  0  0  0
 17 32  1  0  0  0  0
 18 32  1  0  0  0  0
 18 33  2  0  0  0  0
 18 34  1  0  0  0  0
 19 21  2  0  0  0  0
 19 39  1  0  0  0  0
 20 22  2  0  0  0  0
 20 40  1  0  0  0  0
 21 48  1  0  0  0  0
 22 41  1  0  0  0  0
 23 60  1  0  0  0  0
 24 26  1  0  0  0  0
 24 61  1  0  0  0  0
 25 26  2  0  0  0  0
 25 64  1  0  0  0  0
 26 65  1  0  0  0  0
 27 84  1  0  0  0  0
 28 85  1  0  0  0  0
 29 31  2  0  0  0  0
 29 84  1  0  0  0  0
 30 86  1  0  0  0  0
 31 87  1  0  0  0  0
 32 69  2  0  0  0  0
 33 70  1  0  0  0  0
 33 73  1  0  0  0  0
 34 74  1  0  0  0  0
 34 79  2  0  0  0  0
 35 49  1  0  0  0  0
 35 75  1  0  0  0  0
 35 80  2  0  0  0  0
 36 66  1  0  0  0  0
 36 71  1  0  0  0  0
 36 81  2  0  0  0  0
 37 67  1  0  0  0  0
 37 76  1  0  0  0  0
 37 82  2  0  0  0  0
 38 72  1  0  0  0  0
 38 77  1  0  0  0  0
 38 83  2  0  0  0  0
 39 42  1  0  0  0  0
 40 49  1  0  0  0  0
 41 71  1  0  0  0  0
 42 44  1  0  0  0  0
 43 45  1  0  0  0  0
 43 46  1  0  0  0  0
 44 48  1  0  0  0  0
 45 50  1  0  0  0  0
 46 72  1  0  0  0  0
 47 50  1  0  0  0  0
 47 72  1  0  0  0  0
 48 75  1  0  0  0  0
 49 71  1  0  0  0  0
 50 70  1  0  0  0  0
 51 64  1  0  0  0  0
 52 64  1  0  0  0  0
 53 65  1  0  0  0  0
 54 65  1  0  0  0  0
 55 67  1  0  0  0  0
 56 68  1  0  0  0  0
 57 68  1  0  0  0  0
 58 68  1  0  0  0  0
 59 78  1  0  0  0  0
 60 63  1  0  0  0  0
 61 62  1  0  0  0  0
 62 77  1  0  0  0  0
 63 85  1  0  0  0  0
 66 68  1  0  0  0  0
 66 76  1  0  0  0  0
 67 78  1  0  0  0  0
 69 70  1  0  0  0  0
M  CHG  1  78   1
M  ISO  4  38 100  63 101  77 100  85 101
M  END
> <Batch ID>
0094

> <Smiles>
CNC(C)C(=O)NC(C(=O)N1Cc2cc([101O:1][101CH2:1]Cc3cc(CC[100NH:0][100C:0](=O)N4CCCC(n5nc(-c6ccc(Oc7ccc(F)cc7F)cc6)c(C(N)=O)c5N)C4)c(C(C)C)c(C(C)C)c3)ccc2CC1C(=O)NC1CCCc2ccccc21)C(C)(C)C

> <Shape>
0.248

> <Color>
0.086

> <Negative vol penalty>
0.000

$$$$

  -OEChem-04052319193D

 88 96  0     1  0  0  0  0  0999 V2000
  -17.9660  -31.3296   21.5981 C   0  0  0  0  0  0  0  0  0  0  0  0
  -19.3490  -31.4784   21.5712 C   0  0  0  0  0  0  0  0  0  0  0  0
  -26.1791  -13.0768   21.4929 C   0  0  0  0  0  0  0  0  0  0  0  0
  -24.5749  -14.4617   20.3328 C   0  0  0  0  0  0  0  0  0  0  0  0
  -17.4047  -30.1044   21.9554 C   0  0  0  0  0  0  0  0  0  0  0  0
  -20.1714  -30.4023   21.9027 C   0  0  0  0  0  0  0  0  0  0  0  0
  -25.6331  -29.0596   19.4791 C   0  0  0  0  0  0  0  0  0  0  0  0
  -25.1879  -12.1234   21.7255 C   0  0  0  0  0  0  0  0  0  0  0  0
  -23.5837  -13.5082   20.5653 C   0  0  0  0  0  0  0  0  0  0  0  0
  -26.9362  -29.2990   19.9129 C   0  0  0  0  0  0  0  0  0  0  0  0
  -23.6420   -9.6643   19.9946 C   0  0  0  0  0  0  0  0  0  0  0  0
  -23.9638   -8.3261   19.7679 C   0  0  0  0  0  0  0  0  0  0  0  0
  -27.0187  -27.0852   20.8676 C   0  0  0  0  0  0  0  0  0  0  0  0
  -23.4868   -7.8195   22.0816 C   0  0  0  0  0  0  0  0  0  0  0  0
  -25.8726  -14.2460   20.7966 C   0  0  0  0  0  0  0  0  0  0  0  0
  -27.7612  -15.3061   19.4487 C   0  0  0  0  0  0  0  0  0  0  0  0
  -18.2208  -29.0099   22.2820 C   0  0  0  0  0  0  0  0  0  0  0  0
  -25.0080  -27.8331   19.7462 C   0  0  0  0  0  0  0  0  0  0  0  0
  -19.6205  -29.1616   22.2660 C   0  0  0  0  0  0  0  0  0  0  0  0
  -25.7085  -26.8318   20.4338 C   0  0  0  0  0  0  0  0  0  0  0  0
  -32.5531  -25.5496   19.8417 C   0  0  0  0  0  0  0  0  0  0  0  0
  -31.7540  -25.1356   18.7818 C   0  0  0  0  0  0  0  0  0  0  0  0
  -32.3835  -26.8214   20.3774 C   0  0  0  0  0  0  0  0  0  0  0  0
  -23.8902  -12.3390   21.2616 C   0  0  0  0  0  0  0  0  0  0  0  0
  -27.6282  -28.3128   20.6098 C   0  0  0  0  0  0  0  0  0  0  0  0
  -23.2427  -10.0801   21.2649 C   0  0  0  0  0  0  0  0  0  0  0  0
  -23.8861   -7.4037   20.8114 C   0  0  0  0  0  0  0  0  0  0  0  0
  -23.1651   -9.1577   22.3083 C   0  0  0  0  0  0  0  0  0  0  0  0
  -26.8959  -15.2315   20.5566 C   0  0  0  0  0  0  0  0  0  0  0  0
  -30.8073  -26.0240   18.2977 C   0  0  0  0  0  0  0  0  0  0  0  0
  -31.4088  -27.6344   19.8217 C   0  0  0  0  0  0  0  0  0  0  0  0
  -28.5379  -16.4122   19.6934 C   0  0  0  0  0  0  0  0  0  0  0  0
  -27.8546  -14.4519   18.3009 C   0  0  0  0  0  0  0  0  0  0  0  0
  -22.4348  -26.9362   21.3826 C   0  0  0  0  0  0  0  0  0  0  0  0
  -23.1251  -24.0288   20.1206 C   0  0  0  0  0  0  0  0  0  0  0  0
  -25.4637  -21.9288   18.7910 C   0  0  0  0  0  0  0  0  0  0  0  0
  -29.0676  -21.7217   21.3284 C   0  0  0  0  0  0  0  0  0  0  0  0
  -17.5677  -27.7189   22.7078 C   0  0  0  0  0  0  0  0  0  0  0  0
  -23.6114  -27.5807   19.2481 C   0  0  0  0  0  0  0  0  0  0  0  0
  -25.0896  -25.4906   20.7283 C   0  0  0  0  0  0  0  0  0  0  0  0
  -18.5130  -26.5206   22.6822 C   0  0  0  0  0  0  0  0  0  0  0  0
  -29.0383  -19.2256   23.8672 C   0  0  0  0  0  0  0  0  0  0  0  0
  -19.8408  -26.8740   23.3447 C   0  0  0  0  0  0  0  0  0  0  0  0
  -28.5439  -17.9725   23.1424 C   0  0  0  0  0  0  0  0  0  0  0  0
  -28.3473  -20.4858   23.3508 C   0  0  0  0  0  0  0  0  0  0  0  0
  -27.9279  -19.4259   21.1658 C   0  0  0  0  0  0  0  0  0  0  0  0
  -20.5462  -28.0106   22.5950 C   0  0  1  0  0  0  0  0  0  0  0  0
  -22.8894  -26.4833   20.0240 C   0  0  1  0  0  0  0  0  0  0  0  0
  -28.6365  -18.1359   21.6133 C   0  0  2  0  0  0  0  0  0  0  0  0
  -33.5926  -24.6319   20.4018 C   0  0  0  0  0  0  0  0  0  0  0  0
  -29.9196  -25.6359   17.1608 C   0  0  0  0  0  0  0  0  0  0  0  0
  -32.7826  -26.7026   22.8499 C   0  0  0  0  0  0  0  0  0  0  0  0
  -31.8087  -30.2006   18.1709 C   0  0  0  0  0  0  0  0  0  0  0  0
  -25.7368  -19.6034   17.8880 C   0  0  0  0  0  0  0  0  0  0  0  0
  -23.0712  -22.9212   22.9632 C   0  0  0  0  0  0  0  0  0  0  0  0
  -24.2565  -20.8845   22.1175 C   0  0  0  0  0  0  0  0  0  0  0  0
  -21.9877  -21.4548   21.2515 C   0  0  0  0  0  0  0  0  0  0  0  0
  -26.2851  -22.9335   16.1311 C   0  0  0  0  0  0  0  0  0  0  0  0
  -33.2251  -27.2952   21.5148 C   0  0  0  0  0  0  0  0  0  0  0  0
  -31.9116  -23.7766   18.1865 C   0  0  0  0  0  0  0  0  0  0  0  0
  -32.0629  -30.0946   19.6699 C   0  0  0  0  0  0  0  0  0  0  0  0
  -31.2450  -22.6457   18.9941 C   0  0  0  0  0  0  0  0  0  0  0  0
  -29.7449  -22.8300   19.2137 C   0  0  0  0  0  0  0  0  0  0  0  0
  -29.6948  -29.4341   20.2522 C   0  0  0  0  0  0  0  0  0  1  0  0
  -31.1769  -29.0384   20.3631 C   0  0  1  0  0  0  0  0  0  0  0  0
  -23.9719  -22.8531   20.5445 C   0  0  1  0  0  0  0  0  0  0  0  0
  -25.4441  -21.0567   17.5486 C   0  0  2  0  0  0  0  0  0  0  0  0
  -23.3331  -22.0543   21.7155 C   0  0  0  0  0  0  0  0  0  0  0  0
  -27.1031  -16.2121   21.4396 N   0  0  0  0  0  0  0  0  0  0  0  0
  -30.6135  -27.2672   18.7921 N   0  0  0  0  0  0  0  0  0  0  0  0
  -28.1075  -16.9132   20.8867 N   0  0  0  0  0  0  0  0  0  0  0  0
  -23.7197  -25.2942   20.2261 N   0  0  0  0  0  0  0  0  0  0  0  0
  -28.4732  -20.5819   21.8945 N   0  0  0  0  0  0  0  0  0  0  0  0
  -29.5401  -16.9953   19.0021 N   0  0  0  0  0  0  0  0  0  0  0  0
  -26.9807  -13.3602   18.2077 N   0  0  0  0  0  0  0  0  0  0  0  0
  -21.1770  -27.5083   21.3932 N   0  0  0  0  0  0  0  0  0  0  0  0
  -24.2061  -22.0636   19.3402 N   0  0  0  0  0  0  0  0  0  0  0  0
  -29.1533  -21.7296   19.9416 N   0  0  0  0  0  0  0  0  0  0  0  0
  -26.4658  -21.5258   16.5703 N   0  3  0  0  0  0  0  0  0  0  0  0
  -28.6993  -14.6414   17.3931 O   0  0  0  0  0  0  0  0  0  0  0  0
  -23.1701  -26.7770   22.3500 O   0  0  0  0  0  0  0  0  0  0  0  0
  -21.9809  -23.8312   19.7043 O   0  0  0  0  0  0  0  0  0  0  0  0
  -26.4923  -22.4364   19.2324 O   0  0  0  0  0  0  0  0  0  0  0  0
  -29.4955  -22.6603   22.0088 O   0  0  0  0  0  0  0  0  0  0  0  0
  -22.9228  -11.4088   21.4881 O   0  0  0  0  0  0  0  0  0  0  0  0
  -28.9001  -28.5442   21.0350 O   0  0  0  0  0  0  0  0  0  1  0  0
  -24.1937   -6.1184   20.5932 F   0  0  0  0  0  0  0  0  0  0  0  0
  -22.7810   -9.5509   23.5304 F   0  0  0  0  0  0  0  0  0  0  0  0
  1  2  1  0  0  0  0
  1  5  2  0  0  0  0
  2  6  2  0  0  0  0
  3  8  2  0  0  0  0
  3 15  1  0  0  0  0
  4  9  1  0  0  0  0
  4 15  2  0  0  0  0
  5 17  1  0  0  0  0
  6 19  1  0  0  0  0
  7 10  2  0  0  0  0
  7 18  1  0  0  0  0
  8 24  1  0  0  0  0
  9 24  2  0  0  0  0
 10 25  1  0  0  0  0
 11 12  2  0  0  0  0
 11 26  1  0  0  0  0
 12 27  1  0  0  0  0
 13 20  1  0  0  0  0
 13 25  2  0  0  0  0
 14 27  2  0  0  0  0
 14 28  1  0  0  0  0
 15 29  1  0  0  0  0
 16 29  1  0  0  0  0
 16 32  2  0  0  0  0
 16 33  1  0  0  0  0
 17 19  2  0  0  0  0
 17 38  1  0  0  0  0
 18 20  2  0  0  0  0
 18 39  1  0  0  0  0
 19 47  1  0  0  0  0
 20 40  1  0  0  0  0
 21 22  1  0  0  0  0
 21 23  2  0  0  0  0
 21 50  1  0  0  0  0
 22 30  2  0  0  0  0
 22 60  1  0  0  0  0
 23 31  1  0  0  0  0
 23 59  1  0  0  0  0
 24 85  1  0  0  0  0
 25 86  1  0  0  0  0
 26 28  2  0  0  0  0
 26 85  1  0  0  0  0
 27 87  1  0  0  0  0
 28 88  1  0  0  0  0
 29 69  2  0  0  0  0
 30 51  1  0  0  0  0
 30 70  1  0  0  0  0
 31 65  1  0  0  0  0
 31 70  2  0  0  0  0
 32 71  1  0  0  0  0
 32 74  1  0  0  0  0
 33 75  1  0  0  0  0
 33 80  2  0  0  0  0
 34 48  1  0  0  0  0
 34 76  1  0  0  0  0
 34 81  2  0  0  0  0
 35 66  1  0  0  0  0
 35 72  1  0  0  0  0
 35 82  2  0  0  0  0
 36 67  1  0  0  0  0
 36 77  1  0  0  0  0
 36 83  2  0  0  0  0
 37 73  1  0  0  0  0
 37 78  1  0  0  0  0
 37 84  2  0  0  0  0
 38 41  1  0  0  0  0
 39 48  1  0  0  0  0
 40 72  1  0  0  0  0
 41 43  1  0  0  0  0
 42 44  1  0  0  0  0
 42 45  1  0  0  0  0
 43 47  1  0  0  0  0
 44 49  1  0  0  0  0
 45 73  1  0  0  0  0
 46 49  1  0  0  0  0
 46 73  1  0  0  0  0
 47 76  1  0  0  0  0
 48 72  1  0  0  0  0
 49 71  1  0  0  0  0
 52 59  1  0  0  0  0
 53 61  1  0  0  0  0
 54 67  1  0  0  0  0
 55 68  1  0  0  0  0
 56 68  1  0  0  0  0
 57 68  1  0  0  0  0
 58 79  1  0  0  0  0
 60 62  1  0  0  0  0
 61 65  1  0  0  0  0
 62 63  1  0  0  0  0
 63 78  1  0  0  0  0
 64 65  1  0  0  0  0
 64 86  1  0  0  0  0
 66 68  1  0  0  0  0
 66 77  1  0  0  0  0
 67 79  1  0  0  0  0
 69 71  1  0  0  0  0
M  CHG  1  79   1
M  ISO  4  37 100  64 101  78 100  86 101
M  END
> <Batch ID>
0094

> <Smiles>
CCc1c(C(CC)[101CH2:1][101O:1]c2ccc3c(c2)CN(C(=O)C(NC(=O)C(C)NC)C(C)(C)C)C(C(=O)NC2CCCc4ccccc42)C3)nc(C)c(CCC[100NH:0][100C:0](=O)N2CCCC(n3nc(-c4ccc(Oc5ccc(F)cc5F)cc4)c(C(N)=O)c3N)C2)c1C

> <Shape>
0.247

> <Color>
0.058

> <Negative vol penalty>
0.000

$$$$

  -OEChem-04052319193D

 87 95  0     1  0  0  0  0  0999 V2000
  -18.1006  -33.4745   22.7854 C   0  0  0  0  0  0  0  0  0  0  0  0
  -19.3426  -33.5056   22.1593 C   0  0  0  0  0  0  0  0  0  0  0  0
  -26.9097  -13.6889   21.9644 C   0  0  0  0  0  0  0  0  0  0  0  0
  -26.4176  -13.6734   19.5991 C   0  0  0  0  0  0  0  0  0  0  0  0
  -17.8051  -32.4601   23.6952 C   0  0  0  0  0  0  0  0  0  0  0  0
  -20.2902  -32.5229   22.4435 C   0  0  0  0  0  0  0  0  0  0  0  0
  -25.6082  -28.8393   19.3667 C   0  0  0  0  0  0  0  0  0  0  0  0
  -26.1155  -12.5553   22.1371 C   0  0  0  0  0  0  0  0  0  0  0  0
  -25.6234  -12.5397   19.7717 C   0  0  0  0  0  0  0  0  0  0  0  0
  -26.9503  -28.5175   19.5640 C   0  0  0  0  0  0  0  0  0  0  0  0
  -22.8216  -11.8344   22.3709 C   0  0  0  0  0  0  0  0  0  0  0  0
  -21.9344  -11.8234   23.4472 C   0  0  0  0  0  0  0  0  0  0  0  0
  -26.3001  -26.7688   21.0932 C   0  0  0  0  0  0  0  0  0  0  0  0
  -28.4192  -25.2794   17.4993 C   0  0  0  0  0  0  0  0  0  0  0  0
  -23.0382   -9.8671   24.3370 C   0  0  0  0  0  0  0  0  0  0  0  0
  -27.0607  -14.2480   20.6954 C   0  0  0  0  0  0  0  0  0  0  0  0
  -29.2582  -15.4570   20.2294 C   0  0  0  0  0  0  0  0  0  0  0  0
  -18.7460  -31.4591   23.9834 C   0  0  0  0  0  0  0  0  0  0  0  0
  -24.6007  -28.1341   20.0407 C   0  0  0  0  0  0  0  0  0  0  0  0
  -20.0075  -31.4950   23.3590 C   0  0  0  0  0  0  0  0  0  0  0  0
  -24.9458  -27.0818   20.9007 C   0  0  0  0  0  0  0  0  0  0  0  0
  -29.5762  -24.7660   18.0852 C   0  0  0  0  0  0  0  0  0  0  0  0
  -27.5968  -24.4504   16.7364 C   0  0  0  0  0  0  0  0  0  0  0  0
  -29.9108  -23.4235   17.9082 C   0  0  0  0  0  0  0  0  0  0  0  0
  -27.9314  -23.1079   16.5594 C   0  0  0  0  0  0  0  0  0  0  0  0
  -29.0884  -22.5944   17.1452 C   0  0  0  0  0  0  0  0  0  0  0  0
  -25.4724  -11.9807   21.0408 C   0  0  0  0  0  0  0  0  0  0  0  0
  -27.2966  -27.4841   20.4295 C   0  0  0  0  0  0  0  0  0  0  0  0
  -23.8170  -10.8617   22.2776 C   0  0  0  0  0  0  0  0  0  0  0  0
  -22.0427  -10.8398   24.4302 C   0  0  0  0  0  0  0  0  0  0  0  0
  -23.9253   -9.8781   23.2607 C   0  0  0  0  0  0  0  0  0  0  0  0
  -27.8805  -15.4193   20.5164 C   0  0  0  0  0  0  0  0  0  0  0  0
  -29.5575  -16.7955   20.1574 C   0  0  0  0  0  0  0  0  0  0  0  0
  -30.1845  -14.3784   20.0442 C   0  0  0  0  0  0  0  0  0  0  0  0
  -22.3467  -28.9051   22.1451 C   0  0  0  0  0  0  0  0  0  0  0  0
  -21.4197  -25.8297   21.6925 C   0  0  0  0  0  0  0  0  0  0  0  0
  -22.2626  -22.6572   20.7591 C   0  0  0  0  0  0  0  0  0  0  0  0
  -26.2741  -21.6469   18.9188 C   0  0  0  0  0  0  0  0  0  0  0  0
  -18.3984  -30.4097   25.0095 C   0  0  0  0  0  0  0  0  0  0  0  0
  -23.1564  -28.4759   19.7965 C   0  0  0  0  0  0  0  0  0  0  0  0
  -23.9013  -26.2808   21.6327 C   0  0  0  0  0  0  0  0  0  0  0  0
  -19.3205  -29.1937   24.9736 C   0  0  0  0  0  0  0  0  0  0  0  0
  -28.1679  -21.0405   21.8721 C   0  0  0  0  0  0  0  0  0  0  0  0
  -20.7797  -29.6322   24.9016 C   0  0  0  0  0  0  0  0  0  0  0  0
  -28.4333  -19.5345   21.8337 C   0  0  0  0  0  0  0  0  0  0  0  0
  -26.7826  -21.3835   21.3289 C   0  0  0  0  0  0  0  0  0  0  0  0
  -26.7604  -19.3437   19.9459 C   0  0  0  0  0  0  0  0  0  0  0  0
  -21.0527  -30.4328   23.6225 C   0  0  1  0  0  0  0  0  0  0  0  0
  -22.2370  -28.0294   20.9291 C   0  0  1  0  0  0  0  0  0  0  0  0
  -28.1669  -18.9538   20.4319 C   0  0  2  0  0  0  0  0  0  0  0  0
  -31.1523  -22.8752   18.5378 C   0  0  0  0  0  0  0  0  0  0  0  0
  -26.6708  -26.1996   15.1972 C   0  0  0  0  0  0  0  0  0  0  0  0
  -30.5623  -20.9682   15.9329 C   0  0  0  0  0  0  0  0  0  0  0  0
  -21.9407  -20.2345   20.1894 C   0  0  0  0  0  0  0  0  0  0  0  0
  -21.5583  -25.4738   24.7197 C   0  0  0  0  0  0  0  0  0  0  0  0
  -21.5315  -22.9963   24.3597 C   0  0  0  0  0  0  0  0  0  0  0  0
  -19.5898  -24.3820   23.6300 C   0  0  0  0  0  0  0  0  0  0  0  0
  -21.6972  -23.2799   17.9216 C   0  0  0  0  0  0  0  0  0  0  0  0
  -26.3630  -25.0249   16.1206 C   0  0  0  0  0  0  0  0  0  0  0  0
  -30.4480  -25.6837   18.9045 C   0  0  0  0  0  0  0  0  0  0  0  0
  -29.4471  -21.1541   16.9558 C   0  0  0  0  0  0  0  0  0  0  0  0
  -27.0479  -22.2213   15.7400 C   0  0  0  0  0  0  0  0  0  0  0  0
  -30.3028  -25.4853   20.4149 C   0  0  0  0  0  0  0  0  0  0  0  0
  -25.7955  -21.7514   16.4858 C   0  0  0  0  0  0  0  0  0  0  0  0
  -28.9069  -25.8085   20.9349 C   0  0  0  0  0  0  0  0  0  1  0  0
  -21.7574  -24.5058   22.3345 C   0  0  1  0  0  0  0  0  0  0  0  0
  -21.5864  -21.6683   19.8267 C   0  0  2  0  0  0  0  0  0  0  0  0
  -21.1293  -24.3557   23.7488 C   0  0  0  0  0  0  0  0  0  0  0  0
  -27.3419  -16.6372   20.6199 N   0  0  0  0  0  0  0  0  0  0  0  0
  -28.3866  -17.4527   20.3968 N   0  0  0  0  0  0  0  0  0  0  0  0
  -22.5032  -26.6573   21.3656 N   0  0  0  0  0  0  0  0  0  0  0  0
  -26.5944  -20.8047   19.9963 N   0  0  0  0  0  0  0  0  0  0  0  0
  -30.7054  -17.4627   19.9135 N   0  0  0  0  0  0  0  0  0  0  0  0
  -29.7100  -13.0641   20.1523 N   0  0  0  0  0  0  0  0  0  0  0  0
  -21.1701  -29.5447   22.4858 N   0  0  0  0  0  0  0  0  0  0  0  0
  -21.3472  -23.4758   21.3861 N   0  0  0  0  0  0  0  0  0  0  0  0
  -26.1193  -21.0182   17.6893 N   0  0  0  0  0  0  0  0  0  0  0  0
  -22.0064  -21.9142   18.4181 N   0  3  0  0  0  0  0  0  0  0  0  0
  -31.4005  -14.5744   19.8066 O   0  0  0  0  0  0  0  0  0  0  0  0
  -23.4190  -28.9928   22.7318 O   0  0  0  0  0  0  0  0  0  0  0  0
  -20.2384  -26.1159   21.4820 O   0  0  0  0  0  0  0  0  0  0  0  0
  -23.4806  -22.6967   20.9184 O   0  0  0  0  0  0  0  0  0  0  0  0
  -26.1416  -22.8693   19.0421 O   0  0  0  0  0  0  0  0  0  0  0  0
  -24.6975  -10.8744   21.2089 O   0  0  0  0  0  0  0  0  0  0  0  0
  -28.6059  -27.1684   20.6244 O   0  0  0  0  0  0  0  0  0  1  0  0
  -21.1917  -10.8302   25.4646 F   0  0  0  0  0  0  0  0  0  0  0  0
  -24.8804   -8.9417   23.1771 F   0  0  0  0  0  0  0  0  0  0  0  0
  1  2  1  0  0  0  0
  1  5  2  0  0  0  0
  2  6  2  0  0  0  0
  3  8  2  0  0  0  0
  3 16  1  0  0  0  0
  4  9  1  0  0  0  0
  4 16  2  0  0  0  0
  5 18  1  0  0  0  0
  6 20  1  0  0  0  0
  7 10  2  0  0  0  0
  7 19  1  0  0  0  0
  8 27  1  0  0  0  0
  9 27  2  0  0  0  0
 10 28  1  0  0  0  0
 11 12  2  0  0  0  0
 11 29  1  0  0  0  0
 12 30  1  0  0  0  0
 13 21  1  0  0  0  0
 13 28  2  0  0  0  0
 14 22  2  0  0  0  0
 14 23  1  0  0  0  0
 15 30  2  0  0  0  0
 15 31  1  0  0  0  0
 16 32  1  0  0  0  0
 17 32  1  0  0  0  0
 17 33  2  0  0  0  0
 17 34  1  0  0  0  0
 18 20  2  0  0  0  0
 18 39  1  0  0  0  0
 19 21  2  0  0  0  0
 19 40  1  0  0  0  0
 20 48  1  0  0  0  0
 21 41  1  0  0  0  0
 22 24  1  0  0  0  0
 22 60  1  0  0  0  0
 23 25  2  0  0  0  0
 23 59  1  0  0  0  0
 24 26  2  0  0  0  0
 24 51  1  0  0  0  0
 25 26  1  0  0  0  0
 25 62  1  0  0  0  0
 26 61  1  0  0  0  0
 27 84  1  0  0  0  0
 28 85  1  0  0  0  0
 29 31  2  0  0  0  0
 29 84  1  0  0  0  0
 30 86  1  0  0  0  0
 31 87  1  0  0  0  0
 32 69  2  0  0  0  0
 33 70  1  0  0  0  0
 33 73  1  0  0  0  0
 34 74  1  0  0  0  0
 34 79  2  0  0  0  0
 35 49  1  0  0  0  0
 35 75  1  0  0  0  0
 35 80  2  0  0  0  0
 36 66  1  0  0  0  0
 36 71  1  0  0  0  0
 36 81  2  0  0  0  0
 37 67  1  0  0  0  0
 37 76  1  0  0  0  0
 37 82  2  0  0  0  0
 38 72  1  0  0  0  0
 38 77  1  0  0  0  0
 38 83  2  0  0  0  0
 39 42  1  0  0  0  0
 40 49  1  0  0  0  0
 41 71  1  0  0  0  0
 42 44  1  0  0  0  0
 43 45  1  0  0  0  0
 43 46  1  0  0  0  0
 44 48  1  0  0  0  0
 45 50  1  0  0  0  0
 46 72  1  0  0  0  0
 47 50  1  0  0  0  0
 47 72  1  0  0  0  0
 48 75  1  0  0  0  0
 49 71  1  0  0  0  0
 50 70  1  0  0  0  0
 52 59  1  0  0  0  0
 53 61  1  0  0  0  0
 54 67  1  0  0  0  0
 55 68  1  0  0  0  0
 56 68  1  0  0  0  0
 57 68  1  0  0  0  0
 58 78  1  0  0  0  0
 60 63  1  0  0  0  0
 62 64  1  0  0  0  0
 63 65  1  0  0  0  0
 64 77  1  0  0  0  0
 65 85  1  0  0  0  0
 66 68  1  0  0  0  0
 66 76  1  0  0  0  0
 67 78  1  0  0  0  0
 69 70  1  0  0  0  0
M  CHG  1  78   1
M  ISO  4  38 100  65 101  77 100  85 101
M  END
> <Batch ID>
0094

> <Smiles>
CCc1cc(CC[101CH2:1][101O:1]c2ccc3c(c2)CN(C(=O)C(NC(=O)C(C)NC)C(C)(C)C)C(C(=O)NC2CCCc4ccccc42)C3)c(C)c(CC)c1CC[100NH:0][100C:0](=O)N1CCCC(n2nc(-c3ccc(Oc4ccc(F)cc4F)cc3)c(C(N)=O)c2N)C1

> <Shape>
0.231

> <Color>
0.097

> <Negative vol penalty>
0.000

$$$$

  -OEChem-04052319193D

 89 97  0     1  0  0  0  0  0999 V2000
  -27.3272  -24.2076   17.1990 C   0  0  0  0  0  0  0  0  0  0  0  0
  -26.1469  -24.6277   17.8038 C   0  0  0  0  0  0  0  0  0  0  0  0
  -25.6539  -14.2582   19.0325 C   0  0  0  0  0  0  0  0  0  0  0  0
  -24.2621  -14.2408   21.0072 C   0  0  0  0  0  0  0  0  0  0  0  0
  -28.5564  -24.5344   17.7703 C   0  0  0  0  0  0  0  0  0  0  0  0
  -26.1950  -25.3738   18.9808 C   0  0  0  0  0  0  0  0  0  0  0  0
  -23.0261  -29.3232   18.9083 C   0  0  0  0  0  0  0  0  0  0  0  0
  -26.0665  -12.9553   19.3117 C   0  0  0  0  0  0  0  0  0  0  0  0
  -24.6746  -12.9379   21.2865 C   0  0  0  0  0  0  0  0  0  0  0  0
  -21.6763  -29.0608   19.1384 C   0  0  0  0  0  0  0  0  0  0  0  0
  -28.2535  -11.4263   21.3861 C   0  0  0  0  0  0  0  0  0  0  0  0
  -29.6141  -11.1402   21.2746 C   0  0  0  0  0  0  0  0  0  0  0  0
  -21.9325  -29.7808   21.4264 C   0  0  0  0  0  0  0  0  0  0  0  0
  -19.5358  -25.6492   21.8711 C   0  0  0  0  0  0  0  0  0  0  0  0
  -18.2041  -27.1724   23.1913 C   0  0  0  0  0  0  0  0  0  0  0  0
  -29.1265   -9.4776   19.5908 C   0  0  0  0  0  0  0  0  0  0  0  0
  -24.7518  -14.9010   19.8802 C   0  0  0  0  0  0  0  0  0  0  0  0
  -23.2192  -16.6409   18.8164 C   0  0  0  0  0  0  0  0  0  0  0  0
  -28.6199  -25.2931   18.9496 C   0  0  0  0  0  0  0  0  0  0  0  0
  -23.8431  -29.8069   19.9402 C   0  0  0  0  0  0  0  0  0  0  0  0
  -27.4262  -25.7099   19.5691 C   0  0  0  0  0  0  0  0  0  0  0  0
  -23.2918  -30.0510   21.2062 C   0  0  0  0  0  0  0  0  0  0  0  0
  -18.6226  -26.7007   21.9471 C   0  0  0  0  0  0  0  0  0  0  0  0
  -20.0304  -25.0691   23.0393 C   0  0  0  0  0  0  0  0  0  0  0  0
  -18.6987  -26.5924   24.3595 C   0  0  0  0  0  0  0  0  0  0  0  0
  -19.6119  -25.5408   24.2834 C   0  0  0  0  0  0  0  0  0  0  0  0
  -25.5768  -12.2952   20.4387 C   0  0  0  0  0  0  0  0  0  0  0  0
  -21.1299  -29.2869   20.3983 C   0  0  0  0  0  0  0  0  0  0  0  0
  -27.3293  -10.7380   20.6001 C   0  0  0  0  0  0  0  0  0  0  0  0
  -30.0506  -10.1659   20.3769 C   0  0  0  0  0  0  0  0  0  0  0  0
  -27.7658   -9.7637   19.7024 C   0  0  0  0  0  0  0  0  0  0  0  0
  -24.3257  -16.2470   19.5926 C   0  0  0  0  0  0  0  0  0  0  0  0
  -23.2478  -18.0137   18.8496 C   0  0  0  0  0  0  0  0  0  0  0  0
  -22.2521  -15.8377   18.1272 C   0  0  0  0  0  0  0  0  0  0  0  0
  -26.4266  -28.7308   21.4473 C   0  0  0  0  0  0  0  0  0  0  0  0
  -26.3512  -31.6563   22.8466 C   0  0  0  0  0  0  0  0  0  0  0  0
  -24.5171  -34.3875   23.7540 C   0  0  0  0  0  0  0  0  0  0  0  0
  -23.8528  -22.8025   21.6507 C   0  0  0  0  0  0  0  0  0  0  0  0
  -29.9706  -25.5814   19.5555 C   0  0  0  0  0  0  0  0  0  0  0  0
  -25.2911  -30.1103   19.6687 C   0  0  0  0  0  0  0  0  0  0  0  0
  -24.1215  -30.5889   22.3422 C   0  0  0  0  0  0  0  0  0  0  0  0
  -29.9446  -26.6943   20.6001 C   0  0  0  0  0  0  0  0  0  0  0  0
  -26.8157  -21.1933   20.5068 C   0  0  0  0  0  0  0  0  0  0  0  0
  -28.7829  -26.4913   21.5676 C   0  0  0  0  0  0  0  0  0  0  0  0
  -26.3419  -19.7943   20.1091 C   0  0  0  0  0  0  0  0  0  0  0  0
  -26.0751  -21.7114   21.7377 C   0  0  0  0  0  0  0  0  0  0  0  0
  -24.1303  -20.2832   21.2356 C   0  0  0  0  0  0  0  0  0  0  0  0
  -27.4378  -26.5420   20.8330 C   0  0  1  0  0  0  0  0  0  0  0  0
  -26.1477  -30.1140   20.9310 C   0  0  1  0  0  0  0  0  0  0  0  0
  -24.8089  -19.7411   19.9659 C   0  0  2  0  0  0  0  0  0  0  0  0
  -21.7298  -25.1751   27.4906 C   0  0  0  0  0  0  0  0  0  0  0  0
  -16.7188  -26.9380   25.8808 C   0  0  0  0  0  0  0  0  0  0  0  0
  -18.6230  -28.5900   25.8951 C   0  0  0  0  0  0  0  0  0  0  0  0
  -24.7240  -36.6015   24.9171 C   0  0  0  0  0  0  0  0  0  0  0  0
  -26.4229  -30.2303   25.5431 C   0  0  0  0  0  0  0  0  0  0  0  0
  -25.6789  -32.3673   26.6145 C   0  0  0  0  0  0  0  0  0  0  0  0
  -27.8585  -32.2734   25.4050 C   0  0  0  0  0  0  0  0  0  0  0  0
  -23.6988  -35.8701   21.3268 C   0  0  0  0  0  0  0  0  0  0  0  0
  -21.0083  -23.9450   22.9304 C   0  0  0  0  0  0  0  0  0  0  0  0
  -20.1427  -24.9190   25.5358 C   0  0  0  0  0  0  0  0  0  0  0  0
  -21.2151  -25.7930   26.2002 C   0  0  0  0  0  0  0  0  0  0  0  0
  -21.5641  -23.7526   21.5154 C   0  0  0  0  0  0  0  0  0  0  0  0
  -17.3201  -26.3311   19.7921 C   0  0  0  0  0  0  0  0  0  0  0  0
  -19.2121  -27.9878   19.8594 C   0  0  0  0  0  0  0  0  0  1  0  0
  -18.0820  -27.3337   20.6714 C   0  0  2  0  0  0  0  0  0  0  0  0
  -18.2347  -27.1159   25.6795 C   0  0  0  0  0  0  0  0  0  0  0  0
  -25.7043  -32.2341   24.0822 C   0  0  1  0  0  0  0  0  0  0  0  0
  -24.7717  -35.8742   23.5824 C   0  0  2  0  0  0  0  0  0  0  0  0
  -26.4007  -31.7643   25.3905 C   0  0  0  0  0  0  0  0  0  0  0  0
  -25.0075  -17.2856   20.0829 N   0  0  0  0  0  0  0  0  0  0  0  0
  -24.3277  -18.3457   19.6136 N   0  0  0  0  0  0  0  0  0  0  0  0
  -25.5335  -30.8637   22.0287 N   0  0  0  0  0  0  0  0  0  0  0  0
  -24.6260  -21.6354   21.5364 N   0  0  0  0  0  0  0  0  0  0  0  0
  -22.4542  -18.9571   18.2995 N   0  0  0  0  0  0  0  0  0  0  0  0
  -22.3701  -14.4428   18.1972 N   0  0  0  0  0  0  0  0  0  0  0  0
  -27.0726  -27.9116   20.5412 N   0  0  0  0  0  0  0  0  0  0  0  0
  -25.6926  -33.6813   23.8980 N   0  0  0  0  0  0  0  0  0  0  0  0
  -22.4888  -22.6436   21.4386 N   0  0  0  0  0  0  0  0  0  0  0  0
  -16.1683  -25.7628   20.5388 N   0  3  0  0  0  0  0  0  0  0  0  0
  -23.7465  -36.4748   22.6829 N   0  3  0  0  0  0  0  0  0  0  0  0
  -21.3206  -16.3420   17.4551 O   0  0  0  0  0  0  0  0  0  0  0  0
  -26.0825  -28.4295   22.5842 O   0  0  0  0  0  0  0  0  0  0  0  0
  -27.5364  -31.9051   22.6119 O   0  0  0  0  0  0  0  0  0  0  0  0
  -23.3881  -33.9018   23.7633 O   0  0  0  0  0  0  0  0  0  0  0  0
  -24.3425  -23.9055   21.9165 O   0  0  0  0  0  0  0  0  0  0  0  0
  -25.9789  -11.0238   20.7114 O   0  0  0  0  0  0  0  0  0  0  0  0
  -19.8129  -29.0310   20.6258 O   0  0  0  0  0  0  0  0  0  1  0  0
  -31.3574   -9.8923   20.2688 F   0  0  0  0  0  0  0  0  0  0  0  0
  -26.8828   -9.1000   18.9437 F   0  0  0  0  0  0  0  0  0  0  0  0
  1  2  1  0  0  0  0
  1  5  2  0  0  0  0
  2  6  2  0  0  0  0
  3  8  2  0  0  0  0
  3 17  1  0  0  0  0
  4  9  1  0  0  0  0
  4 17  2  0  0  0  0
  5 19  1  0  0  0  0
  6 21  1  0  0  0  0
  7 10  2  0  0  0  0
  7 20  1  0  0  0  0
  8 27  1  0  0  0  0
  9 27  2  0  0  0  0
 10 28  1  0  0  0  0
 11 12  2  0  0  0  0
 11 29  1  0  0  0  0
 12 30  1  0  0  0  0
 13 22  1  0  0  0  0
 13 28  2  0  0  0  0
 14 23  1  0  0  0  0
 14 24  2  0  0  0  0
 15 23  2  0  0  0  0
 15 25  1  0  0  0  0
 16 30  2  0  0  0  0
 16 31  1  0  0  0  0
 17 32  1  0  0  0  0
 18 32  1  0  0  0  0
 18 33  2  0  0  0  0
 18 34  1  0  0  0  0
 19 21  2  0  0  0  0
 19 39  1  0  0  0  0
 20 22  2  0  0  0  0
 20 40  1  0  0  0  0
 21 48  1  0  0  0  0
 22 41  1  0  0  0  0
 23 65  1  0  0  0  0
 24 26  1  0  0  0  0
 24 59  1  0  0  0  0
 25 26  2  0  0  0  0
 25 66  1  0  0  0  0
 26 60  1  0  0  0  0
 27 86  1  0  0  0  0
 28 87  1  0  0  0  0
 29 31  2  0  0  0  0
 29 86  1  0  0  0  0
 30 88  1  0  0  0  0
 31 89  1  0  0  0  0
 32 70  2  0  0  0  0
 33 71  1  0  0  0  0
 33 74  1  0  0  0  0
 34 75  1  0  0  0  0
 34 81  2  0  0  0  0
 35 49  1  0  0  0  0
 35 76  1  0  0  0  0
 35 82  2  0  0  0  0
 36 67  1  0  0  0  0
 36 72  1  0  0  0  0
 36 83  2  0  0  0  0
 37 68  1  0  0  0  0
 37 77  1  0  0  0  0
 37 84  2  0  0  0  0
 38 73  1  0  0  0  0
 38 78  1  0  0  0  0
 38 85  2  0  0  0  0
 39 42  1  0  0  0  0
 40 49  1  0  0  0  0
 41 72  1  0  0  0  0
 42 44  1  0  0  0  0
 43 45  1  0  0  0  0
 43 46  1  0  0  0  0
 44 48  1  0  0  0  0
 45 50  1  0  0  0  0
 46 73  1  0  0  0  0
 47 50  1  0  0  0  0
 47 73  1  0  0  0  0
 48 76  1  0  0  0  0
 49 72  1  0  0  0  0
 50 71  1  0  0  0  0
 51 61  1  0  0  0  0
 52 66  1  0  0  0  0
 53 66  1  0  0  0  0
 54 68  1  0  0  0  0
 55 69  1  0  0  0  0
 56 69  1  0  0  0  0
 57 69  1  0  0  0  0
 58 80  1  0  0  0  0
 59 62  1  0  0  0  0
 60 61  1  0  0  0  0
 62 78  1  0  0  0  0
 63 65  1  0  0  0  0
 63 79  1  0  0  0  0
 64 65  1  0  0  0  0
 64 87  1  0  0  0  0
 67 69  1  0  0  0  0
 67 77  1  0  0  0  0
 68 80  1  0  0  0  0
 70 71  1  0  0  0  0
M  CHG  2  79   1  80   1
M  ISO  4  38 100  64 101  78 100  87 101
M  END
> <Batch ID>
0094

> <Smiles>
CCCc1c(CC[100NH:0][100C:0](=O)N2CCCC(n3nc(-c4ccc(Oc5ccc(F)cc5F)cc4)c(C(N)=O)c3N)C2)cc(C(CN)[101CH2:1][101O:1]c2ccc3c(c2)CN(C(=O)C(NC(=O)C(C)NC)C(C)(C)C)C(C(=O)NC2CCCc4ccccc42)C3)cc1C(C)C

> <Shape>
0.256

> <Color>
0.069

> <Negative vol penalty>
0.000

$$$$

  -OEChem-04052319193D

 89 97  0     1  0  0  0  0  0999 V2000
  -16.6220  -30.0212   23.6165 C   0  0  0  0  0  0  0  0  0  0  0  0
  -17.7267  -30.7112   24.1053 C   0  0  0  0  0  0  0  0  0  0  0  0
  -31.1899  -24.9753   25.5608 C   0  0  0  0  0  0  0  0  0  0  0  0
  -32.2969  -26.1438   23.7591 C   0  0  0  0  0  0  0  0  0  0  0  0
  -16.7936  -28.7886   22.9880 C   0  0  0  0  0  0  0  0  0  0  0  0
  -19.0036  -30.1683   23.9670 C   0  0  0  0  0  0  0  0  0  0  0  0
  -25.8273  -32.1241   23.0035 C   0  0  0  0  0  0  0  0  0  0  0  0
  -30.1439  -24.6405   24.7010 C   0  0  0  0  0  0  0  0  0  0  0  0
  -31.2509  -25.8089   22.8992 C   0  0  0  0  0  0  0  0  0  0  0  0
  -27.0920  -31.9293   23.5570 C   0  0  0  0  0  0  0  0  0  0  0  0
  -30.2497  -23.1089   21.1307 C   0  0  0  0  0  0  0  0  0  0  0  0
  -30.5823  -22.6399   19.8598 C   0  0  0  0  0  0  0  0  0  0  0  0
  -27.2758  -29.8299   22.3833 C   0  0  0  0  0  0  0  0  0  0  0  0
  -29.3809  -24.4847   18.8646 C   0  0  0  0  0  0  0  0  0  0  0  0
  -36.6774  -33.0684   23.0469 C   0  0  0  0  0  0  0  0  0  0  0  0
  -32.2664  -25.7270   25.0899 C   0  0  0  0  0  0  0  0  0  0  0  0
  -34.5202  -25.3337   26.2184 C   0  0  0  0  0  0  0  0  0  0  0  0
  -18.0742  -28.2348   22.8333 C   0  0  0  0  0  0  0  0  0  0  0  0
  -25.2719  -31.1664   22.1428 C   0  0  0  0  0  0  0  0  0  0  0  0
  -19.1924  -28.9264   23.3371 C   0  0  0  0  0  0  0  0  0  0  0  0
  -26.0049  -30.0160   21.8181 C   0  0  0  0  0  0  0  0  0  0  0  0
  -37.9917  -32.7841   23.3453 C   0  0  0  0  0  0  0  0  0  0  0  0
  -38.1148  -32.7842   24.7566 C   0  0  0  0  0  0  0  0  0  0  0  0
  -30.1744  -25.0573   23.3702 C   0  0  0  0  0  0  0  0  0  0  0  0
  -27.8152  -30.7807   23.2493 C   0  0  0  0  0  0  0  0  0  0  0  0
  -29.4826  -24.2657   21.2685 C   0  0  0  0  0  0  0  0  0  0  0  0
  -30.1479  -23.3278   18.7268 C   0  0  0  0  0  0  0  0  0  0  0  0
  -29.0483  -24.9536   20.1355 C   0  0  0  0  0  0  0  0  0  0  0  0
  -33.3470  -26.0737   25.9777 C   0  0  0  0  0  0  0  0  0  0  0  0
  -36.8718  -33.0683   25.2778 C   0  0  0  0  0  0  0  0  0  0  0  0
  -35.2180  -26.0843   27.1328 C   0  0  0  0  0  0  0  0  0  0  0  0
  -34.9416  -24.0801   25.6648 C   0  0  0  0  0  0  0  0  0  0  0  0
  -22.6930  -29.3097   22.2184 C   0  0  0  0  0  0  0  0  0  0  0  0
  -23.6247  -28.5576   19.2037 C   0  0  0  0  0  0  0  0  0  0  0  0
  -26.1502  -28.3552   16.9173 C   0  0  0  0  0  0  0  0  0  0  0  0
  -35.2347  -31.9251   28.4502 C   0  0  0  0  0  0  0  0  0  0  0  0
  -18.2052  -26.8774   22.1892 C   0  0  0  0  0  0  0  0  0  0  0  0
  -23.9176  -31.4040   21.5329 C   0  0  0  0  0  0  0  0  0  0  0  0
  -25.4620  -28.9672   20.8835 C   0  0  0  0  0  0  0  0  0  0  0  0
  -19.6291  -26.5467   21.7494 C   0  0  0  0  0  0  0  0  0  0  0  0
  -34.5601  -29.2302   30.6770 C   0  0  0  0  0  0  0  0  0  0  0  0
  -20.6219  -26.8839   22.8573 C   0  0  0  0  0  0  0  0  0  0  0  0
  -34.2785  -28.0489   29.7469 C   0  0  0  0  0  0  0  0  0  0  0  0
  -34.0201  -30.5394   30.1057 C   0  0  0  0  0  0  0  0  0  0  0  0
  -34.1897  -29.6691   27.8063 C   0  0  0  0  0  0  0  0  0  0  0  0
  -20.5960  -28.3819   23.1841 C   0  0  1  0  0  0  0  0  0  0  0  0
  -23.2350  -30.1190   21.0744 C   0  0  1  0  0  0  0  0  0  0  0  0
  -34.7648  -28.3355   28.3135 C   0  0  2  0  0  0  0  0  0  0  0  0
  -39.0409  -29.9900   25.7242 C   0  0  0  0  0  0  0  0  0  0  0  0
  -39.3463  -33.7404   21.4468 C   0  0  0  0  0  0  0  0  0  0  0  0
  -38.8037  -31.2790   21.4933 C   0  0  0  0  0  0  0  0  0  0  0  0
  -39.7798  -33.7630   26.3567 C   0  0  0  0  0  0  0  0  0  0  0  0
  -26.6126  -27.6678   14.5485 C   0  0  0  0  0  0  0  0  0  0  0  0
  -23.5183  -25.6242   20.0367 C   0  0  0  0  0  0  0  0  0  0  0  0
  -24.8688  -25.0698   18.0027 C   0  0  0  0  0  0  0  0  0  0  0  0
  -22.6079  -26.0945   17.7553 C   0  0  0  0  0  0  0  0  0  0  0  0
  -27.0204  -31.0841   16.1728 C   0  0  0  0  0  0  0  0  0  0  0  0
  -36.4326  -33.1919   26.6839 C   0  0  0  0  0  0  0  0  0  0  0  0
  -39.2715  -31.2933   26.4795 C   0  0  0  0  0  0  0  0  0  0  0  0
  -32.1801  -32.6640   24.2481 C   0  0  0  0  0  0  0  0  0  0  0  0
  -33.6656  -32.3323   24.0919 C   0  0  0  0  0  0  0  0  0  0  0  0
  -31.3049  -31.4405   23.9606 C   0  0  0  0  0  0  0  0  0  0  0  0
  -34.5383  -33.5648   24.3393 C   0  0  0  0  0  0  0  0  0  0  0  0
  -29.8186  -31.7531   24.0842 C   0  0  0  0  0  0  0  0  0  1  0  0
  -39.0663  -32.5286   22.3653 C   0  0  0  0  0  0  0  0  0  0  0  0
  -39.3476  -32.5273   25.5294 C   0  0  1  0  0  0  0  0  0  0  0  0
  -24.5264  -27.5123   18.5928 C   0  0  1  0  0  0  0  0  0  0  0  0
  -26.2415  -28.8162   15.4738 C   0  0  2  0  0  0  0  0  0  0  0  0
  -23.8900  -26.0939   18.6161 C   0  0  0  0  0  0  0  0  0  0  0  0
  -33.2987  -27.2072   26.6825 N   0  0  0  0  0  0  0  0  0  0  0  0
  -36.0059  -33.2389   24.2294 N   0  0  0  0  0  0  0  0  0  0  0  0
  -34.4502  -27.1852   27.3751 N   0  0  0  0  0  0  0  0  0  0  0  0
  -24.1309  -29.2421   20.3176 N   0  0  0  0  0  0  0  0  0  0  0  0
  -34.5200  -30.7525   28.7454 N   0  0  0  0  0  0  0  0  0  0  0  0
  -36.4074  -25.9034   27.7453 N   0  0  0  0  0  0  0  0  0  0  0  0
  -34.1042  -23.4435   24.7385 N   0  0  0  0  0  0  0  0  0  0  0  0
  -21.3233  -29.1306   22.1817 N   0  0  0  0  0  0  0  0  0  0  0  0
  -24.8637  -27.9940   17.2577 N   0  0  0  0  0  0  0  0  0  0  0  0
  -35.6783  -32.0452   27.1388 N   0  0  0  0  0  0  0  0  0  0  0  0
  -27.2725  -29.8833   15.3352 N   0  3  0  0  0  0  0  0  0  0  0  0
  -36.0208  -23.5323   25.9945 O   0  0  0  0  0  0  0  0  0  0  0  0
  -23.4608  -28.8783   23.0705 O   0  0  0  0  0  0  0  0  0  0  0  0
  -22.5149  -28.7643   18.7063 O   0  0  0  0  0  0  0  0  0  0  0  0
  -27.1235  -28.3156   17.6668 O   0  0  0  0  0  0  0  0  0  0  0  0
  -35.4654  -32.7978   29.2941 O   0  0  0  0  0  0  0  0  0  0  0  0
  -29.1539  -24.7305   22.5309 O   0  0  0  0  0  0  0  0  0  0  0  0
  -29.0496  -30.5879   23.7887 O   0  0  0  0  0  0  0  0  0  1  0  0
  -30.4687  -22.8782   17.5065 F   0  0  0  0  0  0  0  0  0  0  0  0
  -28.3121  -26.0663   20.2616 F   0  0  0  0  0  0  0  0  0  0  0  0
  1  2  1  0  0  0  0
  1  5  2  0  0  0  0
  2  6  2  0  0  0  0
  3  8  2  0  0  0  0
  3 16  1  0  0  0  0
  4  9  1  0  0  0  0
  4 16  2  0  0  0  0
  5 18  1  0  0  0  0
  6 20  1  0  0  0  0
  7 10  2  0  0  0  0
  7 19  1  0  0  0  0
  8 24  1  0  0  0  0
  9 24  2  0  0  0  0
 10 25  1  0  0  0  0
 11 12  2  0  0  0  0
 11 26  1  0  0  0  0
 12 27  1  0  0  0  0
 13 21  1  0  0  0  0
 13 25  2  0  0  0  0
 14 27  2  0  0  0  0
 14 28  1  0  0  0  0
 15 22  2  0  0  0  0
 15 71  1  0  0  0  0
 16 29  1  0  0  0  0
 17 29  1  0  0  0  0
 17 31  2  0  0  0  0
 17 32  1  0  0  0  0
 18 20  2  0  0  0  0
 18 37  1  0  0  0  0
 19 21  2  0  0  0  0
 19 38  1  0  0  0  0
 20 46  1  0  0  0  0
 21 39  1  0  0  0  0
 22 23  1  0  0  0  0
 22 65  1  0  0  0  0
 23 30  2  0  0  0  0
 23 66  1  0  0  0  0
 24 86  1  0  0  0  0
 25 87  1  0  0  0  0
 26 28  2  0  0  0  0
 26 86  1  0  0  0  0
 27 88  1  0  0  0  0
 28 89  1  0  0  0  0
 29 70  2  0  0  0  0
 30 58  1  0  0  0  0
 30 71  1  0  0  0  0
 31 72  1  0  0  0  0
 31 75  1  0  0  0  0
 32 76  1  0  0  0  0
 32 81  2  0  0  0  0
 33 47  1  0  0  0  0
 33 77  1  0  0  0  0
 33 82  2  0  0  0  0
 34 67  1  0  0  0  0
 34 73  1  0  0  0  0
 34 83  2  0  0  0  0
 35 68  1  0  0  0  0
 35 78  1  0  0  0  0
 35 84  2  0  0  0  0
 36 74  1  0  0  0  0
 36 79  1  0  0  0  0
 36 85  2  0  0  0  0
 37 40  1  0  0  0  0
 38 47  1  0  0  0  0
 39 73  1  0  0  0  0
 40 42  1  0  0  0  0
 41 43  1  0  0  0  0
 41 44  1  0  0  0  0
 42 46  1  0  0  0  0
 43 48  1  0  0  0  0
 44 74  1  0  0  0  0
 45 48  1  0  0  0  0
 45 74  1  0  0  0  0
 46 77  1  0  0  0  0
 47 73  1  0  0  0  0
 48 72  1  0  0  0  0
 49 59  1  0  0  0  0
 50 65  1  0  0  0  0
 51 65  1  0  0  0  0
 52 66  1  0  0  0  0
 53 68  1  0  0  0  0
 54 69  1  0  0  0  0
 55 69  1  0  0  0  0
 56 69  1  0  0  0  0
 57 80  1  0  0  0  0
 58 79  1  0  0  0  0
 59 66  1  0  0  0  0
 60 61  1  0  0  0  0
 60 62  1  0  0  0  0
 61 63  1  0  0  0  0
 62 64  1  0  0  0  0
 63 71  1  0  0  0  0
 64 87  1  0  0  0  0
 67 69  1  0  0  0  0
 67 78  1  0  0  0  0
 68 80  1  0  0  0  0
 70 72  1  0  0  0  0
M  CHG  1  80   1
M  ISO  4  36 100  64 101  79 100  87 101
M  END
> <Batch ID>
0094

> <Smiles>
CCC(C)c1c(C(C)C)cn(CCCC[101CH2:1][101O:1]c2ccc3c(c2)CN(C(=O)C(NC(=O)C(C)NC)C(C)(C)C)C(C(=O)NC2CCCc4ccccc42)C3)c1C[100NH:0][100C:0](=O)N1CCCC(n2nc(-c3ccc(Oc4ccc(F)cc4F)cc3)c(C(N)=O)c2N)C1

> <Shape>
0.179

> <Color>
0.091

> <Negative vol penalty>
0.000

$$$$

  -OEChem-04052319193D

 89 97  0     1  0  0  0  0  0999 V2000
  -18.6686  -24.6192   23.9338 C   0  0  0  0  0  0  0  0  0  0  0  0
  -20.0216  -24.4094   23.6871 C   0  0  0  0  0  0  0  0  0  0  0  0
  -25.9884  -13.8266   18.9552 C   0  0  0  0  0  0  0  0  0  0  0  0
  -24.6012  -14.1709   20.9030 C   0  0  0  0  0  0  0  0  0  0  0  0
  -18.0794  -25.8359   23.5925 C   0  0  0  0  0  0  0  0  0  0  0  0
  -20.7859  -25.4159   23.0979 C   0  0  0  0  0  0  0  0  0  0  0  0
  -26.6705  -26.6978   24.2089 C   0  0  0  0  0  0  0  0  0  0  0  0
  -26.0921  -12.4714   19.2684 C   0  0  0  0  0  0  0  0  0  0  0  0
  -24.7047  -12.8156   21.2163 C   0  0  0  0  0  0  0  0  0  0  0  0
  -27.8461  -26.3639   23.5379 C   0  0  0  0  0  0  0  0  0  0  0  0
  -23.3176   -9.9102   20.1890 C   0  0  0  0  0  0  0  0  0  0  0  0
  -22.1511   -9.2413   20.5596 C   0  0  0  0  0  0  0  0  0  0  0  0
  -27.7884  -28.4865   22.3931 C   0  0  0  0  0  0  0  0  0  0  0  0
  -23.1367   -8.7085   22.7001 C   0  0  0  0  0  0  0  0  0  0  0  0
  -26.3231  -25.9827   19.5931 C   0  0  0  0  0  0  0  0  0  0  0  0
  -25.2430  -14.6764   19.7725 C   0  0  0  0  0  0  0  0  0  0  0  0
  -24.1582  -16.6912   18.6448 C   0  0  0  0  0  0  0  0  0  0  0  0
  -18.8391  -26.8613   23.0076 C   0  0  0  0  0  0  0  0  0  0  0  0
  -26.0380  -27.9261   23.9685 C   0  0  0  0  0  0  0  0  0  0  0  0
  -20.2061  -26.6469   22.7472 C   0  0  0  0  0  0  0  0  0  0  0  0
  -26.6062  -28.8346   23.0642 C   0  0  0  0  0  0  0  0  0  0  0  0
  -25.4614  -24.9713   19.2300 C   0  0  0  0  0  0  0  0  0  0  0  0
  -26.1068  -24.2047   18.2286 C   0  0  0  0  0  0  0  0  0  0  0  0
  -25.4502  -11.9659   20.3990 C   0  0  0  0  0  0  0  0  0  0  0  0
  -28.4037  -27.2571   22.6277 C   0  0  0  0  0  0  0  0  0  0  0  0
  -24.3937   -9.9783   21.0739 C   0  0  0  0  0  0  0  0  0  0  0  0
  -22.0606   -8.6405   21.8151 C   0  0  0  0  0  0  0  0  0  0  0  0
  -24.3032   -9.3774   22.3295 C   0  0  0  0  0  0  0  0  0  0  0  0
  -25.1361  -16.0766   19.4497 C   0  0  0  0  0  0  0  0  0  0  0  0
  -27.3434  -24.7709   18.0104 C   0  0  0  0  0  0  0  0  0  0  0  0
  -24.4956  -18.0226   18.6509 C   0  0  0  0  0  0  0  0  0  0  0  0
  -23.0443  -16.1105   17.9536 C   0  0  0  0  0  0  0  0  0  0  0  0
  -23.2046  -28.8045   22.8266 C   0  0  0  0  0  0  0  0  0  0  0  0
  -24.2263  -31.7701   23.6538 C   0  0  0  0  0  0  0  0  0  0  0  0
  -26.8502  -33.8611   24.2777 C   0  0  0  0  0  0  0  0  0  0  0  0
  -26.1275  -22.6172   21.3659 C   0  0  0  0  0  0  0  0  0  0  0  0
  -18.1476  -28.1421   22.6127 C   0  0  0  0  0  0  0  0  0  0  0  0
  -24.7849  -28.2824   24.7203 C   0  0  0  0  0  0  0  0  0  0  0  0
  -25.9773  -30.1745   22.7857 C   0  0  0  0  0  0  0  0  0  0  0  0
  -19.1106  -29.2936   22.3350 C   0  0  0  0  0  0  0  0  0  0  0  0
  -28.6660  -20.3544   20.3113 C   0  0  0  0  0  0  0  0  0  0  0  0
  -20.2591  -28.8266   21.4463 C   0  0  0  0  0  0  0  0  0  0  0  0
  -27.8940  -19.0892   19.9329 C   0  0  0  0  0  0  0  0  0  0  0  0
  -28.0444  -21.0554   21.5171 C   0  0  0  0  0  0  0  0  0  0  0  0
  -25.8345  -20.0910   21.0070 C   0  0  0  0  0  0  0  0  0  0  0  0
  -21.0739  -27.7234   22.1322 C   0  0  1  0  0  0  0  0  0  0  0  0
  -23.9472  -29.3451   24.0158 C   0  0  1  0  0  0  0  0  0  0  0  0
  -26.3908  -19.3796   19.7617 C   0  0  2  0  0  0  0  0  0  0  0  0
  -28.4218  -24.3772   17.0790 C   0  0  0  0  0  0  0  0  0  0  0  0
  -21.3237  -21.6641   12.9658 C   0  0  0  0  0  0  0  0  0  0  0  0
  -27.3723  -36.2372   24.8934 C   0  0  0  0  0  0  0  0  0  0  0  0
  -30.5374  -24.7642   21.6876 C   0  0  0  0  0  0  0  0  0  0  0  0
  -23.6073  -32.6438   20.7966 C   0  0  0  0  0  0  0  0  0  0  0  0
  -25.0007  -34.6857   21.1934 C   0  0  0  0  0  0  0  0  0  0  0  0
  -22.9495  -34.2933   22.5576 C   0  0  0  0  0  0  0  0  0  0  0  0
  -28.1837  -33.0395   26.7888 C   0  0  0  0  0  0  0  0  0  0  0  0
  -24.1144  -24.7392   19.7887 C   0  0  0  0  0  0  0  0  0  0  0  0
  -25.5572  -23.0168   17.5432 C   0  0  0  0  0  0  0  0  0  0  0  0
  -22.3913  -21.2934   13.9829 C   0  0  0  0  0  0  0  0  0  0  0  0
  -24.5255  -23.3863   16.4646 C   0  0  0  0  0  0  0  0  0  0  0  0
  -22.9456  -22.5306   14.6888 C   0  0  0  0  0  0  0  0  0  0  0  0
  -23.9949  -22.1509   15.7350 C   0  0  0  0  0  0  0  0  0  0  0  0
  -29.8449  -26.1566   19.7037 C   0  0  0  0  0  0  0  0  0  0  0  0
  -28.6592  -26.7652   18.9412 C   0  0  0  0  0  0  0  0  0  0  0  0
  -24.1147  -24.0554   21.1679 C   0  0  0  0  0  0  0  0  0  0  0  0
  -24.9978  -32.8670   22.9606 C   0  0  1  0  0  0  0  0  0  0  0  0
  -27.1167  -34.8315   25.4143 C   0  0  2  0  0  0  0  0  0  0  0  0
  -29.5224  -25.7656   21.1513 C   0  0  2  0  0  0  0  0  0  1  0  0
  -24.1499  -33.5965   21.8807 C   0  0  0  0  0  0  0  0  0  0  0  0
  -26.0280  -16.9461   19.9319 N   0  0  0  0  0  0  0  0  0  0  0  0
  -27.4641  -25.8508   18.8455 N   0  0  0  0  0  0  0  0  0  0  0  0
  -25.6118  -18.1206   19.4284 N   0  0  0  0  0  0  0  0  0  0  0  0
  -24.7496  -30.4742   23.5410 N   0  0  0  0  0  0  0  0  0  0  0  0
  -26.6186  -21.3034   21.2899 N   0  0  0  0  0  0  0  0  0  0  0  0
  -23.9435  -19.1072   18.0669 N   0  0  0  0  0  0  0  0  0  0  0  0
  -22.8432  -14.7271   18.0539 N   0  0  0  0  0  0  0  0  0  0  0  0
  -21.9571  -28.2922   23.1277 N   0  0  0  0  0  0  0  0  0  0  0  0
  -25.5020  -33.7403   24.0149 N   0  0  0  0  0  0  0  0  0  0  0  0
  -24.7660  -22.7650   21.1311 N   0  0  0  0  0  0  0  0  0  0  0  0
  -28.3076  -34.3969   26.1979 N   0  3  0  0  0  0  0  0  0  0  0  0
  -22.2604  -16.7957   17.2539 O   0  0  0  0  0  0  0  0  0  0  0  0
  -23.7243  -28.8503   21.7178 O   0  0  0  0  0  0  0  0  0  0  0  0
  -23.2011  -32.0536   24.2785 O   0  0  0  0  0  0  0  0  0  0  0  0
  -27.7483  -33.2723   23.6801 O   0  0  0  0  0  0  0  0  0  0  0  0
  -26.8499  -23.5874   21.6187 O   0  0  0  0  0  0  0  0  0  0  0  0
  -25.5509  -10.6434   20.7048 O   0  0  0  0  0  0  0  0  0  0  0  0
  -29.5507  -26.9334   21.9709 O   0  0  0  0  0  0  0  0  0  1  0  0
  -20.9398   -7.9994   22.1715 F   0  0  0  0  0  0  0  0  0  0  0  0
  -25.3333   -9.4405   23.1844 F   0  0  0  0  0  0  0  0  0  0  0  0
  1  2  1  0  0  0  0
  1  5  2  0  0  0  0
  2  6  2  0  0  0  0
  3  8  2  0  0  0  0
  3 16  1  0  0  0  0
  4  9  1  0  0  0  0
  4 16  2  0  0  0  0
  5 18  1  0  0  0  0
  6 20  1  0  0  0  0
  7 10  2  0  0  0  0
  7 19  1  0  0  0  0
  8 24  1  0  0  0  0
  9 24  2  0  0  0  0
 10 25  1  0  0  0  0
 11 12  2  0  0  0  0
 11 26  1  0  0  0  0
 12 27  1  0  0  0  0
 13 21  1  0  0  0  0
 13 25  2  0  0  0  0
 14 27  2  0  0  0  0
 14 28  1  0  0  0  0
 15 22  2  0  0  0  0
 15 71  1  0  0  0  0
 16 29  1  0  0  0  0
 17 29  1  0  0  0  0
 17 31  2  0  0  0  0
 17 32  1  0  0  0  0
 18 20  2  0  0  0  0
 18 37  1  0  0  0  0
 19 21  2  0  0  0  0
 19 38  1  0  0  0  0
 20 46  1  0  0  0  0
 21 39  1  0  0  0  0
 22 23  1  0  0  0  0
 22 57  1  0  0  0  0
 23 30  2  0  0  0  0
 23 58  1  0  0  0  0
 24 86  1  0  0  0  0
 25 87  1  0  0  0  0
 26 28  2  0  0  0  0
 26 86  1  0  0  0  0
 27 88  1  0  0  0  0
 28 89  1  0  0  0  0
 29 70  2  0  0  0  0
 30 49  1  0  0  0  0
 30 71  1  0  0  0  0
 31 72  1  0  0  0  0
 31 75  1  0  0  0  0
 32 76  1  0  0  0  0
 32 81  2  0  0  0  0
 33 47  1  0  0  0  0
 33 77  1  0  0  0  0
 33 82  2  0  0  0  0
 34 66  1  0  0  0  0
 34 73  1  0  0  0  0
 34 83  2  0  0  0  0
 35 67  1  0  0  0  0
 35 78  1  0  0  0  0
 35 84  2  0  0  0  0
 36 74  1  0  0  0  0
 36 79  1  0  0  0  0
 36 85  2  0  0  0  0
 37 40  1  0  0  0  0
 38 47  1  0  0  0  0
 39 73  1  0  0  0  0
 40 42  1  0  0  0  0
 41 43  1  0  0  0  0
 41 44  1  0  0  0  0
 42 46  1  0  0  0  0
 43 48  1  0  0  0  0
 44 74  1  0  0  0  0
 45 48  1  0  0  0  0
 45 74  1  0  0  0  0
 46 77  1  0  0  0  0
 47 73  1  0  0  0  0
 48 72  1  0  0  0  0
 50 59  1  0  0  0  0
 51 67  1  0  0  0  0
 52 68  1  0  0  0  0
 53 69  1  0  0  0  0
 54 69  1  0  0  0  0
 55 69  1  0  0  0  0
 56 80  1  0  0  0  0
 57 65  1  0  0  0  0
 58 60  1  0  0  0  0
 59 61  1  0  0  0  0
 60 62  1  0  0  0  0
 61 62  1  0  0  0  0
 63 64  1  0  0  0  0
 63 68  1  0  0  0  0
 64 71  1  0  0  0  0
 65 79  1  0  0  0  0
 66 69  1  0  0  0  0
 66 78  1  0  0  0  0
 67 80  1  0  0  0  0
 68 87  1  0  0  0  0
 70 72  1  0  0  0  0
M  CHG  1  80   1
M  ISO  4  36 100  68 101  79 100  87 101
M  END
> <Batch ID>
0094

> <Smiles>
CCCCCCc1c(CC[100NH:0][100C:0](=O)N2CCCC(n3nc(-c4ccc(Oc5ccc(F)cc5F)cc4)c(C(N)=O)c3N)C2)cn(CC[101CH:1](C)[101O:1]c2ccc3c(c2)CN(C(=O)C(NC(=O)C(C)NC)C(C)(C)C)C(C(=O)NC2CCCc4ccccc42)C3)c1C

> <Shape>
0.246

> <Color>
0.085

> <Negative vol penalty>
0.000

$$$$

  -OEChem-04052319193D

 86 94  0     1  0  0  0  0  0999 V2000
  -15.4776  -25.7444   23.9781 C   0  0  0  0  0  0  0  0  0  0  0  0
  -16.2320  -25.2015   22.9429 C   0  0  0  0  0  0  0  0  0  0  0  0
  -24.5282  -13.9038   21.6253 C   0  0  0  0  0  0  0  0  0  0  0  0
  -26.8084  -13.4449   20.9717 C   0  0  0  0  0  0  0  0  0  0  0  0
  -15.7102  -27.0540   24.3962 C   0  0  0  0  0  0  0  0  0  0  0  0
  -17.2187  -25.9684   22.3244 C   0  0  0  0  0  0  0  0  0  0  0  0
  -22.5668  -23.9837   20.0961 C   0  0  0  0  0  0  0  0  0  0  0  0
  -24.1134  -12.7247   21.0064 C   0  0  0  0  0  0  0  0  0  0  0  0
  -26.3936  -12.2657   20.3528 C   0  0  0  0  0  0  0  0  0  0  0  0
  -22.9823  -23.6576   18.8058 C   0  0  0  0  0  0  0  0  0  0  0  0
  -22.5068   -9.6536   19.9099 C   0  0  0  0  0  0  0  0  0  0  0  0
  -21.6148   -8.8361   20.6037 C   0  0  0  0  0  0  0  0  0  0  0  0
  -23.9047  -25.8719   18.5498 C   0  0  0  0  0  0  0  0  0  0  0  0
  -26.8439  -24.9002   15.4015 C   0  0  0  0  0  0  0  0  0  0  0  0
  -27.7280  -22.8704   16.3411 C   0  0  0  0  0  0  0  0  0  0  0  0
  -23.2239   -8.5961   22.3898 C   0  0  0  0  0  0  0  0  0  0  0  0
  -25.8757  -14.2640   21.6080 C   0  0  0  0  0  0  0  0  0  0  0  0
  -26.7198  -15.6411   23.5825 C   0  0  0  0  0  0  0  0  0  0  0  0
  -16.7069  -27.8341   23.7889 C   0  0  0  0  0  0  0  0  0  0  0  0
  -22.8079  -25.2620   20.6198 C   0  0  0  0  0  0  0  0  0  0  0  0
  -17.4640  -27.2901   22.7338 C   0  0  0  0  0  0  0  0  0  0  0  0
  -23.4935  -26.2108   19.8479 C   0  0  0  0  0  0  0  0  0  0  0  0
  -26.6907  -23.5548   15.7174 C   0  0  0  0  0  0  0  0  0  0  0  0
  -25.0461  -11.9056   20.3701 C   0  0  0  0  0  0  0  0  0  0  0  0
  -23.6488  -24.6027   18.0314 C   0  0  0  0  0  0  0  0  0  0  0  0
  -23.7575   -9.9423   20.4559 C   0  0  0  0  0  0  0  0  0  0  0  0
  -21.9733   -8.3073   21.8437 C   0  0  0  0  0  0  0  0  0  0  0  0
  -24.1160   -9.4136   21.6959 C   0  0  0  0  0  0  0  0  0  0  0  0
  -26.3047  -15.4822   22.2467 C   0  0  0  0  0  0  0  0  0  0  0  0
  -28.0442  -25.5104   15.7278 C   0  0  0  0  0  0  0  0  0  0  0  0
  -28.8889  -23.5715   16.6251 C   0  0  0  0  0  0  0  0  0  0  0  0
  -27.0209  -16.9768   23.6919 C   0  0  0  0  0  0  0  0  0  0  0  0
  -26.8240  -14.6684   24.6306 C   0  0  0  0  0  0  0  0  0  0  0  0
  -20.9754  -27.6500   21.6412 C   0  0  0  0  0  0  0  0  0  0  0  0
  -23.8211  -28.9517   22.4953 C   0  0  0  0  0  0  0  0  0  0  0  0
  -27.1970  -29.1037   22.0189 C   0  0  0  0  0  0  0  0  0  0  0  0
  -28.7311  -20.9640   19.6879 C   0  0  0  0  0  0  0  0  0  0  0  0
  -16.8897  -29.2605   24.2434 C   0  0  0  0  0  0  0  0  0  0  0  0
  -22.3769  -25.5895   22.0231 C   0  0  0  0  0  0  0  0  0  0  0  0
  -23.7949  -27.5907   20.3711 C   0  0  0  0  0  0  0  0  0  0  0  0
  -18.2078  -29.8809   23.7872 C   0  0  0  0  0  0  0  0  0  0  0  0
  -25.8508  -21.2414   21.8613 C   0  0  0  0  0  0  0  0  0  0  0  0
  -18.4515  -29.5903   22.3097 C   0  0  0  0  0  0  0  0  0  0  0  0
  -25.6855  -19.7957   22.3333 C   0  0  0  0  0  0  0  0  0  0  0  0
  -26.2873  -21.2996   20.4004 C   0  0  0  0  0  0  0  0  0  0  0  0
  -27.3680  -19.0911   20.5690 C   0  0  0  0  0  0  0  0  0  0  0  0
  -18.5602  -28.0821   22.0547 C   0  0  1  0  0  0  0  0  0  0  0  0
  -22.2207  -27.0874   22.2661 C   0  0  1  0  0  0  0  0  0  0  0  0
  -26.9496  -18.9643   22.0451 C   0  0  2  0  0  0  0  0  0  0  0  0
  -29.2509  -30.2888   22.8401 C   0  0  0  0  0  0  0  0  0  0  0  0
  -27.5234  -30.1889   17.4861 C   0  0  0  0  0  0  0  0  0  0  0  0
  -29.4667  -29.7055   15.9860 C   0  0  0  0  0  0  0  0  0  0  0  0
  -23.0182  -31.4342   20.9135 C   0  0  0  0  0  0  0  0  0  0  0  0
  -25.4143  -32.1582   20.9673 C   0  0  0  0  0  0  0  0  0  0  0  0
  -24.1410  -31.9069   23.0976 C   0  0  0  0  0  0  0  0  0  0  0  0
  -28.4317  -26.5745   22.9340 C   0  0  0  0  0  0  0  0  0  0  0  0
  -25.4032  -22.8404   15.3854 C   0  0  0  0  0  0  0  0  0  0  0  0
  -28.2434  -26.9537   15.4054 C   0  0  0  0  0  0  0  0  0  0  0  0
  -30.0231  -22.8679   17.2924 C   0  0  0  0  0  0  0  0  0  0  0  0
  -27.7897  -27.8696   16.5570 C   0  0  0  0  0  0  0  0  0  0  0  0
  -29.9697  -22.9326   18.8232 C   0  0  0  0  0  0  0  0  0  0  0  0
  -24.3859  -22.9224   16.5183 C   0  0  0  0  0  0  0  0  0  1  0  0
  -24.8366  -29.8402   21.8182 C   0  0  1  0  0  0  0  0  0  0  0  0
  -28.3552  -29.0702   22.9996 C   0  0  2  0  0  0  0  0  0  0  0  0
  -28.0049  -29.3702   16.2856 C   0  0  0  0  0  0  0  0  0  0  0  0
  -24.3453  -31.3096   21.6883 C   0  0  0  0  0  0  0  0  0  0  0  0
  -26.3377  -16.6256   21.5570 N   0  0  0  0  0  0  0  0  0  0  0  0
  -29.0744  -24.8785   16.3337 N   0  0  0  0  0  0  0  0  0  0  0  0
  -26.7770  -17.5157   22.4629 N   0  0  0  0  0  0  0  0  0  0  0  0
  -23.3477  -27.8648   21.7467 N   0  0  0  0  0  0  0  0  0  0  0  0
  -27.5058  -20.5032   20.1973 N   0  0  0  0  0  0  0  0  0  0  0  0
  -27.4677  -17.7310   24.7184 N   0  0  0  0  0  0  0  0  0  0  0  0
  -26.4748  -13.3410   24.3474 N   0  0  0  0  0  0  0  0  0  0  0  0
  -19.8617  -27.5940   22.4574 N   0  0  0  0  0  0  0  0  0  0  0  0
  -26.0773  -29.6893   22.5707 N   0  0  0  0  0  0  0  0  0  0  0  0
  -28.7762  -22.3120   19.3537 N   0  0  0  0  0  0  0  0  0  0  0  0
  -29.1811  -27.8485   22.7844 N   0  3  0  0  0  0  0  0  0  0  0  0
  -27.1995  -14.9707   25.7887 O   0  0  0  0  0  0  0  0  0  0  0  0
  -21.0218  -28.1027   20.5034 O   0  0  0  0  0  0  0  0  0  0  0  0
  -23.4666  -29.2083   23.6486 O   0  0  0  0  0  0  0  0  0  0  0  0
  -27.2787  -28.6586   20.8762 O   0  0  0  0  0  0  0  0  0  0  0  0
  -29.7147  -20.2294   19.5462 O   0  0  0  0  0  0  0  0  0  0  0  0
  -24.6418  -10.7548   19.7662 O   0  0  0  0  0  0  0  0  0  0  0  0
  -24.0549  -24.2872   16.7714 O   0  0  0  0  0  0  0  0  0  1  0  0
  -21.1159   -7.5235   22.5105 F   0  0  0  0  0  0  0  0  0  0  0  0
  -25.3156   -9.6884   22.2262 F   0  0  0  0  0  0  0  0  0  0  0  0
  1  2  1  0  0  0  0
  1  5  2  0  0  0  0
  2  6  2  0  0  0  0
  3  8  2  0  0  0  0
  3 17  1  0  0  0  0
  4  9  1  0  0  0  0
  4 17  2  0  0  0  0
  5 19  1  0  0  0  0
  6 21  1  0  0  0  0
  7 10  2  0  0  0  0
  7 20  1  0  0  0  0
  8 24  1  0  0  0  0
  9 24  2  0  0  0  0
 10 25  1  0  0  0  0
 11 12  2  0  0  0  0
 11 26  1  0  0  0  0
 12 27  1  0  0  0  0
 13 22  1  0  0  0  0
 13 25  2  0  0  0  0
 14 23  2  0  0  0  0
 14 30  1  0  0  0  0
 15 23  1  0  0  0  0
 15 31  2  0  0  0  0
 16 27  2  0  0  0  0
 16 28  1  0  0  0  0
 17 29  1  0  0  0  0
 18 29  1  0  0  0  0
 18 32  2  0  0  0  0
 18 33  1  0  0  0  0
 19 21  2  0  0  0  0
 19 38  1  0  0  0  0
 20 22  2  0  0  0  0
 20 39  1  0  0  0  0
 21 47  1  0  0  0  0
 22 40  1  0  0  0  0
 23 57  1  0  0  0  0
 24 83  1  0  0  0  0
 25 84  1  0  0  0  0
 26 28  2  0  0  0  0
 26 83  1  0  0  0  0
 27 85  1  0  0  0  0
 28 86  1  0  0  0  0
 29 67  2  0  0  0  0
 30 58  1  0  0  0  0
 30 68  2  0  0  0  0
 31 59  1  0  0  0  0
 31 68  1  0  0  0  0
 32 69  1  0  0  0  0
 32 72  1  0  0  0  0
 33 73  1  0  0  0  0
 33 78  2  0  0  0  0
 34 48  1  0  0  0  0
 34 74  1  0  0  0  0
 34 79  2  0  0  0  0
 35 63  1  0  0  0  0
 35 70  1  0  0  0  0
 35 80  2  0  0  0  0
 36 64  1  0  0  0  0
 36 75  1  0  0  0  0
 36 81  2  0  0  0  0
 37 71  1  0  0  0  0
 37 76  1  0  0  0  0
 37 82  2  0  0  0  0
 38 41  1  0  0  0  0
 39 48  1  0  0  0  0
 40 70  1  0  0  0  0
 41 43  1  0  0  0  0
 42 44  1  0  0  0  0
 42 45  1  0  0  0  0
 43 47  1  0  0  0  0
 44 49  1  0  0  0  0
 45 71  1  0  0  0  0
 46 49  1  0  0  0  0
 46 71  1  0  0  0  0
 47 74  1  0  0  0  0
 48 70  1  0  0  0  0
 49 69  1  0  0  0  0
 50 64  1  0  0  0  0
 51 65  1  0  0  0  0
 52 65  1  0  0  0  0
 53 66  1  0  0  0  0
 54 66  1  0  0  0  0
 55 66  1  0  0  0  0
 56 77  1  0  0  0  0
 57 62  1  0  0  0  0
 58 60  1  0  0  0  0
 59 61  1  0  0  0  0
 60 65  1  0  0  0  0
 61 76  1  0  0  0  0
 62 84  1  0  0  0  0
 63 66  1  0  0  0  0
 63 75  1  0  0  0  0
 64 77  1  0  0  0  0
 67 69  1  0  0  0  0
M  CHG  1  77   1
M  ISO  4  37 100  62 101  76 100  84 101
M  END
> <Batch ID>
0094

> <Smiles>
CNC(C)C(=O)NC(C(=O)N1Cc2cc([101O:1][101CH2:1]Cc3cc(CC[100NH:0][100C:0](=O)N4CCCC(n5nc(-c6ccc(Oc7ccc(F)cc7F)cc6)c(C(N)=O)c5N)C4)nc(CCC(C)C)c3)ccc2CC1C(=O)NC1CCCc2ccccc21)C(C)(C)C

> <Shape>
0.232

> <Color>
0.070

> <Negative vol penalty>
0.000

$$$$

  -OEChem-04052319193D

 84 92  0     1  0  0  0  0  0999 V2000
  -17.6390  -32.5764   23.5439 C   0  0  0  0  0  0  0  0  0  0  0  0
  -18.8663  -32.8243   22.9376 C   0  0  0  0  0  0  0  0  0  0  0  0
  -25.7065  -14.4185   21.5157 C   0  0  0  0  0  0  0  0  0  0  0  0
  -25.0884  -15.1145   19.2862 C   0  0  0  0  0  0  0  0  0  0  0  0
  -17.4529  -31.4120   24.2879 C   0  0  0  0  0  0  0  0  0  0  0  0
  -19.9087  -31.9085   23.0759 C   0  0  0  0  0  0  0  0  0  0  0  0
  -25.5371  -29.2759   19.5112 C   0  0  0  0  0  0  0  0  0  0  0  0
  -24.6132  -13.5530   21.5487 C   0  0  0  0  0  0  0  0  0  0  0  0
  -23.9950  -14.2490   19.3192 C   0  0  0  0  0  0  0  0  0  0  0  0
  -26.9061  -29.0623   19.6660 C   0  0  0  0  0  0  0  0  0  0  0  0
  -23.8144  -10.5011   20.3319 C   0  0  0  0  0  0  0  0  0  0  0  0
  -24.0243   -9.2097   20.8153 C   0  0  0  0  0  0  0  0  0  0  0  0
  -26.4448  -27.0469   20.9089 C   0  0  0  0  0  0  0  0  0  0  0  0
  -29.4604  -25.5689   18.3459 C   0  0  0  0  0  0  0  0  0  0  0  0
  -22.4018   -9.6000   22.5624 C   0  0  0  0  0  0  0  0  0  0  0  0
  -25.9441  -15.1992   20.3845 C   0  0  0  0  0  0  0  0  0  0  0  0
  -28.3744  -15.8034   19.8983 C   0  0  0  0  0  0  0  0  0  0  0  0
  -18.4904  -30.4768   24.4273 C   0  0  0  0  0  0  0  0  0  0  0  0
  -24.6100  -28.3810   20.0643 C   0  0  0  0  0  0  0  0  0  0  0  0
  -19.7367  -30.7312   23.8236 C   0  0  0  0  0  0  0  0  0  0  0  0
  -25.0646  -27.2501   20.7575 C   0  0  0  0  0  0  0  0  0  0  0  0
  -30.5358  -25.9110   19.1466 C   0  0  0  0  0  0  0  0  0  0  0  0
  -23.7574  -13.4682   20.4505 C   0  0  0  0  0  0  0  0  0  0  0  0
  -27.3601  -27.9492   20.3675 C   0  0  0  0  0  0  0  0  0  0  0  0
  -22.8983  -11.3421   20.9638 C   0  0  0  0  0  0  0  0  0  0  0  0
  -23.3180   -8.7591   21.9305 C   0  0  0  0  0  0  0  0  0  0  0  0
  -22.1920  -10.8915   22.0790 C   0  0  0  0  0  0  0  0  0  0  0  0
  -27.0731  -16.0939   20.3500 C   0  0  0  0  0  0  0  0  0  0  0  0
  -29.2326  -24.2284   18.1081 C   0  0  0  0  0  0  0  0  0  0  0  0
  -31.3121  -24.8899   19.6568 C   0  0  0  0  0  0  0  0  0  0  0  0
  -29.0677  -16.9764   20.0714 C   0  0  0  0  0  0  0  0  0  0  0  0
  -28.9087  -14.5825   19.3696 C   0  0  0  0  0  0  0  0  0  0  0  0
  -22.3093  -28.5985   22.2468 C   0  0  0  0  0  0  0  0  0  0  0  0
  -21.6862  -25.5505   21.3283 C   0  0  0  0  0  0  0  0  0  0  0  0
  -22.8297  -22.6544   19.9311 C   0  0  0  0  0  0  0  0  0  0  0  0
  -27.3746  -22.7139   20.3270 C   0  0  0  0  0  0  0  0  0  0  0  0
  -18.2569  -29.2553   25.2806 C   0  0  0  0  0  0  0  0  0  0  0  0
  -23.1369  -28.6113   19.8655 C   0  0  0  0  0  0  0  0  0  0  0  0
  -24.1106  -26.2484   21.3531 C   0  0  0  0  0  0  0  0  0  0  0  0
  -19.2941  -28.1558   25.0671 C   0  0  0  0  0  0  0  0  0  0  0  0
  -29.1672  -20.8981   22.8102 C   0  0  0  0  0  0  0  0  0  0  0  0
  -20.7023  -28.7422   25.0715 C   0  0  0  0  0  0  0  0  0  0  0  0
  -28.9512  -19.4347   22.4205 C   0  0  0  0  0  0  0  0  0  0  0  0
  -27.9248  -21.7437   22.5389 C   0  0  0  0  0  0  0  0  0  0  0  0
  -27.1878  -20.1913   20.7723 C   0  0  0  0  0  0  0  0  0  0  0  0
  -20.8838  -29.7499   23.9300 C   0  0  1  0  0  0  0  0  0  0  0  0
  -22.2759  -27.9102   20.9116 C   0  0  1  0  0  0  0  0  0  0  0  0
  -28.4321  -19.3100   20.9754 C   0  0  2  0  0  0  0  0  0  0  0  0
  -32.4878  -25.1825   20.5267 C   0  0  0  0  0  0  0  0  0  0  0  0
  -31.8261  -27.9486   18.4289 C   0  0  0  0  0  0  0  0  0  0  0  0
  -22.7434  -20.3259   18.9994 C   0  0  0  0  0  0  0  0  0  0  0  0
  -21.8856  -24.7565   24.2676 C   0  0  0  0  0  0  0  0  0  0  0  0
  -22.1002  -22.3716   23.5368 C   0  0  0  0  0  0  0  0  0  0  0  0
  -20.0250  -23.6529   23.0128 C   0  0  0  0  0  0  0  0  0  0  0  0
  -22.1811  -23.6399   17.2169 C   0  0  0  0  0  0  0  0  0  0  0  0
  -26.8022  -23.5337   18.0556 C   0  0  0  0  0  0  0  0  0  0  0  0
  -29.5521  -28.2202   19.4857 C   0  0  0  0  0  0  0  0  0  1  0  0
  -30.8313  -27.3733   19.4410 C   0  0  1  0  0  0  0  0  0  0  0  0
  -28.0878  -23.8068   17.2520 C   0  0  2  0  0  0  0  0  0  0  0  0
  -22.1584  -24.1846   21.7647 C   0  0  1  0  0  0  0  0  0  0  0  0
  -22.2464  -21.7560   18.8555 C   0  0  2  0  0  0  0  0  0  0  0  0
  -21.5605  -23.7611   23.1361 C   0  0  0  0  0  0  0  0  0  0  0  0
  -26.9448  -17.3526   20.7780 N   0  0  0  0  0  0  0  0  0  0  0  0
  -30.0089  -23.2501   18.6205 N   0  0  0  0  0  0  0  0  0  0  0  0
  -31.0656  -23.5864   19.4078 N   0  0  0  0  0  0  0  0  0  0  0  0
  -28.1744  -17.8634   20.5961 N   0  0  0  0  0  0  0  0  0  0  0  0
  -22.6800  -26.5209   21.1372 N   0  0  0  0  0  0  0  0  0  0  0  0
  -27.4849  -21.5817   21.1510 N   0  0  0  0  0  0  0  0  0  0  0  0
  -30.3483  -17.3252   19.8245 N   0  0  0  0  0  0  0  0  0  0  0  0
  -28.0588  -13.4735   19.2598 N   0  0  0  0  0  0  0  0  0  0  0  0
  -21.0784  -29.0598   22.6728 N   0  0  0  0  0  0  0  0  0  0  0  0
  -21.8436  -23.2744   20.6689 N   0  0  0  0  0  0  0  0  0  0  0  0
  -26.9573  -22.4712   19.0240 N   0  0  0  0  0  0  0  0  0  0  0  0
  -28.3867  -22.5792   16.4319 N   0  3  0  0  0  0  0  0  0  0  0  0
  -22.6277  -22.2523   17.5030 N   0  3  0  0  0  0  0  0  0  0  0  0
  -30.1086  -14.4733   19.0205 O   0  0  0  0  0  0  0  0  0  0  0  0
  -23.3728  -28.7020   22.8468 O   0  0  0  0  0  0  0  0  0  0  0  0
  -20.4807  -25.7471   21.1560 O   0  0  0  0  0  0  0  0  0  0  0  0
  -24.0393  -22.7896   20.1023 O   0  0  0  0  0  0  0  0  0  0  0  0
  -27.6343  -23.8557   20.7216 O   0  0  0  0  0  0  0  0  0  0  0  0
  -22.6905  -12.6237   20.4822 O   0  0  0  0  0  0  0  0  0  0  0  0
  -28.6958  -27.7387   20.5207 O   0  0  0  0  0  0  0  0  0  1  0  0
  -23.5185   -7.5183   22.3937 F   0  0  0  0  0  0  0  0  0  0  0  0
  -21.3097  -11.6944   22.6896 F   0  0  0  0  0  0  0  0  0  0  0  0
  1  2  1  0  0  0  0
  1  5  2  0  0  0  0
  2  6  2  0  0  0  0
  3  8  2  0  0  0  0
  3 16  1  0  0  0  0
  4  9  1  0  0  0  0
  4 16  2  0  0  0  0
  5 18  1  0  0  0  0
  6 20  1  0  0  0  0
  7 10  2  0  0  0  0
  7 19  1  0  0  0  0
  8 23  1  0  0  0  0
  9 23  2  0  0  0  0
 10 24  1  0  0  0  0
 11 12  2  0  0  0  0
 11 25  1  0  0  0  0
 12 26  1  0  0  0  0
 13 21  1  0  0  0  0
 13 24  2  0  0  0  0
 14 22  1  0  0  0  0
 14 29  2  0  0  0  0
 15 26  2  0  0  0  0
 15 27  1  0  0  0  0
 16 28  1  0  0  0  0
 17 28  1  0  0  0  0
 17 31  2  0  0  0  0
 17 32  1  0  0  0  0
 18 20  2  0  0  0  0
 18 37  1  0  0  0  0
 19 21  2  0  0  0  0
 19 38  1  0  0  0  0
 20 46  1  0  0  0  0
 21 39  1  0  0  0  0
 22 30  2  0  0  0  0
 22 58  1  0  0  0  0
 23 81  1  0  0  0  0
 24 82  1  0  0  0  0
 25 27  2  0  0  0  0
 25 81  1  0  0  0  0
 26 83  1  0  0  0  0
 27 84  1  0  0  0  0
 28 63  2  0  0  0  0
 29 59  1  0  0  0  0
 29 64  1  0  0  0  0
 30 49  1  0  0  0  0
 30 65  1  0  0  0  0
 31 66  1  0  0  0  0
 31 69  1  0  0  0  0
 32 70  1  0  0  0  0
 32 76  2  0  0  0  0
 33 47  1  0  0  0  0
 33 71  1  0  0  0  0
 33 77  2  0  0  0  0
 34 60  1  0  0  0  0
 34 67  1  0  0  0  0
 34 78  2  0  0  0  0
 35 61  1  0  0  0  0
 35 72  1  0  0  0  0
 35 79  2  0  0  0  0
 36 68  1  0  0  0  0
 36 73  1  0  0  0  0
 36 80  2  0  0  0  0
 37 40  1  0  0  0  0
 38 47  1  0  0  0  0
 39 67  1  0  0  0  0
 40 42  1  0  0  0  0
 41 43  1  0  0  0  0
 41 44  1  0  0  0  0
 42 46  1  0  0  0  0
 43 48  1  0  0  0  0
 44 68  1  0  0  0  0
 45 48  1  0  0  0  0
 45 68  1  0  0  0  0
 46 71  1  0  0  0  0
 47 67  1  0  0  0  0
 48 66  1  0  0  0  0
 50 58  1  0  0  0  0
 51 61  1  0  0  0  0
 52 62  1  0  0  0  0
 53 62  1  0  0  0  0
 54 62  1  0  0  0  0
 55 75  1  0  0  0  0
 56 59  1  0  0  0  0
 56 73  1  0  0  0  0
 57 58  1  0  0  0  0
 57 82  1  0  0  0  0
 59 74  1  0  0  0  0
 60 62  1  0  0  0  0
 60 72  1  0  0  0  0
 61 75  1  0  0  0  0
 63 66  1  0  0  0  0
 64 65  2  0  0  0  0
M  CHG  2  74   1  75   1
M  ISO  4  36 100  57 101  73 100  82 101
M  END
> <Batch ID>
0094

> <Smiles>
CNC(C)C(=O)NC(C(=O)N1Cc2cc([101O:1][101CH2:1]C(C)c3cc(C(N)C[100NH:0][100C:0](=O)N4CCCC(n5nc(-c6ccc(Oc7ccc(F)cc7F)cc6)c(C(N)=O)c5N)C4)nnc3C)ccc2CC1C(=O)NC1CCCc2ccccc21)C(C)(C)C

> <Shape>
0.266

> <Color>
0.084

> <Negative vol penalty>
0.000

$$$$

  -OEChem-04052319193D

 82 90  0     1  0  0  0  0  0999 V2000
  -24.4317  -10.4549   18.1495 C   0  0  0  0  0  0  0  0  0  0  0  0
  -23.7287  -11.5963   17.7775 C   0  0  0  0  0  0  0  0  0  0  0  0
  -29.7123  -27.2313   20.0932 C   0  0  0  0  0  0  0  0  0  0  0  0
  -28.3517  -25.7127   21.3891 C   0  0  0  0  0  0  0  0  0  0  0  0
  -25.1732  -10.4482   19.3302 C   0  0  0  0  0  0  0  0  0  0  0  0
  -23.7659  -12.7314   18.5866 C   0  0  0  0  0  0  0  0  0  0  0  0
  -23.6168  -19.8820   18.1838 C   0  0  0  0  0  0  0  0  0  0  0  0
  -30.8612  -26.5631   20.5163 C   0  0  0  0  0  0  0  0  0  0  0  0
  -29.5006  -25.0444   21.8122 C   0  0  0  0  0  0  0  0  0  0  0  0
  -22.9333  -20.9765   18.7118 C   0  0  0  0  0  0  0  0  0  0  0  0
  -32.8096  -26.4623   23.2764 C   0  0  0  0  0  0  0  0  0  0  0  0
  -33.8924  -27.2366   23.6931 C   0  0  0  0  0  0  0  0  0  0  0  0
  -24.3118  -20.8760   20.6889 C   0  0  0  0  0  0  0  0  0  0  0  0
  -35.2608  -26.2555   21.9604 C   0  0  0  0  0  0  0  0  0  0  0  0
  -18.8043  -27.9099   21.5742 C   0  0  0  0  0  0  0  0  0  0  0  0
  -28.4575  -26.8061   20.5297 C   0  0  0  0  0  0  0  0  0  0  0  0
  -26.4953  -27.2165   18.9520 C   0  0  0  0  0  0  0  0  0  0  0  0
  -25.2273  -11.5869   20.1493 C   0  0  0  0  0  0  0  0  0  0  0  0
  -24.6474  -19.2684   18.9104 C   0  0  0  0  0  0  0  0  0  0  0  0
  -24.5077  -12.7394   19.7801 C   0  0  0  0  0  0  0  0  0  0  0  0
  -25.0085  -19.7754   20.1668 C   0  0  0  0  0  0  0  0  0  0  0  0
  -30.7554  -25.4696   21.3758 C   0  0  0  0  0  0  0  0  0  0  0  0
  -23.2789  -21.4719   19.9657 C   0  0  0  0  0  0  0  0  0  0  0  0
  -32.9524  -25.5846   22.2017 C   0  0  0  0  0  0  0  0  0  0  0  0
  -35.1180  -27.1332   23.0351 C   0  0  0  0  0  0  0  0  0  0  0  0
  -34.1780  -25.4812   21.5437 C   0  0  0  0  0  0  0  0  0  0  0  0
  -27.2704  -27.4964   20.0934 C   0  0  0  0  0  0  0  0  0  0  0  0
  -19.5706  -28.1861   22.6773 C   0  0  0  0  0  0  0  0  0  0  0  0
  -25.4862  -28.1477   18.9854 C   0  0  0  0  0  0  0  0  0  0  0  0
  -18.7186  -25.7462   22.2150 C   0  0  0  0  0  0  0  0  0  0  0  0
  -26.6716  -26.2051   17.9512 C   0  0  0  0  0  0  0  0  0  0  0  0
  -25.1188  -16.3675   20.1211 C   0  0  0  0  0  0  0  0  0  0  0  0
  -28.0575  -17.5570   20.8077 C   0  0  0  0  0  0  0  0  0  0  0  0
  -30.0115  -20.2935   21.3916 C   0  0  0  0  0  0  0  0  0  0  0  0
  -22.1112  -30.9471   22.7652 C   0  0  0  0  0  0  0  0  0  0  0  0
  -26.0040  -11.5163   21.4402 C   0  0  0  0  0  0  0  0  0  0  0  0
  -25.3927  -18.1053   18.3153 C   0  0  0  0  0  0  0  0  0  0  0  0
  -26.1210  -19.1652   20.9782 C   0  0  0  0  0  0  0  0  0  0  0  0
  -26.2946  -12.8844   22.0518 C   0  0  0  0  0  0  0  0  0  0  0  0
  -24.8684  -32.5389   21.1713 C   0  0  0  0  0  0  0  0  0  0  0  0
  -25.0375  -13.7484   22.0488 C   0  0  0  0  0  0  0  0  0  0  0  0
  -25.6968  -31.3748   20.6248 C   0  0  0  0  0  0  0  0  0  0  0  0
  -24.2353  -32.1975   22.5184 C   0  0  0  0  0  0  0  0  0  0  0  0
  -24.2683  -29.7915   21.9854 C   0  0  0  0  0  0  0  0  0  0  0  0
  -24.5434  -13.9985   20.6188 C   0  0  1  0  0  0  0  0  0  0  0  0
  -26.0818  -17.2377   19.3641 C   0  0  1  0  0  0  0  0  0  0  0  0
  -24.8811  -30.0682   20.6018 C   0  0  2  0  0  0  0  0  0  0  0  0
  -32.3661  -20.9471   21.9622 C   0  0  0  0  0  0  0  0  0  0  0  0
  -27.5942  -16.6941   23.6974 C   0  0  0  0  0  0  0  0  0  0  0  0
  -29.4904  -18.1829   24.3728 C   0  0  0  0  0  0  0  0  0  0  0  0
  -29.9020  -16.2610   22.8366 C   0  0  0  0  0  0  0  0  0  0  0  0
  -30.3143  -21.8357   18.8838 C   0  0  0  0  0  0  0  0  0  0  0  0
  -20.0591  -29.5637   22.9502 C   0  0  0  0  0  0  0  0  0  0  0  0
  -18.2438  -24.3350   21.9759 C   0  0  0  0  0  0  0  0  0  0  0  0
  -19.0224  -23.5968   20.8814 C   0  0  0  0  0  0  0  0  0  0  0  0
  -20.5002  -23.4038   21.2245 C   0  0  0  0  0  0  0  0  0  0  0  0
  -21.2487  -22.7033   20.0986 C   0  0  0  0  0  0  0  0  0  1  0  0
  -28.6668  -18.2925   21.9768 C   0  0  1  0  0  0  0  0  0  0  0  0
  -31.3675  -20.6986   20.8425 C   0  0  2  0  0  0  0  0  0  0  0  0
  -28.8910  -17.3681   23.2067 C   0  0  0  0  0  0  0  0  0  0  0  0
  -18.3562  -26.6722   21.3148 N   0  0  0  0  0  0  0  0  0  0  0  0
  -26.7946  -28.5250   20.8002 N   0  0  0  0  0  0  0  0  0  0  0  0
  -19.9031  -27.2146   23.5466 N   0  0  0  0  0  0  0  0  0  0  0  0
  -19.4684  -25.9586   23.3143 N   0  0  0  0  0  0  0  0  0  0  0  0
  -25.7097  -28.8997   20.1011 N   0  0  0  0  0  0  0  0  0  0  0  0
  -26.8157  -18.0259   20.3562 N   0  0  0  0  0  0  0  0  0  0  0  0
  -23.4748  -30.9487   22.4281 N   0  0  0  0  0  0  0  0  0  0  0  0
  -24.4385  -28.3885   18.1689 N   0  0  0  0  0  0  0  0  0  0  0  0
  -27.7609  -25.3311   18.0692 N   0  0  0  0  0  0  0  0  0  0  0  0
  -25.3504  -15.0130   19.9754 N   0  0  0  0  0  0  0  0  0  0  0  0
  -29.8824  -18.9231   21.4737 N   0  0  0  0  0  0  0  0  0  0  0  0
  -21.4635  -29.7235   22.6458 N   0  0  0  0  0  0  0  0  0  0  0  0
  -31.2478  -21.9449   20.0343 N   0  3  0  0  0  0  0  0  0  0  0  0
  -25.8959  -26.0906   16.9721 O   0  0  0  0  0  0  0  0  0  0  0  0
  -24.2323  -16.8865   20.7892 O   0  0  0  0  0  0  0  0  0  0  0  0
  -28.6645  -16.6062   20.3087 O   0  0  0  0  0  0  0  0  0  0  0  0
  -29.1540  -21.1110   21.7186 O   0  0  0  0  0  0  0  0  0  0  0  0
  -21.5138  -31.9620   23.1395 O   0  0  0  0  0  0  0  0  0  0  0  0
  -31.8763  -24.8171   21.7887 O   0  0  0  0  0  0  0  0  0  0  0  0
  -22.6130  -22.5396   20.4836 O   0  0  0  0  0  0  0  0  0  1  0  0
  -36.1572  -27.8780   23.4345 F   0  0  0  0  0  0  0  0  0  0  0  0
  -34.3209  -24.6406   20.5099 F   0  0  0  0  0  0  0  0  0  0  0  0
  1  2  1  0  0  0  0
  1  5  2  0  0  0  0
  2  6  2  0  0  0  0
  3  8  2  0  0  0  0
  3 16  1  0  0  0  0
  4  9  1  0  0  0  0
  4 16  2  0  0  0  0
  5 18  1  0  0  0  0
  6 20  1  0  0  0  0
  7 10  2  0  0  0  0
  7 19  1  0  0  0  0
  8 22  1  0  0  0  0
  9 22  2  0  0  0  0
 10 23  1  0  0  0  0
 11 12  2  0  0  0  0
 11 24  1  0  0  0  0
 12 25  1  0  0  0  0
 13 21  1  0  0  0  0
 13 23  2  0  0  0  0
 14 25  2  0  0  0  0
 14 26  1  0  0  0  0
 15 28  1  0  0  0  0
 15 61  2  0  0  0  0
 16 27  1  0  0  0  0
 17 27  1  0  0  0  0
 17 29  2  0  0  0  0
 17 31  1  0  0  0  0
 18 20  2  0  0  0  0
 18 36  1  0  0  0  0
 19 21  2  0  0  0  0
 19 37  1  0  0  0  0
 20 45  1  0  0  0  0
 21 38  1  0  0  0  0
 22 79  1  0  0  0  0
 23 80  1  0  0  0  0
 24 26  2  0  0  0  0
 24 79  1  0  0  0  0
 25 81  1  0  0  0  0
 26 82  1  0  0  0  0
 27 62  2  0  0  0  0
 28 53  1  0  0  0  0
 28 63  2  0  0  0  0
 29 65  1  0  0  0  0
 29 68  1  0  0  0  0
 30 54  1  0  0  0  0
 30 61  1  0  0  0  0
 30 64  2  0  0  0  0
 31 69  1  0  0  0  0
 31 74  2  0  0  0  0
 32 46  1  0  0  0  0
 32 70  1  0  0  0  0
 32 75  2  0  0  0  0
 33 58  1  0  0  0  0
 33 66  1  0  0  0  0
 33 76  2  0  0  0  0
 34 59  1  0  0  0  0
 34 71  1  0  0  0  0
 34 77  2  0  0  0  0
 35 67  1  0  0  0  0
 35 72  1  0  0  0  0
 35 78  2  0  0  0  0
 36 39  1  0  0  0  0
 37 46  1  0  0  0  0
 38 66  1  0  0  0  0
 39 41  1  0  0  0  0
 40 42  1  0  0  0  0
 40 43  1  0  0  0  0
 41 45  1  0  0  0  0
 42 47  1  0  0  0  0
 43 67  1  0  0  0  0
 44 47  1  0  0  0  0
 44 67  1  0  0  0  0
 45 70  1  0  0  0  0
 46 66  1  0  0  0  0
 47 65  1  0  0  0  0
 48 59  1  0  0  0  0
 49 60  1  0  0  0  0
 50 60  1  0  0  0  0
 51 60  1  0  0  0  0
 52 73  1  0  0  0  0
 53 72  1  0  0  0  0
 54 55  1  0  0  0  0
 55 56  1  0  0  0  0
 56 57  1  0  0  0  0
 57 80  1  0  0  0  0
 58 60  1  0  0  0  0
 58 71  1  0  0  0  0
 59 73  1  0  0  0  0
 62 65  1  0  0  0  0
 63 64  1  0  0  0  0
M  CHG  1  73   1
M  ISO  4  35 100  57 101  72 100  80 101
M  END
> <Batch ID>
0094

> <Smiles>
CNC(C)C(=O)NC(C(=O)N1Cc2cc([101O:1][101CH2:1]CCCc3ncc(C[100NH:0][100C:0](=O)N4CCCC(n5nc(-c6ccc(Oc7ccc(F)cc7F)cc6)c(C(N)=O)c5N)C4)nn3)ccc2CC1C(=O)NC1CCCc2ccccc21)C(C)(C)C

> <Shape>
0.211

> <Color>
0.078

> <Negative vol penalty>
0.000

$$$$

  -OEChem-04052319193D

 79 86  0     1  0  0  0  0  0999 V2000
  -20.9577  -25.9518   25.8936 C   0  0  0  0  0  0  0  0  0  0  0  0
  -22.0102  -25.8235   24.9928 C   0  0  0  0  0  0  0  0  0  0  0  0
  -25.1632  -13.0152   21.9978 C   0  0  0  0  0  0  0  0  0  0  0  0
  -25.8490  -13.4212   19.7170 C   0  0  0  0  0  0  0  0  0  0  0  0
  -19.8016  -26.6359   25.5203 C   0  0  0  0  0  0  0  0  0  0  0  0
  -21.9066  -26.3783   23.7178 C   0  0  0  0  0  0  0  0  0  0  0  0
  -26.1046  -28.8449   22.3256 C   0  0  0  0  0  0  0  0  0  0  0  0
  -24.2513  -12.0580   21.5532 C   0  0  0  0  0  0  0  0  0  0  0  0
  -24.9371  -12.4639   19.2724 C   0  0  0  0  0  0  0  0  0  0  0  0
  -27.1829  -28.0735   21.8945 C   0  0  0  0  0  0  0  0  0  0  0  0
  -24.3227   -8.8370   20.5268 C   0  0  0  0  0  0  0  0  0  0  0  0
  -24.2652   -7.6266   21.2176 C   0  0  0  0  0  0  0  0  0  0  0  0
  -26.5929  -28.5405   19.6025 C   0  0  0  0  0  0  0  0  0  0  0  0
  -21.9423   -8.0358   21.7410 C   0  0  0  0  0  0  0  0  0  0  0  0
  -25.9620  -13.6969   21.0797 C   0  0  0  0  0  0  0  0  0  0  0  0
  -28.2468  -14.4762   21.9044 C   0  0  0  0  0  0  0  0  0  0  0  0
  -19.6877  -27.2077   24.2433 C   0  0  0  0  0  0  0  0  0  0  0  0
  -25.2544  -29.4620   21.3967 C   0  0  0  0  0  0  0  0  0  0  0  0
  -20.7473  -27.0696   23.3265 C   0  0  0  0  0  0  0  0  0  0  0  0
  -25.5060  -29.3213   20.0245 C   0  0  0  0  0  0  0  0  0  0  0  0
  -24.1383  -11.7822   20.1906 C   0  0  0  0  0  0  0  0  0  0  0  0
  -27.4255  -27.9188   20.5328 C   0  0  0  0  0  0  0  0  0  0  0  0
  -23.1901   -9.6469   20.4433 C   0  0  0  0  0  0  0  0  0  0  0  0
  -23.0750   -7.2260   21.8246 C   0  0  0  0  0  0  0  0  0  0  0  0
  -21.9999   -9.2463   21.0503 C   0  0  0  0  0  0  0  0  0  0  0  0
  -26.9038  -14.6863   21.5382 C   0  0  0  0  0  0  0  0  0  0  0  0
  -28.7038  -15.7210   22.2625 C   0  0  0  0  0  0  0  0  0  0  0  0
  -29.0127  -13.2643   21.9194 C   0  0  0  0  0  0  0  0  0  0  0  0
  -22.1629  -29.2393   20.6919 C   0  0  0  0  0  0  0  0  0  0  0  0
  -22.8330  -31.7249   18.7184 C   0  0  0  0  0  0  0  0  0  0  0  0
  -25.1628  -33.4417   16.9096 C   0  0  0  0  0  0  0  0  0  0  0  0
  -27.0082  -21.2689   20.7803 C   0  0  0  0  0  0  0  0  0  0  0  0
  -18.3996  -27.8971   23.8690 C   0  0  0  0  0  0  0  0  0  0  0  0
  -24.1113  -30.3127   21.8783 C   0  0  0  0  0  0  0  0  0  0  0  0
  -24.6351  -29.9797   18.9870 C   0  0  0  0  0  0  0  0  0  0  0  0
  -18.5188  -28.7787   22.6284 C   0  0  0  0  0  0  0  0  0  0  0  0
  -27.1934  -19.8907   24.0579 C   0  0  0  0  0  0  0  0  0  0  0  0
  -19.2543  -28.0382   21.5159 C   0  0  0  0  0  0  0  0  0  0  0  0
  -27.2614  -18.3816   23.8168 C   0  0  0  0  0  0  0  0  0  0  0  0
  -26.2819  -20.5831   23.0472 C   0  0  0  0  0  0  0  0  0  0  0  0
  -26.6694  -18.7978   21.3930 C   0  0  0  0  0  0  0  0  0  0  0  0
  -20.6826  -27.6790   21.9429 C   0  0  1  0  0  0  0  0  0  0  0  0
  -23.0068  -30.4738   20.8382 C   0  0  1  0  0  0  0  0  0  0  0  0
  -27.6207  -18.0632   22.3530 C   0  0  2  0  0  0  0  0  0  0  0  0
  -25.4033  -35.4075   15.3684 C   0  0  0  0  0  0  0  0  0  0  0  0
  -21.5958  -30.0974   16.4533 C   0  0  0  0  0  0  0  0  0  0  0  0
  -22.6977  -31.6512   14.8285 C   0  0  0  0  0  0  0  0  0  0  0  0
  -21.0034  -32.5271   16.4363 C   0  0  0  0  0  0  0  0  0  0  0  0
  -31.2746  -23.3427   17.6312 C   0  0  0  0  0  0  0  0  0  0  0  0
  -29.5706  -22.4653   16.0411 C   0  0  0  0  0  0  0  0  0  0  0  0
  -27.0260  -34.8100   18.7575 C   0  0  0  0  0  0  0  0  0  0  0  0
  -29.1476  -25.2071   18.8509 C   0  0  0  0  0  0  0  0  0  0  0  0
  -29.0389  -24.4680   17.5089 C   0  0  0  0  0  0  0  0  0  0  0  0
  -29.2540  -22.0777   18.4963 C   0  0  0  0  0  0  0  0  0  0  0  0
  -27.7521  -21.7975   18.4724 C   0  0  0  0  0  0  0  0  0  0  0  0
  -28.3402  -26.5020   18.8559 C   0  0  0  0  0  0  0  0  0  1  0  0
  -23.2893  -31.8596   17.2857 C   0  0  1  0  0  0  0  0  0  0  0  0
  -25.4671  -34.9255   16.8094 C   0  0  2  0  0  0  0  0  0  0  0  0
  -22.1620  -31.5197   16.2702 C   0  0  0  0  0  0  0  0  0  0  0  0
  -29.7631  -23.0940   17.4376 C   0  0  0  0  0  0  0  0  0  0  0  0
  -26.5318  -15.9639   21.6532 N   0  0  0  0  0  0  0  0  0  0  0  0
  -27.6478  -16.5679   22.0958 N   0  0  0  0  0  0  0  0  0  0  0  0
  -23.5261  -30.7962   19.5076 N   0  0  0  0  0  0  0  0  0  0  0  0
  -26.6771  -20.2411   21.6787 N   0  0  0  0  0  0  0  0  0  0  0  0
  -29.9018  -16.1627   22.7005 N   0  0  0  0  0  0  0  0  0  0  0  0
  -28.3886  -12.0744   21.5208 N   0  0  0  0  0  0  0  0  0  0  0  0
  -21.5420  -28.8404   21.8602 N   0  0  0  0  0  0  0  0  0  0  0  0
  -23.8256  -33.2099   17.1532 N   0  0  0  0  0  0  0  0  0  0  0  0
  -27.3778  -20.8577   19.5055 N   0  0  0  0  0  0  0  0  0  0  0  0
  -26.8297  -35.2119   17.3409 N   0  3  0  0  0  0  0  0  0  0  0  0
  -30.2103  -13.2345   22.2915 O   0  0  0  0  0  0  0  0  0  0  0  0
  -22.0800  -28.6901   19.5995 O   0  0  0  0  0  0  0  0  0  0  0  0
  -21.9007  -32.4233   19.1243 O   0  0  0  0  0  0  0  0  0  0  0  0
  -26.0244  -32.5748   16.7806 O   0  0  0  0  0  0  0  0  0  0  0  0
  -26.9819  -22.4641   21.0928 O   0  0  0  0  0  0  0  0  0  0  0  0
  -23.2487  -10.8480   19.7565 O   0  0  0  0  0  0  0  0  0  0  0  0
  -28.4850  -27.1601   20.1060 O   0  0  0  0  0  0  0  0  0  1  0  0
  -23.0194   -6.0628   22.4866 F   0  0  0  0  0  0  0  0  0  0  0  0
  -20.9082  -10.0196   20.9724 F   0  0  0  0  0  0  0  0  0  0  0  0
  1  2  1  0  0  0  0
  1  5  2  0  0  0  0
  2  6  2  0  0  0  0
  3  8  2  0  0  0  0
  3 15  1  0  0  0  0
  4  9  1  0  0  0  0
  4 15  2  0  0  0  0
  5 17  1  0  0  0  0
  6 19  1  0  0  0  0
  7 10  2  0  0  0  0
  7 18  1  0  0  0  0
  8 21  1  0  0  0  0
  9 21  2  0  0  0  0
 10 22  1  0  0  0  0
 11 12  2  0  0  0  0
 11 23  1  0  0  0  0
 12 24  1  0  0  0  0
 13 20  1  0  0  0  0
 13 22  2  0  0  0  0
 14 24  2  0  0  0  0
 14 25  1  0  0  0  0
 15 26  1  0  0  0  0
 16 26  1  0  0  0  0
 16 27  2  0  0  0  0
 16 28  1  0  0  0  0
 17 19  2  0  0  0  0
 17 33  1  0  0  0  0
 18 20  2  0  0  0  0
 18 34  1  0  0  0  0
 19 42  1  0  0  0  0
 20 35  1  0  0  0  0
 21 76  1  0  0  0  0
 22 77  1  0  0  0  0
 23 25  2  0  0  0  0
 23 76  1  0  0  0  0
 24 78  1  0  0  0  0
 25 79  1  0  0  0  0
 26 61  2  0  0  0  0
 27 62  1  0  0  0  0
 27 65  1  0  0  0  0
 28 66  1  0  0  0  0
 28 71  2  0  0  0  0
 29 43  1  0  0  0  0
 29 67  1  0  0  0  0
 29 72  2  0  0  0  0
 30 57  1  0  0  0  0
 30 63  1  0  0  0  0
 30 73  2  0  0  0  0
 31 58  1  0  0  0  0
 31 68  1  0  0  0  0
 31 74  2  0  0  0  0
 32 64  1  0  0  0  0
 32 69  1  0  0  0  0
 32 75  2  0  0  0  0
 33 36  1  0  0  0  0
 34 43  1  0  0  0  0
 35 63  1  0  0  0  0
 36 38  1  0  0  0  0
 37 39  1  0  0  0  0
 37 40  1  0  0  0  0
 38 42  1  0  0  0  0
 39 44  1  0  0  0  0
 40 64  1  0  0  0  0
 41 44  1  0  0  0  0
 41 64  1  0  0  0  0
 42 67  1  0  0  0  0
 43 63  1  0  0  0  0
 44 62  1  0  0  0  0
 45 58  1  0  0  0  0
 46 59  1  0  0  0  0
 47 59  1  0  0  0  0
 48 59  1  0  0  0  0
 49 60  1  0  0  0  0
 50 60  1  0  0  0  0
 51 70  1  0  0  0  0
 52 53  1  0  0  0  0
 52 56  1  0  0  0  0
 53 60  1  0  0  0  0
 54 55  1  0  0  0  0
 54 60  1  0  0  0  0
 55 69  1  0  0  0  0
 56 77  1  0  0  0  0
 57 59  1  0  0  0  0
 57 68  1  0  0  0  0
 58 70  1  0  0  0  0
 61 62  1  0  0  0  0
M  CHG  1  70   1
M  ISO  4  32 100  56 101  69 100  77 101
M  END
> <Batch ID>
0094

> <Smiles>
CNC(C)C(=O)NC(C(=O)N1Cc2cc([101O:1][101CH2:1]CCC(C)(C)CC[100NH:0][100C:0](=O)N3CCCC(n4nc(-c5ccc(Oc6ccc(F)cc6F)cc5)c(C(N)=O)c4N)C3)ccc2CC1C(=O)NC1CCCc2ccccc21)C(C)(C)C

> <Shape>
0.240

> <Color>
0.095

> <Negative vol penalty>
0.000

$$$$

  -OEChem-04052319193D

 85 93  0     1  0  0  0  0  0999 V2000
  -32.9081  -17.5760   21.9891 C   0  0  0  0  0  0  0  0  0  0  0  0
  -31.6293  -17.9461   22.3898 C   0  0  0  0  0  0  0  0  0  0  0  0
  -29.3312  -28.0419   20.0720 C   0  0  0  0  0  0  0  0  0  0  0  0
  -27.5160  -26.7682   19.1129 C   0  0  0  0  0  0  0  0  0  0  0  0
  -33.0751  -16.5330   21.0805 C   0  0  0  0  0  0  0  0  0  0  0  0
  -30.5178  -17.2657   21.8914 C   0  0  0  0  0  0  0  0  0  0  0  0
  -26.1453  -18.3962   23.8424 C   0  0  0  0  0  0  0  0  0  0  0  0
  -30.1495  -26.9135   20.0220 C   0  0  0  0  0  0  0  0  0  0  0  0
  -28.3343  -25.6397   19.0629 C   0  0  0  0  0  0  0  0  0  0  0  0
  -25.4954  -19.6030   23.5873 C   0  0  0  0  0  0  0  0  0  0  0  0
  -29.4543  -23.2775   21.2068 C   0  0  0  0  0  0  0  0  0  0  0  0
  -28.9149  -22.0662   21.6395 C   0  0  0  0  0  0  0  0  0  0  0  0
  -24.0012  -18.4705   22.0695 C   0  0  0  0  0  0  0  0  0  0  0  0
  -29.2937  -21.1157   19.4509 C   0  0  0  0  0  0  0  0  0  0  0  0
  -19.7384  -25.9063   22.0595 C   0  0  0  0  0  0  0  0  0  0  0  0
  -28.0144  -27.9693   19.6175 C   0  0  0  0  0  0  0  0  0  0  0  0
  -27.0083  -30.1140   18.6710 C   0  0  0  0  0  0  0  0  0  0  0  0
  -31.9639  -15.8482   20.5616 C   0  0  0  0  0  0  0  0  0  0  0  0
  -25.7342  -17.2175   23.2036 C   0  0  0  0  0  0  0  0  0  0  0  0
  -30.6669  -16.1947   20.9918 C   0  0  0  0  0  0  0  0  0  0  0  0
  -24.6458  -17.2496   22.3201 C   0  0  0  0  0  0  0  0  0  0  0  0
  -29.6511  -25.7124   19.5174 C   0  0  0  0  0  0  0  0  0  0  0  0
  -24.4250  -19.6408   22.6986 C   0  0  0  0  0  0  0  0  0  0  0  0
  -29.9133  -23.4080   19.8961 C   0  0  0  0  0  0  0  0  0  0  0  0
  -28.8346  -20.9852   20.7616 C   0  0  0  0  0  0  0  0  0  0  0  0
  -29.8331  -22.3271   19.0182 C   0  0  0  0  0  0  0  0  0  0  0  0
  -27.1684  -29.1345   19.6694 C   0  0  0  0  0  0  0  0  0  0  0  0
  -20.2815  -26.7976   22.9584 C   0  0  0  0  0  0  0  0  0  0  0  0
  -21.5706  -24.5575   22.2898 C   0  0  0  0  0  0  0  0  0  0  0  0
  -22.1142  -25.4491   23.1881 C   0  0  0  0  0  0  0  0  0  0  0  0
  -26.1042  -31.0011   19.2021 C   0  0  0  0  0  0  0  0  0  0  0  0
  -27.6220  -30.2131   17.3790 C   0  0  0  0  0  0  0  0  0  0  0  0
  -27.0965  -15.1594   21.2005 C   0  0  0  0  0  0  0  0  0  0  0  0
  -24.3516  -13.4935   21.6614 C   0  0  0  0  0  0  0  0  0  0  0  0
  -21.0512  -13.5303   22.5292 C   0  0  0  0  0  0  0  0  0  0  0  0
  -21.8237  -30.4654   23.3544 C   0  0  0  0  0  0  0  0  0  0  0  0
  -32.2026  -14.7220   19.5870 C   0  0  0  0  0  0  0  0  0  0  0  0
  -26.4286  -15.9189   23.5099 C   0  0  0  0  0  0  0  0  0  0  0  0
  -24.1527  -16.0084   21.6239 C   0  0  0  0  0  0  0  0  0  0  0  0
  -30.9593  -14.3594   18.7814 C   0  0  0  0  0  0  0  0  0  0  0  0
  -24.5722  -32.7284   23.3925 C   0  0  0  0  0  0  0  0  0  0  0  0
  -29.7705  -14.1786   19.7134 C   0  0  0  0  0  0  0  0  0  0  0  0
  -25.5348  -32.1524   22.3526 C   0  0  0  0  0  0  0  0  0  0  0  0
  -23.8547  -31.6265   24.1690 C   0  0  0  0  0  0  0  0  0  0  0  0
  -24.1252  -30.0528   22.2917 C   0  0  0  0  0  0  0  0  0  0  0  0
  -29.4415  -15.4891   20.4395 C   0  0  1  0  0  0  0  0  0  0  0  0
  -26.2541  -14.8744   22.4116 C   0  0  1  0  0  0  0  0  0  0  0  0
  -24.8308  -31.1258   21.4449 C   0  0  2  0  0  0  0  0  0  0  0  0
  -24.5864  -25.8221   23.0253 C   0  0  0  0  0  0  0  0  0  0  0  0
  -19.0622  -12.0202   22.7754 C   0  0  0  0  0  0  0  0  0  0  0  0
  -24.0317  -13.4240   18.6278 C   0  0  0  0  0  0  0  0  0  0  0  0
  -21.6366  -12.7774   18.9649 C   0  0  0  0  0  0  0  0  0  0  0  0
  -23.4576  -11.2835   19.7866 C   0  0  0  0  0  0  0  0  0  0  0  0
  -20.8025  -14.1366   25.4153 C   0  0  0  0  0  0  0  0  0  0  0  0
  -19.5511  -28.0424   23.3228 C   0  0  0  0  0  0  0  0  0  0  0  0
  -22.2915  -23.2899   21.9061 C   0  0  0  0  0  0  0  0  0  0  0  0
  -21.7249  -22.0336   22.5712 C   0  0  0  0  0  0  0  0  0  0  0  0
  -19.8802  -29.2380   22.4188 C   0  0  0  0  0  0  0  0  0  0  0  0
  -22.4041  -20.7487   22.1118 C   0  0  0  0  0  0  0  0  0  1  0  0
  -23.4402  -25.2022   23.8225 C   0  0  1  0  0  0  0  0  0  0  0  0
  -22.9982  -13.4571   20.9935 C   0  0  1  0  0  0  0  0  0  0  0  0
  -20.2496  -12.6587   23.4790 C   0  0  2  0  0  0  0  0  0  0  0  0
  -23.0413  -12.7594   19.6047 C   0  0  0  0  0  0  0  0  0  0  0  0
  -20.3731  -24.7701   21.7091 N   0  0  0  0  0  0  0  0  0  0  0  0
  -26.4256  -29.3764   20.7528 N   0  0  0  0  0  0  0  0  0  0  0  0
  -21.4792  -26.5850   23.5388 N   0  0  0  0  0  0  0  0  0  0  0  0
  -25.7901  -30.5180   20.4383 N   0  0  0  0  0  0  0  0  0  0  0  0
  -24.8683  -14.7642   21.9515 N   0  0  0  0  0  0  0  0  0  0  0  0
  -23.2068  -30.6874   23.2501 N   0  0  0  0  0  0  0  0  0  0  0  0
  -25.5551  -32.1394   18.7276 N   0  0  0  0  0  0  0  0  0  0  0  0
  -28.5275  -29.2161   16.9912 N   0  0  0  0  0  0  0  0  0  0  0  0
  -28.4519  -15.2271   21.4612 N   0  0  0  0  0  0  0  0  0  0  0  0
  -22.0887  -12.8324   21.9480 N   0  0  0  0  0  0  0  0  0  0  0  0
  -21.2884  -29.5654   22.4411 N   0  0  0  0  0  0  0  0  0  0  0  0
  -19.7392  -13.4697   24.6204 N   0  3  0  0  0  0  0  0  0  0  0  0
  -27.3872  -31.1665   16.5983 O   0  0  0  0  0  0  0  0  0  0  0  0
  -26.5570  -15.3055   20.1100 O   0  0  0  0  0  0  0  0  0  0  0  0
  -24.9257  -12.4335   21.9227 O   0  0  0  0  0  0  0  0  0  0  0  0
  -20.7815  -14.7111   22.3206 O   0  0  0  0  0  0  0  0  0  0  0  0
  -21.1173  -31.0317   24.1954 O   0  0  0  0  0  0  0  0  0  0  0  0
  -30.4493  -24.6111   19.4683 O   0  0  0  0  0  0  0  0  0  0  0  0
  -23.7894  -20.8175   22.4473 O   0  0  0  0  0  0  0  0  0  1  0  0
  -28.3180  -19.8216   21.1777 F   0  0  0  0  0  0  0  0  0  0  0  0
  -30.2736  -22.4461   17.7582 F   0  0  0  0  0  0  0  0  0  0  0  0
  -23.5305  -25.6987   25.0994 F   0  0  0  0  0  0  0  0  0  0  0  0
  1  2  1  0  0  0  0
  1  5  2  0  0  0  0
  2  6  2  0  0  0  0
  3  8  2  0  0  0  0
  3 16  1  0  0  0  0
  4  9  1  0  0  0  0
  4 16  2  0  0  0  0
  5 18  1  0  0  0  0
  6 20  1  0  0  0  0
  7 10  2  0  0  0  0
  7 19  1  0  0  0  0
  8 22  1  0  0  0  0
  9 22  2  0  0  0  0
 10 23  1  0  0  0  0
 11 12  2  0  0  0  0
 11 24  1  0  0  0  0
 12 25  1  0  0  0  0
 13 21  1  0  0  0  0
 13 23  2  0  0  0  0
 14 25  2  0  0  0  0
 14 26  1  0  0  0  0
 15 28  1  0  0  0  0
 15 64  2  0  0  0  0
 16 27  1  0  0  0  0
 17 27  1  0  0  0  0
 17 31  2  0  0  0  0
 17 32  1  0  0  0  0
 18 20  2  0  0  0  0
 18 37  1  0  0  0  0
 19 21  2  0  0  0  0
 19 38  1  0  0  0  0
 20 46  1  0  0  0  0
 21 39  1  0  0  0  0
 22 81  1  0  0  0  0
 23 82  1  0  0  0  0
 24 26  2  0  0  0  0
 24 81  1  0  0  0  0
 25 83  1  0  0  0  0
 26 84  1  0  0  0  0
 27 65  2  0  0  0  0
 28 55  1  0  0  0  0
 28 66  2  0  0  0  0
 29 30  2  0  0  0  0
 29 56  1  0  0  0  0
 29 64  1  0  0  0  0
 30 60  1  0  0  0  0
 30 66  1  0  0  0  0
 31 67  1  0  0  0  0
 31 70  1  0  0  0  0
 32 71  1  0  0  0  0
 32 76  2  0  0  0  0
 33 47  1  0  0  0  0
 33 72  1  0  0  0  0
 33 77  2  0  0  0  0
 34 61  1  0  0  0  0
 34 68  1  0  0  0  0
 34 78  2  0  0  0  0
 35 62  1  0  0  0  0
 35 73  1  0  0  0  0
 35 79  2  0  0  0  0
 36 69  1  0  0  0  0
 36 74  1  0  0  0  0
 36 80  2  0  0  0  0
 37 40  1  0  0  0  0
 38 47  1  0  0  0  0
 39 68  1  0  0  0  0
 40 42  1  0  0  0  0
 41 43  1  0  0  0  0
 41 44  1  0  0  0  0
 42 46  1  0  0  0  0
 43 48  1  0  0  0  0
 44 69  1  0  0  0  0
 45 48  1  0  0  0  0
 45 69  1  0  0  0  0
 46 72  1  0  0  0  0
 47 68  1  0  0  0  0
 48 67  1  0  0  0  0
 49 60  1  0  0  0  0
 50 62  1  0  0  0  0
 51 63  1  0  0  0  0
 52 63  1  0  0  0  0
 53 63  1  0  0  0  0
 54 75  1  0  0  0  0
 55 58  1  0  0  0  0
 56 57  1  0  0  0  0
 57 59  1  0  0  0  0
 58 74  1  0  0  0  0
 59 82  1  0  0  0  0
 60 85  1  0  0  0  0
 61 63  1  0  0  0  0
 61 73  1  0  0  0  0
 62 75  1  0  0  0  0
 65 67  1  0  0  0  0
M  CHG  1  75   1
M  ISO  4  36 100  59 101  74 100  82 101
M  END
> <Batch ID>
0094

> <Smiles>
CNC(C)C(=O)NC(C(=O)N1Cc2cc([101O:1][101CH2:1]CCc3ncc(CC[100NH:0][100C:0](=O)N4CCCC(n5nc(-c6ccc(Oc7ccc(F)cc7F)cc6)c(C(N)=O)c5N)C4)nc3C(C)F)ccc2CC1C(=O)NC1CCCc2ccccc21)C(C)(C)C

> <Shape>
0.255

> <Color>
0.053

> <Negative vol penalty>
0.000

$$$$

  -OEChem-04052319193D

 85 93  0     1  0  0  0  0  0999 V2000
  -36.1175  -27.8976   12.9895 C   0  0  0  0  0  0  0  0  0  0  0  0
  -35.5861  -26.6620   13.3450 C   0  0  0  0  0  0  0  0  0  0  0  0
  -23.2905   -9.7970   19.9136 C   0  0  0  0  0  0  0  0  0  0  0  0
  -23.7423   -9.9388   22.2828 C   0  0  0  0  0  0  0  0  0  0  0  0
  -36.6991  -28.7107   13.9613 C   0  0  0  0  0  0  0  0  0  0  0  0
  -35.6371  -26.2384   14.6726 C   0  0  0  0  0  0  0  0  0  0  0  0
  -31.4520  -22.8852   17.6301 C   0  0  0  0  0  0  0  0  0  0  0  0
  -22.5665   -8.6232   20.1219 C   0  0  0  0  0  0  0  0  0  0  0  0
  -23.0182   -8.7649   22.4911 C   0  0  0  0  0  0  0  0  0  0  0  0
  -31.3753  -21.5236   17.9201 C   0  0  0  0  0  0  0  0  0  0  0  0
  -19.7730   -7.8477   22.7103 C   0  0  0  0  0  0  0  0  0  0  0  0
  -18.8713   -7.8245   23.7742 C   0  0  0  0  0  0  0  0  0  0  0  0
  -28.3877  -16.0908   24.5908 C   0  0  0  0  0  0  0  0  0  0  0  0
  -28.5865  -15.4788   25.8530 C   0  0  0  0  0  0  0  0  0  0  0  0
  -32.3169  -21.9414   20.1014 C   0  0  0  0  0  0  0  0  0  0  0  0
  -20.0811   -5.9796   24.7592 C   0  0  0  0  0  0  0  0  0  0  0  0
  -23.8785  -10.4548   20.9940 C   0  0  0  0  0  0  0  0  0  0  0  0
  -24.1330  -12.9853   20.7950 C   0  0  0  0  0  0  0  0  0  0  0  0
  -36.7486  -28.3010   15.3031 C   0  0  0  0  0  0  0  0  0  0  0  0
  -31.9727  -23.7851   18.5710 C   0  0  0  0  0  0  0  0  0  0  0  0
  -36.2211  -27.0462   15.6630 C   0  0  0  0  0  0  0  0  0  0  0  0
  -32.3968  -23.3142   19.8218 C   0  0  0  0  0  0  0  0  0  0  0  0
  -22.4303   -8.1071   21.4106 C   0  0  0  0  0  0  0  0  0  0  0  0
  -31.8104  -21.0512   19.1548 C   0  0  0  0  0  0  0  0  0  0  0  0
  -20.8288   -6.9369   22.6708 C   0  0  0  0  0  0  0  0  0  0  0  0
  -19.0253   -6.8904   24.7986 C   0  0  0  0  0  0  0  0  0  0  0  0
  -20.9828   -6.0029   23.6952 C   0  0  0  0  0  0  0  0  0  0  0  0
  -24.6271  -11.6671   20.7795 C   0  0  0  0  0  0  0  0  0  0  0  0
  -29.5083  -15.8391   23.8305 C   0  0  0  0  0  0  0  0  0  0  0  0
  -29.8227  -14.8719   25.8256 C   0  0  0  0  0  0  0  0  0  0  0  0
  -25.2329  -13.7672   20.5394 C   0  0  0  0  0  0  0  0  0  0  0  0
  -22.7992  -13.4604   21.0205 C   0  0  0  0  0  0  0  0  0  0  0  0
  -34.4621  -25.7602   18.6471 C   0  0  0  0  0  0  0  0  0  0  0  0
  -33.1448  -26.6870   21.4628 C   0  0  0  0  0  0  0  0  0  0  0  0
  -31.1377  -25.9197   24.1142 C   0  0  0  0  0  0  0  0  0  0  0  0
  -31.1059  -12.9354   21.3558 C   0  0  0  0  0  0  0  0  0  0  0  0
  -37.4297  -29.1937   16.3100 C   0  0  0  0  0  0  0  0  0  0  0  0
  -32.0239  -25.2543   18.2528 C   0  0  0  0  0  0  0  0  0  0  0  0
  -32.9450  -24.2419   20.8741 C   0  0  0  0  0  0  0  0  0  0  0  0
  -37.1081  -28.8344   17.7584 C   0  0  0  0  0  0  0  0  0  0  0  0
  -29.4539  -13.6714   18.2889 C   0  0  0  0  0  0  0  0  0  0  0  0
  -37.2312  -27.3295   17.9750 C   0  0  0  0  0  0  0  0  0  0  0  0
  -27.9850  -13.3601   18.5809 C   0  0  0  0  0  0  0  0  0  0  0  0
  -30.3894  -12.6938   18.9969 C   0  0  0  0  0  0  0  0  0  0  0  0
  -28.7046  -12.2614   20.7428 C   0  0  0  0  0  0  0  0  0  0  0  0
  -36.2352  -26.5624   17.0969 C   0  0  1  0  0  0  0  0  0  0  0  0
  -33.0489  -26.0119   19.0912 C   0  0  1  0  0  0  0  0  0  0  0  0
  -27.7244  -13.2547   20.0955 C   0  0  2  0  0  0  0  0  0  0  0  0
  -29.7625  -12.8126   27.2781 C   0  0  0  0  0  0  0  0  0  0  0  0
  -30.8224  -14.9318   28.1389 C   0  0  0  0  0  0  0  0  0  0  0  0
  -30.2843  -26.8638   26.2769 C   0  0  0  0  0  0  0  0  0  0  0  0
  -35.8531  -26.1519   22.7624 C   0  0  0  0  0  0  0  0  0  0  0  0
  -34.7120  -26.1840   24.9907 C   0  0  0  0  0  0  0  0  0  0  0  0
  -34.7057  -28.2265   23.5585 C   0  0  0  0  0  0  0  0  0  0  0  0
  -28.3255  -25.7690   23.2043 C   0  0  0  0  0  0  0  0  0  0  0  0
  -29.8293  -16.2524   22.4163 C   0  0  0  0  0  0  0  0  0  0  0  0
  -30.5504  -17.6010   22.3139 C   0  0  0  0  0  0  0  0  0  0  0  0
  -30.7984  -18.0391   20.8698 C   0  0  0  0  0  0  0  0  0  0  0  0
  -31.6720  -14.6250   24.1579 C   0  0  0  0  0  0  0  0  0  0  0  0
  -31.6687  -13.1504   23.7634 C   0  0  0  0  0  0  0  0  0  0  0  0
  -31.5506  -19.3615   20.8082 C   0  0  0  0  0  0  0  0  0  1  0  0
  -30.5203  -14.0976   26.8729 C   0  0  0  0  0  0  0  0  0  0  0  0
  -33.2767  -26.2472   22.9009 C   0  0  1  0  0  0  0  0  0  0  0  0
  -30.0201  -26.6943   24.7889 C   0  0  2  0  0  0  0  0  0  0  0  0
  -34.6284  -26.6844   23.5328 C   0  0  0  0  0  0  0  0  0  0  0  0
  -25.9386  -11.6109   20.5332 N   0  0  0  0  0  0  0  0  0  0  0  0
  -30.3741  -15.0976   24.5914 N   0  0  0  0  0  0  0  0  0  0  0  0
  -26.2781  -12.9035   20.3916 N   0  0  0  0  0  0  0  0  0  0  0  0
  -32.9807  -25.6687   20.5131 N   0  0  0  0  0  0  0  0  0  0  0  0
  -30.0910  -12.6420   20.4301 N   0  0  0  0  0  0  0  0  0  0  0  0
  -25.3982  -15.1024   20.4287 N   0  0  0  0  0  0  0  0  0  0  0  0
  -21.7885  -12.5216   21.2687 N   0  0  0  0  0  0  0  0  0  0  0  0
  -34.9061  -26.6261   17.6660 N   0  0  0  0  0  0  0  0  0  0  0  0
  -32.0997  -26.7596   23.5941 N   0  0  0  0  0  0  0  0  0  0  0  0
  -30.7371  -12.8693   22.6939 N   0  0  0  0  0  0  0  0  0  0  0  0
  -28.7215  -25.9829   24.6201 N   0  3  0  0  0  0  0  0  0  0  0  0
  -22.5090  -14.6803   20.9863 O   0  0  0  0  0  0  0  0  0  0  0  0
  -35.1027  -24.8490   19.1579 O   0  0  0  0  0  0  0  0  0  0  0  0
  -33.1788  -27.8902   21.1929 O   0  0  0  0  0  0  0  0  0  0  0  0
  -31.1575  -24.6921   24.0576 O   0  0  0  0  0  0  0  0  0  0  0  0
  -32.2541  -13.2393   21.0150 O   0  0  0  0  0  0  0  0  0  0  0  0
  -21.7237   -6.9618   21.6142 O   0  0  0  0  0  0  0  0  0  0  0  0
  -31.7373  -19.7226   19.4403 O   0  0  0  0  0  0  0  0  0  1  0  0
  -18.1602   -6.8692   25.8210 F   0  0  0  0  0  0  0  0  0  0  0  0
  -21.9958   -5.1261   23.6633 F   0  0  0  0  0  0  0  0  0  0  0  0
  1  2  1  0  0  0  0
  1  5  2  0  0  0  0
  2  6  2  0  0  0  0
  3  8  2  0  0  0  0
  3 17  1  0  0  0  0
  4  9  1  0  0  0  0
  4 17  2  0  0  0  0
  5 19  1  0  0  0  0
  6 21  1  0  0  0  0
  7 10  2  0  0  0  0
  7 20  1  0  0  0  0
  8 23  1  0  0  0  0
  9 23  2  0  0  0  0
 10 24  1  0  0  0  0
 11 12  2  0  0  0  0
 11 25  1  0  0  0  0
 12 26  1  0  0  0  0
 13 14  1  0  0  0  0
 13 29  2  0  0  0  0
 14 30  2  0  0  0  0
 15 22  1  0  0  0  0
 15 24  2  0  0  0  0
 16 26  2  0  0  0  0
 16 27  1  0  0  0  0
 17 28  1  0  0  0  0
 18 28  1  0  0  0  0
 18 31  2  0  0  0  0
 18 32  1  0  0  0  0
 19 21  2  0  0  0  0
 19 37  1  0  0  0  0
 20 22  2  0  0  0  0
 20 38  1  0  0  0  0
 21 46  1  0  0  0  0
 22 39  1  0  0  0  0
 23 82  1  0  0  0  0
 24 83  1  0  0  0  0
 25 27  2  0  0  0  0
 25 82  1  0  0  0  0
 26 84  1  0  0  0  0
 27 85  1  0  0  0  0
 28 66  2  0  0  0  0
 29 56  1  0  0  0  0
 29 67  1  0  0  0  0
 30 62  1  0  0  0  0
 30 67  1  0  0  0  0
 31 68  1  0  0  0  0
 31 71  1  0  0  0  0
 32 72  1  0  0  0  0
 32 77  2  0  0  0  0
 33 47  1  0  0  0  0
 33 73  1  0  0  0  0
 33 78  2  0  0  0  0
 34 63  1  0  0  0  0
 34 69  1  0  0  0  0
 34 79  2  0  0  0  0
 35 64  1  0  0  0  0
 35 74  1  0  0  0  0
 35 80  2  0  0  0  0
 36 70  1  0  0  0  0
 36 75  1  0  0  0  0
 36 81  2  0  0  0  0
 37 40  1  0  0  0  0
 38 47  1  0  0  0  0
 39 69  1  0  0  0  0
 40 42  1  0  0  0  0
 41 43  1  0  0  0  0
 41 44  1  0  0  0  0
 42 46  1  0  0  0  0
 43 48  1  0  0  0  0
 44 70  1  0  0  0  0
 45 48  1  0  0  0  0
 45 70  1  0  0  0  0
 46 73  1  0  0  0  0
 47 69  1  0  0  0  0
 48 68  1  0  0  0  0
 49 62  1  0  0  0  0
 50 62  1  0  0  0  0
 51 64  1  0  0  0  0
 52 65  1  0  0  0  0
 53 65  1  0  0  0  0
 54 65  1  0  0  0  0
 55 76  1  0  0  0  0
 56 57  1  0  0  0  0
 57 58  1  0  0  0  0
 58 61  1  0  0  0  0
 59 60  1  0  0  0  0
 59 67  1  0  0  0  0
 60 75  1  0  0  0  0
 61 83  1  0  0  0  0
 63 65  1  0  0  0  0
 63 74  1  0  0  0  0
 64 76  1  0  0  0  0
 66 68  1  0  0  0  0
M  CHG  1  76   1
M  ISO  4  36 100  61 101  75 100  83 101
M  END
> <Batch ID>
0094

> <Smiles>
CNC(C)C(=O)NC(C(=O)N1Cc2cc([101O:1][101CH2:1]CCCc3ccc(C(C)C)n3CC[100NH:0][100C:0](=O)N3CCCC(n4nc(-c5ccc(Oc6ccc(F)cc6F)cc5)c(C(N)=O)c4N)C3)ccc2CC1C(=O)NC1CCCc2ccccc21)C(C)(C)C

> <Shape>
0.170

> <Color>
0.178

> <Negative vol penalty>
0.000

$$$$

  -OEChem-04052319193D

 85 93  0     1  0  0  0  0  0999 V2000
  -17.7381  -25.7546   24.2005 C   0  0  0  0  0  0  0  0  0  0  0  0
  -18.9696  -25.3108   23.7296 C   0  0  0  0  0  0  0  0  0  0  0  0
  -24.8120  -14.9257   22.3950 C   0  0  0  0  0  0  0  0  0  0  0  0
  -25.6034  -15.6108   20.2176 C   0  0  0  0  0  0  0  0  0  0  0  0
  -17.3221  -27.0593   23.9390 C   0  0  0  0  0  0  0  0  0  0  0  0
  -19.7855  -26.1714   22.9959 C   0  0  0  0  0  0  0  0  0  0  0  0
  -25.9058  -26.3813   23.0509 C   0  0  0  0  0  0  0  0  0  0  0  0
  -25.0420  -13.5917   22.0589 C   0  0  0  0  0  0  0  0  0  0  0  0
  -25.8335  -14.2768   19.8814 C   0  0  0  0  0  0  0  0  0  0  0  0
  -26.8703  -25.8507   22.1953 C   0  0  0  0  0  0  0  0  0  0  0  0
  -25.0836   -9.9794   21.6422 C   0  0  0  0  0  0  0  0  0  0  0  0
  -24.0936   -9.0493   21.9588 C   0  0  0  0  0  0  0  0  0  0  0  0
  -26.9896  -27.9603   21.0314 C   0  0  0  0  0  0  0  0  0  0  0  0
  -25.6415  -25.3963   18.1562 C   0  0  0  0  0  0  0  0  0  0  0  0
  -22.5233  -10.2468   20.5669 C   0  0  0  0  0  0  0  0  0  0  0  0
  -26.3003  -23.7263   16.5962 C   0  0  0  0  0  0  0  0  0  0  0  0
  -25.0926  -15.9353   21.4743 C   0  0  0  0  0  0  0  0  0  0  0  0
  -25.7580  -18.2053   22.4294 C   0  0  0  0  0  0  0  0  0  0  0  0
  -18.1374  -27.9393   23.2101 C   0  0  0  0  0  0  0  0  0  0  0  0
  -25.4674  -27.7043   22.8960 C   0  0  0  0  0  0  0  0  0  0  0  0
  -19.3794  -27.4888   22.7233 C   0  0  0  0  0  0  0  0  0  0  0  0
  -26.0214  -28.5061   21.8879 C   0  0  0  0  0  0  0  0  0  0  0  0
  -26.6540  -24.7647   17.4426 C   0  0  0  0  0  0  0  0  0  0  0  0
  -24.3249  -24.9762   18.0037 C   0  0  0  0  0  0  0  0  0  0  0  0
  -25.5528  -13.2672   20.8022 C   0  0  0  0  0  0  0  0  0  0  0  0
  -27.4102  -26.6393   21.1835 C   0  0  0  0  0  0  0  0  0  0  0  0
  -24.7935  -11.0433   20.7879 C   0  0  0  0  0  0  0  0  0  0  0  0
  -22.8135   -9.1829   21.4211 C   0  0  0  0  0  0  0  0  0  0  0  0
  -23.5134  -11.1770   20.2503 C   0  0  0  0  0  0  0  0  0  0  0  0
  -24.8546  -17.3135   21.8207 C   0  0  0  0  0  0  0  0  0  0  0  0
  -24.0754  -23.9285   17.1320 C   0  0  0  0  0  0  0  0  0  0  0  0
  -25.0563  -19.3805   22.5432 C   0  0  0  0  0  0  0  0  0  0  0  0
  -27.1105  -17.9905   22.8539 C   0  0  0  0  0  0  0  0  0  0  0  0
  -22.6785  -29.0807   22.2392 C   0  0  0  0  0  0  0  0  0  0  0  0
  -24.3333  -31.8110   22.8135 C   0  0  0  0  0  0  0  0  0  0  0  0
  -27.3518  -33.3988   22.9315 C   0  0  0  0  0  0  0  0  0  0  0  0
  -21.6375  -23.2347   20.3979 C   0  0  0  0  0  0  0  0  0  0  0  0
  -17.6243  -29.3259   22.9120 C   0  0  0  0  0  0  0  0  0  0  0  0
  -24.4457  -28.2700   23.8440 C   0  0  0  0  0  0  0  0  0  0  0  0
  -25.5994  -29.9386   21.6924 C   0  0  0  0  0  0  0  0  0  0  0  0
  -18.7120  -30.2912   22.4479 C   0  0  0  0  0  0  0  0  0  0  0  0
  -20.1396  -20.3580   21.8669 C   0  0  0  0  0  0  0  0  0  0  0  0
  -19.5891  -29.6363   21.3855 C   0  0  0  0  0  0  0  0  0  0  0  0
  -21.3057  -19.3815   22.0301 C   0  0  0  0  0  0  0  0  0  0  0  0
  -20.2668  -21.1799   20.5861 C   0  0  0  0  0  0  0  0  0  0  0  0
  -22.7167  -20.9123   20.5933 C   0  0  0  0  0  0  0  0  0  0  0  0
  -20.3034  -28.4002   21.9450 C   0  0  1  0  0  0  0  0  0  0  0  0
  -23.6990  -29.4705   23.2709 C   0  0  1  0  0  0  0  0  0  0  0  0
  -22.6618  -20.1005   21.8987 C   0  0  2  0  0  0  0  0  0  0  0  0
  -21.2287  -21.5721   16.0144 C   0  0  0  0  0  0  0  0  0  0  0  0
  -28.3823  -35.6393   23.3963 C   0  0  0  0  0  0  0  0  0  0  0  0
  -23.3929  -32.8064   20.0869 C   0  0  0  0  0  0  0  0  0  0  0  0
  -25.1710  -34.5658   20.1936 C   0  0  0  0  0  0  0  0  0  0  0  0
  -23.3502  -34.5302   21.8983 C   0  0  0  0  0  0  0  0  0  0  0  0
  -28.9340  -32.3314   25.1934 C   0  0  0  0  0  0  0  0  0  0  0  0
  -28.0917  -25.1966   17.5846 C   0  0  0  0  0  0  0  0  0  0  0  0
  -23.2355  -25.6475   18.7665 C   0  0  0  0  0  0  0  0  0  0  0  0
  -22.6801  -23.4355   16.9277 C   0  0  0  0  0  0  0  0  0  0  0  0
  -22.6478  -22.0885   16.1917 C   0  0  0  0  0  0  0  0  0  0  0  0
  -28.8496  -24.4601   18.6912 C   0  0  0  0  0  0  0  0  0  0  0  0
  -23.1434  -25.2003   20.2311 C   0  0  0  0  0  0  0  0  0  0  0  0
  -28.2895  -24.7224   20.0843 C   0  0  0  0  0  0  0  0  0  1  0  0
  -25.1540  -32.7603   21.9743 C   0  0  1  0  0  0  0  0  0  0  0  0
  -27.9774  -34.2963   23.9839 C   0  0  2  0  0  0  0  0  0  0  0  0
  -24.2738  -33.6381   21.0405 C   0  0  0  0  0  0  0  0  0  0  0  0
  -25.0326  -23.2903   16.4219 N   0  0  0  0  0  0  0  0  0  0  0  0
  -23.6694  -17.8742   21.5658 N   0  0  0  0  0  0  0  0  0  0  0  0
  -23.8232  -19.1309   22.0166 N   0  0  0  0  0  0  0  0  0  0  0  0
  -24.5930  -30.4440   22.6407 N   0  0  0  0  0  0  0  0  0  0  0  0
  -21.5745  -21.8372   20.5239 N   0  0  0  0  0  0  0  0  0  0  0  0
  -25.3799  -20.5927   23.0414 N   0  0  0  0  0  0  0  0  0  0  0  0
  -27.6778  -16.7233   22.6622 N   0  0  0  0  0  0  0  0  0  0  0  0
  -21.4315  -28.7946   22.7613 N   0  0  0  0  0  0  0  0  0  0  0  0
  -25.9786  -33.5209   22.9069 N   0  0  0  0  0  0  0  0  0  0  0  0
  -22.9158  -23.7776   20.3526 N   0  0  0  0  0  0  0  0  0  0  0  0
  -29.1906  -33.6507   24.5605 N   0  3  0  0  0  0  0  0  0  0  0  0
  -27.7903  -18.8908   23.4024 O   0  0  0  0  0  0  0  0  0  0  0  0
  -22.9984  -29.0439   21.0568 O   0  0  0  0  0  0  0  0  0  0  0  0
  -23.4978  -32.2658   23.5988 O   0  0  0  0  0  0  0  0  0  0  0  0
  -28.0153  -32.6658   22.2014 O   0  0  0  0  0  0  0  0  0  0  0  0
  -20.6293  -23.9465   20.3362 O   0  0  0  0  0  0  0  0  0  0  0  0
  -25.7776  -11.9655   20.4739 O   0  0  0  0  0  0  0  0  0  0  0  0
  -28.3513  -26.1237   20.3466 O   0  0  0  0  0  0  0  0  0  1  0  0
  -21.8633   -8.2887   21.7241 F   0  0  0  0  0  0  0  0  0  0  0  0
  -23.2290  -12.1963   19.4281 F   0  0  0  0  0  0  0  0  0  0  0  0
  1  2  1  0  0  0  0
  1  5  2  0  0  0  0
  2  6  2  0  0  0  0
  3  8  2  0  0  0  0
  3 17  1  0  0  0  0
  4  9  1  0  0  0  0
  4 17  2  0  0  0  0
  5 19  1  0  0  0  0
  6 21  1  0  0  0  0
  7 10  2  0  0  0  0
  7 20  1  0  0  0  0
  8 25  1  0  0  0  0
  9 25  2  0  0  0  0
 10 26  1  0  0  0  0
 11 12  2  0  0  0  0
 11 27  1  0  0  0  0
 12 28  1  0  0  0  0
 13 22  1  0  0  0  0
 13 26  2  0  0  0  0
 14 23  2  0  0  0  0
 14 24  1  0  0  0  0
 15 28  2  0  0  0  0
 15 29  1  0  0  0  0
 16 23  1  0  0  0  0
 16 66  2  0  0  0  0
 17 30  1  0  0  0  0
 18 30  1  0  0  0  0
 18 32  2  0  0  0  0
 18 33  1  0  0  0  0
 19 21  2  0  0  0  0
 19 38  1  0  0  0  0
 20 22  2  0  0  0  0
 20 39  1  0  0  0  0
 21 47  1  0  0  0  0
 22 40  1  0  0  0  0
 23 56  1  0  0  0  0
 24 31  2  0  0  0  0
 24 57  1  0  0  0  0
 25 82  1  0  0  0  0
 26 83  1  0  0  0  0
 27 29  2  0  0  0  0
 27 82  1  0  0  0  0
 28 84  1  0  0  0  0
 29 85  1  0  0  0  0
 30 67  2  0  0  0  0
 31 58  1  0  0  0  0
 31 66  1  0  0  0  0
 32 68  1  0  0  0  0
 32 71  1  0  0  0  0
 33 72  1  0  0  0  0
 33 77  2  0  0  0  0
 34 48  1  0  0  0  0
 34 73  1  0  0  0  0
 34 78  2  0  0  0  0
 35 63  1  0  0  0  0
 35 69  1  0  0  0  0
 35 79  2  0  0  0  0
 36 64  1  0  0  0  0
 36 74  1  0  0  0  0
 36 80  2  0  0  0  0
 37 70  1  0  0  0  0
 37 75  1  0  0  0  0
 37 81  2  0  0  0  0
 38 41  1  0  0  0  0
 39 48  1  0  0  0  0
 40 69  1  0  0  0  0
 41 43  1  0  0  0  0
 42 44  1  0  0  0  0
 42 45  1  0  0  0  0
 43 47  1  0  0  0  0
 44 49  1  0  0  0  0
 45 70  1  0  0  0  0
 46 49  1  0  0  0  0
 46 70  1  0  0  0  0
 47 73  1  0  0  0  0
 48 69  1  0  0  0  0
 49 68  1  0  0  0  0
 50 59  1  0  0  0  0
 51 64  1  0  0  0  0
 52 65  1  0  0  0  0
 53 65  1  0  0  0  0
 54 65  1  0  0  0  0
 55 76  1  0  0  0  0
 56 60  1  0  0  0  0
 57 61  1  0  0  0  0
 58 59  1  0  0  0  0
 60 62  1  0  0  0  0
 61 75  1  0  0  0  0
 62 83  1  0  0  0  0
 63 65  1  0  0  0  0
 63 74  1  0  0  0  0
 64 76  1  0  0  0  0
 67 68  1  0  0  0  0
M  CHG  1  76   1
M  ISO  4  37 100  62 101  75 100  83 101
M  END
> <Batch ID>
0094

> <Smiles>
CCCc1ncc(CC[101CH2:1][101O:1]c2ccc3c(c2)CN(C(=O)C(NC(=O)C(C)NC)C(C)(C)C)C(C(=O)NC2CCCc4ccccc42)C3)cc1CC[100NH:0][100C:0](=O)N1CCCC(n2nc(-c3ccc(Oc4ccc(F)cc4F)cc3)c(C(N)=O)c2N)C1

> <Shape>
0.201

> <Color>
0.075

> <Negative vol penalty>
0.000

$$$$

  -OEChem-04052319193D

 90 98  0     1  0  0  0  0  0999 V2000
  -29.2222  -23.8271   18.1776 C   0  0  0  0  0  0  0  0  0  0  0  0
  -28.0698  -23.9293   18.9502 C   0  0  0  0  0  0  0  0  0  0  0  0
  -24.2126  -12.3106   19.9138 C   0  0  0  0  0  0  0  0  0  0  0  0
  -25.3268  -12.7477   22.0125 C   0  0  0  0  0  0  0  0  0  0  0  0
  -30.3097  -24.6603   18.4364 C   0  0  0  0  0  0  0  0  0  0  0  0
  -28.0047  -24.8641   19.9829 C   0  0  0  0  0  0  0  0  0  0  0  0
  -23.6189  -27.3953   20.0382 C   0  0  0  0  0  0  0  0  0  0  0  0
  -24.3704  -10.9395   20.1154 C   0  0  0  0  0  0  0  0  0  0  0  0
  -25.4846  -11.3765   22.2142 C   0  0  0  0  0  0  0  0  0  0  0  0
  -22.5114  -26.7384   20.5726 C   0  0  0  0  0  0  0  0  0  0  0  0
  -24.1592   -7.3129   20.2503 C   0  0  0  0  0  0  0  0  0  0  0  0
  -23.0618   -6.4897   19.9978 C   0  0  0  0  0  0  0  0  0  0  0  0
  -22.8056  -27.9401   22.6435 C   0  0  0  0  0  0  0  0  0  0  0  0
  -21.7867   -7.6760   21.6723 C   0  0  0  0  0  0  0  0  0  0  0  0
  -24.2567  -18.9612   23.4881 C   0  0  0  0  0  0  0  0  0  0  0  0
  -24.3265  -21.1843   23.2279 C   0  0  0  0  0  0  0  0  0  0  0  0
  -24.6908  -13.2147   20.8623 C   0  0  0  0  0  0  0  0  0  0  0  0
  -23.4452  -15.4319   21.0629 C   0  0  0  0  0  0  0  0  0  0  0  0
  -30.2543  -25.6124   19.4665 C   0  0  0  0  0  0  0  0  0  0  0  0
  -24.3359  -28.3230   20.8074 C   0  0  0  0  0  0  0  0  0  0  0  0
  -29.0930  -25.7099   20.2565 C   0  0  0  0  0  0  0  0  0  0  0  0
  -23.9203  -28.6093   22.1156 C   0  0  0  0  0  0  0  0  0  0  0  0
  -22.9901  -19.4439   23.7327 C   0  0  0  0  0  0  0  0  0  0  0  0
  -23.0342  -20.8503   23.5683 C   0  0  0  0  0  0  0  0  0  0  0  0
  -25.0064  -10.4724   21.2656 C   0  0  0  0  0  0  0  0  0  0  0  0
  -22.1063  -27.0087   21.8765 C   0  0  0  0  0  0  0  0  0  0  0  0
  -24.0703   -8.3176   21.2139 C   0  0  0  0  0  0  0  0  0  0  0  0
  -21.8756   -6.6713   20.7088 C   0  0  0  0  0  0  0  0  0  0  0  0
  -22.8841   -8.4991   21.9249 C   0  0  0  0  0  0  0  0  0  0  0  0
  -24.5286  -14.6313   20.6542 C   0  0  0  0  0  0  0  0  0  0  0  0
  -23.7685  -16.6944   20.6294 C   0  0  0  0  0  0  0  0  0  0  0  0
  -22.2532  -15.0670   21.7712 C   0  0  0  0  0  0  0  0  0  0  0  0
  -27.3211  -28.5153   21.8822 C   0  0  0  0  0  0  0  0  0  0  0  0
  -26.3639  -31.4542   22.8667 C   0  0  0  0  0  0  0  0  0  0  0  0
  -23.7955  -33.5162   23.7603 C   0  0  0  0  0  0  0  0  0  0  0  0
  -28.7720  -19.8185   20.0918 C   0  0  0  0  0  0  0  0  0  0  0  0
  -31.4726  -26.4587   19.7391 C   0  0  0  0  0  0  0  0  0  0  0  0
  -25.5123  -29.0428   20.2071 C   0  0  0  0  0  0  0  0  0  0  0  0
  -24.6438  -29.6117   22.9760 C   0  0  0  0  0  0  0  0  0  0  0  0
  -31.1841  -27.6789   20.6098 C   0  0  0  0  0  0  0  0  0  0  0  0
  -26.8139  -18.5510   17.2177 C   0  0  0  0  0  0  0  0  0  0  0  0
  -30.3324  -27.2869   21.8130 C   0  0  0  0  0  0  0  0  0  0  0  0
  -25.9802  -17.4366   17.8481 C   0  0  0  0  0  0  0  0  0  0  0  0
  -28.1326  -18.7597   17.9560 C   0  0  0  0  0  0  0  0  0  0  0  0
  -27.1402  -17.8876   20.0462 C   0  0  0  0  0  0  0  0  0  0  0  0
  -28.9749  -26.7284   21.3695 C   0  0  1  0  0  0  0  0  0  0  0  0
  -26.4771  -29.5887   21.2552 C   0  0  1  0  0  0  0  0  0  0  0  0
  -25.7842  -17.6831   19.3541 C   0  0  2  0  0  0  0  0  0  0  0  0
  -18.8358  -16.8761   27.8237 C   0  0  0  0  0  0  0  0  0  0  0  0
  -23.3281  -35.8510   24.5523 C   0  0  0  0  0  0  0  0  0  0  0  0
  -18.8468  -22.7221   21.4259 C   0  0  0  0  0  0  0  0  0  0  0  0
  -27.3455  -30.7020   25.6561 C   0  0  0  0  0  0  0  0  0  0  0  0
  -26.0213  -32.6230   26.5641 C   0  0  0  0  0  0  0  0  0  0  0  0
  -27.8825  -33.0423   24.9571 C   0  0  0  0  0  0  0  0  0  0  0  0
  -29.0712  -21.4114   21.9499 C   0  0  0  0  0  0  0  0  0  0  0  0
  -22.1466  -34.1185   21.3776 C   0  0  0  0  0  0  0  0  0  0  0  0
  -21.8104  -18.6342   24.0970 C   0  0  0  0  0  0  0  0  0  0  0  0
  -21.8859  -21.8146   23.7328 C   0  0  0  0  0  0  0  0  0  0  0  0
  -19.9879  -17.7978   27.4565 C   0  0  0  0  0  0  0  0  0  0  0  0
  -21.4656  -18.6607   25.5983 C   0  0  0  0  0  0  0  0  0  0  0  0
  -20.9461  -21.8802   22.5209 C   0  0  0  0  0  0  0  0  0  0  0  0
  -20.2790  -17.7599   25.9557 C   0  0  0  0  0  0  0  0  0  0  0  0
  -20.0625  -24.2651   23.0261 C   0  0  0  0  0  0  0  0  0  0  0  0
  -26.4666  -19.9460   22.8581 C   0  0  0  0  0  0  0  0  0  0  0  0
  -26.8022  -20.5547   21.4991 C   0  0  0  0  0  0  0  0  0  0  0  0
  -20.7535  -25.0532   21.9191 C   0  0  0  0  0  0  0  0  0  1  0  0
  -25.7323  -32.0084   24.1208 C   0  0  1  0  0  0  0  0  0  0  0  0
  -23.4516  -34.9351   23.3446 C   0  0  2  0  0  0  0  0  0  0  0  0
  -19.7194  -22.8029   22.6841 C   0  0  1  0  0  0  0  0  0  0  0  0
  -26.7327  -32.0735   25.3092 C   0  0  0  0  0  0  0  0  0  0  0  0
  -25.4697  -15.3268   20.0103 N   0  0  0  0  0  0  0  0  0  0  0  0
  -25.0607  -20.0280   23.1819 N   0  0  0  0  0  0  0  0  0  0  0  0
  -24.9786  -16.5777   20.0111 N   0  0  0  0  0  0  0  0  0  0  0  0
  -25.7918  -30.2848   22.3462 N   0  0  0  0  0  0  0  0  0  0  0  0
  -27.9203  -18.9485   19.3914 N   0  0  0  0  0  0  0  0  0  0  0  0
  -23.1329  -17.8819   20.7204 N   0  0  0  0  0  0  0  0  0  0  0  0
  -22.0799  -13.7264   22.1415 N   0  0  0  0  0  0  0  0  0  0  0  0
  -28.0888  -27.8042   20.9797 N   0  0  0  0  0  0  0  0  0  0  0  0
  -25.1569  -33.2975   23.7528 N   0  0  0  0  0  0  0  0  0  0  0  0
  -28.2308  -20.4900   21.1985 N   0  0  0  0  0  0  0  0  0  0  0  0
  -22.1593  -34.9587   22.6027 N   0  3  0  0  0  0  0  0  0  0  0  0
  -21.3603  -15.9020   22.0526 O   0  0  0  0  0  0  0  0  0  0  0  0
  -27.2800  -28.3458   23.0952 O   0  0  0  0  0  0  0  0  0  0  0  0
  -27.3248  -32.0414   22.3632 O   0  0  0  0  0  0  0  0  0  0  0  0
  -22.9420  -32.6859   24.0651 O   0  0  0  0  0  0  0  0  0  0  0  0
  -29.9464  -19.9927   19.7418 O   0  0  0  0  0  0  0  0  0  0  0  0
  -25.1604   -9.1345   21.4629 O   0  0  0  0  0  0  0  0  0  0  0  0
  -21.0260  -26.3685   22.4008 O   0  0  0  0  0  0  0  0  0  1  0  0
  -20.8214   -5.8817   20.4651 F   0  0  0  0  0  0  0  0  0  0  0  0
  -22.7923   -9.4634   22.8509 F   0  0  0  0  0  0  0  0  0  0  0  0
  1  2  1  0  0  0  0
  1  5  2  0  0  0  0
  2  6  2  0  0  0  0
  3  8  2  0  0  0  0
  3 17  1  0  0  0  0
  4  9  1  0  0  0  0
  4 17  2  0  0  0  0
  5 19  1  0  0  0  0
  6 21  1  0  0  0  0
  7 10  2  0  0  0  0
  7 20  1  0  0  0  0
  8 25  1  0  0  0  0
  9 25  2  0  0  0  0
 10 26  1  0  0  0  0
 11 12  2  0  0  0  0
 11 27  1  0  0  0  0
 12 28  1  0  0  0  0
 13 22  1  0  0  0  0
 13 26  2  0  0  0  0
 14 28  2  0  0  0  0
 14 29  1  0  0  0  0
 15 23  2  0  0  0  0
 15 72  1  0  0  0  0
 16 24  2  0  0  0  0
 16 72  1  0  0  0  0
 17 30  1  0  0  0  0
 18 30  1  0  0  0  0
 18 31  2  0  0  0  0
 18 32  1  0  0  0  0
 19 21  2  0  0  0  0
 19 37  1  0  0  0  0
 20 22  2  0  0  0  0
 20 38  1  0  0  0  0
 21 46  1  0  0  0  0
 22 39  1  0  0  0  0
 23 24  1  0  0  0  0
 23 57  1  0  0  0  0
 24 58  1  0  0  0  0
 25 87  1  0  0  0  0
 26 88  1  0  0  0  0
 27 29  2  0  0  0  0
 27 87  1  0  0  0  0
 28 89  1  0  0  0  0
 29 90  1  0  0  0  0
 30 71  2  0  0  0  0
 31 73  1  0  0  0  0
 31 76  1  0  0  0  0
 32 77  1  0  0  0  0
 32 82  2  0  0  0  0
 33 47  1  0  0  0  0
 33 78  1  0  0  0  0
 33 83  2  0  0  0  0
 34 67  1  0  0  0  0
 34 74  1  0  0  0  0
 34 84  2  0  0  0  0
 35 68  1  0  0  0  0
 35 79  1  0  0  0  0
 35 85  2  0  0  0  0
 36 75  1  0  0  0  0
 36 80  1  0  0  0  0
 36 86  2  0  0  0  0
 37 40  1  0  0  0  0
 38 47  1  0  0  0  0
 39 74  1  0  0  0  0
 40 42  1  0  0  0  0
 41 43  1  0  0  0  0
 41 44  1  0  0  0  0
 42 46  1  0  0  0  0
 43 48  1  0  0  0  0
 44 75  1  0  0  0  0
 45 48  1  0  0  0  0
 45 75  1  0  0  0  0
 46 78  1  0  0  0  0
 47 74  1  0  0  0  0
 48 73  1  0  0  0  0
 49 59  1  0  0  0  0
 50 68  1  0  0  0  0
 51 69  1  0  0  0  0
 52 70  1  0  0  0  0
 53 70  1  0  0  0  0
 54 70  1  0  0  0  0
 55 80  1  0  0  0  0
 56 81  1  0  0  0  0
 57 60  1  0  0  0  0
 58 61  1  0  0  0  0
 59 62  1  0  0  0  0
 60 62  1  0  0  0  0
 61 69  1  0  0  0  0
 63 66  1  0  0  0  0
 63 69  1  0  0  0  0
 64 65  1  0  0  0  0
 64 72  1  0  0  0  0
 65 80  1  0  0  0  0
 66 88  1  0  0  0  0
 67 70  1  0  0  0  0
 67 79  1  0  0  0  0
 68 81  1  0  0  0  0
 71 73  1  0  0  0  0
M  CHG  1  81   1
M  ISO  4  36 100  66 101  80 100  88 101
M  END
> <Batch ID>
0094

> <Smiles>
CCCCCc1cn(CC[100N:0](C)[100C:0](=O)N2CCCC(n3nc(-c4ccc(Oc5ccc(F)cc5F)cc4)c(C(N)=O)c3N)C2)cc1CCC(C)C[101CH2:1][101O:1]c1ccc2c(c1)CN(C(=O)C(NC(=O)C(C)NC)C(C)(C)C)C(C(=O)NC1CCCc3ccccc31)C2

> <Shape>
0.280

> <Color>
0.076

> <Negative vol penalty>
0.000

$$$$

  -OEChem-04052319193D

 83 90  0     1  0  0  0  0  0999 V2000
  -26.9645  -36.6098   24.0865 C   0  0  0  0  0  0  0  0  0  0  0  0
  -27.6876  -35.5690   23.5125 C   0  0  0  0  0  0  0  0  0  0  0  0
  -22.9604  -10.0569   19.9723 C   0  0  0  0  0  0  0  0  0  0  0  0
  -23.7666   -9.9851   22.2487 C   0  0  0  0  0  0  0  0  0  0  0  0
  -25.7389  -36.3510   24.6986 C   0  0  0  0  0  0  0  0  0  0  0  0
  -27.1859  -34.2685   23.5514 C   0  0  0  0  0  0  0  0  0  0  0  0
  -27.0730  -28.2117   19.7280 C   0  0  0  0  0  0  0  0  0  0  0  0
  -22.1869   -8.9209   20.2105 C   0  0  0  0  0  0  0  0  0  0  0  0
  -22.9930   -8.8492   22.4869 C   0  0  0  0  0  0  0  0  0  0  0  0
  -27.3377  -26.8493   19.8604 C   0  0  0  0  0  0  0  0  0  0  0  0
  -23.1707   -5.5345   21.8449 C   0  0  0  0  0  0  0  0  0  0  0  0
  -23.7690   -4.4739   22.5253 C   0  0  0  0  0  0  0  0  0  0  0  0
  -25.1721  -26.5333   20.8751 C   0  0  0  0  0  0  0  0  0  0  0  0
  -22.1087   -4.6571   24.2709 C   0  0  0  0  0  0  0  0  0  0  0  0
  -23.7504  -10.5890   20.9915 C   0  0  0  0  0  0  0  0  0  0  0  0
  -24.1669  -13.1049   20.9242 C   0  0  0  0  0  0  0  0  0  0  0  0
  -25.2173  -35.0482   24.7365 C   0  0  0  0  0  0  0  0  0  0  0  0
  -25.8582  -28.7479   20.1788 C   0  0  0  0  0  0  0  0  0  0  0  0
  -25.9527  -33.9919   24.1658 C   0  0  0  0  0  0  0  0  0  0  0  0
  -24.8934  -27.9024   20.7449 C   0  0  0  0  0  0  0  0  0  0  0  0
  -22.2031   -8.3171   21.4678 C   0  0  0  0  0  0  0  0  0  0  0  0
  -26.3884  -26.0104   20.4367 C   0  0  0  0  0  0  0  0  0  0  0  0
  -22.0414   -6.1564   22.3776 C   0  0  0  0  0  0  0  0  0  0  0  0
  -23.2380   -4.0352   23.7382 C   0  0  0  0  0  0  0  0  0  0  0  0
  -21.5104   -5.7177   23.5905 C   0  0  0  0  0  0  0  0  0  0  0  0
  -24.5502  -11.7621   20.7459 C   0  0  0  0  0  0  0  0  0  0  0  0
  -25.2739  -13.8297   20.5559 C   0  0  0  0  0  0  0  0  0  0  0  0
  -22.9216  -13.6483   21.3819 C   0  0  0  0  0  0  0  0  0  0  0  0
  -25.0304  -30.8977   22.3689 C   0  0  0  0  0  0  0  0  0  0  0  0
  -22.0689  -30.4536   21.1221 C   0  0  0  0  0  0  0  0  0  0  0  0
  -19.9169  -28.4254   19.4185 C   0  0  0  0  0  0  0  0  0  0  0  0
  -30.7889  -14.6782   20.6529 C   0  0  0  0  0  0  0  0  0  0  0  0
  -23.9106  -34.8099   25.4509 C   0  0  0  0  0  0  0  0  0  0  0  0
  -25.5771  -30.2152   20.0043 C   0  0  0  0  0  0  0  0  0  0  0  0
  -23.5654  -28.4250   21.2263 C   0  0  0  0  0  0  0  0  0  0  0  0
  -23.2722  -33.4633   25.1200 C   0  0  0  0  0  0  0  0  0  0  0  0
  -29.5306  -12.3879   18.2347 C   0  0  0  0  0  0  0  0  0  0  0  0
  -24.3109  -32.3484   25.1903 C   0  0  0  0  0  0  0  0  0  0  0  0
  -28.0939  -12.1271   18.6907 C   0  0  0  0  0  0  0  0  0  0  0  0
  -30.4783  -12.5517   19.4210 C   0  0  0  0  0  0  0  0  0  0  0  0
  -28.6284  -13.3057   20.8642 C   0  0  0  0  0  0  0  0  0  0  0  0
  -25.4300  -32.5717   24.1659 C   0  0  1  0  0  0  0  0  0  0  0  0
  -24.5152  -30.7386   20.9665 C   0  0  1  0  0  0  0  0  0  0  0  0
  -27.6256  -13.1893   19.7035 C   0  0  2  0  0  0  0  0  0  0  0  0
  -28.4072  -18.4387   16.6900 C   0  0  0  0  0  0  0  0  0  0  0  0
  -17.5523  -28.3199   18.5850 C   0  0  0  0  0  0  0  0  0  0  0  0
  -21.0976  -29.8815   23.9574 C   0  0  0  0  0  0  0  0  0  0  0  0
  -19.0274  -28.8768   22.9708 C   0  0  0  0  0  0  0  0  0  0  0  0
  -19.5473  -31.2862   22.5871 C   0  0  0  0  0  0  0  0  0  0  0  0
  -20.7971  -28.2073   16.6013 C   0  0  0  0  0  0  0  0  0  0  0  0
  -29.3844  -20.8445   20.8135 C   0  0  0  0  0  0  0  0  0  0  0  0
  -28.6788  -19.8847   17.0797 C   0  0  0  0  0  0  0  0  0  0  0  0
  -27.1372  -22.6141   19.4168 C   0  0  0  0  0  0  0  0  0  0  0  0
  -28.0185  -21.9426   18.3629 C   0  0  0  0  0  0  0  0  0  0  0  0
  -30.6801  -17.9769   21.0125 C   0  0  0  0  0  0  0  0  0  0  0  0
  -30.9457  -16.7951   21.9388 C   0  0  0  0  0  0  0  0  0  0  0  0
  -29.2076  -18.3664   20.9815 C   0  0  0  0  0  0  0  0  0  0  0  0
  -27.6971  -19.6212   19.4503 C   0  0  0  0  0  0  0  0  0  0  0  0
  -27.4992  -24.0843   19.5928 C   0  0  0  0  0  0  0  0  0  1  0  0
  -20.9179  -29.5194   21.4074 C   0  0  1  0  0  0  0  0  0  0  0  0
  -18.9867  -28.6987   18.2504 C   0  0  2  0  0  0  0  0  0  0  0  0
  -27.7112  -20.4410   18.1500 C   0  0  2  0  0  0  0  0  0  0  0  0
  -20.1732  -29.8811   22.7235 C   0  0  0  0  0  0  0  0  0  0  0  0
  -25.8028  -11.6384   20.2990 N   0  0  0  0  0  0  0  0  0  0  0  0
  -26.2161  -12.9128   20.1932 N   0  0  0  0  0  0  0  0  0  0  0  0
  -23.3401  -29.8679   21.0395 N   0  0  0  0  0  0  0  0  0  0  0  0
  -29.9776  -13.5745   20.3425 N   0  0  0  0  0  0  0  0  0  0  0  0
  -25.5234  -15.1556   20.5101 N   0  0  0  0  0  0  0  0  0  0  0  0
  -21.8893  -12.7621   21.7187 N   0  0  0  0  0  0  0  0  0  0  0  0
  -24.9850  -32.1956   22.8411 N   0  0  0  0  0  0  0  0  0  0  0  0
  -20.0729  -29.5378   20.2183 N   0  0  0  0  0  0  0  0  0  0  0  0
  -30.2357  -15.6039   21.5292 N   0  0  0  0  0  0  0  0  0  0  0  0
  -19.4126  -27.9171   17.0552 N   0  3  0  0  0  0  0  0  0  0  0  0
  -29.0350  -19.5690   20.0851 N   0  3  1  0  0  0  0  0  0  0  0  0
  -22.7243  -14.8838   21.4733 O   0  0  0  0  0  0  0  0  0  0  0  0
  -25.4376  -29.9155   22.9781 O   0  0  0  0  0  0  0  0  0  0  0  0
  -21.8473  -31.6576   20.9708 O   0  0  0  0  0  0  0  0  0  0  0  0
  -20.4489  -27.3333   19.6050 O   0  0  0  0  0  0  0  0  0  0  0  0
  -31.9203  -14.8304   20.1798 O   0  0  0  0  0  0  0  0  0  0  0  0
  -21.4482   -7.2087   21.7006 O   0  0  0  0  0  0  0  0  0  0  0  0
  -26.6445  -24.6803   20.5678 O   0  0  0  0  0  0  0  0  0  1  0  0
  -23.8117   -3.0157   24.3906 F   0  0  0  0  0  0  0  0  0  0  0  0
  -20.4251   -6.3105   24.1066 F   0  0  0  0  0  0  0  0  0  0  0  0
  1  2  1  0  0  0  0
  1  5  2  0  0  0  0
  2  6  2  0  0  0  0
  3  8  2  0  0  0  0
  3 15  1  0  0  0  0
  4  9  1  0  0  0  0
  4 15  2  0  0  0  0
  5 17  1  0  0  0  0
  6 19  1  0  0  0  0
  7 10  2  0  0  0  0
  7 18  1  0  0  0  0
  8 21  1  0  0  0  0
  9 21  2  0  0  0  0
 10 22  1  0  0  0  0
 11 12  2  0  0  0  0
 11 23  1  0  0  0  0
 12 24  1  0  0  0  0
 13 20  1  0  0  0  0
 13 22  2  0  0  0  0
 14 24  2  0  0  0  0
 14 25  1  0  0  0  0
 15 26  1  0  0  0  0
 16 26  1  0  0  0  0
 16 27  2  0  0  0  0
 16 28  1  0  0  0  0
 17 19  2  0  0  0  0
 17 33  1  0  0  0  0
 18 20  2  0  0  0  0
 18 34  1  0  0  0  0
 19 42  1  0  0  0  0
 20 35  1  0  0  0  0
 21 80  1  0  0  0  0
 22 81  1  0  0  0  0
 23 25  2  0  0  0  0
 23 80  1  0  0  0  0
 24 82  1  0  0  0  0
 25 83  1  0  0  0  0
 26 64  2  0  0  0  0
 27 65  1  0  0  0  0
 27 68  1  0  0  0  0
 28 69  1  0  0  0  0
 28 75  2  0  0  0  0
 29 43  1  0  0  0  0
 29 70  1  0  0  0  0
 29 76  2  0  0  0  0
 30 60  1  0  0  0  0
 30 66  1  0  0  0  0
 30 77  2  0  0  0  0
 31 61  1  0  0  0  0
 31 71  1  0  0  0  0
 31 78  2  0  0  0  0
 32 67  1  0  0  0  0
 32 72  1  0  0  0  0
 32 79  2  0  0  0  0
 33 36  1  0  0  0  0
 34 43  1  0  0  0  0
 35 66  1  0  0  0  0
 36 38  1  0  0  0  0
 37 39  1  0  0  0  0
 37 40  1  0  0  0  0
 38 42  1  0  0  0  0
 39 44  1  0  0  0  0
 40 67  1  0  0  0  0
 41 44  1  0  0  0  0
 41 67  1  0  0  0  0
 42 70  1  0  0  0  0
 43 66  1  0  0  0  0
 44 65  1  0  0  0  0
 45 52  1  0  0  0  0
 46 61  1  0  0  0  0
 47 63  1  0  0  0  0
 48 63  1  0  0  0  0
 49 63  1  0  0  0  0
 50 73  1  0  0  0  0
 51 74  1  0  0  0  0
 52 62  1  0  0  0  0
 53 54  1  0  0  0  0
 53 59  1  0  0  0  0
 54 62  1  0  0  0  0
 55 56  1  0  0  0  0
 55 57  1  0  0  0  0
 56 72  1  0  0  0  0
 57 74  1  0  0  0  0
 58 62  1  0  0  0  0
 58 74  1  0  0  0  0
 59 81  1  0  0  0  0
 60 63  1  0  0  0  0
 60 71  1  0  0  0  0
 61 73  1  0  0  0  0
 64 65  1  0  0  0  0
M  CHG  2  73   1  74   1
M  ISO  4  32 100  59 101  72 100  81 101
M  END
> <Batch ID>
0094

> <Smiles>
CCC(CC[101CH2:1][101O:1]c1ccc2c(c1)CN(C(=O)C(NC(=O)C(C)NC)C(C)(C)C)C(C(=O)NC1CCCc3ccccc31)C2)CN(C)CCC[100NH:0][100C:0](=O)N1CCCC(n2nc(-c3ccc(Oc4ccc(F)cc4F)cc3)c(C(N)=O)c2N)C1

> <Shape>
0.404

> <Color>
0.214

> <Negative vol penalty>
0.000

$$$$

  -OEChem-04052319193D

 90 98  0     1  0  0  0  0  0999 V2000
  -20.0719  -10.3799   21.5966 C   0  0  0  0  0  0  0  0  0  0  0  0
  -20.4197  -11.5101   22.3294 C   0  0  0  0  0  0  0  0  0  0  0  0
  -23.6515  -30.9768   20.8901 C   0  0  0  0  0  0  0  0  0  0  0  0
  -23.8725  -29.5710   22.8426 C   0  0  0  0  0  0  0  0  0  0  0  0
  -21.0653   -9.6025   21.0027 C   0  0  0  0  0  0  0  0  0  0  0  0
  -21.7614  -11.8629   22.4698 C   0  0  0  0  0  0  0  0  0  0  0  0
  -24.0670  -17.5292   22.7600 C   0  0  0  0  0  0  0  0  0  0  0  0
  -22.2627  -30.9172   21.0043 C   0  0  0  0  0  0  0  0  0  0  0  0
  -22.4836  -29.5114   22.9568 C   0  0  0  0  0  0  0  0  0  0  0  0
  -24.4585  -18.3287   23.8330 C   0  0  0  0  0  0  0  0  0  0  0  0
  -19.9327  -27.8446   21.4920 C   0  0  0  0  0  0  0  0  0  0  0  0
  -19.3557  -26.5991   21.7397 C   0  0  0  0  0  0  0  0  0  0  0  0
  -26.7412  -17.6113   23.5270 C   0  0  0  0  0  0  0  0  0  0  0  0
  -28.2480  -22.4701   23.5986 C   0  0  0  0  0  0  0  0  0  0  0  0
  -18.4144  -27.4445   23.7979 C   0  0  0  0  0  0  0  0  0  0  0  0
  -24.4565  -30.3037   21.8092 C   0  0  0  0  0  0  0  0  0  0  0  0
  -26.7528  -31.3118   22.2763 C   0  0  0  0  0  0  0  0  0  0  0  0
  -22.4193   -9.9515   21.1278 C   0  0  0  0  0  0  0  0  0  0  0  0
  -25.0096  -16.7550   22.0682 C   0  0  0  0  0  0  0  0  0  0  0  0
  -22.7740  -11.0888   21.8782 C   0  0  0  0  0  0  0  0  0  0  0  0
  -26.3596  -16.8048   22.4440 C   0  0  0  0  0  0  0  0  0  0  0  0
  -26.9148  -22.4636   23.9932 C   0  0  0  0  0  0  0  0  0  0  0  0
  -25.9270  -22.8453   23.0921 C   0  0  0  0  0  0  0  0  0  0  0  0
  -21.6787  -30.1845   22.0376 C   0  0  0  0  0  0  0  0  0  0  0  0
  -25.7952  -18.3677   24.2184 C   0  0  0  0  0  0  0  0  0  0  0  0
  -19.7506  -28.8901   22.3972 C   0  0  0  0  0  0  0  0  0  0  0  0
  -18.5965  -26.3991   22.8926 C   0  0  0  0  0  0  0  0  0  0  0  0
  -18.9914  -28.6901   23.5502 C   0  0  0  0  0  0  0  0  0  0  0  0
  -25.8912  -30.3645   21.6915 C   0  0  0  0  0  0  0  0  0  0  0  0
  -28.5388  -22.8634   22.3023 C   0  0  0  0  0  0  0  0  0  0  0  0
  -26.3217  -23.2220   21.8185 C   0  0  0  0  0  0  0  0  0  0  0  0
  -28.0077  -30.9352   21.8642 C   0  0  0  0  0  0  0  0  0  0  0  0
  -26.4462  -32.4320   23.1171 C   0  0  0  0  0  0  0  0  0  0  0  0
  -25.4262  -13.6432   21.5714 C   0  0  0  0  0  0  0  0  0  0  0  0
  -27.8038  -14.6699   19.6182 C   0  0  0  0  0  0  0  0  0  0  0  0
  -30.0321  -17.1250   18.8097 C   0  0  0  0  0  0  0  0  0  0  0  0
  -30.3255  -25.6972   20.1199 C   0  0  0  0  0  0  0  0  0  0  0  0
  -23.4606   -9.0538   20.5077 C   0  0  0  0  0  0  0  0  0  0  0  0
  -24.5755  -15.9183   20.8961 C   0  0  0  0  0  0  0  0  0  0  0  0
  -27.4138  -16.0082   21.7211 C   0  0  0  0  0  0  0  0  0  0  0  0
  -24.8355   -9.7065   20.3901 C   0  0  0  0  0  0  0  0  0  0  0  0
  -30.2632  -28.7349   18.2638 C   0  0  0  0  0  0  0  0  0  0  0  0
  -25.2108  -10.3997   21.6961 C   0  0  0  0  0  0  0  0  0  0  0  0
  -29.2134  -29.5825   18.9846 C   0  0  0  0  0  0  0  0  0  0  0  0
  -29.8806  -27.2566   18.2473 C   0  0  0  0  0  0  0  0  0  0  0  0
  -28.5315  -27.5271   20.2919 C   0  0  0  0  0  0  0  0  0  0  0  0
  -24.2170  -11.5180   22.0324 C   0  0  1  0  0  0  0  0  0  0  0  0
  -25.5376  -14.7748   20.5893 C   0  0  1  0  0  0  0  0  0  0  0  0
  -28.9006  -29.0176   20.3833 C   0  0  2  0  0  0  0  0  0  0  0  0
  -22.7502  -23.7767   25.0785 C   0  0  0  0  0  0  0  0  0  0  0  0
  -25.4061  -26.1732   21.4304 C   0  0  0  0  0  0  0  0  0  0  0  0
  -31.8703  -17.6607   17.1876 C   0  0  0  0  0  0  0  0  0  0  0  0
  -24.2304  -22.5592   20.4485 C   0  0  0  0  0  0  0  0  0  0  0  0
  -26.0097  -23.9640   19.4467 C   0  0  0  0  0  0  0  0  0  0  0  0
  -29.6882  -12.8195   21.1464 C   0  0  0  0  0  0  0  0  0  0  0  0
  -31.6135  -14.0738   20.1524 C   0  0  0  0  0  0  0  0  0  0  0  0
  -30.0304  -12.8424   18.6691 C   0  0  0  0  0  0  0  0  0  0  0  0
  -28.5682  -19.4666   17.7452 C   0  0  0  0  0  0  0  0  0  0  0  0
  -26.5685  -22.0428   25.3991 C   0  0  0  0  0  0  0  0  0  0  0  0
  -24.4884  -22.8458   23.4866 C   0  0  0  0  0  0  0  0  0  0  0  0
  -29.9588  -22.8813   21.8436 C   0  0  0  0  0  0  0  0  0  0  0  0
  -24.2224  -23.7507   24.6991 C   0  0  0  0  0  0  0  0  0  0  0  0
  -24.5244  -24.9446   21.2257 C   0  0  0  0  0  0  0  0  0  0  0  0
  -27.5242  -21.0001   25.9830 C   0  0  0  0  0  0  0  0  0  0  0  0
  -30.6646  -24.2205   22.0855 C   0  0  0  0  0  0  0  0  0  0  0  0
  -27.5051  -19.6749   25.2301 C   0  0  0  0  0  0  0  0  0  1  0  0
  -29.2717  -14.9773   19.7911 C   0  0  1  0  0  0  0  0  0  0  0  0
  -30.3821  -17.7699   17.4808 C   0  0  2  0  0  0  0  0  0  0  0  0
  -25.3062  -23.6407   20.8060 C   0  0  0  0  0  0  0  0  0  0  0  0
  -30.1310  -13.6919   19.9548 C   0  0  0  0  0  0  0  0  0  0  0  0
  -26.5436  -29.4546   20.9631 N   0  0  0  0  0  0  0  0  0  0  0  0
  -27.6067  -23.2409   21.3988 N   0  0  0  0  0  0  0  0  0  0  0  0
  -27.8284  -29.8285   21.0875 N   0  0  0  0  0  0  0  0  0  0  0  0
  -26.9387  -15.2005   20.5856 N   0  0  0  0  0  0  0  0  0  0  0  0
  -29.5982  -26.7827   19.6043 N   0  0  0  0  0  0  0  0  0  0  0  0
  -29.2360  -31.4461   22.0940 N   0  0  0  0  0  0  0  0  0  0  0  0
  -25.1050  -32.6754   23.4431 N   0  0  0  0  0  0  0  0  0  0  0  0
  -24.4852  -12.6911   21.2285 N   0  0  0  0  0  0  0  0  0  0  0  0
  -29.6512  -15.8090   18.6542 N   0  0  0  0  0  0  0  0  0  0  0  0
  -29.9996  -25.3160   21.4157 N   0  0  0  0  0  0  0  0  0  0  0  0
  -30.0098  -19.2129   17.4912 N   0  3  0  0  0  0  0  0  0  0  0  0
  -27.3337  -33.2042   23.5524 O   0  0  0  0  0  0  0  0  0  0  0  0
  -26.1420  -13.6336   22.5660 O   0  0  0  0  0  0  0  0  0  0  0  0
  -27.4375  -13.9902   18.6562 O   0  0  0  0  0  0  0  0  0  0  0  0
  -30.0942  -17.7274   19.8792 O   0  0  0  0  0  0  0  0  0  0  0  0
  -31.2041  -25.1146   19.4752 O   0  0  0  0  0  0  0  0  0  0  0  0
  -20.3234  -30.1263   22.1495 O   0  0  0  0  0  0  0  0  0  0  0  0
  -26.1799  -19.1468   25.2658 O   0  0  0  0  0  0  0  0  0  1  0  0
  -18.0412  -25.2034   23.1296 F   0  0  0  0  0  0  0  0  0  0  0  0
  -18.8119  -29.6910   24.4229 F   0  0  0  0  0  0  0  0  0  0  0  0
  1  2  1  0  0  0  0
  1  5  2  0  0  0  0
  2  6  2  0  0  0  0
  3  8  2  0  0  0  0
  3 16  1  0  0  0  0
  4  9  1  0  0  0  0
  4 16  2  0  0  0  0
  5 18  1  0  0  0  0
  6 20  1  0  0  0  0
  7 10  2  0  0  0  0
  7 19  1  0  0  0  0
  8 24  1  0  0  0  0
  9 24  2  0  0  0  0
 10 25  1  0  0  0  0
 11 12  2  0  0  0  0
 11 26  1  0  0  0  0
 12 27  1  0  0  0  0
 13 21  1  0  0  0  0
 13 25  2  0  0  0  0
 14 22  2  0  0  0  0
 14 30  1  0  0  0  0
 15 27  2  0  0  0  0
 15 28  1  0  0  0  0
 16 29  1  0  0  0  0
 17 29  1  0  0  0  0
 17 32  2  0  0  0  0
 17 33  1  0  0  0  0
 18 20  2  0  0  0  0
 18 38  1  0  0  0  0
 19 21  2  0  0  0  0
 19 39  1  0  0  0  0
 20 47  1  0  0  0  0
 21 40  1  0  0  0  0
 22 23  1  0  0  0  0
 22 59  1  0  0  0  0
 23 31  2  0  0  0  0
 23 60  1  0  0  0  0
 24 87  1  0  0  0  0
 25 88  1  0  0  0  0
 26 28  2  0  0  0  0
 26 87  1  0  0  0  0
 27 89  1  0  0  0  0
 28 90  1  0  0  0  0
 29 71  2  0  0  0  0
 30 61  1  0  0  0  0
 30 72  2  0  0  0  0
 31 69  1  0  0  0  0
 31 72  1  0  0  0  0
 32 73  1  0  0  0  0
 32 76  1  0  0  0  0
 33 77  1  0  0  0  0
 33 82  2  0  0  0  0
 34 48  1  0  0  0  0
 34 78  1  0  0  0  0
 34 83  2  0  0  0  0
 35 67  1  0  0  0  0
 35 74  1  0  0  0  0
 35 84  2  0  0  0  0
 36 68  1  0  0  0  0
 36 79  1  0  0  0  0
 36 85  2  0  0  0  0
 37 75  1  0  0  0  0
 37 80  1  0  0  0  0
 37 86  2  0  0  0  0
 38 41  1  0  0  0  0
 39 48  1  0  0  0  0
 40 74  1  0  0  0  0
 41 43  1  0  0  0  0
 42 44  1  0  0  0  0
 42 45  1  0  0  0  0
 43 47  1  0  0  0  0
 44 49  1  0  0  0  0
 45 75  1  0  0  0  0
 46 49  1  0  0  0  0
 46 75  1  0  0  0  0
 47 78  1  0  0  0  0
 48 74  1  0  0  0  0
 49 73  1  0  0  0  0
 50 62  1  0  0  0  0
 51 63  1  0  0  0  0
 52 68  1  0  0  0  0
 53 69  1  0  0  0  0
 54 69  1  0  0  0  0
 55 70  1  0  0  0  0
 56 70  1  0  0  0  0
 57 70  1  0  0  0  0
 58 81  1  0  0  0  0
 59 64  1  0  0  0  0
 60 62  1  0  0  0  0
 61 65  1  0  0  0  0
 63 69  1  0  0  0  0
 64 66  1  0  0  0  0
 65 80  1  0  0  0  0
 66 88  1  0  0  0  0
 67 70  1  0  0  0  0
 67 79  1  0  0  0  0
 68 81  1  0  0  0  0
 71 73  1  0  0  0  0
M  CHG  1  81   1
M  ISO  4  37 100  66 101  80 100  88 101
M  END
> <Batch ID>
0094

> <Smiles>
CCCc1c(CC[101CH2:1][101O:1]c2ccc3c(c2)CN(C(=O)C(NC(=O)C(C)NC)C(C)(C)C)C(C(=O)NC2CCCc4ccccc42)C3)cc(CC[100NH:0][100C:0](=O)N2CCCC(n3nc(-c4ccc(Oc5ccc(F)cc5F)cc4)c(C(N)=O)c3N)C2)nc1C(C)(C)CC

> <Shape>
0.280

> <Color>
0.056

> <Negative vol penalty>
0.000

$$$$

  -OEChem-04052319193D

 85 93  0     1  0  0  0  0  0999 V2000
  -22.9234  -20.1419   25.4713 C   0  0  0  0  0  0  0  0  0  0  0  0
  -24.1381  -20.4147   24.8506 C   0  0  0  0  0  0  0  0  0  0  0  0
  -26.2566  -12.3599   20.8243 C   0  0  0  0  0  0  0  0  0  0  0  0
  -24.5386  -13.9184   20.1484 C   0  0  0  0  0  0  0  0  0  0  0  0
  -21.7917  -20.8878   25.1444 C   0  0  0  0  0  0  0  0  0  0  0  0
  -24.2217  -21.4331   23.9017 C   0  0  0  0  0  0  0  0  0  0  0  0
  -28.9829  -25.1533   22.9034 C   0  0  0  0  0  0  0  0  0  0  0  0
  -25.2843  -11.5300   21.3823 C   0  0  0  0  0  0  0  0  0  0  0  0
  -23.5662  -13.0884   20.7064 C   0  0  0  0  0  0  0  0  0  0  0  0
  -30.0092  -25.1308   21.9601 C   0  0  0  0  0  0  0  0  0  0  0  0
  -23.2212   -8.8263   22.6665 C   0  0  0  0  0  0  0  0  0  0  0  0
  -23.3110   -7.4583   22.4093 C   0  0  0  0  0  0  0  0  0  0  0  0
  -28.7588  -26.6569   20.5721 C   0  0  0  0  0  0  0  0  0  0  0  0
  -30.4601  -22.0865   16.7821 C   0  0  0  0  0  0  0  0  0  0  0  0
  -28.4901  -21.1106   17.7573 C   0  0  0  0  0  0  0  0  0  0  0  0
  -23.1148   -7.8908   20.0404 C   0  0  0  0  0  0  0  0  0  0  0  0
  -25.8838  -13.5541   20.2074 C   0  0  0  0  0  0  0  0  0  0  0  0
  -27.3778  -14.3805   18.3119 C   0  0  0  0  0  0  0  0  0  0  0  0
  -21.8636  -21.9222   24.1981 C   0  0  0  0  0  0  0  0  0  0  0  0
  -27.8301  -25.9206   22.6828 C   0  0  0  0  0  0  0  0  0  0  0  0
  -23.0896  -22.1927   23.5608 C   0  0  0  0  0  0  0  0  0  0  0  0
  -27.7204  -26.6895   21.5154 C   0  0  0  0  0  0  0  0  0  0  0  0
  -29.6097  -20.9979   16.9406 C   0  0  0  0  0  0  0  0  0  0  0  0
  -23.9391  -11.8942   21.3233 C   0  0  0  0  0  0  0  0  0  0  0  0
  -29.8960  -25.8804   20.7929 C   0  0  0  0  0  0  0  0  0  0  0  0
  -23.0782   -9.7266   21.6106 C   0  0  0  0  0  0  0  0  0  0  0  0
  -23.2578   -6.9906   21.0963 C   0  0  0  0  0  0  0  0  0  0  0  0
  -23.0250   -9.2588   20.2976 C   0  0  0  0  0  0  0  0  0  0  0  0
  -26.8878  -14.4122   19.6313 C   0  0  0  0  0  0  0  0  0  0  0  0
  -30.1491  -23.2561   17.4567 C   0  0  0  0  0  0  0  0  0  0  0  0
  -28.2673  -22.3238   18.3884 C   0  0  0  0  0  0  0  0  0  0  0  0
  -28.3091  -15.3891   18.2673 C   0  0  0  0  0  0  0  0  0  0  0  0
  -27.0228  -13.5167   17.2240 C   0  0  0  0  0  0  0  0  0  0  0  0
  -24.7343  -25.2758   22.3599 C   0  0  0  0  0  0  0  0  0  0  0  0
  -24.4609  -28.5081   22.3499 C   0  0  0  0  0  0  0  0  0  0  0  0
  -25.9269  -31.5379   21.7865 C   0  0  0  0  0  0  0  0  0  0  0  0
  -29.0258  -20.4203   21.4334 C   0  0  0  0  0  0  0  0  0  0  0  0
  -20.6030  -22.6700   23.8428 C   0  0  0  0  0  0  0  0  0  0  0  0
  -26.7437  -25.9551   23.7225 C   0  0  0  0  0  0  0  0  0  0  0  0
  -26.5122  -27.5457   21.2403 C   0  0  0  0  0  0  0  0  0  0  0  0
  -20.8599  -23.9792   23.1010 C   0  0  0  0  0  0  0  0  0  0  0  0
  -31.3799  -17.7763   21.0534 C   0  0  0  0  0  0  0  0  0  0  0  0
  -21.8762  -23.7688   21.9831 C   0  0  0  0  0  0  0  0  0  0  0  0
  -30.5398  -16.6114   20.5268 C   0  0  0  0  0  0  0  0  0  0  0  0
  -30.6052  -18.6191   22.0641 C   0  0  0  0  0  0  0  0  0  0  0  0
  -28.4571  -17.9432   21.0629 C   0  0  0  0  0  0  0  0  0  0  0  0
  -23.2259  -23.3057   22.5445 C   0  0  1  0  0  0  0  0  0  0  0  0
  -25.3885  -26.3686   23.1571 C   0  0  1  0  0  0  0  0  0  0  0  0
  -29.1765  -17.0970   19.9987 C   0  0  2  0  0  0  0  0  0  0  0  0
  -31.2334  -19.0880   16.6765 C   0  0  0  0  0  0  0  0  0  0  0  0
  -29.8701  -19.8654   14.7037 C   0  0  0  0  0  0  0  0  0  0  0  0
  -25.4407  -33.9995   21.8270 C   0  0  0  0  0  0  0  0  0  0  0  0
  -22.9208  -28.2446   19.7290 C   0  0  0  0  0  0  0  0  0  0  0  0
  -23.2938  -30.6903   19.3448 C   0  0  0  0  0  0  0  0  0  0  0  0
  -21.9835  -29.9262   21.3252 C   0  0  0  0  0  0  0  0  0  0  0  0
  -27.9890  -32.0291   23.8518 C   0  0  0  0  0  0  0  0  0  0  0  0
  -31.0477  -24.4577   17.3075 C   0  0  0  0  0  0  0  0  0  0  0  0
  -27.0762  -22.4796   19.2737 C   0  0  0  0  0  0  0  0  0  0  0  0
  -32.1720  -24.5186   18.3437 C   0  0  0  0  0  0  0  0  0  0  0  0
  -27.3469  -22.1099   20.7367 C   0  0  0  0  0  0  0  0  0  0  0  0
  -31.6670  -24.6626   19.7747 C   0  0  0  0  0  0  0  0  0  1  0  0
  -29.8968  -19.7151   16.2366 C   0  0  0  0  0  0  0  0  0  0  0  0
  -24.4876  -29.5800   21.2872 C   0  0  1  0  0  0  0  0  0  0  0  0
  -25.9635  -32.8090   22.6157 C   0  0  2  0  0  0  0  0  0  0  0  0
  -23.1935  -29.5927   20.4256 C   0  0  0  0  0  0  0  0  0  0  0  0
  -27.4605  -15.3652   20.3713 N   0  0  0  0  0  0  0  0  0  0  0  0
  -29.0708  -23.4033   18.2587 N   0  0  0  0  0  0  0  0  0  0  0  0
  -28.3201  -15.9417   19.5141 N   0  0  0  0  0  0  0  0  0  0  0  0
  -25.4741  -27.5412   22.2843 N   0  0  0  0  0  0  0  0  0  0  0  0
  -29.3232  -19.0491   21.5007 N   0  0  0  0  0  0  0  0  0  0  0  0
  -29.1115  -15.8481   17.2835 N   0  0  0  0  0  0  0  0  0  0  0  0
  -26.0471  -12.5344   17.4418 N   0  0  0  0  0  0  0  0  0  0  0  0
  -23.9479  -24.4243   23.1120 N   0  0  0  0  0  0  0  0  0  0  0  0
  -24.7565  -30.8353   21.9803 N   0  0  0  0  0  0  0  0  0  0  0  0
  -27.7926  -20.7419   20.8798 N   0  0  0  0  0  0  0  0  0  0  0  0
  -27.3589  -33.1066   23.0462 N   0  3  0  0  0  0  0  0  0  0  0  0
  -27.5669  -13.6024   16.0970 O   0  0  0  0  0  0  0  0  0  0  0  0
  -24.9276  -25.2110   21.1515 O   0  0  0  0  0  0  0  0  0  0  0  0
  -23.5778  -28.5320   23.2108 O   0  0  0  0  0  0  0  0  0  0  0  0
  -26.8432  -31.2039   21.0386 O   0  0  0  0  0  0  0  0  0  0  0  0
  -29.8041  -21.2935   21.8318 O   0  0  0  0  0  0  0  0  0  0  0  0
  -22.9900  -11.0845   21.8675 O   0  0  0  0  0  0  0  0  0  0  0  0
  -30.8960  -25.8596   19.8701 O   0  0  0  0  0  0  0  0  0  1  0  0
  -23.3456   -5.6770   20.8494 F   0  0  0  0  0  0  0  0  0  0  0  0
  -22.8889  -10.1189   19.2790 F   0  0  0  0  0  0  0  0  0  0  0  0
  1  2  1  0  0  0  0
  1  5  2  0  0  0  0
  2  6  2  0  0  0  0
  3  8  2  0  0  0  0
  3 17  1  0  0  0  0
  4  9  1  0  0  0  0
  4 17  2  0  0  0  0
  5 19  1  0  0  0  0
  6 21  1  0  0  0  0
  7 10  2  0  0  0  0
  7 20  1  0  0  0  0
  8 24  1  0  0  0  0
  9 24  2  0  0  0  0
 10 25  1  0  0  0  0
 11 12  2  0  0  0  0
 11 26  1  0  0  0  0
 12 27  1  0  0  0  0
 13 22  1  0  0  0  0
 13 25  2  0  0  0  0
 14 23  2  0  0  0  0
 14 30  1  0  0  0  0
 15 23  1  0  0  0  0
 15 31  2  0  0  0  0
 16 27  2  0  0  0  0
 16 28  1  0  0  0  0
 17 29  1  0  0  0  0
 18 29  1  0  0  0  0
 18 32  2  0  0  0  0
 18 33  1  0  0  0  0
 19 21  2  0  0  0  0
 19 38  1  0  0  0  0
 20 22  2  0  0  0  0
 20 39  1  0  0  0  0
 21 47  1  0  0  0  0
 22 40  1  0  0  0  0
 23 62  1  0  0  0  0
 24 82  1  0  0  0  0
 25 83  1  0  0  0  0
 26 28  2  0  0  0  0
 26 82  1  0  0  0  0
 27 84  1  0  0  0  0
 28 85  1  0  0  0  0
 29 66  2  0  0  0  0
 30 57  1  0  0  0  0
 30 67  2  0  0  0  0
 31 58  1  0  0  0  0
 31 67  1  0  0  0  0
 32 68  1  0  0  0  0
 32 71  1  0  0  0  0
 33 72  1  0  0  0  0
 33 77  2  0  0  0  0
 34 48  1  0  0  0  0
 34 73  1  0  0  0  0
 34 78  2  0  0  0  0
 35 63  1  0  0  0  0
 35 69  1  0  0  0  0
 35 79  2  0  0  0  0
 36 64  1  0  0  0  0
 36 74  1  0  0  0  0
 36 80  2  0  0  0  0
 37 70  1  0  0  0  0
 37 75  1  0  0  0  0
 37 81  2  0  0  0  0
 38 41  1  0  0  0  0
 39 48  1  0  0  0  0
 40 69  1  0  0  0  0
 41 43  1  0  0  0  0
 42 44  1  0  0  0  0
 42 45  1  0  0  0  0
 43 47  1  0  0  0  0
 44 49  1  0  0  0  0
 45 70  1  0  0  0  0
 46 49  1  0  0  0  0
 46 70  1  0  0  0  0
 47 73  1  0  0  0  0
 48 69  1  0  0  0  0
 49 68  1  0  0  0  0
 50 62  1  0  0  0  0
 51 62  1  0  0  0  0
 52 64  1  0  0  0  0
 53 65  1  0  0  0  0
 54 65  1  0  0  0  0
 55 65  1  0  0  0  0
 56 76  1  0  0  0  0
 57 59  1  0  0  0  0
 58 60  1  0  0  0  0
 59 61  1  0  0  0  0
 60 75  1  0  0  0  0
 61 83  1  0  0  0  0
 63 65  1  0  0  0  0
 63 74  1  0  0  0  0
 64 76  1  0  0  0  0
 66 68  1  0  0  0  0
M  CHG  1  76   1
M  ISO  4  37 100  61 101  75 100  83 101
M  END
> <Batch ID>
0094

> <Smiles>
CNC(C)C(=O)NC(C(=O)N1Cc2cc([101O:1][101CH2:1]CCc3cc(C(C)C)cc(CC[100NH:0][100C:0](=O)N4CCCC(n5nc(-c6ccc(Oc7ccc(F)cc7F)cc6)c(C(N)=O)c5N)C4)n3)ccc2CC1C(=O)NC1CCCc2ccccc21)C(C)(C)C

> <Shape>
0.250

> <Color>
0.066

> <Negative vol penalty>
0.000

$$$$

  -OEChem-04052319193D

 87 95  0     1  0  0  0  0  0999 V2000
  -17.0504  -32.1682   23.0376 C   0  0  0  0  0  0  0  0  0  0  0  0
  -18.1284  -32.5835   22.2624 C   0  0  0  0  0  0  0  0  0  0  0  0
  -24.1635  -12.3993   20.7155 C   0  0  0  0  0  0  0  0  0  0  0  0
  -26.5378  -12.1047   21.0517 C   0  0  0  0  0  0  0  0  0  0  0  0
  -17.2382  -31.2134   24.0361 C   0  0  0  0  0  0  0  0  0  0  0  0
  -19.3950  -32.0450   22.4860 C   0  0  0  0  0  0  0  0  0  0  0  0
  -25.3911  -30.2466   19.0033 C   0  0  0  0  0  0  0  0  0  0  0  0
  -24.0118  -11.0196   20.5779 C   0  0  0  0  0  0  0  0  0  0  0  0
  -26.3860  -10.7249   20.9142 C   0  0  0  0  0  0  0  0  0  0  0  0
  -26.7688  -30.4546   19.0525 C   0  0  0  0  0  0  0  0  0  0  0  0
  -22.9446   -7.5455   20.4973 C   0  0  0  0  0  0  0  0  0  0  0  0
  -21.8843   -6.9393   21.1710 C   0  0  0  0  0  0  0  0  0  0  0  0
  -26.9589  -28.7535   20.7523 C   0  0  0  0  0  0  0  0  0  0  0  0
  -22.7818   -7.7105   23.2774 C   0  0  0  0  0  0  0  0  0  0  0  0
  -25.4266  -12.9419   20.9523 C   0  0  0  0  0  0  0  0  0  0  0  0
  -25.5089  -15.1167   22.2832 C   0  0  0  0  0  0  0  0  0  0  0  0
  -18.5059  -30.6558   24.2657 C   0  0  0  0  0  0  0  0  0  0  0  0
  -24.7845  -29.2965   19.8375 C   0  0  0  0  0  0  0  0  0  0  0  0
  -19.6002  -31.0828   23.4894 C   0  0  0  0  0  0  0  0  0  0  0  0
  -25.5737  -28.5336   20.7099 C   0  0  0  0  0  0  0  0  0  0  0  0
  -25.1230  -10.1824   20.6773 C   0  0  0  0  0  0  0  0  0  0  0  0
  -27.5526  -29.7101   19.9291 C   0  0  0  0  0  0  0  0  0  0  0  0
  -23.9236   -8.2341   21.2137 C   0  0  0  0  0  0  0  0  0  0  0  0
  -21.8028   -7.0218   22.5610 C   0  0  0  0  0  0  0  0  0  0  0  0
  -23.8421   -8.3166   22.6037 C   0  0  0  0  0  0  0  0  0  0  0  0
  -25.5841  -14.3671   21.0940 C   0  0  0  0  0  0  0  0  0  0  0  0
  -25.7269  -16.4133   21.8862 C   0  0  0  0  0  0  0  0  0  0  0  0
  -25.2640  -14.6799   23.6267 C   0  0  0  0  0  0  0  0  0  0  0  0
  -22.6106  -29.4075   22.1538 C   0  0  0  0  0  0  0  0  0  0  0  0
  -22.8540  -26.1763   22.0043 C   0  0  0  0  0  0  0  0  0  0  0  0
  -24.7243  -23.4475   21.1661 C   0  0  0  0  0  0  0  0  0  0  0  0
  -28.6007  -20.0958   19.0353 C   0  0  0  0  0  0  0  0  0  0  0  0
  -18.6693  -29.6615   25.3878 C   0  0  0  0  0  0  0  0  0  0  0  0
  -23.3006  -29.0653   19.7532 C   0  0  0  0  0  0  0  0  0  0  0  0
  -24.9738  -27.4871   21.6119 C   0  0  0  0  0  0  0  0  0  0  0  0
  -19.9694  -28.8651   25.3116 C   0  0  0  0  0  0  0  0  0  0  0  0
  -25.9045  -18.4574   17.2622 C   0  0  0  0  0  0  0  0  0  0  0  0
  -21.1481  -29.7927   25.0339 C   0  0  0  0  0  0  0  0  0  0  0  0
  -30.4157  -25.1096   17.6649 C   0  0  0  0  0  0  0  0  0  0  0  0
  -31.7890  -23.9387   19.4313 C   0  0  0  0  0  0  0  0  0  0  0  0
  -31.0170  -26.4494   18.0856 C   0  0  0  0  0  0  0  0  0  0  0  0
  -32.3904  -25.2786   19.8517 C   0  0  0  0  0  0  0  0  0  0  0  0
  -25.5755  -17.3021   18.2093 C   0  0  0  0  0  0  0  0  0  0  0  0
  -27.4057  -18.7278   17.2206 C   0  0  0  0  0  0  0  0  0  0  0  0
  -27.6940  -17.8365   19.5002 C   0  0  0  0  0  0  0  0  0  0  0  0
  -20.9846  -30.5038   23.6852 C   0  0  1  0  0  0  0  0  0  0  0  0
  -22.7218  -28.4333   21.0153 C   0  0  1  0  0  0  0  0  0  0  0  0
  -31.3691  -23.9436   17.9560 C   0  0  0  0  0  0  0  0  0  0  0  0
  -31.4366  -26.4441   19.5610 C   0  0  0  0  0  0  0  0  0  0  0  0
  -26.1891  -17.5285   19.6037 C   0  0  2  0  0  0  0  0  0  0  0  0
  -33.1809  -29.0173   21.9520 C   0  0  0  0  0  0  0  0  0  0  0  0
  -24.6718  -20.9387   21.1960 C   0  0  0  0  0  0  0  0  0  0  0  0
  -31.7284  -21.4707   17.8440 C   0  0  0  0  0  0  0  0  0  0  0  0
  -30.3851  -22.6092   16.0708 C   0  0  0  0  0  0  0  0  0  0  0  0
  -33.3437  -27.9492   19.0753 C   0  0  0  0  0  0  0  0  0  0  0  0
  -23.3945  -26.2032   25.0072 C   0  0  0  0  0  0  0  0  0  0  0  0
  -24.2562  -23.8614   24.8025 C   0  0  0  0  0  0  0  0  0  0  0  0
  -21.8803  -24.3682   24.2361 C   0  0  0  0  0  0  0  0  0  0  0  0
  -24.9669  -23.2917   18.2207 C   0  0  0  0  0  0  0  0  0  0  0  0
  -32.5202  -27.7461   21.4323 C   0  0  0  0  0  0  0  0  0  0  0  0
  -31.0631  -28.9062   19.6346 C   0  0  0  0  0  0  0  0  0  0  0  0
  -29.4571  -22.3423   18.4214 C   0  0  0  0  0  0  0  0  0  0  0  0
  -29.7092  -28.7919   20.3315 C   0  0  0  0  0  0  0  0  0  1  0  0
  -23.7170  -25.1369   22.6780 C   0  0  1  0  0  0  0  0  0  0  0  0
  -24.3804  -22.1919   20.3852 C   0  0  2  0  0  0  0  0  0  0  0  0
  -30.7253  -22.6121   17.5744 C   0  0  0  0  0  0  0  0  0  0  0  0
  -32.0796  -27.7758   19.9438 C   0  0  2  0  0  0  0  0  0  0  0  0
  -23.3234  -24.9134   24.1655 C   0  0  0  0  0  0  0  0  0  0  0  0
  -25.8304  -15.1246   20.0218 N   0  0  0  0  0  0  0  0  0  0  0  0
  -25.9118  -16.3636   20.5358 N   0  0  0  0  0  0  0  0  0  0  0  0
  -23.5177  -27.3025   21.4972 N   0  0  0  0  0  0  0  0  0  0  0  0
  -27.9238  -18.9532   18.5774 N   0  0  0  0  0  0  0  0  0  0  0  0
  -25.7764  -17.5798   22.5639 N   0  0  0  0  0  0  0  0  0  0  0  0
  -25.0607  -13.3126   23.8582 N   0  0  0  0  0  0  0  0  0  0  0  0
  -21.3177  -29.6085   22.5980 N   0  0  0  0  0  0  0  0  0  0  0  0
  -23.6327  -23.9380   21.8510 N   0  0  0  0  0  0  0  0  0  0  0  0
  -28.7836  -21.1044   18.0973 N   0  0  0  0  0  0  0  0  0  0  0  0
  -25.1743  -22.1318   19.1254 N   0  3  0  0  0  0  0  0  0  0  0  0
  -25.2102  -15.4804   24.5909 O   0  0  0  0  0  0  0  0  0  0  0  0
  -23.6231  -29.9365   22.5974 O   0  0  0  0  0  0  0  0  0  0  0  0
  -21.6369  -25.9923   21.9244 O   0  0  0  0  0  0  0  0  0  0  0  0
  -25.8497  -23.9414   21.1713 O   0  0  0  0  0  0  0  0  0  0  0  0
  -29.0076  -20.2111   20.1965 O   0  0  0  0  0  0  0  0  0  0  0  0
  -24.9752   -8.8360   20.5433 O   0  0  0  0  0  0  0  0  0  0  0  0
  -28.8975  -29.9115   19.9796 O   0  0  0  0  0  0  0  0  0  1  0  0
  -20.7837   -6.4410   23.2077 F   0  0  0  0  0  0  0  0  0  0  0  0
  -24.7790   -8.9778   23.2972 F   0  0  0  0  0  0  0  0  0  0  0  0
  1  2  1  0  0  0  0
  1  5  2  0  0  0  0
  2  6  2  0  0  0  0
  3  8  2  0  0  0  0
  3 15  1  0  0  0  0
  4  9  1  0  0  0  0
  4 15  2  0  0  0  0
  5 17  1  0  0  0  0
  6 19  1  0  0  0  0
  7 10  2  0  0  0  0
  7 18  1  0  0  0  0
  8 21  1  0  0  0  0
  9 21  2  0  0  0  0
 10 22  1  0  0  0  0
 11 12  2  0  0  0  0
 11 23  1  0  0  0  0
 12 24  1  0  0  0  0
 13 20  1  0  0  0  0
 13 22  2  0  0  0  0
 14 24  2  0  0  0  0
 14 25  1  0  0  0  0
 15 26  1  0  0  0  0
 16 26  1  0  0  0  0
 16 27  2  0  0  0  0
 16 28  1  0  0  0  0
 17 19  2  0  0  0  0
 17 33  1  0  0  0  0
 18 20  2  0  0  0  0
 18 34  1  0  0  0  0
 19 46  1  0  0  0  0
 20 35  1  0  0  0  0
 21 84  1  0  0  0  0
 22 85  1  0  0  0  0
 23 25  2  0  0  0  0
 23 84  1  0  0  0  0
 24 86  1  0  0  0  0
 25 87  1  0  0  0  0
 26 69  2  0  0  0  0
 27 70  1  0  0  0  0
 27 73  1  0  0  0  0
 28 74  1  0  0  0  0
 28 79  2  0  0  0  0
 29 47  1  0  0  0  0
 29 75  1  0  0  0  0
 29 80  2  0  0  0  0
 30 64  1  0  0  0  0
 30 71  1  0  0  0  0
 30 81  2  0  0  0  0
 31 65  1  0  0  0  0
 31 76  1  0  0  0  0
 31 82  2  0  0  0  0
 32 72  1  0  0  0  0
 32 77  1  0  0  0  0
 32 83  2  0  0  0  0
 33 36  1  0  0  0  0
 34 47  1  0  0  0  0
 35 71  1  0  0  0  0
 36 38  1  0  0  0  0
 37 43  1  0  0  0  0
 37 44  1  0  0  0  0
 38 46  1  0  0  0  0
 39 41  1  0  0  0  0
 39 48  1  0  0  0  0
 40 42  1  0  0  0  0
 40 48  1  0  0  0  0
 41 49  1  0  0  0  0
 42 49  1  0  0  0  0
 43 50  1  0  0  0  0
 44 72  1  0  0  0  0
 45 50  1  0  0  0  0
 45 72  1  0  0  0  0
 46 75  1  0  0  0  0
 47 71  1  0  0  0  0
 48 66  1  0  0  0  0
 49 67  1  0  0  0  0
 50 70  1  0  0  0  0
 51 60  1  0  0  0  0
 52 65  1  0  0  0  0
 53 66  1  0  0  0  0
 54 66  1  0  0  0  0
 55 67  1  0  0  0  0
 56 68  1  0  0  0  0
 57 68  1  0  0  0  0
 58 68  1  0  0  0  0
 59 78  1  0  0  0  0
 60 67  1  0  0  0  0
 61 63  1  0  0  0  0
 61 67  1  0  0  0  0
 62 66  1  0  0  0  0
 62 77  1  0  0  0  0
 63 85  1  0  0  0  0
 64 68  1  0  0  0  0
 64 76  1  0  0  0  0
 65 78  1  0  0  0  0
 69 70  1  0  0  0  0
M  CHG  1  78   1
M  ISO  4  32 100  63 101  77 100  85 101
M  END
> <Batch ID>
0094

> <Smiles>
CCC(C)(C[101CH2:1][101O:1]c1ccc2c(c1)CN(C(=O)C(NC(=O)C(C)NC)C(C)(C)C)C(C(=O)NC1CCCc3ccccc31)C2)C1CCC(C(C)(C)C[100NH:0][100C:0](=O)N2CCCC(n3nc(-c4ccc(Oc5ccc(F)cc5F)cc4)c(C(N)=O)c3N)C2)CC1

> <Shape>
0.234

> <Color>
0.059

> <Negative vol penalty>
0.000

$$$$

  -OEChem-04052319193D

 82 90  0     1  0  0  0  0  0999 V2000
  -27.8150  -19.3073   29.0921 C   0  0  0  0  0  0  0  0  0  0  0  0
  -27.8427  -18.2187   28.2264 C   0  0  0  0  0  0  0  0  0  0  0  0
  -23.1900   -9.8193   19.9313 C   0  0  0  0  0  0  0  0  0  0  0  0
  -23.5669   -9.9997   22.3109 C   0  0  0  0  0  0  0  0  0  0  0  0
  -27.7051  -19.1009   30.4666 C   0  0  0  0  0  0  0  0  0  0  0  0
  -27.7617  -16.9228   28.7348 C   0  0  0  0  0  0  0  0  0  0  0  0
  -25.0124  -12.1108   26.1286 C   0  0  0  0  0  0  0  0  0  0  0  0
  -22.4235   -8.6728   20.1395 C   0  0  0  0  0  0  0  0  0  0  0  0
  -22.8003   -8.8531   22.5192 C   0  0  0  0  0  0  0  0  0  0  0  0
  -25.5026  -11.0453   25.3749 C   0  0  0  0  0  0  0  0  0  0  0  0
  -21.2419   -5.7695   23.6472 C   0  0  0  0  0  0  0  0  0  0  0  0
  -21.7377   -4.8096   24.5294 C   0  0  0  0  0  0  0  0  0  0  0  0
  -25.5913   -9.6858   27.3656 C   0  0  0  0  0  0  0  0  0  0  0  0
  -23.6971   -4.5454   23.1410 C   0  0  0  0  0  0  0  0  0  0  0  0
  -30.7176   -9.6656   24.2775 C   0  0  0  0  0  0  0  0  0  0  0  0
  -30.1016   -9.6283   26.3931 C   0  0  0  0  0  0  0  0  0  0  0  0
  -23.7618  -10.4828   21.0169 C   0  0  0  0  0  0  0  0  0  0  0  0
  -24.1009  -12.9994   20.7733 C   0  0  0  0  0  0  0  0  0  0  0  0
  -27.6130  -17.8021   30.9914 C   0  0  0  0  0  0  0  0  0  0  0  0
  -24.8181  -11.9751   27.5107 C   0  0  0  0  0  0  0  0  0  0  0  0
  -27.6519  -16.6987   30.1177 C   0  0  0  0  0  0  0  0  0  0  0  0
  -25.0962  -10.7503   28.1342 C   0  0  0  0  0  0  0  0  0  0  0  0
  -22.2286   -8.1897   21.4335 C   0  0  0  0  0  0  0  0  0  0  0  0
  -25.7948   -9.8334   25.9938 C   0  0  0  0  0  0  0  0  0  0  0  0
  -21.9737   -6.1173   22.5117 C   0  0  0  0  0  0  0  0  0  0  0  0
  -22.9653   -4.1976   24.2764 C   0  0  0  0  0  0  0  0  0  0  0  0
  -23.2013   -5.5053   22.2586 C   0  0  0  0  0  0  0  0  0  0  0  0
  -24.5542  -11.6670   20.8024 C   0  0  0  0  0  0  0  0  0  0  0  0
  -31.2999  -10.6880   24.9890 C   0  0  0  0  0  0  0  0  0  0  0  0
  -25.2323  -13.7420   20.5387 C   0  0  0  0  0  0  0  0  0  0  0  0
  -22.7756  -13.5195   20.9433 C   0  0  0  0  0  0  0  0  0  0  0  0
  -26.0210  -13.3832   30.0941 C   0  0  0  0  0  0  0  0  0  0  0  0
  -23.7919  -11.5950   31.6290 C   0  0  0  0  0  0  0  0  0  0  0  0
  -21.7907   -8.8306   31.6251 C   0  0  0  0  0  0  0  0  0  0  0  0
  -31.0463  -12.7515   21.5715 C   0  0  0  0  0  0  0  0  0  0  0  0
  -27.5433  -17.6271   32.4878 C   0  0  0  0  0  0  0  0  0  0  0  0
  -24.2634  -13.1256   28.3051 C   0  0  0  0  0  0  0  0  0  0  0  0
  -24.8859  -10.5468   29.6116 C   0  0  0  0  0  0  0  0  0  0  0  0
  -27.0851  -16.2358   32.9176 C   0  0  0  0  0  0  0  0  0  0  0  0
  -29.5209  -13.4690   18.4354 C   0  0  0  0  0  0  0  0  0  0  0  0
  -27.8295  -15.1618   32.1307 C   0  0  0  0  0  0  0  0  0  0  0  0
  -28.0341  -13.2087   18.6838 C   0  0  0  0  0  0  0  0  0  0  0  0
  -30.4017  -12.4795   19.1951 C   0  0  0  0  0  0  0  0  0  0  0  0
  -28.6471  -12.1369   20.8916 C   0  0  0  0  0  0  0  0  0  0  0  0
  -27.5414  -15.2787   30.6291 C   0  0  1  0  0  0  0  0  0  0  0  0
  -24.5903  -13.0372   29.7926 C   0  0  1  0  0  0  0  0  0  0  0  0
  -27.7201  -13.1448   20.1906 C   0  0  2  0  0  0  0  0  0  0  0  0
  -20.1072   -7.6155   33.0345 C   0  0  0  0  0  0  0  0  0  0  0  0
  -27.3182   -6.6728   23.5430 C   0  0  0  0  0  0  0  0  0  0  0  0
  -26.0411  -10.5357   33.3979 C   0  0  0  0  0  0  0  0  0  0  0  0
  -24.5148   -8.6829   34.1092 C   0  0  0  0  0  0  0  0  0  0  0  0
  -23.9155  -11.0520   34.6103 C   0  0  0  0  0  0  0  0  0  0  0  0
  -19.6741   -9.1548   29.5821 C   0  0  0  0  0  0  0  0  0  0  0  0
  -32.2256  -11.7227   24.5035 C   0  0  0  0  0  0  0  0  0  0  0  0
  -29.0959   -7.7828   24.9201 C   0  0  0  0  0  0  0  0  0  0  0  0
  -31.5350  -13.0026   23.9916 C   0  0  0  0  0  0  0  0  0  0  0  0
  -27.0539   -9.1126   24.1094 C   0  0  0  0  0  0  0  0  0  1  0  0
  -23.7609  -10.2110   32.2310 C   0  0  1  0  0  0  0  0  0  0  0  0
  -20.3170   -8.6535   31.9431 C   0  0  2  0  0  0  0  0  0  0  0  0
  -28.0572   -7.9918   23.7973 C   0  0  2  0  0  0  0  0  0  0  0  0
  -24.5640  -10.1245   33.5596 C   0  0  0  0  0  0  0  0  0  0  0  0
  -30.9126  -10.6590   26.3053 N   0  0  0  0  0  0  0  0  0  0  0  0
  -25.8708  -11.5657   20.6020 N   0  0  0  0  0  0  0  0  0  0  0  0
  -29.9532   -8.9952   25.1904 N   0  0  0  0  0  0  0  0  0  0  0  0
  -26.2546  -12.8441   20.4448 N   0  0  0  0  0  0  0  0  0  0  0  0
  -24.3477  -11.7035   30.3463 N   0  0  0  0  0  0  0  0  0  0  0  0
  -30.0542  -12.4684   20.6182 N   0  0  0  0  0  0  0  0  0  0  0  0
  -25.4424  -15.0688   20.4056 N   0  0  0  0  0  0  0  0  0  0  0  0
  -21.7287  -12.6173   21.1768 N   0  0  0  0  0  0  0  0  0  0  0  0
  -26.2389  -14.7289   30.3201 N   0  0  0  0  0  0  0  0  0  0  0  0
  -22.3524   -9.8533   32.3598 N   0  0  0  0  0  0  0  0  0  0  0  0
  -30.6313  -12.7262   22.8973 N   0  0  0  0  0  0  0  0  0  0  0  0
  -19.5740   -8.2147   30.7281 N   0  3  0  0  0  0  0  0  0  0  0  0
  -22.5245  -14.7465   20.8735 O   0  0  0  0  0  0  0  0  0  0  0  0
  -26.8646  -12.4948   30.1211 O   0  0  0  0  0  0  0  0  0  0  0  0
  -23.3332  -12.5438   32.2701 O   0  0  0  0  0  0  0  0  0  0  0  0
  -22.3851   -8.1293   30.8094 O   0  0  0  0  0  0  0  0  0  0  0  0
  -32.2141  -13.0130   21.2635 O   0  0  0  0  0  0  0  0  0  0  0  0
  -21.4805   -7.0710   21.6371 O   0  0  0  0  0  0  0  0  0  0  0  0
  -26.2739   -8.7919   25.2606 O   0  0  0  0  0  0  0  0  0  1  0  0
  -23.4420   -3.2770   25.1246 F   0  0  0  0  0  0  0  0  0  0  0  0
  -23.9095   -5.8361   21.1701 F   0  0  0  0  0  0  0  0  0  0  0  0
  1  2  1  0  0  0  0
  1  5  2  0  0  0  0
  2  6  2  0  0  0  0
  3  8  2  0  0  0  0
  3 17  1  0  0  0  0
  4  9  1  0  0  0  0
  4 17  2  0  0  0  0
  5 19  1  0  0  0  0
  6 21  1  0  0  0  0
  7 10  2  0  0  0  0
  7 20  1  0  0  0  0
  8 23  1  0  0  0  0
  9 23  2  0  0  0  0
 10 24  1  0  0  0  0
 11 12  2  0  0  0  0
 11 25  1  0  0  0  0
 12 26  1  0  0  0  0
 13 22  1  0  0  0  0
 13 24  2  0  0  0  0
 14 26  2  0  0  0  0
 14 27  1  0  0  0  0
 15 29  2  0  0  0  0
 15 64  1  0  0  0  0
 16 62  2  0  0  0  0
 16 64  1  0  0  0  0
 17 28  1  0  0  0  0
 18 28  1  0  0  0  0
 18 30  2  0  0  0  0
 18 31  1  0  0  0  0
 19 21  2  0  0  0  0
 19 36  1  0  0  0  0
 20 22  2  0  0  0  0
 20 37  1  0  0  0  0
 21 45  1  0  0  0  0
 22 38  1  0  0  0  0
 23 79  1  0  0  0  0
 24 80  1  0  0  0  0
 25 27  2  0  0  0  0
 25 79  1  0  0  0  0
 26 81  1  0  0  0  0
 27 82  1  0  0  0  0
 28 63  2  0  0  0  0
 29 54  1  0  0  0  0
 29 62  1  0  0  0  0
 30 65  1  0  0  0  0
 30 68  1  0  0  0  0
 31 69  1  0  0  0  0
 31 74  2  0  0  0  0
 32 46  1  0  0  0  0
 32 70  1  0  0  0  0
 32 75  2  0  0  0  0
 33 58  1  0  0  0  0
 33 66  1  0  0  0  0
 33 76  2  0  0  0  0
 34 59  1  0  0  0  0
 34 71  1  0  0  0  0
 34 77  2  0  0  0  0
 35 67  1  0  0  0  0
 35 72  1  0  0  0  0
 35 78  2  0  0  0  0
 36 39  1  0  0  0  0
 37 46  1  0  0  0  0
 38 66  1  0  0  0  0
 39 41  1  0  0  0  0
 40 42  1  0  0  0  0
 40 43  1  0  0  0  0
 41 45  1  0  0  0  0
 42 47  1  0  0  0  0
 43 67  1  0  0  0  0
 44 47  1  0  0  0  0
 44 67  1  0  0  0  0
 45 70  1  0  0  0  0
 46 66  1  0  0  0  0
 47 65  1  0  0  0  0
 48 59  1  0  0  0  0
 49 60  1  0  0  0  0
 50 61  1  0  0  0  0
 51 61  1  0  0  0  0
 52 61  1  0  0  0  0
 53 73  1  0  0  0  0
 54 56  1  0  0  0  0
 55 60  1  0  0  0  0
 55 64  1  0  0  0  0
 56 72  1  0  0  0  0
 57 60  1  0  0  0  0
 57 80  1  0  0  0  0
 58 61  1  0  0  0  0
 58 71  1  0  0  0  0
 59 73  1  0  0  0  0
 63 65  1  0  0  0  0
M  CHG  1  73   1
M  ISO  4  35 100  57 101  72 100  80 101
M  END
> <Batch ID>
0094

> <Smiles>
CNC(C)C(=O)NC(C(=O)N1Cc2cc([101O:1][101CH2:1]C(C)Cn3cnc(CC[100NH:0][100C:0](=O)N4CCCC(n5nc(-c6ccc(Oc7ccc(F)cc7F)cc6)c(C(N)=O)c5N)C4)c3)ccc2CC1C(=O)NC1CCCc2ccccc21)C(C)(C)C

> <Shape>
0.139

> <Color>
0.178

> <Negative vol penalty>
0.000

$$$$

  -OEChem-04052319193D

 87 95  0     1  0  0  0  0  0999 V2000
  -28.2633  -22.7089   17.9803 C   0  0  0  0  0  0  0  0  0  0  0  0
  -27.1362  -22.9527   18.7584 C   0  0  0  0  0  0  0  0  0  0  0  0
  -27.0801  -13.4295   20.3160 C   0  0  0  0  0  0  0  0  0  0  0  0
  -25.0043  -13.9855   21.4200 C   0  0  0  0  0  0  0  0  0  0  0  0
  -29.4415  -23.4143   18.2217 C   0  0  0  0  0  0  0  0  0  0  0  0
  -27.1868  -23.9014   19.7791 C   0  0  0  0  0  0  0  0  0  0  0  0
  -23.1224  -26.9218   19.8277 C   0  0  0  0  0  0  0  0  0  0  0  0
  -26.8486  -12.0763   20.5622 C   0  0  0  0  0  0  0  0  0  0  0  0
  -24.7728  -12.6322   21.6662 C   0  0  0  0  0  0  0  0  0  0  0  0
  -21.9506  -26.4036   20.3773 C   0  0  0  0  0  0  0  0  0  0  0  0
  -23.6576   -9.9447   19.9474 C   0  0  0  0  0  0  0  0  0  0  0  0
  -22.3767   -9.4520   19.6981 C   0  0  0  0  0  0  0  0  0  0  0  0
  -22.3967  -27.5887   22.4305 C   0  0  0  0  0  0  0  0  0  0  0  0
  -22.6668  -23.5520   24.0133 C   0  0  0  0  0  0  0  0  0  0  0  0
  -21.1520  -21.7771   23.4305 C   0  0  0  0  0  0  0  0  0  0  0  0
  -22.1747   -8.8039   22.0168 C   0  0  0  0  0  0  0  0  0  0  0  0
  -26.1579  -14.3842   20.7449 C   0  0  0  0  0  0  0  0  0  0  0  0
  -25.9949  -16.5225   19.3634 C   0  0  0  0  0  0  0  0  0  0  0  0
  -29.5038  -24.3790   19.2396 C   0  0  0  0  0  0  0  0  0  0  0  0
  -23.9472  -27.7701   20.5804 C   0  0  0  0  0  0  0  0  0  0  0  0
  -28.3673  -24.6194   20.0352 C   0  0  0  0  0  0  0  0  0  0  0  0
  -23.5772  -28.1184   21.8872 C   0  0  0  0  0  0  0  0  0  0  0  0
  -21.3673  -23.0852   23.8498 C   0  0  0  0  0  0  0  0  0  0  0  0
  -25.6950  -11.6776   21.2373 C   0  0  0  0  0  0  0  0  0  0  0  0
  -21.5890  -26.7347   21.6799 C   0  0  0  0  0  0  0  0  0  0  0  0
  -24.1971   -9.8669   21.2314 C   0  0  0  0  0  0  0  0  0  0  0  0
  -21.6352   -8.8816   20.7328 C   0  0  0  0  0  0  0  0  0  0  0  0
  -23.4557   -9.2965   22.2661 C   0  0  0  0  0  0  0  0  0  0  0  0
  -26.3968  -15.7823   20.4914 C   0  0  0  0  0  0  0  0  0  0  0  0
  -23.7083  -22.6779   23.7465 C   0  0  0  0  0  0  0  0  0  0  0  0
  -22.2613  -20.9825   23.1897 C   0  0  0  0  0  0  0  0  0  0  0  0
  -26.4609  -17.7923   19.6020 C   0  0  0  0  0  0  0  0  0  0  0  0
  -25.2654  -16.1001   18.2036 C   0  0  0  0  0  0  0  0  0  0  0  0
  -26.9426  -27.6301   21.6347 C   0  0  0  0  0  0  0  0  0  0  0  0
  -26.3377  -30.6716   22.5864 C   0  0  0  0  0  0  0  0  0  0  0  0
  -24.0307  -33.0267   23.4685 C   0  0  0  0  0  0  0  0  0  0  0  0
  -27.7773  -20.7758   24.6237 C   0  0  0  0  0  0  0  0  0  0  0  0
  -30.8134  -25.0825   19.4938 C   0  0  0  0  0  0  0  0  0  0  0  0
  -25.1942  -28.3420   19.9637 C   0  0  0  0  0  0  0  0  0  0  0  0
  -24.4176  -29.0412   22.7301 C   0  0  0  0  0  0  0  0  0  0  0  0
  -30.6740  -26.3384   20.3502 C   0  0  0  0  0  0  0  0  0  0  0  0
  -29.9565  -20.1309   21.8829 C   0  0  0  0  0  0  0  0  0  0  0  0
  -29.7918  -26.0620   21.5635 C   0  0  0  0  0  0  0  0  0  0  0  0
  -29.2550  -19.0101   21.1137 C   0  0  0  0  0  0  0  0  0  0  0  0
  -29.7736  -19.9803   23.3915 C   0  0  0  0  0  0  0  0  0  0  0  0
  -27.6714  -18.7357   23.0670 C   0  0  0  0  0  0  0  0  0  0  0  0
  -28.3757  -25.6584   21.1355 C   0  0  1  0  0  0  0  0  0  0  0  0
  -26.2232  -28.7859   20.9989 C   0  0  1  0  0  0  0  0  0  0  0  0
  -27.7805  -18.8758   21.5390 C   0  0  2  0  0  0  0  0  0  0  0  0
  -19.3508  -23.4573   25.2939 C   0  0  0  0  0  0  0  0  0  0  0  0
  -22.6322  -18.5507   23.7395 C   0  0  0  0  0  0  0  0  0  0  0  0
  -22.6608  -19.3188   21.3386 C   0  0  0  0  0  0  0  0  0  0  0  0
  -23.8412  -35.4095   24.2327 C   0  0  0  0  0  0  0  0  0  0  0  0
  -27.2468  -29.8455   25.3795 C   0  0  0  0  0  0  0  0  0  0  0  0
  -26.1596  -31.9174   26.2703 C   0  0  0  0  0  0  0  0  0  0  0  0
  -28.0447  -32.0996   24.6468 C   0  0  0  0  0  0  0  0  0  0  0  0
  -22.4444  -33.7859   21.0880 C   0  0  0  0  0  0  0  0  0  0  0  0
  -25.1161  -23.1439   23.9127 C   0  0  0  0  0  0  0  0  0  0  0  0
  -25.7005  -22.9170   25.3206 C   0  0  0  0  0  0  0  0  0  0  0  0
  -19.2973  -24.2331   22.8933 C   0  0  0  0  0  0  0  0  0  0  0  0
  -25.6898  -21.4600   25.7784 C   0  0  0  0  0  0  0  0  0  0  0  0
  -20.0203  -24.9489   21.7562 C   0  0  0  0  0  0  0  0  0  1  0  0
  -20.1876  -24.0003   24.1292 C   0  0  2  0  0  0  0  0  0  0  0  0
  -22.0673  -19.5740   22.7366 C   0  0  0  0  0  0  0  0  0  0  0  0
  -25.7835  -31.3103   23.8370 C   0  0  1  0  0  0  0  0  0  0  0  0
  -23.8494  -34.4706   23.0363 C   0  0  2  0  0  0  0  0  0  0  0  0
  -26.7936  -31.2743   25.0185 C   0  0  0  0  0  0  0  0  0  0  0  0
  -27.0667  -16.5204   21.3805 N   0  0  0  0  0  0  0  0  0  0  0  0
  -23.5384  -21.4007   23.3375 N   0  0  0  0  0  0  0  0  0  0  0  0
  -27.0894  -17.7375   20.8112 N   0  0  0  0  0  0  0  0  0  0  0  0
  -25.6308  -29.5696   22.0847 N   0  0  0  0  0  0  0  0  0  0  0  0
  -28.3531  -19.8594   23.7283 N   0  0  0  0  0  0  0  0  0  0  0  0
  -26.3903  -18.9391   18.8934 N   0  0  0  0  0  0  0  0  0  0  0  0
  -24.8625  -14.7603   18.1190 N   0  0  0  0  0  0  0  0  0  0  0  0
  -27.6165  -26.8243   20.7370 N   0  0  0  0  0  0  0  0  0  0  0  0
  -25.3577  -32.6525   23.4556 N   0  0  0  0  0  0  0  0  0  0  0  0
  -26.4245  -20.5939   24.8835 N   0  0  0  0  0  0  0  0  0  0  0  0
  -22.5629  -34.6339   22.3020 N   0  3  0  0  0  0  0  0  0  0  0  0
  -24.9936  -16.8835   17.2623 O   0  0  0  0  0  0  0  0  0  0  0  0
  -26.8913  -27.4814   22.8500 O   0  0  0  0  0  0  0  0  0  0  0  0
  -27.3561  -31.1379   22.0697 O   0  0  0  0  0  0  0  0  0  0  0  0
  -23.0895  -32.3043   23.7892 O   0  0  0  0  0  0  0  0  0  0  0  0
  -28.4199  -21.6917   25.1482 O   0  0  0  0  0  0  0  0  0  0  0  0
  -25.4687  -10.3571   21.4775 O   0  0  0  0  0  0  0  0  0  0  0  0
  -20.4461  -26.2298   22.2190 O   0  0  0  0  0  0  0  0  0  1  0  0
  -20.4046   -8.4100   20.4936 F   0  0  0  0  0  0  0  0  0  0  0  0
  -23.9682   -9.2200   23.5019 F   0  0  0  0  0  0  0  0  0  0  0  0
  1  2  1  0  0  0  0
  1  5  2  0  0  0  0
  2  6  2  0  0  0  0
  3  8  2  0  0  0  0
  3 17  1  0  0  0  0
  4  9  1  0  0  0  0
  4 17  2  0  0  0  0
  5 19  1  0  0  0  0
  6 21  1  0  0  0  0
  7 10  2  0  0  0  0
  7 20  1  0  0  0  0
  8 24  1  0  0  0  0
  9 24  2  0  0  0  0
 10 25  1  0  0  0  0
 11 12  2  0  0  0  0
 11 26  1  0  0  0  0
 12 27  1  0  0  0  0
 13 22  1  0  0  0  0
 13 25  2  0  0  0  0
 14 23  1  0  0  0  0
 14 30  2  0  0  0  0
 15 23  2  0  0  0  0
 15 31  1  0  0  0  0
 16 27  2  0  0  0  0
 16 28  1  0  0  0  0
 17 29  1  0  0  0  0
 18 29  1  0  0  0  0
 18 32  2  0  0  0  0
 18 33  1  0  0  0  0
 19 21  2  0  0  0  0
 19 38  1  0  0  0  0
 20 22  2  0  0  0  0
 20 39  1  0  0  0  0
 21 47  1  0  0  0  0
 22 40  1  0  0  0  0
 23 63  1  0  0  0  0
 24 84  1  0  0  0  0
 25 85  1  0  0  0  0
 26 28  2  0  0  0  0
 26 84  1  0  0  0  0
 27 86  1  0  0  0  0
 28 87  1  0  0  0  0
 29 68  2  0  0  0  0
 30 58  1  0  0  0  0
 30 69  1  0  0  0  0
 31 64  1  0  0  0  0
 31 69  2  0  0  0  0
 32 70  1  0  0  0  0
 32 73  1  0  0  0  0
 33 74  1  0  0  0  0
 33 79  2  0  0  0  0
 34 48  1  0  0  0  0
 34 75  1  0  0  0  0
 34 80  2  0  0  0  0
 35 65  1  0  0  0  0
 35 71  1  0  0  0  0
 35 81  2  0  0  0  0
 36 66  1  0  0  0  0
 36 76  1  0  0  0  0
 36 82  2  0  0  0  0
 37 72  1  0  0  0  0
 37 77  1  0  0  0  0
 37 83  2  0  0  0  0
 38 41  1  0  0  0  0
 39 48  1  0  0  0  0
 40 71  1  0  0  0  0
 41 43  1  0  0  0  0
 42 44  1  0  0  0  0
 42 45  1  0  0  0  0
 43 47  1  0  0  0  0
 44 49  1  0  0  0  0
 45 72  1  0  0  0  0
 46 49  1  0  0  0  0
 46 72  1  0  0  0  0
 47 75  1  0  0  0  0
 48 71  1  0  0  0  0
 49 70  1  0  0  0  0
 50 63  1  0  0  0  0
 51 64  1  0  0  0  0
 52 64  1  0  0  0  0
 53 66  1  0  0  0  0
 54 67  1  0  0  0  0
 55 67  1  0  0  0  0
 56 67  1  0  0  0  0
 57 78  1  0  0  0  0
 58 59  1  0  0  0  0
 59 61  1  0  0  0  0
 60 62  1  0  0  0  0
 60 63  1  0  0  0  0
 61 77  1  0  0  0  0
 62 85  1  0  0  0  0
 65 67  1  0  0  0  0
 65 76  1  0  0  0  0
 66 78  1  0  0  0  0
 68 70  1  0  0  0  0
M  CHG  1  78   1
M  ISO  4  37 100  62 101  77 100  85 101
M  END
> <Batch ID>
0094

> <Smiles>
CNC(C)C(=O)NC(C(=O)N1Cc2cc([101O:1][101CH2:1]CC(C)c3cc(CCC[100NH:0][100C:0](=O)N4CCCC(n5nc(-c6ccc(Oc7ccc(F)cc7F)cc6)c(C(N)=O)c5N)C4)nc(C(C)C)c3)ccc2CC1C(=O)NC1CCCc2ccccc21)C(C)(C)C

> <Shape>
0.246

> <Color>
0.061

> <Negative vol penalty>
0.000

$$$$

  -OEChem-04052319193D

 89 97  0     1  0  0  0  0  0999 V2000
  -28.4361  -33.3330   10.9576 C   0  0  0  0  0  0  0  0  0  0  0  0
  -28.3575  -32.1053   10.3080 C   0  0  0  0  0  0  0  0  0  0  0  0
  -22.6929  -10.1939   20.1653 C   0  0  0  0  0  0  0  0  0  0  0  0
  -24.3936   -9.4333   21.7036 C   0  0  0  0  0  0  0  0  0  0  0  0
  -29.4416  -33.5604   11.8964 C   0  0  0  0  0  0  0  0  0  0  0  0
  -29.2850  -31.1047   10.5960 C   0  0  0  0  0  0  0  0  0  0  0  0
  -27.1615  -24.6795   13.0657 C   0  0  0  0  0  0  0  0  0  0  0  0
  -21.9883   -9.0055   20.3568 C   0  0  0  0  0  0  0  0  0  0  0  0
  -23.6890   -8.2449   21.8951 C   0  0  0  0  0  0  0  0  0  0  0  0
  -26.8203  -23.3551   13.3407 C   0  0  0  0  0  0  0  0  0  0  0  0
  -20.9985   -7.2021   23.6542 C   0  0  0  0  0  0  0  0  0  0  0  0
  -20.8499   -6.7422   24.9626 C   0  0  0  0  0  0  0  0  0  0  0  0
  -29.1620  -22.7749   13.5066 C   0  0  0  0  0  0  0  0  0  0  0  0
  -26.2748  -19.1936   19.1126 C   0  0  0  0  0  0  0  0  0  0  0  0
  -22.0074   -4.7038   24.3774 C   0  0  0  0  0  0  0  0  0  0  0  0
  -27.3373  -17.4247   18.2115 C   0  0  0  0  0  0  0  0  0  0  0  0
  -23.8957  -10.4078   20.8387 C   0  0  0  0  0  0  0  0  0  0  0  0
  -24.1744  -12.9427   20.9041 C   0  0  0  0  0  0  0  0  0  0  0  0
  -30.3760  -32.5587   12.2031 C   0  0  0  0  0  0  0  0  0  0  0  0
  -28.5057  -25.0603   13.0252 C   0  0  0  0  0  0  0  0  0  0  0  0
  -30.3047  -31.3194   11.5388 C   0  0  0  0  0  0  0  0  0  0  0  0
  -29.5096  -24.1026   13.2439 C   0  0  0  0  0  0  0  0  0  0  0  0
  -26.2253  -18.2265   18.0784 C   0  0  0  0  0  0  0  0  0  0  0  0
  -22.4862   -8.0310   21.2217 C   0  0  0  0  0  0  0  0  0  0  0  0
  -27.8181  -22.4051   13.5603 C   0  0  0  0  0  0  0  0  0  0  0  0
  -21.6514   -6.4129   22.7073 C   0  0  0  0  0  0  0  0  0  0  0  0
  -21.3544   -5.4931   25.3242 C   0  0  0  0  0  0  0  0  0  0  0  0
  -22.1559   -5.1638   23.0690 C   0  0  0  0  0  0  0  0  0  0  0  0
  -24.6243  -11.6350   20.6409 C   0  0  0  0  0  0  0  0  0  0  0  0
  -27.4158  -18.9533   19.8460 C   0  0  0  0  0  0  0  0  0  0  0  0
  -25.2305  -13.7468   20.5510 C   0  0  0  0  0  0  0  0  0  0  0  0
  -22.9145  -13.3906   21.4215 C   0  0  0  0  0  0  0  0  0  0  0  0
  -30.9906  -27.8282   12.5355 C   0  0  0  0  0  0  0  0  0  0  0  0
  -32.0223  -26.1044   14.8538 C   0  0  0  0  0  0  0  0  0  0  0  0
  -32.5924  -24.1994   17.6257 C   0  0  0  0  0  0  0  0  0  0  0  0
  -30.8424  -14.5559   20.9616 C   0  0  0  0  0  0  0  0  0  0  0  0
  -31.4736  -32.8675   13.1904 C   0  0  0  0  0  0  0  0  0  0  0  0
  -28.9210  -26.4626   12.6719 C   0  0  0  0  0  0  0  0  0  0  0  0
  -30.9430  -24.5505   13.1564 C   0  0  0  0  0  0  0  0  0  0  0  0
  -32.1906  -31.6251   13.7124 C   0  0  0  0  0  0  0  0  0  0  0  0
  -29.4934  -12.7053   18.0535 C   0  0  0  0  0  0  0  0  0  0  0  0
  -32.5411  -30.6878   12.5611 C   0  0  0  0  0  0  0  0  0  0  0  0
  -28.0952  -12.3129   18.5278 C   0  0  0  0  0  0  0  0  0  0  0  0
  -30.4679  -12.8492   19.2184 C   0  0  0  0  0  0  0  0  0  0  0  0
  -28.6070  -13.3929   20.7531 C   0  0  0  0  0  0  0  0  0  0  0  0
  -31.2773  -30.2005   11.8421 C   0  0  1  0  0  0  0  0  0  0  0  0
  -30.1836  -26.9249   13.4211 C   0  0  1  0  0  0  0  0  0  0  0  0
  -27.5892  -13.2851   19.6077 C   0  0  2  0  0  0  0  0  0  0  0  0
  -22.1313  -16.0516   18.4508 C   0  0  0  0  0  0  0  0  0  0  0  0
  -27.0032  -19.5898   22.2498 C   0  0  0  0  0  0  0  0  0  0  0  0
  -28.2998  -21.1378   20.7407 C   0  0  0  0  0  0  0  0  0  0  0  0
  -33.6920  -23.4596   19.7566 C   0  0  0  0  0  0  0  0  0  0  0  0
  -33.9776  -24.7471   12.9463 C   0  0  0  0  0  0  0  0  0  0  0  0
  -35.0581  -23.6716   14.9321 C   0  0  0  0  0  0  0  0  0  0  0  0
  -35.0504  -26.1563   14.7120 C   0  0  0  0  0  0  0  0  0  0  0  0
  -31.2615  -16.6746   22.1510 C   0  0  0  0  0  0  0  0  0  0  0  0
  -30.8683  -25.9614   19.2633 C   0  0  0  0  0  0  0  0  0  0  0  0
  -23.5386  -16.3113   17.9351 C   0  0  0  0  0  0  0  0  0  0  0  0
  -26.3622  -19.6501   15.3722 C   0  0  0  0  0  0  0  0  0  0  0  0
  -23.7568  -17.7982   17.6337 C   0  0  0  0  0  0  0  0  0  0  0  0
  -25.0578  -19.3523   16.1172 C   0  0  0  0  0  0  0  0  0  0  0  0
  -29.2927  -17.2913   19.7536 C   0  0  0  0  0  0  0  0  0  0  0  0
  -29.1087  -16.3989   20.9783 C   0  0  0  0  0  0  0  0  0  0  0  0
  -26.2405  -20.8997   14.5103 C   0  0  0  0  0  0  0  0  0  1  0  0
  -25.1441  -18.0963   17.0168 C   0  0  1  0  0  0  0  0  0  0  0  0
  -27.9487  -19.6603   21.0289 C   0  0  0  0  0  0  0  0  0  0  0  0
  -32.8998  -24.9559   15.2831 C   0  0  1  0  0  0  0  0  0  0  0  0
  -32.9374  -24.5779   19.0548 C   0  0  2  0  0  0  0  0  0  0  0  0
  -34.2187  -24.8792   14.4633 C   0  0  0  0  0  0  0  0  0  0  0  0
  -25.8692  -11.6055   20.1578 N   0  0  0  0  0  0  0  0  0  0  0  0
  -28.0539  -17.8760   19.2890 N   0  0  0  0  0  0  0  0  0  0  0  0
  -26.2105  -12.9046   20.1145 N   0  0  0  0  0  0  0  0  0  0  0  0
  -31.1051  -25.8501   13.8269 N   0  0  0  0  0  0  0  0  0  0  0  0
  -29.9433  -13.7447   20.2500 N   0  0  0  0  0  0  0  0  0  0  0  0
  -25.4071  -15.0849   20.5744 N   0  0  0  0  0  0  0  0  0  0  0  0
  -22.7705  -13.5209   22.8096 N   0  0  0  0  0  0  0  0  0  0  0  0
  -30.6285  -29.1596   12.6102 N   0  0  0  0  0  0  0  0  0  0  0  0
  -33.0978  -25.1085   16.7205 N   0  0  0  0  0  0  0  0  0  0  0  0
  -30.3637  -15.7932   21.4183 N   0  0  0  0  0  0  0  0  0  0  0  0
  -31.6965  -24.8652   19.8285 N   0  3  0  0  0  0  0  0  0  0  0  0
  -21.9398  -13.6512   20.6761 O   0  0  0  0  0  0  0  0  0  0  0  0
  -31.8781  -27.3535   11.8363 O   0  0  0  0  0  0  0  0  0  0  0  0
  -32.1483  -27.1998   15.4083 O   0  0  0  0  0  0  0  0  0  0  0  0
  -31.9431  -23.1956   17.3407 O   0  0  0  0  0  0  0  0  0  0  0  0
  -32.0094  -14.1990   21.1681 O   0  0  0  0  0  0  0  0  0  0  0  0
  -21.7988   -6.8713   21.4089 O   0  0  0  0  0  0  0  0  0  0  0  0
  -27.4778  -21.1149   13.8328 O   0  0  0  0  0  0  0  0  0  1  0  0
  -21.2130   -5.0522   26.5811 F   0  0  0  0  0  0  0  0  0  0  0  0
  -22.7852   -4.4016   22.1641 F   0  0  0  0  0  0  0  0  0  0  0  0
  1  2  1  0  0  0  0
  1  5  2  0  0  0  0
  2  6  2  0  0  0  0
  3  8  2  0  0  0  0
  3 17  1  0  0  0  0
  4  9  1  0  0  0  0
  4 17  2  0  0  0  0
  5 19  1  0  0  0  0
  6 21  1  0  0  0  0
  7 10  2  0  0  0  0
  7 20  1  0  0  0  0
  8 24  1  0  0  0  0
  9 24  2  0  0  0  0
 10 25  1  0  0  0  0
 11 12  2  0  0  0  0
 11 26  1  0  0  0  0
 12 27  1  0  0  0  0
 13 22  1  0  0  0  0
 13 25  2  0  0  0  0
 14 23  1  0  0  0  0
 14 30  2  0  0  0  0
 15 27  2  0  0  0  0
 15 28  1  0  0  0  0
 16 23  2  0  0  0  0
 16 71  1  0  0  0  0
 17 29  1  0  0  0  0
 18 29  1  0  0  0  0
 18 31  2  0  0  0  0
 18 32  1  0  0  0  0
 19 21  2  0  0  0  0
 19 37  1  0  0  0  0
 20 22  2  0  0  0  0
 20 38  1  0  0  0  0
 21 46  1  0  0  0  0
 22 39  1  0  0  0  0
 23 65  1  0  0  0  0
 24 86  1  0  0  0  0
 25 87  1  0  0  0  0
 26 28  2  0  0  0  0
 26 86  1  0  0  0  0
 27 88  1  0  0  0  0
 28 89  1  0  0  0  0
 29 70  2  0  0  0  0
 30 66  1  0  0  0  0
 30 71  1  0  0  0  0
 31 72  1  0  0  0  0
 31 75  1  0  0  0  0
 32 76  1  0  0  0  0
 32 81  2  0  0  0  0
 33 47  1  0  0  0  0
 33 77  1  0  0  0  0
 33 82  2  0  0  0  0
 34 67  1  0  0  0  0
 34 73  1  0  0  0  0
 34 83  2  0  0  0  0
 35 68  1  0  0  0  0
 35 78  1  0  0  0  0
 35 84  2  0  0  0  0
 36 74  1  0  0  0  0
 36 79  1  0  0  0  0
 36 85  2  0  0  0  0
 37 40  1  0  0  0  0
 38 47  1  0  0  0  0
 39 73  1  0  0  0  0
 40 42  1  0  0  0  0
 41 43  1  0  0  0  0
 41 44  1  0  0  0  0
 42 46  1  0  0  0  0
 43 48  1  0  0  0  0
 44 74  1  0  0  0  0
 45 48  1  0  0  0  0
 45 74  1  0  0  0  0
 46 77  1  0  0  0  0
 47 73  1  0  0  0  0
 48 72  1  0  0  0  0
 49 58  1  0  0  0  0
 50 66  1  0  0  0  0
 51 66  1  0  0  0  0
 52 68  1  0  0  0  0
 53 69  1  0  0  0  0
 54 69  1  0  0  0  0
 55 69  1  0  0  0  0
 56 79  1  0  0  0  0
 57 80  1  0  0  0  0
 58 60  1  0  0  0  0
 59 61  1  0  0  0  0
 59 64  1  0  0  0  0
 60 65  1  0  0  0  0
 61 65  1  0  0  0  0
 62 63  1  0  0  0  0
 62 71  1  0  0  0  0
 63 79  1  0  0  0  0
 64 87  1  0  0  0  0
 67 69  1  0  0  0  0
 67 78  1  0  0  0  0
 68 80  1  0  0  0  0
 70 72  1  0  0  0  0
M  CHG  1  80   1
M  ISO  4  36 100  64 101  79 100  87 101
M  END
> <Batch ID>
0094

> <Smiles>
CCCC(CC[101CH2:1][101O:1]c1ccc2c(c1)CN(C(=O)C(NC(=O)C(C)NC)C(C)(C)C)C(C(=O)NC1CCCc3ccccc31)C2)c1cc(C(C)C)n(CC[100N:0](C)[100C:0](=O)N2CCCC(n3nc(-c4ccc(Oc5ccc(F)cc5F)cc4)c(C(N)=O)c3N)C2)c1

> <Shape>
0.223

> <Color>
0.162

> <Negative vol penalty>
0.000

$$$$

  -OEChem-04052319193D

 80 87  0     1  0  0  0  0  0999 V2000
  -24.7322  -28.8888   19.9042 C   0  0  0  0  0  0  0  0  0  0  0  0
  -24.8416  -27.6740   19.2352 C   0  0  0  0  0  0  0  0  0  0  0  0
  -24.2600  -15.9096   22.4434 C   0  0  0  0  0  0  0  0  0  0  0  0
  -23.3448  -15.9261   20.2075 C   0  0  0  0  0  0  0  0  0  0  0  0
  -25.7434  -29.2988   20.7721 C   0  0  0  0  0  0  0  0  0  0  0  0
  -25.9628  -26.8689   19.4328 C   0  0  0  0  0  0  0  0  0  0  0  0
  -24.7626  -21.9927   20.0859 C   0  0  0  0  0  0  0  0  0  0  0  0
  -23.6096  -17.1125   22.7185 C   0  0  0  0  0  0  0  0  0  0  0  0
  -22.6943  -17.1289   20.4826 C   0  0  0  0  0  0  0  0  0  0  0  0
  -24.4444  -21.2570   18.9452 C   0  0  0  0  0  0  0  0  0  0  0  0
  -20.4859  -18.1284   23.5205 C   0  0  0  0  0  0  0  0  0  0  0  0
  -19.8145  -18.2385   24.7382 C   0  0  0  0  0  0  0  0  0  0  0  0
  -26.6694  -20.3250   18.9329 C   0  0  0  0  0  0  0  0  0  0  0  0
  -21.2244  -20.1036   25.3469 C   0  0  0  0  0  0  0  0  0  0  0  0
  -24.1277  -15.3165   21.1878 C   0  0  0  0  0  0  0  0  0  0  0  0
  -24.2997  -12.7729   21.0978 C   0  0  0  0  0  0  0  0  0  0  0  0
  -26.8731  -28.4939   20.9879 C   0  0  0  0  0  0  0  0  0  0  0  0
  -26.0422  -21.9083   20.6533 C   0  0  0  0  0  0  0  0  0  0  0  0
  -26.9908  -27.2692   20.3034 C   0  0  0  0  0  0  0  0  0  0  0  0
  -27.0005  -21.0587   20.0823 C   0  0  0  0  0  0  0  0  0  0  0  0
  -22.8267  -17.7221   21.7382 C   0  0  0  0  0  0  0  0  0  0  0  0
  -25.3987  -20.4252   18.3669 C   0  0  0  0  0  0  0  0  0  0  0  0
  -21.5266  -19.0058   23.2160 C   0  0  0  0  0  0  0  0  0  0  0  0
  -20.1837  -19.2261   25.6514 C   0  0  0  0  0  0  0  0  0  0  0  0
  -21.8958  -19.9935   24.1292 C   0  0  0  0  0  0  0  0  0  0  0  0
  -24.7998  -14.0743   20.9028 C   0  0  0  0  0  0  0  0  0  0  0  0
  -25.3139  -11.9484   20.6756 C   0  0  0  0  0  0  0  0  0  0  0  0
  -23.0316  -12.3473   21.6142 C   0  0  0  0  0  0  0  0  0  0  0  0
  -28.4070  -23.9684   21.1705 C   0  0  0  0  0  0  0  0  0  0  0  0
  -29.7382  -21.4512   22.7242 C   0  0  0  0  0  0  0  0  0  0  0  0
  -29.9291  -18.0678   23.1280 C   0  0  0  0  0  0  0  0  0  0  0  0
  -29.8411  -12.6945   16.8287 C   0  0  0  0  0  0  0  0  0  0  0  0
  -27.9625  -29.0012   21.8992 C   0  0  0  0  0  0  0  0  0  0  0  0
  -26.3613  -22.6879   21.8994 C   0  0  0  0  0  0  0  0  0  0  0  0
  -28.3823  -20.9172   20.6647 C   0  0  0  0  0  0  0  0  0  0  0  0
  -28.9419  -27.9165   22.3402 C   0  0  0  0  0  0  0  0  0  0  0  0
  -30.0775  -11.7821   20.2621 C   0  0  0  0  0  0  0  0  0  0  0  0
  -29.3776  -27.0731   21.1462 C   0  0  0  0  0  0  0  0  0  0  0  0
  -28.7066  -12.1487   20.8332 C   0  0  0  0  0  0  0  0  0  0  0  0
  -30.5349  -12.7848   19.2050 C   0  0  0  0  0  0  0  0  0  0  0  0
  -28.2014  -13.3808   18.6826 C   0  0  0  0  0  0  0  0  0  0  0  0
  -28.1801  -26.3566   20.5105 C   0  0  1  0  0  0  0  0  0  0  0  0
  -27.8568  -22.9183   22.0936 C   0  0  1  0  0  0  0  0  0  0  0  0
  -27.6726  -12.3679   19.7125 C   0  0  2  0  0  0  0  0  0  0  0  0
  -30.6245  -15.8791   24.1396 C   0  0  0  0  0  0  0  0  0  0  0  0
  -32.2156  -21.8506   20.9884 C   0  0  0  0  0  0  0  0  0  0  0  0
  -32.9661  -19.5566   21.6537 C   0  0  0  0  0  0  0  0  0  0  0  0
  -32.6953  -21.3300   23.3870 C   0  0  0  0  0  0  0  0  0  0  0  0
  -27.6844  -18.1133   25.0563 C   0  0  0  0  0  0  0  0  0  0  0  0
  -26.8847  -15.3457   11.5941 C   0  0  0  0  0  0  0  0  0  0  0  0
  -26.6233  -17.2467   14.8531 C   0  0  0  0  0  0  0  0  0  0  0  0
  -25.5692  -18.1469   15.4933 C   0  0  0  0  0  0  0  0  0  0  0  0
  -28.7152  -13.8871   13.6678 C   0  0  0  0  0  0  0  0  0  0  0  0
  -28.9937  -12.6379   14.4968 C   0  0  0  0  0  0  0  0  0  0  0  0
  -26.0744  -16.5602   13.6113 C   0  0  0  0  0  0  0  0  0  0  0  0
  -27.2958  -14.4048   13.8630 C   0  0  0  0  0  0  0  0  0  0  0  0
  -26.1168  -18.8744   16.7130 C   0  0  0  0  0  0  0  0  0  1  0  0
  -30.6397  -20.3065   22.3293 C   0  0  1  0  0  0  0  0  0  0  0  0
  -29.9060  -17.1991   24.3727 C   0  0  2  0  0  0  0  0  0  0  0  0
  -32.1038  -20.7648   22.0773 C   0  0  0  0  0  0  0  0  0  0  0  0
  -26.0358  -14.0812   20.3964 N   0  0  0  0  0  0  0  0  0  0  0  0
  -26.3208  -12.7740   20.2696 N   0  0  0  0  0  0  0  0  0  0  0  0
  -28.6480  -21.7048   21.8798 N   0  0  0  0  0  0  0  0  0  0  0  0
  -29.5103  -12.9457   18.1705 N   0  0  0  0  0  0  0  0  0  0  0  0
  -25.4337  -10.6051   20.6159 N   0  0  0  0  0  0  0  0  0  0  0  0
  -22.1055  -13.3254   22.0013 N   0  0  0  0  0  0  0  0  0  0  0  0
  -27.8029  -25.2043   21.3007 N   0  0  0  0  0  0  0  0  0  0  0  0
  -30.5007  -19.2982   23.3745 N   0  0  0  0  0  0  0  0  0  0  0  0
  -28.8099  -12.8646   15.9130 N   0  0  0  0  0  0  0  0  0  0  0  0
  -28.5010  -16.9050   24.7731 N   0  3  0  0  0  0  0  0  0  0  0  0
  -27.1151  -15.6646   13.0514 N   0  3  1  0  0  0  0  0  0  0  0  0
  -22.7351  -11.1354   21.7443 O   0  0  0  0  0  0  0  0  0  0  0  0
  -29.3136  -23.6791   20.3983 O   0  0  0  0  0  0  0  0  0  0  0  0
  -29.9880  -22.0921   23.7482 O   0  0  0  0  0  0  0  0  0  0  0  0
  -29.4877  -17.6912   22.0445 O   0  0  0  0  0  0  0  0  0  0  0  0
  -30.9702  -12.3396   16.4737 O   0  0  0  0  0  0  0  0  0  0  0  0
  -22.1916  -18.8957   22.0064 O   0  0  0  0  0  0  0  0  0  0  0  0
  -25.0910  -19.7065   17.2530 O   0  0  0  0  0  0  0  0  0  1  0  0
  -19.5379  -19.3328   26.8200 F   0  0  0  0  0  0  0  0  0  0  0  0
  -22.8940  -20.8401   23.8418 F   0  0  0  0  0  0  0  0  0  0  0  0
  1  2  1  0  0  0  0
  1  5  2  0  0  0  0
  2  6  2  0  0  0  0
  3  8  2  0  0  0  0
  3 15  1  0  0  0  0
  4  9  1  0  0  0  0
  4 15  2  0  0  0  0
  5 17  1  0  0  0  0
  6 19  1  0  0  0  0
  7 10  2  0  0  0  0
  7 18  1  0  0  0  0
  8 21  1  0  0  0  0
  9 21  2  0  0  0  0
 10 22  1  0  0  0  0
 11 12  2  0  0  0  0
 11 23  1  0  0  0  0
 12 24  1  0  0  0  0
 13 20  1  0  0  0  0
 13 22  2  0  0  0  0
 14 24  2  0  0  0  0
 14 25  1  0  0  0  0
 15 26  1  0  0  0  0
 16 26  1  0  0  0  0
 16 27  2  0  0  0  0
 16 28  1  0  0  0  0
 17 19  2  0  0  0  0
 17 33  1  0  0  0  0
 18 20  2  0  0  0  0
 18 34  1  0  0  0  0
 19 42  1  0  0  0  0
 20 35  1  0  0  0  0
 21 77  1  0  0  0  0
 22 78  1  0  0  0  0
 23 25  2  0  0  0  0
 23 77  1  0  0  0  0
 24 79  1  0  0  0  0
 25 80  1  0  0  0  0
 26 61  2  0  0  0  0
 27 62  1  0  0  0  0
 27 65  1  0  0  0  0
 28 66  1  0  0  0  0
 28 72  2  0  0  0  0
 29 43  1  0  0  0  0
 29 67  1  0  0  0  0
 29 73  2  0  0  0  0
 30 58  1  0  0  0  0
 30 63  1  0  0  0  0
 30 74  2  0  0  0  0
 31 59  1  0  0  0  0
 31 68  1  0  0  0  0
 31 75  2  0  0  0  0
 32 64  1  0  0  0  0
 32 69  1  0  0  0  0
 32 76  2  0  0  0  0
 33 36  1  0  0  0  0
 34 43  1  0  0  0  0
 35 63  1  0  0  0  0
 36 38  1  0  0  0  0
 37 39  1  0  0  0  0
 37 40  1  0  0  0  0
 38 42  1  0  0  0  0
 39 44  1  0  0  0  0
 40 64  1  0  0  0  0
 41 44  1  0  0  0  0
 41 64  1  0  0  0  0
 42 67  1  0  0  0  0
 43 63  1  0  0  0  0
 44 62  1  0  0  0  0
 45 59  1  0  0  0  0
 46 60  1  0  0  0  0
 47 60  1  0  0  0  0
 48 60  1  0  0  0  0
 49 70  1  0  0  0  0
 50 71  1  0  0  0  0
 51 52  1  0  0  0  0
 51 55  1  0  0  0  0
 52 57  1  0  0  0  0
 53 54  1  0  0  0  0
 53 56  1  0  0  0  0
 54 69  1  0  0  0  0
 55 71  1  0  0  0  0
 56 71  1  0  0  0  0
 57 78  1  0  0  0  0
 58 60  1  0  0  0  0
 58 68  1  0  0  0  0
 59 70  1  0  0  0  0
 61 62  1  0  0  0  0
M  CHG  2  70   1  71   1
M  ISO  4  32 100  57 101  69 100  78 101
M  END
> <Batch ID>
0094

> <Smiles>
CNC(C)C(=O)NC(C(=O)N1Cc2cc([101O:1][101CH2:1]CCCN(C)CCC[100NH:0][100C:0](=O)N3CCCC(n4nc(-c5ccc(Oc6ccc(F)cc6F)cc5)c(C(N)=O)c4N)C3)ccc2CC1C(=O)NC1CCCc2ccccc21)C(C)(C)C

> <Shape>
0.186

> <Color>
0.077

> <Negative vol penalty>
0.000

$$$$

  -OEChem-04052319193D

 84 92  0     1  0  0  0  0  0999 V2000
  -30.8503  -19.7970   24.0697 C   0  0  0  0  0  0  0  0  0  0  0  0
  -29.4605  -19.8348   24.0763 C   0  0  0  0  0  0  0  0  0  0  0  0
  -29.5249  -23.8157   21.2332 C   0  0  0  0  0  0  0  0  0  0  0  0
  -27.7893  -23.9025   19.5548 C   0  0  0  0  0  0  0  0  0  0  0  0
  -31.5129  -18.7816   23.3833 C   0  0  0  0  0  0  0  0  0  0  0  0
  -28.7328  -18.8506   23.4065 C   0  0  0  0  0  0  0  0  0  0  0  0
  -23.8496  -18.8867   24.0032 C   0  0  0  0  0  0  0  0  0  0  0  0
  -19.4138  -29.0245   22.9864 C   0  0  0  0  0  0  0  0  0  0  0  0
  -18.3771  -28.1563   23.3286 C   0  0  0  0  0  0  0  0  0  0  0  0
  -29.6871  -22.4510   20.9949 C   0  0  0  0  0  0  0  0  0  0  0  0
  -27.9515  -22.5378   19.3165 C   0  0  0  0  0  0  0  0  0  0  0  0
  -23.0274  -19.8559   23.4300 C   0  0  0  0  0  0  0  0  0  0  0  0
  -30.0986  -20.5426   17.6344 C   0  0  0  0  0  0  0  0  0  0  0  0
  -30.1463  -20.1194   16.3061 C   0  0  0  0  0  0  0  0  0  0  0  0
  -22.3406  -18.2695   21.7475 C   0  0  0  0  0  0  0  0  0  0  0  0
  -20.4459  -27.2759   21.6771 C   0  0  0  0  0  0  0  0  0  0  0  0
  -28.2066  -18.7284   16.6798 C   0  0  0  0  0  0  0  0  0  0  0  0
  -28.5759  -24.5415   20.5132 C   0  0  0  0  0  0  0  0  0  0  0  0
  -29.0779  -27.0116   20.1207 C   0  0  0  0  0  0  0  0  0  0  0  0
  -30.7923  -17.7919   22.6947 C   0  0  0  0  0  0  0  0  0  0  0  0
  -23.9319  -17.6028   23.4454 C   0  0  0  0  0  0  0  0  0  0  0  0
  -29.3830  -17.8039   22.7280 C   0  0  0  0  0  0  0  0  0  0  0  0
  -23.1627  -17.2851   22.3170 C   0  0  0  0  0  0  0  0  0  0  0  0
  -20.4482  -28.5842   22.1606 C   0  0  0  0  0  0  0  0  0  0  0  0
  -18.3747  -26.8480   22.8450 C   0  0  0  0  0  0  0  0  0  0  0  0
  -19.4091  -26.4077   22.0193 C   0  0  0  0  0  0  0  0  0  0  0  0
  -28.9004  -21.8120   20.0365 C   0  0  0  0  0  0  0  0  0  0  0  0
  -22.2750  -19.5482   22.3003 C   0  0  0  0  0  0  0  0  0  0  0  0
  -29.1050  -20.0586   18.4854 C   0  0  0  0  0  0  0  0  0  0  0  0
  -29.2002  -19.2123   15.8288 C   0  0  0  0  0  0  0  0  0  0  0  0
  -28.1589  -19.1516   18.0080 C   0  0  0  0  0  0  0  0  0  0  0  0
  -28.4075  -25.9512   20.7593 C   0  0  0  0  0  0  0  0  0  0  0  0
  -28.5665  -28.1436   20.7069 C   0  0  0  0  0  0  0  0  0  0  0  0
  -30.0737  -26.9766   19.0897 C   0  0  0  0  0  0  0  0  0  0  0  0
  -26.2578  -15.8631   22.1540 C   0  0  0  0  0  0  0  0  0  0  0  0
  -23.9798  -13.5540   22.1176 C   0  0  0  0  0  0  0  0  0  0  0  0
  -20.6613  -12.7581   22.0991 C   0  0  0  0  0  0  0  0  0  0  0  0
  -23.3839  -29.3221   23.4641 C   0  0  0  0  0  0  0  0  0  0  0  0
  -31.5601  -16.7115   21.9747 C   0  0  0  0  0  0  0  0  0  0  0  0
  -24.8031  -16.5606   24.0914 C   0  0  0  0  0  0  0  0  0  0  0  0
  -23.2000  -15.9154   21.6918 C   0  0  0  0  0  0  0  0  0  0  0  0
  -30.7201  -15.9779   20.9343 C   0  0  0  0  0  0  0  0  0  0  0  0
  -26.6588  -29.7011   24.8088 C   0  0  0  0  0  0  0  0  0  0  0  0
  -29.3967  -15.5440   21.5467 C   0  0  0  0  0  0  0  0  0  0  0  0
  -27.5388  -28.8787   23.8658 C   0  0  0  0  0  0  0  0  0  0  0  0
  -25.2935  -29.0497   25.0183 C   0  0  0  0  0  0  0  0  0  0  0  0
  -25.4390  -27.9160   22.8348 C   0  0  0  0  0  0  0  0  0  0  0  0
  -28.5708  -16.7615   21.9810 C   0  0  1  0  0  0  0  0  0  0  0  0
  -25.2024  -15.4400   23.1363 C   0  0  1  0  0  0  0  0  0  0  0  0
  -26.8056  -28.5615   22.5485 C   0  0  2  0  0  0  0  0  0  0  0  0
  -16.2434  -25.7596   22.0973 C   0  0  0  0  0  0  0  0  0  0  0  0
  -19.1083  -10.7881   22.0297 C   0  0  0  0  0  0  0  0  0  0  0  0
  -24.5553  -13.2083   19.1412 C   0  0  0  0  0  0  0  0  0  0  0  0
  -22.3918  -11.9649   18.9384 C   0  0  0  0  0  0  0  0  0  0  0  0
  -24.2108  -11.0705   20.3923 C   0  0  0  0  0  0  0  0  0  0  0  0
  -19.4701  -13.4576   24.7165 C   0  0  0  0  0  0  0  0  0  0  0  0
  -17.2547  -25.9364   23.2259 C   0  0  0  0  0  0  0  0  0  0  0  0
  -19.4281  -24.9978   21.4849 C   0  0  0  0  0  0  0  0  0  0  0  0
  -21.5568  -29.5125   21.7953 C   0  0  0  0  0  0  0  0  0  0  0  0
  -20.4218  -24.0771   22.2020 C   0  0  0  0  0  0  0  0  0  0  0  0
  -20.4823  -22.6741   21.5964 C   0  0  0  0  0  0  0  0  0  0  0  0
  -21.4489  -21.7776   22.3584 C   0  0  0  0  0  0  0  0  0  1  0  0
  -22.9202  -13.1130   21.1370 C   0  0  1  0  0  0  0  0  0  0  0  0
  -19.8589  -11.7655   22.9208 C   0  0  2  0  0  0  0  0  0  0  0  0
  -23.5201  -12.3656   19.9126 C   0  0  0  0  0  0  0  0  0  0  0  0
  -27.5369  -26.3719   21.6807 N   0  0  0  0  0  0  0  0  0  0  0  0
  -27.6567  -27.7093   21.6254 N   0  0  0  0  0  0  0  0  0  0  0  0
  -24.0719  -14.9326   22.3562 N   0  0  0  0  0  0  0  0  0  0  0  0
  -24.6505  -28.7765   23.7307 N   0  0  0  0  0  0  0  0  0  0  0  0
  -28.8110  -29.4582   20.5211 N   0  0  0  0  0  0  0  0  0  0  0  0
  -30.4854  -25.7294   18.6006 N   0  0  0  0  0  0  0  0  0  0  0  0
  -27.4266  -16.3088   22.7411 N   0  0  0  0  0  0  0  0  0  0  0  0
  -21.9568  -12.3290   21.9023 N   0  0  0  0  0  0  0  0  0  0  0  0
  -22.8487  -29.0193   22.2180 N   0  0  0  0  0  0  0  0  0  0  0  0
  -18.8676  -12.4805   23.7735 N   0  3  0  0  0  0  0  0  0  0  0  0
  -30.5952  -28.0198   18.6279 O   0  0  0  0  0  0  0  0  0  0  0  0
  -26.0292  -15.7892   20.9524 O   0  0  0  0  0  0  0  0  0  0  0  0
  -24.6947  -12.7060   22.6576 O   0  0  0  0  0  0  0  0  0  0  0  0
  -20.1853  -13.8074   21.6712 O   0  0  0  0  0  0  0  0  0  0  0  0
  -22.7774  -30.0311   24.2743 O   0  0  0  0  0  0  0  0  0  0  0  0
  -29.0585  -20.4804   19.8036 O   0  0  0  0  0  0  0  0  0  0  0  0
  -21.4721  -20.4925   21.7384 O   0  0  0  0  0  0  0  0  0  1  0  0
  -29.2452  -18.8072   14.5529 F   0  0  0  0  0  0  0  0  0  0  0  0
  -27.2013  -18.6840   18.8205 F   0  0  0  0  0  0  0  0  0  0  0  0
  1  2  1  0  0  0  0
  1  5  2  0  0  0  0
  2  6  2  0  0  0  0
  3 10  2  0  0  0  0
  3 18  1  0  0  0  0
  4 11  1  0  0  0  0
  4 18  2  0  0  0  0
  5 20  1  0  0  0  0
  6 22  1  0  0  0  0
  7 12  2  0  0  0  0
  7 21  1  0  0  0  0
  8  9  2  0  0  0  0
  8 24  1  0  0  0  0
  9 25  1  0  0  0  0
 10 27  1  0  0  0  0
 11 27  2  0  0  0  0
 12 28  1  0  0  0  0
 13 14  2  0  0  0  0
 13 29  1  0  0  0  0
 14 30  1  0  0  0  0
 15 23  1  0  0  0  0
 15 28  2  0  0  0  0
 16 24  2  0  0  0  0
 16 26  1  0  0  0  0
 17 30  2  0  0  0  0
 17 31  1  0  0  0  0
 18 32  1  0  0  0  0
 19 32  1  0  0  0  0
 19 33  2  0  0  0  0
 19 34  1  0  0  0  0
 20 22  2  0  0  0  0
 20 39  1  0  0  0  0
 21 23  2  0  0  0  0
 21 40  1  0  0  0  0
 22 48  1  0  0  0  0
 23 41  1  0  0  0  0
 24 59  1  0  0  0  0
 25 26  2  0  0  0  0
 25 57  1  0  0  0  0
 26 58  1  0  0  0  0
 27 81  1  0  0  0  0
 28 82  1  0  0  0  0
 29 31  2  0  0  0  0
 29 81  1  0  0  0  0
 30 83  1  0  0  0  0
 31 84  1  0  0  0  0
 32 66  2  0  0  0  0
 33 67  1  0  0  0  0
 33 70  1  0  0  0  0
 34 71  1  0  0  0  0
 34 76  2  0  0  0  0
 35 49  1  0  0  0  0
 35 72  1  0  0  0  0
 35 77  2  0  0  0  0
 36 63  1  0  0  0  0
 36 68  1  0  0  0  0
 36 78  2  0  0  0  0
 37 64  1  0  0  0  0
 37 73  1  0  0  0  0
 37 79  2  0  0  0  0
 38 69  1  0  0  0  0
 38 74  1  0  0  0  0
 38 80  2  0  0  0  0
 39 42  1  0  0  0  0
 40 49  1  0  0  0  0
 41 68  1  0  0  0  0
 42 44  1  0  0  0  0
 43 45  1  0  0  0  0
 43 46  1  0  0  0  0
 44 48  1  0  0  0  0
 45 50  1  0  0  0  0
 46 69  1  0  0  0  0
 47 50  1  0  0  0  0
 47 69  1  0  0  0  0
 48 72  1  0  0  0  0
 49 68  1  0  0  0  0
 50 67  1  0  0  0  0
 51 57  1  0  0  0  0
 52 64  1  0  0  0  0
 53 65  1  0  0  0  0
 54 65  1  0  0  0  0
 55 65  1  0  0  0  0
 56 75  1  0  0  0  0
 58 60  1  0  0  0  0
 59 74  1  0  0  0  0
 60 61  1  0  0  0  0
 61 62  1  0  0  0  0
 62 82  1  0  0  0  0
 63 65  1  0  0  0  0
 63 73  1  0  0  0  0
 64 75  1  0  0  0  0
 66 67  1  0  0  0  0
M  CHG  1  75   1
M  ISO  4  38 100  62 101  74 100  82 101
M  END
> <Batch ID>
0094

> <Smiles>
CCc1ccc(C[100NH:0][100C:0](=O)N2CCCC(n3nc(-c4ccc(Oc5ccc(F)cc5F)cc4)c(C(N)=O)c3N)C2)cc1CCC[101CH2:1][101O:1]c1ccc2c(c1)CN(C(=O)C(NC(=O)C(C)NC)C(C)(C)C)C(C(=O)NC1CCCc3ccccc31)C2

> <Shape>
0.230

> <Color>
0.062

> <Negative vol penalty>
0.000

$$$$

  -OEChem-04052319193D

 85 93  0     1  0  0  0  0  0999 V2000
  -26.2861  -34.9262   23.9031 C   0  0  0  0  0  0  0  0  0  0  0  0
  -26.7696  -33.6545   23.6123 C   0  0  0  0  0  0  0  0  0  0  0  0
  -23.9385  -13.7241   19.5914 C   0  0  0  0  0  0  0  0  0  0  0  0
  -25.2950  -14.0363   21.5662 C   0  0  0  0  0  0  0  0  0  0  0  0
  -24.9514  -35.0966   24.2681 C   0  0  0  0  0  0  0  0  0  0  0  0
  -25.9188  -32.5523   23.6875 C   0  0  0  0  0  0  0  0  0  0  0  0
  -26.4203  -29.4371   19.7266 C   0  0  0  0  0  0  0  0  0  0  0  0
  -24.7526  -12.6612   19.2002 C   0  0  0  0  0  0  0  0  0  0  0  0
  -26.1091  -12.9733   21.1750 C   0  0  0  0  0  0  0  0  0  0  0  0
  -27.5195  -28.5795   19.7262 C   0  0  0  0  0  0  0  0  0  0  0  0
  -27.7716  -12.2432   17.7389 C   0  0  0  0  0  0  0  0  0  0  0  0
  -28.1722  -12.1919   16.4038 C   0  0  0  0  0  0  0  0  0  0  0  0
  -26.1077  -26.7796   20.4920 C   0  0  0  0  0  0  0  0  0  0  0  0
  -27.0895  -10.0457   16.1614 C   0  0  0  0  0  0  0  0  0  0  0  0
  -24.2098  -14.4117   20.7744 C   0  0  0  0  0  0  0  0  0  0  0  0
  -22.2152  -15.4466   21.9820 C   0  0  0  0  0  0  0  0  0  0  0  0
  -24.0813  -33.9972   24.3384 C   0  0  0  0  0  0  0  0  0  0  0  0
  -25.1566  -28.9744   20.1207 C   0  0  0  0  0  0  0  0  0  0  0  0
  -24.5714  -32.7080   24.0551 C   0  0  0  0  0  0  0  0  0  0  0  0
  -24.9936  -27.6327   20.4940 C   0  0  0  0  0  0  0  0  0  0  0  0
  -29.9651  -25.0271   24.7220 C   0  0  0  0  0  0  0  0  0  0  0  0
  -29.3512  -25.2854   25.9425 C   0  0  0  0  0  0  0  0  0  0  0  0
  -29.3437  -24.1914   23.8006 C   0  0  0  0  0  0  0  0  0  0  0  0
  -25.8379  -12.2858   19.9920 C   0  0  0  0  0  0  0  0  0  0  0  0
  -27.3639  -27.2512   20.1117 C   0  0  0  0  0  0  0  0  0  0  0  0
  -27.0300  -11.1957   18.2853 C   0  0  0  0  0  0  0  0  0  0  0  0
  -27.8312  -11.0932   15.6150 C   0  0  0  0  0  0  0  0  0  0  0  0
  -26.6889  -10.0970   17.4965 C   0  0  0  0  0  0  0  0  0  0  0  0
  -23.3695  -15.5102   21.1787 C   0  0  0  0  0  0  0  0  0  0  0  0
  -28.1259  -24.6884   26.1913 C   0  0  0  0  0  0  0  0  0  0  0  0
  -28.1188  -23.6432   24.1454 C   0  0  0  0  0  0  0  0  0  0  0  0
  -21.7869  -16.7485   22.0714 C   0  0  0  0  0  0  0  0  0  0  0  0
  -21.5863  -14.3121   22.5928 C   0  0  0  0  0  0  0  0  0  0  0  0
  -23.1280  -29.7060   22.4559 C   0  0  0  0  0  0  0  0  0  0  0  0
  -21.1901  -27.6242   20.8962 C   0  0  0  0  0  0  0  0  0  0  0  0
  -20.9034  -24.9632   18.7787 C   0  0  0  0  0  0  0  0  0  0  0  0
  -24.6007  -22.0099   21.5703 C   0  0  0  0  0  0  0  0  0  0  0  0
  -22.6584  -34.2248   24.7835 C   0  0  0  0  0  0  0  0  0  0  0  0
  -23.9756  -29.9054   20.0900 C   0  0  0  0  0  0  0  0  0  0  0  0
  -23.6540  -27.0815   20.9063 C   0  0  0  0  0  0  0  0  0  0  0  0
  -21.7292  -33.0535   24.4758 C   0  0  0  0  0  0  0  0  0  0  0  0
  -21.8229  -20.8766   19.6530 C   0  0  0  0  0  0  0  0  0  0  0  0
  -22.3782  -31.7352   24.8854 C   0  0  0  0  0  0  0  0  0  0  0  0
  -21.8002  -19.3670   19.8991 C   0  0  0  0  0  0  0  0  0  0  0  0
  -23.2501  -21.4151   19.5807 C   0  0  0  0  0  0  0  0  0  0  0  0
  -24.0770  -19.5650   20.9832 C   0  0  0  0  0  0  0  0  0  0  0  0
  -23.6733  -31.4909   24.1014 C   0  0  1  0  0  0  0  0  0  0  0  0
  -22.8380  -29.4579   21.0027 C   0  0  1  0  0  0  0  0  0  0  0  0
  -22.6589  -18.9848   21.1196 C   0  0  2  0  0  0  0  0  0  0  0  0
  -31.2896  -25.6434   24.4020 C   0  0  0  0  0  0  0  0  0  0  0  0
  -29.9926  -26.1785   26.9509 C   0  0  0  0  0  0  0  0  0  0  0  0
  -27.4178  -24.9284   27.4845 C   0  0  0  0  0  0  0  0  0  0  0  0
  -19.1926  -23.4620   17.7220 C   0  0  0  0  0  0  0  0  0  0  0  0
  -20.8547  -26.1464   23.5445 C   0  0  0  0  0  0  0  0  0  0  0  0
  -19.9578  -24.1929   22.2609 C   0  0  0  0  0  0  0  0  0  0  0  0
  -18.7550  -26.3776   22.2057 C   0  0  0  0  0  0  0  0  0  0  0  0
  -21.6922  -25.7922   16.0493 C   0  0  0  0  0  0  0  0  0  0  0  0
  -29.9833  -23.8916   22.4685 C   0  0  0  0  0  0  0  0  0  0  0  0
  -27.4037  -22.7361   23.1982 C   0  0  0  0  0  0  0  0  0  0  0  0
  -29.8670  -25.0349   21.4581 C   0  0  0  0  0  0  0  0  0  0  0  0
  -25.9544  -22.4474   23.6038 C   0  0  0  0  0  0  0  0  0  0  0  0
  -28.4281  -25.3510   21.0671 C   0  0  0  0  0  0  0  0  0  1  0  0
  -20.9442  -26.1363   20.9642 C   0  0  1  0  0  0  0  0  0  0  0  0
  -20.0177  -24.7301   17.5681 C   0  0  2  0  0  0  0  0  0  0  0  0
  -20.1537  -25.7239   22.2380 C   0  0  0  0  0  0  0  0  0  0  0  0
  -23.6563  -16.7541   20.7857 N   0  0  0  0  0  0  0  0  0  0  0  0
  -27.4916  -23.8710   25.3212 N   0  0  0  0  0  0  0  0  0  0  0  0
  -22.6759  -17.4841   21.3443 N   0  0  0  0  0  0  0  0  0  0  0  0
  -22.5310  -28.0327   20.8658 N   0  0  0  0  0  0  0  0  0  0  0  0
  -24.0105  -21.0191   20.7685 N   0  0  0  0  0  0  0  0  0  0  0  0
  -20.7403  -17.3244   22.7001 N   0  0  0  0  0  0  0  0  0  0  0  0
  -22.1576  -13.0469   22.3995 N   0  0  0  0  0  0  0  0  0  0  0  0
  -23.3743  -31.0308   22.7623 N   0  0  0  0  0  0  0  0  0  0  0  0
  -20.2906  -25.7728   19.7116 N   0  0  0  0  0  0  0  0  0  0  0  0
  -25.2980  -21.5491   22.6803 N   0  0  0  0  0  0  0  0  0  0  0  0
  -20.8467  -24.6048   16.3361 N   0  3  0  0  0  0  0  0  0  0  0  0
  -20.5392  -14.4150   23.2758 O   0  0  0  0  0  0  0  0  0  0  0  0
  -23.1268  -28.7655   23.2415 O   0  0  0  0  0  0  0  0  0  0  0  0
  -20.2278  -28.3953   20.8637 O   0  0  0  0  0  0  0  0  0  0  0  0
  -22.0251  -24.4729   18.8876 O   0  0  0  0  0  0  0  0  0  0  0  0
  -24.5082  -23.2162   21.3188 O   0  0  0  0  0  0  0  0  0  0  0  0
  -26.6323  -11.2485   19.6107 O   0  0  0  0  0  0  0  0  0  0  0  0
  -28.4352  -26.4121   20.1129 O   0  0  0  0  0  0  0  0  0  1  0  0
  -28.2146  -11.0448   14.3325 F   0  0  0  0  0  0  0  0  0  0  0  0
  -25.9756   -9.0882   18.0155 F   0  0  0  0  0  0  0  0  0  0  0  0
  1  2  1  0  0  0  0
  1  5  2  0  0  0  0
  2  6  2  0  0  0  0
  3  8  2  0  0  0  0
  3 15  1  0  0  0  0
  4  9  1  0  0  0  0
  4 15  2  0  0  0  0
  5 17  1  0  0  0  0
  6 19  1  0  0  0  0
  7 10  2  0  0  0  0
  7 18  1  0  0  0  0
  8 24  1  0  0  0  0
  9 24  2  0  0  0  0
 10 25  1  0  0  0  0
 11 12  2  0  0  0  0
 11 26  1  0  0  0  0
 12 27  1  0  0  0  0
 13 20  1  0  0  0  0
 13 25  2  0  0  0  0
 14 27  2  0  0  0  0
 14 28  1  0  0  0  0
 15 29  1  0  0  0  0
 16 29  1  0  0  0  0
 16 32  2  0  0  0  0
 16 33  1  0  0  0  0
 17 19  2  0  0  0  0
 17 38  1  0  0  0  0
 18 20  2  0  0  0  0
 18 39  1  0  0  0  0
 19 47  1  0  0  0  0
 20 40  1  0  0  0  0
 21 22  1  0  0  0  0
 21 23  2  0  0  0  0
 21 50  1  0  0  0  0
 22 30  2  0  0  0  0
 22 51  1  0  0  0  0
 23 31  1  0  0  0  0
 23 58  1  0  0  0  0
 24 82  1  0  0  0  0
 25 83  1  0  0  0  0
 26 28  2  0  0  0  0
 26 82  1  0  0  0  0
 27 84  1  0  0  0  0
 28 85  1  0  0  0  0
 29 66  2  0  0  0  0
 30 52  1  0  0  0  0
 30 67  1  0  0  0  0
 31 59  1  0  0  0  0
 31 67  2  0  0  0  0
 32 68  1  0  0  0  0
 32 71  1  0  0  0  0
 33 72  1  0  0  0  0
 33 77  2  0  0  0  0
 34 48  1  0  0  0  0
 34 73  1  0  0  0  0
 34 78  2  0  0  0  0
 35 63  1  0  0  0  0
 35 69  1  0  0  0  0
 35 79  2  0  0  0  0
 36 64  1  0  0  0  0
 36 74  1  0  0  0  0
 36 80  2  0  0  0  0
 37 70  1  0  0  0  0
 37 75  1  0  0  0  0
 37 81  2  0  0  0  0
 38 41  1  0  0  0  0
 39 48  1  0  0  0  0
 40 69  1  0  0  0  0
 41 43  1  0  0  0  0
 42 44  1  0  0  0  0
 42 45  1  0  0  0  0
 43 47  1  0  0  0  0
 44 49  1  0  0  0  0
 45 70  1  0  0  0  0
 46 49  1  0  0  0  0
 46 70  1  0  0  0  0
 47 73  1  0  0  0  0
 48 69  1  0  0  0  0
 49 68  1  0  0  0  0
 53 64  1  0  0  0  0
 54 65  1  0  0  0  0
 55 65  1  0  0  0  0
 56 65  1  0  0  0  0
 57 76  1  0  0  0  0
 58 60  1  0  0  0  0
 59 61  1  0  0  0  0
 60 62  1  0  0  0  0
 61 75  1  0  0  0  0
 62 83  1  0  0  0  0
 63 65  1  0  0  0  0
 63 74  1  0  0  0  0
 64 76  1  0  0  0  0
 66 68  1  0  0  0  0
M  CHG  1  76   1
M  ISO  4  37 100  62 101  75 100  83 101
M  END
> <Batch ID>
0094

> <Smiles>
CNC(C)C(=O)NC(C(=O)N1Cc2cc([101O:1][101CH2:1]CCc3c(CC[100NH:0][100C:0](=O)N4CCCC(n5nc(-c6ccc(Oc7ccc(F)cc7F)cc6)c(C(N)=O)c5N)C4)nc(C)c(C)c3C)ccc2CC1C(=O)NC1CCCc2ccccc21)C(C)(C)C

> <Shape>
0.182

> <Color>
0.085

> <Negative vol penalty>
0.000

$$$$

  -OEChem-04052319193D

 89 97  0     1  0  0  0  0  0999 V2000
  -22.2730  -21.4856    4.3907 C   0  0  0  0  0  0  0  0  0  0  0  0
  -22.0494  -21.6813    5.7498 C   0  0  0  0  0  0  0  0  0  0  0  0
  -23.0011   -9.8953   19.9812 C   0  0  0  0  0  0  0  0  0  0  0  0
  -23.7312   -9.9442   22.2837 C   0  0  0  0  0  0  0  0  0  0  0  0
  -23.4269  -20.8307    3.9625 C   0  0  0  0  0  0  0  0  0  0  0  0
  -22.9792  -21.2212    6.6815 C   0  0  0  0  0  0  0  0  0  0  0  0
  -24.4686  -23.8558   12.0057 C   0  0  0  0  0  0  0  0  0  0  0  0
  -22.2362   -8.7598   20.2479 C   0  0  0  0  0  0  0  0  0  0  0  0
  -22.9662   -8.8087   22.5504 C   0  0  0  0  0  0  0  0  0  0  0  0
  -24.0642  -23.6134   13.3177 C   0  0  0  0  0  0  0  0  0  0  0  0
  -23.2125   -5.4706   22.0742 C   0  0  0  0  0  0  0  0  0  0  0  0
  -23.8026   -4.4531   22.8238 C   0  0  0  0  0  0  0  0  0  0  0  0
  -26.0173  -22.2395   13.6595 C   0  0  0  0  0  0  0  0  0  0  0  0
  -22.0821   -4.6925   24.5030 C   0  0  0  0  0  0  0  0  0  0  0  0
  -28.4263  -19.0426   21.6252 C   0  0  0  0  0  0  0  0  0  0  0  0
  -23.7487  -10.4875   20.9991 C   0  0  0  0  0  0  0  0  0  0  0  0
  -24.1313  -13.0036   20.8252 C   0  0  0  0  0  0  0  0  0  0  0  0
  -24.3761  -20.3709    4.8890 C   0  0  0  0  0  0  0  0  0  0  0  0
  -25.6468  -23.2821   11.5065 C   0  0  0  0  0  0  0  0  0  0  0  0
  -24.1463  -20.5584    6.2654 C   0  0  0  0  0  0  0  0  0  0  0  0
  -26.4358  -22.4782   12.3416 C   0  0  0  0  0  0  0  0  0  0  0  0
  -22.2187   -8.2165   21.5325 C   0  0  0  0  0  0  0  0  0  0  0  0
  -24.8370  -22.8028   14.1440 C   0  0  0  0  0  0  0  0  0  0  0  0
  -22.0572   -6.0992   22.5389 C   0  0  0  0  0  0  0  0  0  0  0  0
  -23.2374   -4.0640   24.0382 C   0  0  0  0  0  0  0  0  0  0  0  0
  -21.4920   -5.7101   23.7533 C   0  0  0  0  0  0  0  0  0  0  0  0
  -24.5395  -11.6601   20.7242 C   0  0  0  0  0  0  0  0  0  0  0  0
  -27.1190  -18.4723   20.0453 C   0  0  0  0  0  0  0  0  0  0  0  0
  -28.3400  -17.9257   19.7274 C   0  0  0  0  0  0  0  0  0  0  0  0
  -25.2397  -13.7276   20.4593 C   0  0  0  0  0  0  0  0  0  0  0  0
  -22.8637  -13.5484   21.2150 C   0  0  0  0  0  0  0  0  0  0  0  0
  -26.3327  -21.2465    9.1635 C   0  0  0  0  0  0  0  0  0  0  0  0
  -29.3935  -21.9502    9.9748 C   0  0  0  0  0  0  0  0  0  0  0  0
  -31.5807  -23.0507   12.3522 C   0  0  0  0  0  0  0  0  0  0  0  0
  -30.7357  -14.6669   20.6972 C   0  0  0  0  0  0  0  0  0  0  0  0
  -25.5854  -19.6267    4.3807 C   0  0  0  0  0  0  0  0  0  0  0  0
  -26.0831  -23.5750   10.0972 C   0  0  0  0  0  0  0  0  0  0  0  0
  -27.7197  -21.8550   11.8602 C   0  0  0  0  0  0  0  0  0  0  0  0
  -26.7023  -19.5017    5.4137 C   0  0  0  0  0  0  0  0  0  0  0  0
  -29.5922  -12.2449   18.3513 C   0  0  0  0  0  0  0  0  0  0  0  0
  -26.1369  -19.0624    6.7607 C   0  0  0  0  0  0  0  0  0  0  0  0
  -28.1449  -11.9834   18.7717 C   0  0  0  0  0  0  0  0  0  0  0  0
  -30.4970  -12.4797   19.5589 C   0  0  0  0  0  0  0  0  0  0  0  0
  -28.5890  -13.2720   20.9027 C   0  0  0  0  0  0  0  0  0  0  0  0
  -25.1434  -20.0957    7.3055 C   0  0  1  0  0  0  0  0  0  0  0  0
  -27.0337  -22.5225    9.5351 C   0  0  1  0  0  0  0  0  0  0  0  0
  -27.6276  -13.0848   19.7165 C   0  0  2  0  0  0  0  0  0  0  0  0
  -34.0233  -23.4819   12.7332 C   0  0  0  0  0  0  0  0  0  0  0  0
  -29.6666  -18.0695   14.8828 C   0  0  0  0  0  0  0  0  0  0  0  0
  -30.8098  -16.4115   16.3675 C   0  0  0  0  0  0  0  0  0  0  0  0
  -22.4032  -20.6648   16.3174 C   0  0  0  0  0  0  0  0  0  0  0  0
  -29.8771  -18.9505   10.2540 C   0  0  0  0  0  0  0  0  0  0  0  0
  -31.9705  -19.4767   11.5225 C   0  0  0  0  0  0  0  0  0  0  0  0
  -31.7351  -20.2084    9.1494 C   0  0  0  0  0  0  0  0  0  0  0  0
  -31.1123  -25.9286   12.8592 C   0  0  0  0  0  0  0  0  0  0  0  0
  -25.8241  -18.3864   19.2773 C   0  0  0  0  0  0  0  0  0  0  0  0
  -28.7833  -17.1074   18.5847 C   0  0  0  0  0  0  0  0  0  0  0  0
  -25.4730  -19.6692   18.5128 C   0  0  0  0  0  0  0  0  0  0  0  0
  -28.9961  -17.9438   17.3010 C   0  0  0  0  0  0  0  0  0  0  0  0
  -24.1593  -19.5554   17.7287 C   0  0  0  0  0  0  0  0  0  0  0  0
  -30.5672  -17.9775   20.8932 C   0  0  0  0  0  0  0  0  0  0  0  0
  -30.8190  -16.8445   21.8847 C   0  0  0  0  0  0  0  0  0  0  0  0
  -24.8204  -21.3120   15.9969 C   0  0  0  0  0  0  0  0  0  1  0  0
  -30.3995  -21.3823   10.9467 C   0  0  1  0  0  0  0  0  0  0  0  0
  -32.6950  -24.0801   12.2965 C   0  0  2  0  0  0  0  0  0  0  0  0
  -29.4944  -17.1391   16.0861 C   0  0  0  0  0  0  0  0  0  0  0  0
  -23.7598  -20.8576   17.0077 C   0  0  1  0  0  0  0  0  0  0  0  0
  -30.9704  -20.0145   10.4769 C   0  0  0  0  0  0  0  0  0  0  0  0
  -27.1795  -19.1665   21.2276 N   0  0  0  0  0  0  0  0  0  0  0  0
  -25.8080  -11.5352   20.3251 N   0  0  0  0  0  0  0  0  0  0  0  0
  -29.1674  -18.2999   20.7484 N   0  0  0  0  0  0  0  0  0  0  0  0
  -26.2065  -12.8095   20.1721 N   0  0  0  0  0  0  0  0  0  0  0  0
  -28.1006  -22.1661   10.4725 N   0  0  0  0  0  0  0  0  0  0  0  0
  -29.9511  -13.5369   20.4134 N   0  0  0  0  0  0  0  0  0  0  0  0
  -25.4717  -15.0536   20.3582 N   0  0  0  0  0  0  0  0  0  0  0  0
  -21.8335  -12.6630   21.5597 N   0  0  0  0  0  0  0  0  0  0  0  0
  -25.8488  -21.2266    7.8693 N   0  0  0  0  0  0  0  0  0  0  0  0
  -31.4098  -22.4169   11.1396 N   0  0  0  0  0  0  0  0  0  0  0  0
  -30.1402  -15.6242   21.5094 N   0  0  0  0  0  0  0  0  0  0  0  0
  -32.3818  -25.2313   13.1896 N   0  3  0  0  0  0  0  0  0  0  0  0
  -22.6459  -14.7835   21.2407 O   0  0  0  0  0  0  0  0  0  0  0  0
  -26.2390  -20.3460    9.9894 O   0  0  0  0  0  0  0  0  0  0  0  0
  -29.7438  -22.2000    8.8188 O   0  0  0  0  0  0  0  0  0  0  0  0
  -30.9297  -22.8282   13.3707 O   0  0  0  0  0  0  0  0  0  0  0  0
  -31.8801  -14.8143   20.2548 O   0  0  0  0  0  0  0  0  0  0  0  0
  -21.4722   -7.1087   21.7931 O   0  0  0  0  0  0  0  0  0  0  0  0
  -24.4442  -22.5640   15.4248 O   0  0  0  0  0  0  0  0  0  1  0  0
  -23.8032   -3.0858   24.7573 F   0  0  0  0  0  0  0  0  0  0  0  0
  -20.3815   -6.3094   24.2044 F   0  0  0  0  0  0  0  0  0  0  0  0
  1  2  1  0  0  0  0
  1  5  2  0  0  0  0
  2  6  2  0  0  0  0
  3  8  2  0  0  0  0
  3 16  1  0  0  0  0
  4  9  1  0  0  0  0
  4 16  2  0  0  0  0
  5 18  1  0  0  0  0
  6 20  1  0  0  0  0
  7 10  2  0  0  0  0
  7 19  1  0  0  0  0
  8 22  1  0  0  0  0
  9 22  2  0  0  0  0
 10 23  1  0  0  0  0
 11 12  2  0  0  0  0
 11 24  1  0  0  0  0
 12 25  1  0  0  0  0
 13 21  1  0  0  0  0
 13 23  2  0  0  0  0
 14 25  2  0  0  0  0
 14 26  1  0  0  0  0
 15 69  2  0  0  0  0
 15 71  1  0  0  0  0
 16 27  1  0  0  0  0
 17 27  1  0  0  0  0
 17 30  2  0  0  0  0
 17 31  1  0  0  0  0
 18 20  2  0  0  0  0
 18 36  1  0  0  0  0
 19 21  2  0  0  0  0
 19 37  1  0  0  0  0
 20 45  1  0  0  0  0
 21 38  1  0  0  0  0
 22 86  1  0  0  0  0
 23 87  1  0  0  0  0
 24 26  2  0  0  0  0
 24 86  1  0  0  0  0
 25 88  1  0  0  0  0
 26 89  1  0  0  0  0
 27 70  2  0  0  0  0
 28 29  2  0  0  0  0
 28 56  1  0  0  0  0
 28 69  1  0  0  0  0
 29 57  1  0  0  0  0
 29 71  1  0  0  0  0
 30 72  1  0  0  0  0
 30 75  1  0  0  0  0
 31 76  1  0  0  0  0
 31 81  2  0  0  0  0
 32 46  1  0  0  0  0
 32 77  1  0  0  0  0
 32 82  2  0  0  0  0
 33 64  1  0  0  0  0
 33 73  1  0  0  0  0
 33 83  2  0  0  0  0
 34 65  1  0  0  0  0
 34 78  1  0  0  0  0
 34 84  2  0  0  0  0
 35 74  1  0  0  0  0
 35 79  1  0  0  0  0
 35 85  2  0  0  0  0
 36 39  1  0  0  0  0
 37 46  1  0  0  0  0
 38 73  1  0  0  0  0
 39 41  1  0  0  0  0
 40 42  1  0  0  0  0
 40 43  1  0  0  0  0
 41 45  1  0  0  0  0
 42 47  1  0  0  0  0
 43 74  1  0  0  0  0
 44 47  1  0  0  0  0
 44 74  1  0  0  0  0
 45 77  1  0  0  0  0
 46 73  1  0  0  0  0
 47 72  1  0  0  0  0
 48 65  1  0  0  0  0
 49 66  1  0  0  0  0
 50 66  1  0  0  0  0
 51 67  1  0  0  0  0
 52 68  1  0  0  0  0
 53 68  1  0  0  0  0
 54 68  1  0  0  0  0
 55 80  1  0  0  0  0
 56 58  1  0  0  0  0
 57 59  1  0  0  0  0
 58 60  1  0  0  0  0
 59 66  1  0  0  0  0
 60 67  1  0  0  0  0
 61 62  1  0  0  0  0
 61 71  1  0  0  0  0
 62 79  1  0  0  0  0
 63 67  1  0  0  0  0
 63 87  1  0  0  0  0
 64 68  1  0  0  0  0
 64 78  1  0  0  0  0
 65 80  1  0  0  0  0
 70 72  1  0  0  0  0
M  CHG  1  80   1
M  ISO  4  35 100  63 101  79 100  87 101
M  END
> <Batch ID>
0094

> <Smiles>
CNC(C)C(=O)NC(C(=O)N1Cc2cc([101O:1][101CH2:1]C(C)CCCc3ncn(CC[100NH:0][100C:0](=O)N4CCCC(n5nc(-c6ccc(Oc7ccc(F)cc7F)cc6)c(C(N)=O)c5N)C4)c3CCC(C)C)ccc2CC1C(=O)NC1CCCc2ccccc21)C(C)(C)C

> <Shape>
0.197

> <Color>
0.186

> <Negative vol penalty>
0.000

$$$$

  -OEChem-04052319193D

 88 96  0     1  0  0  0  0  0999 V2000
  -31.1745   -6.2540   39.2310 C   0  0  0  0  0  0  0  0  0  0  0  0
  -30.6722   -6.3261   37.9357 C   0  0  0  0  0  0  0  0  0  0  0  0
  -23.2885   -9.7996   19.9125 C   0  0  0  0  0  0  0  0  0  0  0  0
  -23.7386   -9.9397   22.2820 C   0  0  0  0  0  0  0  0  0  0  0  0
  -30.9562   -7.3043   40.1216 C   0  0  0  0  0  0  0  0  0  0  0  0
  -29.9502   -7.4482   37.5305 C   0  0  0  0  0  0  0  0  0  0  0  0
  -31.3385   -9.1017   32.9497 C   0  0  0  0  0  0  0  0  0  0  0  0
  -22.5620   -8.6271   20.1198 C   0  0  0  0  0  0  0  0  0  0  0  0
  -23.0121   -8.7672   22.4894 C   0  0  0  0  0  0  0  0  0  0  0  0
  -30.8544   -8.4007   31.8461 C   0  0  0  0  0  0  0  0  0  0  0  0
  -19.7649   -7.8563   22.7057 C   0  0  0  0  0  0  0  0  0  0  0  0
  -18.8623   -7.8345   23.7688 C   0  0  0  0  0  0  0  0  0  0  0  0
  -29.1545  -10.0829   31.5308 C   0  0  0  0  0  0  0  0  0  0  0  0
  -20.0676   -5.9870   24.7543 C   0  0  0  0  0  0  0  0  0  0  0  0
  -31.5028  -11.1098   25.2971 C   0  0  0  0  0  0  0  0  0  0  0  0
  -23.8768  -10.4559   20.9936 C   0  0  0  0  0  0  0  0  0  0  0  0
  -24.1364  -12.9859   20.7956 C   0  0  0  0  0  0  0  0  0  0  0  0
  -30.2395   -8.4440   39.7242 C   0  0  0  0  0  0  0  0  0  0  0  0
  -30.7264  -10.2949   33.3594 C   0  0  0  0  0  0  0  0  0  0  0  0
  -29.7210   -8.5141   38.4171 C   0  0  0  0  0  0  0  0  0  0  0  0
  -29.6343  -10.7985   32.6384 C   0  0  0  0  0  0  0  0  0  0  0  0
  -31.3201  -12.4486   25.0295 C   0  0  0  0  0  0  0  0  0  0  0  0
  -30.7380  -13.0345   26.1806 C   0  0  0  0  0  0  0  0  0  0  0  0
  -22.4237   -8.1109   21.4082 C   0  0  0  0  0  0  0  0  0  0  0  0
  -29.7605   -8.8897   31.1382 C   0  0  0  0  0  0  0  0  0  0  0  0
  -20.8189   -6.9434   22.6667 C   0  0  0  0  0  0  0  0  0  0  0  0
  -19.0136   -6.8998   24.7931 C   0  0  0  0  0  0  0  0  0  0  0  0
  -20.9703   -6.0088   23.6911 C   0  0  0  0  0  0  0  0  0  0  0  0
  -24.6279  -11.6669   20.7800 C   0  0  0  0  0  0  0  0  0  0  0  0
  -30.5830  -12.0359   27.1167 C   0  0  0  0  0  0  0  0  0  0  0  0
  -25.2380  -13.7658   20.5410 C   0  0  0  0  0  0  0  0  0  0  0  0
  -22.8033  -13.4636   21.0201 C   0  0  0  0  0  0  0  0  0  0  0  0
  -29.2302  -11.2592   35.9929 C   0  0  0  0  0  0  0  0  0  0  0  0
  -29.2388  -14.1279   34.4787 C   0  0  0  0  0  0  0  0  0  0  0  0
  -29.3875  -15.8505   31.5364 C   0  0  0  0  0  0  0  0  0  0  0  0
  -31.1087  -12.9223   21.3621 C   0  0  0  0  0  0  0  0  0  0  0  0
  -29.9884   -9.5333   40.7367 C   0  0  0  0  0  0  0  0  0  0  0  0
  -31.2773  -11.0531   34.5359 C   0  0  0  0  0  0  0  0  0  0  0  0
  -28.9543  -12.0855   33.0252 C   0  0  0  0  0  0  0  0  0  0  0  0
  -29.5346  -10.8510   40.1139 C   0  0  0  0  0  0  0  0  0  0  0  0
  -29.4607  -13.6624   18.2941 C   0  0  0  0  0  0  0  0  0  0  0  0
  -28.4407  -10.6039   39.0799 C   0  0  0  0  0  0  0  0  0  0  0  0
  -27.9909  -13.3539   18.5847 C   0  0  0  0  0  0  0  0  0  0  0  0
  -30.3938  -12.6828   19.0025 C   0  0  0  0  0  0  0  0  0  0  0  0
  -28.7066  -12.2532   20.7468 C   0  0  0  0  0  0  0  0  0  0  0  0
  -28.9542   -9.7255   37.9326 C   0  0  1  0  0  0  0  0  0  0  0  0
  -30.2564  -11.9900   35.1741 C   0  0  1  0  0  0  0  0  0  0  0  0
  -27.7289  -13.2486   20.0991 C   0  0  2  0  0  0  0  0  0  0  0  0
  -30.0295  -12.0899   28.4864 C   0  0  0  0  0  0  0  0  0  0  0  0
  -31.5923  -15.3994   26.2853 C   0  0  0  0  0  0  0  0  0  0  0  0
  -29.3333  -18.1840   30.6149 C   0  0  0  0  0  0  0  0  0  0  0  0
  -26.2219  -14.2307   34.9233 C   0  0  0  0  0  0  0  0  0  0  0  0
  -26.1000  -16.0431   33.2003 C   0  0  0  0  0  0  0  0  0  0  0  0
  -27.4058  -16.4020   35.2952 C   0  0  0  0  0  0  0  0  0  0  0  0
  -32.0972  -15.5801   30.3773 C   0  0  0  0  0  0  0  0  0  0  0  0
  -27.5327  -14.1102   26.8677 C   0  0  0  0  0  0  0  0  0  0  0  0
  -27.0003  -14.5606   24.4773 C   0  0  0  0  0  0  0  0  0  0  0  0
  -31.6700  -13.1355   23.7702 C   0  0  0  0  0  0  0  0  0  0  0  0
  -29.7179   -8.8092   27.2512 C   0  0  0  0  0  0  0  0  0  0  0  0
  -29.7827   -7.4051   27.8543 C   0  0  0  0  0  0  0  0  0  0  0  0
  -31.0748   -9.5224   27.2444 C   0  0  0  0  0  0  0  0  0  0  0  0
  -29.3024  -14.9629   25.3371 C   0  0  0  0  0  0  0  0  0  0  0  0
  -30.2273   -7.4418   29.3102 C   0  0  0  0  0  0  0  0  0  1  0  0
  -30.3650  -14.4542   26.3487 C   0  0  1  0  0  0  0  0  0  0  0  0
  -28.3067  -14.8367   33.5260 C   0  0  1  0  0  0  0  0  0  0  0  0
  -30.2159  -17.0497   31.1119 C   0  0  2  0  0  0  0  0  0  0  0  0
  -27.0200  -15.3529   34.2298 C   0  0  0  0  0  0  0  0  0  0  0  0
  -25.9396  -11.6082   20.5348 N   0  0  0  0  0  0  0  0  0  0  0  0
  -31.0515  -10.8704   26.5687 N   0  0  0  0  0  0  0  0  0  0  0  0
  -26.2816  -12.9001   20.3939 N   0  0  0  0  0  0  0  0  0  0  0  0
  -29.5259  -12.7871   34.1864 N   0  0  0  0  0  0  0  0  0  0  0  0
  -30.0941  -12.6311   20.4355 N   0  0  0  0  0  0  0  0  0  0  0  0
  -25.4061  -15.1008   20.4309 N   0  0  0  0  0  0  0  0  0  0  0  0
  -21.7907  -12.5267   21.2671 N   0  0  0  0  0  0  0  0  0  0  0  0
  -29.7635  -10.5063   37.0216 N   0  0  0  0  0  0  0  0  0  0  0  0
  -29.0966  -15.8818   32.8838 N   0  0  0  0  0  0  0  0  0  0  0  0
  -30.7387  -12.8565   22.6998 N   0  0  0  0  0  0  0  0  0  0  0  0
  -31.1540  -16.6702   30.0179 N   0  3  0  0  0  0  0  0  0  0  0  0
  -28.0682  -14.1449   25.4581 N   0  3  0  0  0  0  0  0  0  0  0  0
  -22.5156  -14.6841   20.9860 O   0  0  0  0  0  0  0  0  0  0  0  0
  -28.0424  -11.3714   35.7131 O   0  0  0  0  0  0  0  0  0  0  0  0
  -29.7010  -14.7435   35.4427 O   0  0  0  0  0  0  0  0  0  0  0  0
  -29.0308  -14.9755   30.7504 O   0  0  0  0  0  0  0  0  0  0  0  0
  -32.2578  -13.2241   21.0223 O   0  0  0  0  0  0  0  0  0  0  0  0
  -21.7147   -6.9669   21.6110 O   0  0  0  0  0  0  0  0  0  0  0  0
  -29.2855   -8.2071   30.0610 O   0  0  0  0  0  0  0  0  0  1  0  0
  -18.1476   -6.8800   25.8148 F   0  0  0  0  0  0  0  0  0  0  0  0
  -21.9816   -5.1301   23.6598 F   0  0  0  0  0  0  0  0  0  0  0  0
  1  2  1  0  0  0  0
  1  5  2  0  0  0  0
  2  6  2  0  0  0  0
  3  8  2  0  0  0  0
  3 16  1  0  0  0  0
  4  9  1  0  0  0  0
  4 16  2  0  0  0  0
  5 18  1  0  0  0  0
  6 20  1  0  0  0  0
  7 10  2  0  0  0  0
  7 19  1  0  0  0  0
  8 24  1  0  0  0  0
  9 24  2  0  0  0  0
 10 25  1  0  0  0  0
 11 12  2  0  0  0  0
 11 26  1  0  0  0  0
 12 27  1  0  0  0  0
 13 21  1  0  0  0  0
 13 25  2  0  0  0  0
 14 27  2  0  0  0  0
 14 28  1  0  0  0  0
 15 22  2  0  0  0  0
 15 69  1  0  0  0  0
 16 29  1  0  0  0  0
 17 29  1  0  0  0  0
 17 31  2  0  0  0  0
 17 32  1  0  0  0  0
 18 20  2  0  0  0  0
 18 37  1  0  0  0  0
 19 21  2  0  0  0  0
 19 38  1  0  0  0  0
 20 46  1  0  0  0  0
 21 39  1  0  0  0  0
 22 23  1  0  0  0  0
 22 58  1  0  0  0  0
 23 30  2  0  0  0  0
 23 64  1  0  0  0  0
 24 85  1  0  0  0  0
 25 86  1  0  0  0  0
 26 28  2  0  0  0  0
 26 85  1  0  0  0  0
 27 87  1  0  0  0  0
 28 88  1  0  0  0  0
 29 68  2  0  0  0  0
 30 49  1  0  0  0  0
 30 69  1  0  0  0  0
 31 70  1  0  0  0  0
 31 73  1  0  0  0  0
 32 74  1  0  0  0  0
 32 80  2  0  0  0  0
 33 47  1  0  0  0  0
 33 75  1  0  0  0  0
 33 81  2  0  0  0  0
 34 65  1  0  0  0  0
 34 71  1  0  0  0  0
 34 82  2  0  0  0  0
 35 66  1  0  0  0  0
 35 76  1  0  0  0  0
 35 83  2  0  0  0  0
 36 72  1  0  0  0  0
 36 77  1  0  0  0  0
 36 84  2  0  0  0  0
 37 40  1  0  0  0  0
 38 47  1  0  0  0  0
 39 71  1  0  0  0  0
 40 42  1  0  0  0  0
 41 43  1  0  0  0  0
 41 44  1  0  0  0  0
 42 46  1  0  0  0  0
 43 48  1  0  0  0  0
 44 72  1  0  0  0  0
 45 48  1  0  0  0  0
 45 72  1  0  0  0  0
 46 75  1  0  0  0  0
 47 71  1  0  0  0  0
 48 70  1  0  0  0  0
 50 64  1  0  0  0  0
 51 66  1  0  0  0  0
 52 67  1  0  0  0  0
 53 67  1  0  0  0  0
 54 67  1  0  0  0  0
 55 78  1  0  0  0  0
 56 79  1  0  0  0  0
 57 79  1  0  0  0  0
 58 77  1  0  0  0  0
 59 60  1  0  0  0  0
 59 61  1  0  0  0  0
 60 63  1  0  0  0  0
 61 69  1  0  0  0  0
 62 64  1  0  0  0  0
 62 79  1  0  0  0  0
 63 86  1  0  0  0  0
 65 67  1  0  0  0  0
 65 76  1  0  0  0  0
 66 78  1  0  0  0  0
 68 70  1  0  0  0  0
M  CHG  2  78   1  79   1
M  ISO  4  36 100  63 101  77 100  86 101
M  END
> <Batch ID>
0094

> <Smiles>
CNC(C)C(=O)NC(C(=O)N1Cc2cc([101O:1][101CH2:1]CCCn3cc(C[100NH:0][100C:0](=O)N4CCCC(n5nc(-c6ccc(Oc7ccc(F)cc7F)cc6)c(C(N)=O)c5N)C4)c(C(C)CN(C)C)c3C)ccc2CC1C(=O)NC1CCCc2ccccc21)C(C)(C)C

> <Shape>
0.131

> <Color>
0.170

> <Negative vol penalty>
0.000

$$$$

  -OEChem-04052319193D

 85 93  0     1  0  0  0  0  0999 V2000
  -36.2476  -20.5430   22.5135 C   0  0  0  0  0  0  0  0  0  0  0  0
  -35.0549  -21.1652   22.1589 C   0  0  0  0  0  0  0  0  0  0  0  0
  -32.1493  -26.4841   19.5272 C   0  0  0  0  0  0  0  0  0  0  0  0
  -31.4190  -24.6028   20.8555 C   0  0  0  0  0  0  0  0  0  0  0  0
  -36.4833  -19.2223   22.1336 C   0  0  0  0  0  0  0  0  0  0  0  0
  -34.0977  -20.4675   21.4231 C   0  0  0  0  0  0  0  0  0  0  0  0
  -28.0120  -20.9827   21.8748 C   0  0  0  0  0  0  0  0  0  0  0  0
  -33.4487  -26.3181   20.0064 C   0  0  0  0  0  0  0  0  0  0  0  0
  -32.7185  -24.4367   21.3346 C   0  0  0  0  0  0  0  0  0  0  0  0
  -27.0722  -21.6892   21.1254 C   0  0  0  0  0  0  0  0  0  0  0  0
  -35.1808  -27.0544   22.8138 C   0  0  0  0  0  0  0  0  0  0  0  0
  -35.8710  -28.1957   23.2220 C   0  0  0  0  0  0  0  0  0  0  0  0
  -26.6257  -19.7059   19.8269 C   0  0  0  0  0  0  0  0  0  0  0  0
  -37.5755  -27.7569   21.5670 C   0  0  0  0  0  0  0  0  0  0  0  0
  -20.2872  -25.3163   22.0071 C   0  0  0  0  0  0  0  0  0  0  0  0
  -31.1344  -25.6265   19.9518 C   0  0  0  0  0  0  0  0  0  0  0  0
  -29.2261  -25.2079   18.3115 C   0  0  0  0  0  0  0  0  0  0  0  0
  -35.5244  -18.5050   21.4011 C   0  0  0  0  0  0  0  0  0  0  0  0
  -28.2739  -19.6331   21.5982 C   0  0  0  0  0  0  0  0  0  0  0  0
  -34.3214  -19.1365   21.0319 C   0  0  0  0  0  0  0  0  0  0  0  0
  -27.5674  -18.9838   20.5759 C   0  0  0  0  0  0  0  0  0  0  0  0
  -33.7333  -25.2944   20.9101 C   0  0  0  0  0  0  0  0  0  0  0  0
  -26.3810  -21.0516   20.0994 C   0  0  0  0  0  0  0  0  0  0  0  0
  -35.6880  -26.2643   21.7823 C   0  0  0  0  0  0  0  0  0  0  0  0
  -37.0683  -28.5470   22.5986 C   0  0  0  0  0  0  0  0  0  0  0  0
  -36.8853  -26.6155   21.1588 C   0  0  0  0  0  0  0  0  0  0  0  0
  -29.7918  -25.7978   19.4577 C   0  0  0  0  0  0  0  0  0  0  0  0
  -19.9247  -26.3522   22.8209 C   0  0  0  0  0  0  0  0  0  0  0  0
  -27.9383  -25.6845   18.2801 C   0  0  0  0  0  0  0  0  0  0  0  0
  -22.0300  -25.8353   23.2694 C   0  0  0  0  0  0  0  0  0  0  0  0
  -29.8122  -24.3094   17.3602 C   0  0  0  0  0  0  0  0  0  0  0  0
  -30.8284  -17.9904   20.6602 C   0  0  0  0  0  0  0  0  0  0  0  0
  -28.8854  -15.4398   21.1513 C   0  0  0  0  0  0  0  0  0  0  0  0
  -25.7058  -14.2175   21.3601 C   0  0  0  0  0  0  0  0  0  0  0  0
  -24.2459  -27.7374   22.5230 C   0  0  0  0  0  0  0  0  0  0  0  0
  -35.8441  -17.0947   20.9725 C   0  0  0  0  0  0  0  0  0  0  0  0
  -29.2713  -18.8779   22.4333 C   0  0  0  0  0  0  0  0  0  0  0  0
  -27.7971  -17.5309   20.2522 C   0  0  0  0  0  0  0  0  0  0  0  0
  -34.6204  -16.3047   20.5160 C   0  0  0  0  0  0  0  0  0  0  0  0
  -25.3100  -29.4601   19.5944 C   0  0  0  0  0  0  0  0  0  0  0  0
  -33.7705  -17.1399   19.5636 C   0  0  0  0  0  0  0  0  0  0  0  0
  -26.5282  -28.6636   19.1239 C   0  0  0  0  0  0  0  0  0  0  0  0
  -25.2316  -29.5238   21.1182 C   0  0  0  0  0  0  0  0  0  0  0  0
  -26.4954  -27.4182   21.3254 C   0  0  0  0  0  0  0  0  0  0  0  0
  -33.2482  -18.4048   20.2554 C   0  0  1  0  0  0  0  0  0  0  0  0
  -29.8295  -17.6455   21.7283 C   0  0  1  0  0  0  0  0  0  0  0  0
  -26.5866  -27.2788   19.7961 C   0  0  2  0  0  0  0  0  0  0  0  0
  -18.7889  -28.5921   22.6051 C   0  0  0  0  0  0  0  0  0  0  0  0
  -18.0127  -26.9482   24.3516 C   0  0  0  0  0  0  0  0  0  0  0  0
  -24.4354  -12.0861   21.7346 C   0  0  0  0  0  0  0  0  0  0  0  0
  -23.4897  -23.3438   17.9261 C   0  0  0  0  0  0  0  0  0  0  0  0
  -29.5352  -14.5551   18.3043 C   0  0  0  0  0  0  0  0  0  0  0  0
  -27.5627  -13.0166   18.4065 C   0  0  0  0  0  0  0  0  0  0  0  0
  -29.4701  -12.7027   19.9832 C   0  0  0  0  0  0  0  0  0  0  0  0
  -24.4021  -15.2859   23.7928 C   0  0  0  0  0  0  0  0  0  0  0  0
  -23.3811  -25.8506   23.8835 C   0  0  0  0  0  0  0  0  0  0  0  0
  -22.5539  -24.0996   20.1260 C   0  0  0  0  0  0  0  0  0  0  0  0
  -22.4090  -23.9331   21.6451 C   0  0  0  0  0  0  0  0  0  0  0  0
  -24.7737  -22.8027   20.0208 C   0  0  0  0  0  0  0  0  0  1  0  0
  -18.6630  -27.0857   22.9506 C   0  0  0  0  0  0  0  0  0  0  0  0
  -27.9062  -14.6630   20.3045 C   0  0  1  0  0  0  0  0  0  0  0  0
  -25.0366  -13.3215   22.3866 C   0  0  2  0  0  0  0  0  0  0  0  0
  -23.3769  -23.0014   19.4172 C   0  0  2  0  0  0  0  0  0  0  0  0
  -28.6154  -13.7623   19.2542 C   0  0  0  0  0  0  0  0  0  0  0  0
  -28.9338  -26.5889   20.1073 N   0  0  0  0  0  0  0  0  0  0  0  0
  -21.5947  -25.0173   22.3056 N   0  0  0  0  0  0  0  0  0  0  0  0
  -27.8159  -26.4995   19.3668 N   0  0  0  0  0  0  0  0  0  0  0  0
  -21.0221  -26.6526   23.5913 N   0  3  0  0  0  0  0  0  0  0  0  0
  -28.7869  -16.8372   21.0928 N   0  0  0  0  0  0  0  0  0  0  0  0
  -25.2903  -28.1779   21.6934 N   0  0  0  0  0  0  0  0  0  0  0  0
  -26.9101  -25.4819   17.4291 N   0  0  0  0  0  0  0  0  0  0  0  0
  -31.1465  -23.9210   17.5422 N   0  0  0  0  0  0  0  0  0  0  0  0
  -32.1294  -18.0848   21.1160 N   0  0  0  0  0  0  0  0  0  0  0  0
  -27.0497  -13.9354   21.2348 N   0  0  0  0  0  0  0  0  0  0  0  0
  -24.3769  -26.4470   23.0213 N   0  0  0  0  0  0  0  0  0  0  0  0
  -23.9481  -14.0598   23.0874 N   0  3  0  0  0  0  0  0  0  0  0  0
  -29.1767  -23.8771   16.3689 O   0  0  0  0  0  0  0  0  0  0  0  0
  -30.4472  -18.1571   19.5075 O   0  0  0  0  0  0  0  0  0  0  0  0
  -29.7026  -14.8291   21.8446 O   0  0  0  0  0  0  0  0  0  0  0  0
  -25.0966  -15.0789   20.7297 O   0  0  0  0  0  0  0  0  0  0  0  0
  -23.2664  -28.4401   22.7949 O   0  0  0  0  0  0  0  0  0  0  0  0
  -35.0012  -25.1319   21.3776 O   0  0  0  0  0  0  0  0  0  0  0  0
  -25.4637  -21.7390   19.3660 O   0  0  0  0  0  0  0  0  0  1  0  0
  -37.7302  -29.6439   22.9897 F   0  0  0  0  0  0  0  0  0  0  0  0
  -37.3769  -25.8610   20.1664 F   0  0  0  0  0  0  0  0  0  0  0  0
  1  2  1  0  0  0  0
  1  5  2  0  0  0  0
  2  6  2  0  0  0  0
  3  8  2  0  0  0  0
  3 16  1  0  0  0  0
  4  9  1  0  0  0  0
  4 16  2  0  0  0  0
  5 18  1  0  0  0  0
  6 20  1  0  0  0  0
  7 10  2  0  0  0  0
  7 19  1  0  0  0  0
  8 22  1  0  0  0  0
  9 22  2  0  0  0  0
 10 23  1  0  0  0  0
 11 12  2  0  0  0  0
 11 24  1  0  0  0  0
 12 25  1  0  0  0  0
 13 21  1  0  0  0  0
 13 23  2  0  0  0  0
 14 25  2  0  0  0  0
 14 26  1  0  0  0  0
 15 28  2  0  0  0  0
 15 66  1  0  0  0  0
 16 27  1  0  0  0  0
 17 27  1  0  0  0  0
 17 29  2  0  0  0  0
 17 31  1  0  0  0  0
 18 20  2  0  0  0  0
 18 36  1  0  0  0  0
 19 21  2  0  0  0  0
 19 37  1  0  0  0  0
 20 45  1  0  0  0  0
 21 38  1  0  0  0  0
 22 82  1  0  0  0  0
 23 83  1  0  0  0  0
 24 26  2  0  0  0  0
 24 82  1  0  0  0  0
 25 84  1  0  0  0  0
 26 85  1  0  0  0  0
 27 65  2  0  0  0  0
 28 60  1  0  0  0  0
 28 68  1  0  0  0  0
 29 67  1  0  0  0  0
 29 71  1  0  0  0  0
 30 56  1  0  0  0  0
 30 66  1  0  0  0  0
 30 68  2  0  0  0  0
 31 72  1  0  0  0  0
 31 77  2  0  0  0  0
 32 46  1  0  0  0  0
 32 73  1  0  0  0  0
 32 78  2  0  0  0  0
 33 61  1  0  0  0  0
 33 69  1  0  0  0  0
 33 79  2  0  0  0  0
 34 62  1  0  0  0  0
 34 74  1  0  0  0  0
 34 80  2  0  0  0  0
 35 70  1  0  0  0  0
 35 75  1  0  0  0  0
 35 81  2  0  0  0  0
 36 39  1  0  0  0  0
 37 46  1  0  0  0  0
 38 69  1  0  0  0  0
 39 41  1  0  0  0  0
 40 42  1  0  0  0  0
 40 43  1  0  0  0  0
 41 45  1  0  0  0  0
 42 47  1  0  0  0  0
 43 70  1  0  0  0  0
 44 47  1  0  0  0  0
 44 70  1  0  0  0  0
 45 73  1  0  0  0  0
 46 69  1  0  0  0  0
 47 67  1  0  0  0  0
 48 60  1  0  0  0  0
 49 60  1  0  0  0  0
 50 62  1  0  0  0  0
 51 63  1  0  0  0  0
 52 64  1  0  0  0  0
 53 64  1  0  0  0  0
 54 64  1  0  0  0  0
 55 76  1  0  0  0  0
 56 75  1  0  0  0  0
 57 58  1  0  0  0  0
 57 63  1  0  0  0  0
 58 66  1  0  0  0  0
 59 63  1  0  0  0  0
 59 83  1  0  0  0  0
 61 64  1  0  0  0  0
 61 74  1  0  0  0  0
 62 76  1  0  0  0  0
 65 67  1  0  0  0  0
M  CHG  2  68   1  76   1
M  ISO  4  35 100  59 101  75 100  83 101
M  END
> <Batch ID>
0094

> <Smiles>
CNC(C)C(=O)NC(C(=O)N1Cc2cc([101O:1][101CH2:1]C(C)CCn3cc(C(C)C)nc3C[100NH:0][100C:0](=O)N3CCCC(n4nc(-c5ccc(Oc6ccc(F)cc6F)cc5)c(C(N)=O)c4N)C3)ccc2CC1C(=O)NC1CCCc2ccccc21)C(C)(C)C

> <Shape>
0.206

> <Color>
0.069

> <Negative vol penalty>
0.000

$$$$

  -OEChem-04052319193D

 94102  0     1  0  0  0  0  0999 V2000
  -27.5486  -27.2065   10.5492 C   0  0  0  0  0  0  0  0  0  0  0  0
  -27.3623  -26.1561   11.4422 C   0  0  0  0  0  0  0  0  0  0  0  0
  -23.0026   -9.8919   19.9788 C   0  0  0  0  0  0  0  0  0  0  0  0
  -23.7335   -9.9379   22.2812 C   0  0  0  0  0  0  0  0  0  0  0  0
  -28.4751  -28.2081   10.8364 C   0  0  0  0  0  0  0  0  0  0  0  0
  -28.1032  -26.1061   12.6224 C   0  0  0  0  0  0  0  0  0  0  0  0
  -25.2652  -24.9345   16.6496 C   0  0  0  0  0  0  0  0  0  0  0  0
  -22.2390   -8.7552   20.2439 C   0  0  0  0  0  0  0  0  0  0  0  0
  -22.9698   -8.8012   22.5463 C   0  0  0  0  0  0  0  0  0  0  0  0
  -24.9207  -23.5940   16.8175 C   0  0  0  0  0  0  0  0  0  0  0  0
  -23.2196   -5.4640   22.0644 C   0  0  0  0  0  0  0  0  0  0  0  0
  -23.8111   -4.4459   22.8122 C   0  0  0  0  0  0  0  0  0  0  0  0
  -26.6800  -23.3527   18.4504 C   0  0  0  0  0  0  0  0  0  0  0  0
  -22.0909   -4.6807   24.4924 C   0  0  0  0  0  0  0  0  0  0  0  0
  -29.0079  -17.4582   19.2595 C   0  0  0  0  0  0  0  0  0  0  0  0
  -23.7499  -10.4833   20.9974 C   0  0  0  0  0  0  0  0  0  0  0  0
  -24.1297  -13.0001   20.8275 C   0  0  0  0  0  0  0  0  0  0  0  0
  -29.2208  -28.1754   12.0253 C   0  0  0  0  0  0  0  0  0  0  0  0
  -26.3284  -25.4923   17.3740 C   0  0  0  0  0  0  0  0  0  0  0  0
  -29.0415  -27.1075   12.9252 C   0  0  0  0  0  0  0  0  0  0  0  0
  -27.0343  -24.7012   18.2917 C   0  0  0  0  0  0  0  0  0  0  0  0
  -29.1772  -17.7878   17.9329 C   0  0  0  0  0  0  0  0  0  0  0  0
  -30.2344  -18.7283   17.8622 C   0  0  0  0  0  0  0  0  0  0  0  0
  -22.2226   -8.2098   21.5276 C   0  0  0  0  0  0  0  0  0  0  0  0
  -25.6300  -22.8021   17.7159 C   0  0  0  0  0  0  0  0  0  0  0  0
  -22.0638   -6.0906   22.5307 C   0  0  0  0  0  0  0  0  0  0  0  0
  -23.2467   -4.0543   24.0262 C   0  0  0  0  0  0  0  0  0  0  0  0
  -21.4995   -5.6989   23.7446 C   0  0  0  0  0  0  0  0  0  0  0  0
  -24.5393  -11.6572   20.7241 C   0  0  0  0  0  0  0  0  0  0  0  0
  -30.6791  -18.9446   19.1478 C   0  0  0  0  0  0  0  0  0  0  0  0
  -25.2371  -13.7259   20.4623 C   0  0  0  0  0  0  0  0  0  0  0  0
  -22.8617  -13.5429   21.2187 C   0  0  0  0  0  0  0  0  0  0  0  0
  -29.1168  -26.8118   16.6075 C   0  0  0  0  0  0  0  0  0  0  0  0
  -29.2555  -27.4314   19.7886 C   0  0  0  0  0  0  0  0  0  0  0  0
  -28.2449  -26.6185   22.9453 C   0  0  0  0  0  0  0  0  0  0  0  0
  -30.7322  -14.6708   20.6996 C   0  0  0  0  0  0  0  0  0  0  0  0
  -30.2446  -29.2555   12.2700 C   0  0  0  0  0  0  0  0  0  0  0  0
  -26.6703  -26.9468   17.2011 C   0  0  0  0  0  0  0  0  0  0  0  0
  -28.1709  -25.2573   19.1085 C   0  0  0  0  0  0  0  0  0  0  0  0
  -30.7199  -29.3273   13.7189 C   0  0  0  0  0  0  0  0  0  0  0  0
  -29.5905  -12.2514   18.3503 C   0  0  0  0  0  0  0  0  0  0  0  0
  -31.0487  -27.9329   14.2425 C   0  0  0  0  0  0  0  0  0  0  0  0
  -28.1436  -11.9876   18.7708 C   0  0  0  0  0  0  0  0  0  0  0  0
  -30.4954  -12.4852   19.5579 C   0  0  0  0  0  0  0  0  0  0  0  0
  -28.5871  -13.2732   20.9037 C   0  0  0  0  0  0  0  0  0  0  0  0
  -29.8084  -27.0313   14.2275 C   0  0  1  0  0  0  0  0  0  0  0  0
  -28.1016  -27.2772   17.6127 C   0  0  1  0  0  0  0  0  0  0  0  0
  -27.6255  -13.0869   19.7176 C   0  0  2  0  0  0  0  0  0  0  0  0
  -30.2897  -21.8954   20.0080 C   0  0  0  0  0  0  0  0  0  0  0  0
  -28.5859  -15.7248   16.6356 C   0  0  0  0  0  0  0  0  0  0  0  0
  -33.1452  -19.4003   19.1123 C   0  0  0  0  0  0  0  0  0  0  0  0
  -28.5570  -27.2810   25.3455 C   0  0  0  0  0  0  0  0  0  0  0  0
  -33.7379  -19.1308   12.5338 C   0  0  0  0  0  0  0  0  0  0  0  0
  -32.5363  -17.0509   13.2344 C   0  0  0  0  0  0  0  0  0  0  0  0
  -31.9827  -26.0634   19.8091 C   0  0  0  0  0  0  0  0  0  0  0  0
  -31.8074  -25.9058   22.3016 C   0  0  0  0  0  0  0  0  0  0  0  0
  -31.8474  -28.1410   21.1946 C   0  0  0  0  0  0  0  0  0  0  0  0
  -25.3765  -27.2775   23.2573 C   0  0  0  0  0  0  0  0  0  0  0  0
  -30.7641  -19.3618   16.6370 C   0  0  0  0  0  0  0  0  0  0  0  0
  -31.5466  -21.3395   19.3496 C   0  0  0  0  0  0  0  0  0  0  0  0
  -31.7196  -18.4722   15.8080 C   0  0  0  0  0  0  0  0  0  0  0  0
  -26.5692  -19.0632   16.8204 C   0  0  0  0  0  0  0  0  0  0  0  0
  -25.0603  -19.3304   16.8271 C   0  0  0  0  0  0  0  0  0  0  0  0
  -26.8649  -17.5587   16.8674 C   0  0  0  0  0  0  0  0  0  0  0  0
  -32.2860  -19.2020   14.5833 C   0  0  0  0  0  0  0  0  0  0  0  0
  -30.0651  -18.0934   21.4267 C   0  0  0  0  0  0  0  0  0  0  0  0
  -30.8136  -16.8466   21.8907 C   0  0  0  0  0  0  0  0  0  0  0  0
  -24.7380  -20.8180   16.7548 C   0  0  0  0  0  0  0  0  0  1  0  0
  -28.3716  -17.2376   16.7686 C   0  0  1  0  0  0  0  0  0  0  0  0
  -31.7562  -19.8242   19.6492 C   0  0  1  0  0  0  0  0  0  0  0  0
  -29.7808  -26.6976   20.9988 C   0  0  1  0  0  0  0  0  0  0  0  0
  -27.7242  -27.4722   24.0875 C   0  0  2  0  0  0  0  0  0  0  0  0
  -33.2215  -18.3257   13.7289 C   0  0  0  0  0  0  0  0  0  0  0  0
  -31.3345  -26.6907   21.0594 C   0  0  0  0  0  0  0  0  0  0  0  0
  -25.8078  -11.5344   20.3244 N   0  0  0  0  0  0  0  0  0  0  0  0
  -29.9265  -18.1672   19.9888 N   0  0  0  0  0  0  0  0  0  0  0  0
  -26.2049  -12.8094   20.1733 N   0  0  0  0  0  0  0  0  0  0  0  0
  -28.4712  -26.6833   18.8992 N   0  0  0  0  0  0  0  0  0  0  0  0
  -29.9487  -13.5405   20.4143 N   0  0  0  0  0  0  0  0  0  0  0  0
  -25.4677  -15.0524   20.3634 N   0  0  0  0  0  0  0  0  0  0  0  0
  -21.8325  -12.6558   21.5624 N   0  0  0  0  0  0  0  0  0  0  0  0
  -28.9426  -27.3441   15.3443 N   0  0  0  0  0  0  0  0  0  0  0  0
  -29.1404  -27.3104   22.1576 N   0  0  0  0  0  0  0  0  0  0  0  0
  -30.1360  -15.6261   21.5136 N   0  0  0  0  0  0  0  0  0  0  0  0
  -26.3118  -27.1139   24.3999 N   0  3  0  0  0  0  0  0  0  0  0  0
  -22.6426  -14.7777   21.2465 O   0  0  0  0  0  0  0  0  0  0  0  0
  -29.9941  -26.0290   16.9529 O   0  0  0  0  0  0  0  0  0  0  0  0
  -29.5249  -28.6261   19.6417 O   0  0  0  0  0  0  0  0  0  0  0  0
  -27.8952  -25.4531   22.7717 O   0  0  0  0  0  0  0  0  0  0  0  0
  -31.8763  -14.8202   20.2571 O   0  0  0  0  0  0  0  0  0  0  0  0
  -21.4774   -7.1007   21.7867 O   0  0  0  0  0  0  0  0  0  0  0  0
  -25.2963  -21.4932   17.8812 O   0  0  0  0  0  0  0  0  0  1  0  0
  -23.8140   -3.0755   24.7434 F   0  0  0  0  0  0  0  0  0  0  0  0
  -20.3886   -6.2963   24.1971 F   0  0  0  0  0  0  0  0  0  0  0  0
  1  2  1  0  0  0  0
  1  5  2  0  0  0  0
  2  6  2  0  0  0  0
  3  8  2  0  0  0  0
  3 16  1  0  0  0  0
  4  9  1  0  0  0  0
  4 16  2  0  0  0  0
  5 18  1  0  0  0  0
  6 20  1  0  0  0  0
  7 10  2  0  0  0  0
  7 19  1  0  0  0  0
  8 24  1  0  0  0  0
  9 24  2  0  0  0  0
 10 25  1  0  0  0  0
 11 12  2  0  0  0  0
 11 26  1  0  0  0  0
 12 27  1  0  0  0  0
 13 21  1  0  0  0  0
 13 25  2  0  0  0  0
 14 27  2  0  0  0  0
 14 28  1  0  0  0  0
 15 22  2  0  0  0  0
 15 76  1  0  0  0  0
 16 29  1  0  0  0  0
 17 29  1  0  0  0  0
 17 31  2  0  0  0  0
 17 32  1  0  0  0  0
 18 20  2  0  0  0  0
 18 37  1  0  0  0  0
 19 21  2  0  0  0  0
 19 38  1  0  0  0  0
 20 46  1  0  0  0  0
 21 39  1  0  0  0  0
 22 23  1  0  0  0  0
 22 69  1  0  0  0  0
 23 30  2  0  0  0  0
 23 59  1  0  0  0  0
 24 91  1  0  0  0  0
 25 92  1  0  0  0  0
 26 28  2  0  0  0  0
 26 91  1  0  0  0  0
 27 93  1  0  0  0  0
 28 94  1  0  0  0  0
 29 75  2  0  0  0  0
 30 70  1  0  0  0  0
 30 76  1  0  0  0  0
 31 77  1  0  0  0  0
 31 80  1  0  0  0  0
 32 81  1  0  0  0  0
 32 86  2  0  0  0  0
 33 47  1  0  0  0  0
 33 82  1  0  0  0  0
 33 87  2  0  0  0  0
 34 71  1  0  0  0  0
 34 78  1  0  0  0  0
 34 88  2  0  0  0  0
 35 72  1  0  0  0  0
 35 83  1  0  0  0  0
 35 89  2  0  0  0  0
 36 79  1  0  0  0  0
 36 84  1  0  0  0  0
 36 90  2  0  0  0  0
 37 40  1  0  0  0  0
 38 47  1  0  0  0  0
 39 78  1  0  0  0  0
 40 42  1  0  0  0  0
 41 43  1  0  0  0  0
 41 44  1  0  0  0  0
 42 46  1  0  0  0  0
 43 48  1  0  0  0  0
 44 79  1  0  0  0  0
 45 48  1  0  0  0  0
 45 79  1  0  0  0  0
 46 82  1  0  0  0  0
 47 78  1  0  0  0  0
 48 77  1  0  0  0  0
 49 60  1  0  0  0  0
 50 69  1  0  0  0  0
 51 70  1  0  0  0  0
 52 72  1  0  0  0  0
 53 73  1  0  0  0  0
 54 73  1  0  0  0  0
 55 74  1  0  0  0  0
 56 74  1  0  0  0  0
 57 74  1  0  0  0  0
 58 85  1  0  0  0  0
 59 61  1  0  0  0  0
 60 70  1  0  0  0  0
 61 65  1  0  0  0  0
 62 63  1  0  0  0  0
 62 64  1  0  0  0  0
 63 68  1  0  0  0  0
 64 69  1  0  0  0  0
 65 73  1  0  0  0  0
 66 67  1  0  0  0  0
 66 76  1  0  0  0  0
 67 84  1  0  0  0  0
 68 92  1  0  0  0  0
 71 74  1  0  0  0  0
 71 83  1  0  0  0  0
 72 85  1  0  0  0  0
 75 77  1  0  0  0  0
M  CHG  1  85   1
M  ISO  4  36 100  68 101  84 100  92 101
M  END
> <Batch ID>
0094

> <Smiles>
CCC(C)c1c(CCCC(C)C)c(C(C)CCC[101CH2:1][101O:1]c2ccc3c(c2)CN(C(=O)C(NC(=O)C(C)NC)C(C)(C)C)C(C(=O)NC2CCCc4ccccc42)C3)cn1CC[100NH:0][100C:0](=O)N1CCCC(n2nc(-c3ccc(Oc4ccc(F)cc4F)cc3)c(C(N)=O)c2N)C1

> <Shape>
0.249

> <Color>
0.182

> <Negative vol penalty>
0.000

$$$$

  -OEChem-04052319193D

 89 97  0     1  0  0  0  0  0999 V2000
  -19.6035  -23.6692   23.4610 C   0  0  0  0  0  0  0  0  0  0  0  0
  -20.9158  -23.8815   23.0508 C   0  0  0  0  0  0  0  0  0  0  0  0
  -24.1606   -9.9318   22.5285 C   0  0  0  0  0  0  0  0  0  0  0  0
  -22.3825  -11.0930   21.3765 C   0  0  0  0  0  0  0  0  0  0  0  0
  -18.6896  -24.7221   23.4426 C   0  0  0  0  0  0  0  0  0  0  0  0
  -21.3147  -25.1466   22.6209 C   0  0  0  0  0  0  0  0  0  0  0  0
  -25.7779  -26.5413   24.5650 C   0  0  0  0  0  0  0  0  0  0  0  0
  -23.2246   -9.0790   23.1135 C   0  0  0  0  0  0  0  0  0  0  0  0
  -21.4465  -10.2401   21.9615 C   0  0  0  0  0  0  0  0  0  0  0  0
  -26.9228  -25.9925   23.9889 C   0  0  0  0  0  0  0  0  0  0  0  0
  -21.3365   -6.3671   24.6286 C   0  0  0  0  0  0  0  0  0  0  0  0
  -21.6233   -5.0021   24.6438 C   0  0  0  0  0  0  0  0  0  0  0  0
  -27.2550  -28.0228   22.7294 C   0  0  0  0  0  0  0  0  0  0  0  0
  -31.5916  -20.2511   20.0181 C   0  0  0  0  0  0  0  0  0  0  0  0
  -30.6803  -18.3481   18.8414 C   0  0  0  0  0  0  0  0  0  0  0  0
  -29.7275  -20.5433   18.5091 C   0  0  0  0  0  0  0  0  0  0  0  0
  -21.7134   -4.9942   22.2295 C   0  0  0  0  0  0  0  0  0  0  0  0
  -23.7395  -10.9389   21.6600 C   0  0  0  0  0  0  0  0  0  0  0  0
  -25.3773  -11.6356   19.8324 C   0  0  0  0  0  0  0  0  0  0  0  0
  -19.0800  -26.0030   23.0214 C   0  0  0  0  0  0  0  0  0  0  0  0
  -25.3562  -27.8331   24.2188 C   0  0  0  0  0  0  0  0  0  0  0  0
  -20.4048  -26.2173   22.5956 C   0  0  0  0  0  0  0  0  0  0  0  0
  -26.1059  -28.5867   23.3044 C   0  0  0  0  0  0  0  0  0  0  0  0
  -31.6054  -18.8850   19.7366 C   0  0  0  0  0  0  0  0  0  0  0  0
  -30.6526  -21.0802   19.4044 C   0  0  0  0  0  0  0  0  0  0  0  0
  -29.7413  -19.1772   18.2276 C   0  0  0  0  0  0  0  0  0  0  0  0
  -21.8676   -9.2331   22.8300 C   0  0  0  0  0  0  0  0  0  0  0  0
  -27.6599  -26.7321   23.0688 C   0  0  0  0  0  0  0  0  0  0  0  0
  -21.2381   -7.0456   23.4138 C   0  0  0  0  0  0  0  0  0  0  0  0
  -21.8118   -4.3157   23.4442 C   0  0  0  0  0  0  0  0  0  0  0  0
  -21.4266   -6.3592   22.2143 C   0  0  0  0  0  0  0  0  0  0  0  0
  -24.7058  -11.8206   21.0558 C   0  0  0  0  0  0  0  0  0  0  0  0
  -26.1792  -12.7438   19.7099 C   0  0  0  0  0  0  0  0  0  0  0  0
  -25.2843  -10.5582   18.8909 C   0  0  0  0  0  0  0  0  0  0  0  0
  -22.7582  -29.0541   22.8537 C   0  0  0  0  0  0  0  0  0  0  0  0
  -24.1780  -31.8783   23.5819 C   0  0  0  0  0  0  0  0  0  0  0  0
  -27.0549  -33.5858   24.2566 C   0  0  0  0  0  0  0  0  0  0  0  0
  -26.9497  -18.2587   20.0812 C   0  0  0  0  0  0  0  0  0  0  0  0
  -18.0445  -27.0986   22.9740 C   0  0  0  0  0  0  0  0  0  0  0  0
  -24.1340  -28.4208   24.8692 C   0  0  0  0  0  0  0  0  0  0  0  0
  -25.7069  -29.9857   22.9143 C   0  0  0  0  0  0  0  0  0  0  0  0
  -18.6433  -28.4981   22.8596 C   0  0  0  0  0  0  0  0  0  0  0  0
  -27.3468  -16.3494   23.0600 C   0  0  0  0  0  0  0  0  0  0  0  0
  -19.7297  -28.5280   21.7892 C   0  0  0  0  0  0  0  0  0  0  0  0
  -26.7451  -14.9885   22.7052 C   0  0  0  0  0  0  0  0  0  0  0  0
  -26.5757  -17.4948   22.4078 C   0  0  0  0  0  0  0  0  0  0  0  0
  -25.8075  -16.0158   20.5923 C   0  0  0  0  0  0  0  0  0  0  0  0
  -20.8819  -27.5812   22.1460 C   0  0  1  0  0  0  0  0  0  0  0  0
  -23.5095  -29.5508   24.0565 C   0  0  1  0  0  0  0  0  0  0  0  0
  -26.5849  -14.8264   21.1816 C   0  0  2  0  0  0  0  0  0  0  0  0
  -32.6376  -16.0182   23.7414 C   0  0  0  0  0  0  0  0  0  0  0  0
  -27.9025  -35.8903   24.7744 C   0  0  0  0  0  0  0  0  0  0  0  0
  -28.8638  -17.0561   17.0327 C   0  0  0  0  0  0  0  0  0  0  0  0
  -28.9327  -19.2376   15.8527 C   0  0  0  0  0  0  0  0  0  0  0  0
  -23.8573  -32.6529   20.6481 C   0  0  0  0  0  0  0  0  0  0  0  0
  -25.5249  -34.4827   21.0211 C   0  0  0  0  0  0  0  0  0  0  0  0
  -23.3667  -34.4906   22.2719 C   0  0  0  0  0  0  0  0  0  0  0  0
  -28.1074  -32.7332   26.8880 C   0  0  0  0  0  0  0  0  0  0  0  0
  -32.6098  -17.9991   20.3929 C   0  0  0  0  0  0  0  0  0  0  0  0
  -30.6375  -22.5572   19.7080 C   0  0  0  0  0  0  0  0  0  0  0  0
  -33.1416  -16.5495   22.4091 C   0  0  0  0  0  0  0  0  0  0  0  0
  -32.0932  -17.4246   21.7220 C   0  0  0  0  0  0  0  0  0  0  0  0
  -29.7392  -22.9371   20.8904 C   0  0  0  0  0  0  0  0  0  0  0  0
  -29.6766  -24.4456   21.1342 C   0  0  0  0  0  0  0  0  0  0  0  0
  -27.2665  -18.8799   17.6994 C   0  0  0  0  0  0  0  0  0  0  0  0
  -28.8082  -24.7815   22.3390 C   0  0  0  0  0  0  0  0  0  1  0  0
  -25.1458  -32.8006   22.8806 C   0  0  1  0  0  0  0  0  0  0  0  0
  -27.4055  -34.5748   25.3535 C   0  0  2  0  0  0  0  0  0  0  0  0
  -28.7522  -18.6026   17.2704 C   0  0  0  0  0  0  0  0  0  0  0  0
  -24.4804  -33.5796   21.7111 C   0  0  0  0  0  0  0  0  0  0  0  0
  -25.0512  -12.9569   21.6669 N   0  0  0  0  0  0  0  0  0  0  0  0
  -25.9486  -13.4959   20.8241 N   0  0  0  0  0  0  0  0  0  0  0  0
  -24.5008  -30.5140   23.5729 N   0  0  0  0  0  0  0  0  0  0  0  0
  -26.4605  -17.2810   20.9632 N   0  0  0  0  0  0  0  0  0  0  0  0
  -27.0522  -13.1387   18.7589 N   0  0  0  0  0  0  0  0  0  0  0  0
  -24.4112   -9.4986   19.1721 N   0  0  0  0  0  0  0  0  0  0  0  0
  -21.7328  -28.1777   23.1533 N   0  0  0  0  0  0  0  0  0  0  0  0
  -25.7205  -33.6529   23.9158 N   0  0  0  0  0  0  0  0  0  0  0  0
  -26.8066  -17.9744   18.7287 N   0  0  0  0  0  0  0  0  0  0  0  0
  -28.4708  -34.0163   26.2334 N   0  3  0  0  0  0  0  0  0  0  0  0
  -25.9679  -10.5280   17.8396 O   0  0  0  0  0  0  0  0  0  0  0  0
  -23.0838  -29.4388   21.7367 O   0  0  0  0  0  0  0  0  0  0  0  0
  -23.1763  -32.3519   24.1241 O   0  0  0  0  0  0  0  0  0  0  0  0
  -27.8827  -32.8318   23.7500 O   0  0  0  0  0  0  0  0  0  0  0  0
  -27.4797  -19.3050   20.4703 O   0  0  0  0  0  0  0  0  0  0  0  0
  -20.9541   -8.4009   23.4005 O   0  0  0  0  0  0  0  0  0  0  0  0
  -28.7774  -26.1986   22.5045 O   0  0  0  0  0  0  0  0  0  1  0  0
  -22.0887   -3.0053   23.4590 F   0  0  0  0  0  0  0  0  0  0  0  0
  -21.3344   -7.0059   21.0442 F   0  0  0  0  0  0  0  0  0  0  0  0
  1  2  1  0  0  0  0
  1  5  2  0  0  0  0
  2  6  2  0  0  0  0
  3  8  2  0  0  0  0
  3 18  1  0  0  0  0
  4  9  1  0  0  0  0
  4 18  2  0  0  0  0
  5 20  1  0  0  0  0
  6 22  1  0  0  0  0
  7 10  2  0  0  0  0
  7 21  1  0  0  0  0
  8 27  1  0  0  0  0
  9 27  2  0  0  0  0
 10 28  1  0  0  0  0
 11 12  2  0  0  0  0
 11 29  1  0  0  0  0
 12 30  1  0  0  0  0
 13 23  1  0  0  0  0
 13 28  2  0  0  0  0
 14 24  1  0  0  0  0
 14 25  2  0  0  0  0
 15 24  2  0  0  0  0
 15 26  1  0  0  0  0
 16 25  1  0  0  0  0
 16 26  2  0  0  0  0
 17 30  2  0  0  0  0
 17 31  1  0  0  0  0
 18 32  1  0  0  0  0
 19 32  1  0  0  0  0
 19 33  2  0  0  0  0
 19 34  1  0  0  0  0
 20 22  2  0  0  0  0
 20 39  1  0  0  0  0
 21 23  2  0  0  0  0
 21 40  1  0  0  0  0
 22 48  1  0  0  0  0
 23 41  1  0  0  0  0
 24 59  1  0  0  0  0
 25 60  1  0  0  0  0
 26 69  1  0  0  0  0
 27 86  1  0  0  0  0
 28 87  1  0  0  0  0
 29 31  2  0  0  0  0
 29 86  1  0  0  0  0
 30 88  1  0  0  0  0
 31 89  1  0  0  0  0
 32 71  2  0  0  0  0
 33 72  1  0  0  0  0
 33 75  1  0  0  0  0
 34 76  1  0  0  0  0
 34 81  2  0  0  0  0
 35 49  1  0  0  0  0
 35 77  1  0  0  0  0
 35 82  2  0  0  0  0
 36 67  1  0  0  0  0
 36 73  1  0  0  0  0
 36 83  2  0  0  0  0
 37 68  1  0  0  0  0
 37 78  1  0  0  0  0
 37 84  2  0  0  0  0
 38 74  1  0  0  0  0
 38 79  1  0  0  0  0
 38 85  2  0  0  0  0
 39 42  1  0  0  0  0
 40 49  1  0  0  0  0
 41 73  1  0  0  0  0
 42 44  1  0  0  0  0
 43 45  1  0  0  0  0
 43 46  1  0  0  0  0
 44 48  1  0  0  0  0
 45 50  1  0  0  0  0
 46 74  1  0  0  0  0
 47 50  1  0  0  0  0
 47 74  1  0  0  0  0
 48 77  1  0  0  0  0
 49 73  1  0  0  0  0
 50 72  1  0  0  0  0
 51 61  1  0  0  0  0
 52 68  1  0  0  0  0
 53 69  1  0  0  0  0
 54 69  1  0  0  0  0
 55 70  1  0  0  0  0
 56 70  1  0  0  0  0
 57 70  1  0  0  0  0
 58 80  1  0  0  0  0
 59 62  1  0  0  0  0
 60 63  1  0  0  0  0
 61 62  1  0  0  0  0
 63 64  1  0  0  0  0
 64 66  1  0  0  0  0
 65 69  1  0  0  0  0
 65 79  1  0  0  0  0
 66 87  1  0  0  0  0
 67 70  1  0  0  0  0
 67 78  1  0  0  0  0
 68 80  1  0  0  0  0
 71 72  1  0  0  0  0
M  CHG  1  80   1
M  ISO  4  38 100  66 101  79 100  87 101
M  END
> <Batch ID>
0094

> <Smiles>
CCCCc1cc(CCC[101CH2:1][101O:1]c2ccc3c(c2)CN(C(=O)C(NC(=O)C(C)NC)C(C)(C)C)C(C(=O)NC2CCCc4ccccc42)C3)cc(C(C)(C)C[100NH:0][100C:0](=O)N2CCCC(n3nc(-c4ccc(Oc5ccc(F)cc5F)cc4)c(C(N)=O)c3N)C2)c1

> <Shape>
0.277

> <Color>
0.088

> <Negative vol penalty>
0.000

$$$$

  -OEChem-04052319193D

 91 99  0     1  0  0  0  0  0999 V2000
  -15.5519  -27.5581   21.2928 C   0  0  0  0  0  0  0  0  0  0  0  0
  -16.4372  -28.0065   20.3179 C   0  0  0  0  0  0  0  0  0  0  0  0
  -23.6059  -14.6015   21.9070 C   0  0  0  0  0  0  0  0  0  0  0  0
  -25.9939  -14.7777   22.2288 C   0  0  0  0  0  0  0  0  0  0  0  0
  -15.8063  -27.8216   22.6381 C   0  0  0  0  0  0  0  0  0  0  0  0
  -17.5770  -28.7197   20.6876 C   0  0  0  0  0  0  0  0  0  0  0  0
  -25.0982  -27.2784   19.1449 C   0  0  0  0  0  0  0  0  0  0  0  0
  -23.7816  -13.3694   21.2774 C   0  0  0  0  0  0  0  0  0  0  0  0
  -26.1697  -13.5455   21.5992 C   0  0  0  0  0  0  0  0  0  0  0  0
  -26.4712  -27.0426   19.0712 C   0  0  0  0  0  0  0  0  0  0  0  0
  -24.3483  -10.1636   22.1909 C   0  0  0  0  0  0  0  0  0  0  0  0
  -23.4941   -9.1224   22.5541 C   0  0  0  0  0  0  0  0  0  0  0  0
  -26.8043  -28.2784   21.1230 C   0  0  0  0  0  0  0  0  0  0  0  0
  -22.7158   -8.9651   20.2723 C   0  0  0  0  0  0  0  0  0  0  0  0
  -24.7121  -15.3057   22.3827 C   0  0  0  0  0  0  0  0  0  0  0  0
  -24.3293  -16.8109   24.4065 C   0  0  0  0  0  0  0  0  0  0  0  0
  -16.9548  -28.5300   23.0252 C   0  0  0  0  0  0  0  0  0  0  0  0
  -24.5707  -28.0029   20.2173 C   0  0  0  0  0  0  0  0  0  0  0  0
  -17.8463  -28.9941   22.0392 C   0  0  0  0  0  0  0  0  0  0  0  0
  -25.4284  -28.5071   21.2087 C   0  0  0  0  0  0  0  0  0  0  0  0
  -31.5461  -26.9056   19.9398 C   0  0  0  0  0  0  0  0  0  0  0  0
  -25.0635  -12.8413   21.1235 C   0  0  0  0  0  0  0  0  0  0  0  0
  -27.3222  -27.5416   20.0578 C   0  0  0  0  0  0  0  0  0  0  0  0
  -24.3862  -10.6056   20.8684 C   0  0  0  0  0  0  0  0  0  0  0  0
  -22.6779   -8.5231   21.5947 C   0  0  0  0  0  0  0  0  0  0  0  0
  -23.5699  -10.0063   19.9091 C   0  0  0  0  0  0  0  0  0  0  0  0
  -24.5313  -16.5789   23.0327 C   0  0  0  0  0  0  0  0  0  0  0  0
  -31.6260  -25.8997   18.9582 C   0  0  0  0  0  0  0  0  0  0  0  0
  -32.2153  -26.3850   21.0203 C   0  0  0  0  0  0  0  0  0  0  0  0
  -24.2154  -18.1757   24.5111 C   0  0  0  0  0  0  0  0  0  0  0  0
  -24.2516  -15.8764   25.4910 C   0  0  0  0  0  0  0  0  0  0  0  0
  -21.5151  -29.4048   21.8828 C   0  0  0  0  0  0  0  0  0  0  0  0
  -23.3155  -28.3010   24.1078 C   0  0  0  0  0  0  0  0  0  0  0  0
  -24.9944  -26.2967   25.8590 C   0  0  0  0  0  0  0  0  0  0  0  0
  -26.3627  -23.0299   22.2004 C   0  0  0  0  0  0  0  0  0  0  0  0
  -17.1629  -28.8316   24.4882 C   0  0  0  0  0  0  0  0  0  0  0  0
  -23.1054  -28.3335   20.3050 C   0  0  0  0  0  0  0  0  0  0  0  0
  -24.8205  -29.3107   22.3257 C   0  0  0  0  0  0  0  0  0  0  0  0
  -18.5864  -29.2693   24.8233 C   0  0  0  0  0  0  0  0  0  0  0  0
  -23.1148  -21.8311   21.3695 C   0  0  0  0  0  0  0  0  0  0  0  0
  -19.0713  -30.3172   23.8265 C   0  0  0  0  0  0  0  0  0  0  0  0
  -23.1302  -20.3761   21.8414 C   0  0  0  0  0  0  0  0  0  0  0  0
  -24.4685  -22.2554   20.8045 C   0  0  0  0  0  0  0  0  0  0  0  0
  -25.6303  -20.5684   22.1748 C   0  0  0  0  0  0  0  0  0  0  0  0
  -19.1063  -29.7494   22.4025 C   0  0  1  0  0  0  0  0  0  0  0  0
  -22.5765  -28.3526   21.7503 C   0  0  1  0  0  0  0  0  0  0  0  0
  -24.3032  -20.1112   22.8043 C   0  0  2  0  0  0  0  0  0  0  0  0
  -32.4846  -26.9414   22.3597 C   0  0  0  0  0  0  0  0  0  0  0  0
  -34.2546  -26.7944   15.4432 C   0  0  0  0  0  0  0  0  0  0  0  0
  -25.9352  -25.4317   28.0187 C   0  0  0  0  0  0  0  0  0  0  0  0
  -31.4161  -25.7477   15.0843 C   0  0  0  0  0  0  0  0  0  0  0  0
  -24.2752  -31.1336   24.7070 C   0  0  0  0  0  0  0  0  0  0  0  0
  -25.3989  -30.2427   26.7593 C   0  0  0  0  0  0  0  0  0  0  0  0
  -22.9202  -30.0838   26.5280 C   0  0  0  0  0  0  0  0  0  0  0  0
  -23.6628  -23.6750   25.5235 C   0  0  0  0  0  0  0  0  0  0  0  0
  -32.0114  -21.3544   21.2894 C   0  0  0  0  0  0  0  0  0  0  0  0
  -30.8762  -28.2540   19.8328 C   0  0  0  0  0  0  0  0  0  0  0  0
  -31.0745  -25.9243   17.5920 C   0  0  0  0  0  0  0  0  0  0  0  0
  -33.1783  -26.8964   16.5156 C   0  0  0  0  0  0  0  0  0  0  0  0
  -29.5349  -23.7877   22.8212 C   0  0  0  0  0  0  0  0  0  0  0  0
  -33.3906  -24.2012   21.4272 C   0  0  0  0  0  0  0  0  0  0  0  0
  -28.2692  -23.6550   23.6612 C   0  0  0  0  0  0  0  0  0  0  0  0
  -30.2874  -22.4688   22.6989 C   0  0  0  0  0  0  0  0  0  0  0  0
  -32.5529  -23.4774   22.4732 C   0  0  0  0  0  0  0  0  0  0  0  0
  -29.5274  -28.2892   20.5431 C   0  0  0  0  0  0  0  0  0  1  0  0
  -24.3948  -28.5879   25.1208 C   0  0  1  0  0  0  0  0  0  0  0  0
  -24.8009  -25.3274   27.0112 C   0  0  2  0  0  0  0  0  0  0  0  0
  -32.1226  -25.7732   16.4449 C   0  0  2  0  0  0  0  0  0  0  0  0
  -24.2534  -30.0013   25.7531 C   0  0  0  0  0  0  0  0  0  0  0  0
  -24.5452  -17.7059   22.3160 N   0  0  0  0  0  0  0  0  0  0  0  0
  -32.2934  -24.8215   19.3780 N   0  0  0  0  0  0  0  0  0  0  0  0
  -32.6391  -25.1471   20.6352 N   0  0  0  0  0  0  0  0  0  0  0  0
  -24.3505  -18.6593   23.2430 N   0  0  0  0  0  0  0  0  0  0  0  0
  -23.5760  -28.6732   22.7834 N   0  0  0  0  0  0  0  0  0  0  0  0
  -25.5377  -21.9790   21.7670 N   0  0  0  0  0  0  0  0  0  0  0  0
  -24.0137  -18.9972   25.5631 N   0  0  0  0  0  0  0  0  0  0  0  0
  -24.3898  -14.5108   25.2075 N   0  0  0  0  0  0  0  0  0  0  0  0
  -20.2706  -28.9090   22.2219 N   0  0  0  0  0  0  0  0  0  0  0  0
  -24.3502  -27.4945   26.0856 N   0  0  0  0  0  0  0  0  0  0  0  0
  -27.3470  -22.6829   23.1177 N   0  0  0  0  0  0  0  0  0  0  0  0
  -24.7483  -23.9263   26.5061 N   0  3  0  0  0  0  0  0  0  0  0  0
  -31.4950  -22.6708   21.8166 N   0  3  1  0  0  0  0  0  0  0  0  0
  -24.0488  -16.2402   26.6742 O   0  0  0  0  0  0  0  0  0  0  0  0
  -21.8030  -30.5807   21.6932 O   0  0  0  0  0  0  0  0  0  0  0  0
  -22.2667  -27.7666   24.4789 O   0  0  0  0  0  0  0  0  0  0  0  0
  -25.6544  -26.0203   24.8597 O   0  0  0  0  0  0  0  0  0  0  0  0
  -26.2285  -24.1925   21.8036 O   0  0  0  0  0  0  0  0  0  0  0  0
  -25.2353  -11.6389   20.5093 O   0  0  0  0  0  0  0  0  0  0  0  0
  -28.6610  -27.3038   19.9821 O   0  0  0  0  0  0  0  0  0  1  0  0
  -21.8588   -7.5222   21.9433 F   0  0  0  0  0  0  0  0  0  0  0  0
  -23.6028  -10.4259   18.6368 F   0  0  0  0  0  0  0  0  0  0  0  0
  1  2  1  0  0  0  0
  1  5  2  0  0  0  0
  2  6  2  0  0  0  0
  3  8  2  0  0  0  0
  3 15  1  0  0  0  0
  4  9  1  0  0  0  0
  4 15  2  0  0  0  0
  5 17  1  0  0  0  0
  6 19  1  0  0  0  0
  7 10  2  0  0  0  0
  7 18  1  0  0  0  0
  8 22  1  0  0  0  0
  9 22  2  0  0  0  0
 10 23  1  0  0  0  0
 11 12  2  0  0  0  0
 11 24  1  0  0  0  0
 12 25  1  0  0  0  0
 13 20  1  0  0  0  0
 13 23  2  0  0  0  0
 14 25  2  0  0  0  0
 14 26  1  0  0  0  0
 15 27  1  0  0  0  0
 16 27  1  0  0  0  0
 16 30  2  0  0  0  0
 16 31  1  0  0  0  0
 17 19  2  0  0  0  0
 17 36  1  0  0  0  0
 18 20  2  0  0  0  0
 18 37  1  0  0  0  0
 19 45  1  0  0  0  0
 20 38  1  0  0  0  0
 21 28  1  0  0  0  0
 21 29  2  0  0  0  0
 21 57  1  0  0  0  0
 22 88  1  0  0  0  0
 23 89  1  0  0  0  0
 24 26  2  0  0  0  0
 24 88  1  0  0  0  0
 25 90  1  0  0  0  0
 26 91  1  0  0  0  0
 27 70  2  0  0  0  0
 28 58  1  0  0  0  0
 28 71  2  0  0  0  0
 29 48  1  0  0  0  0
 29 72  1  0  0  0  0
 30 73  1  0  0  0  0
 30 76  1  0  0  0  0
 31 77  1  0  0  0  0
 31 83  2  0  0  0  0
 32 46  1  0  0  0  0
 32 78  1  0  0  0  0
 32 84  2  0  0  0  0
 33 66  1  0  0  0  0
 33 74  1  0  0  0  0
 33 85  2  0  0  0  0
 34 67  1  0  0  0  0
 34 79  1  0  0  0  0
 34 86  2  0  0  0  0
 35 75  1  0  0  0  0
 35 80  1  0  0  0  0
 35 87  2  0  0  0  0
 36 39  1  0  0  0  0
 37 46  1  0  0  0  0
 38 74  1  0  0  0  0
 39 41  1  0  0  0  0
 40 42  1  0  0  0  0
 40 43  1  0  0  0  0
 41 45  1  0  0  0  0
 42 47  1  0  0  0  0
 43 75  1  0  0  0  0
 44 47  1  0  0  0  0
 44 75  1  0  0  0  0
 45 78  1  0  0  0  0
 46 74  1  0  0  0  0
 47 73  1  0  0  0  0
 49 59  1  0  0  0  0
 50 67  1  0  0  0  0
 51 68  1  0  0  0  0
 52 69  1  0  0  0  0
 53 69  1  0  0  0  0
 54 69  1  0  0  0  0
 55 81  1  0  0  0  0
 56 82  1  0  0  0  0
 57 65  1  0  0  0  0
 58 68  1  0  0  0  0
 59 68  1  0  0  0  0
 60 62  1  0  0  0  0
 60 63  1  0  0  0  0
 61 64  1  0  0  0  0
 61 72  1  0  0  0  0
 62 80  1  0  0  0  0
 63 82  1  0  0  0  0
 64 82  1  0  0  0  0
 65 89  1  0  0  0  0
 66 69  1  0  0  0  0
 66 79  1  0  0  0  0
 67 81  1  0  0  0  0
 70 73  1  0  0  0  0
 71 72  1  0  0  0  0
M  CHG  2  81   1  82   1
M  ISO  4  35 100  65 101  80 100  89 101
M  END
> <Batch ID>
0094

> <Smiles>
CCC(C)Cc1nn(CCN(C)CCC[100NH:0][100C:0](=O)N2CCCC(n3nc(-c4ccc(Oc5ccc(F)cc5F)cc4)c(C(N)=O)c3N)C2)c(C)c1C[101CH2:1][101O:1]c1ccc2c(c1)CN(C(=O)C(NC(=O)C(C)NC)C(C)(C)C)C(C(=O)NC1CCCc3ccccc31)C2

> <Shape>
0.202

> <Color>
0.076

> <Negative vol penalty>
0.000

$$$$

  -OEChem-04052319193D

 90 98  0     1  0  0  0  0  0999 V2000
  -28.8545  -24.6758   16.7040 C   0  0  0  0  0  0  0  0  0  0  0  0
  -27.6615  -24.7502   17.4157 C   0  0  0  0  0  0  0  0  0  0  0  0
  -29.0521  -18.3669   21.9288 C   0  0  0  0  0  0  0  0  0  0  0  0
  -26.9605  -17.1958   21.6277 C   0  0  0  0  0  0  0  0  0  0  0  0
  -29.9953  -25.3140   17.1891 C   0  0  0  0  0  0  0  0  0  0  0  0
  -27.6088  -25.4622   18.6136 C   0  0  0  0  0  0  0  0  0  0  0  0
  -23.5012  -28.4055   18.9450 C   0  0  0  0  0  0  0  0  0  0  0  0
  -29.7409  -17.1564   21.8530 C   0  0  0  0  0  0  0  0  0  0  0  0
  -27.6493  -15.9852   21.5518 C   0  0  0  0  0  0  0  0  0  0  0  0
  -22.2967  -27.7834   19.2701 C   0  0  0  0  0  0  0  0  0  0  0  0
  -29.4477  -14.2846   19.2509 C   0  0  0  0  0  0  0  0  0  0  0  0
  -29.0825  -13.3952   18.2404 C   0  0  0  0  0  0  0  0  0  0  0  0
  -22.5465  -28.5085   21.5573 C   0  0  0  0  0  0  0  0  0  0  0  0
  -19.2460  -22.0722   21.6987 C   0  0  0  0  0  0  0  0  0  0  0  0
  -28.5199  -11.7360   19.9041 C   0  0  0  0  0  0  0  0  0  0  0  0
  -27.6619  -18.3867   21.8163 C   0  0  0  0  0  0  0  0  0  0  0  0
  -26.6214  -20.4967   20.8300 C   0  0  0  0  0  0  0  0  0  0  0  0
  -29.9541  -26.0422   18.3885 C   0  0  0  0  0  0  0  0  0  0  0  0
  -24.2442  -29.0757   19.9275 C   0  0  0  0  0  0  0  0  0  0  0  0
  -28.7504  -26.1097   19.1158 C   0  0  0  0  0  0  0  0  0  0  0  0
  -23.7589  -29.1405   21.2414 C   0  0  0  0  0  0  0  0  0  0  0  0
  -19.1616  -22.3817   23.0516 C   0  0  0  0  0  0  0  0  0  0  0  0
  -19.9049  -20.9161   21.2955 C   0  0  0  0  0  0  0  0  0  0  0  0
  -29.0395  -15.9655   21.6644 C   0  0  0  0  0  0  0  0  0  0  0  0
  -21.8206  -27.8323   20.5770 C   0  0  0  0  0  0  0  0  0  0  0  0
  -29.3491  -13.8997   20.5880 C   0  0  0  0  0  0  0  0  0  0  0  0
  -28.6185  -12.1209   18.5669 C   0  0  0  0  0  0  0  0  0  0  0  0
  -28.8852  -12.6254   20.9146 C   0  0  0  0  0  0  0  0  0  0  0  0
  -26.9498  -19.6368   21.8951 C   0  0  0  0  0  0  0  0  0  0  0  0
  -19.7479  -21.5093   23.9543 C   0  0  0  0  0  0  0  0  0  0  0  0
  -20.4582  -20.1094   22.2768 C   0  0  0  0  0  0  0  0  0  0  0  0
  -25.9517  -21.5385   21.4238 C   0  0  0  0  0  0  0  0  0  0  0  0
  -26.8971  -20.3655   19.4291 C   0  0  0  0  0  0  0  0  0  0  0  0
  -27.1419  -28.7156   21.1834 C   0  0  0  0  0  0  0  0  0  0  0  0
  -26.4043  -31.4879   22.6974 C   0  0  0  0  0  0  0  0  0  0  0  0
  -23.9892  -33.6046   23.8523 C   0  0  0  0  0  0  0  0  0  0  0  0
  -22.8217  -22.0047   26.5068 C   0  0  0  0  0  0  0  0  0  0  0  0
  -31.2247  -26.6759   18.8970 C   0  0  0  0  0  0  0  0  0  0  0  0
  -25.5283  -29.7645   19.5549 C   0  0  0  0  0  0  0  0  0  0  0  0
  -24.5085  -29.8645   22.3288 C   0  0  0  0  0  0  0  0  0  0  0  0
  -30.9910  -27.7229   19.9830 C   0  0  0  0  0  0  0  0  0  0  0  0
  -25.6600  -23.9324   25.5560 C   0  0  0  0  0  0  0  0  0  0  0  0
  -30.0146  -27.1969   21.0303 C   0  0  0  0  0  0  0  0  0  0  0  0
  -26.2828  -23.1277   24.4138 C   0  0  0  0  0  0  0  0  0  0  0  0
  -25.0764  -23.0226   26.6347 C   0  0  0  0  0  0  0  0  0  0  0  0
  -24.7434  -21.2081   25.0005 C   0  0  0  0  0  0  0  0  0  0  0  0
  -28.6471  -26.8931   20.4064 C   0  0  1  0  0  0  0  0  0  0  0  0
  -26.4581  -29.9797   20.7451 C   0  0  1  0  0  0  0  0  0  0  0  0
  -25.2956  -22.0820   23.8613 C   0  0  2  0  0  0  0  0  0  0  0  0
  -21.1763  -18.8546   21.9015 C   0  0  0  0  0  0  0  0  0  0  0  0
  -17.8378  -19.1942   19.8051 C   0  0  0  0  0  0  0  0  0  0  0  0
  -22.2238  -21.8067   19.4821 C   0  0  0  0  0  0  0  0  0  0  0  0
  -23.6932  -35.7725   25.0811 C   0  0  0  0  0  0  0  0  0  0  0  0
  -18.7196  -25.8895   24.5560 C   0  0  0  0  0  0  0  0  0  0  0  0
  -27.0891  -30.0909   25.3222 C   0  0  0  0  0  0  0  0  0  0  0  0
  -25.8935  -31.9284   26.5314 C   0  0  0  0  0  0  0  0  0  0  0  0
  -27.9054  -32.4486   25.1514 C   0  0  0  0  0  0  0  0  0  0  0  0
  -22.5963  -34.8493   21.5568 C   0  0  0  0  0  0  0  0  0  0  0  0
  -18.4474  -23.6355   23.4959 C   0  0  0  0  0  0  0  0  0  0  0  0
  -19.6900  -21.7906   25.4201 C   0  0  0  0  0  0  0  0  0  0  0  0
  -18.6101  -20.3492   19.1784 C   0  0  0  0  0  0  0  0  0  0  0  0
  -20.7812  -21.6425   19.0185 C   0  0  0  0  0  0  0  0  0  0  0  0
  -19.6062  -25.5024   22.2037 C   0  0  0  0  0  0  0  0  0  0  0  0
  -20.6158  -20.8965   26.2519 C   0  0  0  0  0  0  0  0  0  0  0  0
  -20.5128  -26.7282   22.2283 C   0  0  0  0  0  0  0  0  0  1  0  0
  -19.9991  -20.5789   19.8475 C   0  0  0  0  0  0  0  0  0  0  0  0
  -25.7351  -31.8485   24.0017 C   0  0  1  0  0  0  0  0  0  0  0  0
  -23.8192  -35.1072   23.7194 C   0  0  2  0  0  0  0  0  0  0  0  0
  -19.3573  -24.8815   23.5929 C   0  0  1  0  0  0  0  0  0  0  0  0
  -26.6424  -31.5637   25.2318 C   0  0  0  0  0  0  0  0  0  0  0  0
  -26.5239  -20.0927   23.0761 N   0  0  0  0  0  0  0  0  0  0  0  0
  -20.3964  -20.3771   23.6005 N   0  0  0  0  0  0  0  0  0  0  0  0
  -25.9211  -21.2506   22.7566 N   0  0  0  0  0  0  0  0  0  0  0  0
  -25.7622  -30.5168   21.9161 N   0  0  0  0  0  0  0  0  0  0  0  0
  -24.1473  -22.0556   26.0451 N   0  0  0  0  0  0  0  0  0  0  0  0
  -25.3919  -22.6636   20.9307 N   0  0  0  0  0  0  0  0  0  0  0  0
  -27.5955  -19.2330   18.9888 N   0  0  0  0  0  0  0  0  0  0  0  0
  -27.9035  -28.1171   20.1980 N   0  0  0  0  0  0  0  0  0  0  0  0
  -25.3191  -33.2411   23.8757 N   0  0  0  0  0  0  0  0  0  0  0  0
  -22.0057  -21.0641   25.8902 N   0  0  0  0  0  0  0  0  0  0  0  0
  -22.5966  -35.4221   22.9275 N   0  3  0  0  0  0  0  0  0  0  0  0
  -26.5492  -21.2351   18.5947 O   0  0  0  0  0  0  0  0  0  0  0  0
  -26.9909  -28.3137   22.3312 O   0  0  0  0  0  0  0  0  0  0  0  0
  -27.4542  -32.0524   22.3801 O   0  0  0  0  0  0  0  0  0  0  0  0
  -23.0375  -32.8310   23.9315 O   0  0  0  0  0  0  0  0  0  0  0  0
  -22.3954  -22.7463   27.3985 O   0  0  0  0  0  0  0  0  0  0  0  0
  -29.7113  -14.7841   21.5901 O   0  0  0  0  0  0  0  0  0  0  0  0
  -20.6454  -27.2254   20.8973 O   0  0  0  0  0  0  0  0  0  1  0  0
  -28.2664  -11.2674   17.5965 F   0  0  0  0  0  0  0  0  0  0  0  0
  -28.7871  -12.2504   22.1974 F   0  0  0  0  0  0  0  0  0  0  0  0
  1  2  1  0  0  0  0
  1  5  2  0  0  0  0
  2  6  2  0  0  0  0
  3  8  2  0  0  0  0
  3 16  1  0  0  0  0
  4  9  1  0  0  0  0
  4 16  2  0  0  0  0
  5 18  1  0  0  0  0
  6 20  1  0  0  0  0
  7 10  2  0  0  0  0
  7 19  1  0  0  0  0
  8 24  1  0  0  0  0
  9 24  2  0  0  0  0
 10 25  1  0  0  0  0
 11 12  2  0  0  0  0
 11 26  1  0  0  0  0
 12 27  1  0  0  0  0
 13 21  1  0  0  0  0
 13 25  2  0  0  0  0
 14 22  2  0  0  0  0
 14 23  1  0  0  0  0
 15 27  2  0  0  0  0
 15 28  1  0  0  0  0
 16 29  1  0  0  0  0
 17 29  1  0  0  0  0
 17 32  2  0  0  0  0
 17 33  1  0  0  0  0
 18 20  2  0  0  0  0
 18 38  1  0  0  0  0
 19 21  2  0  0  0  0
 19 39  1  0  0  0  0
 20 47  1  0  0  0  0
 21 40  1  0  0  0  0
 22 30  1  0  0  0  0
 22 59  1  0  0  0  0
 23 31  2  0  0  0  0
 23 66  1  0  0  0  0
 24 87  1  0  0  0  0
 25 88  1  0  0  0  0
 26 28  2  0  0  0  0
 26 87  1  0  0  0  0
 27 89  1  0  0  0  0
 28 90  1  0  0  0  0
 29 71  2  0  0  0  0
 30 60  1  0  0  0  0
 30 72  2  0  0  0  0
 31 50  1  0  0  0  0
 31 72  1  0  0  0  0
 32 73  1  0  0  0  0
 32 76  1  0  0  0  0
 33 77  1  0  0  0  0
 33 82  2  0  0  0  0
 34 48  1  0  0  0  0
 34 78  1  0  0  0  0
 34 83  2  0  0  0  0
 35 67  1  0  0  0  0
 35 74  1  0  0  0  0
 35 84  2  0  0  0  0
 36 68  1  0  0  0  0
 36 79  1  0  0  0  0
 36 85  2  0  0  0  0
 37 75  1  0  0  0  0
 37 80  1  0  0  0  0
 37 86  2  0  0  0  0
 38 41  1  0  0  0  0
 39 48  1  0  0  0  0
 40 74  1  0  0  0  0
 41 43  1  0  0  0  0
 42 44  1  0  0  0  0
 42 45  1  0  0  0  0
 43 47  1  0  0  0  0
 44 49  1  0  0  0  0
 45 75  1  0  0  0  0
 46 49  1  0  0  0  0
 46 75  1  0  0  0  0
 47 78  1  0  0  0  0
 48 74  1  0  0  0  0
 49 73  1  0  0  0  0
 51 61  1  0  0  0  0
 52 62  1  0  0  0  0
 53 68  1  0  0  0  0
 54 69  1  0  0  0  0
 55 70  1  0  0  0  0
 56 70  1  0  0  0  0
 57 70  1  0  0  0  0
 58 81  1  0  0  0  0
 59 69  1  0  0  0  0
 60 64  1  0  0  0  0
 61 66  1  0  0  0  0
 62 66  1  0  0  0  0
 63 65  1  0  0  0  0
 63 69  1  0  0  0  0
 64 80  1  0  0  0  0
 65 88  1  0  0  0  0
 67 70  1  0  0  0  0
 67 79  1  0  0  0  0
 68 81  1  0  0  0  0
 71 73  1  0  0  0  0
M  CHG  1  81   1
M  ISO  4  37 100  65 101  80 100  88 101
M  END
> <Batch ID>
0094

> <Smiles>
CCC(CC)c1cc(CC(C)C[101CH2:1][101O:1]c2ccc3c(c2)CN(C(=O)C(NC(=O)C(C)NC)C(C)(C)C)C(C(=O)NC2CCCc4ccccc42)C3)c(CC[100NH:0][100C:0](=O)N2CCCC(n3nc(-c4ccc(Oc5ccc(F)cc5F)cc4)c(C(N)=O)c3N)C2)nc1C

> <Shape>
0.260

> <Color>
0.067

> <Negative vol penalty>
0.000

$$$$

  -OEChem-04052319193D

 87 95  0     1  0  0  0  0  0999 V2000
  -32.3870  -14.3805   20.5849 C   0  0  0  0  0  0  0  0  0  0  0  0
  -31.6258  -15.5448   20.5982 C   0  0  0  0  0  0  0  0  0  0  0  0
  -25.6477  -30.7456   22.3116 C   0  0  0  0  0  0  0  0  0  0  0  0
  -26.8704  -31.4929   20.3664 C   0  0  0  0  0  0  0  0  0  0  0  0
  -31.7742  -13.1510   20.3464 C   0  0  0  0  0  0  0  0  0  0  0  0
  -30.2514  -15.4805   20.3719 C   0  0  0  0  0  0  0  0  0  0  0  0
  -25.9328  -18.9993   22.9164 C   0  0  0  0  0  0  0  0  0  0  0  0
  -25.8369  -31.9916   22.9093 C   0  0  0  0  0  0  0  0  0  0  0  0
  -27.0596  -32.7390   20.9641 C   0  0  0  0  0  0  0  0  0  0  0  0
  -25.2576  -20.1314   22.4624 C   0  0  0  0  0  0  0  0  0  0  0  0
  -28.3097  -33.6236   24.5360 C   0  0  0  0  0  0  0  0  0  0  0  0
  -28.7005  -33.6467   25.8748 C   0  0  0  0  0  0  0  0  0  0  0  0
  -23.4313  -18.7389   21.7244 C   0  0  0  0  0  0  0  0  0  0  0  0
  -26.7006  -34.8802   26.4372 C   0  0  0  0  0  0  0  0  0  0  0  0
  -24.7241  -22.3584   16.8973 C   0  0  0  0  0  0  0  0  0  0  0  0
  -26.1645  -30.4962   21.0402 C   0  0  0  0  0  0  0  0  0  0  0  0
  -24.8991  -28.8151   19.5978 C   0  0  0  0  0  0  0  0  0  0  0  0
  -30.3901  -13.0705   20.1266 C   0  0  0  0  0  0  0  0  0  0  0  0
  -25.3662  -17.7252   22.7677 C   0  0  0  0  0  0  0  0  0  0  0  0
  -29.6197  -14.2490   20.1289 C   0  0  0  0  0  0  0  0  0  0  0  0
  -24.1002  -17.5924   22.1797 C   0  0  0  0  0  0  0  0  0  0  0  0
  -26.5428  -32.9883   22.2356 C   0  0  0  0  0  0  0  0  0  0  0  0
  -24.0079  -20.0011   21.8637 C   0  0  0  0  0  0  0  0  0  0  0  0
  -27.1144  -34.2288   24.1478 C   0  0  0  0  0  0  0  0  0  0  0  0
  -27.8960  -34.2750   26.8254 C   0  0  0  0  0  0  0  0  0  0  0  0
  -26.3099  -34.8571   25.0984 C   0  0  0  0  0  0  0  0  0  0  0  0
  -25.9699  -29.2091   20.4225 C   0  0  0  0  0  0  0  0  0  0  0  0
  -24.2064  -21.6035   17.9300 C   0  0  0  0  0  0  0  0  0  0  0  0
  -25.8187  -21.8185   16.2535 C   0  0  0  0  0  0  0  0  0  0  0  0
  -25.1790  -27.5106   19.2715 C   0  0  0  0  0  0  0  0  0  0  0  0
  -25.7780  -19.9931   17.6076 C   0  0  0  0  0  0  0  0  0  0  0  0
  -23.7540  -29.5616   19.1653 C   0  0  0  0  0  0  0  0  0  0  0  0
  -26.1876  -15.0713   21.2232 C   0  0  0  0  0  0  0  0  0  0  0  0
  -23.6071  -13.8441   22.7586 C   0  0  0  0  0  0  0  0  0  0  0  0
  -20.6066  -14.4048   24.2848 C   0  0  0  0  0  0  0  0  0  0  0  0
  -28.7755  -23.5642   17.6479 C   0  0  0  0  0  0  0  0  0  0  0  0
  -29.7798  -11.7244   19.8262 C   0  0  0  0  0  0  0  0  0  0  0  0
  -26.0955  -16.5165   23.2869 C   0  0  0  0  0  0  0  0  0  0  0  0
  -23.4394  -16.2491   22.0148 C   0  0  0  0  0  0  0  0  0  0  0  0
  -28.2600  -11.6995   19.9671 C   0  0  0  0  0  0  0  0  0  0  0  0
  -28.6433  -24.3241   21.1238 C   0  0  0  0  0  0  0  0  0  0  0  0
  -27.6398  -12.9089   19.2746 C   0  0  0  0  0  0  0  0  0  0  0  0
  -27.8535  -25.6328   21.1823 C   0  0  0  0  0  0  0  0  0  0  0  0
  -29.5478  -24.2653   19.8948 C   0  0  0  0  0  0  0  0  0  0  0  0
  -28.0740  -25.8141   18.6689 C   0  0  0  0  0  0  0  0  0  0  0  0
  -28.1223  -14.2173   19.9123 C   0  0  1  0  0  0  0  0  0  0  0  0
  -25.6518  -15.2185   22.6193 C   0  0  1  0  0  0  0  0  0  0  0  0
  -27.1057  -25.8960   19.8614 C   0  0  2  0  0  0  0  0  0  0  0  0
  -28.3909  -19.7178   19.1055 C   0  0  0  0  0  0  0  0  0  0  0  0
  -18.7118  -13.2013   25.4068 C   0  0  0  0  0  0  0  0  0  0  0  0
  -26.4078  -21.7325   13.8217 C   0  0  0  0  0  0  0  0  0  0  0  0
  -22.5776  -12.9310   20.0352 C   0  0  0  0  0  0  0  0  0  0  0  0
  -20.3217  -12.6113   21.0730 C   0  0  0  0  0  0  0  0  0  0  0  0
  -22.2647  -11.2706   21.8790 C   0  0  0  0  0  0  0  0  0  0  0  0
  -21.0561  -15.8349   26.8366 C   0  0  0  0  0  0  0  0  0  0  0  0
  -23.0090  -22.1105   18.6934 C   0  0  0  0  0  0  0  0  0  0  0  0
  -26.3616  -18.6778   17.9992 C   0  0  0  0  0  0  0  0  0  0  0  0
  -27.2077  -18.7786   19.2776 C   0  0  0  0  0  0  0  0  0  0  0  0
  -23.3709  -22.9680   19.9080 C   0  0  0  0  0  0  0  0  0  0  0  0
  -27.9087  -22.9960   15.3929 C   0  0  0  0  0  0  0  0  0  0  0  0
  -24.1423  -22.2042   20.9780 C   0  0  0  0  0  0  0  0  0  1  0  0
  -22.1337  -13.7301   22.4499 C   0  0  1  0  0  0  0  0  0  0  0  0
  -20.0407  -13.9138   25.6051 C   0  0  2  0  0  0  0  0  0  0  0  0
  -26.4466  -22.5617   15.1223 C   0  0  2  0  0  0  0  0  0  0  0  0
  -21.8375  -12.6610   21.3605 C   0  0  0  0  0  0  0  0  0  0  0  0
  -26.8633  -28.2338   20.6087 N   0  0  0  0  0  0  0  0  0  0  0  0
  -24.7103  -20.4121   18.3133 N   0  0  0  0  0  0  0  0  0  0  0  0
  -26.3738  -20.6339   16.5839 N   0  0  0  0  0  0  0  0  0  0  0  0
  -26.3544  -27.2140   19.8965 N   0  0  0  0  0  0  0  0  0  0  0  0
  -24.1952  -15.0967   22.5327 N   0  0  0  0  0  0  0  0  0  0  0  0
  -28.7772  -24.5217   18.6757 N   0  0  0  0  0  0  0  0  0  0  0  0
  -24.5318  -26.5998   18.5138 N   0  0  0  0  0  0  0  0  0  0  0  0
  -23.6215  -30.8896   19.5933 N   0  0  0  0  0  0  0  0  0  0  0  0
  -27.4251  -14.4600   21.1571 N   0  0  0  0  0  0  0  0  0  0  0  0
  -21.4674  -13.4850   23.7244 N   0  0  0  0  0  0  0  0  0  0  0  0
  -28.0145  -23.8831   16.5299 N   0  0  0  0  0  0  0  0  0  0  0  0
  -19.8260  -15.0587   26.5345 N   0  3  0  0  0  0  0  0  0  0  0  0
  -22.8658  -29.0605   18.4348 O   0  0  0  0  0  0  0  0  0  0  0  0
  -25.5264  -15.4805   20.2760 O   0  0  0  0  0  0  0  0  0  0  0  0
  -24.2122  -12.8601   23.1912 O   0  0  0  0  0  0  0  0  0  0  0  0
  -20.3114  -15.4938   23.7974 O   0  0  0  0  0  0  0  0  0  0  0  0
  -29.4014  -22.5014   17.7234 O   0  0  0  0  0  0  0  0  0  0  0  0
  -26.7274  -34.2043   22.8184 O   0  0  0  0  0  0  0  0  0  0  0  0
  -23.3470  -21.1044   21.4190 O   0  0  0  0  0  0  0  0  0  1  0  0
  -28.2706  -34.2958   28.1112 F   0  0  0  0  0  0  0  0  0  0  0  0
  -25.1599  -35.4392   24.7316 F   0  0  0  0  0  0  0  0  0  0  0  0
  -25.7768  -23.7325   14.8055 F   0  0  0  0  0  0  0  0  0  0  0  0
  1  2  1  0  0  0  0
  1  5  2  0  0  0  0
  2  6  2  0  0  0  0
  3  8  2  0  0  0  0
  3 16  1  0  0  0  0
  4  9  1  0  0  0  0
  4 16  2  0  0  0  0
  5 18  1  0  0  0  0
  6 20  1  0  0  0  0
  7 10  2  0  0  0  0
  7 19  1  0  0  0  0
  8 22  1  0  0  0  0
  9 22  2  0  0  0  0
 10 23  1  0  0  0  0
 11 12  2  0  0  0  0
 11 24  1  0  0  0  0
 12 25  1  0  0  0  0
 13 21  1  0  0  0  0
 13 23  2  0  0  0  0
 14 25  2  0  0  0  0
 14 26  1  0  0  0  0
 15 28  1  0  0  0  0
 15 29  2  0  0  0  0
 16 27  1  0  0  0  0
 17 27  1  0  0  0  0
 17 30  2  0  0  0  0
 17 32  1  0  0  0  0
 18 20  2  0  0  0  0
 18 37  1  0  0  0  0
 19 21  2  0  0  0  0
 19 38  1  0  0  0  0
 20 46  1  0  0  0  0
 21 39  1  0  0  0  0
 22 83  1  0  0  0  0
 23 84  1  0  0  0  0
 24 26  2  0  0  0  0
 24 83  1  0  0  0  0
 25 85  1  0  0  0  0
 26 86  1  0  0  0  0
 27 66  2  0  0  0  0
 28 56  1  0  0  0  0
 28 67  2  0  0  0  0
 29 64  1  0  0  0  0
 29 68  1  0  0  0  0
 30 69  1  0  0  0  0
 30 72  1  0  0  0  0
 31 57  1  0  0  0  0
 31 67  1  0  0  0  0
 31 68  2  0  0  0  0
 32 73  1  0  0  0  0
 32 78  2  0  0  0  0
 33 47  1  0  0  0  0
 33 74  1  0  0  0  0
 33 79  2  0  0  0  0
 34 62  1  0  0  0  0
 34 70  1  0  0  0  0
 34 80  2  0  0  0  0
 35 63  1  0  0  0  0
 35 75  1  0  0  0  0
 35 81  2  0  0  0  0
 36 71  1  0  0  0  0
 36 76  1  0  0  0  0
 36 82  2  0  0  0  0
 37 40  1  0  0  0  0
 38 47  1  0  0  0  0
 39 70  1  0  0  0  0
 40 42  1  0  0  0  0
 41 43  1  0  0  0  0
 41 44  1  0  0  0  0
 42 46  1  0  0  0  0
 43 48  1  0  0  0  0
 44 71  1  0  0  0  0
 45 48  1  0  0  0  0
 45 71  1  0  0  0  0
 46 74  1  0  0  0  0
 47 70  1  0  0  0  0
 48 69  1  0  0  0  0
 49 58  1  0  0  0  0
 50 63  1  0  0  0  0
 51 64  1  0  0  0  0
 52 65  1  0  0  0  0
 53 65  1  0  0  0  0
 54 65  1  0  0  0  0
 55 77  1  0  0  0  0
 56 59  1  0  0  0  0
 57 58  1  0  0  0  0
 59 61  1  0  0  0  0
 60 64  1  0  0  0  0
 60 76  1  0  0  0  0
 61 84  1  0  0  0  0
 62 65  1  0  0  0  0
 62 75  1  0  0  0  0
 63 77  1  0  0  0  0
 64 87  1  0  0  0  0
 66 69  1  0  0  0  0
M  CHG  1  77   1
M  ISO  4  36 100  61 101  76 100  84 101
M  END
> <Batch ID>
0094

> <Smiles>
CCCc1nc(CC[101CH2:1][101O:1]c2ccc3c(c2)CN(C(=O)C(NC(=O)C(C)NC)C(C)(C)C)C(C(=O)NC2CCCc4ccccc42)C3)cc(C(C)(F)C[100NH:0][100C:0](=O)N2CCCC(n3nc(-c4ccc(Oc5ccc(F)cc5F)cc4)c(C(N)=O)c3N)C2)n1

> <Shape>
0.220

> <Color>
0.064

> <Negative vol penalty>
0.000

$$$$

  -OEChem-04052319193D

 88 96  0     1  0  0  0  0  0999 V2000
  -25.9137  -12.6296   21.5994 C   0  0  0  0  0  0  0  0  0  0  0  0
  -26.2744  -13.9559   21.3849 C   0  0  0  0  0  0  0  0  0  0  0  0
  -31.2924  -17.9626   19.0717 C   0  0  0  0  0  0  0  0  0  0  0  0
  -29.3364  -17.4265   20.3846 C   0  0  0  0  0  0  0  0  0  0  0  0
  -24.9416  -12.0342   20.7966 C   0  0  0  0  0  0  0  0  0  0  0  0
  -25.6639  -14.6875   20.3668 C   0  0  0  0  0  0  0  0  0  0  0  0
  -24.3076  -20.6593   20.4286 C   0  0  0  0  0  0  0  0  0  0  0  0
  -31.7256  -16.6409   19.1773 C   0  0  0  0  0  0  0  0  0  0  0  0
  -29.7696  -16.1048   20.4902 C   0  0  0  0  0  0  0  0  0  0  0  0
  -24.9566  -21.7740   19.8995 C   0  0  0  0  0  0  0  0  0  0  0  0
  -29.7866  -13.3294   18.5621 C   0  0  0  0  0  0  0  0  0  0  0  0
  -28.8448  -12.3218   18.3544 C   0  0  0  0  0  0  0  0  0  0  0  0
  -23.5467  -21.6598   17.9454 C   0  0  0  0  0  0  0  0  0  0  0  0
  -26.9302  -28.3159   20.8069 C   0  0  0  0  0  0  0  0  0  0  0  0
  -29.2337  -11.4970   20.5918 C   0  0  0  0  0  0  0  0  0  0  0  0
  -25.4114  -28.7259   19.1960 C   0  0  0  0  0  0  0  0  0  0  0  0
  -30.0979  -18.3554   19.6754 C   0  0  0  0  0  0  0  0  0  0  0  0
  -28.8272  -20.2685   18.5650 C   0  0  0  0  0  0  0  0  0  0  0  0
  -24.3119  -12.7616   19.7744 C   0  0  0  0  0  0  0  0  0  0  0  0
  -23.2790  -20.0288   19.7139 C   0  0  0  0  0  0  0  0  0  0  0  0
  -24.6834  -14.1009   19.5487 C   0  0  0  0  0  0  0  0  0  0  0  0
  -22.8846  -20.5388   18.4687 C   0  0  0  0  0  0  0  0  0  0  0  0
  -26.6497  -29.1057   19.6647 C   0  0  0  0  0  0  0  0  0  0  0  0
  -30.9642  -15.7120   19.8865 C   0  0  0  0  0  0  0  0  0  0  0  0
  -24.5781  -22.2728   18.6564 C   0  0  0  0  0  0  0  0  0  0  0  0
  -30.4521  -13.4208   19.7846 C   0  0  0  0  0  0  0  0  0  0  0  0
  -28.5682  -11.4056   19.3692 C   0  0  0  0  0  0  0  0  0  0  0  0
  -30.1756  -12.5046   20.7995 C   0  0  0  0  0  0  0  0  0  0  0  0
  -29.6502  -19.7207   19.5671 C   0  0  0  0  0  0  0  0  0  0  0  0
  -25.8548  -27.4773   21.0013 C   0  0  0  0  0  0  0  0  0  0  0  0
  -28.6969  -21.5909   18.9125 C   0  0  0  0  0  0  0  0  0  0  0  0
  -28.2334  -19.6383   17.4222 C   0  0  0  0  0  0  0  0  0  0  0  0
  -22.8532  -17.1289   18.4837 C   0  0  0  0  0  0  0  0  0  0  0  0
  -19.8766  -18.2566   17.8590 C   0  0  0  0  0  0  0  0  0  0  0  0
  -17.8506  -20.9524   17.3348 C   0  0  0  0  0  0  0  0  0  0  0  0
  -27.8293  -25.5528   22.7460 C   0  0  0  0  0  0  0  0  0  0  0  0
  -23.3006  -12.0611   18.9018 C   0  0  0  0  0  0  0  0  0  0  0  0
  -22.5709  -18.8434   20.3104 C   0  0  0  0  0  0  0  0  0  0  0  0
  -21.7725  -19.9105   17.6707 C   0  0  0  0  0  0  0  0  0  0  0  0
  -22.4333  -13.0170   18.0868 C   0  0  0  0  0  0  0  0  0  0  0  0
  -31.1571  -24.3440   22.3700 C   0  0  0  0  0  0  0  0  0  0  0  0
  -23.2957  -14.0858   17.4228 C   0  0  0  0  0  0  0  0  0  0  0  0
  -30.9930  -23.0759   21.5304 C   0  0  0  0  0  0  0  0  0  0  0  0
  -30.0006  -24.5251   23.3507 C   0  0  0  0  0  0  0  0  0  0  0  0
  -28.4947  -23.2209   21.8999 C   0  0  0  0  0  0  0  0  0  0  0  0
  -24.0261  -14.9346   18.4703 C   0  0  1  0  0  0  0  0  0  0  0  0
  -21.8838  -17.9697   19.2654 C   0  0  1  0  0  0  0  0  0  0  0  0
  -29.6083  -23.0246   20.8570 C   0  0  2  0  0  0  0  0  0  0  0  0
  -27.8540  -28.9444   16.8352 C   0  0  0  0  0  0  0  0  0  0  0  0
  -15.4721  -21.5567   16.8107 C   0  0  0  0  0  0  0  0  0  0  0  0
  -27.7850  -31.5981   21.1906 C   0  0  0  0  0  0  0  0  0  0  0  0
  -25.9829  -32.2062   19.5605 C   0  0  0  0  0  0  0  0  0  0  0  0
  -25.0873  -24.2060   15.8971 C   0  0  0  0  0  0  0  0  0  0  0  0
  -20.3095  -17.4311   14.9536 C   0  0  0  0  0  0  0  0  0  0  0  0
  -18.3682  -18.8818   14.3250 C   0  0  0  0  0  0  0  0  0  0  0  0
  -18.0275  -16.9370   15.8496 C   0  0  0  0  0  0  0  0  0  0  0  0
  -17.5560  -22.4642   19.8620 C   0  0  0  0  0  0  0  0  0  0  0  0
  -25.6266  -26.4542   22.0426 C   0  0  0  0  0  0  0  0  0  0  0  0
  -27.4677  -30.2518   17.5192 C   0  0  0  0  0  0  0  0  0  0  0  0
  -23.7120  -25.6378   19.2478 C   0  0  0  0  0  0  0  0  0  0  0  0
  -24.3747  -25.6219   17.8636 C   0  0  0  0  0  0  0  0  0  0  0  0
  -23.6075  -27.0461   19.8448 C   0  0  0  0  0  0  0  0  0  0  0  0
  -27.5219  -30.1441   19.0837 C   0  0  1  0  0  0  0  0  0  0  0  0
  -19.2305  -18.9885   16.7075 C   0  0  1  0  0  0  0  0  0  0  0  0
  -16.4954  -21.3211   17.9108 C   0  0  2  0  0  0  0  0  0  0  0  0
  -27.3751  -31.5879   19.7130 C   0  0  0  0  0  0  0  0  0  0  0  0
  -24.4472  -24.2069   17.2788 C   0  0  2  0  0  0  0  0  0  1  0  0
  -19.0062  -18.0705   15.4728 C   0  0  0  0  0  0  0  0  0  0  0  0
  -30.0171  -20.6215   20.4825 N   0  0  0  0  0  0  0  0  0  0  0  0
  -24.9379  -27.7352   20.0160 N   0  0  0  0  0  0  0  0  0  0  0  0
  -29.4219  -21.7487   20.0569 N   0  0  0  0  0  0  0  0  0  0  0  0
  -21.1150  -18.7498   18.2936 N   0  0  0  0  0  0  0  0  0  0  0  0
  -28.7163  -24.4680   22.6484 N   0  0  0  0  0  0  0  0  0  0  0  0
  -28.0342  -22.6225   18.3477 N   0  0  0  0  0  0  0  0  0  0  0  0
  -28.4693  -18.2725   17.2145 N   0  0  0  0  0  0  0  0  0  0  0  0
  -23.1226  -15.9009   19.0572 N   0  0  0  0  0  0  0  0  0  0  0  0
  -18.0097  -19.5862   17.2373 N   0  0  0  0  0  0  0  0  0  0  0  0
  -26.6372  -25.4200   22.0447 N   0  0  0  0  0  0  0  0  0  0  0  0
  -16.6005  -22.5624   18.7287 N   0  3  0  0  0  0  0  0  0  0  0  0
  -27.5283  -20.2715   16.6002 O   0  0  0  0  0  0  0  0  0  0  0  0
  -23.3210  -17.5616   17.4370 O   0  0  0  0  0  0  0  0  0  0  0  0
  -19.3002  -17.2874   18.3591 O   0  0  0  0  0  0  0  0  0  0  0  0
  -18.6834  -21.7924   17.0009 O   0  0  0  0  0  0  0  0  0  0  0  0
  -28.0834  -26.5669   23.4047 O   0  0  0  0  0  0  0  0  0  0  0  0
  -31.3864  -14.4222   19.9896 O   0  0  0  0  0  0  0  0  0  0  0  0
  -25.2103  -23.3603   18.1374 O   0  0  0  0  0  0  0  0  0  1  0  0
  -27.6626  -10.4390   19.1702 F   0  0  0  0  0  0  0  0  0  0  0  0
  -30.8109  -12.5881   21.9764 F   0  0  0  0  0  0  0  0  0  0  0  0
  1  2  1  0  0  0  0
  1  5  2  0  0  0  0
  2  6  2  0  0  0  0
  3  8  2  0  0  0  0
  3 17  1  0  0  0  0
  4  9  1  0  0  0  0
  4 17  2  0  0  0  0
  5 19  1  0  0  0  0
  6 21  1  0  0  0  0
  7 10  2  0  0  0  0
  7 20  1  0  0  0  0
  8 24  1  0  0  0  0
  9 24  2  0  0  0  0
 10 25  1  0  0  0  0
 11 12  2  0  0  0  0
 11 26  1  0  0  0  0
 12 27  1  0  0  0  0
 13 22  1  0  0  0  0
 13 25  2  0  0  0  0
 14 23  1  0  0  0  0
 14 30  2  0  0  0  0
 15 27  2  0  0  0  0
 15 28  1  0  0  0  0
 16 23  2  0  0  0  0
 16 70  1  0  0  0  0
 17 29  1  0  0  0  0
 18 29  1  0  0  0  0
 18 31  2  0  0  0  0
 18 32  1  0  0  0  0
 19 21  2  0  0  0  0
 19 37  1  0  0  0  0
 20 22  2  0  0  0  0
 20 38  1  0  0  0  0
 21 46  1  0  0  0  0
 22 39  1  0  0  0  0
 23 63  1  0  0  0  0
 24 85  1  0  0  0  0
 25 86  1  0  0  0  0
 26 28  2  0  0  0  0
 26 85  1  0  0  0  0
 27 87  1  0  0  0  0
 28 88  1  0  0  0  0
 29 69  2  0  0  0  0
 30 58  1  0  0  0  0
 30 70  1  0  0  0  0
 31 71  1  0  0  0  0
 31 74  1  0  0  0  0
 32 75  1  0  0  0  0
 32 80  2  0  0  0  0
 33 47  1  0  0  0  0
 33 76  1  0  0  0  0
 33 81  2  0  0  0  0
 34 64  1  0  0  0  0
 34 72  1  0  0  0  0
 34 82  2  0  0  0  0
 35 65  1  0  0  0  0
 35 77  1  0  0  0  0
 35 83  2  0  0  0  0
 36 73  1  0  0  0  0
 36 78  1  0  0  0  0
 36 84  2  0  0  0  0
 37 40  1  0  0  0  0
 38 47  1  0  0  0  0
 39 72  1  0  0  0  0
 40 42  1  0  0  0  0
 41 43  1  0  0  0  0
 41 44  1  0  0  0  0
 42 46  1  0  0  0  0
 43 48  1  0  0  0  0
 44 73  1  0  0  0  0
 45 48  1  0  0  0  0
 45 73  1  0  0  0  0
 46 76  1  0  0  0  0
 47 72  1  0  0  0  0
 48 71  1  0  0  0  0
 49 59  1  0  0  0  0
 50 65  1  0  0  0  0
 51 66  1  0  0  0  0
 52 66  1  0  0  0  0
 53 67  1  0  0  0  0
 54 68  1  0  0  0  0
 55 68  1  0  0  0  0
 56 68  1  0  0  0  0
 57 79  1  0  0  0  0
 58 78  1  0  0  0  0
 59 63  1  0  0  0  0
 60 61  1  0  0  0  0
 60 62  1  0  0  0  0
 61 67  1  0  0  0  0
 62 70  1  0  0  0  0
 63 66  1  0  0  0  0
 64 68  1  0  0  0  0
 64 77  1  0  0  0  0
 65 79  1  0  0  0  0
 67 86  1  0  0  0  0
 69 71  1  0  0  0  0
M  CHG  1  79   1
M  ISO  4  36 100  67 101  78 100  86 101
M  END
> <Batch ID>
0094

> <Smiles>
CCC(c1cc(C[100NH:0][100C:0](=O)N2CCCC(n3nc(-c4ccc(Oc5ccc(F)cc5F)cc4)c(C(N)=O)c3N)C2)n(CCC[101CH:1](C)[101O:1]c2ccc3c(c2)CN(C(=O)C(NC(=O)C(C)NC)C(C)(C)C)C(C(=O)NC2CCCc4ccccc42)C3)c1)C(C)C

> <Shape>
0.160

> <Color>
0.073

> <Negative vol penalty>
0.000

$$$$

  -OEChem-04052319193D

 89 97  0     1  0  0  0  0  0999 V2000
  -30.4411  -23.3107   14.3447 C   0  0  0  0  0  0  0  0  0  0  0  0
  -29.7786  -22.4200   15.1832 C   0  0  0  0  0  0  0  0  0  0  0  0
  -24.3574  -12.7088   19.9970 C   0  0  0  0  0  0  0  0  0  0  0  0
  -25.0411  -13.1886   22.2640 C   0  0  0  0  0  0  0  0  0  0  0  0
  -30.8635  -24.5455   14.8355 C   0  0  0  0  0  0  0  0  0  0  0  0
  -29.5391  -22.7630   16.5133 C   0  0  0  0  0  0  0  0  0  0  0  0
  -24.7429  -21.8090   21.7481 C   0  0  0  0  0  0  0  0  0  0  0  0
  -24.5110  -11.3438   20.2395 C   0  0  0  0  0  0  0  0  0  0  0  0
  -25.1946  -11.8236   22.5066 C   0  0  0  0  0  0  0  0  0  0  0  0
  -24.6673  -21.3949   23.0773 C   0  0  0  0  0  0  0  0  0  0  0  0
  -24.3757   -7.7134   20.3707 C   0  0  0  0  0  0  0  0  0  0  0  0
  -23.3688   -6.8580   19.9236 C   0  0  0  0  0  0  0  0  0  0  0  0
  -25.3723  -23.5877   23.7941 C   0  0  0  0  0  0  0  0  0  0  0  0
  -29.1759  -18.2040   25.2198 C   0  0  0  0  0  0  0  0  0  0  0  0
  -21.7677   -8.0164   21.3134 C   0  0  0  0  0  0  0  0  0  0  0  0
  -24.6225  -13.6312   21.0092 C   0  0  0  0  0  0  0  0  0  0  0  0
  -23.3021  -15.8130   20.9465 C   0  0  0  0  0  0  0  0  0  0  0  0
  -30.6204  -24.9078   16.1698 C   0  0  0  0  0  0  0  0  0  0  0  0
  -25.1450  -23.1144   21.4310 C   0  0  0  0  0  0  0  0  0  0  0  0
  -29.9598  -24.0032   17.0228 C   0  0  0  0  0  0  0  0  0  0  0  0
  -25.4497  -24.0166   22.4602 C   0  0  0  0  0  0  0  0  0  0  0  0
  -29.0990  -18.2401   26.6339 C   0  0  0  0  0  0  0  0  0  0  0  0
  -24.9296  -10.9012   21.4943 C   0  0  0  0  0  0  0  0  0  0  0  0
  -24.9848  -22.2835   24.1004 C   0  0  0  0  0  0  0  0  0  0  0  0
  -24.0787   -8.7203   21.2892 C   0  0  0  0  0  0  0  0  0  0  0  0
  -22.0648   -7.0095   20.3949 C   0  0  0  0  0  0  0  0  0  0  0  0
  -22.7746   -8.8718   21.7605 C   0  0  0  0  0  0  0  0  0  0  0  0
  -24.4646  -15.0414   20.7591 C   0  0  0  0  0  0  0  0  0  0  0  0
  -30.4800  -18.4781   24.8716 C   0  0  0  0  0  0  0  0  0  0  0  0
  -30.3586  -18.5354   27.1069 C   0  0  0  0  0  0  0  0  0  0  0  0
  -23.6677  -17.0819   20.5686 C   0  0  0  0  0  0  0  0  0  0  0  0
  -22.0077  -15.4182   21.4200 C   0  0  0  0  0  0  0  0  0  0  0  0
  -27.5692  -24.3846   19.8143 C   0  0  0  0  0  0  0  0  0  0  0  0
  -25.9517  -27.1496   20.3247 C   0  0  0  0  0  0  0  0  0  0  0  0
  -23.7025  -28.8834   22.2173 C   0  0  0  0  0  0  0  0  0  0  0  0
  -28.9398  -19.9119   20.3514 C   0  0  0  0  0  0  0  0  0  0  0  0
  -31.1377  -26.2342   16.6676 C   0  0  0  0  0  0  0  0  0  0  0  0
  -25.1957  -23.5535   19.9933 C   0  0  0  0  0  0  0  0  0  0  0  0
  -25.8672  -25.4351   22.1736 C   0  0  0  0  0  0  0  0  0  0  0  0
  -30.5134  -26.6742   17.9893 C   0  0  0  0  0  0  0  0  0  0  0  0
  -26.6710  -19.4021   17.6553 C   0  0  0  0  0  0  0  0  0  0  0  0
  -30.5031  -25.5192   18.9856 C   0  0  0  0  0  0  0  0  0  0  0  0
  -25.7434  -18.2963   18.1619 C   0  0  0  0  0  0  0  0  0  0  0  0
  -28.1074  -19.1958   18.1309 C   0  0  0  0  0  0  0  0  0  0  0  0
  -27.3318  -17.9256   20.0953 C   0  0  0  0  0  0  0  0  0  0  0  0
  -29.6594  -24.3492   18.4651 C   0  0  1  0  0  0  0  0  0  0  0  0
  -26.1129  -24.7514   19.7664 C   0  0  1  0  0  0  0  0  0  0  0  0
  -25.8614  -18.1208   19.6879 C   0  0  2  0  0  0  0  0  0  0  0  0
  -30.8419  -18.6940   28.4952 C   0  0  0  0  0  0  0  0  0  0  0  0
  -33.2989  -16.5356   26.2191 C   0  0  0  0  0  0  0  0  0  0  0  0
  -22.6124  -31.1354   22.4109 C   0  0  0  0  0  0  0  0  0  0  0  0
  -32.8302  -20.3814   26.6997 C   0  0  0  0  0  0  0  0  0  0  0  0
  -28.5247  -28.2912   21.5022 C   0  0  0  0  0  0  0  0  0  0  0  0
  -27.1621  -30.1303   22.5167 C   0  0  0  0  0  0  0  0  0  0  0  0
  -27.2564  -29.8724   20.0374 C   0  0  0  0  0  0  0  0  0  0  0  0
  -21.0017  -27.7386   21.8251 C   0  0  0  0  0  0  0  0  0  0  0  0
  -27.8618  -17.9979   27.4616 C   0  0  0  0  0  0  0  0  0  0  0  0
  -31.1047  -18.5648   23.5356 C   0  0  0  0  0  0  0  0  0  0  0  0
  -33.4277  -17.9225   26.8361 C   0  0  0  0  0  0  0  0  0  0  0  0
  -27.2028  -19.2808   27.9807 C   0  0  0  0  0  0  0  0  0  0  0  0
  -31.0790  -19.9726   22.8938 C   0  0  0  0  0  0  0  0  0  0  0  0
  -26.8274  -20.2571   26.8614 C   0  0  0  0  0  0  0  0  0  0  0  0
  -26.1473  -21.5054   27.4211 C   0  0  0  0  0  0  0  0  0  0  0  0
  -29.6748  -20.5179   22.6431 C   0  0  0  0  0  0  0  0  0  0  0  0
  -25.8079  -22.5010   26.3210 C   0  0  0  0  0  0  0  0  0  1  0  0
  -25.9461  -28.2005   21.4085 C   0  0  1  0  0  0  0  0  0  0  0  0
  -22.5050  -29.7332   21.8321 C   0  0  2  0  0  0  0  0  0  0  0  0
  -32.6016  -18.9922   26.0946 C   0  0  1  0  0  0  0  0  0  0  0  0
  -27.2164  -29.0964   21.3719 C   0  0  0  0  0  0  0  0  0  0  0  0
  -25.4916  -15.7599   20.2978 N   0  0  0  0  0  0  0  0  0  0  0  0
  -31.1898  -18.6782   26.0267 N   0  0  0  0  0  0  0  0  0  0  0  0
  -24.9758  -16.9964   20.1921 N   0  0  0  0  0  0  0  0  0  0  0  0
  -25.9078  -25.8149   20.7518 N   0  0  0  0  0  0  0  0  0  0  0  0
  -28.1499  -19.0377   19.5866 N   0  0  0  0  0  0  0  0  0  0  0  0
  -22.9946  -18.2513   20.5249 N   0  0  0  0  0  0  0  0  0  0  0  0
  -21.8035  -14.0752   21.7650 N   0  0  0  0  0  0  0  0  0  0  0  0
  -28.2495  -24.6273   18.6363 N   0  0  0  0  0  0  0  0  0  0  0  0
  -24.6935  -28.9335   21.2599 N   0  0  0  0  0  0  0  0  0  0  0  0
  -28.9186  -19.6968   21.7240 N   0  0  0  0  0  0  0  0  0  0  0  0
  -21.2465  -29.1127   22.3340 N   0  3  0  0  0  0  0  0  0  0  0  0
  -21.0555  -16.2289   21.5182 O   0  0  0  0  0  0  0  0  0  0  0  0
  -28.0410  -23.9174   20.8443 O   0  0  0  0  0  0  0  0  0  0  0  0
  -25.9863  -27.5003   19.1426 O   0  0  0  0  0  0  0  0  0  0  0  0
  -23.7551  -28.2424   23.2647 O   0  0  0  0  0  0  0  0  0  0  0  0
  -29.6098  -20.8204   19.8488 O   0  0  0  0  0  0  0  0  0  0  0  0
  -25.0793   -9.5693   21.7314 O   0  0  0  0  0  0  0  0  0  0  0  0
  -24.9124  -21.8818   25.3986 O   0  0  0  0  0  0  0  0  0  1  0  0
  -21.0976   -6.1889   19.9644 F   0  0  0  0  0  0  0  0  0  0  0  0
  -22.4829   -9.8380   22.6420 F   0  0  0  0  0  0  0  0  0  0  0  0
  1  2  1  0  0  0  0
  1  5  2  0  0  0  0
  2  6  2  0  0  0  0
  3  8  2  0  0  0  0
  3 16  1  0  0  0  0
  4  9  1  0  0  0  0
  4 16  2  0  0  0  0
  5 18  1  0  0  0  0
  6 20  1  0  0  0  0
  7 10  2  0  0  0  0
  7 19  1  0  0  0  0
  8 23  1  0  0  0  0
  9 23  2  0  0  0  0
 10 24  1  0  0  0  0
 11 12  2  0  0  0  0
 11 25  1  0  0  0  0
 12 26  1  0  0  0  0
 13 21  1  0  0  0  0
 13 24  2  0  0  0  0
 14 22  1  0  0  0  0
 14 29  2  0  0  0  0
 15 26  2  0  0  0  0
 15 27  1  0  0  0  0
 16 28  1  0  0  0  0
 17 28  1  0  0  0  0
 17 31  2  0  0  0  0
 17 32  1  0  0  0  0
 18 20  2  0  0  0  0
 18 37  1  0  0  0  0
 19 21  2  0  0  0  0
 19 38  1  0  0  0  0
 20 46  1  0  0  0  0
 21 39  1  0  0  0  0
 22 30  2  0  0  0  0
 22 57  1  0  0  0  0
 23 86  1  0  0  0  0
 24 87  1  0  0  0  0
 25 27  2  0  0  0  0
 25 86  1  0  0  0  0
 26 88  1  0  0  0  0
 27 89  1  0  0  0  0
 28 70  2  0  0  0  0
 29 58  1  0  0  0  0
 29 71  1  0  0  0  0
 30 49  1  0  0  0  0
 30 71  1  0  0  0  0
 31 72  1  0  0  0  0
 31 75  1  0  0  0  0
 32 76  1  0  0  0  0
 32 81  2  0  0  0  0
 33 47  1  0  0  0  0
 33 77  1  0  0  0  0
 33 82  2  0  0  0  0
 34 66  1  0  0  0  0
 34 73  1  0  0  0  0
 34 83  2  0  0  0  0
 35 67  1  0  0  0  0
 35 78  1  0  0  0  0
 35 84  2  0  0  0  0
 36 74  1  0  0  0  0
 36 79  1  0  0  0  0
 36 85  2  0  0  0  0
 37 40  1  0  0  0  0
 38 47  1  0  0  0  0
 39 73  1  0  0  0  0
 40 42  1  0  0  0  0
 41 43  1  0  0  0  0
 41 44  1  0  0  0  0
 42 46  1  0  0  0  0
 43 48  1  0  0  0  0
 44 74  1  0  0  0  0
 45 48  1  0  0  0  0
 45 74  1  0  0  0  0
 46 77  1  0  0  0  0
 47 73  1  0  0  0  0
 48 72  1  0  0  0  0
 50 59  1  0  0  0  0
 51 67  1  0  0  0  0
 52 68  1  0  0  0  0
 53 69  1  0  0  0  0
 54 69  1  0  0  0  0
 55 69  1  0  0  0  0
 56 80  1  0  0  0  0
 57 60  1  0  0  0  0
 58 61  1  0  0  0  0
 59 68  1  0  0  0  0
 60 62  1  0  0  0  0
 61 64  1  0  0  0  0
 62 63  1  0  0  0  0
 63 65  1  0  0  0  0
 64 79  1  0  0  0  0
 65 87  1  0  0  0  0
 66 69  1  0  0  0  0
 66 78  1  0  0  0  0
 67 80  1  0  0  0  0
 68 71  1  0  0  0  0
 70 72  1  0  0  0  0
M  CHG  1  80   1
M  ISO  4  36 100  65 101  79 100  87 101
M  END
> <Batch ID>
0094

> <Smiles>
CCC(C)n1c(CCC[100NH:0][100C:0](=O)N2CCCC(n3nc(-c4ccc(Oc5ccc(F)cc5F)cc4)c(C(N)=O)c3N)C2)cc(CCCC[101CH2:1][101O:1]c2ccc3c(c2)CN(C(=O)C(NC(=O)C(C)NC)C(C)(C)C)C(C(=O)NC2CCCc4ccccc42)C3)c1C

> <Shape>
0.202

> <Color>
0.074

> <Negative vol penalty>
0.000

$$$$

  -OEChem-04052319193D

 81 88  0     1  0  0  0  0  0999 V2000
  -30.7503  -24.1141   17.9248 C   0  0  0  0  0  0  0  0  0  0  0  0
  -29.4474  -24.4418   18.2824 C   0  0  0  0  0  0  0  0  0  0  0  0
  -26.3450  -13.5531   21.9030 C   0  0  0  0  0  0  0  0  0  0  0  0
  -25.0869  -15.1518   20.5998 C   0  0  0  0  0  0  0  0  0  0  0  0
  -31.8213  -24.7498   18.5493 C   0  0  0  0  0  0  0  0  0  0  0  0
  -29.2149  -25.4138   19.2561 C   0  0  0  0  0  0  0  0  0  0  0  0
  -24.5443  -26.7796   19.9799 C   0  0  0  0  0  0  0  0  0  0  0  0
  -25.2138  -12.7432   22.0017 C   0  0  0  0  0  0  0  0  0  0  0  0
  -23.9556  -14.3418   20.6984 C   0  0  0  0  0  0  0  0  0  0  0  0
  -23.6071  -25.9583   20.6051 C   0  0  0  0  0  0  0  0  0  0  0  0
  -23.5576  -10.5297   20.0548 C   0  0  0  0  0  0  0  0  0  0  0  0
  -23.7189   -9.1615   19.8368 C   0  0  0  0  0  0  0  0  0  0  0  0
  -23.8118  -27.2688   22.6200 C   0  0  0  0  0  0  0  0  0  0  0  0
  -22.9158   -8.7109   22.0704 C   0  0  0  0  0  0  0  0  0  0  0  0
  -26.2816  -14.7575   21.2021 C   0  0  0  0  0  0  0  0  0  0  0  0
  -28.4383  -15.5568   20.0989 C   0  0  0  0  0  0  0  0  0  0  0  0
  -31.6011  -25.7210   19.5398 C   0  0  0  0  0  0  0  0  0  0  0  0
  -25.1314  -27.8469   20.6747 C   0  0  0  0  0  0  0  0  0  0  0  0
  -30.2822  -26.0839   19.8809 C   0  0  0  0  0  0  0  0  0  0  0  0
  -24.7543  -28.1037   22.0005 C   0  0  0  0  0  0  0  0  0  0  0  0
  -24.0190  -13.1374   21.3993 C   0  0  0  0  0  0  0  0  0  0  0  0
  -23.2429  -26.2011   21.9263 C   0  0  0  0  0  0  0  0  0  0  0  0
  -23.0754  -10.9886   21.2806 C   0  0  0  0  0  0  0  0  0  0  0  0
  -23.3980   -8.2521   20.8446 C   0  0  0  0  0  0  0  0  0  0  0  0
  -22.7544  -10.0792   22.2884 C   0  0  0  0  0  0  0  0  0  0  0  0
  -27.4497  -15.5949   21.1004 C   0  0  0  0  0  0  0  0  0  0  0  0
  -29.3245  -16.5445   20.4535 C   0  0  0  0  0  0  0  0  0  0  0  0
  -28.5460  -14.7049   18.9507 C   0  0  0  0  0  0  0  0  0  0  0  0
  -28.0960  -28.6012   21.5382 C   0  0  0  0  0  0  0  0  0  0  0  0
  -26.6944  -31.3601   22.5110 C   0  0  0  0  0  0  0  0  0  0  0  0
  -23.8610  -32.9694   23.5253 C   0  0  0  0  0  0  0  0  0  0  0  0
  -28.7703  -21.5477   23.6958 C   0  0  0  0  0  0  0  0  0  0  0  0
  -32.7967  -26.3833   20.1778 C   0  0  0  0  0  0  0  0  0  0  0  0
  -26.1209  -28.7398   19.9775 C   0  0  0  0  0  0  0  0  0  0  0  0
  -25.3401  -29.2490   22.7839 C   0  0  0  0  0  0  0  0  0  0  0  0
  -32.4623  -27.0691   21.4984 C   0  0  0  0  0  0  0  0  0  0  0  0
  -31.0219  -18.8532   24.2849 C   0  0  0  0  0  0  0  0  0  0  0  0
  -31.2362  -27.9537   21.3289 C   0  0  0  0  0  0  0  0  0  0  0  0
  -30.4509  -17.7092   23.4452 C   0  0  0  0  0  0  0  0  0  0  0  0
  -29.9162  -19.7097   24.8980 C   0  0  0  0  0  0  0  0  0  0  0  0
  -28.3576  -19.0852   23.0939 C   0  0  0  0  0  0  0  0  0  0  0  0
  -30.0054  -27.1161   20.9590 C   0  0  1  0  0  0  0  0  0  0  0  0
  -27.0368  -29.4853   20.9433 C   0  0  1  0  0  0  0  0  0  0  0  0
  -29.4350  -18.2268   22.4092 C   0  0  2  0  0  0  0  0  0  0  0  0
  -23.0359  -35.2132   24.2880 C   0  0  0  0  0  0  0  0  0  0  0  0
  -23.5785  -21.6865   25.4285 C   0  0  0  0  0  0  0  0  0  0  0  0
  -23.5010  -24.1101   26.1316 C   0  0  0  0  0  0  0  0  0  0  0  0
  -20.8879  -23.7542   21.5267 C   0  0  0  0  0  0  0  0  0  0  0  0
  -27.9670  -30.8960   25.2451 C   0  0  0  0  0  0  0  0  0  0  0  0
  -26.3816  -32.5862   26.1925 C   0  0  0  0  0  0  0  0  0  0  0  0
  -28.0340  -33.2669   24.4521 C   0  0  0  0  0  0  0  0  0  0  0  0
  -21.9853  -33.1837   21.2461 C   0  0  0  0  0  0  0  0  0  0  0  0
  -26.3650  -23.7807   23.1950 C   0  0  0  0  0  0  0  0  0  0  0  0
  -27.5588  -23.2767   22.3912 C   0  0  0  0  0  0  0  0  0  0  0  0
  -25.1086  -22.9577   22.9402 C   0  0  0  0  0  0  0  0  0  0  0  0
  -22.6479  -23.1364   23.2774 C   0  0  0  0  0  0  0  0  0  0  0  0
  -26.0540  -31.8404   23.7909 C   0  0  1  0  0  0  0  0  0  0  0  0
  -23.2446  -34.2893   23.0983 C   0  0  2  0  0  0  0  0  0  0  0  0
  -24.1727  -23.0737   25.2451 C   0  0  0  0  0  0  0  0  0  0  0  0
  -22.2652  -24.0409   22.1105 C   0  0  2  0  0  0  0  0  0  1  0  0
  -27.0994  -32.1246   24.9063 C   0  0  0  0  0  0  0  0  0  0  0  0
  -27.6852  -16.5324   22.0221 N   0  0  0  0  0  0  0  0  0  0  0  0
  -28.8321  -17.0926   21.6013 N   0  0  0  0  0  0  0  0  0  0  0  0
  -26.3082  -30.0898   22.0605 N   0  0  0  0  0  0  0  0  0  0  0  0
  -28.9877  -20.1700   23.8626 N   0  0  0  0  0  0  0  0  0  0  0  0
  -30.4690  -16.9890   19.8924 N   0  0  0  0  0  0  0  0  0  0  0  0
  -27.5488  -13.7438   18.7360 N   0  0  0  0  0  0  0  0  0  0  0  0
  -28.9200  -28.0035   20.6037 N   0  0  0  0  0  0  0  0  0  0  0  0
  -25.2364  -32.9937   23.4305 N   0  0  0  0  0  0  0  0  0  0  0  0
  -27.8803  -21.8986   22.6881 N   0  0  0  0  0  0  0  0  0  0  0  0
  -21.9249  -34.0576   22.4459 N   0  3  0  0  0  0  0  0  0  0  0  0
  -23.9904  -23.4856   23.8049 N   0  3  1  0  0  0  0  0  0  0  0  0
  -29.5070  -14.7823   18.1482 O   0  0  0  0  0  0  0  0  0  0  0  0
  -28.1619  -28.4720   22.7550 O   0  0  0  0  0  0  0  0  0  0  0  0
  -27.5020  -32.0882   21.9285 O   0  0  0  0  0  0  0  0  0  0  0  0
  -23.1898  -32.0138   23.9085 O   0  0  0  0  0  0  0  0  0  0  0  0
  -29.3322  -22.4020   24.3897 O   0  0  0  0  0  0  0  0  0  0  0  0
  -22.9150  -12.3472   21.4951 O   0  0  0  0  0  0  0  0  0  0  0  0
  -22.3288  -25.4006   22.5391 O   0  0  0  0  0  0  0  0  0  1  0  0
  -23.5515   -6.9381   20.6347 F   0  0  0  0  0  0  0  0  0  0  0  0
  -22.2896  -10.5140   23.4677 F   0  0  0  0  0  0  0  0  0  0  0  0
  1  2  1  0  0  0  0
  1  5  2  0  0  0  0
  2  6  2  0  0  0  0
  3  8  2  0  0  0  0
  3 15  1  0  0  0  0
  4  9  1  0  0  0  0
  4 15  2  0  0  0  0
  5 17  1  0  0  0  0
  6 19  1  0  0  0  0
  7 10  2  0  0  0  0
  7 18  1  0  0  0  0
  8 21  1  0  0  0  0
  9 21  2  0  0  0  0
 10 22  1  0  0  0  0
 11 12  2  0  0  0  0
 11 23  1  0  0  0  0
 12 24  1  0  0  0  0
 13 20  1  0  0  0  0
 13 22  2  0  0  0  0
 14 24  2  0  0  0  0
 14 25  1  0  0  0  0
 15 26  1  0  0  0  0
 16 26  1  0  0  0  0
 16 27  2  0  0  0  0
 16 28  1  0  0  0  0
 17 19  2  0  0  0  0
 17 33  1  0  0  0  0
 18 20  2  0  0  0  0
 18 34  1  0  0  0  0
 19 42  1  0  0  0  0
 20 35  1  0  0  0  0
 21 78  1  0  0  0  0
 22 79  1  0  0  0  0
 23 25  2  0  0  0  0
 23 78  1  0  0  0  0
 24 80  1  0  0  0  0
 25 81  1  0  0  0  0
 26 62  2  0  0  0  0
 27 63  1  0  0  0  0
 27 66  1  0  0  0  0
 28 67  1  0  0  0  0
 28 73  2  0  0  0  0
 29 43  1  0  0  0  0
 29 68  1  0  0  0  0
 29 74  2  0  0  0  0
 30 57  1  0  0  0  0
 30 64  1  0  0  0  0
 30 75  2  0  0  0  0
 31 58  1  0  0  0  0
 31 69  1  0  0  0  0
 31 76  2  0  0  0  0
 32 65  1  0  0  0  0
 32 70  1  0  0  0  0
 32 77  2  0  0  0  0
 33 36  1  0  0  0  0
 34 43  1  0  0  0  0
 35 64  1  0  0  0  0
 36 38  1  0  0  0  0
 37 39  1  0  0  0  0
 37 40  1  0  0  0  0
 38 42  1  0  0  0  0
 39 44  1  0  0  0  0
 40 65  1  0  0  0  0
 41 44  1  0  0  0  0
 41 65  1  0  0  0  0
 42 68  1  0  0  0  0
 43 64  1  0  0  0  0
 44 63  1  0  0  0  0
 45 58  1  0  0  0  0
 46 59  1  0  0  0  0
 47 59  1  0  0  0  0
 48 60  1  0  0  0  0
 49 61  1  0  0  0  0
 50 61  1  0  0  0  0
 51 61  1  0  0  0  0
 52 71  1  0  0  0  0
 53 54  1  0  0  0  0
 53 55  1  0  0  0  0
 54 70  1  0  0  0  0
 55 72  1  0  0  0  0
 56 60  1  0  0  0  0
 56 72  1  0  0  0  0
 57 61  1  0  0  0  0
 57 69  1  0  0  0  0
 58 71  1  0  0  0  0
 59 72  1  0  0  0  0
 60 79  1  0  0  0  0
 62 63  1  0  0  0  0
M  CHG  2  71   1  72   1
M  ISO  4  32 100  60 101  70 100  79 101
M  END
> <Batch ID>
0094

> <Smiles>
CNC(C)C(=O)NC(C(=O)N1Cc2cc([101O:1][101CH:1](C)CN(CCC[100NH:0][100C:0](=O)N3CCCC(n4nc(-c5ccc(Oc6ccc(F)cc6F)cc5)c(C(N)=O)c4N)C3)C(C)C)ccc2CC1C(=O)NC1CCCc2ccccc21)C(C)(C)C

> <Shape>
0.249

> <Color>
0.059

> <Negative vol penalty>
0.000

$$$$

  -OEChem-04052319193D

 87 95  0     1  0  0  0  0  0999 V2000
  -28.3519  -35.3762   22.4540 C   0  0  0  0  0  0  0  0  0  0  0  0
  -28.4481  -34.6584   21.2661 C   0  0  0  0  0  0  0  0  0  0  0  0
  -22.6262  -12.9310   22.6477 C   0  0  0  0  0  0  0  0  0  0  0  0
  -22.5417  -14.5395   20.8470 C   0  0  0  0  0  0  0  0  0  0  0  0
  -28.2576  -34.7003   23.6698 C   0  0  0  0  0  0  0  0  0  0  0  0
  -28.4510  -33.2643   21.2935 C   0  0  0  0  0  0  0  0  0  0  0  0
  -26.3231  -27.6006   17.4581 C   0  0  0  0  0  0  0  0  0  0  0  0
  -28.9041  -18.7773   20.3690 C   0  0  0  0  0  0  0  0  0  0  0  0
  -21.5104  -13.5286   23.2339 C   0  0  0  0  0  0  0  0  0  0  0  0
  -21.4259  -15.1371   21.4331 C   0  0  0  0  0  0  0  0  0  0  0  0
  -26.8205  -26.4119   16.9257 C   0  0  0  0  0  0  0  0  0  0  0  0
  -27.6820  -19.3752   20.6767 C   0  0  0  0  0  0  0  0  0  0  0  0
  -18.7739  -17.3087   22.6417 C   0  0  0  0  0  0  0  0  0  0  0  0
  -18.7470  -18.7014   22.7135 C   0  0  0  0  0  0  0  0  0  0  0  0
  -26.5727  -25.3513   19.0781 C   0  0  0  0  0  0  0  0  0  0  0  0
  -20.7637  -18.6718   24.0437 C   0  0  0  0  0  0  0  0  0  0  0  0
  -23.1419  -13.4365   21.4543 C   0  0  0  0  0  0  0  0  0  0  0  0
  -24.3031  -11.7705   19.9105 C   0  0  0  0  0  0  0  0  0  0  0  0
  -28.2496  -33.2971   23.7113 C   0  0  0  0  0  0  0  0  0  0  0  0
  -25.9563  -27.6767   18.8094 C   0  0  0  0  0  0  0  0  0  0  0  0
  -28.3578  -32.5690   22.5111 C   0  0  0  0  0  0  0  0  0  0  0  0
  -26.0685  -26.5413   19.6246 C   0  0  0  0  0  0  0  0  0  0  0  0
  -29.3425  -18.7272   19.0457 C   0  0  0  0  0  0  0  0  0  0  0  0
  -28.5587  -19.2748   18.0302 C   0  0  0  0  0  0  0  0  0  0  0  0
  -27.3366  -19.8726   18.3378 C   0  0  0  0  0  0  0  0  0  0  0  0
  -20.9103  -14.6316   22.6266 C   0  0  0  0  0  0  0  0  0  0  0  0
  -26.9481  -25.2878   17.7365 C   0  0  0  0  0  0  0  0  0  0  0  0
  -26.8982  -19.9228   19.6611 C   0  0  0  0  0  0  0  0  0  0  0  0
  -19.7956  -16.5975   23.2710 C   0  0  0  0  0  0  0  0  0  0  0  0
  -19.7419  -19.3830   23.4144 C   0  0  0  0  0  0  0  0  0  0  0  0
  -20.7905  -17.2790   23.9719 C   0  0  0  0  0  0  0  0  0  0  0  0
  -24.2948  -12.8200   20.8486 C   0  0  0  0  0  0  0  0  0  0  0  0
  -25.6342  -11.5519   19.6516 C   0  0  0  0  0  0  0  0  0  0  0  0
  -23.2058  -11.0570   19.3252 C   0  0  0  0  0  0  0  0  0  0  0  0
  -26.9427  -29.3744   21.3091 C   0  0  0  0  0  0  0  0  0  0  0  0
  -24.4226  -27.9526   22.7754 C   0  0  0  0  0  0  0  0  0  0  0  0
  -22.2402  -25.3314   22.8924 C   0  0  0  0  0  0  0  0  0  0  0  0
  -30.4905  -15.0315   20.0498 C   0  0  0  0  0  0  0  0  0  0  0  0
  -28.1934  -32.6109   25.0532 C   0  0  0  0  0  0  0  0  0  0  0  0
  -25.3964  -28.9588   19.3618 C   0  0  0  0  0  0  0  0  0  0  0  0
  -25.6696  -26.5652   21.0767 C   0  0  0  0  0  0  0  0  0  0  0  0
  -27.8259  -31.1319   24.9660 C   0  0  0  0  0  0  0  0  0  0  0  0
  -29.9519  -11.9129   21.6809 C   0  0  0  0  0  0  0  0  0  0  0  0
  -28.6365  -30.4440   23.8722 C   0  0  0  0  0  0  0  0  0  0  0  0
  -28.4417  -11.6970   21.5679 C   0  0  0  0  0  0  0  0  0  0  0  0
  -30.2974  -13.3855   21.8909 C   0  0  0  0  0  0  0  0  0  0  0  0
  -28.2147  -14.0889   20.7767 C   0  0  0  0  0  0  0  0  0  0  0  0
  -28.3393  -31.0558   22.4978 C   0  0  1  0  0  0  0  0  0  0  0  0
  -25.5366  -29.0682   20.8770 C   0  0  1  0  0  0  0  0  0  0  0  0
  -27.8202  -12.6265   20.5082 C   0  0  2  0  0  0  0  0  0  0  0  0
  -29.0311  -19.2205   16.6117 C   0  0  0  0  0  0  0  0  0  0  0  0
  -20.3171  -24.4274   24.2271 C   0  0  0  0  0  0  0  0  0  0  0  0
  -24.4162  -20.2406   21.9910 C   0  0  0  0  0  0  0  0  0  0  0  0
  -23.4955  -19.5953   19.7355 C   0  0  0  0  0  0  0  0  0  0  0  0
  -26.3623  -27.0371   24.9456 C   0  0  0  0  0  0  0  0  0  0  0  0
  -24.6315  -25.3936   25.7016 C   0  0  0  0  0  0  0  0  0  0  0  0
  -24.1508  -27.8397   25.7940 C   0  0  0  0  0  0  0  0  0  0  0  0
  -20.4109  -25.4738   20.5703 C   0  0  0  0  0  0  0  0  0  0  0  0
  -30.6552  -18.0814   18.7438 C   0  0  0  0  0  0  0  0  0  0  0  0
  -26.4835  -20.4667   17.2456 C   0  0  0  0  0  0  0  0  0  0  0  0
  -26.9877  -21.8190   16.7371 C   0  0  0  0  0  0  0  0  0  0  0  0
  -30.5237  -16.6626   18.1797 C   0  0  0  0  0  0  0  0  0  0  0  0
  -26.9652  -22.9105   17.8009 C   0  0  0  0  0  0  0  0  0  1  0  0
  -24.2196  -26.6738   23.5516 C   0  0  1  0  0  0  0  0  0  0  0  0
  -20.7302  -25.2838   23.0402 C   0  0  2  0  0  0  0  0  0  0  0  0
  -24.7339  -19.6753   20.6151 C   0  0  0  0  0  0  0  0  0  0  0  0
  -24.8505  -26.7358   24.9714 C   0  0  0  0  0  0  0  0  0  0  0  0
  -25.5231  -13.2390   21.1646 N   0  0  0  0  0  0  0  0  0  0  0  0
  -26.3157  -12.4486   20.4208 N   0  0  0  0  0  0  0  0  0  0  0  0
  -25.1334  -27.8438   21.5718 N   0  0  0  0  0  0  0  0  0  0  0  0
  -29.6789  -14.2126   20.8520 N   0  0  0  0  0  0  0  0  0  0  0  0
  -26.2764  -10.6819   18.8435 N   0  0  0  0  0  0  0  0  0  0  0  0
  -21.9027  -11.4094   19.7021 N   0  0  0  0  0  0  0  0  0  0  0  0
  -27.0742  -30.5692   21.9908 N   0  0  0  0  0  0  0  0  0  0  0  0
  -22.7835  -26.4169   23.5466 N   0  0  0  0  0  0  0  0  0  0  0  0
  -29.8250  -15.7780   19.0852 N   0  0  0  0  0  0  0  0  0  0  0  0
  -20.1070  -24.7159   21.8114 N   0  3  0  0  0  0  0  0  0  0  0  0
  -23.3764  -10.1233   18.5051 O   0  0  0  0  0  0  0  0  0  0  0  0
  -27.8415  -28.5844   21.0450 O   0  0  0  0  0  0  0  0  0  0  0  0
  -23.9612  -29.0079   23.2171 O   0  0  0  0  0  0  0  0  0  0  0  0
  -22.8748  -24.4879   22.2629 O   0  0  0  0  0  0  0  0  0  0  0  0
  -31.7181  -15.0889   20.1799 O   0  0  0  0  0  0  0  0  0  0  0  0
  -19.8214  -15.2148   23.1981 O   0  0  0  0  0  0  0  0  0  0  0  0
  -27.4340  -24.1265   17.2196 O   0  0  0  0  0  0  0  0  0  1  0  0
  -25.7075  -20.5024   19.9812 O   0  0  0  0  0  0  0  0  0  0  0  0
  -19.7168  -20.7205   23.4820 F   0  0  0  0  0  0  0  0  0  0  0  0
  -21.7753  -16.6013   24.5774 F   0  0  0  0  0  0  0  0  0  0  0  0
  1  2  1  0  0  0  0
  1  5  2  0  0  0  0
  2  6  2  0  0  0  0
  3  9  2  0  0  0  0
  3 17  1  0  0  0  0
  4 10  1  0  0  0  0
  4 17  2  0  0  0  0
  5 19  1  0  0  0  0
  6 21  1  0  0  0  0
  7 11  2  0  0  0  0
  7 20  1  0  0  0  0
  8 12  1  0  0  0  0
  8 23  2  0  0  0  0
  9 26  1  0  0  0  0
 10 26  2  0  0  0  0
 11 27  1  0  0  0  0
 12 28  2  0  0  0  0
 13 14  2  0  0  0  0
 13 29  1  0  0  0  0
 14 30  1  0  0  0  0
 15 22  1  0  0  0  0
 15 27  2  0  0  0  0
 16 30  2  0  0  0  0
 16 31  1  0  0  0  0
 17 32  1  0  0  0  0
 18 32  1  0  0  0  0
 18 33  2  0  0  0  0
 18 34  1  0  0  0  0
 19 21  2  0  0  0  0
 19 39  1  0  0  0  0
 20 22  2  0  0  0  0
 20 40  1  0  0  0  0
 21 48  1  0  0  0  0
 22 41  1  0  0  0  0
 23 24  1  0  0  0  0
 23 59  1  0  0  0  0
 24 25  2  0  0  0  0
 24 51  1  0  0  0  0
 25 28  1  0  0  0  0
 25 60  1  0  0  0  0
 26 83  1  0  0  0  0
 27 84  1  0  0  0  0
 28 85  1  0  0  0  0
 29 31  2  0  0  0  0
 29 83  1  0  0  0  0
 30 86  1  0  0  0  0
 31 87  1  0  0  0  0
 32 68  2  0  0  0  0
 33 69  1  0  0  0  0
 33 72  1  0  0  0  0
 34 73  1  0  0  0  0
 34 78  2  0  0  0  0
 35 49  1  0  0  0  0
 35 74  1  0  0  0  0
 35 79  2  0  0  0  0
 36 64  1  0  0  0  0
 36 70  1  0  0  0  0
 36 80  2  0  0  0  0
 37 65  1  0  0  0  0
 37 75  1  0  0  0  0
 37 81  2  0  0  0  0
 38 71  1  0  0  0  0
 38 76  1  0  0  0  0
 38 82  2  0  0  0  0
 39 42  1  0  0  0  0
 40 49  1  0  0  0  0
 41 70  1  0  0  0  0
 42 44  1  0  0  0  0
 43 45  1  0  0  0  0
 43 46  1  0  0  0  0
 44 48  1  0  0  0  0
 45 50  1  0  0  0  0
 46 71  1  0  0  0  0
 47 50  1  0  0  0  0
 47 71  1  0  0  0  0
 48 74  1  0  0  0  0
 49 70  1  0  0  0  0
 50 69  1  0  0  0  0
 52 65  1  0  0  0  0
 53 66  1  0  0  0  0
 54 66  1  0  0  0  0
 55 67  1  0  0  0  0
 56 67  1  0  0  0  0
 57 67  1  0  0  0  0
 58 77  1  0  0  0  0
 59 62  1  0  0  0  0
 60 61  1  0  0  0  0
 61 63  1  0  0  0  0
 62 76  1  0  0  0  0
 63 84  1  0  0  0  0
 64 67  1  0  0  0  0
 64 75  1  0  0  0  0
 65 77  1  0  0  0  0
 66 85  1  0  0  0  0
 68 69  1  0  0  0  0
M  CHG  1  77   1
M  ISO  4  38 100  63 101  76 100  84 101
M  END
> <Batch ID>
0094

> <Smiles>
CNC(C)C(=O)NC(C(=O)N1Cc2cc([101O:1][101CH2:1]CCc3c(OC(C)C)ccc(CC[100NH:0][100C:0](=O)N4CCCC(n5nc(-c6ccc(Oc7ccc(F)cc7F)cc6)c(C(N)=O)c5N)C4)c3C)ccc2CC1C(=O)NC1CCCc2ccccc21)C(C)(C)C

> <Shape>
0.202

> <Color>
0.061

> <Negative vol penalty>
0.000

$$$$

  -OEChem-04052319193D

 87 95  0     1  0  0  0  0  0999 V2000
  -19.6281  -10.0619   22.0679 C   0  0  0  0  0  0  0  0  0  0  0  0
  -19.0780  -11.3289   21.9016 C   0  0  0  0  0  0  0  0  0  0  0  0
  -28.6918  -25.4416   18.2923 C   0  0  0  0  0  0  0  0  0  0  0  0
  -27.2989  -24.2189   19.8422 C   0  0  0  0  0  0  0  0  0  0  0  0
  -20.8904   -9.9213   22.6431 C   0  0  0  0  0  0  0  0  0  0  0  0
  -19.7896  -12.4560   22.3113 C   0  0  0  0  0  0  0  0  0  0  0  0
  -20.8399  -19.3282   20.5833 C   0  0  0  0  0  0  0  0  0  0  0  0
  -29.6941  -24.4824   18.4363 C   0  0  0  0  0  0  0  0  0  0  0  0
  -28.3012  -23.2596   19.9861 C   0  0  0  0  0  0  0  0  0  0  0  0
  -20.8077  -20.5995   21.1547 C   0  0  0  0  0  0  0  0  0  0  0  0
  -32.0978  -23.7101   20.6835 C   0  0  0  0  0  0  0  0  0  0  0  0
  -33.4063  -24.1617   20.8550 C   0  0  0  0  0  0  0  0  0  0  0  0
  -23.0133  -20.2404   22.0633 C   0  0  0  0  0  0  0  0  0  0  0  0
  -34.0717  -22.9973   18.8455 C   0  0  0  0  0  0  0  0  0  0  0  0
  -19.9678  -27.9563   23.5116 C   0  0  0  0  0  0  0  0  0  0  0  0
  -27.4942  -25.3099   18.9953 C   0  0  0  0  0  0  0  0  0  0  0  0
  -25.4110  -26.3019   17.9070 C   0  0  0  0  0  0  0  0  0  0  0  0
  -21.6218  -11.0478   23.0512 C   0  0  0  0  0  0  0  0  0  0  0  0
  -21.9565  -18.4978   20.7570 C   0  0  0  0  0  0  0  0  0  0  0  0
  -21.0622  -12.3302   22.8937 C   0  0  0  0  0  0  0  0  0  0  0  0
  -23.0583  -18.9600   21.4909 C   0  0  0  0  0  0  0  0  0  0  0  0
  -19.1673  -28.7195   22.6907 C   0  0  0  0  0  0  0  0  0  0  0  0
  -18.3009  -27.8344   22.0028 C   0  0  0  0  0  0  0  0  0  0  0  0
  -29.4988  -23.3913   19.2831 C   0  0  0  0  0  0  0  0  0  0  0  0
  -21.8933  -21.0547   21.8972 C   0  0  0  0  0  0  0  0  0  0  0  0
  -31.7763  -22.9019   19.5930 C   0  0  0  0  0  0  0  0  0  0  0  0
  -34.3933  -23.8054   19.9360 C   0  0  0  0  0  0  0  0  0  0  0  0
  -32.7632  -22.5455   18.6740 C   0  0  0  0  0  0  0  0  0  0  0  0
  -26.4586  -26.3008   18.8475 C   0  0  0  0  0  0  0  0  0  0  0  0
  -18.5984  -26.5572   22.4245 C   0  0  0  0  0  0  0  0  0  0  0  0
  -24.7061  -27.4487   18.1796 C   0  0  0  0  0  0  0  0  0  0  0  0
  -25.1027  -25.3511   16.8791 C   0  0  0  0  0  0  0  0  0  0  0  0
  -22.4540  -15.6594   22.0985 C   0  0  0  0  0  0  0  0  0  0  0  0
  -25.4256  -16.0251   20.8502 C   0  0  0  0  0  0  0  0  0  0  0  0
  -27.8543  -18.1411   19.7229 C   0  0  0  0  0  0  0  0  0  0  0  0
  -22.3573  -30.9688   21.8179 C   0  0  0  0  0  0  0  0  0  0  0  0
  -22.9624  -10.8429   23.7112 C   0  0  0  0  0  0  0  0  0  0  0  0
  -21.9867  -17.1394   20.1118 C   0  0  0  0  0  0  0  0  0  0  0  0
  -24.2893  -18.1153   21.6900 C   0  0  0  0  0  0  0  0  0  0  0  0
  -23.8097  -12.1110   23.7757 C   0  0  0  0  0  0  0  0  0  0  0  0
  -25.8331  -31.3756   21.1622 C   0  0  0  0  0  0  0  0  0  0  0  0
  -22.9722  -13.2884   24.2646 C   0  0  0  0  0  0  0  0  0  0  0  0
  -26.2202  -30.0895   20.4299 C   0  0  0  0  0  0  0  0  0  0  0  0
  -24.7923  -31.1149   22.2489 C   0  0  0  0  0  0  0  0  0  0  0  0
  -23.9700  -29.1198   21.0585 C   0  0  0  0  0  0  0  0  0  0  0  0
  -21.8136  -13.5784   23.3028 C   0  0  1  0  0  0  0  0  0  0  0  0
  -22.9637  -16.1800   20.7844 C   0  0  1  0  0  0  0  0  0  0  0  0
  -24.9758  -29.3408   19.9158 C   0  0  2  0  0  0  0  0  0  0  0  0
  -18.0042  -25.2611   22.0342 C   0  0  0  0  0  0  0  0  0  0  0  0
  -15.8381  -27.8337   21.4660 C   0  0  0  0  0  0  0  0  0  0  0  0
  -17.5324  -27.6163   19.6120 C   0  0  0  0  0  0  0  0  0  0  0  0
  -30.1884  -18.1482   18.8014 C   0  0  0  0  0  0  0  0  0  0  0  0
  -23.1323  -24.7629   21.5404 C   0  0  0  0  0  0  0  0  0  0  0  0
  -26.5286  -15.5024   23.6466 C   0  0  0  0  0  0  0  0  0  0  0  0
  -28.7191  -16.4439   22.8829 C   0  0  0  0  0  0  0  0  0  0  0  0
  -27.7993  -14.3936   21.7999 C   0  0  0  0  0  0  0  0  0  0  0  0
  -26.9729  -19.3828   17.1852 C   0  0  0  0  0  0  0  0  0  0  0  0
  -19.2132  -30.1895   22.5596 C   0  0  0  0  0  0  0  0  0  0  0  0
  -21.6413  -25.1059   23.5269 C   0  0  0  0  0  0  0  0  0  0  0  0
  -20.2538  -25.4844   24.0633 C   0  0  0  0  0  0  0  0  0  0  0  0
  -19.9466  -30.6863   21.3006 C   0  0  0  0  0  0  0  0  0  0  0  0
  -21.1034  -23.2948   21.7801 C   0  0  0  0  0  0  0  0  0  1  0  0
  -17.2681  -28.2092   21.0149 C   0  0  0  0  0  0  0  0  0  0  0  0
  -26.7208  -16.6320   21.3330 C   0  0  1  0  0  0  0  0  0  0  0  0
  -28.7053  -18.1193   18.4661 C   0  0  2  0  0  0  0  0  0  0  0  0
  -21.6834  -24.6917   22.0395 C   0  0  2  0  0  0  0  0  0  0  0  0
  -27.4181  -15.7584   22.4137 C   0  0  0  0  0  0  0  0  0  0  0  0
  -26.4260  -27.3629   19.6568 N   0  0  0  0  0  0  0  0  0  0  0  0
  -19.6129  -26.6435   23.3418 N   0  0  0  0  0  0  0  0  0  0  0  0
  -25.3494  -28.0420   19.2257 N   0  0  0  0  0  0  0  0  0  0  0  0
  -24.2682  -16.7921   21.0446 N   0  0  0  0  0  0  0  0  0  0  0  0
  -23.6374  -30.4037   21.6955 N   0  0  0  0  0  0  0  0  0  0  0  0
  -23.6049  -27.9975   17.6240 N   0  0  0  0  0  0  0  0  0  0  0  0
  -25.9304  -24.2291   16.7367 N   0  0  0  0  0  0  0  0  0  0  0  0
  -22.2915  -14.2876   22.1353 N   0  0  0  0  0  0  0  0  0  0  0  0
  -27.5298  -16.8682   20.1422 N   0  0  0  0  0  0  0  0  0  0  0  0
  -21.3190  -30.2328   21.2604 N   0  0  0  0  0  0  0  0  0  0  0  0
  -28.3941  -19.2982   17.6092 N   0  3  0  0  0  0  0  0  0  0  0  0
  -24.1318  -25.5007   16.0991 O   0  0  0  0  0  0  0  0  0  0  0  0
  -22.2266  -16.4439   23.0120 O   0  0  0  0  0  0  0  0  0  0  0  0
  -25.4412  -14.9144   20.3136 O   0  0  0  0  0  0  0  0  0  0  0  0
  -27.5146  -19.1830   20.2794 O   0  0  0  0  0  0  0  0  0  0  0  0
  -22.1555  -32.0519   22.3775 O   0  0  0  0  0  0  0  0  0  0  0  0
  -30.4766  -22.4549   19.4237 O   0  0  0  0  0  0  0  0  0  0  0  0
  -21.8642  -22.2949   22.4566 O   0  0  0  0  0  0  0  0  0  1  0  0
  -35.6494  -24.2405   20.1000 F   0  0  0  0  0  0  0  0  0  0  0  0
  -32.4600  -21.7704   17.6237 F   0  0  0  0  0  0  0  0  0  0  0  0
  1  2  1  0  0  0  0
  1  5  2  0  0  0  0
  2  6  2  0  0  0  0
  3  8  2  0  0  0  0
  3 16  1  0  0  0  0
  4  9  1  0  0  0  0
  4 16  2  0  0  0  0
  5 18  1  0  0  0  0
  6 20  1  0  0  0  0
  7 10  2  0  0  0  0
  7 19  1  0  0  0  0
  8 24  1  0  0  0  0
  9 24  2  0  0  0  0
 10 25  1  0  0  0  0
 11 12  2  0  0  0  0
 11 26  1  0  0  0  0
 12 27  1  0  0  0  0
 13 21  1  0  0  0  0
 13 25  2  0  0  0  0
 14 27  2  0  0  0  0
 14 28  1  0  0  0  0
 15 22  2  0  0  0  0
 15 69  1  0  0  0  0
 16 29  1  0  0  0  0
 17 29  1  0  0  0  0
 17 31  2  0  0  0  0
 17 32  1  0  0  0  0
 18 20  2  0  0  0  0
 18 37  1  0  0  0  0
 19 21  2  0  0  0  0
 19 38  1  0  0  0  0
 20 46  1  0  0  0  0
 21 39  1  0  0  0  0
 22 23  1  0  0  0  0
 22 58  1  0  0  0  0
 23 30  2  0  0  0  0
 23 63  1  0  0  0  0
 24 84  1  0  0  0  0
 25 85  1  0  0  0  0
 26 28  2  0  0  0  0
 26 84  1  0  0  0  0
 27 86  1  0  0  0  0
 28 87  1  0  0  0  0
 29 68  2  0  0  0  0
 30 49  1  0  0  0  0
 30 69  1  0  0  0  0
 31 70  1  0  0  0  0
 31 73  1  0  0  0  0
 32 74  1  0  0  0  0
 32 79  2  0  0  0  0
 33 47  1  0  0  0  0
 33 75  1  0  0  0  0
 33 80  2  0  0  0  0
 34 64  1  0  0  0  0
 34 71  1  0  0  0  0
 34 81  2  0  0  0  0
 35 65  1  0  0  0  0
 35 76  1  0  0  0  0
 35 82  2  0  0  0  0
 36 72  1  0  0  0  0
 36 77  1  0  0  0  0
 36 83  2  0  0  0  0
 37 40  1  0  0  0  0
 38 47  1  0  0  0  0
 39 71  1  0  0  0  0
 40 42  1  0  0  0  0
 41 43  1  0  0  0  0
 41 44  1  0  0  0  0
 42 46  1  0  0  0  0
 43 48  1  0  0  0  0
 44 72  1  0  0  0  0
 45 48  1  0  0  0  0
 45 72  1  0  0  0  0
 46 75  1  0  0  0  0
 47 71  1  0  0  0  0
 48 70  1  0  0  0  0
 50 63  1  0  0  0  0
 51 63  1  0  0  0  0
 52 65  1  0  0  0  0
 53 66  1  0  0  0  0
 54 67  1  0  0  0  0
 55 67  1  0  0  0  0
 56 67  1  0  0  0  0
 57 78  1  0  0  0  0
 58 61  1  0  0  0  0
 59 60  1  0  0  0  0
 59 66  1  0  0  0  0
 60 69  1  0  0  0  0
 61 77  1  0  0  0  0
 62 66  1  0  0  0  0
 62 85  1  0  0  0  0
 64 67  1  0  0  0  0
 64 76  1  0  0  0  0
 65 78  1  0  0  0  0
 68 70  1  0  0  0  0
M  CHG  1  78   1
M  ISO  4  36 100  62 101  77 100  85 101
M  END
> <Batch ID>
0094

> <Smiles>
CNC(C)C(=O)NC(C(=O)N1Cc2cc([101O:1][101CH2:1]C(C)CCn3cc(CC[100NH:0][100C:0](=O)N4CCCC(n5nc(-c6ccc(Oc7ccc(F)cc7F)cc6)c(C(N)=O)c5N)C4)c(C(C)C)c3C)ccc2CC1C(=O)NC1CCCc2ccccc21)C(C)(C)C

> <Shape>
0.203

> <Color>
0.060

> <Negative vol penalty>
0.000

$$$$

  -OEChem-04052319193D

 86 93  0     1  0  0  0  0  0999 V2000
  -27.4745  -34.5757   15.2427 C   0  0  0  0  0  0  0  0  0  0  0  0
  -26.4626  -33.8729   15.8888 C   0  0  0  0  0  0  0  0  0  0  0  0
  -23.8679   -9.7212   22.0727 C   0  0  0  0  0  0  0  0  0  0  0  0
  -22.1937  -10.1872   20.3943 C   0  0  0  0  0  0  0  0  0  0  0  0
  -28.6608  -33.9289   14.8986 C   0  0  0  0  0  0  0  0  0  0  0  0
  -26.6358  -32.5225   16.1901 C   0  0  0  0  0  0  0  0  0  0  0  0
  -25.1422  -31.3736   20.8905 C   0  0  0  0  0  0  0  0  0  0  0  0
  -23.4805   -8.3813   22.0872 C   0  0  0  0  0  0  0  0  0  0  0  0
  -21.8063   -8.8472   20.4087 C   0  0  0  0  0  0  0  0  0  0  0  0
  -23.7717  -31.2389   21.1081 C   0  0  0  0  0  0  0  0  0  0  0  0
  -22.6897   -4.9097   22.8264 C   0  0  0  0  0  0  0  0  0  0  0  0
  -22.5343   -4.2913   24.0670 C   0  0  0  0  0  0  0  0  0  0  0  0
  -23.9948  -28.8399   20.9896 C   0  0  0  0  0  0  0  0  0  0  0  0
  -20.8331   -5.9022   24.6570 C   0  0  0  0  0  0  0  0  0  0  0  0
  -23.2244  -10.6242   21.2263 C   0  0  0  0  0  0  0  0  0  0  0  0
  -24.6061  -12.6011   20.3957 C   0  0  0  0  0  0  0  0  0  0  0  0
  -28.8525  -32.5723   15.2045 C   0  0  0  0  0  0  0  0  0  0  0  0
  -25.9489  -30.2410   20.7097 C   0  0  0  0  0  0  0  0  0  0  0  0
  -27.8252  -31.8566   15.8485 C   0  0  0  0  0  0  0  0  0  0  0  0
  -25.3757  -28.9628   20.7724 C   0  0  0  0  0  0  0  0  0  0  0  0
  -22.4498   -7.9443   21.2552 C   0  0  0  0  0  0  0  0  0  0  0  0
  -23.1973  -29.9720   21.1548 C   0  0  0  0  0  0  0  0  0  0  0  0
  -21.9168   -6.0245   22.5011 C   0  0  0  0  0  0  0  0  0  0  0  0
  -21.6060   -4.7875   24.9822 C   0  0  0  0  0  0  0  0  0  0  0  0
  -20.9885   -6.5207   23.4164 C   0  0  0  0  0  0  0  0  0  0  0  0
  -23.6237  -12.0085   21.2114 C   0  0  0  0  0  0  0  0  0  0  0  0
  -24.6049  -13.9246   20.7631 C   0  0  0  0  0  0  0  0  0  0  0  0
  -25.4448  -12.0083   19.3952 C   0  0  0  0  0  0  0  0  0  0  0  0
  -27.7681  -29.1365   18.3487 C   0  0  0  0  0  0  0  0  0  0  0  0
  -28.5884  -26.8996   20.5499 C   0  0  0  0  0  0  0  0  0  0  0  0
  -27.7712  -25.1940   23.3906 C   0  0  0  0  0  0  0  0  0  0  0  0
  -22.1175  -18.5419   21.9689 C   0  0  0  0  0  0  0  0  0  0  0  0
  -30.1330  -31.9042   14.7704 C   0  0  0  0  0  0  0  0  0  0  0  0
  -27.4300  -30.4023   20.5026 C   0  0  0  0  0  0  0  0  0  0  0  0
  -26.2013  -27.7144   20.6046 C   0  0  0  0  0  0  0  0  0  0  0  0
  -30.3862  -30.5662   15.4603 C   0  0  0  0  0  0  0  0  0  0  0  0
  -22.4092  -16.2707   24.6575 C   0  0  0  0  0  0  0  0  0  0  0  0
  -29.1228  -29.7116   15.4476 C   0  0  0  0  0  0  0  0  0  0  0  0
  -22.8263  -14.9931   23.9304 C   0  0  0  0  0  0  0  0  0  0  0  0
  -21.3522  -17.0559   23.8788 C   0  0  0  0  0  0  0  0  0  0  0  0
  -22.1543  -16.0752   21.7534 C   0  0  0  0  0  0  0  0  0  0  0  0
  -27.9854  -30.3970   16.2145 C   0  0  1  0  0  0  0  0  0  0  0  0
  -28.0722  -29.1992   19.8188 C   0  0  1  0  0  0  0  0  0  0  0  0
  -23.2592  -15.2984   22.4860 C   0  0  2  0  0  0  0  0  0  0  0  0
  -28.6236  -23.4015   24.9262 C   0  0  0  0  0  0  0  0  0  0  0  0
  -23.4429  -20.9018   24.3241 C   0  0  0  0  0  0  0  0  0  0  0  0
  -17.9720  -25.1198   23.5242 C   0  0  0  0  0  0  0  0  0  0  0  0
  -27.8161  -24.7777   18.4977 C   0  0  0  0  0  0  0  0  0  0  0  0
  -27.7724  -23.0982   20.3540 C   0  0  0  0  0  0  0  0  0  0  0  0
  -29.8988  -24.2729   19.7871 C   0  0  0  0  0  0  0  0  0  0  0  0
  -24.0344  -23.3403   22.4362 C   0  0  0  0  0  0  0  0  0  0  0  0
  -23.1403  -23.8923   24.6960 C   0  0  0  0  0  0  0  0  0  0  0  0
  -20.1087  -19.6222   23.0655 C   0  0  0  0  0  0  0  0  0  0  0  0
  -27.8414  -27.0437   25.6999 C   0  0  0  0  0  0  0  0  0  0  0  0
  -20.3387  -24.1604   23.4496 C   0  0  0  0  0  0  0  0  0  0  0  0
  -21.6526  -24.0609   22.6645 C   0  0  0  0  0  0  0  0  0  0  0  0
  -19.8399  -28.5456   21.6705 C   0  0  0  0  0  0  0  0  0  0  0  0
  -22.0019  -20.9867   22.2654 C   0  0  0  0  0  0  0  0  0  0  0  0
  -21.3364  -28.5121   21.4026 C   0  0  0  0  0  0  0  0  0  1  0  0
  -19.2355  -27.1505   21.6979 C   0  0  0  0  0  0  0  0  0  0  0  0
  -28.0512  -25.5470   20.9511 C   0  0  1  0  0  0  0  0  0  0  0  0
  -28.5647  -24.8958   24.6500 C   0  0  2  0  0  0  0  0  0  0  0  0
  -22.3753  -21.7204   23.5715 C   0  0  2  0  0  0  0  0  0  0  0  0
  -19.2979  -25.0637   22.7768 C   0  0  2  0  0  0  0  0  0  0  0  0
  -28.3685  -24.4473   19.8987 C   0  0  0  0  0  0  0  0  0  0  0  0
  -22.7878  -23.2264   23.3442 C   0  0  0  0  0  0  0  0  0  0  0  0
  -23.0409  -12.8837   22.0351 N   0  0  0  0  0  0  0  0  0  0  0  0
  -23.6589  -14.0396   21.7388 N   0  0  0  0  0  0  0  0  0  0  0  0
  -27.6438  -27.9245   20.3982 N   0  0  0  0  0  0  0  0  0  0  0  0
  -21.7845  -17.2843   22.4933 N   0  0  0  0  0  0  0  0  0  0  0  0
  -25.3208  -14.9894   20.3436 N   0  0  0  0  0  0  0  0  0  0  0  0
  -25.3163  -10.6356   19.1433 N   0  0  0  0  0  0  0  0  0  0  0  0
  -28.1778  -30.2506   17.6413 N   0  0  0  0  0  0  0  0  0  0  0  0
  -28.5855  -25.2736   22.2808 N   0  0  0  0  0  0  0  0  0  0  0  0
  -21.4596  -19.6574   22.5085 N   0  0  0  0  0  0  0  0  0  0  0  0
  -27.9416  -25.5668   25.8258 N   0  3  0  0  0  0  0  0  0  0  0  0
  -26.2947  -12.6730   18.7554 O   0  0  0  0  0  0  0  0  0  0  0  0
  -27.2048  -28.1497   17.8898 O   0  0  0  0  0  0  0  0  0  0  0  0
  -29.8024  -27.0432   20.3844 O   0  0  0  0  0  0  0  0  0  0  0  0
  -26.5506  -25.3379   23.3908 O   0  0  0  0  0  0  0  0  0  0  0  0
  -22.9513  -18.6624   21.0621 O   0  0  0  0  0  0  0  0  0  0  0  0
  -22.0717   -6.6369   21.2688 O   0  0  0  0  0  0  0  0  0  0  0  0
  -21.8501  -29.8368   21.3678 O   0  0  0  0  0  0  0  0  0  1  0  0
  -19.8439  -26.3823   22.7237 O   0  0  0  0  0  0  0  0  0  0  0  0
  -21.4559   -4.1926   26.1729 F   0  0  0  0  0  0  0  0  0  0  0  0
  -20.2423   -7.5905   23.1091 F   0  0  0  0  0  0  0  0  0  0  0  0
  1  2  1  0  0  0  0
  1  5  2  0  0  0  0
  2  6  2  0  0  0  0
  3  8  2  0  0  0  0
  3 15  1  0  0  0  0
  4  9  1  0  0  0  0
  4 15  2  0  0  0  0
  5 17  1  0  0  0  0
  6 19  1  0  0  0  0
  7 10  2  0  0  0  0
  7 18  1  0  0  0  0
  8 21  1  0  0  0  0
  9 21  2  0  0  0  0
 10 22  1  0  0  0  0
 11 12  2  0  0  0  0
 11 23  1  0  0  0  0
 12 24  1  0  0  0  0
 13 20  1  0  0  0  0
 13 22  2  0  0  0  0
 14 24  2  0  0  0  0
 14 25  1  0  0  0  0
 15 26  1  0  0  0  0
 16 26  1  0  0  0  0
 16 27  2  0  0  0  0
 16 28  1  0  0  0  0
 17 19  2  0  0  0  0
 17 33  1  0  0  0  0
 18 20  2  0  0  0  0
 18 34  1  0  0  0  0
 19 42  1  0  0  0  0
 20 35  1  0  0  0  0
 21 82  1  0  0  0  0
 22 83  1  0  0  0  0
 23 25  2  0  0  0  0
 23 82  1  0  0  0  0
 24 85  1  0  0  0  0
 25 86  1  0  0  0  0
 26 67  2  0  0  0  0
 27 68  1  0  0  0  0
 27 71  1  0  0  0  0
 28 72  1  0  0  0  0
 28 77  2  0  0  0  0
 29 43  1  0  0  0  0
 29 73  1  0  0  0  0
 29 78  2  0  0  0  0
 30 61  1  0  0  0  0
 30 69  1  0  0  0  0
 30 79  2  0  0  0  0
 31 62  1  0  0  0  0
 31 74  1  0  0  0  0
 31 80  2  0  0  0  0
 32 70  1  0  0  0  0
 32 75  1  0  0  0  0
 32 81  2  0  0  0  0
 33 36  1  0  0  0  0
 34 43  1  0  0  0  0
 35 69  1  0  0  0  0
 36 38  1  0  0  0  0
 37 39  1  0  0  0  0
 37 40  1  0  0  0  0
 38 42  1  0  0  0  0
 39 44  1  0  0  0  0
 40 70  1  0  0  0  0
 41 44  1  0  0  0  0
 41 70  1  0  0  0  0
 42 73  1  0  0  0  0
 43 69  1  0  0  0  0
 44 68  1  0  0  0  0
 45 62  1  0  0  0  0
 46 63  1  0  0  0  0
 47 64  1  0  0  0  0
 48 65  1  0  0  0  0
 49 65  1  0  0  0  0
 50 65  1  0  0  0  0
 51 66  1  0  0  0  0
 52 66  1  0  0  0  0
 53 75  1  0  0  0  0
 54 76  1  0  0  0  0
 55 56  1  0  0  0  0
 55 64  1  0  0  0  0
 56 66  1  0  0  0  0
 57 59  1  0  0  0  0
 57 60  1  0  0  0  0
 58 63  1  0  0  0  0
 58 75  1  0  0  0  0
 59 83  1  0  0  0  0
 60 84  1  0  0  0  0
 61 65  1  0  0  0  0
 61 74  1  0  0  0  0
 62 76  1  0  0  0  0
 63 66  1  0  0  0  0
 64 84  1  0  0  0  0
 67 68  1  0  0  0  0
M  CHG  1  76   1
M  ISO  4  32 100  59 101  75 100  83 101
M  END
> <Batch ID>
0094

> <Smiles>
CNC(C)C(=O)NC(C(=O)N1Cc2cc([101O:1][101CH2:1]CCOC(C)CCC(C)(C)C(C)C[100N:0](C)[100C:0](=O)N3CCCC(n4nc(-c5ccc(Oc6ccc(F)cc6F)cc5)c(C(N)=O)c4N)C3)ccc2CC1C(=O)NC1CCCc2ccccc21)C(C)(C)C

> <Shape>
0.228

> <Color>
0.118

> <Negative vol penalty>
0.000

$$$$

  -OEChem-04052319193D

 85 93  0     1  0  0  0  0  0999 V2000
  -25.9491  -12.3143   19.8688 C   0  0  0  0  0  0  0  0  0  0  0  0
  -25.7630  -13.6917   19.8097 C   0  0  0  0  0  0  0  0  0  0  0  0
  -29.7483  -17.1638   20.9043 C   0  0  0  0  0  0  0  0  0  0  0  0
  -31.8019  -18.3167   20.3650 C   0  0  0  0  0  0  0  0  0  0  0  0
  -25.1674  -11.5427   20.7275 C   0  0  0  0  0  0  0  0  0  0  0  0
  -24.7942  -14.2982   20.6085 C   0  0  0  0  0  0  0  0  0  0  0  0
  -25.1021  -19.8370   23.2031 C   0  0  0  0  0  0  0  0  0  0  0  0
  -30.3581  -15.9429   20.6160 C   0  0  0  0  0  0  0  0  0  0  0  0
  -32.4117  -17.0958   20.0768 C   0  0  0  0  0  0  0  0  0  0  0  0
  -24.5834  -21.0768   22.8320 C   0  0  0  0  0  0  0  0  0  0  0  0
  -31.1674  -14.1510   17.8668 C   0  0  0  0  0  0  0  0  0  0  0  0
  -30.4514  -13.2361   17.0949 C   0  0  0  0  0  0  0  0  0  0  0  0
  -22.6849  -20.7073   24.2737 C   0  0  0  0  0  0  0  0  0  0  0  0
  -24.9534  -29.0890   19.0876 C   0  0  0  0  0  0  0  0  0  0  0  0
  -30.5502  -11.6348   18.9014 C   0  0  0  0  0  0  0  0  0  0  0  0
  -26.1854  -28.2995   20.7989 C   0  0  0  0  0  0  0  0  0  0  0  0
  -30.4702  -18.3508   20.7787 C   0  0  0  0  0  0  0  0  0  0  0  0
  -29.7989  -20.2694   22.3201 C   0  0  0  0  0  0  0  0  0  0  0  0
  -24.1951  -12.1412   21.5444 C   0  0  0  0  0  0  0  0  0  0  0  0
  -24.4095  -19.0169   24.1055 C   0  0  0  0  0  0  0  0  0  0  0  0
  -23.9978  -13.5337   21.4780 C   0  0  0  0  0  0  0  0  0  0  0  0
  -23.1982  -19.4587   24.6566 C   0  0  0  0  0  0  0  0  0  0  0  0
  -26.1889  -28.4890   19.4345 C   0  0  0  0  0  0  0  0  0  0  0  0
  -31.6897  -15.9088   20.2023 C   0  0  0  0  0  0  0  0  0  0  0  0
  -23.3732  -21.5108   23.3651 C   0  0  0  0  0  0  0  0  0  0  0  0
  -31.5750  -13.8079   19.1559 C   0  0  0  0  0  0  0  0  0  0  0  0
  -30.1427  -11.9780   17.6122 C   0  0  0  0  0  0  0  0  0  0  0  0
  -31.2663  -12.5498   19.6732 C   0  0  0  0  0  0  0  0  0  0  0  0
  -29.8407  -19.6124   21.0757 C   0  0  0  0  0  0  0  0  0  0  0  0
  -24.2325  -29.2481   20.2505 C   0  0  0  0  0  0  0  0  0  0  0  0
  -29.0899  -21.4204   22.0769 C   0  0  0  0  0  0  0  0  0  0  0  0
  -30.3516  -19.8747   23.5828 C   0  0  0  0  0  0  0  0  0  0  0  0
  -23.1050  -16.1220   23.9591 C   0  0  0  0  0  0  0  0  0  0  0  0
  -22.6370  -16.5988   27.1334 C   0  0  0  0  0  0  0  0  0  0  0  0
  -22.2815  -18.8084   29.7098 C   0  0  0  0  0  0  0  0  0  0  0  0
  -28.1244  -25.8567   19.0218 C   0  0  0  0  0  0  0  0  0  0  0  0
  -23.3420  -11.2600   22.4221 C   0  0  0  0  0  0  0  0  0  0  0  0
  -24.9957  -17.6940   24.5161 C   0  0  0  0  0  0  0  0  0  0  0  0
  -22.4258  -18.6248   25.6447 C   0  0  0  0  0  0  0  0  0  0  0  0
  -22.5935  -12.0259   23.5100 C   0  0  0  0  0  0  0  0  0  0  0  0
  -26.3899  -22.8360   18.0399 C   0  0  0  0  0  0  0  0  0  0  0  0
  -21.9300  -13.2696   22.9271 C   0  0  0  0  0  0  0  0  0  0  0  0
  -27.1379  -21.7778   18.8529 C   0  0  0  0  0  0  0  0  0  0  0  0
  -27.3398  -23.9173   17.5333 C   0  0  0  0  0  0  0  0  0  0  0  0
  -28.8851  -23.5307   19.4137 C   0  0  0  0  0  0  0  0  0  0  0  0
  -22.9740  -14.2313   22.3470 C   0  0  1  0  0  0  0  0  0  0  0  0
  -23.9516  -16.7173   25.0484 C   0  0  1  0  0  0  0  0  0  0  0  0
  -27.9763  -22.4212   19.9733 C   0  0  2  0  0  0  0  0  0  0  0  0
  -21.7747  -29.0250   19.7374 C   0  0  0  0  0  0  0  0  0  0  0  0
  -22.7935  -31.3086   20.0569 C   0  0  0  0  0  0  0  0  0  0  0  0
  -21.8732  -18.9002   32.1841 C   0  0  0  0  0  0  0  0  0  0  0  0
  -19.6916  -15.9516   26.6689 C   0  0  0  0  0  0  0  0  0  0  0  0
  -19.1885  -16.9661   28.9018 C   0  0  0  0  0  0  0  0  0  0  0  0
  -20.6622  -14.9593   28.7492 C   0  0  0  0  0  0  0  0  0  0  0  0
  -24.8657  -20.1639   30.2031 C   0  0  0  0  0  0  0  0  0  0  0  0
  -27.2790  -28.1320   18.5067 C   0  0  0  0  0  0  0  0  0  0  0  0
  -24.1945  -26.2465   22.6612 C   0  0  0  0  0  0  0  0  0  0  0  0
  -23.6042  -27.6084   23.0326 C   0  0  0  0  0  0  0  0  0  0  0  0
  -23.2227  -25.1107   22.9945 C   0  0  0  0  0  0  0  0  0  0  0  0
  -24.5911  -28.7401   22.7373 C   0  0  0  0  0  0  0  0  0  0  0  0
  -23.7994  -23.7410   22.6576 C   0  0  0  0  0  0  0  0  0  1  0  0
  -22.8861  -29.8194   20.4607 C   0  0  0  0  0  0  0  0  0  0  0  0
  -21.5365  -17.2010   27.9732 C   0  0  1  0  0  0  0  0  0  0  0  0
  -22.9231  -18.8646   31.0844 C   0  0  2  0  0  0  0  0  0  0  0  0
  -20.2831  -16.2846   28.0532 C   0  0  0  0  0  0  0  0  0  0  0  0
  -29.2085  -20.2895   20.1136 N   0  0  0  0  0  0  0  0  0  0  0  0
  -24.9913  -28.7649   21.2843 N   0  0  0  0  0  0  0  0  0  0  0  0
  -28.7626  -21.3840   20.7534 N   0  0  0  0  0  0  0  0  0  0  0  0
  -23.0370  -17.3362   26.0100 N   0  0  0  0  0  0  0  0  0  0  0  0
  -28.0939  -24.5021   18.6511 N   0  0  0  0  0  0  0  0  0  0  0  0
  -28.7206  -22.4498   22.8683 N   0  0  0  0  0  0  0  0  0  0  0  0
  -31.0507  -18.6622   23.6564 N   0  0  0  0  0  0  0  0  0  0  0  0
  -23.6275  -14.9677   23.4078 N   0  0  0  0  0  0  0  0  0  0  0  0
  -22.1339  -17.5107   29.2676 N   0  0  0  0  0  0  0  0  0  0  0  0
  -27.3532  -26.7119   18.2443 N   0  0  0  0  0  0  0  0  0  0  0  0
  -23.7755  -20.0806   31.2089 N   0  3  0  0  0  0  0  0  0  0  0  0
  -30.2150  -20.5685   24.6189 O   0  0  0  0  0  0  0  0  0  0  0  0
  -22.0547  -16.6687   23.6433 O   0  0  0  0  0  0  0  0  0  0  0  0
  -23.1286  -15.5174   27.4660 O   0  0  0  0  0  0  0  0  0  0  0  0
  -21.9415  -19.8149   29.0917 O   0  0  0  0  0  0  0  0  0  0  0  0
  -28.7861  -26.2729   19.9789 O   0  0  0  0  0  0  0  0  0  0  0  0
  -32.2851  -14.7176   19.9212 O   0  0  0  0  0  0  0  0  0  0  0  0
  -22.8644  -22.7202   23.0041 O   0  0  0  0  0  0  0  0  0  1  0  0
  -29.4538  -11.1001   16.8715 F   0  0  0  0  0  0  0  0  0  0  0  0
  -31.6541  -12.2148   20.9114 F   0  0  0  0  0  0  0  0  0  0  0  0
  1  2  1  0  0  0  0
  1  5  2  0  0  0  0
  2  6  2  0  0  0  0
  3  8  2  0  0  0  0
  3 17  1  0  0  0  0
  4  9  1  0  0  0  0
  4 17  2  0  0  0  0
  5 19  1  0  0  0  0
  6 21  1  0  0  0  0
  7 10  2  0  0  0  0
  7 20  1  0  0  0  0
  8 24  1  0  0  0  0
  9 24  2  0  0  0  0
 10 25  1  0  0  0  0
 11 12  2  0  0  0  0
 11 26  1  0  0  0  0
 12 27  1  0  0  0  0
 13 22  1  0  0  0  0
 13 25  2  0  0  0  0
 14 23  1  0  0  0  0
 14 30  2  0  0  0  0
 15 27  2  0  0  0  0
 15 28  1  0  0  0  0
 16 23  2  0  0  0  0
 16 67  1  0  0  0  0
 17 29  1  0  0  0  0
 18 29  1  0  0  0  0
 18 31  2  0  0  0  0
 18 32  1  0  0  0  0
 19 21  2  0  0  0  0
 19 37  1  0  0  0  0
 20 22  2  0  0  0  0
 20 38  1  0  0  0  0
 21 46  1  0  0  0  0
 22 39  1  0  0  0  0
 23 56  1  0  0  0  0
 24 82  1  0  0  0  0
 25 83  1  0  0  0  0
 26 28  2  0  0  0  0
 26 82  1  0  0  0  0
 27 84  1  0  0  0  0
 28 85  1  0  0  0  0
 29 66  2  0  0  0  0
 30 62  1  0  0  0  0
 30 67  1  0  0  0  0
 31 68  1  0  0  0  0
 31 71  1  0  0  0  0
 32 72  1  0  0  0  0
 32 77  2  0  0  0  0
 33 47  1  0  0  0  0
 33 73  1  0  0  0  0
 33 78  2  0  0  0  0
 34 63  1  0  0  0  0
 34 69  1  0  0  0  0
 34 79  2  0  0  0  0
 35 64  1  0  0  0  0
 35 74  1  0  0  0  0
 35 80  2  0  0  0  0
 36 70  1  0  0  0  0
 36 75  1  0  0  0  0
 36 81  2  0  0  0  0
 37 40  1  0  0  0  0
 38 47  1  0  0  0  0
 39 69  1  0  0  0  0
 40 42  1  0  0  0  0
 41 43  1  0  0  0  0
 41 44  1  0  0  0  0
 42 46  1  0  0  0  0
 43 48  1  0  0  0  0
 44 70  1  0  0  0  0
 45 48  1  0  0  0  0
 45 70  1  0  0  0  0
 46 73  1  0  0  0  0
 47 69  1  0  0  0  0
 48 68  1  0  0  0  0
 49 62  1  0  0  0  0
 50 62  1  0  0  0  0
 51 64  1  0  0  0  0
 52 65  1  0  0  0  0
 53 65  1  0  0  0  0
 54 65  1  0  0  0  0
 55 76  1  0  0  0  0
 56 75  1  0  0  0  0
 57 58  1  0  0  0  0
 57 59  1  0  0  0  0
 58 60  1  0  0  0  0
 59 61  1  0  0  0  0
 60 67  1  0  0  0  0
 61 83  1  0  0  0  0
 63 65  1  0  0  0  0
 63 74  1  0  0  0  0
 64 76  1  0  0  0  0
 66 68  1  0  0  0  0
M  CHG  1  76   1
M  ISO  4  36 100  61 101  75 100  83 101
M  END
> <Batch ID>
0094

> <Smiles>
CNC(C)C(=O)NC(C(=O)N1Cc2cc([101O:1][101CH2:1]CCCCn3cc(C[100NH:0][100C:0](=O)N4CCCC(n5nc(-c6ccc(Oc7ccc(F)cc7F)cc6)c(C(N)=O)c5N)C4)cc3C(C)C)ccc2CC1C(=O)NC1CCCc2ccccc21)C(C)(C)C

> <Shape>
0.181

> <Color>
0.073

> <Negative vol penalty>
0.000

$$$$

  -OEChem-04052319193D

 83 91  0     1  0  0  0  0  0999 V2000
  -27.3437  -32.1582   27.6613 C   0  0  0  0  0  0  0  0  0  0  0  0
  -27.4964  -31.0584   26.8232 C   0  0  0  0  0  0  0  0  0  0  0  0
  -26.5631  -12.8760   21.5499 C   0  0  0  0  0  0  0  0  0  0  0  0
  -26.0540  -13.8020   19.3772 C   0  0  0  0  0  0  0  0  0  0  0  0
  -26.1028  -32.7847   27.7682 C   0  0  0  0  0  0  0  0  0  0  0  0
  -26.4079  -30.5837   26.0923 C   0  0  0  0  0  0  0  0  0  0  0  0
  -27.6019  -29.5459   21.2816 C   0  0  0  0  0  0  0  0  0  0  0  0
  -25.3026  -12.2802   21.5913 C   0  0  0  0  0  0  0  0  0  0  0  0
  -24.7936  -13.2060   19.4186 C   0  0  0  0  0  0  0  0  0  0  0  0
  -28.2779  -28.3514   21.0369 C   0  0  0  0  0  0  0  0  0  0  0  0
  -23.7932   -9.5516   20.2839 C   0  0  0  0  0  0  0  0  0  0  0  0
  -23.7172   -8.2241   20.7054 C   0  0  0  0  0  0  0  0  0  0  0  0
  -29.1460  -25.9019   16.9331 C   0  0  0  0  0  0  0  0  0  0  0  0
  -26.2042  -27.3243   20.3559 C   0  0  0  0  0  0  0  0  0  0  0  0
  -22.2792   -8.8859   22.5306 C   0  0  0  0  0  0  0  0  0  0  0  0
  -28.3760  -25.7779   15.7878 C   0  0  0  0  0  0  0  0  0  0  0  0
  -26.9388  -13.6370   20.4429 C   0  0  0  0  0  0  0  0  0  0  0  0
  -29.4273  -13.6981   19.8849 C   0  0  0  0  0  0  0  0  0  0  0  0
  -25.0009  -32.3234   27.0309 C   0  0  0  0  0  0  0  0  0  0  0  0
  -26.2178  -29.6356   21.0754 C   0  0  0  0  0  0  0  0  0  0  0  0
  -25.1507  -31.2038   26.1905 C   0  0  0  0  0  0  0  0  0  0  0  0
  -25.5133  -28.5218   20.5963 C   0  0  0  0  0  0  0  0  0  0  0  0
  -29.1451  -24.8441   17.8355 C   0  0  0  0  0  0  0  0  0  0  0  0
  -28.3851  -23.7107   17.5689 C   0  0  0  0  0  0  0  0  0  0  0  0
  -24.4179  -12.4451   20.5257 C   0  0  0  0  0  0  0  0  0  0  0  0
  -27.5786  -27.2395   20.5767 C   0  0  0  0  0  0  0  0  0  0  0  0
  -23.1122  -10.5462   20.9858 C   0  0  0  0  0  0  0  0  0  0  0  0
  -22.9602   -7.8913   21.8287 C   0  0  0  0  0  0  0  0  0  0  0  0
  -22.3552  -10.2134   22.1091 C   0  0  0  0  0  0  0  0  0  0  0  0
  -28.2405  -14.2533   20.3998 C   0  0  0  0  0  0  0  0  0  0  0  0
  -27.6490  -23.6849   16.3953 C   0  0  0  0  0  0  0  0  0  0  0  0
  -30.3746  -14.6737   20.0778 C   0  0  0  0  0  0  0  0  0  0  0  0
  -29.6531  -12.4152   19.2858 C   0  0  0  0  0  0  0  0  0  0  0  0
  -23.7068  -30.2265   22.9327 C   0  0  0  0  0  0  0  0  0  0  0  0
  -22.1031  -30.1847   20.1134 C   0  0  0  0  0  0  0  0  0  0  0  0
  -21.9692  -29.1258   16.8718 C   0  0  0  0  0  0  0  0  0  0  0  0
  -30.0429  -20.6261   20.6349 C   0  0  0  0  0  0  0  0  0  0  0  0
  -23.6677  -33.0041   27.2154 C   0  0  0  0  0  0  0  0  0  0  0  0
  -25.5077  -30.9390   21.3187 C   0  0  0  0  0  0  0  0  0  0  0  0
  -24.0301  -28.5720   20.3395 C   0  0  0  0  0  0  0  0  0  0  0  0
  -22.6567  -32.6700   26.1215 C   0  0  0  0  0  0  0  0  0  0  0  0
  -31.4471  -18.3325   22.9682 C   0  0  0  0  0  0  0  0  0  0  0  0
  -22.6343  -31.1681   25.8559 C   0  0  0  0  0  0  0  0  0  0  0  0
  -30.8916  -16.9768   22.5281 C   0  0  0  0  0  0  0  0  0  0  0  0
  -30.4228  -19.4496   22.7815 C   0  0  0  0  0  0  0  0  0  0  0  0
  -29.2990  -18.1927   20.9840 C   0  0  0  0  0  0  0  0  0  0  0  0
  -23.9998  -30.6746   25.3626 C   0  0  1  0  0  0  0  0  0  0  0  0
  -24.0119  -30.7678   21.5646 C   0  0  1  0  0  0  0  0  0  0  0  0
  -30.3150  -17.0437   21.1010 C   0  0  2  0  0  0  0  0  0  0  0  0
  -26.3406  -22.5149   14.6049 C   0  0  0  0  0  0  0  0  0  0  0  0
  -20.5169  -29.2190   14.8275 C   0  0  0  0  0  0  0  0  0  0  0  0
  -20.2302  -28.1192   21.3527 C   0  0  0  0  0  0  0  0  0  0  0  0
  -19.4315  -27.5621   19.0463 C   0  0  0  0  0  0  0  0  0  0  0  0
  -19.0917  -29.8577   19.9614 C   0  0  0  0  0  0  0  0  0  0  0  0
  -24.0667  -30.5030   15.3026 C   0  0  0  0  0  0  0  0  0  0  0  0
  -29.9744  -24.9502   19.0922 C   0  0  0  0  0  0  0  0  0  0  0  0
  -28.3651  -22.5606   18.5188 C   0  0  0  0  0  0  0  0  0  0  0  0
  -26.8134  -22.4943   16.0552 C   0  0  0  0  0  0  0  0  0  0  0  0
  -29.6053  -21.6641   18.4235 C   0  0  0  0  0  0  0  0  0  0  0  0
  -29.6009  -26.1666   19.9324 C   0  0  0  0  0  0  0  0  0  1  0  0
  -21.4157  -29.1223   19.2901 C   0  0  1  0  0  0  0  0  0  0  0  0
  -21.6675  -29.8668   15.5817 C   0  0  2  0  0  0  0  0  0  0  0  0
  -20.0699  -28.6635   19.9192 C   0  0  0  0  0  0  0  0  0  0  0  0
  -27.6249  -24.6928   15.4946 N   0  0  0  0  0  0  0  0  0  0  0  0
  -28.4154  -15.4859   20.8836 N   0  0  0  0  0  0  0  0  0  0  0  0
  -29.7232  -15.7133   20.6736 N   0  0  0  0  0  0  0  0  0  0  0  0
  -23.3797  -29.8672   20.5984 N   0  0  0  0  0  0  0  0  0  0  0  0
  -29.9165  -19.4595   21.4069 N   0  0  0  0  0  0  0  0  0  0  0  0
  -31.6931  -14.7351   19.7943 N   0  0  0  0  0  0  0  0  0  0  0  0
  -28.5698  -11.5342   19.1650 N   0  0  0  0  0  0  0  0  0  0  0  0
  -24.1839  -31.0093   23.9667 N   0  0  0  0  0  0  0  0  0  0  0  0
  -21.2903  -29.6676   17.9427 N   0  0  0  0  0  0  0  0  0  0  0  0
  -29.5427  -20.5482   19.3409 N   0  0  0  0  0  0  0  0  0  0  0  0
  -22.8658  -29.8733   14.6957 N   0  3  0  0  0  0  0  0  0  0  0  0
  -30.7856  -12.0544   18.8848 O   0  0  0  0  0  0  0  0  0  0  0  0
  -23.0833  -29.1772   23.0421 O   0  0  0  0  0  0  0  0  0  0  0  0
  -21.5315  -31.2595   20.3125 O   0  0  0  0  0  0  0  0  0  0  0  0
  -22.7281  -28.1605   16.9237 O   0  0  0  0  0  0  0  0  0  0  0  0
  -30.5677  -21.6588   21.0650 O   0  0  0  0  0  0  0  0  0  0  0  0
  -23.1879  -11.8636   20.5656 O   0  0  0  0  0  0  0  0  0  0  0  0
  -28.2359  -26.0722   20.3376 O   0  0  0  0  0  0  0  0  0  1  0  0
  -22.8862   -6.6162   22.2325 F   0  0  0  0  0  0  0  0  0  0  0  0
  -21.6978  -11.1644   22.7867 F   0  0  0  0  0  0  0  0  0  0  0  0
  1  2  1  0  0  0  0
  1  5  2  0  0  0  0
  2  6  2  0  0  0  0
  3  8  2  0  0  0  0
  3 17  1  0  0  0  0
  4  9  1  0  0  0  0
  4 17  2  0  0  0  0
  5 19  1  0  0  0  0
  6 21  1  0  0  0  0
  7 10  2  0  0  0  0
  7 20  1  0  0  0  0
  8 25  1  0  0  0  0
  9 25  2  0  0  0  0
 10 26  1  0  0  0  0
 11 12  2  0  0  0  0
 11 27  1  0  0  0  0
 12 28  1  0  0  0  0
 13 16  1  0  0  0  0
 13 23  2  0  0  0  0
 14 22  1  0  0  0  0
 14 26  2  0  0  0  0
 15 28  2  0  0  0  0
 15 29  1  0  0  0  0
 16 64  2  0  0  0  0
 17 30  1  0  0  0  0
 18 30  1  0  0  0  0
 18 32  2  0  0  0  0
 18 33  1  0  0  0  0
 19 21  2  0  0  0  0
 19 38  1  0  0  0  0
 20 22  2  0  0  0  0
 20 39  1  0  0  0  0
 21 47  1  0  0  0  0
 22 40  1  0  0  0  0
 23 24  1  0  0  0  0
 23 56  1  0  0  0  0
 24 31  2  0  0  0  0
 24 57  1  0  0  0  0
 25 80  1  0  0  0  0
 26 81  1  0  0  0  0
 27 29  2  0  0  0  0
 27 80  1  0  0  0  0
 28 82  1  0  0  0  0
 29 83  1  0  0  0  0
 30 65  2  0  0  0  0
 31 58  1  0  0  0  0
 31 64  1  0  0  0  0
 32 66  1  0  0  0  0
 32 69  1  0  0  0  0
 33 70  1  0  0  0  0
 33 75  2  0  0  0  0
 34 48  1  0  0  0  0
 34 71  1  0  0  0  0
 34 76  2  0  0  0  0
 35 61  1  0  0  0  0
 35 67  1  0  0  0  0
 35 77  2  0  0  0  0
 36 62  1  0  0  0  0
 36 72  1  0  0  0  0
 36 78  2  0  0  0  0
 37 68  1  0  0  0  0
 37 73  1  0  0  0  0
 37 79  2  0  0  0  0
 38 41  1  0  0  0  0
 39 48  1  0  0  0  0
 40 67  1  0  0  0  0
 41 43  1  0  0  0  0
 42 44  1  0  0  0  0
 42 45  1  0  0  0  0
 43 47  1  0  0  0  0
 44 49  1  0  0  0  0
 45 68  1  0  0  0  0
 46 49  1  0  0  0  0
 46 68  1  0  0  0  0
 47 71  1  0  0  0  0
 48 67  1  0  0  0  0
 49 66  1  0  0  0  0
 50 58  1  0  0  0  0
 51 62  1  0  0  0  0
 52 63  1  0  0  0  0
 53 63  1  0  0  0  0
 54 63  1  0  0  0  0
 55 74  1  0  0  0  0
 56 60  1  0  0  0  0
 57 59  1  0  0  0  0
 59 73  1  0  0  0  0
 60 81  1  0  0  0  0
 61 63  1  0  0  0  0
 61 72  1  0  0  0  0
 62 74  1  0  0  0  0
 65 66  1  0  0  0  0
M  CHG  1  74   1
M  ISO  4  37 100  60 101  73 100  81 101
M  END
> <Batch ID>
0094

> <Smiles>
CCc1nccc(C[101CH2:1][101O:1]c2ccc3c(c2)CN(C(=O)C(NC(=O)C(C)NC)C(C)(C)C)C(C(=O)NC2CCCc4ccccc42)C3)c1CC[100NH:0][100C:0](=O)N1CCCC(n2nc(-c3ccc(Oc4ccc(F)cc4F)cc3)c(C(N)=O)c2N)C1

> <Shape>
0.315

> <Color>
0.098

> <Negative vol penalty>
0.000

$$$$

  -OEChem-04052319193D

 82 90  0     1  0  0  0  0  0999 V2000
  -25.1225  -11.1575   20.2108 C   0  0  0  0  0  0  0  0  0  0  0  0
  -24.1345  -12.0903   19.9121 C   0  0  0  0  0  0  0  0  0  0  0  0
  -30.6549  -26.0251   20.7743 C   0  0  0  0  0  0  0  0  0  0  0  0
  -30.6007  -27.7496   22.4655 C   0  0  0  0  0  0  0  0  0  0  0  0
  -26.2470  -11.5438   20.9389 C   0  0  0  0  0  0  0  0  0  0  0  0
  -24.2700  -13.4098   20.3424 C   0  0  0  0  0  0  0  0  0  0  0  0
  -22.6715  -20.1125   18.3843 C   0  0  0  0  0  0  0  0  0  0  0  0
  -32.0444  -26.1303   20.7115 C   0  0  0  0  0  0  0  0  0  0  0  0
  -31.9902  -27.8548   22.4028 C   0  0  0  0  0  0  0  0  0  0  0  0
  -22.0542  -21.2608   18.8785 C   0  0  0  0  0  0  0  0  0  0  0  0
  -35.5541  -28.3241   22.9478 C   0  0  0  0  0  0  0  0  0  0  0  0
  -36.2553  -28.3895   24.1517 C   0  0  0  0  0  0  0  0  0  0  0  0
  -24.0775  -21.8321   20.0613 C   0  0  0  0  0  0  0  0  0  0  0  0
  -35.3742  -26.2300   24.7822 C   0  0  0  0  0  0  0  0  0  0  0  0
  -19.9357  -27.1146   23.2802 C   0  0  0  0  0  0  0  0  0  0  0  0
  -29.9331  -26.8348   21.6513 C   0  0  0  0  0  0  0  0  0  0  0  0
  -27.7458  -25.8818   22.5541 C   0  0  0  0  0  0  0  0  0  0  0  0
  -26.4009  -12.8708   21.3701 C   0  0  0  0  0  0  0  0  0  0  0  0
  -23.9951  -19.8093   18.7343 C   0  0  0  0  0  0  0  0  0  0  0  0
  -25.3970  -13.8138   21.0782 C   0  0  0  0  0  0  0  0  0  0  0  0
  -24.7101  -20.6807   19.5682 C   0  0  0  0  0  0  0  0  0  0  0  0
  -32.7120  -27.0451   21.5257 C   0  0  0  0  0  0  0  0  0  0  0  0
  -22.7562  -22.1193   19.7195 C   0  0  0  0  0  0  0  0  0  0  0  0
  -34.7628  -27.2117   22.6610 C   0  0  0  0  0  0  0  0  0  0  0  0
  -36.1654  -27.3424   25.0689 C   0  0  0  0  0  0  0  0  0  0  0  0
  -34.6729  -26.1646   23.5782 C   0  0  0  0  0  0  0  0  0  0  0  0
  -28.4977  -26.7270   21.7162 C   0  0  0  0  0  0  0  0  0  0  0  0
  -19.9642  -28.3953   22.8051 C   0  0  0  0  0  0  0  0  0  0  0  0
  -26.4385  -26.1558   22.2340 C   0  0  0  0  0  0  0  0  0  0  0  0
  -18.2402  -27.3610   21.8785 C   0  0  0  0  0  0  0  0  0  0  0  0
  -28.1893  -24.9339   23.5341 C   0  0  0  0  0  0  0  0  0  0  0  0
  -25.4165  -17.4207   20.2763 C   0  0  0  0  0  0  0  0  0  0  0  0
  -28.1226  -18.9646   19.3729 C   0  0  0  0  0  0  0  0  0  0  0  0
  -29.6144  -21.8858   18.4306 C   0  0  0  0  0  0  0  0  0  0  0  0
  -22.3640  -29.8003   21.1109 C   0  0  0  0  0  0  0  0  0  0  0  0
  -27.6113  -13.2303   22.1950 C   0  0  0  0  0  0  0  0  0  0  0  0
  -24.6553  -18.5806   18.1713 C   0  0  0  0  0  0  0  0  0  0  0  0
  -26.1398  -20.4110   19.9576 C   0  0  0  0  0  0  0  0  0  0  0  0
  -27.8579  -14.7337   22.2916 C   0  0  0  0  0  0  0  0  0  0  0  0
  -24.4745  -28.8268   18.4137 C   0  0  0  0  0  0  0  0  0  0  0  0
  -26.5602  -15.4680   22.6132 C   0  0  0  0  0  0  0  0  0  0  0  0
  -25.6496  -28.1300   19.1018 C   0  0  0  0  0  0  0  0  0  0  0  0
  -23.9635  -30.0112   19.2311 C   0  0  0  0  0  0  0  0  0  0  0  0
  -24.7953  -28.9991   21.3185 C   0  0  0  0  0  0  0  0  0  0  0  0
  -25.5197  -15.2602   21.5061 C   0  0  1  0  0  0  0  0  0  0  0  0
  -25.8395  -18.1029   19.0062 C   0  0  1  0  0  0  0  0  0  0  0  0
  -25.3091  -27.7640   20.5590 C   0  0  2  0  0  0  0  0  0  0  0  0
  -17.0354  -27.1012   21.0516 C   0  0  0  0  0  0  0  0  0  0  0  0
  -31.8453  -22.8427   17.7947 C   0  0  0  0  0  0  0  0  0  0  0  0
  -28.9669  -18.9384   22.3049 C   0  0  0  0  0  0  0  0  0  0  0  0
  -30.6698  -20.6903   21.7579 C   0  0  0  0  0  0  0  0  0  0  0  0
  -30.8066  -18.4424   20.6851 C   0  0  0  0  0  0  0  0  0  0  0  0
  -28.6465  -22.6590   15.7428 C   0  0  0  0  0  0  0  0  0  0  0  0
  -20.8774  -29.5085   23.0766 C   0  0  0  0  0  0  0  0  0  0  0  0
  -18.8630  -24.1072   21.8086 C   0  0  0  0  0  0  0  0  0  0  0  0
  -20.3680  -24.1271   21.5368 C   0  0  0  0  0  0  0  0  0  0  0  0
  -18.4423  -25.0677   22.9268 C   0  0  0  0  0  0  0  0  0  0  0  0
  -20.7431  -23.1883   20.3980 C   0  0  0  0  0  0  0  0  0  1  0  0
  -28.9870  -20.0469   19.9732 C   0  0  1  0  0  0  0  0  0  0  0  0
  -30.5580  -22.2118   17.2871 C   0  0  2  0  0  0  0  0  0  0  0  0
  -29.8300  -19.5339   21.1747 C   0  0  0  0  0  0  0  0  0  0  0  0
  -27.7319  -27.4812   20.9233 N   0  0  0  0  0  0  0  0  0  0  0  0
  -18.8587  -26.4977   22.6907 N   0  0  0  0  0  0  0  0  0  0  0  0
  -26.4851  -27.1109   21.2615 N   0  0  0  0  0  0  0  0  0  0  0  0
  -18.9041  -28.5198   21.9398 N   0  3  0  0  0  0  0  0  0  0  0  0
  -26.7394  -19.1936   19.3866 N   0  0  0  0  0  0  0  0  0  0  0  0
  -23.6574  -29.5966   20.6023 N   0  0  0  0  0  0  0  0  0  0  0  0
  -25.2651  -25.6704   22.6924 N   0  0  0  0  0  0  0  0  0  0  0  0
  -29.5673  -24.7775   23.7367 N   0  0  0  0  0  0  0  0  0  0  0  0
  -25.8186  -16.1018   20.3673 N   0  0  0  0  0  0  0  0  0  0  0  0
  -29.7798  -20.5914   18.8762 N   0  0  0  0  0  0  0  0  0  0  0  0
  -22.1568  -29.3728   22.4166 N   0  0  0  0  0  0  0  0  0  0  0  0
  -29.9121  -23.1611   16.3371 N   0  3  0  0  0  0  0  0  0  0  0  0
  -27.3878  -24.2342   24.1986 O   0  0  0  0  0  0  0  0  0  0  0  0
  -24.7744  -18.0451   21.1126 O   0  0  0  0  0  0  0  0  0  0  0  0
  -28.6554  -17.9563   18.9026 O   0  0  0  0  0  0  0  0  0  0  0  0
  -28.8133  -22.6993   18.8858 O   0  0  0  0  0  0  0  0  0  0  0  0
  -21.4594  -30.3196   20.4484 O   0  0  0  0  0  0  0  0  0  0  0  0
  -34.0679  -27.1479   21.4649 O   0  0  0  0  0  0  0  0  0  0  0  0
  -22.1559  -23.2404   20.2038 O   0  0  0  0  0  0  0  0  0  1  0  0
  -36.8400  -27.4047   26.2244 F   0  0  0  0  0  0  0  0  0  0  0  0
  -33.9154  -25.0928   23.3077 F   0  0  0  0  0  0  0  0  0  0  0  0
  1  2  1  0  0  0  0
  1  5  2  0  0  0  0
  2  6  2  0  0  0  0
  3  8  2  0  0  0  0
  3 16  1  0  0  0  0
  4  9  1  0  0  0  0
  4 16  2  0  0  0  0
  5 18  1  0  0  0  0
  6 20  1  0  0  0  0
  7 10  2  0  0  0  0
  7 19  1  0  0  0  0
  8 22  1  0  0  0  0
  9 22  2  0  0  0  0
 10 23  1  0  0  0  0
 11 12  2  0  0  0  0
 11 24  1  0  0  0  0
 12 25  1  0  0  0  0
 13 21  1  0  0  0  0
 13 23  2  0  0  0  0
 14 25  2  0  0  0  0
 14 26  1  0  0  0  0
 15 28  2  0  0  0  0
 15 63  1  0  0  0  0
 16 27  1  0  0  0  0
 17 27  1  0  0  0  0
 17 29  2  0  0  0  0
 17 31  1  0  0  0  0
 18 20  2  0  0  0  0
 18 36  1  0  0  0  0
 19 21  2  0  0  0  0
 19 37  1  0  0  0  0
 20 45  1  0  0  0  0
 21 38  1  0  0  0  0
 22 79  1  0  0  0  0
 23 80  1  0  0  0  0
 24 26  2  0  0  0  0
 24 79  1  0  0  0  0
 25 81  1  0  0  0  0
 26 82  1  0  0  0  0
 27 62  2  0  0  0  0
 28 54  1  0  0  0  0
 28 65  1  0  0  0  0
 29 64  1  0  0  0  0
 29 68  1  0  0  0  0
 30 48  1  0  0  0  0
 30 63  1  0  0  0  0
 30 65  2  0  0  0  0
 31 69  1  0  0  0  0
 31 74  2  0  0  0  0
 32 46  1  0  0  0  0
 32 70  1  0  0  0  0
 32 75  2  0  0  0  0
 33 59  1  0  0  0  0
 33 66  1  0  0  0  0
 33 76  2  0  0  0  0
 34 60  1  0  0  0  0
 34 71  1  0  0  0  0
 34 77  2  0  0  0  0
 35 67  1  0  0  0  0
 35 72  1  0  0  0  0
 35 78  2  0  0  0  0
 36 39  1  0  0  0  0
 37 46  1  0  0  0  0
 38 66  1  0  0  0  0
 39 41  1  0  0  0  0
 40 42  1  0  0  0  0
 40 43  1  0  0  0  0
 41 45  1  0  0  0  0
 42 47  1  0  0  0  0
 43 67  1  0  0  0  0
 44 47  1  0  0  0  0
 44 67  1  0  0  0  0
 45 70  1  0  0  0  0
 46 66  1  0  0  0  0
 47 64  1  0  0  0  0
 49 60  1  0  0  0  0
 50 61  1  0  0  0  0
 51 61  1  0  0  0  0
 52 61  1  0  0  0  0
 53 73  1  0  0  0  0
 54 72  1  0  0  0  0
 55 56  1  0  0  0  0
 55 57  1  0  0  0  0
 56 58  1  0  0  0  0
 57 63  1  0  0  0  0
 58 80  1  0  0  0  0
 59 61  1  0  0  0  0
 59 71  1  0  0  0  0
 60 73  1  0  0  0  0
 62 64  1  0  0  0  0
M  CHG  2  65   1  73   1
M  ISO  4  35 100  58 101  72 100  80 101
M  END
> <Batch ID>
0094

> <Smiles>
CNC(C)C(=O)NC(C(=O)N1Cc2cc([101O:1][101CH2:1]CCCn3cc(C[100NH:0][100C:0](=O)N4CCCC(n5nc(-c6ccc(Oc7ccc(F)cc7F)cc6)c(C(N)=O)c5N)C4)nc3C)ccc2CC1C(=O)NC1CCCc2ccccc21)C(C)(C)C

> <Shape>
0.208

> <Color>
0.079

> <Negative vol penalty>
0.000

$$$$

  -OEChem-04052319193D

 90 98  0     1  0  0  0  0  0999 V2000
  -26.2015  -21.7736   19.4723 C   0  0  0  0  0  0  0  0  0  0  0  0
  -26.7190  -21.3912   20.7057 C   0  0  0  0  0  0  0  0  0  0  0  0
  -23.2841   -9.8003   19.9154 C   0  0  0  0  0  0  0  0  0  0  0  0
  -23.7333   -9.9435   22.2849 C   0  0  0  0  0  0  0  0  0  0  0  0
  -26.8093  -22.8001   18.7506 C   0  0  0  0  0  0  0  0  0  0  0  0
  -27.8454  -22.0343   21.2177 C   0  0  0  0  0  0  0  0  0  0  0  0
  -27.3589  -23.1934   26.1232 C   0  0  0  0  0  0  0  0  0  0  0  0
  -22.5555   -8.6294   20.1242 C   0  0  0  0  0  0  0  0  0  0  0  0
  -23.0046   -8.7725   22.4938 C   0  0  0  0  0  0  0  0  0  0  0  0
  -27.5395  -22.1608   27.0424 C   0  0  0  0  0  0  0  0  0  0  0  0
  -23.2028   -5.3546   20.6547 C   0  0  0  0  0  0  0  0  0  0  0  0
  -23.4301   -4.2872   19.7861 C   0  0  0  0  0  0  0  0  0  0  0  0
  -29.7851  -22.9356   27.4624 C   0  0  0  0  0  0  0  0  0  0  0  0
  -30.3712  -19.2303   25.9192 C   0  0  0  0  0  0  0  0  0  0  0  0
  -30.3563  -16.8673   26.4221 C   0  0  0  0  0  0  0  0  0  0  0  0
  -21.1086   -4.3362   19.1186 C   0  0  0  0  0  0  0  0  0  0  0  0
  -23.8731  -10.4573   20.9957 C   0  0  0  0  0  0  0  0  0  0  0  0
  -24.1371  -12.9866   20.7938 C   0  0  0  0  0  0  0  0  0  0  0  0
  -27.9380  -23.4626   19.2584 C   0  0  0  0  0  0  0  0  0  0  0  0
  -28.3955  -24.0998   25.8582 C   0  0  0  0  0  0  0  0  0  0  0  0
  -28.4697  -23.0697   20.5015 C   0  0  0  0  0  0  0  0  0  0  0  0
  -29.6142  -23.9804   26.5413 C   0  0  0  0  0  0  0  0  0  0  0  0
  -30.3754  -18.1939   26.8527 C   0  0  0  0  0  0  0  0  0  0  0  0
  -30.3478  -18.9400   24.5550 C   0  0  0  0  0  0  0  0  0  0  0  0
  -30.3329  -16.5770   25.0580 C   0  0  0  0  0  0  0  0  0  0  0  0
  -30.3287  -17.6134   24.1244 C   0  0  0  0  0  0  0  0  0  0  0  0
  -22.4157   -8.1155   21.4134 C   0  0  0  0  0  0  0  0  0  0  0  0
  -28.7537  -22.0301   27.7100 C   0  0  0  0  0  0  0  0  0  0  0  0
  -21.9284   -5.9128   20.7554 C   0  0  0  0  0  0  0  0  0  0  0  0
  -22.3830   -3.7780   19.0180 C   0  0  0  0  0  0  0  0  0  0  0  0
  -20.8814   -5.4036   19.9873 C   0  0  0  0  0  0  0  0  0  0  0  0
  -24.6263  -11.6666   20.7806 C   0  0  0  0  0  0  0  0  0  0  0  0
  -25.2402  -13.7642   20.5385 C   0  0  0  0  0  0  0  0  0  0  0  0
  -22.8047  -13.4669   21.0168 C   0  0  0  0  0  0  0  0  0  0  0  0
  -30.0943  -24.8752   23.2860 C   0  0  0  0  0  0  0  0  0  0  0  0
  -31.2929  -27.1640   25.2473 C   0  0  0  0  0  0  0  0  0  0  0  0
  -31.9282  -28.2064   28.4342 C   0  0  0  0  0  0  0  0  0  0  0  0
  -31.1090  -12.9119   21.3640 C   0  0  0  0  0  0  0  0  0  0  0  0
  -28.5888  -24.5344   18.4203 C   0  0  0  0  0  0  0  0  0  0  0  0
  -28.1755  -25.2242   24.8836 C   0  0  0  0  0  0  0  0  0  0  0  0
  -30.7516  -24.9396   26.3076 C   0  0  0  0  0  0  0  0  0  0  0  0
  -29.5554  -25.4179   19.2047 C   0  0  0  0  0  0  0  0  0  0  0  0
  -29.4639  -13.6499   18.2939 C   0  0  0  0  0  0  0  0  0  0  0  0
  -30.4764  -24.5640   20.0705 C   0  0  0  0  0  0  0  0  0  0  0  0
  -27.9934  -13.3444   18.5843 C   0  0  0  0  0  0  0  0  0  0  0  0
  -30.3948  -12.6698   19.0044 C   0  0  0  0  0  0  0  0  0  0  0  0
  -28.7061  -12.2459   20.7486 C   0  0  0  0  0  0  0  0  0  0  0  0
  -29.6753  -23.7600   21.1016 C   0  0  1  0  0  0  0  0  0  0  0  0
  -29.4752  -25.7820   24.3117 C   0  0  1  0  0  0  0  0  0  0  0  0
  -27.7304  -13.2419   20.0987 C   0  0  2  0  0  0  0  0  0  0  0  0
  -30.3450  -20.0682   23.5757 C   0  0  0  0  0  0  0  0  0  0  0  0
  -32.9520  -30.1033   29.7192 C   0  0  0  0  0  0  0  0  0  0  0  0
  -32.8818  -19.5474   19.8682 C   0  0  0  0  0  0  0  0  0  0  0  0
  -34.0456  -17.3635   20.2984 C   0  0  0  0  0  0  0  0  0  0  0  0
  -34.0776  -26.1435   24.5303 C   0  0  0  0  0  0  0  0  0  0  0  0
  -34.9686  -27.3924   26.5089 C   0  0  0  0  0  0  0  0  0  0  0  0
  -33.8758  -28.6338   24.6415 C   0  0  0  0  0  0  0  0  0  0  0  0
  -29.3718  -28.8178   29.7943 C   0  0  0  0  0  0  0  0  0  0  0  0
  -30.3999  -18.5076   28.3274 C   0  0  0  0  0  0  0  0  0  0  0  0
  -30.3129  -15.1481   24.6228 C   0  0  0  0  0  0  0  0  0  0  0  0
  -30.3042  -17.3026   22.6617 C   0  0  0  0  0  0  0  0  0  0  0  0
  -29.0093  -18.6493   28.9501 C   0  0  0  0  0  0  0  0  0  0  0  0
  -31.6798  -14.6032   24.1671 C   0  0  0  0  0  0  0  0  0  0  0  0
  -31.6693  -13.1280   23.7720 C   0  0  0  0  0  0  0  0  0  0  0  0
  -31.5094  -17.4925   20.4823 C   0  0  0  0  0  0  0  0  0  0  0  0
  -28.2085  -19.8144   28.3804 C   0  0  0  0  0  0  0  0  0  1  0  0
  -32.4548  -27.2480   26.2075 C   0  0  1  0  0  0  0  0  0  0  0  0
  -31.6719  -29.5306   29.1309 C   0  0  2  0  0  0  0  0  0  0  0  0
  -32.7658  -18.0246   19.7837 C   0  0  0  0  0  0  0  0  0  0  0  0
  -33.8236  -27.3350   25.4752 C   0  0  0  0  0  0  0  0  0  0  0  0
  -25.9380  -11.6053   20.5362 N   0  0  0  0  0  0  0  0  0  0  0  0
  -26.2824  -12.8965   20.3933 N   0  0  0  0  0  0  0  0  0  0  0  0
  -30.4899  -26.0185   25.3406 N   0  0  0  0  0  0  0  0  0  0  0  0
  -30.0943  -12.6210   20.4373 N   0  0  0  0  0  0  0  0  0  0  0  0
  -25.4106  -15.0986   20.4263 N   0  0  0  0  0  0  0  0  0  0  0  0
  -21.7903  -12.5321   21.2648 N   0  0  0  0  0  0  0  0  0  0  0  0
  -29.2766  -24.6078   22.2046 N   0  0  0  0  0  0  0  0  0  0  0  0
  -32.1756  -28.3768   27.0885 N   0  0  0  0  0  0  0  0  0  0  0  0
  -30.7381  -12.8489   22.7017 N   0  0  0  0  0  0  0  0  0  0  0  0
  -30.6860  -29.3531   30.2342 N   0  3  0  0  0  0  0  0  0  0  0  0
  -31.4824  -17.8374   21.9282 N   0  3  0  0  0  0  0  0  0  0  0  0
  -22.5191  -14.6878   20.9806 O   0  0  0  0  0  0  0  0  0  0  0  0
  -31.2304  -24.4508   23.4618 O   0  0  0  0  0  0  0  0  0  0  0  0
  -31.1005  -28.0845   24.4489 O   0  0  0  0  0  0  0  0  0  0  0  0
  -31.9144  -27.1291   29.0255 O   0  0  0  0  0  0  0  0  0  0  0  0
  -32.2588  -13.2112   21.0244 O   0  0  0  0  0  0  0  0  0  0  0  0
  -21.7046   -6.9730   21.6176 O   0  0  0  0  0  0  0  0  0  0  0  0
  -28.9330  -21.0227   28.6072 O   0  0  0  0  0  0  0  0  0  1  0  0
  -22.6017   -2.7539   18.1828 F   0  0  0  0  0  0  0  0  0  0  0  0
  -19.6552   -5.9365   20.0787 F   0  0  0  0  0  0  0  0  0  0  0  0
  1  2  1  0  0  0  0
  1  5  2  0  0  0  0
  2  6  2  0  0  0  0
  3  8  2  0  0  0  0
  3 17  1  0  0  0  0
  4  9  1  0  0  0  0
  4 17  2  0  0  0  0
  5 19  1  0  0  0  0
  6 21  1  0  0  0  0
  7 10  2  0  0  0  0
  7 20  1  0  0  0  0
  8 27  1  0  0  0  0
  9 27  2  0  0  0  0
 10 28  1  0  0  0  0
 11 12  2  0  0  0  0
 11 29  1  0  0  0  0
 12 30  1  0  0  0  0
 13 22  1  0  0  0  0
 13 28  2  0  0  0  0
 14 23  1  0  0  0  0
 14 24  2  0  0  0  0
 15 23  2  0  0  0  0
 15 25  1  0  0  0  0
 16 30  2  0  0  0  0
 16 31  1  0  0  0  0
 17 32  1  0  0  0  0
 18 32  1  0  0  0  0
 18 33  2  0  0  0  0
 18 34  1  0  0  0  0
 19 21  2  0  0  0  0
 19 39  1  0  0  0  0
 20 22  2  0  0  0  0
 20 40  1  0  0  0  0
 21 48  1  0  0  0  0
 22 41  1  0  0  0  0
 23 59  1  0  0  0  0
 24 26  1  0  0  0  0
 24 51  1  0  0  0  0
 25 26  2  0  0  0  0
 25 60  1  0  0  0  0
 26 61  1  0  0  0  0
 27 87  1  0  0  0  0
 28 88  1  0  0  0  0
 29 31  2  0  0  0  0
 29 87  1  0  0  0  0
 30 89  1  0  0  0  0
 31 90  1  0  0  0  0
 32 71  2  0  0  0  0
 33 72  1  0  0  0  0
 33 75  1  0  0  0  0
 34 76  1  0  0  0  0
 34 82  2  0  0  0  0
 35 49  1  0  0  0  0
 35 77  1  0  0  0  0
 35 83  2  0  0  0  0
 36 67  1  0  0  0  0
 36 73  1  0  0  0  0
 36 84  2  0  0  0  0
 37 68  1  0  0  0  0
 37 78  1  0  0  0  0
 37 85  2  0  0  0  0
 38 74  1  0  0  0  0
 38 79  1  0  0  0  0
 38 86  2  0  0  0  0
 39 42  1  0  0  0  0
 40 49  1  0  0  0  0
 41 73  1  0  0  0  0
 42 44  1  0  0  0  0
 43 45  1  0  0  0  0
 43 46  1  0  0  0  0
 44 48  1  0  0  0  0
 45 50  1  0  0  0  0
 46 74  1  0  0  0  0
 47 50  1  0  0  0  0
 47 74  1  0  0  0  0
 48 77  1  0  0  0  0
 49 73  1  0  0  0  0
 50 72  1  0  0  0  0
 52 68  1  0  0  0  0
 53 69  1  0  0  0  0
 54 69  1  0  0  0  0
 55 70  1  0  0  0  0
 56 70  1  0  0  0  0
 57 70  1  0  0  0  0
 58 80  1  0  0  0  0
 59 62  1  0  0  0  0
 60 63  1  0  0  0  0
 61 81  1  0  0  0  0
 62 66  1  0  0  0  0
 63 64  1  0  0  0  0
 64 79  1  0  0  0  0
 65 69  1  0  0  0  0
 65 81  1  0  0  0  0
 66 88  1  0  0  0  0
 67 70  1  0  0  0  0
 67 78  1  0  0  0  0
 68 80  1  0  0  0  0
 71 72  1  0  0  0  0
M  CHG  2  80   1  81   1
M  ISO  4  38 100  66 101  79 100  88 101
M  END
> <Batch ID>
0094

> <Smiles>
CNC(C)C(=O)NC(C(=O)N1Cc2cc([101O:1][101CH2:1]CCc3cc(C)c(CNCC(C)C)c(CCC[100NH:0][100C:0](=O)N4CCCC(n5nc(-c6ccc(Oc7ccc(F)cc7F)cc6)c(C(N)=O)c5N)C4)c3)ccc2CC1C(=O)NC1CCCc2ccccc21)C(C)(C)C

> <Shape>
0.170

> <Color>
0.170

> <Negative vol penalty>
0.000

$$$$

  -OEChem-04052319193D

 88 96  0     1  0  0  0  0  0999 V2000
  -18.4386  -27.4521   22.7615 C   0  0  0  0  0  0  0  0  0  0  0  0
  -19.2636  -26.3901   23.1181 C   0  0  0  0  0  0  0  0  0  0  0  0
  -23.2778   -9.6719   19.9642 C   0  0  0  0  0  0  0  0  0  0  0  0
  -23.8339   -9.9218   22.3020 C   0  0  0  0  0  0  0  0  0  0  0  0
  -18.9984  -28.6515   22.3233 C   0  0  0  0  0  0  0  0  0  0  0  0
  -20.6488  -26.5266   23.0355 C   0  0  0  0  0  0  0  0  0  0  0  0
  -24.8222  -24.0331   26.7599 C   0  0  0  0  0  0  0  0  0  0  0  0
  -22.6005   -8.4870   20.2519 C   0  0  0  0  0  0  0  0  0  0  0  0
  -23.1565   -8.7369   22.5898 C   0  0  0  0  0  0  0  0  0  0  0  0
  -25.6192  -22.8947   26.6471 C   0  0  0  0  0  0  0  0  0  0  0  0
  -19.9545   -7.7363   22.9978 C   0  0  0  0  0  0  0  0  0  0  0  0
  -19.1039   -7.7300   24.1032 C   0  0  0  0  0  0  0  0  0  0  0  0
  -27.4333  -24.2539   25.8220 C   0  0  0  0  0  0  0  0  0  0  0  0
  -29.1044  -18.2161   22.5861 C   0  0  0  0  0  0  0  0  0  0  0  0
  -20.4138   -5.9619   25.1009 C   0  0  0  0  0  0  0  0  0  0  0  0
  -23.8946  -10.3893   20.9892 C   0  0  0  0  0  0  0  0  0  0  0  0
  -24.0621  -12.9159   20.6801 C   0  0  0  0  0  0  0  0  0  0  0  0
  -20.3914  -28.8060   22.2445 C   0  0  0  0  0  0  0  0  0  0  0  0
  -25.3221  -25.2910   26.3937 C   0  0  0  0  0  0  0  0  0  0  0  0
  -21.2277  -27.7287   22.5945 C   0  0  0  0  0  0  0  0  0  0  0  0
  -26.6416  -25.4070   25.9335 C   0  0  0  0  0  0  0  0  0  0  0  0
  -29.4497  -19.5142   22.9451 C   0  0  0  0  0  0  0  0  0  0  0  0
  -30.7076  -20.0086   22.6188 C   0  0  0  0  0  0  0  0  0  0  0  0
  -22.5398   -8.0195   21.5647 C   0  0  0  0  0  0  0  0  0  0  0  0
  -26.9240  -23.0046   26.1754 C   0  0  0  0  0  0  0  0  0  0  0  0
  -21.0347   -6.8554   22.9438 C   0  0  0  0  0  0  0  0  0  0  0  0
  -19.3336   -6.8428   25.1548 C   0  0  0  0  0  0  0  0  0  0  0  0
  -21.2643   -5.9682   23.9953 C   0  0  0  0  0  0  0  0  0  0  0  0
  -24.5950  -11.6130   20.6925 C   0  0  0  0  0  0  0  0  0  0  0  0
  -31.5770  -19.1714   21.9384 C   0  0  0  0  0  0  0  0  0  0  0  0
  -30.0455  -17.4591   21.9069 C   0  0  0  0  0  0  0  0  0  0  0  0
  -25.1245  -13.7183   20.3425 C   0  0  0  0  0  0  0  0  0  0  0  0
  -22.7261  -13.3612   20.9499 C   0  0  0  0  0  0  0  0  0  0  0  0
  -24.5383  -27.4688   24.2150 C   0  0  0  0  0  0  0  0  0  0  0  0
  -26.8213  -29.2210   25.7115 C   0  0  0  0  0  0  0  0  0  0  0  0
  -29.6334  -29.2696   27.6445 C   0  0  0  0  0  0  0  0  0  0  0  0
  -30.4651  -15.2044   20.8646 C   0  0  0  0  0  0  0  0  0  0  0  0
  -20.9492  -30.1054   21.7200 C   0  0  0  0  0  0  0  0  0  0  0  0
  -24.4585  -26.5130   26.5465 C   0  0  0  0  0  0  0  0  0  0  0  0
  -27.2324  -26.7373   25.5464 C   0  0  0  0  0  0  0  0  0  0  0  0
  -22.4343  -30.2951   22.0179 C   0  0  0  0  0  0  0  0  0  0  0  0
  -29.7373  -12.5288   18.6311 C   0  0  0  0  0  0  0  0  0  0  0  0
  -23.2119  -29.0257   21.6853 C   0  0  0  0  0  0  0  0  0  0  0  0
  -28.2907  -12.1592   18.9672 C   0  0  0  0  0  0  0  0  0  0  0  0
  -30.5260  -12.9245   19.8781 C   0  0  0  0  0  0  0  0  0  0  0  0
  -28.4593  -13.6033   21.0344 C   0  0  0  0  0  0  0  0  0  0  0  0
  -22.7356  -27.8465   22.5421 C   0  0  1  0  0  0  0  0  0  0  0  0
  -24.9009  -27.6722   25.6588 C   0  0  1  0  0  0  0  0  0  0  0  0
  -27.6071  -13.2602   19.8016 C   0  0  2  0  0  0  0  0  0  0  0  0
  -32.9424  -19.6475   21.5624 C   0  0  0  0  0  0  0  0  0  0  0  0
  -31.1397  -21.5852   24.5215 C   0  0  0  0  0  0  0  0  0  0  0  0
  -31.2915  -30.8492   28.6705 C   0  0  0  0  0  0  0  0  0  0  0  0
  -30.2829  -24.2505   18.8683 C   0  0  0  0  0  0  0  0  0  0  0  0
  -28.3022  -23.6700   20.2826 C   0  0  0  0  0  0  0  0  0  0  0  0
  -28.1283  -29.6177   22.9830 C   0  0  0  0  0  0  0  0  0  0  0  0
  -30.2100  -30.3517   24.1645 C   0  0  0  0  0  0  0  0  0  0  0  0
  -28.1002  -31.6555   24.4324 C   0  0  0  0  0  0  0  0  0  0  0  0
  -28.9547  -28.3849   30.3859 C   0  0  0  0  0  0  0  0  0  0  0  0
  -28.4469  -20.3627   23.6855 C   0  0  0  0  0  0  0  0  0  0  0  0
  -27.9886  -19.7565   25.0137 C   0  0  0  0  0  0  0  0  0  0  0  0
  -30.2115  -22.5027   22.3582 C   0  0  0  0  0  0  0  0  0  0  0  0
  -30.6297  -22.8426   20.9201 C   0  0  0  0  0  0  0  0  0  0  0  0
  -27.0414  -20.6599   25.7947 C   0  0  0  0  0  0  0  0  0  1  0  0
  -31.1057  -21.3975   22.9899 C   0  0  2  0  0  0  0  0  0  0  0  0
  -28.3118  -29.3970   25.5489 C   0  0  1  0  0  0  0  0  0  0  0  0
  -29.9955  -30.0804   28.8757 C   0  0  2  0  0  0  0  0  0  0  0  0
  -29.7997  -23.9800   20.2953 C   0  0  0  0  0  0  0  0  0  0  0  0
  -28.6761  -30.2300   24.2876 C   0  0  0  0  0  0  0  0  0  0  0  0
  -25.8949  -11.5847   20.3868 N   0  0  0  0  0  0  0  0  0  0  0  0
  -31.2773  -17.9048   21.5728 N   0  0  0  0  0  0  0  0  0  0  0  0
  -26.1877  -12.8798   20.1792 N   0  0  0  0  0  0  0  0  0  0  0  0
  -26.3463  -27.9019   25.7077 N   0  0  0  0  0  0  0  0  0  0  0  0
  -29.8201  -13.9744   20.6158 N   0  0  0  0  0  0  0  0  0  0  0  0
  -25.2436  -15.0522   20.1723 N   0  0  0  0  0  0  0  0  0  0  0  0
  -21.7572  -12.4044   21.2818 N   0  0  0  0  0  0  0  0  0  0  0  0
  -29.6841  -16.1375   21.5458 N   0  0  0  0  0  0  0  0  0  0  0  0
  -23.2832  -27.9390   23.8785 N   0  0  0  0  0  0  0  0  0  0  0  0
  -28.7945  -29.9677   26.8018 N   0  0  0  0  0  0  0  0  0  0  0  0
  -30.1621  -29.1847   30.0551 N   0  3  0  0  0  0  0  0  0  0  0  0
  -22.3974  -14.5698   20.8820 O   0  0  0  0  0  0  0  0  0  0  0  0
  -25.3384  -26.9268   23.4616 O   0  0  0  0  0  0  0  0  0  0  0  0
  -26.1057  -30.2170   25.8443 O   0  0  0  0  0  0  0  0  0  0  0  0
  -30.0557  -28.1322   27.4480 O   0  0  0  0  0  0  0  0  0  0  0  0
  -31.6152  -15.4243   20.4763 O   0  0  0  0  0  0  0  0  0  0  0  0
  -21.8787   -6.8635   21.8459 O   0  0  0  0  0  0  0  0  0  0  0  0
  -27.7038  -21.8949   26.0637 O   0  0  0  0  0  0  0  0  0  1  0  0
  -18.5176   -6.8378   26.2170 F   0  0  0  0  0  0  0  0  0  0  0  0
  -22.3011   -5.1204   23.9497 F   0  0  0  0  0  0  0  0  0  0  0  0
  1  2  1  0  0  0  0
  1  5  2  0  0  0  0
  2  6  2  0  0  0  0
  3  8  2  0  0  0  0
  3 16  1  0  0  0  0
  4  9  1  0  0  0  0
  4 16  2  0  0  0  0
  5 18  1  0  0  0  0
  6 20  1  0  0  0  0
  7 10  2  0  0  0  0
  7 19  1  0  0  0  0
  8 24  1  0  0  0  0
  9 24  2  0  0  0  0
 10 25  1  0  0  0  0
 11 12  2  0  0  0  0
 11 26  1  0  0  0  0
 12 27  1  0  0  0  0
 13 21  1  0  0  0  0
 13 25  2  0  0  0  0
 14 22  1  0  0  0  0
 14 31  2  0  0  0  0
 15 27  2  0  0  0  0
 15 28  1  0  0  0  0
 16 29  1  0  0  0  0
 17 29  1  0  0  0  0
 17 32  2  0  0  0  0
 17 33  1  0  0  0  0
 18 20  2  0  0  0  0
 18 38  1  0  0  0  0
 19 21  2  0  0  0  0
 19 39  1  0  0  0  0
 20 47  1  0  0  0  0
 21 40  1  0  0  0  0
 22 23  2  0  0  0  0
 22 59  1  0  0  0  0
 23 30  1  0  0  0  0
 23 64  1  0  0  0  0
 24 85  1  0  0  0  0
 25 86  1  0  0  0  0
 26 28  2  0  0  0  0
 26 85  1  0  0  0  0
 27 87  1  0  0  0  0
 28 88  1  0  0  0  0
 29 69  2  0  0  0  0
 30 50  1  0  0  0  0
 30 70  2  0  0  0  0
 31 70  1  0  0  0  0
 31 76  1  0  0  0  0
 32 71  1  0  0  0  0
 32 74  1  0  0  0  0
 33 75  1  0  0  0  0
 33 80  2  0  0  0  0
 34 48  1  0  0  0  0
 34 77  1  0  0  0  0
 34 81  2  0  0  0  0
 35 65  1  0  0  0  0
 35 72  1  0  0  0  0
 35 82  2  0  0  0  0
 36 66  1  0  0  0  0
 36 78  1  0  0  0  0
 36 83  2  0  0  0  0
 37 73  1  0  0  0  0
 37 76  1  0  0  0  0
 37 84  2  0  0  0  0
 38 41  1  0  0  0  0
 39 48  1  0  0  0  0
 40 72  1  0  0  0  0
 41 43  1  0  0  0  0
 42 44  1  0  0  0  0
 42 45  1  0  0  0  0
 43 47  1  0  0  0  0
 44 49  1  0  0  0  0
 45 73  1  0  0  0  0
 46 49  1  0  0  0  0
 46 73  1  0  0  0  0
 47 77  1  0  0  0  0
 48 72  1  0  0  0  0
 49 71  1  0  0  0  0
 51 64  1  0  0  0  0
 52 66  1  0  0  0  0
 53 67  1  0  0  0  0
 54 67  1  0  0  0  0
 55 68  1  0  0  0  0
 56 68  1  0  0  0  0
 57 68  1  0  0  0  0
 58 79  1  0  0  0  0
 59 60  1  0  0  0  0
 60 63  1  0  0  0  0
 61 62  1  0  0  0  0
 61 64  1  0  0  0  0
 62 67  1  0  0  0  0
 63 86  1  0  0  0  0
 65 68  1  0  0  0  0
 65 78  1  0  0  0  0
 66 79  1  0  0  0  0
 69 71  1  0  0  0  0
M  CHG  1  79   1
M  ISO  4  37 100  63 101  76 100  86 101
M  END
> <Batch ID>
0094

> <Smiles>
CNC(C)C(=O)NC(C(=O)N1Cc2cc([101O:1][101CH2:1]CCc3cc([100NH:0][100C:0](=O)N4CCCC(n5nc(-c6ccc(Oc7ccc(F)cc7F)cc6)c(C(N)=O)c5N)C4)nc(C)c3C(C)CCC(C)C)ccc2CC1C(=O)NC1CCCc2ccccc21)C(C)(C)C

> <Shape>
0.286

> <Color>
0.185

> <Negative vol penalty>
0.000

$$$$

  -OEChem-04052319193D

 89 97  0     1  0  0  0  0  0999 V2000
  -23.5250  -24.2366   19.3439 C   0  0  0  0  0  0  0  0  0  0  0  0
  -24.6288  -23.4576   19.6755 C   0  0  0  0  0  0  0  0  0  0  0  0
  -25.4738  -27.9983   20.3226 C   0  0  0  0  0  0  0  0  0  0  0  0
  -26.8404  -27.7340   22.2974 C   0  0  0  0  0  0  0  0  0  0  0  0
  -22.2450  -23.8208   19.7081 C   0  0  0  0  0  0  0  0  0  0  0  0
  -24.4534  -22.2627   20.3726 C   0  0  0  0  0  0  0  0  0  0  0  0
  -27.2061  -18.4709   18.4518 C   0  0  0  0  0  0  0  0  0  0  0  0
  -24.3672  -28.2747   21.1254 C   0  0  0  0  0  0  0  0  0  0  0  0
  -25.7338  -28.0105   23.1002 C   0  0  0  0  0  0  0  0  0  0  0  0
  -28.5641  -18.4468   18.7667 C   0  0  0  0  0  0  0  0  0  0  0  0
  -22.1398  -26.5363   22.9805 C   0  0  0  0  0  0  0  0  0  0  0  0
  -20.9358  -25.9084   22.6617 C   0  0  0  0  0  0  0  0  0  0  0  0
  -28.1354  -16.7848   20.4618 C   0  0  0  0  0  0  0  0  0  0  0  0
  -19.8946  -28.0655   22.3456 C   0  0  0  0  0  0  0  0  0  0  0  0
  -35.1895  -20.3778   20.5385 C   0  0  0  0  0  0  0  0  0  0  0  0
  -26.7104  -27.7279   20.9086 C   0  0  0  0  0  0  0  0  0  0  0  0
  -28.7811  -28.3659   19.5621 C   0  0  0  0  0  0  0  0  0  0  0  0
  -22.0529  -22.6154   20.4015 C   0  0  0  0  0  0  0  0  0  0  0  0
  -26.2995  -17.6587   19.1481 C   0  0  0  0  0  0  0  0  0  0  0  0
  -23.1698  -21.8310   20.7476 C   0  0  0  0  0  0  0  0  0  0  0  0
  -26.7668  -16.7986   20.1520 C   0  0  0  0  0  0  0  0  0  0  0  0
  -24.4971  -28.2808   22.5142 C   0  0  0  0  0  0  0  0  0  0  0  0
  -29.0285  -17.6059   19.7738 C   0  0  0  0  0  0  0  0  0  0  0  0
  -22.2212  -27.9289   22.9820 C   0  0  0  0  0  0  0  0  0  0  0  0
  -19.8132  -26.6730   22.3442 C   0  0  0  0  0  0  0  0  0  0  0  0
  -21.0986  -28.6934   22.6645 C   0  0  0  0  0  0  0  0  0  0  0  0
  -27.8538  -27.4418   20.0798 C   0  0  0  0  0  0  0  0  0  0  0  0
  -34.5361  -21.5295   20.8754 C   0  0  0  0  0  0  0  0  0  0  0  0
  -29.6677  -27.5985   18.8468 C   0  0  0  0  0  0  0  0  0  0  0  0
  -34.2180  -20.0626   22.5025 C   0  0  0  0  0  0  0  0  0  0  0  0
  -28.8361  -29.7905   19.7141 C   0  0  0  0  0  0  0  0  0  0  0  0
  -23.7743  -18.1947   21.0027 C   0  0  0  0  0  0  0  0  0  0  0  0
  -23.4910  -14.9654   20.8849 C   0  0  0  0  0  0  0  0  0  0  0  0
  -24.9972  -11.9405   20.4076 C   0  0  0  0  0  0  0  0  0  0  0  0
  -32.2492  -22.4197   19.0202 C   0  0  0  0  0  0  0  0  0  0  0  0
  -20.6545  -22.2308   20.8152 C   0  0  0  0  0  0  0  0  0  0  0  0
  -24.8417  -17.6767   18.7782 C   0  0  0  0  0  0  0  0  0  0  0  0
  -25.8374  -15.8921   20.9156 C   0  0  0  0  0  0  0  0  0  0  0  0
  -20.5214  -20.7661   21.2242 C   0  0  0  0  0  0  0  0  0  0  0  0
  -29.5300  -23.0904   16.8219 C   0  0  0  0  0  0  0  0  0  0  0  0
  -21.6538  -20.3699   22.1664 C   0  0  0  0  0  0  0  0  0  0  0  0
  -28.9068  -24.3668   17.3898 C   0  0  0  0  0  0  0  0  0  0  0  0
  -30.0394  -22.1702   17.9290 C   0  0  0  0  0  0  0  0  0  0  0  0
  -30.3404  -24.0823   19.4544 C   0  0  0  0  0  0  0  0  0  0  0  0
  -23.0180  -20.5163   21.4815 C   0  0  1  0  0  0  0  0  0  0  0  0
  -23.9341  -17.1849   19.9016 C   0  0  1  0  0  0  0  0  0  0  0  0
  -29.8625  -25.0676   18.3740 C   0  0  2  0  0  0  0  0  0  0  0  0
  -27.5002  -20.4132   23.0004 C   0  0  0  0  0  0  0  0  0  0  0  0
  -24.5160   -9.4776   20.4129 C   0  0  0  0  0  0  0  0  0  0  0  0
  -32.7801  -14.7535   20.2552 C   0  0  0  0  0  0  0  0  0  0  0  0
  -23.4450  -14.9834   23.9357 C   0  0  0  0  0  0  0  0  0  0  0  0
  -23.9207  -12.5258   23.8879 C   0  0  0  0  0  0  0  0  0  0  0  0
  -21.8174  -13.4071   22.8771 C   0  0  0  0  0  0  0  0  0  0  0  0
  -25.7676  -11.6661   17.5633 C   0  0  0  0  0  0  0  0  0  0  0  0
  -34.4101  -22.8110   20.1764 C   0  0  0  0  0  0  0  0  0  0  0  0
  -33.7547  -19.4505   23.7727 C   0  0  0  0  0  0  0  0  0  0  0  0
  -28.8715  -19.9458   22.5391 C   0  0  0  0  0  0  0  0  0  0  0  0
  -32.3809  -19.9815   24.2055 C   0  0  0  0  0  0  0  0  0  0  0  0
  -29.9429  -20.2295   23.5915 C   0  0  0  0  0  0  0  0  0  0  0  0
  -31.3149  -19.7275   23.1382 C   0  0  0  0  0  0  0  0  0  0  0  0
  -34.7160  -17.1338   20.7172 C   0  0  0  0  0  0  0  0  0  0  0  0
  -33.2366  -17.1121   21.1157 C   0  0  0  0  0  0  0  0  0  0  0  0
  -35.5159  -18.0812   21.6160 C   0  0  0  0  0  0  0  0  0  0  0  0
  -30.8814  -16.3513   20.5791 C   0  0  0  0  0  0  0  0  0  1  0  0
  -24.0208  -13.8151   21.7064 C   0  0  1  0  0  0  0  0  0  0  0  0
  -24.6012  -10.7393   19.5681 C   0  0  2  0  0  0  0  0  0  0  0  0
  -32.3643  -16.2246   20.2017 C   0  0  2  0  0  0  0  0  0  0  0  0
  -23.3185  -13.7012   23.0889 C   0  0  0  0  0  0  0  0  0  0  0  0
  -28.1260  -26.1836   19.7236 N   0  0  0  0  0  0  0  0  0  0  0  0
  -34.9762  -19.4876   21.5633 N   0  0  0  0  0  0  0  0  0  0  0  0
  -29.2343  -26.3116   18.9744 N   0  0  0  0  0  0  0  0  0  0  0  0
  -33.9438  -21.3060   22.0949 N   0  3  0  0  0  0  0  0  0  0  0  0
  -24.4201  -15.9506   20.5214 N   0  0  0  0  0  0  0  0  0  0  0  0
  -30.9418  -22.8953   18.8266 N   0  0  0  0  0  0  0  0  0  0  0  0
  -30.7679  -27.9058   18.1274 N   0  0  0  0  0  0  0  0  0  0  0  0
  -27.8465  -30.4191   20.4822 N   0  0  0  0  0  0  0  0  0  0  0  0
  -23.2552  -19.4053   20.5849 N   0  0  0  0  0  0  0  0  0  0  0  0
  -23.8941  -12.6251   20.8720 N   0  0  0  0  0  0  0  0  0  0  0  0
  -33.0407  -23.1696   19.8816 N   0  0  0  0  0  0  0  0  0  0  0  0
  -25.5990  -10.5130   18.4846 N   0  3  0  0  0  0  0  0  0  0  0  0
  -29.7267  -30.4872   19.1711 O   0  0  0  0  0  0  0  0  0  0  0  0
  -24.0965  -17.8970   22.1469 O   0  0  0  0  0  0  0  0  0  0  0  0
  -22.2982  -14.9855   20.5709 O   0  0  0  0  0  0  0  0  0  0  0  0
  -26.1680  -12.2392   20.6323 O   0  0  0  0  0  0  0  0  0  0  0  0
  -32.6810  -21.4052   18.4623 O   0  0  0  0  0  0  0  0  0  0  0  0
  -23.4175  -28.5507   23.2979 O   0  0  0  0  0  0  0  0  0  0  0  0
  -30.3534  -17.5809   20.0836 O   0  0  0  0  0  0  0  0  0  1  0  0
  -18.6575  -26.0698   22.0366 F   0  0  0  0  0  0  0  0  0  0  0  0
  -21.1710  -30.0315   22.6630 F   0  0  0  0  0  0  0  0  0  0  0  0
  1  2  1  0  0  0  0
  1  5  2  0  0  0  0
  2  6  2  0  0  0  0
  3  8  2  0  0  0  0
  3 16  1  0  0  0  0
  4  9  1  0  0  0  0
  4 16  2  0  0  0  0
  5 18  1  0  0  0  0
  6 20  1  0  0  0  0
  7 10  2  0  0  0  0
  7 19  1  0  0  0  0
  8 22  1  0  0  0  0
  9 22  2  0  0  0  0
 10 23  1  0  0  0  0
 11 12  2  0  0  0  0
 11 24  1  0  0  0  0
 12 25  1  0  0  0  0
 13 21  1  0  0  0  0
 13 23  2  0  0  0  0
 14 25  2  0  0  0  0
 14 26  1  0  0  0  0
 15 28  2  0  0  0  0
 15 70  1  0  0  0  0
 16 27  1  0  0  0  0
 17 27  1  0  0  0  0
 17 29  2  0  0  0  0
 17 31  1  0  0  0  0
 18 20  2  0  0  0  0
 18 36  1  0  0  0  0
 19 21  2  0  0  0  0
 19 37  1  0  0  0  0
 20 45  1  0  0  0  0
 21 38  1  0  0  0  0
 22 86  1  0  0  0  0
 23 87  1  0  0  0  0
 24 26  2  0  0  0  0
 24 86  1  0  0  0  0
 25 88  1  0  0  0  0
 26 89  1  0  0  0  0
 27 69  2  0  0  0  0
 28 55  1  0  0  0  0
 28 72  1  0  0  0  0
 29 71  1  0  0  0  0
 29 75  1  0  0  0  0
 30 56  1  0  0  0  0
 30 70  1  0  0  0  0
 30 72  2  0  0  0  0
 31 76  1  0  0  0  0
 31 81  2  0  0  0  0
 32 46  1  0  0  0  0
 32 77  1  0  0  0  0
 32 82  2  0  0  0  0
 33 65  1  0  0  0  0
 33 73  1  0  0  0  0
 33 83  2  0  0  0  0
 34 66  1  0  0  0  0
 34 78  1  0  0  0  0
 34 84  2  0  0  0  0
 35 74  1  0  0  0  0
 35 79  1  0  0  0  0
 35 85  2  0  0  0  0
 36 39  1  0  0  0  0
 37 46  1  0  0  0  0
 38 73  1  0  0  0  0
 39 41  1  0  0  0  0
 40 42  1  0  0  0  0
 40 43  1  0  0  0  0
 41 45  1  0  0  0  0
 42 47  1  0  0  0  0
 43 74  1  0  0  0  0
 44 47  1  0  0  0  0
 44 74  1  0  0  0  0
 45 77  1  0  0  0  0
 46 73  1  0  0  0  0
 47 71  1  0  0  0  0
 48 57  1  0  0  0  0
 49 66  1  0  0  0  0
 50 67  1  0  0  0  0
 51 68  1  0  0  0  0
 52 68  1  0  0  0  0
 53 68  1  0  0  0  0
 54 80  1  0  0  0  0
 55 79  1  0  0  0  0
 56 58  1  0  0  0  0
 57 59  1  0  0  0  0
 58 60  1  0  0  0  0
 59 60  1  0  0  0  0
 61 62  1  0  0  0  0
 61 63  1  0  0  0  0
 62 67  1  0  0  0  0
 63 70  1  0  0  0  0
 64 67  1  0  0  0  0
 64 87  1  0  0  0  0
 65 68  1  0  0  0  0
 65 78  1  0  0  0  0
 66 80  1  0  0  0  0
 69 71  1  0  0  0  0
M  CHG  2  72   1  80   1
M  ISO  4  35 100  64 101  79 100  87 101
M  END
> <Batch ID>
0094

> <Smiles>
CCCCCCc1nc(C[100NH:0][100C:0](=O)N2CCCC(n3nc(-c4ccc(Oc5ccc(F)cc5F)cc4)c(C(N)=O)c3N)C2)cn1CCCC(C)[101CH2:1][101O:1]c1ccc2c(c1)CN(C(=O)C(NC(=O)C(C)NC)C(C)(C)C)C(C(=O)NC1CCCc3ccccc31)C2

> <Shape>
0.202

> <Color>
0.076

> <Negative vol penalty>
0.000

$$$$

  -OEChem-04052319193D

 93102  0     1  0  0  0  0  0999 V2000
  -24.8523  -28.9946   20.2871 C   0  0  0  0  0  0  0  0  0  0  0  0
  -25.0222  -27.7215   19.7523 C   0  0  0  0  0  0  0  0  0  0  0  0
  -21.5670  -25.6663   24.6474 C   0  0  0  0  0  0  0  0  0  0  0  0
  -20.0205  -23.9791   23.8736 C   0  0  0  0  0  0  0  0  0  0  0  0
  -25.9657  -29.7525   20.6470 C   0  0  0  0  0  0  0  0  0  0  0  0
  -26.3058  -27.2061   19.5762 C   0  0  0  0  0  0  0  0  0  0  0  0
  -26.6994  -22.4009   21.1254 C   0  0  0  0  0  0  0  0  0  0  0  0
  -24.6314  -12.8444   20.3241 C   0  0  0  0  0  0  0  0  0  0  0  0
  -20.9101  -26.6232   23.8739 C   0  0  0  0  0  0  0  0  0  0  0  0
  -19.3635  -24.9361   23.1002 C   0  0  0  0  0  0  0  0  0  0  0  0
  -26.1953  -21.4154   20.2779 C   0  0  0  0  0  0  0  0  0  0  0  0
  -17.1156  -27.4125   23.5847 C   0  0  0  0  0  0  0  0  0  0  0  0
  -15.7212  -27.4248   23.6183 C   0  0  0  0  0  0  0  0  0  0  0  0
  -24.8771  -14.1279   20.7991 C   0  0  0  0  0  0  0  0  0  0  0  0
  -28.9554  -16.3005   21.7059 C   0  0  0  0  0  0  0  0  0  0  0  0
  -28.4294  -20.9567   19.4921 C   0  0  0  0  0  0  0  0  0  0  0  0
  -15.6603  -27.0205   21.2371 C   0  0  0  0  0  0  0  0  0  0  0  0
  -30.1313  -16.8141   21.1831 C   0  0  0  0  0  0  0  0  0  0  0  0
  -29.0595  -17.6018   19.3098 C   0  0  0  0  0  0  0  0  0  0  0  0
  -21.1223  -24.3442   24.6472 C   0  0  0  0  0  0  0  0  0  0  0  0
  -21.5205  -23.0004   26.7787 C   0  0  0  0  0  0  0  0  0  0  0  0
  -27.2634  -29.2423   20.4842 C   0  0  0  0  0  0  0  0  0  0  0  0
  -28.0734  -22.6798   21.1547 C   0  0  0  0  0  0  0  0  0  0  0  0
  -27.4378  -27.9585   19.9331 C   0  0  0  0  0  0  0  0  0  0  0  0
  -28.9488  -21.9446   20.3427 C   0  0  0  0  0  0  0  0  0  0  0  0
  -25.6974  -11.9959   20.0467 C   0  0  0  0  0  0  0  0  0  0  0  0
  -27.7889  -16.4631   20.9668 C   0  0  0  0  0  0  0  0  0  0  0  0
  -27.8334  -17.1249   19.7447 C   0  0  0  0  0  0  0  0  0  0  0  0
  -19.8083  -26.2582   23.1004 C   0  0  0  0  0  0  0  0  0  0  0  0
  -27.0599  -20.6951   19.4589 C   0  0  0  0  0  0  0  0  0  0  0  0
  -17.7824  -27.2044   22.3773 C   0  0  0  0  0  0  0  0  0  0  0  0
  -14.9936  -27.2287   22.4445 C   0  0  0  0  0  0  0  0  0  0  0  0
  -17.0548  -27.0083   21.2035 C   0  0  0  0  0  0  0  0  0  0  0  0
  -21.8009  -23.3551   25.4455 C   0  0  0  0  0  0  0  0  0  0  0  0
  -26.1963  -14.5116   20.9782 C   0  0  0  0  0  0  0  0  0  0  0  0
  -26.9799  -12.4752   20.2593 C   0  0  0  0  0  0  0  0  0  0  0  0
  -22.4385  -22.0223   27.0740 C   0  0  0  0  0  0  0  0  0  0  0  0
  -20.5198  -23.5094   27.6703 C   0  0  0  0  0  0  0  0  0  0  0  0
  -29.8598  -25.2267   20.5025 C   0  0  0  0  0  0  0  0  0  0  0  0
  -32.2497  -23.3613   21.6560 C   0  0  0  0  0  0  0  0  0  0  0  0
  -33.4260  -20.2204   22.2868 C   0  0  0  0  0  0  0  0  0  0  0  0
  -25.3216  -18.1712   23.6518 C   0  0  0  0  0  0  0  0  0  0  0  0
  -28.4379  -30.1175   20.8439 C   0  0  0  0  0  0  0  0  0  0  0  0
  -28.6046  -23.7276   22.0940 C   0  0  0  0  0  0  0  0  0  0  0  0
  -30.4345  -22.1914   20.3515 C   0  0  0  0  0  0  0  0  0  0  0  0
  -29.7515  -29.3508   20.9736 C   0  0  0  0  0  0  0  0  0  0  0  0
  -26.8427  -20.5478   25.9179 C   0  0  0  0  0  0  0  0  0  0  0  0
  -29.9339  -28.4008   19.7942 C   0  0  0  0  0  0  0  0  0  0  0  0
  -25.6799  -21.5074   26.1778 C   0  0  0  0  0  0  0  0  0  0  0  0
  -26.8488  -20.0661   24.4701 C   0  0  0  0  0  0  0  0  0  0  0  0
  -24.4125  -20.3880   24.2856 C   0  0  0  0  0  0  0  0  0  0  0  0
  -28.8134  -27.3550   19.7498 C   0  0  1  0  0  0  0  0  0  0  0  0
  -29.9601  -24.2816   21.6662 C   0  0  1  0  0  0  0  0  0  0  0  0
  -24.3377  -20.8933   25.7378 C   0  0  2  0  0  0  0  0  0  0  0  0
  -25.4405  -10.6202   19.5364 C   0  0  0  0  0  0  0  0  0  0  0  0
  -24.3456  -18.3836   17.2297 C   0  0  0  0  0  0  0  0  0  0  0  0
  -28.9949  -11.3267   21.2465 C   0  0  0  0  0  0  0  0  0  0  0  0
  -29.0674  -12.1834   18.8767 C   0  0  0  0  0  0  0  0  0  0  0  0
  -35.4276  -19.0130   23.1996 C   0  0  0  0  0  0  0  0  0  0  0  0
  -33.7599  -23.9087   19.0618 C   0  0  0  0  0  0  0  0  0  0  0  0
  -35.2551  -21.9757   19.6059 C   0  0  0  0  0  0  0  0  0  0  0  0
  -35.1758  -23.9545   21.1227 C   0  0  0  0  0  0  0  0  0  0  0  0
  -31.8399  -18.9984   24.4662 C   0  0  0  0  0  0  0  0  0  0  0  0
  -26.5968  -17.3303   18.9021 C   0  0  0  0  0  0  0  0  0  0  0  0
  -24.4291  -18.6204   18.7318 C   0  0  0  0  0  0  0  0  0  0  0  0
  -26.3759  -16.0066   23.0515 C   0  0  0  0  0  0  0  0  0  0  0  0
  -26.5052  -15.9221   21.5032 C   0  0  1  0  0  0  0  0  0  0  0  0
  -28.1632  -11.6071   19.9816 C   0  0  0  0  0  0  0  0  0  0  0  0
  -33.2116  -22.3641   21.0567 C   0  0  1  0  0  0  0  0  0  0  0  0
  -34.0685  -19.6146   23.5216 C   0  0  2  0  0  0  0  0  0  0  0  0
  -25.8768  -18.6439   19.2379 C   0  0  2  0  0  0  0  0  0  1  0  0
  -34.3224  -23.0472   20.2100 C   0  0  0  0  0  0  0  0  0  0  0  0
  -30.2137  -17.4629   19.9999 N   0  0  0  0  0  0  0  0  0  0  0  0
  -22.8175  -22.6591   24.9296 N   0  0  0  0  0  0  0  0  0  0  0  0
  -27.2579  -13.7155   20.7196 N   0  0  0  0  0  0  0  0  0  0  0  0
  -23.1841  -21.8573   25.9439 N   0  0  0  0  0  0  0  0  0  0  0  0
  -30.9047  -23.2306   21.2825 N   0  0  0  0  0  0  0  0  0  0  0  0
  -25.5490  -19.4757   24.1207 N   0  0  0  0  0  0  0  0  0  0  0  0
  -22.6726  -21.2960   28.1876 N   0  0  0  0  0  0  0  0  0  0  0  0
  -19.6588  -24.5129   27.2054 N   0  0  0  0  0  0  0  0  0  0  0  0
  -29.0481  -26.3207   20.7345 N   0  0  0  0  0  0  0  0  0  0  0  0
  -33.7146  -21.5635   22.1678 N   0  0  0  0  0  0  0  0  0  0  0  0
  -26.4514  -17.3736   23.5171 N   0  0  0  0  0  0  0  0  0  0  0  0
  -33.2006  -18.5412   24.0834 N   0  3  0  0  0  0  0  0  0  0  0  0
  -20.4035  -23.0985   28.8498 O   0  0  0  0  0  0  0  0  0  0  0  0
  -30.4745  -24.9824   19.4709 O   0  0  0  0  0  0  0  0  0  0  0  0
  -32.6750  -24.2201   22.4327 O   0  0  0  0  0  0  0  0  0  0  0  0
  -32.7401  -19.5667   21.5041 O   0  0  0  0  0  0  0  0  0  0  0  0
  -24.1938  -17.7464   23.3783 O   0  0  0  0  0  0  0  0  0  0  0  0
  -19.1668  -27.1917   22.3457 O   0  0  0  0  0  0  0  0  0  0  0  0
  -26.5704  -19.7330   18.6303 O   0  0  0  0  0  0  0  0  0  1  0  0
  -13.6546  -27.2389   22.4772 F   0  0  0  0  0  0  0  0  0  0  0  0
  -17.6897  -26.8066   20.0408 F   0  0  0  0  0  0  0  0  0  0  0  0
  1  2  1  0  0  0  0
  1  5  2  0  0  0  0
  2  6  2  0  0  0  0
  3  9  2  0  0  0  0
  3 20  1  0  0  0  0
  4 10  1  0  0  0  0
  4 20  2  0  0  0  0
  5 22  1  0  0  0  0
  6 24  1  0  0  0  0
  7 11  2  0  0  0  0
  7 23  1  0  0  0  0
  8 14  2  0  0  0  0
  8 26  1  0  0  0  0
  9 29  1  0  0  0  0
 10 29  2  0  0  0  0
 11 30  1  0  0  0  0
 12 13  2  0  0  0  0
 12 31  1  0  0  0  0
 13 32  1  0  0  0  0
 14 35  1  0  0  0  0
 15 18  2  0  0  0  0
 15 27  1  0  0  0  0
 16 25  1  0  0  0  0
 16 30  2  0  0  0  0
 17 32  2  0  0  0  0
 17 33  1  0  0  0  0
 18 73  1  0  0  0  0
 19 28  1  0  0  0  0
 19 73  2  0  0  0  0
 20 34  1  0  0  0  0
 21 34  1  0  0  0  0
 21 37  2  0  0  0  0
 21 38  1  0  0  0  0
 22 24  2  0  0  0  0
 22 43  1  0  0  0  0
 23 25  2  0  0  0  0
 23 44  1  0  0  0  0
 24 52  1  0  0  0  0
 25 45  1  0  0  0  0
 26 36  2  0  0  0  0
 26 55  1  0  0  0  0
 27 28  2  0  0  0  0
 27 67  1  0  0  0  0
 28 64  1  0  0  0  0
 29 90  1  0  0  0  0
 30 91  1  0  0  0  0
 31 33  2  0  0  0  0
 31 90  1  0  0  0  0
 32 92  1  0  0  0  0
 33 93  1  0  0  0  0
 34 74  2  0  0  0  0
 35 67  1  0  0  0  0
 35 75  2  0  0  0  0
 36 68  1  0  0  0  0
 36 75  1  0  0  0  0
 37 76  1  0  0  0  0
 37 79  1  0  0  0  0
 38 80  1  0  0  0  0
 38 85  2  0  0  0  0
 39 53  1  0  0  0  0
 39 81  1  0  0  0  0
 39 86  2  0  0  0  0
 40 69  1  0  0  0  0
 40 77  1  0  0  0  0
 40 87  2  0  0  0  0
 41 70  1  0  0  0  0
 41 82  1  0  0  0  0
 41 88  2  0  0  0  0
 42 78  1  0  0  0  0
 42 83  1  0  0  0  0
 42 89  2  0  0  0  0
 43 46  1  0  0  0  0
 44 53  1  0  0  0  0
 45 77  1  0  0  0  0
 46 48  1  0  0  0  0
 47 49  1  0  0  0  0
 47 50  1  0  0  0  0
 48 52  1  0  0  0  0
 49 54  1  0  0  0  0
 50 78  1  0  0  0  0
 51 54  1  0  0  0  0
 51 78  1  0  0  0  0
 52 81  1  0  0  0  0
 53 77  1  0  0  0  0
 54 76  1  0  0  0  0
 56 65  1  0  0  0  0
 57 68  1  0  0  0  0
 58 68  1  0  0  0  0
 59 70  1  0  0  0  0
 60 72  1  0  0  0  0
 61 72  1  0  0  0  0
 62 72  1  0  0  0  0
 63 84  1  0  0  0  0
 64 71  1  0  0  0  0
 65 71  1  0  0  0  0
 66 67  1  0  0  0  0
 66 83  1  0  0  0  0
 69 72  1  0  0  0  0
 69 82  1  0  0  0  0
 70 84  1  0  0  0  0
 71 91  1  0  0  0  0
 74 76  1  0  0  0  0
M  CHG  1  84   1
M  ISO  4  42 100  71 101  83 100  91 101
M  END
> <Batch ID>
0094

> <Smiles>
CC[101CH:1](Cc1cnccc1C(C[100NH:0][100C:0](=O)N1CCCC(n2nc(-c3ccc(Oc4ccc(F)cc4F)cc3)c(C(N)=O)c2N)C1)c1ccc(C)c(C(C)C)n1)[101O:1]c1ccc2c(c1)CN(C(=O)C(NC(=O)C(C)NC)C(C)(C)C)C(C(=O)NC1CCCc3ccccc31)C2

> <Shape>
0.209

> <Color>
0.056

> <Negative vol penalty>
0.000

$$$$

  -OEChem-04052319193D

 89 97  0     1  0  0  0  0  0999 V2000
  -15.8314  -26.7734   21.4911 C   0  0  0  0  0  0  0  0  0  0  0  0
  -16.5860  -26.3775   20.3914 C   0  0  0  0  0  0  0  0  0  0  0  0
  -24.1779  -13.6600   19.1950 C   0  0  0  0  0  0  0  0  0  0  0  0
  -23.7269  -14.9369   21.1958 C   0  0  0  0  0  0  0  0  0  0  0  0
  -16.4571  -27.3634   22.5885 C   0  0  0  0  0  0  0  0  0  0  0  0
  -17.9667  -26.5724   20.3881 C   0  0  0  0  0  0  0  0  0  0  0  0
  -24.0172  -23.6095   17.9530 C   0  0  0  0  0  0  0  0  0  0  0  0
  -23.4394  -12.5940   19.7088 C   0  0  0  0  0  0  0  0  0  0  0  0
  -22.9884  -13.8709   21.7096 C   0  0  0  0  0  0  0  0  0  0  0  0
  -25.1599  -23.9375   17.2247 C   0  0  0  0  0  0  0  0  0  0  0  0
  -23.8923  -10.0983   21.9428 C   0  0  0  0  0  0  0  0  0  0  0  0
  -24.4362   -8.8191   21.8277 C   0  0  0  0  0  0  0  0  0  0  0  0
  -26.1427  -24.8945   19.2090 C   0  0  0  0  0  0  0  0  0  0  0  0
  -30.7012  -26.4937   17.0091 C   0  0  0  0  0  0  0  0  0  0  0  0
  -22.5195   -8.1207   20.5332 C   0  0  0  0  0  0  0  0  0  0  0  0
  -24.3216  -14.8314   19.9385 C   0  0  0  0  0  0  0  0  0  0  0  0
  -24.6067  -16.9975   18.6215 C   0  0  0  0  0  0  0  0  0  0  0  0
  -17.8474  -27.5568   22.6026 C   0  0  0  0  0  0  0  0  0  0  0  0
  -23.9241  -23.9319   19.3146 C   0  0  0  0  0  0  0  0  0  0  0  0
  -18.6115  -27.1668   21.4861 C   0  0  0  0  0  0  0  0  0  0  0  0
  -24.9988  -24.5673   19.9529 C   0  0  0  0  0  0  0  0  0  0  0  0
  -31.0846  -27.1694   18.1623 C   0  0  0  0  0  0  0  0  0  0  0  0
  -30.3296  -25.1560   17.0849 C   0  0  0  0  0  0  0  0  0  0  0  0
  -22.8446  -12.6995   20.9661 C   0  0  0  0  0  0  0  0  0  0  0  0
  -26.2217  -24.5827   17.8519 C   0  0  0  0  0  0  0  0  0  0  0  0
  -22.6620  -10.3888   21.3532 C   0  0  0  0  0  0  0  0  0  0  0  0
  -23.7498   -7.8302   21.1229 C   0  0  0  0  0  0  0  0  0  0  0  0
  -21.9756   -9.4000   20.6483 C   0  0  0  0  0  0  0  0  0  0  0  0
  -25.0848  -15.9327   19.4086 C   0  0  0  0  0  0  0  0  0  0  0  0
  -31.0794  -26.4678   19.3571 C   0  0  0  0  0  0  0  0  0  0  0  0
  -30.3585  -24.5444   18.3279 C   0  0  0  0  0  0  0  0  0  0  0  0
  -25.7160  -17.7704   18.3793 C   0  0  0  0  0  0  0  0  0  0  0  0
  -23.2787  -17.2641   18.1515 C   0  0  0  0  0  0  0  0  0  0  0  0
  -22.0061  -25.7718   21.0580 C   0  0  0  0  0  0  0  0  0  0  0  0
  -23.6545  -24.4748   23.5324 C   0  0  0  0  0  0  0  0  0  0  0  0
  -26.5131  -22.9754   24.6402 C   0  0  0  0  0  0  0  0  0  0  0  0
  -30.3855  -20.2689   20.1395 C   0  0  0  0  0  0  0  0  0  0  0  0
  -18.4730  -28.2419   23.7917 C   0  0  0  0  0  0  0  0  0  0  0  0
  -22.6955  -23.5474   20.0925 C   0  0  0  0  0  0  0  0  0  0  0  0
  -24.9568  -24.9171   21.4173 C   0  0  0  0  0  0  0  0  0  0  0  0
  -19.9882  -28.0714   23.8654 C   0  0  0  0  0  0  0  0  0  0  0  0
  -30.6196  -16.8418   19.2032 C   0  0  0  0  0  0  0  0  0  0  0  0
  -20.6221  -28.3364   22.5035 C   0  0  0  0  0  0  0  0  0  0  0  0
  -29.1619  -16.3865   19.1145 C   0  0  0  0  0  0  0  0  0  0  0  0
  -30.8308  -17.8403   20.3392 C   0  0  0  0  0  0  0  0  0  0  0  0
  -28.4749  -18.5545   20.2220 C   0  0  0  0  0  0  0  0  0  0  0  0
  -20.1147  -27.3388   21.4553 C   0  0  1  0  0  0  0  0  0  0  0  0
  -22.5004  -24.3839   21.3532 C   0  0  1  0  0  0  0  0  0  0  0  0
  -28.2013  -17.5894   19.0558 C   0  0  2  0  0  0  0  0  0  0  0  0
  -31.4837  -28.6026   18.0878 C   0  0  0  0  0  0  0  0  0  0  0  0
  -31.0764  -24.3333   14.8365 C   0  0  0  0  0  0  0  0  0  0  0  0
  -33.0188  -27.0864   20.7966 C   0  0  0  0  0  0  0  0  0  0  0  0
  -27.5817  -22.0661   26.7208 C   0  0  0  0  0  0  0  0  0  0  0  0
  -29.2171  -26.7338   21.7463 C   0  0  0  0  0  0  0  0  0  0  0  0
  -31.1706  -27.2718   23.1975 C   0  0  0  0  0  0  0  0  0  0  0  0
  -24.2270  -27.3186   24.4784 C   0  0  0  0  0  0  0  0  0  0  0  0
  -26.0320  -26.3927   25.9457 C   0  0  0  0  0  0  0  0  0  0  0  0
  -23.6607  -25.7060   26.3041 C   0  0  0  0  0  0  0  0  0  0  0  0
  -26.7009  -20.2535   23.4936 C   0  0  0  0  0  0  0  0  0  0  0  0
  -29.9683  -23.1094   18.4686 C   0  0  0  0  0  0  0  0  0  0  0  0
  -28.6696  -25.0240   15.1498 C   0  0  0  0  0  0  0  0  0  0  0  0
  -29.7807  -22.6662   19.9235 C   0  0  0  0  0  0  0  0  0  0  0  0
  -27.3537  -24.5515   15.7606 C   0  0  0  0  0  0  0  0  0  1  0  0
  -29.9101  -24.4119   15.8289 C   0  0  2  0  0  0  0  0  0  0  0  0
  -31.4827  -27.1412   20.6279 C   0  0  2  0  0  0  0  0  0  0  0  0
  -24.9115  -24.8365   24.2863 C   0  0  1  0  0  0  0  0  0  0  0  0
  -26.7369  -21.7432   25.4981 C   0  0  2  0  0  0  0  0  0  0  0  0
  -30.7388  -26.5870   21.8948 C   0  0  0  0  0  0  0  0  0  0  0  0
  -24.7081  -26.0587   25.2256 C   0  0  0  0  0  0  0  0  0  0  0  0
  -26.3957  -16.0181   19.6502 N   0  0  0  0  0  0  0  0  0  0  0  0
  -30.7250  -25.1681   19.4700 N   0  0  0  0  0  0  0  0  0  0  0  0
  -26.7508  -17.1457   19.0111 N   0  0  0  0  0  0  0  0  0  0  0  0
  -23.7314  -24.5260   22.1334 N   0  0  0  0  0  0  0  0  0  0  0  0
  -29.8900  -18.9573   20.2243 N   0  0  0  0  0  0  0  0  0  0  0  0
  -25.8974  -18.9166   17.6896 N   0  0  0  0  0  0  0  0  0  0  0  0
  -22.2567  -16.3676   18.4924 N   0  0  0  0  0  0  0  0  0  0  0  0
  -20.7742  -26.0603   21.6135 N   0  0  0  0  0  0  0  0  0  0  0  0
  -25.3409  -23.6218   24.9707 N   0  0  0  0  0  0  0  0  0  0  0  0
  -29.4265  -21.2681   20.0265 N   0  0  0  0  0  0  0  0  0  0  0  0
  -27.4322  -20.6846   24.7128 N   0  3  0  0  0  0  0  0  0  0  0  0
  -23.0095  -18.2588   17.4363 O   0  0  0  0  0  0  0  0  0  0  0  0
  -22.6924  -26.5257   20.3780 O   0  0  0  0  0  0  0  0  0  0  0  0
  -22.6439  -24.1515   24.1616 O   0  0  0  0  0  0  0  0  0  0  0  0
  -27.3014  -23.3312   23.7670 O   0  0  0  0  0  0  0  0  0  0  0  0
  -31.5932  -20.5298   20.1573 O   0  0  0  0  0  0  0  0  0  0  0  0
  -22.1238  -11.6596   21.4677 O   0  0  0  0  0  0  0  0  0  0  0  0
  -27.3379  -24.9046   17.1432 O   0  0  0  0  0  0  0  0  0  1  0  0
  -24.2729   -6.6022   21.0111 F   0  0  0  0  0  0  0  0  0  0  0  0
  -20.7939   -9.6734   20.0787 F   0  0  0  0  0  0  0  0  0  0  0  0
  1  2  1  0  0  0  0
  1  5  2  0  0  0  0
  2  6  2  0  0  0  0
  3  8  2  0  0  0  0
  3 16  1  0  0  0  0
  4  9  1  0  0  0  0
  4 16  2  0  0  0  0
  5 18  1  0  0  0  0
  6 20  1  0  0  0  0
  7 10  2  0  0  0  0
  7 19  1  0  0  0  0
  8 24  1  0  0  0  0
  9 24  2  0  0  0  0
 10 25  1  0  0  0  0
 11 12  2  0  0  0  0
 11 26  1  0  0  0  0
 12 27  1  0  0  0  0
 13 21  1  0  0  0  0
 13 25  2  0  0  0  0
 14 22  2  0  0  0  0
 14 23  1  0  0  0  0
 15 27  2  0  0  0  0
 15 28  1  0  0  0  0
 16 29  1  0  0  0  0
 17 29  1  0  0  0  0
 17 32  2  0  0  0  0
 17 33  1  0  0  0  0
 18 20  2  0  0  0  0
 18 38  1  0  0  0  0
 19 21  2  0  0  0  0
 19 39  1  0  0  0  0
 20 47  1  0  0  0  0
 21 40  1  0  0  0  0
 22 30  1  0  0  0  0
 22 50  1  0  0  0  0
 23 31  2  0  0  0  0
 23 64  1  0  0  0  0
 24 86  1  0  0  0  0
 25 87  1  0  0  0  0
 26 28  2  0  0  0  0
 26 86  1  0  0  0  0
 27 88  1  0  0  0  0
 28 89  1  0  0  0  0
 29 70  2  0  0  0  0
 30 65  1  0  0  0  0
 30 71  2  0  0  0  0
 31 60  1  0  0  0  0
 31 71  1  0  0  0  0
 32 72  1  0  0  0  0
 32 75  1  0  0  0  0
 33 76  1  0  0  0  0
 33 81  2  0  0  0  0
 34 48  1  0  0  0  0
 34 77  1  0  0  0  0
 34 82  2  0  0  0  0
 35 66  1  0  0  0  0
 35 73  1  0  0  0  0
 35 83  2  0  0  0  0
 36 67  1  0  0  0  0
 36 78  1  0  0  0  0
 36 84  2  0  0  0  0
 37 74  1  0  0  0  0
 37 79  1  0  0  0  0
 37 85  2  0  0  0  0
 38 41  1  0  0  0  0
 39 48  1  0  0  0  0
 40 73  1  0  0  0  0
 41 43  1  0  0  0  0
 42 44  1  0  0  0  0
 42 45  1  0  0  0  0
 43 47  1  0  0  0  0
 44 49  1  0  0  0  0
 45 74  1  0  0  0  0
 46 49  1  0  0  0  0
 46 74  1  0  0  0  0
 47 77  1  0  0  0  0
 48 73  1  0  0  0  0
 49 72  1  0  0  0  0
 51 64  1  0  0  0  0
 52 65  1  0  0  0  0
 53 67  1  0  0  0  0
 54 68  1  0  0  0  0
 55 68  1  0  0  0  0
 56 69  1  0  0  0  0
 57 69  1  0  0  0  0
 58 69  1  0  0  0  0
 59 80  1  0  0  0  0
 60 62  1  0  0  0  0
 61 63  1  0  0  0  0
 61 64  1  0  0  0  0
 62 79  1  0  0  0  0
 63 87  1  0  0  0  0
 65 68  1  0  0  0  0
 66 69  1  0  0  0  0
 66 78  1  0  0  0  0
 67 80  1  0  0  0  0
 70 72  1  0  0  0  0
M  CHG  1  80   1
M  ISO  4  37 100  63 101  79 100  87 101
M  END
> <Batch ID>
0094

> <Smiles>
CNC(C)C(=O)NC(C(=O)N1Cc2cc([101O:1][101CH2:1]CC(C)c3cc(C)c(C(C)C(C)C)nc3CC[100NH:0][100C:0](=O)N3CCCC(n4nc(-c5ccc(Oc6ccc(F)cc6F)cc5)c(C(N)=O)c4N)C3)ccc2CC1C(=O)NC1CCCc2ccccc21)C(C)(C)C

> <Shape>
0.214

> <Color>
0.056

> <Negative vol penalty>
0.000

$$$$

  -OEChem-04052319193D

 87 95  0     1  0  0  0  0  0999 V2000
  -28.8653  -35.2391   24.4189 C   0  0  0  0  0  0  0  0  0  0  0  0
  -28.9311  -33.8971   24.0583 C   0  0  0  0  0  0  0  0  0  0  0  0
  -27.1382  -12.4912   21.4895 C   0  0  0  0  0  0  0  0  0  0  0  0
  -26.5382  -13.7413   19.5110 C   0  0  0  0  0  0  0  0  0  0  0  0
  -27.6503  -35.7931   24.8201 C   0  0  0  0  0  0  0  0  0  0  0  0
  -27.7821  -33.1080   24.0996 C   0  0  0  0  0  0  0  0  0  0  0  0
  -27.2749  -30.1978   19.9864 C   0  0  0  0  0  0  0  0  0  0  0  0
  -26.3497  -11.4257   21.0554 C   0  0  0  0  0  0  0  0  0  0  0  0
  -25.7497  -12.6757   19.0769 C   0  0  0  0  0  0  0  0  0  0  0  0
  -28.0559  -29.0447   19.9221 C   0  0  0  0  0  0  0  0  0  0  0  0
  -23.0681  -10.6185   20.9954 C   0  0  0  0  0  0  0  0  0  0  0  0
  -22.2312  -10.0096   21.9304 C   0  0  0  0  0  0  0  0  0  0  0  0
  -28.9449  -22.8215   16.3114 C   0  0  0  0  0  0  0  0  0  0  0  0
  -28.9858  -21.4054   16.3194 C   0  0  0  0  0  0  0  0  0  0  0  0
  -26.1621  -27.7299   20.6322 C   0  0  0  0  0  0  0  0  0  0  0  0
  -23.3693   -7.9074   21.5800 C   0  0  0  0  0  0  0  0  0  0  0  0
  -27.2324  -13.6491   20.7173 C   0  0  0  0  0  0  0  0  0  0  0  0
  -29.4095  -14.9676   20.8891 C   0  0  0  0  0  0  0  0  0  0  0  0
  -26.4840  -35.0129   24.8571 C   0  0  0  0  0  0  0  0  0  0  0  0
  -25.9324  -30.1270   20.3853 C   0  0  0  0  0  0  0  0  0  0  0  0
  -26.5507  -33.6518   24.5029 C   0  0  0  0  0  0  0  0  0  0  0  0
  -25.3656  -28.8833   20.6983 C   0  0  0  0  0  0  0  0  0  0  0  0
  -25.6555  -11.5179   19.8491 C   0  0  0  0  0  0  0  0  0  0  0  0
  -27.5003  -27.8108   20.2478 C   0  0  0  0  0  0  0  0  0  0  0  0
  -24.0556   -9.8720   20.3526 C   0  0  0  0  0  0  0  0  0  0  0  0
  -22.3818   -8.6540   22.2227 C   0  0  0  0  0  0  0  0  0  0  0  0
  -24.2062   -8.5164   20.6449 C   0  0  0  0  0  0  0  0  0  0  0  0
  -28.0463  -14.7504   21.1655 C   0  0  0  0  0  0  0  0  0  0  0  0
  -28.5134  -23.2276   17.5549 C   0  0  0  0  0  0  0  0  0  0  0  0
  -28.5780  -20.9892   17.5675 C   0  0  0  0  0  0  0  0  0  0  0  0
  -29.7088  -16.1404   21.5383 C   0  0  0  0  0  0  0  0  0  0  0  0
  -30.3234  -14.1798   20.1147 C   0  0  0  0  0  0  0  0  0  0  0  0
  -24.2422  -31.3264   22.7953 C   0  0  0  0  0  0  0  0  0  0  0  0
  -21.7475  -30.0253   21.1811 C   0  0  0  0  0  0  0  0  0  0  0  0
  -20.6414  -27.6944   18.9471 C   0  0  0  0  0  0  0  0  0  0  0  0
  -26.3851  -20.8198   23.2435 C   0  0  0  0  0  0  0  0  0  0  0  0
  -25.2033  -35.6443   25.3428 C   0  0  0  0  0  0  0  0  0  0  0  0
  -25.0962  -31.3766   20.4238 C   0  0  0  0  0  0  0  0  0  0  0  0
  -23.9237  -28.7507   21.1128 C   0  0  0  0  0  0  0  0  0  0  0  0
  -23.9562  -34.8333   25.0002 C   0  0  0  0  0  0  0  0  0  0  0  0
  -28.4107  -18.7606   25.3252 C   0  0  0  0  0  0  0  0  0  0  0  0
  -24.1693  -33.3600   25.3333 C   0  0  0  0  0  0  0  0  0  0  0  0
  -28.6700  -17.5190   24.4702 C   0  0  0  0  0  0  0  0  0  0  0  0
  -27.0029  -19.3110   25.1086 C   0  0  0  0  0  0  0  0  0  0  0  0
  -26.9118  -18.3376   22.8463 C   0  0  0  0  0  0  0  0  0  0  0  0
  -25.3212  -32.7696   24.5111 C   0  0  1  0  0  0  0  0  0  0  0  0
  -23.8813  -31.2546   21.3385 C   0  0  1  0  0  0  0  0  0  0  0  0
  -28.3380  -17.7791   22.9886 C   0  0  2  0  0  0  0  0  0  0  0  0
  -18.5447  -26.8492   17.8578 C   0  0  0  0  0  0  0  0  0  0  0  0
  -24.2781  -22.3619   21.3098 C   0  0  0  0  0  0  0  0  0  0  0  0
  -29.7229  -19.1223   18.7771 C   0  0  0  0  0  0  0  0  0  0  0  0
  -20.9880  -28.5884   23.7634 C   0  0  0  0  0  0  0  0  0  0  0  0
  -19.5247  -27.0746   22.4087 C   0  0  0  0  0  0  0  0  0  0  0  0
  -19.0543  -29.5232   22.4823 C   0  0  0  0  0  0  0  0  0  0  0  0
  -21.6315  -28.3796   16.2436 C   0  0  0  0  0  0  0  0  0  0  0  0
  -28.2896  -24.6181   18.0934 C   0  0  0  0  0  0  0  0  0  0  0  0
  -29.5251  -25.2265   18.7605 C   0  0  0  0  0  0  0  0  0  0  0  0
  -26.3171  -22.3167   19.8299 C   0  0  0  0  0  0  0  0  0  0  0  0
  -27.8306  -22.0996   19.6819 C   0  0  0  0  0  0  0  0  0  0  0  0
  -29.3147  -26.6630   19.2250 C   0  0  0  0  0  0  0  0  0  1  0  0
  -21.0549  -28.6839   21.1842 C   0  0  1  0  0  0  0  0  0  0  0  0
  -19.7199  -27.8080   17.7462 C   0  0  2  0  0  0  0  0  0  0  0  0
  -25.7957  -22.2077   21.2724 C   0  0  2  0  0  0  0  0  0  0  0  0
  -28.4373  -19.6222   18.1101 C   0  0  0  0  0  0  0  0  0  0  0  0
  -20.1832  -28.4699   22.4537 C   0  0  0  0  0  0  0  0  0  0  0  0
  -27.5163  -15.7082   21.9308 N   0  0  0  0  0  0  0  0  0  0  0  0
  -28.2931  -22.1053   18.3100 N   0  0  0  0  0  0  0  0  0  0  0  0
  -28.5518  -16.5387   22.1409 N   0  0  0  0  0  0  0  0  0  0  0  0
  -23.1488  -30.0022   21.1413 N   0  0  0  0  0  0  0  0  0  0  0  0
  -26.7522  -19.5372   23.6831 N   0  0  0  0  0  0  0  0  0  0  0  0
  -30.8461  -16.8596   21.6469 N   0  0  0  0  0  0  0  0  0  0  0  0
  -29.8508  -13.0040   19.5160 N   0  0  0  0  0  0  0  0  0  0  0  0
  -24.8870  -32.4934   23.1584 N   0  0  0  0  0  0  0  0  0  0  0  0
  -20.3138  -28.6043   19.9301 N   0  0  0  0  0  0  0  0  0  0  0  0
  -26.1724  -20.9492   21.8765 N   0  0  0  0  0  0  0  0  0  0  0  0
  -20.4626  -27.4970   16.4921 N   0  3  0  0  0  0  0  0  0  0  0  0
  -31.5278  -14.5002   19.9718 O   0  0  0  0  0  0  0  0  0  0  0  0
  -23.9555  -30.3927   23.5355 O   0  0  0  0  0  0  0  0  0  0  0  0
  -21.0698  -31.0558   21.2057 O   0  0  0  0  0  0  0  0  0  0  0  0
  -21.5577  -26.8777   19.0088 O   0  0  0  0  0  0  0  0  0  0  0  0
  -26.2617  -21.7799   24.0117 O   0  0  0  0  0  0  0  0  0  0  0  0
  -24.8862  -10.4782   19.4251 O   0  0  0  0  0  0  0  0  0  0  0  0
  -28.2605  -26.6838   20.1865 O   0  0  0  0  0  0  0  0  0  1  0  0
  -21.5790   -8.0697   23.1218 F   0  0  0  0  0  0  0  0  0  0  0  0
  -25.1539   -7.7943   20.0315 F   0  0  0  0  0  0  0  0  0  0  0  0
  -28.1022  -18.6843   17.1589 F   0  0  0  0  0  0  0  0  0  0  0  0
  -27.4388  -19.5038   19.0514 F   0  0  0  0  0  0  0  0  0  0  0  0
  1  2  1  0  0  0  0
  1  5  2  0  0  0  0
  2  6  2  0  0  0  0
  3  8  2  0  0  0  0
  3 17  1  0  0  0  0
  4  9  1  0  0  0  0
  4 17  2  0  0  0  0
  5 19  1  0  0  0  0
  6 21  1  0  0  0  0
  7 10  2  0  0  0  0
  7 20  1  0  0  0  0
  8 23  1  0  0  0  0
  9 23  2  0  0  0  0
 10 24  1  0  0  0  0
 11 12  2  0  0  0  0
 11 25  1  0  0  0  0
 12 26  1  0  0  0  0
 13 14  1  0  0  0  0
 13 29  2  0  0  0  0
 14 30  2  0  0  0  0
 15 22  1  0  0  0  0
 15 24  2  0  0  0  0
 16 26  2  0  0  0  0
 16 27  1  0  0  0  0
 17 28  1  0  0  0  0
 18 28  1  0  0  0  0
 18 31  2  0  0  0  0
 18 32  1  0  0  0  0
 19 21  2  0  0  0  0
 19 37  1  0  0  0  0
 20 22  2  0  0  0  0
 20 38  1  0  0  0  0
 21 46  1  0  0  0  0
 22 39  1  0  0  0  0
 23 82  1  0  0  0  0
 24 83  1  0  0  0  0
 25 27  2  0  0  0  0
 25 82  1  0  0  0  0
 26 84  1  0  0  0  0
 27 85  1  0  0  0  0
 28 66  2  0  0  0  0
 29 56  1  0  0  0  0
 29 67  1  0  0  0  0
 30 64  1  0  0  0  0
 30 67  1  0  0  0  0
 31 68  1  0  0  0  0
 31 71  1  0  0  0  0
 32 72  1  0  0  0  0
 32 77  2  0  0  0  0
 33 47  1  0  0  0  0
 33 73  1  0  0  0  0
 33 78  2  0  0  0  0
 34 61  1  0  0  0  0
 34 69  1  0  0  0  0
 34 79  2  0  0  0  0
 35 62  1  0  0  0  0
 35 74  1  0  0  0  0
 35 80  2  0  0  0  0
 36 70  1  0  0  0  0
 36 75  1  0  0  0  0
 36 81  2  0  0  0  0
 37 40  1  0  0  0  0
 38 47  1  0  0  0  0
 39 69  1  0  0  0  0
 40 42  1  0  0  0  0
 41 43  1  0  0  0  0
 41 44  1  0  0  0  0
 42 46  1  0  0  0  0
 43 48  1  0  0  0  0
 44 70  1  0  0  0  0
 45 48  1  0  0  0  0
 45 70  1  0  0  0  0
 46 73  1  0  0  0  0
 47 69  1  0  0  0  0
 48 68  1  0  0  0  0
 49 62  1  0  0  0  0
 50 63  1  0  0  0  0
 51 64  1  0  0  0  0
 52 65  1  0  0  0  0
 53 65  1  0  0  0  0
 54 65  1  0  0  0  0
 55 76  1  0  0  0  0
 56 57  1  0  0  0  0
 57 60  1  0  0  0  0
 58 59  1  0  0  0  0
 58 63  1  0  0  0  0
 59 67  1  0  0  0  0
 60 83  1  0  0  0  0
 61 65  1  0  0  0  0
 61 74  1  0  0  0  0
 62 76  1  0  0  0  0
 63 75  1  0  0  0  0
 64 86  1  0  0  0  0
 64 87  1  0  0  0  0
 66 68  1  0  0  0  0
M  CHG  1  76   1
M  ISO  4  36 100  60 101  75 100  83 101
M  END
> <Batch ID>
0094

> <Smiles>
CNC(C)C(=O)NC(C(=O)N1Cc2cc([101O:1][101CH2:1]CCc3ccc(C(C)(F)F)n3CCC(C)[100NH:0][100C:0](=O)N3CCCC(n4nc(-c5ccc(Oc6ccc(F)cc6F)cc5)c(C(N)=O)c4N)C3)ccc2CC1C(=O)NC1CCCc2ccccc21)C(C)(C)C

> <Shape>
0.301

> <Color>
0.092

> <Negative vol penalty>
0.000

$$$$

  -OEChem-04052319193D

 86 94  0     1  0  0  0  0  0999 V2000
  -24.7669  -35.4812   23.1555 C   0  0  0  0  0  0  0  0  0  0  0  0
  -25.5175  -34.3368   22.9054 C   0  0  0  0  0  0  0  0  0  0  0  0
  -26.5143  -15.0950   21.1034 C   0  0  0  0  0  0  0  0  0  0  0  0
  -27.1458  -14.4481   18.8629 C   0  0  0  0  0  0  0  0  0  0  0  0
  -23.4913  -35.3700   23.7071 C   0  0  0  0  0  0  0  0  0  0  0  0
  -24.9932  -33.0806   23.2077 C   0  0  0  0  0  0  0  0  0  0  0  0
  -25.7598  -29.7129   19.5042 C   0  0  0  0  0  0  0  0  0  0  0  0
  -26.0587  -13.7998   21.3490 C   0  0  0  0  0  0  0  0  0  0  0  0
  -26.6903  -13.1528   19.1085 C   0  0  0  0  0  0  0  0  0  0  0  0
  -27.0321  -29.1508   19.4081 C   0  0  0  0  0  0  0  0  0  0  0  0
  -23.3265  -11.9432   20.6334 C   0  0  0  0  0  0  0  0  0  0  0  0
  -22.0927  -11.8004   21.2682 C   0  0  0  0  0  0  0  0  0  0  0  0
  -26.2372  -27.1733   20.5380 C   0  0  0  0  0  0  0  0  0  0  0  0
  -32.3415  -23.1590   18.5499 C   0  0  0  0  0  0  0  0  0  0  0  0
  -23.1625  -10.6139   23.0806 C   0  0  0  0  0  0  0  0  0  0  0  0
  -27.0578  -15.4192   19.8603 C   0  0  0  0  0  0  0  0  0  0  0  0
  -28.8248  -17.2589   19.8261 C   0  0  0  0  0  0  0  0  0  0  0  0
  -22.9473  -34.1112   24.0074 C   0  0  0  0  0  0  0  0  0  0  0  0
  -24.7177  -29.0127   20.1287 C   0  0  0  0  0  0  0  0  0  0  0  0
  -23.7096  -32.9525   23.7651 C   0  0  0  0  0  0  0  0  0  0  0  0
  -24.9520  -27.7276   20.6385 C   0  0  0  0  0  0  0  0  0  0  0  0
  -31.1913  -23.6391   17.9335 C   0  0  0  0  0  0  0  0  0  0  0  0
  -31.1509  -23.7621   16.5491 C   0  0  0  0  0  0  0  0  0  0  0  0
  -26.1468  -12.8286   20.3516 C   0  0  0  0  0  0  0  0  0  0  0  0
  -27.2716  -27.8820   19.9275 C   0  0  0  0  0  0  0  0  0  0  0  0
  -24.4783  -11.4213   21.2222 C   0  0  0  0  0  0  0  0  0  0  0  0
  -22.0107  -11.1358   22.4918 C   0  0  0  0  0  0  0  0  0  0  0  0
  -24.3963  -10.7567   22.4458 C   0  0  0  0  0  0  0  0  0  0  0  0
  -27.5280  -16.7572   19.6057 C   0  0  0  0  0  0  0  0  0  0  0  0
  -33.4155  -22.8184   17.7436 C   0  0  0  0  0  0  0  0  0  0  0  0
  -32.2783  -23.3946   15.8323 C   0  0  0  0  0  0  0  0  0  0  0  0
  -28.7575  -18.5714   19.4273 C   0  0  0  0  0  0  0  0  0  0  0  0
  -29.9862  -16.5975   20.3450 C   0  0  0  0  0  0  0  0  0  0  0  0
  -22.8872  -29.5182   22.6777 C   0  0  0  0  0  0  0  0  0  0  0  0
  -21.3611  -26.8562   21.6257 C   0  0  0  0  0  0  0  0  0  0  0  0
  -21.4935  -23.9640   19.8189 C   0  0  0  0  0  0  0  0  0  0  0  0
  -27.1287  -22.4738   15.7853 C   0  0  0  0  0  0  0  0  0  0  0  0
  -21.5828  -34.0438   24.6465 C   0  0  0  0  0  0  0  0  0  0  0  0
  -23.3443  -29.6219   20.2006 C   0  0  0  0  0  0  0  0  0  0  0  0
  -23.8620  -26.9262   21.3004 C   0  0  0  0  0  0  0  0  0  0  0  0
  -20.9518  -32.6549   24.5902 C   0  0  0  0  0  0  0  0  0  0  0  0
  -24.7714  -21.4550   18.2515 C   0  0  0  0  0  0  0  0  0  0  0  0
  -21.9631  -31.5918   25.0076 C   0  0  0  0  0  0  0  0  0  0  0  0
  -25.3822  -20.1806   18.8370 C   0  0  0  0  0  0  0  0  0  0  0  0
  -25.0346  -21.5695   16.7516 C   0  0  0  0  0  0  0  0  0  0  0  0
  -27.0635  -20.1841   16.9470 C   0  0  0  0  0  0  0  0  0  0  0  0
  -23.1657  -31.5707   24.0564 C   0  0  1  0  0  0  0  0  0  0  0  0
  -22.4858  -29.0305   21.3144 C   0  0  1  0  0  0  0  0  0  0  0  0
  -26.8723  -20.0521   18.4676 C   0  0  2  0  0  0  0  0  0  0  0  0
  -34.6659  -22.2985   18.3705 C   0  0  0  0  0  0  0  0  0  0  0  0
  -32.5821  -22.1649   13.6685 C   0  0  0  0  0  0  0  0  0  0  0  0
  -30.1994  -25.5953   15.1146 C   0  0  0  0  0  0  0  0  0  0  0  0
  -20.1014  -21.9776   19.1759 C   0  0  0  0  0  0  0  0  0  0  0  0
  -21.7575  -25.6793   24.4127 C   0  0  0  0  0  0  0  0  0  0  0  0
  -21.2318  -23.4247   23.4595 C   0  0  0  0  0  0  0  0  0  0  0  0
  -19.5143  -25.2329   23.4012 C   0  0  0  0  0  0  0  0  0  0  0  0
  -21.6868  -24.6150   16.9383 C   0  0  0  0  0  0  0  0  0  0  0  0
  -30.0075  -24.0204   18.7859 C   0  0  0  0  0  0  0  0  0  0  0  0
  -32.2945  -23.5030   14.3425 C   0  0  0  0  0  0  0  0  0  0  0  0
  -29.8342  -25.5309   18.9591 C   0  0  0  0  0  0  0  0  0  0  0  0
  -29.3047  -23.2504   14.8793 C   0  0  0  0  0  0  0  0  0  0  0  0
  -28.5873  -25.9088   19.7501 C   0  0  0  0  0  0  0  0  0  1  0  0
  -29.9299  -24.2718   15.8602 C   0  0  1  0  0  0  0  0  0  0  0  0
  -21.5141  -25.3729   21.8607 C   0  0  1  0  0  0  0  0  0  0  0  0
  -20.5485  -23.3777   18.7855 C   0  0  2  0  0  0  0  0  0  0  0  0
  -21.0257  -24.9431   23.2729 C   0  0  0  0  0  0  0  0  0  0  0  0
  -26.6977  -17.6762   19.1057 N   0  0  0  0  0  0  0  0  0  0  0  0
  -33.4136  -22.9242   16.3958 N   0  0  0  0  0  0  0  0  0  0  0  0
  -27.4745  -18.7686   19.0088 N   0  0  0  0  0  0  0  0  0  0  0  0
  -22.5379  -27.5676   21.3519 N   0  0  0  0  0  0  0  0  0  0  0  0
  -26.4662  -21.4409   16.4689 N   0  0  0  0  0  0  0  0  0  0  0  0
  -29.6713  -19.5647   19.3972 N   0  0  0  0  0  0  0  0  0  0  0  0
  -29.8810  -15.2474   20.7060 N   0  0  0  0  0  0  0  0  0  0  0  0
  -22.8244  -30.8907   22.8253 N   0  0  0  0  0  0  0  0  0  0  0  0
  -20.8196  -24.7116   20.7613 N   0  0  0  0  0  0  0  0  0  0  0  0
  -28.4859  -22.2748   15.5638 N   0  0  0  0  0  0  0  0  0  0  0  0
  -21.2166  -23.3040   17.4554 N   0  3  0  0  0  0  0  0  0  0  0  0
  -31.0806  -17.1908   20.4997 O   0  0  0  0  0  0  0  0  0  0  0  0
  -23.2272  -28.7091   23.5330 O   0  0  0  0  0  0  0  0  0  0  0  0
  -20.2379  -27.3638   21.6758 O   0  0  0  0  0  0  0  0  0  0  0  0
  -22.7076  -23.7745   19.7947 O   0  0  0  0  0  0  0  0  0  0  0  0
  -26.5543  -23.5000   15.4057 O   0  0  0  0  0  0  0  0  0  0  0  0
  -25.7026  -11.5646   20.5911 O   0  0  0  0  0  0  0  0  0  0  0  0
  -28.5127  -27.3313   19.8356 O   0  0  0  0  0  0  0  0  0  1  0  0
  -20.8260  -11.0001   23.1020 F   0  0  0  0  0  0  0  0  0  0  0  0
  -25.4996  -10.2542   23.0168 F   0  0  0  0  0  0  0  0  0  0  0  0
  1  2  1  0  0  0  0
  1  5  2  0  0  0  0
  2  6  2  0  0  0  0
  3  8  2  0  0  0  0
  3 16  1  0  0  0  0
  4  9  1  0  0  0  0
  4 16  2  0  0  0  0
  5 18  1  0  0  0  0
  6 20  1  0  0  0  0
  7 10  2  0  0  0  0
  7 19  1  0  0  0  0
  8 24  1  0  0  0  0
  9 24  2  0  0  0  0
 10 25  1  0  0  0  0
 11 12  2  0  0  0  0
 11 26  1  0  0  0  0
 12 27  1  0  0  0  0
 13 21  1  0  0  0  0
 13 25  2  0  0  0  0
 14 22  2  0  0  0  0
 14 30  1  0  0  0  0
 15 27  2  0  0  0  0
 15 28  1  0  0  0  0
 16 29  1  0  0  0  0
 17 29  1  0  0  0  0
 17 32  2  0  0  0  0
 17 33  1  0  0  0  0
 18 20  2  0  0  0  0
 18 38  1  0  0  0  0
 19 21  2  0  0  0  0
 19 39  1  0  0  0  0
 20 47  1  0  0  0  0
 21 40  1  0  0  0  0
 22 23  1  0  0  0  0
 22 58  1  0  0  0  0
 23 31  2  0  0  0  0
 23 63  1  0  0  0  0
 24 83  1  0  0  0  0
 25 84  1  0  0  0  0
 26 28  2  0  0  0  0
 26 83  1  0  0  0  0
 27 85  1  0  0  0  0
 28 86  1  0  0  0  0
 29 67  2  0  0  0  0
 30 50  1  0  0  0  0
 30 68  2  0  0  0  0
 31 59  1  0  0  0  0
 31 68  1  0  0  0  0
 32 69  1  0  0  0  0
 32 72  1  0  0  0  0
 33 73  1  0  0  0  0
 33 78  2  0  0  0  0
 34 48  1  0  0  0  0
 34 74  1  0  0  0  0
 34 79  2  0  0  0  0
 35 64  1  0  0  0  0
 35 70  1  0  0  0  0
 35 80  2  0  0  0  0
 36 65  1  0  0  0  0
 36 75  1  0  0  0  0
 36 81  2  0  0  0  0
 37 71  1  0  0  0  0
 37 76  1  0  0  0  0
 37 82  2  0  0  0  0
 38 41  1  0  0  0  0
 39 48  1  0  0  0  0
 40 70  1  0  0  0  0
 41 43  1  0  0  0  0
 42 44  1  0  0  0  0
 42 45  1  0  0  0  0
 43 47  1  0  0  0  0
 44 49  1  0  0  0  0
 45 71  1  0  0  0  0
 46 49  1  0  0  0  0
 46 71  1  0  0  0  0
 47 74  1  0  0  0  0
 48 70  1  0  0  0  0
 49 69  1  0  0  0  0
 51 59  1  0  0  0  0
 52 63  1  0  0  0  0
 53 65  1  0  0  0  0
 54 66  1  0  0  0  0
 55 66  1  0  0  0  0
 56 66  1  0  0  0  0
 57 77  1  0  0  0  0
 58 60  1  0  0  0  0
 60 62  1  0  0  0  0
 61 63  1  0  0  0  0
 61 76  1  0  0  0  0
 62 84  1  0  0  0  0
 64 66  1  0  0  0  0
 64 75  1  0  0  0  0
 65 77  1  0  0  0  0
 67 69  1  0  0  0  0
M  CHG  1  77   1
M  ISO  4  37 100  62 101  76 100  84 101
M  END
> <Batch ID>
0094

> <Smiles>
CCc1nc(C)cc(CC[101CH2:1][101O:1]c2ccc3c(c2)CN(C(=O)C(NC(=O)C(C)NC)C(C)(C)C)C(C(=O)NC2CCCc4ccccc42)C3)c1C(C)C[100NH:0][100C:0](=O)N1CCCC(n2nc(-c3ccc(Oc4ccc(F)cc4F)cc3)c(C(N)=O)c2N)C1

> <Shape>
0.235

> <Color>
0.079

> <Negative vol penalty>
0.000

$$$$

  -OEChem-04052319192D

  0  0  0     0  0  0  0  0  0999 V2000
M  END
$$$$

  -OEChem-04052319193D

 83 90  0     1  0  0  0  0  0999 V2000
  -23.2483  -30.0366   18.1740 C   0  0  0  0  0  0  0  0  0  0  0  0
  -23.0467  -28.6612   18.1201 C   0  0  0  0  0  0  0  0  0  0  0  0
  -30.5516  -19.5159   19.1459 C   0  0  0  0  0  0  0  0  0  0  0  0
  -28.7315  -19.7864   20.7116 C   0  0  0  0  0  0  0  0  0  0  0  0
  -24.3041  -30.5564   18.9217 C   0  0  0  0  0  0  0  0  0  0  0  0
  -23.9014  -27.8046   18.8131 C   0  0  0  0  0  0  0  0  0  0  0  0
  -22.4111  -22.5231   21.5315 C   0  0  0  0  0  0  0  0  0  0  0  0
  -30.2828  -20.7776   18.6155 C   0  0  0  0  0  0  0  0  0  0  0  0
  -28.4627  -21.0482   20.1811 C   0  0  0  0  0  0  0  0  0  0  0  0
  -22.5282  -21.1941   21.1267 C   0  0  0  0  0  0  0  0  0  0  0  0
  -30.8751  -24.0034   19.4381 C   0  0  0  0  0  0  0  0  0  0  0  0
  -31.9570  -24.8520   19.2039 C   0  0  0  0  0  0  0  0  0  0  0  0
  -24.6103  -21.0168   22.3320 C   0  0  0  0  0  0  0  0  0  0  0  0
  -31.3892  -24.9282   16.8568 C   0  0  0  0  0  0  0  0  0  0  0  0
  -29.7759  -19.0202   20.1940 C   0  0  0  0  0  0  0  0  0  0  0  0
  -30.9217  -17.4088   21.8058 C   0  0  0  0  0  0  0  0  0  0  0  0
  -25.1664  -29.7064   19.6319 C   0  0  0  0  0  0  0  0  0  0  0  0
  -23.3998  -23.1131   22.3318 C   0  0  0  0  0  0  0  0  0  0  0  0
  -24.9706  -28.3135   19.5699 C   0  0  0  0  0  0  0  0  0  0  0  0
  -24.5021  -22.3527   22.7476 C   0  0  0  0  0  0  0  0  0  0  0  0
  -29.2384  -21.5438   19.1331 C   0  0  0  0  0  0  0  0  0  0  0  0
  -23.6294  -20.4416   21.5246 C   0  0  0  0  0  0  0  0  0  0  0  0
  -30.0502  -23.6171   18.3816 C   0  0  0  0  0  0  0  0  0  0  0  0
  -32.2141  -25.3145   17.9133 C   0  0  0  0  0  0  0  0  0  0  0  0
  -30.3073  -24.0795   17.0910 C   0  0  0  0  0  0  0  0  0  0  0  0
  -30.0527  -17.7167   20.7419 C   0  0  0  0  0  0  0  0  0  0  0  0
  -30.8321  -16.0447   21.9385 C   0  0  0  0  0  0  0  0  0  0  0  0
  -31.7371  -18.2781   22.6027 C   0  0  0  0  0  0  0  0  0  0  0  0
  -25.4125  -25.5481   21.9803 C   0  0  0  0  0  0  0  0  0  0  0  0
  -26.1005  -24.9213   25.0877 C   0  0  0  0  0  0  0  0  0  0  0  0
  -26.1425  -22.6647   27.6476 C   0  0  0  0  0  0  0  0  0  0  0  0
  -26.5719  -12.0817   20.5256 C   0  0  0  0  0  0  0  0  0  0  0  0
  -26.3223  -30.3120   20.3881 C   0  0  0  0  0  0  0  0  0  0  0  0
  -23.2453  -24.5400   22.7820 C   0  0  0  0  0  0  0  0  0  0  0  0
  -25.5810  -22.9333   23.6237 C   0  0  0  0  0  0  0  0  0  0  0  0
  -26.9571  -29.3581   21.3967 C   0  0  0  0  0  0  0  0  0  0  0  0
  -29.9501  -12.0855   19.4011 C   0  0  0  0  0  0  0  0  0  0  0  0
  -27.1869  -27.9888   20.7650 C   0  0  0  0  0  0  0  0  0  0  0  0
  -30.4379  -13.5014   19.7133 C   0  0  0  0  0  0  0  0  0  0  0  0
  -28.4891  -12.0771   18.9569 C   0  0  0  0  0  0  0  0  0  0  0  0
  -28.0438  -14.1604   20.1959 C   0  0  0  0  0  0  0  0  0  0  0  0
  -25.8614  -27.3534   20.3279 C   0  0  1  0  0  0  0  0  0  0  0  0
  -24.5693  -25.1904   23.1713 C   0  0  1  0  0  0  0  0  0  0  0  0
  -29.4955  -14.2139   20.7020 C   0  0  2  0  0  0  0  0  0  0  0  0
  -20.9348  -10.1224   23.4225 C   0  0  0  0  0  0  0  0  0  0  0  0
  -26.7960  -22.4337   30.0594 C   0  0  0  0  0  0  0  0  0  0  0  0
  -29.0362  -24.7524   24.2736 C   0  0  0  0  0  0  0  0  0  0  0  0
  -29.5026  -23.6107   26.4524 C   0  0  0  0  0  0  0  0  0  0  0  0
  -28.6193  -25.9435   26.4327 C   0  0  0  0  0  0  0  0  0  0  0  0
  -23.3637  -22.0536   28.4622 C   0  0  0  0  0  0  0  0  0  0  0  0
  -23.1137  -14.9112   19.3885 C   0  0  0  0  0  0  0  0  0  0  0  0
  -21.8862  -11.2844   23.1581 C   0  0  0  0  0  0  0  0  0  0  0  0
  -24.8467  -17.0161   21.0146 C   0  0  0  0  0  0  0  0  0  0  0  0
  -24.6961  -12.2365   22.1432 C   0  0  0  0  0  0  0  0  0  0  0  0
  -23.6097  -16.2375   21.4367 C   0  0  0  0  0  0  0  0  0  0  0  0
  -22.8461  -13.8759   21.6376 C   0  0  0  0  0  0  0  0  0  0  0  0
  -24.9005  -18.4322   21.5747 C   0  0  0  0  0  0  0  0  0  1  0  0
  -27.0870  -24.0326   25.8060 C   0  0  1  0  0  0  0  0  0  0  0  0
  -25.6743  -22.7666   29.0880 C   0  0  2  0  0  0  0  0  0  0  0  0
  -23.3733  -12.4540   21.3802 C   0  0  2  0  0  0  0  0  0  0  0  0
  -22.3422  -11.3360   21.6937 C   0  0  1  0  0  0  0  0  0  0  0  0
  -28.5421  -24.5741   25.7231 C   0  0  0  0  0  0  0  0  0  0  0  0
  -29.4550  -16.6352   20.2348 N   0  0  0  0  0  0  0  0  0  0  0  0
  -29.9494  -15.6344   20.9831 N   0  0  0  0  0  0  0  0  0  0  0  0
  -25.3879  -24.3344   24.0324 N   0  0  0  0  0  0  0  0  0  0  0  0
  -27.6485  -12.7668   19.9386 N   0  0  0  0  0  0  0  0  0  0  0  0
  -31.4231  -15.1681   22.7780 N   0  0  0  0  0  0  0  0  0  0  0  0
  -31.7100  -19.6531   22.3326 N   0  0  0  0  0  0  0  0  0  0  0  0
  -25.1613  -26.8079   21.4710 N   0  0  0  0  0  0  0  0  0  0  0  0
  -26.5831  -23.8795   27.1666 N   0  0  0  0  0  0  0  0  0  0  0  0
  -25.8301  -12.8065   21.4504 N   0  0  0  0  0  0  0  0  0  0  0  0
  -24.5452  -21.8254   29.3334 N   0  3  0  0  0  0  0  0  0  0  0  0
  -23.6034  -14.8918   20.8166 N   0  3  1  0  0  0  0  0  0  0  0  0
  -32.4804  -17.8465   23.5163 O   0  0  0  0  0  0  0  0  0  0  0  0
  -26.2316  -24.7415   21.5557 O   0  0  0  0  0  0  0  0  0  0  0  0
  -25.9619  -26.0910   25.4541 O   0  0  0  0  0  0  0  0  0  0  0  0
  -26.1232  -21.6119   27.0137 O   0  0  0  0  0  0  0  0  0  0  0  0
  -26.2957  -10.9092   20.2502 O   0  0  0  0  0  0  0  0  0  0  0  0
  -22.9100  -10.0666   21.3563 O   0  0  0  0  0  0  0  0  0  0  0  0
  -28.9760  -22.7751   18.6159 O   0  0  0  0  0  0  0  0  0  0  0  0
  -23.7465  -19.1444   21.1304 O   0  0  0  0  0  0  0  0  0  1  0  0
  -33.2522  -26.1307   17.6889 F   0  0  0  0  0  0  0  0  0  0  0  0
  -29.5177  -23.7128   16.0723 F   0  0  0  0  0  0  0  0  0  0  0  0
  1  2  1  0  0  0  0
  1  5  2  0  0  0  0
  2  6  2  0  0  0  0
  3  8  2  0  0  0  0
  3 15  1  0  0  0  0
  4  9  1  0  0  0  0
  4 15  2  0  0  0  0
  5 17  1  0  0  0  0
  6 19  1  0  0  0  0
  7 10  2  0  0  0  0
  7 18  1  0  0  0  0
  8 21  1  0  0  0  0
  9 21  2  0  0  0  0
 10 22  1  0  0  0  0
 11 12  2  0  0  0  0
 11 23  1  0  0  0  0
 12 24  1  0  0  0  0
 13 20  1  0  0  0  0
 13 22  2  0  0  0  0
 14 24  2  0  0  0  0
 14 25  1  0  0  0  0
 15 26  1  0  0  0  0
 16 26  1  0  0  0  0
 16 27  2  0  0  0  0
 16 28  1  0  0  0  0
 17 19  2  0  0  0  0
 17 33  1  0  0  0  0
 18 20  2  0  0  0  0
 18 34  1  0  0  0  0
 19 42  1  0  0  0  0
 20 35  1  0  0  0  0
 21 80  1  0  0  0  0
 22 81  1  0  0  0  0
 23 25  2  0  0  0  0
 23 80  1  0  0  0  0
 24 82  1  0  0  0  0
 25 83  1  0  0  0  0
 26 63  2  0  0  0  0
 27 64  1  0  0  0  0
 27 67  1  0  0  0  0
 28 68  1  0  0  0  0
 28 74  2  0  0  0  0
 29 43  1  0  0  0  0
 29 69  1  0  0  0  0
 29 75  2  0  0  0  0
 30 58  1  0  0  0  0
 30 65  1  0  0  0  0
 30 76  2  0  0  0  0
 31 59  1  0  0  0  0
 31 70  1  0  0  0  0
 31 77  2  0  0  0  0
 32 66  1  0  0  0  0
 32 71  1  0  0  0  0
 32 78  2  0  0  0  0
 33 36  1  0  0  0  0
 34 43  1  0  0  0  0
 35 65  1  0  0  0  0
 36 38  1  0  0  0  0
 37 39  1  0  0  0  0
 37 40  1  0  0  0  0
 38 42  1  0  0  0  0
 39 44  1  0  0  0  0
 40 66  1  0  0  0  0
 41 44  1  0  0  0  0
 41 66  1  0  0  0  0
 42 69  1  0  0  0  0
 43 65  1  0  0  0  0
 44 64  1  0  0  0  0
 45 52  1  0  0  0  0
 46 59  1  0  0  0  0
 47 62  1  0  0  0  0
 48 62  1  0  0  0  0
 49 62  1  0  0  0  0
 50 72  1  0  0  0  0
 51 73  1  0  0  0  0
 52 61  1  0  0  0  0
 53 55  1  0  0  0  0
 53 57  1  0  0  0  0
 54 60  1  0  0  0  0
 54 71  1  0  0  0  0
 55 73  1  0  0  0  0
 56 60  1  0  0  0  0
 56 73  1  0  0  0  0
 57 81  1  0  0  0  0
 58 62  1  0  0  0  0
 58 70  1  0  0  0  0
 59 72  1  0  0  0  0
 60 61  1  0  0  0  0
 61 79  1  0  0  0  0
 63 64  1  0  0  0  0
M  CHG  2  72   1  73   1
M  ISO  4  32 100  57 101  71 100  81 101
M  END
> <Batch ID>
0094

> <Smiles>
CCC(O)C(C[100NH:0][100C:0](=O)N1CCCC(n2nc(-c3ccc(Oc4ccc(F)cc4F)cc3)c(C(N)=O)c2N)C1)CN(C)CC[101CH2:1][101O:1]c1ccc2c(c1)CN(C(=O)C(NC(=O)C(C)NC)C(C)(C)C)C(C(=O)NC1CCCc3ccccc31)C2

> <Shape>
0.219

> <Color>
0.055

> <Negative vol penalty>
0.000

$$$$

  -OEChem-04052319193D

 92100  0     1  0  0  0  0  0999 V2000
  -19.3309  -24.0285   21.7408 C   0  0  0  0  0  0  0  0  0  0  0  0
  -20.4755  -24.4345   21.0621 C   0  0  0  0  0  0  0  0  0  0  0  0
  -27.0881  -13.6751   22.9377 C   0  0  0  0  0  0  0  0  0  0  0  0
  -26.3239  -13.6429   20.6460 C   0  0  0  0  0  0  0  0  0  0  0  0
  -18.5142  -24.9758   22.3567 C   0  0  0  0  0  0  0  0  0  0  0  0
  -20.8033  -25.7883   20.9981 C   0  0  0  0  0  0  0  0  0  0  0  0
  -25.7130  -26.6428   21.8979 C   0  0  0  0  0  0  0  0  0  0  0  0
  -25.9056  -13.0548   23.3408 C   0  0  0  0  0  0  0  0  0  0  0  0
  -25.1414  -13.0225   21.0491 C   0  0  0  0  0  0  0  0  0  0  0  0
  -26.6052  -26.3849   20.8580 C   0  0  0  0  0  0  0  0  0  0  0  0
  -22.0763  -11.1040   21.4271 C   0  0  0  0  0  0  0  0  0  0  0  0
  -21.6208  -10.0226   20.6731 C   0  0  0  0  0  0  0  0  0  0  0  0
  -26.6707  -28.7397   20.3383 C   0  0  0  0  0  0  0  0  0  0  0  0
  -30.9522  -20.6290   14.5465 C   0  0  0  0  0  0  0  0  0  0  0  0
  -23.6683   -8.8304   21.1459 C   0  0  0  0  0  0  0  0  0  0  0  0
  -27.2973  -13.9692   21.5903 C   0  0  0  0  0  0  0  0  0  0  0  0
  -29.7169  -13.9842   20.7824 C   0  0  0  0  0  0  0  0  0  0  0  0
  -18.8374  -26.3411   22.3084 C   0  0  0  0  0  0  0  0  0  0  0  0
  -25.2838  -27.9520   22.1592 C   0  0  0  0  0  0  0  0  0  0  0  0
  -19.9894  -26.7549   21.6128 C   0  0  0  0  0  0  0  0  0  0  0  0
  -25.7750  -29.0118   21.3836 C   0  0  0  0  0  0  0  0  0  0  0  0
  -30.2515  -21.6870   13.9781 C   0  0  0  0  0  0  0  0  0  0  0  0
  -30.5135  -20.0755   15.7442 C   0  0  0  0  0  0  0  0  0  0  0  0
  -24.9323  -12.7285   22.3965 C   0  0  0  0  0  0  0  0  0  0  0  0
  -27.0819  -27.4331   20.0762 C   0  0  0  0  0  0  0  0  0  0  0  0
  -23.3279  -11.0487   22.0405 C   0  0  0  0  0  0  0  0  0  0  0  0
  -22.4167   -8.8858   20.5325 C   0  0  0  0  0  0  0  0  0  0  0  0
  -24.1238   -9.9119   21.8999 C   0  0  0  0  0  0  0  0  0  0  0  0
  -28.5183  -14.6105   21.1734 C   0  0  0  0  0  0  0  0  0  0  0  0
  -29.1272  -22.1512   14.6417 C   0  0  0  0  0  0  0  0  0  0  0  0
  -29.3776  -20.6120   16.3288 C   0  0  0  0  0  0  0  0  0  0  0  0
  -30.5653  -15.0223   20.4839 C   0  0  0  0  0  0  0  0  0  0  0  0
  -30.0349  -12.5888   20.6964 C   0  0  0  0  0  0  0  0  0  0  0  0
  -22.4750  -29.4398   22.1288 C   0  0  0  0  0  0  0  0  0  0  0  0
  -29.5261  -20.6982   18.8059 C   0  0  0  0  0  0  0  0  0  0  0  0
  -24.2065  -31.9037   23.3343 C   0  0  0  0  0  0  0  0  0  0  0  0
  -27.2484  -33.4122   23.6778 C   0  0  0  0  0  0  0  0  0  0  0  0
  -17.8985  -27.3324   22.9491 C   0  0  0  0  0  0  0  0  0  0  0  0
  -24.3418  -28.2167   23.3016 C   0  0  0  0  0  0  0  0  0  0  0  0
  -25.3608  -30.4377   21.6362 C   0  0  0  0  0  0  0  0  0  0  0  0
  -18.5173  -28.7128   23.1537 C   0  0  0  0  0  0  0  0  0  0  0  0
  -31.4602  -19.5782   21.6068 C   0  0  0  0  0  0  0  0  0  0  0  0
  -19.2424  -29.1655   21.8903 C   0  0  0  0  0  0  0  0  0  0  0  0
  -31.0131  -18.1292   21.7954 C   0  0  0  0  0  0  0  0  0  0  0  0
  -30.3078  -20.4619   21.1399 C   0  0  0  0  0  0  0  0  0  0  0  0
  -29.1848  -18.5259   20.0851 C   0  0  0  0  0  0  0  0  0  0  0  0
  -20.3919  -28.2120   21.5423 C   0  0  1  0  0  0  0  0  0  0  0  0
  -23.5730  -29.5258   23.1509 C   0  0  1  0  0  0  0  0  0  0  0  0
  -30.3263  -17.5930   20.5268 C   0  0  2  0  0  0  0  0  0  0  0  0
  -30.3187  -22.4642   10.1971 C   0  0  0  0  0  0  0  0  0  0  0  0
  -31.7642  -16.4591   16.2561 C   0  0  0  0  0  0  0  0  0  0  0  0
  -26.1876  -25.5343   13.9207 C   0  0  0  0  0  0  0  0  0  0  0  0
  -27.3383  -20.1825   17.7603 C   0  0  0  0  0  0  0  0  0  0  0  0
  -28.3422  -35.4338   24.6849 C   0  0  0  0  0  0  0  0  0  0  0  0
  -23.0858  -33.6295   21.0814 C   0  0  0  0  0  0  0  0  0  0  0  0
  -24.8923  -35.2971   21.5542 C   0  0  0  0  0  0  0  0  0  0  0  0
  -23.1993  -34.7643   23.3070 C   0  0  0  0  0  0  0  0  0  0  0  0
  -30.0286  -25.1383   14.5381 C   0  0  0  0  0  0  0  0  0  0  0  0
  -28.9745  -31.7544   25.4189 C   0  0  0  0  0  0  0  0  0  0  0  0
  -30.7163  -22.2843   12.6951 C   0  0  0  0  0  0  0  0  0  0  0  0
  -31.2599  -18.9421   16.3586 C   0  0  0  0  0  0  0  0  0  0  0  0
  -28.3252  -23.3004   14.0720 C   0  0  0  0  0  0  0  0  0  0  0  0
  -29.8645  -21.8265   11.5005 C   0  0  0  0  0  0  0  0  0  0  0  0
  -30.9750  -17.6085   15.6497 C   0  0  0  0  0  0  0  0  0  0  0  0
  -27.6962  -25.7528   13.9017 C   0  0  0  0  0  0  0  0  0  0  0  0
  -28.2879  -26.0343   16.9570 C   0  0  0  0  0  0  0  0  0  0  0  0
  -28.1759  -24.6929   16.2143 C   0  0  0  0  0  0  0  0  0  0  0  0
  -27.8514  -25.9154   18.4147 C   0  0  0  0  0  0  0  0  0  1  0  0
  -28.8603  -20.0559   17.6151 C   0  0  1  0  0  0  0  0  0  0  0  0
  -24.9780  -33.0585   22.7426 C   0  0  1  0  0  0  0  0  0  0  0  0
  -27.9615  -33.9763   24.8934 C   0  0  2  0  0  0  0  0  0  0  0  0
  -24.0454  -34.1604   22.1651 C   0  0  0  0  0  0  0  0  0  0  0  0
  -28.5494  -24.7176   14.7012 C   0  0  2  0  0  0  0  0  0  0  0  0
  -28.5946  -15.9433   21.1287 N   0  0  0  0  0  0  0  0  0  0  0  0
  -28.6706  -21.6392   15.8065 N   0  0  0  0  0  0  0  0  0  0  0  0
  -29.8513  -16.1629   20.7061 N   0  0  0  0  0  0  0  0  0  0  0  0
  -24.4331  -30.6447   22.7605 N   0  0  0  0  0  0  0  0  0  0  0  0
  -29.6675  -19.9069   19.9460 N   0  0  0  0  0  0  0  0  0  0  0  0
  -31.8450  -15.0616   20.0559 N   0  0  0  0  0  0  0  0  0  0  0  0
  -29.0468  -11.6560   21.0398 N   0  0  0  0  0  0  0  0  0  0  0  0
  -21.5334  -28.4641   22.3953 N   0  0  0  0  0  0  0  0  0  0  0  0
  -25.8789  -33.5270   23.7901 N   0  0  0  0  0  0  0  0  0  0  0  0
  -29.2037  -33.2012   25.1712 N   0  3  0  0  0  0  0  0  0  0  0  0
  -31.1670  -12.1814   20.3418 O   0  0  0  0  0  0  0  0  0  0  0  0
  -22.4808  -30.2031   21.1702 O   0  0  0  0  0  0  0  0  0  0  0  0
  -29.9111  -21.8674   18.7224 O   0  0  0  0  0  0  0  0  0  0  0  0
  -23.4367  -32.1099   24.2759 O   0  0  0  0  0  0  0  0  0  0  0  0
  -27.8466  -32.9224   22.7224 O   0  0  0  0  0  0  0  0  0  0  0  0
  -23.7784  -12.1229   22.7894 O   0  0  0  0  0  0  0  0  0  0  0  0
  -27.9523  -27.1841   19.0602 O   0  0  0  0  0  0  0  0  0  1  0  0
  -21.9785   -7.8468   19.8097 F   0  0  0  0  0  0  0  0  0  0  0  0
  -25.3266   -9.8525   22.4879 F   0  0  0  0  0  0  0  0  0  0  0  0
  1  2  1  0  0  0  0
  1  5  2  0  0  0  0
  2  6  2  0  0  0  0
  3  8  2  0  0  0  0
  3 16  1  0  0  0  0
  4  9  1  0  0  0  0
  4 16  2  0  0  0  0
  5 18  1  0  0  0  0
  6 20  1  0  0  0  0
  7 10  2  0  0  0  0
  7 19  1  0  0  0  0
  8 24  1  0  0  0  0
  9 24  2  0  0  0  0
 10 25  1  0  0  0  0
 11 12  2  0  0  0  0
 11 26  1  0  0  0  0
 12 27  1  0  0  0  0
 13 21  1  0  0  0  0
 13 25  2  0  0  0  0
 14 22  1  0  0  0  0
 14 23  2  0  0  0  0
 15 27  2  0  0  0  0
 15 28  1  0  0  0  0
 16 29  1  0  0  0  0
 17 29  1  0  0  0  0
 17 32  2  0  0  0  0
 17 33  1  0  0  0  0
 18 20  2  0  0  0  0
 18 38  1  0  0  0  0
 19 21  2  0  0  0  0
 19 39  1  0  0  0  0
 20 47  1  0  0  0  0
 21 40  1  0  0  0  0
 22 30  2  0  0  0  0
 22 60  1  0  0  0  0
 23 31  1  0  0  0  0
 23 61  1  0  0  0  0
 24 89  1  0  0  0  0
 25 90  1  0  0  0  0
 26 28  2  0  0  0  0
 26 89  1  0  0  0  0
 27 91  1  0  0  0  0
 28 92  1  0  0  0  0
 29 74  2  0  0  0  0
 30 62  1  0  0  0  0
 30 75  1  0  0  0  0
 31 69  1  0  0  0  0
 31 75  2  0  0  0  0
 32 76  1  0  0  0  0
 32 79  1  0  0  0  0
 33 80  1  0  0  0  0
 33 84  2  0  0  0  0
 34 48  1  0  0  0  0
 34 81  1  0  0  0  0
 34 85  2  0  0  0  0
 35 69  1  0  0  0  0
 35 78  1  0  0  0  0
 35 86  2  0  0  0  0
 36 70  1  0  0  0  0
 36 77  1  0  0  0  0
 36 87  2  0  0  0  0
 37 71  1  0  0  0  0
 37 82  1  0  0  0  0
 37 88  2  0  0  0  0
 38 41  1  0  0  0  0
 39 48  1  0  0  0  0
 40 77  1  0  0  0  0
 41 43  1  0  0  0  0
 42 44  1  0  0  0  0
 42 45  1  0  0  0  0
 43 47  1  0  0  0  0
 44 49  1  0  0  0  0
 45 78  1  0  0  0  0
 46 49  1  0  0  0  0
 46 78  1  0  0  0  0
 47 81  1  0  0  0  0
 48 77  1  0  0  0  0
 49 76  1  0  0  0  0
 50 63  1  0  0  0  0
 51 64  1  0  0  0  0
 52 65  1  0  0  0  0
 53 69  1  0  0  0  0
 54 71  1  0  0  0  0
 55 72  1  0  0  0  0
 56 72  1  0  0  0  0
 57 72  1  0  0  0  0
 58 73  1  0  0  0  0
 59 83  1  0  0  0  0
 60 63  1  0  0  0  0
 61 64  1  0  0  0  0
 62 73  1  0  0  0  0
 65 73  1  0  0  0  0
 66 67  1  0  0  0  0
 66 68  1  0  0  0  0
 67 73  1  0  0  0  0
 68 90  1  0  0  0  0
 70 72  1  0  0  0  0
 70 82  1  0  0  0  0
 71 83  1  0  0  0  0
 74 76  1  0  0  0  0
M  CHG  1  83   1
M  ISO  4  35 100  68 101  69 100  90 101
M  END
> <Batch ID>
0094

> <Smiles>
CCCc1cc(CCC)c([100CH:0](C)[100C:0](=O)N2CCCC(n3nc(-c4ccc(Oc5ccc(F)cc5F)cc4)c(C(N)=O)c3N)C2)nc1CC(C)(CC)CC[101CH2:1][101O:1]c1ccc2c(c1)CN(C(=O)C(NC(=O)C(C)NC)C(C)(C)C)C(C(=O)NC1CCCc3ccccc31)C2

> <Shape>
0.290

> <Color>
0.083

> <Negative vol penalty>
0.000

$$$$

  -OEChem-04052319193D

 86 94  0     1  0  0  0  0  0999 V2000
  -21.5252  -31.0517   29.4604 C   0  0  0  0  0  0  0  0  0  0  0  0
  -21.2219  -29.8545   28.8199 C   0  0  0  0  0  0  0  0  0  0  0  0
  -23.2386   -9.9180   21.5500 C   0  0  0  0  0  0  0  0  0  0  0  0
  -23.8106  -10.9531   23.6567 C   0  0  0  0  0  0  0  0  0  0  0  0
  -22.2644  -32.0290   28.7953 C   0  0  0  0  0  0  0  0  0  0  0  0
  -21.6567  -29.6344   27.5134 C   0  0  0  0  0  0  0  0  0  0  0  0
  -25.8908  -24.0319   25.9084 C   0  0  0  0  0  0  0  0  0  0  0  0
  -22.5393   -8.9208   22.2298 C   0  0  0  0  0  0  0  0  0  0  0  0
  -23.1112   -9.9560   24.3366 C   0  0  0  0  0  0  0  0  0  0  0  0
  -26.5285  -22.8659   25.4844 C   0  0  0  0  0  0  0  0  0  0  0  0
  -23.2615   -6.0933   23.9351 C   0  0  0  0  0  0  0  0  0  0  0  0
  -23.4580   -4.7734   23.5292 C   0  0  0  0  0  0  0  0  0  0  0  0
  -26.5908  -23.7108   23.2194 C   0  0  0  0  0  0  0  0  0  0  0  0
  -30.5469  -16.3085   20.4630 C   0  0  0  0  0  0  0  0  0  0  0  0
  -21.1039   -4.5792   23.0213 C   0  0  0  0  0  0  0  0  0  0  0  0
  -30.8173  -17.2253   22.5017 C   0  0  0  0  0  0  0  0  0  0  0  0
  -23.8743  -10.9341   22.2635 C   0  0  0  0  0  0  0  0  0  0  0  0
  -24.0903  -13.1922   21.0963 C   0  0  0  0  0  0  0  0  0  0  0  0
  -22.7168  -31.8168   27.4834 C   0  0  0  0  0  0  0  0  0  0  0  0
  -25.6142  -25.0496   24.9913 C   0  0  0  0  0  0  0  0  0  0  0  0
  -22.4016  -30.6104   26.8296 C   0  0  0  0  0  0  0  0  0  0  0  0
  -25.9635  -24.8863   23.6406 C   0  0  0  0  0  0  0  0  0  0  0  0
  -30.4424  -16.0682   21.8553 C   0  0  0  0  0  0  0  0  0  0  0  0
  -22.4755   -8.9398   23.6231 C   0  0  0  0  0  0  0  0  0  0  0  0
  -26.8774  -22.7056   24.1432 C   0  0  0  0  0  0  0  0  0  0  0  0
  -21.9863   -6.6562   23.8842 C   0  0  0  0  0  0  0  0  0  0  0  0
  -22.3792   -4.0163   23.0723 C   0  0  0  0  0  0  0  0  0  0  0  0
  -20.9075   -5.8992   23.4273 C   0  0  0  0  0  0  0  0  0  0  0  0
  -24.5974  -11.9642   21.5618 C   0  0  0  0  0  0  0  0  0  0  0  0
  -30.9828  -17.6052   20.3010 C   0  0  0  0  0  0  0  0  0  0  0  0
  -25.1668  -13.8056   20.5036 C   0  0  0  0  0  0  0  0  0  0  0  0
  -22.7648  -13.7303   21.1913 C   0  0  0  0  0  0  0  0  0  0  0  0
  -24.1779  -28.4650   24.4016 C   0  0  0  0  0  0  0  0  0  0  0  0
  -26.7379  -28.2730   22.7224 C   0  0  0  0  0  0  0  0  0  0  0  0
  -29.8284  -27.8101   21.3542 C   0  0  0  0  0  0  0  0  0  0  0  0
  -31.1321  -12.7907   21.4646 C   0  0  0  0  0  0  0  0  0  0  0  0
  -23.4723  -32.9218   26.7885 C   0  0  0  0  0  0  0  0  0  0  0  0
  -24.8737  -26.2966   25.3918 C   0  0  0  0  0  0  0  0  0  0  0  0
  -25.6152  -25.9930   22.6830 C   0  0  0  0  0  0  0  0  0  0  0  0
  -24.2158  -32.4586   25.5383 C   0  0  0  0  0  0  0  0  0  0  0  0
  -29.2755  -12.8405   18.2627 C   0  0  0  0  0  0  0  0  0  0  0  0
  -23.3113  -31.5889   24.6708 C   0  0  0  0  0  0  0  0  0  0  0  0
  -27.8281  -12.6529   18.7140 C   0  0  0  0  0  0  0  0  0  0  0  0
  -30.2604  -12.1960   19.2335 C   0  0  0  0  0  0  0  0  0  0  0  0
  -28.6530  -12.4602   21.0937 C   0  0  0  0  0  0  0  0  0  0  0  0
  -22.8766  -30.3245   25.4216 C   0  0  1  0  0  0  0  0  0  0  0  0
  -25.3439  -27.5487   24.6299 C   0  0  1  0  0  0  0  0  0  0  0  0
  -27.6375  -13.1381   20.1616 C   0  0  2  0  0  0  0  0  0  0  0  0
  -30.0051  -18.5472   18.1773 C   0  0  0  0  0  0  0  0  0  0  0  0
  -32.3960  -17.7492   18.2186 C   0  0  0  0  0  0  0  0  0  0  0  0
  -31.5459  -28.9621   19.9328 C   0  0  0  0  0  0  0  0  0  0  0  0
  -31.2069  -22.0053   21.4800 C   0  0  0  0  0  0  0  0  0  0  0  0
  -25.0455  -27.7295   20.2436 C   0  0  0  0  0  0  0  0  0  0  0  0
  -27.1156  -27.9910   18.8599 C   0  0  0  0  0  0  0  0  0  0  0  0
  -26.2714  -29.9091   20.2129 C   0  0  0  0  0  0  0  0  0  0  0  0
  -32.1615  -13.9733   23.3676 C   0  0  0  0  0  0  0  0  0  0  0  0
  -31.8518  -27.7070   23.5115 C   0  0  0  0  0  0  0  0  0  0  0  0
  -30.0112  -14.8112   22.4960 C   0  0  0  0  0  0  0  0  0  0  0  0
  -29.5011  -20.6410   22.7835 C   0  0  0  0  0  0  0  0  0  0  0  0
  -31.6082  -19.5586   21.8421 C   0  0  0  0  0  0  0  0  0  0  0  0
  -28.3930  -21.6765   22.6261 C   0  0  0  0  0  0  0  0  0  1  0  0
  -31.2579  -18.3652   19.0642 C   0  0  0  0  0  0  0  0  0  0  0  0
  -27.3515  -27.9462   21.3844 C   0  0  1  0  0  0  0  0  0  0  0  0
  -31.0695  -28.6841   21.3501 C   0  0  2  0  0  0  0  0  0  0  0  0
  -30.5245  -20.6407   21.6302 C   0  0  2  0  0  0  0  0  0  0  0  0
  -26.4449  -28.3748   20.1962 C   0  0  0  0  0  0  0  0  0  0  0  0
  -25.8950  -11.8052   21.2882 N   0  0  0  0  0  0  0  0  0  0  0  0
  -31.1440  -18.1527   21.5469 N   0  0  0  0  0  0  0  0  0  0  0  0
  -26.2124  -12.9413   20.6443 N   0  0  0  0  0  0  0  0  0  0  0  0
  -25.9115  -27.2980   23.2943 N   0  0  0  0  0  0  0  0  0  0  0  0
  -30.0291  -12.6416   20.6079 N   0  0  0  0  0  0  0  0  0  0  0  0
  -25.3115  -14.9947   19.8810 N   0  0  0  0  0  0  0  0  0  0  0  0
  -21.7787  -12.9683   21.8326 N   0  0  0  0  0  0  0  0  0  0  0  0
  -23.9482  -29.3519   25.4362 N   0  0  0  0  0  0  0  0  0  0  0  0
  -28.6735  -28.5631   21.3801 N   0  0  0  0  0  0  0  0  0  0  0  0
  -31.0391  -13.7730   22.4621 N   0  0  0  0  0  0  0  0  0  0  0  0
  -32.1748  -28.0178   22.0952 N   0  3  0  0  0  0  0  0  0  0  0  0
  -22.4598  -14.8465   20.7070 O   0  0  0  0  0  0  0  0  0  0  0  0
  -23.5339  -28.3761   23.3628 O   0  0  0  0  0  0  0  0  0  0  0  0
  -26.9784  -29.3645   23.2459 O   0  0  0  0  0  0  0  0  0  0  0  0
  -29.8782  -26.5823   21.3327 O   0  0  0  0  0  0  0  0  0  0  0  0
  -32.1462  -12.0924   21.3387 O   0  0  0  0  0  0  0  0  0  0  0  0
  -21.7930   -7.9670   24.2867 O   0  0  0  0  0  0  0  0  0  0  0  0
  -27.5038  -21.5667   23.7368 O   0  0  0  0  0  0  0  0  0  1  0  0
  -22.5683   -2.7493   22.6811 F   0  0  0  0  0  0  0  0  0  0  0  0
  -19.6802   -6.4348   23.3750 F   0  0  0  0  0  0  0  0  0  0  0  0
  1  2  1  0  0  0  0
  1  5  2  0  0  0  0
  2  6  2  0  0  0  0
  3  8  2  0  0  0  0
  3 17  1  0  0  0  0
  4  9  1  0  0  0  0
  4 17  2  0  0  0  0
  5 19  1  0  0  0  0
  6 21  1  0  0  0  0
  7 10  2  0  0  0  0
  7 20  1  0  0  0  0
  8 24  1  0  0  0  0
  9 24  2  0  0  0  0
 10 25  1  0  0  0  0
 11 12  2  0  0  0  0
 11 26  1  0  0  0  0
 12 27  1  0  0  0  0
 13 22  1  0  0  0  0
 13 25  2  0  0  0  0
 14 23  1  0  0  0  0
 14 30  2  0  0  0  0
 15 27  2  0  0  0  0
 15 28  1  0  0  0  0
 16 23  2  0  0  0  0
 16 68  1  0  0  0  0
 17 29  1  0  0  0  0
 18 29  1  0  0  0  0
 18 31  2  0  0  0  0
 18 32  1  0  0  0  0
 19 21  2  0  0  0  0
 19 37  1  0  0  0  0
 20 22  2  0  0  0  0
 20 38  1  0  0  0  0
 21 46  1  0  0  0  0
 22 39  1  0  0  0  0
 23 58  1  0  0  0  0
 24 83  1  0  0  0  0
 25 84  1  0  0  0  0
 26 28  2  0  0  0  0
 26 83  1  0  0  0  0
 27 85  1  0  0  0  0
 28 86  1  0  0  0  0
 29 67  2  0  0  0  0
 30 62  1  0  0  0  0
 30 68  1  0  0  0  0
 31 69  1  0  0  0  0
 31 72  1  0  0  0  0
 32 73  1  0  0  0  0
 32 78  2  0  0  0  0
 33 47  1  0  0  0  0
 33 74  1  0  0  0  0
 33 79  2  0  0  0  0
 34 63  1  0  0  0  0
 34 70  1  0  0  0  0
 34 80  2  0  0  0  0
 35 64  1  0  0  0  0
 35 75  1  0  0  0  0
 35 81  2  0  0  0  0
 36 71  1  0  0  0  0
 36 76  1  0  0  0  0
 36 82  2  0  0  0  0
 37 40  1  0  0  0  0
 38 47  1  0  0  0  0
 39 70  1  0  0  0  0
 40 42  1  0  0  0  0
 41 43  1  0  0  0  0
 41 44  1  0  0  0  0
 42 46  1  0  0  0  0
 43 48  1  0  0  0  0
 44 71  1  0  0  0  0
 45 48  1  0  0  0  0
 45 71  1  0  0  0  0
 46 74  1  0  0  0  0
 47 70  1  0  0  0  0
 48 69  1  0  0  0  0
 49 62  1  0  0  0  0
 50 62  1  0  0  0  0
 51 64  1  0  0  0  0
 52 65  1  0  0  0  0
 53 66  1  0  0  0  0
 54 66  1  0  0  0  0
 55 66  1  0  0  0  0
 56 76  1  0  0  0  0
 57 77  1  0  0  0  0
 58 76  1  0  0  0  0
 59 61  1  0  0  0  0
 59 65  1  0  0  0  0
 60 65  1  0  0  0  0
 60 68  1  0  0  0  0
 61 84  1  0  0  0  0
 63 66  1  0  0  0  0
 63 75  1  0  0  0  0
 64 77  1  0  0  0  0
 67 69  1  0  0  0  0
M  CHG  1  77   1
M  ISO  4  36 100  61 101  76 100  84 101
M  END
> <Batch ID>
0094

> <Smiles>
CNC(C)C(=O)NC(C(=O)N1Cc2cc([101O:1][101CH2:1]CC(C)Cn3cc(C[100N:0](C)[100C:0](=O)N4CCCC(n5nc(-c6ccc(Oc7ccc(F)cc7F)cc6)c(C(N)=O)c5N)C4)cc3C(C)C)ccc2CC1C(=O)NC1CCCc2ccccc21)C(C)(C)C

> <Shape>
0.244

> <Color>
0.151

> <Negative vol penalty>
0.000

$$$$

  -OEChem-04052319193D

 89 97  0     1  0  0  0  0  0999 V2000
  -30.2664  -24.4420   16.4105 C   0  0  0  0  0  0  0  0  0  0  0  0
  -29.4739  -23.5753   17.1562 C   0  0  0  0  0  0  0  0  0  0  0  0
  -22.8169  -14.2326   21.7879 C   0  0  0  0  0  0  0  0  0  0  0  0
  -24.4445  -13.1374   20.3777 C   0  0  0  0  0  0  0  0  0  0  0  0
  -30.4248  -25.7657   16.8188 C   0  0  0  0  0  0  0  0  0  0  0  0
  -28.8401  -24.0316   18.3114 C   0  0  0  0  0  0  0  0  0  0  0  0
  -23.3587  -22.3067   20.4292 C   0  0  0  0  0  0  0  0  0  0  0  0
  -22.6479  -13.0515   22.5103 C   0  0  0  0  0  0  0  0  0  0  0  0
  -24.2755  -11.9562   21.1001 C   0  0  0  0  0  0  0  0  0  0  0  0
  -22.9775  -21.3924   21.4103 C   0  0  0  0  0  0  0  0  0  0  0  0
  -22.0383   -9.4257   21.2496 C   0  0  0  0  0  0  0  0  0  0  0  0
  -21.9097   -8.2382   20.5292 C   0  0  0  0  0  0  0  0  0  0  0  0
  -22.8312  -23.1863   23.0165 C   0  0  0  0  0  0  0  0  0  0  0  0
  -25.9862  -20.9132   24.7555 C   0  0  0  0  0  0  0  0  0  0  0  0
  -23.8781   -7.3619   21.6222 C   0  0  0  0  0  0  0  0  0  0  0  0
  -23.7152  -14.2756   20.7216 C   0  0  0  0  0  0  0  0  0  0  0  0
  -22.9064  -16.1987   19.2536 C   0  0  0  0  0  0  0  0  0  0  0  0
  -29.7849  -26.2409   17.9744 C   0  0  0  0  0  0  0  0  0  0  0  0
  -23.4898  -23.6684   20.7376 C   0  0  0  0  0  0  0  0  0  0  0  0
  -28.9912  -25.3625   18.7364 C   0  0  0  0  0  0  0  0  0  0  0  0
  -23.2117  -24.1162   22.0369 C   0  0  0  0  0  0  0  0  0  0  0  0
  -25.3373  -19.8208   25.3821 C   0  0  0  0  0  0  0  0  0  0  0  0
  -23.3772  -11.9132   22.1664 C   0  0  0  0  0  0  0  0  0  0  0  0
  -22.7164  -21.8318   22.7049 C   0  0  0  0  0  0  0  0  0  0  0  0
  -23.0869   -9.5813   22.1562 C   0  0  0  0  0  0  0  0  0  0  0  0
  -22.8295   -7.2063   20.7155 C   0  0  0  0  0  0  0  0  0  0  0  0
  -24.0067   -8.5494   22.3426 C   0  0  0  0  0  0  0  0  0  0  0  0
  -23.8898  -15.4953   19.9746 C   0  0  0  0  0  0  0  0  0  0  0  0
  -27.2796  -20.5237   24.4859 C   0  0  0  0  0  0  0  0  0  0  0  0
  -26.2541  -18.7970   25.4766 C   0  0  0  0  0  0  0  0  0  0  0  0
  -23.5725  -17.2793   18.7289 C   0  0  0  0  0  0  0  0  0  0  0  0
  -21.5152  -15.9020   19.0741 C   0  0  0  0  0  0  0  0  0  0  0  0
  -25.8866  -25.7559   20.7010 C   0  0  0  0  0  0  0  0  0  0  0  0
  -23.5364  -27.8755   21.4123 C   0  0  0  0  0  0  0  0  0  0  0  0
  -20.5265  -28.8841   23.1270 C   0  0  0  0  0  0  0  0  0  0  0  0
  -28.5118  -20.2257   20.3939 C   0  0  0  0  0  0  0  0  0  0  0  0
  -30.0241  -27.6673   18.4021 C   0  0  0  0  0  0  0  0  0  0  0  0
  -23.8760  -24.6456   19.6614 C   0  0  0  0  0  0  0  0  0  0  0  0
  -23.3182  -25.5704   22.4143 C   0  0  0  0  0  0  0  0  0  0  0  0
  -29.0167  -28.1713   19.4323 C   0  0  0  0  0  0  0  0  0  0  0  0
  -27.9146  -18.6482   17.2584 C   0  0  0  0  0  0  0  0  0  0  0  0
  -28.8257  -27.1409   20.5407 C   0  0  0  0  0  0  0  0  0  0  0  0
  -26.7266  -17.7248   17.5339 C   0  0  0  0  0  0  0  0  0  0  0  0
  -28.8602  -18.7237   18.4551 C   0  0  0  0  0  0  0  0  0  0  0  0
  -27.0286  -18.1651   20.0065 C   0  0  0  0  0  0  0  0  0  0  0  0
  -28.2675  -25.8265   19.9818 C   0  0  1  0  0  0  0  0  0  0  0  0
  -24.4769  -25.9349   20.2127 C   0  0  1  0  0  0  0  0  0  0  0  0
  -26.0175  -18.1005   18.8489 C   0  0  2  0  0  0  0  0  0  0  0  0
  -26.1100  -17.4384   26.0417 C   0  0  0  0  0  0  0  0  0  0  0  0
  -30.5689  -24.3427   24.9251 C   0  0  0  0  0  0  0  0  0  0  0  0
  -29.5256  -19.2658   27.0942 C   0  0  0  0  0  0  0  0  0  0  0  0
  -19.1991  -31.0087   22.9802 C   0  0  0  0  0  0  0  0  0  0  0  0
  -29.0295  -18.2068   23.3695 C   0  0  0  0  0  0  0  0  0  0  0  0
  -25.2220  -28.7527   23.7996 C   0  0  0  0  0  0  0  0  0  0  0  0
  -23.1842  -29.8599   24.7429 C   0  0  0  0  0  0  0  0  0  0  0  0
  -24.1178  -30.6224   22.5589 C   0  0  0  0  0  0  0  0  0  0  0  0
  -18.0375  -27.4207   22.4771 C   0  0  0  0  0  0  0  0  0  0  0  0
  -23.9058  -19.7920   25.8550 C   0  0  0  0  0  0  0  0  0  0  0  0
  -30.1958  -23.0602   24.1973 C   0  0  0  0  0  0  0  0  0  0  0  0
  -29.8270  -19.0736   25.6133 C   0  0  0  0  0  0  0  0  0  0  0  0
  -22.9692  -19.0049   24.9359 C   0  0  0  0  0  0  0  0  0  0  0  0
  -28.8093  -22.5612   24.6201 C   0  0  0  0  0  0  0  0  0  0  0  0
  -28.0302  -21.6427   22.3737 C   0  0  0  0  0  0  0  0  0  0  0  0
  -22.8421  -19.6095   23.5425 C   0  0  0  0  0  0  0  0  0  1  0  0
  -28.3792  -21.2728   23.8437 C   0  0  2  0  0  0  0  0  0  0  0  0
  -22.9193  -28.3999   22.6863 C   0  0  1  0  0  0  0  0  0  0  0  0
  -19.3165  -29.5659   22.5142 C   0  0  2  0  0  0  0  0  0  0  0  0
  -28.6488  -18.4582   24.8325 C   0  0  1  0  0  0  0  0  0  0  0  0
  -23.8606  -29.3810   23.4406 C   0  0  0  0  0  0  0  0  0  0  0  0
  -25.0893  -16.0797   19.9155 N   0  0  0  0  0  0  0  0  0  0  0  0
  -27.4312  -19.2357   24.9289 N   0  0  0  0  0  0  0  0  0  0  0  0
  -24.8641  -17.1618   19.1509 N   0  0  0  0  0  0  0  0  0  0  0  0
  -23.7053  -26.4862   21.3285 N   0  0  0  0  0  0  0  0  0  0  0  0
  -28.1256  -19.0859   19.6697 N   0  0  0  0  0  0  0  0  0  0  0  0
  -23.1735  -18.3089   17.9524 N   0  0  0  0  0  0  0  0  0  0  0  0
  -20.5971  -16.4194   19.9981 N   0  0  0  0  0  0  0  0  0  0  0  0
  -26.8480  -25.9480   19.7272 N   0  0  0  0  0  0  0  0  0  0  0  0
  -21.6332  -28.9765   22.3098 N   0  0  0  0  0  0  0  0  0  0  0  0
  -27.7588  -20.5011   21.5288 N   0  0  0  0  0  0  0  0  0  0  0  0
  -18.0683  -28.8461   22.8948 N   0  3  0  0  0  0  0  0  0  0  0  0
  -21.1003  -15.1853   18.1320 O   0  0  0  0  0  0  0  0  0  0  0  0
  -26.0873  -25.4664   21.8748 O   0  0  0  0  0  0  0  0  0  0  0  0
  -23.8502  -28.6688   20.5212 O   0  0  0  0  0  0  0  0  0  0  0  0
  -20.4942  -28.3287   24.2229 O   0  0  0  0  0  0  0  0  0  0  0  0
  -29.4543  -20.9478   20.0514 O   0  0  0  0  0  0  0  0  0  0  0  0
  -23.2127  -10.7605   22.8713 O   0  0  0  0  0  0  0  0  0  0  0  0
  -22.3448  -20.9414   23.6646 O   0  0  0  0  0  0  0  0  0  1  0  0
  -22.7050   -6.0655   20.0248 F   0  0  0  0  0  0  0  0  0  0  0  0
  -25.0154   -8.6926   23.2131 F   0  0  0  0  0  0  0  0  0  0  0  0
  1  2  1  0  0  0  0
  1  5  2  0  0  0  0
  2  6  2  0  0  0  0
  3  8  2  0  0  0  0
  3 16  1  0  0  0  0
  4  9  1  0  0  0  0
  4 16  2  0  0  0  0
  5 18  1  0  0  0  0
  6 20  1  0  0  0  0
  7 10  2  0  0  0  0
  7 19  1  0  0  0  0
  8 23  1  0  0  0  0
  9 23  2  0  0  0  0
 10 24  1  0  0  0  0
 11 12  2  0  0  0  0
 11 25  1  0  0  0  0
 12 26  1  0  0  0  0
 13 21  1  0  0  0  0
 13 24  2  0  0  0  0
 14 22  1  0  0  0  0
 14 29  2  0  0  0  0
 15 26  2  0  0  0  0
 15 27  1  0  0  0  0
 16 28  1  0  0  0  0
 17 28  1  0  0  0  0
 17 31  2  0  0  0  0
 17 32  1  0  0  0  0
 18 20  2  0  0  0  0
 18 37  1  0  0  0  0
 19 21  2  0  0  0  0
 19 38  1  0  0  0  0
 20 46  1  0  0  0  0
 21 39  1  0  0  0  0
 22 30  2  0  0  0  0
 22 58  1  0  0  0  0
 23 86  1  0  0  0  0
 24 87  1  0  0  0  0
 25 27  2  0  0  0  0
 25 86  1  0  0  0  0
 26 88  1  0  0  0  0
 27 89  1  0  0  0  0
 28 70  2  0  0  0  0
 29 65  1  0  0  0  0
 29 71  1  0  0  0  0
 30 49  1  0  0  0  0
 30 71  1  0  0  0  0
 31 72  1  0  0  0  0
 31 75  1  0  0  0  0
 32 76  1  0  0  0  0
 32 81  2  0  0  0  0
 33 47  1  0  0  0  0
 33 77  1  0  0  0  0
 33 82  2  0  0  0  0
 34 66  1  0  0  0  0
 34 73  1  0  0  0  0
 34 83  2  0  0  0  0
 35 67  1  0  0  0  0
 35 78  1  0  0  0  0
 35 84  2  0  0  0  0
 36 74  1  0  0  0  0
 36 79  1  0  0  0  0
 36 85  2  0  0  0  0
 37 40  1  0  0  0  0
 38 47  1  0  0  0  0
 39 73  1  0  0  0  0
 40 42  1  0  0  0  0
 41 43  1  0  0  0  0
 41 44  1  0  0  0  0
 42 46  1  0  0  0  0
 43 48  1  0  0  0  0
 44 74  1  0  0  0  0
 45 48  1  0  0  0  0
 45 74  1  0  0  0  0
 46 77  1  0  0  0  0
 47 73  1  0  0  0  0
 48 72  1  0  0  0  0
 50 59  1  0  0  0  0
 51 60  1  0  0  0  0
 52 67  1  0  0  0  0
 53 68  1  0  0  0  0
 54 69  1  0  0  0  0
 55 69  1  0  0  0  0
 56 69  1  0  0  0  0
 57 80  1  0  0  0  0
 58 61  1  0  0  0  0
 59 62  1  0  0  0  0
 60 68  1  0  0  0  0
 61 64  1  0  0  0  0
 62 65  1  0  0  0  0
 63 65  1  0  0  0  0
 63 79  1  0  0  0  0
 64 87  1  0  0  0  0
 66 69  1  0  0  0  0
 66 78  1  0  0  0  0
 67 80  1  0  0  0  0
 68 71  1  0  0  0  0
 70 72  1  0  0  0  0
M  CHG  1  80   1
M  ISO  4  36 100  64 101  79 100  87 101
M  END
> <Batch ID>
0094

> <Smiles>
CCCC(C[100NH:0][100C:0](=O)N1CCCC(n2nc(-c3ccc(Oc4ccc(F)cc4F)cc3)c(C(N)=O)c2N)C1)c1cc(CC[101CH2:1][101O:1]c2ccc3c(c2)CN(C(=O)C(NC(=O)C(C)NC)C(C)(C)C)C(C(=O)NC2CCCc4ccccc42)C3)c(C)n1C(C)CC

> <Shape>
0.211

> <Color>
0.044

> <Negative vol penalty>
0.000

$$$$

  -OEChem-04052319193D

 77 84  0     1  0  0  0  0  0999 V2000
  -16.8454  -30.7862   23.0453 C   0  0  0  0  0  0  0  0  0  0  0  0
  -17.9328  -31.1039   22.2379 C   0  0  0  0  0  0  0  0  0  0  0  0
  -28.4203  -17.5118   20.4620 C   0  0  0  0  0  0  0  0  0  0  0  0
  -30.8146  -17.7766   20.2778 C   0  0  0  0  0  0  0  0  0  0  0  0
  -17.0294  -30.0034   24.1843 C   0  0  0  0  0  0  0  0  0  0  0  0
  -19.2052  -30.6398   22.5697 C   0  0  0  0  0  0  0  0  0  0  0  0
  -25.3256  -28.4788   19.5385 C   0  0  0  0  0  0  0  0  0  0  0  0
  -28.5529  -16.1445   20.2204 C   0  0  0  0  0  0  0  0  0  0  0  0
  -30.9473  -16.4093   20.0362 C   0  0  0  0  0  0  0  0  0  0  0  0
  -26.6966  -28.7277   19.5839 C   0  0  0  0  0  0  0  0  0  0  0  0
  -29.0222  -14.1206   17.5543 C   0  0  0  0  0  0  0  0  0  0  0  0
  -28.1367  -13.5341   16.6502 C   0  0  0  0  0  0  0  0  0  0  0  0
  -26.8821  -27.3170   21.5319 C   0  0  0  0  0  0  0  0  0  0  0  0
  -27.3406  -12.0567   18.3882 C   0  0  0  0  0  0  0  0  0  0  0  0
  -29.5512  -18.3279   20.4906 C   0  0  0  0  0  0  0  0  0  0  0  0
  -29.4392  -20.3900   21.9883 C   0  0  0  0  0  0  0  0  0  0  0  0
  -18.3031  -29.5214   24.5249 C   0  0  0  0  0  0  0  0  0  0  0  0
  -24.7197  -27.6545   20.4975 C   0  0  0  0  0  0  0  0  0  0  0  0
  -19.4067  -29.8509   23.7150 C   0  0  0  0  0  0  0  0  0  0  0  0
  -25.5036  -27.0571   21.4949 C   0  0  0  0  0  0  0  0  0  0  0  0
  -29.8164  -15.5932   20.0075 C   0  0  0  0  0  0  0  0  0  0  0  0
  -27.4746  -28.1491   20.5824 C   0  0  0  0  0  0  0  0  0  0  0  0
  -29.0670  -13.6751   18.8754 C   0  0  0  0  0  0  0  0  0  0  0  0
  -27.2959  -12.5022   17.0671 C   0  0  0  0  0  0  0  0  0  0  0  0
  -28.2262  -12.6432   19.2923 C   0  0  0  0  0  0  0  0  0  0  0  0
  -29.4148  -19.7406   20.7395 C   0  0  0  0  0  0  0  0  0  0  0  0
  -29.2699  -21.7193   21.6874 C   0  0  0  0  0  0  0  0  0  0  0  0
  -29.6006  -19.8406   23.3028 C   0  0  0  0  0  0  0  0  0  0  0  0
  -22.4864  -28.0674   22.7214 C   0  0  0  0  0  0  0  0  0  0  0  0
  -22.8058  -24.8596   23.0828 C   0  0  0  0  0  0  0  0  0  0  0  0
  -24.7572  -22.0833   22.7205 C   0  0  0  0  0  0  0  0  0  0  0  0
  -30.4590  -26.1936   18.5709 C   0  0  0  0  0  0  0  0  0  0  0  0
  -18.4605  -28.7181   25.7916 C   0  0  0  0  0  0  0  0  0  0  0  0
  -23.2439  -27.3745   20.4188 C   0  0  0  0  0  0  0  0  0  0  0  0
  -24.9048  -26.1482   22.5360 C   0  0  0  0  0  0  0  0  0  0  0  0
  -19.7796  -27.9537   25.8681 C   0  0  0  0  0  0  0  0  0  0  0  0
  -27.9569  -23.9725   17.3532 C   0  0  0  0  0  0  0  0  0  0  0  0
  -20.9438  -28.8572   25.4744 C   0  0  0  0  0  0  0  0  0  0  0  0
  -28.1194  -22.7255   18.2241 C   0  0  0  0  0  0  0  0  0  0  0  0
  -29.3030  -24.6235   17.0429 C   0  0  0  0  0  0  0  0  0  0  0  0
  -30.2914  -23.6851   19.0962 C   0  0  0  0  0  0  0  0  0  0  0  0
  -20.7984  -29.3456   24.0281 C   0  0  1  0  0  0  0  0  0  0  0  0
  -22.6479  -26.9313   21.7514 C   0  0  1  0  0  0  0  0  0  0  0  0
  -28.9564  -23.0255   19.4822 C   0  0  2  0  0  0  0  0  0  0  0  0
  -25.3699  -19.6499   22.7348 C   0  0  0  0  0  0  0  0  0  0  0  0
  -23.2701  -25.3668   26.0556 C   0  0  0  0  0  0  0  0  0  0  0  0
  -24.1889  -23.0450   26.2370 C   0  0  0  0  0  0  0  0  0  0  0  0
  -21.8172  -23.3956   25.5480 C   0  0  0  0  0  0  0  0  0  0  0  0
  -31.7943  -27.3913   22.7247 C   0  0  0  0  0  0  0  0  0  0  0  0
  -23.8094  -21.7091   19.9419 C   0  0  0  0  0  0  0  0  0  0  0  0
  -31.6365  -27.6422   20.2062 C   0  0  0  0  0  0  0  0  0  0  0  0
  -31.2817  -29.6262   21.6765 C   0  0  0  0  0  0  0  0  0  0  0  0
  -29.5495  -27.7655   21.6796 C   0  0  0  0  0  0  0  0  0  1  0  0
  -23.6747  -23.9603   23.9286 C   0  0  1  0  0  0  0  0  0  0  0  0
  -24.4612  -20.7132   22.1378 C   0  0  2  0  0  0  0  0  0  0  0  0
  -23.2490  -23.9606   25.4240 C   0  0  0  0  0  0  0  0  0  0  0  0
  -31.0567  -28.0971   21.5687 C   0  0  2  0  0  0  0  0  0  0  0  0
  -29.2432  -20.5876   19.7212 N   0  0  0  0  0  0  0  0  0  0  0  0
  -29.1583  -21.7829   20.3296 N   0  0  0  0  0  0  0  0  0  0  0  0
  -23.4566  -25.9102   22.4205 N   0  0  0  0  0  0  0  0  0  0  0  0
  -30.0462  -24.8833   18.2782 N   0  0  0  0  0  0  0  0  0  0  0  0
  -29.2070  -22.8284   22.4545 N   0  0  0  0  0  0  0  0  0  0  0  0
  -29.7631  -18.4546   23.4324 N   0  0  0  0  0  0  0  0  0  0  0  0
  -21.1785  -28.3012   23.1012 N   0  0  0  0  0  0  0  0  0  0  0  0
  -23.6380  -22.6457   23.2971 N   0  0  0  0  0  0  0  0  0  0  0  0
  -31.1523  -26.3534   19.7645 N   0  0  0  0  0  0  0  0  0  0  0  0
  -24.6587  -20.7248   20.6607 N   0  3  0  0  0  0  0  0  0  0  0  0
  -29.5843  -20.5558   24.3332 O   0  0  0  0  0  0  0  0  0  0  0  0
  -23.4753  -28.6851   23.0985 O   0  0  0  0  0  0  0  0  0  0  0  0
  -21.5955  -24.6338   23.0067 O   0  0  0  0  0  0  0  0  0  0  0  0
  -25.8707  -22.6012   22.6725 O   0  0  0  0  0  0  0  0  0  0  0  0
  -30.2224  -27.1510   17.8265 O   0  0  0  0  0  0  0  0  0  0  0  0
  -30.7936  -30.1315   22.9130 O   0  0  0  0  0  0  0  0  0  0  0  0
  -29.9462  -14.2589   19.7720 O   0  0  0  0  0  0  0  0  0  0  0  0
  -28.8130  -28.3909   20.6295 O   0  0  0  0  0  0  0  0  0  1  0  0
  -26.4445  -11.9401   16.1992 F   0  0  0  0  0  0  0  0  0  0  0  0
  -28.2639  -12.2118   20.5605 F   0  0  0  0  0  0  0  0  0  0  0  0
  1  2  1  0  0  0  0
  1  5  2  0  0  0  0
  2  6  2  0  0  0  0
  3  8  2  0  0  0  0
  3 15  1  0  0  0  0
  4  9  1  0  0  0  0
  4 15  2  0  0  0  0
  5 17  1  0  0  0  0
  6 19  1  0  0  0  0
  7 10  2  0  0  0  0
  7 18  1  0  0  0  0
  8 21  1  0  0  0  0
  9 21  2  0  0  0  0
 10 22  1  0  0  0  0
 11 12  2  0  0  0  0
 11 23  1  0  0  0  0
 12 24  1  0  0  0  0
 13 20  1  0  0  0  0
 13 22  2  0  0  0  0
 14 24  2  0  0  0  0
 14 25  1  0  0  0  0
 15 26  1  0  0  0  0
 16 26  1  0  0  0  0
 16 27  2  0  0  0  0
 16 28  1  0  0  0  0
 17 19  2  0  0  0  0
 17 33  1  0  0  0  0
 18 20  2  0  0  0  0
 18 34  1  0  0  0  0
 19 42  1  0  0  0  0
 20 35  1  0  0  0  0
 21 74  1  0  0  0  0
 22 75  1  0  0  0  0
 23 25  2  0  0  0  0
 23 74  1  0  0  0  0
 24 76  1  0  0  0  0
 25 77  1  0  0  0  0
 26 58  2  0  0  0  0
 27 59  1  0  0  0  0
 27 62  1  0  0  0  0
 28 63  1  0  0  0  0
 28 68  2  0  0  0  0
 29 43  1  0  0  0  0
 29 64  1  0  0  0  0
 29 69  2  0  0  0  0
 30 54  1  0  0  0  0
 30 60  1  0  0  0  0
 30 70  2  0  0  0  0
 31 55  1  0  0  0  0
 31 65  1  0  0  0  0
 31 71  2  0  0  0  0
 32 61  1  0  0  0  0
 32 66  1  0  0  0  0
 32 72  2  0  0  0  0
 33 36  1  0  0  0  0
 34 43  1  0  0  0  0
 35 60  1  0  0  0  0
 36 38  1  0  0  0  0
 37 39  1  0  0  0  0
 37 40  1  0  0  0  0
 38 42  1  0  0  0  0
 39 44  1  0  0  0  0
 40 61  1  0  0  0  0
 41 44  1  0  0  0  0
 41 61  1  0  0  0  0
 42 64  1  0  0  0  0
 43 60  1  0  0  0  0
 44 59  1  0  0  0  0
 45 55  1  0  0  0  0
 46 56  1  0  0  0  0
 47 56  1  0  0  0  0
 48 56  1  0  0  0  0
 49 57  1  0  0  0  0
 50 67  1  0  0  0  0
 51 57  1  0  0  0  0
 51 66  1  0  0  0  0
 52 57  1  0  0  0  0
 52 73  1  0  0  0  0
 53 57  1  0  0  0  0
 53 75  1  0  0  0  0
 54 56  1  0  0  0  0
 54 65  1  0  0  0  0
 55 67  1  0  0  0  0
 58 59  1  0  0  0  0
M  CHG  1  67   1
M  ISO  4  32 100  53 101  66 100  75 101
M  END
> <Batch ID>
0094

> <Smiles>
CNC(C)C(=O)NC(C(=O)N1Cc2cc([101O:1][101CH2:1]C(C)(CO)C[100NH:0][100C:0](=O)N3CCCC(n4nc(-c5ccc(Oc6ccc(F)cc6F)cc5)c(C(N)=O)c4N)C3)ccc2CC1C(=O)NC1CCCc2ccccc21)C(C)(C)C

> <Shape>
0.230

> <Color>
0.062

> <Negative vol penalty>
0.000

$$$$

  -OEChem-04052319193D

 88 96  0     1  0  0  0  0  0999 V2000
  -29.5517  -22.8808   17.4483 C   0  0  0  0  0  0  0  0  0  0  0  0
  -28.2636  -23.3935   17.5643 C   0  0  0  0  0  0  0  0  0  0  0  0
  -26.8748  -12.7595   21.0276 C   0  0  0  0  0  0  0  0  0  0  0  0
  -26.5790  -13.3010   18.6917 C   0  0  0  0  0  0  0  0  0  0  0  0
  -30.4149  -22.9133   18.5428 C   0  0  0  0  0  0  0  0  0  0  0  0
  -27.8376  -23.9380   18.7753 C   0  0  0  0  0  0  0  0  0  0  0  0
  -25.3694  -28.3188   18.1742 C   0  0  0  0  0  0  0  0  0  0  0  0
  -26.2845  -11.5139   20.8136 C   0  0  0  0  0  0  0  0  0  0  0  0
  -25.9887  -12.0554   18.4777 C   0  0  0  0  0  0  0  0  0  0  0  0
  -24.0439  -28.2495   17.7474 C   0  0  0  0  0  0  0  0  0  0  0  0
  -24.5287   -8.3326   20.9553 C   0  0  0  0  0  0  0  0  0  0  0  0
  -23.5778   -7.8968   21.8780 C   0  0  0  0  0  0  0  0  0  0  0  0
  -23.3016  -28.5690   20.0203 C   0  0  0  0  0  0  0  0  0  0  0  0
  -20.7128  -21.4843   16.5078 C   0  0  0  0  0  0  0  0  0  0  0  0
  -22.8668  -20.4329   16.7065 C   0  0  0  0  0  0  0  0  0  0  0  0
  -22.2115   -9.8266   21.3816 C   0  0  0  0  0  0  0  0  0  0  0  0
  -27.0220  -13.6530   19.9666 C   0  0  0  0  0  0  0  0  0  0  0  0
  -28.9981  -15.2617   20.0885 C   0  0  0  0  0  0  0  0  0  0  0  0
  -30.0025  -23.4672   19.7649 C   0  0  0  0  0  0  0  0  0  0  0  0
  -25.6714  -28.5032   19.5311 C   0  0  0  0  0  0  0  0  0  0  0  0
  -28.6956  -23.9767   19.8875 C   0  0  0  0  0  0  0  0  0  0  0  0
  -24.6317  -28.6429   20.4614 C   0  0  0  0  0  0  0  0  0  0  0  0
  -21.5279  -20.3708   16.3368 C   0  0  0  0  0  0  0  0  0  0  0  0
  -25.8415  -11.1619   19.5387 C   0  0  0  0  0  0  0  0  0  0  0  0
  -23.0098  -28.3717   18.6708 C   0  0  0  0  0  0  0  0  0  0  0  0
  -24.3210   -9.5155   20.2457 C   0  0  0  0  0  0  0  0  0  0  0  0
  -22.4192   -8.6437   22.0912 C   0  0  0  0  0  0  0  0  0  0  0  0
  -23.1625  -10.2624   20.4589 C   0  0  0  0  0  0  0  0  0  0  0  0
  -27.6312  -14.9400   20.1872 C   0  0  0  0  0  0  0  0  0  0  0  0
  -21.2806  -22.6267   17.0485 C   0  0  0  0  0  0  0  0  0  0  0  0
  -23.3382  -21.6224   17.2381 C   0  0  0  0  0  0  0  0  0  0  0  0
  -29.0586  -16.6002   20.3903 C   0  0  0  0  0  0  0  0  0  0  0  0
  -30.1135  -14.4252   19.7538 C   0  0  0  0  0  0  0  0  0  0  0  0
  -27.2057  -26.8066   21.7382 C   0  0  0  0  0  0  0  0  0  0  0  0
  -26.7457  -29.4636   23.5413 C   0  0  0  0  0  0  0  0  0  0  0  0
  -24.9263  -32.2920   24.1213 C   0  0  0  0  0  0  0  0  0  0  0  0
  -25.0692  -21.0492   20.0132 C   0  0  0  0  0  0  0  0  0  0  0  0
  -30.9551  -23.4371   20.9338 C   0  0  0  0  0  0  0  0  0  0  0  0
  -27.1062  -28.6025   19.9717 C   0  0  0  0  0  0  0  0  0  0  0  0
  -24.9027  -28.8625   21.9266 C   0  0  0  0  0  0  0  0  0  0  0  0
  -30.5522  -24.3712   22.0721 C   0  0  0  0  0  0  0  0  0  0  0  0
  -26.8051  -19.9717   22.9291 C   0  0  0  0  0  0  0  0  0  0  0  0
  -29.0675  -24.2192   22.3873 C   0  0  0  0  0  0  0  0  0  0  0  0
  -27.3370  -18.5890   22.5481 C   0  0  0  0  0  0  0  0  0  0  0  0
  -25.4273  -20.2327   22.3244 C   0  0  0  0  0  0  0  0  0  0  0  0
  -25.8770  -18.6570   20.4835 C   0  0  0  0  0  0  0  0  0  0  0  0
  -28.2051  -24.5981   21.1772 C   0  0  1  0  0  0  0  0  0  0  0  0
  -27.3013  -28.2781   21.4495 C   0  0  1  0  0  0  0  0  0  0  0  0
  -27.2883  -18.3699   21.0240 C   0  0  2  0  0  0  0  0  0  0  0  0
  -19.8093  -16.9147   16.2518 C   0  0  0  0  0  0  0  0  0  0  0  0
  -24.7661  -34.2441   25.6901 C   0  0  0  0  0  0  0  0  0  0  0  0
  -25.4826  -27.6596   25.6531 C   0  0  0  0  0  0  0  0  0  0  0  0
  -24.5114  -29.7058   26.7199 C   0  0  0  0  0  0  0  0  0  0  0  0
  -26.9866  -29.4378   26.5644 C   0  0  0  0  0  0  0  0  0  0  0  0
  -19.6677  -26.7472   14.7164 C   0  0  0  0  0  0  0  0  0  0  0  0
  -18.0745  -25.6223   16.2786 C   0  0  0  0  0  0  0  0  0  0  0  0
  -25.4088  -34.2332   21.9400 C   0  0  0  0  0  0  0  0  0  0  0  0
  -20.9679  -19.1147   15.7603 C   0  0  0  0  0  0  0  0  0  0  0  0
  -20.4257  -23.8546   17.2502 C   0  0  0  0  0  0  0  0  0  0  0  0
  -24.7705  -21.7251   17.6440 C   0  0  0  0  0  0  0  0  0  0  0  0
  -20.4107  -18.1793   16.8442 C   0  0  0  0  0  0  0  0  0  0  0  0
  -20.4509  -24.7617   16.0124 C   0  0  0  0  0  0  0  0  0  0  0  0
  -20.0161  -26.9620   17.2259 C   0  0  0  0  0  0  0  0  0  0  0  0
  -21.4411  -27.4988   17.1110 C   0  0  0  0  0  0  0  0  0  1  0  0
  -25.6615  -29.9489   24.4728 C   0  0  1  0  0  0  0  0  0  0  0  0
  -25.3498  -33.7258   24.3850 C   0  0  2  0  0  0  0  0  0  0  0  0
  -25.6551  -29.1819   25.8253 C   0  0  0  0  0  0  0  0  0  0  0  0
  -19.5459  -26.0296   16.0776 C   0  0  0  0  0  0  0  0  0  0  0  0
  -26.8776  -15.9897   20.5254 N   0  0  0  0  0  0  0  0  0  0  0  0
  -22.5769  -22.7248   17.4194 N   0  0  0  0  0  0  0  0  0  0  0  0
  -27.7742  -16.9840   20.6420 N   0  0  0  0  0  0  0  0  0  0  0  0
  -26.3219  -28.9462   22.3090 N   0  0  0  0  0  0  0  0  0  0  0  0
  -25.4497  -20.0088   20.8768 N   0  0  0  0  0  0  0  0  0  0  0  0
  -30.0846  -17.4746   20.4624 N   0  0  0  0  0  0  0  0  0  0  0  0
  -29.8740  -13.0735   19.4715 N   0  0  0  0  0  0  0  0  0  0  0  0
  -28.1217  -26.0370   21.0467 N   0  0  0  0  0  0  0  0  0  0  0  0
  -25.8504  -31.3896   24.6038 N   0  0  0  0  0  0  0  0  0  0  0  0
  -25.1252  -20.7554   18.6563 N   0  0  0  0  0  0  0  0  0  0  0  0
  -24.8904  -34.6133   23.2794 N   0  3  0  0  0  0  0  0  0  0  0  0
  -31.2898  -14.8599   19.7225 O   0  0  0  0  0  0  0  0  0  0  0  0
  -26.3643  -26.3997   22.5308 O   0  0  0  0  0  0  0  0  0  0  0  0
  -27.9257  -29.5473   23.8910 O   0  0  0  0  0  0  0  0  0  0  0  0
  -23.8786  -32.0017   23.5482 O   0  0  0  0  0  0  0  0  0  0  0  0
  -24.7116  -22.1595   20.4210 O   0  0  0  0  0  0  0  0  0  0  0  0
  -25.2656   -9.9465   19.3294 O   0  0  0  0  0  0  0  0  0  0  0  0
  -21.7152  -28.3037   18.2570 O   0  0  0  0  0  0  0  0  0  1  0  0
  -21.5054   -8.2242   22.9762 F   0  0  0  0  0  0  0  0  0  0  0  0
  -22.9569  -11.3990   19.7794 F   0  0  0  0  0  0  0  0  0  0  0  0
  1  2  1  0  0  0  0
  1  5  2  0  0  0  0
  2  6  2  0  0  0  0
  3  8  2  0  0  0  0
  3 17  1  0  0  0  0
  4  9  1  0  0  0  0
  4 17  2  0  0  0  0
  5 19  1  0  0  0  0
  6 21  1  0  0  0  0
  7 10  2  0  0  0  0
  7 20  1  0  0  0  0
  8 24  1  0  0  0  0
  9 24  2  0  0  0  0
 10 25  1  0  0  0  0
 11 12  2  0  0  0  0
 11 26  1  0  0  0  0
 12 27  1  0  0  0  0
 13 22  1  0  0  0  0
 13 25  2  0  0  0  0
 14 23  1  0  0  0  0
 14 30  2  0  0  0  0
 15 23  2  0  0  0  0
 15 31  1  0  0  0  0
 16 27  2  0  0  0  0
 16 28  1  0  0  0  0
 17 29  1  0  0  0  0
 18 29  1  0  0  0  0
 18 32  2  0  0  0  0
 18 33  1  0  0  0  0
 19 21  2  0  0  0  0
 19 38  1  0  0  0  0
 20 22  2  0  0  0  0
 20 39  1  0  0  0  0
 21 47  1  0  0  0  0
 22 40  1  0  0  0  0
 23 58  1  0  0  0  0
 24 85  1  0  0  0  0
 25 86  1  0  0  0  0
 26 28  2  0  0  0  0
 26 85  1  0  0  0  0
 27 87  1  0  0  0  0
 28 88  1  0  0  0  0
 29 69  2  0  0  0  0
 30 59  1  0  0  0  0
 30 70  1  0  0  0  0
 31 60  1  0  0  0  0
 31 70  2  0  0  0  0
 32 71  1  0  0  0  0
 32 74  1  0  0  0  0
 33 75  1  0  0  0  0
 33 80  2  0  0  0  0
 34 48  1  0  0  0  0
 34 76  1  0  0  0  0
 34 81  2  0  0  0  0
 35 65  1  0  0  0  0
 35 72  1  0  0  0  0
 35 82  2  0  0  0  0
 36 66  1  0  0  0  0
 36 77  1  0  0  0  0
 36 83  2  0  0  0  0
 37 73  1  0  0  0  0
 37 78  1  0  0  0  0
 37 84  2  0  0  0  0
 38 41  1  0  0  0  0
 39 48  1  0  0  0  0
 40 72  1  0  0  0  0
 41 43  1  0  0  0  0
 42 44  1  0  0  0  0
 42 45  1  0  0  0  0
 43 47  1  0  0  0  0
 44 49  1  0  0  0  0
 45 73  1  0  0  0  0
 46 49  1  0  0  0  0
 46 73  1  0  0  0  0
 47 76  1  0  0  0  0
 48 72  1  0  0  0  0
 49 71  1  0  0  0  0
 50 61  1  0  0  0  0
 51 66  1  0  0  0  0
 52 67  1  0  0  0  0
 53 67  1  0  0  0  0
 54 67  1  0  0  0  0
 55 68  1  0  0  0  0
 56 68  1  0  0  0  0
 57 79  1  0  0  0  0
 58 61  1  0  0  0  0
 59 62  1  0  0  0  0
 60 78  1  0  0  0  0
 62 68  1  0  0  0  0
 63 64  1  0  0  0  0
 63 68  1  0  0  0  0
 64 86  1  0  0  0  0
 65 67  1  0  0  0  0
 65 77  1  0  0  0  0
 66 79  1  0  0  0  0
 69 71  1  0  0  0  0
M  CHG  1  79   1
M  ISO  4  37 100  64 101  78 100  86 101
M  END
> <Batch ID>
0094

> <Smiles>
CCCc1cc(CCC(C)(C)C[101CH2:1][101O:1]c2ccc3c(c2)CN(C(=O)C(NC(=O)C(C)NC)C(C)(C)C)C(C(=O)NC2CCCc4ccccc42)C3)nc(C[100NH:0][100C:0](=O)N2CCCC(n3nc(-c4ccc(Oc5ccc(F)cc5F)cc4)c(C(N)=O)c3N)C2)c1

> <Shape>
0.226

> <Color>
0.073

> <Negative vol penalty>
0.000

$$$$

  -OEChem-04052319193D

 82 89  0     1  0  0  0  0  0999 V2000
  -27.9267  -20.7315   25.8022 C   0  0  0  0  0  0  0  0  0  0  0  0
  -28.4598  -22.0139   25.7375 C   0  0  0  0  0  0  0  0  0  0  0  0
  -26.6690  -12.0501   21.3744 C   0  0  0  0  0  0  0  0  0  0  0  0
  -26.0548  -13.2598   19.3753 C   0  0  0  0  0  0  0  0  0  0  0  0
  -26.7953  -20.4126   25.0544 C   0  0  0  0  0  0  0  0  0  0  0  0
  -27.8546  -22.9811   24.9343 C   0  0  0  0  0  0  0  0  0  0  0  0
  -29.5951  -27.5706   25.2671 C   0  0  0  0  0  0  0  0  0  0  0  0
  -25.4623  -11.3524   21.3229 C   0  0  0  0  0  0  0  0  0  0  0  0
  -24.8481  -12.5621   19.3238 C   0  0  0  0  0  0  0  0  0  0  0  0
  -30.8343  -27.9461   24.7502 C   0  0  0  0  0  0  0  0  0  0  0  0
  -23.7774   -9.5100   18.3445 C   0  0  0  0  0  0  0  0  0  0  0  0
  -23.3742   -9.0060   17.1080 C   0  0  0  0  0  0  0  0  0  0  0  0
  -29.7294  -29.0000   22.8827 C   0  0  0  0  0  0  0  0  0  0  0  0
  -21.3611  -10.3369   17.2219 C   0  0  0  0  0  0  0  0  0  0  0  0
  -26.9653  -13.0039   20.4006 C   0  0  0  0  0  0  0  0  0  0  0  0
  -29.4322  -13.3585   19.8562 C   0  0  0  0  0  0  0  0  0  0  0  0
  -26.1839  -21.3734   24.2322 C   0  0  0  0  0  0  0  0  0  0  0  0
  -28.4122  -27.8981   24.5888 C   0  0  0  0  0  0  0  0  0  0  0  0
  -26.6980  -22.6855   24.1905 C   0  0  0  0  0  0  0  0  0  0  0  0
  -28.4763  -28.6297   23.3943 C   0  0  0  0  0  0  0  0  0  0  0  0
  -24.5519  -11.6084   20.2976 C   0  0  0  0  0  0  0  0  0  0  0  0
  -30.9018  -28.6584   23.5564 C   0  0  0  0  0  0  0  0  0  0  0  0
  -22.9724  -10.4275   19.0198 C   0  0  0  0  0  0  0  0  0  0  0  0
  -22.1661   -9.4195   16.5467 C   0  0  0  0  0  0  0  0  0  0  0  0
  -21.7642  -10.8409   18.4585 C   0  0  0  0  0  0  0  0  0  0  0  0
  -28.2114  -13.7254   20.4535 C   0  0  0  0  0  0  0  0  0  0  0  0
  -30.2991  -14.3671   20.1992 C   0  0  0  0  0  0  0  0  0  0  0  0
  -29.7538  -12.2087   19.0622 C   0  0  0  0  0  0  0  0  0  0  0  0
  -26.0553  -26.2321   23.2572 C   0  0  0  0  0  0  0  0  0  0  0  0
  -24.7262  -29.1653   22.8669 C   0  0  0  0  0  0  0  0  0  0  0  0
  -25.1770  -32.5367   22.5896 C   0  0  0  0  0  0  0  0  0  0  0  0
  -29.3918  -20.0386   21.5654 C   0  0  0  0  0  0  0  0  0  0  0  0
  -24.9567  -20.9764   23.4502 C   0  0  0  0  0  0  0  0  0  0  0  0
  -27.0821  -27.5089   25.1733 C   0  0  0  0  0  0  0  0  0  0  0  0
  -27.2347  -29.0235   22.6381 C   0  0  0  0  0  0  0  0  0  0  0  0
  -24.6525  -21.9281   22.2978 C   0  0  0  0  0  0  0  0  0  0  0  0
  -31.1052  -17.6078   23.6277 C   0  0  0  0  0  0  0  0  0  0  0  0
  -24.6779  -23.3669   22.7913 C   0  0  0  0  0  0  0  0  0  0  0  0
  -30.6650  -16.2942   22.9790 C   0  0  0  0  0  0  0  0  0  0  0  0
  -29.9718  -18.6294   23.6319 C   0  0  0  0  0  0  0  0  0  0  0  0
  -28.9516  -17.6007   21.6383 C   0  0  0  0  0  0  0  0  0  0  0  0
  -26.0747  -23.7452   23.3001 C   0  0  1  0  0  0  0  0  0  0  0  0
  -25.9671  -27.4493   24.1338 C   0  0  1  0  0  0  0  0  0  0  0  0
  -30.0602  -16.5339   21.5829 C   0  0  2  0  0  0  0  0  0  0  0  0
  -23.9058  -34.6719   22.2396 C   0  0  0  0  0  0  0  0  0  0  0  0
  -34.7797  -29.7115   22.0929 C   0  0  0  0  0  0  0  0  0  0  0  0
  -24.4192  -28.4943   19.9062 C   0  0  0  0  0  0  0  0  0  0  0  0
  -24.0531  -30.9312   19.4635 C   0  0  0  0  0  0  0  0  0  0  0  0
  -22.4605  -29.6763   20.9166 C   0  0  0  0  0  0  0  0  0  0  0  0
  -26.0606  -33.6258   25.1958 C   0  0  0  0  0  0  0  0  0  0  0  0
  -32.5410  -23.6894   18.2213 C   0  0  0  0  0  0  0  0  0  0  0  0
  -33.3239  -26.3078   20.8718 C   0  0  0  0  0  0  0  0  0  0  0  0
  -33.7767  -27.7727   20.8580 C   0  0  0  0  0  0  0  0  0  0  0  0
  -31.1783  -22.7497   20.8741 C   0  0  0  0  0  0  0  0  0  0  0  0
  -29.8896  -22.4683   21.6392 C   0  0  0  0  0  0  0  0  0  0  0  0
  -32.8969  -25.7958   19.5007 C   0  0  0  0  0  0  0  0  0  0  0  0
  -31.1956  -24.1466   20.2666 C   0  0  0  0  0  0  0  0  0  0  0  0
  -33.2202  -28.1762   23.3368 C   0  0  0  0  0  0  0  0  0  1  0  0
  -24.7686  -30.2237   21.7913 C   0  0  1  0  0  0  0  0  0  0  0  0
  -24.4800  -33.7050   23.2633 C   0  0  2  0  0  0  0  0  0  0  0  0
  -34.2792  -28.2688   22.2301 C   0  0  2  0  0  0  0  0  0  0  0  0
  -23.9490  -29.8224   20.5324 C   0  0  0  0  0  0  0  0  0  0  0  0
  -28.2916  -14.8771   21.1252 N   0  0  0  0  0  0  0  0  0  0  0  0
  -29.5732  -15.2425   20.9520 N   0  0  0  0  0  0  0  0  0  0  0  0
  -25.9582  -28.6145   23.2469 N   0  0  0  0  0  0  0  0  0  0  0  0
  -29.4531  -18.8253   22.2708 N   0  0  0  0  0  0  0  0  0  0  0  0
  -31.6039  -14.5816   19.9272 N   0  0  0  0  0  0  0  0  0  0  0  0
  -28.7447  -11.2706   18.8054 N   0  0  0  0  0  0  0  0  0  0  0  0
  -26.0073  -25.0364   23.9482 N   0  0  0  0  0  0  0  0  0  0  0  0
  -24.3277  -31.4636   22.4210 N   0  0  0  0  0  0  0  0  0  0  0  0
  -29.8807  -21.1520   22.2377 N   0  0  0  0  0  0  0  0  0  0  0  0
  -25.4375  -34.4503   24.1285 N   0  3  0  0  0  0  0  0  0  0  0  0
  -32.5179  -24.3650   19.5713 N   0  3  1  0  0  0  0  0  0  0  0  0
  -30.9062  -12.0106   18.6080 O   0  0  0  0  0  0  0  0  0  0  0  0
  -26.1578  -26.3677   22.0436 O   0  0  0  0  0  0  0  0  0  0  0  0
  -23.6406  -28.8443   23.3570 O   0  0  0  0  0  0  0  0  0  0  0  0
  -26.3558  -32.5739   22.2438 O   0  0  0  0  0  0  0  0  0  0  0  0
  -28.9396  -20.1227   20.4184 O   0  0  0  0  0  0  0  0  0  0  0  0
  -23.3744  -10.9275   20.2470 O   0  0  0  0  0  0  0  0  0  0  0  0
  -32.1101  -29.0255   23.0494 O   0  0  0  0  0  0  0  0  0  1  0  0
  -21.7798   -8.9365   15.3585 F   0  0  0  0  0  0  0  0  0  0  0  0
  -20.9872  -11.7230   19.1019 F   0  0  0  0  0  0  0  0  0  0  0  0
  1  2  1  0  0  0  0
  1  5  2  0  0  0  0
  2  6  2  0  0  0  0
  3  8  2  0  0  0  0
  3 15  1  0  0  0  0
  4  9  1  0  0  0  0
  4 15  2  0  0  0  0
  5 17  1  0  0  0  0
  6 19  1  0  0  0  0
  7 10  2  0  0  0  0
  7 18  1  0  0  0  0
  8 21  1  0  0  0  0
  9 21  2  0  0  0  0
 10 22  1  0  0  0  0
 11 12  2  0  0  0  0
 11 23  1  0  0  0  0
 12 24  1  0  0  0  0
 13 20  1  0  0  0  0
 13 22  2  0  0  0  0
 14 24  2  0  0  0  0
 14 25  1  0  0  0  0
 15 26  1  0  0  0  0
 16 26  1  0  0  0  0
 16 27  2  0  0  0  0
 16 28  1  0  0  0  0
 17 19  2  0  0  0  0
 17 33  1  0  0  0  0
 18 20  2  0  0  0  0
 18 34  1  0  0  0  0
 19 42  1  0  0  0  0
 20 35  1  0  0  0  0
 21 79  1  0  0  0  0
 22 80  1  0  0  0  0
 23 25  2  0  0  0  0
 23 79  1  0  0  0  0
 24 81  1  0  0  0  0
 25 82  1  0  0  0  0
 26 63  2  0  0  0  0
 27 64  1  0  0  0  0
 27 67  1  0  0  0  0
 28 68  1  0  0  0  0
 28 74  2  0  0  0  0
 29 43  1  0  0  0  0
 29 69  1  0  0  0  0
 29 75  2  0  0  0  0
 30 59  1  0  0  0  0
 30 65  1  0  0  0  0
 30 76  2  0  0  0  0
 31 60  1  0  0  0  0
 31 70  1  0  0  0  0
 31 77  2  0  0  0  0
 32 66  1  0  0  0  0
 32 71  1  0  0  0  0
 32 78  2  0  0  0  0
 33 36  1  0  0  0  0
 34 43  1  0  0  0  0
 35 65  1  0  0  0  0
 36 38  1  0  0  0  0
 37 39  1  0  0  0  0
 37 40  1  0  0  0  0
 38 42  1  0  0  0  0
 39 44  1  0  0  0  0
 40 66  1  0  0  0  0
 41 44  1  0  0  0  0
 41 66  1  0  0  0  0
 42 69  1  0  0  0  0
 43 65  1  0  0  0  0
 44 64  1  0  0  0  0
 45 60  1  0  0  0  0
 46 61  1  0  0  0  0
 47 62  1  0  0  0  0
 48 62  1  0  0  0  0
 49 62  1  0  0  0  0
 50 72  1  0  0  0  0
 51 73  1  0  0  0  0
 52 53  1  0  0  0  0
 52 56  1  0  0  0  0
 53 61  1  0  0  0  0
 54 55  1  0  0  0  0
 54 57  1  0  0  0  0
 55 71  1  0  0  0  0
 56 73  1  0  0  0  0
 57 73  1  0  0  0  0
 58 61  1  0  0  0  0
 58 80  1  0  0  0  0
 59 62  1  0  0  0  0
 59 70  1  0  0  0  0
 60 72  1  0  0  0  0
 63 64  1  0  0  0  0
M  CHG  2  72   1  73   1
M  ISO  4  32 100  58 101  71 100  80 101
M  END
> <Batch ID>
0094

> <Smiles>
CNC(C)C(=O)NC(C(=O)N1Cc2cc([101O:1][101CH2:1]C(C)CCCN(C)CCC[100NH:0][100C:0](=O)N3CCCC(n4nc(-c5ccc(Oc6ccc(F)cc6F)cc5)c(C(N)=O)c4N)C3)ccc2CC1C(=O)NC1CCCc2ccccc21)C(C)(C)C

> <Shape>
0.206

> <Color>
0.074

> <Negative vol penalty>
0.000

$$$$

  -OEChem-04052319193D

 81 89  0     1  0  0  0  0  0999 V2000
  -19.2857  -24.9749   21.8800 C   0  0  0  0  0  0  0  0  0  0  0  0
  -20.6642  -24.8434   22.0133 C   0  0  0  0  0  0  0  0  0  0  0  0
  -26.9539  -14.7825   21.7472 C   0  0  0  0  0  0  0  0  0  0  0  0
  -26.3649  -14.9023   19.4072 C   0  0  0  0  0  0  0  0  0  0  0  0
  -18.7392  -26.1892   21.4667 C   0  0  0  0  0  0  0  0  0  0  0  0
  -21.4972  -25.9258   21.7323 C   0  0  0  0  0  0  0  0  0  0  0  0
  -26.7436  -27.3617   24.5464 C   0  0  0  0  0  0  0  0  0  0  0  0
  -26.5457  -13.4491   21.7817 C   0  0  0  0  0  0  0  0  0  0  0  0
  -25.9568  -13.5689   19.4416 C   0  0  0  0  0  0  0  0  0  0  0  0
  -28.0785  -27.1335   24.2153 C   0  0  0  0  0  0  0  0  0  0  0  0
  -27.7808  -10.4412   20.8542 C   0  0  0  0  0  0  0  0  0  0  0  0
  -28.6125   -9.5251   21.4981 C   0  0  0  0  0  0  0  0  0  0  0  0
  -28.2080  -29.3375   23.2434 C   0  0  0  0  0  0  0  0  0  0  0  0
  -26.8304   -8.9902   23.0392 C   0  0  0  0  0  0  0  0  0  0  0  0
  -29.5755  -24.8275   18.5364 C   0  0  0  0  0  0  0  0  0  0  0  0
  -28.0528  -26.4701   19.1993 C   0  0  0  0  0  0  0  0  0  0  0  0
  -26.8634  -15.5091   20.5600 C   0  0  0  0  0  0  0  0  0  0  0  0
  -28.5704  -17.3750   20.2250 C   0  0  0  0  0  0  0  0  0  0  0  0
  -19.5652  -27.2899   21.1897 C   0  0  0  0  0  0  0  0  0  0  0  0
  -26.1267  -28.5775   24.2181 C   0  0  0  0  0  0  0  0  0  0  0  0
  -20.9613  -27.1555   21.3136 C   0  0  0  0  0  0  0  0  0  0  0  0
  -26.8659  -29.5797   23.5737 C   0  0  0  0  0  0  0  0  0  0  0  0
  -28.2831  -25.3092   18.4898 C   0  0  0  0  0  0  0  0  0  0  0  0
  -26.0472  -12.8423   20.6289 C   0  0  0  0  0  0  0  0  0  0  0  0
  -28.8102  -28.1203   23.5612 C   0  0  0  0  0  0  0  0  0  0  0  0
  -26.4738  -10.6319   21.3029 C   0  0  0  0  0  0  0  0  0  0  0  0
  -28.1373   -8.7996   22.5905 C   0  0  0  0  0  0  0  0  0  0  0  0
  -25.9986   -9.9064   22.3953 C   0  0  0  0  0  0  0  0  0  0  0  0
  -27.2844  -16.8866   20.5239 C   0  0  0  0  0  0  0  0  0  0  0  0
  -28.4511  -18.7397   20.3240 C   0  0  0  0  0  0  0  0  0  0  0  0
  -30.2230  -26.5501   19.8708 C   0  0  0  0  0  0  0  0  0  0  0  0
  -29.7660  -16.6590   19.8878 C   0  0  0  0  0  0  0  0  0  0  0  0
  -23.6750  -29.4247   22.3809 C   0  0  0  0  0  0  0  0  0  0  0  0
  -24.2345  -32.3541   23.6569 C   0  0  0  0  0  0  0  0  0  0  0  0
  -26.4415  -34.4971   25.1348 C   0  0  0  0  0  0  0  0  0  0  0  0
  -25.6721  -23.4692   19.2973 C   0  0  0  0  0  0  0  0  0  0  0  0
  -18.9317  -28.5681   20.7004 C   0  0  0  0  0  0  0  0  0  0  0  0
  -24.6935  -28.8183   24.6060 C   0  0  0  0  0  0  0  0  0  0  0  0
  -26.2560  -30.9099   23.2172 C   0  0  0  0  0  0  0  0  0  0  0  0
  -19.8587  -29.7781   20.7833 C   0  0  0  0  0  0  0  0  0  0  0  0
  -24.6993  -21.5916   22.1617 C   0  0  0  0  0  0  0  0  0  0  0  0
  -21.2369  -29.4337   20.2275 C   0  0  0  0  0  0  0  0  0  0  0  0
  -25.3859  -20.2392   21.9630 C   0  0  0  0  0  0  0  0  0  0  0  0
  -24.2205  -22.1815   20.8370 C   0  0  0  0  0  0  0  0  0  0  0  0
  -25.9448  -20.9329   19.5955 C   0  0  0  0  0  0  0  0  0  0  0  0
  -21.8962  -28.3141   21.0419 C   0  0  1  0  0  0  0  0  0  0  0  0
  -24.0201  -29.8981   23.7646 C   0  0  1  0  0  0  0  0  0  0  0  0
  -26.4947  -20.3245   20.8969 C   0  0  2  0  0  0  0  0  0  0  0  0
  -26.6189  -36.8354   26.0282 C   0  0  0  0  0  0  0  0  0  0  0  0
  -24.3839  -33.4296   20.8055 C   0  0  0  0  0  0  0  0  0  0  0  0
  -25.4784  -35.4899   21.7142 C   0  0  0  0  0  0  0  0  0  0  0  0
  -23.1570  -34.9015   22.4127 C   0  0  0  0  0  0  0  0  0  0  0  0
  -27.0701  -33.5318   27.8609 C   0  0  0  0  0  0  0  0  0  0  0  0
  -27.2115  -24.6222   17.7288 C   0  0  0  0  0  0  0  0  0  0  0  0
  -31.3110  -27.2457   20.6492 C   0  0  0  0  0  0  0  0  0  0  0  0
  -31.6537  -26.5617   21.9745 C   0  0  0  0  0  0  0  0  0  0  0  0
  -30.4961  -26.5521   22.9661 C   0  0  0  0  0  0  0  0  0  1  0  0
  -25.0976  -33.5353   23.2845 C   0  0  1  0  0  0  0  0  0  0  0  0
  -26.3178  -35.3825   26.3616 C   0  0  2  0  0  0  0  0  0  0  0  0
  -24.5405  -34.3134   22.0590 C   0  0  0  0  0  0  0  0  0  0  0  0
  -30.5739  -25.4248   19.2196 N   0  0  0  0  0  0  0  0  0  0  0  0
  -29.0029  -27.1193   19.9036 N   0  0  0  0  0  0  0  0  0  0  0  0
  -26.4122  -17.8618   20.7928 N   0  0  0  0  0  0  0  0  0  0  0  0
  -27.1515  -18.9765   20.6634 N   0  0  0  0  0  0  0  0  0  0  0  0
  -24.8498  -31.0950   23.6119 N   0  0  0  0  0  0  0  0  0  0  0  0
  -25.3199  -22.2362   19.8705 N   0  0  0  0  0  0  0  0  0  0  0  0
  -29.3321  -19.7482   20.1532 N   0  0  0  0  0  0  0  0  0  0  0  0
  -29.7131  -15.2597   19.8303 N   0  0  0  0  0  0  0  0  0  0  0  0
  -22.4282  -28.8372   22.2819 N   0  0  0  0  0  0  0  0  0  0  0  0
  -25.2308  -34.3409   24.4935 N   0  0  0  0  0  0  0  0  0  0  0  0
  -26.7291  -23.4336   18.3960 N   0  0  0  0  0  0  0  0  0  0  0  0
  -27.2676  -34.9367   27.4200 N   0  3  0  0  0  0  0  0  0  0  0  0
  -30.8533  -17.2421   19.6609 O   0  0  0  0  0  0  0  0  0  0  0  0
  -24.4797  -29.5823   21.4702 O   0  0  0  0  0  0  0  0  0  0  0  0
  -23.0598  -32.5423   23.9830 O   0  0  0  0  0  0  0  0  0  0  0  0
  -27.5063  -33.9972   24.7786 O   0  0  0  0  0  0  0  0  0  0  0  0
  -25.0915  -24.5247   19.5727 O   0  0  0  0  0  0  0  0  0  0  0  0
  -25.6491  -11.5412   20.6621 O   0  0  0  0  0  0  0  0  0  0  0  0
  -30.1131  -27.8999   23.2363 O   0  0  0  0  0  0  0  0  0  1  0  0
  -28.9357   -7.9188   23.2077 F   0  0  0  0  0  0  0  0  0  0  0  0
  -24.7436  -10.0843   22.8302 F   0  0  0  0  0  0  0  0  0  0  0  0
  1  2  1  0  0  0  0
  1  5  2  0  0  0  0
  2  6  2  0  0  0  0
  3  8  2  0  0  0  0
  3 17  1  0  0  0  0
  4  9  1  0  0  0  0
  4 17  2  0  0  0  0
  5 19  1  0  0  0  0
  6 21  1  0  0  0  0
  7 10  2  0  0  0  0
  7 20  1  0  0  0  0
  8 24  1  0  0  0  0
  9 24  2  0  0  0  0
 10 25  1  0  0  0  0
 11 12  2  0  0  0  0
 11 26  1  0  0  0  0
 12 27  1  0  0  0  0
 13 22  1  0  0  0  0
 13 25  2  0  0  0  0
 14 27  2  0  0  0  0
 14 28  1  0  0  0  0
 15 23  1  0  0  0  0
 15 61  2  0  0  0  0
 16 23  2  0  0  0  0
 16 62  1  0  0  0  0
 17 29  1  0  0  0  0
 18 29  1  0  0  0  0
 18 30  2  0  0  0  0
 18 32  1  0  0  0  0
 19 21  2  0  0  0  0
 19 37  1  0  0  0  0
 20 22  2  0  0  0  0
 20 38  1  0  0  0  0
 21 46  1  0  0  0  0
 22 39  1  0  0  0  0
 23 54  1  0  0  0  0
 24 78  1  0  0  0  0
 25 79  1  0  0  0  0
 26 28  2  0  0  0  0
 26 78  1  0  0  0  0
 27 80  1  0  0  0  0
 28 81  1  0  0  0  0
 29 63  2  0  0  0  0
 30 64  1  0  0  0  0
 30 67  1  0  0  0  0
 31 55  1  0  0  0  0
 31 61  1  0  0  0  0
 31 62  2  0  0  0  0
 32 68  1  0  0  0  0
 32 73  2  0  0  0  0
 33 47  1  0  0  0  0
 33 69  1  0  0  0  0
 33 74  2  0  0  0  0
 34 58  1  0  0  0  0
 34 65  1  0  0  0  0
 34 75  2  0  0  0  0
 35 59  1  0  0  0  0
 35 70  1  0  0  0  0
 35 76  2  0  0  0  0
 36 66  1  0  0  0  0
 36 71  1  0  0  0  0
 36 77  2  0  0  0  0
 37 40  1  0  0  0  0
 38 47  1  0  0  0  0
 39 65  1  0  0  0  0
 40 42  1  0  0  0  0
 41 43  1  0  0  0  0
 41 44  1  0  0  0  0
 42 46  1  0  0  0  0
 43 48  1  0  0  0  0
 44 66  1  0  0  0  0
 45 48  1  0  0  0  0
 45 66  1  0  0  0  0
 46 69  1  0  0  0  0
 47 65  1  0  0  0  0
 48 64  1  0  0  0  0
 49 59  1  0  0  0  0
 50 60  1  0  0  0  0
 51 60  1  0  0  0  0
 52 60  1  0  0  0  0
 53 72  1  0  0  0  0
 54 71  1  0  0  0  0
 55 56  1  0  0  0  0
 56 57  1  0  0  0  0
 57 79  1  0  0  0  0
 58 60  1  0  0  0  0
 58 70  1  0  0  0  0
 59 72  1  0  0  0  0
 63 64  1  0  0  0  0
M  CHG  1  72   1
M  ISO  4  36 100  57 101  71 100  79 101
M  END
> <Batch ID>
0094

> <Smiles>
CNC(C)C(=O)NC(C(=O)N1Cc2cc([101O:1][101CH2:1]CCc3ncc(C[100NH:0][100C:0](=O)N4CCCC(n5nc(-c6ccc(Oc7ccc(F)cc7F)cc6)c(C(N)=O)c5N)C4)cn3)ccc2CC1C(=O)NC1CCCc2ccccc21)C(C)(C)C

> <Shape>
0.237

> <Color>
0.103

> <Negative vol penalty>
0.000

$$$$

  -OEChem-04052319193D

 90 98  0     1  0  0  0  0  0999 V2000
  -29.5724  -24.3821   16.9300 C   0  0  0  0  0  0  0  0  0  0  0  0
  -28.3258  -24.4488   17.5440 C   0  0  0  0  0  0  0  0  0  0  0  0
  -27.6842  -12.7706   19.0013 C   0  0  0  0  0  0  0  0  0  0  0  0
  -28.2834  -14.5879   20.4762 C   0  0  0  0  0  0  0  0  0  0  0  0
  -30.6662  -25.0292   17.5035 C   0  0  0  0  0  0  0  0  0  0  0  0
  -28.1726  -25.1618   18.7326 C   0  0  0  0  0  0  0  0  0  0  0  0
  -24.0308  -28.0757   18.7297 C   0  0  0  0  0  0  0  0  0  0  0  0
  -29.0190  -12.3687   18.9542 C   0  0  0  0  0  0  0  0  0  0  0  0
  -29.6183  -14.1859   20.4292 C   0  0  0  0  0  0  0  0  0  0  0  0
  -22.8086  -27.4452   18.9588 C   0  0  0  0  0  0  0  0  0  0  0  0
  -31.5523  -11.8049   21.8471 C   0  0  0  0  0  0  0  0  0  0  0  0
  -32.2560  -11.7571   23.0504 C   0  0  0  0  0  0  0  0  0  0  0  0
  -22.8698  -28.1747   21.2573 C   0  0  0  0  0  0  0  0  0  0  0  0
  -17.5733  -20.6383   20.6947 C   0  0  0  0  0  0  0  0  0  0  0  0
  -20.2162  -21.2302   21.3637 C   0  0  0  0  0  0  0  0  0  0  0  0
  -33.8326  -13.3745   22.1927 C   0  0  0  0  0  0  0  0  0  0  0  0
  -27.3164  -13.8803   19.7622 C   0  0  0  0  0  0  0  0  0  0  0  0
  -24.9549  -13.8767   20.7273 C   0  0  0  0  0  0  0  0  0  0  0  0
  -30.5241  -25.7585   18.6945 C   0  0  0  0  0  0  0  0  0  0  0  0
  -24.6881  -28.7523   19.7673 C   0  0  0  0  0  0  0  0  0  0  0  0
  -29.2657  -25.8181   19.3232 C   0  0  0  0  0  0  0  0  0  0  0  0
  -24.0990  -28.8152   21.0382 C   0  0  0  0  0  0  0  0  0  0  0  0
  -18.6010  -19.7811   20.3013 C   0  0  0  0  0  0  0  0  0  0  0  0
  -19.9224  -20.0770   20.6358 C   0  0  0  0  0  0  0  0  0  0  0  0
  -17.8671  -21.7914   21.4225 C   0  0  0  0  0  0  0  0  0  0  0  0
  -19.1885  -22.0873   21.7570 C   0  0  0  0  0  0  0  0  0  0  0  0
  -29.9861  -13.0763   19.6681 C   0  0  0  0  0  0  0  0  0  0  0  0
  -22.2293  -27.4922   20.2234 C   0  0  0  0  0  0  0  0  0  0  0  0
  -31.9888  -12.6374   20.8164 C   0  0  0  0  0  0  0  0  0  0  0  0
  -33.3961  -12.5419   23.2233 C   0  0  0  0  0  0  0  0  0  0  0  0
  -33.1289  -13.4222   20.9893 C   0  0  0  0  0  0  0  0  0  0  0  0
  -25.9377  -14.2963   19.8108 C   0  0  0  0  0  0  0  0  0  0  0  0
  -23.8223  -14.5565   20.3513 C   0  0  0  0  0  0  0  0  0  0  0  0
  -25.0568  -12.9550   21.8208 C   0  0  0  0  0  0  0  0  0  0  0  0
  -27.4787  -28.4147   21.2512 C   0  0  0  0  0  0  0  0  0  0  0  0
  -21.3643  -19.3230   18.7611 C   0  0  0  0  0  0  0  0  0  0  0  0
  -26.6028  -31.1834   22.6967 C   0  0  0  0  0  0  0  0  0  0  0  0
  -24.0882  -33.2839   23.6513 C   0  0  0  0  0  0  0  0  0  0  0  0
  -31.7456  -26.4020   19.3018 C   0  0  0  0  0  0  0  0  0  0  0  0
  -25.9930  -29.4500   19.4972 C   0  0  0  0  0  0  0  0  0  0  0  0
  -24.7542  -29.5458   22.1807 C   0  0  0  0  0  0  0  0  0  0  0  0
  -31.4184  -27.4485   20.3638 C   0  0  0  0  0  0  0  0  0  0  0  0
  -22.8231  -17.2712   16.2112 C   0  0  0  0  0  0  0  0  0  0  0  0
  -30.3652  -26.9167   21.3307 C   0  0  0  0  0  0  0  0  0  0  0  0
  -23.7059  -16.2997   16.9935 C   0  0  0  0  0  0  0  0  0  0  0  0
  -22.7980  -18.6507   16.8619 C   0  0  0  0  0  0  0  0  0  0  0  0
  -23.2680  -17.6666   19.0828 C   0  0  0  0  0  0  0  0  0  0  0  0
  -29.0542  -26.6023   20.6001 C   0  0  1  0  0  0  0  0  0  0  0  0
  -26.8232  -29.6733   20.7575 C   0  0  1  0  0  0  0  0  0  0  0  0
  -23.2967  -16.2524   18.4763 C   0  0  2  0  0  0  0  0  0  0  0  0
  -18.2623  -18.5521   19.5234 C   0  0  0  0  0  0  0  0  0  0  0  0
  -20.4670  -24.1223   24.8119 C   0  0  0  0  0  0  0  0  0  0  0  0
  -23.6795  -35.4510   24.8488 C   0  0  0  0  0  0  0  0  0  0  0  0
  -27.0857  -29.7945   25.3702 C   0  0  0  0  0  0  0  0  0  0  0  0
  -25.7844  -31.6247   26.4769 C   0  0  0  0  0  0  0  0  0  0  0  0
  -27.8963  -32.1578   25.2610 C   0  0  0  0  0  0  0  0  0  0  0  0
  -22.8742  -34.5158   21.2497 C   0  0  0  0  0  0  0  0  0  0  0  0
  -14.8353  -19.7308   25.4804 C   0  0  0  0  0  0  0  0  0  0  0  0
  -16.4306  -21.5554   26.0517 C   0  0  0  0  0  0  0  0  0  0  0  0
  -21.0391  -19.1739   20.2261 C   0  0  0  0  0  0  0  0  0  0  0  0
  -16.7504  -22.6946   21.8320 C   0  0  0  0  0  0  0  0  0  0  0  0
  -20.1500  -22.9370   23.9095 C   0  0  0  0  0  0  0  0  0  0  0  0
  -16.2996  -22.5248   23.2950 C   0  0  0  0  0  0  0  0  0  0  0  0
  -19.8174  -24.7876   20.4420 C   0  0  0  0  0  0  0  0  0  0  0  0
  -20.4475  -24.3062   21.7587 C   0  0  0  0  0  0  0  0  0  0  0  0
  -15.8360  -21.1213   23.6729 C   0  0  0  0  0  0  0  0  0  0  0  0
  -20.7444  -25.7193   19.6685 C   0  0  0  0  0  0  0  0  0  1  0  0
  -19.5339  -23.3407   22.5502 C   0  0  1  0  0  0  0  0  0  0  0  0
  -25.8291  -31.5407   23.9427 C   0  0  1  0  0  0  0  0  0  0  0  0
  -23.9186  -34.7851   23.5026 C   0  0  2  0  0  0  0  0  0  0  0  0
  -26.6372  -31.2639   25.2419 C   0  0  0  0  0  0  0  0  0  0  0  0
  -25.4703  -15.1744   18.9196 N   0  0  0  0  0  0  0  0  0  0  0  0
  -24.1813  -15.3122   19.2742 N   0  0  0  0  0  0  0  0  0  0  0  0
  -26.0321  -30.2068   21.8683 N   0  0  0  0  0  0  0  0  0  0  0  0
  -22.4267  -18.5607   18.2752 N   0  0  0  0  0  0  0  0  0  0  0  0
  -22.5641  -14.5755   20.8402 N   0  0  0  0  0  0  0  0  0  0  0  0
  -26.2945  -12.3455   22.0678 N   0  0  0  0  0  0  0  0  0  0  0  0
  -28.3209  -27.8206   20.3308 N   0  0  0  0  0  0  0  0  0  0  0  0
  -25.4145  -32.9301   23.7815 N   0  0  0  0  0  0  0  0  0  0  0  0
  -22.7609  -35.0902   22.6151 N   0  3  0  0  0  0  0  0  0  0  0  0
  -15.3755  -21.0829   25.0805 N   0  3  0  0  0  0  0  0  0  0  0  0
  -24.0752  -12.6676   22.5470 O   0  0  0  0  0  0  0  0  0  0  0  0
  -27.2394  -28.0131   22.3840 O   0  0  0  0  0  0  0  0  0  0  0  0
  -20.6911  -20.0923   18.0703 O   0  0  0  0  0  0  0  0  0  0  0  0
  -27.6707  -31.7551   22.4632 O   0  0  0  0  0  0  0  0  0  0  0  0
  -23.1387  -32.5035   23.6556 O   0  0  0  0  0  0  0  0  0  0  0  0
  -31.2887  -12.6842   19.6226 O   0  0  0  0  0  0  0  0  0  0  0  0
  -21.0367  -26.8771   20.4498 O   0  0  0  0  0  0  0  0  0  1  0  0
  -34.0708  -12.4972   24.3795 F   0  0  0  0  0  0  0  0  0  0  0  0
  -33.5524  -14.2248   20.0032 F   0  0  0  0  0  0  0  0  0  0  0  0
  1  2  1  0  0  0  0
  1  5  2  0  0  0  0
  2  6  2  0  0  0  0
  3  8  2  0  0  0  0
  3 17  1  0  0  0  0
  4  9  1  0  0  0  0
  4 17  2  0  0  0  0
  5 19  1  0  0  0  0
  6 21  1  0  0  0  0
  7 10  2  0  0  0  0
  7 20  1  0  0  0  0
  8 27  1  0  0  0  0
  9 27  2  0  0  0  0
 10 28  1  0  0  0  0
 11 12  2  0  0  0  0
 11 29  1  0  0  0  0
 12 30  1  0  0  0  0
 13 22  1  0  0  0  0
 13 28  2  0  0  0  0
 14 23  2  0  0  0  0
 14 25  1  0  0  0  0
 15 24  2  0  0  0  0
 15 26  1  0  0  0  0
 16 30  2  0  0  0  0
 16 31  1  0  0  0  0
 17 32  1  0  0  0  0
 18 32  1  0  0  0  0
 18 33  2  0  0  0  0
 18 34  1  0  0  0  0
 19 21  2  0  0  0  0
 19 39  1  0  0  0  0
 20 22  2  0  0  0  0
 20 40  1  0  0  0  0
 21 48  1  0  0  0  0
 22 41  1  0  0  0  0
 23 24  1  0  0  0  0
 23 51  1  0  0  0  0
 24 60  1  0  0  0  0
 25 26  2  0  0  0  0
 25 61  1  0  0  0  0
 26 68  1  0  0  0  0
 27 87  1  0  0  0  0
 28 88  1  0  0  0  0
 29 31  2  0  0  0  0
 29 87  1  0  0  0  0
 30 89  1  0  0  0  0
 31 90  1  0  0  0  0
 32 72  2  0  0  0  0
 33 73  1  0  0  0  0
 33 76  1  0  0  0  0
 34 77  1  0  0  0  0
 34 82  2  0  0  0  0
 35 49  1  0  0  0  0
 35 78  1  0  0  0  0
 35 83  2  0  0  0  0
 36 60  1  0  0  0  0
 36 75  1  0  0  0  0
 36 84  2  0  0  0  0
 37 69  1  0  0  0  0
 37 74  1  0  0  0  0
 37 85  2  0  0  0  0
 38 70  1  0  0  0  0
 38 79  1  0  0  0  0
 38 86  2  0  0  0  0
 39 42  1  0  0  0  0
 40 49  1  0  0  0  0
 41 74  1  0  0  0  0
 42 44  1  0  0  0  0
 43 45  1  0  0  0  0
 43 46  1  0  0  0  0
 44 48  1  0  0  0  0
 45 50  1  0  0  0  0
 46 75  1  0  0  0  0
 47 50  1  0  0  0  0
 47 75  1  0  0  0  0
 48 78  1  0  0  0  0
 49 74  1  0  0  0  0
 50 73  1  0  0  0  0
 52 62  1  0  0  0  0
 53 70  1  0  0  0  0
 54 71  1  0  0  0  0
 55 71  1  0  0  0  0
 56 71  1  0  0  0  0
 57 80  1  0  0  0  0
 58 81  1  0  0  0  0
 59 81  1  0  0  0  0
 61 63  1  0  0  0  0
 62 68  1  0  0  0  0
 63 66  1  0  0  0  0
 64 65  1  0  0  0  0
 64 67  1  0  0  0  0
 65 68  1  0  0  0  0
 66 81  1  0  0  0  0
 67 88  1  0  0  0  0
 69 71  1  0  0  0  0
 69 79  1  0  0  0  0
 70 80  1  0  0  0  0
 72 73  1  0  0  0  0
M  CHG  2  80   1  81   1
M  ISO  4  36 100  60 100  67 101  88 101
M  END
> <Batch ID>
0094

> <Smiles>
CCC(CC[101CH2:1][101O:1]c1ccc2c(c1)CN(C(=O)C(NC(=O)C(C)NC)C(C)(C)C)C(C(=O)NC1CCCc3ccccc31)C2)c1cc([100CH2:0][100C:0](=O)N2CCCC(n3nc(-c4ccc(Oc5ccc(F)cc5F)cc4)c(C(N)=O)c3N)C2)c(C)cc1CCCN(C)C

> <Shape>
0.246

> <Color>
0.075

> <Negative vol penalty>
0.000

$$$$

  -OEChem-04052319193D

 93102  0     1  0  0  0  0  0999 V2000
  -28.1715  -36.8226   22.5399 C   0  0  0  0  0  0  0  0  0  0  0  0
  -28.4105  -35.4647   22.7258 C   0  0  0  0  0  0  0  0  0  0  0  0
  -23.9688   -9.4502   21.0839 C   0  0  0  0  0  0  0  0  0  0  0  0
  -25.5692   -9.9825   22.8137 C   0  0  0  0  0  0  0  0  0  0  0  0
  -26.8767  -37.3247   22.6636 C   0  0  0  0  0  0  0  0  0  0  0  0
  -27.3548  -34.6083   23.0366 C   0  0  0  0  0  0  0  0  0  0  0  0
  -27.4781  -30.3179   20.3492 C   0  0  0  0  0  0  0  0  0  0  0  0
  -23.7989   -8.1790   21.6322 C   0  0  0  0  0  0  0  0  0  0  0  0
  -25.3994   -8.7112   23.3620 C   0  0  0  0  0  0  0  0  0  0  0  0
  -28.3831  -29.3381   20.7552 C   0  0  0  0  0  0  0  0  0  0  0  0
  -22.1351   -6.7867   24.2257 C   0  0  0  0  0  0  0  0  0  0  0  0
  -20.8321   -6.3080   24.3611 C   0  0  0  0  0  0  0  0  0  0  0  0
  -26.5966  -28.1566   21.8651 C   0  0  0  0  0  0  0  0  0  0  0  0
  -27.4631  -20.6564   20.8947 C   0  0  0  0  0  0  0  0  0  0  0  0
  -21.3686   -4.4414   22.9240 C   0  0  0  0  0  0  0  0  0  0  0  0
  -28.5097  -19.7114   22.6501 C   0  0  0  0  0  0  0  0  0  0  0  0
  -24.8540  -10.3520   21.6746 C   0  0  0  0  0  0  0  0  0  0  0  0
  -24.0443  -12.6546   20.9328 C   0  0  0  0  0  0  0  0  0  0  0  0
  -25.8032  -36.4724   22.9666 C   0  0  0  0  0  0  0  0  0  0  0  0
  -26.1254  -30.2300   20.7080 C   0  0  0  0  0  0  0  0  0  0  0  0
  -26.0447  -35.0997   23.1658 C   0  0  0  0  0  0  0  0  0  0  0  0
  -25.6761  -29.1353   21.4603 C   0  0  0  0  0  0  0  0  0  0  0  0
  -27.5696  -20.6580   22.3074 C   0  0  0  0  0  0  0  0  0  0  0  0
  -24.5142   -7.8095   22.7713 C   0  0  0  0  0  0  0  0  0  0  0  0
  -27.9429  -28.2587   21.5157 C   0  0  0  0  0  0  0  0  0  0  0  0
  -23.0550   -6.0929   23.4394 C   0  0  0  0  0  0  0  0  0  0  0  0
  -20.4488   -5.1353   23.7102 C   0  0  0  0  0  0  0  0  0  0  0  0
  -22.6717   -4.9203   22.7886 C   0  0  0  0  0  0  0  0  0  0  0  0
  -25.0303  -11.6652   21.1084 C   0  0  0  0  0  0  0  0  0  0  0  0
  -28.3412  -19.7087   20.4171 C   0  0  0  0  0  0  0  0  0  0  0  0
  -24.7136  -13.7084   20.3601 C   0  0  0  0  0  0  0  0  0  0  0  0
  -22.6484  -12.6239   21.2584 C   0  0  0  0  0  0  0  0  0  0  0  0
  -24.1385  -32.0226   22.4234 C   0  0  0  0  0  0  0  0  0  0  0  0
  -21.9288  -29.8955   21.3675 C   0  0  0  0  0  0  0  0  0  0  0  0
  -21.2546  -26.7701   20.1742 C   0  0  0  0  0  0  0  0  0  0  0  0
  -30.7126  -14.9444   20.5140 C   0  0  0  0  0  0  0  0  0  0  0  0
  -24.4284  -37.0689   23.1366 C   0  0  0  0  0  0  0  0  0  0  0  0
  -25.1570  -31.2812   20.2395 C   0  0  0  0  0  0  0  0  0  0  0  0
  -24.2303  -28.9838   21.8545 C   0  0  0  0  0  0  0  0  0  0  0  0
  -23.3066  -36.0343   23.0990 C   0  0  0  0  0  0  0  0  0  0  0  0
  -31.0803  -21.4582   16.1303 C   0  0  0  0  0  0  0  0  0  0  0  0
  -31.5310  -20.0669   16.5643 C   0  0  0  0  0  0  0  0  0  0  0  0
  -30.4767  -22.2404   17.2925 C   0  0  0  0  0  0  0  0  0  0  0  0
  -28.4691  -14.7077   17.5793 C   0  0  0  0  0  0  0  0  0  0  0  0
  -23.6540  -34.8380   23.9794 C   0  0  0  0  0  0  0  0  0  0  0  0
  -30.3986  -19.2910   17.2333 C   0  0  0  0  0  0  0  0  0  0  0  0
  -29.3426  -21.4682   17.9629 C   0  0  0  0  0  0  0  0  0  0  0  0
  -27.2821  -13.9193   18.1301 C   0  0  0  0  0  0  0  0  0  0  0  0
  -29.7645  -14.3668   18.3096 C   0  0  0  0  0  0  0  0  0  0  0  0
  -28.4965  -13.7398   20.3377 C   0  0  0  0  0  0  0  0  0  0  0  0
  -24.9218  -34.1349   23.4796 C   0  0  1  0  0  0  0  0  0  0  0  0
  -23.8977  -31.3584   21.0973 C   0  0  1  0  0  0  0  0  0  0  0  0
  -29.7946  -20.0711   18.4089 C   0  0  0  0  0  0  0  0  0  0  0  0
  -27.1672  -14.0942   19.6544 C   0  0  2  0  0  0  0  0  0  0  0  0
  -27.3988  -19.4046   18.0990 C   0  0  0  0  0  0  0  0  0  0  0  0
  -19.3503  -25.3110   19.4379 C   0  0  0  0  0  0  0  0  0  0  0  0
  -29.7516  -25.4977   20.6312 C   0  0  0  0  0  0  0  0  0  0  0  0
  -21.1399  -29.4583   24.2823 C   0  0  0  0  0  0  0  0  0  0  0  0
  -19.9563  -27.3682   23.5758 C   0  0  0  0  0  0  0  0  0  0  0  0
  -19.2169  -29.5790   22.6879 C   0  0  0  0  0  0  0  0  0  0  0  0
  -31.3669  -15.6069   22.7970 C   0  0  0  0  0  0  0  0  0  0  0  0
  -22.3634  -26.5023   17.4433 C   0  0  0  0  0  0  0  0  0  0  0  0
  -26.7971  -21.5341   23.2612 C   0  0  0  0  0  0  0  0  0  0  0  0
  -27.4873  -22.8663   23.5754 C   0  0  0  0  0  0  0  0  0  0  0  0
  -27.6484  -23.7633   22.3435 C   0  0  0  0  0  0  0  0  0  0  0  0
  -28.3761  -25.0652   22.6984 C   0  0  0  0  0  0  0  0  0  0  0  0
  -29.9733  -18.0984   21.4353 C   0  0  0  0  0  0  0  0  0  0  0  0
  -29.4172  -16.7172   21.7716 C   0  0  0  0  0  0  0  0  0  0  0  0
  -28.6304  -19.2993   19.0271 C   0  0  2  0  0  0  0  0  0  0  0  0
  -21.3888  -28.5777   21.8681 C   0  0  1  0  0  0  0  0  0  0  0  0
  -20.4186  -26.2997   18.9976 C   0  0  2  0  0  0  0  0  0  0  0  0
  -28.5744  -25.9662   21.4761 C   0  0  1  0  0  0  0  0  0  1  0  0
  -20.4531  -28.7493   23.0979 C   0  0  0  0  0  0  0  0  0  0  0  0
  -26.2342  -12.0555   20.6816 N   0  0  0  0  0  0  0  0  0  0  0  0
  -28.9718  -19.1405   21.4930 N   0  0  0  0  0  0  0  0  0  0  0  0
  -26.0092  -13.3018   20.2321 N   0  0  0  0  0  0  0  0  0  0  0  0
  -23.3233  -30.0409   21.3777 N   0  0  0  0  0  0  0  0  0  0  0  0
  -29.6147  -14.4998   19.7591 N   0  0  0  0  0  0  0  0  0  0  0  0
  -24.3144  -14.9338   19.9584 N   0  0  0  0  0  0  0  0  0  0  0  0
  -22.1238  -11.4625   21.8418 N   0  0  0  0  0  0  0  0  0  0  0  0
  -24.6229  -33.3132   22.3264 N   0  0  0  0  0  0  0  0  0  0  0  0
  -20.7568  -27.9336   20.7217 N   0  0  0  0  0  0  0  0  0  0  0  0
  -30.4339  -15.6715   21.6812 N   0  0  0  0  0  0  0  0  0  0  0  0
  -21.2827  -25.6361   17.9807 N   0  3  0  0  0  0  0  0  0  0  0  0
  -21.8853  -13.5914   21.0233 O   0  0  0  0  0  0  0  0  0  0  0  0
  -23.9010  -31.4102   23.4579 O   0  0  0  0  0  0  0  0  0  0  0  0
  -21.1427  -30.7612   20.9749 O   0  0  0  0  0  0  0  0  0  0  0  0
  -22.2475  -26.1638   20.5706 O   0  0  0  0  0  0  0  0  0  0  0  0
  -31.8757  -14.7133   20.1595 O   0  0  0  0  0  0  0  0  0  0  0  0
  -24.3485   -6.5691   23.3067 O   0  0  0  0  0  0  0  0  0  0  0  0
  -28.8242  -27.3013   21.9138 O   0  0  0  0  0  0  0  0  0  1  0  0
  -19.1979   -4.6748   23.8415 F   0  0  0  0  0  0  0  0  0  0  0  0
  -23.5513   -4.2487   22.0328 F   0  0  0  0  0  0  0  0  0  0  0  0
  1  2  1  0  0  0  0
  1  5  2  0  0  0  0
  2  6  2  0  0  0  0
  3  8  2  0  0  0  0
  3 17  1  0  0  0  0
  4  9  1  0  0  0  0
  4 17  2  0  0  0  0
  5 19  1  0  0  0  0
  6 21  1  0  0  0  0
  7 10  2  0  0  0  0
  7 20  1  0  0  0  0
  8 24  1  0  0  0  0
  9 24  2  0  0  0  0
 10 25  1  0  0  0  0
 11 12  2  0  0  0  0
 11 26  1  0  0  0  0
 12 27  1  0  0  0  0
 13 22  1  0  0  0  0
 13 25  2  0  0  0  0
 14 23  1  0  0  0  0
 14 30  2  0  0  0  0
 15 27  2  0  0  0  0
 15 28  1  0  0  0  0
 16 23  2  0  0  0  0
 16 75  1  0  0  0  0
 17 29  1  0  0  0  0
 18 29  1  0  0  0  0
 18 31  2  0  0  0  0
 18 32  1  0  0  0  0
 19 21  2  0  0  0  0
 19 37  1  0  0  0  0
 20 22  2  0  0  0  0
 20 38  1  0  0  0  0
 21 51  1  0  0  0  0
 22 39  1  0  0  0  0
 23 63  1  0  0  0  0
 24 90  1  0  0  0  0
 25 91  1  0  0  0  0
 26 28  2  0  0  0  0
 26 90  1  0  0  0  0
 27 92  1  0  0  0  0
 28 93  1  0  0  0  0
 29 74  2  0  0  0  0
 30 69  1  0  0  0  0
 30 75  1  0  0  0  0
 31 76  1  0  0  0  0
 31 79  1  0  0  0  0
 32 80  1  0  0  0  0
 32 85  2  0  0  0  0
 33 52  1  0  0  0  0
 33 81  1  0  0  0  0
 33 86  2  0  0  0  0
 34 70  1  0  0  0  0
 34 77  1  0  0  0  0
 34 87  2  0  0  0  0
 35 71  1  0  0  0  0
 35 82  1  0  0  0  0
 35 88  2  0  0  0  0
 36 78  1  0  0  0  0
 36 83  1  0  0  0  0
 36 89  2  0  0  0  0
 37 40  1  0  0  0  0
 38 52  1  0  0  0  0
 39 77  1  0  0  0  0
 40 45  1  0  0  0  0
 41 42  1  0  0  0  0
 41 43  1  0  0  0  0
 42 46  1  0  0  0  0
 43 47  1  0  0  0  0
 44 48  1  0  0  0  0
 44 49  1  0  0  0  0
 45 51  1  0  0  0  0
 46 53  1  0  0  0  0
 47 53  1  0  0  0  0
 48 54  1  0  0  0  0
 49 78  1  0  0  0  0
 50 54  1  0  0  0  0
 50 78  1  0  0  0  0
 51 81  1  0  0  0  0
 52 77  1  0  0  0  0
 53 69  1  0  0  0  0
 54 76  1  0  0  0  0
 55 69  1  0  0  0  0
 56 71  1  0  0  0  0
 57 72  1  0  0  0  0
 58 73  1  0  0  0  0
 59 73  1  0  0  0  0
 60 73  1  0  0  0  0
 61 83  1  0  0  0  0
 62 84  1  0  0  0  0
 63 64  1  0  0  0  0
 64 65  1  0  0  0  0
 65 66  1  0  0  0  0
 66 72  1  0  0  0  0
 67 68  1  0  0  0  0
 67 75  1  0  0  0  0
 68 83  1  0  0  0  0
 70 73  1  0  0  0  0
 70 82  1  0  0  0  0
 71 84  1  0  0  0  0
 72 91  1  0  0  0  0
 74 76  1  0  0  0  0
M  CHG  1  84   1
M  ISO  4  36 100  72 101  83 100  91 101
M  END
> <Batch ID>
0094

> <Smiles>
CNC(C)C(=O)NC(C(=O)N1Cc2cc([101O:1][101CH:1](C)CCCCc3cc(C(C)C4CCCCC4)n(CC[100N:0](C)[100C:0](=O)N4CCCC(n5nc(-c6ccc(Oc7ccc(F)cc7F)cc6)c(C(N)=O)c5N)C4)c3)ccc2CC1C(=O)NC1CCCc2ccccc21)C(C)(C)C

> <Shape>
0.367

> <Color>
0.122

> <Negative vol penalty>
0.000

$$$$

  -OEChem-04052319193D

 83 91  0     1  0  0  0  0  0999 V2000
  -27.9112  -23.9299   17.5811 C   0  0  0  0  0  0  0  0  0  0  0  0
  -26.7180  -24.2587   18.2163 C   0  0  0  0  0  0  0  0  0  0  0  0
  -25.7571  -13.6189   19.4937 C   0  0  0  0  0  0  0  0  0  0  0  0
  -23.9321  -13.3190   21.0483 C   0  0  0  0  0  0  0  0  0  0  0  0
  -29.1201  -24.4189   18.0745 C   0  0  0  0  0  0  0  0  0  0  0  0
  -26.7331  -25.0761   19.3460 C   0  0  0  0  0  0  0  0  0  0  0  0
  -23.1546  -28.6563   19.2015 C   0  0  0  0  0  0  0  0  0  0  0  0
  -26.2706  -12.3738   19.8564 C   0  0  0  0  0  0  0  0  0  0  0  0
  -24.4457  -12.0738   21.4110 C   0  0  0  0  0  0  0  0  0  0  0  0
  -21.8517  -28.2671   19.5094 C   0  0  0  0  0  0  0  0  0  0  0  0
  -24.4834   -8.9358   20.1573 C   0  0  0  0  0  0  0  0  0  0  0  0
  -23.5877   -7.8713   20.2577 C   0  0  0  0  0  0  0  0  0  0  0  0
  -22.1217  -29.1481   21.7387 C   0  0  0  0  0  0  0  0  0  0  0  0
  -24.1798   -7.5924   22.5834 C   0  0  0  0  0  0  0  0  0  0  0  0
  -20.1454  -23.4610   21.8195 C   0  0  0  0  0  0  0  0  0  0  0  0
  -21.6163  -24.8070   22.7466 C   0  0  0  0  0  0  0  0  0  0  0  0
  -24.5878  -14.0915   20.0897 C   0  0  0  0  0  0  0  0  0  0  0  0
  -23.1357  -15.6510   18.6873 C   0  0  0  0  0  0  0  0  0  0  0  0
  -29.1491  -25.2505   19.2051 C   0  0  0  0  0  0  0  0  0  0  0  0
  -23.9559  -29.2856   20.1650 C   0  0  0  0  0  0  0  0  0  0  0  0
  -27.9436  -25.5756   19.8558 C   0  0  0  0  0  0  0  0  0  0  0  0
  -23.4335  -29.5466   21.4398 C   0  0  0  0  0  0  0  0  0  0  0  0
  -20.2858  -24.7290   22.4146 C   0  0  0  0  0  0  0  0  0  0  0  0
  -25.6150  -11.6012   20.8150 C   0  0  0  0  0  0  0  0  0  0  0  0
  -21.3360  -28.5104   20.7790 C   0  0  0  0  0  0  0  0  0  0  0  0
  -25.2274   -9.3286   21.2700 C   0  0  0  0  0  0  0  0  0  0  0  0
  -23.4358   -7.1996   21.4707 C   0  0  0  0  0  0  0  0  0  0  0  0
  -25.0755   -8.6569   22.4830 C   0  0  0  0  0  0  0  0  0  0  0  0
  -24.0571  -15.3779   19.7159 C   0  0  0  0  0  0  0  0  0  0  0  0
  -22.9557  -17.0117   18.7398 C   0  0  0  0  0  0  0  0  0  0  0  0
  -22.4992  -14.7549   17.7666 C   0  0  0  0  0  0  0  0  0  0  0  0
  -26.7002  -28.5825   21.6066 C   0  0  0  0  0  0  0  0  0  0  0  0
  -26.3655  -31.5634   22.8414 C   0  0  0  0  0  0  0  0  0  0  0  0
  -23.5959  -20.8528   23.2244 C   0  0  0  0  0  0  0  0  0  0  0  0
  -24.2849  -34.1354   23.6795 C   0  0  0  0  0  0  0  0  0  0  0  0
  -30.4843  -25.7164   19.7295 C   0  0  0  0  0  0  0  0  0  0  0  0
  -25.3501  -29.7233   19.8088 C   0  0  0  0  0  0  0  0  0  0  0  0
  -24.2459  -30.2374   22.5035 C   0  0  0  0  0  0  0  0  0  0  0  0
  -30.3806  -26.8818   20.7099 C   0  0  0  0  0  0  0  0  0  0  0  0
  -25.1976  -21.0486   19.9651 C   0  0  0  0  0  0  0  0  0  0  0  0
  -29.2883  -26.6164   21.7411 C   0  0  0  0  0  0  0  0  0  0  0  0
  -25.0223  -19.6199   19.4520 C   0  0  0  0  0  0  0  0  0  0  0  0
  -25.4254  -21.0791   21.4741 C   0  0  0  0  0  0  0  0  0  0  0  0
  -24.1823  -18.9567   21.7471 C   0  0  0  0  0  0  0  0  0  0  0  0
  -27.9167  -26.4797   21.0691 C   0  0  1  0  0  0  0  0  0  0  0  0
  -26.2522  -29.8945   21.0271 C   0  0  1  0  0  0  0  0  0  0  0  0
  -23.9197  -18.8843   20.2336 C   0  0  2  0  0  0  0  0  0  0  0  0
  -18.1343  -25.2489   23.5940 C   0  0  0  0  0  0  0  0  0  0  0  0
  -24.2980  -36.4255   24.7055 C   0  0  0  0  0  0  0  0  0  0  0  0
  -25.3358  -22.3747   24.1132 C   0  0  0  0  0  0  0  0  0  0  0  0
  -22.9508  -22.5892   24.8302 C   0  0  0  0  0  0  0  0  0  0  0  0
  -26.7015  -30.3197   25.6073 C   0  0  0  0  0  0  0  0  0  0  0  0
  -25.7747  -32.4273   26.5909 C   0  0  0  0  0  0  0  0  0  0  0  0
  -27.9004  -32.4911   25.2871 C   0  0  0  0  0  0  0  0  0  0  0  0
  -23.2122  -35.3726   21.2142 C   0  0  0  0  0  0  0  0  0  0  0  0
  -18.5664  -26.2720   21.3281 C   0  0  0  0  0  0  0  0  0  0  0  0
  -23.5542  -23.2406   22.4824 C   0  0  0  0  0  0  0  0  0  0  0  0
  -19.5499  -26.9853   20.4050 C   0  0  0  0  0  0  0  0  0  1  0  0
  -19.2103  -25.7780   22.6380 C   0  0  2  0  0  0  0  0  0  0  0  0
  -25.7109  -32.1437   24.0717 C   0  0  1  0  0  0  0  0  0  0  0  0
  -24.3696  -35.6274   23.4129 C   0  0  2  0  0  0  0  0  0  0  0  0
  -23.8789  -22.2726   23.6461 C   0  0  0  0  0  0  0  0  0  0  0  0
  -26.5070  -31.8307   25.3700 C   0  0  0  0  0  0  0  0  0  0  0  0
  -21.2949  -22.7824   21.7744 N   0  0  0  0  0  0  0  0  0  0  0  0
  -24.4363  -16.4768   20.3738 N   0  0  0  0  0  0  0  0  0  0  0  0
  -22.1704  -23.6271   22.3453 N   0  0  0  0  0  0  0  0  0  0  0  0
  -23.7497  -17.4536   19.7569 N   0  0  0  0  0  0  0  0  0  0  0  0
  -25.6058  -30.6405   22.1087 N   0  0  0  0  0  0  0  0  0  0  0  0
  -24.3690  -20.3444   22.1803 N   0  0  0  0  0  0  0  0  0  0  0  0
  -22.1975  -17.8612   18.0147 N   0  0  0  0  0  0  0  0  0  0  0  0
  -22.7967  -13.3879   17.8510 N   0  0  0  0  0  0  0  0  0  0  0  0
  -27.3936  -27.7827   20.7184 N   0  0  0  0  0  0  0  0  0  0  0  0
  -25.5348  -33.5676   23.8074 N   0  0  0  0  0  0  0  0  0  0  0  0
  -23.2495  -36.0604   22.5305 N   0  3  0  0  0  0  0  0  0  0  0  0
  -21.7032  -15.1566   16.8843 O   0  0  0  0  0  0  0  0  0  0  0  0
  -26.4375  -28.3163   22.7735 O   0  0  0  0  0  0  0  0  0  0  0  0
  -27.5062  -31.9214   22.5374 O   0  0  0  0  0  0  0  0  0  0  0  0
  -22.7120  -20.2172   23.8048 O   0  0  0  0  0  0  0  0  0  0  0  0
  -23.2165  -33.5345   23.7694 O   0  0  0  0  0  0  0  0  0  0  0  0
  -26.1157  -10.3861   21.1690 O   0  0  0  0  0  0  0  0  0  0  0  0
  -20.0649  -28.1309   21.0823 O   0  0  0  0  0  0  0  0  0  1  0  0
  -22.5745   -6.1783   21.5673 F   0  0  0  0  0  0  0  0  0  0  0  0
  -25.7866   -9.0304   23.5557 F   0  0  0  0  0  0  0  0  0  0  0  0
  1  2  1  0  0  0  0
  1  5  2  0  0  0  0
  2  6  2  0  0  0  0
  3  8  2  0  0  0  0
  3 17  1  0  0  0  0
  4  9  1  0  0  0  0
  4 17  2  0  0  0  0
  5 19  1  0  0  0  0
  6 21  1  0  0  0  0
  7 10  2  0  0  0  0
  7 20  1  0  0  0  0
  8 24  1  0  0  0  0
  9 24  2  0  0  0  0
 10 25  1  0  0  0  0
 11 12  2  0  0  0  0
 11 26  1  0  0  0  0
 12 27  1  0  0  0  0
 13 22  1  0  0  0  0
 13 25  2  0  0  0  0
 14 27  2  0  0  0  0
 14 28  1  0  0  0  0
 15 23  1  0  0  0  0
 15 64  2  0  0  0  0
 16 23  2  0  0  0  0
 16 66  1  0  0  0  0
 17 29  1  0  0  0  0
 18 29  1  0  0  0  0
 18 30  2  0  0  0  0
 18 31  1  0  0  0  0
 19 21  2  0  0  0  0
 19 36  1  0  0  0  0
 20 22  2  0  0  0  0
 20 37  1  0  0  0  0
 21 45  1  0  0  0  0
 22 38  1  0  0  0  0
 23 59  1  0  0  0  0
 24 80  1  0  0  0  0
 25 81  1  0  0  0  0
 26 28  2  0  0  0  0
 26 80  1  0  0  0  0
 27 82  1  0  0  0  0
 28 83  1  0  0  0  0
 29 65  2  0  0  0  0
 30 67  1  0  0  0  0
 30 70  1  0  0  0  0
 31 71  1  0  0  0  0
 31 75  2  0  0  0  0
 32 46  1  0  0  0  0
 32 72  1  0  0  0  0
 32 76  2  0  0  0  0
 33 60  1  0  0  0  0
 33 68  1  0  0  0  0
 33 77  2  0  0  0  0
 34 62  1  0  0  0  0
 34 69  1  0  0  0  0
 34 78  2  0  0  0  0
 35 61  1  0  0  0  0
 35 73  1  0  0  0  0
 35 79  2  0  0  0  0
 36 39  1  0  0  0  0
 37 46  1  0  0  0  0
 38 68  1  0  0  0  0
 39 41  1  0  0  0  0
 40 42  1  0  0  0  0
 40 43  1  0  0  0  0
 41 45  1  0  0  0  0
 42 47  1  0  0  0  0
 43 69  1  0  0  0  0
 44 47  1  0  0  0  0
 44 69  1  0  0  0  0
 45 72  1  0  0  0  0
 46 68  1  0  0  0  0
 47 67  1  0  0  0  0
 48 59  1  0  0  0  0
 49 61  1  0  0  0  0
 50 62  1  0  0  0  0
 51 62  1  0  0  0  0
 52 63  1  0  0  0  0
 53 63  1  0  0  0  0
 54 63  1  0  0  0  0
 55 74  1  0  0  0  0
 56 58  1  0  0  0  0
 56 59  1  0  0  0  0
 57 62  1  0  0  0  0
 57 66  1  0  0  0  0
 58 81  1  0  0  0  0
 60 63  1  0  0  0  0
 60 73  1  0  0  0  0
 61 74  1  0  0  0  0
 64 66  1  0  0  0  0
 65 67  1  0  0  0  0
M  CHG  1  74   1
M  ISO  4  34 100  58 101  62 100  81 101
M  END
> <Batch ID>
0094

> <Smiles>
CNC(C)C(=O)NC(C(=O)N1Cc2cc([101O:1][101CH2:1]CC(C)c3cnn(C[100C:0](C)(C)[100C:0](=O)N4CCCC(n5nc(-c6ccc(Oc7ccc(F)cc7F)cc6)c(C(N)=O)c5N)C4)c3)ccc2CC1C(=O)NC1CCCc2ccccc21)C(C)(C)C

> <Shape>
0.264

> <Color>
0.073

> <Negative vol penalty>
0.000

$$$$

  -OEChem-04052319193D

 88 96  0     1  0  0  0  0  0999 V2000
  -18.7427  -24.5005   23.0787 C   0  0  0  0  0  0  0  0  0  0  0  0
  -20.1119  -24.5535   22.8378 C   0  0  0  0  0  0  0  0  0  0  0  0
  -26.2319  -13.0594   19.3478 C   0  0  0  0  0  0  0  0  0  0  0  0
  -24.5073  -13.5336   20.9719 C   0  0  0  0  0  0  0  0  0  0  0  0
  -17.9642  -25.6469   22.9251 C   0  0  0  0  0  0  0  0  0  0  0  0
  -20.7032  -25.7528   22.4421 C   0  0  0  0  0  0  0  0  0  0  0  0
  -25.0143  -26.7045   24.9226 C   0  0  0  0  0  0  0  0  0  0  0  0
  -26.2614  -11.7295   19.7673 C   0  0  0  0  0  0  0  0  0  0  0  0
  -24.5367  -12.2036   21.3914 C   0  0  0  0  0  0  0  0  0  0  0  0
  -26.1529  -26.0148   24.5083 C   0  0  0  0  0  0  0  0  0  0  0  0
  -23.3381   -9.2297   20.3238 C   0  0  0  0  0  0  0  0  0  0  0  0
  -22.1161   -8.5845   20.5137 C   0  0  0  0  0  0  0  0  0  0  0  0
  -26.8703  -27.9560   23.2687 C   0  0  0  0  0  0  0  0  0  0  0  0
  -22.6771   -8.2045   22.8327 C   0  0  0  0  0  0  0  0  0  0  0  0
  -26.5624  -25.2314   19.2008 C   0  0  0  0  0  0  0  0  0  0  0  0
  -25.3549  -13.9615   19.9501 C   0  0  0  0  0  0  0  0  0  0  0  0
  -24.5212  -15.8898   18.5031 C   0  0  0  0  0  0  0  0  0  0  0  0
  -18.5478  -26.8631   22.5367 C   0  0  0  0  0  0  0  0  0  0  0  0
  -24.7894  -28.0237   24.5036 C   0  0  0  0  0  0  0  0  0  0  0  0
  -19.9315  -26.9162   22.2819 C   0  0  0  0  0  0  0  0  0  0  0  0
  -25.7294  -28.6611   23.6813 C   0  0  0  0  0  0  0  0  0  0  0  0
  -25.7741  -24.1946   18.7526 C   0  0  0  0  0  0  0  0  0  0  0  0
  -26.5883  -23.3624   17.9454 C   0  0  0  0  0  0  0  0  0  0  0  0
  -25.4138  -11.3016   20.7891 C   0  0  0  0  0  0  0  0  0  0  0  0
  -27.0797  -26.6395   23.6789 C   0  0  0  0  0  0  0  0  0  0  0  0
  -24.2296   -9.3623   21.3884 C   0  0  0  0  0  0  0  0  0  0  0  0
  -21.7856   -8.0719   21.7681 C   0  0  0  0  0  0  0  0  0  0  0  0
  -23.8991   -8.8497   22.6429 C   0  0  0  0  0  0  0  0  0  0  0  0
  -25.3245  -15.3356   19.5176 C   0  0  0  0  0  0  0  0  0  0  0  0
  -27.8495  -23.9159   17.9250 C   0  0  0  0  0  0  0  0  0  0  0  0
  -24.8647  -17.2195   18.4810 C   0  0  0  0  0  0  0  0  0  0  0  0
  -23.5511  -15.2592   17.6564 C   0  0  0  0  0  0  0  0  0  0  0  0
  -22.5406  -29.4819   22.7947 C   0  0  0  0  0  0  0  0  0  0  0  0
  -24.1688  -32.1528   23.6533 C   0  0  0  0  0  0  0  0  0  0  0  0
  -27.1126  -33.5515   24.6652 C   0  0  0  0  0  0  0  0  0  0  0  0
  -26.0040  -21.9964   21.1321 C   0  0  0  0  0  0  0  0  0  0  0  0
  -17.6579  -28.0645   22.3380 C   0  0  0  0  0  0  0  0  0  0  0  0
  -23.5696  -28.7630   24.9811 C   0  0  0  0  0  0  0  0  0  0  0  0
  -25.5446  -30.0829   23.2199 C   0  0  0  0  0  0  0  0  0  0  0  0
  -18.4216  -29.3850   22.2787 C   0  0  0  0  0  0  0  0  0  0  0  0
  -28.6725  -19.6737   20.7312 C   0  0  0  0  0  0  0  0  0  0  0  0
  -19.6308  -29.2614   21.3571 C   0  0  0  0  0  0  0  0  0  0  0  0
  -27.9727  -18.3829   20.3024 C   0  0  0  0  0  0  0  0  0  0  0  0
  -27.8427  -20.4548   21.7478 C   0  0  0  0  0  0  0  0  0  0  0  0
  -25.7583  -19.4504   20.8989 C   0  0  0  0  0  0  0  0  0  0  0  0
  -20.6135  -28.2044   21.8751 C   0  0  1  0  0  0  0  0  0  0  0  0
  -23.1854  -29.9294   24.0759 C   0  0  1  0  0  0  0  0  0  0  0  0
  -26.5313  -18.6561   19.8322 C   0  0  2  0  0  0  0  0  0  0  0  0
  -29.0795  -23.4619   17.2422 C   0  0  0  0  0  0  0  0  0  0  0  0
  -28.1445  -35.7630   25.2500 C   0  0  0  0  0  0  0  0  0  0  0  0
  -26.6822  -22.9757   14.9015 C   0  0  0  0  0  0  0  0  0  0  0  0
  -25.1581  -21.0137   15.2036 C   0  0  0  0  0  0  0  0  0  0  0  0
  -30.6001  -24.6539   22.2643 C   0  0  0  0  0  0  0  0  0  0  0  0
  -24.3116  -32.8669   20.6902 C   0  0  0  0  0  0  0  0  0  0  0  0
  -26.1158  -34.5116   21.2450 C   0  0  0  0  0  0  0  0  0  0  0  0
  -23.8318  -34.7970   22.2065 C   0  0  0  0  0  0  0  0  0  0  0  0
  -27.7204  -32.6696   27.4242 C   0  0  0  0  0  0  0  0  0  0  0  0
  -24.3440  -23.9976   19.0628 C   0  0  0  0  0  0  0  0  0  0  0  0
  -26.1653  -22.1281   17.2521 C   0  0  0  0  0  0  0  0  0  0  0  0
  -30.0090  -25.4252   19.9529 C   0  0  0  0  0  0  0  0  0  0  0  0
  -28.9874  -25.9743   18.9473 C   0  0  0  0  0  0  0  0  0  0  0  0
  -24.0785  -23.4111   20.4611 C   0  0  0  0  0  0  0  0  0  0  0  0
  -28.7346  -26.3212   22.0008 C   0  0  0  0  0  0  0  0  0  1  0  0
  -25.3160  -32.9402   23.0675 C   0  0  1  0  0  0  0  0  0  0  0  0
  -27.4320  -34.5292   25.7817 C   0  0  2  0  0  0  0  0  0  0  0  0
  -25.6268  -22.3391   15.8093 C   0  0  0  0  0  0  0  0  0  0  0  0
  -29.4522  -25.1246   21.3619 C   0  0  2  0  0  0  0  0  0  0  0  0
  -24.8966  -33.7515   21.8092 C   0  0  0  0  0  0  0  0  0  0  0  0
  -26.1187  -16.2392   20.0979 N   0  0  0  0  0  0  0  0  0  0  0  0
  -27.8221  -25.0515   18.6917 N   0  0  0  0  0  0  0  0  0  0  0  0
  -25.8162  -17.3747   19.4458 N   0  0  0  0  0  0  0  0  0  0  0  0
  -24.3329  -30.7615   23.7085 N   0  0  0  0  0  0  0  0  0  0  0  0
  -26.4875  -20.6820   21.2402 N   0  0  0  0  0  0  0  0  0  0  0  0
  -24.4429  -18.2593   17.7305 N   0  0  0  0  0  0  0  0  0  0  0  0
  -23.3209  -13.8854   17.8119 N   0  0  0  0  0  0  0  0  0  0  0  0
  -21.3925  -28.7340   22.9739 N   0  0  0  0  0  0  0  0  0  0  0  0
  -25.8484  -33.7553   24.1540 N   0  0  0  0  0  0  0  0  0  0  0  0
  -24.7122  -22.1233   20.6361 N   0  0  0  0  0  0  0  0  0  0  0  0
  -28.3071  -33.8838   26.8008 N   0  3  0  0  0  0  0  0  0  0  0  0
  -22.9193  -15.8917   16.7765 O   0  0  0  0  0  0  0  0  0  0  0  0
  -23.0463  -29.7934   21.7228 O   0  0  0  0  0  0  0  0  0  0  0  0
  -23.1670  -32.7509   24.0537 O   0  0  0  0  0  0  0  0  0  0  0  0
  -27.9068  -32.6953   24.2822 O   0  0  0  0  0  0  0  0  0  0  0  0
  -26.6758  -22.9839   21.4489 O   0  0  0  0  0  0  0  0  0  0  0  0
  -25.4420  -10.0038   21.1985 O   0  0  0  0  0  0  0  0  0  0  0  0
  -28.1915  -25.9684   23.2724 O   0  0  0  0  0  0  0  0  0  1  0  0
  -20.6114   -7.4536   21.9507 F   0  0  0  0  0  0  0  0  0  0  0  0
  -24.7509   -8.9750   23.6697 F   0  0  0  0  0  0  0  0  0  0  0  0
  1  2  1  0  0  0  0
  1  5  2  0  0  0  0
  2  6  2  0  0  0  0
  3  8  2  0  0  0  0
  3 16  1  0  0  0  0
  4  9  1  0  0  0  0
  4 16  2  0  0  0  0
  5 18  1  0  0  0  0
  6 20  1  0  0  0  0
  7 10  2  0  0  0  0
  7 19  1  0  0  0  0
  8 24  1  0  0  0  0
  9 24  2  0  0  0  0
 10 25  1  0  0  0  0
 11 12  2  0  0  0  0
 11 26  1  0  0  0  0
 12 27  1  0  0  0  0
 13 21  1  0  0  0  0
 13 25  2  0  0  0  0
 14 27  2  0  0  0  0
 14 28  1  0  0  0  0
 15 22  2  0  0  0  0
 15 70  1  0  0  0  0
 16 29  1  0  0  0  0
 17 29  1  0  0  0  0
 17 31  2  0  0  0  0
 17 32  1  0  0  0  0
 18 20  2  0  0  0  0
 18 37  1  0  0  0  0
 19 21  2  0  0  0  0
 19 38  1  0  0  0  0
 20 46  1  0  0  0  0
 21 39  1  0  0  0  0
 22 23  1  0  0  0  0
 22 58  1  0  0  0  0
 23 30  2  0  0  0  0
 23 59  1  0  0  0  0
 24 85  1  0  0  0  0
 25 86  1  0  0  0  0
 26 28  2  0  0  0  0
 26 85  1  0  0  0  0
 27 87  1  0  0  0  0
 28 88  1  0  0  0  0
 29 69  2  0  0  0  0
 30 49  1  0  0  0  0
 30 70  1  0  0  0  0
 31 71  1  0  0  0  0
 31 74  1  0  0  0  0
 32 75  1  0  0  0  0
 32 80  2  0  0  0  0
 33 47  1  0  0  0  0
 33 76  1  0  0  0  0
 33 81  2  0  0  0  0
 34 64  1  0  0  0  0
 34 72  1  0  0  0  0
 34 82  2  0  0  0  0
 35 65  1  0  0  0  0
 35 77  1  0  0  0  0
 35 83  2  0  0  0  0
 36 73  1  0  0  0  0
 36 78  1  0  0  0  0
 36 84  2  0  0  0  0
 37 40  1  0  0  0  0
 38 47  1  0  0  0  0
 39 72  1  0  0  0  0
 40 42  1  0  0  0  0
 41 43  1  0  0  0  0
 41 44  1  0  0  0  0
 42 46  1  0  0  0  0
 43 48  1  0  0  0  0
 44 73  1  0  0  0  0
 45 48  1  0  0  0  0
 45 73  1  0  0  0  0
 46 76  1  0  0  0  0
 47 72  1  0  0  0  0
 48 71  1  0  0  0  0
 50 65  1  0  0  0  0
 51 66  1  0  0  0  0
 52 66  1  0  0  0  0
 53 67  1  0  0  0  0
 54 68  1  0  0  0  0
 55 68  1  0  0  0  0
 56 68  1  0  0  0  0
 57 79  1  0  0  0  0
 58 62  1  0  0  0  0
 59 66  1  0  0  0  0
 60 61  1  0  0  0  0
 60 67  1  0  0  0  0
 61 70  1  0  0  0  0
 62 78  1  0  0  0  0
 63 67  1  0  0  0  0
 63 86  1  0  0  0  0
 64 68  1  0  0  0  0
 64 77  1  0  0  0  0
 65 79  1  0  0  0  0
 69 71  1  0  0  0  0
M  CHG  1  79   1
M  ISO  4  36 100  63 101  78 100  86 101
M  END
> <Batch ID>
0094

> <Smiles>
CNC(C)C(=O)NC(C(=O)N1Cc2cc([101O:1][101CH2:1]C(C)CCn3cc(CC[100NH:0][100C:0](=O)N4CCCC(n5nc(-c6ccc(Oc7ccc(F)cc7F)cc6)c(C(N)=O)c5N)C4)c(CC(C)C)c3C)ccc2CC1C(=O)NC1CCCc2ccccc21)C(C)(C)C

> <Shape>
0.245

> <Color>
0.085

> <Negative vol penalty>
0.000

$$$$

  -OEChem-04052319193D

 86 94  0     1  0  0  0  0  0999 V2000
  -27.3280  -37.3902   17.3645 C   0  0  0  0  0  0  0  0  0  0  0  0
  -27.6038  -36.0322   17.2409 C   0  0  0  0  0  0  0  0  0  0  0  0
  -23.9538   -9.3140   22.2863 C   0  0  0  0  0  0  0  0  0  0  0  0
  -23.2716   -9.5740   19.9832 C   0  0  0  0  0  0  0  0  0  0  0  0
  -27.0850  -37.9393   18.6227 C   0  0  0  0  0  0  0  0  0  0  0  0
  -27.6376  -35.2227   18.3758 C   0  0  0  0  0  0  0  0  0  0  0  0
  -25.8863  -29.3679   18.7754 C   0  0  0  0  0  0  0  0  0  0  0  0
  -23.0786   -8.2366   22.4239 C   0  0  0  0  0  0  0  0  0  0  0  0
  -22.3965   -8.4965   20.1208 C   0  0  0  0  0  0  0  0  0  0  0  0
  -26.6006  -28.1710   18.7445 C   0  0  0  0  0  0  0  0  0  0  0  0
  -23.0164   -4.9573   21.6022 C   0  0  0  0  0  0  0  0  0  0  0  0
  -23.4907   -3.8153   22.2474 C   0  0  0  0  0  0  0  0  0  0  0  0
  -26.6347  -28.1359   21.1563 C   0  0  0  0  0  0  0  0  0  0  0  0
  -21.7648   -4.0447   23.9224 C   0  0  0  0  0  0  0  0  0  0  0  0
  -24.0502   -9.9828   21.0659 C   0  0  0  0  0  0  0  0  0  0  0  0
  -26.3013  -11.0510   20.5188 C   0  0  0  0  0  0  0  0  0  0  0  0
  -27.1063  -37.1343   19.7726 C   0  0  0  0  0  0  0  0  0  0  0  0
  -25.5497  -29.9644   19.9990 C   0  0  0  0  0  0  0  0  0  0  0  0
  -27.3959  -35.7618   19.6508 C   0  0  0  0  0  0  0  0  0  0  0  0
  -25.9138  -29.3391   21.2001 C   0  0  0  0  0  0  0  0  0  0  0  0
  -22.3000   -7.8279   21.3412 C   0  0  0  0  0  0  0  0  0  0  0  0
  -26.9774  -27.5563   19.9350 C   0  0  0  0  0  0  0  0  0  0  0  0
  -21.9163   -5.6432   22.1172 C   0  0  0  0  0  0  0  0  0  0  0  0
  -22.8649   -3.3589   23.4074 C   0  0  0  0  0  0  0  0  0  0  0  0
  -21.2905   -5.1868   23.2772 C   0  0  0  0  0  0  0  0  0  0  0  0
  -24.9536  -11.0961   20.9233 C   0  0  0  0  0  0  0  0  0  0  0  0
  -26.7115  -12.3615   20.5444 C   0  0  0  0  0  0  0  0  0  0  0  0
  -26.2242  -21.3107   19.5177 C   0  0  0  0  0  0  0  0  0  0  0  0
  -26.9209  -22.2961   18.9357 C   0  0  0  0  0  0  0  0  0  0  0  0
  -26.4855  -19.9617   19.0009 C   0  0  0  0  0  0  0  0  0  0  0  0
  -28.0314  -20.6872   17.4571 C   0  0  0  0  0  0  0  0  0  0  0  0
  -27.1100   -9.9250   20.1527 C   0  0  0  0  0  0  0  0  0  0  0  0
  -26.2387  -32.7270   21.4124 C   0  0  0  0  0  0  0  0  0  0  0  0
  -24.1036  -31.6832   23.6202 C   0  0  0  0  0  0  0  0  0  0  0  0
  -22.5058  -29.0477   25.0858 C   0  0  0  0  0  0  0  0  0  0  0  0
  -25.8960  -17.6260   19.3122 C   0  0  0  0  0  0  0  0  0  0  0  0
  -26.8841  -37.7820   21.1164 C   0  0  0  0  0  0  0  0  0  0  0  0
  -24.7557  -31.2418   20.0155 C   0  0  0  0  0  0  0  0  0  0  0  0
  -25.5593  -29.9282   22.5401 C   0  0  0  0  0  0  0  0  0  0  0  0
  -26.5689  -36.7849   22.2285 C   0  0  0  0  0  0  0  0  0  0  0  0
  -24.4604  -16.4832   22.4279 C   0  0  0  0  0  0  0  0  0  0  0  0
  -27.5385  -35.6082   22.1810 C   0  0  0  0  0  0  0  0  0  0  0  0
  -24.5783  -14.9651   22.2781 C   0  0  0  0  0  0  0  0  0  0  0  0
  -24.1114  -17.1435   21.0974 C   0  0  0  0  0  0  0  0  0  0  0  0
  -25.1726  -15.3136   19.8352 C   0  0  0  0  0  0  0  0  0  0  0  0
  -27.4171  -34.8465   20.8557 C   0  0  1  0  0  0  0  0  0  0  0  0
  -24.9131  -32.0264   21.3144 C   0  0  1  0  0  0  0  0  0  0  0  0
  -25.5452  -14.5867   21.1403 C   0  0  2  0  0  0  0  0  0  0  0  0
  -20.8456  -28.5054   26.8877 C   0  0  0  0  0  0  0  0  0  0  0  0
  -28.7420  -25.8816   16.0282 C   0  0  0  0  0  0  0  0  0  0  0  0
  -28.2528  -24.8796   13.7881 C   0  0  0  0  0  0  0  0  0  0  0  0
  -26.2492  -32.1588   25.7368 C   0  0  0  0  0  0  0  0  0  0  0  0
  -24.9118  -30.7434   27.3105 C   0  0  0  0  0  0  0  0  0  0  0  0
  -23.9452  -32.8599   26.4110 C   0  0  0  0  0  0  0  0  0  0  0  0
  -20.6216  -27.8421   23.1479 C   0  0  0  0  0  0  0  0  0  0  0  0
  -26.7327  -23.7053   19.3837 C   0  0  0  0  0  0  0  0  0  0  0  0
  -27.6979  -24.0648   20.5086 C   0  0  0  0  0  0  0  0  0  0  0  0
  -28.0365  -23.4730   15.9076 C   0  0  0  0  0  0  0  0  0  0  0  0
  -28.5721  -23.1090   17.2903 C   0  0  0  0  0  0  0  0  0  0  0  0
  -27.4807  -25.4898   20.9991 C   0  0  0  0  0  0  0  0  0  1  0  0
  -24.1875  -30.8602   24.8830 C   0  0  1  0  0  0  0  0  0  0  0  0
  -21.0420  -28.8117   25.4111 C   0  0  2  0  0  0  0  0  0  0  0  0
  -28.8010  -24.6025   15.1886 C   0  0  0  0  0  0  0  0  0  0  0  0
  -24.8319  -31.6452   26.0602 C   0  0  0  0  0  0  0  0  0  0  0  0
  -24.5356  -12.3371   21.1867 N   0  0  0  0  0  0  0  0  0  0  0  0
  -27.3124  -19.6683   18.0565 N   0  0  0  0  0  0  0  0  0  0  0  0
  -25.6270  -13.0838   20.9472 N   0  0  0  0  0  0  0  0  0  0  0  0
  -27.8248  -22.0146   17.9095 N   0  0  0  0  0  0  0  0  0  0  0  0
  -24.7877  -31.1815   22.5038 N   0  0  0  0  0  0  0  0  0  0  0  0
  -25.0850  -16.7594   20.0656 N   0  0  0  0  0  0  0  0  0  0  0  0
  -27.8906  -12.9550   20.2614 N   0  0  0  0  0  0  0  0  0  0  0  0
  -26.5308   -8.6491   20.1810 N   0  0  0  0  0  0  0  0  0  0  0  0
  -25.7645  -18.9838   19.6094 N   0  0  0  0  0  0  0  0  0  0  0  0
  -26.2458  -33.9965   20.8668 N   0  0  0  0  0  0  0  0  0  0  0  0
  -22.8344  -30.3852   25.1512 N   0  0  0  0  0  0  0  0  0  0  0  0
  -20.5136  -27.6653   24.6190 N   0  3  0  0  0  0  0  0  0  0  0  0
  -28.8277  -20.4264   16.5532 O   0  0  0  0  0  0  0  0  0  0  0  0
  -28.3152  -10.0451   19.8264 O   0  0  0  0  0  0  0  0  0  0  0  0
  -27.1846  -32.1584   21.9450 O   0  0  0  0  0  0  0  0  0  0  0  0
  -23.4492  -32.7288   23.6221 O   0  0  0  0  0  0  0  0  0  0  0  0
  -23.2812  -28.1362   24.8055 O   0  0  0  0  0  0  0  0  0  0  0  0
  -26.6933  -17.2213   18.4592 O   0  0  0  0  0  0  0  0  0  0  0  0
  -21.4461   -6.7764   21.4750 O   0  0  0  0  0  0  0  0  0  0  0  0
  -27.6752  -26.3883   19.9077 O   0  0  0  0  0  0  0  0  0  1  0  0
  -23.3196   -2.2612   24.0260 F   0  0  0  0  0  0  0  0  0  0  0  0
  -20.2325   -5.8408   23.7760 F   0  0  0  0  0  0  0  0  0  0  0  0
  1  2  1  0  0  0  0
  1  5  2  0  0  0  0
  2  6  2  0  0  0  0
  3  8  2  0  0  0  0
  3 15  1  0  0  0  0
  4  9  1  0  0  0  0
  4 15  2  0  0  0  0
  5 17  1  0  0  0  0
  6 19  1  0  0  0  0
  7 10  2  0  0  0  0
  7 18  1  0  0  0  0
  8 21  1  0  0  0  0
  9 21  2  0  0  0  0
 10 22  1  0  0  0  0
 11 12  2  0  0  0  0
 11 23  1  0  0  0  0
 12 24  1  0  0  0  0
 13 20  1  0  0  0  0
 13 22  2  0  0  0  0
 14 24  2  0  0  0  0
 14 25  1  0  0  0  0
 15 26  1  0  0  0  0
 16 26  1  0  0  0  0
 16 27  2  0  0  0  0
 16 32  1  0  0  0  0
 17 19  2  0  0  0  0
 17 37  1  0  0  0  0
 18 20  2  0  0  0  0
 18 38  1  0  0  0  0
 19 46  1  0  0  0  0
 20 39  1  0  0  0  0
 21 83  1  0  0  0  0
 22 84  1  0  0  0  0
 23 25  2  0  0  0  0
 23 83  1  0  0  0  0
 24 85  1  0  0  0  0
 25 86  1  0  0  0  0
 26 65  2  0  0  0  0
 27 67  1  0  0  0  0
 27 71  1  0  0  0  0
 28 29  2  0  0  0  0
 28 30  1  0  0  0  0
 29 56  1  0  0  0  0
 29 68  1  0  0  0  0
 30 66  2  0  0  0  0
 30 73  1  0  0  0  0
 31 66  1  0  0  0  0
 31 68  1  0  0  0  0
 31 77  2  0  0  0  0
 32 72  1  0  0  0  0
 32 78  2  0  0  0  0
 33 47  1  0  0  0  0
 33 74  1  0  0  0  0
 33 79  2  0  0  0  0
 34 61  1  0  0  0  0
 34 69  1  0  0  0  0
 34 80  2  0  0  0  0
 35 62  1  0  0  0  0
 35 75  1  0  0  0  0
 35 81  2  0  0  0  0
 36 70  1  0  0  0  0
 36 73  1  0  0  0  0
 36 82  2  0  0  0  0
 37 40  1  0  0  0  0
 38 47  1  0  0  0  0
 39 69  1  0  0  0  0
 40 42  1  0  0  0  0
 41 43  1  0  0  0  0
 41 44  1  0  0  0  0
 42 46  1  0  0  0  0
 43 48  1  0  0  0  0
 44 70  1  0  0  0  0
 45 48  1  0  0  0  0
 45 70  1  0  0  0  0
 46 74  1  0  0  0  0
 47 69  1  0  0  0  0
 48 67  1  0  0  0  0
 49 62  1  0  0  0  0
 50 63  1  0  0  0  0
 51 63  1  0  0  0  0
 52 64  1  0  0  0  0
 53 64  1  0  0  0  0
 54 64  1  0  0  0  0
 55 76  1  0  0  0  0
 56 57  1  0  0  0  0
 57 60  1  0  0  0  0
 58 59  1  0  0  0  0
 58 63  1  0  0  0  0
 59 68  1  0  0  0  0
 60 84  1  0  0  0  0
 61 64  1  0  0  0  0
 61 75  1  0  0  0  0
 62 76  1  0  0  0  0
 65 67  1  0  0  0  0
M  CHG  1  76   1
M  ISO  4  36 100  60 101  73 100  84 101
M  END
> <Batch ID>
0094

> <Smiles>
CNC(C)C(=O)NC(C(=O)N1Cc2cc([101O:1][101CH2:1]CCc3cc([100NH:0][100C:0](=O)N4CCCC(n5nc(-c6ccc(Oc7ccc(F)cc7F)cc6)c(C(N)=O)c5N)C4)nc(=O)n3CCC(C)C)ccc2CC1C(=O)NC1CCCc2ccccc21)C(C)(C)C

> <Shape>
0.242

> <Color>
0.098

> <Negative vol penalty>
0.000

$$$$

  -OEChem-04052319193D

 92100  0     1  0  0  0  0  0999 V2000
  -19.1303  -34.8006   25.6469 C   0  0  0  0  0  0  0  0  0  0  0  0
  -18.7952  -33.7212   24.8358 C   0  0  0  0  0  0  0  0  0  0  0  0
  -23.0076   -9.8944   19.9719 C   0  0  0  0  0  0  0  0  0  0  0  0
  -23.7393   -9.9334   22.2741 C   0  0  0  0  0  0  0  0  0  0  0  0
  -20.4291  -35.3075   25.6295 C   0  0  0  0  0  0  0  0  0  0  0  0
  -19.7584  -33.1486   24.0059 C   0  0  0  0  0  0  0  0  0  0  0  0
  -21.6963  -26.8351   21.2308 C   0  0  0  0  0  0  0  0  0  0  0  0
  -22.2455   -8.7558   20.2334 C   0  0  0  0  0  0  0  0  0  0  0  0
  -22.9772   -8.7948   22.5357 C   0  0  0  0  0  0  0  0  0  0  0  0
  -21.9946  -26.2439   20.0039 C   0  0  0  0  0  0  0  0  0  0  0  0
  -23.2309   -5.4597   22.0423 C   0  0  0  0  0  0  0  0  0  0  0  0
  -23.8240   -4.4397   22.7863 C   0  0  0  0  0  0  0  0  0  0  0  0
  -24.2265  -27.1525   20.1156 C   0  0  0  0  0  0  0  0  0  0  0  0
  -27.9112  -24.3212   18.6627 C   0  0  0  0  0  0  0  0  0  0  0  0
  -27.0623  -22.0643   18.5120 C   0  0  0  0  0  0  0  0  0  0  0  0
  -22.1042   -4.6667   24.4680 C   0  0  0  0  0  0  0  0  0  0  0  0
  -23.7545  -10.4832   20.9923 C   0  0  0  0  0  0  0  0  0  0  0  0
  -24.1312  -13.0011   20.8308 C   0  0  0  0  0  0  0  0  0  0  0  0
  -21.4112  -34.7346   24.8061 C   0  0  0  0  0  0  0  0  0  0  0  0
  -22.6590  -27.5998   21.9052 C   0  0  0  0  0  0  0  0  0  0  0  0
  -21.0712  -33.6491   23.9764 C   0  0  0  0  0  0  0  0  0  0  0  0
  -23.9387  -27.7502   21.3521 C   0  0  0  0  0  0  0  0  0  0  0  0
  -27.1256  -23.3667   18.0167 C   0  0  0  0  0  0  0  0  0  0  0  0
  -28.6336  -23.9732   19.8041 C   0  0  0  0  0  0  0  0  0  0  0  0
  -27.7847  -21.7163   19.6534 C   0  0  0  0  0  0  0  0  0  0  0  0
  -28.5704  -22.6708   20.2994 C   0  0  0  0  0  0  0  0  0  0  0  0
  -22.2303   -8.2060   21.5153 C   0  0  0  0  0  0  0  0  0  0  0  0
  -23.2589  -26.4049   19.4448 C   0  0  0  0  0  0  0  0  0  0  0  0
  -22.0746   -6.0832   22.5111 C   0  0  0  0  0  0  0  0  0  0  0  0
  -23.2606   -4.0432   23.9991 C   0  0  0  0  0  0  0  0  0  0  0  0
  -21.5112   -5.6866   23.7240 C   0  0  0  0  0  0  0  0  0  0  0  0
  -24.5424  -11.6591   20.7226 C   0  0  0  0  0  0  0  0  0  0  0  0
  -25.2376  -13.7295   20.4677 C   0  0  0  0  0  0  0  0  0  0  0  0
  -22.8626  -13.5410   21.2244 C   0  0  0  0  0  0  0  0  0  0  0  0
  -22.8717  -30.6355   22.8236 C   0  0  0  0  0  0  0  0  0  0  0  0
  -25.5896  -29.6032   24.2624 C   0  0  0  0  0  0  0  0  0  0  0  0
  -28.1170  -27.3128   24.3767 C   0  0  0  0  0  0  0  0  0  0  0  0
  -30.7316  -14.6804   20.7059 C   0  0  0  0  0  0  0  0  0  0  0  0
  -22.7893  -35.3470   24.7863 C   0  0  0  0  0  0  0  0  0  0  0  0
  -22.3300  -28.2088   23.2406 C   0  0  0  0  0  0  0  0  0  0  0  0
  -25.0141  -28.5446   22.0457 C   0  0  0  0  0  0  0  0  0  0  0  0
  -23.8476  -34.4451   24.1564 C   0  0  0  0  0  0  0  0  0  0  0  0
  -29.5918  -12.2676   18.3488 C   0  0  0  0  0  0  0  0  0  0  0  0
  -23.3353  -33.8552   22.8463 C   0  0  0  0  0  0  0  0  0  0  0  0
  -28.1454  -12.0006   18.7690 C   0  0  0  0  0  0  0  0  0  0  0  0
  -30.4970  -12.4984   19.5568 C   0  0  0  0  0  0  0  0  0  0  0  0
  -28.5883  -13.2794   20.9061 C   0  0  0  0  0  0  0  0  0  0  0  0
  -22.0946  -32.9851   23.0810 C   0  0  1  0  0  0  0  0  0  0  0  0
  -23.2236  -29.3940   23.5933 C   0  0  1  0  0  0  0  0  0  0  0  0
  -27.6264  -13.0960   19.7197 C   0  0  2  0  0  0  0  0  0  0  0  0
  -29.3447  -22.2982   21.5235 C   0  0  0  0  0  0  0  0  0  0  0  0
  -30.2123  -26.7527   25.6391 C   0  0  0  0  0  0  0  0  0  0  0  0
  -33.3263  -25.6522   20.4452 C   0  0  0  0  0  0  0  0  0  0  0  0
  -31.4720  -27.3314   20.4003 C   0  0  0  0  0  0  0  0  0  0  0  0
  -27.0622  -31.8452   22.8082 C   0  0  0  0  0  0  0  0  0  0  0  0
  -29.2139  -30.6772   23.3318 C   0  0  0  0  0  0  0  0  0  0  0  0
  -27.7637  -31.5061   25.1846 C   0  0  0  0  0  0  0  0  0  0  0  0
  -27.0337  -24.6991   25.2449 C   0  0  0  0  0  0  0  0  0  0  0  0
  -28.9787  -19.0543   18.4385 C   0  0  0  0  0  0  0  0  0  0  0  0
  -26.3452  -23.7427   16.7825 C   0  0  0  0  0  0  0  0  0  0  0  0
  -29.4665  -25.0144   20.4779 C   0  0  0  0  0  0  0  0  0  0  0  0
  -27.6999  -20.3149   20.1638 C   0  0  0  0  0  0  0  0  0  0  0  0
  -24.9334  -24.2535   17.0783 C   0  0  0  0  0  0  0  0  0  0  0  0
  -30.9641  -24.8422   20.1672 C   0  0  0  0  0  0  0  0  0  0  0  0
  -30.5563  -17.9888   20.9203 C   0  0  0  0  0  0  0  0  0  0  0  0
  -30.8108  -16.8521   21.9044 C   0  0  0  0  0  0  0  0  0  0  0  0
  -29.0794  -18.3501   20.8251 C   0  0  0  0  0  0  0  0  0  0  0  0
  -24.9095  -25.4478   18.0251 C   0  0  0  0  0  0  0  0  0  1  0  0
  -27.0375  -29.4839   23.8520 C   0  0  1  0  0  0  0  0  0  0  0  0
  -28.7123  -26.5265   25.5307 C   0  0  2  0  0  0  0  0  0  0  0  0
  -31.8635  -25.9121   20.8138 C   0  0  0  0  0  0  0  0  0  0  0  0
  -27.7487  -30.8647   23.7799 C   0  0  0  0  0  0  0  0  0  0  0  0
  -25.8109  -11.5391   20.3220 N   0  0  0  0  0  0  0  0  0  0  0  0
  -26.2063  -12.8151   20.1751 N   0  0  0  0  0  0  0  0  0  0  0  0
  -24.6417  -29.1258   23.3461 N   0  0  0  0  0  0  0  0  0  0  0  0
  -29.9493  -13.5500   20.4171 N   0  0  0  0  0  0  0  0  0  0  0  0
  -25.4665  -15.0566   20.3732 N   0  0  0  0  0  0  0  0  0  0  0  0
  -21.8347  -12.6513   21.5654 N   0  0  0  0  0  0  0  0  0  0  0  0
  -22.4755  -31.6956   23.6164 N   0  0  0  0  0  0  0  0  0  0  0  0
  -27.6501  -28.5443   24.7849 N   0  0  0  0  0  0  0  0  0  0  0  0
  -30.1345  -15.6322   21.5235 N   0  0  0  0  0  0  0  0  0  0  0  0
  -28.4694  -25.0681   25.3436 N   0  3  0  0  0  0  0  0  0  0  0  0
  -28.9167  -19.5086   19.8745 N   0  3  1  0  0  0  0  0  0  0  0  0
  -22.6420  -14.7754   21.2565 O   0  0  0  0  0  0  0  0  0  0  0  0
  -22.9551  -30.6323   21.6010 O   0  0  0  0  0  0  0  0  0  0  0  0
  -25.3102  -30.0951   25.3586 O   0  0  0  0  0  0  0  0  0  0  0  0
  -28.0742  -26.8796   23.2274 O   0  0  0  0  0  0  0  0  0  0  0  0
  -31.8753  -14.8327   20.2634 O   0  0  0  0  0  0  0  0  0  0  0  0
  -21.4866   -7.0951   21.7709 O   0  0  0  0  0  0  0  0  0  0  0  0
  -23.5525  -25.8294   18.2471 O   0  0  0  0  0  0  0  0  0  1  0  0
  -23.8293   -3.0627   24.7128 F   0  0  0  0  0  0  0  0  0  0  0  0
  -20.3997   -6.2811   24.1790 F   0  0  0  0  0  0  0  0  0  0  0  0
  1  2  1  0  0  0  0
  1  5  2  0  0  0  0
  2  6  2  0  0  0  0
  3  8  2  0  0  0  0
  3 17  1  0  0  0  0
  4  9  1  0  0  0  0
  4 17  2  0  0  0  0
  5 19  1  0  0  0  0
  6 21  1  0  0  0  0
  7 10  2  0  0  0  0
  7 20  1  0  0  0  0
  8 27  1  0  0  0  0
  9 27  2  0  0  0  0
 10 28  1  0  0  0  0
 11 12  2  0  0  0  0
 11 29  1  0  0  0  0
 12 30  1  0  0  0  0
 13 22  1  0  0  0  0
 13 28  2  0  0  0  0
 14 23  1  0  0  0  0
 14 24  2  0  0  0  0
 15 23  2  0  0  0  0
 15 25  1  0  0  0  0
 16 30  2  0  0  0  0
 16 31  1  0  0  0  0
 17 32  1  0  0  0  0
 18 32  1  0  0  0  0
 18 33  2  0  0  0  0
 18 34  1  0  0  0  0
 19 21  2  0  0  0  0
 19 39  1  0  0  0  0
 20 22  2  0  0  0  0
 20 40  1  0  0  0  0
 21 48  1  0  0  0  0
 22 41  1  0  0  0  0
 23 60  1  0  0  0  0
 24 26  1  0  0  0  0
 24 61  1  0  0  0  0
 25 26  2  0  0  0  0
 25 62  1  0  0  0  0
 26 51  1  0  0  0  0
 27 89  1  0  0  0  0
 28 90  1  0  0  0  0
 29 31  2  0  0  0  0
 29 89  1  0  0  0  0
 30 91  1  0  0  0  0
 31 92  1  0  0  0  0
 32 73  2  0  0  0  0
 33 74  1  0  0  0  0
 33 77  1  0  0  0  0
 34 78  1  0  0  0  0
 34 84  2  0  0  0  0
 35 49  1  0  0  0  0
 35 79  1  0  0  0  0
 35 85  2  0  0  0  0
 36 69  1  0  0  0  0
 36 75  1  0  0  0  0
 36 86  2  0  0  0  0
 37 70  1  0  0  0  0
 37 80  1  0  0  0  0
 37 87  2  0  0  0  0
 38 76  1  0  0  0  0
 38 81  1  0  0  0  0
 38 88  2  0  0  0  0
 39 42  1  0  0  0  0
 40 49  1  0  0  0  0
 41 75  1  0  0  0  0
 42 44  1  0  0  0  0
 43 45  1  0  0  0  0
 43 46  1  0  0  0  0
 44 48  1  0  0  0  0
 45 50  1  0  0  0  0
 46 76  1  0  0  0  0
 47 50  1  0  0  0  0
 47 76  1  0  0  0  0
 48 79  1  0  0  0  0
 49 75  1  0  0  0  0
 50 74  1  0  0  0  0
 52 70  1  0  0  0  0
 53 71  1  0  0  0  0
 54 71  1  0  0  0  0
 55 72  1  0  0  0  0
 56 72  1  0  0  0  0
 57 72  1  0  0  0  0
 58 82  1  0  0  0  0
 59 83  1  0  0  0  0
 60 63  1  0  0  0  0
 61 64  1  0  0  0  0
 62 83  1  0  0  0  0
 63 68  1  0  0  0  0
 64 71  1  0  0  0  0
 65 66  1  0  0  0  0
 65 67  1  0  0  0  0
 66 81  1  0  0  0  0
 67 83  1  0  0  0  0
 68 90  1  0  0  0  0
 69 72  1  0  0  0  0
 69 80  1  0  0  0  0
 70 82  1  0  0  0  0
 73 74  1  0  0  0  0
M  CHG  2  82   1  83   1
M  ISO  4  38 100  68 101  81 100  90 101
M  END
> <Batch ID>
0094

> <Smiles>
CNC(C)C(=O)NC(C(=O)N1Cc2cc([101O:1][101CH2:1]CCc3cc(CCC(C)C)c(C)c(CN(C)CCC[100NH:0][100C:0](=O)N4CCCC(n5nc(-c6ccc(Oc7ccc(F)cc7F)cc6)c(C(N)=O)c5N)C4)c3)ccc2CC1C(=O)NC1CCCc2ccccc21)C(C)(C)C

> <Shape>
0.345

> <Color>
0.194

> <Negative vol penalty>
0.000

$$$$

  -OEChem-04052319193D

 83 90  0     1  0  0  0  0  0999 V2000
  -24.3084  -36.7030   17.2705 C   0  0  0  0  0  0  0  0  0  0  0  0
  -24.0160  -35.3973   16.8898 C   0  0  0  0  0  0  0  0  0  0  0  0
  -26.5544  -12.4627   21.4909 C   0  0  0  0  0  0  0  0  0  0  0  0
  -26.1894  -13.3575   19.2765 C   0  0  0  0  0  0  0  0  0  0  0  0
  -25.1312  -36.9394   18.3709 C   0  0  0  0  0  0  0  0  0  0  0  0
  -24.5472  -34.3270   17.6087 C   0  0  0  0  0  0  0  0  0  0  0  0
  -22.9774  -27.6400   19.6423 C   0  0  0  0  0  0  0  0  0  0  0  0
  -25.2689  -11.9214   21.4841 C   0  0  0  0  0  0  0  0  0  0  0  0
  -24.9039  -12.8161   19.2697 C   0  0  0  0  0  0  0  0  0  0  0  0
  -23.5129  -26.3530   19.6176 C   0  0  0  0  0  0  0  0  0  0  0  0
  -23.7072   -9.2283   20.1645 C   0  0  0  0  0  0  0  0  0  0  0  0
  -23.5543   -7.9156   20.6104 C   0  0  0  0  0  0  0  0  0  0  0  0
  -24.8578  -26.8820   21.5491 C   0  0  0  0  0  0  0  0  0  0  0  0
  -22.0610   -8.6802   22.3490 C   0  0  0  0  0  0  0  0  0  0  0  0
  -27.0146  -13.1808   20.3871 C   0  0  0  0  0  0  0  0  0  0  0  0
  -29.5271  -13.1242   19.9492 C   0  0  0  0  0  0  0  0  0  0  0  0
  -25.6650  -35.8716   19.1096 C   0  0  0  0  0  0  0  0  0  0  0  0
  -23.3869  -28.5627   20.6156 C   0  0  0  0  0  0  0  0  0  0  0  0
  -25.3790  -34.5493   18.7193 C   0  0  0  0  0  0  0  0  0  0  0  0
  -24.3241  -28.1793   21.5855 C   0  0  0  0  0  0  0  0  0  0  0  0
  -24.4437  -12.0980   20.3735 C   0  0  0  0  0  0  0  0  0  0  0  0
  -24.4554  -25.9747   20.5693 C   0  0  0  0  0  0  0  0  0  0  0  0
  -23.0371  -10.2671   20.8108 C   0  0  0  0  0  0  0  0  0  0  0  0
  -22.7311   -7.6415   21.7027 C   0  0  0  0  0  0  0  0  0  0  0  0
  -22.2140   -9.9930   21.9031 C   0  0  0  0  0  0  0  0  0  0  0  0
  -28.3422  -13.7408   20.3938 C   0  0  0  0  0  0  0  0  0  0  0  0
  -30.5054  -14.0635   20.1665 C   0  0  0  0  0  0  0  0  0  0  0  0
  -29.7257  -11.8192   19.3896 C   0  0  0  0  0  0  0  0  0  0  0  0
  -24.8400  -31.3891   20.5565 C   0  0  0  0  0  0  0  0  0  0  0  0
  -24.2205  -31.3376   23.7402 C   0  0  0  0  0  0  0  0  0  0  0  0
  -23.5848  -29.4904   26.5385 C   0  0  0  0  0  0  0  0  0  0  0  0
  -30.4041  -20.0361   20.5779 C   0  0  0  0  0  0  0  0  0  0  0  0
  -26.5877  -36.1763   20.2630 C   0  0  0  0  0  0  0  0  0  0  0  0
  -22.7799  -29.9386   20.6449 C   0  0  0  0  0  0  0  0  0  0  0  0
  -24.7819  -29.1259   22.6638 C   0  0  0  0  0  0  0  0  0  0  0  0
  -26.8068  -34.9895   21.1977 C   0  0  0  0  0  0  0  0  0  0  0  0
  -31.5959  -17.7415   23.0256 C   0  0  0  0  0  0  0  0  0  0  0  0
  -27.0983  -33.7251   20.3958 C   0  0  0  0  0  0  0  0  0  0  0  0
  -31.0041  -16.4004   22.5885 C   0  0  0  0  0  0  0  0  0  0  0  0
  -30.6306  -18.8959   22.7654 C   0  0  0  0  0  0  0  0  0  0  0  0
  -29.5404  -17.6451   20.9432 C   0  0  0  0  0  0  0  0  0  0  0  0
  -25.9161  -33.3622   19.4889 C   0  0  1  0  0  0  0  0  0  0  0  0
  -23.6509  -30.9607   21.3689 C   0  0  1  0  0  0  0  0  0  0  0  0
  -30.4993  -16.4575   21.1341 C   0  0  2  0  0  0  0  0  0  0  0  0
  -23.1597  -29.7268   29.0004 C   0  0  0  0  0  0  0  0  0  0  0  0
  -28.9665  -21.4949   12.9825 C   0  0  0  0  0  0  0  0  0  0  0  0
  -29.0582  -19.3120   14.2140 C   0  0  0  0  0  0  0  0  0  0  0  0
  -26.8537  -20.3160   13.6030 C   0  0  0  0  0  0  0  0  0  0  0  0
  -27.1902  -31.8667   24.1997 C   0  0  0  0  0  0  0  0  0  0  0  0
  -26.8775  -31.1548   26.5795 C   0  0  0  0  0  0  0  0  0  0  0  0
  -25.6573  -33.1470   25.7049 C   0  0  0  0  0  0  0  0  0  0  0  0
  -20.9039  -28.2574   26.3119 C   0  0  0  0  0  0  0  0  0  0  0  0
  -26.2598  -23.1124   19.2981 C   0  0  0  0  0  0  0  0  0  0  0  0
  -26.4305  -22.4087   17.9498 C   0  0  0  0  0  0  0  0  0  0  0  0
  -27.5973  -20.6058   16.5852 C   0  0  0  0  0  0  0  0  0  0  0  0
  -28.2049  -21.3964   15.4159 C   0  0  0  0  0  0  0  0  0  0  0  0
  -28.9232  -21.9928   18.3325 C   0  0  0  0  0  0  0  0  0  0  0  0
  -30.1170  -21.0389   18.3260 C   0  0  0  0  0  0  0  0  0  0  0  0
  -25.0823  -24.0787   19.2777 C   0  0  0  0  0  0  0  0  0  1  0  0
  -24.9495  -30.8359   24.9632 C   0  0  1  0  0  0  0  0  0  0  0  0
  -22.5288  -29.6312   27.6200 C   0  0  2  0  0  0  0  0  0  0  0  0
  -27.5677  -21.3593   17.9392 C   0  0  1  0  0  0  0  0  0  0  0  0
  -28.2902  -20.6353   14.0635 C   0  0  0  0  0  0  0  0  0  0  0  0
  -26.1616  -31.7337   25.3405 C   0  0  0  0  0  0  0  0  0  0  0  0
  -28.5469  -14.9761   20.8587 N   0  0  0  0  0  0  0  0  0  0  0  0
  -29.8717  -15.1434   20.7074 N   0  0  0  0  0  0  0  0  0  0  0  0
  -24.1639  -30.4620   22.6466 N   0  0  0  0  0  0  0  0  0  0  0  0
  -30.1911  -18.8944   21.3680 N   0  0  0  0  0  0  0  0  0  0  0  0
  -31.8372  -14.0628   19.9460 N   0  0  0  0  0  0  0  0  0  0  0  0
  -28.6125  -10.9818   19.2355 N   0  0  0  0  0  0  0  0  0  0  0  0
  -24.8614  -32.7383   20.2588 N   0  0  0  0  0  0  0  0  0  0  0  0
  -23.9461  -30.7139   26.0152 N   0  0  0  0  0  0  0  0  0  0  0  0
  -29.9630  -19.9486   19.2632 N   0  0  0  0  0  0  0  0  0  0  0  0
  -21.6106  -28.4575   27.6032 N   0  3  0  0  0  0  0  0  0  0  0  0
  -30.8594  -11.4017   19.0519 O   0  0  0  0  0  0  0  0  0  0  0  0
  -25.6770  -30.5575   20.2256 O   0  0  0  0  0  0  0  0  0  0  0  0
  -23.7136  -32.4620   23.7572 O   0  0  0  0  0  0  0  0  0  0  0  0
  -24.0460  -28.4042   26.1952 O   0  0  0  0  0  0  0  0  0  0  0  0
  -30.9519  -21.0558   21.0105 O   0  0  0  0  0  0  0  0  0  0  0  0
  -23.1893  -11.5697   20.3664 O   0  0  0  0  0  0  0  0  0  0  0  0
  -24.9839  -24.7101   20.5469 O   0  0  0  0  0  0  0  0  0  1  0  0
  -22.5832   -6.3807   22.1299 F   0  0  0  0  0  0  0  0  0  0  0  0
  -21.5667  -10.9866   22.5273 F   0  0  0  0  0  0  0  0  0  0  0  0
  1  2  1  0  0  0  0
  1  5  2  0  0  0  0
  2  6  2  0  0  0  0
  3  8  2  0  0  0  0
  3 15  1  0  0  0  0
  4  9  1  0  0  0  0
  4 15  2  0  0  0  0
  5 17  1  0  0  0  0
  6 19  1  0  0  0  0
  7 10  2  0  0  0  0
  7 18  1  0  0  0  0
  8 21  1  0  0  0  0
  9 21  2  0  0  0  0
 10 22  1  0  0  0  0
 11 12  2  0  0  0  0
 11 23  1  0  0  0  0
 12 24  1  0  0  0  0
 13 20  1  0  0  0  0
 13 22  2  0  0  0  0
 14 24  2  0  0  0  0
 14 25  1  0  0  0  0
 15 26  1  0  0  0  0
 16 26  1  0  0  0  0
 16 27  2  0  0  0  0
 16 28  1  0  0  0  0
 17 19  2  0  0  0  0
 17 33  1  0  0  0  0
 18 20  2  0  0  0  0
 18 34  1  0  0  0  0
 19 42  1  0  0  0  0
 20 35  1  0  0  0  0
 21 80  1  0  0  0  0
 22 81  1  0  0  0  0
 23 25  2  0  0  0  0
 23 80  1  0  0  0  0
 24 82  1  0  0  0  0
 25 83  1  0  0  0  0
 26 65  2  0  0  0  0
 27 66  1  0  0  0  0
 27 69  1  0  0  0  0
 28 70  1  0  0  0  0
 28 75  2  0  0  0  0
 29 43  1  0  0  0  0
 29 71  1  0  0  0  0
 29 76  2  0  0  0  0
 30 60  1  0  0  0  0
 30 67  1  0  0  0  0
 30 77  2  0  0  0  0
 31 61  1  0  0  0  0
 31 72  1  0  0  0  0
 31 78  2  0  0  0  0
 32 68  1  0  0  0  0
 32 73  1  0  0  0  0
 32 79  2  0  0  0  0
 33 36  1  0  0  0  0
 34 43  1  0  0  0  0
 35 67  1  0  0  0  0
 36 38  1  0  0  0  0
 37 39  1  0  0  0  0
 37 40  1  0  0  0  0
 38 42  1  0  0  0  0
 39 44  1  0  0  0  0
 40 68  1  0  0  0  0
 41 44  1  0  0  0  0
 41 68  1  0  0  0  0
 42 71  1  0  0  0  0
 43 67  1  0  0  0  0
 44 66  1  0  0  0  0
 45 61  1  0  0  0  0
 46 63  1  0  0  0  0
 47 63  1  0  0  0  0
 48 63  1  0  0  0  0
 49 64  1  0  0  0  0
 50 64  1  0  0  0  0
 51 64  1  0  0  0  0
 52 74  1  0  0  0  0
 53 54  1  0  0  0  0
 53 59  1  0  0  0  0
 54 62  1  0  0  0  0
 55 56  1  0  0  0  0
 55 62  1  0  0  0  0
 56 63  1  0  0  0  0
 57 58  1  0  0  0  0
 57 62  1  0  0  0  0
 58 73  1  0  0  0  0
 59 81  1  0  0  0  0
 60 64  1  0  0  0  0
 60 72  1  0  0  0  0
 61 74  1  0  0  0  0
 65 66  1  0  0  0  0
M  CHG  1  74   1
M  ISO  4  32 100  59 101  73 100  81 101
M  END
> <Batch ID>
0094

> <Smiles>
CNC(C)C(=O)NC(C(=O)N1Cc2cc([101O:1][101CH2:1]CCC(CC[100NH:0][100C:0](=O)N3CCCC(n4nc(-c5ccc(Oc6ccc(F)cc6F)cc5)c(C(N)=O)c4N)C3)CCC(C)(C)C)ccc2CC1C(=O)NC1CCCc2ccccc21)C(C)(C)C

> <Shape>
0.250

> <Color>
0.072

> <Negative vol penalty>
0.000

$$$$

  -OEChem-04052319193D

 87 95  0     1  0  0  0  0  0999 V2000
  -20.3787  -19.0042   22.7033 C   0  0  0  0  0  0  0  0  0  0  0  0
  -21.5859  -19.5410   22.2674 C   0  0  0  0  0  0  0  0  0  0  0  0
  -26.9821  -13.0205   21.0119 C   0  0  0  0  0  0  0  0  0  0  0  0
  -26.9462  -13.2954   18.6118 C   0  0  0  0  0  0  0  0  0  0  0  0
  -19.2210  -19.7806   22.6745 C   0  0  0  0  0  0  0  0  0  0  0  0
  -21.6358  -20.8543   21.8015 C   0  0  0  0  0  0  0  0  0  0  0  0
  -26.2550  -24.8211   22.4599 C   0  0  0  0  0  0  0  0  0  0  0  0
  -26.3336  -11.7926   20.8809 C   0  0  0  0  0  0  0  0  0  0  0  0
  -26.2978  -12.0674   18.4809 C   0  0  0  0  0  0  0  0  0  0  0  0
  -27.2874  -25.2086   21.6069 C   0  0  0  0  0  0  0  0  0  0  0  0
  -24.3654   -8.7517   21.2014 C   0  0  0  0  0  0  0  0  0  0  0  0
  -23.3043   -8.4815   22.0655 C   0  0  0  0  0  0  0  0  0  0  0  0
  -25.9874  -27.1176   20.9105 C   0  0  0  0  0  0  0  0  0  0  0  0
  -29.1964  -21.6390   17.0174 C   0  0  0  0  0  0  0  0  0  0  0  0
  -22.1223  -10.4103   21.2172 C   0  0  0  0  0  0  0  0  0  0  0  0
  -28.5513  -23.6846   16.3326 C   0  0  0  0  0  0  0  0  0  0  0  0
  -27.2884  -13.7720   19.8773 C   0  0  0  0  0  0  0  0  0  0  0  0
  -29.3462  -15.2731   20.0176 C   0  0  0  0  0  0  0  0  0  0  0  0
  -19.2587  -21.1072   22.2170 C   0  0  0  0  0  0  0  0  0  0  0  0
  -25.0746  -25.5742   22.5367 C   0  0  0  0  0  0  0  0  0  0  0  0
  -20.4773  -21.6488   21.7652 C   0  0  0  0  0  0  0  0  0  0  0  0
  -24.9425  -26.7390   21.7672 C   0  0  0  0  0  0  0  0  0  0  0  0
  -28.2233  -22.3483   16.2711 C   0  0  0  0  0  0  0  0  0  0  0  0
  -25.9914  -11.3160   19.6155 C   0  0  0  0  0  0  0  0  0  0  0  0
  -27.1526  -26.3554   20.8298 C   0  0  0  0  0  0  0  0  0  0  0  0
  -24.3050   -9.8512   20.3452 C   0  0  0  0  0  0  0  0  0  0  0  0
  -22.1828   -9.3107   22.0734 C   0  0  0  0  0  0  0  0  0  0  0  0
  -23.1834  -10.6805   20.3531 C   0  0  0  0  0  0  0  0  0  0  0  0
  -27.9577  -15.0408   20.0120 C   0  0  0  0  0  0  0  0  0  0  0  0
  -30.0895  -22.5635   17.5124 C   0  0  0  0  0  0  0  0  0  0  0  0
  -29.4662  -16.6327   20.1707 C   0  0  0  0  0  0  0  0  0  0  0  0
  -30.4305  -14.3430   19.8954 C   0  0  0  0  0  0  0  0  0  0  0  0
  -22.0084  -25.0081   21.9189 C   0  0  0  0  0  0  0  0  0  0  0  0
  -21.6094  -27.9683   23.1840 C   0  0  0  0  0  0  0  0  0  0  0  0
  -22.9600  -31.0200   23.8980 C   0  0  0  0  0  0  0  0  0  0  0  0
  -25.8343  -21.2168   18.8876 C   0  0  0  0  0  0  0  0  0  0  0  0
  -17.9722  -21.8923   22.1602 C   0  0  0  0  0  0  0  0  0  0  0  0
  -23.9810  -25.1576   23.4817 C   0  0  0  0  0  0  0  0  0  0  0  0
  -23.7037  -27.5934   21.8280 C   0  0  0  0  0  0  0  0  0  0  0  0
  -18.1827  -23.3960   22.0032 C   0  0  0  0  0  0  0  0  0  0  0  0
  -27.2100  -20.4008   22.0685 C   0  0  0  0  0  0  0  0  0  0  0  0
  -19.2135  -23.6801   20.9153 C   0  0  0  0  0  0  0  0  0  0  0  0
  -27.6829  -18.9556   21.9027 C   0  0  0  0  0  0  0  0  0  0  0  0
  -25.9163  -20.6630   21.3007 C   0  0  0  0  0  0  0  0  0  0  0  0
  -26.4335  -18.8570   19.7054 C   0  0  0  0  0  0  0  0  0  0  0  0
  -20.5766  -23.0774   21.2760 C   0  0  1  0  0  0  0  0  0  0  0  0
  -22.6144  -25.7161   23.0975 C   0  0  1  0  0  0  0  0  0  0  0  0
  -27.7649  -18.5595   20.4162 C   0  0  2  0  0  0  0  0  0  0  0  0
  -22.3781  -33.2460   24.8997 C   0  0  0  0  0  0  0  0  0  0  0  0
  -31.7529  -22.2818   22.2458 C   0  0  0  0  0  0  0  0  0  0  0  0
  -32.8641  -20.8502   20.5206 C   0  0  0  0  0  0  0  0  0  0  0  0
  -20.0976  -28.7147   20.6409 C   0  0  0  0  0  0  0  0  0  0  0  0
  -20.3775  -31.1232   21.2648 C   0  0  0  0  0  0  0  0  0  0  0  0
  -19.0853  -29.5934   22.7523 C   0  0  0  0  0  0  0  0  0  0  0  0
  -24.9882  -30.7200   26.0324 C   0  0  0  0  0  0  0  0  0  0  0  0
  -31.2900  -22.3672   18.3511 C   0  0  0  0  0  0  0  0  0  0  0  0
  -30.9723  -22.4302   19.8621 C   0  0  0  0  0  0  0  0  0  0  0  0
  -29.4677  -26.1388   18.0759 C   0  0  0  0  0  0  0  0  0  0  0  0
  -30.3757  -25.1089   17.4001 C   0  0  0  0  0  0  0  0  0  0  0  0
  -25.8076  -21.6211   16.4391 C   0  0  0  0  0  0  0  0  0  0  0  0
  -28.9761  -25.7008   19.4506 C   0  0  0  0  0  0  0  0  0  1  0  0
  -27.0708  -21.7645   15.5586 C   0  0  2  0  0  0  0  0  0  0  0  0
  -21.6012  -29.3739   22.6336 C   0  0  1  0  0  0  0  0  0  0  0  0
  -22.9418  -31.8584   25.1634 C   0  0  2  0  0  0  0  0  0  0  0  0
  -32.1865  -22.1965   20.7802 C   0  0  0  0  0  0  0  0  0  0  0  0
  -20.3131  -29.6844   21.8201 C   0  0  0  0  0  0  0  0  0  0  0  0
  -27.2467  -16.1629   20.1506 N   0  0  0  0  0  0  0  0  0  0  0  0
  -29.6873  -23.8037   17.0901 N   0  0  0  0  0  0  0  0  0  0  0  0
  -28.1920  -17.1134   20.2449 N   0  0  0  0  0  0  0  0  0  0  0  0
  -22.6599  -27.1409   22.7625 N   0  0  0  0  0  0  0  0  0  0  0  0
  -26.0612  -20.2674   19.8977 N   0  0  0  0  0  0  0  0  0  0  0  0
  -30.5364  -17.4520   20.2479 N   0  0  0  0  0  0  0  0  0  0  0  0
  -30.1298  -12.9824   19.7448 N   0  0  0  0  0  0  0  0  0  0  0  0
  -21.2509  -23.9024   22.2554 N   0  0  0  0  0  0  0  0  0  0  0  0
  -21.8165  -30.2596   23.7727 N   0  0  0  0  0  0  0  0  0  0  0  0
  -25.9994  -20.7609   17.5854 N   0  0  0  0  0  0  0  0  0  0  0  0
  -27.3555  -20.4045   14.9621 N   0  3  0  0  0  0  0  0  0  0  0  0
  -24.3218  -32.0070   25.7061 N   0  3  0  0  0  0  0  0  0  0  0  0
  -31.6306  -14.7058   19.9354 O   0  0  0  0  0  0  0  0  0  0  0  0
  -22.2117  -25.4342   20.7881 O   0  0  0  0  0  0  0  0  0  0  0  0
  -20.7205  -27.6195   23.9650 O   0  0  0  0  0  0  0  0  0  0  0  0
  -23.8934  -31.0405   23.0987 O   0  0  0  0  0  0  0  0  0  0  0  0
  -25.5140  -22.3857   19.1286 O   0  0  0  0  0  0  0  0  0  0  0  0
  -25.3589  -10.1177   19.4873 O   0  0  0  0  0  0  0  0  0  0  0  0
  -28.1585  -26.7355   19.9959 O   0  0  0  0  0  0  0  0  0  1  0  0
  -21.1633   -9.0503   22.9022 F   0  0  0  0  0  0  0  0  0  0  0  0
  -23.1191  -11.7376   19.5320 F   0  0  0  0  0  0  0  0  0  0  0  0
  1  2  1  0  0  0  0
  1  5  2  0  0  0  0
  2  6  2  0  0  0  0
  3  8  2  0  0  0  0
  3 17  1  0  0  0  0
  4  9  1  0  0  0  0
  4 17  2  0  0  0  0
  5 19  1  0  0  0  0
  6 21  1  0  0  0  0
  7 10  2  0  0  0  0
  7 20  1  0  0  0  0
  8 24  1  0  0  0  0
  9 24  2  0  0  0  0
 10 25  1  0  0  0  0
 11 12  2  0  0  0  0
 11 26  1  0  0  0  0
 12 27  1  0  0  0  0
 13 22  1  0  0  0  0
 13 25  2  0  0  0  0
 14 23  1  0  0  0  0
 14 30  2  0  0  0  0
 15 27  2  0  0  0  0
 15 28  1  0  0  0  0
 16 23  2  0  0  0  0
 16 68  1  0  0  0  0
 17 29  1  0  0  0  0
 18 29  1  0  0  0  0
 18 31  2  0  0  0  0
 18 32  1  0  0  0  0
 19 21  2  0  0  0  0
 19 37  1  0  0  0  0
 20 22  2  0  0  0  0
 20 38  1  0  0  0  0
 21 46  1  0  0  0  0
 22 39  1  0  0  0  0
 23 62  1  0  0  0  0
 24 84  1  0  0  0  0
 25 85  1  0  0  0  0
 26 28  2  0  0  0  0
 26 84  1  0  0  0  0
 27 86  1  0  0  0  0
 28 87  1  0  0  0  0
 29 67  2  0  0  0  0
 30 56  1  0  0  0  0
 30 68  1  0  0  0  0
 31 69  1  0  0  0  0
 31 72  1  0  0  0  0
 32 73  1  0  0  0  0
 32 79  2  0  0  0  0
 33 47  1  0  0  0  0
 33 74  1  0  0  0  0
 33 80  2  0  0  0  0
 34 63  1  0  0  0  0
 34 70  1  0  0  0  0
 34 81  2  0  0  0  0
 35 64  1  0  0  0  0
 35 75  1  0  0  0  0
 35 82  2  0  0  0  0
 36 71  1  0  0  0  0
 36 76  1  0  0  0  0
 36 83  2  0  0  0  0
 37 40  1  0  0  0  0
 38 47  1  0  0  0  0
 39 70  1  0  0  0  0
 40 42  1  0  0  0  0
 41 43  1  0  0  0  0
 41 44  1  0  0  0  0
 42 46  1  0  0  0  0
 43 48  1  0  0  0  0
 44 71  1  0  0  0  0
 45 48  1  0  0  0  0
 45 71  1  0  0  0  0
 46 74  1  0  0  0  0
 47 70  1  0  0  0  0
 48 69  1  0  0  0  0
 49 64  1  0  0  0  0
 50 65  1  0  0  0  0
 51 65  1  0  0  0  0
 52 66  1  0  0  0  0
 53 66  1  0  0  0  0
 54 66  1  0  0  0  0
 55 78  1  0  0  0  0
 56 57  1  0  0  0  0
 57 65  1  0  0  0  0
 58 59  1  0  0  0  0
 58 61  1  0  0  0  0
 59 68  1  0  0  0  0
 60 62  1  0  0  0  0
 60 76  1  0  0  0  0
 61 85  1  0  0  0  0
 62 77  1  0  0  0  0
 63 66  1  0  0  0  0
 63 75  1  0  0  0  0
 64 78  1  0  0  0  0
 67 69  1  0  0  0  0
M  CHG  2  77   1  78   1
M  ISO  4  36 100  61 101  76 100  85 101
M  END
> <Batch ID>
0094

> <Smiles>
CNC(C)C(=O)NC(C(=O)N1Cc2cc([101O:1][101CH2:1]CCn3cc(C(N)C[100NH:0][100C:0](=O)N4CCCC(n5nc(-c6ccc(Oc7ccc(F)cc7F)cc6)c(C(N)=O)c5N)C4)cc3CCC(C)C)ccc2CC1C(=O)NC1CCCc2ccccc21)C(C)(C)C

> <Shape>
0.213

> <Color>
0.074

> <Negative vol penalty>
0.000

$$$$

  -OEChem-04052319193D

 84 92  0     1  0  0  0  0  0999 V2000
  -29.6058  -33.7415   23.6368 C   0  0  0  0  0  0  0  0  0  0  0  0
  -29.8934  -32.4241   23.2948 C   0  0  0  0  0  0  0  0  0  0  0  0
  -27.0800  -14.0127   22.2794 C   0  0  0  0  0  0  0  0  0  0  0  0
  -26.9735  -13.0431   20.0691 C   0  0  0  0  0  0  0  0  0  0  0  0
  -28.3186  -34.0897   24.0440 C   0  0  0  0  0  0  0  0  0  0  0  0
  -28.8942  -31.4537   23.3610 C   0  0  0  0  0  0  0  0  0  0  0  0
  -28.8471  -28.4334   19.2964 C   0  0  0  0  0  0  0  0  0  0  0  0
  -26.4424  -12.8883   22.8034 C   0  0  0  0  0  0  0  0  0  0  0  0
  -26.3359  -11.9186   20.5931 C   0  0  0  0  0  0  0  0  0  0  0  0
  -29.8105  -27.4272   19.2397 C   0  0  0  0  0  0  0  0  0  0  0  0
  -23.2256  -11.0642   21.6066 C   0  0  0  0  0  0  0  0  0  0  0  0
  -22.1140  -10.5720   20.9228 C   0  0  0  0  0  0  0  0  0  0  0  0
  -28.1717  -25.8242   19.9908 C   0  0  0  0  0  0  0  0  0  0  0  0
  -23.2426   -8.4589   20.6091 C   0  0  0  0  0  0  0  0  0  0  0  0
  -32.7722  -20.1173   17.8056 C   0  0  0  0  0  0  0  0  0  0  0  0
  -27.3455  -14.0901   20.9122 C   0  0  0  0  0  0  0  0  0  0  0  0
  -29.3890  -15.4495   20.2164 C   0  0  0  0  0  0  0  0  0  0  0  0
  -27.3007  -33.1250   24.1059 C   0  0  0  0  0  0  0  0  0  0  0  0
  -27.5394  -28.1442   19.7119 C   0  0  0  0  0  0  0  0  0  0  0  0
  -27.5925  -31.7891   23.7707 C   0  0  0  0  0  0  0  0  0  0  0  0
  -27.1929  -26.8281   20.0495 C   0  0  0  0  0  0  0  0  0  0  0  0
  -26.0703  -11.8412   21.9603 C   0  0  0  0  0  0  0  0  0  0  0  0
  -29.4736  -26.1229   19.5897 C   0  0  0  0  0  0  0  0  0  0  0  0
  -24.3458  -10.2538   21.7916 C   0  0  0  0  0  0  0  0  0  0  0  0
  -22.1225   -9.2693   20.4241 C   0  0  0  0  0  0  0  0  0  0  0  0
  -24.3543   -8.9512   21.2929 C   0  0  0  0  0  0  0  0  0  0  0  0
  -28.0037  -15.2517   20.3701 C   0  0  0  0  0  0  0  0  0  0  0  0
  -31.7317  -20.8929   17.3781 C   0  0  0  0  0  0  0  0  0  0  0  0
  -29.4975  -16.7011   19.6611 C   0  0  0  0  0  0  0  0  0  0  0  0
  -32.8297  -20.1788   15.5935 C   0  0  0  0  0  0  0  0  0  0  0  0
  -30.4801  -14.5797   20.5458 C   0  0  0  0  0  0  0  0  0  0  0  0
  -25.6932  -29.0810   22.1239 C   0  0  0  0  0  0  0  0  0  0  0  0
  -23.4387  -27.3528   20.5578 C   0  0  0  0  0  0  0  0  0  0  0  0
  -22.7208  -24.8332   18.3708 C   0  0  0  0  0  0  0  0  0  0  0  0
  -27.8473  -20.5473   15.9694 C   0  0  0  0  0  0  0  0  0  0  0  0
  -25.9364  -33.5398   24.5973 C   0  0  0  0  0  0  0  0  0  0  0  0
  -26.5050  -29.2358   19.7421 C   0  0  0  0  0  0  0  0  0  0  0  0
  -25.7978  -26.4615   20.4826 C   0  0  0  0  0  0  0  0  0  0  0  0
  -24.8407  -32.5251   24.2810 C   0  0  0  0  0  0  0  0  0  0  0  0
  -26.0341  -20.3327   19.0261 C   0  0  0  0  0  0  0  0  0  0  0  0
  -25.3018  -31.1143   24.6328 C   0  0  0  0  0  0  0  0  0  0  0  0
  -26.4944  -19.0056   19.6320 C   0  0  0  0  0  0  0  0  0  0  0  0
  -25.9261  -20.2512   17.5050 C   0  0  0  0  0  0  0  0  0  0  0  0
  -27.6038  -18.4475   17.4282 C   0  0  0  0  0  0  0  0  0  0  0  0
  -26.5292  -30.7128   23.8059 C   0  0  1  0  0  0  0  0  0  0  0  0
  -25.3364  -28.9260   20.6726 C   0  0  1  0  0  0  0  0  0  0  0  0
  -27.7815  -18.4968   18.9554 C   0  0  2  0  0  0  0  0  0  0  0  0
  -33.1810  -18.4483   13.7948 C   0  0  0  0  0  0  0  0  0  0  0  0
  -34.6620  -20.4861   13.8899 C   0  0  0  0  0  0  0  0  0  0  0  0
  -20.7865  -23.6297   17.3183 C   0  0  0  0  0  0  0  0  0  0  0  0
  -22.9554  -25.8506   23.1693 C   0  0  0  0  0  0  0  0  0  0  0  0
  -21.7557  -24.0905   21.8537 C   0  0  0  0  0  0  0  0  0  0  0  0
  -20.8804  -26.4260   21.8974 C   0  0  0  0  0  0  0  0  0  0  0  0
  -23.5568  -25.6312   15.6463 C   0  0  0  0  0  0  0  0  0  0  0  0
  -30.6723  -21.6257   18.1618 C   0  0  0  0  0  0  0  0  0  0  0  0
  -31.0623  -23.0575   18.5354 C   0  0  0  0  0  0  0  0  0  0  0  0
  -30.8755  -21.6212   15.1305 C   0  0  0  0  0  0  0  0  0  0  0  0
  -29.8346  -20.7056   14.4914 C   0  0  0  0  0  0  0  0  0  0  0  0
  -29.9527  -23.8180   19.2522 C   0  0  0  0  0  0  0  0  0  1  0  0
  -33.2511  -19.9382   14.1910 C   0  0  0  0  0  0  0  0  0  0  0  0
  -22.9820  -25.9142   20.5883 C   0  0  1  0  0  0  0  0  0  0  0  0
  -21.7825  -24.7706   17.1791 C   0  0  2  0  0  0  0  0  0  0  0  0
  -22.1702  -25.5773   21.8709 C   0  0  0  0  0  0  0  0  0  0  0  0
  -27.2838  -16.2941   19.9470 N   0  0  0  0  0  0  0  0  0  0  0  0
  -31.7918  -20.9140   16.0055 N   0  0  0  0  0  0  0  0  0  0  0  0
  -28.2204  -17.1591   19.5219 N   0  0  0  0  0  0  0  0  0  0  0  0
  -33.4343  -19.6886   16.6805 N   0  3  0  0  0  0  0  0  0  0  0  0
  -24.8234  -27.5651   20.5020 N   0  0  0  0  0  0  0  0  0  0  0  0
  -27.1799  -19.7637   16.9252 N   0  0  0  0  0  0  0  0  0  0  0  0
  -30.5598  -17.4436   19.2834 N   0  0  0  0  0  0  0  0  0  0  0  0
  -30.1911  -13.3293   21.1091 N   0  0  0  0  0  0  0  0  0  0  0  0
  -26.1355  -30.3456   22.4626 N   0  0  0  0  0  0  0  0  0  0  0  0
  -22.2535  -25.6907   19.3442 N   0  0  0  0  0  0  0  0  0  0  0  0
  -29.0317  -20.0145   15.4755 N   0  0  0  0  0  0  0  0  0  0  0  0
  -22.5556  -24.5687   15.9211 N   0  3  0  0  0  0  0  0  0  0  0  0
  -31.6766  -14.9084   20.3618 O   0  0  0  0  0  0  0  0  0  0  0  0
  -25.5745  -28.1246   22.8808 O   0  0  0  0  0  0  0  0  0  0  0  0
  -22.5974  -28.2549   20.5753 O   0  0  0  0  0  0  0  0  0  0  0  0
  -23.7621  -24.1833   18.4336 O   0  0  0  0  0  0  0  0  0  0  0  0
  -27.4220  -21.6433   15.5887 O   0  0  0  0  0  0  0  0  0  0  0  0
  -25.4483  -10.7437   22.4714 O   0  0  0  0  0  0  0  0  0  0  0  0
  -30.4121  -25.1390   19.5358 O   0  0  0  0  0  0  0  0  0  1  0  0
  -21.0543   -8.7963   19.7688 F   0  0  0  0  0  0  0  0  0  0  0  0
  -25.4270   -8.1675   21.4686 F   0  0  0  0  0  0  0  0  0  0  0  0
  1  2  1  0  0  0  0
  1  5  2  0  0  0  0
  2  6  2  0  0  0  0
  3  8  2  0  0  0  0
  3 16  1  0  0  0  0
  4  9  1  0  0  0  0
  4 16  2  0  0  0  0
  5 18  1  0  0  0  0
  6 20  1  0  0  0  0
  7 10  2  0  0  0  0
  7 19  1  0  0  0  0
  8 22  1  0  0  0  0
  9 22  2  0  0  0  0
 10 23  1  0  0  0  0
 11 12  2  0  0  0  0
 11 24  1  0  0  0  0
 12 25  1  0  0  0  0
 13 21  1  0  0  0  0
 13 23  2  0  0  0  0
 14 25  2  0  0  0  0
 14 26  1  0  0  0  0
 15 28  2  0  0  0  0
 15 67  1  0  0  0  0
 16 27  1  0  0  0  0
 17 27  1  0  0  0  0
 17 29  2  0  0  0  0
 17 31  1  0  0  0  0
 18 20  2  0  0  0  0
 18 36  1  0  0  0  0
 19 21  2  0  0  0  0
 19 37  1  0  0  0  0
 20 45  1  0  0  0  0
 21 38  1  0  0  0  0
 22 81  1  0  0  0  0
 23 82  1  0  0  0  0
 24 26  2  0  0  0  0
 24 81  1  0  0  0  0
 25 83  1  0  0  0  0
 26 84  1  0  0  0  0
 27 64  2  0  0  0  0
 28 55  1  0  0  0  0
 28 65  1  0  0  0  0
 29 66  1  0  0  0  0
 29 70  1  0  0  0  0
 30 60  1  0  0  0  0
 30 65  1  0  0  0  0
 30 67  2  0  0  0  0
 31 71  1  0  0  0  0
 31 76  2  0  0  0  0
 32 46  1  0  0  0  0
 32 72  1  0  0  0  0
 32 77  2  0  0  0  0
 33 61  1  0  0  0  0
 33 68  1  0  0  0  0
 33 78  2  0  0  0  0
 34 62  1  0  0  0  0
 34 73  1  0  0  0  0
 34 79  2  0  0  0  0
 35 69  1  0  0  0  0
 35 74  1  0  0  0  0
 35 80  2  0  0  0  0
 36 39  1  0  0  0  0
 37 46  1  0  0  0  0
 38 68  1  0  0  0  0
 39 41  1  0  0  0  0
 40 42  1  0  0  0  0
 40 43  1  0  0  0  0
 41 45  1  0  0  0  0
 42 47  1  0  0  0  0
 43 69  1  0  0  0  0
 44 47  1  0  0  0  0
 44 69  1  0  0  0  0
 45 72  1  0  0  0  0
 46 68  1  0  0  0  0
 47 66  1  0  0  0  0
 48 60  1  0  0  0  0
 49 60  1  0  0  0  0
 50 62  1  0  0  0  0
 51 63  1  0  0  0  0
 52 63  1  0  0  0  0
 53 63  1  0  0  0  0
 54 75  1  0  0  0  0
 55 56  1  0  0  0  0
 56 59  1  0  0  0  0
 57 58  1  0  0  0  0
 57 65  1  0  0  0  0
 58 74  1  0  0  0  0
 59 82  1  0  0  0  0
 61 63  1  0  0  0  0
 61 73  1  0  0  0  0
 62 75  1  0  0  0  0
 64 66  1  0  0  0  0
M  CHG  2  67   1  75   1
M  ISO  4  35 100  59 101  74 100  82 101
M  END
> <Batch ID>
0094

> <Smiles>
CNC(C)C(=O)NC(C(=O)N1Cc2cc([101O:1][101CH2:1]CCc3cnc(C(C)C)n3CC[100NH:0][100C:0](=O)N3CCCC(n4nc(-c5ccc(Oc6ccc(F)cc6F)cc5)c(C(N)=O)c4N)C3)ccc2CC1C(=O)NC1CCCc2ccccc21)C(C)(C)C

> <Shape>
0.231

> <Color>
0.074

> <Negative vol penalty>
0.000

$$$$

  -OEChem-04052319193D

 86 94  0     1  0  0  0  0  0999 V2000
  -24.0875  -31.0971   21.6897 C   0  0  0  0  0  0  0  0  0  0  0  0
  -24.7493  -30.0578   22.3357 C   0  0  0  0  0  0  0  0  0  0  0  0
  -20.5204  -23.1694   21.4817 C   0  0  0  0  0  0  0  0  0  0  0  0
  -22.5157  -23.0453   22.8383 C   0  0  0  0  0  0  0  0  0  0  0  0
  -23.6967  -30.9528   20.3591 C   0  0  0  0  0  0  0  0  0  0  0  0
  -25.0198  -28.8731   21.6518 C   0  0  0  0  0  0  0  0  0  0  0  0
  -29.8948  -23.6385   21.2647 C   0  0  0  0  0  0  0  0  0  0  0  0
  -20.0822  -24.2644   22.2263 C   0  0  0  0  0  0  0  0  0  0  0  0
  -22.0775  -24.1404   23.5829 C   0  0  0  0  0  0  0  0  0  0  0  0
  -29.9877  -22.2481   21.3062 C   0  0  0  0  0  0  0  0  0  0  0  0
  -18.6089  -27.3172   23.5395 C   0  0  0  0  0  0  0  0  0  0  0  0
  -18.0914  -28.4096   22.8434 C   0  0  0  0  0  0  0  0  0  0  0  0
  -29.9165  -15.2787   19.6401 C   0  0  0  0  0  0  0  0  0  0  0  0
  -29.3359  -22.1413   18.9861 C   0  0  0  0  0  0  0  0  0  0  0  0
  -20.1992  -28.6749   21.6928 C   0  0  0  0  0  0  0  0  0  0  0  0
  -30.6534  -15.9870   18.7047 C   0  0  0  0  0  0  0  0  0  0  0  0
  -21.7371  -22.5598   21.7877 C   0  0  0  0  0  0  0  0  0  0  0  0
  -22.9827  -21.4530   19.8560 C   0  0  0  0  0  0  0  0  0  0  0  0
  -23.9711  -29.7694   19.6557 C   0  0  0  0  0  0  0  0  0  0  0  0
  -29.5105  -24.2913   20.0847 C   0  0  0  0  0  0  0  0  0  0  0  0
  -24.6311  -28.7123   20.3110 C   0  0  0  0  0  0  0  0  0  0  0  0
  -29.2413  -23.5403   18.9315 C   0  0  0  0  0  0  0  0  0  0  0  0
  -28.9907  -15.9792   20.4052 C   0  0  0  0  0  0  0  0  0  0  0  0
  -28.8322  -17.3473   20.2142 C   0  0  0  0  0  0  0  0  0  0  0  0
  -20.8607  -24.7499   23.2769 C   0  0  0  0  0  0  0  0  0  0  0  0
  -29.7054  -21.4991   20.1676 C   0  0  0  0  0  0  0  0  0  0  0  0
  -19.9215  -26.9037   23.3123 C   0  0  0  0  0  0  0  0  0  0  0  0
  -18.8865  -29.0884   21.9200 C   0  0  0  0  0  0  0  0  0  0  0  0
  -20.7167  -27.5825   22.3889 C   0  0  0  0  0  0  0  0  0  0  0  0
  -22.1901  -21.4282   21.0192 C   0  0  0  0  0  0  0  0  0  0  0  0
  -29.6177  -17.9631   19.2532 C   0  0  0  0  0  0  0  0  0  0  0  0
  -23.1334  -20.1311   19.5150 C   0  0  0  0  0  0  0  0  0  0  0  0
  -23.5336  -22.5710   19.1473 C   0  0  0  0  0  0  0  0  0  0  0  0
  -27.0799  -26.1593   19.2440 C   0  0  0  0  0  0  0  0  0  0  0  0
  -28.7563  -26.4364   16.4808 C   0  0  0  0  0  0  0  0  0  0  0  0
  -31.0714  -25.1124   14.3514 C   0  0  0  0  0  0  0  0  0  0  0  0
  -24.1556  -14.8281   20.9218 C   0  0  0  0  0  0  0  0  0  0  0  0
  -23.4872  -29.6418   18.2329 C   0  0  0  0  0  0  0  0  0  0  0  0
  -29.4409  -25.7934   20.0489 C   0  0  0  0  0  0  0  0  0  0  0  0
  -28.8443  -24.1942   17.6341 C   0  0  0  0  0  0  0  0  0  0  0  0
  -24.1440  -28.4965   17.4665 C   0  0  0  0  0  0  0  0  0  0  0  0
  -20.8090  -15.9937   21.2662 C   0  0  0  0  0  0  0  0  0  0  0  0
  -24.1520  -27.2254   18.3097 C   0  0  0  0  0  0  0  0  0  0  0  0
  -20.9364  -17.5131   21.1430 C   0  0  0  0  0  0  0  0  0  0  0  0
  -21.9989  -15.3857   22.0054 C   0  0  0  0  0  0  0  0  0  0  0  0
  -23.4466  -17.2626   21.3305 C   0  0  0  0  0  0  0  0  0  0  0  0
  -24.9645  -27.4213   19.5953 C   0  0  1  0  0  0  0  0  0  0  0  0
  -28.5414  -26.3236   18.9366 C   0  0  1  0  0  0  0  0  0  0  0  0
  -22.2973  -17.9149   20.5431 C   0  0  2  0  0  0  0  0  0  0  0  0
  -32.2054  -25.5489   12.1558 C   0  0  0  0  0  0  0  0  0  0  0  0
  -26.0538  -18.4888   23.4478 C   0  0  0  0  0  0  0  0  0  0  0  0
  -27.9545  -19.5291   24.6988 C   0  0  0  0  0  0  0  0  0  0  0  0
  -26.2267  -25.5777   15.0064 C   0  0  0  0  0  0  0  0  0  0  0  0
  -27.6410  -25.1159   12.9927 C   0  0  0  0  0  0  0  0  0  0  0  0
  -27.4958  -27.4318   13.9081 C   0  0  0  0  0  0  0  0  0  0  0  0
  -33.7433  -25.2159   15.6199 C   0  0  0  0  0  0  0  0  0  0  0  0
  -28.1819  -15.2425   21.4213 C   0  0  0  0  0  0  0  0  0  0  0  0
  -27.8466  -18.1245   21.0204 C   0  0  0  0  0  0  0  0  0  0  0  0
  -29.4915  -19.4370   19.0023 C   0  0  0  0  0  0  0  0  0  1  0  0
  -27.3857  -14.0497   20.8579 C   0  0  0  0  0  0  0  0  0  0  0  0
  -28.3568  -18.3988   22.4473 C   0  0  0  0  0  0  0  0  0  0  0  0
  -26.3394  -14.4295   19.8122 C   0  0  0  0  0  0  0  0  0  0  0  0
  -28.8011  -25.6771   15.1768 C   0  0  1  0  0  0  0  0  0  0  0  0
  -32.2766  -25.7286   13.6642 C   0  0  2  0  0  0  0  0  0  0  0  0
  -27.3876  -19.2273   23.3109 C   0  0  0  0  0  0  0  0  0  0  0  0
  -27.5467  -25.9379   14.2958 C   0  0  0  0  0  0  0  0  0  0  0  0
  -30.5274  -17.3159   18.4907 N   0  0  0  0  0  0  0  0  0  0  0  0
  -21.8601  -20.1888   21.3920 N   0  0  0  0  0  0  0  0  0  0  0  0
  -22.4482  -19.4225   20.4577 N   0  0  0  0  0  0  0  0  0  0  0  0
  -28.7841  -25.6651   17.6514 N   0  0  0  0  0  0  0  0  0  0  0  0
  -23.2585  -15.8044   21.3857 N   0  0  0  0  0  0  0  0  0  0  0  0
  -23.7837  -19.5173   18.5037 N   0  0  0  0  0  0  0  0  0  0  0  0
  -23.2817  -23.8608   19.6344 N   0  0  0  0  0  0  0  0  0  0  0  0
  -26.3822  -27.3500   19.3131 N   0  0  0  0  0  0  0  0  0  0  0  0
  -30.0637  -26.0346   14.5394 N   0  0  0  0  0  0  0  0  0  0  0  0
  -25.3226  -15.3105   20.3421 N   0  0  0  0  0  0  0  0  0  0  0  0
  -33.5328  -25.0941   14.1543 N   0  3  0  0  0  0  0  0  0  0  0  0
  -24.2149  -22.4312   18.1033 O   0  0  0  0  0  0  0  0  0  0  0  0
  -26.6190  -25.0353   19.4051 O   0  0  0  0  0  0  0  0  0  0  0  0
  -28.7060  -27.6687   16.4616 O   0  0  0  0  0  0  0  0  0  0  0  0
  -31.0267  -23.9302   14.6845 O   0  0  0  0  0  0  0  0  0  0  0  0
  -23.9305  -13.6165   21.0123 O   0  0  0  0  0  0  0  0  0  0  0  0
  -20.4336  -25.8185   24.0036 O   0  0  0  0  0  0  0  0  0  0  0  0
  -29.7947  -20.1417   20.2055 O   0  0  0  0  0  0  0  0  0  1  0  0
  -18.3890  -30.1364   21.2505 F   0  0  0  0  0  0  0  0  0  0  0  0
  -21.9781  -27.1891   22.1655 F   0  0  0  0  0  0  0  0  0  0  0  0
  1  2  1  0  0  0  0
  1  5  2  0  0  0  0
  2  6  2  0  0  0  0
  3  8  2  0  0  0  0
  3 17  1  0  0  0  0
  4  9  1  0  0  0  0
  4 17  2  0  0  0  0
  5 19  1  0  0  0  0
  6 21  1  0  0  0  0
  7 10  2  0  0  0  0
  7 20  1  0  0  0  0
  8 25  1  0  0  0  0
  9 25  2  0  0  0  0
 10 26  1  0  0  0  0
 11 12  2  0  0  0  0
 11 27  1  0  0  0  0
 12 28  1  0  0  0  0
 13 16  1  0  0  0  0
 13 23  2  0  0  0  0
 14 22  1  0  0  0  0
 14 26  2  0  0  0  0
 15 28  2  0  0  0  0
 15 29  1  0  0  0  0
 16 67  2  0  0  0  0
 17 30  1  0  0  0  0
 18 30  1  0  0  0  0
 18 32  2  0  0  0  0
 18 33  1  0  0  0  0
 19 21  2  0  0  0  0
 19 38  1  0  0  0  0
 20 22  2  0  0  0  0
 20 39  1  0  0  0  0
 21 47  1  0  0  0  0
 22 40  1  0  0  0  0
 23 24  1  0  0  0  0
 23 57  1  0  0  0  0
 24 31  2  0  0  0  0
 24 58  1  0  0  0  0
 25 83  1  0  0  0  0
 26 84  1  0  0  0  0
 27 29  2  0  0  0  0
 27 83  1  0  0  0  0
 28 85  1  0  0  0  0
 29 86  1  0  0  0  0
 30 68  2  0  0  0  0
 31 59  1  0  0  0  0
 31 67  1  0  0  0  0
 32 69  1  0  0  0  0
 32 72  1  0  0  0  0
 33 73  1  0  0  0  0
 33 78  2  0  0  0  0
 34 48  1  0  0  0  0
 34 74  1  0  0  0  0
 34 79  2  0  0  0  0
 35 63  1  0  0  0  0
 35 70  1  0  0  0  0
 35 80  2  0  0  0  0
 36 64  1  0  0  0  0
 36 75  1  0  0  0  0
 36 81  2  0  0  0  0
 37 71  1  0  0  0  0
 37 76  1  0  0  0  0
 37 82  2  0  0  0  0
 38 41  1  0  0  0  0
 39 48  1  0  0  0  0
 40 70  1  0  0  0  0
 41 43  1  0  0  0  0
 42 44  1  0  0  0  0
 42 45  1  0  0  0  0
 43 47  1  0  0  0  0
 44 49  1  0  0  0  0
 45 71  1  0  0  0  0
 46 49  1  0  0  0  0
 46 71  1  0  0  0  0
 47 74  1  0  0  0  0
 48 70  1  0  0  0  0
 49 69  1  0  0  0  0
 50 64  1  0  0  0  0
 51 65  1  0  0  0  0
 52 65  1  0  0  0  0
 53 66  1  0  0  0  0
 54 66  1  0  0  0  0
 55 66  1  0  0  0  0
 56 77  1  0  0  0  0
 57 60  1  0  0  0  0
 58 61  1  0  0  0  0
 59 84  1  0  0  0  0
 60 62  1  0  0  0  0
 61 65  1  0  0  0  0
 62 76  1  0  0  0  0
 63 66  1  0  0  0  0
 63 75  1  0  0  0  0
 64 77  1  0  0  0  0
 68 69  1  0  0  0  0
M  CHG  1  77   1
M  ISO  4  37 100  59 101  76 100  84 101
M  END
> <Batch ID>
0094

> <Smiles>
CNC(C)C(=O)NC(C(=O)N1Cc2cc([101O:1][101CH2:1]c3nccc(CCC[100NH:0][100C:0](=O)N4CCCC(n5nc(-c6ccc(Oc7ccc(F)cc7F)cc6)c(C(N)=O)c5N)C4)c3CCC(C)C)ccc2CC1C(=O)NC1CCCc2ccccc21)C(C)(C)C

> <Shape>
0.205

> <Color>
0.068

> <Negative vol penalty>
0.000

$$$$

  -OEChem-04052319193D

 92100  0     1  0  0  0  0  0999 V2000
  -37.0555  -23.7496   25.6320 C   0  0  0  0  0  0  0  0  0  0  0  0
  -36.5871  -23.2024   24.4418 C   0  0  0  0  0  0  0  0  0  0  0  0
  -23.1237   -9.8754   19.9476 C   0  0  0  0  0  0  0  0  0  0  0  0
  -23.9072   -9.9001   22.2329 C   0  0  0  0  0  0  0  0  0  0  0  0
  -36.1522  -24.1963   26.5956 C   0  0  0  0  0  0  0  0  0  0  0  0
  -35.2151  -23.1004   24.2150 C   0  0  0  0  0  0  0  0  0  0  0  0
  -30.3976  -23.3604   18.9197 C   0  0  0  0  0  0  0  0  0  0  0  0
  -22.4069   -8.7071   20.2059 C   0  0  0  0  0  0  0  0  0  0  0  0
  -23.1903   -8.7318   22.4913 C   0  0  0  0  0  0  0  0  0  0  0  0
  -29.3424  -22.6216   18.3863 C   0  0  0  0  0  0  0  0  0  0  0  0
  -19.9860   -7.8669   23.1279 C   0  0  0  0  0  0  0  0  0  0  0  0
  -19.2423   -7.8120   24.3067 C   0  0  0  0  0  0  0  0  0  0  0  0
  -27.8756  -23.4987   20.0888 C   0  0  0  0  0  0  0  0  0  0  0  0
  -20.5318   -5.9016   25.0312 C   0  0  0  0  0  0  0  0  0  0  0  0
  -27.4906  -18.9105   19.4520 C   0  0  0  0  0  0  0  0  0  0  0  0
  -23.8740  -10.4719   20.9611 C   0  0  0  0  0  0  0  0  0  0  0  0
  -24.1615  -13.0036   20.8361 C   0  0  0  0  0  0  0  0  0  0  0  0
  -34.7684  -24.1086   26.3764 C   0  0  0  0  0  0  0  0  0  0  0  0
  -30.2019  -24.1669   20.0501 C   0  0  0  0  0  0  0  0  0  0  0  0
  -34.2924  -23.5451   25.1771 C   0  0  0  0  0  0  0  0  0  0  0  0
  -28.9293  -24.2487   20.6330 C   0  0  0  0  0  0  0  0  0  0  0  0
  -26.3720  -19.1197   18.6760 C   0  0  0  0  0  0  0  0  0  0  0  0
  -26.3295  -18.0863   17.7078 C   0  0  0  0  0  0  0  0  0  0  0  0
  -22.4401   -8.1353   21.4778 C   0  0  0  0  0  0  0  0  0  0  0  0
  -28.0819  -22.6884   18.9726 C   0  0  0  0  0  0  0  0  0  0  0  0
  -21.0026   -6.9391   22.9007 C   0  0  0  0  0  0  0  0  0  0  0  0
  -19.5152   -6.8294   25.2583 C   0  0  0  0  0  0  0  0  0  0  0  0
  -21.2754   -5.9565   23.8524 C   0  0  0  0  0  0  0  0  0  0  0  0
  -24.6152  -11.6785   20.6947 C   0  0  0  0  0  0  0  0  0  0  0  0
  -27.4233  -17.2769   17.9218 C   0  0  0  0  0  0  0  0  0  0  0  0
  -25.2338  -13.7755   20.4610 C   0  0  0  0  0  0  0  0  0  0  0  0
  -22.8849  -13.4930   21.2680 C   0  0  0  0  0  0  0  0  0  0  0  0
  -31.3833  -24.2180   23.0006 C   0  0  0  0  0  0  0  0  0  0  0  0
  -29.6744  -26.9666   23.2188 C   0  0  0  0  0  0  0  0  0  0  0  0
  -27.0595  -28.8494   22.0945 C   0  0  0  0  0  0  0  0  0  0  0  0
  -30.8297  -14.6062   21.0201 C   0  0  0  0  0  0  0  0  0  0  0  0
  -33.8304  -24.5613   27.4673 C   0  0  0  0  0  0  0  0  0  0  0  0
  -31.3440  -24.9784   20.5972 C   0  0  0  0  0  0  0  0  0  0  0  0
  -28.6622  -25.1153   21.8356 C   0  0  0  0  0  0  0  0  0  0  0  0
  -32.3939  -24.7615   26.9912 C   0  0  0  0  0  0  0  0  0  0  0  0
  -29.5836  -12.5329   18.2183 C   0  0  0  0  0  0  0  0  0  0  0  0
  -31.9436  -23.5782   26.1405 C   0  0  0  0  0  0  0  0  0  0  0  0
  -28.1667  -12.1814   18.6686 C   0  0  0  0  0  0  0  0  0  0  0  0
  -30.5139  -12.7672   19.4046 C   0  0  0  0  0  0  0  0  0  0  0  0
  -28.5986  -13.4337   20.8193 C   0  0  0  0  0  0  0  0  0  0  0  0
  -32.8115  -23.4403   24.8837 C   0  0  1  0  0  0  0  0  0  0  0  0
  -31.1539  -25.3672   22.0601 C   0  0  1  0  0  0  0  0  0  0  0  0
  -27.6245  -13.2370   19.6479 C   0  0  2  0  0  0  0  0  0  0  0  0
  -27.8644  -16.0606   17.2067 C   0  0  0  0  0  0  0  0  0  0  0  0
  -24.2096  -19.8404   19.7419 C   0  0  0  0  0  0  0  0  0  0  0  0
  -24.5146  -16.5870   16.8444 C   0  0  0  0  0  0  0  0  0  0  0  0
  -25.8903  -31.0339   22.4925 C   0  0  0  0  0  0  0  0  0  0  0  0
  -29.0203  -19.8580   11.1929 C   0  0  0  0  0  0  0  0  0  0  0  0
  -28.4546  -22.2922   11.3094 C   0  0  0  0  0  0  0  0  0  0  0  0
  -28.3688  -25.8091   25.7219 C   0  0  0  0  0  0  0  0  0  0  0  0
  -26.5909  -27.5602   25.5197 C   0  0  0  0  0  0  0  0  0  0  0  0
  -28.9656  -28.2324   25.8822 C   0  0  0  0  0  0  0  0  0  0  0  0
  -31.2130  -16.8120   22.0532 C   0  0  0  0  0  0  0  0  0  0  0  0
  -27.6382  -29.7920   19.3494 C   0  0  0  0  0  0  0  0  0  0  0  0
  -26.4641  -19.3261   14.8598 C   0  0  0  0  0  0  0  0  0  0  0  0
  -26.9372  -19.3727   13.4041 C   0  0  0  0  0  0  0  0  0  0  0  0
  -25.8483  -17.9633   15.1997 C   0  0  0  0  0  0  0  0  0  0  0  0
  -27.5181  -20.7462   13.0544 C   0  0  0  0  0  0  0  0  0  0  0  0
  -29.3393  -17.2396   19.5411 C   0  0  0  0  0  0  0  0  0  0  0  0
  -29.1050  -16.4474   20.8247 C   0  0  0  0  0  0  0  0  0  0  0  0
  -26.0395  -21.5345   19.3641 C   0  0  0  0  0  0  0  0  0  1  0  0
  -25.4029  -20.2225   18.8334 C   0  0  1  0  0  0  0  0  0  0  0  0
  -25.2737  -17.9024   16.6312 C   0  0  2  0  0  0  0  0  0  0  0  0
  -28.2657  -27.3198   23.6307 C   0  0  1  0  0  0  0  0  0  0  0  0
  -26.9682  -30.3121   21.6987 C   0  0  2  0  0  0  0  0  0  0  0  0
  -27.9453  -20.8743   11.5805 C   0  0  0  0  0  0  0  0  0  0  0  0
  -28.0529  -27.2124   25.1671 C   0  0  0  0  0  0  0  0  0  0  0  0
  -25.8773  -11.6089   20.2633 N   0  0  0  0  0  0  0  0  0  0  0  0
  -28.1218  -17.7873   18.9847 N   0  0  0  0  0  0  0  0  0  0  0  0
  -26.2258  -12.9000   20.1303 N   0  0  0  0  0  0  0  0  0  0  0  0
  -29.8125  -25.8849   22.3376 N   0  0  0  0  0  0  0  0  0  0  0  0
  -29.9546  -13.7425   20.3412 N   0  0  0  0  0  0  0  0  0  0  0  0
  -25.4154  -15.1111   20.3851 N   0  0  0  0  0  0  0  0  0  0  0  0
  -21.8958  -12.5630   21.6163 N   0  0  0  0  0  0  0  0  0  0  0  0
  -32.4214  -24.4179   23.8904 N   0  0  0  0  0  0  0  0  0  0  0  0
  -28.0001  -28.6452   23.0819 N   0  0  0  0  0  0  0  0  0  0  0  0
  -30.3396  -15.8766   21.3588 N   0  0  0  0  0  0  0  0  0  0  0  0
  -26.6474  -30.4373   20.2488 N   0  3  0  0  0  0  0  0  0  0  0  0
  -22.6235  -14.7184   21.3271 O   0  0  0  0  0  0  0  0  0  0  0  0
  -30.6702  -23.2243   22.9256 O   0  0  0  0  0  0  0  0  0  0  0  0
  -30.6171  -27.6307   23.6570 O   0  0  0  0  0  0  0  0  0  0  0  0
  -26.3632  -27.9759   21.5819 O   0  0  0  0  0  0  0  0  0  0  0  0
  -31.9864  -14.2651   21.2986 O   0  0  0  0  0  0  0  0  0  0  0  0
  -21.7405   -6.9954   21.7303 O   0  0  0  0  0  0  0  0  0  0  0  0
  -27.0436  -21.9630   18.4509 O   0  0  0  0  0  0  0  0  0  1  0  0
  -18.8020   -6.7777   26.3909 F   0  0  0  0  0  0  0  0  0  0  0  0
  -22.2515   -5.0632   23.6402 F   0  0  0  0  0  0  0  0  0  0  0  0
  1  2  1  0  0  0  0
  1  5  2  0  0  0  0
  2  6  2  0  0  0  0
  3  8  2  0  0  0  0
  3 16  1  0  0  0  0
  4  9  1  0  0  0  0
  4 16  2  0  0  0  0
  5 18  1  0  0  0  0
  6 20  1  0  0  0  0
  7 10  2  0  0  0  0
  7 19  1  0  0  0  0
  8 24  1  0  0  0  0
  9 24  2  0  0  0  0
 10 25  1  0  0  0  0
 11 12  2  0  0  0  0
 11 26  1  0  0  0  0
 12 27  1  0  0  0  0
 13 21  1  0  0  0  0
 13 25  2  0  0  0  0
 14 27  2  0  0  0  0
 14 28  1  0  0  0  0
 15 22  2  0  0  0  0
 15 74  1  0  0  0  0
 16 29  1  0  0  0  0
 17 29  1  0  0  0  0
 17 31  2  0  0  0  0
 17 32  1  0  0  0  0
 18 20  2  0  0  0  0
 18 37  1  0  0  0  0
 19 21  2  0  0  0  0
 19 38  1  0  0  0  0
 20 46  1  0  0  0  0
 21 39  1  0  0  0  0
 22 23  1  0  0  0  0
 22 67  1  0  0  0  0
 23 30  2  0  0  0  0
 23 68  1  0  0  0  0
 24 89  1  0  0  0  0
 25 90  1  0  0  0  0
 26 28  2  0  0  0  0
 26 89  1  0  0  0  0
 27 91  1  0  0  0  0
 28 92  1  0  0  0  0
 29 73  2  0  0  0  0
 30 49  1  0  0  0  0
 30 74  1  0  0  0  0
 31 75  1  0  0  0  0
 31 78  1  0  0  0  0
 32 79  1  0  0  0  0
 32 84  2  0  0  0  0
 33 47  1  0  0  0  0
 33 80  1  0  0  0  0
 33 85  2  0  0  0  0
 34 69  1  0  0  0  0
 34 76  1  0  0  0  0
 34 86  2  0  0  0  0
 35 70  1  0  0  0  0
 35 81  1  0  0  0  0
 35 87  2  0  0  0  0
 36 77  1  0  0  0  0
 36 82  1  0  0  0  0
 36 88  2  0  0  0  0
 37 40  1  0  0  0  0
 38 47  1  0  0  0  0
 39 76  1  0  0  0  0
 40 42  1  0  0  0  0
 41 43  1  0  0  0  0
 41 44  1  0  0  0  0
 42 46  1  0  0  0  0
 43 48  1  0  0  0  0
 44 77  1  0  0  0  0
 45 48  1  0  0  0  0
 45 77  1  0  0  0  0
 46 80  1  0  0  0  0
 47 76  1  0  0  0  0
 48 75  1  0  0  0  0
 50 67  1  0  0  0  0
 51 68  1  0  0  0  0
 52 70  1  0  0  0  0
 53 71  1  0  0  0  0
 54 71  1  0  0  0  0
 55 72  1  0  0  0  0
 56 72  1  0  0  0  0
 57 72  1  0  0  0  0
 58 82  1  0  0  0  0
 59 83  1  0  0  0  0
 60 61  1  0  0  0  0
 60 62  1  0  0  0  0
 61 63  1  0  0  0  0
 62 68  1  0  0  0  0
 63 71  1  0  0  0  0
 64 65  1  0  0  0  0
 64 74  1  0  0  0  0
 65 82  1  0  0  0  0
 66 67  1  0  0  0  0
 66 90  1  0  0  0  0
 69 72  1  0  0  0  0
 69 81  1  0  0  0  0
 70 83  1  0  0  0  0
 73 75  1  0  0  0  0
M  CHG  1  83   1
M  ISO  4  36 100  66 101  82 100  90 101
M  END
> <Batch ID>
0094

> <Smiles>
CNC(C)C(=O)NC(C(=O)N1Cc2cc([101O:1][101CH2:1]C(C)c3cn(CC[100N:0](C)[100C:0](=O)N4CCCC(n5nc(-c6ccc(Oc7ccc(F)cc7F)cc6)c(C(N)=O)c5N)C4)c(C)c3C(C)CCCCC(C)C)ccc2CC1C(=O)NC1CCCc2ccccc21)C(C)(C)C

> <Shape>
0.251

> <Color>
0.166

> <Negative vol penalty>
0.000

$$$$

  -OEChem-04052319193D

 84 92  0     1  0  0  0  0  0999 V2000
  -22.8297  -36.0447   22.9404 C   0  0  0  0  0  0  0  0  0  0  0  0
  -23.8662  -35.2051   22.5454 C   0  0  0  0  0  0  0  0  0  0  0  0
  -24.7409  -13.9415   21.2082 C   0  0  0  0  0  0  0  0  0  0  0  0
  -25.5294  -13.9455   18.9246 C   0  0  0  0  0  0  0  0  0  0  0  0
  -21.7431  -35.5257   23.6433 C   0  0  0  0  0  0  0  0  0  0  0  0
  -23.8174  -33.8461   22.8541 C   0  0  0  0  0  0  0  0  0  0  0  0
  -25.9252  -29.2177   19.4423 C   0  0  0  0  0  0  0  0  0  0  0  0
  -23.9911  -12.7947   20.9474 C   0  0  0  0  0  0  0  0  0  0  0  0
  -24.7796  -12.7986   18.6637 C   0  0  0  0  0  0  0  0  0  0  0  0
  -27.1078  -28.4808   19.4889 C   0  0  0  0  0  0  0  0  0  0  0  0
  -24.5416   -9.4711   20.6577 C   0  0  0  0  0  0  0  0  0  0  0  0
  -24.5888   -8.4388   21.5946 C   0  0  0  0  0  0  0  0  0  0  0  0
  -25.9893  -26.7788   20.7817 C   0  0  0  0  0  0  0  0  0  0  0  0
  -22.2017   -8.6233   21.9182 C   0  0  0  0  0  0  0  0  0  0  0  0
  -28.1356  -23.9281   16.1911 C   0  0  0  0  0  0  0  0  0  0  0  0
  -25.5100  -14.5170   20.1968 C   0  0  0  0  0  0  0  0  0  0  0  0
  -27.6138  -15.7630   20.9244 C   0  0  0  0  0  0  0  0  0  0  0  0
  -21.6763  -34.1580   23.9524 C   0  0  0  0  0  0  0  0  0  0  0  0
  -24.7667  -28.7450   20.0754 C   0  0  0  0  0  0  0  0  0  0  0  0
  -22.7296  -33.3086   23.5630 C   0  0  0  0  0  0  0  0  0  0  0  0
  -24.7926  -27.5103   20.7395 C   0  0  0  0  0  0  0  0  0  0  0  0
  -27.8074  -22.6082   15.9737 C   0  0  0  0  0  0  0  0  0  0  0  0
  -29.0175  -21.8979   15.7787 C   0  0  0  0  0  0  0  0  0  0  0  0
  -24.0105  -12.2231   19.6751 C   0  0  0  0  0  0  0  0  0  0  0  0
  -27.1408  -27.2626   20.1611 C   0  0  0  0  0  0  0  0  0  0  0  0
  -23.3245  -10.0796   20.3512 C   0  0  0  0  0  0  0  0  0  0  0  0
  -23.4189   -8.0149   22.2248 C   0  0  0  0  0  0  0  0  0  0  0  0
  -22.1545   -9.6557   20.9814 C   0  0  0  0  0  0  0  0  0  0  0  0
  -26.2843  -15.7021   20.4655 C   0  0  0  0  0  0  0  0  0  0  0  0
  -30.0485  -22.8054   15.8831 C   0  0  0  0  0  0  0  0  0  0  0  0
  -27.8832  -17.1064   21.0189 C   0  0  0  0  0  0  0  0  0  0  0  0
  -28.5238  -14.7001   21.2373 C   0  0  0  0  0  0  0  0  0  0  0  0
  -22.9115  -29.7953   22.4332 C   0  0  0  0  0  0  0  0  0  0  0  0
  -21.0729  -27.2583   21.5933 C   0  0  0  0  0  0  0  0  0  0  0  0
  -20.8762  -24.1798   20.1336 C   0  0  0  0  0  0  0  0  0  0  0  0
  -25.6088  -21.9233   18.2846 C   0  0  0  0  0  0  0  0  0  0  0  0
  -20.5043  -33.6516   24.7552 C   0  0  0  0  0  0  0  0  0  0  0  0
  -23.4919  -29.5391   19.9932 C   0  0  0  0  0  0  0  0  0  0  0  0
  -23.5707  -26.9491   21.4181 C   0  0  0  0  0  0  0  0  0  0  0  0
  -20.3496  -32.1335   24.7161 C   0  0  0  0  0  0  0  0  0  0  0  0
  -25.7345  -21.3112   21.7898 C   0  0  0  0  0  0  0  0  0  0  0  0
  -21.6944  -31.4536   24.9533 C   0  0  0  0  0  0  0  0  0  0  0  0
  -26.0096  -19.8097   21.8893 C   0  0  0  0  0  0  0  0  0  0  0  0
  -24.8165  -21.6401   20.6146 C   0  0  0  0  0  0  0  0  0  0  0  0
  -25.5427  -19.6159   19.4107 C   0  0  0  0  0  0  0  0  0  0  0  0
  -22.7010  -31.8245   23.8576 C   0  0  1  0  0  0  0  0  0  0  0  0
  -22.5080  -29.2070   21.1108 C   0  0  1  0  0  0  0  0  0  0  0  0
  -26.5090  -19.2410   20.5474 C   0  0  2  0  0  0  0  0  0  0  0  0
  -29.1519  -20.4508   15.5124 C   0  0  0  0  0  0  0  0  0  0  0  0
  -31.5088  -22.6078   15.7661 C   0  0  0  0  0  0  0  0  0  0  0  0
  -19.2473  -22.3380   19.6320 C   0  0  0  0  0  0  0  0  0  0  0  0
  -30.8338  -25.0949   20.1676 C   0  0  0  0  0  0  0  0  0  0  0  0
  -21.1700  -26.3804   24.5139 C   0  0  0  0  0  0  0  0  0  0  0  0
  -20.3739  -24.1203   23.7884 C   0  0  0  0  0  0  0  0  0  0  0  0
  -18.9350  -26.1247   23.4214 C   0  0  0  0  0  0  0  0  0  0  0  0
  -21.2918  -24.4493   17.2158 C   0  0  0  0  0  0  0  0  0  0  0  0
  -26.4413  -22.0482   15.9500 C   0  0  0  0  0  0  0  0  0  0  0  0
  -30.9522  -25.4473   17.6880 C   0  0  0  0  0  0  0  0  0  0  0  0
  -30.2649  -25.3230   16.3211 C   0  0  0  0  0  0  0  0  0  0  0  0
  -29.1883  -26.6733   19.1045 C   0  0  0  0  0  0  0  0  0  1  0  0
  -21.0029  -25.8068   22.0021 C   0  0  1  0  0  0  0  0  0  0  0  0
  -19.9060  -23.6077   19.1158 C   0  0  2  0  0  0  0  0  0  0  0  0
  -30.0080  -25.3907   18.9091 C   0  0  2  0  0  0  0  0  0  0  0  0
  -20.3942  -25.6193   23.4204 C   0  0  0  0  0  0  0  0  0  0  0  0
  -25.7465  -16.9107   20.2814 N   0  0  0  0  0  0  0  0  0  0  0  0
  -29.5006  -24.0362   16.1341 N   0  0  0  0  0  0  0  0  0  0  0  0
  -26.7430  -17.7438   20.6264 N   0  0  0  0  0  0  0  0  0  0  0  0
  -22.3501  -27.7657   21.3151 N   0  0  0  0  0  0  0  0  0  0  0  0
  -25.3476  -21.0737   19.3723 N   0  0  0  0  0  0  0  0  0  0  0  0
  -28.9818  -17.7930   21.3987 N   0  0  0  0  0  0  0  0  0  0  0  0
  -28.0849  -13.3779   21.0842 N   0  0  0  0  0  0  0  0  0  0  0  0
  -22.4331  -31.0735   22.6499 N   0  0  0  0  0  0  0  0  0  0  0  0
  -20.2727  -25.1191   20.9427 N   0  0  0  0  0  0  0  0  0  0  0  0
  -26.1167  -21.3063   17.1479 N   0  0  0  0  0  0  0  0  0  0  0  0
  -20.6171  -23.2856   17.8464 N   0  3  0  0  0  0  0  0  0  0  0  0
  -29.6862  -14.9165   21.6563 O   0  0  0  0  0  0  0  0  0  0  0  0
  -23.6044  -29.1378   23.2008 O   0  0  0  0  0  0  0  0  0  0  0  0
  -20.0321  -27.9158   21.5165 O   0  0  0  0  0  0  0  0  0  0  0  0
  -22.0509  -23.8259   20.2062 O   0  0  0  0  0  0  0  0  0  0  0  0
  -25.4095  -23.1421   18.3255 O   0  0  0  0  0  0  0  0  0  0  0  0
  -23.2791  -11.1039   19.4203 O   0  0  0  0  0  0  0  0  0  0  0  0
  -28.2940  -26.5416   20.2087 O   0  0  0  0  0  0  0  0  0  1  0  0
  -23.4642   -7.0225   23.1232 F   0  0  0  0  0  0  0  0  0  0  0  0
  -20.9821  -10.2357   20.6901 F   0  0  0  0  0  0  0  0  0  0  0  0
  1  2  1  0  0  0  0
  1  5  2  0  0  0  0
  2  6  2  0  0  0  0
  3  8  2  0  0  0  0
  3 16  1  0  0  0  0
  4  9  1  0  0  0  0
  4 16  2  0  0  0  0
  5 18  1  0  0  0  0
  6 20  1  0  0  0  0
  7 10  2  0  0  0  0
  7 19  1  0  0  0  0
  8 24  1  0  0  0  0
  9 24  2  0  0  0  0
 10 25  1  0  0  0  0
 11 12  2  0  0  0  0
 11 26  1  0  0  0  0
 12 27  1  0  0  0  0
 13 21  1  0  0  0  0
 13 25  2  0  0  0  0
 14 27  2  0  0  0  0
 14 28  1  0  0  0  0
 15 22  2  0  0  0  0
 15 66  1  0  0  0  0
 16 29  1  0  0  0  0
 17 29  1  0  0  0  0
 17 31  2  0  0  0  0
 17 32  1  0  0  0  0
 18 20  2  0  0  0  0
 18 37  1  0  0  0  0
 19 21  2  0  0  0  0
 19 38  1  0  0  0  0
 20 46  1  0  0  0  0
 21 39  1  0  0  0  0
 22 23  1  0  0  0  0
 22 57  1  0  0  0  0
 23 30  2  0  0  0  0
 23 49  1  0  0  0  0
 24 81  1  0  0  0  0
 25 82  1  0  0  0  0
 26 28  2  0  0  0  0
 26 81  1  0  0  0  0
 27 83  1  0  0  0  0
 28 84  1  0  0  0  0
 29 65  2  0  0  0  0
 30 50  1  0  0  0  0
 30 66  1  0  0  0  0
 31 67  1  0  0  0  0
 31 70  1  0  0  0  0
 32 71  1  0  0  0  0
 32 76  2  0  0  0  0
 33 47  1  0  0  0  0
 33 72  1  0  0  0  0
 33 77  2  0  0  0  0
 34 61  1  0  0  0  0
 34 68  1  0  0  0  0
 34 78  2  0  0  0  0
 35 62  1  0  0  0  0
 35 73  1  0  0  0  0
 35 79  2  0  0  0  0
 36 69  1  0  0  0  0
 36 74  1  0  0  0  0
 36 80  2  0  0  0  0
 37 40  1  0  0  0  0
 38 47  1  0  0  0  0
 39 68  1  0  0  0  0
 40 42  1  0  0  0  0
 41 43  1  0  0  0  0
 41 44  1  0  0  0  0
 42 46  1  0  0  0  0
 43 48  1  0  0  0  0
 44 69  1  0  0  0  0
 45 48  1  0  0  0  0
 45 69  1  0  0  0  0
 46 72  1  0  0  0  0
 47 68  1  0  0  0  0
 48 67  1  0  0  0  0
 51 62  1  0  0  0  0
 52 63  1  0  0  0  0
 53 64  1  0  0  0  0
 54 64  1  0  0  0  0
 55 64  1  0  0  0  0
 56 75  1  0  0  0  0
 57 74  1  0  0  0  0
 58 59  1  0  0  0  0
 58 63  1  0  0  0  0
 59 66  1  0  0  0  0
 60 63  1  0  0  0  0
 60 82  1  0  0  0  0
 61 64  1  0  0  0  0
 61 73  1  0  0  0  0
 62 75  1  0  0  0  0
 65 67  1  0  0  0  0
M  CHG  1  75   1
M  ISO  4  36 100  60 101  74 100  82 101
M  END
> <Batch ID>
0094

> <Smiles>
CNC(C)C(=O)NC(C(=O)N1Cc2cc([101O:1][101CH2:1]C(C)CCn3cc(C[100NH:0][100C:0](=O)N4CCCC(n5nc(-c6ccc(Oc7ccc(F)cc7F)cc6)c(C(N)=O)c5N)C4)c(C)c3C)ccc2CC1C(=O)NC1CCCc2ccccc21)C(C)(C)C

> <Shape>
0.229

> <Color>
0.079

> <Negative vol penalty>
0.000

$$$$

  -OEChem-04052319193D

 86 94  0     1  0  0  0  0  0999 V2000
  -24.7956  -29.2055   23.4303 C   0  0  0  0  0  0  0  0  0  0  0  0
  -24.6296  -27.8363   23.6120 C   0  0  0  0  0  0  0  0  0  0  0  0
  -21.9757  -23.0650   23.9652 C   0  0  0  0  0  0  0  0  0  0  0  0
  -19.8614  -21.9907   24.4262 C   0  0  0  0  0  0  0  0  0  0  0  0
  -25.2651  -29.6940   22.2117 C   0  0  0  0  0  0  0  0  0  0  0  0
  -24.9321  -26.9547   22.5748 C   0  0  0  0  0  0  0  0  0  0  0  0
  -27.4509  -20.3491   21.4182 C   0  0  0  0  0  0  0  0  0  0  0  0
  -21.3666  -24.3143   24.0830 C   0  0  0  0  0  0  0  0  0  0  0  0
  -19.2523  -23.2400   24.5440 C   0  0  0  0  0  0  0  0  0  0  0  0
  -27.1281  -19.1777   20.7347 C   0  0  0  0  0  0  0  0  0  0  0  0
  -20.2912  -27.7836   23.9073 C   0  0  0  0  0  0  0  0  0  0  0  0
  -20.5900  -28.7460   22.9429 C   0  0  0  0  0  0  0  0  0  0  0  0
  -28.0074  -20.1297   18.7001 C   0  0  0  0  0  0  0  0  0  0  0  0
  -19.7203  -27.2908   21.2214 C   0  0  0  0  0  0  0  0  0  0  0  0
  -25.3460  -13.4896   21.6540 C   0  0  0  0  0  0  0  0  0  0  0  0
  -21.2231  -21.9032   24.1368 C   0  0  0  0  0  0  0  0  0  0  0  0
  -22.4567  -19.8611   25.0400 C   0  0  0  0  0  0  0  0  0  0  0  0
  -25.5826  -28.8173   21.1623 C   0  0  0  0  0  0  0  0  0  0  0  0
  -28.0455  -21.4256   20.7443 C   0  0  0  0  0  0  0  0  0  0  0  0
  -25.4050  -27.4320   21.3406 C   0  0  0  0  0  0  0  0  0  0  0  0
  -28.3391  -21.3128   19.3779 C   0  0  0  0  0  0  0  0  0  0  0  0
  -24.4655  -12.4305   21.6706 C   0  0  0  0  0  0  0  0  0  0  0  0
  -24.6736  -11.6886   20.4817 C   0  0  0  0  0  0  0  0  0  0  0  0
  -20.0049  -24.4018   24.3724 C   0  0  0  0  0  0  0  0  0  0  0  0
  -27.4037  -19.0689   19.3748 C   0  0  0  0  0  0  0  0  0  0  0  0
  -19.7070  -26.5748   23.5288 C   0  0  0  0  0  0  0  0  0  0  0  0
  -20.3045  -28.4996   21.5999 C   0  0  0  0  0  0  0  0  0  0  0  0
  -19.4215  -26.3284   22.1859 C   0  0  0  0  0  0  0  0  0  0  0  0
  -21.8516  -20.6124   24.0147 C   0  0  0  0  0  0  0  0  0  0  0  0
  -25.6753  -12.3168   19.7750 C   0  0  0  0  0  0  0  0  0  0  0  0
  -22.8988  -18.7208   24.4149 C   0  0  0  0  0  0  0  0  0  0  0  0
  -22.6056  -20.1666   26.4329 C   0  0  0  0  0  0  0  0  0  0  0  0
  -27.2163  -24.4372   20.1559 C   0  0  0  0  0  0  0  0  0  0  0  0
  -30.2170  -24.6154   18.9368 C   0  0  0  0  0  0  0  0  0  0  0  0
  -32.8930  -22.9914   17.5773 C   0  0  0  0  0  0  0  0  0  0  0  0
  -22.0926  -14.4946   20.8603 C   0  0  0  0  0  0  0  0  0  0  0  0
  -26.0421  -29.3954   19.8473 C   0  0  0  0  0  0  0  0  0  0  0  0
  -28.4120  -22.6723   21.5018 C   0  0  0  0  0  0  0  0  0  0  0  0
  -28.9951  -22.4320   18.6127 C   0  0  0  0  0  0  0  0  0  0  0  0
  -26.6954  -28.3688   18.9256 C   0  0  0  0  0  0  0  0  0  0  0  0
  -23.2335  -17.5801   19.4983 C   0  0  0  0  0  0  0  0  0  0  0  0
  -25.8571  -27.0958   18.8651 C   0  0  0  0  0  0  0  0  0  0  0  0
  -23.0198  -18.5825   20.6338 C   0  0  0  0  0  0  0  0  0  0  0  0
  -22.1227  -16.5331   19.4532 C   0  0  0  0  0  0  0  0  0  0  0  0
  -21.6767  -16.8238   21.8595 C   0  0  0  0  0  0  0  0  0  0  0  0
  -25.7458  -26.4422   20.2478 C   0  0  1  0  0  0  0  0  0  0  0  0
  -28.5454  -23.8990   20.6047 C   0  0  1  0  0  0  0  0  0  0  0  0
  -22.8014  -17.8664   21.9802 C   0  0  2  0  0  0  0  0  0  0  0  0
  -26.2861  -11.9707   18.4741 C   0  0  0  0  0  0  0  0  0  0  0  0
  -24.8759   -9.2346   19.9429 C   0  0  0  0  0  0  0  0  0  0  0  0
  -23.1552  -10.6471   18.7602 C   0  0  0  0  0  0  0  0  0  0  0  0
  -35.1855  -23.4090   16.6459 C   0  0  0  0  0  0  0  0  0  0  0  0
  -28.5547  -16.1509   18.0287 C   0  0  0  0  0  0  0  0  0  0  0  0
  -28.9740  -25.6914   16.3663 C   0  0  0  0  0  0  0  0  0  0  0  0
  -31.1302  -25.1908   15.1965 C   0  0  0  0  0  0  0  0  0  0  0  0
  -31.0818  -26.8409   17.0666 C   0  0  0  0  0  0  0  0  0  0  0  0
  -34.1676  -21.2999   19.6445 C   0  0  0  0  0  0  0  0  0  0  0  0
  -23.4881  -12.1337   22.7369 C   0  0  0  0  0  0  0  0  0  0  0  0
  -26.6120  -15.7268   19.5781 C   0  0  0  0  0  0  0  0  0  0  0  0
  -27.1534  -14.3871   20.0975 C   0  0  0  0  0  0  0  0  0  0  0  0
  -22.0446  -12.5492   22.4005 C   0  0  0  0  0  0  0  0  0  0  0  0
  -23.9511  -10.4663   20.0729 C   0  0  0  0  0  0  0  0  0  0  0  0
  -30.8358  -24.3777   17.5804 C   0  0  1  0  0  0  0  0  0  0  0  0
  -34.3776  -23.0619   17.8867 C   0  0  2  0  0  0  0  0  0  0  0  0
  -27.7020  -16.7197   19.1558 C   0  0  2  0  0  0  0  0  0  1  0  0
  -30.4913  -25.5047   16.5662 C   0  0  0  0  0  0  0  0  0  0  0  0
  -21.9030  -20.0009   22.8283 N   0  0  0  0  0  0  0  0  0  0  0  0
  -26.0766  -13.4101   20.4972 N   0  0  0  0  0  0  0  0  0  0  0  0
  -22.5458  -18.8534   23.1042 N   0  0  0  0  0  0  0  0  0  0  0  0
  -29.3284  -23.6330   19.3963 N   0  0  0  0  0  0  0  0  0  0  0  0
  -21.9679  -15.8902   20.7603 N   0  0  0  0  0  0  0  0  0  0  0  0
  -23.5514  -17.6277   24.8641 N   0  0  0  0  0  0  0  0  0  0  0  0
  -22.0932  -21.3811   26.9090 N   0  0  0  0  0  0  0  0  0  0  0  0
  -26.9643  -25.7312   20.5702 N   0  0  0  0  0  0  0  0  0  0  0  0
  -32.2651  -24.1967   17.8099 N   0  0  0  0  0  0  0  0  0  0  0  0
  -21.9380  -13.9668   22.1363 N   0  0  0  0  0  0  0  0  0  0  0  0
  -34.8602  -21.7529   18.4108 N   0  3  0  0  0  0  0  0  0  0  0  0
  -23.1908  -19.3931   27.2284 O   0  0  0  0  0  0  0  0  0  0  0  0
  -26.4749  -23.7314   19.4823 O   0  0  0  0  0  0  0  0  0  0  0  0
  -30.5167  -25.6317   19.5684 O   0  0  0  0  0  0  0  0  0  0  0  0
  -32.3460  -21.9703   17.1666 O   0  0  0  0  0  0  0  0  0  0  0  0
  -22.3299  -13.7731   19.8856 O   0  0  0  0  0  0  0  0  0  0  0  0
  -19.4103  -25.6207   24.4876 O   0  0  0  0  0  0  0  0  0  0  0  0
  -27.0890  -17.9269   18.7050 O   0  0  0  0  0  0  0  0  0  1  0  0
  -20.5900  -29.4245   20.6741 F   0  0  0  0  0  0  0  0  0  0  0  0
  -18.8593  -25.1695   21.8164 F   0  0  0  0  0  0  0  0  0  0  0  0
  1  2  1  0  0  0  0
  1  5  2  0  0  0  0
  2  6  2  0  0  0  0
  3  8  2  0  0  0  0
  3 16  1  0  0  0  0
  4  9  1  0  0  0  0
  4 16  2  0  0  0  0
  5 18  1  0  0  0  0
  6 20  1  0  0  0  0
  7 10  2  0  0  0  0
  7 19  1  0  0  0  0
  8 24  1  0  0  0  0
  9 24  2  0  0  0  0
 10 25  1  0  0  0  0
 11 12  2  0  0  0  0
 11 26  1  0  0  0  0
 12 27  1  0  0  0  0
 13 21  1  0  0  0  0
 13 25  2  0  0  0  0
 14 27  2  0  0  0  0
 14 28  1  0  0  0  0
 15 22  2  0  0  0  0
 15 68  1  0  0  0  0
 16 29  1  0  0  0  0
 17 29  1  0  0  0  0
 17 31  2  0  0  0  0
 17 32  1  0  0  0  0
 18 20  2  0  0  0  0
 18 37  1  0  0  0  0
 19 21  2  0  0  0  0
 19 38  1  0  0  0  0
 20 46  1  0  0  0  0
 21 39  1  0  0  0  0
 22 23  1  0  0  0  0
 22 58  1  0  0  0  0
 23 30  2  0  0  0  0
 23 62  1  0  0  0  0
 24 83  1  0  0  0  0
 25 84  1  0  0  0  0
 26 28  2  0  0  0  0
 26 83  1  0  0  0  0
 27 85  1  0  0  0  0
 28 86  1  0  0  0  0
 29 67  2  0  0  0  0
 30 49  1  0  0  0  0
 30 68  1  0  0  0  0
 31 69  1  0  0  0  0
 31 72  1  0  0  0  0
 32 73  1  0  0  0  0
 32 78  2  0  0  0  0
 33 47  1  0  0  0  0
 33 74  1  0  0  0  0
 33 79  2  0  0  0  0
 34 63  1  0  0  0  0
 34 70  1  0  0  0  0
 34 80  2  0  0  0  0
 35 64  1  0  0  0  0
 35 75  1  0  0  0  0
 35 81  2  0  0  0  0
 36 71  1  0  0  0  0
 36 76  1  0  0  0  0
 36 82  2  0  0  0  0
 37 40  1  0  0  0  0
 38 47  1  0  0  0  0
 39 70  1  0  0  0  0
 40 42  1  0  0  0  0
 41 43  1  0  0  0  0
 41 44  1  0  0  0  0
 42 46  1  0  0  0  0
 43 48  1  0  0  0  0
 44 71  1  0  0  0  0
 45 48  1  0  0  0  0
 45 71  1  0  0  0  0
 46 74  1  0  0  0  0
 47 70  1  0  0  0  0
 48 69  1  0  0  0  0
 50 62  1  0  0  0  0
 51 62  1  0  0  0  0
 52 64  1  0  0  0  0
 53 65  1  0  0  0  0
 54 66  1  0  0  0  0
 55 66  1  0  0  0  0
 56 66  1  0  0  0  0
 57 77  1  0  0  0  0
 58 61  1  0  0  0  0
 59 60  1  0  0  0  0
 59 65  1  0  0  0  0
 60 68  1  0  0  0  0
 61 76  1  0  0  0  0
 63 66  1  0  0  0  0
 63 75  1  0  0  0  0
 64 77  1  0  0  0  0
 65 84  1  0  0  0  0
 67 69  1  0  0  0  0
M  CHG  1  77   1
M  ISO  4  36 100  65 101  76 100  84 101
M  END
> <Batch ID>
0094

> <Smiles>
CNC(C)C(=O)NC(C(=O)N1Cc2cc([101O:1][101CH:1](C)CCn3cc(CC[100NH:0][100C:0](=O)N4CCCC(n5nc(-c6ccc(Oc7ccc(F)cc7F)cc6)c(C(N)=O)c5N)C4)c(C(C)C)c3C)ccc2CC1C(=O)NC1CCCc2ccccc21)C(C)(C)C

> <Shape>
0.213

> <Color>
0.076

> <Negative vol penalty>
0.000

$$$$

  -OEChem-04052319193D

 85 93  0     1  0  0  0  0  0999 V2000
  -16.6857  -29.1832   24.0022 C   0  0  0  0  0  0  0  0  0  0  0  0
  -17.0604  -28.1236   23.1824 C   0  0  0  0  0  0  0  0  0  0  0  0
  -24.1495   -9.6956   21.4510 C   0  0  0  0  0  0  0  0  0  0  0  0
  -21.9850  -10.7685   21.4802 C   0  0  0  0  0  0  0  0  0  0  0  0
  -17.5277  -30.2855   24.1433 C   0  0  0  0  0  0  0  0  0  0  0  0
  -18.2770  -28.1661   22.5023 C   0  0  0  0  0  0  0  0  0  0  0  0
  -21.9616  -23.4374   21.2496 C   0  0  0  0  0  0  0  0  0  0  0  0
  -23.5301   -8.4458   21.4496 C   0  0  0  0  0  0  0  0  0  0  0  0
  -21.3655   -9.5187   21.4788 C   0  0  0  0  0  0  0  0  0  0  0  0
  -22.1359  -22.6618   20.1042 C   0  0  0  0  0  0  0  0  0  0  0  0
  -22.5208   -4.9701   21.8017 C   0  0  0  0  0  0  0  0  0  0  0  0
  -23.0237   -3.9943   22.6623 C   0  0  0  0  0  0  0  0  0  0  0  0
  -23.9982  -24.0505   19.4545 C   0  0  0  0  0  0  0  0  0  0  0  0
  -26.6822  -18.7021   18.7555 C   0  0  0  0  0  0  0  0  0  0  0  0
  -25.2530  -20.0750   20.1373 C   0  0  0  0  0  0  0  0  0  0  0  0
  -22.5506   -5.4198   24.5548 C   0  0  0  0  0  0  0  0  0  0  0  0
  -23.3770  -10.8569   21.4663 C   0  0  0  0  0  0  0  0  0  0  0  0
  -24.3823  -12.9173   20.3474 C   0  0  0  0  0  0  0  0  0  0  0  0
  -18.7596  -30.3373   23.4722 C   0  0  0  0  0  0  0  0  0  0  0  0
  -22.7989  -24.5338   21.5009 C   0  0  0  0  0  0  0  0  0  0  0  0
  -19.1357  -29.2707   22.6335 C   0  0  0  0  0  0  0  0  0  0  0  0
  -23.8342  -24.8369   20.6050 C   0  0  0  0  0  0  0  0  0  0  0  0
  -25.5132  -19.4449   18.9203 C   0  0  0  0  0  0  0  0  0  0  0  0
  -27.5910  -18.5892   19.8077 C   0  0  0  0  0  0  0  0  0  0  0  0
  -26.1618  -19.9622   21.1894 C   0  0  0  0  0  0  0  0  0  0  0  0
  -22.1381   -8.3574   21.4635 C   0  0  0  0  0  0  0  0  0  0  0  0
  -23.1524  -22.9700   19.2050 C   0  0  0  0  0  0  0  0  0  0  0  0
  -22.0329   -6.1707   22.3176 C   0  0  0  0  0  0  0  0  0  0  0  0
  -23.0385   -4.2192   24.0389 C   0  0  0  0  0  0  0  0  0  0  0  0
  -22.0478   -6.3955   23.6942 C   0  0  0  0  0  0  0  0  0  0  0  0
  -27.3308  -19.2193   21.0246 C   0  0  0  0  0  0  0  0  0  0  0  0
  -24.0164  -12.1482   21.4683 C   0  0  0  0  0  0  0  0  0  0  0  0
  -24.9498  -14.0497   20.8785 C   0  0  0  0  0  0  0  0  0  0  0  0
  -24.2233  -12.6335   18.9510 C   0  0  0  0  0  0  0  0  0  0  0  0
  -22.3606  -27.6671   21.8078 C   0  0  0  0  0  0  0  0  0  0  0  0
  -25.5038  -27.6346   22.6084 C   0  0  0  0  0  0  0  0  0  0  0  0
  -28.5268  -26.0626   22.4147 C   0  0  0  0  0  0  0  0  0  0  0  0
  -24.9381  -18.2182   24.5892 C   0  0  0  0  0  0  0  0  0  0  0  0
  -19.6148  -31.5709   23.6186 C   0  0  0  0  0  0  0  0  0  0  0  0
  -22.6147  -25.3444   22.7545 C   0  0  0  0  0  0  0  0  0  0  0  0
  -24.7729  -25.9912   20.8391 C   0  0  0  0  0  0  0  0  0  0  0  0
  -21.0564  -31.3709   23.1579 C   0  0  0  0  0  0  0  0  0  0  0  0
  -26.3507  -15.1169   25.6204 C   0  0  0  0  0  0  0  0  0  0  0  0
  -21.0918  -30.6625   21.8075 C   0  0  0  0  0  0  0  0  0  0  0  0
  -25.8944  -14.1310   24.5434 C   0  0  0  0  0  0  0  0  0  0  0  0
  -25.2761  -16.1587   25.9236 C   0  0  0  0  0  0  0  0  0  0  0  0
  -24.3150  -15.9028   23.6687 C   0  0  0  0  0  0  0  0  0  0  0  0
  -20.4587  -29.2688   21.8988 C   0  0  1  0  0  0  0  0  0  0  0  0
  -23.2009  -26.7489   22.6494 C   0  0  1  0  0  0  0  0  0  0  0  0
  -25.3866  -14.8666   23.2887 C   0  0  2  0  0  0  0  0  0  0  0  0
  -28.8398  -17.7940   19.6282 C   0  0  0  0  0  0  0  0  0  0  0  0
  -30.9494  -25.6082   22.8858 C   0  0  0  0  0  0  0  0  0  0  0  0
  -25.9451  -29.7529   20.4572 C   0  0  0  0  0  0  0  0  0  0  0  0
  -28.3959  -29.2530   20.5660 C   0  0  0  0  0  0  0  0  0  0  0  0
  -27.2148  -30.1385   22.5769 C   0  0  0  0  0  0  0  0  0  0  0  0
  -27.8754  -24.3947   24.7712 C   0  0  0  0  0  0  0  0  0  0  0  0
  -24.5312  -19.5679   17.7827 C   0  0  0  0  0  0  0  0  0  0  0  0
  -24.7963  -20.7647   16.8669 C   0  0  0  0  0  0  0  0  0  0  0  0
  -24.5535  -20.1866   23.1274 C   0  0  0  0  0  0  0  0  0  0  0  0
  -24.6512  -22.1084   17.5719 C   0  0  0  0  0  0  0  0  0  1  0  0
  -25.8806  -20.6377   22.4894 C   0  0  2  0  0  0  0  0  0  0  0  0
  -26.8022  -27.7533   21.8474 C   0  0  1  0  0  0  0  0  0  0  0  0
  -29.5534  -25.7188   23.4788 C   0  0  2  0  0  0  0  0  0  0  0  0
  -27.0708  -29.2038   21.3562 C   0  0  0  0  0  0  0  0  0  0  0  0
  -24.3256  -12.7417   22.6242 N   0  0  0  0  0  0  0  0  0  0  0  0
  -24.8919  -13.8958   22.2325 N   0  0  0  0  0  0  0  0  0  0  0  0
  -24.5482  -26.7576   22.0759 N   0  0  0  0  0  0  0  0  0  0  0  0
  -24.8390  -16.8208   24.6922 N   0  0  0  0  0  0  0  0  0  0  0  0
  -25.4879  -15.1520   20.3148 N   0  0  0  0  0  0  0  0  0  0  0  0
  -23.6198  -11.4244   18.5794 N   0  0  0  0  0  0  0  0  0  0  0  0
  -21.3781  -28.3353   22.5133 N   0  0  0  0  0  0  0  0  0  0  0  0
  -27.8389  -27.2172   22.7227 N   0  0  0  0  0  0  0  0  0  0  0  0
  -24.5080  -18.7647   23.3863 N   0  0  0  0  0  0  0  0  0  0  0  0
  -25.8510  -22.1388   22.3770 N   0  3  0  0  0  0  0  0  0  0  0  0
  -29.2134  -24.4202   24.1261 N   0  3  0  0  0  0  0  0  0  0  0  0
  -24.6200  -13.4213   18.0591 O   0  0  0  0  0  0  0  0  0  0  0  0
  -22.5877  -27.7634   20.6074 O   0  0  0  0  0  0  0  0  0  0  0  0
  -25.3462  -28.2902   23.6413 O   0  0  0  0  0  0  0  0  0  0  0  0
  -28.3550  -25.3776   21.4088 O   0  0  0  0  0  0  0  0  0  0  0  0
  -25.3824  -18.9257   25.4996 O   0  0  0  0  0  0  0  0  0  0  0  0
  -21.5332   -7.1381   21.4620 O   0  0  0  0  0  0  0  0  0  0  0  0
  -23.3243  -22.2150   18.0859 O   0  0  0  0  0  0  0  0  0  1  0  0
  -23.5200   -3.2814   24.8653 F   0  0  0  0  0  0  0  0  0  0  0  0
  -21.5793   -7.5465   24.1958 F   0  0  0  0  0  0  0  0  0  0  0  0
  -28.2037  -19.1099   22.0372 F   0  0  0  0  0  0  0  0  0  0  0  0
  1  2  1  0  0  0  0
  1  5  2  0  0  0  0
  2  6  2  0  0  0  0
  3  8  2  0  0  0  0
  3 17  1  0  0  0  0
  4  9  1  0  0  0  0
  4 17  2  0  0  0  0
  5 19  1  0  0  0  0
  6 21  1  0  0  0  0
  7 10  2  0  0  0  0
  7 20  1  0  0  0  0
  8 26  1  0  0  0  0
  9 26  2  0  0  0  0
 10 27  1  0  0  0  0
 11 12  2  0  0  0  0
 11 28  1  0  0  0  0
 12 29  1  0  0  0  0
 13 22  1  0  0  0  0
 13 27  2  0  0  0  0
 14 23  1  0  0  0  0
 14 24  2  0  0  0  0
 15 23  2  0  0  0  0
 15 25  1  0  0  0  0
 16 29  2  0  0  0  0
 16 30  1  0  0  0  0
 17 32  1  0  0  0  0
 18 32  1  0  0  0  0
 18 33  2  0  0  0  0
 18 34  1  0  0  0  0
 19 21  2  0  0  0  0
 19 39  1  0  0  0  0
 20 22  2  0  0  0  0
 20 40  1  0  0  0  0
 21 48  1  0  0  0  0
 22 41  1  0  0  0  0
 23 57  1  0  0  0  0
 24 31  1  0  0  0  0
 24 51  1  0  0  0  0
 25 31  2  0  0  0  0
 25 61  1  0  0  0  0
 26 81  1  0  0  0  0
 27 82  1  0  0  0  0
 28 30  2  0  0  0  0
 28 81  1  0  0  0  0
 29 83  1  0  0  0  0
 30 84  1  0  0  0  0
 31 85  1  0  0  0  0
 32 65  2  0  0  0  0
 33 66  1  0  0  0  0
 33 69  1  0  0  0  0
 34 70  1  0  0  0  0
 34 76  2  0  0  0  0
 35 49  1  0  0  0  0
 35 71  1  0  0  0  0
 35 77  2  0  0  0  0
 36 62  1  0  0  0  0
 36 67  1  0  0  0  0
 36 78  2  0  0  0  0
 37 63  1  0  0  0  0
 37 72  1  0  0  0  0
 37 79  2  0  0  0  0
 38 68  1  0  0  0  0
 38 73  1  0  0  0  0
 38 80  2  0  0  0  0
 39 42  1  0  0  0  0
 40 49  1  0  0  0  0
 41 67  1  0  0  0  0
 42 44  1  0  0  0  0
 43 45  1  0  0  0  0
 43 46  1  0  0  0  0
 44 48  1  0  0  0  0
 45 50  1  0  0  0  0
 46 68  1  0  0  0  0
 47 50  1  0  0  0  0
 47 68  1  0  0  0  0
 48 71  1  0  0  0  0
 49 67  1  0  0  0  0
 50 66  1  0  0  0  0
 52 63  1  0  0  0  0
 53 64  1  0  0  0  0
 54 64  1  0  0  0  0
 55 64  1  0  0  0  0
 56 75  1  0  0  0  0
 57 58  1  0  0  0  0
 58 60  1  0  0  0  0
 59 61  1  0  0  0  0
 59 73  1  0  0  0  0
 60 82  1  0  0  0  0
 61 74  1  0  0  0  0
 62 64  1  0  0  0  0
 62 72  1  0  0  0  0
 63 75  1  0  0  0  0
 65 66  1  0  0  0  0
M  CHG  2  74   1  75   1
M  ISO  4  38 100  60 101  73 100  82 101
M  END
> <Batch ID>
0094

> <Smiles>
CNC(C)C(=O)NC(C(=O)N1Cc2cc([101O:1][101CH2:1]CCc3cc(C)c(F)c(C(N)C[100NH:0][100C:0](=O)N4CCCC(n5nc(-c6ccc(Oc7ccc(F)cc7F)cc6)c(C(N)=O)c5N)C4)c3)ccc2CC1C(=O)NC1CCCc2ccccc21)C(C)(C)C

> <Shape>
0.196

> <Color>
0.109

> <Negative vol penalty>
0.000

$$$$

  -OEChem-04052319192D

  0  0  0     0  0  0  0  0  0999 V2000
M  END
$$$$

  -OEChem-04052319193D

 80 87  0     1  0  0  0  0  0999 V2000
  -27.8546  -34.8555   23.6635 C   0  0  0  0  0  0  0  0  0  0  0  0
  -28.0851  -33.5162   23.3660 C   0  0  0  0  0  0  0  0  0  0  0  0
  -26.2510  -15.4290   21.1544 C   0  0  0  0  0  0  0  0  0  0  0  0
  -27.1968  -15.1136   18.9537 C   0  0  0  0  0  0  0  0  0  0  0  0
  -26.6075  -35.2579   24.1397 C   0  0  0  0  0  0  0  0  0  0  0  0
  -27.0690  -32.5783   23.5455 C   0  0  0  0  0  0  0  0  0  0  0  0
  -26.6673  -29.3776   19.6418 C   0  0  0  0  0  0  0  0  0  0  0  0
  -26.0527  -14.0529   21.2665 C   0  0  0  0  0  0  0  0  0  0  0  0
  -26.9986  -13.7374   19.0658 C   0  0  0  0  0  0  0  0  0  0  0  0
  -27.5992  -28.3432   19.5680 C   0  0  0  0  0  0  0  0  0  0  0  0
  -27.9126  -11.3171   21.9661 C   0  0  0  0  0  0  0  0  0  0  0  0
  -28.2745  -10.7057   23.1664 C   0  0  0  0  0  0  0  0  0  0  0  0
  -25.9765  -26.8229   20.5035 C   0  0  0  0  0  0  0  0  0  0  0  0
  -25.9935   -9.9745   23.4817 C   0  0  0  0  0  0  0  0  0  0  0  0
  -26.8230  -15.9594   19.9980 C   0  0  0  0  0  0  0  0  0  0  0  0
  -28.1683  -18.1101   20.2670 C   0  0  0  0  0  0  0  0  0  0  0  0
  -25.5725  -34.3260   24.3160 C   0  0  0  0  0  0  0  0  0  0  0  0
  -25.3845  -29.1446   20.1579 C   0  0  0  0  0  0  0  0  0  0  0  0
  -25.8073  -32.9684   24.0258 C   0  0  0  0  0  0  0  0  0  0  0  0
  -25.0294  -27.8555   20.5803 C   0  0  0  0  0  0  0  0  0  0  0  0
  -26.4265  -13.2071   20.2222 C   0  0  0  0  0  0  0  0  0  0  0  0
  -27.2548  -27.0663   20.0016 C   0  0  0  0  0  0  0  0  0  0  0  0
  -26.5910  -11.2573   21.5236 C   0  0  0  0  0  0  0  0  0  0  0  0
  -27.3150  -10.0343   23.9242 C   0  0  0  0  0  0  0  0  0  0  0  0
  -25.6315  -10.5860   22.2814 C   0  0  0  0  0  0  0  0  0  0  0  0
  -27.0275  -17.3809   19.8814 C   0  0  0  0  0  0  0  0  0  0  0  0
  -27.8670  -19.4121   19.9499 C   0  0  0  0  0  0  0  0  0  0  0  0
  -29.3911  -17.6515   20.8587 C   0  0  0  0  0  0  0  0  0  0  0  0
  -23.7324  -30.2422   22.6417 C   0  0  0  0  0  0  0  0  0  0  0  0
  -21.3332  -28.5082   21.3154 C   0  0  0  0  0  0  0  0  0  0  0  0
  -20.4042  -25.9122   19.3043 C   0  0  0  0  0  0  0  0  0  0  0  0
  -25.0765  -22.5015   15.9271 C   0  0  0  0  0  0  0  0  0  0  0  0
  -24.2560  -34.8010   24.8781 C   0  0  0  0  0  0  0  0  0  0  0  0
  -24.3821  -30.2650   20.2059 C   0  0  0  0  0  0  0  0  0  0  0  0
  -23.6587  -27.5485   21.1236 C   0  0  0  0  0  0  0  0  0  0  0  0
  -23.1162  -33.8040   24.6852 C   0  0  0  0  0  0  0  0  0  0  0  0
  -23.6850  -21.9258   19.1534 C   0  0  0  0  0  0  0  0  0  0  0  0
  -23.5652  -32.3984   25.0718 C   0  0  0  0  0  0  0  0  0  0  0  0
  -24.5111  -20.7629   19.7058 C   0  0  0  0  0  0  0  0  0  0  0  0
  -23.4480  -21.7862   17.6512 C   0  0  0  0  0  0  0  0  0  0  0  0
  -25.4959  -20.4386   17.3985 C   0  0  0  0  0  0  0  0  0  0  0  0
  -24.7225  -31.9252   24.1839 C   0  0  1  0  0  0  0  0  0  0  0  0
  -23.2729  -30.0310   21.2268 C   0  0  1  0  0  0  0  0  0  0  0  0
  -25.8086  -20.5639   18.8995 C   0  0  2  0  0  0  0  0  0  0  0  0
  -18.3728  -24.7166   18.4432 C   0  0  0  0  0  0  0  0  0  0  0  0
  -30.1892  -23.9599   19.6553 C   0  0  0  0  0  0  0  0  0  0  0  0
  -20.9935  -27.1412   24.0221 C   0  0  0  0  0  0  0  0  0  0  0  0
  -19.6627  -25.3571   22.8758 C   0  0  0  0  0  0  0  0  0  0  0  0
  -18.8508  -27.7158   22.8673 C   0  0  0  0  0  0  0  0  0  0  0  0
  -21.0705  -26.5609   16.4946 C   0  0  0  0  0  0  0  0  0  0  0  0
  -30.5578  -25.4791   14.8730 C   0  0  0  0  0  0  0  0  0  0  0  0
  -27.6542  -24.2531   14.7827 C   0  0  0  0  0  0  0  0  0  0  0  0
  -26.8081  -23.1004   14.2531 C   0  0  0  0  0  0  0  0  0  0  0  0
  -28.8798  -23.7666   15.5455 C   0  0  0  0  0  0  0  0  0  0  0  0
  -30.4514  -24.7007   17.2362 C   0  0  0  0  0  0  0  0  0  0  0  0
  -29.1304  -26.1224   18.8848 C   0  0  0  0  0  0  0  0  0  1  0  0
  -20.8440  -27.0859   21.4452 C   0  0  1  0  0  0  0  0  0  0  0  0
  -19.3848  -25.8215   18.1830 C   0  0  2  0  0  0  0  0  0  0  0  0
  -29.5515  -24.7050   18.4773 C   0  0  2  0  0  0  0  0  0  0  0  0
  -20.1143  -26.8309   22.7942 C   0  0  0  0  0  0  0  0  0  0  0  0
  -26.0726  -18.1554   19.3595 N   0  0  0  0  0  0  0  0  0  0  0  0
  -26.6127  -19.3847   19.4149 N   0  0  0  0  0  0  0  0  0  0  0  0
  -22.7157  -28.6787   21.1562 N   0  0  0  0  0  0  0  0  0  0  0  0
  -24.7180  -21.6020   16.9447 N   0  0  0  0  0  0  0  0  0  0  0  0
  -28.5552  -20.5662   20.0795 N   0  0  0  0  0  0  0  0  0  0  0  0
  -29.5354  -16.2817   21.1179 N   0  0  0  0  0  0  0  0  0  0  0  0
  -24.2283  -31.5081   22.8892 N   0  0  0  0  0  0  0  0  0  0  0  0
  -20.0264  -26.8262   20.2651 N   0  0  0  0  0  0  0  0  0  0  0  0
  -26.2991  -22.2587   15.3129 N   0  0  0  0  0  0  0  0  0  0  0  0
  -20.0644  -25.5406   16.8867 N   0  3  0  0  0  0  0  0  0  0  0  0
  -29.6879  -24.9609   15.9926 N   0  3  1  0  0  0  0  0  0  0  0  0
  -30.3215  -18.4354   21.1642 O   0  0  0  0  0  0  0  0  0  0  0  0
  -23.6423  -29.3252   23.4495 O   0  0  0  0  0  0  0  0  0  0  0  0
  -20.5179  -29.4333   21.3468 O   0  0  0  0  0  0  0  0  0  0  0  0
  -21.4308  -25.2369   19.3274 O   0  0  0  0  0  0  0  0  0  0  0  0
  -24.3627  -23.4537   15.5945 O   0  0  0  0  0  0  0  0  0  0  0  0
  -26.2335  -11.8642   20.3313 O   0  0  0  0  0  0  0  0  0  0  0  0
  -28.1626  -26.0550   19.9314 O   0  0  0  0  0  0  0  0  0  1  0  0
  -27.6630   -9.4459   25.0760 F   0  0  0  0  0  0  0  0  0  0  0  0
  -24.3607  -10.5241   21.8608 F   0  0  0  0  0  0  0  0  0  0  0  0
  1  2  1  0  0  0  0
  1  5  2  0  0  0  0
  2  6  2  0  0  0  0
  3  8  2  0  0  0  0
  3 15  1  0  0  0  0
  4  9  1  0  0  0  0
  4 15  2  0  0  0  0
  5 17  1  0  0  0  0
  6 19  1  0  0  0  0
  7 10  2  0  0  0  0
  7 18  1  0  0  0  0
  8 21  1  0  0  0  0
  9 21  2  0  0  0  0
 10 22  1  0  0  0  0
 11 12  2  0  0  0  0
 11 23  1  0  0  0  0
 12 24  1  0  0  0  0
 13 20  1  0  0  0  0
 13 22  2  0  0  0  0
 14 24  2  0  0  0  0
 14 25  1  0  0  0  0
 15 26  1  0  0  0  0
 16 26  1  0  0  0  0
 16 27  2  0  0  0  0
 16 28  1  0  0  0  0
 17 19  2  0  0  0  0
 17 33  1  0  0  0  0
 18 20  2  0  0  0  0
 18 34  1  0  0  0  0
 19 42  1  0  0  0  0
 20 35  1  0  0  0  0
 21 77  1  0  0  0  0
 22 78  1  0  0  0  0
 23 25  2  0  0  0  0
 23 77  1  0  0  0  0
 24 79  1  0  0  0  0
 25 80  1  0  0  0  0
 26 61  2  0  0  0  0
 27 62  1  0  0  0  0
 27 65  1  0  0  0  0
 28 66  1  0  0  0  0
 28 72  2  0  0  0  0
 29 43  1  0  0  0  0
 29 67  1  0  0  0  0
 29 73  2  0  0  0  0
 30 57  1  0  0  0  0
 30 63  1  0  0  0  0
 30 74  2  0  0  0  0
 31 58  1  0  0  0  0
 31 68  1  0  0  0  0
 31 75  2  0  0  0  0
 32 64  1  0  0  0  0
 32 69  1  0  0  0  0
 32 76  2  0  0  0  0
 33 36  1  0  0  0  0
 34 43  1  0  0  0  0
 35 63  1  0  0  0  0
 36 38  1  0  0  0  0
 37 39  1  0  0  0  0
 37 40  1  0  0  0  0
 38 42  1  0  0  0  0
 39 44  1  0  0  0  0
 40 64  1  0  0  0  0
 41 44  1  0  0  0  0
 41 64  1  0  0  0  0
 42 67  1  0  0  0  0
 43 63  1  0  0  0  0
 44 62  1  0  0  0  0
 45 58  1  0  0  0  0
 46 59  1  0  0  0  0
 47 60  1  0  0  0  0
 48 60  1  0  0  0  0
 49 60  1  0  0  0  0
 50 70  1  0  0  0  0
 51 71  1  0  0  0  0
 52 53  1  0  0  0  0
 52 54  1  0  0  0  0
 53 69  1  0  0  0  0
 54 71  1  0  0  0  0
 55 59  1  0  0  0  0
 55 71  1  0  0  0  0
 56 59  1  0  0  0  0
 56 78  1  0  0  0  0
 57 60  1  0  0  0  0
 57 68  1  0  0  0  0
 58 70  1  0  0  0  0
 61 62  1  0  0  0  0
M  CHG  2  70   1  71   1
M  ISO  4  32 100  56 101  69 100  78 101
M  END
> <Batch ID>
0094

> <Smiles>
CNC(C)C(=O)NC(C(=O)N1Cc2cc([101O:1][101CH2:1]C(C)CN(C)CCC[100NH:0][100C:0](=O)N3CCCC(n4nc(-c5ccc(Oc6ccc(F)cc6F)cc5)c(C(N)=O)c4N)C3)ccc2CC1C(=O)NC1CCCc2ccccc21)C(C)(C)C

> <Shape>
0.264

> <Color>
0.074

> <Negative vol penalty>
0.000

$$$$

  -OEChem-04052319193D

 83 91  0     1  0  0  0  0  0999 V2000
  -18.9115  -34.0408   23.8208 C   0  0  0  0  0  0  0  0  0  0  0  0
  -20.2477  -33.9795   23.4385 C   0  0  0  0  0  0  0  0  0  0  0  0
  -24.4605  -14.5706   19.7564 C   0  0  0  0  0  0  0  0  0  0  0  0
  -26.5720  -14.7927   20.9093 C   0  0  0  0  0  0  0  0  0  0  0  0
  -18.2508  -32.8831   24.2296 C   0  0  0  0  0  0  0  0  0  0  0  0
  -20.9244  -32.7606   23.4657 C   0  0  0  0  0  0  0  0  0  0  0  0
  -26.0749  -29.1564   20.0307 C   0  0  0  0  0  0  0  0  0  0  0  0
  -24.5661  -13.1817   19.8303 C   0  0  0  0  0  0  0  0  0  0  0  0
  -26.6777  -13.4038   20.9833 C   0  0  0  0  0  0  0  0  0  0  0  0
  -27.2635  -28.4731   20.2838 C   0  0  0  0  0  0  0  0  0  0  0  0
  -24.1049   -9.5817   20.0352 C   0  0  0  0  0  0  0  0  0  0  0  0
  -22.9713   -8.8645   20.4174 C   0  0  0  0  0  0  0  0  0  0  0  0
  -25.9981  -26.5244   20.9321 C   0  0  0  0  0  0  0  0  0  0  0  0
  -30.9060  -22.6748   20.1868 C   0  0  0  0  0  0  0  0  0  0  0  0
  -22.9337  -10.0466   22.5241 C   0  0  0  0  0  0  0  0  0  0  0  0
  -30.9923  -24.0772   18.2679 C   0  0  0  0  0  0  0  0  0  0  0  0
  -25.4634  -15.3761   20.2959 C   0  0  0  0  0  0  0  0  0  0  0  0
  -24.7523  -17.6692   21.1583 C   0  0  0  0  0  0  0  0  0  0  0  0
  -18.9170  -31.6476   24.2526 C   0  0  0  0  0  0  0  0  0  0  0  0
  -24.8367  -28.5314   20.2372 C   0  0  0  0  0  0  0  0  0  0  0  0
  -20.2723  -31.5855   23.8764 C   0  0  0  0  0  0  0  0  0  0  0  0
  -24.7952  -27.2011   20.6785 C   0  0  0  0  0  0  0  0  0  0  0  0
  -30.9838  -22.7997   18.8042 C   0  0  0  0  0  0  0  0  0  0  0  0
  -30.8400  -23.8151   20.9797 C   0  0  0  0  0  0  0  0  0  0  0  0
  -25.6747  -12.5983   20.4438 C   0  0  0  0  0  0  0  0  0  0  0  0
  -27.2252  -27.1578   20.7373 C   0  0  0  0  0  0  0  0  0  0  0  0
  -24.6530  -10.5313   20.8975 C   0  0  0  0  0  0  0  0  0  0  0  0
  -22.3857   -9.0969   21.6618 C   0  0  0  0  0  0  0  0  0  0  0  0
  -24.0673  -10.7638   22.1420 C   0  0  0  0  0  0  0  0  0  0  0  0
  -25.3551  -16.8108   20.2193 C   0  0  0  0  0  0  0  0  0  0  0  0
  -30.8552  -25.0472   20.3460 C   0  0  0  0  0  0  0  0  0  0  0  0
  -24.9114  -18.9256   20.6267 C   0  0  0  0  0  0  0  0  0  0  0  0
  -24.1065  -17.3585   22.4001 C   0  0  0  0  0  0  0  0  0  0  0  0
  -22.3395  -29.0706   22.1285 C   0  0  0  0  0  0  0  0  0  0  0  0
  -21.0195  -26.6468   20.4241 C   0  0  0  0  0  0  0  0  0  0  0  0
  -21.4878  -23.8686   18.4982 C   0  0  0  0  0  0  0  0  0  0  0  0
  -28.8755  -21.2594   16.7940 C   0  0  0  0  0  0  0  0  0  0  0  0
  -18.1743  -30.4316   24.7471 C   0  0  0  0  0  0  0  0  0  0  0  0
  -23.5639  -29.2734   19.9341 C   0  0  0  0  0  0  0  0  0  0  0  0
  -23.4920  -26.4782   20.8966 C   0  0  0  0  0  0  0  0  0  0  0  0
  -18.8572  -29.1139   24.3899 C   0  0  0  0  0  0  0  0  0  0  0  0
  -25.3340  -21.1915   16.4341 C   0  0  0  0  0  0  0  0  0  0  0  0
  -20.3493  -29.1849   24.6991 C   0  0  0  0  0  0  0  0  0  0  0  0
  -24.8834  -20.1385   17.4481 C   0  0  0  0  0  0  0  0  0  0  0  0
  -26.6604  -20.8129   15.7789 C   0  0  0  0  0  0  0  0  0  0  0  0
  -27.3033  -19.4604   17.7363 C   0  0  0  0  0  0  0  0  0  0  0  0
  -21.0334  -30.2775   23.8687 C   0  0  1  0  0  0  0  0  0  0  0  0
  -22.3531  -28.7084   20.6703 C   0  0  1  0  0  0  0  0  0  0  0  0
  -25.9982  -19.8254   18.4642 C   0  0  2  0  0  0  0  0  0  0  0  0
  -32.0006  -23.8880   24.6611 C   0  0  0  0  0  0  0  0  0  0  0  0
  -20.2184  -22.0776   17.2825 C   0  0  0  0  0  0  0  0  0  0  0  0
  -20.4189  -25.2722   23.0811 C   0  0  0  0  0  0  0  0  0  0  0  0
  -20.0454  -23.1442   21.8161 C   0  0  0  0  0  0  0  0  0  0  0  0
  -18.5833  -25.1198   21.3894 C   0  0  0  0  0  0  0  0  0  0  0  0
  -22.6338  -24.6658   15.8886 C   0  0  0  0  0  0  0  0  0  0  0  0
  -30.7547  -23.6884   22.4616 C   0  0  0  0  0  0  0  0  0  0  0  0
  -31.0564  -21.5999   17.9284 C   0  0  0  0  0  0  0  0  0  0  0  0
  -30.7869  -26.3194   21.1554 C   0  0  0  0  0  0  0  0  0  0  0  0
  -32.0982  -23.9839   23.1468 C   0  0  0  0  0  0  0  0  0  0  0  0
  -29.6030  -27.1952   20.7600 C   0  0  0  0  0  0  0  0  0  1  0  0
  -20.9724  -25.1443   20.5625 C   0  0  1  0  0  0  0  0  0  0  0  0
  -20.8753  -23.4450   17.1754 C   0  0  2  0  0  0  0  0  0  0  0  0
  -20.0297  -24.6841   21.7101 C   0  0  0  0  0  0  0  0  0  0  0  0
  -30.9299  -25.2082   19.0058 N   0  0  0  0  0  0  0  0  0  0  0  0
  -25.8593  -17.4665   19.1706 N   0  0  0  0  0  0  0  0  0  0  0  0
  -25.5736  -18.7502   19.4474 N   0  0  0  0  0  0  0  0  0  0  0  0
  -22.2747  -27.2483   20.5923 N   0  0  0  0  0  0  0  0  0  0  0  0
  -27.6751  -20.5300   16.7969 N   0  0  0  0  0  0  0  0  0  0  0  0
  -24.5479  -20.1522   21.0576 N   0  0  0  0  0  0  0  0  0  0  0  0
  -24.0305  -16.0163   22.7962 N   0  0  0  0  0  0  0  0  0  0  0  0
  -21.2452  -29.8226   22.5113 N   0  0  0  0  0  0  0  0  0  0  0  0
  -20.6116  -24.6243   19.2481 N   0  0  0  0  0  0  0  0  0  0  0  0
  -29.7803  -20.9328   17.7967 N   0  0  0  0  0  0  0  0  0  0  0  0
  -21.9220  -23.3819   16.1165 N   0  3  0  0  0  0  0  0  0  0  0  0
  -23.5969  -18.2434   23.1287 O   0  0  0  0  0  0  0  0  0  0  0  0
  -23.2534  -28.6943   22.8531 O   0  0  0  0  0  0  0  0  0  0  0  0
  -19.9820  -27.2634   20.1688 O   0  0  0  0  0  0  0  0  0  0  0  0
  -22.6282  -23.5569   18.8344 O   0  0  0  0  0  0  0  0  0  0  0  0
  -29.1204  -22.1404   15.9628 O   0  0  0  0  0  0  0  0  0  0  0  0
  -25.7780  -11.2431   20.5163 O   0  0  0  0  0  0  0  0  0  0  0  0
  -28.3839  -26.4888   20.9857 O   0  0  0  0  0  0  0  0  0  1  0  0
  -21.2961   -8.4092   22.0280 F   0  0  0  0  0  0  0  0  0  0  0  0
  -24.5886  -11.6756   22.9741 F   0  0  0  0  0  0  0  0  0  0  0  0
  1  2  1  0  0  0  0
  1  5  2  0  0  0  0
  2  6  2  0  0  0  0
  3  8  2  0  0  0  0
  3 17  1  0  0  0  0
  4  9  1  0  0  0  0
  4 17  2  0  0  0  0
  5 19  1  0  0  0  0
  6 21  1  0  0  0  0
  7 10  2  0  0  0  0
  7 20  1  0  0  0  0
  8 25  1  0  0  0  0
  9 25  2  0  0  0  0
 10 26  1  0  0  0  0
 11 12  2  0  0  0  0
 11 27  1  0  0  0  0
 12 28  1  0  0  0  0
 13 22  1  0  0  0  0
 13 26  2  0  0  0  0
 14 23  2  0  0  0  0
 14 24  1  0  0  0  0
 15 28  2  0  0  0  0
 15 29  1  0  0  0  0
 16 23  1  0  0  0  0
 16 64  2  0  0  0  0
 17 30  1  0  0  0  0
 18 30  1  0  0  0  0
 18 32  2  0  0  0  0
 18 33  1  0  0  0  0
 19 21  2  0  0  0  0
 19 38  1  0  0  0  0
 20 22  2  0  0  0  0
 20 39  1  0  0  0  0
 21 47  1  0  0  0  0
 22 40  1  0  0  0  0
 23 57  1  0  0  0  0
 24 31  2  0  0  0  0
 24 56  1  0  0  0  0
 25 80  1  0  0  0  0
 26 81  1  0  0  0  0
 27 29  2  0  0  0  0
 27 80  1  0  0  0  0
 28 82  1  0  0  0  0
 29 83  1  0  0  0  0
 30 65  2  0  0  0  0
 31 58  1  0  0  0  0
 31 64  1  0  0  0  0
 32 66  1  0  0  0  0
 32 69  1  0  0  0  0
 33 70  1  0  0  0  0
 33 75  2  0  0  0  0
 34 48  1  0  0  0  0
 34 71  1  0  0  0  0
 34 76  2  0  0  0  0
 35 61  1  0  0  0  0
 35 67  1  0  0  0  0
 35 77  2  0  0  0  0
 36 62  1  0  0  0  0
 36 72  1  0  0  0  0
 36 78  2  0  0  0  0
 37 68  1  0  0  0  0
 37 73  1  0  0  0  0
 37 79  2  0  0  0  0
 38 41  1  0  0  0  0
 39 48  1  0  0  0  0
 40 67  1  0  0  0  0
 41 43  1  0  0  0  0
 42 44  1  0  0  0  0
 42 45  1  0  0  0  0
 43 47  1  0  0  0  0
 44 49  1  0  0  0  0
 45 68  1  0  0  0  0
 46 49  1  0  0  0  0
 46 68  1  0  0  0  0
 47 71  1  0  0  0  0
 48 67  1  0  0  0  0
 49 66  1  0  0  0  0
 50 59  1  0  0  0  0
 51 62  1  0  0  0  0
 52 63  1  0  0  0  0
 53 63  1  0  0  0  0
 54 63  1  0  0  0  0
 55 74  1  0  0  0  0
 56 59  1  0  0  0  0
 57 73  1  0  0  0  0
 58 60  1  0  0  0  0
 60 81  1  0  0  0  0
 61 63  1  0  0  0  0
 61 72  1  0  0  0  0
 62 74  1  0  0  0  0
 65 66  1  0  0  0  0
M  CHG  1  74   1
M  ISO  4  37 100  60 101  73 100  81 101
M  END
> <Batch ID>
0094

> <Smiles>
CCCc1cc(C[100NH:0][100C:0](=O)N2CCCC(n3nc(-c4ccc(Oc5ccc(F)cc5F)cc4)c(C(N)=O)c3N)C2)cnc1C[101CH2:1][101O:1]c1ccc2c(c1)CN(C(=O)C(NC(=O)C(C)NC)C(C)(C)C)C(C(=O)NC1CCCc3ccccc31)C2

> <Shape>
0.207

> <Color>
0.099

> <Negative vol penalty>
0.000

$$$$

  -OEChem-04052319193D

 82 90  0     1  0  0  0  0  0999 V2000
  -16.8163  -30.7510   23.0965 C   0  0  0  0  0  0  0  0  0  0  0  0
  -18.0955  -31.2585   22.8925 C   0  0  0  0  0  0  0  0  0  0  0  0
  -29.7548  -17.3047   17.9009 C   0  0  0  0  0  0  0  0  0  0  0  0
  -31.7429  -17.8903   19.1424 C   0  0  0  0  0  0  0  0  0  0  0  0
  -16.6351  -29.3848   23.3076 C   0  0  0  0  0  0  0  0  0  0  0  0
  -19.1943  -30.4001   22.9007 C   0  0  0  0  0  0  0  0  0  0  0  0
  -25.6317  -29.5434   19.8769 C   0  0  0  0  0  0  0  0  0  0  0  0
  -30.0384  -15.9515   18.0849 C   0  0  0  0  0  0  0  0  0  0  0  0
  -32.0265  -16.5370   19.3265 C   0  0  0  0  0  0  0  0  0  0  0  0
  -26.9665  -29.3402   20.2245 C   0  0  0  0  0  0  0  0  0  0  0  0
  -29.7240  -13.6526   20.5444 C   0  0  0  0  0  0  0  0  0  0  0  0
  -28.6743  -12.8160   20.9235 C   0  0  0  0  0  0  0  0  0  0  0  0
  -33.8985  -25.5361   20.6514 C   0  0  0  0  0  0  0  0  0  0  0  0
  -26.5249  -26.9871   20.5202 C   0  0  0  0  0  0  0  0  0  0  0  0
  -33.3424  -25.8770   18.3365 C   0  0  0  0  0  0  0  0  0  0  0  0
  -28.9939  -11.5064   18.9185 C   0  0  0  0  0  0  0  0  0  0  0  0
  -35.2285  -25.7023   20.3006 C   0  0  0  0  0  0  0  0  0  0  0  0
  -30.6071  -18.2742   18.4296 C   0  0  0  0  0  0  0  0  0  0  0  0
  -29.5470  -20.5020   19.0781 C   0  0  0  0  0  0  0  0  0  0  0  0
  -17.7313  -28.5079   23.3087 C   0  0  0  0  0  0  0  0  0  0  0  0
  -24.7295  -28.4701   19.8589 C   0  0  0  0  0  0  0  0  0  0  0  0
  -19.0278  -29.0211   23.1133 C   0  0  0  0  0  0  0  0  0  0  0  0
  -25.1798  -27.1790   20.1696 C   0  0  0  0  0  0  0  0  0  0  0  0
  -32.9436  -25.6266   19.6448 C   0  0  0  0  0  0  0  0  0  0  0  0
  -31.1742  -15.5676   18.7978 C   0  0  0  0  0  0  0  0  0  0  0  0
  -27.4126  -28.0624   20.5490 C   0  0  0  0  0  0  0  0  0  0  0  0
  -30.4087  -13.4162   19.3523 C   0  0  0  0  0  0  0  0  0  0  0  0
  -28.3092  -11.7429   20.1106 C   0  0  0  0  0  0  0  0  0  0  0  0
  -30.0436  -12.3431   18.5394 C   0  0  0  0  0  0  0  0  0  0  0  0
  -30.3150  -19.6722   18.2393 C   0  0  0  0  0  0  0  0  0  0  0  0
  -34.6973  -26.0282   18.0893 C   0  0  0  0  0  0  0  0  0  0  0  0
  -29.5712  -21.7294   18.4621 C   0  0  0  0  0  0  0  0  0  0  0  0
  -28.8722  -20.1912   20.3043 C   0  0  0  0  0  0  0  0  0  0  0  0
  -22.0672  -27.7508   21.4395 C   0  0  0  0  0  0  0  0  0  0  0  0
  -21.9708  -25.2604   19.3632 C   0  0  0  0  0  0  0  0  0  0  0  0
  -23.6690  -23.1612   17.2761 C   0  0  0  0  0  0  0  0  0  0  0  0
  -33.4216  -24.3166   14.6764 C   0  0  0  0  0  0  0  0  0  0  0  0
  -17.4908  -27.0454   23.5882 C   0  0  0  0  0  0  0  0  0  0  0  0
  -23.2990  -28.7015   19.4559 C   0  0  0  0  0  0  0  0  0  0  0  0
  -24.2559  -25.9897   20.1455 C   0  0  0  0  0  0  0  0  0  0  0  0
  -18.6684  -26.1511   23.2089 C   0  0  0  0  0  0  0  0  0  0  0  0
  -29.9493  -23.7423   14.1382 C   0  0  0  0  0  0  0  0  0  0  0  0
  -19.9767  -26.7458   23.7203 C   0  0  0  0  0  0  0  0  0  0  0  0
  -29.5800  -22.7089   15.2039 C   0  0  0  0  0  0  0  0  0  0  0  0
  -31.3521  -23.5044   13.5837 C   0  0  0  0  0  0  0  0  0  0  0  0
  -32.0457  -22.3881   15.6685 C   0  0  0  0  0  0  0  0  0  0  0  0
  -20.2422  -28.1184   23.0904 C   0  0  1  0  0  0  0  0  0  0  0  0
  -22.3513  -27.6220   19.9697 C   0  0  1  0  0  0  0  0  0  0  0  0
  -30.6613  -22.6203   16.2976 C   0  0  2  0  0  0  0  0  0  0  0  0
  -23.3252  -21.2024   15.7456 C   0  0  0  0  0  0  0  0  0  0  0  0
  -21.7327  -23.4156   21.7819 C   0  0  0  0  0  0  0  0  0  0  0  0
  -22.3456  -21.4987   20.2925 C   0  0  0  0  0  0  0  0  0  0  0  0
  -20.2643  -22.8015   19.8528 C   0  0  0  0  0  0  0  0  0  0  0  0
  -24.6301  -24.6810   14.9255 C   0  0  0  0  0  0  0  0  0  0  0  0
  -31.4818  -25.4531   19.9713 C   0  0  0  0  0  0  0  0  0  0  0  0
  -35.1614  -26.2980   16.6969 C   0  0  0  0  0  0  0  0  0  0  0  0
  -30.7726  -26.7596   20.3342 C   0  0  0  0  0  0  0  0  0  0  0  0
  -35.4639  -25.0274   15.8942 C   0  0  0  0  0  0  0  0  0  0  0  0
  -29.2780  -26.5874   20.5789 C   0  0  0  0  0  0  0  0  0  1  0  0
  -22.5109  -23.8507   19.3588 C   0  0  1  0  0  0  0  0  0  0  0  0
  -23.3934  -22.7180   15.8506 C   0  0  2  0  0  0  0  0  0  0  0  0
  -21.7306  -22.9141   20.3239 C   0  0  0  0  0  0  0  0  0  0  0  0
  -35.6541  -25.9469   19.0410 N   0  0  0  0  0  0  0  0  0  0  0  0
  -30.7920  -20.3179   17.1718 N   0  0  0  0  0  0  0  0  0  0  0  0
  -30.3226  -21.5665   17.3356 N   0  0  0  0  0  0  0  0  0  0  0  0
  -22.8650  -26.2682   19.7512 N   0  0  0  0  0  0  0  0  0  0  0  0
  -32.3303  -23.4322   14.6717 N   0  0  0  0  0  0  0  0  0  0  0  0
  -29.0227  -22.9214   18.7796 N   0  0  0  0  0  0  0  0  0  0  0  0
  -28.9500  -18.8811   20.7962 N   0  0  0  0  0  0  0  0  0  0  0  0
  -20.7355  -27.9671   21.7382 N   0  0  0  0  0  0  0  0  0  0  0  0
  -22.5027  -23.4148   17.9666 N   0  0  0  0  0  0  0  0  0  0  0  0
  -34.2978  -24.1852   15.7468 N   0  0  0  0  0  0  0  0  0  0  0  0
  -24.4682  -23.2043   14.9400 N   0  3  0  0  0  0  0  0  0  0  0  0
  -28.2060  -21.0457   20.9364 O   0  0  0  0  0  0  0  0  0  0  0  0
  -22.9877  -27.6592   22.2432 O   0  0  0  0  0  0  0  0  0  0  0  0
  -20.8008  -25.4609   19.0277 O   0  0  0  0  0  0  0  0  0  0  0  0
  -24.8051  -23.2678   17.7326 O   0  0  0  0  0  0  0  0  0  0  0  0
  -33.5989  -25.1643   13.7950 O   0  0  0  0  0  0  0  0  0  0  0  0
  -31.4512  -14.2472   18.9778 O   0  0  0  0  0  0  0  0  0  0  0  0
  -28.7148  -27.8613   20.8893 O   0  0  0  0  0  0  0  0  0  1  0  0
  -27.3021  -10.9387   20.4755 F   0  0  0  0  0  0  0  0  0  0  0  0
  -30.6985  -12.1103   17.3936 F   0  0  0  0  0  0  0  0  0  0  0  0
  1  2  1  0  0  0  0
  1  5  2  0  0  0  0
  2  6  2  0  0  0  0
  3  8  2  0  0  0  0
  3 18  1  0  0  0  0
  4  9  1  0  0  0  0
  4 18  2  0  0  0  0
  5 20  1  0  0  0  0
  6 22  1  0  0  0  0
  7 10  2  0  0  0  0
  7 21  1  0  0  0  0
  8 25  1  0  0  0  0
  9 25  2  0  0  0  0
 10 26  1  0  0  0  0
 11 12  2  0  0  0  0
 11 27  1  0  0  0  0
 12 28  1  0  0  0  0
 13 17  2  0  0  0  0
 13 24  1  0  0  0  0
 14 23  1  0  0  0  0
 14 26  2  0  0  0  0
 15 24  2  0  0  0  0
 15 31  1  0  0  0  0
 16 28  2  0  0  0  0
 16 29  1  0  0  0  0
 17 63  1  0  0  0  0
 18 30  1  0  0  0  0
 19 30  1  0  0  0  0
 19 32  2  0  0  0  0
 19 33  1  0  0  0  0
 20 22  2  0  0  0  0
 20 38  1  0  0  0  0
 21 23  2  0  0  0  0
 21 39  1  0  0  0  0
 22 47  1  0  0  0  0
 23 40  1  0  0  0  0
 24 55  1  0  0  0  0
 25 79  1  0  0  0  0
 26 80  1  0  0  0  0
 27 29  2  0  0  0  0
 27 79  1  0  0  0  0
 28 81  1  0  0  0  0
 29 82  1  0  0  0  0
 30 64  2  0  0  0  0
 31 56  1  0  0  0  0
 31 63  2  0  0  0  0
 32 65  1  0  0  0  0
 32 68  1  0  0  0  0
 33 69  1  0  0  0  0
 33 74  2  0  0  0  0
 34 48  1  0  0  0  0
 34 70  1  0  0  0  0
 34 75  2  0  0  0  0
 35 60  1  0  0  0  0
 35 66  1  0  0  0  0
 35 76  2  0  0  0  0
 36 61  1  0  0  0  0
 36 71  1  0  0  0  0
 36 77  2  0  0  0  0
 37 67  1  0  0  0  0
 37 72  1  0  0  0  0
 37 78  2  0  0  0  0
 38 41  1  0  0  0  0
 39 48  1  0  0  0  0
 40 66  1  0  0  0  0
 41 43  1  0  0  0  0
 42 44  1  0  0  0  0
 42 45  1  0  0  0  0
 43 47  1  0  0  0  0
 44 49  1  0  0  0  0
 45 67  1  0  0  0  0
 46 49  1  0  0  0  0
 46 67  1  0  0  0  0
 47 70  1  0  0  0  0
 48 66  1  0  0  0  0
 49 65  1  0  0  0  0
 50 61  1  0  0  0  0
 51 62  1  0  0  0  0
 52 62  1  0  0  0  0
 53 62  1  0  0  0  0
 54 73  1  0  0  0  0
 55 57  1  0  0  0  0
 56 58  1  0  0  0  0
 57 59  1  0  0  0  0
 58 72  1  0  0  0  0
 59 80  1  0  0  0  0
 60 62  1  0  0  0  0
 60 71  1  0  0  0  0
 61 73  1  0  0  0  0
 64 65  1  0  0  0  0
M  CHG  1  73   1
M  ISO  4  37 100  59 101  72 100  80 101
M  END
> <Batch ID>
0094

> <Smiles>
CNC(C)C(=O)NC(C(=O)N1Cc2cc([101O:1][101CH2:1]CCc3ccnc(CC[100NH:0][100C:0](=O)N4CCCC(n5nc(-c6ccc(Oc7ccc(F)cc7F)cc6)c(C(N)=O)c5N)C4)c3)ccc2CC1C(=O)NC1CCCc2ccccc21)C(C)(C)C

> <Shape>
0.217

> <Color>
0.090

> <Negative vol penalty>
0.000

$$$$

  -OEChem-04052319193D

 85 93  0     1  0  0  0  0  0999 V2000
  -20.4330  -18.6488   23.6494 C   0  0  0  0  0  0  0  0  0  0  0  0
  -21.7835  -18.9799   23.6043 C   0  0  0  0  0  0  0  0  0  0  0  0
  -24.7300  -13.5422   21.3497 C   0  0  0  0  0  0  0  0  0  0  0  0
  -26.7326  -12.9346   20.1424 C   0  0  0  0  0  0  0  0  0  0  0  0
  -19.5109  -19.3844   22.9061 C   0  0  0  0  0  0  0  0  0  0  0  0
  -22.2128  -20.0462   22.8150 C   0  0  0  0  0  0  0  0  0  0  0  0
  -27.1723  -25.2120   22.6284 C   0  0  0  0  0  0  0  0  0  0  0  0
  -24.0978  -12.3907   20.8808 C   0  0  0  0  0  0  0  0  0  0  0  0
  -26.1004  -11.7830   19.6735 C   0  0  0  0  0  0  0  0  0  0  0  0
  -28.1513  -25.7352   21.7849 C   0  0  0  0  0  0  0  0  0  0  0  0
  -22.0764   -9.4271   20.2926 C   0  0  0  0  0  0  0  0  0  0  0  0
  -21.3439   -8.6711   21.2077 C   0  0  0  0  0  0  0  0  0  0  0  0
  -26.4583  -26.9848   20.6052 C   0  0  0  0  0  0  0  0  0  0  0  0
  -29.2874  -24.7185   17.2169 C   0  0  0  0  0  0  0  0  0  0  0  0
  -23.3401   -8.3324   22.5259 C   0  0  0  0  0  0  0  0  0  0  0  0
  -26.0473  -13.8143   20.9805 C   0  0  0  0  0  0  0  0  0  0  0  0
  -27.4542  -15.1395   22.6454 C   0  0  0  0  0  0  0  0  0  0  0  0
  -19.9279  -20.4663   22.1148 C   0  0  0  0  0  0  0  0  0  0  0  0
  -25.8253  -25.5633   22.4595 C   0  0  0  0  0  0  0  0  0  0  0  0
  -21.2956  -20.7962   22.0594 C   0  0  0  0  0  0  0  0  0  0  0  0
  -25.4645  -26.4666   21.4495 C   0  0  0  0  0  0  0  0  0  0  0  0
  -30.0312  -25.8454   17.6456 C   0  0  0  0  0  0  0  0  0  0  0  0
  -24.7830  -11.5111   20.0427 C   0  0  0  0  0  0  0  0  0  0  0  0
  -27.7940  -26.6195   20.7712 C   0  0  0  0  0  0  0  0  0  0  0  0
  -23.4409   -9.6357   20.4941 C   0  0  0  0  0  0  0  0  0  0  0  0
  -21.9757   -8.1237   22.3243 C   0  0  0  0  0  0  0  0  0  0  0  0
  -24.0726   -9.0884   21.6108 C   0  0  0  0  0  0  0  0  0  0  0  0
  -26.7007  -15.0039   21.4641 C   0  0  0  0  0  0  0  0  0  0  0  0
  -30.0942  -23.6121   17.3662 C   0  0  0  0  0  0  0  0  0  0  0  0
  -31.2700  -25.3934   18.0436 C   0  0  0  0  0  0  0  0  0  0  0  0
  -27.8554  -16.4531   22.6480 C   0  0  0  0  0  0  0  0  0  0  0  0
  -27.7640  -14.1650   23.6505 C   0  0  0  0  0  0  0  0  0  0  0  0
  -23.1616  -23.9721   21.7693 C   0  0  0  0  0  0  0  0  0  0  0  0
  -21.7629  -26.8437   22.3351 C   0  0  0  0  0  0  0  0  0  0  0  0
  -22.0693  -30.2402   22.4647 C   0  0  0  0  0  0  0  0  0  0  0  0
  -28.7222  -20.3097   18.2628 C   0  0  0  0  0  0  0  0  0  0  0  0
  -18.9004  -21.2023   21.2919 C   0  0  0  0  0  0  0  0  0  0  0  0
  -24.7848  -25.0110   23.3947 C   0  0  0  0  0  0  0  0  0  0  0  0
  -24.0349  -26.8915   21.2392 C   0  0  0  0  0  0  0  0  0  0  0  0
  -19.3886  -22.5526   20.7736 C   0  0  0  0  0  0  0  0  0  0  0  0
  -26.5203  -20.7794   21.0962 C   0  0  0  0  0  0  0  0  0  0  0  0
  -20.7863  -22.4216   20.1768 C   0  0  0  0  0  0  0  0  0  0  0  0
  -26.3928  -19.3487   21.6228 C   0  0  0  0  0  0  0  0  0  0  0  0
  -26.5693  -20.8049   19.5714 C   0  0  0  0  0  0  0  0  0  0  0  0
  -27.5182  -18.5315   19.5001 C   0  0  0  0  0  0  0  0  0  0  0  0
  -21.7969  -21.9616   21.2344 C   0  0  1  0  0  0  0  0  0  0  0  0
  -23.3776  -25.0380   22.8060 C   0  0  1  0  0  0  0  0  0  0  0  0
  -27.4863  -18.4363   21.0364 C   0  0  2  0  0  0  0  0  0  0  0  0
  -32.4306  -26.1394   18.5752 C   0  0  0  0  0  0  0  0  0  0  0  0
  -30.3416  -27.7484   15.2722 C   0  0  0  0  0  0  0  0  0  0  0  0
  -32.2341  -22.4138   19.4705 C   0  0  0  0  0  0  0  0  0  0  0  0
  -29.4839  -21.9290   15.5896 C   0  0  0  0  0  0  0  0  0  0  0  0
  -20.7436  -32.3217   22.9199 C   0  0  0  0  0  0  0  0  0  0  0  0
  -20.4465  -26.6020   19.5931 C   0  0  0  0  0  0  0  0  0  0  0  0
  -19.9349  -29.0505   19.7001 C   0  0  0  0  0  0  0  0  0  0  0  0
  -18.9563  -27.4986   21.3903 C   0  0  0  0  0  0  0  0  0  0  0  0
  -23.8001  -30.9826   24.7477 C   0  0  0  0  0  0  0  0  0  0  0  0
  -29.1770  -27.8041   16.2537 C   0  0  0  0  0  0  0  0  0  0  0  0
  -32.4233  -23.1756   18.1700 C   0  0  0  0  0  0  0  0  0  0  0  0
  -28.3485  -27.4550   18.6148 C   0  0  0  0  0  0  0  0  0  1  0  0
  -29.5432  -27.2875   17.6609 C   0  0  1  0  0  0  0  0  0  0  0  0
  -29.8163  -22.1913   17.0714 C   0  0  2  0  0  0  0  0  0  0  0  0
  -21.4214  -28.0506   21.4950 C   0  0  1  0  0  0  0  0  0  0  0  0
  -21.6443  -31.2505   23.5149 C   0  0  2  0  0  0  0  0  0  0  0  0
  -20.2165  -27.7911   20.5471 C   0  0  0  0  0  0  0  0  0  0  0  0
  -26.6259  -16.1408   20.7669 N   0  0  0  0  0  0  0  0  0  0  0  0
  -31.2970  -24.0344   17.8692 N   0  0  0  0  0  0  0  0  0  0  0  0
  -27.3376  -17.0032   21.5125 N   0  0  0  0  0  0  0  0  0  0  0  0
  -23.0533  -26.3191   22.1753 N   0  0  0  0  0  0  0  0  0  0  0  0
  -27.6429  -19.9307   19.0782 N   0  0  0  0  0  0  0  0  0  0  0  0
  -28.5969  -17.1797   23.5109 N   0  0  0  0  0  0  0  0  0  0  0  0
  -27.2722  -12.8622   23.4921 N   0  0  0  0  0  0  0  0  0  0  0  0
  -22.1692  -23.0663   22.0919 N   0  0  0  0  0  0  0  0  0  0  0  0
  -21.2207  -29.1539   22.4281 N   0  0  0  0  0  0  0  0  0  0  0  0
  -28.7632  -21.6509   17.9021 N   0  0  0  0  0  0  0  0  0  0  0  0
  -22.8391  -31.9165   24.1064 N   0  3  0  0  0  0  0  0  0  0  0  0
  -28.4426  -14.4456   24.6676 O   0  0  0  0  0  0  0  0  0  0  0  0
  -23.8437  -23.9724   20.7512 O   0  0  0  0  0  0  0  0  0  0  0  0
  -20.9183  -26.3876   23.1100 O   0  0  0  0  0  0  0  0  0  0  0  0
  -23.0532  -30.4004   21.7459 O   0  0  0  0  0  0  0  0  0  0  0  0
  -29.5888  -19.5124   17.8880 O   0  0  0  0  0  0  0  0  0  0  0  0
  -24.1666  -10.3872   19.5851 O   0  0  0  0  0  0  0  0  0  0  0  0
  -28.7475  -27.1312   19.9460 O   0  0  0  0  0  0  0  0  0  1  0  0
  -21.2717   -7.3991   23.2038 F   0  0  0  0  0  0  0  0  0  0  0  0
  -25.3829   -9.2864   21.8103 F   0  0  0  0  0  0  0  0  0  0  0  0
  1  2  1  0  0  0  0
  1  5  2  0  0  0  0
  2  6  2  0  0  0  0
  3  8  2  0  0  0  0
  3 16  1  0  0  0  0
  4  9  1  0  0  0  0
  4 16  2  0  0  0  0
  5 18  1  0  0  0  0
  6 20  1  0  0  0  0
  7 10  2  0  0  0  0
  7 19  1  0  0  0  0
  8 23  1  0  0  0  0
  9 23  2  0  0  0  0
 10 24  1  0  0  0  0
 11 12  2  0  0  0  0
 11 25  1  0  0  0  0
 12 26  1  0  0  0  0
 13 21  1  0  0  0  0
 13 24  2  0  0  0  0
 14 22  1  0  0  0  0
 14 29  2  0  0  0  0
 15 26  2  0  0  0  0
 15 27  1  0  0  0  0
 16 28  1  0  0  0  0
 17 28  1  0  0  0  0
 17 31  2  0  0  0  0
 17 32  1  0  0  0  0
 18 20  2  0  0  0  0
 18 37  1  0  0  0  0
 19 21  2  0  0  0  0
 19 38  1  0  0  0  0
 20 46  1  0  0  0  0
 21 39  1  0  0  0  0
 22 30  2  0  0  0  0
 22 61  1  0  0  0  0
 23 82  1  0  0  0  0
 24 83  1  0  0  0  0
 25 27  2  0  0  0  0
 25 82  1  0  0  0  0
 26 84  1  0  0  0  0
 27 85  1  0  0  0  0
 28 66  2  0  0  0  0
 29 62  1  0  0  0  0
 29 67  1  0  0  0  0
 30 49  1  0  0  0  0
 30 67  1  0  0  0  0
 31 68  1  0  0  0  0
 31 71  1  0  0  0  0
 32 72  1  0  0  0  0
 32 77  2  0  0  0  0
 33 47  1  0  0  0  0
 33 73  1  0  0  0  0
 33 78  2  0  0  0  0
 34 63  1  0  0  0  0
 34 69  1  0  0  0  0
 34 79  2  0  0  0  0
 35 64  1  0  0  0  0
 35 74  1  0  0  0  0
 35 80  2  0  0  0  0
 36 70  1  0  0  0  0
 36 75  1  0  0  0  0
 36 81  2  0  0  0  0
 37 40  1  0  0  0  0
 38 47  1  0  0  0  0
 39 69  1  0  0  0  0
 40 42  1  0  0  0  0
 41 43  1  0  0  0  0
 41 44  1  0  0  0  0
 42 46  1  0  0  0  0
 43 48  1  0  0  0  0
 44 70  1  0  0  0  0
 45 48  1  0  0  0  0
 45 70  1  0  0  0  0
 46 73  1  0  0  0  0
 47 69  1  0  0  0  0
 48 68  1  0  0  0  0
 50 58  1  0  0  0  0
 51 59  1  0  0  0  0
 52 62  1  0  0  0  0
 53 64  1  0  0  0  0
 54 65  1  0  0  0  0
 55 65  1  0  0  0  0
 56 65  1  0  0  0  0
 57 76  1  0  0  0  0
 58 61  1  0  0  0  0
 59 67  1  0  0  0  0
 60 61  1  0  0  0  0
 60 83  1  0  0  0  0
 62 75  1  0  0  0  0
 63 65  1  0  0  0  0
 63 74  1  0  0  0  0
 64 76  1  0  0  0  0
 66 68  1  0  0  0  0
M  CHG  1  76   1
M  ISO  4  36 100  60 101  75 100  83 101
M  END
> <Batch ID>
0094

> <Smiles>
CCC(c1cc(C(C)[100NH:0][100C:0](=O)N2CCCC(n3nc(-c4ccc(Oc5ccc(F)cc5F)cc4)c(C(N)=O)c3N)C2)n(CC)c1C)[101CH2:1][101O:1]c1ccc2c(c1)CN(C(=O)C(NC(=O)C(C)NC)C(C)(C)C)C(C(=O)NC1CCCc3ccccc31)C2

> <Shape>
0.211

> <Color>
0.066

> <Negative vol penalty>
0.000

$$$$

  -OEChem-04052319193D

 89 97  0     1  0  0  0  0  0999 V2000
  -29.4205  -36.4100   19.8258 C   0  0  0  0  0  0  0  0  0  0  0  0
  -29.5827  -35.0283   19.8214 C   0  0  0  0  0  0  0  0  0  0  0  0
  -26.5745  -12.9732   21.4532 C   0  0  0  0  0  0  0  0  0  0  0  0
  -26.2827  -13.6644   19.1566 C   0  0  0  0  0  0  0  0  0  0  0  0
  -28.4511  -36.9943   20.6400 C   0  0  0  0  0  0  0  0  0  0  0  0
  -28.7764  -34.2302   20.6321 C   0  0  0  0  0  0  0  0  0  0  0  0
  -26.6809  -28.6189   19.3558 C   0  0  0  0  0  0  0  0  0  0  0  0
  -25.2878  -12.4348   21.4547 C   0  0  0  0  0  0  0  0  0  0  0  0
  -24.9959  -13.1259   19.1581 C   0  0  0  0  0  0  0  0  0  0  0  0
  -27.1202  -27.3477   19.7228 C   0  0  0  0  0  0  0  0  0  0  0  0
  -23.7577   -9.6350   20.3351 C   0  0  0  0  0  0  0  0  0  0  0  0
  -23.5858   -8.3682   20.8928 C   0  0  0  0  0  0  0  0  0  0  0  0
  -25.5324  -27.3299   21.5388 C   0  0  0  0  0  0  0  0  0  0  0  0
  -22.0417   -9.2884   22.5071 C   0  0  0  0  0  0  0  0  0  0  0  0
  -27.0720  -13.5880   20.3042 C   0  0  0  0  0  0  0  0  0  0  0  0
  -29.5967  -13.4895   19.9528 C   0  0  0  0  0  0  0  0  0  0  0  0
  -27.6260  -36.2022   21.4538 C   0  0  0  0  0  0  0  0  0  0  0  0
  -25.6699  -29.2608   20.0854 C   0  0  0  0  0  0  0  0  0  0  0  0
  -27.7960  -34.8045   21.4590 C   0  0  0  0  0  0  0  0  0  0  0  0
  -25.0803  -28.6082   21.1774 C   0  0  0  0  0  0  0  0  0  0  0  0
  -27.3655  -21.0362   15.9532 C   0  0  0  0  0  0  0  0  0  0  0  0
  -27.7859  -21.4962   17.2255 C   0  0  0  0  0  0  0  0  0  0  0  0
  -24.4985  -12.5111   20.3071 C   0  0  0  0  0  0  0  0  0  0  0  0
  -26.5480  -26.7041   20.8162 C   0  0  0  0  0  0  0  0  0  0  0  0
  -23.0717  -10.7287   20.8634 C   0  0  0  0  0  0  0  0  0  0  0  0
  -22.7277   -8.1948   21.9788 C   0  0  0  0  0  0  0  0  0  0  0  0
  -22.2137  -10.5553   21.9494 C   0  0  0  0  0  0  0  0  0  0  0  0
  -28.4009  -14.1449   20.3022 C   0  0  0  0  0  0  0  0  0  0  0  0
  -26.1221  -20.4654   16.1125 C   0  0  0  0  0  0  0  0  0  0  0  0
  -26.7866  -21.1924   18.1236 C   0  0  0  0  0  0  0  0  0  0  0  0
  -30.5713  -14.4435   20.1152 C   0  0  0  0  0  0  0  0  0  0  0  0
  -29.8077  -12.1390   19.5200 C   0  0  0  0  0  0  0  0  0  0  0  0
  -25.4880  -31.9380   21.7892 C   0  0  0  0  0  0  0  0  0  0  0  0
  -22.3412  -31.1656   21.9426 C   0  0  0  0  0  0  0  0  0  0  0  0
  -19.9416  -28.7438   21.7881 C   0  0  0  0  0  0  0  0  0  0  0  0
  -30.4804  -20.4289   19.9819 C   0  0  0  0  0  0  0  0  0  0  0  0
  -26.6239  -36.8827   22.3524 C   0  0  0  0  0  0  0  0  0  0  0  0
  -25.1887  -30.6210   19.6604 C   0  0  0  0  0  0  0  0  0  0  0  0
  -23.9777  -29.2457   21.9813 C   0  0  0  0  0  0  0  0  0  0  0  0
  -25.5577  -35.9381   22.9012 C   0  0  0  0  0  0  0  0  0  0  0  0
  -31.5858  -18.3638   22.6633 C   0  0  0  0  0  0  0  0  0  0  0  0
  -26.1986  -34.6575   23.4268 C   0  0  0  0  0  0  0  0  0  0  0  0
  -31.0028  -16.9893   22.3307 C   0  0  0  0  0  0  0  0  0  0  0  0
  -30.6338  -19.4910   22.2695 C   0  0  0  0  0  0  0  0  0  0  0  0
  -29.5964  -18.0816   20.5342 C   0  0  0  0  0  0  0  0  0  0  0  0
  -26.9239  -33.9032   22.3059 C   0  0  1  0  0  0  0  0  0  0  0  0
  -24.5097  -31.3936   20.7871 C   0  0  1  0  0  0  0  0  0  0  0  0
  -30.5442  -16.9152   20.8619 C   0  0  2  0  0  0  0  0  0  0  0  0
  -28.1190  -21.1479   14.6873 C   0  0  0  0  0  0  0  0  0  0  0  0
  -25.2296  -19.8331   15.1176 C   0  0  0  0  0  0  0  0  0  0  0  0
  -17.4624  -28.4115   21.9896 C   0  0  0  0  0  0  0  0  0  0  0  0
  -22.9881  -18.6138   20.2181 C   0  0  0  0  0  0  0  0  0  0  0  0
  -23.3437  -16.4920   18.9403 C   0  0  0  0  0  0  0  0  0  0  0  0
  -22.5575  -31.4099   24.9763 C   0  0  0  0  0  0  0  0  0  0  0  0
  -20.3896  -30.1712   25.1608 C   0  0  0  0  0  0  0  0  0  0  0  0
  -20.4688  -32.3768   23.9981 C   0  0  0  0  0  0  0  0  0  0  0  0
  -19.7324  -27.7460   19.0097 C   0  0  0  0  0  0  0  0  0  0  0  0
  -29.0616  -22.1740   17.5356 C   0  0  0  0  0  0  0  0  0  0  0  0
  -26.7026  -21.4475   19.6074 C   0  0  0  0  0  0  0  0  0  0  0  0
  -26.3844  -22.9028   19.9684 C   0  0  0  0  0  0  0  0  0  0  0  0
  -26.3795  -23.1582   21.4763 C   0  0  0  0  0  0  0  0  0  0  0  0
  -24.5630  -18.5645   18.2134 C   0  0  0  0  0  0  0  0  0  0  0  0
  -24.5464  -20.0821   18.0189 C   0  0  0  0  0  0  0  0  0  0  0  0
  -30.2681  -21.2243   17.6406 C   0  0  0  0  0  0  0  0  0  0  0  0
  -26.0211  -24.6028   21.7974 C   0  0  0  0  0  0  0  0  0  1  0  0
  -21.4852  -30.3494   22.8807 C   0  0  1  0  0  0  0  0  0  0  0  0
  -18.6210  -28.6804   21.0420 C   0  0  2  0  0  0  0  0  0  0  0  0
  -23.2669  -18.0172   18.8378 C   0  0  0  0  0  0  0  0  0  0  0  0
  -21.2474  -31.0653   24.2402 C   0  0  0  0  0  0  0  0  0  0  0  0
  -28.5956  -15.4170   20.6598 N   0  0  0  0  0  0  0  0  0  0  0  0
  -25.7804  -20.5658   17.4359 N   0  0  0  0  0  0  0  0  0  0  0  0
  -29.9252  -15.5685   20.5360 N   0  0  0  0  0  0  0  0  0  0  0  0
  -23.5461  -30.5790   21.5301 N   0  0  0  0  0  0  0  0  0  0  0  0
  -30.2383  -19.3636   20.8647 N   0  0  0  0  0  0  0  0  0  0  0  0
  -31.9094  -14.4215   19.9378 N   0  0  0  0  0  0  0  0  0  0  0  0
  -28.6966  -11.2922   19.4071 N   0  0  0  0  0  0  0  0  0  0  0  0
  -25.9733  -33.1936   21.4769 N   0  0  0  0  0  0  0  0  0  0  0  0
  -20.2628  -30.0353   22.1489 N   0  0  0  0  0  0  0  0  0  0  0  0
  -30.0805  -20.2234   18.6671 N   0  0  0  0  0  0  0  0  0  0  0  0
  -18.6546  -27.5954   20.0209 N   0  3  0  0  0  0  0  0  0  0  0  0
  -30.9498  -11.6915   19.2574 O   0  0  0  0  0  0  0  0  0  0  0  0
  -25.7797  -31.2692   22.7737 O   0  0  0  0  0  0  0  0  0  0  0  0
  -21.9517  -32.2794   21.5831 O   0  0  0  0  0  0  0  0  0  0  0  0
  -20.6185  -27.7469   22.0301 O   0  0  0  0  0  0  0  0  0  0  0  0
  -31.0183  -21.4830   20.3377 O   0  0  0  0  0  0  0  0  0  0  0  0
  -23.2429  -11.9856   20.3081 O   0  0  0  0  0  0  0  0  0  0  0  0
  -26.9753  -25.4635   21.1769 O   0  0  0  0  0  0  0  0  0  1  0  0
  -22.5615   -6.9779   22.5132 F   0  0  0  0  0  0  0  0  0  0  0  0
  -21.5510  -11.6020   22.4605 F   0  0  0  0  0  0  0  0  0  0  0  0
  1  2  1  0  0  0  0
  1  5  2  0  0  0  0
  2  6  2  0  0  0  0
  3  8  2  0  0  0  0
  3 15  1  0  0  0  0
  4  9  1  0  0  0  0
  4 15  2  0  0  0  0
  5 17  1  0  0  0  0
  6 19  1  0  0  0  0
  7 10  2  0  0  0  0
  7 18  1  0  0  0  0
  8 23  1  0  0  0  0
  9 23  2  0  0  0  0
 10 24  1  0  0  0  0
 11 12  2  0  0  0  0
 11 25  1  0  0  0  0
 12 26  1  0  0  0  0
 13 20  1  0  0  0  0
 13 24  2  0  0  0  0
 14 26  2  0  0  0  0
 14 27  1  0  0  0  0
 15 28  1  0  0  0  0
 16 28  1  0  0  0  0
 16 31  2  0  0  0  0
 16 32  1  0  0  0  0
 17 19  2  0  0  0  0
 17 37  1  0  0  0  0
 18 20  2  0  0  0  0
 18 38  1  0  0  0  0
 19 46  1  0  0  0  0
 20 39  1  0  0  0  0
 21 22  1  0  0  0  0
 21 29  2  0  0  0  0
 21 49  1  0  0  0  0
 22 30  2  0  0  0  0
 22 58  1  0  0  0  0
 23 86  1  0  0  0  0
 24 87  1  0  0  0  0
 25 27  2  0  0  0  0
 25 86  1  0  0  0  0
 26 88  1  0  0  0  0
 27 89  1  0  0  0  0
 28 70  2  0  0  0  0
 29 50  1  0  0  0  0
 29 71  1  0  0  0  0
 30 59  1  0  0  0  0
 30 71  1  0  0  0  0
 31 72  1  0  0  0  0
 31 75  1  0  0  0  0
 32 76  1  0  0  0  0
 32 81  2  0  0  0  0
 33 47  1  0  0  0  0
 33 77  1  0  0  0  0
 33 82  2  0  0  0  0
 34 66  1  0  0  0  0
 34 73  1  0  0  0  0
 34 83  2  0  0  0  0
 35 67  1  0  0  0  0
 35 78  1  0  0  0  0
 35 84  2  0  0  0  0
 36 74  1  0  0  0  0
 36 79  1  0  0  0  0
 36 85  2  0  0  0  0
 37 40  1  0  0  0  0
 38 47  1  0  0  0  0
 39 73  1  0  0  0  0
 40 42  1  0  0  0  0
 41 43  1  0  0  0  0
 41 44  1  0  0  0  0
 42 46  1  0  0  0  0
 43 48  1  0  0  0  0
 44 74  1  0  0  0  0
 45 48  1  0  0  0  0
 45 74  1  0  0  0  0
 46 77  1  0  0  0  0
 47 73  1  0  0  0  0
 48 72  1  0  0  0  0
 51 67  1  0  0  0  0
 52 68  1  0  0  0  0
 53 68  1  0  0  0  0
 54 69  1  0  0  0  0
 55 69  1  0  0  0  0
 56 69  1  0  0  0  0
 57 80  1  0  0  0  0
 58 64  1  0  0  0  0
 59 60  1  0  0  0  0
 60 61  1  0  0  0  0
 61 65  1  0  0  0  0
 62 63  1  0  0  0  0
 62 68  1  0  0  0  0
 63 71  1  0  0  0  0
 64 79  1  0  0  0  0
 65 87  1  0  0  0  0
 66 69  1  0  0  0  0
 66 78  1  0  0  0  0
 67 80  1  0  0  0  0
 70 72  1  0  0  0  0
M  CHG  1  80   1
M  ISO  4  36 100  65 101  79 100  87 101
M  END
> <Batch ID>
0094

> <Smiles>
CNC(C)C(=O)NC(C(=O)N1Cc2cc([101O:1][101CH2:1]CCCc3c(CC[100NH:0][100C:0](=O)N4CCCC(n5nc(-c6ccc(Oc7ccc(F)cc7F)cc6)c(C(N)=O)c5N)C4)c(C)c(C)n3CCC(C)C)ccc2CC1C(=O)NC1CCCc2ccccc21)C(C)(C)C

> <Shape>
0.277

> <Color>
0.085

> <Negative vol penalty>
0.000

$$$$

  -OEChem-04052319193D

 92100  0     1  0  0  0  0  0999 V2000
  -25.2609  -33.1605   20.7526 C   0  0  0  0  0  0  0  0  0  0  0  0
  -26.2636  -32.6371   19.9426 C   0  0  0  0  0  0  0  0  0  0  0  0
  -23.0031   -9.8137   20.1161 C   0  0  0  0  0  0  0  0  0  0  0  0
  -23.6373  -10.1179   22.4274 C   0  0  0  0  0  0  0  0  0  0  0  0
  -24.7459  -32.4003   21.8018 C   0  0  0  0  0  0  0  0  0  0  0  0
  -26.7527  -31.3535   20.1821 C   0  0  0  0  0  0  0  0  0  0  0  0
  -29.3890  -25.6514   16.7393 C   0  0  0  0  0  0  0  0  0  0  0  0
  -22.2208   -8.7162   20.4751 C   0  0  0  0  0  0  0  0  0  0  0  0
  -22.8549   -9.0203   22.7865 C   0  0  0  0  0  0  0  0  0  0  0  0
  -30.4876  -24.7933   16.7607 C   0  0  0  0  0  0  0  0  0  0  0  0
  -23.1003   -5.6495   22.6954 C   0  0  0  0  0  0  0  0  0  0  0  0
  -23.6525   -4.7210   23.5777 C   0  0  0  0  0  0  0  0  0  0  0  0
  -29.4672  -23.5414   18.5526 C   0  0  0  0  0  0  0  0  0  0  0  0
  -30.9733  -19.9946   15.6596 C   0  0  0  0  0  0  0  0  0  0  0  0
  -32.0135  -19.3492   17.7424 C   0  0  0  0  0  0  0  0  0  0  0  0
  -21.8653   -5.1486   25.1463 C   0  0  0  0  0  0  0  0  0  0  0  0
  -23.7114  -10.5146   21.0922 C   0  0  0  0  0  0  0  0  0  0  0  0
  -24.1164  -12.9951   20.6555 C   0  0  0  0  0  0  0  0  0  0  0  0
  -25.2222  -31.1029   22.0482 C   0  0  0  0  0  0  0  0  0  0  0  0
  -28.3244  -25.4672   17.6332 C   0  0  0  0  0  0  0  0  0  0  0  0
  -26.2446  -30.5756   21.2364 C   0  0  0  0  0  0  0  0  0  0  0  0
  -28.3551  -24.3970   18.5387 C   0  0  0  0  0  0  0  0  0  0  0  0
  -31.9563  -20.1888   16.6300 C   0  0  0  0  0  0  0  0  0  0  0  0
  -30.0475  -18.9610   15.8017 C   0  0  0  0  0  0  0  0  0  0  0  0
  -31.0877  -18.3156   17.8845 C   0  0  0  0  0  0  0  0  0  0  0  0
  -30.1047  -18.1215   16.9142 C   0  0  0  0  0  0  0  0  0  0  0  0
  -22.1467   -8.3195   21.8104 C   0  0  0  0  0  0  0  0  0  0  0  0
  -30.5282  -23.7398   17.6694 C   0  0  0  0  0  0  0  0  0  0  0  0
  -21.9306   -6.3277   23.0385 C   0  0  0  0  0  0  0  0  0  0  0  0
  -23.0350   -4.4705   24.8031 C   0  0  0  0  0  0  0  0  0  0  0  0
  -21.3132   -6.0772   24.2639 C   0  0  0  0  0  0  0  0  0  0  0  0
  -24.5201  -11.6481   20.7218 C   0  0  0  0  0  0  0  0  0  0  0  0
  -25.2433  -13.6722   20.2581 C   0  0  0  0  0  0  0  0  0  0  0  0
  -22.8370  -13.5819   20.9289 C   0  0  0  0  0  0  0  0  0  0  0  0
  -27.0279  -27.1961   19.9642 C   0  0  0  0  0  0  0  0  0  0  0  0
  -24.8421  -24.7996   19.9966 C   0  0  0  0  0  0  0  0  0  0  0  0
  -24.1030  -21.5427   19.2942 C   0  0  0  0  0  0  0  0  0  0  0  0
  -30.7304  -14.6240   20.6200 C   0  0  0  0  0  0  0  0  0  0  0  0
  -24.6679  -30.3371   23.2234 C   0  0  0  0  0  0  0  0  0  0  0  0
  -27.1344  -26.3856   17.5793 C   0  0  0  0  0  0  0  0  0  0  0  0
  -27.2284  -24.1439   19.5057 C   0  0  0  0  0  0  0  0  0  0  0  0
  -24.9780  -28.8431   23.1778 C   0  0  0  0  0  0  0  0  0  0  0  0
  -29.6704  -11.9573   18.5124 C   0  0  0  0  0  0  0  0  0  0  0  0
  -26.4463  -28.6129   22.8342 C   0  0  0  0  0  0  0  0  0  0  0  0
  -28.2052  -11.7464   18.8983 C   0  0  0  0  0  0  0  0  0  0  0  0
  -30.5257  -12.3239   19.7232 C   0  0  0  0  0  0  0  0  0  0  0  0
  -28.5685  -13.2638   20.8894 C   0  0  0  0  0  0  0  0  0  0  0  0
  -26.7838  -29.1777   21.4490 C   0  0  1  0  0  0  0  0  0  0  0  0
  -26.3408  -26.4123   18.8820 C   0  0  1  0  0  0  0  0  0  0  0  0
  -27.6560  -12.9470   19.6921 C   0  0  2  0  0  0  0  0  0  0  0  0
  -28.5627  -18.3176   12.2965 C   0  0  0  0  0  0  0  0  0  0  0  0
  -33.8217  -21.1202   15.2213 C   0  0  0  0  0  0  0  0  0  0  0  0
  -29.2108  -15.9802   15.9295 C   0  0  0  0  0  0  0  0  0  0  0  0
  -27.6683  -17.5326   17.1808 C   0  0  0  0  0  0  0  0  0  0  0  0
  -22.2475  -19.8622   19.4678 C   0  0  0  0  0  0  0  0  0  0  0  0
  -25.3806  -24.5175   22.9866 C   0  0  0  0  0  0  0  0  0  0  0  0
  -24.2619  -22.2791   22.9061 C   0  0  0  0  0  0  0  0  0  0  0  0
  -22.9718  -24.3374   22.3389 C   0  0  0  0  0  0  0  0  0  0  0  0
  -29.0886  -18.2960   20.2832 C   0  0  0  0  0  0  0  0  0  0  0  0
  -24.0110  -21.1686   16.3598 C   0  0  0  0  0  0  0  0  0  0  0  0
  -29.0055  -18.7737   14.7477 C   0  0  0  0  0  0  0  0  0  0  0  0
  -31.1706  -17.4304   19.0851 C   0  0  0  0  0  0  0  0  0  0  0  0
  -29.6241  -18.5414   13.3619 C   0  0  0  0  0  0  0  0  0  0  0  0
  -30.7778  -16.9203   21.5602 C   0  0  0  0  0  0  0  0  0  0  0  0
  -31.2913  -19.3228   20.7975 C   0  0  0  0  0  0  0  0  0  0  0  0
  -32.2893  -22.6939   16.4609 C   0  0  0  0  0  0  0  0  0  1  0  0
  -32.9651  -21.3160   16.4754 C   0  0  1  0  0  0  0  0  0  0  0  0
  -29.1122  -17.0131   17.0660 C   0  0  0  0  0  0  0  0  0  0  0  0
  -24.7129  -23.4801   20.7186 C   0  0  1  0  0  0  0  0  0  0  0  0
  -22.9172  -20.9081   18.5902 C   0  0  2  0  0  0  0  0  0  0  0  0
  -24.3541  -23.6592   22.2208 C   0  0  0  0  0  0  0  0  0  0  0  0
  -30.5940  -17.9794   20.4421 C   0  0  2  0  0  0  0  0  0  0  0  0
  -25.8033  -11.4776   20.3927 N   0  0  0  0  0  0  0  0  0  0  0  0
  -26.2156  -12.7264   20.1156 N   0  0  0  0  0  0  0  0  0  0  0  0
  -26.0898  -25.0731   19.4185 N   0  0  0  0  0  0  0  0  0  0  0  0
  -29.9513  -13.4706   20.4311 N   0  0  0  0  0  0  0  0  0  0  0  0
  -25.4875  -14.9783   20.0199 N   0  0  0  0  0  0  0  0  0  0  0  0
  -21.7879  -12.7418   21.3265 N   0  0  0  0  0  0  0  0  0  0  0  0
  -26.3087  -28.2882   20.4110 N   0  0  0  0  0  0  0  0  0  0  0  0
  -23.7440  -22.6941   19.9624 N   0  0  0  0  0  0  0  0  0  0  0  0
  -30.1077  -15.6667   21.2950 N   0  0  0  0  0  0  0  0  0  0  0  0
  -30.7692  -19.9241   22.0490 N   0  3  0  0  0  0  0  0  0  0  0  0
  -23.3560  -20.2505   17.3269 N   0  3  0  0  0  0  0  0  0  0  0  0
  -22.6260  -14.8124   20.8078 O   0  0  0  0  0  0  0  0  0  0  0  0
  -28.1284  -26.8359   20.3653 O   0  0  0  0  0  0  0  0  0  0  0  0
  -23.8696  -25.5564   19.9413 O   0  0  0  0  0  0  0  0  0  0  0  0
  -25.2339  -21.0628   19.2582 O   0  0  0  0  0  0  0  0  0  0  0  0
  -31.8930  -14.7195   20.2123 O   0  0  0  0  0  0  0  0  0  0  0  0
  -21.3832   -7.2487   22.1611 O   0  0  0  0  0  0  0  0  0  0  0  0
  -31.5996  -22.9011   17.6929 O   0  0  0  0  0  0  0  0  0  1  0  0
  -23.5646   -3.5777   25.6497 F   0  0  0  0  0  0  0  0  0  0  0  0
  -20.1886   -6.7247   24.5986 F   0  0  0  0  0  0  0  0  0  0  0  0
  1  2  1  0  0  0  0
  1  5  2  0  0  0  0
  2  6  2  0  0  0  0
  3  8  2  0  0  0  0
  3 17  1  0  0  0  0
  4  9  1  0  0  0  0
  4 17  2  0  0  0  0
  5 19  1  0  0  0  0
  6 21  1  0  0  0  0
  7 10  2  0  0  0  0
  7 20  1  0  0  0  0
  8 27  1  0  0  0  0
  9 27  2  0  0  0  0
 10 28  1  0  0  0  0
 11 12  2  0  0  0  0
 11 29  1  0  0  0  0
 12 30  1  0  0  0  0
 13 22  1  0  0  0  0
 13 28  2  0  0  0  0
 14 23  2  0  0  0  0
 14 24  1  0  0  0  0
 15 23  1  0  0  0  0
 15 25  2  0  0  0  0
 16 30  2  0  0  0  0
 16 31  1  0  0  0  0
 17 32  1  0  0  0  0
 18 32  1  0  0  0  0
 18 33  2  0  0  0  0
 18 34  1  0  0  0  0
 19 21  2  0  0  0  0
 19 39  1  0  0  0  0
 20 22  2  0  0  0  0
 20 40  1  0  0  0  0
 21 48  1  0  0  0  0
 22 41  1  0  0  0  0
 23 67  1  0  0  0  0
 24 26  2  0  0  0  0
 24 61  1  0  0  0  0
 25 26  1  0  0  0  0
 25 62  1  0  0  0  0
 26 68  1  0  0  0  0
 27 89  1  0  0  0  0
 28 90  1  0  0  0  0
 29 31  2  0  0  0  0
 29 89  1  0  0  0  0
 30 91  1  0  0  0  0
 31 92  1  0  0  0  0
 32 73  2  0  0  0  0
 33 74  1  0  0  0  0
 33 77  1  0  0  0  0
 34 78  1  0  0  0  0
 34 84  2  0  0  0  0
 35 49  1  0  0  0  0
 35 79  1  0  0  0  0
 35 85  2  0  0  0  0
 36 69  1  0  0  0  0
 36 75  1  0  0  0  0
 36 86  2  0  0  0  0
 37 70  1  0  0  0  0
 37 80  1  0  0  0  0
 37 87  2  0  0  0  0
 38 76  1  0  0  0  0
 38 81  1  0  0  0  0
 38 88  2  0  0  0  0
 39 42  1  0  0  0  0
 40 49  1  0  0  0  0
 41 75  1  0  0  0  0
 42 44  1  0  0  0  0
 43 45  1  0  0  0  0
 43 46  1  0  0  0  0
 44 48  1  0  0  0  0
 45 50  1  0  0  0  0
 46 76  1  0  0  0  0
 47 50  1  0  0  0  0
 47 76  1  0  0  0  0
 48 79  1  0  0  0  0
 49 75  1  0  0  0  0
 50 74  1  0  0  0  0
 51 63  1  0  0  0  0
 52 67  1  0  0  0  0
 53 68  1  0  0  0  0
 54 68  1  0  0  0  0
 55 70  1  0  0  0  0
 56 71  1  0  0  0  0
 57 71  1  0  0  0  0
 58 71  1  0  0  0  0
 59 72  1  0  0  0  0
 60 83  1  0  0  0  0
 61 63  1  0  0  0  0
 62 72  1  0  0  0  0
 64 72  1  0  0  0  0
 64 81  1  0  0  0  0
 65 72  1  0  0  0  0
 65 82  1  0  0  0  0
 66 67  1  0  0  0  0
 66 90  1  0  0  0  0
 69 71  1  0  0  0  0
 69 80  1  0  0  0  0
 70 83  1  0  0  0  0
 73 74  1  0  0  0  0
M  CHG  2  82   1  83   1
M  ISO  4  38 100  66 101  81 100  90 101
M  END
> <Batch ID>
0094

> <Smiles>
CCCc1cc(C(C)[101CH2:1][101O:1]c2ccc3c(c2)CN(C(=O)C(NC(=O)C(C)NC)C(C)(C)C)C(C(=O)NC2CCCc4ccccc42)C3)cc(CC(C)(CN)C[100NH:0][100C:0](=O)N2CCCC(n3nc(-c4ccc(Oc5ccc(F)cc5F)cc4)c(C(N)=O)c3N)C2)c1C(C)C

> <Shape>
0.287

> <Color>
0.189

> <Negative vol penalty>
0.000

$$$$

  -OEChem-04052319193D

 86 94  0     1  0  0  0  0  0999 V2000
  -16.7517  -29.6034   24.2256 C   0  0  0  0  0  0  0  0  0  0  0  0
  -17.0463  -28.4740   23.4686 C   0  0  0  0  0  0  0  0  0  0  0  0
  -24.8041   -9.4631   20.8309 C   0  0  0  0  0  0  0  0  0  0  0  0
  -22.7024  -10.2571   21.7194 C   0  0  0  0  0  0  0  0  0  0  0  0
  -17.6241  -30.6909   24.2215 C   0  0  0  0  0  0  0  0  0  0  0  0
  -18.2131  -28.4320   22.7061 C   0  0  0  0  0  0  0  0  0  0  0  0
  -21.7028  -23.5261   21.5835 C   0  0  0  0  0  0  0  0  0  0  0  0
  -24.3156   -8.1566   20.8428 C   0  0  0  0  0  0  0  0  0  0  0  0
  -22.2139   -8.9506   21.7312 C   0  0  0  0  0  0  0  0  0  0  0  0
  -21.7806  -22.6598   20.4939 C   0  0  0  0  0  0  0  0  0  0  0  0
  -22.5086   -6.1982   23.6724 C   0  0  0  0  0  0  0  0  0  0  0  0
  -21.8266   -5.7716   24.8119 C   0  0  0  0  0  0  0  0  0  0  0  0
  -23.6213  -23.9450   19.6112 C   0  0  0  0  0  0  0  0  0  0  0  0
  -19.8568   -5.3540   23.4767 C   0  0  0  0  0  0  0  0  0  0  0  0
  -24.7008  -19.9508   20.7035 C   0  0  0  0  0  0  0  0  0  0  0  0
  -23.9975  -10.5133   21.2693 C   0  0  0  0  0  0  0  0  0  0  0  0
  -24.4100  -12.7959   20.2075 C   0  0  0  0  0  0  0  0  0  0  0  0
  -18.8069  -30.6584   23.4662 C   0  0  0  0  0  0  0  0  0  0  0  0
  -22.5780  -24.6165   21.6898 C   0  0  0  0  0  0  0  0  0  0  0  0
  -19.1014  -29.5207   22.6908 C   0  0  0  0  0  0  0  0  0  0  0  0
  -23.5542  -24.8222   20.7045 C   0  0  0  0  0  0  0  0  0  0  0  0
  -25.8403  -19.8707   21.4731 C   0  0  0  0  0  0  0  0  0  0  0  0
  -26.8522  -19.2873   20.6713 C   0  0  0  0  0  0  0  0  0  0  0  0
  -23.0205   -7.9004   21.2929 C   0  0  0  0  0  0  0  0  0  0  0  0
  -22.7380  -22.8709   19.5061 C   0  0  0  0  0  0  0  0  0  0  0  0
  -21.8647   -6.2027   22.4350 C   0  0  0  0  0  0  0  0  0  0  0  0
  -20.5007   -5.3495   24.7141 C   0  0  0  0  0  0  0  0  0  0  0  0
  -20.5388   -5.7806   22.3371 C   0  0  0  0  0  0  0  0  0  0  0  0
  -24.5018  -11.8630   21.2578 C   0  0  0  0  0  0  0  0  0  0  0  0
  -26.3002  -19.0288   19.4360 C   0  0  0  0  0  0  0  0  0  0  0  0
  -25.0371  -13.9187   20.6897 C   0  0  0  0  0  0  0  0  0  0  0  0
  -23.8114  -12.6597   18.9118 C   0  0  0  0  0  0  0  0  0  0  0  0
  -22.2269  -27.7745   21.7771 C   0  0  0  0  0  0  0  0  0  0  0  0
  -25.4171  -27.7222   22.3621 C   0  0  0  0  0  0  0  0  0  0  0  0
  -28.3861  -26.0617   22.0882 C   0  0  0  0  0  0  0  0  0  0  0  0
  -25.9654  -17.5946   24.7849 C   0  0  0  0  0  0  0  0  0  0  0  0
  -19.6956  -31.8770   23.4561 C   0  0  0  0  0  0  0  0  0  0  0  0
  -22.4986  -25.5262   22.8850 C   0  0  0  0  0  0  0  0  0  0  0  0
  -24.5306  -25.9663   20.7821 C   0  0  0  0  0  0  0  0  0  0  0  0
  -21.0970  -31.6044   22.9157 C   0  0  0  0  0  0  0  0  0  0  0  0
  -27.8703  -14.5869   24.8265 C   0  0  0  0  0  0  0  0  0  0  0  0
  -21.0234  -30.7929   21.6262 C   0  0  0  0  0  0  0  0  0  0  0  0
  -27.1527  -13.6855   23.8202 C   0  0  0  0  0  0  0  0  0  0  0  0
  -26.8862  -15.4494   25.6136 C   0  0  0  0  0  0  0  0  0  0  0  0
  -25.2433  -15.3442   23.7796 C   0  0  0  0  0  0  0  0  0  0  0  0
  -20.3696  -29.4274   21.8703 C   0  0  1  0  0  0  0  0  0  0  0  0
  -23.1049  -26.9027   22.6296 C   0  0  1  0  0  0  0  0  0  0  0  0
  -26.1983  -14.4959   22.9226 C   0  0  2  0  0  0  0  0  0  0  0  0
  -27.8029  -19.4076   17.4650 C   0  0  0  0  0  0  0  0  0  0  0  0
  -28.3361  -17.9928   22.2448 C   0  0  0  0  0  0  0  0  0  0  0  0
  -29.0312  -20.2836   21.4547 C   0  0  0  0  0  0  0  0  0  0  0  0
  -30.8267  -26.2881   22.6263 C   0  0  0  0  0  0  0  0  0  0  0  0
  -25.7507  -29.6553   20.0251 C   0  0  0  0  0  0  0  0  0  0  0  0
  -28.1922  -29.1017   20.0062 C   0  0  0  0  0  0  0  0  0  0  0  0
  -27.1731  -30.1708   22.0164 C   0  0  0  0  0  0  0  0  0  0  0  0
  -28.3404  -23.6753   23.8380 C   0  0  0  0  0  0  0  0  0  0  0  0
  -25.9711  -20.3143   22.8754 C   0  0  0  0  0  0  0  0  0  0  0  0
  -26.9047  -18.4292   18.2276 C   0  0  0  0  0  0  0  0  0  0  0  0
  -24.1809  -20.4371   17.2732 C   0  0  0  0  0  0  0  0  0  0  0  0
  -24.0092  -19.3415   18.3276 C   0  0  0  0  0  0  0  0  0  0  0  0
  -24.9648  -19.6592   23.8388 C   0  0  0  0  0  0  0  0  0  0  0  0
  -24.1009  -21.8465   17.8480 C   0  0  0  0  0  0  0  0  0  1  0  0
  -28.2436  -19.0068   21.0817 C   0  0  0  0  0  0  0  0  0  0  0  0
  -26.6613  -27.7477   21.5075 C   0  0  1  0  0  0  0  0  0  0  0  0
  -29.4772  -25.7748   23.1039 C   0  0  2  0  0  0  0  0  0  0  0  0
  -26.9248  -29.1484   20.8861 C   0  0  0  0  0  0  0  0  0  0  0  0
  -25.1373  -12.3507   22.3265 N   0  0  0  0  0  0  0  0  0  0  0  0
  -24.9921  -19.4364   19.4671 N   0  0  0  0  0  0  0  0  0  0  0  0
  -25.4506  -13.6023   21.9503 N   0  0  0  0  0  0  0  0  0  0  0  0
  -24.4088  -26.8318   21.9669 N   0  0  0  0  0  0  0  0  0  0  0  0
  -26.0114  -16.1931   24.7038 N   0  0  0  0  0  0  0  0  0  0  0  0
  -25.2697  -15.1358   20.1541 N   0  0  0  0  0  0  0  0  0  0  0  0
  -23.2100  -11.4383   18.5787 N   0  0  0  0  0  0  0  0  0  0  0  0
  -21.3102  -28.5207   22.4927 N   0  0  0  0  0  0  0  0  0  0  0  0
  -27.7454  -27.2543   22.3500 N   0  0  0  0  0  0  0  0  0  0  0  0
  -25.1155  -18.2218   23.8822 N   0  0  0  0  0  0  0  0  0  0  0  0
  -29.5899  -24.3080   23.3426 N   0  3  0  0  0  0  0  0  0  0  0  0
  -23.8242  -13.5879   18.0682 O   0  0  0  0  0  0  0  0  0  0  0  0
  -22.3716  -27.7716   20.5602 O   0  0  0  0  0  0  0  0  0  0  0  0
  -25.3456  -28.4598   23.3483 O   0  0  0  0  0  0  0  0  0  0  0  0
  -28.1304  -25.3055   21.1537 O   0  0  0  0  0  0  0  0  0  0  0  0
  -26.6364  -18.2396   25.5978 O   0  0  0  0  0  0  0  0  0  0  0  0
  -22.5434   -6.6257   21.3044 O   0  0  0  0  0  0  0  0  0  0  0  0
  -22.8157  -22.0272   18.4411 O   0  0  0  0  0  0  0  0  0  1  0  0
  -19.8464   -4.9385   25.8082 F   0  0  0  0  0  0  0  0  0  0  0  0
  -19.9153   -5.7816   21.1509 F   0  0  0  0  0  0  0  0  0  0  0  0
  1  2  1  0  0  0  0
  1  5  2  0  0  0  0
  2  6  2  0  0  0  0
  3  8  2  0  0  0  0
  3 16  1  0  0  0  0
  4  9  1  0  0  0  0
  4 16  2  0  0  0  0
  5 18  1  0  0  0  0
  6 20  1  0  0  0  0
  7 10  2  0  0  0  0
  7 19  1  0  0  0  0
  8 24  1  0  0  0  0
  9 24  2  0  0  0  0
 10 25  1  0  0  0  0
 11 12  2  0  0  0  0
 11 26  1  0  0  0  0
 12 27  1  0  0  0  0
 13 21  1  0  0  0  0
 13 25  2  0  0  0  0
 14 27  2  0  0  0  0
 14 28  1  0  0  0  0
 15 22  2  0  0  0  0
 15 68  1  0  0  0  0
 16 29  1  0  0  0  0
 17 29  1  0  0  0  0
 17 31  2  0  0  0  0
 17 32  1  0  0  0  0
 18 20  2  0  0  0  0
 18 37  1  0  0  0  0
 19 21  2  0  0  0  0
 19 38  1  0  0  0  0
 20 46  1  0  0  0  0
 21 39  1  0  0  0  0
 22 23  1  0  0  0  0
 22 57  1  0  0  0  0
 23 30  2  0  0  0  0
 23 63  1  0  0  0  0
 24 83  1  0  0  0  0
 25 84  1  0  0  0  0
 26 28  2  0  0  0  0
 26 83  1  0  0  0  0
 27 85  1  0  0  0  0
 28 86  1  0  0  0  0
 29 67  2  0  0  0  0
 30 58  1  0  0  0  0
 30 68  1  0  0  0  0
 31 69  1  0  0  0  0
 31 72  1  0  0  0  0
 32 73  1  0  0  0  0
 32 78  2  0  0  0  0
 33 47  1  0  0  0  0
 33 74  1  0  0  0  0
 33 79  2  0  0  0  0
 34 64  1  0  0  0  0
 34 70  1  0  0  0  0
 34 80  2  0  0  0  0
 35 65  1  0  0  0  0
 35 75  1  0  0  0  0
 35 81  2  0  0  0  0
 36 71  1  0  0  0  0
 36 76  1  0  0  0  0
 36 82  2  0  0  0  0
 37 40  1  0  0  0  0
 38 47  1  0  0  0  0
 39 70  1  0  0  0  0
 40 42  1  0  0  0  0
 41 43  1  0  0  0  0
 41 44  1  0  0  0  0
 42 46  1  0  0  0  0
 43 48  1  0  0  0  0
 44 71  1  0  0  0  0
 45 48  1  0  0  0  0
 45 71  1  0  0  0  0
 46 74  1  0  0  0  0
 47 70  1  0  0  0  0
 48 69  1  0  0  0  0
 49 58  1  0  0  0  0
 50 63  1  0  0  0  0
 51 63  1  0  0  0  0
 52 65  1  0  0  0  0
 53 66  1  0  0  0  0
 54 66  1  0  0  0  0
 55 66  1  0  0  0  0
 56 77  1  0  0  0  0
 57 61  1  0  0  0  0
 59 60  1  0  0  0  0
 59 62  1  0  0  0  0
 60 68  1  0  0  0  0
 61 76  1  0  0  0  0
 62 84  1  0  0  0  0
 64 66  1  0  0  0  0
 64 75  1  0  0  0  0
 65 77  1  0  0  0  0
 67 69  1  0  0  0  0
M  CHG  1  77   1
M  ISO  4  36 100  62 101  76 100  84 101
M  END
> <Batch ID>
0094

> <Smiles>
CCc1c(C(C)C)c(CC[100NH:0][100C:0](=O)N2CCCC(n3nc(-c4ccc(Oc5ccc(F)cc5F)cc4)c(C(N)=O)c3N)C2)cn1CC[101CH2:1][101O:1]c1ccc2c(c1)CN(C(=O)C(NC(=O)C(C)NC)C(C)(C)C)C(C(=O)NC1CCCc3ccccc31)C2

> <Shape>
0.191

> <Color>
0.116

> <Negative vol penalty>
0.000

$$$$

  -OEChem-04052319193D

 87 95  0     1  0  0  0  0  0999 V2000
  -20.4809  -27.7825   24.5754 C   0  0  0  0  0  0  0  0  0  0  0  0
  -21.3019  -26.8559   25.2099 C   0  0  0  0  0  0  0  0  0  0  0  0
  -23.2055   -9.8454   19.9565 C   0  0  0  0  0  0  0  0  0  0  0  0
  -23.9114   -9.9348   22.2654 C   0  0  0  0  0  0  0  0  0  0  0  0
  -20.8468  -28.3017   23.3343 C   0  0  0  0  0  0  0  0  0  0  0  0
  -22.4890  -26.4471   24.6031 C   0  0  0  0  0  0  0  0  0  0  0  0
  -29.1538  -24.3708   26.2109 C   0  0  0  0  0  0  0  0  0  0  0  0
  -22.5152   -8.6609   20.2134 C   0  0  0  0  0  0  0  0  0  0  0  0
  -23.2210   -8.7503   22.5223 C   0  0  0  0  0  0  0  0  0  0  0  0
  -30.0507  -23.3348   25.9540 C   0  0  0  0  0  0  0  0  0  0  0  0
  -20.0242   -7.8011   23.0700 C   0  0  0  0  0  0  0  0  0  0  0  0
  -19.2436   -7.7451   24.2246 C   0  0  0  0  0  0  0  0  0  0  0  0
  -30.6202  -24.3588   23.8454 C   0  0  0  0  0  0  0  0  0  0  0  0
  -28.8993  -20.7253   22.4430 C   0  0  0  0  0  0  0  0  0  0  0  0
  -20.5640   -5.8877   25.0271 C   0  0  0  0  0  0  0  0  0  0  0  0
  -23.9036  -10.4824   20.9825 C   0  0  0  0  0  0  0  0  0  0  0  0
  -24.1204  -13.0189   20.8189 C   0  0  0  0  0  0  0  0  0  0  0  0
  -22.0437  -27.9064   22.7164 C   0  0  0  0  0  0  0  0  0  0  0  0
  -28.9751  -25.4046   25.2805 C   0  0  0  0  0  0  0  0  0  0  0  0
  -22.8706  -26.9605   23.3520 C   0  0  0  0  0  0  0  0  0  0  0  0
  -29.7223  -25.4081   24.0940 C   0  0  0  0  0  0  0  0  0  0  0  0
  -29.9044  -19.7481   22.6481 C   0  0  0  0  0  0  0  0  0  0  0  0
  -22.5229   -8.1134   21.4963 C   0  0  0  0  0  0  0  0  0  0  0  0
  -30.7819  -23.3271   24.7697 C   0  0  0  0  0  0  0  0  0  0  0  0
  -21.0746   -6.9003   22.8939 C   0  0  0  0  0  0  0  0  0  0  0  0
  -19.5135   -6.7884   25.2032 C   0  0  0  0  0  0  0  0  0  0  0  0
  -21.3445   -5.9437   23.8725 C   0  0  0  0  0  0  0  0  0  0  0  0
  -24.6174  -11.7057   20.7176 C   0  0  0  0  0  0  0  0  0  0  0  0
  -27.6875  -20.0709   22.4225 C   0  0  0  0  0  0  0  0  0  0  0  0
  -25.1814  -13.8159   20.4645 C   0  0  0  0  0  0  0  0  0  0  0  0
  -29.2761  -18.5263   22.7464 C   0  0  0  0  0  0  0  0  0  0  0  0
  -22.8162  -13.4773   21.1994 C   0  0  0  0  0  0  0  0  0  0  0  0
  -26.5275  -26.4721   23.5561 C   0  0  0  0  0  0  0  0  0  0  0  0
  -28.6208  -28.8159   22.7516 C   0  0  0  0  0  0  0  0  0  0  0  0
  -31.8682  -29.8106   22.4174 C   0  0  0  0  0  0  0  0  0  0  0  0
  -30.9436  -14.0685   20.9623 C   0  0  0  0  0  0  0  0  0  0  0  0
  -22.3739  -28.4596   21.3527 C   0  0  0  0  0  0  0  0  0  0  0  0
  -28.0234  -26.5290   25.5847 C   0  0  0  0  0  0  0  0  0  0  0  0
  -29.5821  -26.5054   23.0718 C   0  0  0  0  0  0  0  0  0  0  0  0
  -23.8322  -28.2567   20.9498 C   0  0  0  0  0  0  0  0  0  0  0  0
  -29.3610  -13.1231   17.9163 C   0  0  0  0  0  0  0  0  0  0  0  0
  -24.2717  -26.8249   21.2390 C   0  0  0  0  0  0  0  0  0  0  0  0
  -27.9302  -12.7833   18.3375 C   0  0  0  0  0  0  0  0  0  0  0  0
  -30.3765  -12.7014   18.9759 C   0  0  0  0  0  0  0  0  0  0  0  0
  -28.6775  -12.8780   20.7524 C   0  0  0  0  0  0  0  0  0  0  0  0
  -24.1783  -26.5111   22.7371 C   0  0  1  0  0  0  0  0  0  0  0  0
  -27.5429  -27.2598   24.3347 C   0  0  1  0  0  0  0  0  0  0  0  0
  -27.6128  -13.3349   19.7405 C   0  0  2  0  0  0  0  0  0  0  0  0
  -33.2649  -31.7691   21.7025 C   0  0  0  0  0  0  0  0  0  0  0  0
  -26.3751  -22.1089   24.3060 C   0  0  0  0  0  0  0  0  0  0  0  0
  -24.1796  -21.5066   23.2666 C   0  0  0  0  0  0  0  0  0  0  0  0
  -28.0329  -28.1652   19.8291 C   0  0  0  0  0  0  0  0  0  0  0  0
  -30.0950  -29.4396   19.2030 C   0  0  0  0  0  0  0  0  0  0  0  0
  -28.2063  -30.6073   20.3397 C   0  0  0  0  0  0  0  0  0  0  0  0
  -26.9087  -17.7064   22.6494 C   0  0  0  0  0  0  0  0  0  0  0  0
  -33.0986  -30.0596   25.0975 C   0  0  0  0  0  0  0  0  0  0  0  0
  -31.3867  -20.0087   22.7398 C   0  0  0  0  0  0  0  0  0  0  0  0
  -26.3238  -20.6104   22.2414 C   0  0  0  0  0  0  0  0  0  0  0  0
  -31.9336  -19.9590   24.1681 C   0  0  0  0  0  0  0  0  0  0  0  0
  -31.1571  -16.8878   22.6915 C   0  0  0  0  0  0  0  0  0  0  0  0
  -31.3593  -15.4134   23.0062 C   0  0  0  0  0  0  0  0  0  0  0  0
  -31.3542  -21.0390   25.0744 C   0  0  0  0  0  0  0  0  0  1  0  0
  -29.6474  -29.0043   21.6609 C   0  0  1  0  0  0  0  0  0  0  0  0
  -32.5882  -31.0680   22.8701 C   0  0  2  0  0  0  0  0  0  0  0  0
  -25.6024  -21.0214   23.5554 C   0  0  0  0  0  0  0  0  0  0  0  0
  -28.9969  -29.2823   20.2764 C   0  0  0  0  0  0  0  0  0  0  0  0
  -25.8947  -11.6663   20.3291 N   0  0  0  0  0  0  0  0  0  0  0  0
  -27.9287  -18.7346   22.6076 N   0  0  0  0  0  0  0  0  0  0  0  0
  -26.2093  -12.9647   20.1831 N   0  0  0  0  0  0  0  0  0  0  0  0
  -28.6343  -27.5793   23.4122 N   0  0  0  0  0  0  0  0  0  0  0  0
  -30.0188  -13.2587   20.2825 N   0  0  0  0  0  0  0  0  0  0  0  0
  -25.3260  -15.1547   20.3692 N   0  0  0  0  0  0  0  0  0  0  0  0
  -21.8440  -12.5245   21.5327 N   0  0  0  0  0  0  0  0  0  0  0  0
  -29.7712  -17.2836   22.9416 N   0  0  0  0  0  0  0  0  0  0  0  0
  -25.2979  -27.0929   23.4461 N   0  0  0  0  0  0  0  0  0  0  0  0
  -30.5443  -30.0584   22.1222 N   0  0  0  0  0  0  0  0  0  0  0  0
  -30.5224  -14.5611   22.1914 N   0  0  0  0  0  0  0  0  0  0  0  0
  -33.6280  -30.7330   23.8837 N   0  3  0  0  0  0  0  0  0  0  0  0
  -22.5170  -14.6952   21.2266 O   0  0  0  0  0  0  0  0  0  0  0  0
  -26.8372  -25.3826   23.0885 O   0  0  0  0  0  0  0  0  0  0  0  0
  -27.8404  -29.7349   23.0128 O   0  0  0  0  0  0  0  0  0  0  0  0
  -32.4255  -28.7187   22.3305 O   0  0  0  0  0  0  0  0  0  0  0  0
  -32.0597  -14.3371   20.5052 O   0  0  0  0  0  0  0  0  0  0  0  0
  -21.8492   -6.9577   21.7474 O   0  0  0  0  0  0  0  0  0  0  0  0
  -31.6575  -22.3167   24.5162 O   0  0  0  0  0  0  0  0  0  1  0  0
  -18.7648   -6.7357   26.3126 F   0  0  0  0  0  0  0  0  0  0  0  0
  -22.3531   -5.0764   23.7094 F   0  0  0  0  0  0  0  0  0  0  0  0
  1  2  1  0  0  0  0
  1  5  2  0  0  0  0
  2  6  2  0  0  0  0
  3  8  2  0  0  0  0
  3 16  1  0  0  0  0
  4  9  1  0  0  0  0
  4 16  2  0  0  0  0
  5 18  1  0  0  0  0
  6 20  1  0  0  0  0
  7 10  2  0  0  0  0
  7 19  1  0  0  0  0
  8 23  1  0  0  0  0
  9 23  2  0  0  0  0
 10 24  1  0  0  0  0
 11 12  2  0  0  0  0
 11 25  1  0  0  0  0
 12 26  1  0  0  0  0
 13 21  1  0  0  0  0
 13 24  2  0  0  0  0
 14 22  1  0  0  0  0
 14 29  2  0  0  0  0
 15 26  2  0  0  0  0
 15 27  1  0  0  0  0
 16 28  1  0  0  0  0
 17 28  1  0  0  0  0
 17 30  2  0  0  0  0
 17 32  1  0  0  0  0
 18 20  2  0  0  0  0
 18 37  1  0  0  0  0
 19 21  2  0  0  0  0
 19 38  1  0  0  0  0
 20 46  1  0  0  0  0
 21 39  1  0  0  0  0
 22 31  2  0  0  0  0
 22 57  1  0  0  0  0
 23 84  1  0  0  0  0
 24 85  1  0  0  0  0
 25 27  2  0  0  0  0
 25 84  1  0  0  0  0
 26 86  1  0  0  0  0
 27 87  1  0  0  0  0
 28 67  2  0  0  0  0
 29 58  1  0  0  0  0
 29 68  1  0  0  0  0
 30 69  1  0  0  0  0
 30 72  1  0  0  0  0
 31 68  1  0  0  0  0
 31 74  1  0  0  0  0
 32 73  1  0  0  0  0
 32 79  2  0  0  0  0
 33 47  1  0  0  0  0
 33 75  1  0  0  0  0
 33 80  2  0  0  0  0
 34 63  1  0  0  0  0
 34 70  1  0  0  0  0
 34 81  2  0  0  0  0
 35 64  1  0  0  0  0
 35 76  1  0  0  0  0
 35 82  2  0  0  0  0
 36 71  1  0  0  0  0
 36 77  1  0  0  0  0
 36 83  2  0  0  0  0
 37 40  1  0  0  0  0
 38 47  1  0  0  0  0
 39 70  1  0  0  0  0
 40 42  1  0  0  0  0
 41 43  1  0  0  0  0
 41 44  1  0  0  0  0
 42 46  1  0  0  0  0
 43 48  1  0  0  0  0
 44 71  1  0  0  0  0
 45 48  1  0  0  0  0
 45 71  1  0  0  0  0
 46 75  1  0  0  0  0
 47 70  1  0  0  0  0
 48 69  1  0  0  0  0
 49 64  1  0  0  0  0
 50 65  1  0  0  0  0
 51 65  1  0  0  0  0
 52 66  1  0  0  0  0
 53 66  1  0  0  0  0
 54 66  1  0  0  0  0
 55 68  1  0  0  0  0
 56 78  1  0  0  0  0
 57 59  1  0  0  0  0
 58 65  1  0  0  0  0
 59 62  1  0  0  0  0
 60 61  1  0  0  0  0
 60 74  1  0  0  0  0
 61 77  1  0  0  0  0
 62 85  1  0  0  0  0
 63 66  1  0  0  0  0
 63 76  1  0  0  0  0
 64 78  1  0  0  0  0
 67 69  1  0  0  0  0
M  CHG  1  78   1
M  ISO  4  36 100  62 101  77 100  85 101
M  END
> <Batch ID>
0094

> <Smiles>
CNC(C)C(=O)NC(C(=O)N1Cc2cc([101O:1][101CH2:1]CCc3cc(CC(C)C)n(C)c3NCC[100NH:0][100C:0](=O)N3CCCC(n4nc(-c5ccc(Oc6ccc(F)cc6F)cc5)c(C(N)=O)c4N)C3)ccc2CC1C(=O)NC1CCCc2ccccc21)C(C)(C)C

> <Shape>
0.225

> <Color>
0.185

> <Negative vol penalty>
0.000

$$$$

  -OEChem-04052319193D

 82 90  0     1  0  0  0  0  0999 V2000
  -28.9274  -18.5461   18.6363 C   0  0  0  0  0  0  0  0  0  0  0  0
  -29.3207  -17.5016   19.4669 C   0  0  0  0  0  0  0  0  0  0  0  0
  -23.1537   -9.8652   19.9616 C   0  0  0  0  0  0  0  0  0  0  0  0
  -23.8223   -9.9651   22.2811 C   0  0  0  0  0  0  0  0  0  0  0  0
  -28.6536  -19.8011   19.1784 C   0  0  0  0  0  0  0  0  0  0  0  0
  -29.4415  -17.7120   20.8401 C   0  0  0  0  0  0  0  0  0  0  0  0
  -28.2214  -13.6971   25.3008 C   0  0  0  0  0  0  0  0  0  0  0  0
  -22.4401   -8.6945   20.2177 C   0  0  0  0  0  0  0  0  0  0  0  0
  -23.1086   -8.7943   22.5373 C   0  0  0  0  0  0  0  0  0  0  0  0
  -29.0384  -12.8563   26.0553 C   0  0  0  0  0  0  0  0  0  0  0  0
  -23.5335   -5.4698   22.0922 C   0  0  0  0  0  0  0  0  0  0  0  0
  -24.1547   -4.4879   22.8638 C   0  0  0  0  0  0  0  0  0  0  0  0
  -29.1080  -14.5094   27.8109 C   0  0  0  0  0  0  0  0  0  0  0  0
  -33.3293  -13.8184   23.7593 C   0  0  0  0  0  0  0  0  0  0  0  0
  -22.3826   -4.6511   24.4980 C   0  0  0  0  0  0  0  0  0  0  0  0
  -31.9404  -14.4569   25.4125 C   0  0  0  0  0  0  0  0  0  0  0  0
  -23.8449  -10.5005   20.9933 C   0  0  0  0  0  0  0  0  0  0  0  0
  -24.1055  -13.0316   20.8102 C   0  0  0  0  0  0  0  0  0  0  0  0
  -28.7618  -20.0244   20.5601 C   0  0  0  0  0  0  0  0  0  0  0  0
  -27.8498  -14.9570   25.7919 C   0  0  0  0  0  0  0  0  0  0  0  0
  -29.1702  -18.9715   21.4010 C   0  0  0  0  0  0  0  0  0  0  0  0
  -28.2841  -15.3632   27.0617 C   0  0  0  0  0  0  0  0  0  0  0  0
  -32.1653  -14.5686   24.0582 C   0  0  0  0  0  0  0  0  0  0  0  0
  -22.4175   -8.1590   21.5055 C   0  0  0  0  0  0  0  0  0  0  0  0
  -29.4842  -13.2636   27.3093 C   0  0  0  0  0  0  0  0  0  0  0  0
  -22.3369   -6.0425   22.5234 C   0  0  0  0  0  0  0  0  0  0  0  0
  -23.5793   -4.0785   24.0667 C   0  0  0  0  0  0  0  0  0  0  0  0
  -21.7615   -5.6331   23.7263 C   0  0  0  0  0  0  0  0  0  0  0  0
  -24.5828  -11.7097   20.7293 C   0  0  0  0  0  0  0  0  0  0  0  0
  -33.7802  -13.2708   24.9402 C   0  0  0  0  0  0  0  0  0  0  0  0
  -25.1851  -13.8080   20.4664 C   0  0  0  0  0  0  0  0  0  0  0  0
  -22.8028  -13.5145   21.1644 C   0  0  0  0  0  0  0  0  0  0  0  0
  -28.3103  -17.9572   24.8484 C   0  0  0  0  0  0  0  0  0  0  0  0
  -26.3062  -18.6274   27.3094 C   0  0  0  0  0  0  0  0  0  0  0  0
  -24.9681  -17.6698   30.2993 C   0  0  0  0  0  0  0  0  0  0  0  0
  -30.9415  -13.9727   21.0590 C   0  0  0  0  0  0  0  0  0  0  0  0
  -28.5012  -21.4106   21.0941 C   0  0  0  0  0  0  0  0  0  0  0  0
  -26.9460  -15.8411   24.9770 C   0  0  0  0  0  0  0  0  0  0  0  0
  -27.8969  -16.6976   27.6429 C   0  0  0  0  0  0  0  0  0  0  0  0
  -28.2907  -21.4516   22.6054 C   0  0  0  0  0  0  0  0  0  0  0  0
  -29.3949  -13.0242   17.9955 C   0  0  0  0  0  0  0  0  0  0  0  0
  -29.3600  -20.6277   23.3159 C   0  0  0  0  0  0  0  0  0  0  0  0
  -27.9519  -12.7114   18.3957 C   0  0  0  0  0  0  0  0  0  0  0  0
  -30.3856  -12.5961   19.0759 C   0  0  0  0  0  0  0  0  0  0  0  0
  -28.6602  -12.8168   20.8218 C   0  0  0  0  0  0  0  0  0  0  0  0
  -29.2887  -19.1538   22.8986 C   0  0  1  0  0  0  0  0  0  0  0  0
  -27.0508  -17.3149   25.3569 C   0  0  1  0  0  0  0  0  0  0  0  0
  -27.6201  -13.2812   19.7879 C   0  0  2  0  0  0  0  0  0  0  0  0
  -34.9502  -12.4062   25.1984 C   0  0  0  0  0  0  0  0  0  0  0  0
  -23.3870  -18.4432   32.0879 C   0  0  0  0  0  0  0  0  0  0  0  0
  -30.7721  -10.1245   27.6815 C   0  0  0  0  0  0  0  0  0  0  0  0
  -28.4296  -20.5561   28.3492 C   0  0  0  0  0  0  0  0  0  0  0  0
  -27.2442  -20.5625   30.5544 C   0  0  0  0  0  0  0  0  0  0  0  0
  -26.0818  -21.4021   28.5132 C   0  0  0  0  0  0  0  0  0  0  0  0
  -23.1721  -15.3562   29.8742 C   0  0  0  0  0  0  0  0  0  0  0  0
  -31.3448  -15.3300   23.0972 C   0  0  0  0  0  0  0  0  0  0  0  0
  -32.6001  -11.8600   27.7078 C   0  0  0  0  0  0  0  0  0  0  0  0
  -33.0434  -13.2966   27.3958 C   0  0  0  0  0  0  0  0  0  0  0  0
  -26.4797  -18.9197   28.7803 C   0  0  1  0  0  0  0  0  0  0  0  0
  -23.5354  -17.6472   30.8007 C   0  0  2  0  0  0  0  0  0  0  0  0
  -31.1436  -11.5601   27.3326 C   0  0  2  0  0  0  0  0  0  1  0  0
  -27.0679  -20.3357   29.0378 C   0  0  0  0  0  0  0  0  0  0  0  0
  -25.8656  -11.6461   20.3628 N   0  0  0  0  0  0  0  0  0  0  0  0
  -32.9280  -13.6655   25.9383 N   0  0  0  0  0  0  0  0  0  0  0  0
  -26.2036  -12.9378   20.2102 N   0  0  0  0  0  0  0  0  0  0  0  0
  -27.0168  -17.5290   26.8051 N   0  0  0  0  0  0  0  0  0  0  0  0
  -30.0152  -13.1715   20.3711 N   0  0  0  0  0  0  0  0  0  0  0  0
  -25.3530  -15.1434   20.3613 N   0  0  0  0  0  0  0  0  0  0  0  0
  -21.8098  -12.5806   21.4900 N   0  0  0  0  0  0  0  0  0  0  0  0
  -28.1976  -18.4885   23.5778 N   0  0  0  0  0  0  0  0  0  0  0  0
  -25.1778  -18.6920   29.3981 N   0  0  0  0  0  0  0  0  0  0  0  0
  -30.5078  -14.4836   22.2762 N   0  0  0  0  0  0  0  0  0  0  0  0
  -23.1001  -16.2460   31.0617 N   0  3  0  0  0  0  0  0  0  0  0  0
  -22.5229  -14.7372   21.1754 O   0  0  0  0  0  0  0  0  0  0  0  0
  -29.3100  -17.9712   25.5570 O   0  0  0  0  0  0  0  0  0  0  0  0
  -25.5618  -19.3428   26.6344 O   0  0  0  0  0  0  0  0  0  0  0  0
  -25.8174  -16.8637   30.6729 O   0  0  0  0  0  0  0  0  0  0  0  0
  -32.0693  -14.2190   20.6183 O   0  0  0  0  0  0  0  0  0  0  0  0
  -21.7210   -7.0167   21.7558 O   0  0  0  0  0  0  0  0  0  0  0  0
  -30.2824  -12.4452   28.0476 O   0  0  0  0  0  0  0  0  0  1  0  0
  -24.1751   -3.1344   24.8069 F   0  0  0  0  0  0  0  0  0  0  0  0
  -20.6114   -6.1788   24.1452 F   0  0  0  0  0  0  0  0  0  0  0  0
  1  2  1  0  0  0  0
  1  5  2  0  0  0  0
  2  6  2  0  0  0  0
  3  8  2  0  0  0  0
  3 17  1  0  0  0  0
  4  9  1  0  0  0  0
  4 17  2  0  0  0  0
  5 19  1  0  0  0  0
  6 21  1  0  0  0  0
  7 10  2  0  0  0  0
  7 20  1  0  0  0  0
  8 24  1  0  0  0  0
  9 24  2  0  0  0  0
 10 25  1  0  0  0  0
 11 12  2  0  0  0  0
 11 26  1  0  0  0  0
 12 27  1  0  0  0  0
 13 22  1  0  0  0  0
 13 25  2  0  0  0  0
 14 23  1  0  0  0  0
 14 30  2  0  0  0  0
 15 27  2  0  0  0  0
 15 28  1  0  0  0  0
 16 23  2  0  0  0  0
 16 64  1  0  0  0  0
 17 29  1  0  0  0  0
 18 29  1  0  0  0  0
 18 31  2  0  0  0  0
 18 32  1  0  0  0  0
 19 21  2  0  0  0  0
 19 37  1  0  0  0  0
 20 22  2  0  0  0  0
 20 38  1  0  0  0  0
 21 46  1  0  0  0  0
 22 39  1  0  0  0  0
 23 56  1  0  0  0  0
 24 79  1  0  0  0  0
 25 80  1  0  0  0  0
 26 28  2  0  0  0  0
 26 79  1  0  0  0  0
 27 81  1  0  0  0  0
 28 82  1  0  0  0  0
 29 63  2  0  0  0  0
 30 49  1  0  0  0  0
 30 64  1  0  0  0  0
 31 65  1  0  0  0  0
 31 68  1  0  0  0  0
 32 69  1  0  0  0  0
 32 74  2  0  0  0  0
 33 47  1  0  0  0  0
 33 70  1  0  0  0  0
 33 75  2  0  0  0  0
 34 59  1  0  0  0  0
 34 66  1  0  0  0  0
 34 76  2  0  0  0  0
 35 60  1  0  0  0  0
 35 71  1  0  0  0  0
 35 77  2  0  0  0  0
 36 67  1  0  0  0  0
 36 72  1  0  0  0  0
 36 78  2  0  0  0  0
 37 40  1  0  0  0  0
 38 47  1  0  0  0  0
 39 66  1  0  0  0  0
 40 42  1  0  0  0  0
 41 43  1  0  0  0  0
 41 44  1  0  0  0  0
 42 46  1  0  0  0  0
 43 48  1  0  0  0  0
 44 67  1  0  0  0  0
 45 48  1  0  0  0  0
 45 67  1  0  0  0  0
 46 70  1  0  0  0  0
 47 66  1  0  0  0  0
 48 65  1  0  0  0  0
 50 60  1  0  0  0  0
 51 61  1  0  0  0  0
 52 62  1  0  0  0  0
 53 62  1  0  0  0  0
 54 62  1  0  0  0  0
 55 73  1  0  0  0  0
 56 72  1  0  0  0  0
 57 58  1  0  0  0  0
 57 61  1  0  0  0  0
 58 64  1  0  0  0  0
 59 62  1  0  0  0  0
 59 71  1  0  0  0  0
 60 73  1  0  0  0  0
 61 80  1  0  0  0  0
 63 65  1  0  0  0  0
M  CHG  1  73   1
M  ISO  4  36 100  61 101  72 100  80 101
M  END
> <Batch ID>
0094

> <Smiles>
CNC(C)C(=O)NC(C(=O)N1Cc2cc([101O:1][101CH:1](C)CCn3cc(C[100NH:0][100C:0](=O)N4CCCC(n5nc(-c6ccc(Oc7ccc(F)cc7F)cc6)c(C(N)=O)c5N)C4)cc3C)ccc2CC1C(=O)NC1CCCc2ccccc21)C(C)(C)C

> <Shape>
0.205

> <Color>
0.196

> <Negative vol penalty>
0.000

$$$$

  -OEChem-04052319193D

 88 96  0     1  0  0  0  0  0999 V2000
  -26.9547  -10.3870   22.6660 C   0  0  0  0  0  0  0  0  0  0  0  0
  -27.7658  -11.4940   22.4378 C   0  0  0  0  0  0  0  0  0  0  0  0
  -23.0219  -29.4449   21.8461 C   0  0  0  0  0  0  0  0  0  0  0  0
  -23.7456  -27.1805   22.2772 C   0  0  0  0  0  0  0  0  0  0  0  0
  -25.6926  -10.3160   22.0778 C   0  0  0  0  0  0  0  0  0  0  0  0
  -27.3156  -12.5302   21.6204 C   0  0  0  0  0  0  0  0  0  0  0  0
  -28.4885  -18.5059   22.2692 C   0  0  0  0  0  0  0  0  0  0  0  0
  -21.9385  -29.2623   22.7054 C   0  0  0  0  0  0  0  0  0  0  0  0
  -22.6622  -26.9979   23.1366 C   0  0  0  0  0  0  0  0  0  0  0  0
  -29.4141  -19.3517   21.6596 C   0  0  0  0  0  0  0  0  0  0  0  0
  -18.8962  -27.7934   22.5999 C   0  0  0  0  0  0  0  0  0  0  0  0
  -17.6475  -28.2443   22.1721 C   0  0  0  0  0  0  0  0  0  0  0  0
  -27.7319  -20.0397   20.0735 C   0  0  0  0  0  0  0  0  0  0  0  0
  -31.2238  -26.2750   20.1209 C   0  0  0  0  0  0  0  0  0  0  0  0
  -17.5295  -29.7252   24.0774 C   0  0  0  0  0  0  0  0  0  0  0  0
  -23.9255  -28.4040   21.6319 C   0  0  0  0  0  0  0  0  0  0  0  0
  -26.3267  -29.0655   21.0806 C   0  0  0  0  0  0  0  0  0  0  0  0
  -25.2228  -11.3562   21.2605 C   0  0  0  0  0  0  0  0  0  0  0  0
  -27.1784  -18.4124   21.7779 C   0  0  0  0  0  0  0  0  0  0  0  0
  -26.0466  -12.4724   21.0197 C   0  0  0  0  0  0  0  0  0  0  0  0
  -26.7908  -19.1939   20.6802 C   0  0  0  0  0  0  0  0  0  0  0  0
  -31.0689  -25.6332   18.8922 C   0  0  0  0  0  0  0  0  0  0  0  0
  -32.1604  -27.2993   20.2596 C   0  0  0  0  0  0  0  0  0  0  0  0
  -32.7875  -27.0398   17.9409 C   0  0  0  0  0  0  0  0  0  0  0  0
  -31.8508  -26.0155   17.8022 C   0  0  0  0  0  0  0  0  0  0  0  0
  -32.9423  -27.6817   19.1696 C   0  0  0  0  0  0  0  0  0  0  0  0
  -21.7587  -28.0388   23.3507 C   0  0  0  0  0  0  0  0  0  0  0  0
  -29.0367  -20.1166   20.5598 C   0  0  0  0  0  0  0  0  0  0  0  0
  -19.4616  -28.3084   23.7665 C   0  0  0  0  0  0  0  0  0  0  0  0
  -16.9641  -29.2102   22.9108 C   0  0  0  0  0  0  0  0  0  0  0  0
  -18.7782  -29.2743   24.5052 C   0  0  0  0  0  0  0  0  0  0  0  0
  -25.0445  -28.5918   20.7439 C   0  0  0  0  0  0  0  0  0  0  0  0
  -27.0176  -29.0594   19.8935 C   0  0  0  0  0  0  0  0  0  0  0  0
  -26.8468  -29.4744   22.3526 C   0  0  0  0  0  0  0  0  0  0  0  0
  -25.4076  -16.0801   20.5415 C   0  0  0  0  0  0  0  0  0  0  0  0
  -23.0667  -18.3225   20.6626 C   0  0  0  0  0  0  0  0  0  0  0  0
  -22.2226  -21.6283   20.7394 C   0  0  0  0  0  0  0  0  0  0  0  0
  -28.4471  -26.5708   15.1072 C   0  0  0  0  0  0  0  0  0  0  0  0
  -23.8705  -11.2129   20.6085 C   0  0  0  0  0  0  0  0  0  0  0  0
  -26.1844  -17.5153   22.4632 C   0  0  0  0  0  0  0  0  0  0  0  0
  -25.3909  -19.1451   20.1268 C   0  0  0  0  0  0  0  0  0  0  0  0
  -23.3178  -12.5248   20.0575 C   0  0  0  0  0  0  0  0  0  0  0  0
  -25.3989  -28.4103   15.1454 C   0  0  0  0  0  0  0  0  0  0  0  0
  -24.3909  -13.2656   19.2660 C   0  0  0  0  0  0  0  0  0  0  0  0
  -25.1379  -28.6549   16.6327 C   0  0  0  0  0  0  0  0  0  0  0  0
  -26.0233  -27.0384   14.9001 C   0  0  0  0  0  0  0  0  0  0  0  0
  -26.9816  -27.0086   17.1705 C   0  0  0  0  0  0  0  0  0  0  0  0
  -25.5837  -13.6279   20.1591 C   0  0  1  0  0  0  0  0  0  0  0  0
  -25.0212  -17.1136   21.5616 C   0  0  1  0  0  0  0  0  0  0  0  0
  -26.4039  -28.4017   17.4732 C   0  0  2  0  0  0  0  0  0  0  0  0
  -33.6261  -27.4499   16.7714 C   0  0  0  0  0  0  0  0  0  0  0  0
  -33.2930  -30.1597   19.3214 C   0  0  0  0  0  0  0  0  0  0  0  0
  -32.7658  -26.9988   22.6880 C   0  0  0  0  0  0  0  0  0  0  0  0
  -31.0166  -28.6886   22.0247 C   0  0  0  0  0  0  0  0  0  0  0  0
  -20.2292  -23.1515   20.7981 C   0  0  0  0  0  0  0  0  0  0  0  0
  -22.5739  -17.7877   17.6994 C   0  0  0  0  0  0  0  0  0  0  0  0
  -21.2901  -19.9347   17.5968 C   0  0  0  0  0  0  0  0  0  0  0  0
  -20.4998  -18.0799   19.0658 C   0  0  0  0  0  0  0  0  0  0  0  0
  -23.0409  -22.7896   23.3357 C   0  0  0  0  0  0  0  0  0  0  0  0
  -30.0497  -24.5288   18.7691 C   0  0  0  0  0  0  0  0  0  0  0  0
  -33.9452  -28.7814   19.3205 C   0  0  0  0  0  0  0  0  0  0  0  0
  -31.6830  -25.3251   16.4858 C   0  0  0  0  0  0  0  0  0  0  0  0
  -30.4969  -23.2054   19.3938 C   0  0  0  0  0  0  0  0  0  0  0  0
  -30.8618  -26.1311   15.4750 C   0  0  0  0  0  0  0  0  0  0  0  0
  -29.4274  -22.1207   19.3403 C   0  0  0  0  0  0  0  0  0  1  0  0
  -32.3059  -27.9708   21.5862 C   0  0  0  0  0  0  0  0  0  0  0  0
  -22.5595  -19.3902   19.7237 C   0  0  1  0  0  0  0  0  0  0  0  0
  -21.2628  -22.4025   21.6248 C   0  0  2  0  0  0  0  0  0  0  0  0
  -21.7578  -18.7978   18.5304 C   0  0  0  0  0  0  0  0  0  0  0  0
  -24.9252  -28.3058   19.4447 N   0  0  0  0  0  0  0  0  0  0  0  0
  -26.1413  -28.6007   18.9545 N   0  0  0  0  0  0  0  0  0  0  0  0
  -24.4571  -18.2481   20.8274 N   0  0  0  0  0  0  0  0  0  0  0  0
  -27.2203  -26.8625   15.7260 N   0  0  0  0  0  0  0  0  0  0  0  0
  -28.2832  -29.4019   19.5718 N   0  0  0  0  0  0  0  0  0  0  0  0
  -26.0018  -29.4178   23.4693 N   0  0  0  0  0  0  0  0  0  0  0  0
  -25.2694  -14.7772   20.9805 N   0  0  0  0  0  0  0  0  0  0  0  0
  -21.8027  -20.3295   20.5443 N   0  0  0  0  0  0  0  0  0  0  0  0
  -29.5327  -26.4259   15.9623 N   0  0  0  0  0  0  0  0  0  0  0  0
  -22.0070  -23.3915   22.4549 N   0  3  0  0  0  0  0  0  0  0  0  0
  -28.0209  -29.8935   22.4917 O   0  0  0  0  0  0  0  0  0  0  0  0
  -25.8006  -16.4383   19.4375 O   0  0  0  0  0  0  0  0  0  0  0  0
  -22.2587  -17.5864   21.2345 O   0  0  0  0  0  0  0  0  0  0  0  0
  -23.2409  -22.1270   20.2651 O   0  0  0  0  0  0  0  0  0  0  0  0
  -28.5672  -26.4537   13.8829 O   0  0  0  0  0  0  0  0  0  0  0  0
  -20.7017  -27.8603   24.1894 O   0  0  0  0  0  0  0  0  0  0  0  0
  -29.9384  -20.9425   19.9625 O   0  0  0  0  0  0  0  0  0  1  0  0
  -15.7657  -29.6442   22.4990 F   0  0  0  0  0  0  0  0  0  0  0  0
  -19.3168  -29.7736   25.6261 F   0  0  0  0  0  0  0  0  0  0  0  0
  1  2  1  0  0  0  0
  1  5  2  0  0  0  0
  2  6  2  0  0  0  0
  3  8  2  0  0  0  0
  3 16  1  0  0  0  0
  4  9  1  0  0  0  0
  4 16  2  0  0  0  0
  5 18  1  0  0  0  0
  6 20  1  0  0  0  0
  7 10  2  0  0  0  0
  7 19  1  0  0  0  0
  8 27  1  0  0  0  0
  9 27  2  0  0  0  0
 10 28  1  0  0  0  0
 11 12  2  0  0  0  0
 11 29  1  0  0  0  0
 12 30  1  0  0  0  0
 13 21  1  0  0  0  0
 13 28  2  0  0  0  0
 14 22  1  0  0  0  0
 14 23  2  0  0  0  0
 15 30  2  0  0  0  0
 15 31  1  0  0  0  0
 16 32  1  0  0  0  0
 17 32  1  0  0  0  0
 17 33  2  0  0  0  0
 17 34  1  0  0  0  0
 18 20  2  0  0  0  0
 18 39  1  0  0  0  0
 19 21  2  0  0  0  0
 19 40  1  0  0  0  0
 20 48  1  0  0  0  0
 21 41  1  0  0  0  0
 22 25  2  0  0  0  0
 22 60  1  0  0  0  0
 23 26  1  0  0  0  0
 23 66  1  0  0  0  0
 24 25  1  0  0  0  0
 24 26  2  0  0  0  0
 24 51  1  0  0  0  0
 25 62  1  0  0  0  0
 26 61  1  0  0  0  0
 27 85  1  0  0  0  0
 28 86  1  0  0  0  0
 29 31  2  0  0  0  0
 29 85  1  0  0  0  0
 30 87  1  0  0  0  0
 31 88  1  0  0  0  0
 32 70  2  0  0  0  0
 33 71  1  0  0  0  0
 33 74  1  0  0  0  0
 34 75  1  0  0  0  0
 34 80  2  0  0  0  0
 35 49  1  0  0  0  0
 35 76  1  0  0  0  0
 35 81  2  0  0  0  0
 36 67  1  0  0  0  0
 36 72  1  0  0  0  0
 36 82  2  0  0  0  0
 37 68  1  0  0  0  0
 37 77  1  0  0  0  0
 37 83  2  0  0  0  0
 38 73  1  0  0  0  0
 38 78  1  0  0  0  0
 38 84  2  0  0  0  0
 39 42  1  0  0  0  0
 40 49  1  0  0  0  0
 41 72  1  0  0  0  0
 42 44  1  0  0  0  0
 43 45  1  0  0  0  0
 43 46  1  0  0  0  0
 44 48  1  0  0  0  0
 45 50  1  0  0  0  0
 46 73  1  0  0  0  0
 47 50  1  0  0  0  0
 47 73  1  0  0  0  0
 48 76  1  0  0  0  0
 49 72  1  0  0  0  0
 50 71  1  0  0  0  0
 52 61  1  0  0  0  0
 53 66  1  0  0  0  0
 54 66  1  0  0  0  0
 55 68  1  0  0  0  0
 56 69  1  0  0  0  0
 57 69  1  0  0  0  0
 58 69  1  0  0  0  0
 59 79  1  0  0  0  0
 60 63  1  0  0  0  0
 62 64  1  0  0  0  0
 63 65  1  0  0  0  0
 64 78  1  0  0  0  0
 65 86  1  0  0  0  0
 67 69  1  0  0  0  0
 67 77  1  0  0  0  0
 68 79  1  0  0  0  0
 70 71  1  0  0  0  0
M  CHG  1  79   1
M  ISO  4  38 100  65 101  78 100  86 101
M  END
> <Batch ID>
0094

> <Smiles>
CCc1c(C(C)C)cc(CC[101CH2:1][101O:1]c2ccc3c(c2)CN(C(=O)C(NC(=O)C(C)NC)C(C)(C)C)C(C(=O)NC2CCCc4ccccc42)C3)c(CC[100NH:0][100C:0](=O)N2CCCC(n3nc(-c4ccc(Oc5ccc(F)cc5F)cc4)c(C(N)=O)c3N)C2)c1C

> <Shape>
0.214

> <Color>
0.063

> <Negative vol penalty>
0.000

$$$$

  -OEChem-04052319193D

 78 85  0     1  0  0  0  0  0999 V2000
  -26.1214  -19.1710   25.4874 C   0  0  0  0  0  0  0  0  0  0  0  0
  -26.5537  -20.4034   25.0107 C   0  0  0  0  0  0  0  0  0  0  0  0
  -25.3335  -16.0517   21.5973 C   0  0  0  0  0  0  0  0  0  0  0  0
  -25.1326  -15.9866   19.1905 C   0  0  0  0  0  0  0  0  0  0  0  0
  -24.7838  -18.8056   25.3513 C   0  0  0  0  0  0  0  0  0  0  0  0
  -25.6464  -21.2757   24.4085 C   0  0  0  0  0  0  0  0  0  0  0  0
  -27.2853  -25.7743   23.2773 C   0  0  0  0  0  0  0  0  0  0  0  0
  -24.1261  -15.3636   21.7167 C   0  0  0  0  0  0  0  0  0  0  0  0
  -23.9253  -15.2984   19.3099 C   0  0  0  0  0  0  0  0  0  0  0  0
  -28.1759  -26.0111   22.2311 C   0  0  0  0  0  0  0  0  0  0  0  0
  -20.8266  -16.0714   21.5246 C   0  0  0  0  0  0  0  0  0  0  0  0
  -19.9071  -16.5357   22.4650 C   0  0  0  0  0  0  0  0  0  0  0  0
  -26.3587  -26.8429   20.8803 C   0  0  0  0  0  0  0  0  0  0  0  0
  -19.9954  -14.4062   23.6028 C   0  0  0  0  0  0  0  0  0  0  0  0
  -25.8367  -16.3633   20.3342 C   0  0  0  0  0  0  0  0  0  0  0  0
  -28.3737  -16.5190   20.1174 C   0  0  0  0  0  0  0  0  0  0  0  0
  -23.8628  -19.6693   24.7358 C   0  0  0  0  0  0  0  0  0  0  0  0
  -25.9206  -26.0605   23.1287 C   0  0  0  0  0  0  0  0  0  0  0  0
  -24.2874  -20.9351   24.2833 C   0  0  0  0  0  0  0  0  0  0  0  0
  -25.4532  -26.6113   21.9270 C   0  0  0  0  0  0  0  0  0  0  0  0
  -23.4220  -14.9869   20.5730 C   0  0  0  0  0  0  0  0  0  0  0  0
  -27.7123  -26.5427   21.0314 C   0  0  0  0  0  0  0  0  0  0  0  0
  -21.3305  -14.7744   21.6231 C   0  0  0  0  0  0  0  0  0  0  0  0
  -19.4915  -15.7031   23.5041 C   0  0  0  0  0  0  0  0  0  0  0  0
  -20.9149  -13.9418   22.6623 C   0  0  0  0  0  0  0  0  0  0  0  0
  -27.0836  -17.0747   20.2102 C   0  0  0  0  0  0  0  0  0  0  0  0
  -29.2089  -17.6049   20.0175 C   0  0  0  0  0  0  0  0  0  0  0  0
  -28.7808  -15.1443   20.1211 C   0  0  0  0  0  0  0  0  0  0  0  0
  -23.2479  -24.3411   23.1963 C   0  0  0  0  0  0  0  0  0  0  0  0
  -30.4057  -22.4570   17.7148 C   0  0  0  0  0  0  0  0  0  0  0  0
  -21.8320  -27.2514   22.9782 C   0  0  0  0  0  0  0  0  0  0  0  0
  -22.0644  -30.5231   22.0355 C   0  0  0  0  0  0  0  0  0  0  0  0
  -22.4253  -19.2266   24.6217 C   0  0  0  0  0  0  0  0  0  0  0  0
  -24.9771  -25.8243   24.2761 C   0  0  0  0  0  0  0  0  0  0  0  0
  -24.0009  -26.9549   21.7240 C   0  0  0  0  0  0  0  0  0  0  0  0
  -21.6399  -20.0192   23.5818 C   0  0  0  0  0  0  0  0  0  0  0  0
  -28.3172  -22.5300   20.6914 C   0  0  0  0  0  0  0  0  0  0  0  0
  -21.8512  -21.5105   23.7965 C   0  0  0  0  0  0  0  0  0  0  0  0
  -27.8923  -21.0664   20.8026 C   0  0  0  0  0  0  0  0  0  0  0  0
  -28.4342  -22.9714   19.2348 C   0  0  0  0  0  0  0  0  0  0  0  0
  -28.9225  -20.6509   18.5269 C   0  0  0  0  0  0  0  0  0  0  0  0
  -23.3247  -21.8875   23.5973 C   0  0  1  0  0  0  0  0  0  0  0  0
  -23.5248  -25.6731   23.8341 C   0  0  1  0  0  0  0  0  0  0  0  0
  -28.8225  -20.1577   19.9800 C   0  0  2  0  0  0  0  0  0  0  0  0
  -31.2936  -24.2655   16.3053 C   0  0  0  0  0  0  0  0  0  0  0  0
  -20.7313  -32.6474   21.9476 C   0  0  0  0  0  0  0  0  0  0  0  0
  -32.9852  -26.1051   20.0570 C   0  0  0  0  0  0  0  0  0  0  0  0
  -31.0859  -28.2250   18.8507 C   0  0  0  0  0  0  0  0  0  0  0  0
  -20.2939  -26.1837   20.5690 C   0  0  0  0  0  0  0  0  0  0  0  0
  -19.7331  -28.5483   19.9670 C   0  0  0  0  0  0  0  0  0  0  0  0
  -18.9401  -27.5923   22.1303 C   0  0  0  0  0  0  0  0  0  0  0  0
  -23.9639  -31.9256   23.8198 C   0  0  0  0  0  0  0  0  0  0  0  0
  -31.6950  -24.3072   18.7950 C   0  0  0  0  0  0  0  0  0  0  0  0
  -29.9507  -26.4486   20.2336 C   0  0  0  0  0  0  0  0  0  1  0  0
  -30.7096  -23.9335   17.6757 C   0  0  2  0  0  0  0  0  0  0  0  0
  -21.3907  -28.1433   21.8430 C   0  0  1  0  0  0  0  0  0  0  0  0
  -21.7054  -31.8081   22.7597 C   0  0  2  0  0  0  0  0  0  0  0  0
  -32.0351  -25.8155   18.8860 C   0  0  1  0  0  0  0  0  0  0  0  0
  -30.7734  -26.7271   18.9652 C   0  0  2  0  0  0  0  0  0  0  0  0
  -20.1166  -27.6087   21.1302 C   0  0  0  0  0  0  0  0  0  0  0  0
  -27.0933  -18.4098   20.1728 N   0  0  0  0  0  0  0  0  0  0  0  0
  -28.3997  -18.7022   20.0554 N   0  0  0  0  0  0  0  0  0  0  0  0
  -23.1167  -26.6998   22.8732 N   0  0  0  0  0  0  0  0  0  0  0  0
  -29.3065  -22.0646   18.4790 N   0  0  0  0  0  0  0  0  0  0  0  0
  -30.5491  -17.7186   19.9019 N   0  0  0  0  0  0  0  0  0  0  0  0
  -27.7937  -14.1555   20.2310 N   0  0  0  0  0  0  0  0  0  0  0  0
  -23.5211  -23.2593   24.0114 N   0  0  0  0  0  0  0  0  0  0  0  0
  -21.2429  -29.4803   22.4079 N   0  0  0  0  0  0  0  0  0  0  0  0
  -22.9293  -32.6203   23.0112 N   0  3  0  0  0  0  0  0  0  0  0  0
  -29.9857  -14.8033   20.0462 O   0  0  0  0  0  0  0  0  0  0  0  0
  -22.8168  -24.2981   22.0500 O   0  0  0  0  0  0  0  0  0  0  0  0
  -31.1264  -21.6772   17.0866 O   0  0  0  0  0  0  0  0  0  0  0  0
  -21.0677  -27.0573   23.9269 O   0  0  0  0  0  0  0  0  0  0  0  0
  -22.9796  -30.4526   21.2181 O   0  0  0  0  0  0  0  0  0  0  0  0
  -22.2439  -14.3151   20.6891 O   0  0  0  0  0  0  0  0  0  0  0  0
  -28.5850  -26.7757   20.0017 O   0  0  0  0  0  0  0  0  0  1  0  0
  -18.6097  -16.1497   24.4081 F   0  0  0  0  0  0  0  0  0  0  0  0
  -21.3964  -12.6953   22.7629 F   0  0  0  0  0  0  0  0  0  0  0  0
  1  2  1  0  0  0  0
  1  5  2  0  0  0  0
  2  6  2  0  0  0  0
  3  8  2  0  0  0  0
  3 15  1  0  0  0  0
  4  9  1  0  0  0  0
  4 15  2  0  0  0  0
  5 17  1  0  0  0  0
  6 19  1  0  0  0  0
  7 10  2  0  0  0  0
  7 18  1  0  0  0  0
  8 21  1  0  0  0  0
  9 21  2  0  0  0  0
 10 22  1  0  0  0  0
 11 12  2  0  0  0  0
 11 23  1  0  0  0  0
 12 24  1  0  0  0  0
 13 20  1  0  0  0  0
 13 22  2  0  0  0  0
 14 24  2  0  0  0  0
 14 25  1  0  0  0  0
 15 26  1  0  0  0  0
 16 26  1  0  0  0  0
 16 27  2  0  0  0  0
 16 28  1  0  0  0  0
 17 19  2  0  0  0  0
 17 33  1  0  0  0  0
 18 20  2  0  0  0  0
 18 34  1  0  0  0  0
 19 42  1  0  0  0  0
 20 35  1  0  0  0  0
 21 75  1  0  0  0  0
 22 76  1  0  0  0  0
 23 25  2  0  0  0  0
 23 75  1  0  0  0  0
 24 77  1  0  0  0  0
 25 78  1  0  0  0  0
 26 61  2  0  0  0  0
 27 62  1  0  0  0  0
 27 65  1  0  0  0  0
 28 66  1  0  0  0  0
 28 70  2  0  0  0  0
 29 43  1  0  0  0  0
 29 67  1  0  0  0  0
 29 71  2  0  0  0  0
 30 55  1  0  0  0  0
 30 64  1  0  0  0  0
 30 72  2  0  0  0  0
 31 56  1  0  0  0  0
 31 63  1  0  0  0  0
 31 73  2  0  0  0  0
 32 57  1  0  0  0  0
 32 68  1  0  0  0  0
 32 74  2  0  0  0  0
 33 36  1  0  0  0  0
 34 43  1  0  0  0  0
 35 63  1  0  0  0  0
 36 38  1  0  0  0  0
 37 39  1  0  0  0  0
 37 40  1  0  0  0  0
 38 42  1  0  0  0  0
 39 44  1  0  0  0  0
 40 64  1  0  0  0  0
 41 44  1  0  0  0  0
 41 64  1  0  0  0  0
 42 67  1  0  0  0  0
 43 63  1  0  0  0  0
 44 62  1  0  0  0  0
 45 55  1  0  0  0  0
 46 57  1  0  0  0  0
 47 58  1  0  0  0  0
 48 59  1  0  0  0  0
 49 60  1  0  0  0  0
 50 60  1  0  0  0  0
 51 60  1  0  0  0  0
 52 69  1  0  0  0  0
 53 55  1  0  0  0  0
 53 58  1  0  0  0  0
 54 59  1  0  0  0  0
 54 76  1  0  0  0  0
 56 60  1  0  0  0  0
 56 68  1  0  0  0  0
 57 69  1  0  0  0  0
 58 59  1  0  0  0  0
 61 62  1  0  0  0  0
M  CHG  1  69   1
M  ISO  4  30 100  54 101  55 100  76 101
M  END
> <Batch ID>
0094

> <Smiles>
CNC(C)C(=O)NC(C(=O)N1Cc2cc([101O:1][101CH2:1]C(C)C(C)C[100CH:0](C)[100C:0](=O)N3CCCC(n4nc(-c5ccc(Oc6ccc(F)cc6F)cc5)c(C(N)=O)c4N)C3)ccc2CC1C(=O)NC1CCCc2ccccc21)C(C)(C)C

> <Shape>
0.207

> <Color>
0.073

> <Negative vol penalty>
0.000

$$$$

  -OEChem-04052319193D

 84 91  0     1  0  0  0  0  0999 V2000
  -31.1493  -32.8608   14.4254 C   0  0  0  0  0  0  0  0  0  0  0  0
  -30.9852  -31.5309   14.7992 C   0  0  0  0  0  0  0  0  0  0  0  0
  -24.2614  -10.5442   23.1305 C   0  0  0  0  0  0  0  0  0  0  0  0
  -24.4920  -12.6646   24.2653 C   0  0  0  0  0  0  0  0  0  0  0  0
  -30.9730  -33.8749   15.3658 C   0  0  0  0  0  0  0  0  0  0  0  0
  -30.6456  -31.2142   16.1140 C   0  0  0  0  0  0  0  0  0  0  0  0
  -27.0767  -26.6028   17.9860 C   0  0  0  0  0  0  0  0  0  0  0  0
  -23.9092   -9.9373   24.3359 C   0  0  0  0  0  0  0  0  0  0  0  0
  -24.1397  -12.0577   25.4708 C   0  0  0  0  0  0  0  0  0  0  0  0
  -27.3682  -25.3338   18.4842 C   0  0  0  0  0  0  0  0  0  0  0  0
  -21.3099  -11.0344   27.0089 C   0  0  0  0  0  0  0  0  0  0  0  0
  -20.3878  -11.6953   27.8203 C   0  0  0  0  0  0  0  0  0  0  0  0
  -27.1519  -26.1743   20.7350 C   0  0  0  0  0  0  0  0  0  0  0  0
  -22.0255  -11.8034   29.5933 C   0  0  0  0  0  0  0  0  0  0  0  0
  -24.5529  -11.9079   23.0952 C   0  0  0  0  0  0  0  0  0  0  0  0
  -24.0521  -13.1311   20.9133 C   0  0  0  0  0  0  0  0  0  0  0  0
  -30.6216  -33.5710   16.6905 C   0  0  0  0  0  0  0  0  0  0  0  0
  -26.8309  -27.6715   18.8601 C   0  0  0  0  0  0  0  0  0  0  0  0
  -30.4656  -32.2251   17.0734 C   0  0  0  0  0  0  0  0  0  0  0  0
  -26.8549  -27.4554   20.2453 C   0  0  0  0  0  0  0  0  0  0  0  0
  -23.8483  -10.6940   25.5061 C   0  0  0  0  0  0  0  0  0  0  0  0
  -27.4087  -25.1200   19.8589 C   0  0  0  0  0  0  0  0  0  0  0  0
  -22.5898  -10.7578   27.4896 C   0  0  0  0  0  0  0  0  0  0  0  0
  -20.7456  -12.0799   29.1125 C   0  0  0  0  0  0  0  0  0  0  0  0
  -22.9476  -11.1424   28.7818 C   0  0  0  0  0  0  0  0  0  0  0  0
  -24.9174  -12.5353   21.8503 C   0  0  0  0  0  0  0  0  0  0  0  0
  -24.8824  -13.5766   19.9140 C   0  0  0  0  0  0  0  0  0  0  0  0
  -22.6253  -13.2695   20.9435 C   0  0  0  0  0  0  0  0  0  0  0  0
  -28.2279  -30.4689   19.4315 C   0  0  0  0  0  0  0  0  0  0  0  0
  -25.6646  -30.9120   21.3694 C   0  0  0  0  0  0  0  0  0  0  0  0
  -23.1692  -29.5211   23.2363 C   0  0  0  0  0  0  0  0  0  0  0  0
  -30.8716  -14.8319   20.2169 C   0  0  0  0  0  0  0  0  0  0  0  0
  -30.4880  -34.6988   17.6830 C   0  0  0  0  0  0  0  0  0  0  0  0
  -26.4915  -29.0283   18.3065 C   0  0  0  0  0  0  0  0  0  0  0  0
  -26.5784  -28.5647   21.2258 C   0  0  0  0  0  0  0  0  0  0  0  0
  -29.7617  -34.2992   18.9648 C   0  0  0  0  0  0  0  0  0  0  0  0
  -29.0787  -12.6494   17.8244 C   0  0  0  0  0  0  0  0  0  0  0  0
  -30.3018  -32.9743   19.4936 C   0  0  0  0  0  0  0  0  0  0  0  0
  -27.7629  -12.3709   18.5491 C   0  0  0  0  0  0  0  0  0  0  0  0
  -30.2188  -12.9179   18.8019 C   0  0  0  0  0  0  0  0  0  0  0  0
  -28.6163  -13.7252   20.5031 C   0  0  0  0  0  0  0  0  0  0  0  0
  -30.0732  -31.8429   18.4841 C   0  0  1  0  0  0  0  0  0  0  0  0
  -26.7639  -30.1607   19.2918 C   0  0  1  0  0  0  0  0  0  0  0  0
  -27.4368  -13.4965   19.5461 C   0  0  2  0  0  0  0  0  0  0  0  0
  -21.2540  -30.1371   24.7364 C   0  0  0  0  0  0  0  0  0  0  0  0
  -25.2269  -19.6848   18.1651 C   0  0  0  0  0  0  0  0  0  0  0  0
  -24.2091  -18.0527   19.7693 C   0  0  0  0  0  0  0  0  0  0  0  0
  -26.1249  -17.5936   22.4395 C   0  0  0  0  0  0  0  0  0  0  0  0
  -27.6301  -31.5387   23.6175 C   0  0  0  0  0  0  0  0  0  0  0  0
  -25.7612  -31.2065   25.2499 C   0  0  0  0  0  0  0  0  0  0  0  0
  -25.6187  -33.0231   23.5464 C   0  0  0  0  0  0  0  0  0  0  0  0
  -31.4903  -17.0774   21.0258 C   0  0  0  0  0  0  0  0  0  0  0  0
  -21.1979  -28.2390   21.4393 C   0  0  0  0  0  0  0  0  0  0  0  0
  -26.9203  -22.0183   21.6856 C   0  0  0  0  0  0  0  0  0  0  0  0
  -25.9857  -21.4959   20.5838 C   0  0  0  0  0  0  0  0  0  0  0  0
  -28.3828  -17.1391   21.4638 C   0  0  0  0  0  0  0  0  0  0  0  0
  -27.0280  -19.1676   20.6533 C   0  0  0  0  0  0  0  0  0  0  0  0
  -29.1826  -16.7159   20.2324 C   0  0  0  0  0  0  0  0  0  0  0  0
  -27.1170  -23.5286   21.6020 C   0  0  0  0  0  0  0  0  0  1  0  0
  -25.3551  -30.6167   22.8172 C   0  0  1  0  0  0  0  0  0  0  0  0
  -21.6826  -29.8188   23.3124 C   0  0  2  0  0  0  0  0  0  0  0  0
  -24.6834  -19.4971   19.5872 C   0  0  0  0  0  0  0  0  0  0  0  0
  -26.9739  -17.7111   21.1666 C   0  0  2  0  0  0  0  0  0  0  0  0
  -25.6982  -19.9723   20.6753 C   0  0  2  0  0  0  0  0  0  0  0  0
  -26.0984  -31.5756   23.7895 C   0  0  0  0  0  0  0  0  0  0  0  0
  -26.1991  -12.5950   21.4794 N   0  0  0  0  0  0  0  0  0  0  0  0
  -26.1453  -13.2336   20.2981 N   0  0  0  0  0  0  0  0  0  0  0  0
  -26.2576  -29.8748   20.6357 N   0  0  0  0  0  0  0  0  0  0  0  0
  -29.8660  -13.9615   19.7649 N   0  0  0  0  0  0  0  0  0  0  0  0
  -24.6480  -14.2243   18.7529 N   0  0  0  0  0  0  0  0  0  0  0  0
  -21.9273  -12.7552   22.0447 N   0  0  0  0  0  0  0  0  0  0  0  0
  -28.6959  -31.4003   18.5244 N   0  0  0  0  0  0  0  0  0  0  0  0
  -23.9017  -30.6508   22.9391 N   0  0  0  0  0  0  0  0  0  0  0  0
  -30.4820  -16.1346   20.5628 N   0  0  0  0  0  0  0  0  0  0  0  0
  -20.8946  -28.6473   22.8352 N   0  3  0  0  0  0  0  0  0  0  0  0
  -21.9867  -13.8181   20.0135 O   0  0  0  0  0  0  0  0  0  0  0  0
  -28.8839  -29.9046   20.2992 O   0  0  0  0  0  0  0  0  0  0  0  0
  -25.3837  -32.0196   20.9047 O   0  0  0  0  0  0  0  0  0  0  0  0
  -23.6344  -28.3994   23.4255 O   0  0  0  0  0  0  0  0  0  0  0  0
  -32.0520  -14.4682   20.2970 O   0  0  0  0  0  0  0  0  0  0  0  0
  -23.5043  -10.1022   26.6825 O   0  0  0  0  0  0  0  0  0  0  0  0
  -27.6958  -23.8731   20.3516 O   0  0  0  0  0  0  0  0  0  1  0  0
  -19.8605  -12.7160   29.8910 F   0  0  0  0  0  0  0  0  0  0  0  0
  -24.1761  -10.8805   29.2488 F   0  0  0  0  0  0  0  0  0  0  0  0
  1  2  1  0  0  0  0
  1  5  2  0  0  0  0
  2  6  2  0  0  0  0
  3  8  2  0  0  0  0
  3 15  1  0  0  0  0
  4  9  1  0  0  0  0
  4 15  2  0  0  0  0
  5 17  1  0  0  0  0
  6 19  1  0  0  0  0
  7 10  2  0  0  0  0
  7 18  1  0  0  0  0
  8 21  1  0  0  0  0
  9 21  2  0  0  0  0
 10 22  1  0  0  0  0
 11 12  2  0  0  0  0
 11 23  1  0  0  0  0
 12 24  1  0  0  0  0
 13 20  1  0  0  0  0
 13 22  2  0  0  0  0
 14 24  2  0  0  0  0
 14 25  1  0  0  0  0
 15 26  1  0  0  0  0
 16 26  1  0  0  0  0
 16 27  2  0  0  0  0
 16 28  1  0  0  0  0
 17 19  2  0  0  0  0
 17 33  1  0  0  0  0
 18 20  2  0  0  0  0
 18 34  1  0  0  0  0
 19 42  1  0  0  0  0
 20 35  1  0  0  0  0
 21 81  1  0  0  0  0
 22 82  1  0  0  0  0
 23 25  2  0  0  0  0
 23 81  1  0  0  0  0
 24 83  1  0  0  0  0
 25 84  1  0  0  0  0
 26 66  2  0  0  0  0
 27 67  1  0  0  0  0
 27 70  1  0  0  0  0
 28 71  1  0  0  0  0
 28 76  2  0  0  0  0
 29 43  1  0  0  0  0
 29 72  1  0  0  0  0
 29 77  2  0  0  0  0
 30 60  1  0  0  0  0
 30 68  1  0  0  0  0
 30 78  2  0  0  0  0
 31 61  1  0  0  0  0
 31 73  1  0  0  0  0
 31 79  2  0  0  0  0
 32 69  1  0  0  0  0
 32 74  1  0  0  0  0
 32 80  2  0  0  0  0
 33 36  1  0  0  0  0
 34 43  1  0  0  0  0
 35 68  1  0  0  0  0
 36 38  1  0  0  0  0
 37 39  1  0  0  0  0
 37 40  1  0  0  0  0
 38 42  1  0  0  0  0
 39 44  1  0  0  0  0
 40 69  1  0  0  0  0
 41 44  1  0  0  0  0
 41 69  1  0  0  0  0
 42 72  1  0  0  0  0
 43 68  1  0  0  0  0
 44 67  1  0  0  0  0
 45 61  1  0  0  0  0
 46 62  1  0  0  0  0
 47 62  1  0  0  0  0
 48 63  1  0  0  0  0
 49 65  1  0  0  0  0
 50 65  1  0  0  0  0
 51 65  1  0  0  0  0
 52 74  1  0  0  0  0
 53 75  1  0  0  0  0
 54 55  1  0  0  0  0
 54 59  1  0  0  0  0
 55 64  1  0  0  0  0
 56 58  1  0  0  0  0
 56 63  1  0  0  0  0
 57 63  1  0  0  0  0
 57 64  1  0  0  0  0
 58 74  1  0  0  0  0
 59 82  1  0  0  0  0
 60 65  1  0  0  0  0
 60 73  1  0  0  0  0
 61 75  1  0  0  0  0
 62 64  1  0  0  0  0
 66 67  1  0  0  0  0
M  CHG  1  75   1
M  ISO  4  32 100  59 101  74 100  82 101
M  END
> <Batch ID>
0094

> <Smiles>
CNC(C)C(=O)NC(C(=O)N1Cc2cc([101O:1][101CH2:1]CCC(CC(C)CC[100N:0](C)[100C:0](=O)N3CCCC(n4nc(-c5ccc(Oc6ccc(F)cc6F)cc5)c(C(N)=O)c4N)C3)C(C)C)ccc2CC1C(=O)NC1CCCc2ccccc21)C(C)(C)C

> <Shape>
0.223

> <Color>
0.099

> <Negative vol penalty>
0.000

$$$$

  -OEChem-04052319193D

 88 96  0     1  0  0  0  0  0999 V2000
  -21.9912  -23.1107   10.1390 C   0  0  0  0  0  0  0  0  0  0  0  0
  -22.3122  -23.4861   11.4396 C   0  0  0  0  0  0  0  0  0  0  0  0
  -28.9775  -17.7572   19.4619 C   0  0  0  0  0  0  0  0  0  0  0  0
  -30.6300  -18.2143   21.1641 C   0  0  0  0  0  0  0  0  0  0  0  0
  -21.1223  -22.0431    9.9172 C   0  0  0  0  0  0  0  0  0  0  0  0
  -21.7637  -22.7947   12.5192 C   0  0  0  0  0  0  0  0  0  0  0  0
  -25.1911  -21.7409   16.0951 C   0  0  0  0  0  0  0  0  0  0  0  0
  -29.5113  -16.4806   19.2864 C   0  0  0  0  0  0  0  0  0  0  0  0
  -31.1639  -16.9377   20.9886 C   0  0  0  0  0  0  0  0  0  0  0  0
  -25.5552  -22.7776   16.9533 C   0  0  0  0  0  0  0  0  0  0  0  0
  -30.2126  -12.9718   18.6449 C   0  0  0  0  0  0  0  0  0  0  0  0
  -29.3212  -11.9026   18.5564 C   0  0  0  0  0  0  0  0  0  0  0  0
  -24.0707  -21.8961   18.6381 C   0  0  0  0  0  0  0  0  0  0  0  0
  -24.1177  -29.4603   19.8309 C   0  0  0  0  0  0  0  0  0  0  0  0
  -28.4854  -12.4168   20.7642 C   0  0  0  0  0  0  0  0  0  0  0  0
  -29.5368  -18.6241   20.4007 C   0  0  0  0  0  0  0  0  0  0  0  0
  -27.9641  -20.3227   21.4727 C   0  0  0  0  0  0  0  0  0  0  0  0
  -20.5704  -21.3322   10.9945 C   0  0  0  0  0  0  0  0  0  0  0  0
  -24.2543  -20.7786   16.4987 C   0  0  0  0  0  0  0  0  0  0  0  0
  -20.8855  -21.7174   12.3116 C   0  0  0  0  0  0  0  0  0  0  0  0
  -23.6983  -20.8468   17.7841 C   0  0  0  0  0  0  0  0  0  0  0  0
  -24.2375  -30.4208   20.8655 C   0  0  0  0  0  0  0  0  0  0  0  0
  -30.6045  -16.0708   20.0498 C   0  0  0  0  0  0  0  0  0  0  0  0
  -24.9928  -22.8569   18.2240 C   0  0  0  0  0  0  0  0  0  0  0  0
  -30.2405  -13.7634   19.7930 C   0  0  0  0  0  0  0  0  0  0  0  0
  -28.4576  -11.6251   19.6160 C   0  0  0  0  0  0  0  0  0  0  0  0
  -29.3769  -13.4860   20.8526 C   0  0  0  0  0  0  0  0  0  0  0  0
  -28.9862  -19.9432   20.5820 C   0  0  0  0  0  0  0  0  0  0  0  0
  -25.3014  -28.7575   19.7831 C   0  0  0  0  0  0  0  0  0  0  0  0
  -25.4908  -30.2758   21.4183 C   0  0  0  0  0  0  0  0  0  0  0  0
  -27.8088  -21.6711   21.2626 C   0  0  0  0  0  0  0  0  0  0  0  0
  -27.2216  -19.5274   22.4065 C   0  0  0  0  0  0  0  0  0  0  0  0
  -21.3829  -19.8764   15.4764 C   0  0  0  0  0  0  0  0  0  0  0  0
  -21.7414  -17.5613   17.7200 C   0  0  0  0  0  0  0  0  0  0  0  0
  -23.2289  -16.5392   20.6165 C   0  0  0  0  0  0  0  0  0  0  0  0
  -29.9544  -26.6674   20.6457 C   0  0  0  0  0  0  0  0  0  0  0  0
  -19.5988  -20.2153   10.7057 C   0  0  0  0  0  0  0  0  0  0  0  0
  -23.8922  -19.6514   15.5709 C   0  0  0  0  0  0  0  0  0  0  0  0
  -22.7034  -19.8271   18.2729 C   0  0  0  0  0  0  0  0  0  0  0  0
  -19.3546  -19.2964   11.8999 C   0  0  0  0  0  0  0  0  0  0  0  0
  -29.6606  -24.6756   17.6384 C   0  0  0  0  0  0  0  0  0  0  0  0
  -19.1088  -20.1160   13.1627 C   0  0  0  0  0  0  0  0  0  0  0  0
  -29.3725  -23.2897   18.2184 C   0  0  0  0  0  0  0  0  0  0  0  0
  -30.6585  -25.4402   18.5031 C   0  0  0  0  0  0  0  0  0  0  0  0
  -29.9697  -24.1925   20.5136 C   0  0  0  0  0  0  0  0  0  0  0  0
  -20.3302  -20.9763   13.5084 C   0  0  1  0  0  0  0  0  0  0  0  0
  -22.5428  -19.0190   15.8973 C   0  0  1  0  0  0  0  0  0  0  0  0
  -28.9502  -23.3778   19.6969 C   0  0  2  0  0  0  0  0  0  0  0  0
  -23.2039  -31.3941   21.2709 C   0  0  0  0  0  0  0  0  0  0  0  0
  -23.8636  -14.9932   22.4885 C   0  0  0  0  0  0  0  0  0  0  0  0
  -25.6921  -30.7801   26.4139 C   0  0  0  0  0  0  0  0  0  0  0  0
  -27.8019  -31.1149   25.1112 C   0  0  0  0  0  0  0  0  0  0  0  0
  -19.0481  -18.4268   18.8633 C   0  0  0  0  0  0  0  0  0  0  0  0
  -19.6084  -17.1661   20.9525 C   0  0  0  0  0  0  0  0  0  0  0  0
  -19.4007  -15.9522   18.7832 C   0  0  0  0  0  0  0  0  0  0  0  0
  -25.5586  -15.4951   19.1194 C   0  0  0  0  0  0  0  0  0  0  0  0
  -25.7173  -27.6266   18.8767 C   0  0  0  0  0  0  0  0  0  0  0  0
  -26.1358  -31.0159   22.5238 C   0  0  0  0  0  0  0  0  0  0  0  0
  -25.3748  -26.2397   19.4253 C   0  0  0  0  0  0  0  0  0  0  0  0
  -25.6162  -30.5760   23.9107 C   0  0  0  0  0  0  0  0  0  0  0  0
  -28.5728  -29.6819   20.4347 C   0  0  0  0  0  0  0  0  0  0  0  0
  -27.4708  -28.7949   21.0295 C   0  0  0  0  0  0  0  0  0  0  0  0
  -29.9906  -29.1484   20.6287 C   0  0  0  0  0  0  0  0  0  0  0  0
  -25.7213  -25.1080   18.4648 C   0  0  0  0  0  0  0  0  0  1  0  0
  -21.4092  -17.4337   19.1871 C   0  0  1  0  0  0  0  0  0  0  0  0
  -23.9222  -15.2412   20.9892 C   0  0  2  0  0  0  0  0  0  0  0  0
  -26.2832  -31.2941   25.0987 C   0  0  0  0  0  0  0  0  0  0  0  0
  -19.8839  -17.2652   19.4369 C   0  0  0  0  0  0  0  0  0  0  0  0
  -29.4474  -20.9677   19.8598 N   0  0  0  0  0  0  0  0  0  0  0  0
  -26.1287  -29.2620   20.7523 N   0  0  0  0  0  0  0  0  0  0  0  0
  -28.7118  -22.0043   20.2963 N   0  0  0  0  0  0  0  0  0  0  0  0
  -22.3766  -18.7476   17.3266 N   0  0  0  0  0  0  0  0  0  0  0  0
  -30.1884  -25.5039   19.8941 N   0  0  0  0  0  0  0  0  0  0  0  0
  -26.9891  -22.5924   21.8119 N   0  0  0  0  0  0  0  0  0  0  0  0
  -27.5085  -18.1584   22.4945 N   0  0  0  0  0  0  0  0  0  0  0  0
  -21.3595  -20.1678   14.1258 N   0  0  0  0  0  0  0  0  0  0  0  0
  -22.2230  -16.3348   19.6958 N   0  0  0  0  0  0  0  0  0  0  0  0
  -30.1921  -27.8679   19.9878 N   0  0  0  0  0  0  0  0  0  0  0  0
  -25.3532  -15.2807   20.5750 N   0  3  0  0  0  0  0  0  0  0  0  0
  -26.3188  -20.0132   23.1293 O   0  0  0  0  0  0  0  0  0  0  0  0
  -20.5686  -20.2451   16.3147 O   0  0  0  0  0  0  0  0  0  0  0  0
  -21.4544  -16.6391   16.9526 O   0  0  0  0  0  0  0  0  0  0  0  0
  -23.5454  -17.6252   21.0970 O   0  0  0  0  0  0  0  0  0  0  0  0
  -29.5575  -26.6387   21.8157 O   0  0  0  0  0  0  0  0  0  0  0  0
  -31.1255  -14.8250   19.8790 O   0  0  0  0  0  0  0  0  0  0  0  0
  -25.3460  -23.8681   19.0634 O   0  0  0  0  0  0  0  0  0  1  0  0
  -27.6005  -10.5993   19.5303 F   0  0  0  0  0  0  0  0  0  0  0  0
  -29.3983  -14.2437   21.9577 F   0  0  0  0  0  0  0  0  0  0  0  0
  1  2  1  0  0  0  0
  1  5  2  0  0  0  0
  2  6  2  0  0  0  0
  3  8  2  0  0  0  0
  3 16  1  0  0  0  0
  4  9  1  0  0  0  0
  4 16  2  0  0  0  0
  5 18  1  0  0  0  0
  6 20  1  0  0  0  0
  7 10  2  0  0  0  0
  7 19  1  0  0  0  0
  8 23  1  0  0  0  0
  9 23  2  0  0  0  0
 10 24  1  0  0  0  0
 11 12  2  0  0  0  0
 11 25  1  0  0  0  0
 12 26  1  0  0  0  0
 13 21  1  0  0  0  0
 13 24  2  0  0  0  0
 14 22  1  0  0  0  0
 14 29  2  0  0  0  0
 15 26  2  0  0  0  0
 15 27  1  0  0  0  0
 16 28  1  0  0  0  0
 17 28  1  0  0  0  0
 17 31  2  0  0  0  0
 17 32  1  0  0  0  0
 18 20  2  0  0  0  0
 18 37  1  0  0  0  0
 19 21  2  0  0  0  0
 19 38  1  0  0  0  0
 20 46  1  0  0  0  0
 21 39  1  0  0  0  0
 22 30  2  0  0  0  0
 22 49  1  0  0  0  0
 23 85  1  0  0  0  0
 24 86  1  0  0  0  0
 25 27  2  0  0  0  0
 25 85  1  0  0  0  0
 26 87  1  0  0  0  0
 27 88  1  0  0  0  0
 28 69  2  0  0  0  0
 29 57  1  0  0  0  0
 29 70  1  0  0  0  0
 30 58  1  0  0  0  0
 30 70  1  0  0  0  0
 31 71  1  0  0  0  0
 31 74  1  0  0  0  0
 32 75  1  0  0  0  0
 32 80  2  0  0  0  0
 33 47  1  0  0  0  0
 33 76  1  0  0  0  0
 33 81  2  0  0  0  0
 34 65  1  0  0  0  0
 34 72  1  0  0  0  0
 34 82  2  0  0  0  0
 35 66  1  0  0  0  0
 35 77  1  0  0  0  0
 35 83  2  0  0  0  0
 36 73  1  0  0  0  0
 36 78  1  0  0  0  0
 36 84  2  0  0  0  0
 37 40  1  0  0  0  0
 38 47  1  0  0  0  0
 39 72  1  0  0  0  0
 40 42  1  0  0  0  0
 41 43  1  0  0  0  0
 41 44  1  0  0  0  0
 42 46  1  0  0  0  0
 43 48  1  0  0  0  0
 44 73  1  0  0  0  0
 45 48  1  0  0  0  0
 45 73  1  0  0  0  0
 46 76  1  0  0  0  0
 47 72  1  0  0  0  0
 48 71  1  0  0  0  0
 50 66  1  0  0  0  0
 51 67  1  0  0  0  0
 52 67  1  0  0  0  0
 53 68  1  0  0  0  0
 54 68  1  0  0  0  0
 55 68  1  0  0  0  0
 56 79  1  0  0  0  0
 57 59  1  0  0  0  0
 58 60  1  0  0  0  0
 59 64  1  0  0  0  0
 60 67  1  0  0  0  0
 61 62  1  0  0  0  0
 61 63  1  0  0  0  0
 62 70  1  0  0  0  0
 63 78  1  0  0  0  0
 64 86  1  0  0  0  0
 65 68  1  0  0  0  0
 65 77  1  0  0  0  0
 66 79  1  0  0  0  0
 69 71  1  0  0  0  0
M  CHG  1  79   1
M  ISO  4  36 100  64 101  78 100  86 101
M  END
> <Batch ID>
0094

> <Smiles>
CNC(C)C(=O)NC(C(=O)N1Cc2cc([101O:1][101CH2:1]CCc3cc(C)c(CCC(C)C)n3CCC[100NH:0][100C:0](=O)N3CCCC(n4nc(-c5ccc(Oc6ccc(F)cc6F)cc5)c(C(N)=O)c4N)C3)ccc2CC1C(=O)NC1CCCc2ccccc21)C(C)(C)C

> <Shape>
0.262

> <Color>
0.093

> <Negative vol penalty>
0.000

$$$$

  -OEChem-04052319193D

 87 95  0     1  0  0  0  0  0999 V2000
  -33.1600   -9.2409   24.2837 C   0  0  0  0  0  0  0  0  0  0  0  0
  -32.9069  -10.6072   24.2165 C   0  0  0  0  0  0  0  0  0  0  0  0
  -22.4368  -29.1117   20.8811 C   0  0  0  0  0  0  0  0  0  0  0  0
  -22.9781  -26.8309   21.4656 C   0  0  0  0  0  0  0  0  0  0  0  0
  -32.4986   -8.3674   23.4216 C   0  0  0  0  0  0  0  0  0  0  0  0
  -31.9930  -11.1009   23.2863 C   0  0  0  0  0  0  0  0  0  0  0  0
  -28.2146  -15.8662   24.0090 C   0  0  0  0  0  0  0  0  0  0  0  0
  -21.0902  -28.8593   21.1429 C   0  0  0  0  0  0  0  0  0  0  0  0
  -21.6315  -26.5784   21.7275 C   0  0  0  0  0  0  0  0  0  0  0  0
  -28.2968  -17.1981   23.6052 C   0  0  0  0  0  0  0  0  0  0  0  0
  -19.0850  -28.6035   23.8534 C   0  0  0  0  0  0  0  0  0  0  0  0
  -18.3806  -29.5504   24.5970 C   0  0  0  0  0  0  0  0  0  0  0  0
  -26.9780  -16.6813   21.6526 C   0  0  0  0  0  0  0  0  0  0  0  0
  -30.6266  -22.6902   19.4320 C   0  0  0  0  0  0  0  0  0  0  0  0
  -16.8536  -29.8639   22.7512 C   0  0  0  0  0  0  0  0  0  0  0  0
  -23.3807  -28.0975   21.0424 C   0  0  0  0  0  0  0  0  0  0  0  0
  -25.7427  -28.8205   21.6797 C   0  0  0  0  0  0  0  0  0  0  0  0
  -31.5689   -8.8496   22.4868 C   0  0  0  0  0  0  0  0  0  0  0  0
  -27.5215  -14.9280   23.2306 C   0  0  0  0  0  0  0  0  0  0  0  0
  -31.3195  -10.2331   22.4099 C   0  0  0  0  0  0  0  0  0  0  0  0
  -26.8863  -15.3386   22.0499 C   0  0  0  0  0  0  0  0  0  0  0  0
  -30.5437  -22.7968   20.8158 C   0  0  0  0  0  0  0  0  0  0  0  0
  -30.5327  -24.0533   21.4113 C   0  0  0  0  0  0  0  0  0  0  0  0
  -20.6875  -27.5927   21.5662 C   0  0  0  0  0  0  0  0  0  0  0  0
  -27.6810  -17.6053   22.4254 C   0  0  0  0  0  0  0  0  0  0  0  0
  -18.6737  -28.2869   22.5587 C   0  0  0  0  0  0  0  0  0  0  0  0
  -17.2649  -30.1805   24.0459 C   0  0  0  0  0  0  0  0  0  0  0  0
  -17.5580  -28.9170   22.0076 C   0  0  0  0  0  0  0  0  0  0  0  0
  -24.7718  -28.3575   20.7715 C   0  0  0  0  0  0  0  0  0  0  0  0
  -30.6958  -23.8610   18.6943 C   0  0  0  0  0  0  0  0  0  0  0  0
  -30.6063  -25.1631   20.5850 C   0  0  0  0  0  0  0  0  0  0  0  0
  -26.8954  -28.9030   20.9376 C   0  0  0  0  0  0  0  0  0  0  0  0
  -25.6140  -29.1467   23.0699 C   0  0  0  0  0  0  0  0  0  0  0  0
  -28.3191  -12.2654   21.6884 C   0  0  0  0  0  0  0  0  0  0  0  0
  -25.1197  -12.0555   21.1964 C   0  0  0  0  0  0  0  0  0  0  0  0
  -22.1114  -13.6519   20.9760 C   0  0  0  0  0  0  0  0  0  0  0  0
  -28.7601  -26.1146   15.9778 C   0  0  0  0  0  0  0  0  0  0  0  0
  -30.9137   -7.8717   21.5438 C   0  0  0  0  0  0  0  0  0  0  0  0
  -27.4194  -13.5005   23.6937 C   0  0  0  0  0  0  0  0  0  0  0  0
  -26.1128  -14.3748   21.1890 C   0  0  0  0  0  0  0  0  0  0  0  0
  -29.6819   -8.4358   20.8406 C   0  0  0  0  0  0  0  0  0  0  0  0
  -28.4236  -29.6259   16.4618 C   0  0  0  0  0  0  0  0  0  0  0  0
  -29.9697   -9.8318   20.2973 C   0  0  0  0  0  0  0  0  0  0  0  0
  -27.5372  -29.7408   17.7031 C   0  0  0  0  0  0  0  0  0  0  0  0
  -28.0159  -28.4444   15.5844 C   0  0  0  0  0  0  0  0  0  0  0  0
  -27.0620  -27.2626   17.5254 C   0  0  0  0  0  0  0  0  0  0  0  0
  -30.3166  -10.8043   21.4311 C   0  0  1  0  0  0  0  0  0  0  0  0
  -27.1226  -12.5243   22.5596 C   0  0  1  0  0  0  0  0  0  0  0  0
  -27.4702  -28.4062   18.4697 C   0  0  2  0  0  0  0  0  0  0  0  0
  -30.5970  -26.5392   21.1662 C   0  0  0  0  0  0  0  0  0  0  0  0
  -28.9313  -24.0773   24.9242 C   0  0  0  0  0  0  0  0  0  0  0  0
  -31.7504  -20.7032   21.4873 C   0  0  0  0  0  0  0  0  0  0  0  0
  -19.6807  -13.2205   20.5254 C   0  0  0  0  0  0  0  0  0  0  0  0
  -25.7217  -11.7893   18.2170 C   0  0  0  0  0  0  0  0  0  0  0  0
  -23.3180  -12.3159   17.7553 C   0  0  0  0  0  0  0  0  0  0  0  0
  -23.9181  -10.2738   19.0563 C   0  0  0  0  0  0  0  0  0  0  0  0
  -21.3217  -14.6306   23.6551 C   0  0  0  0  0  0  0  0  0  0  0  0
  -30.4420  -24.1984   22.8932 C   0  0  0  0  0  0  0  0  0  0  0  0
  -30.7844  -23.7850   17.2066 C   0  0  0  0  0  0  0  0  0  0  0  0
  -29.0149  -23.9626   23.4103 C   0  0  0  0  0  0  0  0  0  0  0  0
  -29.2318  -20.6687   21.3333 C   0  0  0  0  0  0  0  0  0  0  0  0
  -29.4187  -23.7818   16.5102 C   0  0  0  0  0  0  0  0  0  0  0  0
  -28.9291  -19.6296   22.4088 C   0  0  0  0  0  0  0  0  0  1  0  0
  -30.4694  -21.5302   21.6509 C   0  0  2  0  0  0  0  0  0  0  0  0
  -24.1669  -12.5474   20.1337 C   0  0  1  0  0  0  0  0  0  0  0  0
  -20.7588  -13.3413   21.5912 C   0  0  2  0  0  0  0  0  0  0  0  0
  -24.2973  -11.7496   18.8056 C   0  0  0  0  0  0  0  0  0  0  0  0
  -25.2648  -28.1599   19.5459 N   0  0  0  0  0  0  0  0  0  0  0  0
  -30.6878  -25.0991   19.2371 N   0  0  0  0  0  0  0  0  0  0  0  0
  -26.5581  -28.5004   19.6789 N   0  0  0  0  0  0  0  0  0  0  0  0
  -26.0471  -12.9887   21.6810 N   0  0  0  0  0  0  0  0  0  0  0  0
  -27.9731  -27.2095   16.3713 N   0  0  0  0  0  0  0  0  0  0  0  0
  -28.1546  -29.2799   21.2454 N   0  0  0  0  0  0  0  0  0  0  0  0
  -24.3583  -29.0048   23.6760 N   0  0  0  0  0  0  0  0  0  0  0  0
  -29.1162  -11.2234   22.1224 N   0  0  0  0  0  0  0  0  0  0  0  0
  -22.8353  -12.5048   20.7281 N   0  0  0  0  0  0  0  0  0  0  0  0
  -28.6653  -24.9856   16.7823 N   0  0  0  0  0  0  0  0  0  0  0  0
  -20.3620  -14.4190   22.5410 N   0  3  0  0  0  0  0  0  0  0  0  0
  -26.5801  -29.5677   23.7503 O   0  0  0  0  0  0  0  0  0  0  0  0
  -28.5046  -12.9588   20.6951 O   0  0  0  0  0  0  0  0  0  0  0  0
  -25.0392  -10.8883   21.5874 O   0  0  0  0  0  0  0  0  0  0  0  0
  -22.4867  -14.7973   20.7357 O   0  0  0  0  0  0  0  0  0  0  0  0
  -29.4970  -26.1430   14.9863 O   0  0  0  0  0  0  0  0  0  0  0  0
  -19.3736  -27.3460   21.8220 O   0  0  0  0  0  0  0  0  0  0  0  0
  -27.7602  -18.9046   22.0287 O   0  0  0  0  0  0  0  0  0  1  0  0
  -16.5877  -31.0886   24.7606 F   0  0  0  0  0  0  0  0  0  0  0  0
  -17.1574  -28.6161   20.7647 F   0  0  0  0  0  0  0  0  0  0  0  0
  1  2  1  0  0  0  0
  1  5  2  0  0  0  0
  2  6  2  0  0  0  0
  3  8  2  0  0  0  0
  3 16  1  0  0  0  0
  4  9  1  0  0  0  0
  4 16  2  0  0  0  0
  5 18  1  0  0  0  0
  6 20  1  0  0  0  0
  7 10  2  0  0  0  0
  7 19  1  0  0  0  0
  8 24  1  0  0  0  0
  9 24  2  0  0  0  0
 10 25  1  0  0  0  0
 11 12  2  0  0  0  0
 11 26  1  0  0  0  0
 12 27  1  0  0  0  0
 13 21  1  0  0  0  0
 13 25  2  0  0  0  0
 14 22  2  0  0  0  0
 14 30  1  0  0  0  0
 15 27  2  0  0  0  0
 15 28  1  0  0  0  0
 16 29  1  0  0  0  0
 17 29  1  0  0  0  0
 17 32  2  0  0  0  0
 17 33  1  0  0  0  0
 18 20  2  0  0  0  0
 18 38  1  0  0  0  0
 19 21  2  0  0  0  0
 19 39  1  0  0  0  0
 20 47  1  0  0  0  0
 21 40  1  0  0  0  0
 22 23  1  0  0  0  0
 22 64  1  0  0  0  0
 23 31  2  0  0  0  0
 23 58  1  0  0  0  0
 24 84  1  0  0  0  0
 25 85  1  0  0  0  0
 26 28  2  0  0  0  0
 26 84  1  0  0  0  0
 27 86  1  0  0  0  0
 28 87  1  0  0  0  0
 29 68  2  0  0  0  0
 30 59  1  0  0  0  0
 30 69  2  0  0  0  0
 31 50  1  0  0  0  0
 31 69  1  0  0  0  0
 32 70  1  0  0  0  0
 32 73  1  0  0  0  0
 33 74  1  0  0  0  0
 33 79  2  0  0  0  0
 34 48  1  0  0  0  0
 34 75  1  0  0  0  0
 34 80  2  0  0  0  0
 35 65  1  0  0  0  0
 35 71  1  0  0  0  0
 35 81  2  0  0  0  0
 36 66  1  0  0  0  0
 36 76  1  0  0  0  0
 36 82  2  0  0  0  0
 37 72  1  0  0  0  0
 37 77  1  0  0  0  0
 37 83  2  0  0  0  0
 38 41  1  0  0  0  0
 39 48  1  0  0  0  0
 40 71  1  0  0  0  0
 41 43  1  0  0  0  0
 42 44  1  0  0  0  0
 42 45  1  0  0  0  0
 43 47  1  0  0  0  0
 44 49  1  0  0  0  0
 45 72  1  0  0  0  0
 46 49  1  0  0  0  0
 46 72  1  0  0  0  0
 47 75  1  0  0  0  0
 48 71  1  0  0  0  0
 49 70  1  0  0  0  0
 51 60  1  0  0  0  0
 52 64  1  0  0  0  0
 53 66  1  0  0  0  0
 54 67  1  0  0  0  0
 55 67  1  0  0  0  0
 56 67  1  0  0  0  0
 57 78  1  0  0  0  0
 58 60  1  0  0  0  0
 59 62  1  0  0  0  0
 61 63  1  0  0  0  0
 61 64  1  0  0  0  0
 62 77  1  0  0  0  0
 63 85  1  0  0  0  0
 65 67  1  0  0  0  0
 65 76  1  0  0  0  0
 66 78  1  0  0  0  0
 68 70  1  0  0  0  0
M  CHG  1  78   1
M  ISO  4  37 100  63 101  77 100  85 101
M  END
> <Batch ID>
0094

> <Smiles>
CCCc1c(C(C)C[101CH2:1][101O:1]c2ccc3c(c2)CN(C(=O)C(NC(=O)C(C)NC)C(C)(C)C)C(C(=O)NC2CCCc4ccccc42)C3)cc(CC[100NH:0][100C:0](=O)N2CCCC(n3nc(-c4ccc(Oc5ccc(F)cc5F)cc4)c(C(N)=O)c3N)C2)nc1C

> <Shape>
0.223

> <Color>
0.070

> <Negative vol penalty>
0.000

$$$$
