
  -OEChem-04052319213D

 89 97  0     1  0  0  0  0  0999 V2000
  -18.7143  -32.5886   25.0624 C   0  0  0  0  0  0  0  0  0  0  0  0
  -19.9754  -32.0082   24.9726 C   0  0  0  0  0  0  0  0  0  0  0  0
  -22.8988  -10.1860   20.0712 C   0  0  0  0  0  0  0  0  0  0  0  0
  -24.0883   -9.4935   22.0568 C   0  0  0  0  0  0  0  0  0  0  0  0
  -17.6045  -31.9262   24.5393 C   0  0  0  0  0  0  0  0  0  0  0  0
  -20.1274  -30.7646   24.3606 C   0  0  0  0  0  0  0  0  0  0  0  0
  -24.7931  -27.0094   20.4303 C   0  0  0  0  0  0  0  0  0  0  0  0
  -22.1274   -9.0253   20.1284 C   0  0  0  0  0  0  0  0  0  0  0  0
  -23.3168   -8.3328   22.1141 C   0  0  0  0  0  0  0  0  0  0  0  0
  -25.4393  -25.7742   20.4146 C   0  0  0  0  0  0  0  0  0  0  0  0
  -21.4160   -5.3601   22.9906 C   0  0  0  0  0  0  0  0  0  0  0  0
  -20.9010   -4.9834   24.2309 C   0  0  0  0  0  0  0  0  0  0  0  0
  -23.4626  -24.7587   19.4761 C   0  0  0  0  0  0  0  0  0  0  0  0
  -19.6979   -7.0743   24.3663 C   0  0  0  0  0  0  0  0  0  0  0  0
  -26.0383  -20.5626   20.6702 C   0  0  0  0  0  0  0  0  0  0  0  0
  -23.8793  -10.4201   21.0353 C   0  0  0  0  0  0  0  0  0  0  0  0
  -24.3934  -12.8589   21.5790 C   0  0  0  0  0  0  0  0  0  0  0  0
  -17.7444  -30.6783   23.9119 C   0  0  0  0  0  0  0  0  0  0  0  0
  -23.4708  -27.1267   19.9784 C   0  0  0  0  0  0  0  0  0  0  0  0
  -19.0183  -30.0843   23.8297 C   0  0  0  0  0  0  0  0  0  0  0  0
  -22.8027  -25.9971   19.4847 C   0  0  0  0  0  0  0  0  0  0  0  0
  -25.5070  -21.0944   19.5160 C   0  0  0  0  0  0  0  0  0  0  0  0
  -25.9098  -20.2623   18.4424 C   0  0  0  0  0  0  0  0  0  0  0  0
  -22.3364   -8.0987   21.1499 C   0  0  0  0  0  0  0  0  0  0  0  0
  -24.7732  -24.6480   19.9402 C   0  0  0  0  0  0  0  0  0  0  0  0
  -21.0721   -6.5939   22.4381 C   0  0  0  0  0  0  0  0  0  0  0  0
  -20.0419   -5.8405   24.9187 C   0  0  0  0  0  0  0  0  0  0  0  0
  -20.2130   -7.4510   23.1260 C   0  0  0  0  0  0  0  0  0  0  0  0
  -24.6769  -11.6187   20.9764 C   0  0  0  0  0  0  0  0  0  0  0  0
  -26.6748  -19.2473   18.9733 C   0  0  0  0  0  0  0  0  0  0  0  0
  -25.4507  -13.6616   21.2265 C   0  0  0  0  0  0  0  0  0  0  0  0
  -23.2743  -13.2504   22.3853 C   0  0  0  0  0  0  0  0  0  0  0  0
  -20.7131  -27.9808   21.3087 C   0  0  0  0  0  0  0  0  0  0  0  0
  -19.6139  -27.7229   18.2677 C   0  0  0  0  0  0  0  0  0  0  0  0
  -19.9813  -26.3616   15.1599 C   0  0  0  0  0  0  0  0  0  0  0  0
  -30.9303  -14.4726   20.5466 C   0  0  0  0  0  0  0  0  0  0  0  0
  -16.5087  -29.9788   23.4035 C   0  0  0  0  0  0  0  0  0  0  0  0
  -22.7968  -28.4714   19.9770 C   0  0  0  0  0  0  0  0  0  0  0  0
  -21.3895  -26.0737   18.9695 C   0  0  0  0  0  0  0  0  0  0  0  0
  -16.8097  -28.8357   22.4375 C   0  0  0  0  0  0  0  0  0  0  0  0
  -29.1620  -12.9315   17.8680 C   0  0  0  0  0  0  0  0  0  0  0  0
  -17.9262  -27.9531   22.9863 C   0  0  0  0  0  0  0  0  0  0  0  0
  -27.8173  -12.5496   18.4892 C   0  0  0  0  0  0  0  0  0  0  0  0
  -30.3099  -12.7662   18.8615 C   0  0  0  0  0  0  0  0  0  0  0  0
  -28.7793  -13.0863   20.7663 C   0  0  0  0  0  0  0  0  0  0  0  0
  -19.2273  -28.7479   23.1511 C   0  0  1  0  0  0  0  0  0  0  0  0
  -21.2742  -28.3766   19.9722 C   0  0  1  0  0  0  0  0  0  0  0  0
  -27.5839  -13.2900   19.8199 C   0  0  2  0  0  0  0  0  0  0  0  0
  -26.1271  -21.7664   16.4314 C   0  0  0  0  0  0  0  0  0  0  0  0
  -24.0543  -20.3651   16.7393 C   0  0  0  0  0  0  0  0  0  0  0  0
  -28.4258  -18.5547   17.2976 C   0  0  0  0  0  0  0  0  0  0  0  0
  -26.3530  -17.1537   17.6068 C   0  0  0  0  0  0  0  0  0  0  0  0
  -18.9057  -26.3074   12.8933 C   0  0  0  0  0  0  0  0  0  0  0  0
  -17.4545  -25.8527   19.3398 C   0  0  0  0  0  0  0  0  0  0  0  0
  -17.0336  -25.1038   16.9882 C   0  0  0  0  0  0  0  0  0  0  0  0
  -16.6599  -27.4873   17.6219 C   0  0  0  0  0  0  0  0  0  0  0  0
  -22.3831  -27.5075   13.8647 C   0  0  0  0  0  0  0  0  0  0  0  0
  -29.5422  -18.3326   23.6268 C   0  0  0  0  0  0  0  0  0  0  0  0
  -24.6594  -22.3291   19.4250 C   0  0  0  0  0  0  0  0  0  1  0  0
  -27.4541  -18.5991   21.2684 C   0  0  0  0  0  0  0  0  0  0  0  0
  -31.4083  -16.1542   22.3081 C   0  0  0  0  0  0  0  0  0  0  0  0
  -28.9640  -18.7980   21.2499 C   0  0  0  0  0  0  0  0  0  0  0  0
  -31.0384  -17.5361   21.8023 C   0  0  0  0  0  0  0  0  0  0  0  0
  -25.5730  -20.4469   17.0157 C   0  0  0  0  0  0  0  0  0  0  0  0
  -27.3445  -18.1096   18.3082 C   0  0  0  0  0  0  0  0  0  0  0  0
  -19.0239  -26.6105   17.4349 C   0  0  1  0  0  0  0  0  0  0  0  0
  -19.9422  -26.9848   13.7762 C   0  0  2  0  0  0  0  0  0  0  0  0
  -17.5690  -26.2614   17.8576 C   0  0  0  0  0  0  0  0  0  0  0  0
  -25.8243  -11.6278   20.2928 N   0  0  0  0  0  0  0  0  0  0  0  0
  -26.7459  -19.4399   20.3283 N   0  0  0  0  0  0  0  0  0  0  0  0
  -26.2711  -12.8837   20.4637 N   0  0  0  0  0  0  0  0  0  0  0  0
  -20.7712  -27.4095   18.9945 N   0  0  0  0  0  0  0  0  0  0  0  0
  -30.0268  -13.4937   20.1010 N   0  0  0  0  0  0  0  0  0  0  0  0
  -25.7494  -14.9499   21.4978 N   0  0  0  0  0  0  0  0  0  0  0  0
  -22.2775  -12.3016   22.6507 N   0  0  0  0  0  0  0  0  0  0  0  0
  -19.8762  -28.9263   21.8699 N   0  0  0  0  0  0  0  0  0  0  0  0
  -19.1581  -27.0273   16.0432 N   0  0  0  0  0  0  0  0  0  0  0  0
  -30.5831  -15.1190   21.7266 N   0  0  0  0  0  0  0  0  0  0  0  0
  -21.2729  -26.8642   13.1160 N   0  3  0  0  0  0  0  0  0  0  0  0
  -29.6179  -17.8604   22.1954 N   0  3  1  0  0  0  0  0  0  0  0  0
  -23.1536  -14.4121   22.8429 O   0  0  0  0  0  0  0  0  0  0  0  0
  -21.0158  -26.8970   21.7940 O   0  0  0  0  0  0  0  0  0  0  0  0
  -19.0721  -28.8311   18.2676 O   0  0  0  0  0  0  0  0  0  0  0  0
  -20.6702  -25.3800   15.4291 O   0  0  0  0  0  0  0  0  0  0  0  0
  -31.9667  -14.7536   19.9352 O   0  0  0  0  0  0  0  0  0  0  0  0
  -21.5836   -6.9661   21.2063 O   0  0  0  0  0  0  0  0  0  0  0  0
  -25.4014  -23.4410   19.9243 O   0  0  0  0  0  0  0  0  0  1  0  0
  -19.5461   -5.4779   26.1091 F   0  0  0  0  0  0  0  0  0  0  0  0
  -19.8781   -8.6370   22.5998 F   0  0  0  0  0  0  0  0  0  0  0  0
  1  2  1  0  0  0  0
  1  5  2  0  0  0  0
  2  6  2  0  0  0  0
  3  8  2  0  0  0  0
  3 16  1  0  0  0  0
  4  9  1  0  0  0  0
  4 16  2  0  0  0  0
  5 18  1  0  0  0  0
  6 20  1  0  0  0  0
  7 10  2  0  0  0  0
  7 19  1  0  0  0  0
  8 24  1  0  0  0  0
  9 24  2  0  0  0  0
 10 25  1  0  0  0  0
 11 12  2  0  0  0  0
 11 26  1  0  0  0  0
 12 27  1  0  0  0  0
 13 21  1  0  0  0  0
 13 25  2  0  0  0  0
 14 27  2  0  0  0  0
 14 28  1  0  0  0  0
 15 22  2  0  0  0  0
 15 70  1  0  0  0  0
 16 29  1  0  0  0  0
 17 29  1  0  0  0  0
 17 31  2  0  0  0  0
 17 32  1  0  0  0  0
 18 20  2  0  0  0  0
 18 37  1  0  0  0  0
 19 21  2  0  0  0  0
 19 38  1  0  0  0  0
 20 46  1  0  0  0  0
 21 39  1  0  0  0  0
 22 23  1  0  0  0  0
 22 59  1  0  0  0  0
 23 30  2  0  0  0  0
 23 64  1  0  0  0  0
 24 86  1  0  0  0  0
 25 87  1  0  0  0  0
 26 28  2  0  0  0  0
 26 86  1  0  0  0  0
 27 88  1  0  0  0  0
 28 89  1  0  0  0  0
 29 69  2  0  0  0  0
 30 65  1  0  0  0  0
 30 70  1  0  0  0  0
 31 71  1  0  0  0  0
 31 74  1  0  0  0  0
 32 75  1  0  0  0  0
 32 81  2  0  0  0  0
 33 47  1  0  0  0  0
 33 76  1  0  0  0  0
 33 82  2  0  0  0  0
 34 66  1  0  0  0  0
 34 72  1  0  0  0  0
 34 83  2  0  0  0  0
 35 67  1  0  0  0  0
 35 77  1  0  0  0  0
 35 84  2  0  0  0  0
 36 73  1  0  0  0  0
 36 78  1  0  0  0  0
 36 85  2  0  0  0  0
 37 40  1  0  0  0  0
 38 47  1  0  0  0  0
 39 72  1  0  0  0  0
 40 42  1  0  0  0  0
 41 43  1  0  0  0  0
 41 44  1  0  0  0  0
 42 46  1  0  0  0  0
 43 48  1  0  0  0  0
 44 73  1  0  0  0  0
 45 48  1  0  0  0  0
 45 73  1  0  0  0  0
 46 76  1  0  0  0  0
 47 72  1  0  0  0  0
 48 71  1  0  0  0  0
 49 64  1  0  0  0  0
 50 64  1  0  0  0  0
 51 65  1  0  0  0  0
 52 65  1  0  0  0  0
 53 67  1  0  0  0  0
 54 68  1  0  0  0  0
 55 68  1  0  0  0  0
 56 68  1  0  0  0  0
 57 79  1  0  0  0  0
 58 80  1  0  0  0  0
 59 87  1  0  0  0  0
 60 62  1  0  0  0  0
 60 70  1  0  0  0  0
 61 63  1  0  0  0  0
 61 78  1  0  0  0  0
 62 80  1  0  0  0  0
 63 80  1  0  0  0  0
 66 68  1  0  0  0  0
 66 77  1  0  0  0  0
 67 79  1  0  0  0  0
 69 71  1  0  0  0  0
M  CHG  2  79   1  80   1
M  ISO  4  36 100  59 101  78 100  87 101
M  END
> <Batch ID>
0095

> <Smiles>
CNC(C)C(=O)NC(C(=O)N1Cc2cc([101O:1][101CH2:1]c3cn(CCN(C)CC[100NH:0][100C:0](=O)N4CCCC(n5nc(-c6ccc(Oc7ccc(F)cc7F)cc6)c(C(N)=O)c5N)C4)c(C(C)C)c3C(C)C)ccc2CC1C(=O)NC1CCCc2ccccc21)C(C)(C)C

> <Shape>
0.267

> <Color>
0.154

> <Negative vol penalty>
0.000

$$$$

  -OEChem-04052319213D

 86 94  0     1  0  0  0  0  0999 V2000
  -30.6371  -25.8750   29.2160 C   0  0  0  0  0  0  0  0  0  0  0  0
  -29.8467  -25.0294   28.4443 C   0  0  0  0  0  0  0  0  0  0  0  0
  -23.1910   -9.8194   19.9317 C   0  0  0  0  0  0  0  0  0  0  0  0
  -23.5683  -10.0001   22.3112 C   0  0  0  0  0  0  0  0  0  0  0  0
  -31.2013  -25.4095   30.4030 C   0  0  0  0  0  0  0  0  0  0  0  0
  -29.6208  -23.7172   28.8587 C   0  0  0  0  0  0  0  0  0  0  0  0
  -24.5083  -20.4377   28.0759 C   0  0  0  0  0  0  0  0  0  0  0  0
  -22.4248   -8.6727   20.1402 C   0  0  0  0  0  0  0  0  0  0  0  0
  -22.8020   -8.8534   22.5198 C   0  0  0  0  0  0  0  0  0  0  0  0
  -24.1474  -19.4731   27.1362 C   0  0  0  0  0  0  0  0  0  0  0  0
  -23.2036   -5.5067   22.2562 C   0  0  0  0  0  0  0  0  0  0  0  0
  -23.7018   -4.5455   23.1357 C   0  0  0  0  0  0  0  0  0  0  0  0
  -24.8090  -17.7363   28.6741 C   0  0  0  0  0  0  0  0  0  0  0  0
  -21.7446   -4.8054   24.5282 C   0  0  0  0  0  0  0  0  0  0  0  0
  -29.2542  -15.6249   24.0581 C   0  0  0  0  0  0  0  0  0  0  0  0
  -23.7629  -10.4831   21.0172 C   0  0  0  0  0  0  0  0  0  0  0  0
  -24.1014  -12.9998   20.7734 C   0  0  0  0  0  0  0  0  0  0  0  0
  -30.9743  -24.0939   30.8370 C   0  0  0  0  0  0  0  0  0  0  0  0
  -25.0334  -20.0585   29.3196 C   0  0  0  0  0  0  0  0  0  0  0  0
  -30.1836  -23.2332   30.0519 C   0  0  0  0  0  0  0  0  0  0  0  0
  -25.1734  -18.6980   29.6287 C   0  0  0  0  0  0  0  0  0  0  0  0
  -22.2303   -8.1897   21.4343 C   0  0  0  0  0  0  0  0  0  0  0  0
  -24.3004  -18.1222   27.4342 C   0  0  0  0  0  0  0  0  0  0  0  0
  -21.9760   -6.1173   22.5127 C   0  0  0  0  0  0  0  0  0  0  0  0
  -22.9722   -4.1948   24.2717 C   0  0  0  0  0  0  0  0  0  0  0  0
  -21.2465   -5.7666   23.6487 C   0  0  0  0  0  0  0  0  0  0  0  0
  -24.5550  -11.6674   20.8024 C   0  0  0  0  0  0  0  0  0  0  0  0
  -30.2704  -15.0533   24.7706 C   0  0  0  0  0  0  0  0  0  0  0  0
  -25.2326  -13.7425   20.5385 C   0  0  0  0  0  0  0  0  0  0  0  0
  -28.6675  -15.6096   26.1925 C   0  0  0  0  0  0  0  0  0  0  0  0
  -22.7760  -13.5196   20.9436 C   0  0  0  0  0  0  0  0  0  0  0  0
  -27.7945  -20.5224   30.8245 C   0  0  0  0  0  0  0  0  0  0  0  0
  -26.2547  -19.0643   33.2791 C   0  0  0  0  0  0  0  0  0  0  0  0
  -23.7670  -16.9622   34.2985 C   0  0  0  0  0  0  0  0  0  0  0  0
  -31.0470  -12.7534   21.5702 C   0  0  0  0  0  0  0  0  0  0  0  0
  -31.6440  -23.6214   32.1031 C   0  0  0  0  0  0  0  0  0  0  0  0
  -25.3929  -21.1108   30.3325 C   0  0  0  0  0  0  0  0  0  0  0  0
  -25.7134  -18.2382   30.9575 C   0  0  0  0  0  0  0  0  0  0  0  0
  -31.0492  -22.3315   32.6619 C   0  0  0  0  0  0  0  0  0  0  0  0
  -29.5209  -13.4703   18.4344 C   0  0  0  0  0  0  0  0  0  0  0  0
  -30.8680  -21.3020   31.5510 C   0  0  0  0  0  0  0  0  0  0  0  0
  -28.0342  -13.2097   18.6830 C   0  0  0  0  0  0  0  0  0  0  0  0
  -30.4020  -12.4811   19.1940 C   0  0  0  0  0  0  0  0  0  0  0  0
  -28.6478  -12.1382   20.8908 C   0  0  0  0  0  0  0  0  0  0  0  0
  -29.8951  -21.8109   30.4805 C   0  0  1  0  0  0  0  0  0  0  0  0
  -26.3983  -20.6220   31.3706 C   0  0  1  0  0  0  0  0  0  0  0  0
  -27.7205  -13.1459   20.1900 C   0  0  2  0  0  0  0  0  0  0  0  0
  -28.6311  -16.7218   28.4542 C   0  0  0  0  0  0  0  0  0  0  0  0
  -27.5726  -14.4545   28.1472 C   0  0  0  0  0  0  0  0  0  0  0  0
  -22.7797  -15.9342   36.3639 C   0  0  0  0  0  0  0  0  0  0  0  0
  -23.2980  -15.2492   24.4229 C   0  0  0  0  0  0  0  0  0  0  0  0
  -28.5972  -17.1145   33.4255 C   0  0  0  0  0  0  0  0  0  0  0  0
  -27.1578  -15.5972   34.8018 C   0  0  0  0  0  0  0  0  0  0  0  0
  -27.7313  -17.8736   35.6456 C   0  0  0  0  0  0  0  0  0  0  0  0
  -21.1426  -18.2447   33.8227 C   0  0  0  0  0  0  0  0  0  0  0  0
  -31.5620  -14.5070   24.3466 C   0  0  0  0  0  0  0  0  0  0  0  0
  -25.7611  -15.6638   24.6422 C   0  0  0  0  0  0  0  0  0  0  0  0
  -26.9634  -16.6177   24.6175 C   0  0  0  0  0  0  0  0  0  0  0  0
  -31.5362  -13.0048   23.9902 C   0  0  0  0  0  0  0  0  0  0  0  0
  -24.0664  -17.5345   25.1416 C   0  0  0  0  0  0  0  0  0  1  0  0
  -27.9098  -15.7922   27.4556 C   0  0  0  0  0  0  0  0  0  0  0  0
  -26.0880  -17.6361   33.7389 C   0  0  1  0  0  0  0  0  0  0  0  0
  -22.7167  -17.0973   35.3862 C   0  0  2  0  0  0  0  0  0  0  0  0
  -24.4020  -16.3055   24.2860 C   0  0  2  0  0  0  0  0  0  0  0  0
  -27.3852  -17.0637   34.3771 C   0  0  0  0  0  0  0  0  0  0  0  0
  -25.8716  -11.5665   20.6018 N   0  0  0  0  0  0  0  0  0  0  0  0
  -28.2756  -15.9590   24.9629 N   0  0  0  0  0  0  0  0  0  0  0  0
  -26.2551  -12.8448   20.4444 N   0  0  0  0  0  0  0  0  0  0  0  0
  -29.8804  -15.0572   26.0882 N   0  3  0  0  0  0  0  0  0  0  0  0
  -26.0567  -19.3051   31.9121 N   0  0  0  0  0  0  0  0  0  0  0  0
  -30.0548  -12.4700   20.6171 N   0  0  0  0  0  0  0  0  0  0  0  0
  -25.4424  -15.0694   20.4052 N   0  0  0  0  0  0  0  0  0  0  0  0
  -21.7294  -12.6172   21.1773 N   0  0  0  0  0  0  0  0  0  0  0  0
  -28.5284  -21.6876   30.9401 N   0  0  0  0  0  0  0  0  0  0  0  0
  -24.9304  -17.6256   34.6267 N   0  0  0  0  0  0  0  0  0  0  0  0
  -30.6323  -12.7281   22.8961 N   0  0  0  0  0  0  0  0  0  0  0  0
  -21.3526  -17.1345   34.7872 N   0  3  0  0  0  0  0  0  0  0  0  0
  -22.5247  -14.7465   20.8737 O   0  0  0  0  0  0  0  0  0  0  0  0
  -28.1782  -19.4662   30.3357 O   0  0  0  0  0  0  0  0  0  0  0  0
  -26.5429  -19.9353   34.1036 O   0  0  0  0  0  0  0  0  0  0  0  0
  -23.5760  -16.3282   33.2631 O   0  0  0  0  0  0  0  0  0  0  0  0
  -32.2147  -13.0151   21.2620 O   0  0  0  0  0  0  0  0  0  0  0  0
  -21.4825   -7.0709   21.6381 O   0  0  0  0  0  0  0  0  0  0  0  0
  -23.9495  -17.1785   26.5186 O   0  0  0  0  0  0  0  0  0  1  0  0
  -23.4500   -3.2706   25.1153 F   0  0  0  0  0  0  0  0  0  0  0  0
  -20.0659   -6.3490   23.8998 F   0  0  0  0  0  0  0  0  0  0  0  0
  1  2  1  0  0  0  0
  1  5  2  0  0  0  0
  2  6  2  0  0  0  0
  3  8  2  0  0  0  0
  3 16  1  0  0  0  0
  4  9  1  0  0  0  0
  4 16  2  0  0  0  0
  5 18  1  0  0  0  0
  6 20  1  0  0  0  0
  7 10  2  0  0  0  0
  7 19  1  0  0  0  0
  8 22  1  0  0  0  0
  9 22  2  0  0  0  0
 10 23  1  0  0  0  0
 11 12  2  0  0  0  0
 11 24  1  0  0  0  0
 12 25  1  0  0  0  0
 13 21  1  0  0  0  0
 13 23  2  0  0  0  0
 14 25  2  0  0  0  0
 14 26  1  0  0  0  0
 15 28  2  0  0  0  0
 15 67  1  0  0  0  0
 16 27  1  0  0  0  0
 17 27  1  0  0  0  0
 17 29  2  0  0  0  0
 17 31  1  0  0  0  0
 18 20  2  0  0  0  0
 18 36  1  0  0  0  0
 19 21  2  0  0  0  0
 19 37  1  0  0  0  0
 20 45  1  0  0  0  0
 21 38  1  0  0  0  0
 22 83  1  0  0  0  0
 23 84  1  0  0  0  0
 24 26  2  0  0  0  0
 24 83  1  0  0  0  0
 25 85  1  0  0  0  0
 26 86  1  0  0  0  0
 27 66  2  0  0  0  0
 28 56  1  0  0  0  0
 28 69  1  0  0  0  0
 29 68  1  0  0  0  0
 29 72  1  0  0  0  0
 30 61  1  0  0  0  0
 30 67  1  0  0  0  0
 30 69  2  0  0  0  0
 31 73  1  0  0  0  0
 31 78  2  0  0  0  0
 32 46  1  0  0  0  0
 32 74  1  0  0  0  0
 32 79  2  0  0  0  0
 33 62  1  0  0  0  0
 33 70  1  0  0  0  0
 33 80  2  0  0  0  0
 34 63  1  0  0  0  0
 34 75  1  0  0  0  0
 34 81  2  0  0  0  0
 35 71  1  0  0  0  0
 35 76  1  0  0  0  0
 35 82  2  0  0  0  0
 36 39  1  0  0  0  0
 37 46  1  0  0  0  0
 38 70  1  0  0  0  0
 39 41  1  0  0  0  0
 40 42  1  0  0  0  0
 40 43  1  0  0  0  0
 41 45  1  0  0  0  0
 42 47  1  0  0  0  0
 43 71  1  0  0  0  0
 44 47  1  0  0  0  0
 44 71  1  0  0  0  0
 45 74  1  0  0  0  0
 46 70  1  0  0  0  0
 47 68  1  0  0  0  0
 48 61  1  0  0  0  0
 49 61  1  0  0  0  0
 50 63  1  0  0  0  0
 51 64  1  0  0  0  0
 52 65  1  0  0  0  0
 53 65  1  0  0  0  0
 54 65  1  0  0  0  0
 55 77  1  0  0  0  0
 56 59  1  0  0  0  0
 57 58  1  0  0  0  0
 57 64  1  0  0  0  0
 58 67  1  0  0  0  0
 59 76  1  0  0  0  0
 60 64  1  0  0  0  0
 60 84  1  0  0  0  0
 62 65  1  0  0  0  0
 62 75  1  0  0  0  0
 63 77  1  0  0  0  0
 66 68  1  0  0  0  0
M  CHG  2  69   1  77   1
M  ISO  4  35 100  60 101  76 100  84 101
M  END
> <Batch ID>
0095

> <Smiles>
CNC(C)C(=O)NC(C(=O)N1Cc2cc([101O:1][101CH2:1]C(C)CCn3cc(CC[100NH:0][100C:0](=O)N4CCCC(n5nc(-c6ccc(Oc7ccc(F)cc7F)cc6)c(C(N)=O)c5N)C4)nc3C(C)C)ccc2CC1C(=O)NC1CCCc2ccccc21)C(C)(C)C

> <Shape>
0.140

> <Color>
0.175

> <Negative vol penalty>
0.000

$$$$

  -OEChem-04052319213D

 88 96  0     1  0  0  0  0  0999 V2000
  -33.3940  -25.7542   19.4654 C   0  0  0  0  0  0  0  0  0  0  0  0
  -32.0734  -25.7194   19.0321 C   0  0  0  0  0  0  0  0  0  0  0  0
  -24.5154  -10.2483   22.5747 C   0  0  0  0  0  0  0  0  0  0  0  0
  -24.5581  -11.8093   24.4182 C   0  0  0  0  0  0  0  0  0  0  0  0
  -33.6977  -26.2727   20.7224 C   0  0  0  0  0  0  0  0  0  0  0  0
  -31.0575  -26.2140   19.8506 C   0  0  0  0  0  0  0  0  0  0  0  0
  -26.5459  -26.4706   17.9056 C   0  0  0  0  0  0  0  0  0  0  0  0
  -24.1096   -9.2345   23.4426 C   0  0  0  0  0  0  0  0  0  0  0  0
  -24.1523  -10.7956   25.2861 C   0  0  0  0  0  0  0  0  0  0  0  0
  -25.7673  -25.3412   17.6563 C   0  0  0  0  0  0  0  0  0  0  0  0
  -21.2480   -8.2360   24.9417 C   0  0  0  0  0  0  0  0  0  0  0  0
  -20.2072   -7.4054   24.5266 C   0  0  0  0  0  0  0  0  0  0  0  0
  -24.4434  -25.8294   19.6129 C   0  0  0  0  0  0  0  0  0  0  0  0
  -26.4505  -20.1386   19.6335 C   0  0  0  0  0  0  0  0  0  0  0  0
  -21.6695   -5.4895   24.6935 C   0  0  0  0  0  0  0  0  0  0  0  0
  -26.2226  -21.9604   20.9369 C   0  0  0  0  0  0  0  0  0  0  0  0
  -24.7397  -11.5357   23.0625 C   0  0  0  0  0  0  0  0  0  0  0  0
  -24.3338  -13.4629   21.4411 C   0  0  0  0  0  0  0  0  0  0  0  0
  -32.6829  -26.7623   21.5612 C   0  0  0  0  0  0  0  0  0  0  0  0
  -26.2855  -27.2831   19.0185 C   0  0  0  0  0  0  0  0  0  0  0  0
  -31.3464  -26.7633   21.1129 C   0  0  0  0  0  0  0  0  0  0  0  0
  -25.2186  -26.9699   19.8727 C   0  0  0  0  0  0  0  0  0  0  0  0
  -25.5474  -21.1453   20.0555 C   0  0  0  0  0  0  0  0  0  0  0  0
  -23.9280   -9.5081   24.7982 C   0  0  0  0  0  0  0  0  0  0  0  0
  -24.7177  -25.0189   18.5116 C   0  0  0  0  0  0  0  0  0  0  0  0
  -22.4997   -7.6934   25.2326 C   0  0  0  0  0  0  0  0  0  0  0  0
  -20.4179   -6.0321   24.4026 C   0  0  0  0  0  0  0  0  0  0  0  0
  -22.7104   -6.3201   25.1086 C   0  0  0  0  0  0  0  0  0  0  0  0
  -25.1594  -12.5832   22.1666 C   0  0  0  0  0  0  0  0  0  0  0  0
  -27.6501  -20.3690   20.2702 C   0  0  0  0  0  0  0  0  0  0  0  0
  -25.2094  -14.2609   20.7461 C   0  0  0  0  0  0  0  0  0  0  0  0
  -22.9034  -13.5508   21.3992 C   0  0  0  0  0  0  0  0  0  0  0  0
  -27.9147  -28.1169   21.6174 C   0  0  0  0  0  0  0  0  0  0  0  0
  -25.3700  -30.0668   22.1121 C   0  0  0  0  0  0  0  0  0  0  0  0
  -22.0704  -30.7252   21.5414 C   0  0  0  0  0  0  0  0  0  0  0  0
  -29.8535  -17.3476   20.5232 C   0  0  0  0  0  0  0  0  0  0  0  0
  -33.0687  -27.3196   22.9088 C   0  0  0  0  0  0  0  0  0  0  0  0
  -27.1179  -28.5127   19.2585 C   0  0  0  0  0  0  0  0  0  0  0  0
  -24.8850  -27.8210   21.0697 C   0  0  0  0  0  0  0  0  0  0  0  0
  -31.8916  -27.4079   23.8746 C   0  0  0  0  0  0  0  0  0  0  0  0
  -30.2003  -13.8372   20.0407 C   0  0  0  0  0  0  0  0  0  0  0  0
  -30.7128  -28.0900   23.1965 C   0  0  0  0  0  0  0  0  0  0  0  0
  -28.8545  -13.2706   20.4966 C   0  0  0  0  0  0  0  0  0  0  0  0
  -30.6315  -15.0257   20.8970 C   0  0  0  0  0  0  0  0  0  0  0  0
  -28.2879  -15.5399   21.4598 C   0  0  0  0  0  0  0  0  0  0  0  0
  -30.2213  -27.2676   21.9985 C   0  0  1  0  0  0  0  0  0  0  0  0
  -27.0863  -28.9817   20.7099 C   0  0  1  0  0  0  0  0  0  0  0  0
  -27.7843  -14.3746   20.5910 C   0  0  2  0  0  0  0  0  0  0  0  0
  -28.3975  -19.3489   24.7752 C   0  0  0  0  0  0  0  0  0  0  0  0
  -28.8748  -23.9607   23.6761 C   0  0  0  0  0  0  0  0  0  0  0  0
  -23.2736  -20.0871   20.0620 C   0  0  0  0  0  0  0  0  0  0  0  0
  -20.2630  -32.3706   22.1099 C   0  0  0  0  0  0  0  0  0  0  0  0
  -25.1213  -28.8299   24.8903 C   0  0  0  0  0  0  0  0  0  0  0  0
  -22.8098  -29.7815   25.0308 C   0  0  0  0  0  0  0  0  0  0  0  0
  -24.7731  -31.3053   24.8155 C   0  0  0  0  0  0  0  0  0  0  0  0
  -29.7782  -22.5313   21.1233 C   0  0  0  0  0  0  0  0  0  0  0  0
  -21.6959  -31.4713   18.7020 C   0  0  0  0  0  0  0  0  0  0  0  0
  -28.9239  -19.6246   20.1906 C   0  0  0  0  0  0  0  0  0  0  0  0
  -27.8505  -20.3995   23.8189 C   0  0  0  0  0  0  0  0  0  0  0  0
  -27.9388  -23.3048   22.6640 C   0  0  0  0  0  0  0  0  0  0  0  0
  -28.9769  -21.0343   22.9907 C   0  0  0  0  0  0  0  0  0  0  0  0
  -23.9500  -21.5226   18.1000 C   0  0  0  0  0  0  0  0  0  0  0  0
  -24.5913  -22.8196   17.6155 C   0  0  0  0  0  0  0  0  0  1  0  0
  -24.1012  -21.2989   19.6171 C   0  0  2  0  0  0  0  0  0  0  0  0
  -24.0435  -29.9343   22.8204 C   0  0  1  0  0  0  0  0  0  0  0  0
  -21.3551  -31.9961   21.1201 C   0  0  2  0  0  0  0  0  0  0  0  0
  -24.1942  -29.9454   24.3679 C   0  0  0  0  0  0  0  0  0  0  0  0
  -28.5206  -22.0658   21.9002 C   0  0  2  0  0  0  0  0  0  0  0  0
  -26.4596  -12.8015   21.9523 N   0  0  0  0  0  0  0  0  0  0  0  0
  -27.4997  -21.4788   21.0601 N   0  0  0  0  0  0  0  0  0  0  0  0
  -26.4576  -13.8274   21.0841 N   0  0  0  0  0  0  0  0  0  0  0  0
  -25.7319  -29.0093   21.2656 N   0  0  0  0  0  0  0  0  0  0  0  0
  -29.5730  -16.0373   20.9441 N   0  0  0  0  0  0  0  0  0  0  0  0
  -25.0256  -15.2841   19.8849 N   0  0  0  0  0  0  0  0  0  0  0  0
  -22.1559  -12.6542   22.1749 N   0  0  0  0  0  0  0  0  0  0  0  0
  -29.2478  -28.0428   21.2614 N   0  0  0  0  0  0  0  0  0  0  0  0
  -23.1925  -30.9967   22.2953 N   0  0  0  0  0  0  0  0  0  0  0  0
  -28.7927  -18.2423   20.5942 N   0  0  0  0  0  0  0  0  0  0  0  0
  -20.7323  -31.8193   19.7778 N   0  3  0  0  0  0  0  0  0  0  0  0
  -22.3055  -14.3886   20.6822 O   0  0  0  0  0  0  0  0  0  0  0  0
  -27.3840  -27.5593   22.5709 O   0  0  0  0  0  0  0  0  0  0  0  0
  -26.0565  -31.0747   22.2974 O   0  0  0  0  0  0  0  0  0  0  0  0
  -21.6714  -29.6037   21.2356 O   0  0  0  0  0  0  0  0  0  0  0  0
  -30.9653  -17.6933   20.1093 O   0  0  0  0  0  0  0  0  0  0  0  0
  -23.5318   -8.5192   25.6453 O   0  0  0  0  0  0  0  0  0  0  0  0
  -23.9565  -23.9168   18.2709 O   0  0  0  0  0  0  0  0  0  1  0  0
  -19.4178   -5.2344   24.0054 F   0  0  0  0  0  0  0  0  0  0  0  0
  -23.9103   -5.7928   25.3878 F   0  0  0  0  0  0  0  0  0  0  0  0
  1  2  1  0  0  0  0
  1  5  2  0  0  0  0
  2  6  2  0  0  0  0
  3  8  2  0  0  0  0
  3 17  1  0  0  0  0
  4  9  1  0  0  0  0
  4 17  2  0  0  0  0
  5 19  1  0  0  0  0
  6 21  1  0  0  0  0
  7 10  2  0  0  0  0
  7 20  1  0  0  0  0
  8 24  1  0  0  0  0
  9 24  2  0  0  0  0
 10 25  1  0  0  0  0
 11 12  2  0  0  0  0
 11 26  1  0  0  0  0
 12 27  1  0  0  0  0
 13 22  1  0  0  0  0
 13 25  2  0  0  0  0
 14 23  1  0  0  0  0
 14 30  2  0  0  0  0
 15 27  2  0  0  0  0
 15 28  1  0  0  0  0
 16 23  2  0  0  0  0
 16 70  1  0  0  0  0
 17 29  1  0  0  0  0
 18 29  1  0  0  0  0
 18 31  2  0  0  0  0
 18 32  1  0  0  0  0
 19 21  2  0  0  0  0
 19 37  1  0  0  0  0
 20 22  2  0  0  0  0
 20 38  1  0  0  0  0
 21 46  1  0  0  0  0
 22 39  1  0  0  0  0
 23 64  1  0  0  0  0
 24 85  1  0  0  0  0
 25 86  1  0  0  0  0
 26 28  2  0  0  0  0
 26 85  1  0  0  0  0
 27 87  1  0  0  0  0
 28 88  1  0  0  0  0
 29 69  2  0  0  0  0
 30 58  1  0  0  0  0
 30 70  1  0  0  0  0
 31 71  1  0  0  0  0
 31 74  1  0  0  0  0
 32 75  1  0  0  0  0
 32 80  2  0  0  0  0
 33 47  1  0  0  0  0
 33 76  1  0  0  0  0
 33 81  2  0  0  0  0
 34 65  1  0  0  0  0
 34 72  1  0  0  0  0
 34 82  2  0  0  0  0
 35 66  1  0  0  0  0
 35 77  1  0  0  0  0
 35 83  2  0  0  0  0
 36 73  1  0  0  0  0
 36 78  1  0  0  0  0
 36 84  2  0  0  0  0
 37 40  1  0  0  0  0
 38 47  1  0  0  0  0
 39 72  1  0  0  0  0
 40 42  1  0  0  0  0
 41 43  1  0  0  0  0
 41 44  1  0  0  0  0
 42 46  1  0  0  0  0
 43 48  1  0  0  0  0
 44 73  1  0  0  0  0
 45 48  1  0  0  0  0
 45 73  1  0  0  0  0
 46 76  1  0  0  0  0
 47 72  1  0  0  0  0
 48 71  1  0  0  0  0
 49 59  1  0  0  0  0
 50 60  1  0  0  0  0
 51 64  1  0  0  0  0
 52 66  1  0  0  0  0
 53 67  1  0  0  0  0
 54 67  1  0  0  0  0
 55 67  1  0  0  0  0
 56 68  1  0  0  0  0
 57 79  1  0  0  0  0
 58 78  1  0  0  0  0
 59 61  1  0  0  0  0
 60 68  1  0  0  0  0
 61 68  1  0  0  0  0
 62 63  1  0  0  0  0
 62 64  1  0  0  0  0
 63 86  1  0  0  0  0
 65 67  1  0  0  0  0
 65 77  1  0  0  0  0
 66 79  1  0  0  0  0
 68 70  1  0  0  0  0
 69 71  1  0  0  0  0
M  CHG  1  79   1
M  ISO  4  36 100  63 101  78 100  86 101
M  END
> <Batch ID>
0095

> <Smiles>
CCCC(C)(CC)n1cc(C(C)C[101CH2:1][101O:1]c2ccc3c(c2)CN(C(=O)C(NC(=O)C(C)NC)C(C)(C)C)C(C(=O)NC2CCCc4ccccc42)C3)cc1C[100NH:0][100C:0](=O)N1CCCC(n2nc(-c3ccc(Oc4ccc(F)cc4F)cc3)c(C(N)=O)c2N)C1

> <Shape>
0.251

> <Color>
0.100

> <Negative vol penalty>
0.000

$$$$

  -OEChem-04052319213D

 87 95  0     1  0  0  0  0  0999 V2000
  -18.3122  -15.0236   18.4731 C   0  0  0  0  0  0  0  0  0  0  0  0
  -19.6580  -15.1106   18.8144 C   0  0  0  0  0  0  0  0  0  0  0  0
  -23.2895   -9.8244   19.9287 C   0  0  0  0  0  0  0  0  0  0  0  0
  -23.7520   -9.9774   22.2950 C   0  0  0  0  0  0  0  0  0  0  0  0
  -17.7323  -16.0066   17.6722 C   0  0  0  0  0  0  0  0  0  0  0  0
  -20.4252  -16.1802   18.3540 C   0  0  0  0  0  0  0  0  0  0  0  0
  -25.0072  -18.9664   21.3118 C   0  0  0  0  0  0  0  0  0  0  0  0
  -22.5565   -8.6581   20.1473 C   0  0  0  0  0  0  0  0  0  0  0  0
  -23.0189   -8.8110   22.5137 C   0  0  0  0  0  0  0  0  0  0  0  0
  -26.3928  -18.8340   21.2321 C   0  0  0  0  0  0  0  0  0  0  0  0
  -19.7671   -7.9227   22.7517 C   0  0  0  0  0  0  0  0  0  0  0  0
  -18.8695   -7.9138   23.8193 C   0  0  0  0  0  0  0  0  0  0  0  0
  -26.4782  -20.7052   19.7121 C   0  0  0  0  0  0  0  0  0  0  0  0
  -33.4684  -15.9539   22.7441 C   0  0  0  0  0  0  0  0  0  0  0  0
  -20.0676   -6.0651   24.8113 C   0  0  0  0  0  0  0  0  0  0  0  0
  -31.3120  -16.1074   22.1145 C   0  0  0  0  0  0  0  0  0  0  0  0
  -23.8874  -10.4841   21.0025 C   0  0  0  0  0  0  0  0  0  0  0  0
  -24.1623  -13.0110   20.7863 C   0  0  0  0  0  0  0  0  0  0  0  0
  -18.4904  -17.0939   17.2098 C   0  0  0  0  0  0  0  0  0  0  0  0
  -24.3444  -19.9640   20.5824 C   0  0  0  0  0  0  0  0  0  0  0  0
  -19.8553  -17.1779   17.5451 C   0  0  0  0  0  0  0  0  0  0  0  0
  -25.0844  -20.8498   19.7862 C   0  0  0  0  0  0  0  0  0  0  0  0
  -32.1507  -15.5253   23.0392 C   0  0  0  0  0  0  0  0  0  0  0  0
  -22.4212   -8.1514   21.4398 C   0  0  0  0  0  0  0  0  0  0  0  0
  -27.1282  -19.7016   20.4300 C   0  0  0  0  0  0  0  0  0  0  0  0
  -20.8149   -7.0028   22.7138 C   0  0  0  0  0  0  0  0  0  0  0  0
  -19.0197   -6.9851   24.8491 C   0  0  0  0  0  0  0  0  0  0  0  0
  -20.9652   -6.0740   23.7436 C   0  0  0  0  0  0  0  0  0  0  0  0
  -24.6452  -11.6887   20.7772 C   0  0  0  0  0  0  0  0  0  0  0  0
  -33.3948  -16.7850   21.6481 C   0  0  0  0  0  0  0  0  0  0  0  0
  -25.2677  -13.7820   20.5213 C   0  0  0  0  0  0  0  0  0  0  0  0
  -22.8335  -13.4988   21.0141 C   0  0  0  0  0  0  0  0  0  0  0  0
  -22.1509  -19.9779   18.2819 C   0  0  0  0  0  0  0  0  0  0  0  0
  -22.2364  -23.1857   18.7564 C   0  0  0  0  0  0  0  0  0  0  0  0
  -23.9797  -25.9068   19.8536 C   0  0  0  0  0  0  0  0  0  0  0  0
  -31.1368  -12.9058   21.3197 C   0  0  0  0  0  0  0  0  0  0  0  0
  -17.8313  -18.1069   16.3076 C   0  0  0  0  0  0  0  0  0  0  0  0
  -22.8521  -20.1106   20.7000 C   0  0  0  0  0  0  0  0  0  0  0  0
  -24.4228  -21.9504   18.9992 C   0  0  0  0  0  0  0  0  0  0  0  0
  -18.6216  -19.4057   16.1705 C   0  0  0  0  0  0  0  0  0  0  0  0
  -29.4787  -13.6362   18.2548 C   0  0  0  0  0  0  0  0  0  0  0  0
  -20.0959  -19.1091   15.9147 C   0  0  0  0  0  0  0  0  0  0  0  0
  -28.0083  -13.3392   18.5545 C   0  0  0  0  0  0  0  0  0  0  0  0
  -30.4088  -12.6553   18.9652 C   0  0  0  0  0  0  0  0  0  0  0  0
  -28.7274  -12.2483   20.7205 C   0  0  0  0  0  0  0  0  0  0  0  0
  -20.7143  -18.3360   17.0857 C   0  0  1  0  0  0  0  0  0  0  0  0
  -22.2276  -20.8368   19.5125 C   0  0  1  0  0  0  0  0  0  0  0  0
  -27.7530  -13.2457   20.0709 C   0  0  2  0  0  0  0  0  0  0  0  0
  -35.5047  -16.5508   20.2891 C   0  0  0  0  0  0  0  0  0  0  0  0
  -35.2013  -18.5352   21.8138 C   0  0  0  0  0  0  0  0  0  0  0  0
  -23.8031  -28.3999   20.0784 C   0  0  0  0  0  0  0  0  0  0  0  0
  -30.5634  -21.1347   21.6788 C   0  0  0  0  0  0  0  0  0  0  0  0
  -22.7413  -23.4890   15.7625 C   0  0  0  0  0  0  0  0  0  0  0  0
  -23.4889  -25.8385   16.1973 C   0  0  0  0  0  0  0  0  0  0  0  0
  -21.1478  -25.1584   16.7261 C   0  0  0  0  0  0  0  0  0  0  0  0
  -24.2497  -25.7768   22.7979 C   0  0  0  0  0  0  0  0  0  0  0  0
  -31.4715  -19.1862   20.3883 C   0  0  0  0  0  0  0  0  0  0  0  0
  -31.5398  -17.6766   20.1185 C   0  0  0  0  0  0  0  0  0  0  0  0
  -31.7110  -13.1314   23.7236 C   0  0  0  0  0  0  0  0  0  0  0  0
  -29.1536  -19.0589   21.4981 C   0  0  0  0  0  0  0  0  0  1  0  0
  -31.7494  -14.6219   24.1343 C   0  0  2  0  0  0  0  0  0  0  0  0
  -34.4676  -17.5022   20.9284 C   0  0  0  0  0  0  0  0  0  0  0  0
  -23.0389  -24.3299   18.1854 C   0  0  1  0  0  0  0  0  0  0  0  0
  -23.5837  -27.0583   20.7600 C   0  0  2  0  0  0  0  0  0  0  0  0
  -30.5857  -19.6038   21.5827 C   0  0  2  0  0  0  0  0  0  0  0  0
  -22.6168  -24.6821   16.7310 C   0  0  0  0  0  0  0  0  0  0  0  0
  -25.9552  -11.6198   20.5261 N   0  0  0  0  0  0  0  0  0  0  0  0
  -32.0792  -16.8712   21.2741 N   0  0  0  0  0  0  0  0  0  0  0  0
  -26.3050  -12.9086   20.3749 N   0  0  0  0  0  0  0  0  0  0  0  0
  -22.9608  -22.0490   19.1421 N   0  0  0  0  0  0  0  0  0  0  0  0
  -30.1157  -12.6151   20.4000 N   0  0  0  0  0  0  0  0  0  0  0  0
  -25.4438  -15.1150   20.4014 N   0  0  0  0  0  0  0  0  0  0  0  0
  -21.8160  -12.5702   21.2722 N   0  0  0  0  0  0  0  0  0  0  0  0
  -20.9933  -19.2291   18.1898 N   0  0  0  0  0  0  0  0  0  0  0  0
  -22.9054  -25.4335   19.1302 N   0  0  0  0  0  0  0  0  0  0  0  0
  -30.7728  -12.8513   22.6596 N   0  0  0  0  0  0  0  0  0  0  0  0
  -30.3996  -14.9557   24.7286 N   0  3  0  0  0  0  0  0  0  0  0  0
  -24.3887  -27.0309   22.0139 N   0  3  0  0  0  0  0  0  0  0  0  0
  -22.5534  -14.7208   20.9732 O   0  0  0  0  0  0  0  0  0  0  0  0
  -23.0730  -19.9947   17.4750 O   0  0  0  0  0  0  0  0  0  0  0  0
  -21.0127  -23.2993   18.8630 O   0  0  0  0  0  0  0  0  0  0  0  0
  -25.1279  -25.4731   19.7906 O   0  0  0  0  0  0  0  0  0  0  0  0
  -32.2861  -13.1979   20.9724 O   0  0  0  0  0  0  0  0  0  0  0  0
  -21.7057   -7.0134   21.6536 O   0  0  0  0  0  0  0  0  0  0  0  0
  -28.4807  -19.5741   20.3500 O   0  0  0  0  0  0  0  0  0  1  0  0
  -18.1586   -6.9776   25.8750 F   0  0  0  0  0  0  0  0  0  0  0  0
  -21.9706   -5.1886   23.7133 F   0  0  0  0  0  0  0  0  0  0  0  0
  1  2  1  0  0  0  0
  1  5  2  0  0  0  0
  2  6  2  0  0  0  0
  3  8  2  0  0  0  0
  3 17  1  0  0  0  0
  4  9  1  0  0  0  0
  4 17  2  0  0  0  0
  5 19  1  0  0  0  0
  6 21  1  0  0  0  0
  7 10  2  0  0  0  0
  7 20  1  0  0  0  0
  8 24  1  0  0  0  0
  9 24  2  0  0  0  0
 10 25  1  0  0  0  0
 11 12  2  0  0  0  0
 11 26  1  0  0  0  0
 12 27  1  0  0  0  0
 13 22  1  0  0  0  0
 13 25  2  0  0  0  0
 14 23  1  0  0  0  0
 14 30  2  0  0  0  0
 15 27  2  0  0  0  0
 15 28  1  0  0  0  0
 16 23  2  0  0  0  0
 16 68  1  0  0  0  0
 17 29  1  0  0  0  0
 18 29  1  0  0  0  0
 18 31  2  0  0  0  0
 18 32  1  0  0  0  0
 19 21  2  0  0  0  0
 19 37  1  0  0  0  0
 20 22  2  0  0  0  0
 20 38  1  0  0  0  0
 21 46  1  0  0  0  0
 22 39  1  0  0  0  0
 23 61  1  0  0  0  0
 24 84  1  0  0  0  0
 25 85  1  0  0  0  0
 26 28  2  0  0  0  0
 26 84  1  0  0  0  0
 27 86  1  0  0  0  0
 28 87  1  0  0  0  0
 29 67  2  0  0  0  0
 30 62  1  0  0  0  0
 30 68  1  0  0  0  0
 31 69  1  0  0  0  0
 31 72  1  0  0  0  0
 32 73  1  0  0  0  0
 32 79  2  0  0  0  0
 33 47  1  0  0  0  0
 33 74  1  0  0  0  0
 33 80  2  0  0  0  0
 34 63  1  0  0  0  0
 34 70  1  0  0  0  0
 34 81  2  0  0  0  0
 35 64  1  0  0  0  0
 35 75  1  0  0  0  0
 35 82  2  0  0  0  0
 36 71  1  0  0  0  0
 36 76  1  0  0  0  0
 36 83  2  0  0  0  0
 37 40  1  0  0  0  0
 38 47  1  0  0  0  0
 39 70  1  0  0  0  0
 40 42  1  0  0  0  0
 41 43  1  0  0  0  0
 41 44  1  0  0  0  0
 42 46  1  0  0  0  0
 43 48  1  0  0  0  0
 44 71  1  0  0  0  0
 45 48  1  0  0  0  0
 45 71  1  0  0  0  0
 46 74  1  0  0  0  0
 47 70  1  0  0  0  0
 48 69  1  0  0  0  0
 49 62  1  0  0  0  0
 50 62  1  0  0  0  0
 51 64  1  0  0  0  0
 52 65  1  0  0  0  0
 53 66  1  0  0  0  0
 54 66  1  0  0  0  0
 55 66  1  0  0  0  0
 56 78  1  0  0  0  0
 57 58  1  0  0  0  0
 57 65  1  0  0  0  0
 58 68  1  0  0  0  0
 59 61  1  0  0  0  0
 59 76  1  0  0  0  0
 60 65  1  0  0  0  0
 60 85  1  0  0  0  0
 61 77  1  0  0  0  0
 63 66  1  0  0  0  0
 63 75  1  0  0  0  0
 64 78  1  0  0  0  0
 67 69  1  0  0  0  0
M  CHG  2  77   1  78   1
M  ISO  4  36 100  60 101  76 100  85 101
M  END
> <Batch ID>
0095

> <Smiles>
CNC(C)C(=O)NC(C(=O)N1Cc2cc([101O:1][101CH2:1]C(C)CCn3cc(C(N)C[100NH:0][100C:0](=O)N4CCCC(n5nc(-c6ccc(Oc7ccc(F)cc7F)cc6)c(C(N)=O)c5N)C4)cc3C(C)C)ccc2CC1C(=O)NC1CCCc2ccccc21)C(C)(C)C

> <Shape>
0.185

> <Color>
0.171

> <Negative vol penalty>
0.000

$$$$

  -OEChem-04052319213D

 88 96  0     1  0  0  0  0  0999 V2000
  -35.2158  -24.4646   33.9237 C   0  0  0  0  0  0  0  0  0  0  0  0
  -34.8490  -25.2573   32.8408 C   0  0  0  0  0  0  0  0  0  0  0  0
  -23.0007   -9.8927   19.9816 C   0  0  0  0  0  0  0  0  0  0  0  0
  -23.7251   -9.9453   22.2858 C   0  0  0  0  0  0  0  0  0  0  0  0
  -35.0424  -23.0825   33.8648 C   0  0  0  0  0  0  0  0  0  0  0  0
  -34.3096  -24.6681   31.6979 C   0  0  0  0  0  0  0  0  0  0  0  0
  -29.5993  -25.9417   26.4531 C   0  0  0  0  0  0  0  0  0  0  0  0
  -22.2342   -8.7583   20.2484 C   0  0  0  0  0  0  0  0  0  0  0  0
  -22.9585   -8.8109   22.5527 C   0  0  0  0  0  0  0  0  0  0  0  0
  -29.5081  -25.9334   25.0620 C   0  0  0  0  0  0  0  0  0  0  0  0
  -23.2033   -5.4717   22.0832 C   0  0  0  0  0  0  0  0  0  0  0  0
  -23.7906   -4.4550   22.8362 C   0  0  0  0  0  0  0  0  0  0  0  0
  -29.1809  -23.5437   25.1036 C   0  0  0  0  0  0  0  0  0  0  0  0
  -31.8271  -17.4533   21.6769 C   0  0  0  0  0  0  0  0  0  0  0  0
  -22.0662   -4.6990   24.5106 C   0  0  0  0  0  0  0  0  0  0  0  0
  -23.7462  -10.4861   21.0003 C   0  0  0  0  0  0  0  0  0  0  0  0
  -24.1313  -13.0016   20.8227 C   0  0  0  0  0  0  0  0  0  0  0  0
  -34.4916  -22.4770   32.7243 C   0  0  0  0  0  0  0  0  0  0  0  0
  -29.4927  -24.7475   27.1805 C   0  0  0  0  0  0  0  0  0  0  0  0
  -34.1299  -23.2764   31.6232 C   0  0  0  0  0  0  0  0  0  0  0  0
  -29.2686  -23.5399   26.5041 C   0  0  0  0  0  0  0  0  0  0  0  0
  -31.8478  -18.7090   22.3327 C   0  0  0  0  0  0  0  0  0  0  0  0
  -22.2130   -8.2174   21.5340 C   0  0  0  0  0  0  0  0  0  0  0  0
  -29.3017  -24.7339   24.3868 C   0  0  0  0  0  0  0  0  0  0  0  0
  -22.0474   -6.1020   22.5439 C   0  0  0  0  0  0  0  0  0  0  0  0
  -23.2221   -4.0686   24.0499 C   0  0  0  0  0  0  0  0  0  0  0  0
  -21.4788   -5.7156   23.7576 C   0  0  0  0  0  0  0  0  0  0  0  0
  -24.5387  -11.6576   20.7251 C   0  0  0  0  0  0  0  0  0  0  0  0
  -30.6266  -18.8715   22.9487 C   0  0  0  0  0  0  0  0  0  0  0  0
  -30.5938  -16.8868   21.9121 C   0  0  0  0  0  0  0  0  0  0  0  0
  -25.2412  -13.7241   20.4581 C   0  0  0  0  0  0  0  0  0  0  0  0
  -22.8632  -13.5482   21.2084 C   0  0  0  0  0  0  0  0  0  0  0  0
  -31.4179  -23.1220   29.1184 C   0  0  0  0  0  0  0  0  0  0  0  0
  -28.7850  -21.2768   29.5493 C   0  0  0  0  0  0  0  0  0  0  0  0
  -25.7926  -20.1703   28.3376 C   0  0  0  0  0  0  0  0  0  0  0  0
  -30.7205  -14.6857   20.6934 C   0  0  0  0  0  0  0  0  0  0  0  0
  -34.3671  -20.9743   32.6886 C   0  0  0  0  0  0  0  0  0  0  0  0
  -29.5666  -24.7770   28.6826 C   0  0  0  0  0  0  0  0  0  0  0  0
  -29.1270  -22.2333   27.2399 C   0  0  0  0  0  0  0  0  0  0  0  0
  -33.4412  -20.4658   31.5866 C   0  0  0  0  0  0  0  0  0  0  0  0
  -29.6032  -12.2313   18.3686 C   0  0  0  0  0  0  0  0  0  0  0  0
  -33.7489  -21.1647   30.2661 C   0  0  0  0  0  0  0  0  0  0  0  0
  -28.1524  -11.9738   18.7824 C   0  0  0  0  0  0  0  0  0  0  0  0
  -30.5033  -12.4755   19.5785 C   0  0  0  0  0  0  0  0  0  0  0  0
  -28.5874  -13.2651   20.9109 C   0  0  0  0  0  0  0  0  0  0  0  0
  -33.5184  -22.6768   30.3755 C   0  0  1  0  0  0  0  0  0  0  0  0
  -29.9575  -23.4323   29.2880 C   0  0  1  0  0  0  0  0  0  0  0  0
  -27.6302  -13.0779   19.7225 C   0  0  2  0  0  0  0  0  0  0  0  0
  -30.1134  -19.9924   23.7654 C   0  0  0  0  0  0  0  0  0  0  0  0
  -34.2185  -19.0757   23.0653 C   0  0  0  0  0  0  0  0  0  0  0  0
  -23.8857  -18.6382   28.8977 C   0  0  0  0  0  0  0  0  0  0  0  0
  -28.4282  -16.3292   24.0896 C   0  0  0  0  0  0  0  0  0  0  0  0
  -27.5221  -17.4353   22.0012 C   0  0  0  0  0  0  0  0  0  0  0  0
  -30.5046  -18.8685   28.8055 C   0  0  0  0  0  0  0  0  0  0  0  0
  -28.3985  -17.5608   28.4553 C   0  0  0  0  0  0  0  0  0  0  0  0
  -28.9334  -18.4796   30.7119 C   0  0  0  0  0  0  0  0  0  0  0  0
  -23.8483  -22.4015   28.3390 C   0  0  0  0  0  0  0  0  0  0  0  0
  -30.1950  -23.9303   20.9892 C   0  0  0  0  0  0  0  0  0  0  0  0
  -33.4130  -20.1742   20.9393 C   0  0  0  0  0  0  0  0  0  0  0  0
  -30.6782  -22.7470   20.1643 C   0  0  0  0  0  0  0  0  0  0  0  0
  -32.3049  -20.8518   20.1355 C   0  0  0  0  0  0  0  0  0  0  0  0
  -29.6519  -23.5420   22.3589 C   0  0  0  0  0  0  0  0  0  1  0  0
  -33.0078  -19.6892   22.3494 C   0  0  1  0  0  0  0  0  0  0  0  0
  -28.2127  -20.0555   28.8711 C   0  0  1  0  0  0  0  0  0  0  0  0
  -24.4236  -20.0580   28.9839 C   0  0  2  0  0  0  0  0  0  0  0  0
  -28.5201  -17.5379   23.1561 C   0  0  0  0  0  0  0  0  0  0  0  0
  -29.0169  -18.7653   29.1967 C   0  0  0  0  0  0  0  0  0  0  0  0
  -25.8081  -11.5310   20.3294 N   0  0  0  0  0  0  0  0  0  0  0  0
  -29.8723  -17.7578   22.6860 N   0  0  0  0  0  0  0  0  0  0  0  0
  -26.2080  -12.8047   20.1751 N   0  0  0  0  0  0  0  0  0  0  0  0
  -29.2129  -22.3131   28.7074 N   0  0  0  0  0  0  0  0  0  0  0  0
  -29.9479  -13.5369   20.4210 N   0  0  0  0  0  0  0  0  0  0  0  0
  -25.4746  -15.0497   20.3552 N   0  0  0  0  0  0  0  0  0  0  0  0
  -21.8314  -12.6642   21.5522 N   0  0  0  0  0  0  0  0  0  0  0  0
  -30.0759  -15.6413   21.4781 N   0  0  0  0  0  0  0  0  0  0  0  0
  -32.1046  -22.9786   30.3089 N   0  0  0  0  0  0  0  0  0  0  0  0
  -26.8066  -19.9963   29.2556 N   0  0  0  0  0  0  0  0  0  0  0  0
  -23.4561  -20.9689   28.3092 N   0  3  0  0  0  0  0  0  0  0  0  0
  -31.8019  -22.0610   20.8442 N   0  3  0  0  0  0  0  0  0  0  0  0
  -22.6464  -14.7835   21.2312 O   0  0  0  0  0  0  0  0  0  0  0  0
  -31.8865  -23.0186   27.9908 O   0  0  0  0  0  0  0  0  0  0  0  0
  -28.8434  -21.3129   30.7809 O   0  0  0  0  0  0  0  0  0  0  0  0
  -25.9470  -20.3866   27.1376 O   0  0  0  0  0  0  0  0  0  0  0  0
  -31.8593  -14.8244   20.2396 O   0  0  0  0  0  0  0  0  0  0  0  0
  -21.4650   -7.1106   21.7948 O   0  0  0  0  0  0  0  0  0  0  0  0
  -29.2130  -24.7230   23.0289 O   0  0  0  0  0  0  0  0  0  1  0  0
  -23.7854   -3.0913   24.7721 F   0  0  0  0  0  0  0  0  0  0  0  0
  -20.3677   -6.3167   24.2048 F   0  0  0  0  0  0  0  0  0  0  0  0
  1  2  1  0  0  0  0
  1  5  2  0  0  0  0
  2  6  2  0  0  0  0
  3  8  2  0  0  0  0
  3 16  1  0  0  0  0
  4  9  1  0  0  0  0
  4 16  2  0  0  0  0
  5 18  1  0  0  0  0
  6 20  1  0  0  0  0
  7 10  2  0  0  0  0
  7 19  1  0  0  0  0
  8 23  1  0  0  0  0
  9 23  2  0  0  0  0
 10 24  1  0  0  0  0
 11 12  2  0  0  0  0
 11 25  1  0  0  0  0
 12 26  1  0  0  0  0
 13 21  1  0  0  0  0
 13 24  2  0  0  0  0
 14 22  1  0  0  0  0
 14 30  2  0  0  0  0
 15 26  2  0  0  0  0
 15 27  1  0  0  0  0
 16 28  1  0  0  0  0
 17 28  1  0  0  0  0
 17 31  2  0  0  0  0
 17 32  1  0  0  0  0
 18 20  2  0  0  0  0
 18 37  1  0  0  0  0
 19 21  2  0  0  0  0
 19 38  1  0  0  0  0
 20 46  1  0  0  0  0
 21 39  1  0  0  0  0
 22 29  2  0  0  0  0
 22 63  1  0  0  0  0
 23 85  1  0  0  0  0
 24 86  1  0  0  0  0
 25 27  2  0  0  0  0
 25 85  1  0  0  0  0
 26 87  1  0  0  0  0
 27 88  1  0  0  0  0
 28 68  2  0  0  0  0
 29 49  1  0  0  0  0
 29 69  1  0  0  0  0
 30 69  1  0  0  0  0
 30 75  1  0  0  0  0
 31 70  1  0  0  0  0
 31 73  1  0  0  0  0
 32 74  1  0  0  0  0
 32 80  2  0  0  0  0
 33 47  1  0  0  0  0
 33 76  1  0  0  0  0
 33 81  2  0  0  0  0
 34 64  1  0  0  0  0
 34 71  1  0  0  0  0
 34 82  2  0  0  0  0
 35 65  1  0  0  0  0
 35 77  1  0  0  0  0
 35 83  2  0  0  0  0
 36 72  1  0  0  0  0
 36 75  1  0  0  0  0
 36 84  2  0  0  0  0
 37 40  1  0  0  0  0
 38 47  1  0  0  0  0
 39 71  1  0  0  0  0
 40 42  1  0  0  0  0
 41 43  1  0  0  0  0
 41 44  1  0  0  0  0
 42 46  1  0  0  0  0
 43 48  1  0  0  0  0
 44 72  1  0  0  0  0
 45 48  1  0  0  0  0
 45 72  1  0  0  0  0
 46 76  1  0  0  0  0
 47 71  1  0  0  0  0
 48 70  1  0  0  0  0
 50 63  1  0  0  0  0
 51 65  1  0  0  0  0
 52 66  1  0  0  0  0
 53 66  1  0  0  0  0
 54 67  1  0  0  0  0
 55 67  1  0  0  0  0
 56 67  1  0  0  0  0
 57 78  1  0  0  0  0
 58 60  1  0  0  0  0
 58 62  1  0  0  0  0
 59 61  1  0  0  0  0
 59 63  1  0  0  0  0
 60 79  1  0  0  0  0
 61 79  1  0  0  0  0
 62 86  1  0  0  0  0
 64 67  1  0  0  0  0
 64 77  1  0  0  0  0
 65 78  1  0  0  0  0
 66 69  1  0  0  0  0
 68 70  1  0  0  0  0
M  CHG  2  78   1  79   1
M  ISO  4  36 100  62 101  75 100  86 101
M  END
> <Batch ID>
0095

> <Smiles>
CNC(C)C(=O)NC(C(=O)N1Cc2cc([101O:1][101CH2:1]CCNCCC(C)c3cc([100NH:0][100C:0](=O)N4CCCC(n5nc(-c6ccc(Oc7ccc(F)cc7F)cc6)c(C(N)=O)c5N)C4)n(C(C)C)c3C)ccc2CC1C(=O)NC1CCCc2ccccc21)C(C)(C)C

> <Shape>
0.188

> <Color>
0.189

> <Negative vol penalty>
0.000

$$$$

  -OEChem-04052319213D

 87 95  0     1  0  0  0  0  0999 V2000
  -23.5102  -29.4676   11.5208 C   0  0  0  0  0  0  0  0  0  0  0  0
  -23.7866  -28.1248   11.7573 C   0  0  0  0  0  0  0  0  0  0  0  0
  -23.0715   -9.8737   19.9394 C   0  0  0  0  0  0  0  0  0  0  0  0
  -23.8389   -9.8719   22.2303 C   0  0  0  0  0  0  0  0  0  0  0  0
  -24.2405  -30.4552   12.1806 C   0  0  0  0  0  0  0  0  0  0  0  0
  -24.7942  -27.7688   12.6530 C   0  0  0  0  0  0  0  0  0  0  0  0
  -24.8552  -22.9141   16.3858 C   0  0  0  0  0  0  0  0  0  0  0  0
  -22.3275   -8.7202   20.1877 C   0  0  0  0  0  0  0  0  0  0  0  0
  -23.0950   -8.7184   22.4786 C   0  0  0  0  0  0  0  0  0  0  0  0
  -25.4540  -21.6592   16.2829 C   0  0  0  0  0  0  0  0  0  0  0  0
  -21.1124   -5.9780   23.8120 C   0  0  0  0  0  0  0  0  0  0  0  0
  -20.3599   -5.9309   24.9855 C   0  0  0  0  0  0  0  0  0  0  0  0
  -27.3258  -22.4526   17.5814 C   0  0  0  0  0  0  0  0  0  0  0  0
  -28.8086  -17.9626   19.1184 C   0  0  0  0  0  0  0  0  0  0  0  0
  -19.1144   -7.8716   24.2650 C   0  0  0  0  0  0  0  0  0  0  0  0
  -26.5043  -18.1854   19.6634 C   0  0  0  0  0  0  0  0  0  0  0  0
  -23.8272  -10.4495   20.9607 C   0  0  0  0  0  0  0  0  0  0  0  0
  -24.1705  -12.9748   20.8485 C   0  0  0  0  0  0  0  0  0  0  0  0
  -25.2510  -30.1110   13.0922 C   0  0  0  0  0  0  0  0  0  0  0  0
  -25.4933  -23.9525   17.0792 C   0  0  0  0  0  0  0  0  0  0  0  0
  -25.5396  -28.7527   13.3247 C   0  0  0  0  0  0  0  0  0  0  0  0
  -26.7318  -23.7190   17.6938 C   0  0  0  0  0  0  0  0  0  0  0  0
  -27.4828  -17.9968   18.7008 C   0  0  0  0  0  0  0  0  0  0  0  0
  -29.1111  -18.1159   20.4668 C   0  0  0  0  0  0  0  0  0  0  0  0
  -22.3393   -8.1426   21.4573 C   0  0  0  0  0  0  0  0  0  0  0  0
  -26.6908  -21.4292   16.8783 C   0  0  0  0  0  0  0  0  0  0  0  0
  -20.8659   -6.9721   22.8650 C   0  0  0  0  0  0  0  0  0  0  0  0
  -19.3610   -6.8776   25.2120 C   0  0  0  0  0  0  0  0  0  0  0  0
  -19.8669   -7.9189   23.0915 C   0  0  0  0  0  0  0  0  0  0  0  0
  -24.5963  -11.6407   20.7047 C   0  0  0  0  0  0  0  0  0  0  0  0
  -28.0597  -18.2994   21.3504 C   0  0  0  0  0  0  0  0  0  0  0  0
  -25.2621  -13.7248   20.4843 C   0  0  0  0  0  0  0  0  0  0  0  0
  -22.9018  -13.4901   21.2735 C   0  0  0  0  0  0  0  0  0  0  0  0
  -26.6041  -26.8248   16.2917 C   0  0  0  0  0  0  0  0  0  0  0  0
  -27.1065  -27.0768   19.4864 C   0  0  0  0  0  0  0  0  0  0  0  0
  -27.6100  -25.5040   22.4730 C   0  0  0  0  0  0  0  0  0  0  0  0
  -30.7472  -14.7390   20.6582 C   0  0  0  0  0  0  0  0  0  0  0  0
  -26.0454  -31.2139   13.7459 C   0  0  0  0  0  0  0  0  0  0  0  0
  -24.8218  -25.2927   17.2038 C   0  0  0  0  0  0  0  0  0  0  0  0
  -27.4488  -24.7946   18.4668 C   0  0  0  0  0  0  0  0  0  0  0  0
  -26.8440  -30.7510   14.9617 C   0  0  0  0  0  0  0  0  0  0  0  0
  -29.5999  -12.3639   18.2667 C   0  0  0  0  0  0  0  0  0  0  0  0
  -27.5873  -29.4558   14.6506 C   0  0  0  0  0  0  0  0  0  0  0  0
  -28.1637  -12.0697   18.7033 C   0  0  0  0  0  0  0  0  0  0  0  0
  -30.5211  -12.5798   19.4653 C   0  0  0  0  0  0  0  0  0  0  0  0
  -28.6245  -13.3073   20.8608 C   0  0  0  0  0  0  0  0  0  0  0  0
  -26.6082  -28.3265   14.3078 C   0  0  1  0  0  0  0  0  0  0  0  0
  -25.7999  -26.4262   17.4967 C   0  0  1  0  0  0  0  0  0  0  0  0
  -27.6464  -13.1376   19.6858 C   0  0  2  0  0  0  0  0  0  0  0  0
  -26.2640  -16.5813   17.0148 C   0  0  0  0  0  0  0  0  0  0  0  0
  -27.6971  -17.3474   23.6560 C   0  0  0  0  0  0  0  0  0  0  0  0
  -27.8622  -19.8422   23.3340 C   0  0  0  0  0  0  0  0  0  0  0  0
  -28.0265  -25.9759   24.9023 C   0  0  0  0  0  0  0  0  0  0  0  0
  -31.0436  -19.3756   21.6394 C   0  0  0  0  0  0  0  0  0  0  0  0
  -31.4904  -17.8930   19.7008 C   0  0  0  0  0  0  0  0  0  0  0  0
  -30.0022  -27.7955   18.8478 C   0  0  0  0  0  0  0  0  0  0  0  0
  -30.5739  -27.3223   21.2390 C   0  0  0  0  0  0  0  0  0  0  0  0
  -28.9709  -29.1500   20.6798 C   0  0  0  0  0  0  0  0  0  0  0  0
  -25.1213  -24.1246   23.2871 C   0  0  0  0  0  0  0  0  0  0  0  0
  -30.8187  -16.8851   21.9025 C   0  0  0  0  0  0  0  0  0  0  0  0
  -26.4116  -19.0762   16.6753 C   0  0  0  0  0  0  0  0  0  1  0  0
  -27.1181  -17.8333   17.2336 C   0  0  1  0  0  0  0  0  0  0  0  0
  -28.3249  -18.4704   22.8105 C   0  0  0  0  0  0  0  0  0  0  0  0
  -28.2452  -26.7421   20.4193 C   0  0  1  0  0  0  0  0  0  0  0  0
  -26.9752  -25.7055   23.8372 C   0  0  2  0  0  0  0  0  0  0  0  0
  -30.5293  -18.0784   20.9213 C   0  0  0  0  0  0  0  0  0  0  0  0
  -29.4357  -27.7326   20.2803 C   0  0  0  0  0  0  0  0  0  0  0  0
  -26.7595  -18.3381   20.9822 N   0  0  0  0  0  0  0  0  0  0  0  0
  -25.8597  -11.5454   20.2819 N   0  0  0  0  0  0  0  0  0  0  0  0
  -26.2372  -12.8292   20.1569 N   0  0  0  0  0  0  0  0  0  0  0  0
  -26.7544  -26.0898   18.5549 N   0  0  0  0  0  0  0  0  0  0  0  0
  -29.9743  -13.6055   20.3568 N   0  0  0  0  0  0  0  0  0  0  0  0
  -25.4732  -15.0563   20.4154 N   0  0  0  0  0  0  0  0  0  0  0  0
  -21.8904  -12.5805   21.6109 N   0  0  0  0  0  0  0  0  0  0  0  0
  -26.0060  -27.7967   15.5125 N   0  0  0  0  0  0  0  0  0  0  0  0
  -27.6712  -26.6821   21.7591 N   0  0  0  0  0  0  0  0  0  0  0  0
  -30.1515  -15.6653   21.5055 N   0  0  0  0  0  0  0  0  0  0  0  0
  -26.2049  -24.4931   24.2342 N   0  3  0  0  0  0  0  0  0  0  0  0
  -22.6667  -14.7206   21.3360 O   0  0  0  0  0  0  0  0  0  0  0  0
  -27.6877  -26.2912   16.0850 O   0  0  0  0  0  0  0  0  0  0  0  0
  -26.5451  -28.1707   19.5855 O   0  0  0  0  0  0  0  0  0  0  0  0
  -28.0147  -24.4116   22.0814 O   0  0  0  0  0  0  0  0  0  0  0  0
  -31.8818  -14.9153   20.2014 O   0  0  0  0  0  0  0  0  0  0  0  0
  -21.6133   -7.0171   21.7000 O   0  0  0  0  0  0  0  0  0  0  0  0
  -27.2778  -20.2055   16.7789 O   0  0  0  0  0  0  0  0  0  1  0  0
  -18.6374   -6.8312   26.3383 F   0  0  0  0  0  0  0  0  0  0  0  0
  -19.6247   -8.8755   22.1848 F   0  0  0  0  0  0  0  0  0  0  0  0
  1  2  1  0  0  0  0
  1  5  2  0  0  0  0
  2  6  2  0  0  0  0
  3  8  2  0  0  0  0
  3 17  1  0  0  0  0
  4  9  1  0  0  0  0
  4 17  2  0  0  0  0
  5 19  1  0  0  0  0
  6 21  1  0  0  0  0
  7 10  2  0  0  0  0
  7 20  1  0  0  0  0
  8 25  1  0  0  0  0
  9 25  2  0  0  0  0
 10 26  1  0  0  0  0
 11 12  2  0  0  0  0
 11 27  1  0  0  0  0
 12 28  1  0  0  0  0
 13 22  1  0  0  0  0
 13 26  2  0  0  0  0
 14 23  2  0  0  0  0
 14 24  1  0  0  0  0
 15 28  2  0  0  0  0
 15 29  1  0  0  0  0
 16 23  1  0  0  0  0
 16 68  2  0  0  0  0
 17 30  1  0  0  0  0
 18 30  1  0  0  0  0
 18 32  2  0  0  0  0
 18 33  1  0  0  0  0
 19 21  2  0  0  0  0
 19 38  1  0  0  0  0
 20 22  2  0  0  0  0
 20 39  1  0  0  0  0
 21 47  1  0  0  0  0
 22 40  1  0  0  0  0
 23 62  1  0  0  0  0
 24 31  2  0  0  0  0
 24 66  1  0  0  0  0
 25 84  1  0  0  0  0
 26 85  1  0  0  0  0
 27 29  2  0  0  0  0
 27 84  1  0  0  0  0
 28 86  1  0  0  0  0
 29 87  1  0  0  0  0
 30 69  2  0  0  0  0
 31 63  1  0  0  0  0
 31 68  1  0  0  0  0
 32 70  1  0  0  0  0
 32 73  1  0  0  0  0
 33 74  1  0  0  0  0
 33 79  2  0  0  0  0
 34 48  1  0  0  0  0
 34 75  1  0  0  0  0
 34 80  2  0  0  0  0
 35 64  1  0  0  0  0
 35 71  1  0  0  0  0
 35 81  2  0  0  0  0
 36 65  1  0  0  0  0
 36 76  1  0  0  0  0
 36 82  2  0  0  0  0
 37 72  1  0  0  0  0
 37 77  1  0  0  0  0
 37 83  2  0  0  0  0
 38 41  1  0  0  0  0
 39 48  1  0  0  0  0
 40 71  1  0  0  0  0
 41 43  1  0  0  0  0
 42 44  1  0  0  0  0
 42 45  1  0  0  0  0
 43 47  1  0  0  0  0
 44 49  1  0  0  0  0
 45 72  1  0  0  0  0
 46 49  1  0  0  0  0
 46 72  1  0  0  0  0
 47 75  1  0  0  0  0
 48 71  1  0  0  0  0
 49 70  1  0  0  0  0
 50 62  1  0  0  0  0
 51 63  1  0  0  0  0
 52 63  1  0  0  0  0
 53 65  1  0  0  0  0
 54 66  1  0  0  0  0
 55 66  1  0  0  0  0
 56 67  1  0  0  0  0
 57 67  1  0  0  0  0
 58 67  1  0  0  0  0
 59 78  1  0  0  0  0
 60 66  1  0  0  0  0
 60 77  1  0  0  0  0
 61 62  1  0  0  0  0
 61 85  1  0  0  0  0
 64 67  1  0  0  0  0
 64 76  1  0  0  0  0
 65 78  1  0  0  0  0
 69 70  1  0  0  0  0
M  CHG  1  78   1
M  ISO  4  37 100  61 101  77 100  85 101
M  END
> <Batch ID>
0095

> <Smiles>
CNC(C)C(=O)NC(C(=O)N1Cc2cc([101O:1][101CH2:1]C(C)c3cnc(C(C)C)c(C(C)(C)C[100NH:0][100C:0](=O)N4CCCC(n5nc(-c6ccc(Oc7ccc(F)cc7F)cc6)c(C(N)=O)c5N)C4)c3)ccc2CC1C(=O)NC1CCCc2ccccc21)C(C)(C)C

> <Shape>
0.240

> <Color>
0.184

> <Negative vol penalty>
0.000

$$$$

  -OEChem-04052319213D

 89 97  0     1  0  0  0  0  0999 V2000
  -31.5160  -23.3946   16.2953 C   0  0  0  0  0  0  0  0  0  0  0  0
  -30.3430  -23.0918   16.9793 C   0  0  0  0  0  0  0  0  0  0  0  0
  -24.0295  -10.8480   23.5754 C   0  0  0  0  0  0  0  0  0  0  0  0
  -24.1215  -13.1800   24.2001 C   0  0  0  0  0  0  0  0  0  0  0  0
  -32.3881  -24.3573   16.8018 C   0  0  0  0  0  0  0  0  0  0  0  0
  -30.0420  -23.7507   18.1707 C   0  0  0  0  0  0  0  0  0  0  0  0
  -25.2135  -25.2616   18.3889 C   0  0  0  0  0  0  0  0  0  0  0  0
  -23.5164  -10.5312   24.8331 C   0  0  0  0  0  0  0  0  0  0  0  0
  -23.6084  -12.8632   25.4579 C   0  0  0  0  0  0  0  0  0  0  0  0
  -24.2565  -24.2937   18.6909 C   0  0  0  0  0  0  0  0  0  0  0  0
  -20.5928  -12.1580   26.8106 C   0  0  0  0  0  0  0  0  0  0  0  0
  -19.5756  -12.9673   27.3165 C   0  0  0  0  0  0  0  0  0  0  0  0
  -24.2129  -25.0590   20.9781 C   0  0  0  0  0  0  0  0  0  0  0  0
  -25.5681  -21.2222   21.6054 C   0  0  0  0  0  0  0  0  0  0  0  0
  -20.9643  -13.5276   29.2125 C   0  0  0  0  0  0  0  0  0  0  0  0
  -24.3321  -12.1724   23.2588 C   0  0  0  0  0  0  0  0  0  0  0  0
  -24.1332  -12.8386   20.8044 C   0  0  0  0  0  0  0  0  0  0  0  0
  -32.0930  -25.0353   17.9951 C   0  0  0  0  0  0  0  0  0  0  0  0
  -25.6861  -26.1298   19.3836 C   0  0  0  0  0  0  0  0  0  0  0  0
  -30.9117  -24.7224   18.6944 C   0  0  0  0  0  0  0  0  0  0  0  0
  -25.1740  -26.0387   20.6857 C   0  0  0  0  0  0  0  0  0  0  0  0
  -26.8987  -20.8606   21.3950 C   0  0  0  0  0  0  0  0  0  0  0  0
  -24.5548  -20.2769   21.4459 C   0  0  0  0  0  0  0  0  0  0  0  0
  -24.8722  -18.9700   21.0759 C   0  0  0  0  0  0  0  0  0  0  0  0
  -26.2028  -18.6084   20.8655 C   0  0  0  0  0  0  0  0  0  0  0  0
  -27.2161  -19.5537   21.0250 C   0  0  0  0  0  0  0  0  0  0  0  0
  -23.3058  -11.5388   25.7744 C   0  0  0  0  0  0  0  0  0  0  0  0
  -23.7581  -24.1904   19.9863 C   0  0  0  0  0  0  0  0  0  0  0  0
  -21.7958  -12.0334   27.5057 C   0  0  0  0  0  0  0  0  0  0  0  0
  -19.7614  -13.6522   28.5174 C   0  0  0  0  0  0  0  0  0  0  0  0
  -21.9815  -12.7182   28.7066 C   0  0  0  0  0  0  0  0  0  0  0  0
  -24.8626  -12.5001   21.9599 C   0  0  0  0  0  0  0  0  0  0  0  0
  -25.0917  -13.0586   19.8455 C   0  0  0  0  0  0  0  0  0  0  0  0
  -22.7160  -12.9448   20.6148 C   0  0  0  0  0  0  0  0  0  0  0  0
  -28.5206  -26.6931   20.7073 C   0  0  0  0  0  0  0  0  0  0  0  0
  -26.9175  -29.0947   22.1854 C   0  0  0  0  0  0  0  0  0  0  0  0
  -23.9351  -30.3491   23.2709 C   0  0  0  0  0  0  0  0  0  0  0  0
  -30.8508  -14.6716   20.1317 C   0  0  0  0  0  0  0  0  0  0  0  0
  -33.0894  -26.0342   18.5280 C   0  0  0  0  0  0  0  0  0  0  0  0
  -26.6990  -27.1859   19.0355 C   0  0  0  0  0  0  0  0  0  0  0  0
  -25.6337  -26.9601   21.7849 C   0  0  0  0  0  0  0  0  0  0  0  0
  -32.5143  -26.9548   19.6013 C   0  0  0  0  0  0  0  0  0  0  0  0
  -29.5215  -11.7412   18.6077 C   0  0  0  0  0  0  0  0  0  0  0  0
  -31.7269  -26.1491   20.6297 C   0  0  0  0  0  0  0  0  0  0  0  0
  -28.1109  -11.6340   19.1898 C   0  0  0  0  0  0  0  0  0  0  0  0
  -30.5186  -12.2670   19.6379 C   0  0  0  0  0  0  0  0  0  0  0  0
  -28.7236  -13.4310   20.8613 C   0  0  0  0  0  0  0  0  0  0  0  0
  -30.5381  -25.4333   19.9770 C   0  0  1  0  0  0  0  0  0  0  0  0
  -27.4864  -27.6803   20.2450 C   0  0  1  0  0  0  0  0  0  0  0  0
  -27.6718  -12.9581   19.8433 C   0  0  2  0  0  0  0  0  0  0  0  0
  -27.9645  -21.8921   21.5720 C   0  0  0  0  0  0  0  0  0  0  0  0
  -23.7833  -17.9585   20.9048 C   0  0  0  0  0  0  0  0  0  0  0  0
  -26.5433  -17.2063   20.4692 C   0  0  0  0  0  0  0  0  0  0  0  0
  -22.9471  -32.3148   24.4780 C   0  0  0  0  0  0  0  0  0  0  0  0
  -27.9424  -27.9801   24.8344 C   0  0  0  0  0  0  0  0  0  0  0  0
  -26.2040  -29.3507   26.0038 C   0  0  0  0  0  0  0  0  0  0  0  0
  -27.9845  -30.4749   24.6664 C   0  0  0  0  0  0  0  0  0  0  0  0
  -31.1215  -17.2867   23.2066 C   0  0  0  0  0  0  0  0  0  0  0  0
  -31.5894  -19.2680   21.7713 C   0  0  0  0  0  0  0  0  0  0  0  0
  -22.2776  -31.0974   20.9360 C   0  0  0  0  0  0  0  0  0  0  0  0
  -23.1248  -20.6937   21.6803 C   0  0  0  0  0  0  0  0  0  0  0  0
  -28.6440  -19.1684   20.8002 C   0  0  0  0  0  0  0  0  0  0  0  0
  -22.3249  -20.9020   20.3926 C   0  0  0  0  0  0  0  0  0  0  0  0
  -29.2178  -18.3785   21.9906 C   0  0  0  0  0  0  0  0  0  0  0  0
  -31.0318  -17.0837   20.6869 C   0  0  0  0  0  0  0  0  0  0  0  0
  -22.8594  -22.0370   19.5268 C   0  0  0  0  0  0  0  0  0  1  0  0
  -26.1385  -29.2270   23.4717 C   0  0  1  0  0  0  0  0  0  0  0  0
  -23.3070  -31.7233   23.1240 C   0  0  2  0  0  0  0  0  0  0  0  0
  -27.0599  -29.2394   24.7241 C   0  0  0  0  0  0  0  0  0  0  0  0
  -30.7226  -17.9984   21.8956 C   0  0  0  0  0  0  0  0  0  0  0  0
  -26.1826  -12.5033   21.7558 N   0  0  0  0  0  0  0  0  0  0  0  0
  -26.2902  -12.8464   20.4609 N   0  0  0  0  0  0  0  0  0  0  0  0
  -26.6299  -27.9720   21.3963 N   0  0  0  0  0  0  0  0  0  0  0  0
  -30.0437  -13.5252   20.2185 N   0  0  0  0  0  0  0  0  0  0  0  0
  -25.0177  -13.4108   18.5444 N   0  0  0  0  0  0  0  0  0  0  0  0
  -21.8747  -12.6851   21.7053 N   0  0  0  0  0  0  0  0  0  0  0  0
  -29.4543  -26.3635   19.7435 N   0  0  0  0  0  0  0  0  0  0  0  0
  -25.3110  -30.4198   23.3269 N   0  0  0  0  0  0  0  0  0  0  0  0
  -30.3229  -15.8235   20.7020 N   0  0  0  0  0  0  0  0  0  0  0  0
  -22.0663  -31.6406   22.3025 N   0  3  0  0  0  0  0  0  0  0  0  0
  -22.2101  -13.2447   19.5068 O   0  0  0  0  0  0  0  0  0  0  0  0
  -28.4756  -26.2634   21.8541 O   0  0  0  0  0  0  0  0  0  0  0  0
  -27.7455  -29.9594   21.8882 O   0  0  0  0  0  0  0  0  0  0  0  0
  -23.2714  -29.3166   23.3337 O   0  0  0  0  0  0  0  0  0  0  0  0
  -31.9573  -14.6701   19.5816 O   0  0  0  0  0  0  0  0  0  0  0  0
  -22.8050  -11.2302   27.0018 O   0  0  0  0  0  0  0  0  0  0  0  0
  -22.8245  -23.2462   20.2838 O   0  0  0  0  0  0  0  0  0  1  0  0
  -18.7851  -14.4305   29.0023 F   0  0  0  0  0  0  0  0  0  0  0  0
  -23.1354  -12.6034   29.3782 F   0  0  0  0  0  0  0  0  0  0  0  0
  1  2  1  0  0  0  0
  1  5  2  0  0  0  0
  2  6  2  0  0  0  0
  3  8  2  0  0  0  0
  3 16  1  0  0  0  0
  4  9  1  0  0  0  0
  4 16  2  0  0  0  0
  5 18  1  0  0  0  0
  6 20  1  0  0  0  0
  7 10  2  0  0  0  0
  7 19  1  0  0  0  0
  8 27  1  0  0  0  0
  9 27  2  0  0  0  0
 10 28  1  0  0  0  0
 11 12  2  0  0  0  0
 11 29  1  0  0  0  0
 12 30  1  0  0  0  0
 13 21  1  0  0  0  0
 13 28  2  0  0  0  0
 14 22  2  0  0  0  0
 14 23  1  0  0  0  0
 15 30  2  0  0  0  0
 15 31  1  0  0  0  0
 16 32  1  0  0  0  0
 17 32  1  0  0  0  0
 17 33  2  0  0  0  0
 17 34  1  0  0  0  0
 18 20  2  0  0  0  0
 18 39  1  0  0  0  0
 19 21  2  0  0  0  0
 19 40  1  0  0  0  0
 20 48  1  0  0  0  0
 21 41  1  0  0  0  0
 22 26  1  0  0  0  0
 22 51  1  0  0  0  0
 23 24  2  0  0  0  0
 23 61  1  0  0  0  0
 24 25  1  0  0  0  0
 24 52  1  0  0  0  0
 25 26  2  0  0  0  0
 25 53  1  0  0  0  0
 26 62  1  0  0  0  0
 27 86  1  0  0  0  0
 28 87  1  0  0  0  0
 29 31  2  0  0  0  0
 29 86  1  0  0  0  0
 30 88  1  0  0  0  0
 31 89  1  0  0  0  0
 32 71  2  0  0  0  0
 33 72  1  0  0  0  0
 33 75  1  0  0  0  0
 34 76  1  0  0  0  0
 34 81  2  0  0  0  0
 35 49  1  0  0  0  0
 35 77  1  0  0  0  0
 35 82  2  0  0  0  0
 36 67  1  0  0  0  0
 36 73  1  0  0  0  0
 36 83  2  0  0  0  0
 37 68  1  0  0  0  0
 37 78  1  0  0  0  0
 37 84  2  0  0  0  0
 38 74  1  0  0  0  0
 38 79  1  0  0  0  0
 38 85  2  0  0  0  0
 39 42  1  0  0  0  0
 40 49  1  0  0  0  0
 41 73  1  0  0  0  0
 42 44  1  0  0  0  0
 43 45  1  0  0  0  0
 43 46  1  0  0  0  0
 44 48  1  0  0  0  0
 45 50  1  0  0  0  0
 46 74  1  0  0  0  0
 47 50  1  0  0  0  0
 47 74  1  0  0  0  0
 48 77  1  0  0  0  0
 49 73  1  0  0  0  0
 50 72  1  0  0  0  0
 54 68  1  0  0  0  0
 55 69  1  0  0  0  0
 56 69  1  0  0  0  0
 57 69  1  0  0  0  0
 58 70  1  0  0  0  0
 59 70  1  0  0  0  0
 60 80  1  0  0  0  0
 61 63  1  0  0  0  0
 62 64  1  0  0  0  0
 63 66  1  0  0  0  0
 64 70  1  0  0  0  0
 65 70  1  0  0  0  0
 65 79  1  0  0  0  0
 66 87  1  0  0  0  0
 67 69  1  0  0  0  0
 67 78  1  0  0  0  0
 68 80  1  0  0  0  0
 71 72  1  0  0  0  0
M  CHG  1  80   1
M  ISO  4  38 100  66 101  79 100  87 101
M  END
> <Batch ID>
0095

> <Smiles>
CNC(C)C(=O)NC(C(=O)N1Cc2cc([101O:1][101CH2:1]CCc3cc(C)c(CCC(C)(C)C[100NH:0][100C:0](=O)N4CCCC(n5nc(-c6ccc(Oc7ccc(F)cc7F)cc6)c(C(N)=O)c5N)C4)c(C)c3C)ccc2CC1C(=O)NC1CCCc2ccccc21)C(C)(C)C

> <Shape>
0.246

> <Color>
0.092

> <Negative vol penalty>
0.000

$$$$

  -OEChem-04052319213D

 86 94  0     1  0  0  0  0  0999 V2000
  -22.7625  -22.6713   13.7643 C   0  0  0  0  0  0  0  0  0  0  0  0
  -23.4784  -22.4736   14.9406 C   0  0  0  0  0  0  0  0  0  0  0  0
  -23.0591   -9.9345   19.9127 C   0  0  0  0  0  0  0  0  0  0  0  0
  -23.8511   -9.8663   22.1942 C   0  0  0  0  0  0  0  0  0  0  0  0
  -22.8094  -23.9070   13.1204 C   0  0  0  0  0  0  0  0  0  0  0  0
  -24.2425  -23.5113   15.4732 C   0  0  0  0  0  0  0  0  0  0  0  0
  -23.6362  -24.0001   20.4771 C   0  0  0  0  0  0  0  0  0  0  0  0
  -22.3090   -8.7804   20.1386 C   0  0  0  0  0  0  0  0  0  0  0  0
  -23.1010   -8.7122   22.4201 C   0  0  0  0  0  0  0  0  0  0  0  0
  -24.3127  -23.0934   21.2920 C   0  0  0  0  0  0  0  0  0  0  0  0
  -19.8749   -7.9228   23.0444 C   0  0  0  0  0  0  0  0  0  0  0  0
  -19.1341   -7.8538   24.2243 C   0  0  0  0  0  0  0  0  0  0  0  0
  -26.0166  -24.7492   21.7095 C   0  0  0  0  0  0  0  0  0  0  0  0
  -20.3691   -5.8851   24.8845 C   0  0  0  0  0  0  0  0  0  0  0  0
  -28.3293  -21.8831   19.8125 C   0  0  0  0  0  0  0  0  0  0  0  0
  -23.8302  -10.4774   20.9405 C   0  0  0  0  0  0  0  0  0  0  0  0
  -24.1919  -13.0021   20.8914 C   0  0  0  0  0  0  0  0  0  0  0  0
  -23.5668  -24.9634   13.6505 C   0  0  0  0  0  0  0  0  0  0  0  0
  -24.1514  -25.2867   20.2632 C   0  0  0  0  0  0  0  0  0  0  0  0
  -24.3007  -24.7619   14.8351 C   0  0  0  0  0  0  0  0  0  0  0  0
  -25.3435  -25.6712   20.8935 C   0  0  0  0  0  0  0  0  0  0  0  0
  -28.5767  -20.8084   20.6513 C   0  0  0  0  0  0  0  0  0  0  0  0
  -28.8327  -19.5727   20.0675 C   0  0  0  0  0  0  0  0  0  0  0  0
  -28.8334  -19.4512   18.6824 C   0  0  0  0  0  0  0  0  0  0  0  0
  -22.3299   -8.1693   21.3923 C   0  0  0  0  0  0  0  0  0  0  0  0
  -25.5045  -23.4669   21.9061 C   0  0  0  0  0  0  0  0  0  0  0  0
  -20.8627   -6.9729   22.7845 C   0  0  0  0  0  0  0  0  0  0  0  0
  -19.3812   -6.8350   25.1443 C   0  0  0  0  0  0  0  0  0  0  0  0
  -21.1099   -5.9541   23.7046 C   0  0  0  0  0  0  0  0  0  0  0  0
  -24.6058  -11.6692   20.7077 C   0  0  0  0  0  0  0  0  0  0  0  0
  -28.5743  -20.5866   17.9318 C   0  0  0  0  0  0  0  0  0  0  0  0
  -25.2852  -13.7533   20.5352 C   0  0  0  0  0  0  0  0  0  0  0  0
  -22.9319  -13.5154   21.3437 C   0  0  0  0  0  0  0  0  0  0  0  0
  -25.1595  -26.9051   17.7199 C   0  0  0  0  0  0  0  0  0  0  0  0
  -25.3686  -29.3487   19.8430 C   0  0  0  0  0  0  0  0  0  0  0  0
  -25.7014  -30.3451   23.0900 C   0  0  0  0  0  0  0  0  0  0  0  0
  -30.7796  -14.7217   20.6758 C   0  0  0  0  0  0  0  0  0  0  0  0
  -23.6245  -26.2666   12.8936 C   0  0  0  0  0  0  0  0  0  0  0  0
  -23.3959  -26.2620   19.4027 C   0  0  0  0  0  0  0  0  0  0  0  0
  -25.9282  -27.0473   20.7124 C   0  0  0  0  0  0  0  0  0  0  0  0
  -24.1590  -27.4304   13.7243 C   0  0  0  0  0  0  0  0  0  0  0  0
  -29.5883  -12.4194   18.2351 C   0  0  0  0  0  0  0  0  0  0  0  0
  -25.4175  -27.0139   14.4789 C   0  0  0  0  0  0  0  0  0  0  0  0
  -28.1546  -12.1245   18.6795 C   0  0  0  0  0  0  0  0  0  0  0  0
  -30.5240  -12.5966   19.4289 C   0  0  0  0  0  0  0  0  0  0  0  0
  -28.6482  -13.3010   20.8638 C   0  0  0  0  0  0  0  0  0  0  0  0
  -25.1213  -25.8708   15.4572 C   0  0  1  0  0  0  0  0  0  0  0  0
  -24.2784  -27.3735   18.8432 C   0  0  1  0  0  0  0  0  0  0  0  0
  -27.6562  -13.1698   19.6954 C   0  0  2  0  0  0  0  0  0  0  0  0
  -29.1063  -18.1395   18.0260 C   0  0  0  0  0  0  0  0  0  0  0  0
  -27.5714  -21.5029   15.8243 C   0  0  0  0  0  0  0  0  0  0  0  0
  -25.8786  -32.4068   24.5096 C   0  0  0  0  0  0  0  0  0  0  0  0
  -28.2627  -29.7133   18.9480 C   0  0  0  0  0  0  0  0  0  0  0  0
  -28.6517  -31.0894   21.0030 C   0  0  0  0  0  0  0  0  0  0  0  0
  -27.0008  -31.8448   19.2923 C   0  0  0  0  0  0  0  0  0  0  0  0
  -23.2349  -29.6715   24.5805 C   0  0  0  0  0  0  0  0  0  0  0  0
  -28.5628  -20.9997   22.1469 C   0  0  0  0  0  0  0  0  0  0  0  0
  -29.1058  -18.3807   20.9279 C   0  0  0  0  0  0  0  0  0  0  0  0
  -28.5606  -20.5178   16.4396 C   0  0  0  0  0  0  0  0  0  0  0  0
  -27.2966  -20.4704   22.8237 C   0  0  0  0  0  0  0  0  0  0  0  0
  -30.5970  -18.0182   21.0547 C   0  0  0  0  0  0  0  0  0  0  0  0
  -30.8811  -16.8335   21.9756 C   0  0  0  0  0  0  0  0  0  0  0  0
  -26.0300  -21.1982   22.3884 C   0  0  0  0  0  0  0  0  0  1  0  0
  -26.4398  -29.8713   20.7695 C   0  0  1  0  0  0  0  0  0  0  0  0
  -24.9405  -31.3694   23.9123 C   0  0  2  0  0  0  0  0  0  0  0  0
  -27.5790  -30.6030   20.0053 C   0  0  0  0  0  0  0  0  0  0  0  0
  -28.3215  -21.8038   18.4630 N   0  0  0  0  0  0  0  0  0  0  0  0
  -25.8638  -11.5757   20.2687 N   0  0  0  0  0  0  0  0  0  0  0  0
  -26.2498  -12.8595   20.1736 N   0  0  0  0  0  0  0  0  0  0  0  0
  -25.1556  -27.9630   19.8567 N   0  0  0  0  0  0  0  0  0  0  0  0
  -29.9947  -13.6024   20.3531 N   0  0  0  0  0  0  0  0  0  0  0  0
  -25.5059  -15.0846   20.4992 N   0  0  0  0  0  0  0  0  0  0  0  0
  -21.9170  -12.6047   21.6679 N   0  0  0  0  0  0  0  0  0  0  0  0
  -24.4689  -26.3785   16.6451 N   0  0  0  0  0  0  0  0  0  0  0  0
  -25.7564  -30.6982   21.7583 N   0  0  0  0  0  0  0  0  0  0  0  0
  -30.2002  -15.6296   21.5538 N   0  0  0  0  0  0  0  0  0  0  0  0
  -24.2096  -30.7005   25.0255 N   0  3  0  0  0  0  0  0  0  0  0  0
  -22.7070  -14.7456   21.4412 O   0  0  0  0  0  0  0  0  0  0  0  0
  -26.3759  -27.0148   17.8202 O   0  0  0  0  0  0  0  0  0  0  0  0
  -24.7389  -30.1416   19.1384 O   0  0  0  0  0  0  0  0  0  0  0  0
  -26.2005  -29.3347   23.5806 O   0  0  0  0  0  0  0  0  0  0  0  0
  -31.9105  -14.9015   20.2115 O   0  0  0  0  0  0  0  0  0  0  0  0
  -21.5979   -7.0432   21.6131 O   0  0  0  0  0  0  0  0  0  0  0  0
  -26.1671  -22.5836   22.7015 O   0  0  0  0  0  0  0  0  0  1  0  0
  -18.6708   -6.7697   26.2780 F   0  0  0  0  0  0  0  0  0  0  0  0
  -22.0584   -5.0393   23.4610 F   0  0  0  0  0  0  0  0  0  0  0  0
  1  2  1  0  0  0  0
  1  5  2  0  0  0  0
  2  6  2  0  0  0  0
  3  8  2  0  0  0  0
  3 16  1  0  0  0  0
  4  9  1  0  0  0  0
  4 16  2  0  0  0  0
  5 18  1  0  0  0  0
  6 20  1  0  0  0  0
  7 10  2  0  0  0  0
  7 19  1  0  0  0  0
  8 25  1  0  0  0  0
  9 25  2  0  0  0  0
 10 26  1  0  0  0  0
 11 12  2  0  0  0  0
 11 27  1  0  0  0  0
 12 28  1  0  0  0  0
 13 21  1  0  0  0  0
 13 26  2  0  0  0  0
 14 28  2  0  0  0  0
 14 29  1  0  0  0  0
 15 22  1  0  0  0  0
 15 67  2  0  0  0  0
 16 30  1  0  0  0  0
 17 30  1  0  0  0  0
 17 32  2  0  0  0  0
 17 33  1  0  0  0  0
 18 20  2  0  0  0  0
 18 38  1  0  0  0  0
 19 21  2  0  0  0  0
 19 39  1  0  0  0  0
 20 47  1  0  0  0  0
 21 40  1  0  0  0  0
 22 23  2  0  0  0  0
 22 57  1  0  0  0  0
 23 24  1  0  0  0  0
 23 58  1  0  0  0  0
 24 31  2  0  0  0  0
 24 50  1  0  0  0  0
 25 83  1  0  0  0  0
 26 84  1  0  0  0  0
 27 29  2  0  0  0  0
 27 83  1  0  0  0  0
 28 85  1  0  0  0  0
 29 86  1  0  0  0  0
 30 68  2  0  0  0  0
 31 59  1  0  0  0  0
 31 67  1  0  0  0  0
 32 69  1  0  0  0  0
 32 72  1  0  0  0  0
 33 73  1  0  0  0  0
 33 78  2  0  0  0  0
 34 48  1  0  0  0  0
 34 74  1  0  0  0  0
 34 79  2  0  0  0  0
 35 64  1  0  0  0  0
 35 70  1  0  0  0  0
 35 80  2  0  0  0  0
 36 65  1  0  0  0  0
 36 75  1  0  0  0  0
 36 81  2  0  0  0  0
 37 71  1  0  0  0  0
 37 76  1  0  0  0  0
 37 82  2  0  0  0  0
 38 41  1  0  0  0  0
 39 48  1  0  0  0  0
 40 70  1  0  0  0  0
 41 43  1  0  0  0  0
 42 44  1  0  0  0  0
 42 45  1  0  0  0  0
 43 47  1  0  0  0  0
 44 49  1  0  0  0  0
 45 71  1  0  0  0  0
 46 49  1  0  0  0  0
 46 71  1  0  0  0  0
 47 74  1  0  0  0  0
 48 70  1  0  0  0  0
 49 69  1  0  0  0  0
 51 59  1  0  0  0  0
 52 65  1  0  0  0  0
 53 66  1  0  0  0  0
 54 66  1  0  0  0  0
 55 66  1  0  0  0  0
 56 77  1  0  0  0  0
 57 60  1  0  0  0  0
 58 61  1  0  0  0  0
 60 63  1  0  0  0  0
 61 62  1  0  0  0  0
 62 76  1  0  0  0  0
 63 84  1  0  0  0  0
 64 66  1  0  0  0  0
 64 75  1  0  0  0  0
 65 77  1  0  0  0  0
 68 69  1  0  0  0  0
M  CHG  1  77   1
M  ISO  4  37 100  63 101  76 100  84 101
M  END
> <Batch ID>
0095

> <Smiles>
CCc1ncc(CC[101CH2:1][101O:1]c2ccc3c(c2)CN(C(=O)C(NC(=O)C(C)NC)C(C)(C)C)C(C(=O)NC2CCCc4ccccc42)C3)c(CCC[100NH:0][100C:0](=O)N2CCCC(n3nc(-c4ccc(Oc5ccc(F)cc5F)cc4)c(C(N)=O)c3N)C2)c1C

> <Shape>
0.307

> <Color>
0.194

> <Negative vol penalty>
0.000

$$$$

  -OEChem-04052319213D

 84 92  0     1  0  0  0  0  0999 V2000
  -17.1263  -30.1558   24.6171 C   0  0  0  0  0  0  0  0  0  0  0  0
  -17.7226  -28.9004   24.6794 C   0  0  0  0  0  0  0  0  0  0  0  0
  -26.8686  -11.8803   20.0840 C   0  0  0  0  0  0  0  0  0  0  0  0
  -25.6212  -13.9384   19.8716 C   0  0  0  0  0  0  0  0  0  0  0  0
  -17.4187  -31.0134   23.5574 C   0  0  0  0  0  0  0  0  0  0  0  0
  -18.6109  -28.5015   23.6813 C   0  0  0  0  0  0  0  0  0  0  0  0
  -23.5787  -24.9857   24.3645 C   0  0  0  0  0  0  0  0  0  0  0  0
  -25.8477  -11.3422   20.8673 C   0  0  0  0  0  0  0  0  0  0  0  0
  -24.6001  -13.4003   20.6550 C   0  0  0  0  0  0  0  0  0  0  0  0
  -23.8032  -23.6269   24.1476 C   0  0  0  0  0  0  0  0  0  0  0  0
  -23.4079   -9.2976   22.6230 C   0  0  0  0  0  0  0  0  0  0  0  0
  -22.9970   -7.9937   22.3465 C   0  0  0  0  0  0  0  0  0  0  0  0
  -24.6822  -24.1279   21.9577 C   0  0  0  0  0  0  0  0  0  0  0  0
  -22.3859   -8.6612   20.1064 C   0  0  0  0  0  0  0  0  0  0  0  0
  -27.1428  -20.4871   21.4994 C   0  0  0  0  0  0  0  0  0  0  0  0
  -29.2400  -20.7843   23.1244 C   0  0  0  0  0  0  0  0  0  0  0  0
  -26.7554  -13.1784   19.5861 C   0  0  0  0  0  0  0  0  0  0  0  0
  -27.9339  -13.6658   17.3768 C   0  0  0  0  0  0  0  0  0  0  0  0
  -18.3184  -30.6285   22.5509 C   0  0  0  0  0  0  0  0  0  0  0  0
  -23.8947  -25.9264   23.3736 C   0  0  0  0  0  0  0  0  0  0  0  0
  -18.9146  -29.3542   22.6064 C   0  0  0  0  0  0  0  0  0  0  0  0
  -24.4631  -25.4982   22.1654 C   0  0  0  0  0  0  0  0  0  0  0  0
  -24.7134  -12.1022   21.1528 C   0  0  0  0  0  0  0  0  0  0  0  0
  -24.3524  -23.1975   22.9430 C   0  0  0  0  0  0  0  0  0  0  0  0
  -23.3077  -10.2835   21.6412 C   0  0  0  0  0  0  0  0  0  0  0  0
  -22.4860   -7.6755   21.0882 C   0  0  0  0  0  0  0  0  0  0  0  0
  -22.7967   -9.9652   20.3829 C   0  0  0  0  0  0  0  0  0  0  0  0
  -27.8100  -13.7350   18.7774 C   0  0  0  0  0  0  0  0  0  0  0  0
  -27.0271  -20.2745   22.8555 C   0  0  0  0  0  0  0  0  0  0  0  0
  -29.3561  -20.9963   21.7683 C   0  0  0  0  0  0  0  0  0  0  0  0
  -29.0965  -14.3431   17.1010 C   0  0  0  0  0  0  0  0  0  0  0  0
  -27.0747  -13.0449   16.4113 C   0  0  0  0  0  0  0  0  0  0  0  0
  -22.2320  -28.0279   21.6639 C   0  0  0  0  0  0  0  0  0  0  0  0
  -25.1731  -28.9311   20.6359 C   0  0  0  0  0  0  0  0  0  0  0  0
  -28.4451  -28.1045   20.1287 C   0  0  0  0  0  0  0  0  0  0  0  0
  -32.1008  -18.6350   20.0000 C   0  0  0  0  0  0  0  0  0  0  0  0
  -18.5669  -31.5712   21.4002 C   0  0  0  0  0  0  0  0  0  0  0  0
  -23.6712  -27.3909   23.6335 C   0  0  0  0  0  0  0  0  0  0  0  0
  -24.8387  -26.4697   21.0775 C   0  0  0  0  0  0  0  0  0  0  0  0
  -19.8062  -31.2193   20.5813 C   0  0  0  0  0  0  0  0  0  0  0  0
  -33.3368  -15.4413   19.0258 C   0  0  0  0  0  0  0  0  0  0  0  0
  -19.8337  -29.7264   20.2692 C   0  0  0  0  0  0  0  0  0  0  0  0
  -32.0717  -14.6356   18.7253 C   0  0  0  0  0  0  0  0  0  0  0  0
  -33.1337  -16.3926   20.2030 C   0  0  0  0  0  0  0  0  0  0  0  0
  -30.7082  -16.4886   19.7770 C   0  0  0  0  0  0  0  0  0  0  0  0
  -19.9024  -28.8950   21.5559 C   0  0  1  0  0  0  0  0  0  0  0  0
  -23.5537  -28.2137   22.3541 C   0  0  1  0  0  0  0  0  0  0  0  0
  -30.8467  -15.5554   18.5620 C   0  0  2  0  0  0  0  0  0  0  0  0
  -30.5977  -29.0384   19.2389 C   0  0  0  0  0  0  0  0  0  0  0  0
  -31.0493  -23.5062   22.5954 C   0  0  0  0  0  0  0  0  0  0  0  0
  -29.9542  -23.7768   20.3587 C   0  0  0  0  0  0  0  0  0  0  0  0
  -24.1538  -28.5571   17.7844 C   0  0  0  0  0  0  0  0  0  0  0  0
  -26.5336  -28.5665   17.0068 C   0  0  0  0  0  0  0  0  0  0  0  0
  -25.5807  -30.5825   18.1249 C   0  0  0  0  0  0  0  0  0  0  0  0
  -29.7954  -27.7947   22.7440 C   0  0  0  0  0  0  0  0  0  0  0  0
  -25.7041  -19.8670   23.4571 C   0  0  0  0  0  0  0  0  0  0  0  0
  -30.9256  -20.8075   19.7581 C   0  0  0  0  0  0  0  0  0  0  0  0
  -24.8610  -21.0680   23.8716 C   0  0  0  0  0  0  0  0  0  1  0  0
  -30.6608  -21.3987   21.1750 C   0  0  1  0  0  0  0  0  0  0  0  0
  -26.0814  -28.5220   19.5017 C   0  0  1  0  0  0  0  0  0  0  0  0
  -29.7327  -28.8315   20.4725 C   0  0  2  0  0  0  0  0  0  0  0  0
  -30.9514  -22.9465   21.1713 C   0  0  0  0  0  0  0  0  0  0  0  0
  -25.5786  -29.0383   18.1240 C   0  0  0  0  0  0  0  0  0  0  0  0
  -28.0734  -20.4196   23.6924 N   0  0  0  0  0  0  0  0  0  0  0  0
  -28.3095  -20.8515   20.9314 N   0  0  0  0  0  0  0  0  0  0  0  0
  -28.8140  -14.4033   19.3514 N   0  0  0  0  0  0  0  0  0  0  0  0
  -29.5798  -14.7602   18.3063 N   0  0  0  0  0  0  0  0  0  0  0  0
  -24.5950  -27.8905   21.3767 N   0  0  0  0  0  0  0  0  0  0  0  0
  -31.9573  -17.2378   19.9848 N   0  0  0  0  0  0  0  0  0  0  0  0
  -29.7425  -14.6164   15.9476 N   0  0  0  0  0  0  0  0  0  0  0  0
  -25.9211  -12.3917   16.8659 N   0  0  0  0  0  0  0  0  0  0  0  0
  -21.2477  -28.8995   22.0893 N   0  0  0  0  0  0  0  0  0  0  0  0
  -27.4175  -28.9843   19.8617 N   0  0  0  0  0  0  0  0  0  0  0  0
  -30.9374  -19.3617   19.7785 N   0  0  0  0  0  0  0  0  0  0  0  0
  -30.5171  -28.0516   21.4712 N   0  3  0  0  0  0  0  0  0  0  0  0
  -27.3313  -13.0546   15.1835 O   0  0  0  0  0  0  0  0  0  0  0  0
  -22.1145  -27.1592   20.8077 O   0  0  0  0  0  0  0  0  0  0  0  0
  -24.9890  -30.1299   20.8610 O   0  0  0  0  0  0  0  0  0  0  0  0
  -28.3605  -26.8788   20.0964 O   0  0  0  0  0  0  0  0  0  0  0  0
  -33.1864  -19.1935   20.1912 O   0  0  0  0  0  0  0  0  0  0  0  0
  -23.7168  -11.5774   21.9170 O   0  0  0  0  0  0  0  0  0  0  0  0
  -24.5719  -21.8718   22.7284 O   0  0  0  0  0  0  0  0  0  1  0  0
  -22.0929   -6.4229   20.8224 F   0  0  0  0  0  0  0  0  0  0  0  0
  -22.6992  -10.9077   19.4353 F   0  0  0  0  0  0  0  0  0  0  0  0
  1  2  1  0  0  0  0
  1  5  2  0  0  0  0
  2  6  2  0  0  0  0
  3  8  2  0  0  0  0
  3 17  1  0  0  0  0
  4  9  1  0  0  0  0
  4 17  2  0  0  0  0
  5 19  1  0  0  0  0
  6 21  1  0  0  0  0
  7 10  2  0  0  0  0
  7 20  1  0  0  0  0
  8 23  1  0  0  0  0
  9 23  2  0  0  0  0
 10 24  1  0  0  0  0
 11 12  2  0  0  0  0
 11 25  1  0  0  0  0
 12 26  1  0  0  0  0
 13 22  1  0  0  0  0
 13 24  2  0  0  0  0
 14 26  2  0  0  0  0
 14 27  1  0  0  0  0
 15 29  1  0  0  0  0
 15 65  2  0  0  0  0
 16 30  2  0  0  0  0
 16 64  1  0  0  0  0
 17 28  1  0  0  0  0
 18 28  1  0  0  0  0
 18 31  2  0  0  0  0
 18 32  1  0  0  0  0
 19 21  2  0  0  0  0
 19 37  1  0  0  0  0
 20 22  2  0  0  0  0
 20 38  1  0  0  0  0
 21 46  1  0  0  0  0
 22 39  1  0  0  0  0
 23 81  1  0  0  0  0
 24 82  1  0  0  0  0
 25 27  2  0  0  0  0
 25 81  1  0  0  0  0
 26 83  1  0  0  0  0
 27 84  1  0  0  0  0
 28 66  2  0  0  0  0
 29 56  1  0  0  0  0
 29 64  2  0  0  0  0
 30 59  1  0  0  0  0
 30 65  1  0  0  0  0
 31 67  1  0  0  0  0
 31 70  1  0  0  0  0
 32 71  1  0  0  0  0
 32 76  2  0  0  0  0
 33 47  1  0  0  0  0
 33 72  1  0  0  0  0
 33 77  2  0  0  0  0
 34 60  1  0  0  0  0
 34 68  1  0  0  0  0
 34 78  2  0  0  0  0
 35 61  1  0  0  0  0
 35 73  1  0  0  0  0
 35 79  2  0  0  0  0
 36 69  1  0  0  0  0
 36 74  1  0  0  0  0
 36 80  2  0  0  0  0
 37 40  1  0  0  0  0
 38 47  1  0  0  0  0
 39 68  1  0  0  0  0
 40 42  1  0  0  0  0
 41 43  1  0  0  0  0
 41 44  1  0  0  0  0
 42 46  1  0  0  0  0
 43 48  1  0  0  0  0
 44 69  1  0  0  0  0
 45 48  1  0  0  0  0
 45 69  1  0  0  0  0
 46 72  1  0  0  0  0
 47 68  1  0  0  0  0
 48 67  1  0  0  0  0
 49 61  1  0  0  0  0
 50 62  1  0  0  0  0
 51 62  1  0  0  0  0
 52 63  1  0  0  0  0
 53 63  1  0  0  0  0
 54 63  1  0  0  0  0
 55 75  1  0  0  0  0
 56 58  1  0  0  0  0
 57 59  1  0  0  0  0
 57 74  1  0  0  0  0
 58 82  1  0  0  0  0
 59 62  1  0  0  0  0
 60 63  1  0  0  0  0
 60 73  1  0  0  0  0
 61 75  1  0  0  0  0
 66 67  1  0  0  0  0
M  CHG  1  75   1
M  ISO  4  36 100  58 101  74 100  82 101
M  END
> <Batch ID>
0095

> <Smiles>
CNC(C)C(=O)NC(C(=O)N1Cc2cc([101O:1][101CH2:1]Cc3cnc(C(C[100NH:0][100C:0](=O)N4CCCC(n5nc(-c6ccc(Oc7ccc(F)cc7F)cc6)c(C(N)=O)c5N)C4)C(C)C)cn3)ccc2CC1C(=O)NC1CCCc2ccccc21)C(C)(C)C

> <Shape>
0.223

> <Color>
0.080

> <Negative vol penalty>
0.000

$$$$

  -OEChem-04052319213D

 89 97  0     1  0  0  0  0  0999 V2000
  -26.0540  -38.3708   24.1966 C   0  0  0  0  0  0  0  0  0  0  0  0
  -26.7491  -37.6166   23.2567 C   0  0  0  0  0  0  0  0  0  0  0  0
  -23.6142   -8.7872   22.1761 C   0  0  0  0  0  0  0  0  0  0  0  0
  -23.7862  -10.0667   20.1340 C   0  0  0  0  0  0  0  0  0  0  0  0
  -25.3973  -37.7363   25.2502 C   0  0  0  0  0  0  0  0  0  0  0  0
  -26.7889  -36.2274   23.3706 C   0  0  0  0  0  0  0  0  0  0  0  0
  -27.0355  -30.3013   19.3534 C   0  0  0  0  0  0  0  0  0  0  0  0
  -22.2882   -8.4795   21.8717 C   0  0  0  0  0  0  0  0  0  0  0  0
  -22.4602   -9.7589   19.8294 C   0  0  0  0  0  0  0  0  0  0  0  0
  -27.7736  -29.1273   19.2101 C   0  0  0  0  0  0  0  0  0  0  0  0
  -20.6296   -6.3306   19.8556 C   0  0  0  0  0  0  0  0  0  0  0  0
  -20.2156   -5.0094   20.0244 C   0  0  0  0  0  0  0  0  0  0  0  0
  -26.5360  -28.1344   21.0271 C   0  0  0  0  0  0  0  0  0  0  0  0
  -18.5541   -5.7339   21.6217 C   0  0  0  0  0  0  0  0  0  0  0  0
  -24.3631   -9.5809   21.3073 C   0  0  0  0  0  0  0  0  0  0  0  0
  -26.7950   -8.9948   21.8076 C   0  0  0  0  0  0  0  0  0  0  0  0
  -25.4211  -36.3380   25.3716 C   0  0  0  0  0  0  0  0  0  0  0  0
  -26.0479  -30.4047   20.3436 C   0  0  0  0  0  0  0  0  0  0  0  0
  -26.1332  -35.5737   24.4276 C   0  0  0  0  0  0  0  0  0  0  0  0
  -25.7850  -29.3100   21.1794 C   0  0  0  0  0  0  0  0  0  0  0  0
  -21.7112   -8.9652   20.6983 C   0  0  0  0  0  0  0  0  0  0  0  0
  -27.5259  -28.0446   20.0488 C   0  0  0  0  0  0  0  0  0  0  0  0
  -20.0059   -7.3536   20.5700 C   0  0  0  0  0  0  0  0  0  0  0  0
  -19.1779   -4.7110   20.9074 C   0  0  0  0  0  0  0  0  0  0  0  0
  -18.9681   -7.0552   21.4530 C   0  0  0  0  0  0  0  0  0  0  0  0
  -25.7327   -9.8997   21.6216 C   0  0  0  0  0  0  0  0  0  0  0  0
  -27.8797   -9.7908   22.0836 C   0  0  0  0  0  0  0  0  0  0  0  0
  -26.8007   -7.5628   21.7372 C   0  0  0  0  0  0  0  0  0  0  0  0
  -25.6116  -32.2535   22.8922 C   0  0  0  0  0  0  0  0  0  0  0  0
  -22.7499  -30.7316   23.0221 C   0  0  0  0  0  0  0  0  0  0  0  0
  -21.5362  -27.3632   22.5772 C   0  0  0  0  0  0  0  0  0  0  0  0
  -28.6616  -15.6434   20.6501 C   0  0  0  0  0  0  0  0  0  0  0  0
  -24.7359  -35.7003   26.5542 C   0  0  0  0  0  0  0  0  0  0  0  0
  -25.2421  -31.6687   20.4678 C   0  0  0  0  0  0  0  0  0  0  0  0
  -24.7217  -29.3630   22.2448 C   0  0  0  0  0  0  0  0  0  0  0  0
  -24.5133  -34.1988   26.3924 C   0  0  0  0  0  0  0  0  0  0  0  0
  -29.0562  -14.0070   23.9906 C   0  0  0  0  0  0  0  0  0  0  0  0
  -25.7821  -33.5229   25.8825 C   0  0  0  0  0  0  0  0  0  0  0  0
  -28.2698  -12.7146   23.7768 C   0  0  0  0  0  0  0  0  0  0  0  0
  -29.6944  -24.4179   19.6293 C   0  0  0  0  0  0  0  0  0  0  0  0
  -27.4746  -23.2268   19.6929 C   0  0  0  0  0  0  0  0  0  0  0  0
  -28.5134  -15.1337   23.1198 C   0  0  0  0  0  0  0  0  0  0  0  0
  -27.6906  -13.5151   21.4405 C   0  0  0  0  0  0  0  0  0  0  0  0
  -30.2847  -23.2620   18.8337 C   0  0  0  0  0  0  0  0  0  0  0  0
  -28.0760  -22.0770   18.8965 C   0  0  0  0  0  0  0  0  0  0  0  0
  -26.1787  -34.0629   24.5032 C   0  0  1  0  0  0  0  0  0  0  0  0
  -24.6133  -31.8434   21.8468 C   0  0  1  0  0  0  0  0  0  0  0  0
  -28.1846  -24.5538   19.4024 C   0  0  0  0  0  0  0  0  0  0  0  0
  -28.2172  -12.3429   22.2851 C   0  0  2  0  0  0  0  0  0  0  0  0
  -31.4213  -16.9755   16.9167 C   0  0  0  0  0  0  0  0  0  0  0  0
  -19.2819  -26.5222   21.8643 C   0  0  0  0  0  0  0  0  0  0  0  0
  -22.1857  -30.5677   26.0162 C   0  0  0  0  0  0  0  0  0  0  0  0
  -20.9302  -28.4434   25.5925 C   0  0  0  0  0  0  0  0  0  0  0  0
  -20.1459  -30.5789   24.5693 C   0  0  0  0  0  0  0  0  0  0  0  0
  -32.6687  -21.1849   18.7371 C   0  0  0  0  0  0  0  0  0  0  0  0
  -31.3315  -20.5293   20.7450 C   0  0  0  0  0  0  0  0  0  0  0  0
  -33.2897  -18.4445   18.9144 C   0  0  0  0  0  0  0  0  0  0  0  0
  -29.0553  -17.4575   22.3687 C   0  0  0  0  0  0  0  0  0  0  0  0
  -22.6980  -25.7822   20.3614 C   0  0  0  0  0  0  0  0  0  0  0  0
  -27.6065  -25.6772   20.2605 C   0  0  0  0  0  0  0  0  0  1  0  0
  -31.2417  -18.3969   17.4368 C   0  0  0  0  0  0  0  0  0  0  0  0
  -31.0269  -17.8097   19.9341 C   0  0  0  0  0  0  0  0  0  0  0  0
  -29.4964  -17.8632   19.9755 C   0  0  0  0  0  0  0  0  0  0  0  0
  -30.1775  -20.7927   18.5125 C   0  0  0  0  0  0  0  0  0  0  0  0
  -22.2375  -29.4725   23.6787 C   0  0  1  0  0  0  0  0  0  0  0  0
  -20.7007  -26.8436   21.4211 C   0  0  2  0  0  0  0  0  0  0  0  0
  -21.4020  -29.7682   24.9562 C   0  0  0  0  0  0  0  0  0  0  0  0
  -31.4839  -20.3014   19.2160 C   0  0  0  0  0  0  0  0  0  0  0  0
  -31.7636  -18.7231   18.8845 C   0  0  1  0  0  0  0  0  0  0  0  0
  -26.1086  -11.1731   21.7672 N   0  0  0  0  0  0  0  0  0  0  0  0
  -27.4191  -11.0741   22.0478 N   0  0  0  0  0  0  0  0  0  0  0  0
  -23.9650  -30.6229   22.3310 N   0  0  0  0  0  0  0  0  0  0  0  0
  -28.4458  -14.7419   21.7056 N   0  0  0  0  0  0  0  0  0  0  0  0
  -29.1731   -9.5113   22.3510 N   0  0  0  0  0  0  0  0  0  0  0  0
  -25.5995   -6.9036   21.4426 N   0  0  0  0  0  0  0  0  0  0  0  0
  -25.3465  -33.4789   23.4733 N   0  0  0  0  0  0  0  0  0  0  0  0
  -21.5120  -28.7401   22.6464 N   0  0  0  0  0  0  0  0  0  0  0  0
  -28.9650  -16.9692   20.9945 N   0  0  0  0  0  0  0  0  0  0  0  0
  -29.5553  -21.9874   19.1813 N   0  3  0  0  0  0  0  0  0  0  0  0
  -21.3091  -25.6052   20.8579 N   0  3  0  0  0  0  0  0  0  0  0  0
  -27.8367   -6.8870   21.9459 O   0  0  0  0  0  0  0  0  0  0  0  0
  -26.5520  -31.5124   23.1534 O   0  0  0  0  0  0  0  0  0  0  0  0
  -22.0926  -31.7715   23.1128 O   0  0  0  0  0  0  0  0  0  0  0  0
  -22.1461  -26.6217   23.3444 O   0  0  0  0  0  0  0  0  0  0  0  0
  -28.5975  -15.2813   19.4683 O   0  0  0  0  0  0  0  0  0  0  0  0
  -20.4175   -8.6649   20.4008 O   0  0  0  0  0  0  0  0  0  0  0  0
  -28.2520  -26.8871   19.9102 O   0  0  0  0  0  0  0  0  0  1  0  0
  -18.7794   -3.4423   21.0681 F   0  0  0  0  0  0  0  0  0  0  0  0
  -18.3643   -8.0338   22.1411 F   0  0  0  0  0  0  0  0  0  0  0  0
  1  2  1  0  0  0  0
  1  5  2  0  0  0  0
  2  6  2  0  0  0  0
  3  8  2  0  0  0  0
  3 15  1  0  0  0  0
  4  9  1  0  0  0  0
  4 15  2  0  0  0  0
  5 17  1  0  0  0  0
  6 19  1  0  0  0  0
  7 10  2  0  0  0  0
  7 18  1  0  0  0  0
  8 21  1  0  0  0  0
  9 21  2  0  0  0  0
 10 22  1  0  0  0  0
 11 12  2  0  0  0  0
 11 23  1  0  0  0  0
 12 24  1  0  0  0  0
 13 20  1  0  0  0  0
 13 22  2  0  0  0  0
 14 24  2  0  0  0  0
 14 25  1  0  0  0  0
 15 26  1  0  0  0  0
 16 26  1  0  0  0  0
 16 27  2  0  0  0  0
 16 28  1  0  0  0  0
 17 19  2  0  0  0  0
 17 33  1  0  0  0  0
 18 20  2  0  0  0  0
 18 34  1  0  0  0  0
 19 46  1  0  0  0  0
 20 35  1  0  0  0  0
 21 86  1  0  0  0  0
 22 87  1  0  0  0  0
 23 25  2  0  0  0  0
 23 86  1  0  0  0  0
 24 88  1  0  0  0  0
 25 89  1  0  0  0  0
 26 70  2  0  0  0  0
 27 71  1  0  0  0  0
 27 74  1  0  0  0  0
 28 75  1  0  0  0  0
 28 81  2  0  0  0  0
 29 47  1  0  0  0  0
 29 76  1  0  0  0  0
 29 82  2  0  0  0  0
 30 65  1  0  0  0  0
 30 72  1  0  0  0  0
 30 83  2  0  0  0  0
 31 66  1  0  0  0  0
 31 77  1  0  0  0  0
 31 84  2  0  0  0  0
 32 73  1  0  0  0  0
 32 78  1  0  0  0  0
 32 85  2  0  0  0  0
 33 36  1  0  0  0  0
 34 47  1  0  0  0  0
 35 72  1  0  0  0  0
 36 38  1  0  0  0  0
 37 39  1  0  0  0  0
 37 42  1  0  0  0  0
 38 46  1  0  0  0  0
 39 49  1  0  0  0  0
 40 44  1  0  0  0  0
 40 48  1  0  0  0  0
 41 45  1  0  0  0  0
 41 48  1  0  0  0  0
 42 73  1  0  0  0  0
 43 49  1  0  0  0  0
 43 73  1  0  0  0  0
 44 79  1  0  0  0  0
 45 79  1  0  0  0  0
 46 76  1  0  0  0  0
 47 72  1  0  0  0  0
 48 60  1  0  0  0  0
 49 71  1  0  0  0  0
 50 61  1  0  0  0  0
 51 66  1  0  0  0  0
 52 67  1  0  0  0  0
 53 67  1  0  0  0  0
 54 67  1  0  0  0  0
 55 68  1  0  0  0  0
 56 68  1  0  0  0  0
 57 69  1  0  0  0  0
 58 78  1  0  0  0  0
 59 80  1  0  0  0  0
 60 87  1  0  0  0  0
 61 69  1  0  0  0  0
 62 63  1  0  0  0  0
 62 69  1  0  0  0  0
 63 78  1  0  0  0  0
 64 68  1  0  0  0  0
 64 79  1  0  0  0  0
 65 67  1  0  0  0  0
 65 77  1  0  0  0  0
 66 80  1  0  0  0  0
 68 69  1  0  0  0  0
 70 71  1  0  0  0  0
M  CHG  2  79   1  80   1
M  ISO  4  32 100  60 101  78 100  87 101
M  END
> <Batch ID>
0095

> <Smiles>
CCC(C)(CC[100N:0](C)[100C:0](=O)N1CCCC(n2nc(-c3ccc(Oc4ccc(F)cc4F)cc3)c(C(N)=O)c2N)C1)C(C)(C)CN1CCC([101CH2:1][101O:1]c2ccc3c(c2)CN(C(=O)C(NC(=O)C(C)NC)C(C)(C)C)C(C(=O)NC2CCCc4ccccc42)C3)CC1

> <Shape>
0.275

> <Color>
0.075

> <Negative vol penalty>
0.000

$$$$

  -OEChem-04052319213D

 87 95  0     1  0  0  0  0  0999 V2000
  -16.9136  -29.0706   24.0467 C   0  0  0  0  0  0  0  0  0  0  0  0
  -17.3156  -27.8984   23.4143 C   0  0  0  0  0  0  0  0  0  0  0  0
  -30.3751  -19.9288   18.3725 C   0  0  0  0  0  0  0  0  0  0  0  0
  -29.3698  -20.2181   20.5503 C   0  0  0  0  0  0  0  0  0  0  0  0
  -17.7129  -30.2105   23.9728 C   0  0  0  0  0  0  0  0  0  0  0  0
  -18.5167  -27.8659   22.7067 C   0  0  0  0  0  0  0  0  0  0  0  0
  -22.3654  -23.1290   22.2022 C   0  0  0  0  0  0  0  0  0  0  0  0
  -30.0782  -21.2552   18.0593 C   0  0  0  0  0  0  0  0  0  0  0  0
  -29.0730  -21.5445   20.2371 C   0  0  0  0  0  0  0  0  0  0  0  0
  -22.5496  -22.1721   21.2050 C   0  0  0  0  0  0  0  0  0  0  0  0
  -29.9074  -24.6689   16.8212 C   0  0  0  0  0  0  0  0  0  0  0  0
  -30.9042  -25.4296   16.2103 C   0  0  0  0  0  0  0  0  0  0  0  0
  -24.3420  -23.4931   20.2770 C   0  0  0  0  0  0  0  0  0  0  0  0
  -32.3421  -25.0791   18.1199 C   0  0  0  0  0  0  0  0  0  0  0  0
  -30.0208  -19.4102   19.6180 C   0  0  0  0  0  0  0  0  0  0  0  0
  -31.4993  -17.5512   20.5484 C   0  0  0  0  0  0  0  0  0  0  0  0
  -18.9291  -30.1893   23.2720 C   0  0  0  0  0  0  0  0  0  0  0  0
  -23.1622  -24.2823   22.2379 C   0  0  0  0  0  0  0  0  0  0  0  0
  -19.3323  -29.0071   22.6222 C   0  0  0  0  0  0  0  0  0  0  0  0
  -24.1677  -24.4618   21.2771 C   0  0  0  0  0  0  0  0  0  0  0  0
  -23.0213  -13.8025   22.2514 C   0  0  0  0  0  0  0  0  0  0  0  0
  -29.4272  -22.0631   18.9915 C   0  0  0  0  0  0  0  0  0  0  0  0
  -23.5361  -22.3555   20.2405 C   0  0  0  0  0  0  0  0  0  0  0  0
  -30.1279  -24.1132   18.0815 C   0  0  0  0  0  0  0  0  0  0  0  0
  -32.1216  -25.6347   16.8596 C   0  0  0  0  0  0  0  0  0  0  0  0
  -31.3453  -24.3183   18.7308 C   0  0  0  0  0  0  0  0  0  0  0  0
  -30.3267  -18.0400   19.9420 C   0  0  0  0  0  0  0  0  0  0  0  0
  -23.9121  -12.8125   22.7077 C   0  0  0  0  0  0  0  0  0  0  0  0
  -21.8479  -13.1275   22.0185 C   0  0  0  0  0  0  0  0  0  0  0  0
  -31.3002  -16.1951   20.6375 C   0  0  0  0  0  0  0  0  0  0  0  0
  -32.6644  -18.2596   20.9916 C   0  0  0  0  0  0  0  0  0  0  0  0
  -22.6035  -27.4028   22.0065 C   0  0  0  0  0  0  0  0  0  0  0  0
  -25.7598  -27.6255   22.7210 C   0  0  0  0  0  0  0  0  0  0  0  0
  -28.8396  -26.1554   22.7272 C   0  0  0  0  0  0  0  0  0  0  0  0
  -26.3707  -12.8041   20.8650 C   0  0  0  0  0  0  0  0  0  0  0  0
  -19.7363  -31.4599   23.1802 C   0  0  0  0  0  0  0  0  0  0  0  0
  -22.9687  -25.2920   23.3358 C   0  0  0  0  0  0  0  0  0  0  0  0
  -25.0632  -25.6728   21.2833 C   0  0  0  0  0  0  0  0  0  0  0  0
  -21.1760  -31.2353   22.7250 C   0  0  0  0  0  0  0  0  0  0  0  0
  -29.0026  -12.5979   18.4761 C   0  0  0  0  0  0  0  0  0  0  0  0
  -21.2150  -30.3038   21.5177 C   0  0  0  0  0  0  0  0  0  0  0  0
  -29.7462  -13.9251   18.6356 C   0  0  0  0  0  0  0  0  0  0  0  0
  -27.4962  -12.7695   18.6586 C   0  0  0  0  0  0  0  0  0  0  0  0
  -27.8394  -14.7571   20.0746 C   0  0  0  0  0  0  0  0  0  0  0  0
  -20.6405  -28.9253   21.8658 C   0  0  1  0  0  0  0  0  0  0  0  0
  -23.4957  -26.6771   22.9734 C   0  0  1  0  0  0  0  0  0  0  0  0
  -29.3673  -14.6251   19.9546 C   0  0  2  0  0  0  0  0  0  0  0  0
  -20.5365  -13.5938   21.5300 C   0  0  0  0  0  0  0  0  0  0  0  0
  -31.2328  -26.5987   23.3382 C   0  0  0  0  0  0  0  0  0  0  0  0
  -22.7446  -17.2722   18.0539 C   0  0  0  0  0  0  0  0  0  0  0  0
  -25.7914  -19.3693   19.1668 C   0  0  0  0  0  0  0  0  0  0  0  0
  -26.0753  -29.3503   20.2239 C   0  0  0  0  0  0  0  0  0  0  0  0
  -28.5458  -28.9670   20.3561 C   0  0  0  0  0  0  0  0  0  0  0  0
  -27.3674  -30.1463   22.2117 C   0  0  0  0  0  0  0  0  0  0  0  0
  -21.1715  -10.7192   22.2591 C   0  0  0  0  0  0  0  0  0  0  0  0
  -28.8677  -23.9454   24.6955 C   0  0  0  0  0  0  0  0  0  0  0  0
  -23.2910  -15.2738   22.0594 C   0  0  0  0  0  0  0  0  0  0  0  0
  -25.3207  -12.9791   23.1069 C   0  0  0  0  0  0  0  0  0  0  0  0
  -23.4812  -15.6863   20.5938 C   0  0  0  0  0  0  0  0  0  0  0  0
  -23.6795  -17.1994   20.4199 C   0  0  0  0  0  0  0  0  0  0  0  0
  -23.4056  -20.0704   19.5947 C   0  0  0  0  0  0  0  0  0  1  0  0
  -27.0380  -27.6568   21.9184 C   0  0  1  0  0  0  0  0  0  0  0  0
  -29.8988  -26.0404   23.8086 C   0  0  2  0  0  0  0  0  0  0  0  0
  -23.9388  -17.6181   18.9548 C   0  0  2  0  0  0  0  0  0  0  0  0
  -24.3188  -19.1214   18.8048 C   0  0  2  0  0  0  0  0  0  0  0  0
  -27.2386  -29.0081   21.1760 C   0  0  0  0  0  0  0  0  0  0  0  0
  -29.4477  -17.0730   19.6652 N   0  0  0  0  0  0  0  0  0  0  0  0
  -23.3526  -11.6009   22.7623 N   0  0  0  0  0  0  0  0  0  0  0  0
  -22.0975  -11.8251   22.3374 N   0  0  0  0  0  0  0  0  0  0  0  0
  -30.0685  -15.9631   20.0997 N   0  0  0  0  0  0  0  0  0  0  0  0
  -24.8307  -26.6347   22.3733 N   0  0  0  0  0  0  0  0  0  0  0  0
  -27.2044  -13.4379   19.9289 N   0  0  0  0  0  0  0  0  0  0  0  0
  -32.0603  -15.1905   21.1227 N   0  0  0  0  0  0  0  0  0  0  0  0
  -32.7044  -19.6506   20.8245 N   0  0  0  0  0  0  0  0  0  0  0  0
  -21.6081  -28.1476   22.6098 N   0  0  0  0  0  0  0  0  0  0  0  0
  -28.1115  -27.3201   22.8471 N   0  0  0  0  0  0  0  0  0  0  0  0
  -26.1506  -13.5035   22.0453 N   0  0  0  0  0  0  0  0  0  0  0  0
  -30.0952  -24.6137   24.1917 N   0  3  0  0  0  0  0  0  0  0  0  0
  -33.6479  -17.6744   21.5052 O   0  0  0  0  0  0  0  0  0  0  0  0
  -22.8043  -27.2963   20.8024 O   0  0  0  0  0  0  0  0  0  0  0  0
  -25.5949  -28.4453   23.6279 O   0  0  0  0  0  0  0  0  0  0  0  0
  -28.6771  -25.2994   21.8603 O   0  0  0  0  0  0  0  0  0  0  0  0
  -25.8645  -11.6946   20.6659 O   0  0  0  0  0  0  0  0  0  0  0  0
  -29.1376  -23.3575   18.6863 O   0  0  0  0  0  0  0  0  0  0  0  0
  -23.7176  -21.4235   19.2657 O   0  0  0  0  0  0  0  0  0  1  0  0
  -33.0793  -26.3640   16.2722 F   0  0  0  0  0  0  0  0  0  0  0  0
  -31.5634  -23.7860   19.9412 F   0  0  0  0  0  0  0  0  0  0  0  0
  1  2  1  0  0  0  0
  1  5  2  0  0  0  0
  2  6  2  0  0  0  0
  3  8  2  0  0  0  0
  3 15  1  0  0  0  0
  4  9  1  0  0  0  0
  4 15  2  0  0  0  0
  5 17  1  0  0  0  0
  6 19  1  0  0  0  0
  7 10  2  0  0  0  0
  7 18  1  0  0  0  0
  8 22  1  0  0  0  0
  9 22  2  0  0  0  0
 10 23  1  0  0  0  0
 11 12  2  0  0  0  0
 11 24  1  0  0  0  0
 12 25  1  0  0  0  0
 13 20  1  0  0  0  0
 13 23  2  0  0  0  0
 14 25  2  0  0  0  0
 14 26  1  0  0  0  0
 15 27  1  0  0  0  0
 16 27  1  0  0  0  0
 16 30  2  0  0  0  0
 16 31  1  0  0  0  0
 17 19  2  0  0  0  0
 17 36  1  0  0  0  0
 18 20  2  0  0  0  0
 18 37  1  0  0  0  0
 19 45  1  0  0  0  0
 20 38  1  0  0  0  0
 21 28  1  0  0  0  0
 21 29  2  0  0  0  0
 21 57  1  0  0  0  0
 22 84  1  0  0  0  0
 23 85  1  0  0  0  0
 24 26  2  0  0  0  0
 24 84  1  0  0  0  0
 25 86  1  0  0  0  0
 26 87  1  0  0  0  0
 27 67  2  0  0  0  0
 28 58  1  0  0  0  0
 28 68  2  0  0  0  0
 29 48  1  0  0  0  0
 29 69  1  0  0  0  0
 30 70  1  0  0  0  0
 30 73  1  0  0  0  0
 31 74  1  0  0  0  0
 31 79  2  0  0  0  0
 32 46  1  0  0  0  0
 32 75  1  0  0  0  0
 32 80  2  0  0  0  0
 33 62  1  0  0  0  0
 33 71  1  0  0  0  0
 33 81  2  0  0  0  0
 34 63  1  0  0  0  0
 34 76  1  0  0  0  0
 34 82  2  0  0  0  0
 35 72  1  0  0  0  0
 35 77  1  0  0  0  0
 35 83  2  0  0  0  0
 36 39  1  0  0  0  0
 37 46  1  0  0  0  0
 38 71  1  0  0  0  0
 39 41  1  0  0  0  0
 40 42  1  0  0  0  0
 40 43  1  0  0  0  0
 41 45  1  0  0  0  0
 42 47  1  0  0  0  0
 43 72  1  0  0  0  0
 44 47  1  0  0  0  0
 44 72  1  0  0  0  0
 45 75  1  0  0  0  0
 46 71  1  0  0  0  0
 47 70  1  0  0  0  0
 49 63  1  0  0  0  0
 50 64  1  0  0  0  0
 51 65  1  0  0  0  0
 52 66  1  0  0  0  0
 53 66  1  0  0  0  0
 54 66  1  0  0  0  0
 55 69  1  0  0  0  0
 56 78  1  0  0  0  0
 57 59  1  0  0  0  0
 58 77  1  0  0  0  0
 59 60  1  0  0  0  0
 60 64  1  0  0  0  0
 61 65  1  0  0  0  0
 61 85  1  0  0  0  0
 62 66  1  0  0  0  0
 62 76  1  0  0  0  0
 63 78  1  0  0  0  0
 64 65  1  0  0  0  0
 67 70  1  0  0  0  0
 68 69  1  0  0  0  0
M  CHG  1  78   1
M  ISO  4  35 100  61 101  77 100  85 101
M  END
> <Batch ID>
0095

> <Smiles>
CNC(C)C(=O)NC(C(=O)N1Cc2cc([101O:1][101CH2:1]C(C)C(C)CCCc3c(C[100NH:0][100C:0](=O)N4CCCC(n5nc(-c6ccc(Oc7ccc(F)cc7F)cc6)c(C(N)=O)c5N)C4)nn(C)c3C)ccc2CC1C(=O)NC1CCCc2ccccc21)C(C)(C)C

> <Shape>
0.241

> <Color>
0.067

> <Negative vol penalty>
0.000

$$$$

  -OEChem-04052319213D

 86 94  0     1  0  0  0  0  0999 V2000
  -19.9514  -23.6641   21.5045 C   0  0  0  0  0  0  0  0  0  0  0  0
  -21.3154  -23.3922   21.5369 C   0  0  0  0  0  0  0  0  0  0  0  0
  -22.9598  -29.7732   19.9169 C   0  0  0  0  0  0  0  0  0  0  0  0
  -23.1257  -29.0755   22.2240 C   0  0  0  0  0  0  0  0  0  0  0  0
  -19.0366  -22.6808   21.8790 C   0  0  0  0  0  0  0  0  0  0  0  0
  -21.7654  -22.1370   21.9450 C   0  0  0  0  0  0  0  0  0  0  0  0
  -25.3976  -20.3012   18.9314 C   0  0  0  0  0  0  0  0  0  0  0  0
  -21.7425  -30.3959   20.1927 C   0  0  0  0  0  0  0  0  0  0  0  0
  -21.9084  -29.6983   22.4998 C   0  0  0  0  0  0  0  0  0  0  0  0
  -26.6843  -20.8101   19.1022 C   0  0  0  0  0  0  0  0  0  0  0  0
  -18.6199  -29.0413   22.0694 C   0  0  0  0  0  0  0  0  0  0  0  0
  -17.6915  -28.3381   22.8368 C   0  0  0  0  0  0  0  0  0  0  0  0
  -27.2790  -18.8582   20.3888 C   0  0  0  0  0  0  0  0  0  0  0  0
  -17.7389  -30.0901   24.4997 C   0  0  0  0  0  0  0  0  0  0  0  0
  -23.6513  -29.1130   20.9325 C   0  0  0  0  0  0  0  0  0  0  0  0
  -25.1418  -27.4280   19.7296 C   0  0  0  0  0  0  0  0  0  0  0  0
  -19.4753  -21.4099   22.2826 C   0  0  0  0  0  0  0  0  0  0  0  0
  -25.0381  -19.0700   19.4981 C   0  0  0  0  0  0  0  0  0  0  0  0
  -20.8557  -21.1363   22.3266 C   0  0  0  0  0  0  0  0  0  0  0  0
  -25.9878  -18.3347   20.2216 C   0  0  0  0  0  0  0  0  0  0  0  0
  -21.2168  -30.3585   21.4842 C   0  0  0  0  0  0  0  0  0  0  0  0
  -27.6244  -20.0900   19.8335 C   0  0  0  0  0  0  0  0  0  0  0  0
  -19.1080  -30.2690   22.5171 C   0  0  0  0  0  0  0  0  0  0  0  0
  -17.2509  -28.8625   24.0519 C   0  0  0  0  0  0  0  0  0  0  0  0
  -18.6674  -30.7934   23.7323 C   0  0  0  0  0  0  0  0  0  0  0  0
  -24.9085  -28.4690   20.6481 C   0  0  0  0  0  0  0  0  0  0  0  0
  -26.4875  -27.1735   19.8334 C   0  0  0  0  0  0  0  0  0  0  0  0
  -24.2241  -26.7515   18.8601 C   0  0  0  0  0  0  0  0  0  0  0  0
  -22.9010  -18.1328   21.6564 C   0  0  0  0  0  0  0  0  0  0  0  0
  -23.9175  -15.1722   20.8055 C   0  0  0  0  0  0  0  0  0  0  0  0
  -27.0712  -13.5807   20.0718 C   0  0  0  0  0  0  0  0  0  0  0  0
  -31.7637  -28.9557   20.1957 C   0  0  0  0  0  0  0  0  0  0  0  0
  -18.4509  -20.3946   22.7236 C   0  0  0  0  0  0  0  0  0  0  0  0
  -23.6540  -18.5223   19.2821 C   0  0  0  0  0  0  0  0  0  0  0  0
  -25.6581  -16.9984   20.8332 C   0  0  0  0  0  0  0  0  0  0  0  0
  -18.9935  -18.9691   22.7853 C   0  0  0  0  0  0  0  0  0  0  0  0
  -29.8892  -28.7747   23.2173 C   0  0  0  0  0  0  0  0  0  0  0  0
  -20.3430  -18.9419   23.4960 C   0  0  0  0  0  0  0  0  0  0  0  0
  -28.4457  -28.5996   22.7424 C   0  0  0  0  0  0  0  0  0  0  0  0
  -30.8589  -23.5441   17.5620 C   0  0  0  0  0  0  0  0  0  0  0  0
  -30.6786  -29.7005   22.2944 C   0  0  0  0  0  0  0  0  0  0  0  0
  -29.2101  -29.1471   20.3941 C   0  0  0  0  0  0  0  0  0  0  0  0
  -31.0196  -24.9325   16.9431 C   0  0  0  0  0  0  0  0  0  0  0  0
  -32.9728  -25.0930   18.4957 C   0  0  0  0  0  0  0  0  0  0  0  0
  -21.3818  -19.7788   22.7397 C   0  0  1  0  0  0  0  0  0  0  0  0
  -23.2445  -17.4998   20.3377 C   0  0  1  0  0  0  0  0  0  0  0  0
  -30.9937  -23.5638   19.0882 C   0  0  2  0  0  0  0  0  0  0  0  0
  -32.3946  -24.0884   19.5087 C   0  0  1  0  0  0  0  0  0  0  0  0
  -28.3899  -28.1774   21.2619 C   0  0  2  0  0  0  0  0  0  0  0  0
  -27.6010  -11.5973   18.6286 C   0  0  0  0  0  0  0  0  0  0  0  0
  -34.6582  -24.3142   21.5709 C   0  0  0  0  0  0  0  0  0  0  0  0
  -35.7807  -22.3958   20.4207 C   0  0  0  0  0  0  0  0  0  0  0  0
  -33.2344  -29.4239   17.3245 C   0  0  0  0  0  0  0  0  0  0  0  0
  -23.6917  -13.5871   23.4029 C   0  0  0  0  0  0  0  0  0  0  0  0
  -25.6151  -12.1824   22.6313 C   0  0  0  0  0  0  0  0  0  0  0  0
  -23.4920  -12.2141   21.3222 C   0  0  0  0  0  0  0  0  0  0  0  0
  -29.0305  -15.1199   18.4747 C   0  0  0  0  0  0  0  0  0  0  0  0
  -30.6169  -22.2098   19.6888 C   0  0  0  0  0  0  0  0  0  0  0  0
  -33.4399  -22.9972   19.7609 C   0  0  0  0  0  0  0  0  0  0  0  0
  -32.3371  -27.0472   17.0754 C   0  0  0  0  0  0  0  0  0  0  0  0
  -29.1675  -21.8476   19.4028 C   0  0  0  0  0  0  0  0  0  1  0  0
  -25.0057  -14.2387   21.2780 C   0  0  1  0  0  0  0  0  0  0  0  0
  -27.5596  -13.1152   18.7119 C   0  0  2  0  0  0  0  0  0  0  0  0
  -34.7861  -23.5472   20.2541 C   0  0  0  0  0  0  0  0  0  0  0  0
  -32.7016  -28.1817   18.0323 C   0  0  2  0  0  0  0  0  0  0  0  0
  -24.4538  -13.0838   22.1608 C   0  0  0  0  0  0  0  0  0  0  0  0
  -26.0171  -28.8497   21.2884 N   0  0  0  0  0  0  0  0  0  0  0  0
  -26.9600  -28.0435   20.7716 N   0  0  0  0  0  0  0  0  0  0  0  0
  -24.2897  -16.5082   20.5994 N   0  0  0  0  0  0  0  0  0  0  0  0
  -30.5863  -29.2437   20.9056 N   0  0  0  0  0  0  0  0  0  0  0  0
  -27.3008  -26.2927   19.2130 N   0  0  0  0  0  0  0  0  0  0  0  0
  -22.8770  -27.1378   18.8796 N   0  0  0  0  0  0  0  0  0  0  0  0
  -21.8731  -19.0538   21.5876 N   0  0  0  0  0  0  0  0  0  0  0  0
  -25.7086  -13.7917   20.0803 N   0  0  0  0  0  0  0  0  0  0  0  0
  -31.5865  -28.5226   18.8873 N   0  0  0  0  0  0  0  0  0  0  0  0
  -31.8527  -25.8363   17.8226 N   0  3  1  0  0  0  0  0  0  0  0  0
  -28.9298  -13.6380   18.4468 N   0  3  0  0  0  0  0  0  0  0  0  0
  -24.5848  -25.8206   18.1007 O   0  0  0  0  0  0  0  0  0  0  0  0
  -23.5214  -17.8085   22.6621 O   0  0  0  0  0  0  0  0  0  0  0  0
  -22.7808  -14.7308   20.6190 O   0  0  0  0  0  0  0  0  0  0  0  0
  -27.8227  -13.7375   21.0316 O   0  0  0  0  0  0  0  0  0  0  0  0
  -32.8891  -29.0705   20.6929 O   0  0  0  0  0  0  0  0  0  0  0  0
  -20.0292  -30.9663   21.7537 O   0  0  0  0  0  0  0  0  0  0  0  0
  -28.8808  -20.5847   20.0023 O   0  0  0  0  0  0  0  0  0  1  0  0
  -16.3581  -28.1878   24.7880 F   0  0  0  0  0  0  0  0  0  0  0  0
  -19.1318  -31.9728   24.1671 F   0  0  0  0  0  0  0  0  0  0  0  0
  1  2  1  0  0  0  0
  1  5  2  0  0  0  0
  2  6  2  0  0  0  0
  3  8  2  0  0  0  0
  3 15  1  0  0  0  0
  4  9  1  0  0  0  0
  4 15  2  0  0  0  0
  5 17  1  0  0  0  0
  6 19  1  0  0  0  0
  7 10  2  0  0  0  0
  7 18  1  0  0  0  0
  8 21  1  0  0  0  0
  9 21  2  0  0  0  0
 10 22  1  0  0  0  0
 11 12  2  0  0  0  0
 11 23  1  0  0  0  0
 12 24  1  0  0  0  0
 13 20  1  0  0  0  0
 13 22  2  0  0  0  0
 14 24  2  0  0  0  0
 14 25  1  0  0  0  0
 15 26  1  0  0  0  0
 16 26  1  0  0  0  0
 16 27  2  0  0  0  0
 16 28  1  0  0  0  0
 17 19  2  0  0  0  0
 17 33  1  0  0  0  0
 18 20  2  0  0  0  0
 18 34  1  0  0  0  0
 19 45  1  0  0  0  0
 20 35  1  0  0  0  0
 21 83  1  0  0  0  0
 22 84  1  0  0  0  0
 23 25  2  0  0  0  0
 23 83  1  0  0  0  0
 24 85  1  0  0  0  0
 25 86  1  0  0  0  0
 26 67  2  0  0  0  0
 27 68  1  0  0  0  0
 27 71  1  0  0  0  0
 28 72  1  0  0  0  0
 28 78  2  0  0  0  0
 29 46  1  0  0  0  0
 29 73  1  0  0  0  0
 29 79  2  0  0  0  0
 30 62  1  0  0  0  0
 30 69  1  0  0  0  0
 30 80  2  0  0  0  0
 31 63  1  0  0  0  0
 31 74  1  0  0  0  0
 31 81  2  0  0  0  0
 32 70  1  0  0  0  0
 32 75  1  0  0  0  0
 32 82  2  0  0  0  0
 33 36  1  0  0  0  0
 34 46  1  0  0  0  0
 35 69  1  0  0  0  0
 36 38  1  0  0  0  0
 37 39  1  0  0  0  0
 37 41  1  0  0  0  0
 38 45  1  0  0  0  0
 39 49  1  0  0  0  0
 40 43  1  0  0  0  0
 40 47  1  0  0  0  0
 41 70  1  0  0  0  0
 42 49  1  0  0  0  0
 42 70  1  0  0  0  0
 43 76  1  0  0  0  0
 44 48  1  0  0  0  0
 44 76  1  0  0  0  0
 45 73  1  0  0  0  0
 46 69  1  0  0  0  0
 47 48  1  0  0  0  0
 47 58  1  0  0  0  0
 48 59  1  0  0  0  0
 49 68  1  0  0  0  0
 50 63  1  0  0  0  0
 51 64  1  0  0  0  0
 52 64  1  0  0  0  0
 53 65  1  0  0  0  0
 54 66  1  0  0  0  0
 55 66  1  0  0  0  0
 56 66  1  0  0  0  0
 57 77  1  0  0  0  0
 58 61  1  0  0  0  0
 59 64  1  0  0  0  0
 60 65  1  0  0  0  0
 60 76  1  0  0  0  0
 61 84  1  0  0  0  0
 62 66  1  0  0  0  0
 62 74  1  0  0  0  0
 63 77  1  0  0  0  0
 65 75  1  0  0  0  0
 67 68  1  0  0  0  0
M  CHG  2  76   1  77   1
M  ISO  4  32 100  61 101  75 100  84 101
M  END
> <Batch ID>
0095

> <Smiles>
CNC(C)C(=O)NC(C(=O)N1Cc2cc([101O:1][101CH2:1]CC3CCN(CC(C)[100NH:0][100C:0](=O)N4CCCC(n5nc(-c6ccc(Oc7ccc(F)cc7F)cc6)c(C(N)=O)c5N)C4)CC3CC(C)C)ccc2CC1C(=O)NC1CCCc2ccccc21)C(C)(C)C

> <Shape>
0.223

> <Color>
0.066

> <Negative vol penalty>
0.000

$$$$

  -OEChem-04052319213D

 84 92  0     1  0  0  0  0  0999 V2000
  -25.8304  -30.7254   22.9076 C   0  0  0  0  0  0  0  0  0  0  0  0
  -26.5451  -29.6385   22.4144 C   0  0  0  0  0  0  0  0  0  0  0  0
  -23.0789   -9.8603   19.9456 C   0  0  0  0  0  0  0  0  0  0  0  0
  -23.8378   -9.8785   22.2393 C   0  0  0  0  0  0  0  0  0  0  0  0
  -26.2952  -31.4139   24.0274 C   0  0  0  0  0  0  0  0  0  0  0  0
  -27.7259  -29.2401   23.0402 C   0  0  0  0  0  0  0  0  0  0  0  0
  -28.0046  -24.2204   23.6475 C   0  0  0  0  0  0  0  0  0  0  0  0
  -22.3379   -8.7063   20.1999 C   0  0  0  0  0  0  0  0  0  0  0  0
  -23.0967   -8.7244   22.4936 C   0  0  0  0  0  0  0  0  0  0  0  0
  -28.3496  -23.4619   22.5297 C   0  0  0  0  0  0  0  0  0  0  0  0
  -19.8704   -7.9208   23.0980 C   0  0  0  0  0  0  0  0  0  0  0  0
  -19.1130   -7.8836   24.2687 C   0  0  0  0  0  0  0  0  0  0  0  0
  -28.7370  -18.7899   24.3298 C   0  0  0  0  0  0  0  0  0  0  0  0
  -30.6178  -23.3139   23.3376 C   0  0  0  0  0  0  0  0  0  0  0  0
  -20.3591   -5.9524   25.0135 C   0  0  0  0  0  0  0  0  0  0  0  0
  -28.6158  -19.5352   23.1778 C   0  0  0  0  0  0  0  0  0  0  0  0
  -23.8289  -10.4464   20.9653 C   0  0  0  0  0  0  0  0  0  0  0  0
  -24.1644  -12.9719   20.8353 C   0  0  0  0  0  0  0  0  0  0  0  0
  -27.4772  -31.0177   24.6729 C   0  0  0  0  0  0  0  0  0  0  0  0
  -28.9678  -24.5410   24.6149 C   0  0  0  0  0  0  0  0  0  0  0  0
  -28.2077  -29.9248   24.1688 C   0  0  0  0  0  0  0  0  0  0  0  0
  -30.2819  -24.0744   24.4680 C   0  0  0  0  0  0  0  0  0  0  0  0
  -29.5733  -17.6856   24.0332 C   0  0  0  0  0  0  0  0  0  0  0  0
  -22.3468   -8.1383   21.4739 C   0  0  0  0  0  0  0  0  0  0  0  0
  -29.6570  -23.0110   22.3731 C   0  0  0  0  0  0  0  0  0  0  0  0
  -20.8721   -6.9737   22.8849 C   0  0  0  0  0  0  0  0  0  0  0  0
  -19.3574   -6.8994   25.2265 C   0  0  0  0  0  0  0  0  0  0  0  0
  -21.1164   -5.9895   23.8427 C   0  0  0  0  0  0  0  0  0  0  0  0
  -24.5951  -11.6382   20.7031 C   0  0  0  0  0  0  0  0  0  0  0  0
  -29.9379  -17.7897   22.7090 C   0  0  0  0  0  0  0  0  0  0  0  0
  -25.2547  -13.7227   20.4694 C   0  0  0  0  0  0  0  0  0  0  0  0
  -22.8924  -13.4862   21.2516 C   0  0  0  0  0  0  0  0  0  0  0  0
  -30.2197  -27.2441   25.7241 C   0  0  0  0  0  0  0  0  0  0  0  0
  -31.6704  -25.2506   27.8321 C   0  0  0  0  0  0  0  0  0  0  0  0
  -32.7849  -22.1057   28.5494 C   0  0  0  0  0  0  0  0  0  0  0  0
  -30.7358  -14.7566   20.6560 C   0  0  0  0  0  0  0  0  0  0  0  0
  -27.9651  -31.8221   25.8517 C   0  0  0  0  0  0  0  0  0  0  0  0
  -28.5735  -25.3374   25.8284 C   0  0  0  0  0  0  0  0  0  0  0  0
  -31.3486  -24.3741   25.4882 C   0  0  0  0  0  0  0  0  0  0  0  0
  -29.0269  -31.1045   26.6812 C   0  0  0  0  0  0  0  0  0  0  0  0
  -29.6053  -12.3596   18.2784 C   0  0  0  0  0  0  0  0  0  0  0  0
  -30.0905  -30.4941   25.7740 C   0  0  0  0  0  0  0  0  0  0  0  0
  -28.1684  -12.0639   18.7119 C   0  0  0  0  0  0  0  0  0  0  0  0
  -30.5214  -12.5876   19.4788 C   0  0  0  0  0  0  0  0  0  0  0  0
  -28.6171  -13.3193   20.8616 C   0  0  0  0  0  0  0  0  0  0  0  0
  -29.4798  -29.4470   24.8349 C   0  0  1  0  0  0  0  0  0  0  0  0
  -29.7543  -26.0394   26.4921 C   0  0  1  0  0  0  0  0  0  0  0  0
  -27.6439  -13.1375   19.6843 C   0  0  2  0  0  0  0  0  0  0  0  0
  -28.0148  -15.0454   24.4876 C   0  0  0  0  0  0  0  0  0  0  0  0
  -30.8202  -17.1783   26.1495 C   0  0  0  0  0  0  0  0  0  0  0  0
  -33.9630  -20.7926   30.3340 C   0  0  0  0  0  0  0  0  0  0  0  0
  -34.3247  -26.5033   26.9981 C   0  0  0  0  0  0  0  0  0  0  0  0
  -35.4950  -24.5611   28.0596 C   0  0  0  0  0  0  0  0  0  0  0  0
  -34.0945  -26.0843   29.4529 C   0  0  0  0  0  0  0  0  0  0  0  0
  -30.4664  -20.3033   28.9163 C   0  0  0  0  0  0  0  0  0  0  0  0
  -30.7956  -16.9123   21.8843 C   0  0  0  0  0  0  0  0  0  0  0  0
  -28.7917  -15.7945   25.5635 C   0  0  0  0  0  0  0  0  0  0  0  0
  -30.7964  -20.1470   20.5049 C   0  0  0  0  0  0  0  0  0  0  0  0
  -29.4794  -19.4192   20.7830 C   0  0  0  0  0  0  0  0  0  0  0  0
  -31.0483  -21.3204   21.4447 C   0  0  0  0  0  0  0  0  0  1  0  0
  -29.9754  -16.6229   24.9758 C   0  0  1  0  0  0  0  0  0  0  0  0
  -32.9686  -24.4804   27.8555 C   0  0  1  0  0  0  0  0  0  0  0  0
  -32.6170  -21.2340   29.7808 C   0  0  2  0  0  0  0  0  0  0  0  0
  -34.2013  -25.4031   28.0712 C   0  0  0  0  0  0  0  0  0  0  0  0
  -25.8604  -11.5439   20.2857 N   0  0  0  0  0  0  0  0  0  0  0  0
  -29.3503  -18.9179   22.1992 N   0  0  0  0  0  0  0  0  0  0  0  0
  -26.2340  -12.8279   20.1524 N   0  0  0  0  0  0  0  0  0  0  0  0
  -30.9151  -25.1617   26.6542 N   0  0  0  0  0  0  0  0  0  0  0  0
  -29.9678  -13.6182   20.3604 N   0  0  0  0  0  0  0  0  0  0  0  0
  -25.4618  -15.0544   20.3911 N   0  0  0  0  0  0  0  0  0  0  0  0
  -21.8826  -12.5758   21.5921 N   0  0  0  0  0  0  0  0  0  0  0  0
  -29.2455  -28.2074   25.5441 N   0  0  0  0  0  0  0  0  0  0  0  0
  -32.8113  -23.4460   28.8721 N   0  0  0  0  0  0  0  0  0  0  0  0
  -30.1339  -15.6872   21.4940 N   0  0  0  0  0  0  0  0  0  0  0  0
  -31.8231  -20.0171   29.4496 N   0  3  0  0  0  0  0  0  0  0  0  0
  -22.6529  -14.7164   21.3038 O   0  0  0  0  0  0  0  0  0  0  0  0
  -31.3773  -27.2964   25.3256 O   0  0  0  0  0  0  0  0  0  0  0  0
  -31.3353  -25.9012   28.8251 O   0  0  0  0  0  0  0  0  0  0  0  0
  -32.8865  -21.6437   27.4150 O   0  0  0  0  0  0  0  0  0  0  0  0
  -31.8715  -14.9331   20.2022 O   0  0  0  0  0  0  0  0  0  0  0  0
  -21.6236   -7.0124   21.7225 O   0  0  0  0  0  0  0  0  0  0  0  0
  -29.9965  -22.2711   21.2826 O   0  0  0  0  0  0  0  0  0  1  0  0
  -18.6311   -6.8648   26.3514 F   0  0  0  0  0  0  0  0  0  0  0  0
  -22.0782   -5.0777   23.6442 F   0  0  0  0  0  0  0  0  0  0  0  0
  1  2  1  0  0  0  0
  1  5  2  0  0  0  0
  2  6  2  0  0  0  0
  3  8  2  0  0  0  0
  3 17  1  0  0  0  0
  4  9  1  0  0  0  0
  4 17  2  0  0  0  0
  5 19  1  0  0  0  0
  6 21  1  0  0  0  0
  7 10  2  0  0  0  0
  7 20  1  0  0  0  0
  8 24  1  0  0  0  0
  9 24  2  0  0  0  0
 10 25  1  0  0  0  0
 11 12  2  0  0  0  0
 11 26  1  0  0  0  0
 12 27  1  0  0  0  0
 13 16  2  0  0  0  0
 13 23  1  0  0  0  0
 14 22  1  0  0  0  0
 14 25  2  0  0  0  0
 15 27  2  0  0  0  0
 15 28  1  0  0  0  0
 16 66  1  0  0  0  0
 17 29  1  0  0  0  0
 18 29  1  0  0  0  0
 18 31  2  0  0  0  0
 18 32  1  0  0  0  0
 19 21  2  0  0  0  0
 19 37  1  0  0  0  0
 20 22  2  0  0  0  0
 20 38  1  0  0  0  0
 21 46  1  0  0  0  0
 22 39  1  0  0  0  0
 23 30  2  0  0  0  0
 23 61  1  0  0  0  0
 24 81  1  0  0  0  0
 25 82  1  0  0  0  0
 26 28  2  0  0  0  0
 26 81  1  0  0  0  0
 27 83  1  0  0  0  0
 28 84  1  0  0  0  0
 29 65  2  0  0  0  0
 30 56  1  0  0  0  0
 30 66  1  0  0  0  0
 31 67  1  0  0  0  0
 31 70  1  0  0  0  0
 32 71  1  0  0  0  0
 32 76  2  0  0  0  0
 33 47  1  0  0  0  0
 33 72  1  0  0  0  0
 33 77  2  0  0  0  0
 34 62  1  0  0  0  0
 34 68  1  0  0  0  0
 34 78  2  0  0  0  0
 35 63  1  0  0  0  0
 35 73  1  0  0  0  0
 35 79  2  0  0  0  0
 36 69  1  0  0  0  0
 36 74  1  0  0  0  0
 36 80  2  0  0  0  0
 37 40  1  0  0  0  0
 38 47  1  0  0  0  0
 39 68  1  0  0  0  0
 40 42  1  0  0  0  0
 41 43  1  0  0  0  0
 41 44  1  0  0  0  0
 42 46  1  0  0  0  0
 43 48  1  0  0  0  0
 44 69  1  0  0  0  0
 45 48  1  0  0  0  0
 45 69  1  0  0  0  0
 46 72  1  0  0  0  0
 47 68  1  0  0  0  0
 48 67  1  0  0  0  0
 49 57  1  0  0  0  0
 50 61  1  0  0  0  0
 51 63  1  0  0  0  0
 52 64  1  0  0  0  0
 53 64  1  0  0  0  0
 54 64  1  0  0  0  0
 55 75  1  0  0  0  0
 56 74  1  0  0  0  0
 57 61  1  0  0  0  0
 58 59  1  0  0  0  0
 58 60  1  0  0  0  0
 59 66  1  0  0  0  0
 60 82  1  0  0  0  0
 62 64  1  0  0  0  0
 62 73  1  0  0  0  0
 63 75  1  0  0  0  0
 65 67  1  0  0  0  0
M  CHG  1  75   1
M  ISO  4  36 100  60 101  74 100  82 101
M  END
> <Batch ID>
0095

> <Smiles>
CCC(C)c1ccn(CC[101CH2:1][101O:1]c2ccc3c(c2)CN(C(=O)C(NC(=O)C(C)NC)C(C)(C)C)C(C(=O)NC2CCCc4ccccc42)C3)c1C[100NH:0][100C:0](=O)N1CCCC(n2nc(-c3ccc(Oc4ccc(F)cc4F)cc3)c(C(N)=O)c2N)C1

> <Shape>
0.232

> <Color>
0.192

> <Negative vol penalty>
0.000

$$$$

  -OEChem-04052319213D

 89 97  0     1  0  0  0  0  0999 V2000
  -18.9122  -30.2393   25.0940 C   0  0  0  0  0  0  0  0  0  0  0  0
  -20.2873  -30.1464   24.9046 C   0  0  0  0  0  0  0  0  0  0  0  0
  -22.6662  -12.8816   20.2060 C   0  0  0  0  0  0  0  0  0  0  0  0
  -23.8512  -12.7188   22.3051 C   0  0  0  0  0  0  0  0  0  0  0  0
  -18.0569  -29.3637   24.4264 C   0  0  0  0  0  0  0  0  0  0  0  0
  -20.8080  -29.1770   24.0482 C   0  0  0  0  0  0  0  0  0  0  0  0
  -25.7443  -29.7016   20.4616 C   0  0  0  0  0  0  0  0  0  0  0  0
  -22.2293  -11.5649   20.3504 C   0  0  0  0  0  0  0  0  0  0  0  0
  -23.4143  -11.4020   22.4496 C   0  0  0  0  0  0  0  0  0  0  0  0
  -27.0657  -29.2853   20.6177 C   0  0  0  0  0  0  0  0  0  0  0  0
  -24.2375   -8.3565   21.2339 C   0  0  0  0  0  0  0  0  0  0  0  0
  -25.1736   -7.4035   21.6353 C   0  0  0  0  0  0  0  0  0  0  0  0
  -26.5809  -27.2913   19.3496 C   0  0  0  0  0  0  0  0  0  0  0  0
  -29.5091  -24.6321   21.2482 C   0  0  0  0  0  0  0  0  0  0  0  0
  -23.8462   -6.9259   23.5968 C   0  0  0  0  0  0  0  0  0  0  0  0
  -28.7248  -24.0946   23.2892 C   0  0  0  0  0  0  0  0  0  0  0  0
  -23.4772  -13.4586   21.1833 C   0  0  0  0  0  0  0  0  0  0  0  0
  -23.2835  -15.9837   21.4896 C   0  0  0  0  0  0  0  0  0  0  0  0
  -18.5668  -28.3893   23.5539 C   0  0  0  0  0  0  0  0  0  0  0  0
  -24.8270  -28.9093   19.7564 C   0  0  0  0  0  0  0  0  0  0  0  0
  -19.9588  -28.2866   23.3693 C   0  0  0  0  0  0  0  0  0  0  0  0
  -25.2491  -27.7010   19.1838 C   0  0  0  0  0  0  0  0  0  0  0  0
  -28.8518  -23.6271   21.9998 C   0  0  0  0  0  0  0  0  0  0  0  0
  -22.6034  -10.8251   21.4722 C   0  0  0  0  0  0  0  0  0  0  0  0
  -27.4835  -28.0786   20.0642 C   0  0  0  0  0  0  0  0  0  0  0  0
  -23.1058   -8.5943   22.0139 C   0  0  0  0  0  0  0  0  0  0  0  0
  -24.9779   -6.6882   22.8167 C   0  0  0  0  0  0  0  0  0  0  0  0
  -22.9102   -7.8790   23.1953 C   0  0  0  0  0  0  0  0  0  0  0  0
  -23.9292  -14.8186   21.0344 C   0  0  0  0  0  0  0  0  0  0  0  0
  -29.7639  -25.6832   22.1013 C   0  0  0  0  0  0  0  0  0  0  0  0
  -24.1116  -17.0088   21.1026 C   0  0  0  0  0  0  0  0  0  0  0  0
  -22.0457  -16.1267   22.1989 C   0  0  0  0  0  0  0  0  0  0  0  0
  -22.1112  -27.4298   20.4907 C   0  0  0  0  0  0  0  0  0  0  0  0
  -22.0356  -26.8217   17.3053 C   0  0  0  0  0  0  0  0  0  0  0  0
  -23.7597  -26.4706   14.3811 C   0  0  0  0  0  0  0  0  0  0  0  0
  -29.2121  -19.2149   20.5886 C   0  0  0  0  0  0  0  0  0  0  0  0
  -17.6060  -27.4344   22.8909 C   0  0  0  0  0  0  0  0  0  0  0  0
  -23.4119  -29.3853   19.5741 C   0  0  0  0  0  0  0  0  0  0  0  0
  -24.3086  -26.8235   18.4002 C   0  0  0  0  0  0  0  0  0  0  0  0
  -18.2142  -26.6791   21.7119 C   0  0  0  0  0  0  0  0  0  0  0  0
  -28.1147  -17.0183   18.0103 C   0  0  0  0  0  0  0  0  0  0  0  0
  -19.5886  -26.1303   22.0813 C   0  0  0  0  0  0  0  0  0  0  0  0
  -26.8791  -16.3423   18.6071 C   0  0  0  0  0  0  0  0  0  0  0  0
  -29.1908  -17.2607   19.0664 C   0  0  0  0  0  0  0  0  0  0  0  0
  -27.4975  -17.3215   20.8560 C   0  0  0  0  0  0  0  0  0  0  0  0
  -20.5603  -27.2644   22.4293 C   0  0  1  0  0  0  0  0  0  0  0  0
  -22.4343  -28.2527   19.2758 C   0  0  1  0  0  0  0  0  0  0  0  0
  -26.3621  -17.1070   19.8404 C   0  0  2  0  0  0  0  0  0  0  0  0
  -23.4296  -25.9352   11.9517 C   0  0  0  0  0  0  0  0  0  0  0  0
  -30.8449  -28.0370   26.4458 C   0  0  0  0  0  0  0  0  0  0  0  0
  -31.6287  -26.0066   27.6805 C   0  0  0  0  0  0  0  0  0  0  0  0
  -24.4954  -22.7814   21.0304 C   0  0  0  0  0  0  0  0  0  0  0  0
  -26.3018  -23.0848   19.3277 C   0  0  0  0  0  0  0  0  0  0  0  0
  -21.7027  -23.8702   18.0035 C   0  0  0  0  0  0  0  0  0  0  0  0
  -22.3282  -23.3132   15.6442 C   0  0  0  0  0  0  0  0  0  0  0  0
  -20.2796  -24.6600   16.1047 C   0  0  0  0  0  0  0  0  0  0  0  0
  -24.8086  -29.1066   13.5382 C   0  0  0  0  0  0  0  0  0  0  0  0
  -30.4388  -27.0064   21.8330 C   0  0  0  0  0  0  0  0  0  0  0  0
  -30.4483  -25.7096   25.4829 C   0  0  0  0  0  0  0  0  0  0  0  0
  -26.8417  -22.1015   21.6234 C   0  0  0  0  0  0  0  0  0  0  0  0
  -29.3457  -26.1689   24.5267 C   0  0  0  0  0  0  0  0  0  0  0  0
  -29.0977  -21.1134   22.1829 C   0  0  0  0  0  0  0  0  0  0  0  0
  -29.4505  -28.0842   21.4009 C   0  0  0  0  0  0  0  0  0  1  0  0
  -28.3879  -22.3205   21.4957 C   0  0  2  0  0  0  0  0  0  0  0  0
  -22.5545  -25.7186   16.4149 C   0  0  1  0  0  0  0  0  0  0  0  0
  -23.5174  -27.0388   12.9944 C   0  0  2  0  0  0  0  0  0  0  0  0
  -30.5466  -26.5695   26.7558 C   0  0  0  0  0  0  0  0  0  0  0  0
  -25.9789  -23.1012   20.8225 C   0  0  0  0  0  0  0  0  0  0  0  0
  -21.7337  -24.4059   16.5582 C   0  0  0  0  0  0  0  0  0  0  0  0
  -25.0789  -15.0783   20.4061 N   0  0  0  0  0  0  0  0  0  0  0  0
  -29.2830  -25.3452   23.3393 N   0  0  0  0  0  0  0  0  0  0  0  0
  -25.1620  -16.4184   20.4636 N   0  0  0  0  0  0  0  0  0  0  0  0
  -22.9336  -27.3293   18.2550 N   0  0  0  0  0  0  0  0  0  0  0  0
  -28.6361  -17.9915   20.2084 N   0  0  0  0  0  0  0  0  0  0  0  0
  -24.0365  -18.3486   21.2497 N   0  0  0  0  0  0  0  0  0  0  0  0
  -21.3208  -14.9702   22.5176 N   0  0  0  0  0  0  0  0  0  0  0  0
  -21.0411  -27.9056   21.2242 N   0  0  0  0  0  0  0  0  0  0  0  0
  -22.5786  -26.2635   15.0618 N   0  0  0  0  0  0  0  0  0  0  0  0
  -28.6216  -19.8452   21.6771 N   0  0  0  0  0  0  0  0  0  0  0  0
  -24.6243  -27.9602   12.6114 N   0  3  0  0  0  0  0  0  0  0  0  0
  -21.5877  -17.2478   22.5257 O   0  0  0  0  0  0  0  0  0  0  0  0
  -22.7821  -26.4359   20.7431 O   0  0  0  0  0  0  0  0  0  0  0  0
  -20.8786  -27.2234   17.1587 O   0  0  0  0  0  0  0  0  0  0  0  0
  -24.8841  -26.2308   14.8155 O   0  0  0  0  0  0  0  0  0  0  0  0
  -30.1775  -19.7113   19.9983 O   0  0  0  0  0  0  0  0  0  0  0  0
  -22.1771   -9.5402   21.6136 O   0  0  0  0  0  0  0  0  0  0  0  0
  -28.7725  -27.6696   20.2156 O   0  0  0  0  0  0  0  0  0  1  0  0
  -25.8761   -5.7719   23.2013 F   0  0  0  0  0  0  0  0  0  0  0  0
  -21.8243   -8.1022   23.9482 F   0  0  0  0  0  0  0  0  0  0  0  0
  1  2  1  0  0  0  0
  1  5  2  0  0  0  0
  2  6  2  0  0  0  0
  3  8  2  0  0  0  0
  3 17  1  0  0  0  0
  4  9  1  0  0  0  0
  4 17  2  0  0  0  0
  5 19  1  0  0  0  0
  6 21  1  0  0  0  0
  7 10  2  0  0  0  0
  7 20  1  0  0  0  0
  8 24  1  0  0  0  0
  9 24  2  0  0  0  0
 10 25  1  0  0  0  0
 11 12  2  0  0  0  0
 11 26  1  0  0  0  0
 12 27  1  0  0  0  0
 13 22  1  0  0  0  0
 13 25  2  0  0  0  0
 14 23  1  0  0  0  0
 14 30  2  0  0  0  0
 15 27  2  0  0  0  0
 15 28  1  0  0  0  0
 16 23  2  0  0  0  0
 16 71  1  0  0  0  0
 17 29  1  0  0  0  0
 18 29  1  0  0  0  0
 18 31  2  0  0  0  0
 18 32  1  0  0  0  0
 19 21  2  0  0  0  0
 19 37  1  0  0  0  0
 20 22  2  0  0  0  0
 20 38  1  0  0  0  0
 21 46  1  0  0  0  0
 22 39  1  0  0  0  0
 23 64  1  0  0  0  0
 24 86  1  0  0  0  0
 25 87  1  0  0  0  0
 26 28  2  0  0  0  0
 26 86  1  0  0  0  0
 27 88  1  0  0  0  0
 28 89  1  0  0  0  0
 29 70  2  0  0  0  0
 30 58  1  0  0  0  0
 30 71  1  0  0  0  0
 31 72  1  0  0  0  0
 31 75  1  0  0  0  0
 32 76  1  0  0  0  0
 32 81  2  0  0  0  0
 33 47  1  0  0  0  0
 33 77  1  0  0  0  0
 33 82  2  0  0  0  0
 34 65  1  0  0  0  0
 34 73  1  0  0  0  0
 34 83  2  0  0  0  0
 35 66  1  0  0  0  0
 35 78  1  0  0  0  0
 35 84  2  0  0  0  0
 36 74  1  0  0  0  0
 36 79  1  0  0  0  0
 36 85  2  0  0  0  0
 37 40  1  0  0  0  0
 38 47  1  0  0  0  0
 39 73  1  0  0  0  0
 40 42  1  0  0  0  0
 41 43  1  0  0  0  0
 41 44  1  0  0  0  0
 42 46  1  0  0  0  0
 43 48  1  0  0  0  0
 44 74  1  0  0  0  0
 45 48  1  0  0  0  0
 45 74  1  0  0  0  0
 46 77  1  0  0  0  0
 47 73  1  0  0  0  0
 48 72  1  0  0  0  0
 49 66  1  0  0  0  0
 50 67  1  0  0  0  0
 51 67  1  0  0  0  0
 52 68  1  0  0  0  0
 53 68  1  0  0  0  0
 54 69  1  0  0  0  0
 55 69  1  0  0  0  0
 56 69  1  0  0  0  0
 57 80  1  0  0  0  0
 58 63  1  0  0  0  0
 59 61  1  0  0  0  0
 59 67  1  0  0  0  0
 60 64  1  0  0  0  0
 60 68  1  0  0  0  0
 61 71  1  0  0  0  0
 62 64  1  0  0  0  0
 62 79  1  0  0  0  0
 63 87  1  0  0  0  0
 65 69  1  0  0  0  0
 65 78  1  0  0  0  0
 66 80  1  0  0  0  0
 70 72  1  0  0  0  0
M  CHG  1  80   1
M  ISO  4  36 100  63 101  79 100  87 101
M  END
> <Batch ID>
0095

> <Smiles>
CNC(C)C(=O)NC(C(=O)N1Cc2cc([101O:1][101CH2:1]Cc3cc(C(C[100NH:0][100C:0](=O)N4CCCC(n5nc(-c6ccc(Oc7ccc(F)cc7F)cc6)c(C(N)=O)c5N)C4)CC(C)C)cn3CCC(C)C)ccc2CC1C(=O)NC1CCCc2ccccc21)C(C)(C)C

> <Shape>
0.231

> <Color>
0.065

> <Negative vol penalty>
0.000

$$$$

  -OEChem-04052319213D

 91 99  0     1  0  0  0  0  0999 V2000
  -18.0903  -16.2810   24.3060 C   0  0  0  0  0  0  0  0  0  0  0  0
  -18.9567  -16.6977   25.3115 C   0  0  0  0  0  0  0  0  0  0  0  0
  -22.8616  -10.0517   20.0438 C   0  0  0  0  0  0  0  0  0  0  0  0
  -24.3067   -9.4535   21.8852 C   0  0  0  0  0  0  0  0  0  0  0  0
  -18.4686  -16.3968   22.9691 C   0  0  0  0  0  0  0  0  0  0  0  0
  -20.2026  -17.2295   24.9807 C   0  0  0  0  0  0  0  0  0  0  0  0
  -24.9814  -22.0703   27.2270 C   0  0  0  0  0  0  0  0  0  0  0  0
  -22.1678   -8.8516   20.1985 C   0  0  0  0  0  0  0  0  0  0  0  0
  -23.6128   -8.2534   22.0400 C   0  0  0  0  0  0  0  0  0  0  0  0
  -26.3357  -22.1827   27.5384 C   0  0  0  0  0  0  0  0  0  0  0  0
  -20.6994   -7.2209   23.4061 C   0  0  0  0  0  0  0  0  0  0  0  0
  -20.3506   -6.8381   24.7012 C   0  0  0  0  0  0  0  0  0  0  0  0
  -26.8501  -22.4081   25.1923 C   0  0  0  0  0  0  0  0  0  0  0  0
  -21.6436   -4.8126   24.4507 C   0  0  0  0  0  0  0  0  0  0  0  0
  -31.9952  -16.3836   23.5883 C   0  0  0  0  0  0  0  0  0  0  0  0
  -23.9312  -10.3527   20.8872 C   0  0  0  0  0  0  0  0  0  0  0  0
  -24.1261  -12.8955   20.8252 C   0  0  0  0  0  0  0  0  0  0  0  0
  -19.7158  -16.9393   22.6214 C   0  0  0  0  0  0  0  0  0  0  0  0
  -24.5516  -22.1151   25.8930 C   0  0  0  0  0  0  0  0  0  0  0  0
  -20.5985  -17.3515   23.6379 C   0  0  0  0  0  0  0  0  0  0  0  0
  -25.4895  -22.2986   24.8669 C   0  0  0  0  0  0  0  0  0  0  0  0
  -31.0150  -15.4866   23.9510 C   0  0  0  0  0  0  0  0  0  0  0  0
  -29.7693  -16.0447   23.5716 C   0  0  0  0  0  0  0  0  0  0  0  0
  -22.5433   -7.9525   21.1965 C   0  0  0  0  0  0  0  0  0  0  0  0
  -27.2706  -22.3487   26.5208 C   0  0  0  0  0  0  0  0  0  0  0  0
  -21.5203   -6.3996   22.6332 C   0  0  0  0  0  0  0  0  0  0  0  0
  -20.8227   -5.6339   25.2236 C   0  0  0  0  0  0  0  0  0  0  0  0
  -21.9924   -5.1955   23.1556 C   0  0  0  0  0  0  0  0  0  0  0  0
  -24.6487  -11.5919   20.7275 C   0  0  0  0  0  0  0  0  0  0  0  0
  -30.0264  -17.2659   22.9884 C   0  0  0  0  0  0  0  0  0  0  0  0
  -25.2035  -13.7155   20.5944 C   0  0  0  0  0  0  0  0  0  0  0  0
  -22.7866  -13.3265   21.1001 C   0  0  0  0  0  0  0  0  0  0  0  0
  -23.0560  -20.0932   23.9491 C   0  0  0  0  0  0  0  0  0  0  0  0
  -23.0527  -22.6388   21.9386 C   0  0  0  0  0  0  0  0  0  0  0  0
  -24.4730  -25.6003   21.0116 C   0  0  0  0  0  0  0  0  0  0  0  0
  -31.1077  -12.9751   21.2606 C   0  0  0  0  0  0  0  0  0  0  0  0
  -20.0998  -17.0007   21.1642 C   0  0  0  0  0  0  0  0  0  0  0  0
  -23.0844  -22.0191   25.5757 C   0  0  0  0  0  0  0  0  0  0  0  0
  -25.0776  -22.3734   23.4201 C   0  0  0  0  0  0  0  0  0  0  0  0
  -21.2850  -17.9214   20.8850 C   0  0  0  0  0  0  0  0  0  0  0  0
  -29.3828  -13.8416   18.2688 C   0  0  0  0  0  0  0  0  0  0  0  0
  -22.4080  -17.6641   21.8847 C   0  0  0  0  0  0  0  0  0  0  0  0
  -27.9268  -13.4809   18.5685 C   0  0  0  0  0  0  0  0  0  0  0  0
  -30.3527  -12.8481   18.9047 C   0  0  0  0  0  0  0  0  0  0  0  0
  -28.7108  -12.2810   20.6529 C   0  0  0  0  0  0  0  0  0  0  0  0
  -21.9483  -17.9564   23.3181 C   0  0  1  0  0  0  0  0  0  0  0  0
  -22.8109  -21.5625   24.1460 C   0  0  1  0  0  0  0  0  0  0  0  0
  -27.6970  -13.2858   20.0793 C   0  0  2  0  0  0  0  0  0  0  0  0
  -29.0980  -18.2644   22.4170 C   0  0  0  0  0  0  0  0  0  0  0  0
  -24.2751  -27.4319   19.3077 C   0  0  0  0  0  0  0  0  0  0  0  0
  -27.5242  -17.2926   25.2526 C   0  0  0  0  0  0  0  0  0  0  0  0
  -26.4059  -15.0537   25.2402 C   0  0  0  0  0  0  0  0  0  0  0  0
  -32.6519  -22.3544   25.0086 C   0  0  0  0  0  0  0  0  0  0  0  0
  -30.5022  -20.3930   27.5486 C   0  0  0  0  0  0  0  0  0  0  0  0
  -24.3462  -20.8309   19.8485 C   0  0  0  0  0  0  0  0  0  0  0  0
  -24.9802  -22.8851   18.5654 C   0  0  0  0  0  0  0  0  0  0  0  0
  -22.5745  -22.3544   18.9573 C   0  0  0  0  0  0  0  0  0  0  0  0
  -23.9416  -27.6368   23.0923 C   0  0  0  0  0  0  0  0  0  0  0  0
  -31.2343  -14.1854   24.6135 C   0  0  0  0  0  0  0  0  0  0  0  0
  -28.4386  -15.4323   23.7647 C   0  0  0  0  0  0  0  0  0  0  0  0
  -32.5970  -19.6367   23.5520 C   0  0  0  0  0  0  0  0  0  0  0  0
  -31.4556  -20.1862   24.4205 C   0  0  0  0  0  0  0  0  0  0  0  0
  -32.1082  -18.6692   22.4661 C   0  0  0  0  0  0  0  0  0  0  0  0
  -31.7106  -13.0694   23.6662 C   0  0  0  0  0  0  0  0  0  0  0  0
  -29.5222  -21.9802   25.8498 C   0  0  0  0  0  0  0  0  0  1  0  0
  -23.9937  -23.1696   20.8842 C   0  0  1  0  0  0  0  0  0  0  0  0
  -23.8634  -26.9531   20.6912 C   0  0  2  0  0  0  0  0  0  0  0  0
  -27.7446  -15.7845   25.1102 C   0  0  0  0  0  0  0  0  0  0  0  0
  -31.9438  -21.1088   25.5603 C   0  0  2  0  0  0  0  0  0  0  0  0
  -30.8097  -21.5171   26.5472 C   0  0  2  0  0  0  0  0  0  0  0  0
  -23.9819  -22.3067   19.5909 C   0  0  0  0  0  0  0  0  0  0  0  0
  -25.9564  -11.5796   20.4557 N   0  0  0  0  0  0  0  0  0  0  0  0
  -31.3827  -17.4613   23.0038 N   0  0  0  0  0  0  0  0  0  0  0  0
  -26.2645  -12.8856   20.3805 N   0  0  0  0  0  0  0  0  0  0  0  0
  -23.6323  -22.2682   23.1603 N   0  0  0  0  0  0  0  0  0  0  0  0
  -30.0824  -12.7101   20.3378 N   0  0  0  0  0  0  0  0  0  0  0  0
  -25.3374  -15.0582   20.5555 N   0  0  0  0  0  0  0  0  0  0  0  0
  -22.4132  -13.5375   22.4344 N   0  0  0  0  0  0  0  0  0  0  0  0
  -21.9352  -19.3826   23.5638 N   0  0  0  0  0  0  0  0  0  0  0  0
  -23.6261  -24.5657   20.6745 N   0  0  0  0  0  0  0  0  0  0  0  0
  -30.7655  -12.8265   22.5991 N   0  0  0  0  0  0  0  0  0  0  0  0
  -24.3022  -27.9686   21.6898 N   0  3  0  0  0  0  0  0  0  0  0  0
  -21.9409  -13.5031   20.1907 O   0  0  0  0  0  0  0  0  0  0  0  0
  -24.1790  -19.6381   24.1318 O   0  0  0  0  0  0  0  0  0  0  0  0
  -21.8469  -22.5628   21.6900 O   0  0  0  0  0  0  0  0  0  0  0  0
  -25.5903  -25.4738   21.5077 O   0  0  0  0  0  0  0  0  0  0  0  0
  -32.2424  -13.3238   20.9173 O   0  0  0  0  0  0  0  0  0  0  0  0
  -21.8663   -6.7815   21.3479 O   0  0  0  0  0  0  0  0  0  0  0  0
  -28.5932  -22.4581   26.8218 O   0  0  0  0  0  0  0  0  0  1  0  0
  -20.4890   -5.2671   26.4678 F   0  0  0  0  0  0  0  0  0  0  0  0
  -22.7823   -4.4028   22.4183 F   0  0  0  0  0  0  0  0  0  0  0  0
  1  2  1  0  0  0  0
  1  5  2  0  0  0  0
  2  6  2  0  0  0  0
  3  8  2  0  0  0  0
  3 16  1  0  0  0  0
  4  9  1  0  0  0  0
  4 16  2  0  0  0  0
  5 18  1  0  0  0  0
  6 20  1  0  0  0  0
  7 10  2  0  0  0  0
  7 19  1  0  0  0  0
  8 24  1  0  0  0  0
  9 24  2  0  0  0  0
 10 25  1  0  0  0  0
 11 12  2  0  0  0  0
 11 26  1  0  0  0  0
 12 27  1  0  0  0  0
 13 21  1  0  0  0  0
 13 25  2  0  0  0  0
 14 27  2  0  0  0  0
 14 28  1  0  0  0  0
 15 22  2  0  0  0  0
 15 73  1  0  0  0  0
 16 29  1  0  0  0  0
 17 29  1  0  0  0  0
 17 31  2  0  0  0  0
 17 32  1  0  0  0  0
 18 20  2  0  0  0  0
 18 37  1  0  0  0  0
 19 21  2  0  0  0  0
 19 38  1  0  0  0  0
 20 46  1  0  0  0  0
 21 39  1  0  0  0  0
 22 23  1  0  0  0  0
 22 59  1  0  0  0  0
 23 30  2  0  0  0  0
 23 60  1  0  0  0  0
 24 88  1  0  0  0  0
 25 89  1  0  0  0  0
 26 28  2  0  0  0  0
 26 88  1  0  0  0  0
 27 90  1  0  0  0  0
 28 91  1  0  0  0  0
 29 72  2  0  0  0  0
 30 49  1  0  0  0  0
 30 73  1  0  0  0  0
 31 74  1  0  0  0  0
 31 77  1  0  0  0  0
 32 78  1  0  0  0  0
 32 83  2  0  0  0  0
 33 47  1  0  0  0  0
 33 79  1  0  0  0  0
 33 84  2  0  0  0  0
 34 66  1  0  0  0  0
 34 75  1  0  0  0  0
 34 85  2  0  0  0  0
 35 67  1  0  0  0  0
 35 80  1  0  0  0  0
 35 86  2  0  0  0  0
 36 76  1  0  0  0  0
 36 81  1  0  0  0  0
 36 87  2  0  0  0  0
 37 40  1  0  0  0  0
 38 47  1  0  0  0  0
 39 75  1  0  0  0  0
 40 42  1  0  0  0  0
 41 43  1  0  0  0  0
 41 44  1  0  0  0  0
 42 46  1  0  0  0  0
 43 48  1  0  0  0  0
 44 76  1  0  0  0  0
 45 48  1  0  0  0  0
 45 76  1  0  0  0  0
 46 79  1  0  0  0  0
 47 75  1  0  0  0  0
 48 74  1  0  0  0  0
 50 67  1  0  0  0  0
 51 68  1  0  0  0  0
 52 68  1  0  0  0  0
 53 69  1  0  0  0  0
 54 70  1  0  0  0  0
 55 71  1  0  0  0  0
 56 71  1  0  0  0  0
 57 71  1  0  0  0  0
 58 82  1  0  0  0  0
 59 64  1  0  0  0  0
 60 68  1  0  0  0  0
 61 62  1  0  0  0  0
 61 63  1  0  0  0  0
 62 69  1  0  0  0  0
 63 73  1  0  0  0  0
 64 81  1  0  0  0  0
 65 70  1  0  0  0  0
 65 89  1  0  0  0  0
 66 71  1  0  0  0  0
 66 80  1  0  0  0  0
 67 82  1  0  0  0  0
 69 70  1  0  0  0  0
 72 74  1  0  0  0  0
M  CHG  1  82   1
M  ISO  4  36 100  65 101  81 100  89 101
M  END
> <Batch ID>
0095

> <Smiles>
CNC(C)C(=O)NC(C(=O)N1Cc2cc([101O:1][101CH2:1]C(C)C(C)CCCn3cc(CC[100NH:0][100C:0](=O)N4CCCC(n5nc(-c6ccc(Oc7ccc(F)cc7F)cc6)c(C(N)=O)c5N)C4)c(CC(C)C)c3C)ccc2CC1C(=O)NC1CCCc2ccccc21)C(C)(C)C

> <Shape>
0.178

> <Color>
0.154

> <Negative vol penalty>
0.000

$$$$

  -OEChem-04052319213D

 90 98  0     1  0  0  0  0  0999 V2000
  -25.6213   -3.3804   19.1377 C   0  0  0  0  0  0  0  0  0  0  0  0
  -25.5196   -4.5891   19.8190 C   0  0  0  0  0  0  0  0  0  0  0  0
  -23.2884   -9.7997   19.9124 C   0  0  0  0  0  0  0  0  0  0  0  0
  -23.7384   -9.9399   22.2819 C   0  0  0  0  0  0  0  0  0  0  0  0
  -25.4207   -2.1795   19.8171 C   0  0  0  0  0  0  0  0  0  0  0  0
  -25.2161   -4.5976   21.1800 C   0  0  0  0  0  0  0  0  0  0  0  0
  -28.1378   -7.7964   23.8022 C   0  0  0  0  0  0  0  0  0  0  0  0
  -22.5619   -8.6272   20.1196 C   0  0  0  0  0  0  0  0  0  0  0  0
  -23.0119   -8.7674   22.4893 C   0  0  0  0  0  0  0  0  0  0  0  0
  -27.8213   -9.1523   23.7305 C   0  0  0  0  0  0  0  0  0  0  0  0
  -20.9721   -6.0072   23.6889 C   0  0  0  0  0  0  0  0  0  0  0  0
  -20.0702   -5.9818   24.7525 C   0  0  0  0  0  0  0  0  0  0  0  0
  -26.7102   -8.9996   25.8662 C   0  0  0  0  0  0  0  0  0  0  0  0
  -27.6438  -14.3749   27.9512 C   0  0  0  0  0  0  0  0  0  0  0  0
  -18.8612   -7.8291   23.7715 C   0  0  0  0  0  0  0  0  0  0  0  0
  -23.8768  -10.4560   20.9935 C   0  0  0  0  0  0  0  0  0  0  0  0
  -24.1364  -12.9861   20.7955 C   0  0  0  0  0  0  0  0  0  0  0  0
  -25.1240   -2.1729   21.1891 C   0  0  0  0  0  0  0  0  0  0  0  0
  -27.7328   -7.0282   24.9032 C   0  0  0  0  0  0  0  0  0  0  0  0
  -25.0099   -3.3955   21.8780 C   0  0  0  0  0  0  0  0  0  0  0  0
  -27.0251   -7.6348   25.9507 C   0  0  0  0  0  0  0  0  0  0  0  0
  -28.7517  -14.1253   28.7982 C   0  0  0  0  0  0  0  0  0  0  0  0
  -22.4236   -8.1111   21.4081 C   0  0  0  0  0  0  0  0  0  0  0  0
  -27.1049   -9.7535   24.7612 C   0  0  0  0  0  0  0  0  0  0  0  0
  -20.8187   -6.9436   22.6665 C   0  0  0  0  0  0  0  0  0  0  0  0
  -19.0147   -6.8927   24.7938 C   0  0  0  0  0  0  0  0  0  0  0  0
  -19.7632   -7.8546   22.7078 C   0  0  0  0  0  0  0  0  0  0  0  0
  -24.6279  -11.6670   20.7800 C   0  0  0  0  0  0  0  0  0  0  0  0
  -27.9694  -13.9042   26.6984 C   0  0  0  0  0  0  0  0  0  0  0  0
  -29.7208  -13.5098   28.0370 C   0  0  0  0  0  0  0  0  0  0  0  0
  -25.2381  -13.7659   20.5410 C   0  0  0  0  0  0  0  0  0  0  0  0
  -22.8033  -13.4637   21.0199 C   0  0  0  0  0  0  0  0  0  0  0  0
  -25.8466   -4.5011   25.3030 C   0  0  0  0  0  0  0  0  0  0  0  0
  -26.9322   -4.6622   28.3556 C   0  0  0  0  0  0  0  0  0  0  0  0
  -28.2685   -6.5579   30.8590 C   0  0  0  0  0  0  0  0  0  0  0  0
  -31.1087  -12.9222   21.3624 C   0  0  0  0  0  0  0  0  0  0  0  0
  -24.8688   -0.8517   21.8703 C   0  0  0  0  0  0  0  0  0  0  0  0
  -28.1053   -5.5728   24.9780 C   0  0  0  0  0  0  0  0  0  0  0  0
  -26.5846   -6.8587   27.1640 C   0  0  0  0  0  0  0  0  0  0  0  0
  -24.9202   -0.9320   23.3939 C   0  0  0  0  0  0  0  0  0  0  0  0
  -29.4609  -13.6624   18.2942 C   0  0  0  0  0  0  0  0  0  0  0  0
  -24.1208   -2.1317   23.8925 C   0  0  0  0  0  0  0  0  0  0  0  0
  -27.9910  -13.3539   18.5848 C   0  0  0  0  0  0  0  0  0  0  0  0
  -30.3938  -12.6828   19.0027 C   0  0  0  0  0  0  0  0  0  0  0  0
  -28.7066  -12.2532   20.7470 C   0  0  0  0  0  0  0  0  0  0  0  0
  -24.7067   -3.4449   23.3598 C   0  0  1  0  0  0  0  0  0  0  0  0
  -27.1969   -4.7704   25.9045 C   0  0  1  0  0  0  0  0  0  0  0  0
  -27.7289  -13.2486   20.0992 C   0  0  2  0  0  0  0  0  0  0  0  0
  -31.0686  -13.0334   28.4144 C   0  0  0  0  0  0  0  0  0  0  0  0
  -26.8080  -13.1553   31.0541 C   0  0  0  0  0  0  0  0  0  0  0  0
  -26.8732  -15.3498   24.9667 C   0  0  0  0  0  0  0  0  0  0  0  0
  -29.0103   -6.4205   33.2524 C   0  0  0  0  0  0  0  0  0  0  0  0
  -24.0176   -4.6917   29.2581 C   0  0  0  0  0  0  0  0  0  0  0  0
  -24.7919   -5.4998   31.4976 C   0  0  0  0  0  0  0  0  0  0  0  0
  -25.5280   -3.2702   30.6553 C   0  0  0  0  0  0  0  0  0  0  0  0
  -31.0505   -7.2861   30.1598 C   0  0  0  0  0  0  0  0  0  0  0  0
  -28.6006  -16.9432   30.1875 C   0  0  0  0  0  0  0  0  0  0  0  0
  -30.0956  -15.8681   31.8637 C   0  0  0  0  0  0  0  0  0  0  0  0
  -27.4885  -14.5174   30.9913 C   0  0  0  0  0  0  0  0  0  0  0  0
  -30.9831  -13.7126   25.0064 C   0  0  0  0  0  0  0  0  0  0  0  0
  -25.8421  -13.1160   25.5276 C   0  0  0  0  0  0  0  0  0  0  0  0
  -29.9470  -12.7831   25.6526 C   0  0  0  0  0  0  0  0  0  0  0  0
  -31.6698  -13.1354   23.7705 C   0  0  0  0  0  0  0  0  0  0  0  0
  -26.0580  -11.6276   25.7848 C   0  0  0  0  0  0  0  0  0  1  0  0
  -28.8426  -14.4650   30.2322 C   0  0  2  0  0  0  0  0  0  0  0  0
  -27.1572  -13.9110   25.4148 C   0  0  2  0  0  0  0  0  0  0  0  0
  -26.4844   -5.3660   29.6138 C   0  0  1  0  0  0  0  0  0  0  0  0
  -29.4363   -6.3097   31.7967 C   0  0  2  0  0  0  0  0  0  0  0  0
  -25.2120   -4.7214   30.2325 C   0  0  0  0  0  0  0  0  0  0  0  0
  -25.9396  -11.6082   20.5348 N   0  0  0  0  0  0  0  0  0  0  0  0
  -29.2344  -13.3808   26.7623 N   0  0  0  0  0  0  0  0  0  0  0  0
  -26.2817  -12.9002   20.3939 N   0  0  0  0  0  0  0  0  0  0  0  0
  -26.9674   -5.4373   27.1878 N   0  0  0  0  0  0  0  0  0  0  0  0
  -30.0941  -12.6311   20.4357 N   0  0  0  0  0  0  0  0  0  0  0  0
  -25.4061  -15.1008   20.4309 N   0  0  0  0  0  0  0  0  0  0  0  0
  -21.7906  -12.5269   21.2669 N   0  0  0  0  0  0  0  0  0  0  0  0
  -25.8910   -3.8099   24.1073 N   0  0  0  0  0  0  0  0  0  0  0  0
  -27.6393   -5.3831   30.5050 N   0  0  0  0  0  0  0  0  0  0  0  0
  -30.7386  -12.8565   22.7001 N   0  0  0  0  0  0  0  0  0  0  0  0
  -30.5204   -7.3014   31.5475 N   0  3  0  0  0  0  0  0  0  0  0  0
  -29.5172  -15.7961   30.4838 N   0  3  0  0  0  0  0  0  0  0  0  0
  -22.5156  -14.6842   20.9858 O   0  0  0  0  0  0  0  0  0  0  0  0
  -24.8389   -4.8903   25.8817 O   0  0  0  0  0  0  0  0  0  0  0  0
  -27.2462   -3.4704   28.4084 O   0  0  0  0  0  0  0  0  0  0  0  0
  -27.9445   -7.6817   30.4816 O   0  0  0  0  0  0  0  0  0  0  0  0
  -32.2578  -13.2240   21.0227 O   0  0  0  0  0  0  0  0  0  0  0  0
  -21.7145   -6.9671   21.6107 O   0  0  0  0  0  0  0  0  0  0  0  0
  -26.7941  -11.0766   24.6934 O   0  0  0  0  0  0  0  0  0  1  0  0
  -18.1477   -6.8672   25.8146 F   0  0  0  0  0  0  0  0  0  0  0  0
  -19.6099   -8.7558   21.7279 F   0  0  0  0  0  0  0  0  0  0  0  0
  1  2  1  0  0  0  0
  1  5  2  0  0  0  0
  2  6  2  0  0  0  0
  3  8  2  0  0  0  0
  3 16  1  0  0  0  0
  4  9  1  0  0  0  0
  4 16  2  0  0  0  0
  5 18  1  0  0  0  0
  6 20  1  0  0  0  0
  7 10  2  0  0  0  0
  7 19  1  0  0  0  0
  8 23  1  0  0  0  0
  9 23  2  0  0  0  0
 10 24  1  0  0  0  0
 11 12  2  0  0  0  0
 11 25  1  0  0  0  0
 12 26  1  0  0  0  0
 13 21  1  0  0  0  0
 13 24  2  0  0  0  0
 14 22  1  0  0  0  0
 14 29  2  0  0  0  0
 15 26  2  0  0  0  0
 15 27  1  0  0  0  0
 16 28  1  0  0  0  0
 17 28  1  0  0  0  0
 17 31  2  0  0  0  0
 17 32  1  0  0  0  0
 18 20  2  0  0  0  0
 18 37  1  0  0  0  0
 19 21  2  0  0  0  0
 19 38  1  0  0  0  0
 20 46  1  0  0  0  0
 21 39  1  0  0  0  0
 22 30  2  0  0  0  0
 22 65  1  0  0  0  0
 23 87  1  0  0  0  0
 24 88  1  0  0  0  0
 25 27  2  0  0  0  0
 25 87  1  0  0  0  0
 26 89  1  0  0  0  0
 27 90  1  0  0  0  0
 28 70  2  0  0  0  0
 29 66  1  0  0  0  0
 29 71  1  0  0  0  0
 30 49  1  0  0  0  0
 30 71  1  0  0  0  0
 31 72  1  0  0  0  0
 31 75  1  0  0  0  0
 32 76  1  0  0  0  0
 32 82  2  0  0  0  0
 33 47  1  0  0  0  0
 33 77  1  0  0  0  0
 33 83  2  0  0  0  0
 34 67  1  0  0  0  0
 34 73  1  0  0  0  0
 34 84  2  0  0  0  0
 35 68  1  0  0  0  0
 35 78  1  0  0  0  0
 35 85  2  0  0  0  0
 36 74  1  0  0  0  0
 36 79  1  0  0  0  0
 36 86  2  0  0  0  0
 37 40  1  0  0  0  0
 38 47  1  0  0  0  0
 39 73  1  0  0  0  0
 40 42  1  0  0  0  0
 41 43  1  0  0  0  0
 41 44  1  0  0  0  0
 42 46  1  0  0  0  0
 43 48  1  0  0  0  0
 44 74  1  0  0  0  0
 45 48  1  0  0  0  0
 45 74  1  0  0  0  0
 46 77  1  0  0  0  0
 47 73  1  0  0  0  0
 48 72  1  0  0  0  0
 50 59  1  0  0  0  0
 51 66  1  0  0  0  0
 52 68  1  0  0  0  0
 53 69  1  0  0  0  0
 54 69  1  0  0  0  0
 55 69  1  0  0  0  0
 56 80  1  0  0  0  0
 57 81  1  0  0  0  0
 58 81  1  0  0  0  0
 59 65  1  0  0  0  0
 60 62  1  0  0  0  0
 60 63  1  0  0  0  0
 61 64  1  0  0  0  0
 61 66  1  0  0  0  0
 62 71  1  0  0  0  0
 63 79  1  0  0  0  0
 64 88  1  0  0  0  0
 65 81  1  0  0  0  0
 67 69  1  0  0  0  0
 67 78  1  0  0  0  0
 68 80  1  0  0  0  0
 70 72  1  0  0  0  0
M  CHG  2  80   1  81   1
M  ISO  4  36 100  64 101  79 100  88 101
M  END
> <Batch ID>
0095

> <Smiles>
CCC(c1cc(C(C)C[101CH2:1][101O:1]c2ccc3c(c2)CN(C(=O)C(NC(=O)C(C)NC)C(C)(C)C)C(C(=O)NC2CCCc4ccccc42)C3)n(CCC[100NH:0][100C:0](=O)N2CCCC(n3nc(-c4ccc(Oc5ccc(F)cc5F)cc4)c(C(N)=O)c3N)C2)c1C)N(C)C

> <Shape>
0.126

> <Color>
0.167

> <Negative vol penalty>
0.000

$$$$

  -OEChem-04052319213D

 81 88  0     1  0  0  0  0  0999 V2000
  -19.0066  -30.4086   24.5598 C   0  0  0  0  0  0  0  0  0  0  0  0
  -20.3796  -30.3327   24.3487 C   0  0  0  0  0  0  0  0  0  0  0  0
  -25.4467  -14.5797   18.6783 C   0  0  0  0  0  0  0  0  0  0  0  0
  -26.2200  -15.1941   20.8832 C   0  0  0  0  0  0  0  0  0  0  0  0
  -18.1739  -29.3908   24.0965 C   0  0  0  0  0  0  0  0  0  0  0  0
  -20.9208  -29.2383   23.6751 C   0  0  0  0  0  0  0  0  0  0  0  0
  -25.7449  -29.2556   19.9023 C   0  0  0  0  0  0  0  0  0  0  0  0
  -25.3916  -13.2422   19.0703 C   0  0  0  0  0  0  0  0  0  0  0  0
  -26.1649  -13.8566   21.2752 C   0  0  0  0  0  0  0  0  0  0  0  0
  -27.0861  -28.9261   20.0932 C   0  0  0  0  0  0  0  0  0  0  0  0
  -23.3143  -11.2501   20.8448 C   0  0  0  0  0  0  0  0  0  0  0  0
  -22.1816  -10.5170   20.4910 C   0  0  0  0  0  0  0  0  0  0  0  0
  -26.6570  -26.7108   19.2402 C   0  0  0  0  0  0  0  0  0  0  0  0
  -23.5665   -8.9782   19.2455 C   0  0  0  0  0  0  0  0  0  0  0  0
  -25.8609  -15.5557   19.5848 C   0  0  0  0  0  0  0  0  0  0  0  0
  -24.8904  -17.8944   19.2745 C   0  0  0  0  0  0  0  0  0  0  0  0
  -18.7042  -28.2881   23.4084 C   0  0  0  0  0  0  0  0  0  0  0  0
  -24.8459  -28.3101   19.3883 C   0  0  0  0  0  0  0  0  0  0  0  0
  -20.0946  -28.2041   23.2033 C   0  0  0  0  0  0  0  0  0  0  0  0
  -25.3054  -27.0316   19.0414 C   0  0  0  0  0  0  0  0  0  0  0  0
  -25.7507  -12.8806   20.3687 C   0  0  0  0  0  0  0  0  0  0  0  0
  -27.5417  -27.6527   19.7648 C   0  0  0  0  0  0  0  0  0  0  0  0
  -24.5731  -10.8472   20.3989 C   0  0  0  0  0  0  0  0  0  0  0  0
  -22.3077   -9.3811   19.6914 C   0  0  0  0  0  0  0  0  0  0  0  0
  -24.6992   -9.7113   19.5993 C   0  0  0  0  0  0  0  0  0  0  0  0
  -25.9186  -16.9374   19.1803 C   0  0  0  0  0  0  0  0  0  0  0  0
  -25.4422  -19.0429   18.7619 C   0  0  0  0  0  0  0  0  0  0  0  0
  -23.5558  -17.7573   19.7803 C   0  0  0  0  0  0  0  0  0  0  0  0
  -22.2134  -26.8969   20.4729 C   0  0  0  0  0  0  0  0  0  0  0  0
  -22.0890  -25.6923   17.4636 C   0  0  0  0  0  0  0  0  0  0  0  0
  -23.7575  -24.8565   14.6062 C   0  0  0  0  0  0  0  0  0  0  0  0
  -29.5718  -22.6229   18.4839 C   0  0  0  0  0  0  0  0  0  0  0  0
  -17.7696  -27.1894   22.9678 C   0  0  0  0  0  0  0  0  0  0  0  0
  -23.4079  -28.6897   19.1634 C   0  0  0  0  0  0  0  0  0  0  0  0
  -24.3850  -25.9868   18.4673 C   0  0  0  0  0  0  0  0  0  0  0  0
  -18.3815  -26.2471   21.9344 C   0  0  0  0  0  0  0  0  0  0  0  0
  -29.7712  -19.7819   16.2508 C   0  0  0  0  0  0  0  0  0  0  0  0
  -19.7863  -25.8301   22.3579 C   0  0  0  0  0  0  0  0  0  0  0  0
  -28.6927  -18.8641   16.8293 C   0  0  0  0  0  0  0  0  0  0  0  0
  -30.5202  -20.5200   17.3565 C   0  0  0  0  0  0  0  0  0  0  0  0
  -28.5682  -20.3874   18.8551 C   0  0  0  0  0  0  0  0  0  0  0  0
  -20.7167  -27.0451   22.4551 C   0  0  1  0  0  0  0  0  0  0  0  0
  -22.4726  -27.4855   19.1150 C   0  0  1  0  0  0  0  0  0  0  0  0
  -27.7598  -19.6296   17.7864 C   0  0  2  0  0  0  0  0  0  0  0  0
  -23.3935  -23.8574   12.3332 C   0  0  0  0  0  0  0  0  0  0  0  0
  -33.0583  -26.1605   21.2364 C   0  0  0  0  0  0  0  0  0  0  0  0
  -21.8983  -22.9169   18.7168 C   0  0  0  0  0  0  0  0  0  0  0  0
  -22.4914  -21.9455   16.4869 C   0  0  0  0  0  0  0  0  0  0  0  0
  -20.3988  -23.2779   16.7482 C   0  0  0  0  0  0  0  0  0  0  0  0
  -30.9758  -27.6062   23.0300 C   0  0  0  0  0  0  0  0  0  0  0  0
  -30.0271  -25.6595   21.7843 C   0  0  0  0  0  0  0  0  0  0  0  0
  -24.6733  -27.3216   13.2484 C   0  0  0  0  0  0  0  0  0  0  0  0
  -32.5562  -27.2939   18.3466 C   0  0  0  0  0  0  0  0  0  0  0  0
  -30.6830  -24.7921   18.0181 C   0  0  0  0  0  0  0  0  0  0  0  0
  -31.5820  -25.1605   19.1835 C   0  0  0  0  0  0  0  0  0  0  0  0
  -29.5375  -27.9854   21.0146 C   0  0  0  0  0  0  0  0  0  1  0  0
  -22.6333  -24.4602   16.7819 C   0  0  1  0  0  0  0  0  0  0  0  0
  -23.4587  -25.1415   13.1454 C   0  0  2  0  0  0  0  0  0  0  0  0
  -31.9298  -27.0678   20.7462 C   0  0  2  0  0  0  0  0  0  0  0  0
  -21.8726  -23.1690   17.1961 C   0  0  0  0  0  0  0  0  0  0  0  0
  -30.6326  -27.0685   21.6212 C   0  0  0  0  0  0  0  0  0  0  0  0
  -27.0388  -17.4347   18.6495 N   0  0  0  0  0  0  0  0  0  0  0  0
  -26.7177  -18.7167   18.4054 N   0  0  0  0  0  0  0  0  0  0  0  0
  -22.9867  -26.4041   18.2720 N   0  0  0  0  0  0  0  0  0  0  0  0
  -29.5765  -21.2430   18.2206 N   0  0  0  0  0  0  0  0  0  0  0  0
  -24.9561  -20.2899   18.5857 N   0  0  0  0  0  0  0  0  0  0  0  0
  -23.1516  -16.5076   20.2694 N   0  0  0  0  0  0  0  0  0  0  0  0
  -21.1415  -27.4631   21.1363 N   0  0  0  0  0  0  0  0  0  0  0  0
  -22.6025  -24.7387   15.3502 N   0  0  0  0  0  0  0  0  0  0  0  0
  -30.5636  -23.3609   17.8496 N   0  0  0  0  0  0  0  0  0  0  0  0
  -24.5162  -26.0140   12.5611 N   0  3  0  0  0  0  0  0  0  0  0  0
  -31.6245  -26.6561   19.3406 N   0  3  1  0  0  0  0  0  0  0  0  0
  -22.7403  -18.7105   19.7828 O   0  0  0  0  0  0  0  0  0  0  0  0
  -22.9317  -25.9947   20.8876 O   0  0  0  0  0  0  0  0  0  0  0  0
  -20.9128  -26.0154   17.2798 O   0  0  0  0  0  0  0  0  0  0  0  0
  -24.9009  -24.7457   15.0430 O   0  0  0  0  0  0  0  0  0  0  0  0
  -28.7413  -23.1590   19.2256 O   0  0  0  0  0  0  0  0  0  0  0  0
  -25.6968  -11.5756   20.7516 O   0  0  0  0  0  0  0  0  0  0  0  0
  -28.8502  -27.3282   19.9507 O   0  0  0  0  0  0  0  0  0  1  0  0
  -21.2200   -8.6763   19.3531 F   0  0  0  0  0  0  0  0  0  0  0  0
  -25.9060   -9.3187   19.1689 F   0  0  0  0  0  0  0  0  0  0  0  0
  1  2  1  0  0  0  0
  1  5  2  0  0  0  0
  2  6  2  0  0  0  0
  3  8  2  0  0  0  0
  3 15  1  0  0  0  0
  4  9  1  0  0  0  0
  4 15  2  0  0  0  0
  5 17  1  0  0  0  0
  6 19  1  0  0  0  0
  7 10  2  0  0  0  0
  7 18  1  0  0  0  0
  8 21  1  0  0  0  0
  9 21  2  0  0  0  0
 10 22  1  0  0  0  0
 11 12  2  0  0  0  0
 11 23  1  0  0  0  0
 12 24  1  0  0  0  0
 13 20  1  0  0  0  0
 13 22  2  0  0  0  0
 14 24  2  0  0  0  0
 14 25  1  0  0  0  0
 15 26  1  0  0  0  0
 16 26  1  0  0  0  0
 16 27  2  0  0  0  0
 16 28  1  0  0  0  0
 17 19  2  0  0  0  0
 17 33  1  0  0  0  0
 18 20  2  0  0  0  0
 18 34  1  0  0  0  0
 19 42  1  0  0  0  0
 20 35  1  0  0  0  0
 21 78  1  0  0  0  0
 22 79  1  0  0  0  0
 23 25  2  0  0  0  0
 23 78  1  0  0  0  0
 24 80  1  0  0  0  0
 25 81  1  0  0  0  0
 26 62  2  0  0  0  0
 27 63  1  0  0  0  0
 27 66  1  0  0  0  0
 28 67  1  0  0  0  0
 28 73  2  0  0  0  0
 29 43  1  0  0  0  0
 29 68  1  0  0  0  0
 29 74  2  0  0  0  0
 30 57  1  0  0  0  0
 30 64  1  0  0  0  0
 30 75  2  0  0  0  0
 31 58  1  0  0  0  0
 31 69  1  0  0  0  0
 31 76  2  0  0  0  0
 32 65  1  0  0  0  0
 32 70  1  0  0  0  0
 32 77  2  0  0  0  0
 33 36  1  0  0  0  0
 34 43  1  0  0  0  0
 35 64  1  0  0  0  0
 36 38  1  0  0  0  0
 37 39  1  0  0  0  0
 37 40  1  0  0  0  0
 38 42  1  0  0  0  0
 39 44  1  0  0  0  0
 40 65  1  0  0  0  0
 41 44  1  0  0  0  0
 41 65  1  0  0  0  0
 42 68  1  0  0  0  0
 43 64  1  0  0  0  0
 44 63  1  0  0  0  0
 45 58  1  0  0  0  0
 46 59  1  0  0  0  0
 47 60  1  0  0  0  0
 48 60  1  0  0  0  0
 49 60  1  0  0  0  0
 50 61  1  0  0  0  0
 51 61  1  0  0  0  0
 52 71  1  0  0  0  0
 53 72  1  0  0  0  0
 54 55  1  0  0  0  0
 54 70  1  0  0  0  0
 55 72  1  0  0  0  0
 56 61  1  0  0  0  0
 56 79  1  0  0  0  0
 57 60  1  0  0  0  0
 57 69  1  0  0  0  0
 58 71  1  0  0  0  0
 59 61  1  0  0  0  0
 59 72  1  0  0  0  0
 62 63  1  0  0  0  0
M  CHG  2  71   1  72   1
M  ISO  4  32 100  56 101  70 100  79 101
M  END
> <Batch ID>
0095

> <Smiles>
CNC(C)C(=O)NC(C(=O)N1Cc2cc([101O:1][101CH2:1]C(C)(C)C(C)N(C)CC[100NH:0][100C:0](=O)N3CCCC(n4nc(-c5ccc(Oc6ccc(F)cc6F)cc5)c(C(N)=O)c4N)C3)ccc2CC1C(=O)NC1CCCc2ccccc21)C(C)(C)C

> <Shape>
0.230

> <Color>
0.075

> <Negative vol penalty>
0.000

$$$$

  -OEChem-04052319213D

 86 94  0     1  0  0  0  0  0999 V2000
  -32.9689  -25.9962   15.6173 C   0  0  0  0  0  0  0  0  0  0  0  0
  -31.9978  -25.1273   16.1045 C   0  0  0  0  0  0  0  0  0  0  0  0
  -24.3469   -9.2004   21.5487 C   0  0  0  0  0  0  0  0  0  0  0  0
  -24.7391  -10.4429   23.5832 C   0  0  0  0  0  0  0  0  0  0  0  0
  -33.3556  -27.1022   16.3731 C   0  0  0  0  0  0  0  0  0  0  0  0
  -31.4136  -25.3633   17.3485 C   0  0  0  0  0  0  0  0  0  0  0  0
  -25.6232  -24.2088   18.9748 C   0  0  0  0  0  0  0  0  0  0  0  0
  -24.0085   -8.0755   22.3008 C   0  0  0  0  0  0  0  0  0  0  0  0
  -24.4007   -9.3180   24.3354 C   0  0  0  0  0  0  0  0  0  0  0  0
  -25.0372  -23.1520   19.6701 C   0  0  0  0  0  0  0  0  0  0  0  0
  -21.3325   -6.9515   24.0352 C   0  0  0  0  0  0  0  0  0  0  0  0
  -20.1969   -6.2357   23.6560 C   0  0  0  0  0  0  0  0  0  0  0  0
  -25.1634  -24.4325   21.7106 C   0  0  0  0  0  0  0  0  0  0  0  0
  -27.5468  -21.2374   22.4873 C   0  0  0  0  0  0  0  0  0  0  0  0
  -27.5655  -18.9206   23.1327 C   0  0  0  0  0  0  0  0  0  0  0  0
  -21.5539   -4.2672   23.3085 C   0  0  0  0  0  0  0  0  0  0  0  0
  -24.7123  -10.3841   22.1898 C   0  0  0  0  0  0  0  0  0  0  0  0
  -24.1959  -12.5596   20.9618 C   0  0  0  0  0  0  0  0  0  0  0  0
  -32.7689  -27.3572   17.6227 C   0  0  0  0  0  0  0  0  0  0  0  0
  -25.9944  -25.3832   19.6453 C   0  0  0  0  0  0  0  0  0  0  0  0
  -31.7937  -26.4730   18.1223 C   0  0  0  0  0  0  0  0  0  0  0  0
  -25.7517  -25.5037   21.0211 C   0  0  0  0  0  0  0  0  0  0  0  0
  -26.8943  -20.1335   23.0248 C   0  0  0  0  0  0  0  0  0  0  0  0
  -24.0354   -8.1343   23.6942 C   0  0  0  0  0  0  0  0  0  0  0  0
  -24.8098  -23.2626   21.0388 C   0  0  0  0  0  0  0  0  0  0  0  0
  -22.5787   -6.3252   24.0510 C   0  0  0  0  0  0  0  0  0  0  0  0
  -20.3076   -4.8935   23.2927 C   0  0  0  0  0  0  0  0  0  0  0  0
  -22.6894   -4.9830   23.6877 C   0  0  0  0  0  0  0  0  0  0  0  0
  -25.0625  -11.5462   21.4134 C   0  0  0  0  0  0  0  0  0  0  0  0
  -28.8601  -21.0775   22.0756 C   0  0  0  0  0  0  0  0  0  0  0  0
  -28.8779  -18.8644   22.6919 C   0  0  0  0  0  0  0  0  0  0  0  0
  -25.0103  -13.4273   20.2759 C   0  0  0  0  0  0  0  0  0  0  0  0
  -22.7814  -12.7038   21.1459 C   0  0  0  0  0  0  0  0  0  0  0  0
  -28.7394  -26.9020   20.1570 C   0  0  0  0  0  0  0  0  0  0  0  0
  -26.8008  -29.1561   21.4542 C   0  0  0  0  0  0  0  0  0  0  0  0
  -23.8109  -29.9133   22.9150 C   0  0  0  0  0  0  0  0  0  0  0  0
  -30.8638  -14.6448   20.6009 C   0  0  0  0  0  0  0  0  0  0  0  0
  -33.2533  -28.5392   18.4245 C   0  0  0  0  0  0  0  0  0  0  0  0
  -26.6011  -26.5244   18.8760 C   0  0  0  0  0  0  0  0  0  0  0  0
  -26.1131  -26.7512   21.7838 C   0  0  0  0  0  0  0  0  0  0  0  0
  -32.3165  -28.9260   19.5660 C   0  0  0  0  0  0  0  0  0  0  0  0
  -29.0623  -13.5425   17.7345 C   0  0  0  0  0  0  0  0  0  0  0  0
  -31.8901  -27.6884   20.3492 C   0  0  0  0  0  0  0  0  0  0  0  0
  -27.7548  -12.9973   18.3115 C   0  0  0  0  0  0  0  0  0  0  0  0
  -30.2490  -13.2483   18.6494 C   0  0  0  0  0  0  0  0  0  0  0  0
  -28.7741  -13.1517   20.6215 C   0  0  0  0  0  0  0  0  0  0  0  0
  -31.1190  -26.7089   19.4562 C   0  0  1  0  0  0  0  0  0  0  0  0
  -27.4097  -27.4742   19.7543 C   0  0  1  0  0  0  0  0  0  0  0  0
  -27.5401  -13.4730   19.7610 C   0  0  2  0  0  0  0  0  0  0  0  0
  -30.0167  -21.9979   20.0338 C   0  0  0  0  0  0  0  0  0  0  0  0
  -30.8167  -22.6456   22.3350 C   0  0  0  0  0  0  0  0  0  0  0  0
  -22.5302  -31.8330   23.9010 C   0  0  0  0  0  0  0  0  0  0  0  0
  -28.5207  -29.0081   23.9701 C   0  0  0  0  0  0  0  0  0  0  0  0
  -26.6894  -30.1846   25.2072 C   0  0  0  0  0  0  0  0  0  0  0  0
  -27.8389  -31.3211   23.3072 C   0  0  0  0  0  0  0  0  0  0  0  0
  -21.6465  -29.6484   20.9139 C   0  0  0  0  0  0  0  0  0  0  0  0
  -25.4645  -20.2515   23.4888 C   0  0  0  0  0  0  0  0  0  0  0  0
  -24.4358  -19.9399   22.3997 C   0  0  0  0  0  0  0  0  0  0  0  0
  -30.9000  -17.4339   22.3908 C   0  0  0  0  0  0  0  0  0  0  0  0
  -31.3399  -15.9971   22.6267 C   0  0  0  0  0  0  0  0  0  0  0  0
  -24.4819  -20.9148   21.2289 C   0  0  0  0  0  0  0  0  0  1  0  0
  -29.5916  -22.2410   21.4940 C   0  0  0  0  0  0  0  0  0  0  0  0
  -26.2408  -29.4207   22.8310 C   0  0  1  0  0  0  0  0  0  0  0  0
  -22.8101  -31.0224   22.6450 C   0  0  2  0  0  0  0  0  0  0  0  0
  -27.3173  -29.9592   23.8152 C   0  0  0  0  0  0  0  0  0  0  0  0
  -26.3302  -11.7499   21.0452 N   0  0  0  0  0  0  0  0  0  0  0  0
  -29.5449  -19.9153   22.1644 N   0  0  0  0  0  0  0  0  0  0  0  0
  -26.2661  -12.9012   20.3550 N   0  0  0  0  0  0  0  0  0  0  0  0
  -26.7096  -27.8369   20.9883 N   0  0  0  0  0  0  0  0  0  0  0  0
  -29.9821  -13.7258   20.0084 N   0  0  0  0  0  0  0  0  0  0  0  0
  -24.7675  -14.5812   19.6188 N   0  0  0  0  0  0  0  0  0  0  0  0
  -22.0991  -11.7214   21.8765 N   0  0  0  0  0  0  0  0  0  0  0  0
  -29.5487  -17.6216   22.8081 N   0  0  0  0  0  0  0  0  0  0  0  0
  -29.7592  -27.1649   19.2624 N   0  0  0  0  0  0  0  0  0  0  0  0
  -25.1022  -30.3135   22.6439 N   0  0  0  0  0  0  0  0  0  0  0  0
  -30.5338  -15.0507   21.8882 N   0  0  0  0  0  0  0  0  0  0  0  0
  -21.5228  -30.4512   22.1578 N   0  3  0  0  0  0  0  0  0  0  0  0
  -22.1387  -13.6665   20.6625 O   0  0  0  0  0  0  0  0  0  0  0  0
  -28.8335  -26.2701   21.2027 O   0  0  0  0  0  0  0  0  0  0  0  0
  -27.2942  -30.0872   20.8129 O   0  0  0  0  0  0  0  0  0  0  0  0
  -23.4804  -28.8042   23.3287 O   0  0  0  0  0  0  0  0  0  0  0  0
  -31.8675  -15.0760   20.0234 O   0  0  0  0  0  0  0  0  0  0  0  0
  -23.7050   -7.0370   24.4285 O   0  0  0  0  0  0  0  0  0  0  0  0
  -24.2385  -22.2324   21.7200 O   0  0  0  0  0  0  0  0  0  1  0  0
  -19.2169   -4.2059   22.9300 F   0  0  0  0  0  0  0  0  0  0  0  0
  -23.8838   -4.3756   23.7021 F   0  0  0  0  0  0  0  0  0  0  0  0
  1  2  1  0  0  0  0
  1  5  2  0  0  0  0
  2  6  2  0  0  0  0
  3  8  2  0  0  0  0
  3 17  1  0  0  0  0
  4  9  1  0  0  0  0
  4 17  2  0  0  0  0
  5 19  1  0  0  0  0
  6 21  1  0  0  0  0
  7 10  2  0  0  0  0
  7 20  1  0  0  0  0
  8 24  1  0  0  0  0
  9 24  2  0  0  0  0
 10 25  1  0  0  0  0
 11 12  2  0  0  0  0
 11 26  1  0  0  0  0
 12 27  1  0  0  0  0
 13 22  1  0  0  0  0
 13 25  2  0  0  0  0
 14 23  2  0  0  0  0
 14 30  1  0  0  0  0
 15 23  1  0  0  0  0
 15 31  2  0  0  0  0
 16 27  2  0  0  0  0
 16 28  1  0  0  0  0
 17 29  1  0  0  0  0
 18 29  1  0  0  0  0
 18 32  2  0  0  0  0
 18 33  1  0  0  0  0
 19 21  2  0  0  0  0
 19 38  1  0  0  0  0
 20 22  2  0  0  0  0
 20 39  1  0  0  0  0
 21 47  1  0  0  0  0
 22 40  1  0  0  0  0
 23 57  1  0  0  0  0
 24 83  1  0  0  0  0
 25 84  1  0  0  0  0
 26 28  2  0  0  0  0
 26 83  1  0  0  0  0
 27 85  1  0  0  0  0
 28 86  1  0  0  0  0
 29 66  2  0  0  0  0
 30 62  1  0  0  0  0
 30 67  2  0  0  0  0
 31 67  1  0  0  0  0
 31 73  1  0  0  0  0
 32 68  1  0  0  0  0
 32 71  1  0  0  0  0
 33 72  1  0  0  0  0
 33 78  2  0  0  0  0
 34 48  1  0  0  0  0
 34 74  1  0  0  0  0
 34 79  2  0  0  0  0
 35 63  1  0  0  0  0
 35 69  1  0  0  0  0
 35 80  2  0  0  0  0
 36 64  1  0  0  0  0
 36 75  1  0  0  0  0
 36 81  2  0  0  0  0
 37 70  1  0  0  0  0
 37 76  1  0  0  0  0
 37 82  2  0  0  0  0
 38 41  1  0  0  0  0
 39 48  1  0  0  0  0
 40 69  1  0  0  0  0
 41 43  1  0  0  0  0
 42 44  1  0  0  0  0
 42 45  1  0  0  0  0
 43 47  1  0  0  0  0
 44 49  1  0  0  0  0
 45 70  1  0  0  0  0
 46 49  1  0  0  0  0
 46 70  1  0  0  0  0
 47 74  1  0  0  0  0
 48 69  1  0  0  0  0
 49 68  1  0  0  0  0
 50 62  1  0  0  0  0
 51 62  1  0  0  0  0
 52 64  1  0  0  0  0
 53 65  1  0  0  0  0
 54 65  1  0  0  0  0
 55 65  1  0  0  0  0
 56 77  1  0  0  0  0
 57 58  1  0  0  0  0
 58 61  1  0  0  0  0
 59 60  1  0  0  0  0
 59 73  1  0  0  0  0
 60 76  1  0  0  0  0
 61 84  1  0  0  0  0
 63 65  1  0  0  0  0
 63 75  1  0  0  0  0
 64 77  1  0  0  0  0
 66 68  1  0  0  0  0
M  CHG  1  77   1
M  ISO  4  37 100  61 101  76 100  84 101
M  END
> <Batch ID>
0095

> <Smiles>
CNC(C)C(=O)NC(C(=O)N1Cc2cc([101O:1][101CH2:1]CCc3cc(NCC[100NH:0][100C:0](=O)N4CCCC(n5nc(-c6ccc(Oc7ccc(F)cc7F)cc6)c(C(N)=O)c5N)C4)nc(C(C)C)c3)ccc2CC1C(=O)NC1CCCc2ccccc21)C(C)(C)C

> <Shape>
0.302

> <Color>
0.130

> <Negative vol penalty>
0.000

$$$$

  -OEChem-04052319213D

 86 94  0     1  0  0  0  0  0999 V2000
  -31.1545  -34.0661   24.0958 C   0  0  0  0  0  0  0  0  0  0  0  0
  -30.9416  -33.4159   22.8844 C   0  0  0  0  0  0  0  0  0  0  0  0
  -27.3012  -11.7151   20.3315 C   0  0  0  0  0  0  0  0  0  0  0  0
  -26.3740  -13.6462   19.2142 C   0  0  0  0  0  0  0  0  0  0  0  0
  -30.4707  -33.6514   25.2378 C   0  0  0  0  0  0  0  0  0  0  0  0
  -30.0454  -32.3499   22.8147 C   0  0  0  0  0  0  0  0  0  0  0  0
  -25.3755  -29.2657   18.3430 C   0  0  0  0  0  0  0  0  0  0  0  0
  -26.1197  -11.0119   20.0967 C   0  0  0  0  0  0  0  0  0  0  0  0
  -25.1925  -12.9430   18.9793 C   0  0  0  0  0  0  0  0  0  0  0  0
  -25.0659  -28.0192   17.8006 C   0  0  0  0  0  0  0  0  0  0  0  0
  -23.2126   -8.8274   20.1067 C   0  0  0  0  0  0  0  0  0  0  0  0
  -22.6766   -8.0867   21.1601 C   0  0  0  0  0  0  0  0  0  0  0  0
  -23.8816  -27.4410   19.8211 C   0  0  0  0  0  0  0  0  0  0  0  0
  -22.4768  -10.1031   22.4760 C   0  0  0  0  0  0  0  0  0  0  0  0
  -27.4284  -13.0323   19.8904 C   0  0  0  0  0  0  0  0  0  0  0  0
  -29.9414  -13.4223   19.6903 C   0  0  0  0  0  0  0  0  0  0  0  0
  -29.5584  -32.5860   25.1800 C   0  0  0  0  0  0  0  0  0  0  0  0
  -24.9490  -29.6056   19.6349 C   0  0  0  0  0  0  0  0  0  0  0  0
  -29.3497  -31.9197   23.9574 C   0  0  0  0  0  0  0  0  0  0  0  0
  -24.1849  -28.6934   20.3766 C   0  0  0  0  0  0  0  0  0  0  0  0
  -25.0654  -11.6258   19.4205 C   0  0  0  0  0  0  0  0  0  0  0  0
  -24.3213  -27.1055   18.5408 C   0  0  0  0  0  0  0  0  0  0  0  0
  -23.3808  -10.2058   20.2379 C   0  0  0  0  0  0  0  0  0  0  0  0
  -22.3086   -8.7246   22.3448 C   0  0  0  0  0  0  0  0  0  0  0  0
  -23.0129  -10.8437   21.4226 C   0  0  0  0  0  0  0  0  0  0  0  0
  -28.6484  -13.7594   20.1332 C   0  0  0  0  0  0  0  0  0  0  0  0
  -30.7440  -14.4234   20.1803 C   0  0  0  0  0  0  0  0  0  0  0  0
  -30.3780  -12.3043   18.9060 C   0  0  0  0  0  0  0  0  0  0  0  0
  -26.4121  -30.3509   22.3566 C   0  0  0  0  0  0  0  0  0  0  0  0
  -23.3867  -30.9380   23.3688 C   0  0  0  0  0  0  0  0  0  0  0  0
  -20.0451  -30.3459   23.0089 C   0  0  0  0  0  0  0  0  0  0  0  0
  -29.6800  -20.1030   21.7489 C   0  0  0  0  0  0  0  0  0  0  0  0
  -28.8780  -32.1431   26.4511 C   0  0  0  0  0  0  0  0  0  0  0  0
  -25.2685  -30.9644   20.1952 C   0  0  0  0  0  0  0  0  0  0  0  0
  -23.6858  -29.0174   21.7602 C   0  0  0  0  0  0  0  0  0  0  0  0
  -27.6654  -31.2471   26.2125 C   0  0  0  0  0  0  0  0  0  0  0  0
  -31.0578  -17.5383   23.7983 C   0  0  0  0  0  0  0  0  0  0  0  0
  -27.9956  -30.1625   25.1920 C   0  0  0  0  0  0  0  0  0  0  0  0
  -30.7132  -16.2486   23.0515 C   0  0  0  0  0  0  0  0  0  0  0  0
  -28.6469  -20.7224   17.4026 C   0  0  0  0  0  0  0  0  0  0  0  0
  -29.9420  -18.5741   23.6803 C   0  0  0  0  0  0  0  0  0  0  0  0
  -29.1809  -17.5913   21.5523 C   0  0  0  0  0  0  0  0  0  0  0  0
  -30.0533  -20.9857   16.8825 C   0  0  0  0  0  0  0  0  0  0  0  0
  -30.7792  -21.7609   19.1549 C   0  0  0  0  0  0  0  0  0  0  0  0
  -28.3670  -30.7753   23.8362 C   0  0  1  0  0  0  0  0  0  0  0  0
  -25.2209  -31.0085   21.7194 C   0  0  1  0  0  0  0  0  0  0  0  0
  -30.3001  -16.5370   21.5956 C   0  0  2  0  0  0  0  0  0  0  0  0
  -29.3841  -21.5050   19.7213 C   0  0  1  0  0  0  0  0  0  0  0  0
  -28.3300  -21.6087   18.6086 C   0  0  2  0  0  0  0  0  0  0  0  0
  -17.8206  -30.9395   24.0072 C   0  0  0  0  0  0  0  0  0  0  0  0
  -23.9396  -29.0615   25.7104 C   0  0  0  0  0  0  0  0  0  0  0  0
  -21.4709  -28.9468   26.1110 C   0  0  0  0  0  0  0  0  0  0  0  0
  -22.6647  -31.1282   26.3083 C   0  0  0  0  0  0  0  0  0  0  0  0
  -23.6521  -20.5777   17.3663 C   0  0  0  0  0  0  0  0  0  0  0  0
  -24.3448  -19.8542   19.6462 C   0  0  0  0  0  0  0  0  0  0  0  0
  -19.1016  -31.5555   20.4779 C   0  0  0  0  0  0  0  0  0  0  0  0
  -26.4693  -22.2968   20.0839 C   0  0  0  0  0  0  0  0  0  0  0  0
  -24.2572  -23.5077   18.2242 C   0  0  0  0  0  0  0  0  0  0  0  0
  -24.1346  -22.3046   19.1637 C   0  0  0  0  0  0  0  0  0  0  0  0
  -26.0220  -20.9081   18.0660 C   0  0  0  0  0  0  0  0  0  0  0  0
  -23.8710  -24.8028   18.9291 C   0  0  0  0  0  0  0  0  0  1  0  0
  -22.2991  -30.1180   24.0197 C   0  0  1  0  0  0  0  0  0  0  0  0
  -18.8559  -31.2876   22.9491 C   0  0  2  0  0  0  0  0  0  0  0  0
  -22.6045  -29.8065   25.5121 C   0  0  0  0  0  0  0  0  0  0  0  0
  -24.5591  -20.9343   18.5629 C   0  0  0  0  0  0  0  0  0  0  0  0
  -28.6262  -14.8865   20.8497 N   0  0  0  0  0  0  0  0  0  0  0  0
  -29.9153  -15.2662   20.8608 N   0  0  0  0  0  0  0  0  0  0  0  0
  -24.0295  -30.3564   22.2668 N   0  0  0  0  0  0  0  0  0  0  0  0
  -29.5987  -18.8031   22.2747 N   0  0  0  0  0  0  0  0  0  0  0  0
  -32.0708  -14.6561   20.0914 N   0  0  0  0  0  0  0  0  0  0  0  0
  -30.3984  -12.4343   17.5107 N   0  0  0  0  0  0  0  0  0  0  0  0
  -27.1771  -31.2017   23.1314 N   0  0  0  0  0  0  0  0  0  0  0  0
  -21.0539  -30.8469   23.8041 N   0  0  0  0  0  0  0  0  0  0  0  0
  -29.3434  -20.2312   20.4069 N   0  0  0  0  0  0  0  0  0  0  0  0
  -31.0326  -20.8434   18.0018 N   0  3  0  0  0  0  0  0  0  0  0  0
  -18.2037  -31.2141   21.6112 N   0  3  0  0  0  0  0  0  0  0  0  0
  -26.9898  -21.2409   19.1394 N   0  3  1  0  0  0  0  0  0  0  0  0
  -30.7237  -11.2165   19.4264 O   0  0  0  0  0  0  0  0  0  0  0  0
  -26.6209  -29.1593   22.1611 O   0  0  0  0  0  0  0  0  0  0  0  0
  -23.6512  -32.0563   23.8171 O   0  0  0  0  0  0  0  0  0  0  0  0
  -20.0744  -29.2714   22.4129 O   0  0  0  0  0  0  0  0  0  0  0  0
  -30.0319  -21.0764   22.4239 O   0  0  0  0  0  0  0  0  0  0  0  0
  -23.9124  -10.9399   19.1909 O   0  0  0  0  0  0  0  0  0  0  0  0
  -24.0182  -25.8879   18.0141 O   0  0  0  0  0  0  0  0  0  1  0  0
  -21.7924   -8.0134   23.3557 F   0  0  0  0  0  0  0  0  0  0  0  0
  -23.1710  -12.1679   21.5541 F   0  0  0  0  0  0  0  0  0  0  0  0
  1  2  1  0  0  0  0
  1  5  2  0  0  0  0
  2  6  2  0  0  0  0
  3  8  2  0  0  0  0
  3 15  1  0  0  0  0
  4  9  1  0  0  0  0
  4 15  2  0  0  0  0
  5 17  1  0  0  0  0
  6 19  1  0  0  0  0
  7 10  2  0  0  0  0
  7 18  1  0  0  0  0
  8 21  1  0  0  0  0
  9 21  2  0  0  0  0
 10 22  1  0  0  0  0
 11 12  2  0  0  0  0
 11 23  1  0  0  0  0
 12 24  1  0  0  0  0
 13 20  1  0  0  0  0
 13 22  2  0  0  0  0
 14 24  2  0  0  0  0
 14 25  1  0  0  0  0
 15 26  1  0  0  0  0
 16 26  1  0  0  0  0
 16 27  2  0  0  0  0
 16 28  1  0  0  0  0
 17 19  2  0  0  0  0
 17 33  1  0  0  0  0
 18 20  2  0  0  0  0
 18 34  1  0  0  0  0
 19 45  1  0  0  0  0
 20 35  1  0  0  0  0
 21 83  1  0  0  0  0
 22 84  1  0  0  0  0
 23 25  2  0  0  0  0
 23 83  1  0  0  0  0
 24 85  1  0  0  0  0
 25 86  1  0  0  0  0
 26 66  2  0  0  0  0
 27 67  1  0  0  0  0
 27 70  1  0  0  0  0
 28 71  1  0  0  0  0
 28 78  2  0  0  0  0
 29 46  1  0  0  0  0
 29 72  1  0  0  0  0
 29 79  2  0  0  0  0
 30 62  1  0  0  0  0
 30 68  1  0  0  0  0
 30 80  2  0  0  0  0
 31 63  1  0  0  0  0
 31 73  1  0  0  0  0
 31 81  2  0  0  0  0
 32 69  1  0  0  0  0
 32 74  1  0  0  0  0
 32 82  2  0  0  0  0
 33 36  1  0  0  0  0
 34 46  1  0  0  0  0
 35 68  1  0  0  0  0
 36 38  1  0  0  0  0
 37 39  1  0  0  0  0
 37 41  1  0  0  0  0
 38 45  1  0  0  0  0
 39 47  1  0  0  0  0
 40 43  1  0  0  0  0
 40 49  1  0  0  0  0
 41 69  1  0  0  0  0
 42 47  1  0  0  0  0
 42 69  1  0  0  0  0
 43 75  1  0  0  0  0
 44 48  1  0  0  0  0
 44 75  1  0  0  0  0
 45 72  1  0  0  0  0
 46 68  1  0  0  0  0
 47 67  1  0  0  0  0
 48 49  1  0  0  0  0
 48 74  1  0  0  0  0
 49 77  1  0  0  0  0
 50 63  1  0  0  0  0
 51 64  1  0  0  0  0
 52 64  1  0  0  0  0
 53 64  1  0  0  0  0
 54 65  1  0  0  0  0
 55 65  1  0  0  0  0
 56 76  1  0  0  0  0
 57 77  1  0  0  0  0
 58 59  1  0  0  0  0
 58 61  1  0  0  0  0
 59 65  1  0  0  0  0
 60 65  1  0  0  0  0
 60 77  1  0  0  0  0
 61 84  1  0  0  0  0
 62 64  1  0  0  0  0
 62 73  1  0  0  0  0
 63 76  1  0  0  0  0
 66 67  1  0  0  0  0
M  CHG  3  75   1  76   1  77   1
M  ISO  4  32 100  61 101  74 100  84 101
M  END
> <Batch ID>
0095

> <Smiles>
CNC(C)C(=O)NC(C(=O)N1Cc2cc([101O:1][101CH2:1]CCC(C)(C)CN(C)C3CCNCC3[100NH:0][100C:0](=O)N3CCCC(n4nc(-c5ccc(Oc6ccc(F)cc6F)cc5)c(C(N)=O)c4N)C3)ccc2CC1C(=O)NC1CCCc2ccccc21)C(C)(C)C

> <Shape>
0.281

> <Color>
0.071

> <Negative vol penalty>
0.000

$$$$

  -OEChem-04052319213D

 83 91  0     1  0  0  0  0  0999 V2000
  -21.6582  -11.8464   21.0686 C   0  0  0  0  0  0  0  0  0  0  0  0
  -21.8104  -13.0608   21.7299 C   0  0  0  0  0  0  0  0  0  0  0  0
  -24.9977  -28.0676   19.1163 C   0  0  0  0  0  0  0  0  0  0  0  0
  -25.7566  -27.9290   21.4059 C   0  0  0  0  0  0  0  0  0  0  0  0
  -22.7600  -11.2372   20.4696 C   0  0  0  0  0  0  0  0  0  0  0  0
  -23.0649  -13.6664   21.7935 C   0  0  0  0  0  0  0  0  0  0  0  0
  -22.8772  -18.6317   20.8164 C   0  0  0  0  0  0  0  0  0  0  0  0
  -26.1819  -28.7143   18.7629 C   0  0  0  0  0  0  0  0  0  0  0  0
  -26.9409  -28.5757   21.0524 C   0  0  0  0  0  0  0  0  0  0  0  0
  -22.4307  -19.4658   21.8405 C   0  0  0  0  0  0  0  0  0  0  0  0
  -30.3189  -29.8681   20.6826 C   0  0  0  0  0  0  0  0  0  0  0  0
  -31.5151  -29.3480   21.1766 C   0  0  0  0  0  0  0  0  0  0  0  0
  -24.7157  -20.0316   22.3676 C   0  0  0  0  0  0  0  0  0  0  0  0
  -18.9796  -22.7759   26.2056 C   0  0  0  0  0  0  0  0  0  0  0  0
  -31.0661  -27.2537   20.0588 C   0  0  0  0  0  0  0  0  0  0  0  0
  -16.9468  -22.5721   24.9878 C   0  0  0  0  0  0  0  0  0  0  0  0
  -24.7850  -27.6750   20.4379 C   0  0  0  0  0  0  0  0  0  0  0  0
  -23.3162  -25.6212   20.8014 C   0  0  0  0  0  0  0  0  0  0  0  0
  -24.0267  -11.8403   20.5175 C   0  0  0  0  0  0  0  0  0  0  0  0
  -24.2490  -18.4827   20.5668 C   0  0  0  0  0  0  0  0  0  0  0  0
  -24.1850  -13.0640   21.1957 C   0  0  0  0  0  0  0  0  0  0  0  0
  -25.1769  -19.1971   21.3381 C   0  0  0  0  0  0  0  0  0  0  0  0
  -17.8221  -23.3664   25.7108 C   0  0  0  0  0  0  0  0  0  0  0  0
  -19.2230  -21.4282   25.9656 C   0  0  0  0  0  0  0  0  0  0  0  0
  -27.1535  -28.9683   19.7309 C   0  0  0  0  0  0  0  0  0  0  0  0
  -23.3501  -20.1636   22.6182 C   0  0  0  0  0  0  0  0  0  0  0  0
  -29.4962  -29.0811   19.8767 C   0  0  0  0  0  0  0  0  0  0  0  0
  -31.8888  -28.0408   20.8647 C   0  0  0  0  0  0  0  0  0  0  0  0
  -29.8699  -27.7739   19.5648 C   0  0  0  0  0  0  0  0  0  0  0  0
  -23.5616  -27.0074   20.8037 C   0  0  0  0  0  0  0  0  0  0  0  0
  -18.2849  -20.7205   25.2314 C   0  0  0  0  0  0  0  0  0  0  0  0
  -22.0155  -25.5021   21.2262 C   0  0  0  0  0  0  0  0  0  0  0  0
  -24.1861  -24.5380   20.4470 C   0  0  0  0  0  0  0  0  0  0  0  0
  -26.2925  -16.0494   20.6486 C   0  0  0  0  0  0  0  0  0  0  0  0
  -28.3469  -18.2406   19.4238 C   0  0  0  0  0  0  0  0  0  0  0  0
  -29.1864  -21.5256   19.0360 C   0  0  0  0  0  0  0  0  0  0  0  0
  -17.8795  -26.9193   24.6948 C   0  0  0  0  0  0  0  0  0  0  0  0
  -25.1973  -11.1207   19.8959 C   0  0  0  0  0  0  0  0  0  0  0  0
  -24.7133  -17.5999   19.4411 C   0  0  0  0  0  0  0  0  0  0  0  0
  -26.6596  -19.0875   21.0975 C   0  0  0  0  0  0  0  0  0  0  0  0
  -26.4187  -12.0121   19.6861 C   0  0  0  0  0  0  0  0  0  0  0  0
  -18.4264  -29.0089   21.8643 C   0  0  0  0  0  0  0  0  0  0  0  0
  -26.7004  -12.8351   20.9391 C   0  0  0  0  0  0  0  0  0  0  0  0
  -19.7930  -28.5644   21.3401 C   0  0  0  0  0  0  0  0  0  0  0  0
  -18.3664  -28.9678   23.3897 C   0  0  0  0  0  0  0  0  0  0  0  0
  -20.1130  -27.2308   23.4656 C   0  0  0  0  0  0  0  0  0  0  0  0
  -25.5248  -13.7642   21.2648 C   0  0  1  0  0  0  0  0  0  0  0  0
  -26.1534  -17.1252   19.6090 C   0  0  1  0  0  0  0  0  0  0  0  0
  -20.2039  -27.2020   21.9303 C   0  0  2  0  0  0  0  0  0  0  0  0
  -30.9406  -23.0037   18.0184 C   0  0  0  0  0  0  0  0  0  0  0  0
  -30.2535  -17.5414   21.7010 C   0  0  0  0  0  0  0  0  0  0  0  0
  -31.5086  -19.6501   21.2047 C   0  0  0  0  0  0  0  0  0  0  0  0
  -31.3548  -17.8564   19.4779 C   0  0  0  0  0  0  0  0  0  0  0  0
  -27.2157  -22.8387   17.2608 C   0  0  0  0  0  0  0  0  0  0  0  0
  -17.4865  -18.7250   24.2135 C   0  0  0  0  0  0  0  0  0  0  0  0
  -20.4741  -20.7763   26.4981 C   0  0  0  0  0  0  0  0  0  0  0  0
  -17.5336  -24.8059   25.9490 C   0  0  0  0  0  0  0  0  0  0  0  0
  -21.7346  -21.1202   25.7017 C   0  0  0  0  0  0  0  0  0  0  0  0
  -21.6933  -20.6229   24.2614 C   0  0  0  0  0  0  0  0  0  1  0  0
  -29.3101  -19.2461   20.0070 C   0  0  1  0  0  0  0  0  0  0  0  0
  -29.5968  -22.3226   17.8108 C   0  0  2  0  0  0  0  0  0  0  0  0
  -30.5790  -18.5743   20.6037 C   0  0  0  0  0  0  0  0  0  0  0  0
  -17.1491  -21.2597   24.7345 N   0  0  0  0  0  0  0  0  0  0  0  0
  -22.5019  -27.7180   21.1985 N   0  0  0  0  0  0  0  0  0  0  0  0
  -21.5779  -26.7747   21.4482 N   0  0  0  0  0  0  0  0  0  0  0  0
  -27.0644  -18.2068   19.9893 N   0  0  0  0  0  0  0  0  0  0  0  0
  -18.7661  -27.6485   23.8853 N   0  0  0  0  0  0  0  0  0  0  0  0
  -21.2148  -24.4341   21.4278 N   0  0  0  0  0  0  0  0  0  0  0  0
  -25.4909  -24.8374   20.0318 N   0  0  0  0  0  0  0  0  0  0  0  0
  -25.5378  -14.9201   20.3941 N   0  0  0  0  0  0  0  0  0  0  0  0
  -29.5865  -20.2092   18.9465 N   0  0  0  0  0  0  0  0  0  0  0  0
  -18.3341  -25.6758   25.1163 N   0  0  0  0  0  0  0  0  0  0  0  0
  -28.5804  -23.3701   17.5099 N   0  3  0  0  0  0  0  0  0  0  0  0
  -23.8122  -23.3411   20.4813 O   0  0  0  0  0  0  0  0  0  0  0  0
  -27.0309  -16.2298   21.6098 O   0  0  0  0  0  0  0  0  0  0  0  0
  -28.7165  -17.5169   18.4957 O   0  0  0  0  0  0  0  0  0  0  0  0
  -28.5754  -22.0223   19.9797 O   0  0  0  0  0  0  0  0  0  0  0  0
  -16.7633  -27.3428   25.0136 O   0  0  0  0  0  0  0  0  0  0  0  0
  -28.3093  -29.5992   19.3863 O   0  0  0  0  0  0  0  0  0  0  0  0
  -22.9170  -20.9779   23.6189 O   0  0  0  0  0  0  0  0  0  1  0  0
  -18.4890  -19.3900   24.9724 O   0  0  0  0  0  0  0  0  0  0  0  0
  -33.0383  -27.5420   21.3379 F   0  0  0  0  0  0  0  0  0  0  0  0
  -29.0842  -27.0134   18.7900 F   0  0  0  0  0  0  0  0  0  0  0  0
  1  2  1  0  0  0  0
  1  5  2  0  0  0  0
  2  6  2  0  0  0  0
  3  8  2  0  0  0  0
  3 17  1  0  0  0  0
  4  9  1  0  0  0  0
  4 17  2  0  0  0  0
  5 19  1  0  0  0  0
  6 21  1  0  0  0  0
  7 10  2  0  0  0  0
  7 20  1  0  0  0  0
  8 25  1  0  0  0  0
  9 25  2  0  0  0  0
 10 26  1  0  0  0  0
 11 12  2  0  0  0  0
 11 27  1  0  0  0  0
 12 28  1  0  0  0  0
 13 22  1  0  0  0  0
 13 26  2  0  0  0  0
 14 23  2  0  0  0  0
 14 24  1  0  0  0  0
 15 28  2  0  0  0  0
 15 29  1  0  0  0  0
 16 23  1  0  0  0  0
 16 63  2  0  0  0  0
 17 30  1  0  0  0  0
 18 30  1  0  0  0  0
 18 32  2  0  0  0  0
 18 33  1  0  0  0  0
 19 21  2  0  0  0  0
 19 38  1  0  0  0  0
 20 22  2  0  0  0  0
 20 39  1  0  0  0  0
 21 47  1  0  0  0  0
 22 40  1  0  0  0  0
 23 57  1  0  0  0  0
 24 31  2  0  0  0  0
 24 56  1  0  0  0  0
 25 79  1  0  0  0  0
 26 80  1  0  0  0  0
 27 29  2  0  0  0  0
 27 79  1  0  0  0  0
 28 82  1  0  0  0  0
 29 83  1  0  0  0  0
 30 64  2  0  0  0  0
 31 63  1  0  0  0  0
 31 81  1  0  0  0  0
 32 65  1  0  0  0  0
 32 68  1  0  0  0  0
 33 69  1  0  0  0  0
 33 74  2  0  0  0  0
 34 48  1  0  0  0  0
 34 70  1  0  0  0  0
 34 75  2  0  0  0  0
 35 60  1  0  0  0  0
 35 66  1  0  0  0  0
 35 76  2  0  0  0  0
 36 61  1  0  0  0  0
 36 71  1  0  0  0  0
 36 77  2  0  0  0  0
 37 67  1  0  0  0  0
 37 72  1  0  0  0  0
 37 78  2  0  0  0  0
 38 41  1  0  0  0  0
 39 48  1  0  0  0  0
 40 66  1  0  0  0  0
 41 43  1  0  0  0  0
 42 44  1  0  0  0  0
 42 45  1  0  0  0  0
 43 47  1  0  0  0  0
 44 49  1  0  0  0  0
 45 67  1  0  0  0  0
 46 49  1  0  0  0  0
 46 67  1  0  0  0  0
 47 70  1  0  0  0  0
 48 66  1  0  0  0  0
 49 65  1  0  0  0  0
 50 61  1  0  0  0  0
 51 62  1  0  0  0  0
 52 62  1  0  0  0  0
 53 62  1  0  0  0  0
 54 73  1  0  0  0  0
 55 81  1  0  0  0  0
 56 58  1  0  0  0  0
 57 72  1  0  0  0  0
 58 59  1  0  0  0  0
 59 80  1  0  0  0  0
 60 62  1  0  0  0  0
 60 71  1  0  0  0  0
 61 73  1  0  0  0  0
 64 65  1  0  0  0  0
M  CHG  1  73   1
M  ISO  4  37 100  59 101  72 100  80 101
M  END
> <Batch ID>
0095

> <Smiles>
CNC(C)C(=O)NC(C(=O)N1Cc2cc([101O:1][101CH2:1]CCc3cc(C[100NH:0][100C:0](=O)N4CCCC(n5nc(-c6ccc(Oc7ccc(F)cc7F)cc6)c(C(N)=O)c5N)C4)cnc3OC)ccc2CC1C(=O)NC1CCCc2ccccc21)C(C)(C)C

> <Shape>
0.211

> <Color>
0.073

> <Negative vol penalty>
0.000

$$$$

  -OEChem-04052319213D

 88 96  0     1  0  0  0  0  0999 V2000
  -24.7282  -36.6078   16.2485 C   0  0  0  0  0  0  0  0  0  0  0  0
  -25.2374  -35.3137   16.2110 C   0  0  0  0  0  0  0  0  0  0  0  0
  -26.4629  -12.4641   21.6575 C   0  0  0  0  0  0  0  0  0  0  0  0
  -25.9657  -13.5361   19.5502 C   0  0  0  0  0  0  0  0  0  0  0  0
  -24.6737  -37.2994   17.4578 C   0  0  0  0  0  0  0  0  0  0  0  0
  -25.6933  -34.7108   17.3828 C   0  0  0  0  0  0  0  0  0  0  0  0
  -25.3026  -28.7816   18.8653 C   0  0  0  0  0  0  0  0  0  0  0  0
  -25.8479  -22.9840   22.1745 C   0  0  0  0  0  0  0  0  0  0  0  0
  -26.3423  -23.3787   20.9314 C   0  0  0  0  0  0  0  0  0  0  0  0
  -25.1894  -11.8954   21.6687 C   0  0  0  0  0  0  0  0  0  0  0  0
  -24.6921  -12.9673   19.5614 C   0  0  0  0  0  0  0  0  0  0  0  0
  -26.2179  -27.7329   18.7871 C   0  0  0  0  0  0  0  0  0  0  0  0
  -22.0345  -12.8665   22.3952 C   0  0  0  0  0  0  0  0  0  0  0  0
  -21.3152  -12.9130   23.5894 C   0  0  0  0  0  0  0  0  0  0  0  0
  -26.8096  -28.0849   21.0991 C   0  0  0  0  0  0  0  0  0  0  0  0
  -21.2200  -10.4992   23.6260 C   0  0  0  0  0  0  0  0  0  0  0  0
  -26.8511  -13.2846   20.5983 C   0  0  0  0  0  0  0  0  0  0  0  0
  -29.3379  -13.3246   20.0309 C   0  0  0  0  0  0  0  0  0  0  0  0
  -25.1202  -36.7012   18.6467 C   0  0  0  0  0  0  0  0  0  0  0  0
  -25.1415  -29.4982   20.0599 C   0  0  0  0  0  0  0  0  0  0  0  0
  -25.6460  -35.3956   18.6089 C   0  0  0  0  0  0  0  0  0  0  0  0
  -25.8897  -29.1406   21.1906 C   0  0  0  0  0  0  0  0  0  0  0  0
  -26.7218  -22.7983   23.2457 C   0  0  0  0  0  0  0  0  0  0  0  0
  -27.7107  -23.5877   20.7595 C   0  0  0  0  0  0  0  0  0  0  0  0
  -28.0901  -23.0073   23.0738 C   0  0  0  0  0  0  0  0  0  0  0  0
  -28.5846  -23.4019   21.8307 C   0  0  0  0  0  0  0  0  0  0  0  0
  -24.3040  -12.1469   20.6206 C   0  0  0  0  0  0  0  0  0  0  0  0
  -26.9737  -27.3863   19.9033 C   0  0  0  0  0  0  0  0  0  0  0  0
  -22.3464  -11.6364   21.8163 C   0  0  0  0  0  0  0  0  0  0  0  0
  -20.9080  -11.7294   24.2048 C   0  0  0  0  0  0  0  0  0  0  0  0
  -21.9392  -10.4527   22.4317 C   0  0  0  0  0  0  0  0  0  0  0  0
  -28.1663  -13.8729   20.5864 C   0  0  0  0  0  0  0  0  0  0  0  0
  -30.3081  -14.2645   20.2791 C   0  0  0  0  0  0  0  0  0  0  0  0
  -29.5317  -12.0772   19.3511 C   0  0  0  0  0  0  0  0  0  0  0  0
  -25.5618  -32.5252   20.9341 C   0  0  0  0  0  0  0  0  0  0  0  0
  -24.2456  -31.4971   23.7150 C   0  0  0  0  0  0  0  0  0  0  0  0
  -23.5934  -28.8941   25.8235 C   0  0  0  0  0  0  0  0  0  0  0  0
  -30.0100  -20.1040   21.0960 C   0  0  0  0  0  0  0  0  0  0  0  0
  -25.0851  -37.5057   19.9219 C   0  0  0  0  0  0  0  0  0  0  0  0
  -24.1306  -30.6094   20.1356 C   0  0  0  0  0  0  0  0  0  0  0  0
  -25.7397  -29.8652   22.5024 C   0  0  0  0  0  0  0  0  0  0  0  0
  -25.2415  -36.6577   21.1815 C   0  0  0  0  0  0  0  0  0  0  0  0
  -31.4727  -17.7138   23.3862 C   0  0  0  0  0  0  0  0  0  0  0  0
  -26.3921  -35.6693   21.0202 C   0  0  0  0  0  0  0  0  0  0  0  0
  -30.8927  -16.3981   22.8640 C   0  0  0  0  0  0  0  0  0  0  0  0
  -30.4528  -18.8446   23.2892 C   0  0  0  0  0  0  0  0  0  0  0  0
  -29.3169  -17.7439   21.3993 C   0  0  0  0  0  0  0  0  0  0  0  0
  -26.1273  -34.6986   19.8630 C   0  0  1  0  0  0  0  0  0  0  0  0
  -24.4190  -31.6042   21.2557 C   0  0  1  0  0  0  0  0  0  0  0  0
  -30.3071  -16.5661   21.4495 C   0  0  2  0  0  0  0  0  0  0  0  0
  -28.9824  -23.9725   25.2089 C   0  0  0  0  0  0  0  0  0  0  0  0
  -22.5349  -28.3703   28.0377 C   0  0  0  0  0  0  0  0  0  0  0  0
  -26.6769  -32.6561   25.1488 C   0  0  0  0  0  0  0  0  0  0  0  0
  -26.0503  -31.3013   27.1587 C   0  0  0  0  0  0  0  0  0  0  0  0
  -24.4955  -33.0553   26.3049 C   0  0  0  0  0  0  0  0  0  0  0  0
  -25.8171  -17.4009   23.5835 C   0  0  0  0  0  0  0  0  0  0  0  0
  -21.5997  -27.0973   24.5763 C   0  0  0  0  0  0  0  0  0  0  0  0
  -26.1661  -22.3759   24.5664 C   0  0  0  0  0  0  0  0  0  0  0  0
  -28.2195  -24.0125   19.4034 C   0  0  0  0  0  0  0  0  0  0  0  0
  -29.0248  -22.8086   24.2247 C   0  0  0  0  0  0  0  0  0  0  0  0
  -30.0521  -23.6250   21.6440 C   0  0  0  0  0  0  0  0  0  0  0  0
  -25.3252  -21.0864   24.5186 C   0  0  0  0  0  0  0  0  0  0  0  0
  -30.7604  -22.4640   20.9397 C   0  0  0  0  0  0  0  0  0  0  0  0
  -26.0772  -19.8369   24.0708 C   0  0  0  0  0  0  0  0  0  0  0  0
  -27.5712  -25.3051   18.9197 C   0  0  0  0  0  0  0  0  0  1  0  0
  -24.7812  -30.9098   24.9984 C   0  0  1  0  0  0  0  0  0  0  0  0
  -22.3218  -28.4686   26.5351 C   0  0  2  0  0  0  0  0  0  0  0  0
  -25.5054  -31.9680   25.8776 C   0  0  0  0  0  0  0  0  0  0  0  0
  -28.3714  -15.0684   21.1456 N   0  0  0  0  0  0  0  0  0  0  0  0
  -29.6831  -15.2790   20.9428 N   0  0  0  0  0  0  0  0  0  0  0  0
  -24.7429  -30.9486   22.5243 N   0  0  0  0  0  0  0  0  0  0  0  0
  -29.9484  -18.9636   21.9139 N   0  0  0  0  0  0  0  0  0  0  0  0
  -31.6263  -14.3139   19.9924 N   0  0  0  0  0  0  0  0  0  0  0  0
  -28.4281  -11.2301   19.1815 N   0  0  0  0  0  0  0  0  0  0  0  0
  -25.1867  -33.6755   20.2667 N   0  0  0  0  0  0  0  0  0  0  0  0
  -23.6505  -30.2613   25.6536 N   0  0  0  0  0  0  0  0  0  0  0  0
  -30.6175  -21.2188   21.6608 N   0  0  0  0  0  0  0  0  0  0  0  0
  -25.1655  -18.6708   24.0085 N   0  3  0  0  0  0  0  0  0  0  0  0
  -21.8694  -27.1390   26.0366 N   0  3  0  0  0  0  0  0  0  0  0  0
  -30.6539  -11.7169   18.9217 O   0  0  0  0  0  0  0  0  0  0  0  0
  -26.6995  -32.2158   21.2682 O   0  0  0  0  0  0  0  0  0  0  0  0
  -23.4113  -32.4042   23.7669 O   0  0  0  0  0  0  0  0  0  0  0  0
  -24.4520  -28.0942   25.4584 O   0  0  0  0  0  0  0  0  0  0  0  0
  -29.5615  -20.1258   19.9447 O   0  0  0  0  0  0  0  0  0  0  0  0
  -23.0613  -11.5918   20.6311 O   0  0  0  0  0  0  0  0  0  0  0  0
  -27.8683  -26.3635   19.8295 O   0  0  0  0  0  0  0  0  0  1  0  0
  -20.2186  -11.7741   25.3524 F   0  0  0  0  0  0  0  0  0  0  0  0
  -22.2370   -9.2678   21.8810 F   0  0  0  0  0  0  0  0  0  0  0  0
  1  2  1  0  0  0  0
  1  5  2  0  0  0  0
  2  6  2  0  0  0  0
  3 10  2  0  0  0  0
  3 17  1  0  0  0  0
  4 11  1  0  0  0  0
  4 17  2  0  0  0  0
  5 19  1  0  0  0  0
  6 21  1  0  0  0  0
  7 12  2  0  0  0  0
  7 20  1  0  0  0  0
  8  9  1  0  0  0  0
  8 23  2  0  0  0  0
  9 24  2  0  0  0  0
 10 27  1  0  0  0  0
 11 27  2  0  0  0  0
 12 28  1  0  0  0  0
 13 14  2  0  0  0  0
 13 29  1  0  0  0  0
 14 30  1  0  0  0  0
 15 22  1  0  0  0  0
 15 28  2  0  0  0  0
 16 30  2  0  0  0  0
 16 31  1  0  0  0  0
 17 32  1  0  0  0  0
 18 32  1  0  0  0  0
 18 33  2  0  0  0  0
 18 34  1  0  0  0  0
 19 21  2  0  0  0  0
 19 39  1  0  0  0  0
 20 22  2  0  0  0  0
 20 40  1  0  0  0  0
 21 48  1  0  0  0  0
 22 41  1  0  0  0  0
 23 25  1  0  0  0  0
 23 58  1  0  0  0  0
 24 26  1  0  0  0  0
 24 59  1  0  0  0  0
 25 26  2  0  0  0  0
 25 60  1  0  0  0  0
 26 61  1  0  0  0  0
 27 85  1  0  0  0  0
 28 86  1  0  0  0  0
 29 31  2  0  0  0  0
 29 85  1  0  0  0  0
 30 87  1  0  0  0  0
 31 88  1  0  0  0  0
 32 69  2  0  0  0  0
 33 70  1  0  0  0  0
 33 73  1  0  0  0  0
 34 74  1  0  0  0  0
 34 80  2  0  0  0  0
 35 49  1  0  0  0  0
 35 75  1  0  0  0  0
 35 81  2  0  0  0  0
 36 66  1  0  0  0  0
 36 71  1  0  0  0  0
 36 82  2  0  0  0  0
 37 67  1  0  0  0  0
 37 76  1  0  0  0  0
 37 83  2  0  0  0  0
 38 72  1  0  0  0  0
 38 77  1  0  0  0  0
 38 84  2  0  0  0  0
 39 42  1  0  0  0  0
 40 49  1  0  0  0  0
 41 71  1  0  0  0  0
 42 44  1  0  0  0  0
 43 45  1  0  0  0  0
 43 46  1  0  0  0  0
 44 48  1  0  0  0  0
 45 50  1  0  0  0  0
 46 72  1  0  0  0  0
 47 50  1  0  0  0  0
 47 72  1  0  0  0  0
 48 75  1  0  0  0  0
 49 71  1  0  0  0  0
 50 70  1  0  0  0  0
 51 60  1  0  0  0  0
 52 67  1  0  0  0  0
 53 68  1  0  0  0  0
 54 68  1  0  0  0  0
 55 68  1  0  0  0  0
 56 78  1  0  0  0  0
 57 79  1  0  0  0  0
 58 62  1  0  0  0  0
 59 65  1  0  0  0  0
 61 63  1  0  0  0  0
 62 64  1  0  0  0  0
 63 77  1  0  0  0  0
 64 78  1  0  0  0  0
 65 86  1  0  0  0  0
 66 68  1  0  0  0  0
 66 76  1  0  0  0  0
 67 79  1  0  0  0  0
 69 70  1  0  0  0  0
M  CHG  2  78   1  79   1
M  ISO  4  38 100  65 101  77 100  86 101
M  END
> <Batch ID>
0095

> <Smiles>
CCc1c(CCCNC)ccc(C[101CH2:1][101O:1]c2ccc3c(c2)CN(C(=O)C(NC(=O)C(C)NC)C(C)(C)C)C(C(=O)NC2CCCc4ccccc42)C3)c1CC[100NH:0][100C:0](=O)N1CCCC(n2nc(-c3ccc(Oc4ccc(F)cc4F)cc3)c(C(N)=O)c2N)C1

> <Shape>
0.257

> <Color>
0.120

> <Negative vol penalty>
0.000

$$$$

  -OEChem-04052319213D

 89 97  0     1  0  0  0  0  0999 V2000
  -25.3998  -17.9671   37.7602 C   0  0  0  0  0  0  0  0  0  0  0  0
  -26.2657  -17.1982   36.9892 C   0  0  0  0  0  0  0  0  0  0  0  0
  -23.1909   -9.8191   19.9316 C   0  0  0  0  0  0  0  0  0  0  0  0
  -23.5685   -9.9993   22.3111 C   0  0  0  0  0  0  0  0  0  0  0  0
  -24.2355  -17.3988   38.2752 C   0  0  0  0  0  0  0  0  0  0  0  0
  -25.9681  -15.8600   36.7336 C   0  0  0  0  0  0  0  0  0  0  0  0
  -26.7146  -14.5953   31.8871 C   0  0  0  0  0  0  0  0  0  0  0  0
  -22.4247   -8.6723   20.1400 C   0  0  0  0  0  0  0  0  0  0  0  0
  -22.8023   -8.8526   22.5196 C   0  0  0  0  0  0  0  0  0  0  0  0
  -28.0301  -14.3726   31.4825 C   0  0  0  0  0  0  0  0  0  0  0  0
  -23.2039   -5.5060   22.2553 C   0  0  0  0  0  0  0  0  0  0  0  0
  -23.7021   -4.5446   23.1346 C   0  0  0  0  0  0  0  0  0  0  0  0
  -27.6767  -11.9933   31.6640 C   0  0  0  0  0  0  0  0  0  0  0  0
  -32.7336  -12.6395   26.7959 C   0  0  0  0  0  0  0  0  0  0  0  0
  -21.7452   -4.8043   24.5275 C   0  0  0  0  0  0  0  0  0  0  0  0
  -34.9477  -12.5348   27.6582 C   0  0  0  0  0  0  0  0  0  0  0  0
  -23.7629  -10.4826   21.0171 C   0  0  0  0  0  0  0  0  0  0  0  0
  -24.1013  -12.9993   20.7736 C   0  0  0  0  0  0  0  0  0  0  0  0
  -23.9187  -16.0557   38.0177 C   0  0  0  0  0  0  0  0  0  0  0  0
  -25.8722  -13.5172   32.1942 C   0  0  0  0  0  0  0  0  0  0  0  0
  -24.7991  -15.2729   37.2467 C   0  0  0  0  0  0  0  0  0  0  0  0
  -26.3502  -12.2049   32.0698 C   0  0  0  0  0  0  0  0  0  0  0  0
  -33.6230  -12.9018   27.8320 C   0  0  0  0  0  0  0  0  0  0  0  0
  -33.1897  -12.0268   25.6341 C   0  0  0  0  0  0  0  0  0  0  0  0
  -22.2304   -8.1891   21.4340 C   0  0  0  0  0  0  0  0  0  0  0  0
  -28.5122  -13.0715   31.3737 C   0  0  0  0  0  0  0  0  0  0  0  0
  -21.9763   -6.1165   22.5121 C   0  0  0  0  0  0  0  0  0  0  0  0
  -22.9728   -4.1938   24.2707 C   0  0  0  0  0  0  0  0  0  0  0  0
  -21.2469   -5.7657   23.6482 C   0  0  0  0  0  0  0  0  0  0  0  0
  -24.5549  -11.6669   20.8024 C   0  0  0  0  0  0  0  0  0  0  0  0
  -34.5339  -11.6991   25.5585 C   0  0  0  0  0  0  0  0  0  0  0  0
  -25.2325  -13.7421   20.5387 C   0  0  0  0  0  0  0  0  0  0  0  0
  -22.7760  -13.5190   20.9441 C   0  0  0  0  0  0  0  0  0  0  0  0
  -24.3361  -12.5423   34.8007 C   0  0  0  0  0  0  0  0  0  0  0  0
  -23.0780  -10.3513   32.7663 C   0  0  0  0  0  0  0  0  0  0  0  0
  -23.3817   -8.5832   29.8632 C   0  0  0  0  0  0  0  0  0  0  0  0
  -31.0471  -12.7528   21.5693 C   0  0  0  0  0  0  0  0  0  0  0  0
  -22.6724  -15.4725   38.6352 C   0  0  0  0  0  0  0  0  0  0  0  0
  -24.4477  -13.7734   32.6034 C   0  0  0  0  0  0  0  0  0  0  0  0
  -25.4800  -11.0123   32.3683 C   0  0  0  0  0  0  0  0  0  0  0  0
  -22.2422  -14.1500   38.0058 C   0  0  0  0  0  0  0  0  0  0  0  0
  -29.5204  -13.4702   18.4338 C   0  0  0  0  0  0  0  0  0  0  0  0
  -23.4392  -13.2167   37.8540 C   0  0  0  0  0  0  0  0  0  0  0  0
  -28.0338  -13.2096   18.6827 C   0  0  0  0  0  0  0  0  0  0  0  0
  -30.4017  -12.4809   19.1932 C   0  0  0  0  0  0  0  0  0  0  0  0
  -28.6478  -12.1378   20.8902 C   0  0  0  0  0  0  0  0  0  0  0  0
  -24.4986  -13.8246   36.9268 C   0  0  1  0  0  0  0  0  0  0  0  0
  -23.8338  -12.6170   33.3866 C   0  0  1  0  0  0  0  0  0  0  0  0
  -27.7203  -13.1455   20.1897 C   0  0  2  0  0  0  0  0  0  0  0  0
  -22.2128   -6.8411   28.4862 C   0  0  0  0  0  0  0  0  0  0  0  0
  -32.1350  -12.1838   32.5990 C   0  0  0  0  0  0  0  0  0  0  0  0
  -34.8721  -11.9335   23.0733 C   0  0  0  0  0  0  0  0  0  0  0  0
  -34.3756   -9.6748   24.0673 C   0  0  0  0  0  0  0  0  0  0  0  0
  -36.6104  -10.7205   24.3728 C   0  0  0  0  0  0  0  0  0  0  0  0
  -23.9961   -8.1948   34.7198 C   0  0  0  0  0  0  0  0  0  0  0  0
  -23.6749   -6.5067   32.8989 C   0  0  0  0  0  0  0  0  0  0  0  0
  -21.7262   -7.8171   33.7404 C   0  0  0  0  0  0  0  0  0  0  0  0
  -23.1044  -10.4223   27.5610 C   0  0  0  0  0  0  0  0  0  0  0  0
  -33.1606  -13.5659   29.1048 C   0  0  0  0  0  0  0  0  0  0  0  0
  -32.6939  -12.5829   30.1875 C   0  0  0  0  0  0  0  0  0  0  0  0
  -31.5366  -13.0039   23.9893 C   0  0  0  0  0  0  0  0  0  0  0  0
  -30.7582  -13.8511   31.3128 C   0  0  0  0  0  0  0  0  0  1  0  0
  -32.2418  -11.7412   24.5208 C   0  0  2  0  0  0  0  0  0  0  0  0
  -23.4685   -8.9654   32.3128 C   0  0  1  0  0  0  0  0  0  0  0  0
  -22.4027   -8.3300   28.7309 C   0  0  2  0  0  0  0  0  0  0  0  0
  -32.1529  -13.2331   31.4801 C   0  0  1  0  0  0  0  0  0  0  0  0
  -35.0801  -11.0401   24.3343 C   0  0  0  0  0  0  0  0  0  0  0  0
  -23.2337   -7.8933   33.4142 C   0  0  0  0  0  0  0  0  0  0  0  0
  -35.4278  -11.9381   26.5442 N   0  0  0  0  0  0  0  0  0  0  0  0
  -25.8715  -11.5660   20.6015 N   0  0  0  0  0  0  0  0  0  0  0  0
  -26.2550  -12.8444   20.4443 N   0  0  0  0  0  0  0  0  0  0  0  0
  -24.0966  -11.3148   32.7708 N   0  0  0  0  0  0  0  0  0  0  0  0
  -30.0548  -12.4696   20.6164 N   0  0  0  0  0  0  0  0  0  0  0  0
  -25.4423  -15.0690   20.4056 N   0  0  0  0  0  0  0  0  0  0  0  0
  -21.7294  -12.6166   21.1779 N   0  0  0  0  0  0  0  0  0  0  0  0
  -24.0996  -13.6837   35.5428 N   0  0  0  0  0  0  0  0  0  0  0  0
  -22.7373   -8.7199   31.0745 N   0  0  0  0  0  0  0  0  0  0  0  0
  -30.6326  -12.7273   22.8953 N   0  0  0  0  0  0  0  0  0  0  0  0
  -31.1767  -10.7437   24.8949 N   0  3  0  0  0  0  0  0  0  0  0  0
  -22.8957   -8.9542   27.4706 N   0  3  0  0  0  0  0  0  0  0  0  0
  -22.5246  -14.7460   20.8745 O   0  0  0  0  0  0  0  0  0  0  0  0
  -24.8955  -11.5240   35.1902 O   0  0  0  0  0  0  0  0  0  0  0  0
  -21.9105  -10.5727   33.0974 O   0  0  0  0  0  0  0  0  0  0  0  0
  -24.5968   -8.6492   29.6909 O   0  0  0  0  0  0  0  0  0  0  0  0
  -32.2147  -13.0146   21.2609 O   0  0  0  0  0  0  0  0  0  0  0  0
  -21.4826   -7.0702   21.6378 O   0  0  0  0  0  0  0  0  0  0  0  0
  -29.7960  -12.8514   30.9797 O   0  0  0  0  0  0  0  0  0  1  0  0
  -23.4507   -3.2695   25.1141 F   0  0  0  0  0  0  0  0  0  0  0  0
  -20.0664   -6.3479   23.8996 F   0  0  0  0  0  0  0  0  0  0  0  0
  1  2  1  0  0  0  0
  1  5  2  0  0  0  0
  2  6  2  0  0  0  0
  3  8  2  0  0  0  0
  3 17  1  0  0  0  0
  4  9  1  0  0  0  0
  4 17  2  0  0  0  0
  5 19  1  0  0  0  0
  6 21  1  0  0  0  0
  7 10  2  0  0  0  0
  7 20  1  0  0  0  0
  8 25  1  0  0  0  0
  9 25  2  0  0  0  0
 10 26  1  0  0  0  0
 11 12  2  0  0  0  0
 11 27  1  0  0  0  0
 12 28  1  0  0  0  0
 13 22  1  0  0  0  0
 13 26  2  0  0  0  0
 14 23  2  0  0  0  0
 14 24  1  0  0  0  0
 15 28  2  0  0  0  0
 15 29  1  0  0  0  0
 16 23  1  0  0  0  0
 16 69  2  0  0  0  0
 17 30  1  0  0  0  0
 18 30  1  0  0  0  0
 18 32  2  0  0  0  0
 18 33  1  0  0  0  0
 19 21  2  0  0  0  0
 19 38  1  0  0  0  0
 20 22  2  0  0  0  0
 20 39  1  0  0  0  0
 21 47  1  0  0  0  0
 22 40  1  0  0  0  0
 23 59  1  0  0  0  0
 24 31  2  0  0  0  0
 24 63  1  0  0  0  0
 25 86  1  0  0  0  0
 26 87  1  0  0  0  0
 27 29  2  0  0  0  0
 27 86  1  0  0  0  0
 28 88  1  0  0  0  0
 29 89  1  0  0  0  0
 30 70  2  0  0  0  0
 31 67  1  0  0  0  0
 31 69  1  0  0  0  0
 32 71  1  0  0  0  0
 32 74  1  0  0  0  0
 33 75  1  0  0  0  0
 33 81  2  0  0  0  0
 34 48  1  0  0  0  0
 34 76  1  0  0  0  0
 34 82  2  0  0  0  0
 35 64  1  0  0  0  0
 35 72  1  0  0  0  0
 35 83  2  0  0  0  0
 36 65  1  0  0  0  0
 36 77  1  0  0  0  0
 36 84  2  0  0  0  0
 37 73  1  0  0  0  0
 37 78  1  0  0  0  0
 37 85  2  0  0  0  0
 38 41  1  0  0  0  0
 39 48  1  0  0  0  0
 40 72  1  0  0  0  0
 41 43  1  0  0  0  0
 42 44  1  0  0  0  0
 42 45  1  0  0  0  0
 43 47  1  0  0  0  0
 44 49  1  0  0  0  0
 45 73  1  0  0  0  0
 46 49  1  0  0  0  0
 46 73  1  0  0  0  0
 47 76  1  0  0  0  0
 48 72  1  0  0  0  0
 49 71  1  0  0  0  0
 50 65  1  0  0  0  0
 51 66  1  0  0  0  0
 52 67  1  0  0  0  0
 53 67  1  0  0  0  0
 54 67  1  0  0  0  0
 55 68  1  0  0  0  0
 56 68  1  0  0  0  0
 57 68  1  0  0  0  0
 58 80  1  0  0  0  0
 59 60  1  0  0  0  0
 60 66  1  0  0  0  0
 61 63  1  0  0  0  0
 61 78  1  0  0  0  0
 62 66  1  0  0  0  0
 62 87  1  0  0  0  0
 63 79  1  0  0  0  0
 64 68  1  0  0  0  0
 64 77  1  0  0  0  0
 65 80  1  0  0  0  0
 70 71  1  0  0  0  0
M  CHG  2  79   1  80   1
M  ISO  4  37 100  62 101  78 100  87 101
M  END
> <Batch ID>
0095

> <Smiles>
CNC(C)C(=O)NC(C(=O)N1Cc2cc([101O:1][101CH2:1]C(C)CCc3cnc(C(C)(C)C)c(C(N)C[100NH:0][100C:0](=O)N4CCCC(n5nc(-c6ccc(Oc7ccc(F)cc7F)cc6)c(C(N)=O)c5N)C4)c3)ccc2CC1C(=O)NC1CCCc2ccccc21)C(C)(C)C

> <Shape>
0.137

> <Color>
0.171

> <Negative vol penalty>
0.000

$$$$

  -OEChem-04052319213D

 85 93  0     1  0  0  0  0  0999 V2000
  -22.2884  -23.3717   10.1786 C   0  0  0  0  0  0  0  0  0  0  0  0
  -22.5636  -23.7008   11.5020 C   0  0  0  0  0  0  0  0  0  0  0  0
  -28.9933  -17.7143   19.5352 C   0  0  0  0  0  0  0  0  0  0  0  0
  -30.5845  -18.1176   21.3080 C   0  0  0  0  0  0  0  0  0  0  0  0
  -21.4339  -22.3087    9.8890 C   0  0  0  0  0  0  0  0  0  0  0  0
  -21.9835  -22.9677   12.5367 C   0  0  0  0  0  0  0  0  0  0  0  0
  -25.2958  -21.8004   16.1850 C   0  0  0  0  0  0  0  0  0  0  0  0
  -29.5407  -16.4475   19.3321 C   0  0  0  0  0  0  0  0  0  0  0  0
  -31.1318  -16.8508   21.1049 C   0  0  0  0  0  0  0  0  0  0  0  0
  -25.6248  -22.8068   17.0922 C   0  0  0  0  0  0  0  0  0  0  0  0
  -29.3736  -13.3994   20.7861 C   0  0  0  0  0  0  0  0  0  0  0  0
  -28.4922  -12.3294   20.6326 C   0  0  0  0  0  0  0  0  0  0  0  0
  -24.0514  -29.3730   20.1612 C   0  0  0  0  0  0  0  0  0  0  0  0
  -24.1309  -30.2956   21.2334 C   0  0  0  0  0  0  0  0  0  0  0  0
  -24.0902  -21.8570   18.6929 C   0  0  0  0  0  0  0  0  0  0  0  0
  -29.4016  -11.8952   18.4368 C   0  0  0  0  0  0  0  0  0  0  0  0
  -29.5153  -18.5493   20.5231 C   0  0  0  0  0  0  0  0  0  0  0  0
  -27.8967  -20.2001   21.6015 C   0  0  0  0  0  0  0  0  0  0  0  0
  -20.8507  -21.5561   10.9205 C   0  0  0  0  0  0  0  0  0  0  0  0
  -24.3520  -20.8195   16.5216 C   0  0  0  0  0  0  0  0  0  0  0  0
  -21.1193  -21.8945   12.2606 C   0  0  0  0  0  0  0  0  0  0  0  0
  -23.7530  -20.8378   17.7892 C   0  0  0  0  0  0  0  0  0  0  0  0
  -30.6099  -16.0157   20.1169 C   0  0  0  0  0  0  0  0  0  0  0  0
  -25.0198  -22.8369   18.3452 C   0  0  0  0  0  0  0  0  0  0  0  0
  -30.2691  -13.7174   19.7649 C   0  0  0  0  0  0  0  0  0  0  0  0
  -28.5062  -11.5772   19.4579 C   0  0  0  0  0  0  0  0  0  0  0  0
  -30.2831  -12.9653   18.5903 C   0  0  0  0  0  0  0  0  0  0  0  0
  -28.9506  -19.8582   20.7331 C   0  0  0  0  0  0  0  0  0  0  0  0
  -25.2401  -28.6779   20.1277 C   0  0  0  0  0  0  0  0  0  0  0  0
  -25.3659  -30.1363   21.8223 C   0  0  0  0  0  0  0  0  0  0  0  0
  -27.7402  -21.5545   21.4350 C   0  0  0  0  0  0  0  0  0  0  0  0
  -27.1280  -19.3679   22.4802 C   0  0  0  0  0  0  0  0  0  0  0  0
  -21.5219  -19.9413   15.3712 C   0  0  0  0  0  0  0  0  0  0  0  0
  -21.8193  -17.5474   17.5398 C   0  0  0  0  0  0  0  0  0  0  0  0
  -23.2154  -16.4273   20.4455 C   0  0  0  0  0  0  0  0  0  0  0  0
  -29.8746  -26.5804   21.0720 C   0  0  0  0  0  0  0  0  0  0  0  0
  -19.8962  -20.4459   10.5587 C   0  0  0  0  0  0  0  0  0  0  0  0
  -24.0279  -19.7252   15.5417 C   0  0  0  0  0  0  0  0  0  0  0  0
  -22.7485  -19.7962   18.2069 C   0  0  0  0  0  0  0  0  0  0  0  0
  -19.6178  -19.4827   11.7098 C   0  0  0  0  0  0  0  0  0  0  0  0
  -29.6950  -24.6975   17.9866 C   0  0  0  0  0  0  0  0  0  0  0  0
  -19.3250  -20.2543   12.9926 C   0  0  0  0  0  0  0  0  0  0  0  0
  -29.3960  -23.2901   18.5061 C   0  0  0  0  0  0  0  0  0  0  0  0
  -30.6584  -25.4352   18.9117 C   0  0  0  0  0  0  0  0  0  0  0  0
  -29.9096  -24.1121   20.8514 C   0  0  0  0  0  0  0  0  0  0  0  0
  -20.5289  -21.1074   13.4103 C   0  0  1  0  0  0  0  0  0  0  0  0
  -22.6723  -19.0747   15.7993 C   0  0  1  0  0  0  0  0  0  0  0  0
  -28.9234  -23.3224   19.9716 C   0  0  2  0  0  0  0  0  0  0  0  0
  -25.1737  -30.6287   24.2869 C   0  0  0  0  0  0  0  0  0  0  0  0
  -26.1406  -32.3576   22.7278 C   0  0  0  0  0  0  0  0  0  0  0  0
  -23.7966  -14.8169   22.2803 C   0  0  0  0  0  0  0  0  0  0  0  0
  -19.0841  -18.3574   18.6227 C   0  0  0  0  0  0  0  0  0  0  0  0
  -19.5820  -17.0238   20.6823 C   0  0  0  0  0  0  0  0  0  0  0  0
  -19.4543  -15.8891   18.4645 C   0  0  0  0  0  0  0  0  0  0  0  0
  -25.6002  -15.4501   18.9905 C   0  0  0  0  0  0  0  0  0  0  0  0
  -25.6930  -27.5829   19.1952 C   0  0  0  0  0  0  0  0  0  0  0  0
  -25.3408  -26.1752   19.6812 C   0  0  0  0  0  0  0  0  0  0  0  0
  -28.4824  -29.5938   20.9229 C   0  0  0  0  0  0  0  0  0  0  0  0
  -27.3663  -28.6803   21.4475 C   0  0  0  0  0  0  0  0  0  0  0  0
  -29.8960  -29.0605   21.1457 C   0  0  0  0  0  0  0  0  0  0  0  0
  -25.7260  -25.0811   18.6923 C   0  0  0  0  0  0  0  0  0  1  0  0
  -25.9628  -30.8420   22.9749 C   0  0  0  0  0  0  0  0  0  0  0  0
  -21.4391  -17.3646   18.9893 C   0  0  1  0  0  0  0  0  0  0  0  0
  -23.9038  -15.1199   20.7938 C   0  0  2  0  0  0  0  0  0  0  0  0
  -19.9073  -17.1796   19.1814 C   0  0  0  0  0  0  0  0  0  0  0  0
  -29.4297  -20.9105   20.0643 N   0  0  0  0  0  0  0  0  0  0  0  0
  -26.0316  -29.1505   21.1418 N   0  0  0  0  0  0  0  0  0  0  0  0
  -28.6733  -21.9269   20.5126 N   0  0  0  0  0  0  0  0  0  0  0  0
  -22.4601  -18.7505   17.2115 N   0  0  0  0  0  0  0  0  0  0  0  0
  -30.1411  -25.4461   20.2874 N   0  0  0  0  0  0  0  0  0  0  0  0
  -26.8968  -22.4512   21.9889 N   0  0  0  0  0  0  0  0  0  0  0  0
  -27.4202  -17.9980   22.5286 N   0  0  0  0  0  0  0  0  0  0  0  0
  -21.5419  -20.2818   14.0321 N   0  0  0  0  0  0  0  0  0  0  0  0
  -22.2421  -16.2518   19.4847 N   0  0  0  0  0  0  0  0  0  0  0  0
  -30.1270  -27.8052   20.4663 N   0  0  0  0  0  0  0  0  0  0  0  0
  -25.3476  -15.1815   20.4297 N   0  3  0  0  0  0  0  0  0  0  0  0
  -26.1983  -19.8227   23.1889 O   0  0  0  0  0  0  0  0  0  0  0  0
  -20.6778  -20.2752   16.1945 O   0  0  0  0  0  0  0  0  0  0  0  0
  -21.5638  -16.6526   16.7301 O   0  0  0  0  0  0  0  0  0  0  0  0
  -23.5091  -17.4965   20.9756 O   0  0  0  0  0  0  0  0  0  0  0  0
  -29.4385  -26.5074   22.2260 O   0  0  0  0  0  0  0  0  0  0  0  0
  -31.1441  -14.7796   19.9192 O   0  0  0  0  0  0  0  0  0  0  0  0
  -25.3385  -23.8184   19.2323 O   0  0  0  0  0  0  0  0  0  1  0  0
  -27.6607  -10.5487   19.3113 F   0  0  0  0  0  0  0  0  0  0  0  0
  -31.1419  -13.2653   17.6063 F   0  0  0  0  0  0  0  0  0  0  0  0
  1  2  1  0  0  0  0
  1  5  2  0  0  0  0
  2  6  2  0  0  0  0
  3  8  2  0  0  0  0
  3 17  1  0  0  0  0
  4  9  1  0  0  0  0
  4 17  2  0  0  0  0
  5 19  1  0  0  0  0
  6 21  1  0  0  0  0
  7 10  2  0  0  0  0
  7 20  1  0  0  0  0
  8 23  1  0  0  0  0
  9 23  2  0  0  0  0
 10 24  1  0  0  0  0
 11 12  2  0  0  0  0
 11 25  1  0  0  0  0
 12 26  1  0  0  0  0
 13 14  1  0  0  0  0
 13 29  2  0  0  0  0
 14 30  2  0  0  0  0
 15 22  1  0  0  0  0
 15 24  2  0  0  0  0
 16 26  2  0  0  0  0
 16 27  1  0  0  0  0
 17 28  1  0  0  0  0
 18 28  1  0  0  0  0
 18 31  2  0  0  0  0
 18 32  1  0  0  0  0
 19 21  2  0  0  0  0
 19 37  1  0  0  0  0
 20 22  2  0  0  0  0
 20 38  1  0  0  0  0
 21 46  1  0  0  0  0
 22 39  1  0  0  0  0
 23 82  1  0  0  0  0
 24 83  1  0  0  0  0
 25 27  2  0  0  0  0
 25 82  1  0  0  0  0
 26 84  1  0  0  0  0
 27 85  1  0  0  0  0
 28 66  2  0  0  0  0
 29 56  1  0  0  0  0
 29 67  1  0  0  0  0
 30 62  1  0  0  0  0
 30 67  1  0  0  0  0
 31 68  1  0  0  0  0
 31 71  1  0  0  0  0
 32 72  1  0  0  0  0
 32 77  2  0  0  0  0
 33 47  1  0  0  0  0
 33 73  1  0  0  0  0
 33 78  2  0  0  0  0
 34 63  1  0  0  0  0
 34 69  1  0  0  0  0
 34 79  2  0  0  0  0
 35 64  1  0  0  0  0
 35 74  1  0  0  0  0
 35 80  2  0  0  0  0
 36 70  1  0  0  0  0
 36 75  1  0  0  0  0
 36 81  2  0  0  0  0
 37 40  1  0  0  0  0
 38 47  1  0  0  0  0
 39 69  1  0  0  0  0
 40 42  1  0  0  0  0
 41 43  1  0  0  0  0
 41 44  1  0  0  0  0
 42 46  1  0  0  0  0
 43 48  1  0  0  0  0
 44 70  1  0  0  0  0
 45 48  1  0  0  0  0
 45 70  1  0  0  0  0
 46 73  1  0  0  0  0
 47 69  1  0  0  0  0
 48 68  1  0  0  0  0
 49 62  1  0  0  0  0
 50 62  1  0  0  0  0
 51 64  1  0  0  0  0
 52 65  1  0  0  0  0
 53 65  1  0  0  0  0
 54 65  1  0  0  0  0
 55 76  1  0  0  0  0
 56 57  1  0  0  0  0
 57 61  1  0  0  0  0
 58 59  1  0  0  0  0
 58 60  1  0  0  0  0
 59 67  1  0  0  0  0
 60 75  1  0  0  0  0
 61 83  1  0  0  0  0
 63 65  1  0  0  0  0
 63 74  1  0  0  0  0
 64 76  1  0  0  0  0
 66 68  1  0  0  0  0
M  CHG  1  76   1
M  ISO  4  36 100  61 101  75 100  83 101
M  END
> <Batch ID>
0095

> <Smiles>
CNC(C)C(=O)NC(C(=O)N1Cc2cc([101O:1][101CH2:1]CCc3ccc(C(C)C)n3CCC[100NH:0][100C:0](=O)N3CCCC(n4nc(-c5ccc(Oc6ccc(F)cc6F)cc5)c(C(N)=O)c4N)C3)ccc2CC1C(=O)NC1CCCc2ccccc21)C(C)(C)C

> <Shape>
0.236

> <Color>
0.078

> <Negative vol penalty>
0.000

$$$$

  -OEChem-04052319213D

 80 87  0     1  0  0  0  0  0999 V2000
  -25.6690  -28.1630   16.2966 C   0  0  0  0  0  0  0  0  0  0  0  0
  -25.8168  -26.8880   16.8330 C   0  0  0  0  0  0  0  0  0  0  0  0
  -22.9830   -9.8915   19.9697 C   0  0  0  0  0  0  0  0  0  0  0  0
  -23.7437   -9.8834   22.2628 C   0  0  0  0  0  0  0  0  0  0  0  0
  -25.6861  -29.2770   17.1349 C   0  0  0  0  0  0  0  0  0  0  0  0
  -25.9828  -26.7262   18.2080 C   0  0  0  0  0  0  0  0  0  0  0  0
  -23.8903  -22.1143   21.6515 C   0  0  0  0  0  0  0  0  0  0  0  0
  -22.2136   -8.7555   20.2209 C   0  0  0  0  0  0  0  0  0  0  0  0
  -22.9743   -8.7474   22.5141 C   0  0  0  0  0  0  0  0  0  0  0  0
  -24.4969  -20.9574   22.1389 C   0  0  0  0  0  0  0  0  0  0  0  0
  -23.1907   -5.4193   21.9595 C   0  0  0  0  0  0  0  0  0  0  0  0
  -23.7834   -4.3811   22.6781 C   0  0  0  0  0  0  0  0  0  0  0  0
  -24.9391  -22.0771   24.2293 C   0  0  0  0  0  0  0  0  0  0  0  0
  -22.0869   -4.5941   24.3851 C   0  0  0  0  0  0  0  0  0  0  0  0
  -23.7481  -10.4554   20.9907 C   0  0  0  0  0  0  0  0  0  0  0  0
  -24.1462  -12.9722   20.8683 C   0  0  0  0  0  0  0  0  0  0  0  0
  -25.8428  -29.1281   18.5219 C   0  0  0  0  0  0  0  0  0  0  0  0
  -23.8132  -23.2666   22.4469 C   0  0  0  0  0  0  0  0  0  0  0  0
  -26.0033  -27.8393   19.0655 C   0  0  0  0  0  0  0  0  0  0  0  0
  -24.3288  -23.2465   23.7507 C   0  0  0  0  0  0  0  0  0  0  0  0
  -22.2092   -8.1834   21.4931 C   0  0  0  0  0  0  0  0  0  0  0  0
  -25.0239  -20.9395   23.4269 C   0  0  0  0  0  0  0  0  0  0  0  0
  -22.0461   -6.0450   22.4537 C   0  0  0  0  0  0  0  0  0  0  0  0
  -23.2315   -3.9685   23.8909 C   0  0  0  0  0  0  0  0  0  0  0  0
  -21.4943   -5.6324   23.6665 C   0  0  0  0  0  0  0  0  0  0  0  0
  -24.5435  -11.6286   20.7316 C   0  0  0  0  0  0  0  0  0  0  0  0
  -25.2547  -13.6968   20.5040 C   0  0  0  0  0  0  0  0  0  0  0  0
  -22.8877  -13.5167   21.2873 C   0  0  0  0  0  0  0  0  0  0  0  0
  -24.9388  -26.2304   22.2169 C   0  0  0  0  0  0  0  0  0  0  0  0
  -23.1393  -26.7036   24.8740 C   0  0  0  0  0  0  0  0  0  0  0  0
  -21.6214  -25.3642   27.6215 C   0  0  0  0  0  0  0  0  0  0  0  0
  -30.7599  -14.5932   20.6895 C   0  0  0  0  0  0  0  0  0  0  0  0
  -25.9023  -30.3652   19.3827 C   0  0  0  0  0  0  0  0  0  0  0  0
  -23.1319  -24.4981   21.9161 C   0  0  0  0  0  0  0  0  0  0  0  0
  -24.2533  -24.4508   24.6520 C   0  0  0  0  0  0  0  0  0  0  0  0
  -25.7074  -30.0822   20.8700 C   0  0  0  0  0  0  0  0  0  0  0  0
  -29.5684  -12.2327   18.3052 C   0  0  0  0  0  0  0  0  0  0  0  0
  -26.5635  -28.8969   21.3046 C   0  0  0  0  0  0  0  0  0  0  0  0
  -28.1249  -11.9715   18.7389 C   0  0  0  0  0  0  0  0  0  0  0  0
  -30.4907  -12.4339   19.5056 C   0  0  0  0  0  0  0  0  0  0  0  0
  -28.6063  -13.2085   20.8922 C   0  0  0  0  0  0  0  0  0  0  0  0
  -26.1609  -27.6213   20.5547 C   0  0  1  0  0  0  0  0  0  0  0  0
  -23.5670  -25.7754   22.6279 C   0  0  1  0  0  0  0  0  0  0  0  0
  -27.6280  -13.0547   19.7151 C   0  0  2  0  0  0  0  0  0  0  0  0
  -20.2569  -26.0060   29.6274 C   0  0  0  0  0  0  0  0  0  0  0  0
  -30.1047  -17.0924   24.2920 C   0  0  0  0  0  0  0  0  0  0  0  0
  -28.5773  -18.3737   20.9033 C   0  0  0  0  0  0  0  0  0  0  0  0
  -28.3661  -20.2927   23.3361 C   0  0  0  0  0  0  0  0  0  0  0  0
  -25.5345  -17.6207   22.9597 C   0  0  0  0  0  0  0  0  0  0  0  0
  -25.6441  -27.8084   26.2214 C   0  0  0  0  0  0  0  0  0  0  0  0
  -24.4922  -27.5374   28.4277 C   0  0  0  0  0  0  0  0  0  0  0  0
  -23.5481  -29.0817   26.7112 C   0  0  0  0  0  0  0  0  0  0  0  0
  -19.3491  -23.6746   26.7609 C   0  0  0  0  0  0  0  0  0  0  0  0
  -30.8743  -16.7428   21.9245 C   0  0  0  0  0  0  0  0  0  0  0  0
  -23.3752  -26.5840   26.3602 C   0  0  1  0  0  0  0  0  0  0  0  0
  -20.2210  -25.5345   28.1820 C   0  0  2  0  0  0  0  0  0  0  0  0
  -30.0554  -17.6557   22.8632 C   0  0  1  0  0  0  0  0  0  0  0  0
  -28.5878  -17.9076   22.3695 C   0  0  1  0  0  0  0  0  0  0  0  0
  -27.7670  -18.8752   23.2900 C   0  0  2  0  0  0  0  0  0  0  0  0
  -26.2557  -18.9643   22.9400 C   0  0  2  0  0  0  0  0  0  1  0  0
  -24.2682  -27.7306   26.9127 C   0  0  0  0  0  0  0  0  0  0  0  0
  -25.8057  -11.5042   20.3130 N   0  0  0  0  0  0  0  0  0  0  0  0
  -26.2112  -12.7789   20.1834 N   0  0  0  0  0  0  0  0  0  0  0  0
  -23.5832  -25.6329   24.0851 N   0  0  0  0  0  0  0  0  0  0  0  0
  -29.9636  -13.4753   20.3909 N   0  0  0  0  0  0  0  0  0  0  0  0
  -25.4948  -15.0232   20.4298 N   0  0  0  0  0  0  0  0  0  0  0  0
  -21.8559  -12.6306   21.6257 N   0  0  0  0  0  0  0  0  0  0  0  0
  -24.9482  -27.0662   21.1165 N   0  0  0  0  0  0  0  0  0  0  0  0
  -22.0560  -26.5036   26.9778 N   0  0  0  0  0  0  0  0  0  0  0  0
  -30.1820  -15.5359   21.5310 N   0  0  0  0  0  0  0  0  0  0  0  0
  -19.4806  -24.2423   28.1275 N   0  3  0  0  0  0  0  0  0  0  0  0
  -22.6791  -14.7523   21.3437 O   0  0  0  0  0  0  0  0  0  0  0  0
  -25.9163  -25.8523   22.8520 O   0  0  0  0  0  0  0  0  0  0  0  0
  -22.5753  -27.7068   24.4300 O   0  0  0  0  0  0  0  0  0  0  0  0
  -22.2669  -24.3257   27.7457 O   0  0  0  0  0  0  0  0  0  0  0  0
  -31.8994  -14.7428   20.2353 O   0  0  0  0  0  0  0  0  0  0  0  0
  -21.4584   -7.0750   21.7387 O   0  0  0  0  0  0  0  0  0  0  0  0
  -25.6193  -19.8077   23.9066 O   0  0  0  0  0  0  0  0  0  1  0  0
  -23.7999   -2.9704   24.5801 F   0  0  0  0  0  0  0  0  0  0  0  0
  -20.3941   -6.2289   24.1457 F   0  0  0  0  0  0  0  0  0  0  0  0
  1  2  1  0  0  0  0
  1  5  2  0  0  0  0
  2  6  2  0  0  0  0
  3  8  2  0  0  0  0
  3 15  1  0  0  0  0
  4  9  1  0  0  0  0
  4 15  2  0  0  0  0
  5 17  1  0  0  0  0
  6 19  1  0  0  0  0
  7 10  2  0  0  0  0
  7 18  1  0  0  0  0
  8 21  1  0  0  0  0
  9 21  2  0  0  0  0
 10 22  1  0  0  0  0
 11 12  2  0  0  0  0
 11 23  1  0  0  0  0
 12 24  1  0  0  0  0
 13 20  1  0  0  0  0
 13 22  2  0  0  0  0
 14 24  2  0  0  0  0
 14 25  1  0  0  0  0
 15 26  1  0  0  0  0
 16 26  1  0  0  0  0
 16 27  2  0  0  0  0
 16 28  1  0  0  0  0
 17 19  2  0  0  0  0
 17 33  1  0  0  0  0
 18 20  2  0  0  0  0
 18 34  1  0  0  0  0
 19 42  1  0  0  0  0
 20 35  1  0  0  0  0
 21 77  1  0  0  0  0
 22 78  1  0  0  0  0
 23 25  2  0  0  0  0
 23 77  1  0  0  0  0
 24 79  1  0  0  0  0
 25 80  1  0  0  0  0
 26 62  2  0  0  0  0
 27 63  1  0  0  0  0
 27 66  1  0  0  0  0
 28 67  1  0  0  0  0
 28 72  2  0  0  0  0
 29 43  1  0  0  0  0
 29 68  1  0  0  0  0
 29 73  2  0  0  0  0
 30 55  1  0  0  0  0
 30 64  1  0  0  0  0
 30 74  2  0  0  0  0
 31 56  1  0  0  0  0
 31 69  1  0  0  0  0
 31 75  2  0  0  0  0
 32 65  1  0  0  0  0
 32 70  1  0  0  0  0
 32 76  2  0  0  0  0
 33 36  1  0  0  0  0
 34 43  1  0  0  0  0
 35 64  1  0  0  0  0
 36 38  1  0  0  0  0
 37 39  1  0  0  0  0
 37 40  1  0  0  0  0
 38 42  1  0  0  0  0
 39 44  1  0  0  0  0
 40 65  1  0  0  0  0
 41 44  1  0  0  0  0
 41 65  1  0  0  0  0
 42 68  1  0  0  0  0
 43 64  1  0  0  0  0
 44 63  1  0  0  0  0
 45 56  1  0  0  0  0
 46 57  1  0  0  0  0
 47 58  1  0  0  0  0
 48 59  1  0  0  0  0
 49 60  1  0  0  0  0
 50 61  1  0  0  0  0
 51 61  1  0  0  0  0
 52 61  1  0  0  0  0
 53 71  1  0  0  0  0
 54 57  1  0  0  0  0
 54 70  1  0  0  0  0
 55 61  1  0  0  0  0
 55 69  1  0  0  0  0
 56 71  1  0  0  0  0
 57 58  1  0  0  0  0
 58 59  1  0  0  0  0
 59 60  1  0  0  0  0
 60 78  1  0  0  0  0
 62 63  1  0  0  0  0
M  CHG  1  71   1
M  ISO  4  32 100  60 101  70 100  78 101
M  END
> <Batch ID>
0095

> <Smiles>
CNC(C)C(=O)NC(C(=O)N1Cc2cc([101O:1][101CH:1](C)C(C)C(C)C(C)C[100NH:0][100C:0](=O)N3CCCC(n4nc(-c5ccc(Oc6ccc(F)cc6F)cc5)c(C(N)=O)c4N)C3)ccc2CC1C(=O)NC1CCCc2ccccc21)C(C)(C)C

> <Shape>
0.224

> <Color>
0.212

> <Negative vol penalty>
0.000

$$$$

  -OEChem-04052319213D

 86 94  0     1  0  0  0  0  0999 V2000
  -17.6130  -26.5354   19.8246 C   0  0  0  0  0  0  0  0  0  0  0  0
  -18.8501  -26.8137   19.2523 C   0  0  0  0  0  0  0  0  0  0  0  0
  -24.3741  -13.5157   21.6318 C   0  0  0  0  0  0  0  0  0  0  0  0
  -26.6936  -13.3273   20.9824 C   0  0  0  0  0  0  0  0  0  0  0  0
  -17.4016  -26.7839   21.1801 C   0  0  0  0  0  0  0  0  0  0  0  0
  -19.8762  -27.3417   20.0350 C   0  0  0  0  0  0  0  0  0  0  0  0
  -25.8722  -26.2212   19.4887 C   0  0  0  0  0  0  0  0  0  0  0  0
  -24.0807  -12.3515   20.9217 C   0  0  0  0  0  0  0  0  0  0  0  0
  -26.4002  -12.1631   20.2724 C   0  0  0  0  0  0  0  0  0  0  0  0
  -26.9069  -26.9290   18.8786 C   0  0  0  0  0  0  0  0  0  0  0  0
  -24.4010   -9.0150   21.3667 C   0  0  0  0  0  0  0  0  0  0  0  0
  -23.5893   -8.0649   21.9865 C   0  0  0  0  0  0  0  0  0  0  0  0
  -27.4713  -27.9231   21.0028 C   0  0  0  0  0  0  0  0  0  0  0  0
  -33.0037  -26.1467   19.4273 C   0  0  0  0  0  0  0  0  0  0  0  0
  -21.9766   -8.2776   20.2001 C   0  0  0  0  0  0  0  0  0  0  0  0
  -25.6805  -14.0036   21.6621 C   0  0  0  0  0  0  0  0  0  0  0  0
  -26.3703  -15.3048   23.7451 C   0  0  0  0  0  0  0  0  0  0  0  0
  -18.4286  -27.3062   21.9820 C   0  0  0  0  0  0  0  0  0  0  0  0
  -25.6219  -26.3677   20.8606 C   0  0  0  0  0  0  0  0  0  0  0  0
  -19.6779  -27.5987   21.4022 C   0  0  0  0  0  0  0  0  0  0  0  0
  -26.4344  -27.2142   21.6284 C   0  0  0  0  0  0  0  0  0  0  0  0
  -33.2692  -25.0590   20.2517 C   0  0  0  0  0  0  0  0  0  0  0  0
  -32.2223  -24.2605   20.6985 C   0  0  0  0  0  0  0  0  0  0  0  0
  -25.0938  -11.6751   20.2421 C   0  0  0  0  0  0  0  0  0  0  0  0
  -27.7048  -27.7823   19.6351 C   0  0  0  0  0  0  0  0  0  0  0  0
  -24.0006   -9.5965   20.1637 C   0  0  0  0  0  0  0  0  0  0  0  0
  -22.3771   -7.6962   21.4031 C   0  0  0  0  0  0  0  0  0  0  0  0
  -22.7884   -9.2278   19.5804 C   0  0  0  0  0  0  0  0  0  0  0  0
  -25.9841  -15.2065   22.3949 C   0  0  0  0  0  0  0  0  0  0  0  0
  -31.6846  -26.3914   19.0810 C   0  0  0  0  0  0  0  0  0  0  0  0
  -30.9381  -24.5897   20.2955 C   0  0  0  0  0  0  0  0  0  0  0  0
  -26.5397  -16.6513   23.9566 C   0  0  0  0  0  0  0  0  0  0  0  0
  -26.5590  -14.2714   24.7208 C   0  0  0  0  0  0  0  0  0  0  0  0
  -23.1700  -27.4089   22.5949 C   0  0  0  0  0  0  0  0  0  0  0  0
  -24.9959  -26.3917   25.0755 C   0  0  0  0  0  0  0  0  0  0  0  0
  -28.1059  -25.6586   26.2743 C   0  0  0  0  0  0  0  0  0  0  0  0
  -27.8906  -21.0707   20.2824 C   0  0  0  0  0  0  0  0  0  0  0  0
  -18.1382  -27.6024   23.4320 C   0  0  0  0  0  0  0  0  0  0  0  0
  -24.5189  -25.5767   21.5088 C   0  0  0  0  0  0  0  0  0  0  0  0
  -26.2199  -27.3910   23.1087 C   0  0  0  0  0  0  0  0  0  0  0  0
  -19.3939  -27.8121   24.2743 C   0  0  0  0  0  0  0  0  0  0  0  0
  -24.9782  -20.9083   22.4247 C   0  0  0  0  0  0  0  0  0  0  0  0
  -20.3659  -28.7459   23.5601 C   0  0  0  0  0  0  0  0  0  0  0  0
  -24.9496  -19.4224   22.7870 C   0  0  0  0  0  0  0  0  0  0  0  0
  -25.4197  -21.1165   20.9790 C   0  0  0  0  0  0  0  0  0  0  0  0
  -26.7076  -19.0154   21.0026 C   0  0  0  0  0  0  0  0  0  0  0  0
  -20.8236  -28.1488   22.2239 C   0  0  1  0  0  0  0  0  0  0  0  0
  -24.0278  -26.1950   22.8142 C   0  0  1  0  0  0  0  0  0  0  0  0
  -26.2906  -18.7397   22.4587 C   0  0  2  0  0  0  0  0  0  0  0  0
  -34.6812  -24.7728   20.6435 C   0  0  0  0  0  0  0  0  0  0  0  0
  -32.0574  -21.7558   20.9280 C   0  0  0  0  0  0  0  0  0  0  0  0
  -31.8019  -23.2272   22.9589 C   0  0  0  0  0  0  0  0  0  0  0  0
  -29.8465  -24.8316   27.8817 C   0  0  0  0  0  0  0  0  0  0  0  0
  -24.6762  -29.1732   26.2885 C   0  0  0  0  0  0  0  0  0  0  0  0
  -26.5953  -28.6541   27.8101 C   0  0  0  0  0  0  0  0  0  0  0  0
  -24.5078  -27.2937   27.9297 C   0  0  0  0  0  0  0  0  0  0  0  0
  -27.9174  -22.8935   25.2362 C   0  0  0  0  0  0  0  0  0  0  0  0
  -31.3591  -27.5614   18.1874 C   0  0  0  0  0  0  0  0  0  0  0  0
  -29.7728  -23.7684   20.7417 C   0  0  0  0  0  0  0  0  0  0  0  0
  -31.0814  -28.8594   18.9487 C   0  0  0  0  0  0  0  0  0  0  0  0
  -28.9403  -23.2077   19.5837 C   0  0  0  0  0  0  0  0  0  0  0  0
  -29.8526  -28.7813   19.8472 C   0  0  0  0  0  0  0  0  0  1  0  0
  -32.4772  -23.0858   21.5818 C   0  0  0  0  0  0  0  0  0  0  0  0
  -26.0557  -27.0172   25.9499 C   0  0  1  0  0  0  0  0  0  0  0  0
  -28.6320  -24.4611   27.0447 C   0  0  2  0  0  0  0  0  0  0  0  0
  -25.4618  -28.0329   26.9663 C   0  0  0  0  0  0  0  0  0  0  0  0
  -25.9122  -16.3959   21.7913 N   0  0  0  0  0  0  0  0  0  0  0  0
  -30.6412  -25.6382   19.4954 N   0  0  0  0  0  0  0  0  0  0  0  0
  -26.2554  -17.2542   22.7667 N   0  0  0  0  0  0  0  0  0  0  0  0
  -25.1248  -26.6008   23.6951 N   0  0  0  0  0  0  0  0  0  0  0  0
  -26.7112  -20.4579   20.7375 N   0  0  0  0  0  0  0  0  0  0  0  0
  -26.9026  -17.3665   25.0425 N   0  0  0  0  0  0  0  0  0  0  0  0
  -26.3424  -12.9413   24.3357 N   0  0  0  0  0  0  0  0  0  0  0  0
  -21.8256  -27.1279   22.4433 N   0  0  0  0  0  0  0  0  0  0  0  0
  -26.7821  -25.9116   26.5651 N   0  0  0  0  0  0  0  0  0  0  0  0
  -27.8079  -22.4379   20.0485 N   0  0  0  0  0  0  0  0  0  0  0  0
  -29.0229  -23.3720   26.1056 N   0  3  0  0  0  0  0  0  0  0  0  0
  -26.8935  -14.5213   25.9036 O   0  0  0  0  0  0  0  0  0  0  0  0
  -23.6892  -28.5186   22.5668 O   0  0  0  0  0  0  0  0  0  0  0  0
  -24.0911  -25.7355   25.5975 O   0  0  0  0  0  0  0  0  0  0  0  0
  -28.8010  -26.3072   25.4953 O   0  0  0  0  0  0  0  0  0  0  0  0
  -28.9418  -20.4463   20.1029 O   0  0  0  0  0  0  0  0  0  0  0  0
  -24.8079  -10.5389   19.5493 O   0  0  0  0  0  0  0  0  0  0  0  0
  -28.7150  -28.4748   19.0420 O   0  0  0  0  0  0  0  0  0  1  0  0
  -21.5984   -6.7827   21.9976 F   0  0  0  0  0  0  0  0  0  0  0  0
  -22.3988   -9.7820   18.4242 F   0  0  0  0  0  0  0  0  0  0  0  0
  1  2  1  0  0  0  0
  1  5  2  0  0  0  0
  2  6  2  0  0  0  0
  3  8  2  0  0  0  0
  3 16  1  0  0  0  0
  4  9  1  0  0  0  0
  4 16  2  0  0  0  0
  5 18  1  0  0  0  0
  6 20  1  0  0  0  0
  7 10  2  0  0  0  0
  7 19  1  0  0  0  0
  8 24  1  0  0  0  0
  9 24  2  0  0  0  0
 10 25  1  0  0  0  0
 11 12  2  0  0  0  0
 11 26  1  0  0  0  0
 12 27  1  0  0  0  0
 13 21  1  0  0  0  0
 13 25  2  0  0  0  0
 14 22  2  0  0  0  0
 14 30  1  0  0  0  0
 15 27  2  0  0  0  0
 15 28  1  0  0  0  0
 16 29  1  0  0  0  0
 17 29  1  0  0  0  0
 17 32  2  0  0  0  0
 17 33  1  0  0  0  0
 18 20  2  0  0  0  0
 18 38  1  0  0  0  0
 19 21  2  0  0  0  0
 19 39  1  0  0  0  0
 20 47  1  0  0  0  0
 21 40  1  0  0  0  0
 22 23  1  0  0  0  0
 22 50  1  0  0  0  0
 23 31  2  0  0  0  0
 23 63  1  0  0  0  0
 24 83  1  0  0  0  0
 25 84  1  0  0  0  0
 26 28  2  0  0  0  0
 26 83  1  0  0  0  0
 27 85  1  0  0  0  0
 28 86  1  0  0  0  0
 29 67  2  0  0  0  0
 30 58  1  0  0  0  0
 30 68  2  0  0  0  0
 31 59  1  0  0  0  0
 31 68  1  0  0  0  0
 32 69  1  0  0  0  0
 32 72  1  0  0  0  0
 33 73  1  0  0  0  0
 33 78  2  0  0  0  0
 34 48  1  0  0  0  0
 34 74  1  0  0  0  0
 34 79  2  0  0  0  0
 35 64  1  0  0  0  0
 35 70  1  0  0  0  0
 35 80  2  0  0  0  0
 36 65  1  0  0  0  0
 36 75  1  0  0  0  0
 36 81  2  0  0  0  0
 37 71  1  0  0  0  0
 37 76  1  0  0  0  0
 37 82  2  0  0  0  0
 38 41  1  0  0  0  0
 39 48  1  0  0  0  0
 40 70  1  0  0  0  0
 41 43  1  0  0  0  0
 42 44  1  0  0  0  0
 42 45  1  0  0  0  0
 43 47  1  0  0  0  0
 44 49  1  0  0  0  0
 45 71  1  0  0  0  0
 46 49  1  0  0  0  0
 46 71  1  0  0  0  0
 47 74  1  0  0  0  0
 48 70  1  0  0  0  0
 49 69  1  0  0  0  0
 51 63  1  0  0  0  0
 52 63  1  0  0  0  0
 53 65  1  0  0  0  0
 54 66  1  0  0  0  0
 55 66  1  0  0  0  0
 56 66  1  0  0  0  0
 57 77  1  0  0  0  0
 58 60  1  0  0  0  0
 59 61  1  0  0  0  0
 60 62  1  0  0  0  0
 61 76  1  0  0  0  0
 62 84  1  0  0  0  0
 64 66  1  0  0  0  0
 64 75  1  0  0  0  0
 65 77  1  0  0  0  0
 67 69  1  0  0  0  0
M  CHG  1  77   1
M  ISO  4  37 100  62 101  76 100  84 101
M  END
> <Batch ID>
0095

> <Smiles>
CNC(C)C(=O)NC(C(=O)N1Cc2cc([101O:1][101CH2:1]CCc3cc(C)c(C(C)C)c(CC[100NH:0][100C:0](=O)N4CCCC(n5nc(-c6ccc(Oc7ccc(F)cc7F)cc6)c(C(N)=O)c5N)C4)n3)ccc2CC1C(=O)NC1CCCc2ccccc21)C(C)(C)C

> <Shape>
0.199

> <Color>
0.094

> <Negative vol penalty>
0.000

$$$$

  -OEChem-04052319213D

 87 95  0     1  0  0  0  0  0999 V2000
  -26.3959  -33.4053   15.2419 C   0  0  0  0  0  0  0  0  0  0  0  0
  -25.8319  -32.1827   15.5920 C   0  0  0  0  0  0  0  0  0  0  0  0
  -23.0000   -9.8973   19.9793 C   0  0  0  0  0  0  0  0  0  0  0  0
  -23.7312   -9.9418   22.2815 C   0  0  0  0  0  0  0  0  0  0  0  0
  -27.5666  -33.4405   14.4854 C   0  0  0  0  0  0  0  0  0  0  0  0
  -26.4377  -30.9946   15.1849 C   0  0  0  0  0  0  0  0  0  0  0  0
  -27.4867  -24.2415   17.3326 C   0  0  0  0  0  0  0  0  0  0  0  0
  -26.5279  -18.1326   19.4600 C   0  0  0  0  0  0  0  0  0  0  0  0
  -26.7891  -18.3182   20.8175 C   0  0  0  0  0  0  0  0  0  0  0  0
  -22.2346   -8.7617   20.2443 C   0  0  0  0  0  0  0  0  0  0  0  0
  -22.9659   -8.8062   22.5466 C   0  0  0  0  0  0  0  0  0  0  0  0
  -27.3287  -22.9314   16.8827 C   0  0  0  0  0  0  0  0  0  0  0  0
  -23.2103   -5.4688   22.0643 C   0  0  0  0  0  0  0  0  0  0  0  0
  -23.8003   -4.4496   22.8118 C   0  0  0  0  0  0  0  0  0  0  0  0
  -29.3921  -23.1135   15.6463 C   0  0  0  0  0  0  0  0  0  0  0  0
  -28.8928  -17.8708   19.0408 C   0  0  0  0  0  0  0  0  0  0  0  0
  -22.0808   -4.6869   24.4923 C   0  0  0  0  0  0  0  0  0  0  0  0
  -23.7483  -10.4873   20.9979 C   0  0  0  0  0  0  0  0  0  0  0  0
  -24.1321  -13.0036   20.8282 C   0  0  0  0  0  0  0  0  0  0  0  0
  -28.1923  -32.2521   14.0771 C   0  0  0  0  0  0  0  0  0  0  0  0
  -28.5948  -25.0025   16.9332 C   0  0  0  0  0  0  0  0  0  0  0  0
  -27.6171  -31.0139   14.4211 C   0  0  0  0  0  0  0  0  0  0  0  0
  -29.5631  -24.4322   16.0946 C   0  0  0  0  0  0  0  0  0  0  0  0
  -27.5798  -17.9089   18.5716 C   0  0  0  0  0  0  0  0  0  0  0  0
  -28.1021  -18.2801   21.2867 C   0  0  0  0  0  0  0  0  0  0  0  0
  -29.1540  -18.0563   20.3983 C   0  0  0  0  0  0  0  0  0  0  0  0
  -22.2175   -8.2162   21.5280 C   0  0  0  0  0  0  0  0  0  0  0  0
  -28.2800  -22.3682   16.0371 C   0  0  0  0  0  0  0  0  0  0  0  0
  -22.0556   -6.0971   22.5308 C   0  0  0  0  0  0  0  0  0  0  0  0
  -23.2355   -4.0587   24.0258 C   0  0  0  0  0  0  0  0  0  0  0  0
  -21.4908   -5.7061   23.7448 C   0  0  0  0  0  0  0  0  0  0  0  0
  -24.5396  -11.6601   20.7246 C   0  0  0  0  0  0  0  0  0  0  0  0
  -25.2406  -13.7277   20.4630 C   0  0  0  0  0  0  0  0  0  0  0  0
  -22.8650  -13.5483   21.2197 C   0  0  0  0  0  0  0  0  0  0  0  0
  -28.9925  -27.6981   15.2964 C   0  0  0  0  0  0  0  0  0  0  0  0
  -32.0981  -27.2958   16.1424 C   0  0  0  0  0  0  0  0  0  0  0  0
  -34.5888  -25.1662   17.0955 C   0  0  0  0  0  0  0  0  0  0  0  0
  -30.7373  -14.6639   20.6997 C   0  0  0  0  0  0  0  0  0  0  0  0
  -29.4305  -32.3410   13.2205 C   0  0  0  0  0  0  0  0  0  0  0  0
  -28.7644  -26.4053   17.4487 C   0  0  0  0  0  0  0  0  0  0  0  0
  -30.7812  -25.2001   15.6530 C   0  0  0  0  0  0  0  0  0  0  0  0
  -30.2154  -31.0337   13.1470 C   0  0  0  0  0  0  0  0  0  0  0  0
  -29.5913  -12.2466   18.3502 C   0  0  0  0  0  0  0  0  0  0  0  0
  -29.2760  -29.8612   12.8833 C   0  0  0  0  0  0  0  0  0  0  0  0
  -28.1441  -11.9851   18.7708 C   0  0  0  0  0  0  0  0  0  0  0  0
  -30.4969  -12.4788   19.5577 C   0  0  0  0  0  0  0  0  0  0  0  0
  -28.5900  -13.2696   20.9039 C   0  0  0  0  0  0  0  0  0  0  0  0
  -28.2583  -29.7033   14.0194 C   0  0  1  0  0  0  0  0  0  0  0  0
  -29.6673  -27.2612   16.5658 C   0  0  1  0  0  0  0  0  0  0  0  0
  -27.6279  -13.0850   19.7179 C   0  0  2  0  0  0  0  0  0  0  0  0
  -27.6229  -17.4612   23.6076 C   0  0  0  0  0  0  0  0  0  0  0  0
  -27.7197  -16.3016   16.6513 C   0  0  0  0  0  0  0  0  0  0  0  0
  -37.0294  -25.1244   17.6777 C   0  0  0  0  0  0  0  0  0  0  0  0
  -31.0842  -19.3195   21.5710 C   0  0  0  0  0  0  0  0  0  0  0  0
  -31.5421  -17.7842   19.6766 C   0  0  0  0  0  0  0  0  0  0  0  0
  -32.8055  -27.5408   13.1844 C   0  0  0  0  0  0  0  0  0  0  0  0
  -35.0490  -26.5626   13.7115 C   0  0  0  0  0  0  0  0  0  0  0  0
  -34.3659  -28.7337   14.7325 C   0  0  0  0  0  0  0  0  0  0  0  0
  -34.0385  -24.1741   19.8290 C   0  0  0  0  0  0  0  0  0  0  0  0
  -28.3573  -18.4826   22.7443 C   0  0  0  0  0  0  0  0  0  0  0  0
  -27.9587  -18.7727   16.1993 C   0  0  0  0  0  0  0  0  0  0  0  0
  -30.8222  -16.8394   21.8910 C   0  0  0  0  0  0  0  0  0  0  0  0
  -27.4380  -20.1838   16.4560 C   0  0  0  0  0  0  0  0  0  1  0  0
  -27.2951  -17.7073   17.0932 C   0  0  2  0  0  0  0  0  0  0  0  0
  -33.2887  -26.5925   15.5367 C   0  0  1  0  0  0  0  0  0  0  0  0
  -35.6118  -25.2490   18.2140 C   0  0  2  0  0  0  0  0  0  0  0  0
  -30.5679  -18.0117   20.8777 C   0  0  0  0  0  0  0  0  0  0  0  0
  -33.8534  -27.3433   14.2978 C   0  0  0  0  0  0  0  0  0  0  0  0
  -25.8079  -11.5353   20.3247 N   0  0  0  0  0  0  0  0  0  0  0  0
  -26.2069  -12.8097   20.1737 N   0  0  0  0  0  0  0  0  0  0  0  0
  -30.8989  -26.5702   16.1788 N   0  0  0  0  0  0  0  0  0  0  0  0
  -29.9519  -13.5348   20.4143 N   0  0  0  0  0  0  0  0  0  0  0  0
  -25.4733  -15.0538   20.3642 N   0  0  0  0  0  0  0  0  0  0  0  0
  -21.8345  -12.6627   21.5634 N   0  0  0  0  0  0  0  0  0  0  0  0
  -28.8740  -29.0685   15.1650 N   0  0  0  0  0  0  0  0  0  0  0  0
  -34.2517  -26.4151   16.6181 N   0  0  0  0  0  0  0  0  0  0  0  0
  -30.1426  -15.6200   21.5139 N   0  0  0  0  0  0  0  0  0  0  0  0
  -35.3862  -24.1583   19.2041 N   0  3  0  0  0  0  0  0  0  0  0  0
  -22.6478  -14.7835   21.2477 O   0  0  0  0  0  0  0  0  0  0  0  0
  -28.6092  -26.8542   14.4946 O   0  0  0  0  0  0  0  0  0  0  0  0
  -32.2291  -28.4439   16.5740 O   0  0  0  0  0  0  0  0  0  0  0  0
  -34.1368  -24.1000   16.6838 O   0  0  0  0  0  0  0  0  0  0  0  0
  -31.8814  -14.8116   20.2570 O   0  0  0  0  0  0  0  0  0  0  0  0
  -21.4706   -7.1082   21.7870 O   0  0  0  0  0  0  0  0  0  0  0  0
  -28.1279  -21.0898   15.5961 O   0  0  0  0  0  0  0  0  0  1  0  0
  -23.8013   -3.0789   24.7429 F   0  0  0  0  0  0  0  0  0  0  0  0
  -20.3809   -6.3052   24.1975 F   0  0  0  0  0  0  0  0  0  0  0  0
  1  2  1  0  0  0  0
  1  5  2  0  0  0  0
  2  6  2  0  0  0  0
  3 10  2  0  0  0  0
  3 18  1  0  0  0  0
  4 11  1  0  0  0  0
  4 18  2  0  0  0  0
  5 20  1  0  0  0  0
  6 22  1  0  0  0  0
  7 12  2  0  0  0  0
  7 21  1  0  0  0  0
  8  9  2  0  0  0  0
  8 24  1  0  0  0  0
  9 25  1  0  0  0  0
 10 27  1  0  0  0  0
 11 27  2  0  0  0  0
 12 28  1  0  0  0  0
 13 14  2  0  0  0  0
 13 29  1  0  0  0  0
 14 30  1  0  0  0  0
 15 23  1  0  0  0  0
 15 28  2  0  0  0  0
 16 24  2  0  0  0  0
 16 26  1  0  0  0  0
 17 30  2  0  0  0  0
 17 31  1  0  0  0  0
 18 32  1  0  0  0  0
 19 32  1  0  0  0  0
 19 33  2  0  0  0  0
 19 34  1  0  0  0  0
 20 22  2  0  0  0  0
 20 39  1  0  0  0  0
 21 23  2  0  0  0  0
 21 40  1  0  0  0  0
 22 48  1  0  0  0  0
 23 41  1  0  0  0  0
 24 64  1  0  0  0  0
 25 26  2  0  0  0  0
 25 60  1  0  0  0  0
 26 67  1  0  0  0  0
 27 84  1  0  0  0  0
 28 85  1  0  0  0  0
 29 31  2  0  0  0  0
 29 84  1  0  0  0  0
 30 86  1  0  0  0  0
 31 87  1  0  0  0  0
 32 69  2  0  0  0  0
 33 70  1  0  0  0  0
 33 73  1  0  0  0  0
 34 74  1  0  0  0  0
 34 79  2  0  0  0  0
 35 49  1  0  0  0  0
 35 75  1  0  0  0  0
 35 80  2  0  0  0  0
 36 65  1  0  0  0  0
 36 71  1  0  0  0  0
 36 81  2  0  0  0  0
 37 66  1  0  0  0  0
 37 76  1  0  0  0  0
 37 82  2  0  0  0  0
 38 72  1  0  0  0  0
 38 77  1  0  0  0  0
 38 83  2  0  0  0  0
 39 42  1  0  0  0  0
 40 49  1  0  0  0  0
 41 71  1  0  0  0  0
 42 44  1  0  0  0  0
 43 45  1  0  0  0  0
 43 46  1  0  0  0  0
 44 48  1  0  0  0  0
 45 50  1  0  0  0  0
 46 72  1  0  0  0  0
 47 50  1  0  0  0  0
 47 72  1  0  0  0  0
 48 75  1  0  0  0  0
 49 71  1  0  0  0  0
 50 70  1  0  0  0  0
 51 60  1  0  0  0  0
 52 64  1  0  0  0  0
 53 66  1  0  0  0  0
 54 67  1  0  0  0  0
 55 67  1  0  0  0  0
 56 68  1  0  0  0  0
 57 68  1  0  0  0  0
 58 68  1  0  0  0  0
 59 78  1  0  0  0  0
 61 63  1  0  0  0  0
 61 64  1  0  0  0  0
 62 67  1  0  0  0  0
 62 77  1  0  0  0  0
 63 85  1  0  0  0  0
 65 68  1  0  0  0  0
 65 76  1  0  0  0  0
 66 78  1  0  0  0  0
 69 70  1  0  0  0  0
M  CHG  1  78   1
M  ISO  4  38 100  63 101  77 100  85 101
M  END
> <Batch ID>
0095

> <Smiles>
CCc1ccc(C(C)C[101CH2:1][101O:1]c2ccc3c(c2)CN(C(=O)C(NC(=O)C(C)NC)C(C)(C)C)C(C(=O)NC2CCCc4ccccc42)C3)cc1C(C)(C)C[100NH:0][100C:0](=O)N1CCCC(n2nc(-c3ccc(Oc4ccc(F)cc4F)cc3)c(C(N)=O)c2N)C1

> <Shape>
0.213

> <Color>
0.193

> <Negative vol penalty>
0.000

$$$$

  -OEChem-04052319213D

 87 95  0     1  0  0  0  0  0999 V2000
  -17.1953  -28.9479   24.7035 C   0  0  0  0  0  0  0  0  0  0  0  0
  -18.0009  -27.8685   24.3553 C   0  0  0  0  0  0  0  0  0  0  0  0
  -29.9742  -19.5008   19.8177 C   0  0  0  0  0  0  0  0  0  0  0  0
  -28.3889  -19.4047   21.6384 C   0  0  0  0  0  0  0  0  0  0  0  0
  -17.2785  -30.1392   23.9838 C   0  0  0  0  0  0  0  0  0  0  0  0
  -18.8895  -27.9795   23.2864 C   0  0  0  0  0  0  0  0  0  0  0  0
  -23.4624  -26.0855   24.3573 C   0  0  0  0  0  0  0  0  0  0  0  0
  -29.5724  -20.8066   19.5367 C   0  0  0  0  0  0  0  0  0  0  0  0
  -27.9871  -20.7106   21.3574 C   0  0  0  0  0  0  0  0  0  0  0  0
  -23.6019  -24.6988   24.3200 C   0  0  0  0  0  0  0  0  0  0  0  0
  -26.9988  -22.3375   17.9692 C   0  0  0  0  0  0  0  0  0  0  0  0
  -26.7753  -22.6729   16.6339 C   0  0  0  0  0  0  0  0  0  0  0  0
  -24.9134  -11.8289   24.8344 C   0  0  0  0  0  0  0  0  0  0  0  0
  -24.5918  -24.8634   22.1263 C   0  0  0  0  0  0  0  0  0  0  0  0
  -28.4852  -24.3739   16.7748 C   0  0  0  0  0  0  0  0  0  0  0  0
  -24.4133  -12.5677   25.8872 C   0  0  0  0  0  0  0  0  0  0  0  0
  -29.3824  -18.7998   20.8685 C   0  0  0  0  0  0  0  0  0  0  0  0
  -30.8239  -17.0461   22.0323 C   0  0  0  0  0  0  0  0  0  0  0  0
  -18.1755  -30.2680   22.9117 C   0  0  0  0  0  0  0  0  0  0  0  0
  -23.8773  -26.8720   23.2730 C   0  0  0  0  0  0  0  0  0  0  0  0
  -18.9839  -29.1731   22.5509 C   0  0  0  0  0  0  0  0  0  0  0  0
  -24.4588  -26.2601   22.1534 C   0  0  0  0  0  0  0  0  0  0  0  0
  -28.5789  -21.4115   20.3066 C   0  0  0  0  0  0  0  0  0  0  0  0
  -24.1640  -24.0873   23.2032 C   0  0  0  0  0  0  0  0  0  0  0  0
  -27.9655  -23.0205   18.7074 C   0  0  0  0  0  0  0  0  0  0  0  0
  -27.5185  -23.6910   16.0367 C   0  0  0  0  0  0  0  0  0  0  0  0
  -28.7087  -24.0386   18.1102 C   0  0  0  0  0  0  0  0  0  0  0  0
  -29.7966  -17.4506   21.1589 C   0  0  0  0  0  0  0  0  0  0  0  0
  -24.4769  -12.2051   23.5805 C   0  0  0  0  0  0  0  0  0  0  0  0
  -30.8188  -15.6747   21.9567 C   0  0  0  0  0  0  0  0  0  0  0  0
  -23.2029  -13.8658   24.4670 C   0  0  0  0  0  0  0  0  0  0  0  0
  -31.7040  -17.8391   22.8399 C   0  0  0  0  0  0  0  0  0  0  0  0
  -22.4243  -28.8414   21.2447 C   0  0  0  0  0  0  0  0  0  0  0  0
  -25.4553  -29.4214   20.2451 C   0  0  0  0  0  0  0  0  0  0  0  0
  -28.6800  -28.3335   19.9900 C   0  0  0  0  0  0  0  0  0  0  0  0
  -26.5905  -11.6862   20.5198 C   0  0  0  0  0  0  0  0  0  0  0  0
  -18.1961  -31.5598   22.1336 C   0  0  0  0  0  0  0  0  0  0  0  0
  -23.7444  -28.3687   23.3399 C   0  0  0  0  0  0  0  0  0  0  0  0
  -24.9388  -27.0611   20.9717 C   0  0  0  0  0  0  0  0  0  0  0  0
  -19.4316  -31.7198   21.2514 C   0  0  0  0  0  0  0  0  0  0  0  0
  -29.7667  -12.0937   18.9633 C   0  0  0  0  0  0  0  0  0  0  0  0
  -19.6984  -30.4380   20.4688 C   0  0  0  0  0  0  0  0  0  0  0  0
  -30.2272  -13.4763   19.4283 C   0  0  0  0  0  0  0  0  0  0  0  0
  -28.2588  -12.0516   18.7254 C   0  0  0  0  0  0  0  0  0  0  0  0
  -27.8997  -13.8876   20.3297 C   0  0  0  0  0  0  0  0  0  0  0  0
  -19.9780  -29.2629   21.4134 C   0  0  1  0  0  0  0  0  0  0  0  0
  -23.7296  -29.0294   21.9649 C   0  0  1  0  0  0  0  0  0  0  0  0
  -29.4052  -13.9642   20.6364 C   0  0  2  0  0  0  0  0  0  0  0  0
  -30.9219  -29.0107   19.0885 C   0  0  0  0  0  0  0  0  0  0  0  0
  -19.4233  -15.4111   23.7331 C   0  0  0  0  0  0  0  0  0  0  0  0
  -24.5173  -28.7555   17.4190 C   0  0  0  0  0  0  0  0  0  0  0  0
  -26.9189  -28.5174   16.7529 C   0  0  0  0  0  0  0  0  0  0  0  0
  -26.0650  -30.7141   17.5702 C   0  0  0  0  0  0  0  0  0  0  0  0
  -29.9102  -28.2717   22.6810 C   0  0  0  0  0  0  0  0  0  0  0  0
  -24.9631  -11.4645   22.3803 C   0  0  0  0  0  0  0  0  0  0  0  0
  -22.1395  -19.7432   23.9140 C   0  0  0  0  0  0  0  0  0  0  0  0
  -21.9459  -18.4073   23.1941 C   0  0  0  0  0  0  0  0  0  0  0  0
  -23.1729  -20.6123   23.1988 C   0  0  0  0  0  0  0  0  0  0  0  0
  -20.8502  -17.5290   23.8115 C   0  0  0  0  0  0  0  0  0  0  0  0
  -21.8426  -15.3383   22.9814 C   0  0  0  0  0  0  0  0  0  0  0  0
  -23.3424  -21.9615   23.8829 C   0  0  0  0  0  0  0  0  0  1  0  0
  -26.3744  -28.8163   19.2116 C   0  0  1  0  0  0  0  0  0  0  0  0
  -30.0005  -29.0157   20.2984 C   0  0  2  0  0  0  0  0  0  0  0  0
  -20.5682  -16.1961   23.0863 C   0  0  1  0  0  0  0  0  0  0  0  0
  -25.9582  -29.1853   17.7597 C   0  0  0  0  0  0  0  0  0  0  0  0
  -23.5532  -13.5966   25.7391 N   0  0  0  0  0  0  0  0  0  0  0  0
  -29.1836  -16.4196   20.5714 N   0  0  0  0  0  0  0  0  0  0  0  0
  -23.6186  -13.2223   23.3595 N   0  0  0  0  0  0  0  0  0  0  0  0
  -29.8276  -15.3537   21.0765 N   0  0  0  0  0  0  0  0  0  0  0  0
  -24.7814  -28.5208   21.0821 N   0  0  0  0  0  0  0  0  0  0  0  0
  -27.5374  -12.5250   19.9092 N   0  0  0  0  0  0  0  0  0  0  0  0
  -31.5655  -14.7242   22.5577 N   0  0  0  0  0  0  0  0  0  0  0  0
  -31.5734  -19.2340   22.7988 N   0  0  0  0  0  0  0  0  0  0  0  0
  -22.3202  -14.9169   24.2774 N   0  0  0  0  0  0  0  0  0  0  0  0
  -21.3292  -29.3371   21.9262 N   0  0  0  0  0  0  0  0  0  0  0  0
  -27.7248  -29.2354   19.5709 N   0  0  0  0  0  0  0  0  0  0  0  0
  -25.9569  -12.2097   21.6402 N   0  0  0  0  0  0  0  0  0  0  0  0
  -30.6934  -28.3202   21.4196 N   0  3  0  0  0  0  0  0  0  0  0  0
  -32.5912  -17.3267   23.5637 O   0  0  0  0  0  0  0  0  0  0  0  0
  -22.4119  -28.2890   20.1509 O   0  0  0  0  0  0  0  0  0  0  0  0
  -25.3450  -30.6481   20.3121 O   0  0  0  0  0  0  0  0  0  0  0  0
  -28.5135  -27.1213   20.1054 O   0  0  0  0  0  0  0  0  0  0  0  0
  -26.3329  -10.5526   20.1009 O   0  0  0  0  0  0  0  0  0  0  0  0
  -28.1868  -22.6858   20.0328 O   0  0  0  0  0  0  0  0  0  0  0  0
  -24.3017  -22.7239   23.1636 O   0  0  0  0  0  0  0  0  0  1  0  0
  -27.3048  -24.0119   14.7539 F   0  0  0  0  0  0  0  0  0  0  0  0
  -29.6395  -24.6974   18.8140 F   0  0  0  0  0  0  0  0  0  0  0  0
  1  2  1  0  0  0  0
  1  5  2  0  0  0  0
  2  6  2  0  0  0  0
  3  8  2  0  0  0  0
  3 17  1  0  0  0  0
  4  9  1  0  0  0  0
  4 17  2  0  0  0  0
  5 19  1  0  0  0  0
  6 21  1  0  0  0  0
  7 10  2  0  0  0  0
  7 20  1  0  0  0  0
  8 23  1  0  0  0  0
  9 23  2  0  0  0  0
 10 24  1  0  0  0  0
 11 12  2  0  0  0  0
 11 25  1  0  0  0  0
 12 26  1  0  0  0  0
 13 16  1  0  0  0  0
 13 29  2  0  0  0  0
 14 22  1  0  0  0  0
 14 24  2  0  0  0  0
 15 26  2  0  0  0  0
 15 27  1  0  0  0  0
 16 66  2  0  0  0  0
 17 28  1  0  0  0  0
 18 28  1  0  0  0  0
 18 30  2  0  0  0  0
 18 32  1  0  0  0  0
 19 21  2  0  0  0  0
 19 37  1  0  0  0  0
 20 22  2  0  0  0  0
 20 38  1  0  0  0  0
 21 46  1  0  0  0  0
 22 39  1  0  0  0  0
 23 84  1  0  0  0  0
 24 85  1  0  0  0  0
 25 27  2  0  0  0  0
 25 84  1  0  0  0  0
 26 86  1  0  0  0  0
 27 87  1  0  0  0  0
 28 67  2  0  0  0  0
 29 55  1  0  0  0  0
 29 68  1  0  0  0  0
 30 69  1  0  0  0  0
 30 72  1  0  0  0  0
 31 66  1  0  0  0  0
 31 68  2  0  0  0  0
 31 74  1  0  0  0  0
 32 73  1  0  0  0  0
 32 79  2  0  0  0  0
 33 47  1  0  0  0  0
 33 75  1  0  0  0  0
 33 80  2  0  0  0  0
 34 62  1  0  0  0  0
 34 70  1  0  0  0  0
 34 81  2  0  0  0  0
 35 63  1  0  0  0  0
 35 76  1  0  0  0  0
 35 82  2  0  0  0  0
 36 71  1  0  0  0  0
 36 77  1  0  0  0  0
 36 83  2  0  0  0  0
 37 40  1  0  0  0  0
 38 47  1  0  0  0  0
 39 70  1  0  0  0  0
 40 42  1  0  0  0  0
 41 43  1  0  0  0  0
 41 44  1  0  0  0  0
 42 46  1  0  0  0  0
 43 48  1  0  0  0  0
 44 71  1  0  0  0  0
 45 48  1  0  0  0  0
 45 71  1  0  0  0  0
 46 75  1  0  0  0  0
 47 70  1  0  0  0  0
 48 69  1  0  0  0  0
 49 63  1  0  0  0  0
 50 64  1  0  0  0  0
 51 65  1  0  0  0  0
 52 65  1  0  0  0  0
 53 65  1  0  0  0  0
 54 78  1  0  0  0  0
 55 77  1  0  0  0  0
 56 57  1  0  0  0  0
 56 58  1  0  0  0  0
 57 59  1  0  0  0  0
 58 61  1  0  0  0  0
 59 64  1  0  0  0  0
 60 64  1  0  0  0  0
 60 74  1  0  0  0  0
 61 85  1  0  0  0  0
 62 65  1  0  0  0  0
 62 76  1  0  0  0  0
 63 78  1  0  0  0  0
 67 69  1  0  0  0  0
M  CHG  1  78   1
M  ISO  4  36 100  61 101  77 100  85 101
M  END
> <Batch ID>
0095

> <Smiles>
CNC(C)C(=O)NC(C(=O)N1Cc2cc([101O:1][101CH2:1]CCCCC(C)CNc3nccc(C[100NH:0][100C:0](=O)N4CCCC(n5nc(-c6ccc(Oc7ccc(F)cc7F)cc6)c(C(N)=O)c5N)C4)n3)ccc2CC1C(=O)NC1CCCc2ccccc21)C(C)(C)C

> <Shape>
0.232

> <Color>
0.068

> <Negative vol penalty>
0.000

$$$$

  -OEChem-04052319213D

 88 96  0     1  0  0  0  0  0999 V2000
  -24.5276  -34.4752   21.2767 C   0  0  0  0  0  0  0  0  0  0  0  0
  -25.3574  -33.7479   20.4294 C   0  0  0  0  0  0  0  0  0  0  0  0
  -23.8264   -9.7583   21.8767 C   0  0  0  0  0  0  0  0  0  0  0  0
  -24.4170  -11.0362   23.8402 C   0  0  0  0  0  0  0  0  0  0  0  0
  -24.1562  -33.9444   22.5113 C   0  0  0  0  0  0  0  0  0  0  0  0
  -25.8172  -32.4897   20.8168 C   0  0  0  0  0  0  0  0  0  0  0  0
  -27.5761  -26.1046   18.0869 C   0  0  0  0  0  0  0  0  0  0  0  0
  -23.3224   -8.7428   22.6892 C   0  0  0  0  0  0  0  0  0  0  0  0
  -23.9129  -10.0207   24.6528 C   0  0  0  0  0  0  0  0  0  0  0  0
  -28.6209  -25.1815   18.0928 C   0  0  0  0  0  0  0  0  0  0  0  0
  -24.9202   -6.9929   25.7702 C   0  0  0  0  0  0  0  0  0  0  0  0
  -25.6862   -6.6010   26.8680 C   0  0  0  0  0  0  0  0  0  0  0  0
  -27.8499  -24.3315   20.2147 C   0  0  0  0  0  0  0  0  0  0  0  0
  -27.5602  -19.2371   20.9669 C   0  0  0  0  0  0  0  0  0  0  0  0
  -23.8779   -7.2139   28.3485 C   0  0  0  0  0  0  0  0  0  0  0  0
  -24.3738  -10.9050   22.4522 C   0  0  0  0  0  0  0  0  0  0  0  0
  -24.1931  -13.0627   21.1033 C   0  0  0  0  0  0  0  0  0  0  0  0
  -24.6038  -32.6750   22.9099 C   0  0  0  0  0  0  0  0  0  0  0  0
  -26.6652  -26.1554   19.1519 C   0  0  0  0  0  0  0  0  0  0  0  0
  -25.4525  -31.9421   22.0584 C   0  0  0  0  0  0  0  0  0  0  0  0
  -26.7929  -25.2544   20.2186 C   0  0  0  0  0  0  0  0  0  0  0  0
  -27.5260  -19.1713   22.3817 C   0  0  0  0  0  0  0  0  0  0  0  0
  -23.3656   -8.8739   24.0773 C   0  0  0  0  0  0  0  0  0  0  0  0
  -28.7597  -24.2967   19.1582 C   0  0  0  0  0  0  0  0  0  0  0  0
  -23.6331   -7.4954   25.9615 C   0  0  0  0  0  0  0  0  0  0  0  0
  -25.1651   -6.7114   28.1572 C   0  0  0  0  0  0  0  0  0  0  0  0
  -23.1119   -7.6058   27.2506 C   0  0  0  0  0  0  0  0  0  0  0  0
  -24.8951  -11.9542   21.6134 C   0  0  0  0  0  0  0  0  0  0  0  0
  -28.6002  -18.4395   20.5431 C   0  0  0  0  0  0  0  0  0  0  0  0
  -28.5462  -18.3356   22.7794 C   0  0  0  0  0  0  0  0  0  0  0  0
  -25.1280  -13.7546   20.3728 C   0  0  0  0  0  0  0  0  0  0  0  0
  -22.8188  -13.4338   21.2745 C   0  0  0  0  0  0  0  0  0  0  0  0
  -25.8535  -28.3467   21.3067 C   0  0  0  0  0  0  0  0  0  0  0  0
  -23.5905  -26.1630   22.1021 C   0  0  0  0  0  0  0  0  0  0  0  0
  -22.5910  -22.8999   22.1155 C   0  0  0  0  0  0  0  0  0  0  0  0
  -31.2322  -13.5946   20.8747 C   0  0  0  0  0  0  0  0  0  0  0  0
  -24.2141  -32.1631   24.2739 C   0  0  0  0  0  0  0  0  0  0  0  0
  -25.5279  -27.1391   19.1176 C   0  0  0  0  0  0  0  0  0  0  0  0
  -25.8296  -25.2546   21.3764 C   0  0  0  0  0  0  0  0  0  0  0  0
  -24.4406  -30.6637   24.4494 C   0  0  0  0  0  0  0  0  0  0  0  0
  -29.1416  -13.1303   17.8555 C   0  0  0  0  0  0  0  0  0  0  0  0
  -25.8197  -30.2679   23.9315 C   0  0  0  0  0  0  0  0  0  0  0  0
  -27.7721  -12.7996   18.4463 C   0  0  0  0  0  0  0  0  0  0  0  0
  -30.2767  -12.7030   18.7810 C   0  0  0  0  0  0  0  0  0  0  0  0
  -28.7985  -12.9202   20.7512 C   0  0  0  0  0  0  0  0  0  0  0  0
  -25.9517  -30.5633   22.4325 C   0  0  1  0  0  0  0  0  0  0  0  0
  -24.9612  -27.4457   20.5005 C   0  0  1  0  0  0  0  0  0  0  0  0
  -27.6316  -13.3801   19.8643 C   0  0  2  0  0  0  0  0  0  0  0  0
  -28.9611  -17.9173   24.1354 C   0  0  0  0  0  0  0  0  0  0  0  0
  -25.1036  -19.4388   23.0251 C   0  0  0  0  0  0  0  0  0  0  0  0
  -26.6675  -21.4117   23.1551 C   0  0  0  0  0  0  0  0  0  0  0  0
  -20.7109  -21.4186   22.8694 C   0  0  0  0  0  0  0  0  0  0  0  0
  -24.5987  -26.3500   24.9758 C   0  0  0  0  0  0  0  0  0  0  0  0
  -23.3761  -24.2217   25.4696 C   0  0  0  0  0  0  0  0  0  0  0  0
  -22.1104  -26.2465   24.7480 C   0  0  0  0  0  0  0  0  0  0  0  0
  -32.2390  -15.0589   22.5841 C   0  0  0  0  0  0  0  0  0  0  0  0
  -22.0003  -22.0435   19.3448 C   0  0  0  0  0  0  0  0  0  0  0  0
  -29.0849  -18.1457   19.1456 C   0  0  0  0  0  0  0  0  0  0  0  0
  -30.1547  -19.1217   18.6429 C   0  0  0  0  0  0  0  0  0  0  0  0
  -29.6463  -20.5624   18.5306 C   0  0  0  0  0  0  0  0  0  0  0  0
  -30.7521  -21.5038   18.0562 C   0  0  0  0  0  0  0  0  0  0  0  0
  -30.3274  -16.9978   21.6383 C   0  0  0  0  0  0  0  0  0  0  0  0
  -29.9343  -15.5375   21.8458 C   0  0  0  0  0  0  0  0  0  0  0  0
  -30.2463  -22.9310   17.9008 C   0  0  0  0  0  0  0  0  0  1  0  0
  -26.5690  -19.8722   23.2608 C   0  0  0  0  0  0  0  0  0  0  0  0
  -23.5186  -24.9981   23.0596 C   0  0  1  0  0  0  0  0  0  0  0  0
  -21.2766  -22.2474   21.7267 C   0  0  2  0  0  0  0  0  0  0  0  0
  -23.4204  -25.4551   24.5425 C   0  0  0  0  0  0  0  0  0  0  0  0
  -26.1770  -11.9386   21.2385 N   0  0  0  0  0  0  0  0  0  0  0  0
  -29.1926  -17.8969   21.6534 N   0  0  0  0  0  0  0  0  0  0  0  0
  -26.2879  -13.0459   20.4850 N   0  0  0  0  0  0  0  0  0  0  0  0
  -24.7379  -26.2394   21.3000 N   0  0  0  0  0  0  0  0  0  0  0  0
  -30.0957  -13.2327   20.1330 N   0  0  0  0  0  0  0  0  0  0  0  0
  -25.0629  -14.8940   19.6517 N   0  0  0  0  0  0  0  0  0  0  0  0
  -21.9970  -12.6107   22.0565 N   0  0  0  0  0  0  0  0  0  0  0  0
  -25.2705  -29.5499   21.6558 N   0  0  0  0  0  0  0  0  0  0  0  0
  -22.4021  -24.1716   22.6139 N   0  0  0  0  0  0  0  0  0  0  0  0
  -31.0863  -14.6397   21.7995 N   0  0  0  0  0  0  0  0  0  0  0  0
  -21.4699  -21.3544   20.5493 N   0  3  0  0  0  0  0  0  0  0  0  0
  -22.3300  -14.4559   20.7362 O   0  0  0  0  0  0  0  0  0  0  0  0
  -26.9864  -27.9769   21.5922 O   0  0  0  0  0  0  0  0  0  0  0  0
  -22.6594  -26.9712   22.0620 O   0  0  0  0  0  0  0  0  0  0  0  0
  -23.6763  -22.3363   21.9930 O   0  0  0  0  0  0  0  0  0  0  0  0
  -32.3179  -13.0229   20.7125 O   0  0  0  0  0  0  0  0  0  0  0  0
  -22.8736   -7.8833   24.8704 O   0  0  0  0  0  0  0  0  0  0  0  0
  -29.7790  -23.3952   19.1668 O   0  0  0  0  0  0  0  0  0  1  0  0
  -25.9002   -6.3336   29.2112 F   0  0  0  0  0  0  0  0  0  0  0  0
  -21.8756   -8.0867   27.4405 F   0  0  0  0  0  0  0  0  0  0  0  0
  1  2  1  0  0  0  0
  1  5  2  0  0  0  0
  2  6  2  0  0  0  0
  3  8  2  0  0  0  0
  3 16  1  0  0  0  0
  4  9  1  0  0  0  0
  4 16  2  0  0  0  0
  5 18  1  0  0  0  0
  6 20  1  0  0  0  0
  7 10  2  0  0  0  0
  7 19  1  0  0  0  0
  8 23  1  0  0  0  0
  9 23  2  0  0  0  0
 10 24  1  0  0  0  0
 11 12  2  0  0  0  0
 11 25  1  0  0  0  0
 12 26  1  0  0  0  0
 13 21  1  0  0  0  0
 13 24  2  0  0  0  0
 14 22  1  0  0  0  0
 14 29  2  0  0  0  0
 15 26  2  0  0  0  0
 15 27  1  0  0  0  0
 16 28  1  0  0  0  0
 17 28  1  0  0  0  0
 17 31  2  0  0  0  0
 17 32  1  0  0  0  0
 18 20  2  0  0  0  0
 18 37  1  0  0  0  0
 19 21  2  0  0  0  0
 19 38  1  0  0  0  0
 20 46  1  0  0  0  0
 21 39  1  0  0  0  0
 22 30  2  0  0  0  0
 22 65  1  0  0  0  0
 23 85  1  0  0  0  0
 24 86  1  0  0  0  0
 25 27  2  0  0  0  0
 25 85  1  0  0  0  0
 26 87  1  0  0  0  0
 27 88  1  0  0  0  0
 28 69  2  0  0  0  0
 29 58  1  0  0  0  0
 29 70  1  0  0  0  0
 30 49  1  0  0  0  0
 30 70  1  0  0  0  0
 31 71  1  0  0  0  0
 31 74  1  0  0  0  0
 32 75  1  0  0  0  0
 32 80  2  0  0  0  0
 33 47  1  0  0  0  0
 33 76  1  0  0  0  0
 33 81  2  0  0  0  0
 34 66  1  0  0  0  0
 34 72  1  0  0  0  0
 34 82  2  0  0  0  0
 35 67  1  0  0  0  0
 35 77  1  0  0  0  0
 35 83  2  0  0  0  0
 36 73  1  0  0  0  0
 36 78  1  0  0  0  0
 36 84  2  0  0  0  0
 37 40  1  0  0  0  0
 38 47  1  0  0  0  0
 39 72  1  0  0  0  0
 40 42  1  0  0  0  0
 41 43  1  0  0  0  0
 41 44  1  0  0  0  0
 42 46  1  0  0  0  0
 43 48  1  0  0  0  0
 44 73  1  0  0  0  0
 45 48  1  0  0  0  0
 45 73  1  0  0  0  0
 46 76  1  0  0  0  0
 47 72  1  0  0  0  0
 48 71  1  0  0  0  0
 50 65  1  0  0  0  0
 51 65  1  0  0  0  0
 52 67  1  0  0  0  0
 53 68  1  0  0  0  0
 54 68  1  0  0  0  0
 55 68  1  0  0  0  0
 56 78  1  0  0  0  0
 57 79  1  0  0  0  0
 58 59  1  0  0  0  0
 59 60  1  0  0  0  0
 60 61  1  0  0  0  0
 61 64  1  0  0  0  0
 62 63  1  0  0  0  0
 62 70  1  0  0  0  0
 63 78  1  0  0  0  0
 64 86  1  0  0  0  0
 66 68  1  0  0  0  0
 66 77  1  0  0  0  0
 67 79  1  0  0  0  0
 69 71  1  0  0  0  0
M  CHG  1  79   1
M  ISO  4  36 100  64 101  78 100  86 101
M  END
> <Batch ID>
0095

> <Smiles>
CNC(C)C(=O)NC(C(=O)N1Cc2cc([101O:1][101CH2:1]CCCCc3cc(C(C)C)c(C)n3CC[100N:0](C)[100C:0](=O)N3CCCC(n4nc(-c5ccc(Oc6ccc(F)cc6F)cc5)c(C(N)=O)c4N)C3)ccc2CC1C(=O)NC1CCCc2ccccc21)C(C)(C)C

> <Shape>
0.254

> <Color>
0.115

> <Negative vol penalty>
0.000

$$$$

  -OEChem-04052319213D

 88 96  0     1  0  0  0  0  0999 V2000
  -42.4307  -22.0719   13.2225 C   0  0  0  0  0  0  0  0  0  0  0  0
  -41.2586  -21.9761   13.9657 C   0  0  0  0  0  0  0  0  0  0  0  0
  -23.2845   -9.7971   19.9088 C   0  0  0  0  0  0  0  0  0  0  0  0
  -23.7226   -9.9370   22.2806 C   0  0  0  0  0  0  0  0  0  0  0  0
  -42.6017  -23.1252   12.3252 C   0  0  0  0  0  0  0  0  0  0  0  0
  -40.2572  -22.9343   13.8129 C   0  0  0  0  0  0  0  0  0  0  0  0
  -35.6401  -20.8820   13.4728 C   0  0  0  0  0  0  0  0  0  0  0  0
  -22.5525   -8.6274   20.1130 C   0  0  0  0  0  0  0  0  0  0  0  0
  -22.9906   -8.7673   22.4848 C   0  0  0  0  0  0  0  0  0  0  0  0
  -35.0430  -20.4577   14.6591 C   0  0  0  0  0  0  0  0  0  0  0  0
  -19.7390   -7.8687   22.6845 C   0  0  0  0  0  0  0  0  0  0  0  0
  -18.8307   -7.8509   23.7429 C   0  0  0  0  0  0  0  0  0  0  0  0
  -36.5755  -18.0504   23.6401 C   0  0  0  0  0  0  0  0  0  0  0  0
  -36.1870  -19.1493   22.8348 C   0  0  0  0  0  0  0  0  0  0  0  0
  -33.7342  -22.4832   14.7177 C   0  0  0  0  0  0  0  0  0  0  0  0
  -20.0239   -5.9996   24.7358 C   0  0  0  0  0  0  0  0  0  0  0  0
  -23.8696  -10.4519   20.9926 C   0  0  0  0  0  0  0  0  0  0  0  0
  -24.1397  -12.9808   20.7944 C   0  0  0  0  0  0  0  0  0  0  0  0
  -41.5978  -24.0915   12.1542 C   0  0  0  0  0  0  0  0  0  0  0  0
  -35.2961  -22.1171   12.9049 C   0  0  0  0  0  0  0  0  0  0  0  0
  -40.4155  -24.0024   12.9134 C   0  0  0  0  0  0  0  0  0  0  0  0
  -34.3265  -22.9197   13.5229 C   0  0  0  0  0  0  0  0  0  0  0  0
  -22.4056   -8.1125   21.4010 C   0  0  0  0  0  0  0  0  0  0  0  0
  -34.0920  -21.2596   15.2832 C   0  0  0  0  0  0  0  0  0  0  0  0
  -20.7898   -6.9519   22.6517 C   0  0  0  0  0  0  0  0  0  0  0  0
  -18.9731   -6.9164   24.7686 C   0  0  0  0  0  0  0  0  0  0  0  0
  -20.9322   -6.0174   23.6774 C   0  0  0  0  0  0  0  0  0  0  0  0
  -24.6263  -11.6598   20.7822 C   0  0  0  0  0  0  0  0  0  0  0  0
  -35.6593  -17.0433   23.4316 C   0  0  0  0  0  0  0  0  0  0  0  0
  -35.0449  -18.7803   22.1588 C   0  0  0  0  0  0  0  0  0  0  0  0
  -25.2455  -13.7564   20.5452 C   0  0  0  0  0  0  0  0  0  0  0  0
  -22.8072  -13.4635   21.0116 C   0  0  0  0  0  0  0  0  0  0  0  0
  -36.8696  -24.7996   12.2471 C   0  0  0  0  0  0  0  0  0  0  0  0
  -34.0668  -25.6401   10.8470 C   0  0  0  0  0  0  0  0  0  0  0  0
  -30.6850  -25.2243   10.6548 C   0  0  0  0  0  0  0  0  0  0  0  0
  -31.1494  -12.3515   21.3866 C   0  0  0  0  0  0  0  0  0  0  0  0
  -41.8478  -25.2382   11.2070 C   0  0  0  0  0  0  0  0  0  0  0  0
  -35.9298  -22.5483   11.6108 C   0  0  0  0  0  0  0  0  0  0  0  0
  -33.9074  -24.2451   12.9431 C   0  0  0  0  0  0  0  0  0  0  0  0
  -40.5821  -26.0035   10.8296 C   0  0  0  0  0  0  0  0  0  0  0  0
  -29.4871  -13.6544   18.3468 C   0  0  0  0  0  0  0  0  0  0  0  0
  -39.7489  -26.3030   12.0718 C   0  0  0  0  0  0  0  0  0  0  0  0
  -28.0166  -13.3324   18.6073 C   0  0  0  0  0  0  0  0  0  0  0  0
  -30.4166  -12.6710   19.0516 C   0  0  0  0  0  0  0  0  0  0  0  0
  -28.6991  -12.2296   20.7749 C   0  0  0  0  0  0  0  0  0  0  0  0
  -39.2958  -25.0084   12.7575 C   0  0  1  0  0  0  0  0  0  0  0  0
  -35.8794  -24.0577   11.3945 C   0  0  1  0  0  0  0  0  0  0  0  0
  -27.7366  -13.2296   20.1167 C   0  0  2  0  0  0  0  0  0  0  0  0
  -35.5919  -15.6886   24.0174 C   0  0  0  0  0  0  0  0  0  0  0  0
  -28.6609  -26.0786    9.4420 C   0  0  0  0  0  0  0  0  0  0  0  0
  -34.1257  -28.1772   12.5410 C   0  0  0  0  0  0  0  0  0  0  0  0
  -31.6989  -28.5001   12.0167 C   0  0  0  0  0  0  0  0  0  0  0  0
  -33.3837  -28.5181   10.1772 C   0  0  0  0  0  0  0  0  0  0  0  0
  -32.0554  -12.6980   23.6535 C   0  0  0  0  0  0  0  0  0  0  0  0
  -30.0874  -22.5525    9.5307 C   0  0  0  0  0  0  0  0  0  0  0  0
  -30.4873  -16.5538   21.5214 C   0  0  0  0  0  0  0  0  0  0  0  0
  -34.2117  -19.5597   21.1728 C   0  0  0  0  0  0  0  0  0  0  0  0
  -34.6525  -19.3849   19.7153 C   0  0  0  0  0  0  0  0  0  0  0  0
  -33.8456  -20.2420   18.7389 C   0  0  0  0  0  0  0  0  0  0  0  0
  -33.5996  -16.7407   22.0427 C   0  0  0  0  0  0  0  0  0  0  0  0
  -29.9554  -13.8416   23.0469 C   0  0  0  0  0  0  0  0  0  0  0  0
  -32.4561  -16.6399   23.0436 C   0  0  0  0  0  0  0  0  0  0  0  0
  -30.5394  -15.1402   23.5710 C   0  0  0  0  0  0  0  0  0  0  0  0
  -34.2844  -20.0124   17.2990 C   0  0  0  0  0  0  0  0  0  1  0  0
  -32.8066  -26.3317   11.3079 C   0  0  1  0  0  0  0  0  0  0  0  0
  -29.7601  -25.0279    9.4671 C   0  0  2  0  0  0  0  0  0  0  0  0
  -33.0128  -27.8577   11.5229 C   0  0  0  0  0  0  0  0  0  0  0  0
  -25.9390  -11.5961   20.5440 N   0  0  0  0  0  0  0  0  0  0  0  0
  -34.7332  -17.4983   22.5296 N   0  0  0  0  0  0  0  0  0  0  0  0
  -26.2866  -12.8867   20.4041 N   0  0  0  0  0  0  0  0  0  0  0  0
  -34.5603  -24.6258   11.6797 N   0  0  0  0  0  0  0  0  0  0  0  0
  -30.1006  -12.5602   20.4761 N   0  0  0  0  0  0  0  0  0  0  0  0
  -25.4191  -15.0906   20.4351 N   0  0  0  0  0  0  0  0  0  0  0  0
  -21.7897  -12.5306   21.2539 N   0  0  0  0  0  0  0  0  0  0  0  0
  -38.1827  -24.4210   12.0431 N   0  0  0  0  0  0  0  0  0  0  0  0
  -31.7773  -26.0000   10.3287 N   0  0  0  0  0  0  0  0  0  0  0  0
  -30.9904  -12.8785   22.6772 N   0  0  0  0  0  0  0  0  0  0  0  0
  -29.1225  -23.6821    9.5241 N   0  3  0  0  0  0  0  0  0  0  0  0
  -31.3631  -15.8013   22.4931 N   0  3  1  0  0  0  0  0  0  0  0  0
  -22.5242  -14.6850   20.9752 O   0  0  0  0  0  0  0  0  0  0  0  0
  -36.4717  -25.6533   13.0310 O   0  0  0  0  0  0  0  0  0  0  0  0
  -34.5900  -25.9822    9.7835 O   0  0  0  0  0  0  0  0  0  0  0  0
  -30.4589  -24.7413   11.7621 O   0  0  0  0  0  0  0  0  0  0  0  0
  -32.1739  -11.7378   21.0615 O   0  0  0  0  0  0  0  0  0  0  0  0
  -21.6912   -6.9713   21.6007 O   0  0  0  0  0  0  0  0  0  0  0  0
  -33.5081  -20.8481   16.4415 O   0  0  0  0  0  0  0  0  0  1  0  0
  -18.1017   -6.9004   25.7857 F   0  0  0  0  0  0  0  0  0  0  0  0
  -21.9404   -5.1348   23.6520 F   0  0  0  0  0  0  0  0  0  0  0  0
  1  2  1  0  0  0  0
  1  5  2  0  0  0  0
  2  6  2  0  0  0  0
  3  8  2  0  0  0  0
  3 17  1  0  0  0  0
  4  9  1  0  0  0  0
  4 17  2  0  0  0  0
  5 19  1  0  0  0  0
  6 21  1  0  0  0  0
  7 10  2  0  0  0  0
  7 20  1  0  0  0  0
  8 23  1  0  0  0  0
  9 23  2  0  0  0  0
 10 24  1  0  0  0  0
 11 12  2  0  0  0  0
 11 25  1  0  0  0  0
 12 26  1  0  0  0  0
 13 14  1  0  0  0  0
 13 29  2  0  0  0  0
 14 30  2  0  0  0  0
 15 22  1  0  0  0  0
 15 24  2  0  0  0  0
 16 26  2  0  0  0  0
 16 27  1  0  0  0  0
 17 28  1  0  0  0  0
 18 28  1  0  0  0  0
 18 31  2  0  0  0  0
 18 32  1  0  0  0  0
 19 21  2  0  0  0  0
 19 37  1  0  0  0  0
 20 22  2  0  0  0  0
 20 38  1  0  0  0  0
 21 46  1  0  0  0  0
 22 39  1  0  0  0  0
 23 85  1  0  0  0  0
 24 86  1  0  0  0  0
 25 27  2  0  0  0  0
 25 85  1  0  0  0  0
 26 87  1  0  0  0  0
 27 88  1  0  0  0  0
 28 68  2  0  0  0  0
 29 49  1  0  0  0  0
 29 69  1  0  0  0  0
 30 57  1  0  0  0  0
 30 69  1  0  0  0  0
 31 70  1  0  0  0  0
 31 73  1  0  0  0  0
 32 74  1  0  0  0  0
 32 80  2  0  0  0  0
 33 47  1  0  0  0  0
 33 75  1  0  0  0  0
 33 81  2  0  0  0  0
 34 65  1  0  0  0  0
 34 71  1  0  0  0  0
 34 82  2  0  0  0  0
 35 66  1  0  0  0  0
 35 76  1  0  0  0  0
 35 83  2  0  0  0  0
 36 72  1  0  0  0  0
 36 77  1  0  0  0  0
 36 84  2  0  0  0  0
 37 40  1  0  0  0  0
 38 47  1  0  0  0  0
 39 71  1  0  0  0  0
 40 42  1  0  0  0  0
 41 43  1  0  0  0  0
 41 44  1  0  0  0  0
 42 46  1  0  0  0  0
 43 48  1  0  0  0  0
 44 72  1  0  0  0  0
 45 48  1  0  0  0  0
 45 72  1  0  0  0  0
 46 75  1  0  0  0  0
 47 71  1  0  0  0  0
 48 70  1  0  0  0  0
 50 66  1  0  0  0  0
 51 67  1  0  0  0  0
 52 67  1  0  0  0  0
 53 67  1  0  0  0  0
 54 77  1  0  0  0  0
 55 78  1  0  0  0  0
 56 79  1  0  0  0  0
 57 58  1  0  0  0  0
 58 59  1  0  0  0  0
 59 64  1  0  0  0  0
 60 62  1  0  0  0  0
 60 69  1  0  0  0  0
 61 63  1  0  0  0  0
 61 77  1  0  0  0  0
 62 79  1  0  0  0  0
 63 79  1  0  0  0  0
 64 86  1  0  0  0  0
 65 67  1  0  0  0  0
 65 76  1  0  0  0  0
 66 78  1  0  0  0  0
 68 70  1  0  0  0  0
M  CHG  2  78   1  79   1
M  ISO  4  36 100  64 101  77 100  86 101
M  END
> <Batch ID>
0095

> <Smiles>
CNC(C)C(=O)NC(C(=O)N1Cc2cc([101O:1][101CH2:1]CCCc3ccc(C)n3CCN(C)CC[100N:0](C)[100C:0](=O)N3CCCC(n4nc(-c5ccc(Oc6ccc(F)cc6F)cc5)c(C(N)=O)c4N)C3)ccc2CC1C(=O)NC1CCCc2ccccc21)C(C)(C)C

> <Shape>
0.147

> <Color>
0.177

> <Negative vol penalty>
0.000

$$$$

  -OEChem-04052319213D

 86 94  0     1  0  0  0  0  0999 V2000
  -29.7169  -23.3117   15.9014 C   0  0  0  0  0  0  0  0  0  0  0  0
  -28.4868  -23.5865   16.4904 C   0  0  0  0  0  0  0  0  0  0  0  0
  -24.8944  -12.0253   19.9526 C   0  0  0  0  0  0  0  0  0  0  0  0
  -25.6368  -12.7167   22.1453 C   0  0  0  0  0  0  0  0  0  0  0  0
  -30.8904  -23.4585   16.6399 C   0  0  0  0  0  0  0  0  0  0  0  0
  -28.4295  -24.0073   17.8186 C   0  0  0  0  0  0  0  0  0  0  0  0
  -25.2662  -27.9050   18.4867 C   0  0  0  0  0  0  0  0  0  0  0  0
  -25.3459  -10.7305   20.2079 C   0  0  0  0  0  0  0  0  0  0  0  0
  -26.0882  -11.4218   22.4007 C   0  0  0  0  0  0  0  0  0  0  0  0
  -23.9023  -27.6186   18.5261 C   0  0  0  0  0  0  0  0  0  0  0  0
  -25.9768   -7.1567   20.4202 C   0  0  0  0  0  0  0  0  0  0  0  0
  -25.1377   -6.0974   20.0749 C   0  0  0  0  0  0  0  0  0  0  0  0
  -23.9553  -27.7273   20.9354 C   0  0  0  0  0  0  0  0  0  0  0  0
  -22.9083  -23.6864   20.4486 C   0  0  0  0  0  0  0  0  0  0  0  0
  -23.4433   -6.9522   21.5701 C   0  0  0  0  0  0  0  0  0  0  0  0
  -25.0399  -13.0184   20.9212 C   0  0  0  0  0  0  0  0  0  0  0  0
  -23.2951  -14.8794   20.9261 C   0  0  0  0  0  0  0  0  0  0  0  0
  -30.8481  -23.8906   17.9749 C   0  0  0  0  0  0  0  0  0  0  0  0
  -25.9884  -28.0942   19.6738 C   0  0  0  0  0  0  0  0  0  0  0  0
  -29.6034  -24.1588   18.5760 C   0  0  0  0  0  0  0  0  0  0  0  0
  -25.3277  -28.0185   20.9082 C   0  0  0  0  0  0  0  0  0  0  0  0
  -21.5294  -23.6522   20.0913 C   0  0  0  0  0  0  0  0  0  0  0  0
  -25.9428  -10.4288   21.4320 C   0  0  0  0  0  0  0  0  0  0  0  0
  -23.2472  -27.5269   19.7506 C   0  0  0  0  0  0  0  0  0  0  0  0
  -25.5493   -8.1138   21.3405 C   0  0  0  0  0  0  0  0  0  0  0  0
  -23.8709   -5.9952   20.6498 C   0  0  0  0  0  0  0  0  0  0  0  0
  -24.2826   -8.0116   21.9154 C   0  0  0  0  0  0  0  0  0  0  0  0
  -24.5742  -14.3563   20.6578 C   0  0  0  0  0  0  0  0  0  0  0  0
  -23.5847  -22.5699   20.0086 C   0  0  0  0  0  0  0  0  0  0  0  0
  -21.2044  -22.5108   19.3916 C   0  0  0  0  0  0  0  0  0  0  0  0
  -23.3593  -16.1818   20.4947 C   0  0  0  0  0  0  0  0  0  0  0  0
  -22.1511  -14.2449   21.5130 C   0  0  0  0  0  0  0  0  0  0  0  0
  -28.4337  -26.6204   21.0709 C   0  0  0  0  0  0  0  0  0  0  0  0
  -28.2269  -29.0942   23.1591 C   0  0  0  0  0  0  0  0  0  0  0  0
  -26.3116  -31.5389   24.5738 C   0  0  0  0  0  0  0  0  0  0  0  0
  -27.5193  -20.3973   20.4078 C   0  0  0  0  0  0  0  0  0  0  0  0
  -32.1397  -23.9891   18.7473 C   0  0  0  0  0  0  0  0  0  0  0  0
  -27.4536  -28.4289   19.6133 C   0  0  0  0  0  0  0  0  0  0  0  0
  -26.0532  -28.2333   22.2105 C   0  0  0  0  0  0  0  0  0  0  0  0
  -32.0189  -24.7997   20.0352 C   0  0  0  0  0  0  0  0  0  0  0  0
  -26.2420  -18.6984   17.3774 C   0  0  0  0  0  0  0  0  0  0  0  0
  -30.7778  -24.3794   20.8161 C   0  0  0  0  0  0  0  0  0  0  0  0
  -25.6284  -17.4199   17.9459 C   0  0  0  0  0  0  0  0  0  0  0  0
  -27.3854  -19.2137   18.2462 C   0  0  0  0  0  0  0  0  0  0  0  0
  -26.4007  -18.1359   20.2419 C   0  0  0  0  0  0  0  0  0  0  0  0
  -29.5019  -24.6412   20.0067 C   0  0  1  0  0  0  0  0  0  0  0  0
  -28.1966  -28.0946   20.9031 C   0  0  1  0  0  0  0  0  0  0  0  0
  -25.2152  -17.6159   19.4149 C   0  0  2  0  0  0  0  0  0  0  0  0
  -26.4088  -33.3794   26.2769 C   0  0  0  0  0  0  0  0  0  0  0  0
  -19.1596  -20.8084   20.9217 C   0  0  0  0  0  0  0  0  0  0  0  0
  -18.0212  -20.3865   18.7332 C   0  0  0  0  0  0  0  0  0  0  0  0
  -28.0672  -27.0274   25.3980 C   0  0  0  0  0  0  0  0  0  0  0  0
  -27.2254  -28.8350   26.9120 C   0  0  0  0  0  0  0  0  0  0  0  0
  -29.5028  -29.0104   25.9092 C   0  0  0  0  0  0  0  0  0  0  0  0
  -27.3542  -21.4893   22.6124 C   0  0  0  0  0  0  0  0  0  0  0  0
  -25.7038  -33.6061   22.5450 C   0  0  0  0  0  0  0  0  0  0  0  0
  -20.5508  -24.7437   20.4444 C   0  0  0  0  0  0  0  0  0  0  0  0
  -25.0153  -22.2349   20.1783 C   0  0  0  0  0  0  0  0  0  0  0  0
  -19.8920  -22.0975   18.8455 C   0  0  0  0  0  0  0  0  0  0  0  0
  -20.1968  -25.6573   19.2691 C   0  0  0  0  0  0  0  0  0  0  0  0
  -25.2907  -21.2080   21.2901 C   0  0  0  0  0  0  0  0  0  0  0  0
  -21.3881  -26.4449   18.7363 C   0  0  0  0  0  0  0  0  0  1  0  0
  -27.4726  -29.3506   24.4414 C   0  0  1  0  0  0  0  0  0  0  0  0
  -26.5754  -33.0151   24.8098 C   0  0  2  0  0  0  0  0  0  0  0  0
  -19.3473  -20.7542   19.4035 C   0  0  0  0  0  0  0  0  0  0  0  0
  -28.0534  -28.5498   25.6409 C   0  0  0  0  0  0  0  0  0  0  0  0
  -25.3912  -15.2531   20.0990 N   0  0  0  0  0  0  0  0  0  0  0  0
  -24.6237  -16.3528   20.0126 N   0  0  0  0  0  0  0  0  0  0  0  0
  -27.4863  -28.5518   22.0992 N   0  0  0  0  0  0  0  0  0  0  0  0
  -26.9778  -19.3497   19.6449 N   0  0  0  0  0  0  0  0  0  0  0  0
  -22.4571  -17.1859   20.4843 N   0  0  0  0  0  0  0  0  0  0  0  0
  -22.2571  -12.9019   21.8998 N   0  0  0  0  0  0  0  0  0  0  0  0
  -29.1591  -26.0468   20.0442 N   0  0  0  0  0  0  0  0  0  0  0  0
  -27.4722  -30.7969   24.6325 N   0  0  0  0  0  0  0  0  0  0  0  0
  -26.7171  -20.9242   21.4314 N   0  0  0  0  0  0  0  0  0  0  0  0
  -25.6308  -33.8446   24.0095 N   0  3  0  0  0  0  0  0  0  0  0  0
  -21.0620  -14.8461   21.6742 O   0  0  0  0  0  0  0  0  0  0  0  0
  -27.9925  -26.0462   22.0595 O   0  0  0  0  0  0  0  0  0  0  0  0
  -29.4272  -29.3717   23.0977 O   0  0  0  0  0  0  0  0  0  0  0  0
  -25.1877  -31.0886   24.3624 O   0  0  0  0  0  0  0  0  0  0  0  0
  -28.6514  -20.8430   20.1805 O   0  0  0  0  0  0  0  0  0  0  0  0
  -26.3833   -9.1653   21.6816 O   0  0  0  0  0  0  0  0  0  0  0  0
  -21.9162  -27.2468   19.7920 O   0  0  0  0  0  0  0  0  0  1  0  0
  -23.0646   -4.9787   20.3170 F   0  0  0  0  0  0  0  0  0  0  0  0
  -23.8658   -8.9286   22.7992 F   0  0  0  0  0  0  0  0  0  0  0  0
  -22.5585  -21.4867   19.1684 S   0  0  0  0  0  0  0  0  0  0  0  0
  1  2  1  0  0  0  0
  1  5  2  0  0  0  0
  2  6  2  0  0  0  0
  3  8  2  0  0  0  0
  3 16  1  0  0  0  0
  4  9  1  0  0  0  0
  4 16  2  0  0  0  0
  5 18  1  0  0  0  0
  6 20  1  0  0  0  0
  7 10  2  0  0  0  0
  7 19  1  0  0  0  0
  8 23  1  0  0  0  0
  9 23  2  0  0  0  0
 10 24  1  0  0  0  0
 11 12  2  0  0  0  0
 11 25  1  0  0  0  0
 12 26  1  0  0  0  0
 13 21  1  0  0  0  0
 13 24  2  0  0  0  0
 14 22  1  0  0  0  0
 14 29  2  0  0  0  0
 15 26  2  0  0  0  0
 15 27  1  0  0  0  0
 16 28  1  0  0  0  0
 17 28  1  0  0  0  0
 17 31  2  0  0  0  0
 17 32  1  0  0  0  0
 18 20  2  0  0  0  0
 18 37  1  0  0  0  0
 19 21  2  0  0  0  0
 19 38  1  0  0  0  0
 20 46  1  0  0  0  0
 21 39  1  0  0  0  0
 22 30  2  0  0  0  0
 22 57  1  0  0  0  0
 23 82  1  0  0  0  0
 24 83  1  0  0  0  0
 25 27  2  0  0  0  0
 25 82  1  0  0  0  0
 26 84  1  0  0  0  0
 27 85  1  0  0  0  0
 28 67  2  0  0  0  0
 29 58  1  0  0  0  0
 29 86  1  0  0  0  0
 30 59  1  0  0  0  0
 30 86  1  0  0  0  0
 31 68  1  0  0  0  0
 31 71  1  0  0  0  0
 32 72  1  0  0  0  0
 32 77  2  0  0  0  0
 33 47  1  0  0  0  0
 33 73  1  0  0  0  0
 33 78  2  0  0  0  0
 34 63  1  0  0  0  0
 34 69  1  0  0  0  0
 34 79  2  0  0  0  0
 35 64  1  0  0  0  0
 35 74  1  0  0  0  0
 35 80  2  0  0  0  0
 36 70  1  0  0  0  0
 36 75  1  0  0  0  0
 36 81  2  0  0  0  0
 37 40  1  0  0  0  0
 38 47  1  0  0  0  0
 39 69  1  0  0  0  0
 40 42  1  0  0  0  0
 41 43  1  0  0  0  0
 41 44  1  0  0  0  0
 42 46  1  0  0  0  0
 43 48  1  0  0  0  0
 44 70  1  0  0  0  0
 45 48  1  0  0  0  0
 45 70  1  0  0  0  0
 46 73  1  0  0  0  0
 47 69  1  0  0  0  0
 48 68  1  0  0  0  0
 49 64  1  0  0  0  0
 50 65  1  0  0  0  0
 51 65  1  0  0  0  0
 52 66  1  0  0  0  0
 53 66  1  0  0  0  0
 54 66  1  0  0  0  0
 55 75  1  0  0  0  0
 56 76  1  0  0  0  0
 57 60  1  0  0  0  0
 58 61  1  0  0  0  0
 59 65  1  0  0  0  0
 60 62  1  0  0  0  0
 61 75  1  0  0  0  0
 62 83  1  0  0  0  0
 63 66  1  0  0  0  0
 63 74  1  0  0  0  0
 64 76  1  0  0  0  0
 67 68  1  0  0  0  0
M  CHG  1  76   1
M  ISO  4  36 100  62 101  75 100  83 101
M  END
> <Batch ID>
0095

> <Smiles>
CNC(C)C(=O)NC(C(=O)N1Cc2cc([101O:1][101CH2:1]CCc3cc(CC[100N:0](C)[100C:0](=O)N4CCCC(n5nc(-c6ccc(Oc7ccc(F)cc7F)cc6)c(C(N)=O)c5N)C4)sc3CC(C)C)ccc2CC1C(=O)NC1CCCc2ccccc21)C(C)(C)C

> <Shape>
0.224

> <Color>
0.082

> <Negative vol penalty>
0.000

$$$$

  -OEChem-04052319213D

 87 95  0     1  0  0  0  0  0999 V2000
  -27.1594  -27.6689   16.6865 C   0  0  0  0  0  0  0  0  0  0  0  0
  -26.7365  -26.4427   17.1896 C   0  0  0  0  0  0  0  0  0  0  0  0
  -30.1598  -22.3124   21.5739 C   0  0  0  0  0  0  0  0  0  0  0  0
  -28.6135  -22.2784   19.7179 C   0  0  0  0  0  0  0  0  0  0  0  0
  -27.0510  -28.8172   17.4697 C   0  0  0  0  0  0  0  0  0  0  0  0
  -26.2058  -26.3641   18.4767 C   0  0  0  0  0  0  0  0  0  0  0  0
  -21.7363  -22.6426   20.3950 C   0  0  0  0  0  0  0  0  0  0  0  0
  -30.7427  -23.4738   21.0670 C   0  0  0  0  0  0  0  0  0  0  0  0
  -29.1963  -23.4398   19.2110 C   0  0  0  0  0  0  0  0  0  0  0  0
  -21.7562  -21.4246   21.0730 C   0  0  0  0  0  0  0  0  0  0  0  0
  -32.4028  -26.6492   20.4540 C   0  0  0  0  0  0  0  0  0  0  0  0
  -32.6710  -27.6843   21.3496 C   0  0  0  0  0  0  0  0  0  0  0  0
  -21.4350  -22.5887   23.1613 C   0  0  0  0  0  0  0  0  0  0  0  0
  -30.3218  -27.8194   21.8971 C   0  0  0  0  0  0  0  0  0  0  0  0
  -29.0952  -21.7146   20.8993 C   0  0  0  0  0  0  0  0  0  0  0  0
  -27.4142  -20.4274   22.3222 C   0  0  0  0  0  0  0  0  0  0  0  0
  -26.5098  -28.7542   18.7635 C   0  0  0  0  0  0  0  0  0  0  0  0
  -21.5762  -23.8457   21.0973 C   0  0  0  0  0  0  0  0  0  0  0  0
  -26.0913  -27.5125   19.2784 C   0  0  0  0  0  0  0  0  0  0  0  0
  -21.4108  -23.8205   22.4895 C   0  0  0  0  0  0  0  0  0  0  0  0
  -30.2610  -24.0375   19.8856 C   0  0  0  0  0  0  0  0  0  0  0  0
  -21.6085  -21.3977   22.4567 C   0  0  0  0  0  0  0  0  0  0  0  0
  -31.0940  -26.1992   20.2798 C   0  0  0  0  0  0  0  0  0  0  0  0
  -31.6306  -28.2694   22.0712 C   0  0  0  0  0  0  0  0  0  0  0  0
  -30.0535  -26.7843   21.0014 C   0  0  0  0  0  0  0  0  0  0  0  0
  -28.4930  -20.5146   21.4221 C   0  0  0  0  0  0  0  0  0  0  0  0
  -27.2258  -19.0789   22.5028 C   0  0  0  0  0  0  0  0  0  0  0  0
  -26.6505  -21.4719   22.9399 C   0  0  0  0  0  0  0  0  0  0  0  0
  -23.3463  -26.4528   21.5135 C   0  0  0  0  0  0  0  0  0  0  0  0
  -20.6938  -27.5379   23.0331 C   0  0  0  0  0  0  0  0  0  0  0  0
  -17.8114  -26.8074   24.7078 C   0  0  0  0  0  0  0  0  0  0  0  0
  -26.7501  -14.0398   19.9065 C   0  0  0  0  0  0  0  0  0  0  0  0
  -26.4565  -30.0145   19.5902 C   0  0  0  0  0  0  0  0  0  0  0  0
  -21.5301  -25.1492   20.3483 C   0  0  0  0  0  0  0  0  0  0  0  0
  -21.2155  -25.0826   23.2879 C   0  0  0  0  0  0  0  0  0  0  0  0
  -25.5367  -29.9083   20.8039 C   0  0  0  0  0  0  0  0  0  0  0  0
  -30.0656  -15.1290   21.1563 C   0  0  0  0  0  0  0  0  0  0  0  0
  -25.7876  -28.6025   21.5512 C   0  0  0  0  0  0  0  0  0  0  0  0
  -29.8731  -16.6339   21.3342 C   0  0  0  0  0  0  0  0  0  0  0  0
  -23.4524  -12.9638   19.9707 C   0  0  0  0  0  0  0  0  0  0  0  0
  -24.0359  -14.0965   22.1521 C   0  0  0  0  0  0  0  0  0  0  0  0
  -29.1559  -14.5661   20.0689 C   0  0  0  0  0  0  0  0  0  0  0  0
  -24.3631  -13.9546   19.2504 C   0  0  0  0  0  0  0  0  0  0  0  0
  -24.9590  -15.0512   21.3891 C   0  0  0  0  0  0  0  0  0  0  0  0
  -27.5199  -16.3827   20.4502 C   0  0  0  0  0  0  0  0  0  0  0  0
  -25.4874  -27.3907   20.6607 C   0  0  1  0  0  0  0  0  0  0  0  0
  -21.8761  -26.3521   21.2204 C   0  0  1  0  0  0  0  0  0  0  0  0
  -28.3910  -16.9722   21.5698 C   0  0  2  0  0  0  0  0  0  0  0  0
  -22.9099  -13.5859   21.2557 C   0  0  0  0  0  0  0  0  0  0  0  0
  -15.8712  -27.9042   25.8610 C   0  0  0  0  0  0  0  0  0  0  0  0
  -18.2788  -13.6236   24.1909 C   0  0  0  0  0  0  0  0  0  0  0  0
  -19.1810  -12.5575   21.4406 C   0  0  0  0  0  0  0  0  0  0  0  0
  -22.4755  -28.1641   25.4297 C   0  0  0  0  0  0  0  0  0  0  0  0
  -20.4085  -28.3438   26.8310 C   0  0  0  0  0  0  0  0  0  0  0  0
  -20.7588  -29.9103   24.9215 C   0  0  0  0  0  0  0  0  0  0  0  0
  -15.8654  -25.6022   22.8317 C   0  0  0  0  0  0  0  0  0  0  0  0
  -23.0030  -11.5678   22.7115 C   0  0  0  0  0  0  0  0  0  0  0  0
  -20.0691  -16.7852   22.6932 C   0  0  0  0  0  0  0  0  0  0  0  0
  -20.5876  -18.0429   23.4007 C   0  0  0  0  0  0  0  0  0  0  0  0
  -19.4772  -15.7930   23.7005 C   0  0  0  0  0  0  0  0  0  0  0  0
  -21.1159  -13.1772   22.9340 C   0  0  0  0  0  0  0  0  0  0  0  0
  -21.1534  -19.0637   22.4206 C   0  0  0  0  0  0  0  0  0  1  0  0
  -20.1816  -27.4939   24.4525 C   0  0  1  0  0  0  0  0  0  0  0  0
  -16.3956  -27.3328   24.5529 C   0  0  2  0  0  0  0  0  0  0  0  0
  -18.8809  -14.5024   23.0851 C   0  0  1  0  0  0  0  0  0  0  0  0
  -19.8771  -13.7064   22.1862 C   0  0  2  0  0  0  0  0  0  0  0  0
  -20.9617  -28.4542   25.3941 C   0  0  0  0  0  0  0  0  0  0  0  0
  -28.9575  -19.3168   21.0564 N   0  0  0  0  0  0  0  0  0  0  0  0
  -28.1668  -18.4643   21.7302 N   0  0  0  0  0  0  0  0  0  0  0  0
  -21.1839  -26.3326   22.5107 N   0  0  0  0  0  0  0  0  0  0  0  0
  -27.7587  -14.9403   20.2881 N   0  0  0  0  0  0  0  0  0  0  0  0
  -25.4242  -14.4369   20.1367 N   0  0  0  0  0  0  0  0  0  0  0  0
  -26.3487  -18.3708   23.2456 N   0  0  0  0  0  0  0  0  0  0  0  0
  -26.9771  -22.8025   22.6444 N   0  0  0  0  0  0  0  0  0  0  0  0
  -24.0598  -27.1699   20.5721 N   0  0  0  0  0  0  0  0  0  0  0  0
  -18.7496  -27.7626   24.3782 N   0  0  0  0  0  0  0  0  0  0  0  0
  -15.4818  -26.2389   24.1179 N   0  3  0  0  0  0  0  0  0  0  0  0
  -22.1253  -12.5640   21.9959 N   0  3  1  0  0  0  0  0  0  0  0  0
  -25.7172  -21.2327   23.7431 O   0  0  0  0  0  0  0  0  0  0  0  0
  -23.7996  -25.9207   22.5199 O   0  0  0  0  0  0  0  0  0  0  0  0
  -20.6538  -28.6008   22.4085 O   0  0  0  0  0  0  0  0  0  0  0  0
  -18.0602  -25.6651   25.0871 O   0  0  0  0  0  0  0  0  0  0  0  0
  -27.0197  -12.9466   19.3934 O   0  0  0  0  0  0  0  0  0  0  0  0
  -30.8294  -25.1710   19.3908 O   0  0  0  0  0  0  0  0  0  0  0  0
  -21.6284  -20.2013   23.1261 O   0  0  0  0  0  0  0  0  0  1  0  0
  -31.8885  -29.2623   22.9324 F   0  0  0  0  0  0  0  0  0  0  0  0
  -28.7943  -26.3555   20.8393 F   0  0  0  0  0  0  0  0  0  0  0  0
  1  2  1  0  0  0  0
  1  5  2  0  0  0  0
  2  6  2  0  0  0  0
  3  8  2  0  0  0  0
  3 15  1  0  0  0  0
  4  9  1  0  0  0  0
  4 15  2  0  0  0  0
  5 17  1  0  0  0  0
  6 19  1  0  0  0  0
  7 10  2  0  0  0  0
  7 18  1  0  0  0  0
  8 21  1  0  0  0  0
  9 21  2  0  0  0  0
 10 22  1  0  0  0  0
 11 12  2  0  0  0  0
 11 23  1  0  0  0  0
 12 24  1  0  0  0  0
 13 20  1  0  0  0  0
 13 22  2  0  0  0  0
 14 24  2  0  0  0  0
 14 25  1  0  0  0  0
 15 26  1  0  0  0  0
 16 26  1  0  0  0  0
 16 27  2  0  0  0  0
 16 28  1  0  0  0  0
 17 19  2  0  0  0  0
 17 33  1  0  0  0  0
 18 20  2  0  0  0  0
 18 34  1  0  0  0  0
 19 46  1  0  0  0  0
 20 35  1  0  0  0  0
 21 84  1  0  0  0  0
 22 85  1  0  0  0  0
 23 25  2  0  0  0  0
 23 84  1  0  0  0  0
 24 86  1  0  0  0  0
 25 87  1  0  0  0  0
 26 68  2  0  0  0  0
 27 69  1  0  0  0  0
 27 73  1  0  0  0  0
 28 74  1  0  0  0  0
 28 79  2  0  0  0  0
 29 47  1  0  0  0  0
 29 75  1  0  0  0  0
 29 80  2  0  0  0  0
 30 63  1  0  0  0  0
 30 70  1  0  0  0  0
 30 81  2  0  0  0  0
 31 64  1  0  0  0  0
 31 76  1  0  0  0  0
 31 82  2  0  0  0  0
 32 71  1  0  0  0  0
 32 72  1  0  0  0  0
 32 83  2  0  0  0  0
 33 36  1  0  0  0  0
 34 47  1  0  0  0  0
 35 70  1  0  0  0  0
 36 38  1  0  0  0  0
 37 39  1  0  0  0  0
 37 42  1  0  0  0  0
 38 46  1  0  0  0  0
 39 48  1  0  0  0  0
 40 43  1  0  0  0  0
 40 49  1  0  0  0  0
 41 44  1  0  0  0  0
 41 49  1  0  0  0  0
 42 71  1  0  0  0  0
 43 72  1  0  0  0  0
 44 72  1  0  0  0  0
 45 48  1  0  0  0  0
 45 71  1  0  0  0  0
 46 75  1  0  0  0  0
 47 70  1  0  0  0  0
 48 69  1  0  0  0  0
 49 78  1  0  0  0  0
 50 64  1  0  0  0  0
 51 65  1  0  0  0  0
 52 66  1  0  0  0  0
 53 67  1  0  0  0  0
 54 67  1  0  0  0  0
 55 67  1  0  0  0  0
 56 77  1  0  0  0  0
 57 78  1  0  0  0  0
 58 59  1  0  0  0  0
 58 60  1  0  0  0  0
 59 62  1  0  0  0  0
 60 65  1  0  0  0  0
 61 66  1  0  0  0  0
 61 78  1  0  0  0  0
 62 85  1  0  0  0  0
 63 67  1  0  0  0  0
 63 76  1  0  0  0  0
 64 77  1  0  0  0  0
 65 66  1  0  0  0  0
 68 69  1  0  0  0  0
M  CHG  2  77   1  78   1
M  ISO  4  32 100  62 101  72 100  85 101
M  END
> <Batch ID>
0095

> <Smiles>
CNC(C)C(=O)NC(C(=O)N1Cc2cc([101O:1][101CH2:1]CCCC(C)C(C)CN(C)C3CC[100N:0]([100C:0](=O)N4CCCC(n5nc(-c6ccc(Oc7ccc(F)cc7F)cc6)c(C(N)=O)c5N)C4)CC3)ccc2CC1C(=O)NC1CCCc2ccccc21)C(C)(C)C

> <Shape>
0.214

> <Color>
0.052

> <Negative vol penalty>
0.000

$$$$

  -OEChem-04052319213D

 91100  0     1  0  0  0  0  0999 V2000
  -27.7578  -35.8697   21.5662 C   0  0  0  0  0  0  0  0  0  0  0  0
  -28.1216  -34.5347   21.4214 C   0  0  0  0  0  0  0  0  0  0  0  0
  -26.5082  -13.1698   18.2148 C   0  0  0  0  0  0  0  0  0  0  0  0
  -26.8827  -12.9967   20.5953 C   0  0  0  0  0  0  0  0  0  0  0  0
  -26.8133  -36.2335   22.5252 C   0  0  0  0  0  0  0  0  0  0  0  0
  -27.5420  -33.5629   22.2363 C   0  0  0  0  0  0  0  0  0  0  0  0
  -26.1288  -29.4469   19.6466 C   0  0  0  0  0  0  0  0  0  0  0  0
  -25.9015  -11.9138   18.2188 C   0  0  0  0  0  0  0  0  0  0  0  0
  -26.2760  -11.7407   20.5994 C   0  0  0  0  0  0  0  0  0  0  0  0
  -27.1294  -28.5428   19.2924 C   0  0  0  0  0  0  0  0  0  0  0  0
  -23.1357  -10.4930   20.5503 C   0  0  0  0  0  0  0  0  0  0  0  0
  -22.2141  -10.2235   21.5620 C   0  0  0  0  0  0  0  0  0  0  0  0
  -26.5063  -27.1350   21.1496 C   0  0  0  0  0  0  0  0  0  0  0  0
  -27.1036  -21.3981   24.0853 C   0  0  0  0  0  0  0  0  0  0  0  0
  -26.8667  -22.1124   21.7749 C   0  0  0  0  0  0  0  0  0  0  0  0
  -23.5787   -8.3766   22.3130 C   0  0  0  0  0  0  0  0  0  0  0  0
  -30.3888  -22.1324   20.9317 C   0  0  0  0  0  0  0  0  0  0  0  0
  -29.0871  -21.6779   22.7230 C   0  0  0  0  0  0  0  0  0  0  0  0
  -26.9988  -13.7112   19.4030 C   0  0  0  0  0  0  0  0  0  0  0  0
  -27.0011  -16.2555   19.5886 C   0  0  0  0  0  0  0  0  0  0  0  0
  -26.2147  -35.2644   23.3456 C   0  0  0  0  0  0  0  0  0  0  0  0
  -25.3153  -29.2067   20.7632 C   0  0  0  0  0  0  0  0  0  0  0  0
  -26.5896  -33.9143   23.2080 C   0  0  0  0  0  0  0  0  0  0  0  0
  -25.4945  -28.0363   21.5143 C   0  0  0  0  0  0  0  0  0  0  0  0
  -26.3033  -21.7767   23.0093 C   0  0  0  0  0  0  0  0  0  0  0  0
  -28.4964  -21.3439   23.9579 C   0  0  0  0  0  0  0  0  0  0  0  0
  -30.4272  -21.7324   22.2476 C   0  0  0  0  0  0  0  0  0  0  0  0
  -28.2603  -22.0537   21.6621 C   0  0  0  0  0  0  0  0  0  0  0  0
  -25.7854  -11.1993   19.4111 C   0  0  0  0  0  0  0  0  0  0  0  0
  -27.3201  -27.3881   20.0456 C   0  0  0  0  0  0  0  0  0  0  0  0
  -24.2788   -9.7043   20.4199 C   0  0  0  0  0  0  0  0  0  0  0  0
  -22.4356   -9.1653   22.4434 C   0  0  0  0  0  0  0  0  0  0  0  0
  -24.5003   -8.6462   21.3013 C   0  0  0  0  0  0  0  0  0  0  0  0
  -27.6261  -15.0084   19.3993 C   0  0  0  0  0  0  0  0  0  0  0  0
  -28.0223  -17.1691   19.4952 C   0  0  0  0  0  0  0  0  0  0  0  0
  -25.6207  -16.5607   19.8275 C   0  0  0  0  0  0  0  0  0  0  0  0
  -24.7863  -30.7040   23.5168 C   0  0  0  0  0  0  0  0  0  0  0  0
  -22.5070  -28.4233   23.8709 C   0  0  0  0  0  0  0  0  0  0  0  0
  -21.3718  -25.3103   23.0539 C   0  0  0  0  0  0  0  0  0  0  0  0
  -33.2096  -18.8135   20.7337 C   0  0  0  0  0  0  0  0  0  0  0  0
  -25.2336  -35.7117   24.4002 C   0  0  0  0  0  0  0  0  0  0  0  0
  -24.2229  -30.1786   21.1163 C   0  0  0  0  0  0  0  0  0  0  0  0
  -24.6345  -27.7219   22.7101 C   0  0  0  0  0  0  0  0  0  0  0  0
  -24.3902  -34.5737   24.9694 C   0  0  0  0  0  0  0  0  0  0  0  0
  -32.8114  -16.6089   17.9664 C   0  0  0  0  0  0  0  0  0  0  0  0
  -25.2704  -33.3752   25.3092 C   0  0  0  0  0  0  0  0  0  0  0  0
  -31.3782  -16.0945   18.1119 C   0  0  0  0  0  0  0  0  0  0  0  0
  -33.4848  -16.7950   19.3244 C   0  0  0  0  0  0  0  0  0  0  0  0
  -31.3026  -17.1215   20.4223 C   0  0  0  0  0  0  0  0  0  0  0  0
  -25.9649  -32.8279   24.0563 C   0  0  1  0  0  0  0  0  0  0  0  0
  -23.7903  -30.0867   22.5763 C   0  0  1  0  0  0  0  0  0  0  0  0
  -30.5634  -16.9713   19.0817 C   0  0  2  0  0  0  0  0  0  0  0  0
  -29.2955  -20.9295   25.1536 C   0  0  0  0  0  0  0  0  0  0  0  0
  -19.5005  -23.7079   23.5312 C   0  0  0  0  0  0  0  0  0  0  0  0
  -22.0714  -19.0923   22.6404 C   0  0  0  0  0  0  0  0  0  0  0  0
  -22.2117  -20.8259   24.4391 C   0  0  0  0  0  0  0  0  0  0  0  0
  -23.7642  -27.7635   26.5716 C   0  0  0  0  0  0  0  0  0  0  0  0
  -22.4971  -25.6042   26.5555 C   0  0  0  0  0  0  0  0  0  0  0  0
  -21.2633  -27.7722   26.5593 C   0  0  0  0  0  0  0  0  0  0  0  0
  -20.5101  -25.2922   20.2226 C   0  0  0  0  0  0  0  0  0  0  0  0
  -24.8201  -21.8252   23.1747 C   0  0  0  0  0  0  0  0  0  0  0  0
  -31.6537  -21.4211   23.0100 C   0  0  0  0  0  0  0  0  0  0  0  0
  -24.1578  -20.4799   22.8261 C   0  0  0  0  0  0  0  0  0  0  0  0
  -28.7734  -24.2683   18.9753 C   0  0  0  0  0  0  0  0  0  0  0  0
  -28.6131  -22.7667   19.2232 C   0  0  0  0  0  0  0  0  0  0  0  0
  -32.7769  -20.7944   22.1648 C   0  0  0  0  0  0  0  0  0  0  0  0
  -28.0685  -25.1309   20.0157 C   0  0  0  0  0  0  0  0  0  1  0  0
  -22.4668  -27.0347   24.4617 C   0  0  1  0  0  0  0  0  0  0  0  0
  -20.0020  -24.8189   22.6219 C   0  0  2  0  0  0  0  0  0  0  0  0
  -22.6291  -20.4686   23.0118 C   0  0  0  0  0  0  0  0  0  0  0  0
  -22.5155  -27.0502   26.0157 C   0  0  0  0  0  0  0  0  0  0  0  0
  -28.9425  -15.1163   19.2006 N   0  0  0  0  0  0  0  0  0  0  0  0
  -29.0775  -22.3240   20.5877 N   0  0  0  0  0  0  0  0  0  0  0  0
  -29.1530  -16.4421   19.2644 N   0  0  0  0  0  0  0  0  0  0  0  0
  -23.5840  -28.7061   23.0188 N   0  0  0  0  0  0  0  0  0  0  0  0
  -32.6619  -17.6372   20.1959 N   0  0  0  0  0  0  0  0  0  0  0  0
  -28.0545  -18.5155   19.5888 N   0  0  0  0  0  0  0  0  0  0  0  0
  -24.7042  -15.5025   19.8940 N   0  0  0  0  0  0  0  0  0  0  0  0
  -25.0406  -32.0396   23.2697 N   0  0  0  0  0  0  0  0  0  0  0  0
  -21.2815  -26.3894   23.9075 N   0  0  0  0  0  0  0  0  0  0  0  0
  -32.3601  -19.5568   21.5441 N   0  0  0  0  0  0  0  0  0  0  0  0
  -20.0552  -24.2967   21.2271 N   0  3  0  0  0  0  0  0  0  0  0  0
  -25.2095  -17.7383   19.9613 O   0  0  0  0  0  0  0  0  0  0  0  0
  -25.2860  -30.0197   24.4020 O   0  0  0  0  0  0  0  0  0  0  0  0
  -21.6119  -29.2251   24.1492 O   0  0  0  0  0  0  0  0  0  0  0  0
  -22.4173  -24.7867   22.6752 O   0  0  0  0  0  0  0  0  0  0  0  0
  -34.3679  -19.1774   20.5040 O   0  0  0  0  0  0  0  0  0  0  0  0
  -25.1933   -9.9737   19.4155 O   0  0  0  0  0  0  0  0  0  0  0  0
  -28.2964  -26.5044   19.7025 O   0  0  0  0  0  0  0  0  0  1  0  0
  -21.5512   -8.9075   23.4158 F   0  0  0  0  0  0  0  0  0  0  0  0
  -25.5973   -7.8857   21.1818 F   0  0  0  0  0  0  0  0  0  0  0  0
  1  2  1  0  0  0  0
  1  5  2  0  0  0  0
  2  6  2  0  0  0  0
  3  8  2  0  0  0  0
  3 19  1  0  0  0  0
  4  9  1  0  0  0  0
  4 19  2  0  0  0  0
  5 21  1  0  0  0  0
  6 23  1  0  0  0  0
  7 10  2  0  0  0  0
  7 22  1  0  0  0  0
  8 29  1  0  0  0  0
  9 29  2  0  0  0  0
 10 30  1  0  0  0  0
 11 12  2  0  0  0  0
 11 31  1  0  0  0  0
 12 32  1  0  0  0  0
 13 24  1  0  0  0  0
 13 30  2  0  0  0  0
 14 25  1  0  0  0  0
 14 26  2  0  0  0  0
 15 25  2  0  0  0  0
 15 28  1  0  0  0  0
 16 32  2  0  0  0  0
 16 33  1  0  0  0  0
 17 27  2  0  0  0  0
 17 73  1  0  0  0  0
 18 26  1  0  0  0  0
 18 27  1  0  0  0  0
 18 28  2  0  0  0  0
 19 34  1  0  0  0  0
 20 34  1  0  0  0  0
 20 35  2  0  0  0  0
 20 36  1  0  0  0  0
 21 23  2  0  0  0  0
 21 41  1  0  0  0  0
 22 24  2  0  0  0  0
 22 42  1  0  0  0  0
 23 50  1  0  0  0  0
 24 43  1  0  0  0  0
 25 61  1  0  0  0  0
 26 53  1  0  0  0  0
 27 62  1  0  0  0  0
 28 73  1  0  0  0  0
 29 88  1  0  0  0  0
 30 89  1  0  0  0  0
 31 33  2  0  0  0  0
 31 88  1  0  0  0  0
 32 90  1  0  0  0  0
 33 91  1  0  0  0  0
 34 72  2  0  0  0  0
 35 74  1  0  0  0  0
 35 77  1  0  0  0  0
 36 78  1  0  0  0  0
 36 83  2  0  0  0  0
 37 51  1  0  0  0  0
 37 79  1  0  0  0  0
 37 84  2  0  0  0  0
 38 68  1  0  0  0  0
 38 75  1  0  0  0  0
 38 85  2  0  0  0  0
 39 69  1  0  0  0  0
 39 80  1  0  0  0  0
 39 86  2  0  0  0  0
 40 76  1  0  0  0  0
 40 81  1  0  0  0  0
 40 87  2  0  0  0  0
 41 44  1  0  0  0  0
 42 51  1  0  0  0  0
 43 75  1  0  0  0  0
 44 46  1  0  0  0  0
 45 47  1  0  0  0  0
 45 48  1  0  0  0  0
 46 50  1  0  0  0  0
 47 52  1  0  0  0  0
 48 76  1  0  0  0  0
 49 52  1  0  0  0  0
 49 76  1  0  0  0  0
 50 79  1  0  0  0  0
 51 75  1  0  0  0  0
 52 74  1  0  0  0  0
 54 69  1  0  0  0  0
 55 70  1  0  0  0  0
 56 70  1  0  0  0  0
 57 71  1  0  0  0  0
 58 71  1  0  0  0  0
 59 71  1  0  0  0  0
 60 82  1  0  0  0  0
 61 63  1  0  0  0  0
 62 66  1  0  0  0  0
 63 70  1  0  0  0  0
 64 65  1  0  0  0  0
 64 67  1  0  0  0  0
 65 73  1  0  0  0  0
 66 81  1  0  0  0  0
 67 89  1  0  0  0  0
 68 71  1  0  0  0  0
 68 80  1  0  0  0  0
 69 82  1  0  0  0  0
 72 74  1  0  0  0  0
M  CHG  1  82   1
M  ISO  4  40 100  67 101  81 100  89 101
M  END
> <Batch ID>
0095

> <Smiles>
CNC(C)C(=O)NC(C(=O)N1Cc2cc([101O:1][101CH2:1]CCn3cc(CC[100NH:0][100C:0](=O)N4CCCC(n5nc(-c6ccc(Oc7ccc(F)cc7F)cc6)c(C(N)=O)c5N)C4)c4c(C)cc(CCC(C)C)cc43)ccc2CC1C(=O)NC1CCCc2ccccc21)C(C)(C)C

> <Shape>
0.239

> <Color>
0.061

> <Negative vol penalty>
0.000

$$$$

  -OEChem-04052319213D

 89 97  0     1  0  0  0  0  0999 V2000
  -19.9196  -10.8601   21.5652 C   0  0  0  0  0  0  0  0  0  0  0  0
  -20.5468  -11.9450   22.1694 C   0  0  0  0  0  0  0  0  0  0  0  0
  -23.7427  -29.5610   20.7855 C   0  0  0  0  0  0  0  0  0  0  0  0
  -25.9573  -29.7913   21.7234 C   0  0  0  0  0  0  0  0  0  0  0  0
  -20.6841   -9.8465   20.9890 C   0  0  0  0  0  0  0  0  0  0  0  0
  -21.9391  -12.0163   22.1987 C   0  0  0  0  0  0  0  0  0  0  0  0
  -23.6742  -16.6194   20.9964 C   0  0  0  0  0  0  0  0  0  0  0  0
  -23.2598  -30.5020   21.6948 C   0  0  0  0  0  0  0  0  0  0  0  0
  -25.4744  -30.7324   22.6327 C   0  0  0  0  0  0  0  0  0  0  0  0
  -23.6102  -17.6019   21.9836 C   0  0  0  0  0  0  0  0  0  0  0  0
  -24.6518  -34.0102   22.6220 C   0  0  0  0  0  0  0  0  0  0  0  0
  -25.4031  -35.1698   22.8127 C   0  0  0  0  0  0  0  0  0  0  0  0
  -25.9468  -17.2542   22.4724 C   0  0  0  0  0  0  0  0  0  0  0  0
  -25.6511  -34.6240   25.1532 C   0  0  0  0  0  0  0  0  0  0  0  0
  -23.5065  -20.7546   26.6403 C   0  0  0  0  0  0  0  0  0  0  0  0
  -25.0915  -29.2056   20.7998 C   0  0  0  0  0  0  0  0  0  0  0  0
  -26.1097  -28.4805   18.5761 C   0  0  0  0  0  0  0  0  0  0  0  0
  -22.0864   -9.9103   21.0028 C   0  0  0  0  0  0  0  0  0  0  0  0
  -24.8742  -15.9382   20.7468 C   0  0  0  0  0  0  0  0  0  0  0  0
  -22.7231  -11.0020   21.6234 C   0  0  0  0  0  0  0  0  0  0  0  0
  -26.0239  -16.2653   21.4798 C   0  0  0  0  0  0  0  0  0  0  0  0
  -24.1255  -31.0877   22.6184 C   0  0  0  0  0  0  0  0  0  0  0  0
  -24.7459  -17.9174   22.7237 C   0  0  0  0  0  0  0  0  0  0  0  0
  -24.4001  -33.1575   23.6968 C   0  0  0  0  0  0  0  0  0  0  0  0
  -25.9028  -35.4767   24.0783 C   0  0  0  0  0  0  0  0  0  0  0  0
  -24.8998  -33.4644   24.9624 C   0  0  0  0  0  0  0  0  0  0  0  0
  -25.5909  -28.2332   19.8612 C   0  0  0  0  0  0  0  0  0  0  0  0
  -24.2581  -20.6919   27.8289 C   0  0  0  0  0  0  0  0  0  0  0  0
  -24.4322  -21.0258   25.6626 C   0  0  0  0  0  0  0  0  0  0  0  0
  -26.4434  -27.2378   18.0955 C   0  0  0  0  0  0  0  0  0  0  0  0
  -26.2753  -29.7225   17.8791 C   0  0  0  0  0  0  0  0  0  0  0  0
  -25.8124  -12.9067   20.9294 C   0  0  0  0  0  0  0  0  0  0  0  0
  -28.5288  -14.0741   19.5949 C   0  0  0  0  0  0  0  0  0  0  0  0
  -30.5702  -16.7547   19.0528 C   0  0  0  0  0  0  0  0  0  0  0  0
  -27.8632  -22.0756   20.7764 C   0  0  0  0  0  0  0  0  0  0  0  0
  -22.8709   -8.7673   20.4087 C   0  0  0  0  0  0  0  0  0  0  0  0
  -24.9333  -14.8998   19.6603 C   0  0  0  0  0  0  0  0  0  0  0  0
  -27.3416  -15.5775   21.2368 C   0  0  0  0  0  0  0  0  0  0  0  0
  -24.3376   -9.1037   20.1521 C   0  0  0  0  0  0  0  0  0  0  0  0
  -25.2155  -22.6281   18.4610 C   0  0  0  0  0  0  0  0  0  0  0  0
  -24.9453   -9.8017   21.3646 C   0  0  0  0  0  0  0  0  0  0  0  0
  -25.0583  -24.1496   18.4414 C   0  0  0  0  0  0  0  0  0  0  0  0
  -25.5635  -22.1147   19.8565 C   0  0  0  0  0  0  0  0  0  0  0  0
  -26.5802  -24.2777   20.4578 C   0  0  0  0  0  0  0  0  0  0  0  0
  -24.2309  -11.1275   21.6535 C   0  0  1  0  0  0  0  0  0  0  0  0
  -26.0791  -13.9091   19.8423 C   0  0  1  0  0  0  0  0  0  0  0  0
  -26.2840  -24.8480   19.0602 C   0  0  2  0  0  0  0  0  0  0  0  0
  -23.7631  -20.4297   29.1908 C   0  0  0  0  0  0  0  0  0  0  0  0
  -23.0425  -24.9138   23.8284 C   0  0  0  0  0  0  0  0  0  0  0  0
  -32.7375  -17.3910   17.9596 C   0  0  0  0  0  0  0  0  0  0  0  0
  -30.0646  -12.7798   21.8919 C   0  0  0  0  0  0  0  0  0  0  0  0
  -32.0290  -14.2118   21.2931 C   0  0  0  0  0  0  0  0  0  0  0  0
  -31.1513  -12.5517   19.6510 C   0  0  0  0  0  0  0  0  0  0  0  0
  -29.2253  -18.6590   17.2296 C   0  0  0  0  0  0  0  0  0  0  0  0
  -30.1764  -19.4646   25.2491 C   0  0  0  0  0  0  0  0  0  0  0  0
  -23.9220  -23.7575   24.2792 C   0  0  0  0  0  0  0  0  0  0  0  0
  -23.3602  -22.4120   23.8069 C   0  0  0  0  0  0  0  0  0  0  0  0
  -30.1434  -21.8423   23.1782 C   0  0  0  0  0  0  0  0  0  0  0  0
  -26.9206  -21.3736   25.6980 C   0  0  0  0  0  0  0  0  0  0  0  0
  -30.1649  -22.1999   21.6960 C   0  0  0  0  0  0  0  0  0  0  0  0
  -29.0416  -20.8458   23.5156 C   0  0  0  0  0  0  0  0  0  0  0  0
  -27.7980  -20.1372   25.5532 C   0  0  0  0  0  0  0  0  0  0  0  0
  -23.7492  -19.9342   23.4949 C   0  0  0  0  0  0  0  0  0  1  0  0
  -24.2734  -21.2179   24.1607 C   0  0  2  0  0  0  0  0  0  0  0  0
  -29.8200  -14.6478   20.1265 C   0  0  1  0  0  0  0  0  0  0  0  0
  -31.2303  -17.2790   17.7904 C   0  0  2  0  0  0  0  0  0  0  0  0
  -30.7411  -13.5596   20.7468 C   0  0  0  0  0  0  0  0  0  0  0  0
  -25.5927  -26.9354   20.1770 N   0  0  0  0  0  0  0  0  0  0  0  0
  -25.5610  -20.9058   27.6270 N   0  0  0  0  0  0  0  0  0  0  0  0
  -25.6352  -21.1056   26.3001 N   0  0  0  0  0  0  0  0  0  0  0  0
  -26.1166  -26.3561   19.0834 N   0  0  0  0  0  0  0  0  0  0  0  0
  -27.3471  -14.5650   20.1680 N   0  0  0  0  0  0  0  0  0  0  0  0
  -26.7355  -22.8163   20.3857 N   0  0  0  0  0  0  0  0  0  0  0  0
  -26.9814  -26.8243   16.9285 N   0  0  0  0  0  0  0  0  0  0  0  0
  -25.8805  -30.9054   18.5188 N   0  0  0  0  0  0  0  0  0  0  0  0
  -24.6726  -12.1511   20.7307 N   0  0  0  0  0  0  0  0  0  0  0  0
  -30.4250  -15.3838   19.0217 N   0  0  0  0  0  0  0  0  0  0  0  0
  -28.9327  -22.8188   21.2609 N   0  0  0  0  0  0  0  0  0  0  0  0
  -30.6945  -18.6267   17.4471 N   0  3  0  0  0  0  0  0  0  0  0  0
  -29.1173  -20.5065   24.9842 N   0  3  1  0  0  0  0  0  0  0  0  0
  -26.7437  -29.7799   16.7168 O   0  0  0  0  0  0  0  0  0  0  0  0
  -26.5844  -12.8238   21.8774 O   0  0  0  0  0  0  0  0  0  0  0  0
  -28.5669  -13.2269   18.6991 O   0  0  0  0  0  0  0  0  0  0  0  0
  -30.2217  -17.4874   19.9760 O   0  0  0  0  0  0  0  0  0  0  0  0
  -27.9153  -20.8438   20.6941 O   0  0  0  0  0  0  0  0  0  0  0  0
  -23.6546  -32.0062   23.5056 O   0  0  0  0  0  0  0  0  0  0  0  0
  -24.6861  -18.8754   23.6883 O   0  0  0  0  0  0  0  0  0  1  0  0
  -26.6256  -36.5895   24.2611 F   0  0  0  0  0  0  0  0  0  0  0  0
  -24.6622  -32.6485   25.9986 F   0  0  0  0  0  0  0  0  0  0  0  0
  1  2  1  0  0  0  0
  1  5  2  0  0  0  0
  2  6  2  0  0  0  0
  3  8  2  0  0  0  0
  3 16  1  0  0  0  0
  4  9  1  0  0  0  0
  4 16  2  0  0  0  0
  5 18  1  0  0  0  0
  6 20  1  0  0  0  0
  7 10  2  0  0  0  0
  7 19  1  0  0  0  0
  8 22  1  0  0  0  0
  9 22  2  0  0  0  0
 10 23  1  0  0  0  0
 11 12  2  0  0  0  0
 11 24  1  0  0  0  0
 12 25  1  0  0  0  0
 13 21  1  0  0  0  0
 13 23  2  0  0  0  0
 14 25  2  0  0  0  0
 14 26  1  0  0  0  0
 15 28  1  0  0  0  0
 15 29  2  0  0  0  0
 16 27  1  0  0  0  0
 17 27  1  0  0  0  0
 17 30  2  0  0  0  0
 17 31  1  0  0  0  0
 18 20  2  0  0  0  0
 18 36  1  0  0  0  0
 19 21  2  0  0  0  0
 19 37  1  0  0  0  0
 20 45  1  0  0  0  0
 21 38  1  0  0  0  0
 22 86  1  0  0  0  0
 23 87  1  0  0  0  0
 24 26  2  0  0  0  0
 24 86  1  0  0  0  0
 25 88  1  0  0  0  0
 26 89  1  0  0  0  0
 27 68  2  0  0  0  0
 28 48  1  0  0  0  0
 28 69  2  0  0  0  0
 29 64  1  0  0  0  0
 29 70  1  0  0  0  0
 30 71  1  0  0  0  0
 30 74  1  0  0  0  0
 31 75  1  0  0  0  0
 31 81  2  0  0  0  0
 32 46  1  0  0  0  0
 32 76  1  0  0  0  0
 32 82  2  0  0  0  0
 33 65  1  0  0  0  0
 33 72  1  0  0  0  0
 33 83  2  0  0  0  0
 34 66  1  0  0  0  0
 34 77  1  0  0  0  0
 34 84  2  0  0  0  0
 35 73  1  0  0  0  0
 35 78  1  0  0  0  0
 35 85  2  0  0  0  0
 36 39  1  0  0  0  0
 37 46  1  0  0  0  0
 38 72  1  0  0  0  0
 39 41  1  0  0  0  0
 40 42  1  0  0  0  0
 40 43  1  0  0  0  0
 41 45  1  0  0  0  0
 42 47  1  0  0  0  0
 43 73  1  0  0  0  0
 44 47  1  0  0  0  0
 44 73  1  0  0  0  0
 45 76  1  0  0  0  0
 46 72  1  0  0  0  0
 47 71  1  0  0  0  0
 49 56  1  0  0  0  0
 50 66  1  0  0  0  0
 51 67  1  0  0  0  0
 52 67  1  0  0  0  0
 53 67  1  0  0  0  0
 54 79  1  0  0  0  0
 55 80  1  0  0  0  0
 56 57  1  0  0  0  0
 57 64  1  0  0  0  0
 58 60  1  0  0  0  0
 58 61  1  0  0  0  0
 59 62  1  0  0  0  0
 59 70  1  0  0  0  0
 60 78  1  0  0  0  0
 61 80  1  0  0  0  0
 62 80  1  0  0  0  0
 63 64  1  0  0  0  0
 63 87  1  0  0  0  0
 65 67  1  0  0  0  0
 65 77  1  0  0  0  0
 66 79  1  0  0  0  0
 68 71  1  0  0  0  0
 69 70  1  0  0  0  0
M  CHG  2  79   1  80   1
M  ISO  4  35 100  63 101  78 100  87 101
M  END
> <Batch ID>
0095

> <Smiles>
CCCC(c1cc(C)nn1CCN(C)CCC[100NH:0][100C:0](=O)N1CCCC(n2nc(-c3ccc(Oc4ccc(F)cc4F)cc3)c(C(N)=O)c2N)C1)[101CH2:1][101O:1]c1ccc2c(c1)CN(C(=O)C(NC(=O)C(C)NC)C(C)(C)C)C(C(=O)NC1CCCc3ccccc31)C2

> <Shape>
0.248

> <Color>
0.059

> <Negative vol penalty>
0.000

$$$$

  -OEChem-04052319213D

 89 97  0     1  0  0  0  0  0999 V2000
  -17.2214  -24.8264   24.5687 C   0  0  0  0  0  0  0  0  0  0  0  0
  -17.9912  -24.0739   23.6874 C   0  0  0  0  0  0  0  0  0  0  0  0
  -25.9720  -14.1959   21.6412 C   0  0  0  0  0  0  0  0  0  0  0  0
  -24.9221  -15.2581   19.7421 C   0  0  0  0  0  0  0  0  0  0  0  0
  -17.2292  -26.2181   24.4858 C   0  0  0  0  0  0  0  0  0  0  0  0
  -18.7683  -24.7128   22.7219 C   0  0  0  0  0  0  0  0  0  0  0  0
  -24.9495  -24.0108   19.1699 C   0  0  0  0  0  0  0  0  0  0  0  0
  -24.9208  -13.2817   21.7111 C   0  0  0  0  0  0  0  0  0  0  0  0
  -23.8709  -14.3439   19.8119 C   0  0  0  0  0  0  0  0  0  0  0  0
  -25.4497  -24.0090   17.8685 C   0  0  0  0  0  0  0  0  0  0  0  0
  -22.6937  -10.4446   22.1648 C   0  0  0  0  0  0  0  0  0  0  0  0
  -23.0150   -9.0996   22.3472 C   0  0  0  0  0  0  0  0  0  0  0  0
  -25.4462  -26.4213   17.8702 C   0  0  0  0  0  0  0  0  0  0  0  0
  -28.6128  -27.0745   14.8387 C   0  0  0  0  0  0  0  0  0  0  0  0
  -24.2765   -9.1216   20.2868 C   0  0  0  0  0  0  0  0  0  0  0  0
  -30.1389  -25.5470   15.4771 C   0  0  0  0  0  0  0  0  0  0  0  0
  -25.9726  -15.1841   20.6568 C   0  0  0  0  0  0  0  0  0  0  0  0
  -28.2521  -15.9977   19.8506 C   0  0  0  0  0  0  0  0  0  0  0  0
  -18.0143  -26.8747   23.5250 C   0  0  0  0  0  0  0  0  0  0  0  0
  -24.6832  -25.2199   19.8283 C   0  0  0  0  0  0  0  0  0  0  0  0
  -18.7855  -26.1146   22.6251 C   0  0  0  0  0  0  0  0  0  0  0  0
  -24.9451  -26.4358   19.1808 C   0  0  0  0  0  0  0  0  0  0  0  0
  -28.8895  -25.6871   14.9144 C   0  0  0  0  0  0  0  0  0  0  0  0
  -23.8703  -13.3557   20.7964 C   0  0  0  0  0  0  0  0  0  0  0  0
  -25.6954  -25.2143   17.2174 C   0  0  0  0  0  0  0  0  0  0  0  0
  -23.1637  -11.1281   21.0434 C   0  0  0  0  0  0  0  0  0  0  0  0
  -23.8064   -8.4381   21.4082 C   0  0  0  0  0  0  0  0  0  0  0  0
  -23.9551  -10.4666   20.1044 C   0  0  0  0  0  0  0  0  0  0  0  0
  -27.0580  -16.1291   20.5845 C   0  0  0  0  0  0  0  0  0  0  0  0
  -29.7017  -27.7400   15.3573 C   0  0  0  0  0  0  0  0  0  0  0  0
  -28.9454  -17.1540   20.1130 C   0  0  0  0  0  0  0  0  0  0  0  0
  -28.6950  -14.9263   19.0071 C   0  0  0  0  0  0  0  0  0  0  0  0
  -22.0792  -26.5980   21.0217 C   0  0  0  0  0  0  0  0  0  0  0  0
  -24.2096  -28.7927   22.1018 C   0  0  0  0  0  0  0  0  0  0  0  0
  -27.2630  -30.2785   21.7612 C   0  0  0  0  0  0  0  0  0  0  0  0
  -28.6302  -22.7603   20.3853 C   0  0  0  0  0  0  0  0  0  0  0  0
  -17.9536  -28.3795   23.4432 C   0  0  0  0  0  0  0  0  0  0  0  0
  -24.1689  -25.2050   21.2417 C   0  0  0  0  0  0  0  0  0  0  0  0
  -24.6952  -27.7612   19.8511 C   0  0  0  0  0  0  0  0  0  0  0  0
  -19.0944  -28.9920   22.6346 C   0  0  0  0  0  0  0  0  0  0  0  0
  -28.1432  -20.7867   23.5253 C   0  0  0  0  0  0  0  0  0  0  0  0
  -19.2851  -28.2363   21.3233 C   0  0  0  0  0  0  0  0  0  0  0  0
  -27.8496  -19.3998   22.9553 C   0  0  0  0  0  0  0  0  0  0  0  0
  -27.7005  -21.8833   22.5641 C   0  0  0  0  0  0  0  0  0  0  0  0
  -28.0069  -20.3829   20.6221 C   0  0  0  0  0  0  0  0  0  0  0  0
  -19.6608  -26.7719   21.5801 C   0  0  1  0  0  0  0  0  0  0  0  0
  -23.4493  -26.4931   21.6294 C   0  0  1  0  0  0  0  0  0  0  0  0
  -28.4564  -19.2424   21.5506 C   0  0  2  0  0  0  0  0  0  0  0  0
  -28.7880  -23.3688   13.9413 C   0  0  0  0  0  0  0  0  0  0  0  0
  -28.9215  -29.8655   16.4649 C   0  0  0  0  0  0  0  0  0  0  0  0
  -29.9638  -29.9487   14.1711 C   0  0  0  0  0  0  0  0  0  0  0  0
  -29.2062  -31.7627   22.3254 C   0  0  0  0  0  0  0  0  0  0  0  0
  -22.5015  -30.9307   20.7523 C   0  0  0  0  0  0  0  0  0  0  0  0
  -24.4341  -32.5084   20.9626 C   0  0  0  0  0  0  0  0  0  0  0  0
  -23.3705  -31.5618   23.0109 C   0  0  0  0  0  0  0  0  0  0  0  0
  -27.8769  -24.3522   22.2014 C   0  0  0  0  0  0  0  0  0  0  0  0
  -28.5327  -28.1814   23.4193 C   0  0  0  0  0  0  0  0  0  0  0  0
  -30.4557  -25.4849   20.7515 C   0  0  0  0  0  0  0  0  0  0  0  0
  -31.9128  -27.0742   16.3377 C   0  0  0  0  0  0  0  0  0  0  0  0
  -29.0653  -25.1805   20.2044 C   0  0  0  0  0  0  0  0  0  0  0  0
  -31.1015  -26.6767   20.0563 C   0  0  0  0  0  0  0  0  0  0  0  0
  -31.8363  -27.4728   17.8057 C   0  0  0  0  0  0  0  0  0  0  0  0
  -27.0125  -24.1175   15.5687 C   0  0  0  0  0  0  0  0  0  1  0  0
  -27.9765  -24.5596   14.4592 C   0  0  1  0  0  0  0  0  0  0  0  0
  -29.9387  -29.1896   15.5174 C   0  0  0  0  0  0  0  0  0  0  0  0
  -24.7997  -30.0696   21.5539 C   0  0  1  0  0  0  0  0  0  0  0  0
  -28.3515  -30.5874   22.7733 C   0  0  2  0  0  0  0  0  0  0  0  0
  -23.7794  -31.2428   21.5563 C   0  0  0  0  0  0  0  0  0  0  0  0
  -26.9931  -17.2781   21.2624 N   0  0  0  0  0  0  0  0  0  0  0  0
  -30.6232  -26.8014   15.7419 N   0  0  0  0  0  0  0  0  0  0  0  0
  -28.1553  -17.8793   20.9556 N   0  0  0  0  0  0  0  0  0  0  0  0
  -24.1863  -27.6941   21.2310 N   0  0  0  0  0  0  0  0  0  0  0  0
  -28.2701  -21.6923   21.2236 N   0  0  0  0  0  0  0  0  0  0  0  0
  -30.1477  -17.6108   19.7030 N   0  0  0  0  0  0  0  0  0  0  0  0
  -27.8592  -13.8126   18.8471 N   0  0  0  0  0  0  0  0  0  0  0  0
  -21.0563  -26.6653   21.9483 N   0  0  0  0  0  0  0  0  0  0  0  0
  -26.0079  -30.3269   22.3301 N   0  0  0  0  0  0  0  0  0  0  0  0
  -28.4357  -24.0573   20.8839 N   0  0  0  0  0  0  0  0  0  0  0  0
  -29.2387  -29.4042   22.9573 N   0  3  0  0  0  0  0  0  0  0  0  0
  -31.2703  -26.3629   18.6112 N   0  3  0  0  0  0  0  0  0  0  0  0
  -29.8064  -14.9483   18.4258 O   0  0  0  0  0  0  0  0  0  0  0  0
  -21.9590  -26.6180   19.8023 O   0  0  0  0  0  0  0  0  0  0  0  0
  -23.7915  -28.7689   23.2621 O   0  0  0  0  0  0  0  0  0  0  0  0
  -27.5021  -30.0236   20.5829 O   0  0  0  0  0  0  0  0  0  0  0  0
  -29.1081  -22.5655   19.2603 O   0  0  0  0  0  0  0  0  0  0  0  0
  -22.8445  -12.4637   20.8641 O   0  0  0  0  0  0  0  0  0  0  0  0
  -26.1830  -25.2153   15.9469 O   0  0  0  0  0  0  0  0  0  1  0  0
  -24.1161   -7.1469   21.5843 F   0  0  0  0  0  0  0  0  0  0  0  0
  -24.4106  -11.1183   19.0256 F   0  0  0  0  0  0  0  0  0  0  0  0
  1  2  1  0  0  0  0
  1  5  2  0  0  0  0
  2  6  2  0  0  0  0
  3  8  2  0  0  0  0
  3 17  1  0  0  0  0
  4  9  1  0  0  0  0
  4 17  2  0  0  0  0
  5 19  1  0  0  0  0
  6 21  1  0  0  0  0
  7 10  2  0  0  0  0
  7 20  1  0  0  0  0
  8 24  1  0  0  0  0
  9 24  2  0  0  0  0
 10 25  1  0  0  0  0
 11 12  2  0  0  0  0
 11 26  1  0  0  0  0
 12 27  1  0  0  0  0
 13 22  1  0  0  0  0
 13 25  2  0  0  0  0
 14 23  1  0  0  0  0
 14 30  2  0  0  0  0
 15 27  2  0  0  0  0
 15 28  1  0  0  0  0
 16 23  2  0  0  0  0
 16 70  1  0  0  0  0
 17 29  1  0  0  0  0
 18 29  1  0  0  0  0
 18 31  2  0  0  0  0
 18 32  1  0  0  0  0
 19 21  2  0  0  0  0
 19 37  1  0  0  0  0
 20 22  2  0  0  0  0
 20 38  1  0  0  0  0
 21 46  1  0  0  0  0
 22 39  1  0  0  0  0
 23 64  1  0  0  0  0
 24 86  1  0  0  0  0
 25 87  1  0  0  0  0
 26 28  2  0  0  0  0
 26 86  1  0  0  0  0
 27 88  1  0  0  0  0
 28 89  1  0  0  0  0
 29 69  2  0  0  0  0
 30 65  1  0  0  0  0
 30 70  1  0  0  0  0
 31 71  1  0  0  0  0
 31 74  1  0  0  0  0
 32 75  1  0  0  0  0
 32 81  2  0  0  0  0
 33 47  1  0  0  0  0
 33 76  1  0  0  0  0
 33 82  2  0  0  0  0
 34 66  1  0  0  0  0
 34 72  1  0  0  0  0
 34 83  2  0  0  0  0
 35 67  1  0  0  0  0
 35 77  1  0  0  0  0
 35 84  2  0  0  0  0
 36 73  1  0  0  0  0
 36 78  1  0  0  0  0
 36 85  2  0  0  0  0
 37 40  1  0  0  0  0
 38 47  1  0  0  0  0
 39 72  1  0  0  0  0
 40 42  1  0  0  0  0
 41 43  1  0  0  0  0
 41 44  1  0  0  0  0
 42 46  1  0  0  0  0
 43 48  1  0  0  0  0
 44 73  1  0  0  0  0
 45 48  1  0  0  0  0
 45 73  1  0  0  0  0
 46 76  1  0  0  0  0
 47 72  1  0  0  0  0
 48 71  1  0  0  0  0
 49 64  1  0  0  0  0
 50 65  1  0  0  0  0
 51 65  1  0  0  0  0
 52 67  1  0  0  0  0
 53 68  1  0  0  0  0
 54 68  1  0  0  0  0
 55 68  1  0  0  0  0
 56 78  1  0  0  0  0
 57 79  1  0  0  0  0
 58 60  1  0  0  0  0
 58 61  1  0  0  0  0
 59 62  1  0  0  0  0
 59 70  1  0  0  0  0
 60 78  1  0  0  0  0
 61 80  1  0  0  0  0
 62 80  1  0  0  0  0
 63 64  1  0  0  0  0
 63 87  1  0  0  0  0
 66 68  1  0  0  0  0
 66 77  1  0  0  0  0
 67 79  1  0  0  0  0
 69 71  1  0  0  0  0
M  CHG  2  79   1  80   1
M  ISO  4  36 100  63 101  78 100  87 101
M  END
> <Batch ID>
0095

> <Smiles>
CNC(C)C(=O)NC(C(=O)N1Cc2cc([101O:1][101CH2:1]C(C)c3cc(C(C)C)n(CCNCCC[100N:0](C)[100C:0](=O)N4CCCC(n5nc(-c6ccc(Oc7ccc(F)cc7F)cc6)c(C(N)=O)c5N)C4)c3)ccc2CC1C(=O)NC1CCCc2ccccc21)C(C)(C)C

> <Shape>
0.259

> <Color>
0.074

> <Negative vol penalty>
0.000

$$$$

  -OEChem-04052319213D

 86 94  0     1  0  0  0  0  0999 V2000
  -20.0022  -29.8175   23.4042 C   0  0  0  0  0  0  0  0  0  0  0  0
  -20.8432  -29.0586   22.5966 C   0  0  0  0  0  0  0  0  0  0  0  0
  -25.8214  -15.2995   21.3469 C   0  0  0  0  0  0  0  0  0  0  0  0
  -25.0192  -16.9144   19.7389 C   0  0  0  0  0  0  0  0  0  0  0  0
  -20.1084  -29.7343   24.7919 C   0  0  0  0  0  0  0  0  0  0  0  0
  -21.7918  -28.2169   23.1763 C   0  0  0  0  0  0  0  0  0  0  0  0
  -21.9381  -23.6540   20.9847 C   0  0  0  0  0  0  0  0  0  0  0  0
  -24.5589  -14.7076   21.3824 C   0  0  0  0  0  0  0  0  0  0  0  0
  -23.7566  -16.3225   19.7743 C   0  0  0  0  0  0  0  0  0  0  0  0
  -22.6060  -23.5546   19.7649 C   0  0  0  0  0  0  0  0  0  0  0  0
  -22.7504  -12.5805   19.4751 C   0  0  0  0  0  0  0  0  0  0  0  0
  -22.6853  -11.1883   19.4193 C   0  0  0  0  0  0  0  0  0  0  0  0
  -24.5370  -22.6615   20.9019 C   0  0  0  0  0  0  0  0  0  0  0  0
  -21.5787  -11.1539   21.5667 C   0  0  0  0  0  0  0  0  0  0  0  0
  -27.2961  -28.2514   19.6673 C   0  0  0  0  0  0  0  0  0  0  0  0
  -26.0516  -16.4029   20.5252 C   0  0  0  0  0  0  0  0  0  0  0  0
  -28.5695  -16.4078   20.1156 C   0  0  0  0  0  0  0  0  0  0  0  0
  -21.0522  -28.8838   25.3890 C   0  0  0  0  0  0  0  0  0  0  0  0
  -22.5696  -23.2674   22.1755 C   0  0  0  0  0  0  0  0  0  0  0  0
  -21.9116  -28.1232   24.5733 C   0  0  0  0  0  0  0  0  0  0  0  0
  -23.8740  -22.7546   22.1351 C   0  0  0  0  0  0  0  0  0  0  0  0
  -28.1092  -28.6498   20.7053 C   0  0  0  0  0  0  0  0  0  0  0  0
  -29.1750  -27.7202   20.7887 C   0  0  0  0  0  0  0  0  0  0  0  0
  -23.5265  -15.2191   20.5961 C   0  0  0  0  0  0  0  0  0  0  0  0
  -23.9067  -23.0611   19.7237 C   0  0  0  0  0  0  0  0  0  0  0  0
  -22.2297  -13.2594   20.5767 C   0  0  0  0  0  0  0  0  0  0  0  0
  -22.0994  -10.4750   20.4650 C   0  0  0  0  0  0  0  0  0  0  0  0
  -21.6438  -12.5462   21.6225 C   0  0  0  0  0  0  0  0  0  0  0  0
  -27.3554  -17.0151   20.4885 C   0  0  0  0  0  0  0  0  0  0  0  0
  -28.9809  -26.7820   19.7990 C   0  0  0  0  0  0  0  0  0  0  0  0
  -29.5065  -17.4032   20.2489 C   0  0  0  0  0  0  0  0  0  0  0  0
  -28.8272  -15.0641   19.6870 C   0  0  0  0  0  0  0  0  0  0  0  0
  -23.4073  -24.7563   24.8560 C   0  0  0  0  0  0  0  0  0  0  0  0
  -24.1958  -21.7592   25.8140 C   0  0  0  0  0  0  0  0  0  0  0  0
  -25.0863  -18.5808   24.9472 C   0  0  0  0  0  0  0  0  0  0  0  0
  -29.0643  -23.2839   19.9720 C   0  0  0  0  0  0  0  0  0  0  0  0
  -21.1616  -28.8631   26.8931 C   0  0  0  0  0  0  0  0  0  0  0  0
  -21.8259  -23.3558   23.4799 C   0  0  0  0  0  0  0  0  0  0  0  0
  -24.5891  -22.3070   23.3829 C   0  0  0  0  0  0  0  0  0  0  0  0
  -21.9402  -27.6651   27.4306 C   0  0  0  0  0  0  0  0  0  0  0  0
  -30.4095  -21.3862   22.7445 C   0  0  0  0  0  0  0  0  0  0  0  0
  -23.2310  -27.4698   26.6416 C   0  0  0  0  0  0  0  0  0  0  0  0
  -29.8858  -19.9826   22.4348 C   0  0  0  0  0  0  0  0  0  0  0  0
  -29.3807  -22.4528   22.3807 C   0  0  0  0  0  0  0  0  0  0  0  0
  -28.3895  -20.9991   20.6550 C   0  0  0  0  0  0  0  0  0  0  0  0
  -22.9365  -27.1799   25.1649 C   0  0  1  0  0  0  0  0  0  0  0  0
  -22.7504  -23.4150   24.6920 C   0  0  1  0  0  0  0  0  0  0  0  0
  -29.3923  -19.8771   20.9796 C   0  0  2  0  0  0  0  0  0  0  0  0
  -30.2903  -27.7492   21.7574 C   0  0  0  0  0  0  0  0  0  0  0  0
  -26.5862  -29.7569   22.3811 C   0  0  0  0  0  0  0  0  0  0  0  0
  -27.9368  -31.1635   20.7835 C   0  0  0  0  0  0  0  0  0  0  0  0
  -25.6339  -16.1509   25.2524 C   0  0  0  0  0  0  0  0  0  0  0  0
  -23.6446  -23.1638   16.3279 C   0  0  0  0  0  0  0  0  0  0  0  0
  -26.9631  -22.8430   26.5050 C   0  0  0  0  0  0  0  0  0  0  0  0
  -27.7914  -20.4817   26.5851 C   0  0  0  0  0  0  0  0  0  0  0  0
  -26.0247  -21.2366   28.1763 C   0  0  0  0  0  0  0  0  0  0  0  0
  -22.2449  -17.7901   24.7010 C   0  0  0  0  0  0  0  0  0  0  0  0
  -29.7866  -25.5967   19.4369 C   0  0  0  0  0  0  0  0  0  0  0  0
  -26.0236  -25.5100   18.3291 C   0  0  0  0  0  0  0  0  0  0  0  0
  -25.4498  -24.7354   17.1349 C   0  0  0  0  0  0  0  0  0  0  0  0
  -27.2447  -26.3603   17.9596 C   0  0  0  0  0  0  0  0  0  0  0  0
  -27.8982  -29.8307   21.5663 C   0  0  0  0  0  0  0  0  0  0  0  0
  -25.4384  -20.9052   25.7394 C   0  0  1  0  0  0  0  0  0  0  0  0
  -24.5732  -17.2292   25.4104 C   0  0  2  0  0  0  0  0  0  0  0  0
  -24.2175  -23.9113   17.5245 C   0  0  2  0  0  0  0  0  0  1  0  0
  -26.5419  -21.3768   26.7280 C   0  0  0  0  0  0  0  0  0  0  0  0
  -27.5045  -18.2969   20.8330 N   0  0  0  0  0  0  0  0  0  0  0  0
  -27.8359  -27.1151   19.1235 N   0  0  0  0  0  0  0  0  0  0  0  0
  -28.8233  -18.5032   20.6773 N   0  0  0  0  0  0  0  0  0  0  0  0
  -23.8222  -22.4189   24.6346 N   0  0  0  0  0  0  0  0  0  0  0  0
  -28.9665  -22.3083   20.9779 N   0  0  0  0  0  0  0  0  0  0  0  0
  -30.8398  -17.4360   20.0405 N   0  0  0  0  0  0  0  0  0  0  0  0
  -28.7564  -14.7745   18.3175 N   0  0  0  0  0  0  0  0  0  0  0  0
  -22.5181  -25.8052   24.9934 N   0  0  0  0  0  0  0  0  0  0  0  0
  -25.0006  -19.5288   25.9448 N   0  0  0  0  0  0  0  0  0  0  0  0
  -29.6157  -24.4984   20.3617 N   0  0  0  0  0  0  0  0  0  0  0  0
  -23.3759  -16.8303   24.6178 N   0  3  0  0  0  0  0  0  0  0  0  0
  -29.0958  -14.1439   20.4960 O   0  0  0  0  0  0  0  0  0  0  0  0
  -24.6303  -24.8339   24.8593 O   0  0  0  0  0  0  0  0  0  0  0  0
  -23.5753  -21.8325   26.8777 O   0  0  0  0  0  0  0  0  0  0  0  0
  -25.5230  -18.7751   23.8150 O   0  0  0  0  0  0  0  0  0  0  0  0
  -28.6925  -23.0857   18.8103 O   0  0  0  0  0  0  0  0  0  0  0  0
  -22.2944  -14.6417   20.6303 O   0  0  0  0  0  0  0  0  0  0  0  0
  -24.5611  -22.9636   18.5346 O   0  0  0  0  0  0  0  0  0  1  0  0
  -22.0356   -9.1382   20.4106 F   0  0  0  0  0  0  0  0  0  0  0  0
  -21.1408  -13.1930   22.6829 F   0  0  0  0  0  0  0  0  0  0  0  0
  1  2  1  0  0  0  0
  1  5  2  0  0  0  0
  2  6  2  0  0  0  0
  3  8  2  0  0  0  0
  3 16  1  0  0  0  0
  4  9  1  0  0  0  0
  4 16  2  0  0  0  0
  5 18  1  0  0  0  0
  6 20  1  0  0  0  0
  7 10  2  0  0  0  0
  7 19  1  0  0  0  0
  8 24  1  0  0  0  0
  9 24  2  0  0  0  0
 10 25  1  0  0  0  0
 11 12  2  0  0  0  0
 11 26  1  0  0  0  0
 12 27  1  0  0  0  0
 13 21  1  0  0  0  0
 13 25  2  0  0  0  0
 14 27  2  0  0  0  0
 14 28  1  0  0  0  0
 15 22  2  0  0  0  0
 15 68  1  0  0  0  0
 16 29  1  0  0  0  0
 17 29  1  0  0  0  0
 17 31  2  0  0  0  0
 17 32  1  0  0  0  0
 18 20  2  0  0  0  0
 18 37  1  0  0  0  0
 19 21  2  0  0  0  0
 19 38  1  0  0  0  0
 20 46  1  0  0  0  0
 21 39  1  0  0  0  0
 22 23  1  0  0  0  0
 22 62  1  0  0  0  0
 23 30  2  0  0  0  0
 23 49  1  0  0  0  0
 24 83  1  0  0  0  0
 25 84  1  0  0  0  0
 26 28  2  0  0  0  0
 26 83  1  0  0  0  0
 27 85  1  0  0  0  0
 28 86  1  0  0  0  0
 29 67  2  0  0  0  0
 30 58  1  0  0  0  0
 30 68  1  0  0  0  0
 31 69  1  0  0  0  0
 31 72  1  0  0  0  0
 32 73  1  0  0  0  0
 32 78  2  0  0  0  0
 33 47  1  0  0  0  0
 33 74  1  0  0  0  0
 33 79  2  0  0  0  0
 34 63  1  0  0  0  0
 34 70  1  0  0  0  0
 34 80  2  0  0  0  0
 35 64  1  0  0  0  0
 35 75  1  0  0  0  0
 35 81  2  0  0  0  0
 36 71  1  0  0  0  0
 36 76  1  0  0  0  0
 36 82  2  0  0  0  0
 37 40  1  0  0  0  0
 38 47  1  0  0  0  0
 39 70  1  0  0  0  0
 40 42  1  0  0  0  0
 41 43  1  0  0  0  0
 41 44  1  0  0  0  0
 42 46  1  0  0  0  0
 43 48  1  0  0  0  0
 44 71  1  0  0  0  0
 45 48  1  0  0  0  0
 45 71  1  0  0  0  0
 46 74  1  0  0  0  0
 47 70  1  0  0  0  0
 48 69  1  0  0  0  0
 50 62  1  0  0  0  0
 51 62  1  0  0  0  0
 52 64  1  0  0  0  0
 53 65  1  0  0  0  0
 54 66  1  0  0  0  0
 55 66  1  0  0  0  0
 56 66  1  0  0  0  0
 57 77  1  0  0  0  0
 58 76  1  0  0  0  0
 59 60  1  0  0  0  0
 59 61  1  0  0  0  0
 60 65  1  0  0  0  0
 61 68  1  0  0  0  0
 63 66  1  0  0  0  0
 63 75  1  0  0  0  0
 64 77  1  0  0  0  0
 65 84  1  0  0  0  0
 67 69  1  0  0  0  0
M  CHG  1  77   1
M  ISO  4  36 100  65 101  76 100  84 101
M  END
> <Batch ID>
0095

> <Smiles>
CNC(C)C(=O)NC(C(=O)N1Cc2cc([101O:1][101CH:1](C)CCCn3cc(C(C)C)c(C)c3C[100NH:0][100C:0](=O)N3CCCC(n4nc(-c5ccc(Oc6ccc(F)cc6F)cc5)c(C(N)=O)c4N)C3)ccc2CC1C(=O)NC1CCCc2ccccc21)C(C)(C)C

> <Shape>
0.192

> <Color>
0.050

> <Negative vol penalty>
0.000

$$$$

  -OEChem-04052319213D

 90 98  0     1  0  0  0  0  0999 V2000
  -18.0770  -28.3221   21.7949 C   0  0  0  0  0  0  0  0  0  0  0  0
  -19.2958  -27.6837   21.5894 C   0  0  0  0  0  0  0  0  0  0  0  0
  -23.0370   -9.8984   19.9312 C   0  0  0  0  0  0  0  0  0  0  0  0
  -23.7649   -9.8917   22.2350 C   0  0  0  0  0  0  0  0  0  0  0  0
  -17.8582  -29.0434   22.9679 C   0  0  0  0  0  0  0  0  0  0  0  0
  -20.2971  -27.7671   22.5563 C   0  0  0  0  0  0  0  0  0  0  0  0
  -22.5031  -23.2991   23.4593 C   0  0  0  0  0  0  0  0  0  0  0  0
  -22.2702   -8.7581   20.1702 C   0  0  0  0  0  0  0  0  0  0  0  0
  -22.9981   -8.7513   22.4739 C   0  0  0  0  0  0  0  0  0  0  0  0
  -23.4452  -22.8553   22.5324 C   0  0  0  0  0  0  0  0  0  0  0  0
  -21.5164   -5.6300   23.6017 C   0  0  0  0  0  0  0  0  0  0  0  0
  -22.1028   -4.5955   24.3307 C   0  0  0  0  0  0  0  0  0  0  0  0
  -25.2189  -23.6068   23.9843 C   0  0  0  0  0  0  0  0  0  0  0  0
  -23.8270   -4.3891   22.6510 C   0  0  0  0  0  0  0  0  0  0  0  0
  -23.7844  -10.4653   20.9636 C   0  0  0  0  0  0  0  0  0  0  0  0
  -24.1708  -12.9843   20.8498 C   0  0  0  0  0  0  0  0  0  0  0  0
  -18.8538  -29.1277   23.9540 C   0  0  0  0  0  0  0  0  0  0  0  0
  -22.9123  -23.9110   24.6528 C   0  0  0  0  0  0  0  0  0  0  0  0
  -20.0919  -28.4913   23.7430 C   0  0  0  0  0  0  0  0  0  0  0  0
  -24.2800  -24.0552   24.9259 C   0  0  0  0  0  0  0  0  0  0  0  0
  -26.7472  -20.2100   19.7542 C   0  0  0  0  0  0  0  0  0  0  0  0
  -26.3910  -21.5438   19.8487 C   0  0  0  0  0  0  0  0  0  0  0  0
  -22.2507   -8.1845   21.4415 C   0  0  0  0  0  0  0  0  0  0  0  0
  -24.8033  -23.0117   22.7935 C   0  0  0  0  0  0  0  0  0  0  0  0
  -22.0853   -6.0441   22.3973 C   0  0  0  0  0  0  0  0  0  0  0  0
  -23.2581   -3.9750   23.8554 C   0  0  0  0  0  0  0  0  0  0  0  0
  -23.2406   -5.4237   21.9219 C   0  0  0  0  0  0  0  0  0  0  0  0
  -24.5772  -11.6430   20.7173 C   0  0  0  0  0  0  0  0  0  0  0  0
  -27.8263  -19.8844   18.9573 C   0  0  0  0  0  0  0  0  0  0  0  0
  -27.1376  -22.4638   19.1404 C   0  0  0  0  0  0  0  0  0  0  0  0
  -25.2805  -13.7152   20.5022 C   0  0  0  0  0  0  0  0  0  0  0  0
  -22.9036  -13.5215   21.2513 C   0  0  0  0  0  0  0  0  0  0  0  0
  -22.5112  -26.7837   25.9530 C   0  0  0  0  0  0  0  0  0  0  0  0
  -23.9966  -25.4132   28.4902 C   0  0  0  0  0  0  0  0  0  0  0  0
  -26.0868  -22.9806   29.6565 C   0  0  0  0  0  0  0  0  0  0  0  0
  -30.7777  -14.6406   20.7674 C   0  0  0  0  0  0  0  0  0  0  0  0
  -18.5883  -29.9582   25.1845 C   0  0  0  0  0  0  0  0  0  0  0  0
  -21.8840  -24.3602   25.6544 C   0  0  0  0  0  0  0  0  0  0  0  0
  -24.7716  -24.6873   26.2016 C   0  0  0  0  0  0  0  0  0  0  0  0
  -19.5650  -29.6859   26.3256 C   0  0  0  0  0  0  0  0  0  0  0  0
  -29.6330  -12.2766   18.3637 C   0  0  0  0  0  0  0  0  0  0  0  0
  -20.9990  -29.6601   25.8062 C   0  0  0  0  0  0  0  0  0  0  0  0
  -28.1848  -12.0072   18.7764 C   0  0  0  0  0  0  0  0  0  0  0  0
  -30.5369  -12.4814   19.5773 C   0  0  0  0  0  0  0  0  0  0  0  0
  -28.6288  -13.2443   20.9377 C   0  0  0  0  0  0  0  0  0  0  0  0
  -21.1937  -28.5380   24.7793 C   0  0  1  0  0  0  0  0  0  0  0  0
  -22.4047  -25.4341   26.6047 C   0  0  1  0  0  0  0  0  0  0  0  0
  -27.6683  -13.0867   19.7466 C   0  0  2  0  0  0  0  0  0  0  0  0
  -25.9880  -19.1577   20.4903 C   0  0  0  0  0  0  0  0  0  0  0  0
  -26.4202  -24.4855   17.8170 C   0  0  0  0  0  0  0  0  0  0  0  0
  -27.9628  -24.7546   19.7926 C   0  0  0  0  0  0  0  0  0  0  0  0
  -27.1416  -22.1374   31.7717 C   0  0  0  0  0  0  0  0  0  0  0  0
  -29.4996  -18.3305   17.8651 C   0  0  0  0  0  0  0  0  0  0  0  0
  -27.1332  -17.5447   18.2833 C   0  0  0  0  0  0  0  0  0  0  0  0
  -25.9775  -27.7330   28.4242 C   0  0  0  0  0  0  0  0  0  0  0  0
  -27.5028  -26.3805   29.8777 C   0  0  0  0  0  0  0  0  0  0  0  0
  -25.2502  -27.0471   30.7166 C   0  0  0  0  0  0  0  0  0  0  0  0
  -24.7631  -20.3457   29.4034 C   0  0  0  0  0  0  0  0  0  0  0  0
  -25.2303  -21.9757   20.6958 C   0  0  0  0  0  0  0  0  0  1  0  0
  -30.8629  -16.7893   22.0063 C   0  0  0  0  0  0  0  0  0  0  0  0
  -29.4647  -18.6881   20.9876 C   0  0  0  0  0  0  0  0  0  0  0  0
  -26.8154  -23.9193   19.1938 C   0  0  0  0  0  0  0  0  0  0  0  0
  -25.4311  -25.2619   28.9355 C   0  0  1  0  0  0  0  0  0  0  0  0
  -25.9594  -22.0170   30.8226 C   0  0  2  0  0  0  0  0  0  0  0  0
  -29.9029  -17.9599   22.2625 C   0  0  2  0  0  0  0  0  0  0  0  0
  -28.2695  -18.4681   18.8055 C   0  0  0  0  0  0  0  0  0  0  0  0
  -26.0314  -26.5954   29.4635 C   0  0  0  0  0  0  0  0  0  0  0  0
  -25.8459  -11.5257   20.3166 N   0  0  0  0  0  0  0  0  0  0  0  0
  -28.5390  -20.8057   18.2751 N   0  0  0  0  0  0  0  0  0  0  0  0
  -28.1891  -22.1167   18.3684 N   0  0  0  0  0  0  0  0  0  0  0  0
  -26.2464  -12.8027   20.1942 N   0  0  0  0  0  0  0  0  0  0  0  0
  -23.7274  -25.1161   27.1467 N   0  0  0  0  0  0  0  0  0  0  0  0
  -29.9917  -13.5188   20.4561 N   0  0  0  0  0  0  0  0  0  0  0  0
  -25.5146  -15.0429   20.4329 N   0  0  0  0  0  0  0  0  0  0  0  0
  -21.8718  -12.6296   21.5740 N   0  0  0  0  0  0  0  0  0  0  0  0
  -30.5730  -18.9433   23.1217 N   0  0  0  0  0  0  0  0  0  0  0  0
  -21.3171  -27.2592   25.4455 N   0  0  0  0  0  0  0  0  0  0  0  0
  -25.4442  -24.1744   29.9078 N   0  0  0  0  0  0  0  0  0  0  0  0
  -30.1828  -15.5792   21.6015 N   0  0  0  0  0  0  0  0  0  0  0  0
  -25.8940  -20.6124   30.3291 N   0  3  0  0  0  0  0  0  0  0  0  0
  -28.7249  -17.7831   20.0976 N   0  3  0  0  0  0  0  0  0  0  0  0
  -22.6876  -14.7560   21.3061 O   0  0  0  0  0  0  0  0  0  0  0  0
  -23.5960  -27.3523   25.9148 O   0  0  0  0  0  0  0  0  0  0  0  0
  -23.1450  -25.7745   29.3062 O   0  0  0  0  0  0  0  0  0  0  0  0
  -26.6986  -22.7034   28.6272 O   0  0  0  0  0  0  0  0  0  0  0  0
  -31.9227  -14.7968   20.3297 O   0  0  0  0  0  0  0  0  0  0  0  0
  -21.5024   -7.0718   21.6751 O   0  0  0  0  0  0  0  0  0  0  0  0
  -25.7249  -22.5800   21.8902 O   0  0  0  0  0  0  0  0  0  1  0  0
  -23.8220   -2.9826   24.5563 F   0  0  0  0  0  0  0  0  0  0  0  0
  -23.7924   -5.8179   20.7661 F   0  0  0  0  0  0  0  0  0  0  0  0
  1  2  1  0  0  0  0
  1  5  2  0  0  0  0
  2  6  2  0  0  0  0
  3  8  2  0  0  0  0
  3 15  1  0  0  0  0
  4  9  1  0  0  0  0
  4 15  2  0  0  0  0
  5 17  1  0  0  0  0
  6 19  1  0  0  0  0
  7 10  2  0  0  0  0
  7 18  1  0  0  0  0
  8 23  1  0  0  0  0
  9 23  2  0  0  0  0
 10 24  1  0  0  0  0
 11 12  2  0  0  0  0
 11 25  1  0  0  0  0
 12 26  1  0  0  0  0
 13 20  1  0  0  0  0
 13 24  2  0  0  0  0
 14 26  2  0  0  0  0
 14 27  1  0  0  0  0
 15 28  1  0  0  0  0
 16 28  1  0  0  0  0
 16 31  2  0  0  0  0
 16 32  1  0  0  0  0
 17 19  2  0  0  0  0
 17 37  1  0  0  0  0
 18 20  2  0  0  0  0
 18 38  1  0  0  0  0
 19 46  1  0  0  0  0
 20 39  1  0  0  0  0
 21 22  2  0  0  0  0
 21 29  1  0  0  0  0
 21 49  1  0  0  0  0
 22 30  1  0  0  0  0
 22 59  1  0  0  0  0
 23 87  1  0  0  0  0
 24 88  1  0  0  0  0
 25 27  2  0  0  0  0
 25 87  1  0  0  0  0
 26 89  1  0  0  0  0
 27 90  1  0  0  0  0
 28 68  2  0  0  0  0
 29 66  1  0  0  0  0
 29 69  2  0  0  0  0
 30 62  1  0  0  0  0
 30 70  2  0  0  0  0
 31 71  1  0  0  0  0
 31 74  1  0  0  0  0
 32 75  1  0  0  0  0
 32 82  2  0  0  0  0
 33 47  1  0  0  0  0
 33 77  1  0  0  0  0
 33 83  2  0  0  0  0
 34 63  1  0  0  0  0
 34 72  1  0  0  0  0
 34 84  2  0  0  0  0
 35 64  1  0  0  0  0
 35 78  1  0  0  0  0
 35 85  2  0  0  0  0
 36 73  1  0  0  0  0
 36 79  1  0  0  0  0
 36 86  2  0  0  0  0
 37 40  1  0  0  0  0
 38 47  1  0  0  0  0
 39 72  1  0  0  0  0
 40 42  1  0  0  0  0
 41 43  1  0  0  0  0
 41 44  1  0  0  0  0
 42 46  1  0  0  0  0
 43 48  1  0  0  0  0
 44 73  1  0  0  0  0
 45 48  1  0  0  0  0
 45 73  1  0  0  0  0
 46 77  1  0  0  0  0
 47 72  1  0  0  0  0
 48 71  1  0  0  0  0
 50 62  1  0  0  0  0
 51 62  1  0  0  0  0
 52 64  1  0  0  0  0
 53 66  1  0  0  0  0
 54 66  1  0  0  0  0
 55 67  1  0  0  0  0
 56 67  1  0  0  0  0
 57 67  1  0  0  0  0
 58 80  1  0  0  0  0
 59 88  1  0  0  0  0
 60 65  1  0  0  0  0
 60 79  1  0  0  0  0
 61 65  1  0  0  0  0
 61 81  1  0  0  0  0
 63 67  1  0  0  0  0
 63 78  1  0  0  0  0
 64 80  1  0  0  0  0
 65 76  1  0  0  0  0
 66 81  1  0  0  0  0
 68 71  1  0  0  0  0
 69 70  1  0  0  0  0
M  CHG  2  80   1  81   1
M  ISO  4  36 100  59 101  79 100  88 101
M  END
> <Batch ID>
0095

> <Smiles>
CNC(C)C(=O)NC(C(=O)N1Cc2cc([101O:1][101CH2:1]c3c(C(C)C)nnc(C(C)(C)NCC(N)C[100NH:0][100C:0](=O)N4CCCC(n5nc(-c6ccc(Oc7ccc(F)cc7F)cc6)c(C(N)=O)c5N)C4)c3C)ccc2CC1C(=O)NC1CCCc2ccccc21)C(C)(C)C

> <Shape>
0.261

> <Color>
0.190

> <Negative vol penalty>
0.000

$$$$

  -OEChem-04052319213D

 80 87  0     1  0  0  0  0  0999 V2000
  -27.9631  -24.6739   16.6353 C   0  0  0  0  0  0  0  0  0  0  0  0
  -26.7811  -24.8851   17.3379 C   0  0  0  0  0  0  0  0  0  0  0  0
  -26.0361  -18.3616   22.7082 C   0  0  0  0  0  0  0  0  0  0  0  0
  -24.7586  -17.0838   21.1044 C   0  0  0  0  0  0  0  0  0  0  0  0
  -29.1702  -25.1506   17.1448 C   0  0  0  0  0  0  0  0  0  0  0  0
  -26.8057  -25.5723   18.5510 C   0  0  0  0  0  0  0  0  0  0  0  0
  -23.1037  -29.0088   18.9125 C   0  0  0  0  0  0  0  0  0  0  0  0
  -27.0735  -17.4333   22.6215 C   0  0  0  0  0  0  0  0  0  0  0  0
  -25.7961  -16.1555   21.0176 C   0  0  0  0  0  0  0  0  0  0  0  0
  -21.8259  -28.5390   19.2127 C   0  0  0  0  0  0  0  0  0  0  0  0
  -28.7998  -15.9153   19.4878 C   0  0  0  0  0  0  0  0  0  0  0  0
  -29.1766  -15.4838   18.2160 C   0  0  0  0  0  0  0  0  0  0  0  0
  -22.1394  -29.1772   21.5178 C   0  0  0  0  0  0  0  0  0  0  0  0
  -28.6340  -13.2101   18.8268 C   0  0  0  0  0  0  0  0  0  0  0  0
  -24.8786  -18.1868   21.9497 C   0  0  0  0  0  0  0  0  0  0  0  0
  -23.6324  -20.3019   21.2561 C   0  0  0  0  0  0  0  0  0  0  0  0
  -29.2083  -25.8524   18.3600 C   0  0  0  0  0  0  0  0  0  0  0  0
  -23.9146  -29.5574   19.9165 C   0  0  0  0  0  0  0  0  0  0  0  0
  -28.0146  -26.0576   19.0779 C   0  0  0  0  0  0  0  0  0  0  0  0
  -23.4262  -29.6557   21.2272 C   0  0  0  0  0  0  0  0  0  0  0  0
  -26.9536  -16.3302   21.7761 C   0  0  0  0  0  0  0  0  0  0  0  0
  -21.3447  -28.6205   20.5161 C   0  0  0  0  0  0  0  0  0  0  0  0
  -28.3402  -14.9942   20.4291 C   0  0  0  0  0  0  0  0  0  0  0  0
  -29.0936  -14.1312   17.8855 C   0  0  0  0  0  0  0  0  0  0  0  0
  -28.2572  -13.6416   20.0986 C   0  0  0  0  0  0  0  0  0  0  0  0
  -23.8063  -19.1451   22.0393 C   0  0  0  0  0  0  0  0  0  0  0  0
  -22.4728  -20.8657   21.7293 C   0  0  0  0  0  0  0  0  0  0  0  0
  -24.4461  -20.8203   20.1956 C   0  0  0  0  0  0  0  0  0  0  0  0
  -26.7277  -28.8030   21.1897 C   0  0  0  0  0  0  0  0  0  0  0  0
  -17.1632  -20.2939   23.3939 C   0  0  0  0  0  0  0  0  0  0  0  0
  -26.3323  -31.6141   22.7594 C   0  0  0  0  0  0  0  0  0  0  0  0
  -24.1937  -33.9970   23.9404 C   0  0  0  0  0  0  0  0  0  0  0  0
  -30.5434  -26.3074   18.8941 C   0  0  0  0  0  0  0  0  0  0  0  0
  -25.2804  -30.0841   19.5710 C   0  0  0  0  0  0  0  0  0  0  0  0
  -24.2493  -30.2545   22.3373 C   0  0  0  0  0  0  0  0  0  0  0  0
  -30.4324  -27.3523   20.0014 C   0  0  0  0  0  0  0  0  0  0  0  0
  -19.7355  -19.8243   25.8440 C   0  0  0  0  0  0  0  0  0  0  0  0
  -29.3847  -26.9332   21.0278 C   0  0  0  0  0  0  0  0  0  0  0  0
  -21.0047  -19.6705   25.0070 C   0  0  0  0  0  0  0  0  0  0  0  0
  -18.5280  -19.2065   25.1458 C   0  0  0  0  0  0  0  0  0  0  0  0
  -19.5588  -19.5764   22.9272 C   0  0  0  0  0  0  0  0  0  0  0  0
  -27.9971  -26.8201   20.3850 C   0  0  1  0  0  0  0  0  0  0  0  0
  -26.2160  -30.1533   20.7740 C   0  0  1  0  0  0  0  0  0  0  0  0
  -20.7966  -20.2143   23.5824 C   0  0  2  0  0  0  0  0  0  0  0  0
  -16.6546  -19.6759   21.0673 C   0  0  0  0  0  0  0  0  0  0  0  0
  -24.1624  -36.1582   25.2153 C   0  0  0  0  0  0  0  0  0  0  0  0
  -19.0483  -24.3736   24.2693 C   0  0  0  0  0  0  0  0  0  0  0  0
  -26.8024  -30.0853   25.3579 C   0  0  0  0  0  0  0  0  0  0  0  0
  -25.8370  -32.0344   26.5978 C   0  0  0  0  0  0  0  0  0  0  0  0
  -27.9149  -32.3224   25.2478 C   0  0  0  0  0  0  0  0  0  0  0  0
  -22.9980  -35.4583   21.6614 C   0  0  0  0  0  0  0  0  0  0  0  0
  -18.6411  -26.2329   20.8552 C   0  0  0  0  0  0  0  0  0  0  0  0
  -19.3149  -25.6562   22.1073 C   0  0  0  0  0  0  0  0  0  0  0  0
  -16.1004  -21.9885   21.9042 C   0  0  0  0  0  0  0  0  0  0  0  0
  -16.5393  -23.1662   22.7676 C   0  0  0  0  0  0  0  0  0  0  0  0
  -19.6004  -27.0799   20.0261 C   0  0  0  0  0  0  0  0  0  1  0  0
  -17.0861  -20.8171   21.9817 C   0  0  1  0  0  0  0  0  0  0  0  0
  -25.6994  -32.0293   24.0656 C   0  0  1  0  0  0  0  0  0  0  0  0
  -24.2184  -35.5115   23.8401 C   0  0  2  0  0  0  0  0  0  0  0  0
  -18.3569  -24.8631   23.0036 C   0  0  1  0  0  0  0  0  0  0  0  0
  -26.5484  -31.6047   25.2969 C   0  0  0  0  0  0  0  0  0  0  0  0
  -22.8351  -18.9826   22.9417 N   0  0  0  0  0  0  0  0  0  0  0  0
  -22.0397  -20.0446   22.7285 N   0  0  0  0  0  0  0  0  0  0  0  0
  -25.5807  -30.7499   21.9506 N   0  0  0  0  0  0  0  0  0  0  0  0
  -18.3778  -19.7321   23.7877 N   0  0  0  0  0  0  0  0  0  0  0  0
  -21.7915  -21.9789   21.3840 N   0  0  0  0  0  0  0  0  0  0  0  0
  -25.6033  -20.1161   19.8360 N   0  0  0  0  0  0  0  0  0  0  0  0
  -27.4182  -28.1332   20.1977 N   0  0  0  0  0  0  0  0  0  0  0  0
  -25.4659  -33.4661   23.9674 N   0  0  0  0  0  0  0  0  0  0  0  0
  -23.0553  -35.9970   23.0447 N   0  3  0  0  0  0  0  0  0  0  0  0
  -17.8452  -23.6716   22.2706 N   0  3  0  0  0  0  0  0  0  0  0  0
  -24.1645  -21.8855   19.5959 O   0  0  0  0  0  0  0  0  0  0  0  0
  -26.5132  -28.3995   22.3267 O   0  0  0  0  0  0  0  0  0  0  0  0
  -16.1733  -20.3854   24.1247 O   0  0  0  0  0  0  0  0  0  0  0  0
  -27.4493  -32.0463   22.4643 O   0  0  0  0  0  0  0  0  0  0  0  0
  -23.1501  -33.3499   23.9936 O   0  0  0  0  0  0  0  0  0  0  0  0
  -27.9658  -15.4243   21.6910 O   0  0  0  0  0  0  0  0  0  0  0  0
  -20.0980  -28.1621   20.8121 O   0  0  0  0  0  0  0  0  0  1  0  0
  -29.4540  -13.7171   16.6637 F   0  0  0  0  0  0  0  0  0  0  0  0
  -27.8153  -12.7522   20.9983 F   0  0  0  0  0  0  0  0  0  0  0  0
  1  2  1  0  0  0  0
  1  5  2  0  0  0  0
  2  6  2  0  0  0  0
  3  8  2  0  0  0  0
  3 15  1  0  0  0  0
  4  9  1  0  0  0  0
  4 15  2  0  0  0  0
  5 17  1  0  0  0  0
  6 19  1  0  0  0  0
  7 10  2  0  0  0  0
  7 18  1  0  0  0  0
  8 21  1  0  0  0  0
  9 21  2  0  0  0  0
 10 22  1  0  0  0  0
 11 12  2  0  0  0  0
 11 23  1  0  0  0  0
 12 24  1  0  0  0  0
 13 20  1  0  0  0  0
 13 22  2  0  0  0  0
 14 24  2  0  0  0  0
 14 25  1  0  0  0  0
 15 26  1  0  0  0  0
 16 26  1  0  0  0  0
 16 27  2  0  0  0  0
 16 28  1  0  0  0  0
 17 19  2  0  0  0  0
 17 33  1  0  0  0  0
 18 20  2  0  0  0  0
 18 34  1  0  0  0  0
 19 42  1  0  0  0  0
 20 35  1  0  0  0  0
 21 77  1  0  0  0  0
 22 78  1  0  0  0  0
 23 25  2  0  0  0  0
 23 77  1  0  0  0  0
 24 79  1  0  0  0  0
 25 80  1  0  0  0  0
 26 62  2  0  0  0  0
 27 63  1  0  0  0  0
 27 66  1  0  0  0  0
 28 67  1  0  0  0  0
 28 72  2  0  0  0  0
 29 43  1  0  0  0  0
 29 68  1  0  0  0  0
 29 73  2  0  0  0  0
 30 57  1  0  0  0  0
 30 65  1  0  0  0  0
 30 74  2  0  0  0  0
 31 58  1  0  0  0  0
 31 64  1  0  0  0  0
 31 75  2  0  0  0  0
 32 59  1  0  0  0  0
 32 69  1  0  0  0  0
 32 76  2  0  0  0  0
 33 36  1  0  0  0  0
 34 43  1  0  0  0  0
 35 64  1  0  0  0  0
 36 38  1  0  0  0  0
 37 39  1  0  0  0  0
 37 40  1  0  0  0  0
 38 42  1  0  0  0  0
 39 44  1  0  0  0  0
 40 65  1  0  0  0  0
 41 44  1  0  0  0  0
 41 65  1  0  0  0  0
 42 68  1  0  0  0  0
 43 64  1  0  0  0  0
 44 63  1  0  0  0  0
 45 57  1  0  0  0  0
 46 59  1  0  0  0  0
 47 60  1  0  0  0  0
 48 61  1  0  0  0  0
 49 61  1  0  0  0  0
 50 61  1  0  0  0  0
 51 70  1  0  0  0  0
 52 53  1  0  0  0  0
 52 56  1  0  0  0  0
 53 60  1  0  0  0  0
 54 55  1  0  0  0  0
 54 57  1  0  0  0  0
 55 71  1  0  0  0  0
 56 78  1  0  0  0  0
 58 61  1  0  0  0  0
 58 69  1  0  0  0  0
 59 70  1  0  0  0  0
 60 71  1  0  0  0  0
 62 63  1  0  0  0  0
M  CHG  2  70   1  71   1
M  ISO  4  30 100  56 101  57 100  78 101
M  END
> <Batch ID>
0095

> <Smiles>
CNC(C)C(=O)NC(C(=O)N1Cc2cc([101O:1][101CH2:1]CCC(C)NCC[100CH:0](C)[100C:0](=O)N3CCCC(n4nc(-c5ccc(Oc6ccc(F)cc6F)cc5)c(C(N)=O)c4N)C3)ccc2CC1C(=O)NC1CCCc2ccccc21)C(C)(C)C

> <Shape>
0.233

> <Color>
0.056

> <Negative vol penalty>
0.000

$$$$

  -OEChem-04052319213D

 85 93  0     1  0  0  0  0  0999 V2000
  -31.3782  -23.7154   17.1500 C   0  0  0  0  0  0  0  0  0  0  0  0
  -30.1241  -23.5835   17.7376 C   0  0  0  0  0  0  0  0  0  0  0  0
  -26.6431  -12.5626   21.8561 C   0  0  0  0  0  0  0  0  0  0  0  0
  -25.7940  -14.1838   20.2789 C   0  0  0  0  0  0  0  0  0  0  0  0
  -32.2854  -24.6498   17.6480 C   0  0  0  0  0  0  0  0  0  0  0  0
  -29.7768  -24.3852   18.8244 C   0  0  0  0  0  0  0  0  0  0  0  0
  -25.1096  -26.3059   18.4086 C   0  0  0  0  0  0  0  0  0  0  0  0
  -25.3965  -11.9376   21.8849 C   0  0  0  0  0  0  0  0  0  0  0  0
  -24.5473  -13.5587   20.3076 C   0  0  0  0  0  0  0  0  0  0  0  0
  -24.0433  -25.4573   18.7031 C   0  0  0  0  0  0  0  0  0  0  0  0
  -23.6376   -9.7975   19.9460 C   0  0  0  0  0  0  0  0  0  0  0  0
  -23.6085   -8.4053   19.8661 C   0  0  0  0  0  0  0  0  0  0  0  0
  -23.8600  -26.4568   20.8909 C   0  0  0  0  0  0  0  0  0  0  0  0
  -22.5102   -8.3049   22.0156 C   0  0  0  0  0  0  0  0  0  0  0  0
  -25.9591  -22.6448   20.9725 C   0  0  0  0  0  0  0  0  0  0  0  0
  -26.8419  -13.6858   21.0532 C   0  0  0  0  0  0  0  0  0  0  0  0
  -29.2020  -14.0508   20.1564 C   0  0  0  0  0  0  0  0  0  0  0  0
  -31.9454  -25.4700   18.7353 C   0  0  0  0  0  0  0  0  0  0  0  0
  -25.5669  -27.2304   19.3587 C   0  0  0  0  0  0  0  0  0  0  0  0
  -30.6808  -25.3305   19.3383 C   0  0  0  0  0  0  0  0  0  0  0  0
  -24.9306  -27.3177   20.6051 C   0  0  0  0  0  0  0  0  0  0  0  0
  -24.8892  -21.7837   20.9885 C   0  0  0  0  0  0  0  0  0  0  0  0
  -24.3486  -12.4356   21.1106 C   0  0  0  0  0  0  0  0  0  0  0  0
  -23.4202  -25.5307   19.9454 C   0  0  0  0  0  0  0  0  0  0  0  0
  -23.1031  -10.4435   21.0607 C   0  0  0  0  0  0  0  0  0  0  0  0
  -23.0448   -7.6590   20.9009 C   0  0  0  0  0  0  0  0  0  0  0  0
  -22.5394   -9.6972   22.0955 C   0  0  0  0  0  0  0  0  0  0  0  0
  -28.1292  -14.3322   21.0235 C   0  0  0  0  0  0  0  0  0  0  0  0
  -25.2126  -20.8391   21.9809 C   0  0  0  0  0  0  0  0  0  0  0  0
  -30.1865  -14.9322   20.5310 C   0  0  0  0  0  0  0  0  0  0  0  0
  -29.2998  -13.0796   19.1062 C   0  0  0  0  0  0  0  0  0  0  0  0
  -28.3071  -27.6910   20.9024 C   0  0  0  0  0  0  0  0  0  0  0  0
  -26.8039  -30.3576   21.9756 C   0  0  0  0  0  0  0  0  0  0  0  0
  -23.8631  -31.9610   22.6297 C   0  0  0  0  0  0  0  0  0  0  0  0
  -30.0655  -20.2675   23.2459 C   0  0  0  0  0  0  0  0  0  0  0  0
  -32.9767  -26.4327   19.2687 C   0  0  0  0  0  0  0  0  0  0  0  0
  -26.7010  -28.1570   19.0158 C   0  0  0  0  0  0  0  0  0  0  0  0
  -25.3703  -28.3069   21.6524 C   0  0  0  0  0  0  0  0  0  0  0  0
  -32.3928  -27.5043   20.1858 C   0  0  0  0  0  0  0  0  0  0  0  0
  -31.7980  -17.3523   24.3306 C   0  0  0  0  0  0  0  0  0  0  0  0
  -31.4426  -26.8778   21.2014 C   0  0  0  0  0  0  0  0  0  0  0  0
  -31.1510  -16.2223   23.5278 C   0  0  0  0  0  0  0  0  0  0  0  0
  -30.7782  -18.4165   24.7299 C   0  0  0  0  0  0  0  0  0  0  0  0
  -29.3450  -17.8412   22.8093 C   0  0  0  0  0  0  0  0  0  0  0  0
  -30.2580  -26.1992   20.5030 C   0  0  1  0  0  0  0  0  0  0  0  0
  -27.4159  -28.7072   20.2461 C   0  0  1  0  0  0  0  0  0  0  0  0
  -30.3444  -16.7719   22.3359 C   0  0  2  0  0  0  0  0  0  0  0  0
  -23.9908  -19.7637   23.9056 C   0  0  0  0  0  0  0  0  0  0  0  0
  -25.1209  -18.3271   22.1696 C   0  0  0  0  0  0  0  0  0  0  0  0
  -22.9543  -34.1165   23.5380 C   0  0  0  0  0  0  0  0  0  0  0  0
  -21.4780  -24.1519   22.3905 C   0  0  0  0  0  0  0  0  0  0  0  0
  -27.4723  -29.4428   24.8086 C   0  0  0  0  0  0  0  0  0  0  0  0
  -25.7679  -31.0668   25.6605 C   0  0  0  0  0  0  0  0  0  0  0  0
  -27.7606  -31.8946   24.4088 C   0  0  0  0  0  0  0  0  0  0  0  0
  -22.5045  -32.5978   20.0786 C   0  0  0  0  0  0  0  0  0  0  0  0
  -23.6515  -21.8472   20.1297 C   0  0  0  0  0  0  0  0  0  0  0  0
  -22.4119  -22.3732   20.8679 C   0  0  0  0  0  0  0  0  0  0  0  0
  -28.0998  -22.7597   22.2701 C   0  0  0  0  0  0  0  0  0  0  0  0
  -29.2824  -22.0102   21.6619 C   0  0  0  0  0  0  0  0  0  0  0  0
  -24.4144  -19.6809   22.4197 C   0  0  0  0  0  0  0  0  0  0  0  0
  -25.9251  -30.6869   23.1581 C   0  0  1  0  0  0  0  0  0  0  0  0
  -23.3812  -33.3598   22.2899 C   0  0  2  0  0  0  0  0  0  0  0  0
  -22.5397  -23.8241   21.3483 C   0  0  1  0  0  0  0  0  0  1  0  0
  -26.7242  -30.7527   24.4902 C   0  0  0  0  0  0  0  0  0  0  0  0
  -28.4061  -15.3154   21.8841 N   0  0  0  0  0  0  0  0  0  0  0  0
  -26.3955  -21.0773   22.5537 N   0  0  0  0  0  0  0  0  0  0  0  0
  -26.8248  -22.1814   21.9191 N   0  0  0  0  0  0  0  0  0  0  0  0
  -29.6641  -15.6594   21.5598 N   0  0  0  0  0  0  0  0  0  0  0  0
  -26.4875  -29.1869   21.2719 N   0  0  0  0  0  0  0  0  0  0  0  0
  -30.0486  -18.8972   23.5541 N   0  0  0  0  0  0  0  0  0  0  0  0
  -31.4395  -15.1483   20.0775 N   0  0  0  0  0  0  0  0  0  0  0  0
  -28.1951  -12.2546   18.8542 N   0  0  0  0  0  0  0  0  0  0  0  0
  -29.2911  -27.1868   20.0737 N   0  0  0  0  0  0  0  0  0  0  0  0
  -25.2286  -31.9227   22.8175 N   0  0  0  0  0  0  0  0  0  0  0  0
  -29.3537  -20.6377   22.1114 N   0  0  0  0  0  0  0  0  0  0  0  0
  -22.2193  -33.2955   21.3588 N   0  3  0  0  0  0  0  0  0  0  0  0
  -30.3418  -12.9361   18.4228 O   0  0  0  0  0  0  0  0  0  0  0  0
  -28.1169  -27.3878   22.0745 O   0  0  0  0  0  0  0  0  0  0  0  0
  -27.7323  -31.1152   21.6825 O   0  0  0  0  0  0  0  0  0  0  0  0
  -23.1036  -30.9992   22.7231 O   0  0  0  0  0  0  0  0  0  0  0  0
  -30.6745  -21.0987   23.9280 O   0  0  0  0  0  0  0  0  0  0  0  0
  -23.1321  -11.8258   21.1382 O   0  0  0  0  0  0  0  0  0  0  0  0
  -22.3796  -24.7032   20.2357 O   0  0  0  0  0  0  0  0  0  1  0  0
  -23.0155   -6.3221   20.8233 F   0  0  0  0  0  0  0  0  0  0  0  0
  -22.0232  -10.3122   23.1685 F   0  0  0  0  0  0  0  0  0  0  0  0
  1  2  1  0  0  0  0
  1  5  2  0  0  0  0
  2  6  2  0  0  0  0
  3  8  2  0  0  0  0
  3 16  1  0  0  0  0
  4  9  1  0  0  0  0
  4 16  2  0  0  0  0
  5 18  1  0  0  0  0
  6 20  1  0  0  0  0
  7 10  2  0  0  0  0
  7 19  1  0  0  0  0
  8 23  1  0  0  0  0
  9 23  2  0  0  0  0
 10 24  1  0  0  0  0
 11 12  2  0  0  0  0
 11 25  1  0  0  0  0
 12 26  1  0  0  0  0
 13 21  1  0  0  0  0
 13 24  2  0  0  0  0
 14 26  2  0  0  0  0
 14 27  1  0  0  0  0
 15 22  2  0  0  0  0
 15 67  1  0  0  0  0
 16 28  1  0  0  0  0
 17 28  1  0  0  0  0
 17 30  2  0  0  0  0
 17 31  1  0  0  0  0
 18 20  2  0  0  0  0
 18 36  1  0  0  0  0
 19 21  2  0  0  0  0
 19 37  1  0  0  0  0
 20 45  1  0  0  0  0
 21 38  1  0  0  0  0
 22 29  1  0  0  0  0
 22 56  1  0  0  0  0
 23 82  1  0  0  0  0
 24 83  1  0  0  0  0
 25 27  2  0  0  0  0
 25 82  1  0  0  0  0
 26 84  1  0  0  0  0
 27 85  1  0  0  0  0
 28 65  2  0  0  0  0
 29 60  1  0  0  0  0
 29 66  2  0  0  0  0
 30 68  1  0  0  0  0
 30 71  1  0  0  0  0
 31 72  1  0  0  0  0
 31 77  2  0  0  0  0
 32 46  1  0  0  0  0
 32 73  1  0  0  0  0
 32 78  2  0  0  0  0
 33 61  1  0  0  0  0
 33 69  1  0  0  0  0
 33 79  2  0  0  0  0
 34 62  1  0  0  0  0
 34 74  1  0  0  0  0
 34 80  2  0  0  0  0
 35 70  1  0  0  0  0
 35 75  1  0  0  0  0
 35 81  2  0  0  0  0
 36 39  1  0  0  0  0
 37 46  1  0  0  0  0
 38 69  1  0  0  0  0
 39 41  1  0  0  0  0
 40 42  1  0  0  0  0
 40 43  1  0  0  0  0
 41 45  1  0  0  0  0
 42 47  1  0  0  0  0
 43 70  1  0  0  0  0
 44 47  1  0  0  0  0
 44 70  1  0  0  0  0
 45 73  1  0  0  0  0
 46 69  1  0  0  0  0
 47 68  1  0  0  0  0
 48 60  1  0  0  0  0
 49 60  1  0  0  0  0
 50 62  1  0  0  0  0
 51 63  1  0  0  0  0
 52 64  1  0  0  0  0
 53 64  1  0  0  0  0
 54 64  1  0  0  0  0
 55 76  1  0  0  0  0
 56 57  1  0  0  0  0
 57 63  1  0  0  0  0
 58 59  1  0  0  0  0
 58 67  1  0  0  0  0
 59 75  1  0  0  0  0
 61 64  1  0  0  0  0
 61 74  1  0  0  0  0
 62 76  1  0  0  0  0
 63 83  1  0  0  0  0
 65 68  1  0  0  0  0
 66 67  1  0  0  0  0
M  CHG  1  76   1
M  ISO  4  35 100  63 101  75 100  83 101
M  END
> <Batch ID>
0095

> <Smiles>
CNC(C)C(=O)NC(C(=O)N1Cc2cc([101O:1][101CH:1](C)CCc3cn(CC[100NH:0][100C:0](=O)N4CCCC(n5nc(-c6ccc(Oc7ccc(F)cc7F)cc6)c(C(N)=O)c5N)C4)nc3C(C)C)ccc2CC1C(=O)NC1CCCc2ccccc21)C(C)(C)C

> <Shape>
0.291

> <Color>
0.072

> <Negative vol penalty>
0.000

$$$$

  -OEChem-04052319213D

 81 88  0     1  0  0  0  0  0999 V2000
  -25.6427  -10.9140   20.7688 C   0  0  0  0  0  0  0  0  0  0  0  0
  -26.6654  -11.7733   20.3801 C   0  0  0  0  0  0  0  0  0  0  0  0
  -22.8799  -25.6253   21.9740 C   0  0  0  0  0  0  0  0  0  0  0  0
  -23.2290  -27.6615   23.2267 C   0  0  0  0  0  0  0  0  0  0  0  0
  -24.3353  -11.3880   20.8675 C   0  0  0  0  0  0  0  0  0  0  0  0
  -26.3810  -13.1070   20.0889 C   0  0  0  0  0  0  0  0  0  0  0  0
  -29.2691  -19.6496   20.4996 C   0  0  0  0  0  0  0  0  0  0  0  0
  -21.5247  -25.6554   22.3027 C   0  0  0  0  0  0  0  0  0  0  0  0
  -21.8738  -27.6916   23.5554 C   0  0  0  0  0  0  0  0  0  0  0  0
  -29.5294  -20.7640   19.7032 C   0  0  0  0  0  0  0  0  0  0  0  0
  -18.9708  -28.5754   22.0682 C   0  0  0  0  0  0  0  0  0  0  0  0
  -18.3048  -29.7957   21.9544 C   0  0  0  0  0  0  0  0  0  0  0  0
  -27.2466  -21.4910   19.9849 C   0  0  0  0  0  0  0  0  0  0  0  0
  -17.7716  -29.7243   24.3098 C   0  0  0  0  0  0  0  0  0  0  0  0
  -23.7321  -26.6283   22.4360 C   0  0  0  0  0  0  0  0  0  0  0  0
  -25.7484  -27.1826   20.9748 C   0  0  0  0  0  0  0  0  0  0  0  0
  -24.0362  -12.7305   20.5867 C   0  0  0  0  0  0  0  0  0  0  0  0
  -27.9905  -19.4415   21.0365 C   0  0  0  0  0  0  0  0  0  0  0  0
  -25.0680  -13.5991   20.1827 C   0  0  0  0  0  0  0  0  0  0  0  0
  -26.9733  -20.3746   20.7899 C   0  0  0  0  0  0  0  0  0  0  0  0
  -21.0216  -26.6885   23.0934 C   0  0  0  0  0  0  0  0  0  0  0  0
  -28.5173  -21.6834   19.4434 C   0  0  0  0  0  0  0  0  0  0  0  0
  -19.0370  -27.9295   23.3027 C   0  0  0  0  0  0  0  0  0  0  0  0
  -17.7053  -30.3702   23.0752 C   0  0  0  0  0  0  0  0  0  0  0  0
  -18.4375  -28.5039   24.4235 C   0  0  0  0  0  0  0  0  0  0  0  0
  -25.1323  -26.5975   22.0972 C   0  0  0  0  0  0  0  0  0  0  0  0
  -27.0790  -26.8710   21.1122 C   0  0  0  0  0  0  0  0  0  0  0  0
  -25.1697  -27.9401   19.9039 C   0  0  0  0  0  0  0  0  0  0  0  0
  -25.7736  -17.1829   20.7403 C   0  0  0  0  0  0  0  0  0  0  0  0
  -33.5760  -27.3559   19.4917 C   0  0  0  0  0  0  0  0  0  0  0  0
  -24.2859  -18.8845   23.0671 C   0  0  0  0  0  0  0  0  0  0  0  0
  -23.8698  -21.8790   24.6503 C   0  0  0  0  0  0  0  0  0  0  0  0
  -31.6722  -26.4157   24.2492 C   0  0  0  0  0  0  0  0  0  0  0  0
  -22.6002  -13.1854   20.6617 C   0  0  0  0  0  0  0  0  0  0  0  0
  -27.7330  -18.2485   21.9156 C   0  0  0  0  0  0  0  0  0  0  0  0
  -25.5890  -20.2077   21.3593 C   0  0  0  0  0  0  0  0  0  0  0  0
  -22.4432  -14.7033   20.6981 C   0  0  0  0  0  0  0  0  0  0  0  0
  -29.4026  -23.6725   24.2677 C   0  0  0  0  0  0  0  0  0  0  0  0
  -23.3197  -15.3563   19.6341 C   0  0  0  0  0  0  0  0  0  0  0  0
  -28.1388  -24.2389   23.6181 C   0  0  0  0  0  0  0  0  0  0  0  0
  -30.1061  -24.7134   25.1357 C   0  0  0  0  0  0  0  0  0  0  0  0
  -29.1464  -26.5517   23.8041 C   0  0  0  0  0  0  0  0  0  0  0  0
  -24.8033  -15.0585   19.8825 C   0  0  1  0  0  0  0  0  0  0  0  0
  -26.2578  -17.8667   21.9876 C   0  0  1  0  0  0  0  0  0  0  0  0
  -28.4326  -25.5556   22.8742 C   0  0  2  0  0  0  0  0  0  0  0  0
  -23.0350  -23.5102   26.3648 C   0  0  0  0  0  0  0  0  0  0  0  0
  -21.8297  -18.9717   21.2589 C   0  0  0  0  0  0  0  0  0  0  0  0
  -20.9305  -20.8214   22.6867 C   0  0  0  0  0  0  0  0  0  0  0  0
  -21.3318  -18.5669   23.6761 C   0  0  0  0  0  0  0  0  0  0  0  0
  -26.1251  -21.2932   26.4750 C   0  0  0  0  0  0  0  0  0  0  0  0
  -32.7691  -27.5688   18.2190 C   0  0  0  0  0  0  0  0  0  0  0  0
  -32.9458  -27.8961   20.7673 C   0  0  0  0  0  0  0  0  0  0  0  0
  -31.3819  -26.9292   18.2546 C   0  0  0  0  0  0  0  0  0  0  0  0
  -33.7816  -27.6462   22.0208 C   0  0  0  0  0  0  0  0  0  0  0  0
  -31.4443  -25.4109   18.4471 C   0  0  0  0  0  0  0  0  0  0  0  0
  -30.0464  -24.7953   18.4505 C   0  0  0  0  0  0  0  0  0  0  0  0
  -33.1149  -28.1884   23.2820 C   0  0  0  0  0  0  0  0  0  0  0  0
  -30.0956  -23.2918   18.6829 C   0  0  0  0  0  0  0  0  0  1  0  0
  -23.3067  -20.0332   23.0914 C   0  0  1  0  0  0  0  0  0  0  0  0
  -23.8424  -22.2443   26.1235 C   0  0  2  0  0  0  0  0  0  0  0  0
  -21.8751  -19.6007   22.6658 C   0  0  0  0  0  0  0  0  0  0  0  0
  -26.0001  -25.9621   22.8892 N   0  0  0  0  0  0  0  0  0  0  0  0
  -27.1752  -26.1461   22.2635 N   0  0  0  0  0  0  0  0  0  0  0  0
  -25.3851  -19.0218   22.2076 N   0  0  0  0  0  0  0  0  0  0  0  0
  -30.3572  -25.9371   24.3705 N   0  0  0  0  0  0  0  0  0  0  0  0
  -28.1644  -27.1489   20.3592 N   0  0  0  0  0  0  0  0  0  0  0  0
  -23.7869  -28.1678   19.9177 N   0  0  0  0  0  0  0  0  0  0  0  0
  -25.3157  -15.8955   20.9461 N   0  0  0  0  0  0  0  0  0  0  0  0
  -23.3842  -20.6074   24.4303 N   0  0  0  0  0  0  0  0  0  0  0  0
  -31.8229  -27.5775   23.5020 N   0  0  0  0  0  0  0  0  0  0  0  0
  -25.2270  -22.4667   26.6278 N   0  3  0  0  0  0  0  0  0  0  0  0
  -25.8561  -28.3874   18.9540 O   0  0  0  0  0  0  0  0  0  0  0  0
  -25.8113  -17.7798   19.6707 O   0  0  0  0  0  0  0  0  0  0  0  0
  -34.6910  -26.8367   19.4809 O   0  0  0  0  0  0  0  0  0  0  0  0
  -24.0867  -17.9047   23.7896 O   0  0  0  0  0  0  0  0  0  0  0  0
  -24.2776  -22.6465   23.7812 O   0  0  0  0  0  0  0  0  0  0  0  0
  -32.6409  -25.8467   24.7637 O   0  0  0  0  0  0  0  0  0  0  0  0
  -19.6992  -26.7184   23.4142 O   0  0  0  0  0  0  0  0  0  0  0  0
  -28.7704  -22.7796   18.6601 O   0  0  0  0  0  0  0  0  0  1  0  0
  -17.0672  -31.5428   22.9662 F   0  0  0  0  0  0  0  0  0  0  0  0
  -18.4989  -27.8887   25.6124 F   0  0  0  0  0  0  0  0  0  0  0  0
  1  2  1  0  0  0  0
  1  5  2  0  0  0  0
  2  6  2  0  0  0  0
  3  8  2  0  0  0  0
  3 15  1  0  0  0  0
  4  9  1  0  0  0  0
  4 15  2  0  0  0  0
  5 17  1  0  0  0  0
  6 19  1  0  0  0  0
  7 10  2  0  0  0  0
  7 18  1  0  0  0  0
  8 21  1  0  0  0  0
  9 21  2  0  0  0  0
 10 22  1  0  0  0  0
 11 12  2  0  0  0  0
 11 23  1  0  0  0  0
 12 24  1  0  0  0  0
 13 20  1  0  0  0  0
 13 22  2  0  0  0  0
 14 24  2  0  0  0  0
 14 25  1  0  0  0  0
 15 26  1  0  0  0  0
 16 26  1  0  0  0  0
 16 27  2  0  0  0  0
 16 28  1  0  0  0  0
 17 19  2  0  0  0  0
 17 34  1  0  0  0  0
 18 20  2  0  0  0  0
 18 35  1  0  0  0  0
 19 43  1  0  0  0  0
 20 36  1  0  0  0  0
 21 78  1  0  0  0  0
 22 79  1  0  0  0  0
 23 25  2  0  0  0  0
 23 78  1  0  0  0  0
 24 80  1  0  0  0  0
 25 81  1  0  0  0  0
 26 62  2  0  0  0  0
 27 63  1  0  0  0  0
 27 66  1  0  0  0  0
 28 67  1  0  0  0  0
 28 72  2  0  0  0  0
 29 44  1  0  0  0  0
 29 68  1  0  0  0  0
 29 73  2  0  0  0  0
 30 51  1  0  0  0  0
 30 52  1  0  0  0  0
 30 74  2  0  0  0  0
 31 59  1  0  0  0  0
 31 64  1  0  0  0  0
 31 75  2  0  0  0  0
 32 60  1  0  0  0  0
 32 69  1  0  0  0  0
 32 76  2  0  0  0  0
 33 65  1  0  0  0  0
 33 70  1  0  0  0  0
 33 77  2  0  0  0  0
 34 37  1  0  0  0  0
 35 44  1  0  0  0  0
 36 64  1  0  0  0  0
 37 39  1  0  0  0  0
 38 40  1  0  0  0  0
 38 41  1  0  0  0  0
 39 43  1  0  0  0  0
 40 45  1  0  0  0  0
 41 65  1  0  0  0  0
 42 45  1  0  0  0  0
 42 65  1  0  0  0  0
 43 68  1  0  0  0  0
 44 64  1  0  0  0  0
 45 63  1  0  0  0  0
 46 60  1  0  0  0  0
 47 61  1  0  0  0  0
 48 61  1  0  0  0  0
 49 61  1  0  0  0  0
 50 71  1  0  0  0  0
 51 53  1  0  0  0  0
 52 54  1  0  0  0  0
 53 55  1  0  0  0  0
 54 57  1  0  0  0  0
 55 56  1  0  0  0  0
 56 58  1  0  0  0  0
 57 70  1  0  0  0  0
 58 79  1  0  0  0  0
 59 61  1  0  0  0  0
 59 69  1  0  0  0  0
 60 71  1  0  0  0  0
 62 63  1  0  0  0  0
M  CHG  1  71   1
M  ISO  4  33 100  58 101  70 100  79 101
M  END
> <Batch ID>
0095

> <Smiles>
CNC(C)C(=O)NC(C(=O)N1Cc2cc([101O:1][101CH2:1]CCCCC(=O)CCC[100NH:0][100C:0](=O)N3CCCC(n4nc(-c5ccc(Oc6ccc(F)cc6F)cc5)c(C(N)=O)c4N)C3)ccc2CC1C(=O)NC1CCCc2ccccc21)C(C)(C)C

> <Shape>
0.184

> <Color>
0.069

> <Negative vol penalty>
0.000

$$$$

  -OEChem-04052319213D

 90 98  0     1  0  0  0  0  0999 V2000
  -23.0712  -26.6129   15.9256 C   0  0  0  0  0  0  0  0  0  0  0  0
  -23.4361  -25.2740   15.8280 C   0  0  0  0  0  0  0  0  0  0  0  0
  -21.1213  -22.7711   22.5112 C   0  0  0  0  0  0  0  0  0  0  0  0
  -23.0077  -23.1331   21.0458 C   0  0  0  0  0  0  0  0  0  0  0  0
  -23.8890  -27.5089   16.6129 C   0  0  0  0  0  0  0  0  0  0  0  0
  -24.6197  -24.8305   16.4169 C   0  0  0  0  0  0  0  0  0  0  0  0
  -27.4482  -19.0820   19.6218 C   0  0  0  0  0  0  0  0  0  0  0  0
  -21.1149  -24.1271   22.8380 C   0  0  0  0  0  0  0  0  0  0  0  0
  -23.0013  -24.4891   21.3725 C   0  0  0  0  0  0  0  0  0  0  0  0
  -28.5611  -18.2456   19.5468 C   0  0  0  0  0  0  0  0  0  0  0  0
  -20.0524  -27.0197   21.4463 C   0  0  0  0  0  0  0  0  0  0  0  0
  -18.8222  -27.6768   21.4623 C   0  0  0  0  0  0  0  0  0  0  0  0
  -29.8554  -19.8676   20.7769 C   0  0  0  0  0  0  0  0  0  0  0  0
  -29.0197  -12.6111   21.0415 C   0  0  0  0  0  0  0  0  0  0  0  0
  -19.1414  -28.2177   23.7952 C   0  0  0  0  0  0  0  0  0  0  0  0
  -28.1786  -13.0063   18.9906 C   0  0  0  0  0  0  0  0  0  0  0  0
  -22.0678  -22.2740   21.6151 C   0  0  0  0  0  0  0  0  0  0  0  0
  -21.3785  -20.2485   20.2260 C   0  0  0  0  0  0  0  0  0  0  0  0
  -25.0783  -27.0742   17.2188 C   0  0  0  0  0  0  0  0  0  0  0  0
  -27.5336  -20.3243   20.2665 C   0  0  0  0  0  0  0  0  0  0  0  0
  -25.4549  -25.7217   17.1119 C   0  0  0  0  0  0  0  0  0  0  0  0
  -28.7415  -20.7168   20.8609 C   0  0  0  0  0  0  0  0  0  0  0  0
  -27.8232  -12.7799   20.3019 C   0  0  0  0  0  0  0  0  0  0  0  0
  -22.0548  -24.9861   22.2686 C   0  0  0  0  0  0  0  0  0  0  0  0
  -29.7657  -18.6396   20.1219 C   0  0  0  0  0  0  0  0  0  0  0  0
  -20.8272  -26.9615   22.6047 C   0  0  0  0  0  0  0  0  0  0  0  0
  -18.3667  -28.2758   22.6367 C   0  0  0  0  0  0  0  0  0  0  0  0
  -20.3717  -27.5606   23.7792 C   0  0  0  0  0  0  0  0  0  0  0  0
  -22.0753  -20.8733   21.2776 C   0  0  0  0  0  0  0  0  0  0  0  0
  -30.0700  -12.7397   20.1595 C   0  0  0  0  0  0  0  0  0  0  0  0
  -21.7160  -18.9213   20.3312 C   0  0  0  0  0  0  0  0  0  0  0  0
  -20.5043  -20.8170   19.2420 C   0  0  0  0  0  0  0  0  0  0  0  0
  -27.1789  -23.3505   19.3609 C   0  0  0  0  0  0  0  0  0  0  0  0
  -27.5206  -23.9322   22.5338 C   0  0  0  0  0  0  0  0  0  0  0  0
  -28.7105  -22.8916   25.5584 C   0  0  0  0  0  0  0  0  0  0  0  0
  -25.4896  -15.0083   20.9605 C   0  0  0  0  0  0  0  0  0  0  0  0
  -25.9535  -28.0890   17.9108 C   0  0  0  0  0  0  0  0  0  0  0  0
  -26.3168  -21.2033   20.3620 C   0  0  0  0  0  0  0  0  0  0  0  0
  -28.8799  -22.0317   21.5821 C   0  0  0  0  0  0  0  0  0  0  0  0
  -27.0031  -27.4646   18.8266 C   0  0  0  0  0  0  0  0  0  0  0  0
  -24.1302  -16.4170   24.0043 C   0  0  0  0  0  0  0  0  0  0  0  0
  -27.7088  -26.3109   18.1210 C   0  0  0  0  0  0  0  0  0  0  0  0
  -23.4128  -17.6584   23.4710 C   0  0  0  0  0  0  0  0  0  0  0  0
  -25.4335  -16.1657   23.2517 C   0  0  0  0  0  0  0  0  0  0  0  0
  -24.5625  -17.2899   21.2390 C   0  0  0  0  0  0  0  0  0  0  0  0
  -26.7187  -25.1975   17.7585 C   0  0  1  0  0  0  0  0  0  0  0  0
  -26.6573  -22.6718   20.5959 C   0  0  1  0  0  0  0  0  0  0  0  0
  -23.2261  -17.5850   21.9440 C   0  0  2  0  0  0  0  0  0  0  0  0
  -32.4095   -8.9621   21.4353 C   0  0  0  0  0  0  0  0  0  0  0  0
  -29.0990  -22.9053   28.0376 C   0  0  0  0  0  0  0  0  0  0  0  0
  -33.6410  -11.3291   19.9647 C   0  0  0  0  0  0  0  0  0  0  0  0
  -32.0321  -17.1592   16.5130 C   0  0  0  0  0  0  0  0  0  0  0  0
  -29.7478  -25.8874   21.8081 C   0  0  0  0  0  0  0  0  0  0  0  0
  -30.4844  -25.8280   24.2002 C   0  0  0  0  0  0  0  0  0  0  0  0
  -28.2132  -26.6791   23.6171 C   0  0  0  0  0  0  0  0  0  0  0  0
  -33.1235  -17.6031   19.3920 C   0  0  0  0  0  0  0  0  0  0  0  0
  -31.6890  -19.4714   18.5317 C   0  0  0  0  0  0  0  0  0  0  0  0
  -26.2301  -21.3611   26.0726 C   0  0  0  0  0  0  0  0  0  0  0  0
  -26.4492  -12.7234   20.8364 C   0  0  0  0  0  0  0  0  0  0  0  0
  -31.5254  -12.6534   20.3995 C   0  0  0  0  0  0  0  0  0  0  0  0
  -31.8619  -10.3808   21.5169 C   0  0  0  0  0  0  0  0  0  0  0  0
  -30.4221  -14.6495   17.1961 C   0  0  0  0  0  0  0  0  0  0  0  0
  -31.0703  -15.5643   18.2467 C   0  0  0  0  0  0  0  0  0  0  0  0
  -30.3386  -13.1855   17.6488 C   0  0  0  0  0  0  0  0  0  0  0  0
  -28.6885  -24.2014   23.4517 C   0  0  1  0  0  0  0  0  0  0  0  0
  -28.0608  -22.8288   26.9290 C   0  0  2  0  0  0  0  0  0  0  0  0
  -32.1392  -11.2270   20.2566 C   0  0  2  0  0  0  0  0  0  0  0  0
  -31.1901  -17.0400   17.7962 C   0  0  1  0  0  0  0  0  0  0  0  0
  -29.2817  -25.6250   23.2541 C   0  0  0  0  0  0  0  0  0  0  0  0
  -31.7138  -17.9892   18.9227 C   0  0  0  0  0  0  0  0  0  1  0  0
  -22.8006  -20.0136   21.9981 N   0  0  0  0  0  0  0  0  0  0  0  0
  -29.5468  -12.9799   18.9159 N   0  0  0  0  0  0  0  0  0  0  0  0
  -22.5613  -18.8351   21.3982 N   0  0  0  0  0  0  0  0  0  0  0  0
  -27.6635  -22.8589   21.6431 N   0  0  0  0  0  0  0  0  0  0  0  0
  -25.1837  -16.0880   21.8055 N   0  0  0  0  0  0  0  0  0  0  0  0
  -21.3692  -17.8312   19.6144 N   0  0  0  0  0  0  0  0  0  0  0  0
  -20.2662  -22.1977   19.2777 N   0  0  0  0  0  0  0  0  0  0  0  0
  -26.3990  -24.4054   18.9267 N   0  0  0  0  0  0  0  0  0  0  0  0
  -28.2140  -23.9344   24.8052 N   0  0  0  0  0  0  0  0  0  0  0  0
  -26.0823  -13.9117   21.5742 N   0  0  0  0  0  0  0  0  0  0  0  0
  -27.3006  -21.5564   27.0840 N   0  3  0  0  0  0  0  0  0  0  0  0
  -19.9379  -20.1188   18.3672 O   0  0  0  0  0  0  0  0  0  0  0  0
  -28.2131  -22.9480   18.8414 O   0  0  0  0  0  0  0  0  0  0  0  0
  -26.5156  -24.6435   22.6094 O   0  0  0  0  0  0  0  0  0  0  0  0
  -29.5748  -22.0975   25.1940 O   0  0  0  0  0  0  0  0  0  0  0  0
  -25.2473  -15.0185   19.7487 O   0  0  0  0  0  0  0  0  0  0  0  0
  -22.0487  -26.3094   22.5870 O   0  0  0  0  0  0  0  0  0  0  0  0
  -30.8538  -17.8254   20.0496 O   0  0  0  0  0  0  0  0  0  1  0  0
  -17.1860  -28.9082   22.6515 F   0  0  0  0  0  0  0  0  0  0  0  0
  -21.1121  -27.5090   24.8950 F   0  0  0  0  0  0  0  0  0  0  0  0
  1  2  1  0  0  0  0
  1  5  2  0  0  0  0
  2  6  2  0  0  0  0
  3  8  2  0  0  0  0
  3 17  1  0  0  0  0
  4  9  1  0  0  0  0
  4 17  2  0  0  0  0
  5 19  1  0  0  0  0
  6 21  1  0  0  0  0
  7 10  2  0  0  0  0
  7 20  1  0  0  0  0
  8 24  1  0  0  0  0
  9 24  2  0  0  0  0
 10 25  1  0  0  0  0
 11 12  2  0  0  0  0
 11 26  1  0  0  0  0
 12 27  1  0  0  0  0
 13 22  1  0  0  0  0
 13 25  2  0  0  0  0
 14 23  1  0  0  0  0
 14 30  2  0  0  0  0
 15 27  2  0  0  0  0
 15 28  1  0  0  0  0
 16 23  2  0  0  0  0
 16 72  1  0  0  0  0
 17 29  1  0  0  0  0
 18 29  1  0  0  0  0
 18 31  2  0  0  0  0
 18 32  1  0  0  0  0
 19 21  2  0  0  0  0
 19 37  1  0  0  0  0
 20 22  2  0  0  0  0
 20 38  1  0  0  0  0
 21 46  1  0  0  0  0
 22 39  1  0  0  0  0
 23 59  1  0  0  0  0
 24 87  1  0  0  0  0
 25 88  1  0  0  0  0
 26 28  2  0  0  0  0
 26 87  1  0  0  0  0
 27 89  1  0  0  0  0
 28 90  1  0  0  0  0
 29 71  2  0  0  0  0
 30 60  1  0  0  0  0
 30 72  1  0  0  0  0
 31 73  1  0  0  0  0
 31 76  1  0  0  0  0
 32 77  1  0  0  0  0
 32 82  2  0  0  0  0
 33 47  1  0  0  0  0
 33 78  1  0  0  0  0
 33 83  2  0  0  0  0
 34 65  1  0  0  0  0
 34 74  1  0  0  0  0
 34 84  2  0  0  0  0
 35 66  1  0  0  0  0
 35 79  1  0  0  0  0
 35 85  2  0  0  0  0
 36 75  1  0  0  0  0
 36 80  1  0  0  0  0
 36 86  2  0  0  0  0
 37 40  1  0  0  0  0
 38 47  1  0  0  0  0
 39 74  1  0  0  0  0
 40 42  1  0  0  0  0
 41 43  1  0  0  0  0
 41 44  1  0  0  0  0
 42 46  1  0  0  0  0
 43 48  1  0  0  0  0
 44 75  1  0  0  0  0
 45 48  1  0  0  0  0
 45 75  1  0  0  0  0
 46 78  1  0  0  0  0
 47 74  1  0  0  0  0
 48 73  1  0  0  0  0
 49 61  1  0  0  0  0
 50 66  1  0  0  0  0
 51 67  1  0  0  0  0
 52 68  1  0  0  0  0
 53 69  1  0  0  0  0
 54 69  1  0  0  0  0
 55 69  1  0  0  0  0
 56 70  1  0  0  0  0
 57 70  1  0  0  0  0
 58 81  1  0  0  0  0
 59 80  1  0  0  0  0
 60 67  1  0  0  0  0
 61 67  1  0  0  0  0
 62 63  1  0  0  0  0
 62 64  1  0  0  0  0
 63 68  1  0  0  0  0
 64 72  1  0  0  0  0
 65 69  1  0  0  0  0
 65 79  1  0  0  0  0
 66 81  1  0  0  0  0
 68 70  1  0  0  0  0
 70 88  1  0  0  0  0
 71 73  1  0  0  0  0
M  CHG  1  81   1
M  ISO  4  36 100  70 101  80 100  88 101
M  END
> <Batch ID>
0095

> <Smiles>
CCC(C)Cc1cc(C[100NH:0][100C:0](=O)N2CCCC(n3nc(-c4ccc(Oc5ccc(F)cc5F)cc4)c(C(N)=O)c3N)C2)cn1CCCC(C)[101C:1](C)(C)[101O:1]c1ccc2c(c1)CN(C(=O)C(NC(=O)C(C)NC)C(C)(C)C)C(C(=O)NC1CCCc3ccccc31)C2

> <Shape>
0.173

> <Color>
0.070

> <Negative vol penalty>
0.000

$$$$

  -OEChem-04052319213D

 84 92  0     1  0  0  0  0  0999 V2000
  -27.0466  -24.2849   13.7866 C   0  0  0  0  0  0  0  0  0  0  0  0
  -26.5932  -23.7241   14.9763 C   0  0  0  0  0  0  0  0  0  0  0  0
  -30.0117  -22.7018   21.4763 C   0  0  0  0  0  0  0  0  0  0  0  0
  -28.7101  -22.6390   19.4418 C   0  0  0  0  0  0  0  0  0  0  0  0
  -27.3630  -25.6417   13.7329 C   0  0  0  0  0  0  0  0  0  0  0  0
  -26.4569  -24.5197   16.1133 C   0  0  0  0  0  0  0  0  0  0  0  0
  -22.1034  -23.6812   18.5606 C   0  0  0  0  0  0  0  0  0  0  0  0
  -30.7246  -23.7961   20.9865 C   0  0  0  0  0  0  0  0  0  0  0  0
  -29.4230  -23.7334   18.9520 C   0  0  0  0  0  0  0  0  0  0  0  0
  -22.0313  -22.5405   19.3589 C   0  0  0  0  0  0  0  0  0  0  0  0
  -32.6429  -26.8318   20.4211 C   0  0  0  0  0  0  0  0  0  0  0  0
  -32.8612  -27.9036   21.2866 C   0  0  0  0  0  0  0  0  0  0  0  0
  -22.4423  -23.8908   21.3151 C   0  0  0  0  0  0  0  0  0  0  0  0
  -23.7777  -15.2220   24.0495 C   0  0  0  0  0  0  0  0  0  0  0  0
  -30.4750  -28.2010   21.5202 C   0  0  0  0  0  0  0  0  0  0  0  0
  -22.1748  -15.8093   22.5814 C   0  0  0  0  0  0  0  0  0  0  0  0
  -29.0045  -22.1232   20.7039 C   0  0  0  0  0  0  0  0  0  0  0  0
  -27.0820  -21.0201   21.9669 C   0  0  0  0  0  0  0  0  0  0  0  0
  -27.2213  -26.4563   14.8673 C   0  0  0  0  0  0  0  0  0  0  0  0
  -22.3569  -24.9359   19.1333 C   0  0  0  0  0  0  0  0  0  0  0  0
  -26.7730  -25.8884   16.0751 C   0  0  0  0  0  0  0  0  0  0  0  0
  -22.5147  -25.0463   20.5222 C   0  0  0  0  0  0  0  0  0  0  0  0
  -23.1458  -14.8653   22.8328 C   0  0  0  0  0  0  0  0  0  0  0  0
  -30.4302  -24.3119   19.7244 C   0  0  0  0  0  0  0  0  0  0  0  0
  -22.2035  -22.6447   20.7360 C   0  0  0  0  0  0  0  0  0  0  0  0
  -31.3406  -26.4446   20.1050 C   0  0  0  0  0  0  0  0  0  0  0  0
  -31.7773  -28.5882   21.8362 C   0  0  0  0  0  0  0  0  0  0  0  0
  -30.2567  -27.1292   20.6546 C   0  0  0  0  0  0  0  0  0  0  0  0
  -28.2681  -20.9924   21.2091 C   0  0  0  0  0  0  0  0  0  0  0  0
  -23.1735  -16.3731   24.5047 C   0  0  0  0  0  0  0  0  0  0  0  0
  -26.7889  -19.6977   22.1942 C   0  0  0  0  0  0  0  0  0  0  0  0
  -26.3139  -22.1411   22.4242 C   0  0  0  0  0  0  0  0  0  0  0  0
  -24.6666  -27.1022   18.8577 C   0  0  0  0  0  0  0  0  0  0  0  0
  -22.7119  -28.8585   20.7595 C   0  0  0  0  0  0  0  0  0  0  0  0
  -20.2056  -28.9125   23.0752 C   0  0  0  0  0  0  0  0  0  0  0  0
  -26.3214  -14.4368   20.3916 C   0  0  0  0  0  0  0  0  0  0  0  0
  -27.6207  -27.9077   14.7733 C   0  0  0  0  0  0  0  0  0  0  0  0
  -22.4052  -26.1606   18.2615 C   0  0  0  0  0  0  0  0  0  0  0  0
  -22.7687  -26.3729   21.1885 C   0  0  0  0  0  0  0  0  0  0  0  0
  -27.0919  -28.7607   15.9236 C   0  0  0  0  0  0  0  0  0  0  0  0
  -29.5508  -15.5322   21.4153 C   0  0  0  0  0  0  0  0  0  0  0  0
  -27.3316  -28.0637   17.2591 C   0  0  0  0  0  0  0  0  0  0  0  0
  -29.4086  -17.0524   21.5093 C   0  0  0  0  0  0  0  0  0  0  0  0
  -28.7389  -14.9600   20.2554 C   0  0  0  0  0  0  0  0  0  0  0  0
  -27.1716  -16.8599   20.3442 C   0  0  0  0  0  0  0  0  0  0  0  0
  -26.5884  -26.7239   17.3233 C   0  0  1  0  0  0  0  0  0  0  0  0
  -23.1793  -27.3135   18.8930 C   0  0  1  0  0  0  0  0  0  0  0  0
  -27.9279  -17.4767   21.5333 C   0  0  2  0  0  0  0  0  0  0  0  0
  -23.4431  -17.1682   25.7206 C   0  0  0  0  0  0  0  0  0  0  0  0
  -18.8469  -30.4948   24.4709 C   0  0  0  0  0  0  0  0  0  0  0  0
  -25.0862  -29.2360   22.6385 C   0  0  0  0  0  0  0  0  0  0  0  0
  -23.4778  -29.9727   24.4101 C   0  0  0  0  0  0  0  0  0  0  0  0
  -23.6897  -31.2826   22.2978 C   0  0  0  0  0  0  0  0  0  0  0  0
  -17.6772  -28.0457   21.8044 C   0  0  0  0  0  0  0  0  0  0  0  0
  -21.9501  -19.2369   23.2892 C   0  0  0  0  0  0  0  0  0  0  0  0
  -20.9841  -20.4226   23.3076 C   0  0  0  0  0  0  0  0  0  0  0  0
  -21.2894  -17.9181   23.7065 C   0  0  0  0  0  0  0  0  0  0  0  0
  -23.8712  -14.0727   20.5440 C   0  0  0  0  0  0  0  0  0  0  0  0
  -21.6660  -21.7065   22.8542 C   0  0  0  0  0  0  0  0  0  1  0  0
  -23.4676  -13.6984   21.9893 C   0  0  2  0  0  0  0  0  0  0  0  0
  -22.5420  -29.0303   22.2497 C   0  0  1  0  0  0  0  0  0  0  0  0
  -18.9291  -29.7299   23.1590 C   0  0  2  0  0  0  0  0  0  0  0  0
  -23.6961  -29.8550   22.8865 C   0  0  0  0  0  0  0  0  0  0  0  0
  -28.6991  -19.7508   20.9711 N   0  0  0  0  0  0  0  0  0  0  0  0
  -22.2005  -16.7208   23.6045 N   0  0  0  0  0  0  0  0  0  0  0  0
  -27.7788  -18.9860   21.5830 N   0  0  0  0  0  0  0  0  0  0  0  0
  -22.8135  -27.5404   20.2926 N   0  0  0  0  0  0  0  0  0  0  0  0
  -27.3436  -15.3987   20.3379 N   0  0  0  0  0  0  0  0  0  0  0  0
  -25.7835  -19.0858   22.8555 N   0  0  0  0  0  0  0  0  0  0  0  0
  -26.7571  -23.4310   22.1018 N   0  0  0  0  0  0  0  0  0  0  0  0
  -25.1815  -26.9384   17.5859 N   0  0  0  0  0  0  0  0  0  0  0  0
  -21.2165  -29.6074   22.4456 N   0  0  0  0  0  0  0  0  0  0  0  0
  -25.0280  -14.9376   20.4750 N   0  0  0  0  0  0  0  0  0  0  0  0
  -22.3409  -12.6946   21.8919 N   0  3  0  0  0  0  0  0  0  0  0  0
  -17.7372  -28.8410   23.0578 N   0  3  0  0  0  0  0  0  0  0  0  0
  -25.2745  -22.0033   23.1129 O   0  0  0  0  0  0  0  0  0  0  0  0
  -25.3002  -27.0903   19.9065 O   0  0  0  0  0  0  0  0  0  0  0  0
  -22.7458  -29.8567   20.0357 O   0  0  0  0  0  0  0  0  0  0  0  0
  -20.2978  -27.7731   23.5266 O   0  0  0  0  0  0  0  0  0  0  0  0
  -26.5452  -13.2217   20.3723 O   0  0  0  0  0  0  0  0  0  0  0  0
  -31.1255  -25.3798   19.2462 O   0  0  0  0  0  0  0  0  0  0  0  0
  -22.1342  -21.5327   21.5174 O   0  0  0  0  0  0  0  0  0  1  0  0
  -31.9872  -29.6164   22.6686 F   0  0  0  0  0  0  0  0  0  0  0  0
  -29.0033  -26.7612   20.3557 F   0  0  0  0  0  0  0  0  0  0  0  0
  1  2  1  0  0  0  0
  1  5  2  0  0  0  0
  2  6  2  0  0  0  0
  3  8  2  0  0  0  0
  3 17  1  0  0  0  0
  4  9  1  0  0  0  0
  4 17  2  0  0  0  0
  5 19  1  0  0  0  0
  6 21  1  0  0  0  0
  7 10  2  0  0  0  0
  7 20  1  0  0  0  0
  8 24  1  0  0  0  0
  9 24  2  0  0  0  0
 10 25  1  0  0  0  0
 11 12  2  0  0  0  0
 11 26  1  0  0  0  0
 12 27  1  0  0  0  0
 13 22  1  0  0  0  0
 13 25  2  0  0  0  0
 14 23  1  0  0  0  0
 14 30  2  0  0  0  0
 15 27  2  0  0  0  0
 15 28  1  0  0  0  0
 16 23  2  0  0  0  0
 16 65  1  0  0  0  0
 17 29  1  0  0  0  0
 18 29  1  0  0  0  0
 18 31  2  0  0  0  0
 18 32  1  0  0  0  0
 19 21  2  0  0  0  0
 19 37  1  0  0  0  0
 20 22  2  0  0  0  0
 20 38  1  0  0  0  0
 21 46  1  0  0  0  0
 22 39  1  0  0  0  0
 23 60  1  0  0  0  0
 24 81  1  0  0  0  0
 25 82  1  0  0  0  0
 26 28  2  0  0  0  0
 26 81  1  0  0  0  0
 27 83  1  0  0  0  0
 28 84  1  0  0  0  0
 29 64  2  0  0  0  0
 30 49  1  0  0  0  0
 30 65  1  0  0  0  0
 31 66  1  0  0  0  0
 31 69  1  0  0  0  0
 32 70  1  0  0  0  0
 32 76  2  0  0  0  0
 33 47  1  0  0  0  0
 33 71  1  0  0  0  0
 33 77  2  0  0  0  0
 34 61  1  0  0  0  0
 34 67  1  0  0  0  0
 34 78  2  0  0  0  0
 35 62  1  0  0  0  0
 35 72  1  0  0  0  0
 35 79  2  0  0  0  0
 36 68  1  0  0  0  0
 36 73  1  0  0  0  0
 36 80  2  0  0  0  0
 37 40  1  0  0  0  0
 38 47  1  0  0  0  0
 39 67  1  0  0  0  0
 40 42  1  0  0  0  0
 41 43  1  0  0  0  0
 41 44  1  0  0  0  0
 42 46  1  0  0  0  0
 43 48  1  0  0  0  0
 44 68  1  0  0  0  0
 45 48  1  0  0  0  0
 45 68  1  0  0  0  0
 46 71  1  0  0  0  0
 47 67  1  0  0  0  0
 48 66  1  0  0  0  0
 50 62  1  0  0  0  0
 51 63  1  0  0  0  0
 52 63  1  0  0  0  0
 53 63  1  0  0  0  0
 54 75  1  0  0  0  0
 55 56  1  0  0  0  0
 55 57  1  0  0  0  0
 56 59  1  0  0  0  0
 57 65  1  0  0  0  0
 58 60  1  0  0  0  0
 58 73  1  0  0  0  0
 59 82  1  0  0  0  0
 60 74  1  0  0  0  0
 61 63  1  0  0  0  0
 61 72  1  0  0  0  0
 62 75  1  0  0  0  0
 64 66  1  0  0  0  0
M  CHG  2  74   1  75   1
M  ISO  4  36 100  59 101  73 100  82 101
M  END
> <Batch ID>
0095

> <Smiles>
CNC(C)C(=O)NC(C(=O)N1Cc2cc([101O:1][101CH2:1]CCCn3cc(C(N)C[100NH:0][100C:0](=O)N4CCCC(n5nc(-c6ccc(Oc7ccc(F)cc7F)cc6)c(C(N)=O)c5N)C4)cc3C)ccc2CC1C(=O)NC1CCCc2ccccc21)C(C)(C)C

> <Shape>
0.218

> <Color>
0.070

> <Negative vol penalty>
0.000

$$$$

  -OEChem-04052319213D

 86 94  0     1  0  0  0  0  0999 V2000
  -22.9101  -36.1889   22.5932 C   0  0  0  0  0  0  0  0  0  0  0  0
  -23.9394  -35.3136   22.2619 C   0  0  0  0  0  0  0  0  0  0  0  0
  -25.6163  -16.5143   20.8692 C   0  0  0  0  0  0  0  0  0  0  0  0
  -26.0420  -15.8124   18.5969 C   0  0  0  0  0  0  0  0  0  0  0  0
  -21.7954  -35.7213   23.2879 C   0  0  0  0  0  0  0  0  0  0  0  0
  -23.8550  -33.9702   22.6260 C   0  0  0  0  0  0  0  0  0  0  0  0
  -25.9567  -29.1612   19.4698 C   0  0  0  0  0  0  0  0  0  0  0  0
  -24.9507  -15.3135   21.1154 C   0  0  0  0  0  0  0  0  0  0  0  0
  -25.3764  -14.6116   18.8431 C   0  0  0  0  0  0  0  0  0  0  0  0
  -27.1225  -28.4045   19.5790 C   0  0  0  0  0  0  0  0  0  0  0  0
  -21.9114  -13.9761   20.4843 C   0  0  0  0  0  0  0  0  0  0  0  0
  -20.6959  -14.0376   21.1657 C   0  0  0  0  0  0  0  0  0  0  0  0
  -25.9366  -26.7808   20.9118 C   0  0  0  0  0  0  0  0  0  0  0  0
  -31.7330  -23.3094   18.4704 C   0  0  0  0  0  0  0  0  0  0  0  0
  -21.6078  -12.6467   22.9181 C   0  0  0  0  0  0  0  0  0  0  0  0
  -26.1620  -16.7638   19.6099 C   0  0  0  0  0  0  0  0  0  0  0  0
  -28.2209  -18.2678   19.5301 C   0  0  0  0  0  0  0  0  0  0  0  0
  -21.6929  -34.3695   23.6524 C   0  0  0  0  0  0  0  0  0  0  0  0
  -24.7727  -28.7382   20.0909 C   0  0  0  0  0  0  0  0  0  0  0  0
  -22.7385  -33.4843   23.3275 C   0  0  0  0  0  0  0  0  0  0  0  0
  -24.7564  -27.5326   20.8067 C   0  0  0  0  0  0  0  0  0  0  0  0
  -32.7013  -23.0048   17.4821 C   0  0  0  0  0  0  0  0  0  0  0  0
  -24.8307  -14.3621   20.1024 C   0  0  0  0  0  0  0  0  0  0  0  0
  -27.1134  -27.2156   20.3025 C   0  0  0  0  0  0  0  0  0  0  0  0
  -22.9751  -13.2497   21.0197 C   0  0  0  0  0  0  0  0  0  0  0  0
  -20.5441  -13.3730   22.3826 C   0  0  0  0  0  0  0  0  0  0  0  0
  -22.8233  -12.5851   22.2366 C   0  0  0  0  0  0  0  0  0  0  0  0
  -26.8492  -18.0042   19.3548 C   0  0  0  0  0  0  0  0  0  0  0  0
  -30.7729  -24.0983   17.8763 C   0  0  0  0  0  0  0  0  0  0  0  0
  -32.3035  -23.6171   16.3141 C   0  0  0  0  0  0  0  0  0  0  0  0
  -28.3696  -19.5798   19.1518 C   0  0  0  0  0  0  0  0  0  0  0  0
  -29.2672  -17.4039   19.9935 C   0  0  0  0  0  0  0  0  0  0  0  0
  -22.8786  -29.9232   22.3517 C   0  0  0  0  0  0  0  0  0  0  0  0
  -21.0115  -27.3884   21.5702 C   0  0  0  0  0  0  0  0  0  0  0  0
  -20.7905  -24.2548   20.2366 C   0  0  0  0  0  0  0  0  0  0  0  0
  -27.3151  -23.7787   15.6301 C   0  0  0  0  0  0  0  0  0  0  0  0
  -20.4903  -33.9202   24.4440 C   0  0  0  0  0  0  0  0  0  0  0  0
  -23.5168  -29.5523   19.9411 C   0  0  0  0  0  0  0  0  0  0  0  0
  -23.5062  -27.0242   21.4753 C   0  0  0  0  0  0  0  0  0  0  0  0
  -20.3060  -32.4050   24.4647 C   0  0  0  0  0  0  0  0  0  0  0  0
  -24.9085  -23.1367   18.1743 C   0  0  0  0  0  0  0  0  0  0  0  0
  -21.6301  -31.7103   24.7663 C   0  0  0  0  0  0  0  0  0  0  0  0
  -25.3082  -21.7639   18.7179 C   0  0  0  0  0  0  0  0  0  0  0  0
  -25.1322  -23.2337   16.6668 C   0  0  0  0  0  0  0  0  0  0  0  0
  -26.8934  -21.5124   16.7627 C   0  0  0  0  0  0  0  0  0  0  0  0
  -22.6722  -32.0149   23.6833 C   0  0  1  0  0  0  0  0  0  0  0  0
  -22.4977  -29.2870   21.0449 C   0  0  1  0  0  0  0  0  0  0  0  0
  -26.7382  -21.3852   18.2878 C   0  0  2  0  0  0  0  0  0  0  0  0
  -32.9403  -23.6285   14.9798 C   0  0  0  0  0  0  0  0  0  0  0  0
  -32.6716  -19.9775   17.3052 C   0  0  0  0  0  0  0  0  0  0  0  0
  -19.1381  -22.4248   19.7695 C   0  0  0  0  0  0  0  0  0  0  0  0
  -21.0148  -26.6340   24.5267 C   0  0  0  0  0  0  0  0  0  0  0  0
  -20.1922  -24.3606   23.8759 C   0  0  0  0  0  0  0  0  0  0  0  0
  -18.8042  -26.3747   23.3864 C   0  0  0  0  0  0  0  0  0  0  0  0
  -21.2871  -24.3918   17.3223 C   0  0  0  0  0  0  0  0  0  0  0  0
  -29.5226  -24.7043   18.4620 C   0  0  0  0  0  0  0  0  0  0  0  0
  -33.6581  -20.7356   18.1852 C   0  0  0  0  0  0  0  0  0  0  0  0
  -29.3146  -24.3770   19.9422 C   0  0  0  0  0  0  0  0  0  0  0  0
  -30.3821  -25.0512   15.5958 C   0  0  0  0  0  0  0  0  0  0  0  0
  -29.5585  -24.1824   14.6487 C   0  0  0  0  0  0  0  0  0  0  0  0
  -28.0952  -25.0633   20.5468 C   0  0  0  0  0  0  0  0  0  1  0  0
  -33.9112  -22.1812   17.6764 C   0  0  2  0  0  0  0  0  0  0  0  0
  -20.9015  -25.9572   22.0377 C   0  0  1  0  0  0  0  0  0  0  0  0
  -19.8356  -23.6586   19.2181 C   0  0  2  0  0  0  0  0  0  0  0  0
  -20.2524  -25.8419   23.4458 C   0  0  0  0  0  0  0  0  0  0  0  0
  -26.1745  -19.0637   18.9006 N   0  0  0  0  0  0  0  0  0  0  0  0
  -31.1302  -24.2791   16.5656 N   0  0  0  0  0  0  0  0  0  0  0  0
  -27.1262  -20.0058   18.7874 N   0  0  0  0  0  0  0  0  0  0  0  0
  -22.3054  -27.8589   21.3053 N   0  0  0  0  0  0  0  0  0  0  0  0
  -26.5079  -22.8634   16.3257 N   0  0  0  0  0  0  0  0  0  0  0  0
  -29.4412  -20.3990   19.0988 N   0  0  0  0  0  0  0  0  0  0  0  0
  -28.9408  -16.0857   20.3403 N   0  0  0  0  0  0  0  0  0  0  0  0
  -22.4206  -31.2184   22.5015 N   0  0  0  0  0  0  0  0  0  0  0  0
  -20.1852  -25.2391   20.9890 N   0  0  0  0  0  0  0  0  0  0  0  0
  -28.6075  -23.3508   15.3521 N   0  0  0  0  0  0  0  0  0  0  0  0
  -34.8997  -22.7993   18.6413 N   0  3  0  0  0  0  0  0  0  0  0  0
  -20.5729  -23.2691   17.9829 N   0  3  0  0  0  0  0  0  0  0  0  0
  -30.4533  -17.7943   20.1125 O   0  0  0  0  0  0  0  0  0  0  0  0
  -23.5378  -29.2858   23.1646 O   0  0  0  0  0  0  0  0  0  0  0  0
  -19.9865  -28.0618   21.4379 O   0  0  0  0  0  0  0  0  0  0  0  0
  -21.9555  -23.8819   20.3556 O   0  0  0  0  0  0  0  0  0  0  0  0
  -26.9154  -24.8966   15.2874 O   0  0  0  0  0  0  0  0  0  0  0  0
  -24.1815  -13.1902   20.3424 O   0  0  0  0  0  0  0  0  0  0  0  0
  -28.2501  -26.4754   20.4113 O   0  0  0  0  0  0  0  0  0  1  0  0
  -19.3772  -13.4335   23.0376 F   0  0  0  0  0  0  0  0  0  0  0  0
  -23.8420  -11.8867   22.7566 F   0  0  0  0  0  0  0  0  0  0  0  0
  1  2  1  0  0  0  0
  1  5  2  0  0  0  0
  2  6  2  0  0  0  0
  3  8  2  0  0  0  0
  3 16  1  0  0  0  0
  4  9  1  0  0  0  0
  4 16  2  0  0  0  0
  5 18  1  0  0  0  0
  6 20  1  0  0  0  0
  7 10  2  0  0  0  0
  7 19  1  0  0  0  0
  8 23  1  0  0  0  0
  9 23  2  0  0  0  0
 10 24  1  0  0  0  0
 11 12  2  0  0  0  0
 11 25  1  0  0  0  0
 12 26  1  0  0  0  0
 13 21  1  0  0  0  0
 13 24  2  0  0  0  0
 14 22  1  0  0  0  0
 14 29  2  0  0  0  0
 15 26  2  0  0  0  0
 15 27  1  0  0  0  0
 16 28  1  0  0  0  0
 17 28  1  0  0  0  0
 17 31  2  0  0  0  0
 17 32  1  0  0  0  0
 18 20  2  0  0  0  0
 18 37  1  0  0  0  0
 19 21  2  0  0  0  0
 19 38  1  0  0  0  0
 20 46  1  0  0  0  0
 21 39  1  0  0  0  0
 22 30  2  0  0  0  0
 22 62  1  0  0  0  0
 23 83  1  0  0  0  0
 24 84  1  0  0  0  0
 25 27  2  0  0  0  0
 25 83  1  0  0  0  0
 26 85  1  0  0  0  0
 27 86  1  0  0  0  0
 28 66  2  0  0  0  0
 29 56  1  0  0  0  0
 29 67  1  0  0  0  0
 30 49  1  0  0  0  0
 30 67  1  0  0  0  0
 31 68  1  0  0  0  0
 31 71  1  0  0  0  0
 32 72  1  0  0  0  0
 32 78  2  0  0  0  0
 33 47  1  0  0  0  0
 33 73  1  0  0  0  0
 33 79  2  0  0  0  0
 34 63  1  0  0  0  0
 34 69  1  0  0  0  0
 34 80  2  0  0  0  0
 35 64  1  0  0  0  0
 35 74  1  0  0  0  0
 35 81  2  0  0  0  0
 36 70  1  0  0  0  0
 36 75  1  0  0  0  0
 36 82  2  0  0  0  0
 37 40  1  0  0  0  0
 38 47  1  0  0  0  0
 39 69  1  0  0  0  0
 40 42  1  0  0  0  0
 41 43  1  0  0  0  0
 41 44  1  0  0  0  0
 42 46  1  0  0  0  0
 43 48  1  0  0  0  0
 44 70  1  0  0  0  0
 45 48  1  0  0  0  0
 45 70  1  0  0  0  0
 46 73  1  0  0  0  0
 47 69  1  0  0  0  0
 48 68  1  0  0  0  0
 50 57  1  0  0  0  0
 51 64  1  0  0  0  0
 52 65  1  0  0  0  0
 53 65  1  0  0  0  0
 54 65  1  0  0  0  0
 55 77  1  0  0  0  0
 56 58  1  0  0  0  0
 57 62  1  0  0  0  0
 58 61  1  0  0  0  0
 59 60  1  0  0  0  0
 59 67  1  0  0  0  0
 60 75  1  0  0  0  0
 61 84  1  0  0  0  0
 62 76  1  0  0  0  0
 63 65  1  0  0  0  0
 63 74  1  0  0  0  0
 64 77  1  0  0  0  0
 66 68  1  0  0  0  0
M  CHG  2  76   1  77   1
M  ISO  4  36 100  61 101  75 100  84 101
M  END
> <Batch ID>
0095

> <Smiles>
CCC(N)c1cc(CC[101CH2:1][101O:1]c2ccc3c(c2)CN(C(=O)C(NC(=O)C(C)NC)C(C)(C)C)C(C(=O)NC2CCCc4ccccc42)C3)n(CC[100NH:0][100C:0](=O)N2CCCC(n3nc(-c4ccc(Oc5ccc(F)cc5F)cc4)c(C(N)=O)c3N)C2)c1C

> <Shape>
0.213

> <Color>
0.074

> <Negative vol penalty>
0.000

$$$$

  -OEChem-04052319213D

 85 93  0     1  0  0  0  0  0999 V2000
  -27.7332  -12.4044   17.4383 C   0  0  0  0  0  0  0  0  0  0  0  0
  -27.3287  -13.7270   17.2886 C   0  0  0  0  0  0  0  0  0  0  0  0
  -29.3563  -20.6943   19.3504 C   0  0  0  0  0  0  0  0  0  0  0  0
  -27.5018  -20.6878   17.8020 C   0  0  0  0  0  0  0  0  0  0  0  0
  -27.1973  -11.6244   18.4622 C   0  0  0  0  0  0  0  0  0  0  0  0
  -26.3872  -14.2701   18.1620 C   0  0  0  0  0  0  0  0  0  0  0  0
  -24.6163  -20.4498   21.3230 C   0  0  0  0  0  0  0  0  0  0  0  0
  -29.2177  -19.3171   19.5223 C   0  0  0  0  0  0  0  0  0  0  0  0
  -27.3631  -19.3105   17.9738 C   0  0  0  0  0  0  0  0  0  0  0  0
  -23.5210  -21.2942   21.4996 C   0  0  0  0  0  0  0  0  0  0  0  0
  -30.0457  -16.5014   17.8433 C   0  0  0  0  0  0  0  0  0  0  0  0
  -31.2044  -15.7252   17.8191 C   0  0  0  0  0  0  0  0  0  0  0  0
  -22.7225  -19.8761   23.2801 C   0  0  0  0  0  0  0  0  0  0  0  0
  -30.7437  -14.9675   20.0665 C   0  0  0  0  0  0  0  0  0  0  0  0
  -20.8377  -28.2723   20.4294 C   0  0  0  0  0  0  0  0  0  0  0  0
  -28.4983  -21.3797   18.4902 C   0  0  0  0  0  0  0  0  0  0  0  0
  -29.4354  -23.4647   17.3578 C   0  0  0  0  0  0  0  0  0  0  0  0
  -26.2559  -12.1611   19.3546 C   0  0  0  0  0  0  0  0  0  0  0  0
  -24.7674  -19.3044   22.1177 C   0  0  0  0  0  0  0  0  0  0  0  0
  -25.8372  -13.4962   19.1980 C   0  0  0  0  0  0  0  0  0  0  0  0
  -23.8219  -19.0202   23.1134 C   0  0  0  0  0  0  0  0  0  0  0  0
  -28.2211  -18.6252   18.8340 C   0  0  0  0  0  0  0  0  0  0  0  0
  -22.5723  -21.0058   22.4763 C   0  0  0  0  0  0  0  0  0  0  0  0
  -29.2361  -16.5107   18.9792 C   0  0  0  0  0  0  0  0  0  0  0  0
  -31.5534  -14.9582   18.9307 C   0  0  0  0  0  0  0  0  0  0  0  0
  -29.5851  -15.7437   20.0907 C   0  0  0  0  0  0  0  0  0  0  0  0
  -28.6407  -22.8025   18.3127 C   0  0  0  0  0  0  0  0  0  0  0  0
  -21.8559  -29.0271   20.9398 C   0  0  0  0  0  0  0  0  0  0  0  0
  -29.2252  -24.7998   17.6026 C   0  0  0  0  0  0  0  0  0  0  0  0
  -20.3985  -28.6577   22.5646 C   0  0  0  0  0  0  0  0  0  0  0  0
  -30.2873  -22.9216   16.3405 C   0  0  0  0  0  0  0  0  0  0  0  0
  -24.8758  -16.1788   21.5502 C   0  0  0  0  0  0  0  0  0  0  0  0
  -25.5802  -16.0237   24.7128 C   0  0  0  0  0  0  0  0  0  0  0  0
  -25.4004  -17.4765   27.7956 C   0  0  0  0  0  0  0  0  0  0  0  0
  -24.6753  -27.6881   20.0131 C   0  0  0  0  0  0  0  0  0  0  0  0
  -25.6694  -11.2652   20.4167 C   0  0  0  0  0  0  0  0  0  0  0  0
  -25.9686  -18.4182   21.9327 C   0  0  0  0  0  0  0  0  0  0  0  0
  -23.9488  -17.8140   24.0064 C   0  0  0  0  0  0  0  0  0  0  0  0
  -24.9558  -12.0273   21.5304 C   0  0  0  0  0  0  0  0  0  0  0  0
  -28.1125  -27.8292   21.1370 C   0  0  0  0  0  0  0  0  0  0  0  0
  -24.0377  -13.0947   20.9434 C   0  0  0  0  0  0  0  0  0  0  0  0
  -28.7110  -26.6064   20.4393 C   0  0  0  0  0  0  0  0  0  0  0  0
  -26.6860  -27.5558   21.6044 C   0  0  0  0  0  0  0  0  0  0  0  0
  -26.3579  -25.8777   19.8296 C   0  0  0  0  0  0  0  0  0  0  0  0
  -24.8365  -14.1287   20.1407 C   0  0  1  0  0  0  0  0  0  0  0  0
  -25.7512  -17.0008   22.4532 C   0  0  1  0  0  0  0  0  0  0  0  0
  -27.7915  -26.0977   19.3133 C   0  0  2  0  0  0  0  0  0  0  0  0
  -19.7443  -28.6737   23.8968 C   0  0  0  0  0  0  0  0  0  0  0  0
  -18.4145  -23.8652   19.5492 C   0  0  0  0  0  0  0  0  0  0  0  0
  -26.0327  -17.0934   30.1937 C   0  0  0  0  0  0  0  0  0  0  0  0
  -23.2786  -14.0413   25.0004 C   0  0  0  0  0  0  0  0  0  0  0  0
  -23.3458  -14.4288   27.4729 C   0  0  0  0  0  0  0  0  0  0  0  0
  -25.3277  -13.4579   26.3101 C   0  0  0  0  0  0  0  0  0  0  0  0
  -27.1212  -19.8838   27.8475 C   0  0  0  0  0  0  0  0  0  0  0  0
  -23.0726  -29.5575   20.3194 C   0  0  0  0  0  0  0  0  0  0  0  0
  -19.6646  -24.6918   19.8164 C   0  0  0  0  0  0  0  0  0  0  0  0
  -18.8183  -25.8702   21.9562 C   0  0  0  0  0  0  0  0  0  0  0  0
  -20.1674  -23.7620   22.1712 C   0  0  0  0  0  0  0  0  0  0  0  0
  -18.6702  -27.2681   21.3466 C   0  0  0  0  0  0  0  0  0  0  0  0
  -21.4135  -22.9684   21.7972 C   0  0  0  0  0  0  0  0  0  1  0  0
  -24.7735  -15.9029   25.9831 C   0  0  1  0  0  0  0  0  0  0  0  0
  -26.4533  -17.7028   28.8654 C   0  0  2  0  0  0  0  0  0  0  0  0
  -19.9297  -25.0162   21.3023 C   0  0  1  0  0  0  0  0  0  0  0  0
  -24.1777  -14.4795   26.1736 C   0  0  0  0  0  0  0  0  0  0  0  0
  -27.9755  -23.6472   19.1051 N   0  0  0  0  0  0  0  0  0  0  0  0
  -19.9505  -28.0583   21.4567 N   0  0  0  0  0  0  0  0  0  0  0  0
  -28.3518  -24.8540   18.6487 N   0  0  0  0  0  0  0  0  0  0  0  0
  -21.5579  -29.2509   22.2623 N   0  3  0  0  0  0  0  0  0  0  0  0
  -25.1375  -16.9747   23.7824 N   0  0  0  0  0  0  0  0  0  0  0  0
  -25.8584  -27.0929   20.4816 N   0  0  0  0  0  0  0  0  0  0  0  0
  -29.7043  -25.9209   17.0229 N   0  0  0  0  0  0  0  0  0  0  0  0
  -30.3879  -21.5283   16.2269 N   0  0  0  0  0  0  0  0  0  0  0  0
  -25.4971  -15.0590   21.0310 N   0  0  0  0  0  0  0  0  0  0  0  0
  -25.6508  -16.3334   27.0663 N   0  0  0  0  0  0  0  0  0  0  0  0
  -24.2669  -28.8312   20.6895 N   0  0  0  0  0  0  0  0  0  0  0  0
  -26.6801  -19.1617   29.0686 N   0  3  0  0  0  0  0  0  0  0  0  0
  -30.9526  -23.6503   15.5660 O   0  0  0  0  0  0  0  0  0  0  0  0
  -23.7215  -16.5333   21.3411 O   0  0  0  0  0  0  0  0  0  0  0  0
  -26.5709  -15.3059   24.5550 O   0  0  0  0  0  0  0  0  0  0  0  0
  -24.4487  -18.2355   27.6265 O   0  0  0  0  0  0  0  0  0  0  0  0
  -24.0328  -27.2372   19.0587 O   0  0  0  0  0  0  0  0  0  0  0  0
  -28.0857  -17.2812   19.0014 O   0  0  0  0  0  0  0  0  0  0  0  0
  -21.5020  -21.8279   22.6503 O   0  0  0  0  0  0  0  0  0  1  0  0
  -32.6653  -14.2117   18.9067 F   0  0  0  0  0  0  0  0  0  0  0  0
  -28.8106  -15.7477   21.1843 F   0  0  0  0  0  0  0  0  0  0  0  0
  1  2  1  0  0  0  0
  1  5  2  0  0  0  0
  2  6  2  0  0  0  0
  3  8  2  0  0  0  0
  3 16  1  0  0  0  0
  4  9  1  0  0  0  0
  4 16  2  0  0  0  0
  5 18  1  0  0  0  0
  6 20  1  0  0  0  0
  7 10  2  0  0  0  0
  7 19  1  0  0  0  0
  8 22  1  0  0  0  0
  9 22  2  0  0  0  0
 10 23  1  0  0  0  0
 11 12  2  0  0  0  0
 11 24  1  0  0  0  0
 12 25  1  0  0  0  0
 13 21  1  0  0  0  0
 13 23  2  0  0  0  0
 14 25  2  0  0  0  0
 14 26  1  0  0  0  0
 15 28  2  0  0  0  0
 15 66  1  0  0  0  0
 16 27  1  0  0  0  0
 17 27  1  0  0  0  0
 17 29  2  0  0  0  0
 17 31  1  0  0  0  0
 18 20  2  0  0  0  0
 18 36  1  0  0  0  0
 19 21  2  0  0  0  0
 19 37  1  0  0  0  0
 20 45  1  0  0  0  0
 21 38  1  0  0  0  0
 22 82  1  0  0  0  0
 23 83  1  0  0  0  0
 24 26  2  0  0  0  0
 24 82  1  0  0  0  0
 25 84  1  0  0  0  0
 26 85  1  0  0  0  0
 27 65  2  0  0  0  0
 28 55  1  0  0  0  0
 28 68  1  0  0  0  0
 29 67  1  0  0  0  0
 29 71  1  0  0  0  0
 30 48  1  0  0  0  0
 30 66  1  0  0  0  0
 30 68  2  0  0  0  0
 31 72  1  0  0  0  0
 31 77  2  0  0  0  0
 32 46  1  0  0  0  0
 32 73  1  0  0  0  0
 32 78  2  0  0  0  0
 33 61  1  0  0  0  0
 33 69  1  0  0  0  0
 33 79  2  0  0  0  0
 34 62  1  0  0  0  0
 34 74  1  0  0  0  0
 34 80  2  0  0  0  0
 35 70  1  0  0  0  0
 35 75  1  0  0  0  0
 35 81  2  0  0  0  0
 36 39  1  0  0  0  0
 37 46  1  0  0  0  0
 38 69  1  0  0  0  0
 39 41  1  0  0  0  0
 40 42  1  0  0  0  0
 40 43  1  0  0  0  0
 41 45  1  0  0  0  0
 42 47  1  0  0  0  0
 43 70  1  0  0  0  0
 44 47  1  0  0  0  0
 44 70  1  0  0  0  0
 45 73  1  0  0  0  0
 46 69  1  0  0  0  0
 47 67  1  0  0  0  0
 49 56  1  0  0  0  0
 50 62  1  0  0  0  0
 51 64  1  0  0  0  0
 52 64  1  0  0  0  0
 53 64  1  0  0  0  0
 54 76  1  0  0  0  0
 55 75  1  0  0  0  0
 56 63  1  0  0  0  0
 57 59  1  0  0  0  0
 57 63  1  0  0  0  0
 58 60  1  0  0  0  0
 58 63  1  0  0  0  0
 59 66  1  0  0  0  0
 60 83  1  0  0  0  0
 61 64  1  0  0  0  0
 61 74  1  0  0  0  0
 62 76  1  0  0  0  0
 65 67  1  0  0  0  0
M  CHG  2  68   1  76   1
M  ISO  4  35 100  60 101  75 100  83 101
M  END
> <Batch ID>
0095

> <Smiles>
CCC(CCn1cc(C[100NH:0][100C:0](=O)N2CCCC(n3nc(-c4ccc(Oc5ccc(F)cc5F)cc4)c(C(N)=O)c3N)C2)nc1C)C[101CH2:1][101O:1]c1ccc2c(c1)CN(C(=O)C(NC(=O)C(C)NC)C(C)(C)C)C(C(=O)NC1CCCc3ccccc31)C2

> <Shape>
0.209

> <Color>
0.050

> <Negative vol penalty>
0.000

$$$$

  -OEChem-04052319213D

 81 88  0     1  0  0  0  0  0999 V2000
  -28.6960  -16.6891   40.8906 C   0  0  0  0  0  0  0  0  0  0  0  0
  -29.3774  -16.4407   39.7034 C   0  0  0  0  0  0  0  0  0  0  0  0
  -23.1872   -9.8190   19.9311 C   0  0  0  0  0  0  0  0  0  0  0  0
  -23.5621   -9.9993   22.3111 C   0  0  0  0  0  0  0  0  0  0  0  0
  -27.3423  -16.3724   40.9954 C   0  0  0  0  0  0  0  0  0  0  0  0
  -28.7056  -15.8744   38.6206 C   0  0  0  0  0  0  0  0  0  0  0  0
  -28.6034  -15.9438   31.4581 C   0  0  0  0  0  0  0  0  0  0  0  0
  -22.4189   -8.6736   20.1389 C   0  0  0  0  0  0  0  0  0  0  0  0
  -22.7936   -8.8539   22.5189 C   0  0  0  0  0  0  0  0  0  0  0  0
  -28.6428  -15.0707   30.3719 C   0  0  0  0  0  0  0  0  0  0  0  0
  -23.1899   -5.5066   22.2561 C   0  0  0  0  0  0  0  0  0  0  0  0
  -23.6854   -4.5446   23.1363 C   0  0  0  0  0  0  0  0  0  0  0  0
  -26.2850  -14.6382   30.6416 C   0  0  0  0  0  0  0  0  0  0  0  0
  -21.7271   -4.8080   24.5265 C   0  0  0  0  0  0  0  0  0  0  0  0
  -23.7589  -10.4819   21.0172 C   0  0  0  0  0  0  0  0  0  0  0  0
  -24.1019  -12.9979   20.7735 C   0  0  0  0  0  0  0  0  0  0  0  0
  -26.6512  -15.8109   39.9102 C   0  0  0  0  0  0  0  0  0  0  0  0
  -27.4047  -16.1627   32.1522 C   0  0  0  0  0  0  0  0  0  0  0  0
  -27.3416  -15.5487   38.7115 C   0  0  0  0  0  0  0  0  0  0  0  0
  -26.2324  -15.5165   31.7347 C   0  0  0  0  0  0  0  0  0  0  0  0
  -22.2220   -8.1911   21.4327 C   0  0  0  0  0  0  0  0  0  0  0  0
  -27.4842  -14.4155   29.9653 C   0  0  0  0  0  0  0  0  0  0  0  0
  -21.9630   -6.1193   22.5111 C   0  0  0  0  0  0  0  0  0  0  0  0
  -22.9540   -4.1953   24.2715 C   0  0  0  0  0  0  0  0  0  0  0  0
  -21.2316   -5.7699   23.6463 C   0  0  0  0  0  0  0  0  0  0  0  0
  -24.5532  -11.6648   20.8032 C   0  0  0  0  0  0  0  0  0  0  0  0
  -25.2346  -13.7388   20.5398 C   0  0  0  0  0  0  0  0  0  0  0  0
  -22.7772  -13.5200   20.9421 C   0  0  0  0  0  0  0  0  0  0  0  0
  -26.4200  -15.6799   35.1357 C   0  0  0  0  0  0  0  0  0  0  0  0
  -23.7721  -17.2418   34.1008 C   0  0  0  0  0  0  0  0  0  0  0  0
  -21.7886  -18.1594   31.4796 C   0  0  0  0  0  0  0  0  0  0  0  0
  -31.0729  -12.1991   21.5799 C   0  0  0  0  0  0  0  0  0  0  0  0
  -25.1995  -15.4418   40.0866 C   0  0  0  0  0  0  0  0  0  0  0  0
  -27.3731  -17.1280   33.3053 C   0  0  0  0  0  0  0  0  0  0  0  0
  -24.9159  -15.7327   32.4336 C   0  0  0  0  0  0  0  0  0  0  0  0
  -24.4705  -15.1905   38.7691 C   0  0  0  0  0  0  0  0  0  0  0  0
  -29.5322  -13.4781   18.4667 C   0  0  0  0  0  0  0  0  0  0  0  0
  -25.3052  -14.2944   37.8596 C   0  0  0  0  0  0  0  0  0  0  0  0
  -28.0469  -13.2004   18.6917 C   0  0  0  0  0  0  0  0  0  0  0  0
  -30.4149  -12.4865   19.2186 C   0  0  0  0  0  0  0  0  0  0  0  0
  -28.6384  -12.1278   20.9008 C   0  0  0  0  0  0  0  0  0  0  0  0
  -26.6416  -14.9585   37.5066 C   0  0  1  0  0  0  0  0  0  0  0  0
  -26.2082  -16.8816   34.2590 C   0  0  1  0  0  0  0  0  0  0  0  0
  -27.7219  -13.1379   20.1943 C   0  0  2  0  0  0  0  0  0  0  0  0
  -27.5542   -9.1119   23.9356 C   0  0  0  0  0  0  0  0  0  0  0  0
  -19.6730  -19.4011   30.9503 C   0  0  0  0  0  0  0  0  0  0  0  0
  -26.2300  -12.5775   24.0066 C   0  0  0  0  0  0  0  0  0  0  0  0
  -22.1330  -14.8768   35.1157 C   0  0  0  0  0  0  0  0  0  0  0  0
  -20.2120  -15.7083   33.7423 C   0  0  0  0  0  0  0  0  0  0  0  0
  -21.1293  -17.1191   35.5837 C   0  0  0  0  0  0  0  0  0  0  0  0
  -31.7120  -11.9375   23.9469 C   0  0  0  0  0  0  0  0  0  0  0  0
  -23.2270  -20.1296   29.8037 C   0  0  0  0  0  0  0  0  0  0  0  0
  -28.2392  -10.2657   23.2137 C   0  0  0  0  0  0  0  0  0  0  0  0
  -28.6054  -12.4148   27.0927 C   0  0  0  0  0  0  0  0  0  0  0  0
  -27.6091  -12.9462   26.0616 C   0  0  0  0  0  0  0  0  0  0  0  0
  -29.3841  -12.5676   23.4278 C   0  0  0  0  0  0  0  0  0  0  0  0
  -28.7760  -13.3838   28.2557 C   0  0  0  0  0  0  0  0  0  1  0  0
  -22.4693  -16.8287   33.4595 C   0  0  1  0  0  0  0  0  0  0  0  0
  -21.1839  -19.4974   31.0941 C   0  0  2  0  0  0  0  0  0  0  0  0
  -27.3106  -11.9616   24.9060 C   0  0  2  0  0  0  0  0  0  0  0  0
  -28.5780  -11.4615   24.1375 C   0  0  1  0  0  0  0  0  0  0  0  0
  -21.5110  -16.1274   34.4631 C   0  0  0  0  0  0  0  0  0  0  0  0
  -25.8699  -11.5617   20.6042 N   0  0  0  0  0  0  0  0  0  0  0  0
  -26.2557  -12.8394   20.4471 N   0  0  0  0  0  0  0  0  0  0  0  0
  -24.9376  -16.6812   33.5594 N   0  0  0  0  0  0  0  0  0  0  0  0
  -30.0561  -12.4151   20.6354 N   0  0  0  0  0  0  0  0  0  0  0  0
  -25.4468  -15.0653   20.4066 N   0  0  0  0  0  0  0  0  0  0  0  0
  -21.7288  -12.6194   21.1747 N   0  0  0  0  0  0  0  0  0  0  0  0
  -26.4508  -15.9675   36.4869 N   0  0  0  0  0  0  0  0  0  0  0  0
  -21.9166  -18.0317   32.8465 N   0  0  0  0  0  0  0  0  0  0  0  0
  -30.6921  -12.1479   22.9294 N   0  0  0  0  0  0  0  0  0  0  0  0
  -21.7503  -19.9677   29.7983 N   0  3  0  0  0  0  0  0  0  0  0  0
  -22.5280  -14.7473   20.8718 O   0  0  0  0  0  0  0  0  0  0  0  0
  -26.5447  -14.5733   34.6241 O   0  0  0  0  0  0  0  0  0  0  0  0
  -23.7567  -18.0383   35.0426 O   0  0  0  0  0  0  0  0  0  0  0  0
  -22.1114  -17.3109   30.6512 O   0  0  0  0  0  0  0  0  0  0  0  0
  -32.2552  -12.0693   21.2373 O   0  0  0  0  0  0  0  0  0  0  0  0
  -21.4721   -7.0735   21.6359 O   0  0  0  0  0  0  0  0  0  0  0  0
  -27.5203  -13.5560   28.8980 O   0  0  0  0  0  0  0  0  0  1  0  0
  -23.4292   -3.2704   25.1158 F   0  0  0  0  0  0  0  0  0  0  0  0
  -20.0517   -6.3543   23.8959 F   0  0  0  0  0  0  0  0  0  0  0  0
  1  2  1  0  0  0  0
  1  5  2  0  0  0  0
  2  6  2  0  0  0  0
  3  8  2  0  0  0  0
  3 15  1  0  0  0  0
  4  9  1  0  0  0  0
  4 15  2  0  0  0  0
  5 17  1  0  0  0  0
  6 19  1  0  0  0  0
  7 10  2  0  0  0  0
  7 18  1  0  0  0  0
  8 21  1  0  0  0  0
  9 21  2  0  0  0  0
 10 22  1  0  0  0  0
 11 12  2  0  0  0  0
 11 23  1  0  0  0  0
 12 24  1  0  0  0  0
 13 20  1  0  0  0  0
 13 22  2  0  0  0  0
 14 24  2  0  0  0  0
 14 25  1  0  0  0  0
 15 26  1  0  0  0  0
 16 26  1  0  0  0  0
 16 27  2  0  0  0  0
 16 28  1  0  0  0  0
 17 19  2  0  0  0  0
 17 33  1  0  0  0  0
 18 20  2  0  0  0  0
 18 34  1  0  0  0  0
 19 42  1  0  0  0  0
 20 35  1  0  0  0  0
 21 78  1  0  0  0  0
 22 79  1  0  0  0  0
 23 25  2  0  0  0  0
 23 78  1  0  0  0  0
 24 80  1  0  0  0  0
 25 81  1  0  0  0  0
 26 63  2  0  0  0  0
 27 64  1  0  0  0  0
 27 67  1  0  0  0  0
 28 68  1  0  0  0  0
 28 73  2  0  0  0  0
 29 43  1  0  0  0  0
 29 69  1  0  0  0  0
 29 74  2  0  0  0  0
 30 58  1  0  0  0  0
 30 65  1  0  0  0  0
 30 75  2  0  0  0  0
 31 59  1  0  0  0  0
 31 70  1  0  0  0  0
 31 76  2  0  0  0  0
 32 66  1  0  0  0  0
 32 71  1  0  0  0  0
 32 77  2  0  0  0  0
 33 36  1  0  0  0  0
 34 43  1  0  0  0  0
 35 65  1  0  0  0  0
 36 38  1  0  0  0  0
 37 39  1  0  0  0  0
 37 40  1  0  0  0  0
 38 42  1  0  0  0  0
 39 44  1  0  0  0  0
 40 66  1  0  0  0  0
 41 44  1  0  0  0  0
 41 66  1  0  0  0  0
 42 69  1  0  0  0  0
 43 65  1  0  0  0  0
 44 64  1  0  0  0  0
 45 53  1  0  0  0  0
 46 59  1  0  0  0  0
 47 60  1  0  0  0  0
 48 62  1  0  0  0  0
 49 62  1  0  0  0  0
 50 62  1  0  0  0  0
 51 71  1  0  0  0  0
 52 72  1  0  0  0  0
 53 61  1  0  0  0  0
 54 55  1  0  0  0  0
 54 57  1  0  0  0  0
 55 60  1  0  0  0  0
 56 61  1  0  0  0  0
 56 71  1  0  0  0  0
 57 79  1  0  0  0  0
 58 62  1  0  0  0  0
 58 70  1  0  0  0  0
 59 72  1  0  0  0  0
 60 61  1  0  0  0  0
 63 64  1  0  0  0  0
M  CHG  1  72   1
M  ISO  4  32 100  57 101  71 100  79 101
M  END
> <Batch ID>
0095

> <Smiles>
CCC(C[100N:0](C)[100C:0](=O)N1CCCC(n2nc(-c3ccc(Oc4ccc(F)cc4F)cc3)c(C(N)=O)c2N)C1)C(C)CC[101CH2:1][101O:1]c1ccc2c(c1)CN(C(=O)C(NC(=O)C(C)NC)C(C)(C)C)C(C(=O)NC1CCCc3ccccc31)C2

> <Shape>
0.142

> <Color>
0.186

> <Negative vol penalty>
0.000

$$$$

  -OEChem-04052319213D

 87 95  0     1  0  0  0  0  0999 V2000
  -32.1289  -13.0429   21.3288 C   0  0  0  0  0  0  0  0  0  0  0  0
  -31.6019  -14.2411   21.8000 C   0  0  0  0  0  0  0  0  0  0  0  0
  -30.5287  -25.8987   19.9642 C   0  0  0  0  0  0  0  0  0  0  0  0
  -28.3957  -25.1279   19.1317 C   0  0  0  0  0  0  0  0  0  0  0  0
  -31.3954  -12.2638   20.4349 C   0  0  0  0  0  0  0  0  0  0  0  0
  -30.3416  -14.6615   21.3766 C   0  0  0  0  0  0  0  0  0  0  0  0
  -24.5853  -18.2464   23.6853 C   0  0  0  0  0  0  0  0  0  0  0  0
  -30.9656  -24.5781   20.0675 C   0  0  0  0  0  0  0  0  0  0  0  0
  -28.8325  -23.8073   19.2350 C   0  0  0  0  0  0  0  0  0  0  0  0
  -23.7579  -19.3067   23.3179 C   0  0  0  0  0  0  0  0  0  0  0  0
  -29.2573  -20.2181   19.6190 C   0  0  0  0  0  0  0  0  0  0  0  0
  -28.3831  -19.2881   20.1816 C   0  0  0  0  0  0  0  0  0  0  0  0
  -22.5481  -17.8402   21.8330 C   0  0  0  0  0  0  0  0  0  0  0  0
  -20.6053  -24.8228   21.4356 C   0  0  0  0  0  0  0  0  0  0  0  0
  -28.3466  -20.5635   22.2332 C   0  0  0  0  0  0  0  0  0  0  0  0
  -22.2757  -23.3661   20.5729 C   0  0  0  0  0  0  0  0  0  0  0  0
  -29.2437  -26.1736   19.4963 C   0  0  0  0  0  0  0  0  0  0  0  0
  -28.9175  -28.3905   18.2770 C   0  0  0  0  0  0  0  0  0  0  0  0
  -30.1214  -12.6701   20.0079 C   0  0  0  0  0  0  0  0  0  0  0  0
  -24.4069  -16.9754   23.1201 C   0  0  0  0  0  0  0  0  0  0  0  0
  -29.5910  -13.8878   20.4751 C   0  0  0  0  0  0  0  0  0  0  0  0
  -23.3729  -16.7648   22.1968 C   0  0  0  0  0  0  0  0  0  0  0  0
  -21.0171  -23.5308   21.1284 C   0  0  0  0  0  0  0  0  0  0  0  0
  -21.4527  -25.8955   21.1815 C   0  0  0  0  0  0  0  0  0  0  0  0
  -30.1175  -23.5323   19.7029 C   0  0  0  0  0  0  0  0  0  0  0  0
  -22.7409  -19.1044   22.3895 C   0  0  0  0  0  0  0  0  0  0  0  0
  -29.6763  -21.3208   20.3636 C   0  0  0  0  0  0  0  0  0  0  0  0
  -27.9277  -19.4609   21.4887 C   0  0  0  0  0  0  0  0  0  0  0  0
  -29.2209  -21.4935   21.6706 C   0  0  0  0  0  0  0  0  0  0  0  0
  -28.7916  -27.5376   19.3899 C   0  0  0  0  0  0  0  0  0  0  0  0
  -22.6919  -25.6250   20.6238 C   0  0  0  0  0  0  0  0  0  0  0  0
  -28.3345  -29.5674   18.6787 C   0  0  0  0  0  0  0  0  0  0  0  0
  -29.5086  -28.1412   16.9947 C   0  0  0  0  0  0  0  0  0  0  0  0
  -26.1877  -15.0481   21.3264 C   0  0  0  0  0  0  0  0  0  0  0  0
  -23.7372  -12.9776   21.8061 C   0  0  0  0  0  0  0  0  0  0  0  0
  -20.4377  -12.5150   22.5452 C   0  0  0  0  0  0  0  0  0  0  0  0
  -24.1699  -30.8625   22.7811 C   0  0  0  0  0  0  0  0  0  0  0  0
  -29.3861  -11.8178   19.0040 C   0  0  0  0  0  0  0  0  0  0  0  0
  -25.2908  -15.8358   23.5470 C   0  0  0  0  0  0  0  0  0  0  0  0
  -23.1268  -15.4148   21.5761 C   0  0  0  0  0  0  0  0  0  0  0  0
  -27.9002  -12.1501   18.8952 C   0  0  0  0  0  0  0  0  0  0  0  0
  -27.4750  -32.1737   22.5978 C   0  0  0  0  0  0  0  0  0  0  0  0
  -27.6960  -13.6588   18.8011 C   0  0  0  0  0  0  0  0  0  0  0  0
  -28.1986  -31.2112   21.6545 C   0  0  0  0  0  0  0  0  0  0  0  0
  -26.4718  -31.4438   23.4882 C   0  0  0  0  0  0  0  0  0  0  0  0
  -26.2183  -29.6461   21.8215 C   0  0  0  0  0  0  0  0  0  0  0  0
  -28.2168  -14.3655   20.0584 C   0  0  1  0  0  0  0  0  0  0  0  0
  -25.3457  -14.7063   22.5230 C   0  0  1  0  0  0  0  0  0  0  0  0
  -27.2002  -30.3437   20.8646 C   0  0  2  0  0  0  0  0  0  0  0  0
  -24.8008  -26.2899   19.4419 C   0  0  0  0  0  0  0  0  0  0  0  0
  -18.7165  -10.7109   22.8279 C   0  0  0  0  0  0  0  0  0  0  0  0
  -23.5825  -12.6538   18.7761 C   0  0  0  0  0  0  0  0  0  0  0  0
  -21.3139  -11.6365   19.0705 C   0  0  0  0  0  0  0  0  0  0  0  0
  -23.3145  -10.5289   20.0673 C   0  0  0  0  0  0  0  0  0  0  0  0
  -19.9507  -13.2609   25.3675 C   0  0  0  0  0  0  0  0  0  0  0  0
  -21.4463  -26.9742   23.9399 C   0  0  0  0  0  0  0  0  0  0  0  0
  -20.1227  -22.3459   21.3923 C   0  0  0  0  0  0  0  0  0  0  0  0
  -21.0170  -27.2826   21.5066 C   0  0  0  0  0  0  0  0  0  0  0  0
  -23.6440  -26.7379   20.3298 C   0  0  0  0  0  0  0  0  0  0  0  0
  -20.3064  -21.7330   22.7823 C   0  0  0  0  0  0  0  0  0  0  0  0
  -21.9290  -30.1772   21.9638 C   0  0  0  0  0  0  0  0  0  0  0  0
  -21.2734  -29.2685   22.9868 C   0  0  0  0  0  0  0  0  0  0  0  0
  -21.6970  -21.1503   23.0062 C   0  0  0  0  0  0  0  0  0  1  0  0
  -22.4430  -12.6692   21.0928 C   0  0  1  0  0  0  0  0  0  0  0  0
  -19.7459  -11.5857   23.5262 C   0  0  2  0  0  0  0  0  0  0  0  0
  -22.6691  -11.8981   19.7617 C   0  0  0  0  0  0  0  0  0  0  0  0
  -23.1267  -24.3835   20.3117 N   0  0  0  0  0  0  0  0  0  0  0  0
  -28.1770  -28.1229   20.4212 N   0  0  0  0  0  0  0  0  0  0  0  0
  -27.9116  -29.3563   19.9581 N   0  0  0  0  0  0  0  0  0  0  0  0
  -24.0216  -14.3336   22.0209 N   0  0  0  0  0  0  0  0  0  0  0  0
  -25.5531  -30.6407   22.6776 N   0  0  0  0  0  0  0  0  0  0  0  0
  -28.1476  -30.7520   18.0589 N   0  0  0  0  0  0  0  0  0  0  0  0
  -30.0622  -26.8773   16.7486 N   0  0  0  0  0  0  0  0  0  0  0  0
  -27.2765  -14.2160   21.1483 N   0  0  0  0  0  0  0  0  0  0  0  0
  -21.6037  -11.9649   22.0561 N   0  0  0  0  0  0  0  0  0  0  0  0
  -23.3704  -30.0628   21.9736 N   0  0  0  0  0  0  0  0  0  0  0  0
  -19.0529  -12.3731   24.5849 N   0  3  0  0  0  0  0  0  0  0  0  0
  -21.6686  -27.8381   22.7256 N   0  3  1  0  0  0  0  0  0  0  0  0
  -29.5594  -29.0185   16.0997 O   0  0  0  0  0  0  0  0  0  0  0  0
  -25.8721  -15.9957   20.6163 O   0  0  0  0  0  0  0  0  0  0  0  0
  -24.4654  -12.0493   22.1661 O   0  0  0  0  0  0  0  0  0  0  0  0
  -19.9868  -13.6169   22.2403 O   0  0  0  0  0  0  0  0  0  0  0  0
  -23.6838  -31.7140   23.5332 O   0  0  0  0  0  0  0  0  0  0  0  0
  -30.5436  -22.2436   19.8034 O   0  0  0  0  0  0  0  0  0  0  0  0
  -21.9324  -20.1378   22.0286 O   0  0  0  0  0  0  0  0  0  1  0  0
  -27.0870  -18.5686   22.0282 F   0  0  0  0  0  0  0  0  0  0  0  0
  -29.6190  -22.5515   22.3904 F   0  0  0  0  0  0  0  0  0  0  0  0
  1  2  1  0  0  0  0
  1  5  2  0  0  0  0
  2  6  2  0  0  0  0
  3  8  2  0  0  0  0
  3 17  1  0  0  0  0
  4  9  1  0  0  0  0
  4 17  2  0  0  0  0
  5 19  1  0  0  0  0
  6 21  1  0  0  0  0
  7 10  2  0  0  0  0
  7 20  1  0  0  0  0
  8 25  1  0  0  0  0
  9 25  2  0  0  0  0
 10 26  1  0  0  0  0
 11 12  2  0  0  0  0
 11 27  1  0  0  0  0
 12 28  1  0  0  0  0
 13 22  1  0  0  0  0
 13 26  2  0  0  0  0
 14 23  2  0  0  0  0
 14 24  1  0  0  0  0
 15 28  2  0  0  0  0
 15 29  1  0  0  0  0
 16 23  1  0  0  0  0
 16 67  2  0  0  0  0
 17 30  1  0  0  0  0
 18 30  1  0  0  0  0
 18 32  2  0  0  0  0
 18 33  1  0  0  0  0
 19 21  2  0  0  0  0
 19 38  1  0  0  0  0
 20 22  2  0  0  0  0
 20 39  1  0  0  0  0
 21 47  1  0  0  0  0
 22 40  1  0  0  0  0
 23 57  1  0  0  0  0
 24 31  2  0  0  0  0
 24 58  1  0  0  0  0
 25 84  1  0  0  0  0
 26 85  1  0  0  0  0
 27 29  2  0  0  0  0
 27 84  1  0  0  0  0
 28 86  1  0  0  0  0
 29 87  1  0  0  0  0
 30 68  2  0  0  0  0
 31 59  1  0  0  0  0
 31 67  1  0  0  0  0
 32 69  1  0  0  0  0
 32 72  1  0  0  0  0
 33 73  1  0  0  0  0
 33 79  2  0  0  0  0
 34 48  1  0  0  0  0
 34 74  1  0  0  0  0
 34 80  2  0  0  0  0
 35 64  1  0  0  0  0
 35 70  1  0  0  0  0
 35 81  2  0  0  0  0
 36 65  1  0  0  0  0
 36 75  1  0  0  0  0
 36 82  2  0  0  0  0
 37 71  1  0  0  0  0
 37 76  1  0  0  0  0
 37 83  2  0  0  0  0
 38 41  1  0  0  0  0
 39 48  1  0  0  0  0
 40 70  1  0  0  0  0
 41 43  1  0  0  0  0
 42 44  1  0  0  0  0
 42 45  1  0  0  0  0
 43 47  1  0  0  0  0
 44 49  1  0  0  0  0
 45 71  1  0  0  0  0
 46 49  1  0  0  0  0
 46 71  1  0  0  0  0
 47 74  1  0  0  0  0
 48 70  1  0  0  0  0
 49 69  1  0  0  0  0
 50 59  1  0  0  0  0
 51 65  1  0  0  0  0
 52 66  1  0  0  0  0
 53 66  1  0  0  0  0
 54 66  1  0  0  0  0
 55 77  1  0  0  0  0
 56 78  1  0  0  0  0
 57 60  1  0  0  0  0
 58 78  1  0  0  0  0
 60 63  1  0  0  0  0
 61 62  1  0  0  0  0
 61 76  1  0  0  0  0
 62 78  1  0  0  0  0
 63 85  1  0  0  0  0
 64 66  1  0  0  0  0
 64 75  1  0  0  0  0
 65 77  1  0  0  0  0
 68 69  1  0  0  0  0
M  CHG  2  77   1  78   1
M  ISO  4  37 100  63 101  76 100  85 101
M  END
> <Batch ID>
0095

> <Smiles>
CCc1ncc(CC[101CH2:1][101O:1]c2ccc3c(c2)CN(C(=O)C(NC(=O)C(C)NC)C(C)(C)C)C(C(=O)NC2CCCc4ccccc42)C3)cc1CN(C)CC[100NH:0][100C:0](=O)N1CCCC(n2nc(-c3ccc(Oc4ccc(F)cc4F)cc3)c(C(N)=O)c2N)C1

> <Shape>
0.266

> <Color>
0.049

> <Negative vol penalty>
0.000

$$$$

  -OEChem-04052319213D

 88 96  0     1  0  0  0  0  0999 V2000
  -15.7966  -26.7490   21.7190 C   0  0  0  0  0  0  0  0  0  0  0  0
  -16.3372  -25.4777   21.5551 C   0  0  0  0  0  0  0  0  0  0  0  0
  -28.6416  -23.5838   20.6723 C   0  0  0  0  0  0  0  0  0  0  0  0
  -29.8421  -23.1543   18.6201 C   0  0  0  0  0  0  0  0  0  0  0  0
  -16.6238  -27.8186   22.0588 C   0  0  0  0  0  0  0  0  0  0  0  0
  -17.7058  -25.2754   21.7300 C   0  0  0  0  0  0  0  0  0  0  0  0
  -20.4262  -20.2992   24.0413 C   0  0  0  0  0  0  0  0  0  0  0  0
  -29.0804  -24.9077   20.6519 C   0  0  0  0  0  0  0  0  0  0  0  0
  -30.2808  -24.4782   18.5997 C   0  0  0  0  0  0  0  0  0  0  0  0
  -21.0408  -19.2016   23.4402 C   0  0  0  0  0  0  0  0  0  0  0  0
  -31.8983  -26.6095   21.4183 C   0  0  0  0  0  0  0  0  0  0  0  0
  -32.3754  -27.1518   22.6116 C   0  0  0  0  0  0  0  0  0  0  0  0
  -23.1878  -20.2713   23.6961 C   0  0  0  0  0  0  0  0  0  0  0  0
  -24.2130  -12.8354   20.5231 C   0  0  0  0  0  0  0  0  0  0  0  0
  -30.6577  -28.8488   22.5271 C   0  0  0  0  0  0  0  0  0  0  0  0
  -26.0932  -13.1532   21.7203 C   0  0  0  0  0  0  0  0  0  0  0  0
  -29.0225  -22.7071   19.6565 C   0  0  0  0  0  0  0  0  0  0  0  0
  -27.3954  -20.8234   19.0979 C   0  0  0  0  0  0  0  0  0  0  0  0
  -18.0017  -27.6275   22.2474 C   0  0  0  0  0  0  0  0  0  0  0  0
  -21.1879  -21.3976   24.4652 C   0  0  0  0  0  0  0  0  0  0  0  0
  -18.5525  -26.3438   22.0714 C   0  0  0  0  0  0  0  0  0  0  0  0
  -22.5807  -21.3805   24.3047 C   0  0  0  0  0  0  0  0  0  0  0  0
  -24.7224  -13.0682   21.8244 C   0  0  0  0  0  0  0  0  0  0  0  0
  -29.8999  -25.3549   19.6156 C   0  0  0  0  0  0  0  0  0  0  0  0
  -22.4215  -19.1888   23.2649 C   0  0  0  0  0  0  0  0  0  0  0  0
  -30.8009  -27.1868   20.7794 C   0  0  0  0  0  0  0  0  0  0  0  0
  -31.7551  -28.2714   23.1660 C   0  0  0  0  0  0  0  0  0  0  0  0
  -30.1806  -28.3064   21.3338 C   0  0  0  0  0  0  0  0  0  0  0  0
  -28.5701  -21.3392   19.6773 C   0  0  0  0  0  0  0  0  0  0  0  0
  -25.2881  -12.7850   19.6634 C   0  0  0  0  0  0  0  0  0  0  0  0
  -27.4258  -19.4829   19.3952 C   0  0  0  0  0  0  0  0  0  0  0  0
  -26.3685  -21.4960   18.3570 C   0  0  0  0  0  0  0  0  0  0  0  0
  -21.2963  -24.4811   23.7007 C   0  0  0  0  0  0  0  0  0  0  0  0
  -23.3967  -24.6189   26.1688 C   0  0  0  0  0  0  0  0  0  0  0  0
  -25.6357  -22.9880   28.1623 C   0  0  0  0  0  0  0  0  0  0  0  0
  -30.6106  -14.7746   19.4747 C   0  0  0  0  0  0  0  0  0  0  0  0
  -18.8632  -28.8232   22.5679 C   0  0  0  0  0  0  0  0  0  0  0  0
  -20.5127  -22.5623   25.1361 C   0  0  0  0  0  0  0  0  0  0  0  0
  -23.4457  -22.5259   24.7608 C   0  0  0  0  0  0  0  0  0  0  0  0
  -20.2445  -28.4531   23.1022 C   0  0  0  0  0  0  0  0  0  0  0  0
  -30.3861  -16.8538   22.5289 C   0  0  0  0  0  0  0  0  0  0  0  0
  -20.8730  -27.3592   22.2449 C   0  0  0  0  0  0  0  0  0  0  0  0
  -29.8636  -18.1839   21.9887 C   0  0  0  0  0  0  0  0  0  0  0  0
  -31.1902  -16.0921   21.4797 C   0  0  0  0  0  0  0  0  0  0  0  0
  -29.9368  -17.2044   19.6615 C   0  0  0  0  0  0  0  0  0  0  0  0
  -20.0284  -26.0797   22.2768 C   0  0  1  0  0  0  0  0  0  0  0  0
  -21.3291  -23.8491   25.0635 C   0  0  1  0  0  0  0  0  0  0  0  0
  -29.0830  -17.9756   20.6793 C   0  0  2  0  0  0  0  0  0  0  0  0
  -24.5885  -13.6736   17.4107 C   0  0  0  0  0  0  0  0  0  0  0  0
  -24.7706  -11.1871   17.7838 C   0  0  0  0  0  0  0  0  0  0  0  0
  -27.2232  -23.3736   30.0672 C   0  0  0  0  0  0  0  0  0  0  0  0
  -23.1094  -11.8850   23.3303 C   0  0  0  0  0  0  0  0  0  0  0  0
  -24.7556  -13.4053   24.3890 C   0  0  0  0  0  0  0  0  0  0  0  0
  -25.3651  -25.9510   24.2555 C   0  0  0  0  0  0  0  0  0  0  0  0
  -27.1904  -25.4474   25.8934 C   0  0  0  0  0  0  0  0  0  0  0  0
  -25.3061  -26.9443   26.5500 C   0  0  0  0  0  0  0  0  0  0  0  0
  -29.7488  -13.5975   17.4869 C   0  0  0  0  0  0  0  0  0  0  0  0
  -24.1907  -21.0815   29.9048 C   0  0  0  0  0  0  0  0  0  0  0  0
  -23.4775  -15.7671   22.8467 C   0  0  0  0  0  0  0  0  0  0  0  0
  -22.8664  -14.3707   23.0144 C   0  0  0  0  0  0  0  0  0  0  0  0
  -27.7774  -13.0009   19.8873 C   0  0  0  0  0  0  0  0  0  0  0  0
  -28.1358  -14.3201   19.2079 C   0  0  0  0  0  0  0  0  0  0  0  0
  -22.4018  -16.8467   22.8525 C   0  0  0  0  0  0  0  0  0  1  0  0
  -25.3242  -12.5683   18.2023 C   0  0  0  0  0  0  0  0  0  0  0  0
  -24.8914  -24.4618   26.3107 C   0  0  1  0  0  0  0  0  0  0  0  0
  -25.8129  -22.9661   29.6698 C   0  0  2  0  0  0  0  0  0  0  0  0
  -23.8972  -13.2023   23.1171 C   0  0  0  0  0  0  0  0  0  0  0  0
  -25.6720  -25.6802   25.7420 C   0  0  0  0  0  0  0  0  0  0  0  0
  -29.2940  -20.4027   20.2961 N   0  0  0  0  0  0  0  0  0  0  0  0
  -26.4259  -12.9792   20.4023 N   0  0  0  0  0  0  0  0  0  0  0  0
  -28.5721  -19.2849   20.1073 N   0  0  0  0  0  0  0  0  0  0  0  0
  -22.7381  -23.6445   25.4055 N   0  0  0  0  0  0  0  0  0  0  0  0
  -30.4414  -15.9460   20.2310 N   0  0  0  0  0  0  0  0  0  0  0  0
  -26.5836  -18.4659   19.1146 N   0  0  0  0  0  0  0  0  0  0  0  0
  -26.4938  -22.8753   18.1424 N   0  0  0  0  0  0  0  0  0  0  0  0
  -20.2470  -25.3604   23.5134 N   0  0  0  0  0  0  0  0  0  0  0  0
  -25.1419  -24.1983   27.7236 N   0  0  0  0  0  0  0  0  0  0  0  0
  -29.5126  -14.3373   18.7186 N   0  0  0  0  0  0  0  0  0  0  0  0
  -25.5510  -21.5991   30.2024 N   0  3  0  0  0  0  0  0  0  0  0  0
  -25.3612  -20.8946   17.9128 O   0  0  0  0  0  0  0  0  0  0  0  0
  -22.1600  -24.1934   22.8803 O   0  0  0  0  0  0  0  0  0  0  0  0
  -22.8332  -25.5671   26.7211 O   0  0  0  0  0  0  0  0  0  0  0  0
  -25.9114  -22.0287   27.4452 O   0  0  0  0  0  0  0  0  0  0  0  0
  -31.6790  -14.1498   19.4828 O   0  0  0  0  0  0  0  0  0  0  0  0
  -30.3280  -26.6468   19.5952 O   0  0  0  0  0  0  0  0  0  0  0  0
  -23.0238  -18.1190   22.6778 O   0  0  0  0  0  0  0  0  0  1  0  0
  -32.2124  -28.7912   24.3127 F   0  0  0  0  0  0  0  0  0  0  0  0
  -29.1253  -28.8647   20.7252 F   0  0  0  0  0  0  0  0  0  0  0  0
  1  2  1  0  0  0  0
  1  5  2  0  0  0  0
  2  6  2  0  0  0  0
  3  8  2  0  0  0  0
  3 17  1  0  0  0  0
  4  9  1  0  0  0  0
  4 17  2  0  0  0  0
  5 19  1  0  0  0  0
  6 21  1  0  0  0  0
  7 10  2  0  0  0  0
  7 20  1  0  0  0  0
  8 24  1  0  0  0  0
  9 24  2  0  0  0  0
 10 25  1  0  0  0  0
 11 12  2  0  0  0  0
 11 26  1  0  0  0  0
 12 27  1  0  0  0  0
 13 22  1  0  0  0  0
 13 25  2  0  0  0  0
 14 23  1  0  0  0  0
 14 30  2  0  0  0  0
 15 27  2  0  0  0  0
 15 28  1  0  0  0  0
 16 23  2  0  0  0  0
 16 70  1  0  0  0  0
 17 29  1  0  0  0  0
 18 29  1  0  0  0  0
 18 31  2  0  0  0  0
 18 32  1  0  0  0  0
 19 21  2  0  0  0  0
 19 37  1  0  0  0  0
 20 22  2  0  0  0  0
 20 38  1  0  0  0  0
 21 46  1  0  0  0  0
 22 39  1  0  0  0  0
 23 67  1  0  0  0  0
 24 85  1  0  0  0  0
 25 86  1  0  0  0  0
 26 28  2  0  0  0  0
 26 85  1  0  0  0  0
 27 87  1  0  0  0  0
 28 88  1  0  0  0  0
 29 69  2  0  0  0  0
 30 64  1  0  0  0  0
 30 70  1  0  0  0  0
 31 71  1  0  0  0  0
 31 74  1  0  0  0  0
 32 75  1  0  0  0  0
 32 80  2  0  0  0  0
 33 47  1  0  0  0  0
 33 76  1  0  0  0  0
 33 81  2  0  0  0  0
 34 65  1  0  0  0  0
 34 72  1  0  0  0  0
 34 82  2  0  0  0  0
 35 66  1  0  0  0  0
 35 77  1  0  0  0  0
 35 83  2  0  0  0  0
 36 73  1  0  0  0  0
 36 78  1  0  0  0  0
 36 84  2  0  0  0  0
 37 40  1  0  0  0  0
 38 47  1  0  0  0  0
 39 72  1  0  0  0  0
 40 42  1  0  0  0  0
 41 43  1  0  0  0  0
 41 44  1  0  0  0  0
 42 46  1  0  0  0  0
 43 48  1  0  0  0  0
 44 73  1  0  0  0  0
 45 48  1  0  0  0  0
 45 73  1  0  0  0  0
 46 76  1  0  0  0  0
 47 72  1  0  0  0  0
 48 71  1  0  0  0  0
 49 64  1  0  0  0  0
 50 64  1  0  0  0  0
 51 66  1  0  0  0  0
 52 67  1  0  0  0  0
 53 67  1  0  0  0  0
 54 68  1  0  0  0  0
 55 68  1  0  0  0  0
 56 68  1  0  0  0  0
 57 78  1  0  0  0  0
 58 79  1  0  0  0  0
 59 60  1  0  0  0  0
 59 63  1  0  0  0  0
 60 67  1  0  0  0  0
 61 62  1  0  0  0  0
 61 70  1  0  0  0  0
 62 78  1  0  0  0  0
 63 86  1  0  0  0  0
 65 68  1  0  0  0  0
 65 77  1  0  0  0  0
 66 79  1  0  0  0  0
 69 71  1  0  0  0  0
M  CHG  1  79   1
M  ISO  4  36 100  63 101  78 100  86 101
M  END
> <Batch ID>
0095

> <Smiles>
CNC(C)C(=O)NC(C(=O)N1Cc2cc([101O:1][101CH2:1]CCC(C)(C)c3cc(C(C)C)n(CC[100N:0](C)[100C:0](=O)N4CCCC(n5nc(-c6ccc(Oc7ccc(F)cc7F)cc6)c(C(N)=O)c5N)C4)c3)ccc2CC1C(=O)NC1CCCc2ccccc21)C(C)(C)C

> <Shape>
0.218

> <Color>
0.066

> <Negative vol penalty>
0.000

$$$$

  -OEChem-04052319213D

 87 95  0     1  0  0  0  0  0999 V2000
  -24.1868  -30.0208   32.8632 C   0  0  0  0  0  0  0  0  0  0  0  0
  -25.3836  -29.5223   32.3585 C   0  0  0  0  0  0  0  0  0  0  0  0
  -23.1203   -9.8759   19.9471 C   0  0  0  0  0  0  0  0  0  0  0  0
  -23.9125   -9.8959   22.2295 C   0  0  0  0  0  0  0  0  0  0  0  0
  -23.1858  -29.1423   33.2756 C   0  0  0  0  0  0  0  0  0  0  0  0
  -25.5804  -28.1449   32.2670 C   0  0  0  0  0  0  0  0  0  0  0  0
  -26.9967  -25.0138   25.9360 C   0  0  0  0  0  0  0  0  0  0  0  0
  -22.4047   -8.7068   20.2057 C   0  0  0  0  0  0  0  0  0  0  0  0
  -23.1969   -8.7268   22.4881 C   0  0  0  0  0  0  0  0  0  0  0  0
  -27.4796  -24.3686   24.7972 C   0  0  0  0  0  0  0  0  0  0  0  0
  -19.9953   -7.8596   23.1351 C   0  0  0  0  0  0  0  0  0  0  0  0
  -19.2562   -7.8019   24.3165 C   0  0  0  0  0  0  0  0  0  0  0  0
  -26.5569  -18.8728   18.0409 C   0  0  0  0  0  0  0  0  0  0  0  0
  -27.4428  -22.2526   25.9674 C   0  0  0  0  0  0  0  0  0  0  0  0
  -20.5489   -5.8903   25.0320 C   0  0  0  0  0  0  0  0  0  0  0  0
  -27.7605  -18.2195   18.1886 C   0  0  0  0  0  0  0  0  0  0  0  0
  -23.8742  -10.4704   20.9590 C   0  0  0  0  0  0  0  0  0  0  0  0
  -24.1605  -13.0024   20.8385 C   0  0  0  0  0  0  0  0  0  0  0  0
  -23.3667  -27.7534   33.1801 C   0  0  0  0  0  0  0  0  0  0  0  0
  -26.7202  -24.2775   27.0914 C   0  0  0  0  0  0  0  0  0  0  0  0
  -24.5814  -27.2469   32.6798 C   0  0  0  0  0  0  0  0  0  0  0  0
  -26.9472  -22.8915   27.1071 C   0  0  0  0  0  0  0  0  0  0  0  0
  -26.1907  -19.3777   19.3129 C   0  0  0  0  0  0  0  0  0  0  0  0
  -22.4430   -8.1323   21.4761 C   0  0  0  0  0  0  0  0  0  0  0  0
  -27.7023  -22.9915   24.8130 C   0  0  0  0  0  0  0  0  0  0  0  0
  -21.0112   -6.9326   22.9020 C   0  0  0  0  0  0  0  0  0  0  0  0
  -19.5330   -6.8173   25.2650 C   0  0  0  0  0  0  0  0  0  0  0  0
  -21.2880   -5.9480   23.8504 C   0  0  0  0  0  0  0  0  0  0  0  0
  -24.6140  -11.6778   20.6924 C   0  0  0  0  0  0  0  0  0  0  0  0
  -27.1818  -19.0177   20.1992 C   0  0  0  0  0  0  0  0  0  0  0  0
  -25.2311  -13.7755   20.4610 C   0  0  0  0  0  0  0  0  0  0  0  0
  -22.8854  -13.4905   21.2763 C   0  0  0  0  0  0  0  0  0  0  0  0
  -25.4897  -24.3061   30.6355 C   0  0  0  0  0  0  0  0  0  0  0  0
  -24.3270  -21.7964   29.3088 C   0  0  0  0  0  0  0  0  0  0  0  0
  -22.9115  -19.3759   27.3660 C   0  0  0  0  0  0  0  0  0  0  0  0
  -30.8289  -14.6066   21.0004 C   0  0  0  0  0  0  0  0  0  0  0  0
  -22.2744  -26.8428   33.6825 C   0  0  0  0  0  0  0  0  0  0  0  0
  -26.2572  -24.9399   28.3605 C   0  0  0  0  0  0  0  0  0  0  0  0
  -26.6684  -22.1453   28.3833 C   0  0  0  0  0  0  0  0  0  0  0  0
  -22.4156  -25.4003   33.2034 C   0  0  0  0  0  0  0  0  0  0  0  0
  -29.5727  -12.5390   18.1989 C   0  0  0  0  0  0  0  0  0  0  0  0
  -23.8520  -24.9178   33.3788 C   0  0  0  0  0  0  0  0  0  0  0  0
  -28.1576  -12.1861   18.6538 C   0  0  0  0  0  0  0  0  0  0  0  0
  -30.5075  -12.7710   19.3821 C   0  0  0  0  0  0  0  0  0  0  0  0
  -28.5974  -13.4339   20.8056 C   0  0  0  0  0  0  0  0  0  0  0  0
  -24.8228  -25.7594   32.5418 C   0  0  1  0  0  0  0  0  0  0  0  0
  -25.2738  -24.0747   29.1688 C   0  0  1  0  0  0  0  0  0  0  0  0
  -27.6189  -13.2394   19.6376 C   0  0  2  0  0  0  0  0  0  0  0  0
  -21.3249  -17.4351   27.4813 C   0  0  0  0  0  0  0  0  0  0  0  0
  -21.2441  -19.0209   20.1222 C   0  0  0  0  0  0  0  0  0  0  0  0
  -22.5227  -20.7554   21.3939 C   0  0  0  0  0  0  0  0  0  0  0  0
  -26.4896  -20.1128   30.6478 C   0  0  0  0  0  0  0  0  0  0  0  0
  -25.2687  -18.0649   29.8836 C   0  0  0  0  0  0  0  0  0  0  0  0
  -24.1658  -19.6593   31.4534 C   0  0  0  0  0  0  0  0  0  0  0  0
  -31.2155  -16.8103   22.0368 C   0  0  0  0  0  0  0  0  0  0  0  0
  -21.0543  -20.6299   25.4328 C   0  0  0  0  0  0  0  0  0  0  0  0
  -24.9696  -20.1472   19.6231 C   0  0  0  0  0  0  0  0  0  0  0  0
  -27.3101  -19.2880   21.6770 C   0  0  0  0  0  0  0  0  0  0  0  0
  -23.7117  -19.2528   19.7094 C   0  0  0  0  0  0  0  0  0  0  0  0
  -27.7370  -20.7201   22.0065 C   0  0  0  0  0  0  0  0  0  0  0  0
  -29.3428  -17.7509   20.0578 C   0  0  0  0  0  0  0  0  0  0  0  0
  -29.1030  -16.4477   20.8156 C   0  0  0  0  0  0  0  0  0  0  0  0
  -27.7809  -21.0080   23.5027 C   0  0  0  0  0  0  0  0  0  1  0  0
  -24.4847  -20.3222   29.0345 C   0  0  1  0  0  0  0  0  0  0  0  0
  -21.4707  -18.9242   27.2093 C   0  0  2  0  0  0  0  0  0  0  0  0
  -22.4157  -20.0045   20.0659 C   0  0  0  0  0  0  0  0  0  0  0  0
  -25.1107  -19.5594   30.2360 C   0  0  0  0  0  0  0  0  0  0  0  0
  -25.8745  -11.6095   20.2560 N   0  0  0  0  0  0  0  0  0  0  0  0
  -28.1310  -18.3143   19.5046 N   0  0  0  0  0  0  0  0  0  0  0  0
  -26.2222  -12.9009   20.1245 N   0  0  0  0  0  0  0  0  0  0  0  0
  -25.4095  -22.6206   28.9783 N   0  0  0  0  0  0  0  0  0  0  0  0
  -29.9515  -13.7441   20.3230 N   0  0  0  0  0  0  0  0  0  0  0  0
  -25.4121  -15.1113   20.3872 N   0  0  0  0  0  0  0  0  0  0  0  0
  -21.8980  -12.5595   21.6264 N   0  0  0  0  0  0  0  0  0  0  0  0
  -24.7650  -25.3637   31.1509 N   0  0  0  0  0  0  0  0  0  0  0  0
  -23.1665  -19.8371   28.6401 N   0  0  0  0  0  0  0  0  0  0  0  0
  -30.3398  -15.8761   21.3438 N   0  0  0  0  0  0  0  0  0  0  0  0
  -20.9893  -19.1987   25.8259 N   0  3  0  0  0  0  0  0  0  0  0  0
  -22.6239  -14.7157   21.3391 O   0  0  0  0  0  0  0  0  0  0  0  0
  -26.2561  -23.5782   31.2556 O   0  0  0  0  0  0  0  0  0  0  0  0
  -23.2759  -22.2080   29.8079 O   0  0  0  0  0  0  0  0  0  0  0  0
  -23.7299  -19.3213   26.4507 O   0  0  0  0  0  0  0  0  0  0  0  0
  -31.9868  -14.2652   21.2738 O   0  0  0  0  0  0  0  0  0  0  0  0
  -21.7447   -6.9916   21.7289 O   0  0  0  0  0  0  0  0  0  0  0  0
  -28.1695  -22.3674   23.6964 O   0  0  0  0  0  0  0  0  0  1  0  0
  -18.8241   -6.7630   26.4002 F   0  0  0  0  0  0  0  0  0  0  0  0
  -22.2636   -5.0554   23.6327 F   0  0  0  0  0  0  0  0  0  0  0  0
  1  2  1  0  0  0  0
  1  5  2  0  0  0  0
  2  6  2  0  0  0  0
  3  8  2  0  0  0  0
  3 17  1  0  0  0  0
  4  9  1  0  0  0  0
  4 17  2  0  0  0  0
  5 19  1  0  0  0  0
  6 21  1  0  0  0  0
  7 10  2  0  0  0  0
  7 20  1  0  0  0  0
  8 24  1  0  0  0  0
  9 24  2  0  0  0  0
 10 25  1  0  0  0  0
 11 12  2  0  0  0  0
 11 26  1  0  0  0  0
 12 27  1  0  0  0  0
 13 16  2  0  0  0  0
 13 23  1  0  0  0  0
 14 22  1  0  0  0  0
 14 25  2  0  0  0  0
 15 27  2  0  0  0  0
 15 28  1  0  0  0  0
 16 69  1  0  0  0  0
 17 29  1  0  0  0  0
 18 29  1  0  0  0  0
 18 31  2  0  0  0  0
 18 32  1  0  0  0  0
 19 21  2  0  0  0  0
 19 37  1  0  0  0  0
 20 22  2  0  0  0  0
 20 38  1  0  0  0  0
 21 46  1  0  0  0  0
 22 39  1  0  0  0  0
 23 30  2  0  0  0  0
 23 57  1  0  0  0  0
 24 84  1  0  0  0  0
 25 85  1  0  0  0  0
 26 28  2  0  0  0  0
 26 84  1  0  0  0  0
 27 86  1  0  0  0  0
 28 87  1  0  0  0  0
 29 68  2  0  0  0  0
 30 58  1  0  0  0  0
 30 69  1  0  0  0  0
 31 70  1  0  0  0  0
 31 73  1  0  0  0  0
 32 74  1  0  0  0  0
 32 79  2  0  0  0  0
 33 47  1  0  0  0  0
 33 75  1  0  0  0  0
 33 80  2  0  0  0  0
 34 64  1  0  0  0  0
 34 71  1  0  0  0  0
 34 81  2  0  0  0  0
 35 65  1  0  0  0  0
 35 76  1  0  0  0  0
 35 82  2  0  0  0  0
 36 72  1  0  0  0  0
 36 77  1  0  0  0  0
 36 83  2  0  0  0  0
 37 40  1  0  0  0  0
 38 47  1  0  0  0  0
 39 71  1  0  0  0  0
 40 42  1  0  0  0  0
 41 43  1  0  0  0  0
 41 44  1  0  0  0  0
 42 46  1  0  0  0  0
 43 48  1  0  0  0  0
 44 72  1  0  0  0  0
 45 48  1  0  0  0  0
 45 72  1  0  0  0  0
 46 75  1  0  0  0  0
 47 71  1  0  0  0  0
 48 70  1  0  0  0  0
 49 65  1  0  0  0  0
 50 66  1  0  0  0  0
 51 66  1  0  0  0  0
 52 67  1  0  0  0  0
 53 67  1  0  0  0  0
 54 67  1  0  0  0  0
 55 77  1  0  0  0  0
 56 78  1  0  0  0  0
 57 59  1  0  0  0  0
 58 60  1  0  0  0  0
 59 66  1  0  0  0  0
 60 63  1  0  0  0  0
 61 62  1  0  0  0  0
 61 69  1  0  0  0  0
 62 77  1  0  0  0  0
 63 85  1  0  0  0  0
 64 67  1  0  0  0  0
 64 76  1  0  0  0  0
 65 78  1  0  0  0  0
 68 70  1  0  0  0  0
M  CHG  1  78   1
M  ISO  4  36 100  63 101  77 100  85 101
M  END
> <Batch ID>
0095

> <Smiles>
CNC(C)C(=O)NC(C(=O)N1Cc2cc([101O:1][101CH2:1]CCc3c(CCC(C)C)ccn3CC[100N:0](C)[100C:0](=O)N3CCCC(n4nc(-c5ccc(Oc6ccc(F)cc6F)cc5)c(C(N)=O)c4N)C3)ccc2CC1C(=O)NC1CCCc2ccccc21)C(C)(C)C

> <Shape>
0.189

> <Color>
0.180

> <Negative vol penalty>
0.000

$$$$

  -OEChem-04052319213D

 79 86  0     1  0  0  0  0  0999 V2000
  -16.7313  -28.9634   20.3336 C   0  0  0  0  0  0  0  0  0  0  0  0
  -17.9277  -29.1829   19.6585 C   0  0  0  0  0  0  0  0  0  0  0  0
  -26.5843  -12.6710   21.7066 C   0  0  0  0  0  0  0  0  0  0  0  0
  -25.9028  -14.0751   19.8623 C   0  0  0  0  0  0  0  0  0  0  0  0
  -16.7384  -28.3231   21.5721 C   0  0  0  0  0  0  0  0  0  0  0  0
  -19.1321  -28.7631   20.2220 C   0  0  0  0  0  0  0  0  0  0  0  0
  -25.5857  -26.2594   18.3784 C   0  0  0  0  0  0  0  0  0  0  0  0
  -25.3165  -12.0899   21.7326 C   0  0  0  0  0  0  0  0  0  0  0  0
  -24.6350  -13.4939   19.8884 C   0  0  0  0  0  0  0  0  0  0  0  0
  -26.9402  -26.5132   18.5900 C   0  0  0  0  0  0  0  0  0  0  0  0
  -23.6149   -9.7451   19.9893 C   0  0  0  0  0  0  0  0  0  0  0  0
  -23.5404   -8.3568   20.1020 C   0  0  0  0  0  0  0  0  0  0  0  0
  -26.8232  -25.3466   20.6982 C   0  0  0  0  0  0  0  0  0  0  0  0
  -22.2972   -8.5906   22.1604 C   0  0  0  0  0  0  0  0  0  0  0  0
  -26.8774  -13.6637   20.7715 C   0  0  0  0  0  0  0  0  0  0  0  0
  -29.3042  -13.8350   20.0041 C   0  0  0  0  0  0  0  0  0  0  0  0
  -17.9425  -27.8866   22.1467 C   0  0  0  0  0  0  0  0  0  0  0  0
  -24.8360  -25.5555   19.3317 C   0  0  0  0  0  0  0  0  0  0  0  0
  -19.1555  -28.1175   21.4700 C   0  0  0  0  0  0  0  0  0  0  0  0
  -25.4600  -25.0829   20.4951 C   0  0  0  0  0  0  0  0  0  0  0  0
  -24.3419  -12.5013   20.8235 C   0  0  0  0  0  0  0  0  0  0  0  0
  -27.5584  -26.0593   19.7514 C   0  0  0  0  0  0  0  0  0  0  0  0
  -23.0306  -10.5562   20.9622 C   0  0  0  0  0  0  0  0  0  0  0  0
  -22.8815   -7.7796   21.1875 C   0  0  0  0  0  0  0  0  0  0  0  0
  -22.3718   -9.9789   22.0477 C   0  0  0  0  0  0  0  0  0  0  0  0
  -28.1866  -14.2648   20.7444 C   0  0  0  0  0  0  0  0  0  0  0  0
  -30.2929  -14.7339   20.3219 C   0  0  0  0  0  0  0  0  0  0  0  0
  -29.4368  -12.7229   19.1090 C   0  0  0  0  0  0  0  0  0  0  0  0
  -22.3158  -26.2304   21.1474 C   0  0  0  0  0  0  0  0  0  0  0  0
  -22.5280  -23.0895   21.9297 C   0  0  0  0  0  0  0  0  0  0  0  0
  -24.4655  -20.2915   22.1836 C   0  0  0  0  0  0  0  0  0  0  0  0
  -30.1848  -20.4007   22.2525 C   0  0  0  0  0  0  0  0  0  0  0  0
  -17.9047  -27.2413   23.5093 C   0  0  0  0  0  0  0  0  0  0  0  0
  -23.3821  -25.2668   19.0761 C   0  0  0  0  0  0  0  0  0  0  0  0
  -24.7043  -24.3050   21.5402 C   0  0  0  0  0  0  0  0  0  0  0  0
  -19.1868  -26.4927   23.8645 C   0  0  0  0  0  0  0  0  0  0  0  0
  -31.7329  -17.6228   23.8535 C   0  0  0  0  0  0  0  0  0  0  0  0
  -20.4099  -27.3435   23.5371 C   0  0  0  0  0  0  0  0  0  0  0  0
  -31.1004  -16.4084   23.1714 C   0  0  0  0  0  0  0  0  0  0  0  0
  -30.7282  -18.7596   24.0268 C   0  0  0  0  0  0  0  0  0  0  0  0
  -29.4071  -17.9572   22.1072 C   0  0  0  0  0  0  0  0  0  0  0  0
  -20.4799  -27.6547   22.0372 C   0  0  1  0  0  0  0  0  0  0  0  0
  -22.5952  -24.9863   20.3526 C   0  0  1  0  0  0  0  0  0  0  0  0
  -30.3963  -16.8054   21.8600 C   0  0  2  0  0  0  0  0  0  0  0  0
  -24.3683  -17.8856   22.8905 C   0  0  0  0  0  0  0  0  0  0  0  0
  -32.0526  -26.0340   17.9262 C   0  0  0  0  0  0  0  0  0  0  0  0
  -30.8239  -21.1391   18.3055 C   0  0  0  0  0  0  0  0  0  0  0  0
  -22.5723  -23.9502   24.8567 C   0  0  0  0  0  0  0  0  0  0  0  0
  -23.4179  -21.6677   25.4427 C   0  0  0  0  0  0  0  0  0  0  0  0
  -21.1745  -21.9310   24.3841 C   0  0  0  0  0  0  0  0  0  0  0  0
  -25.1822  -19.3454   19.4725 C   0  0  0  0  0  0  0  0  0  0  0  0
  -29.5741  -21.9223   20.3894 C   0  0  0  0  0  0  0  0  0  0  0  0
  -31.1645  -24.5745   19.8106 C   0  0  0  0  0  0  0  0  0  0  0  0
  -29.7125  -26.4094   18.8062 C   0  0  0  0  0  0  0  0  0  1  0  0
  -23.2527  -22.2990   22.9922 C   0  0  1  0  0  0  0  0  0  0  0  0
  -24.2332  -18.8610   21.7316 C   0  0  2  0  0  0  0  0  0  0  0  0
  -31.1371  -25.9591   19.1533 C   0  0  2  0  0  0  0  0  0  0  0  0
  -30.7639  -22.1347   19.4560 C   0  0  2  0  0  0  0  0  0  0  0  0
  -22.6184  -22.4783   24.4003 C   0  0  0  0  0  0  0  0  0  0  0  0
  -28.4408  -15.3519   21.4776 N   0  0  0  0  0  0  0  0  0  0  0  0
  -29.7295  -15.6129   21.1995 N   0  0  0  0  0  0  0  0  0  0  0  0
  -23.2835  -24.0536   21.2474 N   0  0  0  0  0  0  0  0  0  0  0  0
  -30.0972  -19.0886   22.7463 N   0  0  0  0  0  0  0  0  0  0  0  0
  -31.5806  -14.8501   19.9337 N   0  0  0  0  0  0  0  0  0  0  0  0
  -28.3221  -11.9004   18.8956 N   0  0  0  0  0  0  0  0  0  0  0  0
  -20.9711  -26.5069   21.3053 N   0  0  0  0  0  0  0  0  0  0  0  0
  -23.2849  -20.9180   22.5228 N   0  0  0  0  0  0  0  0  0  0  0  0
  -29.5649  -20.6257   21.0294 N   0  0  0  0  0  0  0  0  0  0  0  0
  -25.2207  -18.4829   20.6814 N   0  3  0  0  0  0  0  0  0  0  0  0
  -30.7041  -23.5097   18.8879 N   0  3  0  0  0  0  0  0  0  0  0  0
  -30.5164  -12.4564   18.5286 O   0  0  0  0  0  0  0  0  0  0  0  0
  -23.2508  -26.8897   21.5863 O   0  0  0  0  0  0  0  0  0  0  0  0
  -21.3374  -22.8551   21.7082 O   0  0  0  0  0  0  0  0  0  0  0  0
  -25.5828  -20.8009   22.2345 O   0  0  0  0  0  0  0  0  0  0  0  0
  -30.7766  -21.3033   22.8541 O   0  0  0  0  0  0  0  0  0  0  0  0
  -23.1048  -11.9343   20.8485 O   0  0  0  0  0  0  0  0  0  0  0  0
  -28.8802  -26.3062   19.9607 O   0  0  0  0  0  0  0  0  0  1  0  0
  -22.8087   -6.4464   21.2948 F   0  0  0  0  0  0  0  0  0  0  0  0
  -21.8075  -10.7530   22.9849 F   0  0  0  0  0  0  0  0  0  0  0  0
  1  2  1  0  0  0  0
  1  5  2  0  0  0  0
  2  6  2  0  0  0  0
  3  8  2  0  0  0  0
  3 15  1  0  0  0  0
  4  9  1  0  0  0  0
  4 15  2  0  0  0  0
  5 17  1  0  0  0  0
  6 19  1  0  0  0  0
  7 10  2  0  0  0  0
  7 18  1  0  0  0  0
  8 21  1  0  0  0  0
  9 21  2  0  0  0  0
 10 22  1  0  0  0  0
 11 12  2  0  0  0  0
 11 23  1  0  0  0  0
 12 24  1  0  0  0  0
 13 20  1  0  0  0  0
 13 22  2  0  0  0  0
 14 24  2  0  0  0  0
 14 25  1  0  0  0  0
 15 26  1  0  0  0  0
 16 26  1  0  0  0  0
 16 27  2  0  0  0  0
 16 28  1  0  0  0  0
 17 19  2  0  0  0  0
 17 33  1  0  0  0  0
 18 20  2  0  0  0  0
 18 34  1  0  0  0  0
 19 42  1  0  0  0  0
 20 35  1  0  0  0  0
 21 76  1  0  0  0  0
 22 77  1  0  0  0  0
 23 25  2  0  0  0  0
 23 76  1  0  0  0  0
 24 78  1  0  0  0  0
 25 79  1  0  0  0  0
 26 60  2  0  0  0  0
 27 61  1  0  0  0  0
 27 64  1  0  0  0  0
 28 65  1  0  0  0  0
 28 71  2  0  0  0  0
 29 43  1  0  0  0  0
 29 66  1  0  0  0  0
 29 72  2  0  0  0  0
 30 55  1  0  0  0  0
 30 62  1  0  0  0  0
 30 73  2  0  0  0  0
 31 56  1  0  0  0  0
 31 67  1  0  0  0  0
 31 74  2  0  0  0  0
 32 63  1  0  0  0  0
 32 68  1  0  0  0  0
 32 75  2  0  0  0  0
 33 36  1  0  0  0  0
 34 43  1  0  0  0  0
 35 62  1  0  0  0  0
 36 38  1  0  0  0  0
 37 39  1  0  0  0  0
 37 40  1  0  0  0  0
 38 42  1  0  0  0  0
 39 44  1  0  0  0  0
 40 63  1  0  0  0  0
 41 44  1  0  0  0  0
 41 63  1  0  0  0  0
 42 66  1  0  0  0  0
 43 62  1  0  0  0  0
 44 61  1  0  0  0  0
 45 56  1  0  0  0  0
 46 57  1  0  0  0  0
 47 58  1  0  0  0  0
 48 59  1  0  0  0  0
 49 59  1  0  0  0  0
 50 59  1  0  0  0  0
 51 69  1  0  0  0  0
 52 58  1  0  0  0  0
 52 68  1  0  0  0  0
 53 57  1  0  0  0  0
 53 70  1  0  0  0  0
 54 57  1  0  0  0  0
 54 77  1  0  0  0  0
 55 59  1  0  0  0  0
 55 67  1  0  0  0  0
 56 69  1  0  0  0  0
 58 70  1  0  0  0  0
 60 61  1  0  0  0  0
M  CHG  2  69   1  70   1
M  ISO  4  32 100  54 101  68 100  77 101
M  END
> <Batch ID>
0095

> <Smiles>
CNC(C)C(=O)NC(C(=O)N1Cc2cc([101O:1][101CH2:1]C(C)CNC(C)C[100NH:0][100C:0](=O)N3CCCC(n4nc(-c5ccc(Oc6ccc(F)cc6F)cc5)c(C(N)=O)c4N)C3)ccc2CC1C(=O)NC1CCCc2ccccc21)C(C)(C)C

> <Shape>
0.240

> <Color>
0.080

> <Negative vol penalty>
0.000

$$$$

  -OEChem-04052319213D

 88 96  0     1  0  0  0  0  0999 V2000
  -33.9525  -31.8334   26.5648 C   0  0  0  0  0  0  0  0  0  0  0  0
  -32.8563  -31.1029   26.1175 C   0  0  0  0  0  0  0  0  0  0  0  0
  -23.0006   -9.8946   19.9812 C   0  0  0  0  0  0  0  0  0  0  0  0
  -23.7304   -9.9440   22.2838 C   0  0  0  0  0  0  0  0  0  0  0  0
  -35.2232  -31.2599   26.5520 C   0  0  0  0  0  0  0  0  0  0  0  0
  -33.0305  -29.7986   25.6559 C   0  0  0  0  0  0  0  0  0  0  0  0
  -29.1264  -25.1213   26.2774 C   0  0  0  0  0  0  0  0  0  0  0  0
  -26.4225  -18.9914   20.5220 C   0  0  0  0  0  0  0  0  0  0  0  0
  -27.1437  -18.6071   19.3916 C   0  0  0  0  0  0  0  0  0  0  0  0
  -22.2357   -8.7591   20.2480 C   0  0  0  0  0  0  0  0  0  0  0  0
  -22.9654   -8.8086   22.5506 C   0  0  0  0  0  0  0  0  0  0  0  0
  -28.1827  -24.5662   25.4142 C   0  0  0  0  0  0  0  0  0  0  0  0
  -23.2120   -5.4703   22.0750 C   0  0  0  0  0  0  0  0  0  0  0  0
  -23.8020   -4.4529   22.8249 C   0  0  0  0  0  0  0  0  0  0  0  0
  -29.7896  -22.8982   24.7397 C   0  0  0  0  0  0  0  0  0  0  0  0
  -28.4046  -18.7240   21.8774 C   0  0  0  0  0  0  0  0  0  0  0  0
  -22.0813   -4.6926   24.5038 C   0  0  0  0  0  0  0  0  0  0  0  0
  -23.7480  -10.4871   20.9991 C   0  0  0  0  0  0  0  0  0  0  0  0
  -24.1306  -13.0032   20.8248 C   0  0  0  0  0  0  0  0  0  0  0  0
  -35.4117  -29.9446   26.0991 C   0  0  0  0  0  0  0  0  0  0  0  0
  -30.4145  -24.5747   26.3702 C   0  0  0  0  0  0  0  0  0  0  0  0
  -34.3052  -29.2074   25.6358 C   0  0  0  0  0  0  0  0  0  0  0  0
  -30.7470  -23.4466   25.6067 C   0  0  0  0  0  0  0  0  0  0  0  0
  -27.0530  -19.0499   21.7649 C   0  0  0  0  0  0  0  0  0  0  0  0
  -28.4953  -18.2812   19.5041 C   0  0  0  0  0  0  0  0  0  0  0  0
  -29.1257  -18.3396   20.7470 C   0  0  0  0  0  0  0  0  0  0  0  0
  -22.2181   -8.2161   21.5327 C   0  0  0  0  0  0  0  0  0  0  0  0
  -28.5151  -23.4562   24.6431 C   0  0  0  0  0  0  0  0  0  0  0  0
  -22.0566   -6.0989   22.5395 C   0  0  0  0  0  0  0  0  0  0  0  0
  -23.2366   -4.0640   24.0393 C   0  0  0  0  0  0  0  0  0  0  0  0
  -21.4913   -5.7100   23.7539 C   0  0  0  0  0  0  0  0  0  0  0  0
  -24.5388  -11.6597   20.7241 C   0  0  0  0  0  0  0  0  0  0  0  0
  -25.2389  -13.7272   20.4589 C   0  0  0  0  0  0  0  0  0  0  0  0
  -22.8629  -13.5480   21.2144 C   0  0  0  0  0  0  0  0  0  0  0  0
  -33.3512  -25.6409   25.7849 C   0  0  0  0  0  0  0  0  0  0  0  0
  -34.2211  -22.7903   27.0656 C   0  0  0  0  0  0  0  0  0  0  0  0
  -33.3875  -19.5581   27.7759 C   0  0  0  0  0  0  0  0  0  0  0  0
  -30.7349  -14.6667   20.6973 C   0  0  0  0  0  0  0  0  0  0  0  0
  -36.8112  -29.3839   26.0597 C   0  0  0  0  0  0  0  0  0  0  0  0
  -31.4125  -25.1689   27.3259 C   0  0  0  0  0  0  0  0  0  0  0  0
  -32.1097  -22.8098   25.6847 C   0  0  0  0  0  0  0  0  0  0  0  0
  -36.8550  -27.8658   25.9061 C   0  0  0  0  0  0  0  0  0  0  0  0
  -29.5918  -12.2443   18.3517 C   0  0  0  0  0  0  0  0  0  0  0  0
  -35.8985  -27.4125   24.8078 C   0  0  0  0  0  0  0  0  0  0  0  0
  -28.1444  -11.9828   18.7720 C   0  0  0  0  0  0  0  0  0  0  0  0
  -30.4964  -12.4793   19.5594 C   0  0  0  0  0  0  0  0  0  0  0  0
  -28.5882  -13.2717   20.9028 C   0  0  0  0  0  0  0  0  0  0  0  0
  -34.4501  -27.7813   25.1509 C   0  0  1  0  0  0  0  0  0  0  0  0
  -32.8574  -24.8442   26.9593 C   0  0  1  0  0  0  0  0  0  0  0  0
  -27.6270  -13.0843   19.7165 C   0  0  2  0  0  0  0  0  0  0  0  0
  -29.2464  -17.8714   18.2800 C   0  0  0  0  0  0  0  0  0  0  0  0
  -34.3189  -17.4614   28.7925 C   0  0  0  0  0  0  0  0  0  0  0  0
  -33.6722  -19.8118   22.0219 C   0  0  0  0  0  0  0  0  0  0  0  0
  -33.1747  -19.2181   19.6190 C   0  0  0  0  0  0  0  0  0  0  0  0
  -35.8655  -22.3004   24.5425 C   0  0  0  0  0  0  0  0  0  0  0  0
  -35.9819  -19.8801   25.1723 C   0  0  0  0  0  0  0  0  0  0  0  0
  -36.9848  -21.6060   26.6684 C   0  0  0  0  0  0  0  0  0  0  0  0
  -31.3128  -19.5212   29.8861 C   0  0  0  0  0  0  0  0  0  0  0  0
  -30.9417  -20.4503   20.7050 C   0  0  0  0  0  0  0  0  0  0  0  0
  -26.2731  -19.4649   22.9869 C   0  0  0  0  0  0  0  0  0  0  0  0
  -26.2967  -20.9722   23.2501 C   0  0  0  0  0  0  0  0  0  0  0  0
  -30.8180  -16.8446   21.8844 C   0  0  0  0  0  0  0  0  0  0  0  0
  -27.6903  -21.5106   23.5522 C   0  0  0  0  0  0  0  0  0  1  0  0
  -30.5718  -17.9949   20.8916 C   0  0  2  0  0  0  0  0  0  0  0  0
  -34.4689  -21.4045   26.5206 C   0  0  1  0  0  0  0  0  0  0  0  0
  -33.5297  -18.7367   29.0445 C   0  0  2  0  0  0  0  0  0  0  0  0
  -32.8741  -18.9247   21.0801 C   0  0  0  0  0  0  0  0  0  0  0  0
  -35.8001  -21.3107   25.7228 C   0  0  0  0  0  0  0  0  0  0  0  0
  -25.8074  -11.5348   20.3252 N   0  0  0  0  0  0  0  0  0  0  0  0
  -26.2059  -12.8091   20.1720 N   0  0  0  0  0  0  0  0  0  0  0  0
  -33.0529  -23.4311   26.6291 N   0  0  0  0  0  0  0  0  0  0  0  0
  -29.9503  -13.5367   20.4136 N   0  0  0  0  0  0  0  0  0  0  0  0
  -25.4710  -15.0532   20.3577 N   0  0  0  0  0  0  0  0  0  0  0  0
  -21.8326  -12.6625   21.5592 N   0  0  0  0  0  0  0  0  0  0  0  0
  -33.9107  -26.8575   26.1257 N   0  0  0  0  0  0  0  0  0  0  0  0
  -34.3903  -20.4975   27.6605 N   0  0  0  0  0  0  0  0  0  0  0  0
  -30.1393  -15.6242   21.5093 N   0  0  0  0  0  0  0  0  0  0  0  0
  -32.1873  -18.3621   29.5723 N   0  3  0  0  0  0  0  0  0  0  0  0
  -31.4126  -19.1661   21.3231 N   0  3  1  0  0  0  0  0  0  0  0  0
  -22.6451  -14.7831   21.2398 O   0  0  0  0  0  0  0  0  0  0  0  0
  -33.2347  -25.1848   24.6535 O   0  0  0  0  0  0  0  0  0  0  0  0
  -35.0306  -23.2833   27.8552 O   0  0  0  0  0  0  0  0  0  0  0  0
  -32.4799  -19.3815   26.9662 O   0  0  0  0  0  0  0  0  0  0  0  0
  -31.8793  -14.8142   20.2550 O   0  0  0  0  0  0  0  0  0  0  0  0
  -21.4716   -7.1083   21.7934 O   0  0  0  0  0  0  0  0  0  0  0  0
  -27.5961  -22.9128   23.7993 O   0  0  0  0  0  0  0  0  0  1  0  0
  -23.8025   -3.0860   24.7586 F   0  0  0  0  0  0  0  0  0  0  0  0
  -20.3807   -6.3094   24.2047 F   0  0  0  0  0  0  0  0  0  0  0  0
  1  2  1  0  0  0  0
  1  5  2  0  0  0  0
  2  6  2  0  0  0  0
  3 10  2  0  0  0  0
  3 18  1  0  0  0  0
  4 11  1  0  0  0  0
  4 18  2  0  0  0  0
  5 20  1  0  0  0  0
  6 22  1  0  0  0  0
  7 12  2  0  0  0  0
  7 21  1  0  0  0  0
  8  9  2  0  0  0  0
  8 24  1  0  0  0  0
  9 25  1  0  0  0  0
 10 27  1  0  0  0  0
 11 27  2  0  0  0  0
 12 28  1  0  0  0  0
 13 14  2  0  0  0  0
 13 29  1  0  0  0  0
 14 30  1  0  0  0  0
 15 23  1  0  0  0  0
 15 28  2  0  0  0  0
 16 24  2  0  0  0  0
 16 26  1  0  0  0  0
 17 30  2  0  0  0  0
 17 31  1  0  0  0  0
 18 32  1  0  0  0  0
 19 32  1  0  0  0  0
 19 33  2  0  0  0  0
 19 34  1  0  0  0  0
 20 22  2  0  0  0  0
 20 39  1  0  0  0  0
 21 23  2  0  0  0  0
 21 40  1  0  0  0  0
 22 48  1  0  0  0  0
 23 41  1  0  0  0  0
 24 60  1  0  0  0  0
 25 26  2  0  0  0  0
 25 51  1  0  0  0  0
 26 64  1  0  0  0  0
 27 85  1  0  0  0  0
 28 86  1  0  0  0  0
 29 31  2  0  0  0  0
 29 85  1  0  0  0  0
 30 87  1  0  0  0  0
 31 88  1  0  0  0  0
 32 69  2  0  0  0  0
 33 70  1  0  0  0  0
 33 73  1  0  0  0  0
 34 74  1  0  0  0  0
 34 80  2  0  0  0  0
 35 49  1  0  0  0  0
 35 75  1  0  0  0  0
 35 81  2  0  0  0  0
 36 65  1  0  0  0  0
 36 71  1  0  0  0  0
 36 82  2  0  0  0  0
 37 66  1  0  0  0  0
 37 76  1  0  0  0  0
 37 83  2  0  0  0  0
 38 72  1  0  0  0  0
 38 77  1  0  0  0  0
 38 84  2  0  0  0  0
 39 42  1  0  0  0  0
 40 49  1  0  0  0  0
 41 71  1  0  0  0  0
 42 44  1  0  0  0  0
 43 45  1  0  0  0  0
 43 46  1  0  0  0  0
 44 48  1  0  0  0  0
 45 50  1  0  0  0  0
 46 72  1  0  0  0  0
 47 50  1  0  0  0  0
 47 72  1  0  0  0  0
 48 75  1  0  0  0  0
 49 71  1  0  0  0  0
 50 70  1  0  0  0  0
 52 66  1  0  0  0  0
 53 67  1  0  0  0  0
 54 67  1  0  0  0  0
 55 68  1  0  0  0  0
 56 68  1  0  0  0  0
 57 68  1  0  0  0  0
 58 78  1  0  0  0  0
 59 79  1  0  0  0  0
 60 61  1  0  0  0  0
 61 63  1  0  0  0  0
 62 64  1  0  0  0  0
 62 77  1  0  0  0  0
 63 86  1  0  0  0  0
 64 79  1  0  0  0  0
 65 68  1  0  0  0  0
 65 76  1  0  0  0  0
 66 78  1  0  0  0  0
 67 79  1  0  0  0  0
 69 70  1  0  0  0  0
M  CHG  2  78   1  79   1
M  ISO  4  38 100  63 101  77 100  86 101
M  END
> <Batch ID>
0095

> <Smiles>
CNC(C)C(=O)NC(C(=O)N1Cc2cc([101O:1][101CH2:1]CCc3ccc(C)c(C(C[100NH:0][100C:0](=O)N4CCCC(n5nc(-c6ccc(Oc7ccc(F)cc7F)cc6)c(C(N)=O)c5N)C4)N(C)C(C)C)c3)ccc2CC1C(=O)NC1CCCc2ccccc21)C(C)(C)C

> <Shape>
0.201

> <Color>
0.193

> <Negative vol penalty>
0.000

$$$$

  -OEChem-04052319213D

 88 96  0     1  0  0  0  0  0999 V2000
  -18.4803  -24.9590   23.9378 C   0  0  0  0  0  0  0  0  0  0  0  0
  -19.8261  -24.7199   23.6790 C   0  0  0  0  0  0  0  0  0  0  0  0
  -24.5228  -14.8520   20.2212 C   0  0  0  0  0  0  0  0  0  0  0  0
  -26.7005  -15.8407   20.5634 C   0  0  0  0  0  0  0  0  0  0  0  0
  -17.9143  -26.1878   23.6007 C   0  0  0  0  0  0  0  0  0  0  0  0
  -20.6065  -25.7092   23.0817 C   0  0  0  0  0  0  0  0  0  0  0  0
  -26.5273  -26.8649   24.1376 C   0  0  0  0  0  0  0  0  0  0  0  0
  -25.0983  -13.8585   19.4293 C   0  0  0  0  0  0  0  0  0  0  0  0
  -27.2760  -14.8471   19.7715 C   0  0  0  0  0  0  0  0  0  0  0  0
  -27.6892  -26.5053   23.4563 C   0  0  0  0  0  0  0  0  0  0  0  0
  -28.1960  -11.6133   20.1130 C   0  0  0  0  0  0  0  0  0  0  0  0
  -29.3649  -11.0114   20.5788 C   0  0  0  0  0  0  0  0  0  0  0  0
  -27.6667  -28.6277   22.3099 C   0  0  0  0  0  0  0  0  0  0  0  0
  -27.2353  -26.1291   19.0602 C   0  0  0  0  0  0  0  0  0  0  0  0
  -30.5377  -11.7605   18.6038 C   0  0  0  0  0  0  0  0  0  0  0  0
  -25.3239  -15.8432   20.7883 C   0  0  0  0  0  0  0  0  0  0  0  0
  -24.5267  -16.8364   22.9986 C   0  0  0  0  0  0  0  0  0  0  0  0
  -18.6905  -27.1961   23.0078 C   0  0  0  0  0  0  0  0  0  0  0  0
  -25.9192  -28.1063   23.9018 C   0  0  0  0  0  0  0  0  0  0  0  0
  -20.0501  -26.9521   22.7351 C   0  0  0  0  0  0  0  0  0  0  0  0
  -26.4985  -29.0017   22.9915 C   0  0  0  0  0  0  0  0  0  0  0  0
  -28.4237  -25.4813   18.7418 C   0  0  0  0  0  0  0  0  0  0  0  0
  -28.3867  -24.2529   18.0914 C   0  0  0  0  0  0  0  0  0  0  0  0
  -26.4749  -13.8560   19.2044 C   0  0  0  0  0  0  0  0  0  0  0  0
  -28.2575  -27.3855   22.5401 C   0  0  0  0  0  0  0  0  0  0  0  0
  -28.1979  -12.2887   18.8926 C   0  0  0  0  0  0  0  0  0  0  0  0
  -30.5357  -11.0850   19.8243 C   0  0  0  0  0  0  0  0  0  0  0  0
  -29.3688  -12.3624   18.1380 C   0  0  0  0  0  0  0  0  0  0  0  0
  -24.7300  -16.8701   21.6060 C   0  0  0  0  0  0  0  0  0  0  0  0
  -26.0457  -25.5114   18.7093 C   0  0  0  0  0  0  0  0  0  0  0  0
  -27.1456  -23.7191   17.7841 C   0  0  0  0  0  0  0  0  0  0  0  0
  -23.9349  -18.0415   23.2885 C   0  0  0  0  0  0  0  0  0  0  0  0
  -24.8444  -15.8077   23.9455 C   0  0  0  0  0  0  0  0  0  0  0  0
  -23.0950  -29.0447   22.7850 C   0  0  0  0  0  0  0  0  0  0  0  0
  -24.1878  -31.9882   23.5998 C   0  0  0  0  0  0  0  0  0  0  0  0
  -26.8617  -34.0228   24.1977 C   0  0  0  0  0  0  0  0  0  0  0  0
  -24.1371  -23.2779   20.5692 C   0  0  0  0  0  0  0  0  0  0  0  0
  -18.0232  -28.4912   22.6180 C   0  0  0  0  0  0  0  0  0  0  0  0
  -24.6810  -28.4902   24.6647 C   0  0  0  0  0  0  0  0  0  0  0  0
  -25.8961  -30.3547   22.7173 C   0  0  0  0  0  0  0  0  0  0  0  0
  -19.0082  -29.6215   22.3304 C   0  0  0  0  0  0  0  0  0  0  0  0
  -21.1392  -21.4046   21.3440 C   0  0  0  0  0  0  0  0  0  0  0  0
  -20.1381  -29.1291   21.4317 C   0  0  0  0  0  0  0  0  0  0  0  0
  -21.7139  -20.0166   21.6327 C   0  0  0  0  0  0  0  0  0  0  0  0
  -21.8909  -22.0883   20.2058 C   0  0  0  0  0  0  0  0  0  0  0  0
  -23.9385  -20.8112   20.7056 C   0  0  0  0  0  0  0  0  0  0  0  0
  -20.9353  -28.0092   22.1112 C   0  0  1  0  0  0  0  0  0  0  0  0
  -23.8599  -29.5701   23.9668 C   0  0  1  0  0  0  0  0  0  0  0  0
  -23.2358  -20.0769   21.8619 C   0  0  2  0  0  0  0  0  0  0  0  0
  -29.6455  -23.5360   17.7352 C   0  0  0  0  0  0  0  0  0  0  0  0
  -27.4405  -36.3876   24.8062 C   0  0  0  0  0  0  0  0  0  0  0  0
  -27.7060  -21.2669   17.9204 C   0  0  0  0  0  0  0  0  0  0  0  0
  -27.7517  -22.4454   15.6967 C   0  0  0  0  0  0  0  0  0  0  0  0
  -25.5855  -21.9129   16.7944 C   0  0  0  0  0  0  0  0  0  0  0  0
  -23.5617  -32.8728   20.7476 C   0  0  0  0  0  0  0  0  0  0  0  0
  -25.0023  -34.8846   21.1295 C   0  0  0  0  0  0  0  0  0  0  0  0
  -22.9557  -34.5375   22.5128 C   0  0  0  0  0  0  0  0  0  0  0  0
  -28.2002  -33.1747   26.6973 C   0  0  0  0  0  0  0  0  0  0  0  0
  -29.7338  -26.1285   19.1139 C   0  0  0  0  0  0  0  0  0  0  0  0
  -30.4063  -25.4994   20.3360 C   0  0  0  0  0  0  0  0  0  0  0  0
  -24.1815  -25.7531   20.4001 C   0  0  0  0  0  0  0  0  0  0  0  0
  -29.5923  -25.6475   21.6162 C   0  0  0  0  0  0  0  0  0  1  0  0
  -24.7508  -26.1782   19.0340 C   0  0  2  0  0  0  0  0  0  0  0  0
  -24.9764  -33.0677   22.8985 C   0  0  1  0  0  0  0  0  0  0  0  0
  -27.1595  -34.9881   25.3308 C   0  0  2  0  0  0  0  0  0  0  0  0
  -27.0418  -22.4033   17.0844 C   0  0  0  0  0  0  0  0  0  0  0  0
  -24.1345  -33.8144   21.8256 C   0  0  0  0  0  0  0  0  0  0  0  0
  -24.3020  -18.0066   21.0498 N   0  0  0  0  0  0  0  0  0  0  0  0
  -25.9700  -24.3188   18.0772 N   0  0  0  0  0  0  0  0  0  0  0  0
  -23.8238  -18.6981   22.0983 N   0  0  0  0  0  0  0  0  0  0  0  0
  -24.6821  -30.6813   23.4835 N   0  0  0  0  0  0  0  0  0  0  0  0
  -23.3314  -22.1296   20.4946 N   0  0  0  0  0  0  0  0  0  0  0  0
  -23.5040  -18.5930   24.4429 N   0  0  0  0  0  0  0  0  0  0  0  0
  -25.4501  -14.6334   23.4782 N   0  0  0  0  0  0  0  0  0  0  0  0
  -21.8396  -28.5596   23.0980 N   0  0  0  0  0  0  0  0  0  0  0  0
  -25.5089  -33.9308   23.9473 N   0  0  0  0  0  0  0  0  0  0  0  0
  -23.4865  -24.4860   20.3502 N   0  0  0  0  0  0  0  0  0  0  0  0
  -23.6885  -25.9344   17.9955 N   0  3  0  0  0  0  0  0  0  0  0  0
  -28.3479  -34.5286   26.1039 N   0  3  0  0  0  0  0  0  0  0  0  0
  -24.5835  -15.9196   25.1674 O   0  0  0  0  0  0  0  0  0  0  0  0
  -23.6054  -29.0784   21.6715 O   0  0  0  0  0  0  0  0  0  0  0  0
  -23.1748  -32.2943   24.2336 O   0  0  0  0  0  0  0  0  0  0  0  0
  -27.7415  -33.4143   23.5925 O   0  0  0  0  0  0  0  0  0  0  0  0
  -25.3467  -23.2306   20.8180 O   0  0  0  0  0  0  0  0  0  0  0  0
  -27.0368  -12.8865   18.4318 O   0  0  0  0  0  0  0  0  0  0  0  0
  -29.3913  -27.0367   21.8732 O   0  0  0  0  0  0  0  0  0  1  0  0
  -31.6585  -10.5083   20.2725 F   0  0  0  0  0  0  0  0  0  0  0  0
  -29.3770  -13.0109   16.9653 F   0  0  0  0  0  0  0  0  0  0  0  0
  1  2  1  0  0  0  0
  1  5  2  0  0  0  0
  2  6  2  0  0  0  0
  3  8  2  0  0  0  0
  3 16  1  0  0  0  0
  4  9  1  0  0  0  0
  4 16  2  0  0  0  0
  5 18  1  0  0  0  0
  6 20  1  0  0  0  0
  7 10  2  0  0  0  0
  7 19  1  0  0  0  0
  8 24  1  0  0  0  0
  9 24  2  0  0  0  0
 10 25  1  0  0  0  0
 11 12  2  0  0  0  0
 11 26  1  0  0  0  0
 12 27  1  0  0  0  0
 13 21  1  0  0  0  0
 13 25  2  0  0  0  0
 14 22  1  0  0  0  0
 14 30  2  0  0  0  0
 15 27  2  0  0  0  0
 15 28  1  0  0  0  0
 16 29  1  0  0  0  0
 17 29  1  0  0  0  0
 17 32  2  0  0  0  0
 17 33  1  0  0  0  0
 18 20  2  0  0  0  0
 18 38  1  0  0  0  0
 19 21  2  0  0  0  0
 19 39  1  0  0  0  0
 20 47  1  0  0  0  0
 21 40  1  0  0  0  0
 22 23  2  0  0  0  0
 22 59  1  0  0  0  0
 23 31  1  0  0  0  0
 23 50  1  0  0  0  0
 24 85  1  0  0  0  0
 25 86  1  0  0  0  0
 26 28  2  0  0  0  0
 26 85  1  0  0  0  0
 27 87  1  0  0  0  0
 28 88  1  0  0  0  0
 29 68  2  0  0  0  0
 30 63  1  0  0  0  0
 30 69  1  0  0  0  0
 31 66  1  0  0  0  0
 31 69  2  0  0  0  0
 32 70  1  0  0  0  0
 32 73  1  0  0  0  0
 33 74  1  0  0  0  0
 33 80  2  0  0  0  0
 34 48  1  0  0  0  0
 34 75  1  0  0  0  0
 34 81  2  0  0  0  0
 35 64  1  0  0  0  0
 35 71  1  0  0  0  0
 35 82  2  0  0  0  0
 36 65  1  0  0  0  0
 36 76  1  0  0  0  0
 36 83  2  0  0  0  0
 37 72  1  0  0  0  0
 37 77  1  0  0  0  0
 37 84  2  0  0  0  0
 38 41  1  0  0  0  0
 39 48  1  0  0  0  0
 40 71  1  0  0  0  0
 41 43  1  0  0  0  0
 42 44  1  0  0  0  0
 42 45  1  0  0  0  0
 43 47  1  0  0  0  0
 44 49  1  0  0  0  0
 45 72  1  0  0  0  0
 46 49  1  0  0  0  0
 46 72  1  0  0  0  0
 47 75  1  0  0  0  0
 48 71  1  0  0  0  0
 49 70  1  0  0  0  0
 51 65  1  0  0  0  0
 52 66  1  0  0  0  0
 53 66  1  0  0  0  0
 54 66  1  0  0  0  0
 55 67  1  0  0  0  0
 56 67  1  0  0  0  0
 57 67  1  0  0  0  0
 58 79  1  0  0  0  0
 59 60  1  0  0  0  0
 60 62  1  0  0  0  0
 61 63  1  0  0  0  0
 61 77  1  0  0  0  0
 62 86  1  0  0  0  0
 63 78  1  0  0  0  0
 64 67  1  0  0  0  0
 64 76  1  0  0  0  0
 65 79  1  0  0  0  0
 68 70  1  0  0  0  0
M  CHG  2  78   1  79   1
M  ISO  4  37 100  62 101  77 100  86 101
M  END
> <Batch ID>
0095

> <Smiles>
CNC(C)C(=O)NC(C(=O)N1Cc2cc([101O:1][101CH2:1]CCc3cc(C(N)C[100NH:0][100C:0](=O)N4CCCC(n5nc(-c6ccc(Oc7ccc(F)cc7F)cc6)c(C(N)=O)c5N)C4)nc(C(C)(C)C)c3C)ccc2CC1C(=O)NC1CCCc2ccccc21)C(C)(C)C

> <Shape>
0.233

> <Color>
0.053

> <Negative vol penalty>
0.000

$$$$

  -OEChem-04052319213D

 84 92  0     1  0  0  0  0  0999 V2000
  -21.9506  -13.6959   20.0472 C   0  0  0  0  0  0  0  0  0  0  0  0
  -22.4715  -14.8014   20.7119 C   0  0  0  0  0  0  0  0  0  0  0  0
  -29.6256  -25.2976   19.2306 C   0  0  0  0  0  0  0  0  0  0  0  0
  -29.2222  -26.9499   17.5147 C   0  0  0  0  0  0  0  0  0  0  0  0
  -22.7418  -12.5646   19.8522 C   0  0  0  0  0  0  0  0  0  0  0  0
  -23.7836  -14.7758   21.1831 C   0  0  0  0  0  0  0  0  0  0  0  0
  -26.2989  -19.0503   20.1598 C   0  0  0  0  0  0  0  0  0  0  0  0
  -30.8798  -25.0327   18.6806 C   0  0  0  0  0  0  0  0  0  0  0  0
  -30.4764  -26.6851   16.9648 C   0  0  0  0  0  0  0  0  0  0  0  0
  -26.0367  -20.1532   20.9713 C   0  0  0  0  0  0  0  0  0  0  0  0
  -33.4236  -26.1892   14.8964 C   0  0  0  0  0  0  0  0  0  0  0  0
  -33.5078  -26.0501   13.5111 C   0  0  0  0  0  0  0  0  0  0  0  0
  -28.0501  -19.7043   22.2218 C   0  0  0  0  0  0  0  0  0  0  0  0
  -31.9691  -24.1898   13.6044 C   0  0  0  0  0  0  0  0  0  0  0  0
  -28.7968  -26.2562   18.6476 C   0  0  0  0  0  0  0  0  0  0  0  0
  -26.4369  -25.6231   19.3810 C   0  0  0  0  0  0  0  0  0  0  0  0
  -24.0674  -12.5287   20.3127 C   0  0  0  0  0  0  0  0  0  0  0  0
  -27.4349  -18.2584   20.3804 C   0  0  0  0  0  0  0  0  0  0  0  0
  -24.5929  -13.6425   20.9952 C   0  0  0  0  0  0  0  0  0  0  0  0
  -28.3259  -18.5934   21.4100 C   0  0  0  0  0  0  0  0  0  0  0  0
  -31.3052  -25.7264   17.5478 C   0  0  0  0  0  0  0  0  0  0  0  0
  -26.9108  -20.4787   22.0043 C   0  0  0  0  0  0  0  0  0  0  0  0
  -32.6122  -25.3285   15.6358 C   0  0  0  0  0  0  0  0  0  0  0  0
  -32.7806  -25.0504   12.8651 C   0  0  0  0  0  0  0  0  0  0  0  0
  -31.8850  -24.3288   14.9897 C   0  0  0  0  0  0  0  0  0  0  0  0
  -27.5009  -26.5299   19.2149 C   0  0  0  0  0  0  0  0  0  0  0  0
  -25.4383  -26.3678   19.9597 C   0  0  0  0  0  0  0  0  0  0  0  0
  -26.3583  -24.2321   19.0427 C   0  0  0  0  0  0  0  0  0  0  0  0
  -27.9324  -15.2158   21.1543 C   0  0  0  0  0  0  0  0  0  0  0  0
  -25.5758  -31.3831   23.2671 C   0  0  0  0  0  0  0  0  0  0  0  0
  -31.0402  -16.0045   20.6627 C   0  0  0  0  0  0  0  0  0  0  0  0
  -33.4282  -18.4400   20.5492 C   0  0  0  0  0  0  0  0  0  0  0  0
  -24.8689  -11.2657   20.1201 C   0  0  0  0  0  0  0  0  0  0  0  0
  -27.7176  -17.0877   19.4793 C   0  0  0  0  0  0  0  0  0  0  0  0
  -29.5701  -17.7873   21.6756 C   0  0  0  0  0  0  0  0  0  0  0  0
  -26.3697  -11.4603   20.3201 C   0  0  0  0  0  0  0  0  0  0  0  0
  -23.7615  -30.8327   20.2266 C   0  0  0  0  0  0  0  0  0  0  0  0
  -26.6396  -12.2625   21.5891 C   0  0  0  0  0  0  0  0  0  0  0  0
  -24.4366  -29.6015   19.6236 C   0  0  0  0  0  0  0  0  0  0  0  0
  -25.5754  -24.8299   23.3726 C   0  0  0  0  0  0  0  0  0  0  0  0
  -25.8388  -24.4790   25.8413 C   0  0  0  0  0  0  0  0  0  0  0  0
  -24.7661  -31.7198   20.9551 C   0  0  0  0  0  0  0  0  0  0  0  0
  -26.2300  -29.7768   21.4062 C   0  0  0  0  0  0  0  0  0  0  0  0
  -26.3553  -26.1298   23.4681 C   0  0  0  0  0  0  0  0  0  0  0  0
  -26.0197  -13.6622   21.4992 C   0  0  1  0  0  0  0  0  0  0  0  0
  -28.6336  -16.0488   20.1189 C   0  0  1  0  0  0  0  0  0  0  0  0
  -25.9872  -23.8367   24.4581 C   0  0  1  0  0  0  0  0  0  0  0  0
  -25.2452  -28.8378   20.6872 C   0  0  2  0  0  0  0  0  0  0  0  0
  -26.6119  -25.8091   26.0043 C   0  0  0  0  0  0  0  0  0  0  0  0
  -26.1834  -26.4468   27.3389 C   0  0  0  0  0  0  0  0  0  0  0  0
  -28.1313  -25.5837   26.0075 C   0  0  0  0  0  0  0  0  0  0  0  0
  -26.3415  -31.2000   25.5983 C   0  0  0  0  0  0  0  0  0  0  0  0
  -35.8846  -18.7737   20.1592 C   0  0  0  0  0  0  0  0  0  0  0  0
  -31.6290  -14.9085   23.4488 C   0  0  0  0  0  0  0  0  0  0  0  0
  -33.8260  -16.1072   23.3800 C   0  0  0  0  0  0  0  0  0  0  0  0
  -33.3309  -14.3176   21.7142 C   0  0  0  0  0  0  0  0  0  0  0  0
  -32.9377  -20.1864   18.2108 C   0  0  0  0  0  0  0  0  0  0  0  0
  -25.1519  -22.5599   24.3642 C   0  0  0  0  0  0  0  0  0  0  0  0
  -25.8103  -29.1167   24.2815 C   0  0  0  0  0  0  0  0  0  0  0  0
  -26.8067  -28.1233   24.8691 C   0  0  0  0  0  0  0  0  0  0  0  0
  -25.2904  -21.9045   23.0029 C   0  0  0  0  0  0  0  0  0  1  0  0
  -26.3789  -30.5392   24.2247 C   0  0  1  0  0  0  0  0  0  0  0  0
  -32.1546  -16.5475   21.5243 C   0  0  1  0  0  0  0  0  0  0  0  0
  -34.5034  -18.7495   19.5233 C   0  0  2  0  0  0  0  0  0  0  0  0
  -32.7107  -15.4845   22.5133 C   0  0  0  0  0  0  0  0  0  0  0  0
  -27.2057  -27.7569   19.6525 N   0  0  0  0  0  0  0  0  0  0  0  0
  -25.9450  -27.6264   20.0992 N   0  0  0  0  0  0  0  0  0  0  0  0
  -29.7995  -16.6484   20.7713 N   0  0  0  0  0  0  0  0  0  0  0  0
  -25.5296  -30.9527   21.9410 N   0  0  0  0  0  0  0  0  0  0  0  0
  -24.1850  -26.0623   20.3576 N   0  0  0  0  0  0  0  0  0  0  0  0
  -25.8950  -23.8798   17.7677 N   0  0  0  0  0  0  0  0  0  0  0  0
  -26.8369  -14.5248   20.6729 N   0  0  0  0  0  0  0  0  0  0  0  0
  -33.1515  -17.0905   20.6080 N   0  0  0  0  0  0  0  0  0  0  0  0
  -26.1960  -26.7405   24.8472 N   0  3  1  0  0  0  0  0  0  0  0  0
  -34.2523  -20.0769   18.8941 N   0  3  0  0  0  0  0  0  0  0  0  0
  -26.6735  -23.3278   19.8529 O   0  0  0  0  0  0  0  0  0  0  0  0
  -28.3549  -15.1999   22.3045 O   0  0  0  0  0  0  0  0  0  0  0  0
  -25.0050  -32.3928   23.6877 O   0  0  0  0  0  0  0  0  0  0  0  0
  -31.2643  -15.0490   19.9155 O   0  0  0  0  0  0  0  0  0  0  0  0
  -32.8903  -19.3082   21.2330 O   0  0  0  0  0  0  0  0  0  0  0  0
  -32.5291  -25.4684   17.0110 O   0  0  0  0  0  0  0  0  0  0  0  0
  -26.6550  -21.5622   22.8042 O   0  0  0  0  0  0  0  0  0  1  0  0
  -32.8603  -24.9180   11.5346 F   0  0  0  0  0  0  0  0  0  0  0  0
  -31.1029  -23.4997   15.6945 F   0  0  0  0  0  0  0  0  0  0  0  0
  1  2  1  0  0  0  0
  1  5  2  0  0  0  0
  2  6  2  0  0  0  0
  3  8  2  0  0  0  0
  3 15  1  0  0  0  0
  4  9  1  0  0  0  0
  4 15  2  0  0  0  0
  5 17  1  0  0  0  0
  6 19  1  0  0  0  0
  7 10  2  0  0  0  0
  7 18  1  0  0  0  0
  8 21  1  0  0  0  0
  9 21  2  0  0  0  0
 10 22  1  0  0  0  0
 11 12  2  0  0  0  0
 11 23  1  0  0  0  0
 12 24  1  0  0  0  0
 13 20  1  0  0  0  0
 13 22  2  0  0  0  0
 14 24  2  0  0  0  0
 14 25  1  0  0  0  0
 15 26  1  0  0  0  0
 16 26  1  0  0  0  0
 16 27  2  0  0  0  0
 16 28  1  0  0  0  0
 17 19  2  0  0  0  0
 17 33  1  0  0  0  0
 18 20  2  0  0  0  0
 18 34  1  0  0  0  0
 19 45  1  0  0  0  0
 20 35  1  0  0  0  0
 21 81  1  0  0  0  0
 22 82  1  0  0  0  0
 23 25  2  0  0  0  0
 23 81  1  0  0  0  0
 24 83  1  0  0  0  0
 25 84  1  0  0  0  0
 26 66  2  0  0  0  0
 27 67  1  0  0  0  0
 27 70  1  0  0  0  0
 28 71  1  0  0  0  0
 28 76  2  0  0  0  0
 29 46  1  0  0  0  0
 29 72  1  0  0  0  0
 29 77  2  0  0  0  0
 30 62  1  0  0  0  0
 30 69  1  0  0  0  0
 30 78  2  0  0  0  0
 31 63  1  0  0  0  0
 31 68  1  0  0  0  0
 31 79  2  0  0  0  0
 32 64  1  0  0  0  0
 32 73  1  0  0  0  0
 32 80  2  0  0  0  0
 33 36  1  0  0  0  0
 34 46  1  0  0  0  0
 35 68  1  0  0  0  0
 36 38  1  0  0  0  0
 37 39  1  0  0  0  0
 37 42  1  0  0  0  0
 38 45  1  0  0  0  0
 39 48  1  0  0  0  0
 40 44  1  0  0  0  0
 40 47  1  0  0  0  0
 41 47  1  0  0  0  0
 41 49  1  0  0  0  0
 42 69  1  0  0  0  0
 43 48  1  0  0  0  0
 43 69  1  0  0  0  0
 44 74  1  0  0  0  0
 45 72  1  0  0  0  0
 46 68  1  0  0  0  0
 47 58  1  0  0  0  0
 48 67  1  0  0  0  0
 49 50  1  0  0  0  0
 49 51  1  0  0  0  0
 49 74  1  0  0  0  0
 52 62  1  0  0  0  0
 53 64  1  0  0  0  0
 54 65  1  0  0  0  0
 55 65  1  0  0  0  0
 56 65  1  0  0  0  0
 57 75  1  0  0  0  0
 58 61  1  0  0  0  0
 59 60  1  0  0  0  0
 59 62  1  0  0  0  0
 60 74  1  0  0  0  0
 61 82  1  0  0  0  0
 63 65  1  0  0  0  0
 63 73  1  0  0  0  0
 64 75  1  0  0  0  0
 66 67  1  0  0  0  0
M  CHG  2  74   1  75   1
M  ISO  4  30 100  61 101  62 100  82 101
M  END
> <Batch ID>
0095

> <Smiles>
CNC(C)C(=O)NC(C(=O)N1Cc2cc([101O:1][101CH2:1]CC3CCN(CC[100CH:0](C)[100C:0](=O)N4CCCC(n5nc(-c6ccc(Oc7ccc(F)cc7F)cc6)c(C(N)=O)c5N)C4)C(C)(C)C3)ccc2CC1C(=O)NC1CCCc2ccccc21)C(C)(C)C

> <Shape>
0.205

> <Color>
0.068

> <Negative vol penalty>
0.000

$$$$

  -OEChem-04052319213D

 86 94  0     1  0  0  0  0  0999 V2000
  -37.5990  -27.6397   28.4682 C   0  0  0  0  0  0  0  0  0  0  0  0
  -36.4192  -26.9075   28.3817 C   0  0  0  0  0  0  0  0  0  0  0  0
  -23.0114   -9.8412   20.1200 C   0  0  0  0  0  0  0  0  0  0  0  0
  -23.6649  -10.1283   22.4282 C   0  0  0  0  0  0  0  0  0  0  0  0
  -37.6605  -28.9260   27.9339 C   0  0  0  0  0  0  0  0  0  0  0  0
  -35.2998  -27.4617   27.7618 C   0  0  0  0  0  0  0  0  0  0  0  0
  -33.0068  -24.2121   24.6270 C   0  0  0  0  0  0  0  0  0  0  0  0
  -22.2371   -8.7372   20.4765 C   0  0  0  0  0  0  0  0  0  0  0  0
  -22.8905   -9.0243   22.7847 C   0  0  0  0  0  0  0  0  0  0  0  0
  -32.1952  -23.2362   25.2037 C   0  0  0  0  0  0  0  0  0  0  0  0
  -23.1496   -5.6555   22.6624 C   0  0  0  0  0  0  0  0  0  0  0  0
  -23.7137   -4.7219   23.5317 C   0  0  0  0  0  0  0  0  0  0  0  0
  -30.2448  -24.5520   24.6711 C   0  0  0  0  0  0  0  0  0  0  0  0
  -29.7009  -17.9036   22.2095 C   0  0  0  0  0  0  0  0  0  0  0  0
  -21.9388   -5.1282   25.1197 C   0  0  0  0  0  0  0  0  0  0  0  0
  -23.7253  -10.5368   21.0958 C   0  0  0  0  0  0  0  0  0  0  0  0
  -24.1157  -13.0227   20.6769 C   0  0  0  0  0  0  0  0  0  0  0  0
  -36.5443  -29.4926   27.2985 C   0  0  0  0  0  0  0  0  0  0  0  0
  -32.4433  -25.3724   24.0768 C   0  0  0  0  0  0  0  0  0  0  0  0
  -35.3461  -28.7574   27.2197 C   0  0  0  0  0  0  0  0  0  0  0  0
  -31.0512  -25.5400   24.0857 C   0  0  0  0  0  0  0  0  0  0  0  0
  -30.1862  -19.1679   22.4938 C   0  0  0  0  0  0  0  0  0  0  0  0
  -22.1766   -8.3287   21.8089 C   0  0  0  0  0  0  0  0  0  0  0  0
  -30.8142  -23.4074   25.2284 C   0  0  0  0  0  0  0  0  0  0  0  0
  -21.9802   -6.3256   23.0217 C   0  0  0  0  0  0  0  0  0  0  0  0
  -23.1083   -4.4582   24.7604 C   0  0  0  0  0  0  0  0  0  0  0  0
  -21.3747   -6.0618   24.2504 C   0  0  0  0  0  0  0  0  0  0  0  0
  -24.5258  -11.6770   20.7280 C   0  0  0  0  0  0  0  0  0  0  0  0
  -31.4698  -19.4735   22.0883 C   0  0  0  0  0  0  0  0  0  0  0  0
  -30.5312  -17.0286   21.5382 C   0  0  0  0  0  0  0  0  0  0  0  0
  -25.2361  -13.7081   20.2753 C   0  0  0  0  0  0  0  0  0  0  0  0
  -22.8363  -13.6015   20.9667 C   0  0  0  0  0  0  0  0  0  0  0  0
  -32.6632  -28.4828   24.6939 C   0  0  0  0  0  0  0  0  0  0  0  0
  -30.8624  -28.7460   22.0087 C   0  0  0  0  0  0  0  0  0  0  0  0
  -28.6442  -27.3015   19.8547 C   0  0  0  0  0  0  0  0  0  0  0  0
  -30.7056  -14.7057   20.5790 C   0  0  0  0  0  0  0  0  0  0  0  0
  -36.6443  -30.9045   26.7779 C   0  0  0  0  0  0  0  0  0  0  0  0
  -33.3306  -26.4033   23.4345 C   0  0  0  0  0  0  0  0  0  0  0  0
  -30.3953  -26.7581   23.4903 C   0  0  0  0  0  0  0  0  0  0  0  0
  -35.5275  -31.2758   25.8058 C   0  0  0  0  0  0  0  0  0  0  0  0
  -29.6601  -12.0256   18.4811 C   0  0  0  0  0  0  0  0  0  0  0  0
  -34.1738  -30.8367   26.3549 C   0  0  0  0  0  0  0  0  0  0  0  0
  -28.1974  -11.8067   18.8745 C   0  0  0  0  0  0  0  0  0  0  0  0
  -30.5227  -12.3936   19.6870 C   0  0  0  0  0  0  0  0  0  0  0  0
  -28.5669  -13.3077   20.8739 C   0  0  0  0  0  0  0  0  0  0  0  0
  -34.1181  -29.3147   26.5329 C   0  0  1  0  0  0  0  0  0  0  0  0
  -32.6871  -27.7847   23.3636 C   0  0  1  0  0  0  0  0  0  0  0  0
  -27.6465  -12.9984   19.6818 C   0  0  2  0  0  0  0  0  0  0  0  0
  -33.5795  -20.7413   22.6130 C   0  0  0  0  0  0  0  0  0  0  0  0
  -27.2020  -27.0552   17.8159 C   0  0  0  0  0  0  0  0  0  0  0  0
  -28.9009  -30.4207   23.6389 C   0  0  0  0  0  0  0  0  0  0  0  0
  -27.2022  -30.0604   21.8353 C   0  0  0  0  0  0  0  0  0  0  0  0
  -29.3240  -31.2686   21.3245 C   0  0  0  0  0  0  0  0  0  0  0  0
  -32.1423  -22.2896   18.8068 C   0  0  0  0  0  0  0  0  0  0  0  0
  -30.8533  -26.0989   18.2950 C   0  0  0  0  0  0  0  0  0  0  0  0
  -29.3194  -20.1624   23.2242 C   0  0  0  0  0  0  0  0  0  0  0  0
  -29.2017  -19.8937   24.7286 C   0  0  0  0  0  0  0  0  0  0  0  0
  -28.2581  -20.8658   25.4383 C   0  0  0  0  0  0  0  0  0  0  0  0
  -31.7879  -21.8550   21.2408 C   0  0  0  0  0  0  0  0  0  0  0  0
  -28.7044  -22.3103   25.2579 C   0  0  0  0  0  0  0  0  0  1  0  0
  -32.0579  -20.8179   22.3565 C   0  0  1  0  0  0  0  0  0  0  0  0
  -29.3824  -28.7709   21.7122 C   0  0  1  0  0  0  0  0  0  0  0  0
  -28.6206  -27.2178   18.3392 C   0  0  2  0  0  0  0  0  0  0  0  0
  -28.7146  -30.1080   22.1407 C   0  0  0  0  0  0  0  0  0  0  0  0
  -25.8068  -11.5150   20.3860 N   0  0  0  0  0  0  0  0  0  0  0  0
  -32.2602  -18.5973   21.4328 N   0  0  0  0  0  0  0  0  0  0  0  0
  -31.7830  -17.3548   21.1530 N   0  0  0  0  0  0  0  0  0  0  0  0
  -26.2112  -12.7679   20.1161 N   0  0  0  0  0  0  0  0  0  0  0  0
  -31.3058  -27.7406   22.8795 N   0  0  0  0  0  0  0  0  0  0  0  0
  -29.9418  -13.5329   20.4006 N   0  0  0  0  0  0  0  0  0  0  0  0
  -25.4725  -15.0173   20.0463 N   0  0  0  0  0  0  0  0  0  0  0  0
  -21.7945  -12.7534   21.3664 N   0  0  0  0  0  0  0  0  0  0  0  0
  -30.0373  -15.7337   21.2432 N   0  0  0  0  0  0  0  0  0  0  0  0
  -33.9121  -28.6638   25.2568 N   0  0  0  0  0  0  0  0  0  0  0  0
  -29.2452  -28.4625   20.2928 N   0  0  0  0  0  0  0  0  0  0  0  0
  -32.3903  -21.3897   19.9650 N   0  3  0  0  0  0  0  0  0  0  0  0
  -29.4299  -26.0569   17.8718 N   0  3  0  0  0  0  0  0  0  0  0  0
  -22.6189  -14.8321   20.8581 O   0  0  0  0  0  0  0  0  0  0  0  0
  -31.5911  -28.8327   25.1733 O   0  0  0  0  0  0  0  0  0  0  0  0
  -31.5990  -29.5832   21.4812 O   0  0  0  0  0  0  0  0  0  0  0  0
  -28.1730  -26.4262   20.5776 O   0  0  0  0  0  0  0  0  0  0  0  0
  -31.8578  -14.8015   20.1485 O   0  0  0  0  0  0  0  0  0  0  0  0
  -21.4209   -7.2516   22.1572 O   0  0  0  0  0  0  0  0  0  0  0  0
  -30.0198  -22.4567   25.7913 O   0  0  0  0  0  0  0  0  0  1  0  0
  -23.6492   -3.5605   25.5944 F   0  0  0  0  0  0  0  0  0  0  0  0
  -20.2504   -6.7015   24.6006 F   0  0  0  0  0  0  0  0  0  0  0  0
  1  2  1  0  0  0  0
  1  5  2  0  0  0  0
  2  6  2  0  0  0  0
  3  8  2  0  0  0  0
  3 16  1  0  0  0  0
  4  9  1  0  0  0  0
  4 16  2  0  0  0  0
  5 18  1  0  0  0  0
  6 20  1  0  0  0  0
  7 10  2  0  0  0  0
  7 19  1  0  0  0  0
  8 23  1  0  0  0  0
  9 23  2  0  0  0  0
 10 24  1  0  0  0  0
 11 12  2  0  0  0  0
 11 25  1  0  0  0  0
 12 26  1  0  0  0  0
 13 21  1  0  0  0  0
 13 24  2  0  0  0  0
 14 22  1  0  0  0  0
 14 30  2  0  0  0  0
 15 26  2  0  0  0  0
 15 27  1  0  0  0  0
 16 28  1  0  0  0  0
 17 28  1  0  0  0  0
 17 31  2  0  0  0  0
 17 32  1  0  0  0  0
 18 20  2  0  0  0  0
 18 37  1  0  0  0  0
 19 21  2  0  0  0  0
 19 38  1  0  0  0  0
 20 46  1  0  0  0  0
 21 39  1  0  0  0  0
 22 29  2  0  0  0  0
 22 56  1  0  0  0  0
 23 83  1  0  0  0  0
 24 84  1  0  0  0  0
 25 27  2  0  0  0  0
 25 83  1  0  0  0  0
 26 85  1  0  0  0  0
 27 86  1  0  0  0  0
 28 65  2  0  0  0  0
 29 61  1  0  0  0  0
 29 66  1  0  0  0  0
 30 67  1  0  0  0  0
 30 73  1  0  0  0  0
 31 68  1  0  0  0  0
 31 71  1  0  0  0  0
 32 72  1  0  0  0  0
 32 78  2  0  0  0  0
 33 47  1  0  0  0  0
 33 74  1  0  0  0  0
 33 79  2  0  0  0  0
 34 62  1  0  0  0  0
 34 69  1  0  0  0  0
 34 80  2  0  0  0  0
 35 63  1  0  0  0  0
 35 75  1  0  0  0  0
 35 81  2  0  0  0  0
 36 70  1  0  0  0  0
 36 73  1  0  0  0  0
 36 82  2  0  0  0  0
 37 40  1  0  0  0  0
 38 47  1  0  0  0  0
 39 69  1  0  0  0  0
 40 42  1  0  0  0  0
 41 43  1  0  0  0  0
 41 44  1  0  0  0  0
 42 46  1  0  0  0  0
 43 48  1  0  0  0  0
 44 70  1  0  0  0  0
 45 48  1  0  0  0  0
 45 70  1  0  0  0  0
 46 74  1  0  0  0  0
 47 69  1  0  0  0  0
 48 68  1  0  0  0  0
 49 61  1  0  0  0  0
 50 63  1  0  0  0  0
 51 64  1  0  0  0  0
 52 64  1  0  0  0  0
 53 64  1  0  0  0  0
 54 76  1  0  0  0  0
 55 77  1  0  0  0  0
 56 57  1  0  0  0  0
 57 58  1  0  0  0  0
 58 60  1  0  0  0  0
 59 61  1  0  0  0  0
 59 76  1  0  0  0  0
 60 84  1  0  0  0  0
 62 64  1  0  0  0  0
 62 75  1  0  0  0  0
 63 77  1  0  0  0  0
 65 68  1  0  0  0  0
 66 67  2  0  0  0  0
M  CHG  2  76   1  77   1
M  ISO  4  36 100  60 101  73 100  84 101
M  END
> <Batch ID>
0095

> <Smiles>
CNCC(C)c1nnc([100NH:0][100C:0](=O)N2CCCC(n3nc(-c4ccc(Oc5ccc(F)cc5F)cc4)c(C(N)=O)c3N)C2)cc1CCC[101CH2:1][101O:1]c1ccc2c(c1)CN(C(=O)C(NC(=O)C(C)NC)C(C)(C)C)C(C(=O)NC1CCCc3ccccc31)C2

> <Shape>
0.224

> <Color>
0.188

> <Negative vol penalty>
0.000

$$$$

  -OEChem-04052319213D

 94103  0     1  0  0  0  0  0999 V2000
  -22.1365  -22.2962   26.2353 C   0  0  0  0  0  0  0  0  0  0  0  0
  -23.2777  -22.1968   25.4458 C   0  0  0  0  0  0  0  0  0  0  0  0
  -23.0290  -10.3017   22.0665 C   0  0  0  0  0  0  0  0  0  0  0  0
  -24.8287  -10.4467   23.6718 C   0  0  0  0  0  0  0  0  0  0  0  0
  -21.2990  -23.4040   26.1116 C   0  0  0  0  0  0  0  0  0  0  0  0
  -23.5814  -23.2047   24.5313 C   0  0  0  0  0  0  0  0  0  0  0  0
  -29.1576  -25.1793   22.9461 C   0  0  0  0  0  0  0  0  0  0  0  0
  -27.9367  -17.6935   17.5801 C   0  0  0  0  0  0  0  0  0  0  0  0
  -26.5505  -17.8408   17.5342 C   0  0  0  0  0  0  0  0  0  0  0  0
  -22.4195   -9.3131   22.8390 C   0  0  0  0  0  0  0  0  0  0  0  0
  -24.2192   -9.4581   24.4444 C   0  0  0  0  0  0  0  0  0  0  0  0
  -29.9792  -24.8936   21.8566 C   0  0  0  0  0  0  0  0  0  0  0  0
  -22.7941   -5.9995   23.3906 C   0  0  0  0  0  0  0  0  0  0  0  0
  -22.3018   -4.8737   22.7304 C   0  0  0  0  0  0  0  0  0  0  0  0
  -29.1604  -26.8635   20.7303 C   0  0  0  0  0  0  0  0  0  0  0  0
  -28.0122  -19.0297   19.5916 C   0  0  0  0  0  0  0  0  0  0  0  0
  -20.0813   -5.3671   23.5448 C   0  0  0  0  0  0  0  0  0  0  0  0
  -24.2336  -10.8685   22.4828 C   0  0  0  0  0  0  0  0  0  0  0  0
  -24.3282  -13.1414   21.3284 C   0  0  0  0  0  0  0  0  0  0  0  0
  -21.5978  -24.4307   25.2019 C   0  0  0  0  0  0  0  0  0  0  0  0
  -28.3218  -26.3052   22.9314 C   0  0  0  0  0  0  0  0  0  0  0  0
  -22.7464  -24.3266   24.3943 C   0  0  0  0  0  0  0  0  0  0  0  0
  -28.3311  -27.1627   21.8220 C   0  0  0  0  0  0  0  0  0  0  0  0
  -28.6676  -18.2879   18.6088 C   0  0  0  0  0  0  0  0  0  0  0  0
  -25.8950  -18.5826   18.5169 C   0  0  0  0  0  0  0  0  0  0  0  0
  -26.6259  -19.1771   19.5457 C   0  0  0  0  0  0  0  0  0  0  0  0
  -23.0146   -8.8913   24.0280 C   0  0  0  0  0  0  0  0  0  0  0  0
  -29.9786  -25.7341   20.7472 C   0  0  0  0  0  0  0  0  0  0  0  0
  -21.9300   -6.8091   24.1279 C   0  0  0  0  0  0  0  0  0  0  0  0
  -20.9454   -4.5575   22.8074 C   0  0  0  0  0  0  0  0  0  0  0  0
  -20.5736   -6.4929   24.2050 C   0  0  0  0  0  0  0  0  0  0  0  0
  -24.8640  -11.8893   21.6849 C   0  0  0  0  0  0  0  0  0  0  0  0
  -25.3109  -13.7328   20.5728 C   0  0  0  0  0  0  0  0  0  0  0  0
  -23.0559  -13.7182   21.6515 C   0  0  0  0  0  0  0  0  0  0  0  0
  -25.1798  -26.7682   23.0638 C   0  0  0  0  0  0  0  0  0  0  0  0
  -26.0391  -29.8928   23.2083 C   0  0  0  0  0  0  0  0  0  0  0  0
  -28.4616  -32.0343   21.6075 C   0  0  0  0  0  0  0  0  0  0  0  0
  -30.6723  -15.0149   19.7028 C   0  0  0  0  0  0  0  0  0  0  0  0
  -20.6373  -25.5859   25.0701 C   0  0  0  0  0  0  0  0  0  0  0  0
  -27.4612  -26.6141   24.1257 C   0  0  0  0  0  0  0  0  0  0  0  0
  -27.4673  -28.3952   21.7650 C   0  0  0  0  0  0  0  0  0  0  0  0
  -21.2297  -26.7908   24.3437 C   0  0  0  0  0  0  0  0  0  0  0  0
  -29.5603  -11.8131   18.6124 C   0  0  0  0  0  0  0  0  0  0  0  0
  -33.1965  -20.4969   18.3230 C   0  0  0  0  0  0  0  0  0  0  0  0
  -21.9542  -26.3471   23.0768 C   0  0  0  0  0  0  0  0  0  0  0  0
  -32.5814  -21.8390   18.7126 C   0  0  0  0  0  0  0  0  0  0  0  0
  -28.1988  -11.6485   19.2899 C   0  0  0  0  0  0  0  0  0  0  0  0
  -30.3429  -21.6306   17.4370 C   0  0  0  0  0  0  0  0  0  0  0  0
  -30.5526  -12.5480   19.5109 C   0  0  0  0  0  0  0  0  0  0  0  0
  -28.7172  -13.6822   20.7019 C   0  0  0  0  0  0  0  0  0  0  0  0
  -32.3733  -19.2623   18.6661 C   0  0  0  0  0  0  0  0  0  0  0  0
  -30.4887  -20.1317   17.1976 C   0  0  0  0  0  0  0  0  0  0  0  0
  -23.1229  -25.4113   23.4085 C   0  0  1  0  0  0  0  0  0  0  0  0
  -26.2698  -27.5055   23.7891 C   0  0  1  0  0  0  0  0  0  0  0  0
  -31.6550  -22.4069   17.6245 C   0  0  1  0  0  0  0  0  0  0  0  0
  -27.6660  -12.9961   19.8128 C   0  0  2  0  0  0  0  0  0  0  0  0
  -23.9775  -19.7441   17.3942 C   0  0  0  0  0  0  0  0  0  0  0  0
  -25.1596  -20.0224   23.0156 C   0  0  0  0  0  0  0  0  0  0  0  0
  -29.5658  -34.1380   22.4155 C   0  0  0  0  0  0  0  0  0  0  0  0
  -32.4698  -24.7779   17.4617 C   0  0  0  0  0  0  0  0  0  0  0  0
  -23.7744  -31.3051   21.7297 C   0  0  0  0  0  0  0  0  0  0  0  0
  -25.4211  -33.0519   21.0191 C   0  0  0  0  0  0  0  0  0  0  0  0
  -24.9372  -32.7087   23.4421 C   0  0  0  0  0  0  0  0  0  0  0  0
  -31.1681  -30.9247   21.1570 C   0  0  0  0  0  0  0  0  0  0  0  0
  -24.4102  -18.7274   18.4462 C   0  0  0  0  0  0  0  0  0  0  0  0
  -25.9458  -19.9761   20.6085 C   0  0  0  0  0  0  0  0  0  0  0  0
  -25.8218  -19.1955   21.9250 C   0  0  0  0  0  0  0  0  0  0  0  0
  -30.6442  -17.4826   19.9643 C   0  0  0  0  0  0  0  0  0  0  0  0
  -31.0702  -24.0835   19.4283 C   0  0  0  0  0  0  0  0  0  1  0  0
  -30.1709  -18.1284   18.6581 C   0  0  2  0  0  0  0  0  0  0  0  0
  -26.2936  -30.9797   22.1920 C   0  0  1  0  0  0  0  0  0  0  0  0
  -29.7041  -32.6336   22.2412 C   0  0  2  0  0  0  0  0  0  0  0  0
  -31.3335  -23.8739   17.9346 C   0  0  2  0  0  0  0  0  0  0  0  0
  -25.1110  -31.9839   22.0896 C   0  0  0  0  0  0  0  0  0  0  0  0
  -26.0917  -11.6957   21.1959 N   0  0  0  0  0  0  0  0  0  0  0  0
  -26.3355  -12.8340   20.5243 N   0  0  0  0  0  0  0  0  0  0  0  0
  -26.6387  -28.6510   22.9548 N   0  0  0  0  0  0  0  0  0  0  0  0
  -29.9870  -13.8185   19.9713 N   0  0  0  0  0  0  0  0  0  0  0  0
  -25.3898  -14.9289   19.9518 N   0  0  0  0  0  0  0  0  0  0  0  0
  -22.9470  -14.4841   22.8202 N   0  0  0  0  0  0  0  0  0  0  0  0
  -24.2544  -26.1697   23.8974 N   0  0  0  0  0  0  0  0  0  0  0  0
  -27.5666  -31.5909   22.5581 N   0  0  0  0  0  0  0  0  0  0  0  0
  -30.0640  -16.1741   20.1686 N   0  0  0  0  0  0  0  0  0  0  0  0
  -30.8908  -19.4431   18.4809 N   0  3  1  0  0  0  0  0  0  0  0  0
  -30.8990  -32.3668   21.3915 N   0  3  0  0  0  0  0  0  0  0  0  0
  -22.0417  -13.5457   20.9338 O   0  0  0  0  0  0  0  0  0  0  0  0
  -25.1777  -26.7453   21.8386 O   0  0  0  0  0  0  0  0  0  0  0  0
  -25.3402  -30.1387   24.1945 O   0  0  0  0  0  0  0  0  0  0  0  0
  -28.2995  -31.9697   20.3909 O   0  0  0  0  0  0  0  0  0  0  0  0
  -31.7440  -15.0480   19.0885 O   0  0  0  0  0  0  0  0  0  0  0  0
  -22.4201   -7.9268   24.7822 O   0  0  0  0  0  0  0  0  0  0  0  0
  -30.7791  -25.4572   19.6822 O   0  0  0  0  0  0  0  0  0  1  0  0
  -20.4726   -3.4772   22.1721 F   0  0  0  0  0  0  0  0  0  0  0  0
  -19.7384   -7.2675   24.9109 F   0  0  0  0  0  0  0  0  0  0  0  0
  1  2  1  0  0  0  0
  1  5  2  0  0  0  0
  2  6  2  0  0  0  0
  3 10  2  0  0  0  0
  3 18  1  0  0  0  0
  4 11  1  0  0  0  0
  4 18  2  0  0  0  0
  5 20  1  0  0  0  0
  6 22  1  0  0  0  0
  7 12  2  0  0  0  0
  7 21  1  0  0  0  0
  8  9  2  0  0  0  0
  8 24  1  0  0  0  0
  9 25  1  0  0  0  0
 10 27  1  0  0  0  0
 11 27  2  0  0  0  0
 12 28  1  0  0  0  0
 13 14  2  0  0  0  0
 13 29  1  0  0  0  0
 14 30  1  0  0  0  0
 15 23  1  0  0  0  0
 15 28  2  0  0  0  0
 16 24  2  0  0  0  0
 16 26  1  0  0  0  0
 17 30  2  0  0  0  0
 17 31  1  0  0  0  0
 18 32  1  0  0  0  0
 19 32  1  0  0  0  0
 19 33  2  0  0  0  0
 19 34  1  0  0  0  0
 20 22  2  0  0  0  0
 20 39  1  0  0  0  0
 21 23  2  0  0  0  0
 21 40  1  0  0  0  0
 22 53  1  0  0  0  0
 23 41  1  0  0  0  0
 24 70  1  0  0  0  0
 25 26  2  0  0  0  0
 25 65  1  0  0  0  0
 26 66  1  0  0  0  0
 27 91  1  0  0  0  0
 28 92  1  0  0  0  0
 29 31  2  0  0  0  0
 29 91  1  0  0  0  0
 30 93  1  0  0  0  0
 31 94  1  0  0  0  0
 32 75  2  0  0  0  0
 33 76  1  0  0  0  0
 33 79  1  0  0  0  0
 34 80  1  0  0  0  0
 34 86  2  0  0  0  0
 35 54  1  0  0  0  0
 35 81  1  0  0  0  0
 35 87  2  0  0  0  0
 36 71  1  0  0  0  0
 36 77  1  0  0  0  0
 36 88  2  0  0  0  0
 37 72  1  0  0  0  0
 37 82  1  0  0  0  0
 37 89  2  0  0  0  0
 38 78  1  0  0  0  0
 38 83  1  0  0  0  0
 38 90  2  0  0  0  0
 39 42  1  0  0  0  0
 40 54  1  0  0  0  0
 41 77  1  0  0  0  0
 42 45  1  0  0  0  0
 43 47  1  0  0  0  0
 43 49  1  0  0  0  0
 44 46  1  0  0  0  0
 44 51  1  0  0  0  0
 45 53  1  0  0  0  0
 46 55  1  0  0  0  0
 47 56  1  0  0  0  0
 48 52  1  0  0  0  0
 48 55  1  0  0  0  0
 49 78  1  0  0  0  0
 50 56  1  0  0  0  0
 50 78  1  0  0  0  0
 51 84  1  0  0  0  0
 52 84  1  0  0  0  0
 53 81  1  0  0  0  0
 54 77  1  0  0  0  0
 55 73  1  0  0  0  0
 56 76  1  0  0  0  0
 57 65  1  0  0  0  0
 58 67  1  0  0  0  0
 59 72  1  0  0  0  0
 60 73  1  0  0  0  0
 61 74  1  0  0  0  0
 62 74  1  0  0  0  0
 63 74  1  0  0  0  0
 64 85  1  0  0  0  0
 66 67  1  0  0  0  0
 68 70  1  0  0  0  0
 68 83  1  0  0  0  0
 69 73  1  0  0  0  0
 69 92  1  0  0  0  0
 70 84  1  0  0  0  0
 71 74  1  0  0  0  0
 71 82  1  0  0  0  0
 72 85  1  0  0  0  0
 75 76  1  0  0  0  0
M  CHG  2  84   1  85   1
M  ISO  4  38 100  69 101  83 100  92 101
M  END
> <Batch ID>
0095

> <Smiles>
CCCc1cc(C(C[100NH:0][100C:0](=O)N2CCCC(n3nc(-c4ccc(Oc5ccc(F)cc5F)cc4)c(C(N)=O)c3N)C2)N2CCCC(C(C)[101CH2:1][101O:1]c3ccc4c(c3)CN(C(=O)C(NC(=O)C(C)NC)C(C)(C)C)C(C(=O)NC3CCCc5ccccc53)C4)CC2)ccc1CC

> <Shape>
0.246

> <Color>
0.118

> <Negative vol penalty>
0.000

$$$$

  -OEChem-04052319213D

 86 94  0     1  0  0  0  0  0999 V2000
  -24.7950  -32.3577   24.4456 C   0  0  0  0  0  0  0  0  0  0  0  0
  -24.4407  -31.0870   24.0038 C   0  0  0  0  0  0  0  0  0  0  0  0
  -22.9999   -9.8930   19.9852 C   0  0  0  0  0  0  0  0  0  0  0  0
  -23.7268   -9.9498   22.2885 C   0  0  0  0  0  0  0  0  0  0  0  0
  -25.6570  -32.5016   25.5319 C   0  0  0  0  0  0  0  0  0  0  0  0
  -24.9491  -29.9594   24.6474 C   0  0  0  0  0  0  0  0  0  0  0  0
  -22.0881  -24.6154   25.5204 C   0  0  0  0  0  0  0  0  0  0  0  0
  -22.2344   -8.7586   20.2547 C   0  0  0  0  0  0  0  0  0  0  0  0
  -22.9613   -8.8153   22.5581 C   0  0  0  0  0  0  0  0  0  0  0  0
  -22.1413  -23.4006   24.8384 C   0  0  0  0  0  0  0  0  0  0  0  0
  -23.2076   -5.4755   22.0936 C   0  0  0  0  0  0  0  0  0  0  0  0
  -23.7965   -4.4604   22.8476 C   0  0  0  0  0  0  0  0  0  0  0  0
  -23.7614  -22.5854   26.4290 C   0  0  0  0  0  0  0  0  0  0  0  0
  -30.3259  -18.1597   24.0431 C   0  0  0  0  0  0  0  0  0  0  0  0
  -22.0737   -4.7060   24.5236 C   0  0  0  0  0  0  0  0  0  0  0  0
  -28.7703  -18.2602   22.4183 C   0  0  0  0  0  0  0  0  0  0  0  0
  -23.7462  -10.4886   21.0021 C   0  0  0  0  0  0  0  0  0  0  0  0
  -24.1296  -13.0040   20.8200 C   0  0  0  0  0  0  0  0  0  0  0  0
  -26.1686  -31.3752   26.1953 C   0  0  0  0  0  0  0  0  0  0  0  0
  -22.8806  -24.8286   26.6575 C   0  0  0  0  0  0  0  0  0  0  0  0
  -25.8198  -30.0883   25.7429 C   0  0  0  0  0  0  0  0  0  0  0  0
  -23.7145  -23.8029   27.1251 C   0  0  0  0  0  0  0  0  0  0  0  0
  -29.9970  -17.7207   22.7369 C   0  0  0  0  0  0  0  0  0  0  0  0
  -22.2151   -8.2197   21.5411 C   0  0  0  0  0  0  0  0  0  0  0  0
  -22.9802  -22.3864   25.2910 C   0  0  0  0  0  0  0  0  0  0  0  0
  -22.0519   -6.1059   22.5546 C   0  0  0  0  0  0  0  0  0  0  0  0
  -23.2295   -4.0756   24.0625 C   0  0  0  0  0  0  0  0  0  0  0  0
  -21.4849   -5.7211   23.7696 C   0  0  0  0  0  0  0  0  0  0  0  0
  -24.5376  -11.6601   20.7241 C   0  0  0  0  0  0  0  0  0  0  0  0
  -29.2900  -18.9539   24.4831 C   0  0  0  0  0  0  0  0  0  0  0  0
  -25.2385  -13.7266   20.4531 C   0  0  0  0  0  0  0  0  0  0  0  0
  -22.8615  -13.5504   21.2063 C   0  0  0  0  0  0  0  0  0  0  0  0
  -25.2081  -26.8541   27.4217 C   0  0  0  0  0  0  0  0  0  0  0  0
  -24.9111  -25.4825   30.3463 C   0  0  0  0  0  0  0  0  0  0  0  0
  -23.9427  -22.7823   32.1951 C   0  0  0  0  0  0  0  0  0  0  0  0
  -30.7344  -14.6657   20.6953 C   0  0  0  0  0  0  0  0  0  0  0  0
  -27.1345  -31.5805   27.3353 C   0  0  0  0  0  0  0  0  0  0  0  0
  -22.7918  -26.1351   27.3974 C   0  0  0  0  0  0  0  0  0  0  0  0
  -24.5703  -23.9743   28.3526 C   0  0  0  0  0  0  0  0  0  0  0  0
  -27.3326  -30.3364   28.1974 C   0  0  0  0  0  0  0  0  0  0  0  0
  -29.5937  -12.2358   18.3562 C   0  0  0  0  0  0  0  0  0  0  0  0
  -27.5514  -29.1081   27.3198 C   0  0  0  0  0  0  0  0  0  0  0  0
  -28.1457  -11.9760   18.7755 C   0  0  0  0  0  0  0  0  0  0  0  0
  -30.4968  -12.4746   19.5642 C   0  0  0  0  0  0  0  0  0  0  0  0
  -28.5872  -13.2718   20.9026 C   0  0  0  0  0  0  0  0  0  0  0  0
  -26.3310  -28.8409   26.4306 C   0  0  1  0  0  0  0  0  0  0  0  0
  -24.0261  -26.4268   28.2452 C   0  0  1  0  0  0  0  0  0  0  0  0
  -27.6274  -13.0808   19.7158 C   0  0  2  0  0  0  0  0  0  0  0  0
  -23.8589  -21.9402   34.5575 C   0  0  0  0  0  0  0  0  0  0  0  0
  -23.3122  -18.6163   23.2876 C   0  0  0  0  0  0  0  0  0  0  0  0
  -30.3379  -19.4343   26.7230 C   0  0  0  0  0  0  0  0  0  0  0  0
  -27.8407  -19.1825   26.5310 C   0  0  0  0  0  0  0  0  0  0  0  0
  -28.9693  -21.2248   25.6729 C   0  0  0  0  0  0  0  0  0  0  0  0
  -27.9100  -24.9275   30.2522 C   0  0  0  0  0  0  0  0  0  0  0  0
  -27.5959  -23.2948   32.1241 C   0  0  0  0  0  0  0  0  0  0  0  0
  -27.0623  -25.7066   32.4724 C   0  0  0  0  0  0  0  0  0  0  0  0
  -20.9923  -22.5585   32.1334 C   0  0  0  0  0  0  0  0  0  0  0  0
  -30.8165  -16.8473   21.8754 C   0  0  0  0  0  0  0  0  0  0  0  0
  -25.8038  -18.8861   23.3640 C   0  0  0  0  0  0  0  0  0  0  0  0
  -27.0481  -19.7674   23.5411 C   0  0  0  0  0  0  0  0  0  0  0  0
  -24.2703  -20.4877   24.6694 C   0  0  0  0  0  0  0  0  0  1  0  0
  -25.5336  -24.2936   31.0377 C   0  0  1  0  0  0  0  0  0  0  0  0
  -23.1070  -22.6734   33.4577 C   0  0  2  0  0  0  0  0  0  0  0  0
  -24.4533  -19.6346   23.4070 C   0  0  2  0  0  0  0  0  0  0  0  0
  -29.1195  -19.6641   25.7675 C   0  0  0  0  0  0  0  0  0  0  0  0
  -27.0109  -24.5528   31.4473 C   0  0  0  0  0  0  0  0  0  0  0  0
  -25.8067  -11.5336   20.3273 N   0  0  0  0  0  0  0  0  0  0  0  0
  -28.3500  -19.0076   23.4874 N   0  0  0  0  0  0  0  0  0  0  0  0
  -26.2056  -12.8073   20.1705 N   0  0  0  0  0  0  0  0  0  0  0  0
  -24.4531  -25.2720   29.0379 N   0  0  0  0  0  0  0  0  0  0  0  0
  -29.9499  -13.5349   20.4143 N   0  0  0  0  0  0  0  0  0  0  0  0
  -25.4710  -15.0522   20.3478 N   0  0  0  0  0  0  0  0  0  0  0  0
  -21.8306  -12.6663   21.5526 N   0  0  0  0  0  0  0  0  0  0  0  0
  -25.2743  -28.2159   27.1970 N   0  0  0  0  0  0  0  0  0  0  0  0
  -24.6534  -23.9632   32.1532 N   0  0  0  0  0  0  0  0  0  0  0  0
  -30.1380  -15.6259   21.5034 N   0  0  0  0  0  0  0  0  0  0  0  0
  -21.8427  -21.9350   33.1799 N   0  3  0  0  0  0  0  0  0  0  0  0
  -22.6440  -14.7856   21.2274 O   0  0  0  0  0  0  0  0  0  0  0  0
  -26.0020  -26.0109   27.0213 O   0  0  0  0  0  0  0  0  0  0  0  0
  -24.8277  -26.5563   30.9475 O   0  0  0  0  0  0  0  0  0  0  0  0
  -23.9659  -21.9057   31.3339 O   0  0  0  0  0  0  0  0  0  0  0  0
  -31.8794  -14.8114   20.2540 O   0  0  0  0  0  0  0  0  0  0  0  0
  -21.4680   -7.1129   21.8045 O   0  0  0  0  0  0  0  0  0  0  0  0
  -23.0345  -21.1999   24.6268 O   0  0  0  0  0  0  0  0  0  1  0  0
  -23.7942   -3.0998   24.7857 F   0  0  0  0  0  0  0  0  0  0  0  0
  -20.3739   -6.3222   24.2171 F   0  0  0  0  0  0  0  0  0  0  0  0
  1  2  1  0  0  0  0
  1  5  2  0  0  0  0
  2  6  2  0  0  0  0
  3  8  2  0  0  0  0
  3 17  1  0  0  0  0
  4  9  1  0  0  0  0
  4 17  2  0  0  0  0
  5 19  1  0  0  0  0
  6 21  1  0  0  0  0
  7 10  2  0  0  0  0
  7 20  1  0  0  0  0
  8 24  1  0  0  0  0
  9 24  2  0  0  0  0
 10 25  1  0  0  0  0
 11 12  2  0  0  0  0
 11 26  1  0  0  0  0
 12 27  1  0  0  0  0
 13 22  1  0  0  0  0
 13 25  2  0  0  0  0
 14 23  1  0  0  0  0
 14 30  2  0  0  0  0
 15 27  2  0  0  0  0
 15 28  1  0  0  0  0
 16 23  2  0  0  0  0
 16 68  1  0  0  0  0
 17 29  1  0  0  0  0
 18 29  1  0  0  0  0
 18 31  2  0  0  0  0
 18 32  1  0  0  0  0
 19 21  2  0  0  0  0
 19 37  1  0  0  0  0
 20 22  2  0  0  0  0
 20 38  1  0  0  0  0
 21 46  1  0  0  0  0
 22 39  1  0  0  0  0
 23 58  1  0  0  0  0
 24 83  1  0  0  0  0
 25 84  1  0  0  0  0
 26 28  2  0  0  0  0
 26 83  1  0  0  0  0
 27 85  1  0  0  0  0
 28 86  1  0  0  0  0
 29 67  2  0  0  0  0
 30 65  1  0  0  0  0
 30 68  1  0  0  0  0
 31 69  1  0  0  0  0
 31 72  1  0  0  0  0
 32 73  1  0  0  0  0
 32 78  2  0  0  0  0
 33 47  1  0  0  0  0
 33 74  1  0  0  0  0
 33 79  2  0  0  0  0
 34 62  1  0  0  0  0
 34 70  1  0  0  0  0
 34 80  2  0  0  0  0
 35 63  1  0  0  0  0
 35 75  1  0  0  0  0
 35 81  2  0  0  0  0
 36 71  1  0  0  0  0
 36 76  1  0  0  0  0
 36 82  2  0  0  0  0
 37 40  1  0  0  0  0
 38 47  1  0  0  0  0
 39 70  1  0  0  0  0
 40 42  1  0  0  0  0
 41 43  1  0  0  0  0
 41 44  1  0  0  0  0
 42 46  1  0  0  0  0
 43 48  1  0  0  0  0
 44 71  1  0  0  0  0
 45 48  1  0  0  0  0
 45 71  1  0  0  0  0
 46 74  1  0  0  0  0
 47 70  1  0  0  0  0
 48 69  1  0  0  0  0
 49 63  1  0  0  0  0
 50 64  1  0  0  0  0
 51 65  1  0  0  0  0
 52 65  1  0  0  0  0
 53 65  1  0  0  0  0
 54 66  1  0  0  0  0
 55 66  1  0  0  0  0
 56 66  1  0  0  0  0
 57 77  1  0  0  0  0
 58 76  1  0  0  0  0
 59 60  1  0  0  0  0
 59 64  1  0  0  0  0
 60 68  1  0  0  0  0
 61 64  1  0  0  0  0
 61 84  1  0  0  0  0
 62 66  1  0  0  0  0
 62 75  1  0  0  0  0
 63 77  1  0  0  0  0
 67 69  1  0  0  0  0
M  CHG  1  77   1
M  ISO  4  36 100  61 101  76 100  84 101
M  END
> <Batch ID>
0095

> <Smiles>
CNC(C)C(=O)NC(C(=O)N1Cc2cc([101O:1][101CH2:1]C(C)CCn3cc(C[100NH:0][100C:0](=O)N4CCCC(n5nc(-c6ccc(Oc7ccc(F)cc7F)cc6)c(C(N)=O)c5N)C4)cc3C(C)(C)C)ccc2CC1C(=O)NC1CCCc2ccccc21)C(C)(C)C

> <Shape>
0.215

> <Color>
0.197

> <Negative vol penalty>
0.000

$$$$

  -OEChem-04052319213D

 83 90  0     1  0  0  0  0  0999 V2000
  -22.3163  -11.9573   26.6606 C   0  0  0  0  0  0  0  0  0  0  0  0
  -23.6977  -12.1098   26.5986 C   0  0  0  0  0  0  0  0  0  0  0  0
  -23.1636   -9.8506   19.9152 C   0  0  0  0  0  0  0  0  0  0  0  0
  -23.8359   -9.9004   22.2352 C   0  0  0  0  0  0  0  0  0  0  0  0
  -21.4851  -13.0598   26.4667 C   0  0  0  0  0  0  0  0  0  0  0  0
  -24.2487  -13.3647   26.3416 C   0  0  0  0  0  0  0  0  0  0  0  0
  -28.1440  -14.4382   29.3943 C   0  0  0  0  0  0  0  0  0  0  0  0
  -22.4368   -8.6837   20.1508 C   0  0  0  0  0  0  0  0  0  0  0  0
  -23.1091   -8.7334   22.4709 C   0  0  0  0  0  0  0  0  0  0  0  0
  -29.3702  -13.8464   29.0941 C   0  0  0  0  0  0  0  0  0  0  0  0
  -21.1368   -5.9668   23.7647 C   0  0  0  0  0  0  0  0  0  0  0  0
  -20.3380   -5.9189   24.9071 C   0  0  0  0  0  0  0  0  0  0  0  0
  -30.0988  -15.8975   28.0543 C   0  0  0  0  0  0  0  0  0  0  0  0
  -19.0789   -7.8191   24.1063 C   0  0  0  0  0  0  0  0  0  0  0  0
  -23.8632  -10.4590   20.9574 C   0  0  0  0  0  0  0  0  0  0  0  0
  -24.1528  -12.9898   20.8201 C   0  0  0  0  0  0  0  0  0  0  0  0
  -22.0264  -14.3307   26.2168 C   0  0  0  0  0  0  0  0  0  0  0  0
  -27.8816  -15.7629   29.0164 C   0  0  0  0  0  0  0  0  0  0  0  0
  -23.4239  -14.4849   26.1429 C   0  0  0  0  0  0  0  0  0  0  0  0
  -28.8695  -16.5046   28.3531 C   0  0  0  0  0  0  0  0  0  0  0  0
  -22.4095   -8.1251   21.4287 C   0  0  0  0  0  0  0  0  0  0  0  0
  -30.3467  -14.5751   28.4215 C   0  0  0  0  0  0  0  0  0  0  0  0
  -20.9068   -6.9408   22.7930 C   0  0  0  0  0  0  0  0  0  0  0  0
  -19.3090   -6.8451   25.0779 C   0  0  0  0  0  0  0  0  0  0  0  0
  -19.8778   -7.8669   22.9638 C   0  0  0  0  0  0  0  0  0  0  0  0
  -24.6147  -11.6642   20.7145 C   0  0  0  0  0  0  0  0  0  0  0  0
  -25.2408  -13.7599   20.4892 C   0  0  0  0  0  0  0  0  0  0  0  0
  -22.8561  -13.4811   21.1849 C   0  0  0  0  0  0  0  0  0  0  0  0
  -25.7654  -17.1745   27.1105 C   0  0  0  0  0  0  0  0  0  0  0  0
  -27.0859  -19.8876   28.3013 C   0  0  0  0  0  0  0  0  0  0  0  0
  -29.7781  -21.4064   29.7477 C   0  0  0  0  0  0  0  0  0  0  0  0
  -30.7279  -14.6114   21.3674 C   0  0  0  0  0  0  0  0  0  0  0  0
  -21.0867  -15.4836   25.9668 C   0  0  0  0  0  0  0  0  0  0  0  0
  -26.5639  -16.3954   29.3713 C   0  0  0  0  0  0  0  0  0  0  0  0
  -28.6450  -17.9365   27.9435 C   0  0  0  0  0  0  0  0  0  0  0  0
  -21.7584  -16.8504   26.0710 C   0  0  0  0  0  0  0  0  0  0  0  0
  -29.6882  -12.4993   18.4605 C   0  0  0  0  0  0  0  0  0  0  0  0
  -23.0778  -16.8566   25.3055 C   0  0  0  0  0  0  0  0  0  0  0  0
  -28.2508  -12.1562   18.8488 C   0  0  0  0  0  0  0  0  0  0  0  0
  -30.5536  -12.7273   19.6940 C   0  0  0  0  0  0  0  0  0  0  0  0
  -28.5854  -13.4363   21.0131 C   0  0  0  0  0  0  0  0  0  0  0  0
  -24.0600  -15.8348   25.8909 C   0  0  1  0  0  0  0  0  0  0  0  0
  -26.2144  -17.5862   28.4840 C   0  0  1  0  0  0  0  0  0  0  0  0
  -27.6689  -13.2177   19.7978 C   0  0  2  0  0  0  0  0  0  0  0  0
  -30.5740  -23.6403   30.5685 C   0  0  0  0  0  0  0  0  0  0  0  0
  -34.2722  -17.4542   23.9195 C   0  0  0  0  0  0  0  0  0  0  0  0
  -35.8308  -16.6923   22.1128 C   0  0  0  0  0  0  0  0  0  0  0  0
  -34.9108  -12.7961   24.6542 C   0  0  0  0  0  0  0  0  0  0  0  0
  -32.2593  -12.1274   25.9970 C   0  0  0  0  0  0  0  0  0  0  0  0
  -27.5437  -20.7805   25.4197 C   0  0  0  0  0  0  0  0  0  0  0  0
  -29.1471  -22.4997   26.2807 C   0  0  0  0  0  0  0  0  0  0  0  0
  -26.7476  -22.5852   26.9571 C   0  0  0  0  0  0  0  0  0  0  0  0
  -32.8084  -13.5741   20.3698 C   0  0  0  0  0  0  0  0  0  0  0  0
  -30.1001  -20.4052   32.5141 C   0  0  0  0  0  0  0  0  0  0  0  0
  -33.1409  -14.5181   24.0385 C   0  0  0  0  0  0  0  0  0  0  0  0
  -32.9493  -15.6062   21.7616 C   0  0  0  0  0  0  0  0  0  0  0  0
  -32.2139  -14.4597   26.9530 C   0  0  0  0  0  0  0  0  0  1  0  0
  -28.2393  -20.7779   27.9061 C   0  0  1  0  0  0  0  0  0  0  0  0
  -29.8885  -22.3355   30.9431 C   0  0  2  0  0  0  0  0  0  0  0  0
  -34.9404  -16.2365   23.2756 C   0  0  0  0  0  0  0  0  0  0  0  0
  -33.9760  -13.8931   25.1820 C   0  0  1  0  0  0  0  0  0  0  0  0
  -33.1048  -13.3556   26.3585 C   0  0  2  0  0  0  0  0  0  0  0  0
  -33.9377  -15.1230   22.8462 C   0  0  1  0  0  0  0  0  0  0  0  0
  -27.9232  -21.6333   26.6468 C   0  0  0  0  0  0  0  0  0  0  0  0
  -25.8962  -11.5926   20.3452 N   0  0  0  0  0  0  0  0  0  0  0  0
  -26.2489  -12.8829   20.2157 N   0  0  0  0  0  0  0  0  0  0  0  0
  -27.3380  -18.5084   28.3074 N   0  0  0  0  0  0  0  0  0  0  0  0
  -29.9602  -13.7228   20.5966 N   0  0  0  0  0  0  0  0  0  0  0  0
  -25.4240  -15.0949   20.4082 N   0  0  0  0  0  0  0  0  0  0  0  0
  -21.8528  -12.5529   21.4948 N   0  0  0  0  0  0  0  0  0  0  0  0
  -24.6587  -16.3471   27.1048 N   0  0  0  0  0  0  0  0  0  0  0  0
  -28.5755  -21.5602   29.0908 N   0  0  0  0  0  0  0  0  0  0  0  0
  -32.1226  -14.5278   21.2387 N   0  0  0  0  0  0  0  0  0  0  0  0
  -30.6737  -21.6879   32.0317 N   0  3  0  0  0  0  0  0  0  0  0  0
  -22.5904  -14.7066   21.2186 O   0  0  0  0  0  0  0  0  0  0  0  0
  -26.3768  -17.5789   26.1285 O   0  0  0  0  0  0  0  0  0  0  0  0
  -26.0033  -20.3975   28.6005 O   0  0  0  0  0  0  0  0  0  0  0  0
  -30.6709  -20.6253   29.4265 O   0  0  0  0  0  0  0  0  0  0  0  0
  -30.1969  -15.4391   22.1189 O   0  0  0  0  0  0  0  0  0  0  0  0
  -21.7002   -6.9865   21.6590 O   0  0  0  0  0  0  0  0  0  0  0  0
  -31.5519  -13.9959   28.1247 O   0  0  0  0  0  0  0  0  0  1  0  0
  -18.5410   -6.7981   26.1743 F   0  0  0  0  0  0  0  0  0  0  0  0
  -19.6512   -8.8042   22.0333 F   0  0  0  0  0  0  0  0  0  0  0  0
  1  2  1  0  0  0  0
  1  5  2  0  0  0  0
  2  6  2  0  0  0  0
  3  8  2  0  0  0  0
  3 15  1  0  0  0  0
  4  9  1  0  0  0  0
  4 15  2  0  0  0  0
  5 17  1  0  0  0  0
  6 19  1  0  0  0  0
  7 10  2  0  0  0  0
  7 18  1  0  0  0  0
  8 21  1  0  0  0  0
  9 21  2  0  0  0  0
 10 22  1  0  0  0  0
 11 12  2  0  0  0  0
 11 23  1  0  0  0  0
 12 24  1  0  0  0  0
 13 20  1  0  0  0  0
 13 22  2  0  0  0  0
 14 24  2  0  0  0  0
 14 25  1  0  0  0  0
 15 26  1  0  0  0  0
 16 26  1  0  0  0  0
 16 27  2  0  0  0  0
 16 28  1  0  0  0  0
 17 19  2  0  0  0  0
 17 33  1  0  0  0  0
 18 20  2  0  0  0  0
 18 34  1  0  0  0  0
 19 42  1  0  0  0  0
 20 35  1  0  0  0  0
 21 80  1  0  0  0  0
 22 81  1  0  0  0  0
 23 25  2  0  0  0  0
 23 80  1  0  0  0  0
 24 82  1  0  0  0  0
 25 83  1  0  0  0  0
 26 65  2  0  0  0  0
 27 66  1  0  0  0  0
 27 69  1  0  0  0  0
 28 70  1  0  0  0  0
 28 75  2  0  0  0  0
 29 43  1  0  0  0  0
 29 71  1  0  0  0  0
 29 76  2  0  0  0  0
 30 58  1  0  0  0  0
 30 67  1  0  0  0  0
 30 77  2  0  0  0  0
 31 59  1  0  0  0  0
 31 72  1  0  0  0  0
 31 78  2  0  0  0  0
 32 68  1  0  0  0  0
 32 73  1  0  0  0  0
 32 79  2  0  0  0  0
 33 36  1  0  0  0  0
 34 43  1  0  0  0  0
 35 67  1  0  0  0  0
 36 38  1  0  0  0  0
 37 39  1  0  0  0  0
 37 40  1  0  0  0  0
 38 42  1  0  0  0  0
 39 44  1  0  0  0  0
 40 68  1  0  0  0  0
 41 44  1  0  0  0  0
 41 68  1  0  0  0  0
 42 71  1  0  0  0  0
 43 67  1  0  0  0  0
 44 66  1  0  0  0  0
 45 59  1  0  0  0  0
 46 60  1  0  0  0  0
 47 60  1  0  0  0  0
 48 61  1  0  0  0  0
 49 62  1  0  0  0  0
 50 64  1  0  0  0  0
 51 64  1  0  0  0  0
 52 64  1  0  0  0  0
 53 73  1  0  0  0  0
 54 74  1  0  0  0  0
 55 61  1  0  0  0  0
 55 63  1  0  0  0  0
 56 63  1  0  0  0  0
 56 73  1  0  0  0  0
 57 62  1  0  0  0  0
 57 81  1  0  0  0  0
 58 64  1  0  0  0  0
 58 72  1  0  0  0  0
 59 74  1  0  0  0  0
 60 63  1  0  0  0  0
 61 62  1  0  0  0  0
 65 66  1  0  0  0  0
M  CHG  1  74   1
M  ISO  4  32 100  57 101  73 100  81 101
M  END
> <Batch ID>
0095

> <Smiles>
CNC(C)C(=O)NC(C(=O)N1Cc2cc([101O:1][101CH2:1]C(C)C(C)CC(C[100N:0](C)[100C:0](=O)N3CCCC(n4nc(-c5ccc(Oc6ccc(F)cc6F)cc5)c(C(N)=O)c4N)C3)C(C)C)ccc2CC1C(=O)NC1CCCc2ccccc21)C(C)(C)C

> <Shape>
0.147

> <Color>
0.171

> <Negative vol penalty>
0.000

$$$$

  -OEChem-04052319213D

 90 98  0     1  0  0  0  0  0999 V2000
  -36.2759  -20.7843   14.2545 C   0  0  0  0  0  0  0  0  0  0  0  0
  -34.9941  -21.0812   14.7065 C   0  0  0  0  0  0  0  0  0  0  0  0
  -23.0686   -9.8755   19.9371 C   0  0  0  0  0  0  0  0  0  0  0  0
  -23.8361   -9.8686   22.2279 C   0  0  0  0  0  0  0  0  0  0  0  0
  -37.2781  -20.4595   15.1678 C   0  0  0  0  0  0  0  0  0  0  0  0
  -34.7135  -21.0524   16.0721 C   0  0  0  0  0  0  0  0  0  0  0  0
  -31.9928  -25.0482   17.5810 C   0  0  0  0  0  0  0  0  0  0  0  0
  -22.3229   -8.7228   20.1835 C   0  0  0  0  0  0  0  0  0  0  0  0
  -23.0903   -8.7159   22.4743 C   0  0  0  0  0  0  0  0  0  0  0  0
  -30.6260  -25.0279   17.3070 C   0  0  0  0  0  0  0  0  0  0  0  0
  -19.8623   -7.9224   23.0834 C   0  0  0  0  0  0  0  0  0  0  0  0
  -19.1092   -7.8781   24.2566 C   0  0  0  0  0  0  0  0  0  0  0  0
  -30.1873  -24.3390   19.5769 C   0  0  0  0  0  0  0  0  0  0  0  0
  -26.1161  -19.9266   18.0140 C   0  0  0  0  0  0  0  0  0  0  0  0
  -26.7733  -20.8013   20.1558 C   0  0  0  0  0  0  0  0  0  0  0  0
  -20.3485   -5.9339   24.9787 C   0  0  0  0  0  0  0  0  0  0  0  0
  -23.8253  -10.4484   20.9593 C   0  0  0  0  0  0  0  0  0  0  0  0
  -24.1726  -12.9733   20.8514 C   0  0  0  0  0  0  0  0  0  0  0  0
  -37.0120  -20.4362   16.5460 C   0  0  0  0  0  0  0  0  0  0  0  0
  -32.4688  -24.7028   18.8541 C   0  0  0  0  0  0  0  0  0  0  0  0
  -35.7127  -20.7257   17.0046 C   0  0  0  0  0  0  0  0  0  0  0  0
  -31.5605  -24.3581   19.8652 C   0  0  0  0  0  0  0  0  0  0  0  0
  -26.1415  -20.9731   18.9292 C   0  0  0  0  0  0  0  0  0  0  0  0
  -22.3337   -8.1430   21.4521 C   0  0  0  0  0  0  0  0  0  0  0  0
  -29.7232  -24.6705   18.3042 C   0  0  0  0  0  0  0  0  0  0  0  0
  -20.8585   -6.9725   22.8578 C   0  0  0  0  0  0  0  0  0  0  0  0
  -19.3523   -6.8839   25.2042 C   0  0  0  0  0  0  0  0  0  0  0  0
  -21.1016   -5.9783   23.8055 C   0  0  0  0  0  0  0  0  0  0  0  0
  -24.5963  -11.6388   20.7053 C   0  0  0  0  0  0  0  0  0  0  0  0
  -26.7320  -18.7379   18.3708 C   0  0  0  0  0  0  0  0  0  0  0  0
  -27.3597  -19.5734   20.4168 C   0  0  0  0  0  0  0  0  0  0  0  0
  -25.2653  -13.7222   20.4884 C   0  0  0  0  0  0  0  0  0  0  0  0
  -22.9047  -13.4899   21.2773 C   0  0  0  0  0  0  0  0  0  0  0  0
  -34.3643  -22.4218   19.9976 C   0  0  0  0  0  0  0  0  0  0  0  0
  -34.0363  -24.0786   22.7670 C   0  0  0  0  0  0  0  0  0  0  0  0
  -32.1885  -26.2497   24.6428 C   0  0  0  0  0  0  0  0  0  0  0  0
  -30.7520  -14.7275   20.6639 C   0  0  0  0  0  0  0  0  0  0  0  0
  -38.1156  -20.0332   17.4916 C   0  0  0  0  0  0  0  0  0  0  0  0
  -33.9443  -24.7555   19.1412 C   0  0  0  0  0  0  0  0  0  0  0  0
  -32.0189  -23.9986   21.2541 C   0  0  0  0  0  0  0  0  0  0  0  0
  -37.8306  -20.3907   18.9481 C   0  0  0  0  0  0  0  0  0  0  0  0
  -29.6009  -12.3582   18.2684 C   0  0  0  0  0  0  0  0  0  0  0  0
  -36.4111  -19.9832   19.3298 C   0  0  0  0  0  0  0  0  0  0  0  0
  -28.1642  -12.0656   18.7046 C   0  0  0  0  0  0  0  0  0  0  0  0
  -30.5225  -12.5706   19.4674 C   0  0  0  0  0  0  0  0  0  0  0  0
  -28.6271  -13.2988   20.8642 C   0  0  0  0  0  0  0  0  0  0  0  0
  -35.3755  -20.7292   18.4798 C   0  0  1  0  0  0  0  0  0  0  0  0
  -34.3536  -23.8877   20.3272 C   0  0  1  0  0  0  0  0  0  0  0  0
  -27.6487  -13.1327   19.6889 C   0  0  2  0  0  0  0  0  0  0  0  0
  -32.1568  -27.3864   26.8798 C   0  0  0  0  0  0  0  0  0  0  0  0
  -31.7672  -17.2156   17.0420 C   0  0  0  0  0  0  0  0  0  0  0  0
  -30.5681  -18.6619   15.3894 C   0  0  0  0  0  0  0  0  0  0  0  0
  -33.1553  -21.4682   24.0783 C   0  0  0  0  0  0  0  0  0  0  0  0
  -32.2483  -22.8134   25.9852 C   0  0  0  0  0  0  0  0  0  0  0  0
  -34.6886  -22.8697   25.4709 C   0  0  0  0  0  0  0  0  0  0  0  0
  -32.2814  -28.9377   23.4079 C   0  0  0  0  0  0  0  0  0  0  0  0
  -25.4867  -22.2889   18.5925 C   0  0  0  0  0  0  0  0  0  0  0  0
  -26.7242  -17.5934   17.4132 C   0  0  0  0  0  0  0  0  0  0  0  0
  -26.4215  -23.2827   17.8997 C   0  0  0  0  0  0  0  0  0  0  0  0
  -27.9259  -17.5646   16.4501 C   0  0  0  0  0  0  0  0  0  0  0  0
  -29.2647  -17.3948   17.1795 C   0  0  0  0  0  0  0  0  0  0  0  0
  -30.0573  -18.1226   21.4942 C   0  0  0  0  0  0  0  0  0  0  0  0
  -28.6396  -18.1990   22.0596 C   0  0  0  0  0  0  0  0  0  0  0  0
  -30.8270  -16.8714   21.9118 C   0  0  0  0  0  0  0  0  0  0  0  0
  -27.5961  -23.7143   18.7700 C   0  0  0  0  0  0  0  0  0  1  0  0
  -33.0688  -24.0441   23.9253 C   0  0  1  0  0  0  0  0  0  0  0  0
  -32.5795  -27.4920   25.4228 C   0  0  2  0  0  0  0  0  0  0  0  0
  -30.4797  -17.3889   16.2324 C   0  0  0  0  0  0  0  0  0  0  0  0
  -33.2814  -22.8037   24.8383 C   0  0  0  0  0  0  0  0  0  0  0  0
  -25.8595  -11.5423   20.2823 N   0  0  0  0  0  0  0  0  0  0  0  0
  -27.3554  -18.5335   19.5529 N   0  0  0  0  0  0  0  0  0  0  0  0
  -26.2390  -12.8256   20.1594 N   0  0  0  0  0  0  0  0  0  0  0  0
  -33.4719  -24.0588   21.4837 N   0  0  0  0  0  0  0  0  0  0  0  0
  -29.9773  -13.5957   20.3606 N   0  0  0  0  0  0  0  0  0  0  0  0
  -25.4786  -15.0535   20.4217 N   0  0  0  0  0  0  0  0  0  0  0  0
  -21.8918  -12.5813   21.6131 N   0  0  0  0  0  0  0  0  0  0  0  0
  -27.9995  -19.4133   21.6711 N   0  0  0  0  0  0  0  0  0  0  0  0
  -35.2108  -22.0850   18.9586 N   0  0  0  0  0  0  0  0  0  0  0  0
  -33.2092  -25.3232   24.6127 N   0  0  0  0  0  0  0  0  0  0  0  0
  -30.1578  -15.6533   21.5128 N   0  0  0  0  0  0  0  0  0  0  0  0
  -31.9342  -28.6986   24.8324 N   0  3  0  0  0  0  0  0  0  0  0  0
  -22.6715  -14.7207   21.3418 O   0  0  0  0  0  0  0  0  0  0  0  0
  -33.6580  -21.6530   20.6393 O   0  0  0  0  0  0  0  0  0  0  0  0
  -35.2481  -24.1287   22.9925 O   0  0  0  0  0  0  0  0  0  0  0  0
  -31.0864  -26.1132   24.1163 O   0  0  0  0  0  0  0  0  0  0  0  0
  -31.8869  -14.9027   20.2074 O   0  0  0  0  0  0  0  0  0  0  0  0
  -21.6059   -7.0183   21.6929 O   0  0  0  0  0  0  0  0  0  0  0  0
  -28.3886  -24.6493   18.0392 O   0  0  0  0  0  0  0  0  0  1  0  0
  -18.6300   -6.8424   26.3315 F   0  0  0  0  0  0  0  0  0  0  0  0
  -22.0581   -5.0636   23.5949 F   0  0  0  0  0  0  0  0  0  0  0  0
  1  2  1  0  0  0  0
  1  5  2  0  0  0  0
  2  6  2  0  0  0  0
  3  8  2  0  0  0  0
  3 17  1  0  0  0  0
  4  9  1  0  0  0  0
  4 17  2  0  0  0  0
  5 19  1  0  0  0  0
  6 21  1  0  0  0  0
  7 10  2  0  0  0  0
  7 20  1  0  0  0  0
  8 24  1  0  0  0  0
  9 24  2  0  0  0  0
 10 25  1  0  0  0  0
 11 12  2  0  0  0  0
 11 26  1  0  0  0  0
 12 27  1  0  0  0  0
 13 22  1  0  0  0  0
 13 25  2  0  0  0  0
 14 23  1  0  0  0  0
 14 30  2  0  0  0  0
 15 23  2  0  0  0  0
 15 31  1  0  0  0  0
 16 27  2  0  0  0  0
 16 28  1  0  0  0  0
 17 29  1  0  0  0  0
 18 29  1  0  0  0  0
 18 32  2  0  0  0  0
 18 33  1  0  0  0  0
 19 21  2  0  0  0  0
 19 38  1  0  0  0  0
 20 22  2  0  0  0  0
 20 39  1  0  0  0  0
 21 47  1  0  0  0  0
 22 40  1  0  0  0  0
 23 57  1  0  0  0  0
 24 87  1  0  0  0  0
 25 88  1  0  0  0  0
 26 28  2  0  0  0  0
 26 87  1  0  0  0  0
 27 89  1  0  0  0  0
 28 90  1  0  0  0  0
 29 70  2  0  0  0  0
 30 58  1  0  0  0  0
 30 71  1  0  0  0  0
 31 71  2  0  0  0  0
 31 77  1  0  0  0  0
 32 72  1  0  0  0  0
 32 75  1  0  0  0  0
 33 76  1  0  0  0  0
 33 82  2  0  0  0  0
 34 48  1  0  0  0  0
 34 78  1  0  0  0  0
 34 83  2  0  0  0  0
 35 66  1  0  0  0  0
 35 73  1  0  0  0  0
 35 84  2  0  0  0  0
 36 67  1  0  0  0  0
 36 79  1  0  0  0  0
 36 85  2  0  0  0  0
 37 74  1  0  0  0  0
 37 80  1  0  0  0  0
 37 86  2  0  0  0  0
 38 41  1  0  0  0  0
 39 48  1  0  0  0  0
 40 73  1  0  0  0  0
 41 43  1  0  0  0  0
 42 44  1  0  0  0  0
 42 45  1  0  0  0  0
 43 47  1  0  0  0  0
 44 49  1  0  0  0  0
 45 74  1  0  0  0  0
 46 49  1  0  0  0  0
 46 74  1  0  0  0  0
 47 78  1  0  0  0  0
 48 73  1  0  0  0  0
 49 72  1  0  0  0  0
 50 67  1  0  0  0  0
 51 68  1  0  0  0  0
 52 68  1  0  0  0  0
 53 69  1  0  0  0  0
 54 69  1  0  0  0  0
 55 69  1  0  0  0  0
 56 81  1  0  0  0  0
 57 59  1  0  0  0  0
 58 60  1  0  0  0  0
 59 65  1  0  0  0  0
 60 61  1  0  0  0  0
 61 68  1  0  0  0  0
 62 63  1  0  0  0  0
 62 64  1  0  0  0  0
 63 77  1  0  0  0  0
 64 80  1  0  0  0  0
 65 88  1  0  0  0  0
 66 69  1  0  0  0  0
 66 79  1  0  0  0  0
 67 81  1  0  0  0  0
 70 72  1  0  0  0  0
M  CHG  1  81   1
M  ISO  4  37 100  65 101  80 100  88 101
M  END
> <Batch ID>
0095

> <Smiles>
CNC(C)C(=O)NC(C(=O)N1Cc2cc([101O:1][101CH2:1]CCc3cc(CCCC(C)C)nc(NCCC[100NH:0][100C:0](=O)N4CCCC(n5nc(-c6ccc(Oc7ccc(F)cc7F)cc6)c(C(N)=O)c5N)C4)c3)ccc2CC1C(=O)NC1CCCc2ccccc21)C(C)(C)C

> <Shape>
0.218

> <Color>
0.184

> <Negative vol penalty>
0.000

$$$$

  -OEChem-04052319213D

 82 89  0     1  0  0  0  0  0999 V2000
  -19.4749  -31.4313   23.6186 C   0  0  0  0  0  0  0  0  0  0  0  0
  -20.8132  -31.0517   23.6039 C   0  0  0  0  0  0  0  0  0  0  0  0
  -27.2358  -18.0817   19.3509 C   0  0  0  0  0  0  0  0  0  0  0  0
  -28.8309  -17.4201   21.0406 C   0  0  0  0  0  0  0  0  0  0  0  0
  -18.4855  -30.5064   23.2878 C   0  0  0  0  0  0  0  0  0  0  0  0
  -21.1628  -29.7464   23.2595 C   0  0  0  0  0  0  0  0  0  0  0  0
  -25.0780  -29.5655   20.0528 C   0  0  0  0  0  0  0  0  0  0  0  0
  -26.8404  -16.7523   19.2036 C   0  0  0  0  0  0  0  0  0  0  0  0
  -28.4354  -16.0906   20.8933 C   0  0  0  0  0  0  0  0  0  0  0  0
  -26.3503  -29.7569   20.5899 C   0  0  0  0  0  0  0  0  0  0  0  0
  -28.0999  -12.4764   20.7066 C   0  0  0  0  0  0  0  0  0  0  0  0
  -29.0999  -11.5068   20.6335 C   0  0  0  0  0  0  0  0  0  0  0  0
  -26.7073  -27.3711   20.5784 C   0  0  0  0  0  0  0  0  0  0  0  0
  -29.9948  -12.5784   18.6617 C   0  0  0  0  0  0  0  0  0  0  0  0
  -28.2312  -18.4156   20.2694 C   0  0  0  0  0  0  0  0  0  0  0  0
  -28.1017  -20.7436   21.3045 C   0  0  0  0  0  0  0  0  0  0  0  0
  -18.8237  -29.1918   22.9299 C   0  0  0  0  0  0  0  0  0  0  0  0
  -24.6058  -28.2727   19.7842 C   0  0  0  0  0  0  0  0  0  0  0  0
  -20.1768  -28.8027   22.9250 C   0  0  0  0  0  0  0  0  0  0  0  0
  -25.4296  -27.1663   20.0356 C   0  0  0  0  0  0  0  0  0  0  0  0
  -27.4401  -15.7567   19.9748 C   0  0  0  0  0  0  0  0  0  0  0  0
  -27.1641  -28.6594   20.8555 C   0  0  0  0  0  0  0  0  0  0  0  0
  -28.0473  -13.4970   19.7572 C   0  0  0  0  0  0  0  0  0  0  0  0
  -30.0474  -11.5578   19.6111 C   0  0  0  0  0  0  0  0  0  0  0  0
  -28.9947  -13.5480   18.7348 C   0  0  0  0  0  0  0  0  0  0  0  0
  -28.6406  -19.7887   20.4216 C   0  0  0  0  0  0  0  0  0  0  0  0
  -28.8300  -21.8830   21.0643 C   0  0  0  0  0  0  0  0  0  0  0  0
  -27.0378  -20.6123   22.2567 C   0  0  0  0  0  0  0  0  0  0  0  0
  -22.1811  -26.5068   20.8357 C   0  0  0  0  0  0  0  0  0  0  0  0
  -23.1899  -24.4520   18.5374 C   0  0  0  0  0  0  0  0  0  0  0  0
  -25.7391  -23.3454   16.5567 C   0  0  0  0  0  0  0  0  0  0  0  0
  -33.7096  -24.4454   20.1872 C   0  0  0  0  0  0  0  0  0  0  0  0
  -17.7160  -28.2144   22.6260 C   0  0  0  0  0  0  0  0  0  0  0  0
  -23.2413  -28.0849   19.1799 C   0  0  0  0  0  0  0  0  0  0  0  0
  -24.9775  -25.7590   19.7462 C   0  0  0  0  0  0  0  0  0  0  0  0
  -18.1950  -26.9546   21.9092 C   0  0  0  0  0  0  0  0  0  0  0  0
  -32.1042  -22.9793   17.3677 C   0  0  0  0  0  0  0  0  0  0  0  0
  -19.4421  -26.3961   22.5872 C   0  0  0  0  0  0  0  0  0  0  0  0
  -31.0202  -22.0930   17.9838 C   0  0  0  0  0  0  0  0  0  0  0  0
  -33.3757  -22.9863   18.2134 C   0  0  0  0  0  0  0  0  0  0  0  0
  -32.0905  -22.4526   20.2475 C   0  0  0  0  0  0  0  0  0  0  0  0
  -20.5974  -27.4029   22.5327 C   0  0  1  0  0  0  0  0  0  0  0  0
  -22.6654  -26.6937   19.4257 C   0  0  1  0  0  0  0  0  0  0  0  0
  -30.7694  -22.4578   19.4594 C   0  0  2  0  0  0  0  0  0  0  0  0
  -28.6401  -31.3385   23.4330 C   0  0  0  0  0  0  0  0  0  0  0  0
  -26.2705  -21.6273   14.8064 C   0  0  0  0  0  0  0  0  0  0  0  0
  -29.9313  -29.5770   25.5920 C   0  0  0  0  0  0  0  0  0  0  0  0
  -23.3096  -22.2961   20.6933 C   0  0  0  0  0  0  0  0  0  0  0  0
  -24.7136  -20.9211   19.1422 C   0  0  0  0  0  0  0  0  0  0  0  0
  -22.3807  -21.5293   18.5017 C   0  0  0  0  0  0  0  0  0  0  0  0
  -26.3964  -25.4215   14.5525 C   0  0  0  0  0  0  0  0  0  0  0  0
  -30.0327  -26.2158   24.4359 C   0  0  0  0  0  0  0  0  0  0  0  0
  -28.0101  -30.1117   24.0768 C   0  0  0  0  0  0  0  0  0  0  0  0
  -32.9656  -26.3800   23.2856 C   0  0  0  0  0  0  0  0  0  0  0  0
  -33.9259  -25.8233   22.2400 C   0  0  0  0  0  0  0  0  0  0  0  0
  -31.6613  -26.8692   22.6690 C   0  0  0  0  0  0  0  0  0  0  0  0
  -28.9191  -27.8050   22.2141 C   0  0  0  0  0  0  0  0  0  1  0  0
  -24.1755  -23.3098   18.4823 C   0  0  1  0  0  0  0  0  0  0  0  0
  -25.8037  -23.0507   15.0689 C   0  0  2  0  0  0  0  0  0  0  0  0
  -29.0271  -29.0207   24.4820 C   0  0  1  0  0  0  0  0  0  0  0  0
  -29.8135  -28.4175   23.2929 C   0  0  1  0  0  0  0  0  0  0  0  0
  -23.6529  -22.0403   19.2122 C   0  0  0  0  0  0  0  0  0  0  0  0
  -29.6344  -20.2789   19.6759 N   0  0  0  0  0  0  0  0  0  0  0  0
  -29.7258  -21.5542   20.0898 N   0  0  0  0  0  0  0  0  0  0  0  0
  -23.6329  -25.6267   19.1616 N   0  0  0  0  0  0  0  0  0  0  0  0
  -33.0689  -23.3412   19.6012 N   0  0  0  0  0  0  0  0  0  0  0  0
  -28.7852  -23.1240   21.5936 N   0  0  0  0  0  0  0  0  0  0  0  0
  -26.3965  -19.3718   22.3753 N   0  0  0  0  0  0  0  0  0  0  0  0
  -21.2039  -27.4056   21.2188 N   0  0  0  0  0  0  0  0  0  0  0  0
  -24.4829  -23.1037   17.0711 N   0  0  0  0  0  0  0  0  0  0  0  0
  -33.3570  -24.7165   21.5036 N   0  0  0  0  0  0  0  0  0  0  0  0
  -26.7482  -23.9867   14.3960 N   0  3  0  0  0  0  0  0  0  0  0  0
  -30.7518  -27.3556   23.7654 N   0  3  1  0  0  0  0  0  0  0  0  0
  -26.6560  -21.5714   22.9694 O   0  0  0  0  0  0  0  0  0  0  0  0
  -22.6576  -25.6124   21.5247 O   0  0  0  0  0  0  0  0  0  0  0  0
  -22.0707  -24.3096   18.0385 O   0  0  0  0  0  0  0  0  0  0  0  0
  -26.7073  -23.7460   17.1990 O   0  0  0  0  0  0  0  0  0  0  0  0
  -34.5308  -25.1414   19.5805 O   0  0  0  0  0  0  0  0  0  0  0  0
  -27.0543  -14.4593   19.8316 O   0  0  0  0  0  0  0  0  0  0  0  0
  -28.4061  -28.8433   21.3803 O   0  0  0  0  0  0  0  0  0  1  0  0
  -31.0086  -10.6275   19.5419 F   0  0  0  0  0  0  0  0  0  0  0  0
  -28.9500  -14.5268   17.8205 F   0  0  0  0  0  0  0  0  0  0  0  0
  1  2  1  0  0  0  0
  1  5  2  0  0  0  0
  2  6  2  0  0  0  0
  3  8  2  0  0  0  0
  3 15  1  0  0  0  0
  4  9  1  0  0  0  0
  4 15  2  0  0  0  0
  5 17  1  0  0  0  0
  6 19  1  0  0  0  0
  7 10  2  0  0  0  0
  7 18  1  0  0  0  0
  8 21  1  0  0  0  0
  9 21  2  0  0  0  0
 10 22  1  0  0  0  0
 11 12  2  0  0  0  0
 11 23  1  0  0  0  0
 12 24  1  0  0  0  0
 13 20  1  0  0  0  0
 13 22  2  0  0  0  0
 14 24  2  0  0  0  0
 14 25  1  0  0  0  0
 15 26  1  0  0  0  0
 16 26  1  0  0  0  0
 16 27  2  0  0  0  0
 16 28  1  0  0  0  0
 17 19  2  0  0  0  0
 17 33  1  0  0  0  0
 18 20  2  0  0  0  0
 18 34  1  0  0  0  0
 19 42  1  0  0  0  0
 20 35  1  0  0  0  0
 21 79  1  0  0  0  0
 22 80  1  0  0  0  0
 23 25  2  0  0  0  0
 23 79  1  0  0  0  0
 24 81  1  0  0  0  0
 25 82  1  0  0  0  0
 26 63  2  0  0  0  0
 27 64  1  0  0  0  0
 27 67  1  0  0  0  0
 28 68  1  0  0  0  0
 28 74  2  0  0  0  0
 29 43  1  0  0  0  0
 29 69  1  0  0  0  0
 29 75  2  0  0  0  0
 30 58  1  0  0  0  0
 30 65  1  0  0  0  0
 30 76  2  0  0  0  0
 31 59  1  0  0  0  0
 31 70  1  0  0  0  0
 31 77  2  0  0  0  0
 32 66  1  0  0  0  0
 32 71  1  0  0  0  0
 32 78  2  0  0  0  0
 33 36  1  0  0  0  0
 34 43  1  0  0  0  0
 35 65  1  0  0  0  0
 36 38  1  0  0  0  0
 37 39  1  0  0  0  0
 37 40  1  0  0  0  0
 38 42  1  0  0  0  0
 39 44  1  0  0  0  0
 40 66  1  0  0  0  0
 41 44  1  0  0  0  0
 41 66  1  0  0  0  0
 42 69  1  0  0  0  0
 43 65  1  0  0  0  0
 44 64  1  0  0  0  0
 45 53  1  0  0  0  0
 46 59  1  0  0  0  0
 47 60  1  0  0  0  0
 48 62  1  0  0  0  0
 49 62  1  0  0  0  0
 50 62  1  0  0  0  0
 51 72  1  0  0  0  0
 52 73  1  0  0  0  0
 53 60  1  0  0  0  0
 54 55  1  0  0  0  0
 54 56  1  0  0  0  0
 55 71  1  0  0  0  0
 56 73  1  0  0  0  0
 57 61  1  0  0  0  0
 57 80  1  0  0  0  0
 58 62  1  0  0  0  0
 58 70  1  0  0  0  0
 59 72  1  0  0  0  0
 60 61  1  0  0  0  0
 61 73  1  0  0  0  0
 63 64  1  0  0  0  0
M  CHG  2  72   1  73   1
M  ISO  4  32 100  57 101  71 100  80 101
M  END
> <Batch ID>
0095

> <Smiles>
CCC(C)C(N(C)CCC[100NH:0][100C:0](=O)N1CCCC(n2nc(-c3ccc(Oc4ccc(F)cc4F)cc3)c(C(N)=O)c2N)C1)[101CH2:1][101O:1]c1ccc2c(c1)CN(C(=O)C(NC(=O)C(C)NC)C(C)(C)C)C(C(=O)NC1CCCc3ccccc31)C2

> <Shape>
0.229

> <Color>
0.069

> <Negative vol penalty>
0.000

$$$$

  -OEChem-04052319213D

 89 97  0     1  0  0  0  0  0999 V2000
  -17.1594  -28.4544   24.5230 C   0  0  0  0  0  0  0  0  0  0  0  0
  -17.4857  -27.1463   24.1796 C   0  0  0  0  0  0  0  0  0  0  0  0
  -26.6247  -12.6837   21.0347 C   0  0  0  0  0  0  0  0  0  0  0  0
  -25.1914  -14.4424   20.2045 C   0  0  0  0  0  0  0  0  0  0  0  0
  -17.7328  -29.5196   23.8298 C   0  0  0  0  0  0  0  0  0  0  0  0
  -18.3849  -26.9027   23.1420 C   0  0  0  0  0  0  0  0  0  0  0  0
  -23.4563  -22.2635   21.1233 C   0  0  0  0  0  0  0  0  0  0  0  0
  -25.5040  -11.9731   21.4644 C   0  0  0  0  0  0  0  0  0  0  0  0
  -24.0706  -13.7318   20.6341 C   0  0  0  0  0  0  0  0  0  0  0  0
  -23.8161  -21.4660   20.0378 C   0  0  0  0  0  0  0  0  0  0  0  0
  -23.0028   -9.5288   22.4564 C   0  0  0  0  0  0  0  0  0  0  0  0
  -22.9576   -8.1618   22.1829 C   0  0  0  0  0  0  0  0  0  0  0  0
  -24.8050  -23.3858   18.9629 C   0  0  0  0  0  0  0  0  0  0  0  0
  -23.0821   -8.6311   19.8162 C   0  0  0  0  0  0  0  0  0  0  0  0
  -30.7091  -20.3724   17.6768 C   0  0  0  0  0  0  0  0  0  0  0  0
  -26.4684  -13.9184   20.4048 C   0  0  0  0  0  0  0  0  0  0  0  0
  -28.2539  -14.5719   18.7040 C   0  0  0  0  0  0  0  0  0  0  0  0
  -18.6468  -29.2891   22.7896 C   0  0  0  0  0  0  0  0  0  0  0  0
  -23.7591  -23.6327   21.1319 C   0  0  0  0  0  0  0  0  0  0  0  0
  -18.9700  -27.9658   22.4334 C   0  0  0  0  0  0  0  0  0  0  0  0
  -24.4503  -24.1980   20.0508 C   0  0  0  0  0  0  0  0  0  0  0  0
  -31.6821  -21.3297   17.8613 C   0  0  0  0  0  0  0  0  0  0  0  0
  -31.1289  -22.3422   18.6835 C   0  0  0  0  0  0  0  0  0  0  0  0
  -24.2270  -12.4971   21.2641 C   0  0  0  0  0  0  0  0  0  0  0  0
  -24.4880  -22.0277   18.9561 C   0  0  0  0  0  0  0  0  0  0  0  0
  -23.0876  -10.4470   21.4098 C   0  0  0  0  0  0  0  0  0  0  0  0
  -22.9973   -7.7129   20.8629 C   0  0  0  0  0  0  0  0  0  0  0  0
  -23.1273   -9.9982   20.0897 C   0  0  0  0  0  0  0  0  0  0  0  0
  -27.6258  -14.6532   19.9612 C   0  0  0  0  0  0  0  0  0  0  0  0
  -29.8347  -21.9726   18.9765 C   0  0  0  0  0  0  0  0  0  0  0  0
  -29.2976  -15.4612   18.7834 C   0  0  0  0  0  0  0  0  0  0  0  0
  -27.9234  -13.7647   17.5660 C   0  0  0  0  0  0  0  0  0  0  0  0
  -22.0458  -26.3083   21.2313 C   0  0  0  0  0  0  0  0  0  0  0  0
  -24.9623  -27.7049   21.4888 C   0  0  0  0  0  0  0  0  0  0  0  0
  -28.3232  -27.5195   20.9261 C   0  0  0  0  0  0  0  0  0  0  0  0
  -30.2467  -20.3473   22.1115 C   0  0  0  0  0  0  0  0  0  0  0  0
  -19.2046  -30.4717   22.0380 C   0  0  0  0  0  0  0  0  0  0  0  0
  -23.3878  -24.4738   22.3223 C   0  0  0  0  0  0  0  0  0  0  0  0
  -24.8167  -25.6585   20.0203 C   0  0  0  0  0  0  0  0  0  0  0  0
  -20.4347  -30.1351   21.1990 C   0  0  0  0  0  0  0  0  0  0  0  0
  -32.2972  -17.4417   21.9411 C   0  0  0  0  0  0  0  0  0  0  0  0
  -20.2025  -28.8565   20.4003 C   0  0  0  0  0  0  0  0  0  0  0  0
  -31.3892  -16.3902   21.3009 C   0  0  0  0  0  0  0  0  0  0  0  0
  -31.5196  -18.3647   22.8766 C   0  0  0  0  0  0  0  0  0  0  0  0
  -29.4327  -17.9595   21.6298 C   0  0  0  0  0  0  0  0  0  0  0  0
  -19.9602  -27.6614   21.3302 C   0  0  1  0  0  0  0  0  0  0  0  0
  -23.2916  -25.9611   21.9964 C   0  0  1  0  0  0  0  0  0  0  0  0
  -30.1615  -17.0402   20.6348 C   0  0  2  0  0  0  0  0  0  0  0  0
  -31.8118  -23.5691   19.1432 C   0  0  0  0  0  0  0  0  0  0  0  0
  -33.0648  -21.3148   15.7538 C   0  0  0  0  0  0  0  0  0  0  0  0
  -33.8781  -20.0935   17.8037 C   0  0  0  0  0  0  0  0  0  0  0  0
  -30.7400  -28.1885   21.0191 C   0  0  0  0  0  0  0  0  0  0  0  0
  -26.4108  -17.8405   17.4489 C   0  0  0  0  0  0  0  0  0  0  0  0
  -24.1919  -29.4615   19.1159 C   0  0  0  0  0  0  0  0  0  0  0  0
  -26.6120  -30.0464   18.8525 C   0  0  0  0  0  0  0  0  0  0  0  0
  -25.4042  -30.6563   20.9482 C   0  0  0  0  0  0  0  0  0  0  0  0
  -28.7342  -26.1110   23.4964 C   0  0  0  0  0  0  0  0  0  0  0  0
  -27.4617  -20.0941   17.1269 C   0  0  0  0  0  0  0  0  0  0  0  0
  -28.2970  -19.9995   18.4112 C   0  0  0  0  0  0  0  0  0  0  0  0
  -28.8697  -22.2317   21.2676 C   0  0  0  0  0  0  0  0  0  0  0  0
  -25.1147  -19.8765   18.1589 C   0  0  0  0  0  0  0  0  0  1  0  0
  -33.0473  -21.2962   17.2998 C   0  0  0  0  0  0  0  0  0  0  0  0
  -25.9840  -28.2344   20.5118 C   0  0  1  0  0  0  0  0  0  0  0  0
  -29.5123  -27.7986   21.8275 C   0  0  2  0  0  0  0  0  0  0  0  0
  -26.1265  -19.3179   17.1493 C   0  0  2  0  0  0  0  0  0  0  0  0
  -28.8085  -22.6570   19.7912 C   0  0  0  0  0  0  0  0  0  0  0  0
  -25.5396  -29.5725   19.8565 C   0  0  0  0  0  0  0  0  0  0  0  0
  -28.2208  -15.5251   20.7795 N   0  0  0  0  0  0  0  0  0  0  0  0
  -29.5905  -20.7735   18.3595 N   0  0  0  0  0  0  0  0  0  0  0  0
  -29.2339  -15.9999   20.0348 N   0  0  0  0  0  0  0  0  0  0  0  0
  -24.4263  -26.4408   21.2049 N   0  0  0  0  0  0  0  0  0  0  0  0
  -30.3693  -18.9499   22.1835 N   0  0  0  0  0  0  0  0  0  0  0  0
  -30.2545  -15.8271   17.9043 N   0  0  0  0  0  0  0  0  0  0  0  0
  -26.8195  -12.9056   17.6541 N   0  0  0  0  0  0  0  0  0  0  0  0
  -21.2110  -27.1928   21.8872 N   0  0  0  0  0  0  0  0  0  0  0  0
  -27.2437  -28.3167   21.2431 N   0  0  0  0  0  0  0  0  0  0  0  0
  -29.1306  -20.8190   21.4312 N   0  0  0  0  0  0  0  0  0  0  0  0
  -29.8452  -26.5910   22.6348 N   0  3  0  0  0  0  0  0  0  0  0  0
  -28.5971  -13.7921   16.5083 O   0  0  0  0  0  0  0  0  0  0  0  0
  -21.8568  -25.8116   20.1271 O   0  0  0  0  0  0  0  0  0  0  0  0
  -24.6563  -28.3846   22.4717 O   0  0  0  0  0  0  0  0  0  0  0  0
  -28.3505  -26.6808   20.0281 O   0  0  0  0  0  0  0  0  0  0  0  0
  -31.0734  -21.1176   22.6116 O   0  0  0  0  0  0  0  0  0  0  0  0
  -23.1331  -11.8038   21.6830 O   0  0  0  0  0  0  0  0  0  0  0  0
  -24.8397  -21.2517   17.8950 O   0  0  0  0  0  0  0  0  0  1  0  0
  -22.9554   -6.4001   20.6005 F   0  0  0  0  0  0  0  0  0  0  0  0
  -23.2099  -10.8755   19.0801 F   0  0  0  0  0  0  0  0  0  0  0  0
  -28.9184  -24.0298   19.7629 F   0  0  0  0  0  0  0  0  0  0  0  0
  -27.5229  -22.4195   19.3570 F   0  0  0  0  0  0  0  0  0  0  0  0
  1  2  1  0  0  0  0
  1  5  2  0  0  0  0
  2  6  2  0  0  0  0
  3  8  2  0  0  0  0
  3 16  1  0  0  0  0
  4  9  1  0  0  0  0
  4 16  2  0  0  0  0
  5 18  1  0  0  0  0
  6 20  1  0  0  0  0
  7 10  2  0  0  0  0
  7 19  1  0  0  0  0
  8 24  1  0  0  0  0
  9 24  2  0  0  0  0
 10 25  1  0  0  0  0
 11 12  2  0  0  0  0
 11 26  1  0  0  0  0
 12 27  1  0  0  0  0
 13 21  1  0  0  0  0
 13 25  2  0  0  0  0
 14 27  2  0  0  0  0
 14 28  1  0  0  0  0
 15 22  2  0  0  0  0
 15 69  1  0  0  0  0
 16 29  1  0  0  0  0
 17 29  1  0  0  0  0
 17 31  2  0  0  0  0
 17 32  1  0  0  0  0
 18 20  2  0  0  0  0
 18 37  1  0  0  0  0
 19 21  2  0  0  0  0
 19 38  1  0  0  0  0
 20 46  1  0  0  0  0
 21 39  1  0  0  0  0
 22 23  1  0  0  0  0
 22 62  1  0  0  0  0
 23 30  2  0  0  0  0
 23 49  1  0  0  0  0
 24 84  1  0  0  0  0
 25 85  1  0  0  0  0
 26 28  2  0  0  0  0
 26 84  1  0  0  0  0
 27 86  1  0  0  0  0
 28 87  1  0  0  0  0
 29 68  2  0  0  0  0
 30 66  1  0  0  0  0
 30 69  1  0  0  0  0
 31 70  1  0  0  0  0
 31 73  1  0  0  0  0
 32 74  1  0  0  0  0
 32 79  2  0  0  0  0
 33 47  1  0  0  0  0
 33 75  1  0  0  0  0
 33 80  2  0  0  0  0
 34 63  1  0  0  0  0
 34 71  1  0  0  0  0
 34 81  2  0  0  0  0
 35 64  1  0  0  0  0
 35 76  1  0  0  0  0
 35 82  2  0  0  0  0
 36 72  1  0  0  0  0
 36 77  1  0  0  0  0
 36 83  2  0  0  0  0
 37 40  1  0  0  0  0
 38 47  1  0  0  0  0
 39 71  1  0  0  0  0
 40 42  1  0  0  0  0
 41 43  1  0  0  0  0
 41 44  1  0  0  0  0
 42 46  1  0  0  0  0
 43 48  1  0  0  0  0
 44 72  1  0  0  0  0
 45 48  1  0  0  0  0
 45 72  1  0  0  0  0
 46 75  1  0  0  0  0
 47 71  1  0  0  0  0
 48 70  1  0  0  0  0
 50 62  1  0  0  0  0
 51 62  1  0  0  0  0
 52 64  1  0  0  0  0
 53 65  1  0  0  0  0
 54 67  1  0  0  0  0
 55 67  1  0  0  0  0
 56 67  1  0  0  0  0
 57 78  1  0  0  0  0
 58 59  1  0  0  0  0
 58 65  1  0  0  0  0
 59 69  1  0  0  0  0
 60 66  1  0  0  0  0
 60 77  1  0  0  0  0
 61 65  1  0  0  0  0
 61 85  1  0  0  0  0
 63 67  1  0  0  0  0
 63 76  1  0  0  0  0
 64 78  1  0  0  0  0
 66 88  1  0  0  0  0
 66 89  1  0  0  0  0
 68 70  1  0  0  0  0
M  CHG  1  78   1
M  ISO  4  36 100  61 101  77 100  85 101
M  END
> <Batch ID>
0095

> <Smiles>
CNC(C)C(=O)NC(C(=O)N1Cc2cc([101O:1][101CH2:1]C(C)CCn3cc(C(C)C)c(C)c3C(F)(F)C[100NH:0][100C:0](=O)N3CCCC(n4nc(-c5ccc(Oc6ccc(F)cc6F)cc5)c(C(N)=O)c4N)C3)ccc2CC1C(=O)NC1CCCc2ccccc21)C(C)(C)C

> <Shape>
0.268

> <Color>
0.059

> <Negative vol penalty>
0.000

$$$$

  -OEChem-04052319213D

 90 98  0     1  0  0  0  0  0999 V2000
  -31.6873  -23.0160   34.9088 C   0  0  0  0  0  0  0  0  0  0  0  0
  -31.2346  -22.8377   33.6054 C   0  0  0  0  0  0  0  0  0  0  0  0
  -23.1744   -9.8800   19.8537 C   0  0  0  0  0  0  0  0  0  0  0  0
  -23.8491   -9.8353   22.1732 C   0  0  0  0  0  0  0  0  0  0  0  0
  -33.0051  -22.7004   35.2370 C   0  0  0  0  0  0  0  0  0  0  0  0
  -32.0998  -22.3448   32.6293 C   0  0  0  0  0  0  0  0  0  0  0  0
  -29.9520  -18.7713   29.7549 C   0  0  0  0  0  0  0  0  0  0  0  0
  -22.4675   -8.6915   20.0364 C   0  0  0  0  0  0  0  0  0  0  0  0
  -23.1421   -8.6468   22.3559 C   0  0  0  0  0  0  0  0  0  0  0  0
  -29.0788  -19.1979   28.7552 C   0  0  0  0  0  0  0  0  0  0  0  0
  -19.5015   -7.7337   21.3474 C   0  0  0  0  0  0  0  0  0  0  0  0
  -18.2161   -7.6552   20.8117 C   0  0  0  0  0  0  0  0  0  0  0  0
  -30.8330  -18.9369   27.1200 C   0  0  0  0  0  0  0  0  0  0  0  0
  -28.8079  -19.0046   21.2709 C   0  0  0  0  0  0  0  0  0  0  0  0
  -29.8608  -17.9392   19.3892 C   0  0  0  0  0  0  0  0  0  0  0  0
  -18.8992   -5.7822   19.4470 C   0  0  0  0  0  0  0  0  0  0  0  0
  -23.8653  -10.4518   20.9221 C   0  0  0  0  0  0  0  0  0  0  0  0
  -24.1124  -12.9907   20.9001 C   0  0  0  0  0  0  0  0  0  0  0  0
  -33.8842  -22.1942   34.2666 C   0  0  0  0  0  0  0  0  0  0  0  0
  -31.2776  -18.4342   29.4458 C   0  0  0  0  0  0  0  0  0  0  0  0
  -33.4310  -22.0234   32.9446 C   0  0  0  0  0  0  0  0  0  0  0  0
  -31.7203  -18.5038   28.1171 C   0  0  0  0  0  0  0  0  0  0  0  0
  -29.2236  -17.8474   20.6216 C   0  0  0  0  0  0  0  0  0  0  0  0
  -22.4513   -8.0749   21.2875 C   0  0  0  0  0  0  0  0  0  0  0  0
  -29.5201  -19.2835   27.4380 C   0  0  0  0  0  0  0  0  0  0  0  0
  -20.4859   -6.8366   20.9328 C   0  0  0  0  0  0  0  0  0  0  0  0
  -17.9149   -6.6795   19.8615 C   0  0  0  0  0  0  0  0  0  0  0  0
  -20.1847   -5.8608   19.9827 C   0  0  0  0  0  0  0  0  0  0  0  0
  -24.5962  -11.6792   20.7339 C   0  0  0  0  0  0  0  0  0  0  0  0
  -29.0512  -20.2194   20.6505 C   0  0  0  0  0  0  0  0  0  0  0  0
  -30.0568  -19.2016   18.8530 C   0  0  0  0  0  0  0  0  0  0  0  0
  -25.1870  -13.7932   20.6039 C   0  0  0  0  0  0  0  0  0  0  0  0
  -22.8083  -13.4432   21.2877 C   0  0  0  0  0  0  0  0  0  0  0  0
  -34.1314  -19.5516   30.2889 C   0  0  0  0  0  0  0  0  0  0  0  0
  -35.1984  -16.9906   28.6082 C   0  0  0  0  0  0  0  0  0  0  0  0
  -34.6136  -14.6808   26.1648 C   0  0  0  0  0  0  0  0  0  0  0  0
  -30.7346  -14.6951   21.4575 C   0  0  0  0  0  0  0  0  0  0  0  0
  -35.3131  -21.9120   34.6581 C   0  0  0  0  0  0  0  0  0  0  0  0
  -32.1994  -17.9502   30.5314 C   0  0  0  0  0  0  0  0  0  0  0  0
  -33.1279  -18.1338   27.7298 C   0  0  0  0  0  0  0  0  0  0  0  0
  -36.0600  -21.0415   33.6508 C   0  0  0  0  0  0  0  0  0  0  0  0
  -29.6592  -12.7037   18.5284 C   0  0  0  0  0  0  0  0  0  0  0  0
  -35.8194  -21.5425   32.2303 C   0  0  0  0  0  0  0  0  0  0  0  0
  -28.2293  -12.3130   18.8980 C   0  0  0  0  0  0  0  0  0  0  0  0
  -30.5284  -12.9105   19.7651 C   0  0  0  0  0  0  0  0  0  0  0  0
  -28.5369  -13.4941   21.1096 C   0  0  0  0  0  0  0  0  0  0  0  0
  -34.3323  -21.4677   31.8634 C   0  0  1  0  0  0  0  0  0  0  0  0
  -33.6747  -18.1240   30.1840 C   0  0  1  0  0  0  0  0  0  0  0  0
  -27.6227  -13.3236   19.8870 C   0  0  2  0  0  0  0  0  0  0  0  0
  -32.0575  -20.1217   17.6266 C   0  0  0  0  0  0  0  0  0  0  0  0
  -29.8251  -19.9745   16.4649 C   0  0  0  0  0  0  0  0  0  0  0  0
  -35.6870  -12.7396   24.9916 C   0  0  0  0  0  0  0  0  0  0  0  0
  -36.9405  -18.9215   27.0124 C   0  0  0  0  0  0  0  0  0  0  0  0
  -37.2380  -17.1241   25.2951 C   0  0  0  0  0  0  0  0  0  0  0  0
  -38.0586  -16.7697   27.6240 C   0  0  0  0  0  0  0  0  0  0  0  0
  -31.0288  -16.8683   22.5845 C   0  0  0  0  0  0  0  0  0  0  0  0
  -32.4961  -12.8181   27.0624 C   0  0  0  0  0  0  0  0  0  0  0  0
  -27.3548  -24.3442   24.2739 C   0  0  0  0  0  0  0  0  0  0  0  0
  -28.9879  -16.5135   21.2450 C   0  0  0  0  0  0  0  0  0  0  0  0
  -28.6159  -21.4954   21.3259 C   0  0  0  0  0  0  0  0  0  0  0  0
  -29.6785  -22.1016   22.2520 C   0  0  0  0  0  0  0  0  0  0  0  0
  -27.3038  -21.4927   25.6396 C   0  0  0  0  0  0  0  0  0  0  0  0
  -29.2546  -23.3636   22.9971 C   0  0  0  0  0  0  0  0  0  0  0  0
  -28.4863  -22.2883   25.1076 C   0  0  0  0  0  0  0  0  0  0  0  0
  -27.6440  -20.6169   26.8392 C   0  0  0  0  0  0  0  0  0  1  0  0
  -30.7356  -19.3372   17.5311 C   0  0  0  0  0  0  0  0  0  0  0  0
  -35.5721  -16.7376   27.1676 C   0  0  1  0  0  0  0  0  0  0  0  0
  -34.7903  -13.1733   26.1407 C   0  0  2  0  0  0  0  0  0  0  0  0
  -36.9263  -17.3971   26.7820 C   0  0  0  0  0  0  0  0  0  0  0  0
  -25.8783  -11.6459   20.3609 N   0  0  0  0  0  0  0  0  0  0  0  0
  -29.6671  -20.3482   19.4540 N   0  0  0  0  0  0  0  0  0  0  0  0
  -26.2092  -12.9465   20.2901 N   0  0  0  0  0  0  0  0  0  0  0  0
  -33.9931  -17.6724   28.8280 N   0  0  0  0  0  0  0  0  0  0  0  0
  -29.9081  -13.8420   20.7077 N   0  0  0  0  0  0  0  0  0  0  0  0
  -25.3478  -15.1334   20.5837 N   0  0  0  0  0  0  0  0  0  0  0  0
  -21.8210  -12.4852   21.5556 N   0  0  0  0  0  0  0  0  0  0  0  0
  -33.9588  -20.1069   31.5425 N   0  0  0  0  0  0  0  0  0  0  0  0
  -35.5389  -15.2905   26.9854 N   0  0  0  0  0  0  0  0  0  0  0  0
  -30.2061  -15.9442   21.8170 N   0  0  0  0  0  0  0  0  0  0  0  0
  -33.4700  -12.4994   25.9867 N   0  3  0  0  0  0  0  0  0  0  0  0
  -28.0917  -23.0759   23.9161 N   0  3  1  0  0  0  0  0  0  0  0  0
  -22.5222  -14.6613   21.3773 O   0  0  0  0  0  0  0  0  0  0  0  0
  -34.6066  -20.1077   29.3058 O   0  0  0  0  0  0  0  0  0  0  0  0
  -35.9447  -16.5914   29.5056 O   0  0  0  0  0  0  0  0  0  0  0  0
  -33.7441  -15.2600   25.5174 O   0  0  0  0  0  0  0  0  0  0  0  0
  -31.8829  -14.3632   21.7786 O   0  0  0  0  0  0  0  0  0  0  0  0
  -21.7614   -6.9153   21.4662 O   0  0  0  0  0  0  0  0  0  0  0  0
  -28.6700  -19.7003   26.4604 O   0  0  0  0  0  0  0  0  0  1  0  0
  -16.6800   -6.6032   19.3483 F   0  0  0  0  0  0  0  0  0  0  0  0
  -21.1259   -4.9953   19.5814 F   0  0  0  0  0  0  0  0  0  0  0  0
  1  2  1  0  0  0  0
  1  5  2  0  0  0  0
  2  6  2  0  0  0  0
  3  8  2  0  0  0  0
  3 17  1  0  0  0  0
  4  9  1  0  0  0  0
  4 17  2  0  0  0  0
  5 19  1  0  0  0  0
  6 21  1  0  0  0  0
  7 10  2  0  0  0  0
  7 20  1  0  0  0  0
  8 24  1  0  0  0  0
  9 24  2  0  0  0  0
 10 25  1  0  0  0  0
 11 12  2  0  0  0  0
 11 26  1  0  0  0  0
 12 27  1  0  0  0  0
 13 22  1  0  0  0  0
 13 25  2  0  0  0  0
 14 23  2  0  0  0  0
 14 30  1  0  0  0  0
 15 23  1  0  0  0  0
 15 31  2  0  0  0  0
 16 27  2  0  0  0  0
 16 28  1  0  0  0  0
 17 29  1  0  0  0  0
 18 29  1  0  0  0  0
 18 32  2  0  0  0  0
 18 33  1  0  0  0  0
 19 21  2  0  0  0  0
 19 38  1  0  0  0  0
 20 22  2  0  0  0  0
 20 39  1  0  0  0  0
 21 47  1  0  0  0  0
 22 40  1  0  0  0  0
 23 59  1  0  0  0  0
 24 87  1  0  0  0  0
 25 88  1  0  0  0  0
 26 28  2  0  0  0  0
 26 87  1  0  0  0  0
 27 89  1  0  0  0  0
 28 90  1  0  0  0  0
 29 70  2  0  0  0  0
 30 60  1  0  0  0  0
 30 71  2  0  0  0  0
 31 66  1  0  0  0  0
 31 71  1  0  0  0  0
 32 72  1  0  0  0  0
 32 75  1  0  0  0  0
 33 76  1  0  0  0  0
 33 82  2  0  0  0  0
 34 48  1  0  0  0  0
 34 77  1  0  0  0  0
 34 83  2  0  0  0  0
 35 67  1  0  0  0  0
 35 73  1  0  0  0  0
 35 84  2  0  0  0  0
 36 68  1  0  0  0  0
 36 78  1  0  0  0  0
 36 85  2  0  0  0  0
 37 74  1  0  0  0  0
 37 79  1  0  0  0  0
 37 86  2  0  0  0  0
 38 41  1  0  0  0  0
 39 48  1  0  0  0  0
 40 73  1  0  0  0  0
 41 43  1  0  0  0  0
 42 44  1  0  0  0  0
 42 45  1  0  0  0  0
 43 47  1  0  0  0  0
 44 49  1  0  0  0  0
 45 74  1  0  0  0  0
 46 49  1  0  0  0  0
 46 74  1  0  0  0  0
 47 77  1  0  0  0  0
 48 73  1  0  0  0  0
 49 72  1  0  0  0  0
 50 66  1  0  0  0  0
 51 66  1  0  0  0  0
 52 68  1  0  0  0  0
 53 69  1  0  0  0  0
 54 69  1  0  0  0  0
 55 69  1  0  0  0  0
 56 79  1  0  0  0  0
 57 80  1  0  0  0  0
 58 81  1  0  0  0  0
 59 79  1  0  0  0  0
 60 61  1  0  0  0  0
 61 63  1  0  0  0  0
 62 64  1  0  0  0  0
 62 65  1  0  0  0  0
 63 81  1  0  0  0  0
 64 81  1  0  0  0  0
 65 88  1  0  0  0  0
 67 69  1  0  0  0  0
 67 78  1  0  0  0  0
 68 80  1  0  0  0  0
 70 72  1  0  0  0  0
M  CHG  2  80   1  81   1
M  ISO  4  37 100  65 101  79 100  88 101
M  END
> <Batch ID>
0095

> <Smiles>
CNC(C)C(=O)NC(C(=O)N1Cc2cc([101O:1][101CH2:1]CCN(C)CCCc3cc(C[100N:0](C)[100C:0](=O)N4CCCC(n5nc(-c6ccc(Oc7ccc(F)cc7F)cc6)c(C(N)=O)c5N)C4)cc(C(C)C)n3)ccc2CC1C(=O)NC1CCCc2ccccc21)C(C)(C)C

> <Shape>
0.182

> <Color>
0.181

> <Negative vol penalty>
0.000

$$$$

  -OEChem-04052319213D

 92100  0     1  0  0  0  0  0999 V2000
  -27.9665  -33.6649   25.2919 C   0  0  0  0  0  0  0  0  0  0  0  0
  -28.0948  -32.3849   24.7623 C   0  0  0  0  0  0  0  0  0  0  0  0
  -24.6616  -14.0342   24.0970 C   0  0  0  0  0  0  0  0  0  0  0  0
  -24.2586  -15.9296   22.6540 C   0  0  0  0  0  0  0  0  0  0  0  0
  -26.7097  -34.1427   25.6608 C   0  0  0  0  0  0  0  0  0  0  0  0
  -26.9664  -31.5815   24.6022 C   0  0  0  0  0  0  0  0  0  0  0  0
  -26.8657  -29.2462   20.1099 C   0  0  0  0  0  0  0  0  0  0  0  0
  -24.2656  -14.7901   25.2004 C   0  0  0  0  0  0  0  0  0  0  0  0
  -23.8626  -16.6855   23.7574 C   0  0  0  0  0  0  0  0  0  0  0  0
  -27.6779  -28.1232   19.9577 C   0  0  0  0  0  0  0  0  0  0  0  0
  -21.1134  -17.0087   25.6960 C   0  0  0  0  0  0  0  0  0  0  0  0
  -19.9583  -17.7804   25.5701 C   0  0  0  0  0  0  0  0  0  0  0  0
  -25.7666  -26.6983   20.3259 C   0  0  0  0  0  0  0  0  0  0  0  0
  -21.2433  -19.7767   26.0185 C   0  0  0  0  0  0  0  0  0  0  0  0
  -28.3096  -21.1701   18.1070 C   0  0  0  0  0  0  0  0  0  0  0  0
  -24.6581  -14.6040   22.8238 C   0  0  0  0  0  0  0  0  0  0  0  0
  -24.2498  -13.0250   20.8623 C   0  0  0  0  0  0  0  0  0  0  0  0
  -25.5641  -33.3484   25.4961 C   0  0  0  0  0  0  0  0  0  0  0  0
  -25.4976  -29.1034   20.3826 C   0  0  0  0  0  0  0  0  0  0  0  0
  -25.6933  -32.0486   24.9705 C   0  0  0  0  0  0  0  0  0  0  0  0
  -24.9387  -27.8210   20.4786 C   0  0  0  0  0  0  0  0  0  0  0  0
  -28.2487  -19.8059   17.9268 C   0  0  0  0  0  0  0  0  0  0  0  0
  -27.2703  -19.3044   18.8204 C   0  0  0  0  0  0  0  0  0  0  0  0
  -23.8661  -16.1157   25.0307 C   0  0  0  0  0  0  0  0  0  0  0  0
  -27.1289  -26.8491   20.0685 C   0  0  0  0  0  0  0  0  0  0  0  0
  -22.3334  -17.6209   25.9832 C   0  0  0  0  0  0  0  0  0  0  0  0
  -20.0233  -19.1644   25.7314 C   0  0  0  0  0  0  0  0  0  0  0  0
  -22.3983  -19.0049   26.1445 C   0  0  0  0  0  0  0  0  0  0  0  0
  -25.0676  -13.8239   21.6837 C   0  0  0  0  0  0  0  0  0  0  0  0
  -26.7629  -20.3775   19.5192 C   0  0  0  0  0  0  0  0  0  0  0  0
  -25.1098  -12.4987   19.9295 C   0  0  0  0  0  0  0  0  0  0  0  0
  -22.8390  -12.7804   20.9358 C   0  0  0  0  0  0  0  0  0  0  0  0
  -23.5890  -29.9428   22.7818 C   0  0  0  0  0  0  0  0  0  0  0  0
  -21.2659  -28.8368   20.8063 C   0  0  0  0  0  0  0  0  0  0  0  0
  -20.4024  -26.8134   18.1972 C   0  0  0  0  0  0  0  0  0  0  0  0
  -30.3822  -14.3239   17.7567 C   0  0  0  0  0  0  0  0  0  0  0  0
  -24.2330  -33.8905   25.9533 C   0  0  0  0  0  0  0  0  0  0  0  0
  -24.6299  -30.3245   20.5175 C   0  0  0  0  0  0  0  0  0  0  0  0
  -23.4718  -27.6136   20.7502 C   0  0  0  0  0  0  0  0  0  0  0  0
  -23.0383  -33.1158   25.4030 C   0  0  0  0  0  0  0  0  0  0  0  0
  -29.6841  -11.2197   19.3547 C   0  0  0  0  0  0  0  0  0  0  0  0
  -23.2607  -31.6142   25.5532 C   0  0  0  0  0  0  0  0  0  0  0  0
  -28.3480  -11.4631   20.0586 C   0  0  0  0  0  0  0  0  0  0  0  0
  -30.5705  -12.4630   19.3809 C   0  0  0  0  0  0  0  0  0  0  0  0
  -28.5992  -13.9309   19.5631 C   0  0  0  0  0  0  0  0  0  0  0  0
  -24.4896  -31.1563   24.7584 C   0  0  1  0  0  0  0  0  0  0  0  0
  -23.3487  -30.0633   21.3034 C   0  0  1  0  0  0  0  0  0  0  0  0
  -27.6483  -12.7227   19.5137 C   0  0  2  0  0  0  0  0  0  0  0  0
  -25.2481  -20.6825   23.0572 C   0  0  0  0  0  0  0  0  0  0  0  0
  -25.0003  -17.9311   17.2196 C   0  0  0  0  0  0  0  0  0  0  0  0
  -27.1884  -17.3506   20.3909 C   0  0  0  0  0  0  0  0  0  0  0  0
  -18.4222  -26.0937   16.8341 C   0  0  0  0  0  0  0  0  0  0  0  0
  -29.1298  -25.3122   21.9464 C   0  0  0  0  0  0  0  0  0  0  0  0
  -20.3368  -27.0540   23.1017 C   0  0  0  0  0  0  0  0  0  0  0  0
  -19.0259  -25.7166   21.4401 C   0  0  0  0  0  0  0  0  0  0  0  0
  -18.4900  -28.1261   21.8001 C   0  0  0  0  0  0  0  0  0  0  0  0
  -21.5898  -27.8709   15.7011 C   0  0  0  0  0  0  0  0  0  0  0  0
  -31.0885  -19.1135   18.4155 C   0  0  0  0  0  0  0  0  0  0  0  0
  -29.0597  -19.0212   16.9746 C   0  0  0  0  0  0  0  0  0  0  0  0
  -25.7243  -20.4266   20.5700 C   0  0  0  0  0  0  0  0  0  0  0  0
  -26.3194  -20.5946   21.9818 C   0  0  0  0  0  0  0  0  0  0  0  0
  -25.3657  -17.6084   18.6634 C   0  0  0  0  0  0  0  0  0  0  0  0
  -28.2511  -23.4341   20.5129 C   0  0  0  0  0  0  0  0  0  0  0  0
  -27.1583  -22.9105   19.5699 C   0  0  0  0  0  0  0  0  0  0  0  0
  -30.0467  -16.2215   16.1928 C   0  0  0  0  0  0  0  0  0  0  0  0
  -30.9101  -17.3920   16.6248 C   0  0  0  0  0  0  0  0  0  0  0  0
  -26.8667  -17.8916   18.9760 C   0  0  1  0  0  0  0  0  0  0  0  0
  -20.6092  -27.4977   20.5728 C   0  0  1  0  0  0  0  0  0  0  0  0
  -19.5782  -27.0751   16.9496 C   0  0  2  0  0  0  0  0  0  0  0  0
  -28.0018  -24.8565   21.0295 C   0  0  2  0  0  0  0  0  0  1  0  0
  -19.6435  -27.1022   21.7255 C   0  0  0  0  0  0  0  0  0  0  0  0
  -26.3487  -13.8094   21.3060 N   0  0  0  0  0  0  0  0  0  0  0  0
  -27.4019  -21.5064   19.0771 N   0  0  0  0  0  0  0  0  0  0  0  0
  -26.3424  -12.9949   20.2371 N   0  0  0  0  0  0  0  0  0  0  0  0
  -22.6660  -28.8388   20.8806 N   0  0  0  0  0  0  0  0  0  0  0  0
  -29.8483  -13.6214   18.8496 N   0  0  0  0  0  0  0  0  0  0  0  0
  -24.9243  -11.6646   18.8845 N   0  0  0  0  0  0  0  0  0  0  0  0
  -22.1057  -13.4007   21.9566 N   0  0  0  0  0  0  0  0  0  0  0  0
  -24.1729  -31.0591   23.3496 N   0  0  0  0  0  0  0  0  0  0  0  0
  -19.9739  -27.5776   19.2620 N   0  0  0  0  0  0  0  0  0  0  0  0
  -29.6314  -15.4050   17.3116 N   0  0  0  0  0  0  0  0  0  0  0  0
  -20.4272  -26.9466   15.7315 N   0  3  0  0  0  0  0  0  0  0  0  0
  -30.1601  -18.2391   17.6168 N   0  3  1  0  0  0  0  0  0  0  0  0
  -22.2490  -12.0210   20.1305 O   0  0  0  0  0  0  0  0  0  0  0  0
  -23.2670  -28.9139   23.3643 O   0  0  0  0  0  0  0  0  0  0  0  0
  -20.5629  -29.8449   20.9115 O   0  0  0  0  0  0  0  0  0  0  0  0
  -21.3309  -26.0087   18.2256 O   0  0  0  0  0  0  0  0  0  0  0  0
  -31.4465  -14.0076   17.2142 O   0  0  0  0  0  0  0  0  0  0  0  0
  -23.4794  -16.8534   26.1071 O   0  0  0  0  0  0  0  0  0  0  0  0
  -27.9196  -25.7514   19.9210 O   0  0  0  0  0  0  0  0  0  1  0  0
  -18.9142  -19.9055   25.6089 F   0  0  0  0  0  0  0  0  0  0  0  0
  -23.5677  -19.5988   26.4193 F   0  0  0  0  0  0  0  0  0  0  0  0
  1  2  1  0  0  0  0
  1  5  2  0  0  0  0
  2  6  2  0  0  0  0
  3  8  2  0  0  0  0
  3 16  1  0  0  0  0
  4  9  1  0  0  0  0
  4 16  2  0  0  0  0
  5 18  1  0  0  0  0
  6 20  1  0  0  0  0
  7 10  2  0  0  0  0
  7 19  1  0  0  0  0
  8 24  1  0  0  0  0
  9 24  2  0  0  0  0
 10 25  1  0  0  0  0
 11 12  2  0  0  0  0
 11 26  1  0  0  0  0
 12 27  1  0  0  0  0
 13 21  1  0  0  0  0
 13 25  2  0  0  0  0
 14 27  2  0  0  0  0
 14 28  1  0  0  0  0
 15 22  2  0  0  0  0
 15 73  1  0  0  0  0
 16 29  1  0  0  0  0
 17 29  1  0  0  0  0
 17 31  2  0  0  0  0
 17 32  1  0  0  0  0
 18 20  2  0  0  0  0
 18 37  1  0  0  0  0
 19 21  2  0  0  0  0
 19 38  1  0  0  0  0
 20 46  1  0  0  0  0
 21 39  1  0  0  0  0
 22 23  1  0  0  0  0
 22 59  1  0  0  0  0
 23 30  2  0  0  0  0
 23 67  1  0  0  0  0
 24 89  1  0  0  0  0
 25 90  1  0  0  0  0
 26 28  2  0  0  0  0
 26 89  1  0  0  0  0
 27 91  1  0  0  0  0
 28 92  1  0  0  0  0
 29 72  2  0  0  0  0
 30 60  1  0  0  0  0
 30 73  1  0  0  0  0
 31 74  1  0  0  0  0
 31 77  1  0  0  0  0
 32 78  1  0  0  0  0
 32 84  2  0  0  0  0
 33 47  1  0  0  0  0
 33 79  1  0  0  0  0
 33 85  2  0  0  0  0
 34 68  1  0  0  0  0
 34 75  1  0  0  0  0
 34 86  2  0  0  0  0
 35 69  1  0  0  0  0
 35 80  1  0  0  0  0
 35 87  2  0  0  0  0
 36 76  1  0  0  0  0
 36 81  1  0  0  0  0
 36 88  2  0  0  0  0
 37 40  1  0  0  0  0
 38 47  1  0  0  0  0
 39 75  1  0  0  0  0
 40 42  1  0  0  0  0
 41 43  1  0  0  0  0
 41 44  1  0  0  0  0
 42 46  1  0  0  0  0
 43 48  1  0  0  0  0
 44 76  1  0  0  0  0
 45 48  1  0  0  0  0
 45 76  1  0  0  0  0
 46 79  1  0  0  0  0
 47 75  1  0  0  0  0
 48 74  1  0  0  0  0
 49 61  1  0  0  0  0
 50 62  1  0  0  0  0
 51 67  1  0  0  0  0
 52 69  1  0  0  0  0
 53 70  1  0  0  0  0
 54 71  1  0  0  0  0
 55 71  1  0  0  0  0
 56 71  1  0  0  0  0
 57 82  1  0  0  0  0
 58 83  1  0  0  0  0
 59 83  1  0  0  0  0
 60 61  1  0  0  0  0
 62 67  1  0  0  0  0
 63 64  1  0  0  0  0
 63 70  1  0  0  0  0
 64 73  1  0  0  0  0
 65 66  1  0  0  0  0
 65 81  1  0  0  0  0
 66 83  1  0  0  0  0
 68 71  1  0  0  0  0
 68 80  1  0  0  0  0
 69 82  1  0  0  0  0
 70 90  1  0  0  0  0
 72 74  1  0  0  0  0
M  CHG  2  82   1  83   1
M  ISO  4  36 100  70 101  81 100  90 101
M  END
> <Batch ID>
0095

> <Smiles>
CCCc1c(C(C)CC)c(CN(C)CC[100NH:0][100C:0](=O)N2CCCC(n3nc(-c4ccc(Oc5ccc(F)cc5F)cc4)c(C(N)=O)c3N)C2)cn1CC[101CH:1](C)[101O:1]c1ccc2c(c1)CN(C(=O)C(NC(=O)C(C)NC)C(C)(C)C)C(C(=O)NC1CCCc3ccccc31)C2

> <Shape>
0.257

> <Color>
0.086

> <Negative vol penalty>
0.000

$$$$

  -OEChem-04052319213D

 92100  0     1  0  0  0  0  0999 V2000
  -33.0495  -18.7707   23.2303 C   0  0  0  0  0  0  0  0  0  0  0  0
  -32.0234  -19.6823   23.4573 C   0  0  0  0  0  0  0  0  0  0  0  0
  -30.7188  -26.4840   18.7401 C   0  0  0  0  0  0  0  0  0  0  0  0
  -30.9434  -26.9408   21.1019 C   0  0  0  0  0  0  0  0  0  0  0  0
  -32.9739  -17.8927   22.1499 C   0  0  0  0  0  0  0  0  0  0  0  0
  -30.9215  -19.7170   22.6035 C   0  0  0  0  0  0  0  0  0  0  0  0
  -25.1186  -20.9429   24.1295 C   0  0  0  0  0  0  0  0  0  0  0  0
  -31.9864  -27.0210   18.5157 C   0  0  0  0  0  0  0  0  0  0  0  0
  -32.2111  -27.4778   20.8775 C   0  0  0  0  0  0  0  0  0  0  0  0
  -24.3516  -22.1041   24.0445 C   0  0  0  0  0  0  0  0  0  0  0  0
  -35.3575  -29.2970   20.8788 C   0  0  0  0  0  0  0  0  0  0  0  0
  -35.6734  -30.4996   21.5109 C   0  0  0  0  0  0  0  0  0  0  0  0
  -23.4470  -21.3455   21.9409 C   0  0  0  0  0  0  0  0  0  0  0  0
  -17.7936  -27.2238   22.0076 C   0  0  0  0  0  0  0  0  0  0  0  0
  -33.8391  -31.5813   20.3696 C   0  0  0  0  0  0  0  0  0  0  0  0
  -30.1972  -26.4440   20.0332 C   0  0  0  0  0  0  0  0  0  0  0  0
  -28.5709  -24.5492   20.5552 C   0  0  0  0  0  0  0  0  0  0  0  0
  -31.8660  -17.9101   21.2879 C   0  0  0  0  0  0  0  0  0  0  0  0
  -25.0636  -19.9777   23.1137 C   0  0  0  0  0  0  0  0  0  0  0  0
  -30.8317  -18.8393   21.5097 C   0  0  0  0  0  0  0  0  0  0  0  0
  -24.2123  -20.1717   22.0166 C   0  0  0  0  0  0  0  0  0  0  0  0
  -18.3229  -28.2676   22.8059 C   0  0  0  0  0  0  0  0  0  0  0  0
  -32.7326  -27.5179   19.5844 C   0  0  0  0  0  0  0  0  0  0  0  0
  -23.5178  -22.3069   22.9487 C   0  0  0  0  0  0  0  0  0  0  0  0
  -34.2825  -29.2365   19.9920 C   0  0  0  0  0  0  0  0  0  0  0  0
  -34.9142  -31.6417   21.2564 C   0  0  0  0  0  0  0  0  0  0  0  0
  -33.5233  -30.3787   19.7375 C   0  0  0  0  0  0  0  0  0  0  0  0
  -28.8876  -25.8899   20.2656 C   0  0  0  0  0  0  0  0  0  0  0  0
  -18.7548  -26.2406   21.9258 C   0  0  0  0  0  0  0  0  0  0  0  0
  -19.5916  -27.8907   23.1875 C   0  0  0  0  0  0  0  0  0  0  0  0
  -27.2039  -24.5402   20.6877 C   0  0  0  0  0  0  0  0  0  0  0  0
  -29.4352  -23.4134   20.6922 C   0  0  0  0  0  0  0  0  0  0  0  0
  -27.1644  -18.7541   21.0660 C   0  0  0  0  0  0  0  0  0  0  0  0
  -24.7021  -16.7772   20.3238 C   0  0  0  0  0  0  0  0  0  0  0  0
  -21.3321  -16.2419   20.2678 C   0  0  0  0  0  0  0  0  0  0  0  0
  -23.3728  -28.7629   22.2197 C   0  0  0  0  0  0  0  0  0  0  0  0
  -31.8512  -16.9737   20.1058 C   0  0  0  0  0  0  0  0  0  0  0  0
  -25.8770  -18.7182   23.2334 C   0  0  0  0  0  0  0  0  0  0  0  0
  -24.1018  -19.1567   20.9094 C   0  0  0  0  0  0  0  0  0  0  0  0
  -30.4732  -16.8211   19.4669 C   0  0  0  0  0  0  0  0  0  0  0  0
  -23.2791  -26.8194   19.1683 C   0  0  0  0  0  0  0  0  0  0  0  0
  -29.8198  -18.1860   19.2748 C   0  0  0  0  0  0  0  0  0  0  0  0
  -24.6912  -26.2318   19.1384 C   0  0  0  0  0  0  0  0  0  0  0  0
  -23.2858  -28.2474   19.7059 C   0  0  0  0  0  0  0  0  0  0  0  0
  -25.3226  -27.8100   21.0227 C   0  0  0  0  0  0  0  0  0  0  0  0
  -29.6085  -18.8908   20.6202 C   0  0  1  0  0  0  0  0  0  0  0  0
  -26.1303  -18.0406   21.8902 C   0  0  1  0  0  0  0  0  0  0  0  0
  -25.3804  -26.3595   20.5099 C   0  0  2  0  0  0  0  0  0  0  0  0
  -19.6179  -14.5481   19.5677 C   0  0  0  0  0  0  0  0  0  0  0  0
  -19.8012  -23.9311   17.5874 C   0  0  0  0  0  0  0  0  0  0  0  0
  -20.1065  -22.6425   19.7102 C   0  0  0  0  0  0  0  0  0  0  0  0
  -15.2672  -27.6893   27.2538 C   0  0  0  0  0  0  0  0  0  0  0  0
  -14.0584  -27.6153   25.0642 C   0  0  0  0  0  0  0  0  0  0  0  0
  -25.0897  -17.5931   17.4094 C   0  0  0  0  0  0  0  0  0  0  0  0
  -22.8218  -16.6535   16.9174 C   0  0  0  0  0  0  0  0  0  0  0  0
  -24.6331  -15.1593   17.7595 C   0  0  0  0  0  0  0  0  0  0  0  0
  -20.3427  -15.9264   23.0392 C   0  0  0  0  0  0  0  0  0  0  0  0
  -17.6343  -29.5249   23.1597 C   0  0  0  0  0  0  0  0  0  0  0  0
  -18.7233  -24.9423   21.2215 C   0  0  0  0  0  0  0  0  0  0  0  0
  -20.5858  -28.5997   24.0211 C   0  0  0  0  0  0  0  0  0  0  0  0
  -16.2692  -29.3421   23.8637 C   0  0  0  0  0  0  0  0  0  0  0  0
  -19.2468  -25.0437   19.7709 C   0  0  0  0  0  0  0  0  0  0  0  0
  -16.3970  -28.6242   25.2134 C   0  0  0  0  0  0  0  0  0  0  0  0
  -21.0261  -24.7565   23.8559 C   0  0  0  0  0  0  0  0  0  0  0  0
  -21.1224  -25.8766   22.8177 C   0  0  0  0  0  0  0  0  0  0  0  0
  -21.3426  -29.7163   23.2809 C   0  0  0  0  0  0  0  0  0  0  0  0
  -22.3480  -24.0345   24.0900 C   0  0  0  0  0  0  0  0  0  1  0  0
  -23.5592  -16.8164   19.3383 C   0  0  1  0  0  0  0  0  0  0  0  0
  -20.4935  -15.0539   20.7036 C   0  0  2  0  0  0  0  0  0  0  0  0
  -19.2669  -23.7081   19.0044 C   0  0  0  0  0  0  0  0  0  0  0  0
  -15.0457  -28.4091   25.9211 C   0  0  0  0  0  0  0  0  0  0  0  0
  -24.0293  -16.5758   17.8759 C   0  0  0  0  0  0  0  0  0  0  0  0
  -27.8086  -26.6756   20.2167 N   0  0  0  0  0  0  0  0  0  0  0  0
  -19.8436  -26.6570   22.6465 N   0  0  0  0  0  0  0  0  0  0  0  0
  -26.8005  -25.8260   20.4773 N   0  0  0  0  0  0  0  0  0  0  0  0
  -24.9218  -17.9444   21.0689 N   0  0  0  0  0  0  0  0  0  0  0  0
  -23.9390  -28.2968   21.0216 N   0  0  0  0  0  0  0  0  0  0  0  0
  -26.3195  -23.5579   20.9625 N   0  0  0  0  0  0  0  0  0  0  0  0
  -30.8142  -23.5991   20.5244 N   0  0  0  0  0  0  0  0  0  0  0  0
  -28.4601  -18.3377   21.3056 N   0  0  0  0  0  0  0  0  0  0  0  0
  -22.5749  -15.8514   19.8160 N   0  0  0  0  0  0  0  0  0  0  0  0
  -22.0611  -29.2128   22.1315 N   0  0  0  0  0  0  0  0  0  0  0  0
  -19.6117  -15.4327   21.8438 N   0  3  0  0  0  0  0  0  0  0  0  0
  -28.9961  -22.2647   20.9394 O   0  0  0  0  0  0  0  0  0  0  0  0
  -26.8127  -19.6174   20.2706 O   0  0  0  0  0  0  0  0  0  0  0  0
  -25.3706  -15.7463   20.4339 O   0  0  0  0  0  0  0  0  0  0  0  0
  -20.9239  -17.4000   20.3192 O   0  0  0  0  0  0  0  0  0  0  0  0
  -23.9891  -28.7725   23.2908 O   0  0  0  0  0  0  0  0  0  0  0  0
  -33.9697  -28.0417   19.3658 O   0  0  0  0  0  0  0  0  0  0  0  0
  -22.7687  -23.4397   22.8630 O   0  0  0  0  0  0  0  0  0  1  0  0
  -35.2167  -32.7961   21.8647 F   0  0  0  0  0  0  0  0  0  0  0  0
  -32.4886  -30.3265   18.8874 F   0  0  0  0  0  0  0  0  0  0  0  0
  1  2  1  0  0  0  0
  1  5  2  0  0  0  0
  2  6  2  0  0  0  0
  3  8  2  0  0  0  0
  3 16  1  0  0  0  0
  4  9  1  0  0  0  0
  4 16  2  0  0  0  0
  5 18  1  0  0  0  0
  6 20  1  0  0  0  0
  7 10  2  0  0  0  0
  7 19  1  0  0  0  0
  8 23  1  0  0  0  0
  9 23  2  0  0  0  0
 10 24  1  0  0  0  0
 11 12  2  0  0  0  0
 11 25  1  0  0  0  0
 12 26  1  0  0  0  0
 13 21  1  0  0  0  0
 13 24  2  0  0  0  0
 14 22  1  0  0  0  0
 14 29  2  0  0  0  0
 15 26  2  0  0  0  0
 15 27  1  0  0  0  0
 16 28  1  0  0  0  0
 17 28  1  0  0  0  0
 17 31  2  0  0  0  0
 17 32  1  0  0  0  0
 18 20  2  0  0  0  0
 18 37  1  0  0  0  0
 19 21  2  0  0  0  0
 19 38  1  0  0  0  0
 20 46  1  0  0  0  0
 21 39  1  0  0  0  0
 22 30  2  0  0  0  0
 22 58  1  0  0  0  0
 23 89  1  0  0  0  0
 24 90  1  0  0  0  0
 25 27  2  0  0  0  0
 25 89  1  0  0  0  0
 26 91  1  0  0  0  0
 27 92  1  0  0  0  0
 28 73  2  0  0  0  0
 29 59  1  0  0  0  0
 29 74  1  0  0  0  0
 30 60  1  0  0  0  0
 30 74  1  0  0  0  0
 31 75  1  0  0  0  0
 31 78  1  0  0  0  0
 32 79  1  0  0  0  0
 32 84  2  0  0  0  0
 33 47  1  0  0  0  0
 33 80  1  0  0  0  0
 33 85  2  0  0  0  0
 34 68  1  0  0  0  0
 34 76  1  0  0  0  0
 34 86  2  0  0  0  0
 35 69  1  0  0  0  0
 35 81  1  0  0  0  0
 35 87  2  0  0  0  0
 36 77  1  0  0  0  0
 36 82  1  0  0  0  0
 36 88  2  0  0  0  0
 37 40  1  0  0  0  0
 38 47  1  0  0  0  0
 39 76  1  0  0  0  0
 40 42  1  0  0  0  0
 41 43  1  0  0  0  0
 41 44  1  0  0  0  0
 42 46  1  0  0  0  0
 43 48  1  0  0  0  0
 44 77  1  0  0  0  0
 45 48  1  0  0  0  0
 45 77  1  0  0  0  0
 46 80  1  0  0  0  0
 47 76  1  0  0  0  0
 48 75  1  0  0  0  0
 49 69  1  0  0  0  0
 50 70  1  0  0  0  0
 51 70  1  0  0  0  0
 52 71  1  0  0  0  0
 53 71  1  0  0  0  0
 54 72  1  0  0  0  0
 55 72  1  0  0  0  0
 56 72  1  0  0  0  0
 57 83  1  0  0  0  0
 58 61  1  0  0  0  0
 59 62  1  0  0  0  0
 60 66  1  0  0  0  0
 61 63  1  0  0  0  0
 62 70  1  0  0  0  0
 63 71  1  0  0  0  0
 64 65  1  0  0  0  0
 64 67  1  0  0  0  0
 65 74  1  0  0  0  0
 66 82  1  0  0  0  0
 67 90  1  0  0  0  0
 68 72  1  0  0  0  0
 68 81  1  0  0  0  0
 69 83  1  0  0  0  0
 73 75  1  0  0  0  0
M  CHG  1  83   1
M  ISO  4  36 100  67 101  82 100  90 101
M  END
> <Batch ID>
0095

> <Smiles>
CNC(C)C(=O)NC(C(=O)N1Cc2cc([101O:1][101CH2:1]CCn3c(CCC(C)C)cc(CCCC(C)C)c3CC[100NH:0][100C:0](=O)N3CCCC(n4nc(-c5ccc(Oc6ccc(F)cc6F)cc5)c(C(N)=O)c4N)C3)ccc2CC1C(=O)NC1CCCc2ccccc21)C(C)(C)C

> <Shape>
0.185

> <Color>
0.065

> <Negative vol penalty>
0.000

$$$$

  -OEChem-04052319213D

 89 97  0     1  0  0  0  0  0999 V2000
  -30.7624  -27.3670   14.3061 C   0  0  0  0  0  0  0  0  0  0  0  0
  -30.8256  -27.4299   15.6944 C   0  0  0  0  0  0  0  0  0  0  0  0
  -30.4495  -16.2466   22.1013 C   0  0  0  0  0  0  0  0  0  0  0  0
  -28.1890  -16.7266   22.8059 C   0  0  0  0  0  0  0  0  0  0  0  0
  -29.8363  -28.1476   13.6155 C   0  0  0  0  0  0  0  0  0  0  0  0
  -29.9635  -28.2745   16.3929 C   0  0  0  0  0  0  0  0  0  0  0  0
  -27.9117  -26.0357   20.4455 C   0  0  0  0  0  0  0  0  0  0  0  0
  -30.1078  -14.9069   21.9174 C   0  0  0  0  0  0  0  0  0  0  0  0
  -27.8472  -15.3869   22.6219 C   0  0  0  0  0  0  0  0  0  0  0  0
  -28.7103  -25.9221   21.5827 C   0  0  0  0  0  0  0  0  0  0  0  0
  -29.7381  -11.4316   20.9171 C   0  0  0  0  0  0  0  0  0  0  0  0
  -30.1758  -10.8049   19.7504 C   0  0  0  0  0  0  0  0  0  0  0  0
  -27.6051  -27.8394   22.5428 C   0  0  0  0  0  0  0  0  0  0  0  0
  -26.7676  -24.3248   25.0427 C   0  0  0  0  0  0  0  0  0  0  0  0
  -28.9492  -12.4116   18.4272 C   0  0  0  0  0  0  0  0  0  0  0  0
  -29.4901  -17.1565   22.5456 C   0  0  0  0  0  0  0  0  0  0  0  0
  -29.7661  -19.5761   21.7857 C   0  0  0  0  0  0  0  0  0  0  0  0
  -28.9558  -28.9949   14.3065 C   0  0  0  0  0  0  0  0  0  0  0  0
  -26.9598  -27.0603   20.3436 C   0  0  0  0  0  0  0  0  0  0  0  0
  -29.0257  -29.0682   15.7109 C   0  0  0  0  0  0  0  0  0  0  0  0
  -26.7940  -27.9623   21.4043 C   0  0  0  0  0  0  0  0  0  0  0  0
  -25.5457  -23.9293   25.6407 C   0  0  0  0  0  0  0  0  0  0  0  0
  -28.8066  -14.4770   22.1777 C   0  0  0  0  0  0  0  0  0  0  0  0
  -28.5590  -26.8258   22.6303 C   0  0  0  0  0  0  0  0  0  0  0  0
  -28.9058  -12.5482   20.8389 C   0  0  0  0  0  0  0  0  0  0  0  0
  -29.7814  -11.2949   18.5054 C   0  0  0  0  0  0  0  0  0  0  0  0
  -28.5114  -13.0383   19.5939 C   0  0  0  0  0  0  0  0  0  0  0  0
  -29.8427  -18.5405   22.7363 C   0  0  0  0  0  0  0  0  0  0  0  0
  -27.6970  -24.4522   26.0513 C   0  0  0  0  0  0  0  0  0  0  0  0
  -25.7656  -23.8272   26.9967 C   0  0  0  0  0  0  0  0  0  0  0  0
  -30.2104  -20.6901   22.4551 C   0  0  0  0  0  0  0  0  0  0  0  0
  -29.3321  -19.5347   20.4199 C   0  0  0  0  0  0  0  0  0  0  0  0
  -26.5186  -29.5257   18.3864 C   0  0  0  0  0  0  0  0  0  0  0  0
  -23.7571  -29.8564   20.0559 C   0  0  0  0  0  0  0  0  0  0  0  0
  -22.0295  -29.2788   22.9418 C   0  0  0  0  0  0  0  0  0  0  0  0
  -30.3557  -22.1752   28.2537 C   0  0  0  0  0  0  0  0  0  0  0  0
  -28.0039  -29.8551   13.5137 C   0  0  0  0  0  0  0  0  0  0  0  0
  -26.0878  -27.1530   19.1216 C   0  0  0  0  0  0  0  0  0  0  0  0
  -25.7725  -29.0678   21.3528 C   0  0  0  0  0  0  0  0  0  0  0  0
  -26.8724  -30.4439   14.3523 C   0  0  0  0  0  0  0  0  0  0  0  0
  -33.1208  -22.0057   26.0173 C   0  0  0  0  0  0  0  0  0  0  0  0
  -27.4197  -31.0335   15.6484 C   0  0  0  0  0  0  0  0  0  0  0  0
  -32.5874  -21.1918   24.8370 C   0  0  0  0  0  0  0  0  0  0  0  0
  -32.5613  -21.5049   27.3470 C   0  0  0  0  0  0  0  0  0  0  0  0
  -30.5565  -20.6091   26.2280 C   0  0  0  0  0  0  0  0  0  0  0  0
  -28.0905  -29.9535   16.5057 C   0  0  1  0  0  0  0  0  0  0  0  0
  -25.5051  -28.5465   18.9076 C   0  0  1  0  0  0  0  0  0  0  0  0
  -31.0490  -21.1124   24.8604 C   0  0  2  0  0  0  0  0  0  0  0  0
  -24.8393  -23.4519   28.0863 C   0  0  0  0  0  0  0  0  0  0  0  0
  -19.8055  -29.7018   24.0246 C   0  0  0  0  0  0  0  0  0  0  0  0
  -23.4175  -20.1345   21.7442 C   0  0  0  0  0  0  0  0  0  0  0  0
  -22.9903  -18.1752   23.2413 C   0  0  0  0  0  0  0  0  0  0  0  0
  -24.5614  -32.7544   20.5700 C   0  0  0  0  0  0  0  0  0  0  0  0
  -22.8445  -32.8349   22.3905 C   0  0  0  0  0  0  0  0  0  0  0  0
  -22.1415  -32.4230   20.0328 C   0  0  0  0  0  0  0  0  0  0  0  0
  -21.4671  -26.3835   23.1857 C   0  0  0  0  0  0  0  0  0  0  0  0
  -24.2750  -23.6747   24.9334 C   0  0  0  0  0  0  0  0  0  0  0  0
  -29.1508  -24.8460   25.9812 C   0  0  0  0  0  0  0  0  0  0  0  0
  -29.3879  -26.3521   26.1119 C   0  0  0  0  0  0  0  0  0  0  0  0
  -22.3598  -20.4715   24.0420 C   0  0  0  0  0  0  0  0  0  0  0  0
  -27.7100  -24.1620   28.5367 C   0  0  0  0  0  0  0  0  0  0  0  0
  -28.0765  -22.7674   29.0373 C   0  0  0  0  0  0  0  0  0  0  0  0
  -22.6308  -21.9692   24.1417 C   0  0  0  0  0  0  0  0  0  0  0  0
  -28.7740  -27.1608   24.9750 C   0  0  0  0  0  0  0  0  0  1  0  0
  -23.3448  -30.5987   21.3040 C   0  0  1  0  0  0  0  0  0  0  0  0
  -20.6328  -28.7377   23.1885 C   0  0  2  0  0  0  0  0  0  0  0  0
  -23.3616  -19.6603   23.1967 C   0  0  0  0  0  0  0  0  0  0  0  0
  -23.2437  -32.1332   21.0748 C   0  0  0  0  0  0  0  0  0  0  0  0
  -30.2998  -18.9593   23.9194 N   0  0  0  0  0  0  0  0  0  0  0  0
  -27.0766  -24.1475   27.2348 N   0  0  0  0  0  0  0  0  0  0  0  0
  -30.5146  -20.2704   23.7166 N   0  0  0  0  0  0  0  0  0  0  0  0
  -24.9482  -29.1207   20.1341 N   0  0  0  0  0  0  0  0  0  0  0  0
  -31.0979  -21.4547   27.3035 N   0  0  0  0  0  0  0  0  0  0  0  0
  -30.3667  -21.9779   22.0817 N   0  0  0  0  0  0  0  0  0  0  0  0
  -28.9076  -18.3083   19.8906 N   0  0  0  0  0  0  0  0  0  0  0  0
  -27.0926  -29.1554   17.1852 N   0  0  0  0  0  0  0  0  0  0  0  0
  -22.1039  -29.9791   21.7563 N   0  0  0  0  0  0  0  0  0  0  0  0
  -28.9744  -22.0783   28.1375 N   0  0  0  0  0  0  0  0  0  0  0  0
  -20.7018  -27.4334   23.9061 N   0  3  0  0  0  0  0  0  0  0  0  0
  -23.9347  -22.2249   24.8018 N   0  3  0  0  0  0  0  0  0  0  0  0
  -29.3366  -20.5517   19.6855 O   0  0  0  0  0  0  0  0  0  0  0  0
  -26.7608  -30.5426   19.0259 O   0  0  0  0  0  0  0  0  0  0  0  0
  -23.0449  -29.9208   19.0508 O   0  0  0  0  0  0  0  0  0  0  0  0
  -22.9604  -29.1014   23.7244 O   0  0  0  0  0  0  0  0  0  0  0  0
  -30.8847  -22.8589   29.1368 O   0  0  0  0  0  0  0  0  0  0  0  0
  -28.4727  -13.1698   21.9981 O   0  0  0  0  0  0  0  0  0  0  0  0
  -29.3376  -26.7176   23.7412 O   0  0  0  0  0  0  0  0  0  1  0  0
  -30.2031  -10.6939   17.3851 F   0  0  0  0  0  0  0  0  0  0  0  0
  -27.7129  -14.1114   19.5124 F   0  0  0  0  0  0  0  0  0  0  0  0
  1  2  1  0  0  0  0
  1  5  2  0  0  0  0
  2  6  2  0  0  0  0
  3  8  2  0  0  0  0
  3 16  1  0  0  0  0
  4  9  1  0  0  0  0
  4 16  2  0  0  0  0
  5 18  1  0  0  0  0
  6 20  1  0  0  0  0
  7 10  2  0  0  0  0
  7 19  1  0  0  0  0
  8 23  1  0  0  0  0
  9 23  2  0  0  0  0
 10 24  1  0  0  0  0
 11 12  2  0  0  0  0
 11 25  1  0  0  0  0
 12 26  1  0  0  0  0
 13 21  1  0  0  0  0
 13 24  2  0  0  0  0
 14 22  1  0  0  0  0
 14 29  2  0  0  0  0
 15 26  2  0  0  0  0
 15 27  1  0  0  0  0
 16 28  1  0  0  0  0
 17 28  1  0  0  0  0
 17 31  2  0  0  0  0
 17 32  1  0  0  0  0
 18 20  2  0  0  0  0
 18 37  1  0  0  0  0
 19 21  2  0  0  0  0
 19 38  1  0  0  0  0
 20 46  1  0  0  0  0
 21 39  1  0  0  0  0
 22 30  2  0  0  0  0
 22 57  1  0  0  0  0
 23 86  1  0  0  0  0
 24 87  1  0  0  0  0
 25 27  2  0  0  0  0
 25 86  1  0  0  0  0
 26 88  1  0  0  0  0
 27 89  1  0  0  0  0
 28 69  2  0  0  0  0
 29 58  1  0  0  0  0
 29 70  1  0  0  0  0
 30 49  1  0  0  0  0
 30 70  1  0  0  0  0
 31 71  1  0  0  0  0
 31 74  1  0  0  0  0
 32 75  1  0  0  0  0
 32 81  2  0  0  0  0
 33 47  1  0  0  0  0
 33 76  1  0  0  0  0
 33 82  2  0  0  0  0
 34 65  1  0  0  0  0
 34 72  1  0  0  0  0
 34 83  2  0  0  0  0
 35 66  1  0  0  0  0
 35 77  1  0  0  0  0
 35 84  2  0  0  0  0
 36 73  1  0  0  0  0
 36 78  1  0  0  0  0
 36 85  2  0  0  0  0
 37 40  1  0  0  0  0
 38 47  1  0  0  0  0
 39 72  1  0  0  0  0
 40 42  1  0  0  0  0
 41 43  1  0  0  0  0
 41 44  1  0  0  0  0
 42 46  1  0  0  0  0
 43 48  1  0  0  0  0
 44 73  1  0  0  0  0
 45 48  1  0  0  0  0
 45 73  1  0  0  0  0
 46 76  1  0  0  0  0
 47 72  1  0  0  0  0
 48 71  1  0  0  0  0
 50 66  1  0  0  0  0
 51 67  1  0  0  0  0
 52 67  1  0  0  0  0
 53 68  1  0  0  0  0
 54 68  1  0  0  0  0
 55 68  1  0  0  0  0
 56 79  1  0  0  0  0
 57 80  1  0  0  0  0
 58 59  1  0  0  0  0
 59 64  1  0  0  0  0
 60 63  1  0  0  0  0
 60 67  1  0  0  0  0
 61 62  1  0  0  0  0
 61 70  1  0  0  0  0
 62 78  1  0  0  0  0
 63 80  1  0  0  0  0
 64 87  1  0  0  0  0
 65 68  1  0  0  0  0
 65 77  1  0  0  0  0
 66 79  1  0  0  0  0
 69 71  1  0  0  0  0
M  CHG  2  79   1  80   1
M  ISO  4  36 100  64 101  78 100  87 101
M  END
> <Batch ID>
0095

> <Smiles>
CNC(C)C(=O)NC(C(=O)N1Cc2cc([101O:1][101CH2:1]CCc3cc(CNCCC(C)C)c(C)n3CC[100NH:0][100C:0](=O)N3CCCC(n4nc(-c5ccc(Oc6ccc(F)cc6F)cc5)c(C(N)=O)c4N)C3)ccc2CC1C(=O)NC1CCCc2ccccc21)C(C)(C)C

> <Shape>
0.185

> <Color>
0.061

> <Negative vol penalty>
0.000

$$$$

  -OEChem-04052319213D

 84 91  0     1  0  0  0  0  0999 V2000
  -16.9621  -29.5992   24.4844 C   0  0  0  0  0  0  0  0  0  0  0  0
  -17.7810  -28.4857   24.6416 C   0  0  0  0  0  0  0  0  0  0  0  0
  -27.6920  -17.1444   19.0223 C   0  0  0  0  0  0  0  0  0  0  0  0
  -27.5936  -17.3710   21.4256 C   0  0  0  0  0  0  0  0  0  0  0  0
  -17.1434  -30.4480   23.3932 C   0  0  0  0  0  0  0  0  0  0  0  0
  -18.7812  -28.2196   23.7071 C   0  0  0  0  0  0  0  0  0  0  0  0
  -23.1780  -26.9499   25.8752 C   0  0  0  0  0  0  0  0  0  0  0  0
  -28.3671  -18.3619   18.9351 C   0  0  0  0  0  0  0  0  0  0  0  0
  -28.2688  -18.5885   21.3385 C   0  0  0  0  0  0  0  0  0  0  0  0
  -23.2959  -25.6485   26.3612 C   0  0  0  0  0  0  0  0  0  0  0  0
  -27.5335  -21.7946   20.5566 C   0  0  0  0  0  0  0  0  0  0  0  0
  -27.0472  -22.8609   21.3129 C   0  0  0  0  0  0  0  0  0  0  0  0
  -24.5184  -25.0249   24.3773 C   0  0  0  0  0  0  0  0  0  0  0  0
  -29.1596  -22.9984   22.4774 C   0  0  0  0  0  0  0  0  0  0  0  0
  -27.3051  -16.6490   20.2676 C   0  0  0  0  0  0  0  0  0  0  0  0
  -27.1761  -14.1121   20.5024 C   0  0  0  0  0  0  0  0  0  0  0  0
  -18.1525  -30.1975   22.4501 C   0  0  0  0  0  0  0  0  0  0  0  0
  -23.7209  -27.2965   24.6296 C   0  0  0  0  0  0  0  0  0  0  0  0
  -18.9753  -29.0651   22.6015 C   0  0  0  0  0  0  0  0  0  0  0  0
  -24.4083  -26.3321   23.8790 C   0  0  0  0  0  0  0  0  0  0  0  0
  -28.6555  -19.0839   20.0932 C   0  0  0  0  0  0  0  0  0  0  0  0
  -23.9637  -24.6850   25.6109 C   0  0  0  0  0  0  0  0  0  0  0  0
  -28.8329  -21.3300   20.7607 C   0  0  0  0  0  0  0  0  0  0  0  0
  -27.8602  -23.4628   22.2732 C   0  0  0  0  0  0  0  0  0  0  0  0
  -29.6459  -21.9320   21.7211 C   0  0  0  0  0  0  0  0  0  0  0  0
  -26.6072  -15.3917   20.3582 C   0  0  0  0  0  0  0  0  0  0  0  0
  -26.0995  -13.2600   20.5395 C   0  0  0  0  0  0  0  0  0  0  0  0
  -28.5544  -13.7281   20.5945 C   0  0  0  0  0  0  0  0  0  0  0  0
  -22.5296  -28.3582   21.8805 C   0  0  0  0  0  0  0  0  0  0  0  0
  -25.6603  -28.6025   21.0672 C   0  0  0  0  0  0  0  0  0  0  0  0
  -28.8737  -27.5697   21.5712 C   0  0  0  0  0  0  0  0  0  0  0  0
  -20.3651  -14.0003   22.0949 C   0  0  0  0  0  0  0  0  0  0  0  0
  -18.2796  -31.1172   21.2614 C   0  0  0  0  0  0  0  0  0  0  0  0
  -23.6084  -28.7113   24.1316 C   0  0  0  0  0  0  0  0  0  0  0  0
  -25.0266  -26.6582   22.5449 C   0  0  0  0  0  0  0  0  0  0  0  0
  -19.6054  -30.9727   20.5186 C   0  0  0  0  0  0  0  0  0  0  0  0
  -21.6014  -12.8387   18.9646 C   0  0  0  0  0  0  0  0  0  0  0  0
  -19.9317  -29.5002   20.2903 C   0  0  0  0  0  0  0  0  0  0  0  0
  -23.0758  -13.2458   18.9798 C   0  0  0  0  0  0  0  0  0  0  0  0
  -20.7204  -13.8834   19.6461 C   0  0  0  0  0  0  0  0  0  0  0  0
  -22.6092  -14.6526   21.0297 C   0  0  0  0  0  0  0  0  0  0  0  0
  -20.0872  -28.7567   21.6224 C   0  0  1  0  0  0  0  0  0  0  0  0
  -23.7531  -28.8251   22.6172 C   0  0  1  0  0  0  0  0  0  0  0  0
  -23.5440  -13.6038   20.4031 C   0  0  2  0  0  0  0  0  0  0  0  0
  -31.2112  -27.9224   20.7291 C   0  0  0  0  0  0  0  0  0  0  0  0
  -24.4160  -20.6409   26.9152 C   0  0  0  0  0  0  0  0  0  0  0  0
  -25.0194  -26.9317   18.5957 C   0  0  0  0  0  0  0  0  0  0  0  0
  -27.4741  -26.5217   18.3221 C   0  0  0  0  0  0  0  0  0  0  0  0
  -26.5767  -28.8452   18.1863 C   0  0  0  0  0  0  0  0  0  0  0  0
  -24.7360  -19.4920   24.0196 C   0  0  0  0  0  0  0  0  0  0  0  0
  -22.4814  -20.4078   23.4791 C   0  0  0  0  0  0  0  0  0  0  0  0
  -29.8065  -28.5204   24.2141 C   0  0  0  0  0  0  0  0  0  0  0  0
  -19.7488  -17.6473   27.3482 C   0  0  0  0  0  0  0  0  0  0  0  0
  -20.6157  -15.1471   25.6329 C   0  0  0  0  0  0  0  0  0  0  0  0
  -22.7381  -18.6315   25.2498 C   0  0  0  0  0  0  0  0  0  0  0  0
  -20.1669  -14.1568   24.5638 C   0  0  0  0  0  0  0  0  0  0  0  0
  -20.4257  -16.5940   25.1958 C   0  0  0  0  0  0  0  0  0  0  0  0
  -21.3410  -18.8200   25.8344 C   0  0  0  0  0  0  0  0  0  0  0  0
  -24.1448  -22.3666   25.1130 C   0  0  0  0  0  0  0  0  0  1  0  0
  -26.6741  -27.6834   20.4296 C   0  0  1  0  0  0  0  0  0  0  0  0
  -30.1655  -28.3471   21.7483 C   0  0  2  0  0  0  0  0  0  0  0  0
  -23.5673  -21.0622   25.7010 C   0  0  1  0  0  0  0  0  0  0  0  0
  -26.4229  -27.4885   18.9077 C   0  0  0  0  0  0  0  0  0  0  0  0
  -23.3830  -19.9153   24.6362 C   0  0  0  0  0  0  0  0  0  0  0  0
  -25.2729  -15.3601   20.3071 N   0  0  0  0  0  0  0  0  0  0  0  0
  -24.9943  -14.0502   20.4196 N   0  0  0  0  0  0  0  0  0  0  0  0
  -24.8844  -28.0538   22.0981 N   0  0  0  0  0  0  0  0  0  0  0  0
  -21.2175  -14.1768   20.9925 N   0  0  0  0  0  0  0  0  0  0  0  0
  -25.9999  -11.9193   20.6625 N   0  0  0  0  0  0  0  0  0  0  0  0
  -29.5324  -14.7305   20.5393 N   0  0  0  0  0  0  0  0  0  0  0  0
  -21.3767  -29.0432   22.2136 N   0  0  0  0  0  0  0  0  0  0  0  0
  -27.9854  -28.2350   20.7530 N   0  0  0  0  0  0  0  0  0  0  0  0
  -20.9172  -14.2949   23.3354 N   0  0  0  0  0  0  0  0  0  0  0  0
  -30.7214  -28.1238   23.1129 N   0  3  0  0  0  0  0  0  0  0  0  0
  -20.8443  -17.5072   26.3210 N   0  3  1  0  0  0  0  0  0  0  0  0
  -28.9088  -12.5300   20.7056 O   0  0  0  0  0  0  0  0  0  0  0  0
  -22.6248  -27.4450   21.0688 O   0  0  0  0  0  0  0  0  0  0  0  0
  -25.5654  -29.7665   20.6701 O   0  0  0  0  0  0  0  0  0  0  0  0
  -28.6742  -26.4794   22.1022 O   0  0  0  0  0  0  0  0  0  0  0  0
  -19.2000  -13.6041   21.9824 O   0  0  0  0  0  0  0  0  0  0  0  0
  -29.3145  -20.2718   20.0085 O   0  0  0  0  0  0  0  0  0  0  0  0
  -24.0803  -23.4062   26.0854 O   0  0  0  0  0  0  0  0  0  1  0  0
  -27.3936  -24.4878   22.9984 F   0  0  0  0  0  0  0  0  0  0  0  0
  -30.8955  -21.4909   21.9209 F   0  0  0  0  0  0  0  0  0  0  0  0
  1  2  1  0  0  0  0
  1  5  2  0  0  0  0
  2  6  2  0  0  0  0
  3  8  2  0  0  0  0
  3 15  1  0  0  0  0
  4  9  1  0  0  0  0
  4 15  2  0  0  0  0
  5 17  1  0  0  0  0
  6 19  1  0  0  0  0
  7 10  2  0  0  0  0
  7 18  1  0  0  0  0
  8 21  1  0  0  0  0
  9 21  2  0  0  0  0
 10 22  1  0  0  0  0
 11 12  2  0  0  0  0
 11 23  1  0  0  0  0
 12 24  1  0  0  0  0
 13 20  1  0  0  0  0
 13 22  2  0  0  0  0
 14 24  2  0  0  0  0
 14 25  1  0  0  0  0
 15 26  1  0  0  0  0
 16 26  1  0  0  0  0
 16 27  2  0  0  0  0
 16 28  1  0  0  0  0
 17 19  2  0  0  0  0
 17 33  1  0  0  0  0
 18 20  2  0  0  0  0
 18 34  1  0  0  0  0
 19 42  1  0  0  0  0
 20 35  1  0  0  0  0
 21 81  1  0  0  0  0
 22 82  1  0  0  0  0
 23 25  2  0  0  0  0
 23 81  1  0  0  0  0
 24 83  1  0  0  0  0
 25 84  1  0  0  0  0
 26 65  2  0  0  0  0
 27 66  1  0  0  0  0
 27 69  1  0  0  0  0
 28 70  1  0  0  0  0
 28 76  2  0  0  0  0
 29 43  1  0  0  0  0
 29 71  1  0  0  0  0
 29 77  2  0  0  0  0
 30 60  1  0  0  0  0
 30 67  1  0  0  0  0
 30 78  2  0  0  0  0
 31 61  1  0  0  0  0
 31 72  1  0  0  0  0
 31 79  2  0  0  0  0
 32 68  1  0  0  0  0
 32 73  1  0  0  0  0
 32 80  2  0  0  0  0
 33 36  1  0  0  0  0
 34 43  1  0  0  0  0
 35 67  1  0  0  0  0
 36 38  1  0  0  0  0
 37 39  1  0  0  0  0
 37 40  1  0  0  0  0
 38 42  1  0  0  0  0
 39 44  1  0  0  0  0
 40 68  1  0  0  0  0
 41 44  1  0  0  0  0
 41 68  1  0  0  0  0
 42 71  1  0  0  0  0
 43 67  1  0  0  0  0
 44 66  1  0  0  0  0
 45 61  1  0  0  0  0
 46 62  1  0  0  0  0
 47 63  1  0  0  0  0
 48 63  1  0  0  0  0
 49 63  1  0  0  0  0
 50 64  1  0  0  0  0
 51 64  1  0  0  0  0
 52 74  1  0  0  0  0
 53 75  1  0  0  0  0
 54 56  1  0  0  0  0
 54 57  1  0  0  0  0
 55 58  1  0  0  0  0
 55 64  1  0  0  0  0
 56 73  1  0  0  0  0
 57 75  1  0  0  0  0
 58 75  1  0  0  0  0
 59 62  1  0  0  0  0
 59 82  1  0  0  0  0
 60 63  1  0  0  0  0
 60 72  1  0  0  0  0
 61 74  1  0  0  0  0
 62 64  1  0  0  0  0
 65 66  1  0  0  0  0
M  CHG  2  74   1  75   1
M  ISO  4  32 100  59 101  73 100  82 101
M  END
> <Batch ID>
0095

> <Smiles>
CNC(C)C(=O)NC(C(=O)N1Cc2cc([101O:1][101CH2:1]C(C)C(C)(C)CCN(C)CCC[100NH:0][100C:0](=O)N3CCCC(n4nc(-c5ccc(Oc6ccc(F)cc6F)cc5)c(C(N)=O)c4N)C3)ccc2CC1C(=O)NC1CCCc2ccccc21)C(C)(C)C

> <Shape>
0.213

> <Color>
0.091

> <Negative vol penalty>
0.000

$$$$

  -OEChem-04052319213D

 92100  0     1  0  0  0  0  0999 V2000
  -37.3560  -28.2962   21.9607 C   0  0  0  0  0  0  0  0  0  0  0  0
  -36.2678  -27.4308   22.0075 C   0  0  0  0  0  0  0  0  0  0  0  0
  -23.3105   -9.7808   19.9485 C   0  0  0  0  0  0  0  0  0  0  0  0
  -23.9496   -9.9376   22.2731 C   0  0  0  0  0  0  0  0  0  0  0  0
  -37.2651  -29.5606   22.5412 C   0  0  0  0  0  0  0  0  0  0  0  0
  -35.0884  -27.8288   22.6359 C   0  0  0  0  0  0  0  0  0  0  0  0
  -30.9635  -26.6809   19.9317 C   0  0  0  0  0  0  0  0  0  0  0  0
  -22.6627   -8.5731   20.2080 C   0  0  0  0  0  0  0  0  0  0  0  0
  -23.3018   -8.7299   22.5327 C   0  0  0  0  0  0  0  0  0  0  0  0
  -30.5271  -25.3573   19.9669 C   0  0  0  0  0  0  0  0  0  0  0  0
  -20.1330   -7.6581   23.0130 C   0  0  0  0  0  0  0  0  0  0  0  0
  -19.3246   -7.5888   24.1475 C   0  0  0  0  0  0  0  0  0  0  0  0
  -28.8447  -25.9614   21.5867 C   0  0  0  0  0  0  0  0  0  0  0  0
  -20.6978   -5.8013   25.0170 C   0  0  0  0  0  0  0  0  0  0  0  0
  -29.0343  -19.9807   23.6688 C   0  0  0  0  0  0  0  0  0  0  0  0
  -23.9541  -10.4630   20.9810 C   0  0  0  0  0  0  0  0  0  0  0  0
  -24.0709  -13.0033   20.7785 C   0  0  0  0  0  0  0  0  0  0  0  0
  -36.0807  -29.9780   23.1686 C   0  0  0  0  0  0  0  0  0  0  0  0
  -30.3499  -27.6543   20.7332 C   0  0  0  0  0  0  0  0  0  0  0  0
  -34.9820  -29.0994   23.2265 C   0  0  0  0  0  0  0  0  0  0  0  0
  -29.2735  -27.2972   21.5579 C   0  0  0  0  0  0  0  0  0  0  0  0
  -29.1807  -19.0824   22.6241 C   0  0  0  0  0  0  0  0  0  0  0  0
  -29.0938  -19.5737   21.3262 C   0  0  0  0  0  0  0  0  0  0  0  0
  -28.8664  -20.9292   21.1157 C   0  0  0  0  0  0  0  0  0  0  0  0
  -22.6583   -8.0477   21.5001 C   0  0  0  0  0  0  0  0  0  0  0  0
  -29.4694  -24.9967   20.7966 C   0  0  0  0  0  0  0  0  0  0  0  0
  -21.2239   -6.7988   22.8804 C   0  0  0  0  0  0  0  0  0  0  0  0
  -19.6069   -6.6605   25.1495 C   0  0  0  0  0  0  0  0  0  0  0  0
  -21.5063   -5.8705   23.8824 C   0  0  0  0  0  0  0  0  0  0  0  0
  -24.6239  -11.7103   20.7134 C   0  0  0  0  0  0  0  0  0  0  0  0
  -28.7338  -21.7448   22.2279 C   0  0  0  0  0  0  0  0  0  0  0  0
  -25.1075  -13.8376   20.4381 C   0  0  0  0  0  0  0  0  0  0  0  0
  -22.7393  -13.4135   21.1165 C   0  0  0  0  0  0  0  0  0  0  0  0
  -31.3180  -29.5569   23.0883 C   0  0  0  0  0  0  0  0  0  0  0  0
  -28.3336  -30.7930   22.7925 C   0  0  0  0  0  0  0  0  0  0  0  0
  -25.0978  -30.3469   21.8037 C   0  0  0  0  0  0  0  0  0  0  0  0
  -30.8390  -14.3371   21.0824 C   0  0  0  0  0  0  0  0  0  0  0  0
  -36.0458  -31.3362   23.8234 C   0  0  0  0  0  0  0  0  0  0  0  0
  -30.8150  -29.0830   20.6637 C   0  0  0  0  0  0  0  0  0  0  0  0
  -28.5677  -28.3083   22.4227 C   0  0  0  0  0  0  0  0  0  0  0  0
  -34.6343  -31.8226   24.1421 C   0  0  0  0  0  0  0  0  0  0  0  0
  -29.3792  -13.2768   18.0130 C   0  0  0  0  0  0  0  0  0  0  0  0
  -33.8252  -30.7141   24.8079 C   0  0  0  0  0  0  0  0  0  0  0  0
  -27.9527  -12.8849   18.4025 C   0  0  0  0  0  0  0  0  0  0  0  0
  -30.3822  -12.9150   19.1062 C   0  0  0  0  0  0  0  0  0  0  0  0
  -28.6301  -13.0504   20.8341 C   0  0  0  0  0  0  0  0  0  0  0  0
  -33.6771  -29.5042   23.8774 C   0  0  1  0  0  0  0  0  0  0  0  0
  -30.4525  -29.8905   21.9062 C   0  0  1  0  0  0  0  0  0  0  0  0
  -27.5752  -13.4460   19.7867 C   0  0  2  0  0  0  0  0  0  0  0  0
  -28.0515  -17.3924   18.3161 C   0  0  0  0  0  0  0  0  0  0  0  0
  -22.8825  -31.5230   21.7239 C   0  0  0  0  0  0  0  0  0  0  0  0
  -26.9775  -23.5382   22.0072 C   0  0  0  0  0  0  0  0  0  0  0  0
  -29.1513  -24.0432   23.1853 C   0  0  0  0  0  0  0  0  0  0  0  0
  -29.3990  -21.3620   16.7100 C   0  0  0  0  0  0  0  0  0  0  0  0
  -31.6156  -22.4301   17.1423 C   0  0  0  0  0  0  0  0  0  0  0  0
  -29.4987  -23.6669   17.6684 C   0  0  0  0  0  0  0  0  0  0  0  0
  -27.9738  -30.3130   25.7841 C   0  0  0  0  0  0  0  0  0  0  0  0
  -25.5071  -30.5964   25.4621 C   0  0  0  0  0  0  0  0  0  0  0  0
  -27.0543  -32.4872   24.9584 C   0  0  0  0  0  0  0  0  0  0  0  0
  -24.9878  -30.1860   18.8506 C   0  0  0  0  0  0  0  0  0  0  0  0
  -29.4228  -17.6405   22.9092 C   0  0  0  0  0  0  0  0  0  0  0  0
  -29.2447  -18.6462   20.1632 C   0  0  0  0  0  0  0  0  0  0  0  0
  -28.7699  -21.4871   19.7355 C   0  0  0  0  0  0  0  0  0  0  0  0
  -27.8931  -18.3091   19.5188 C   0  0  0  0  0  0  0  0  0  0  0  0
  -30.8939  -17.1990   22.7707 C   0  0  0  0  0  0  0  0  0  0  0  0
  -30.1556  -21.6486   19.0808 C   0  0  0  0  0  0  0  0  0  0  0  0
  -31.1440  -15.7317   23.1125 C   0  0  0  0  0  0  0  0  0  0  0  0
  -26.9868  -30.4935   23.4052 C   0  0  1  0  0  0  0  0  0  0  0  0
  -24.1693  -31.2152   20.9741 C   0  0  2  0  0  0  0  0  0  0  0  0
  -28.4818  -23.2413   22.0612 C   0  0  0  0  0  0  0  0  0  1  0  0
  -30.1772  -22.2873   17.6663 C   0  0  0  0  0  0  0  0  0  0  0  0
  -26.8948  -30.9528   24.8877 C   0  0  0  0  0  0  0  0  0  0  0  0
  -28.8123  -21.3040   23.5036 N   0  0  0  0  0  0  0  0  0  0  0  0
  -25.9118  -11.7176   20.3594 N   0  0  0  0  0  0  0  0  0  0  0  0
  -26.1767  -13.0253   20.1988 N   0  0  0  0  0  0  0  0  0  0  0  0
  -29.0634  -29.6911   22.3244 N   0  0  0  0  0  0  0  0  0  0  0  0
  -29.9669  -13.4786   20.3930 N   0  0  0  0  0  0  0  0  0  0  0  0
  -25.1996  -15.1795   20.3230 N   0  0  0  0  0  0  0  0  0  0  0  0
  -21.7983  -12.4268   21.4409 N   0  0  0  0  0  0  0  0  0  0  0  0
  -32.6677  -29.7601   22.8724 N   0  0  0  0  0  0  0  0  0  0  0  0
  -25.9942  -31.1043   22.5277 N   0  0  0  0  0  0  0  0  0  0  0  0
  -30.3650  -14.8321   22.2912 N   0  0  0  0  0  0  0  0  0  0  0  0
  -23.8176  -30.5272   19.6998 N   0  3  0  0  0  0  0  0  0  0  0  0
  -22.3898  -14.6182   21.1143 O   0  0  0  0  0  0  0  0  0  0  0  0
  -30.7997  -29.1470   24.1202 O   0  0  0  0  0  0  0  0  0  0  0  0
  -28.7207  -31.9623   22.7249 O   0  0  0  0  0  0  0  0  0  0  0  0
  -25.0320  -29.1197   21.8118 O   0  0  0  0  0  0  0  0  0  0  0  0
  -31.9551  -14.6442   20.6501 O   0  0  0  0  0  0  0  0  0  0  0  0
  -22.0260   -6.8693   21.7538 O   0  0  0  0  0  0  0  0  0  0  0  0
  -29.0419  -23.7053   20.8334 O   0  0  0  0  0  0  0  0  0  1  0  0
  -18.8314   -6.5952   26.2397 F   0  0  0  0  0  0  0  0  0  0  0  0
  -22.5535   -5.0433   23.7612 F   0  0  0  0  0  0  0  0  0  0  0  0
  1  2  1  0  0  0  0
  1  5  2  0  0  0  0
  2  6  2  0  0  0  0
  3  8  2  0  0  0  0
  3 16  1  0  0  0  0
  4  9  1  0  0  0  0
  4 16  2  0  0  0  0
  5 18  1  0  0  0  0
  6 20  1  0  0  0  0
  7 10  2  0  0  0  0
  7 19  1  0  0  0  0
  8 25  1  0  0  0  0
  9 25  2  0  0  0  0
 10 26  1  0  0  0  0
 11 12  2  0  0  0  0
 11 27  1  0  0  0  0
 12 28  1  0  0  0  0
 13 21  1  0  0  0  0
 13 26  2  0  0  0  0
 14 28  2  0  0  0  0
 14 29  1  0  0  0  0
 15 22  2  0  0  0  0
 15 73  1  0  0  0  0
 16 30  1  0  0  0  0
 17 30  1  0  0  0  0
 17 32  2  0  0  0  0
 17 33  1  0  0  0  0
 18 20  2  0  0  0  0
 18 38  1  0  0  0  0
 19 21  2  0  0  0  0
 19 39  1  0  0  0  0
 20 47  1  0  0  0  0
 21 40  1  0  0  0  0
 22 23  1  0  0  0  0
 22 61  1  0  0  0  0
 23 24  2  0  0  0  0
 23 62  1  0  0  0  0
 24 31  1  0  0  0  0
 24 63  1  0  0  0  0
 25 89  1  0  0  0  0
 26 90  1  0  0  0  0
 27 29  2  0  0  0  0
 27 89  1  0  0  0  0
 28 91  1  0  0  0  0
 29 92  1  0  0  0  0
 30 74  2  0  0  0  0
 31 70  1  0  0  0  0
 31 73  2  0  0  0  0
 32 75  1  0  0  0  0
 32 78  1  0  0  0  0
 33 79  1  0  0  0  0
 33 84  2  0  0  0  0
 34 48  1  0  0  0  0
 34 80  1  0  0  0  0
 34 85  2  0  0  0  0
 35 68  1  0  0  0  0
 35 76  1  0  0  0  0
 35 86  2  0  0  0  0
 36 69  1  0  0  0  0
 36 81  1  0  0  0  0
 36 87  2  0  0  0  0
 37 77  1  0  0  0  0
 37 82  1  0  0  0  0
 37 88  2  0  0  0  0
 38 41  1  0  0  0  0
 39 48  1  0  0  0  0
 40 76  1  0  0  0  0
 41 43  1  0  0  0  0
 42 44  1  0  0  0  0
 42 45  1  0  0  0  0
 43 47  1  0  0  0  0
 44 49  1  0  0  0  0
 45 77  1  0  0  0  0
 46 49  1  0  0  0  0
 46 77  1  0  0  0  0
 47 80  1  0  0  0  0
 48 76  1  0  0  0  0
 49 75  1  0  0  0  0
 50 64  1  0  0  0  0
 51 69  1  0  0  0  0
 52 70  1  0  0  0  0
 53 70  1  0  0  0  0
 54 71  1  0  0  0  0
 55 71  1  0  0  0  0
 56 71  1  0  0  0  0
 57 72  1  0  0  0  0
 58 72  1  0  0  0  0
 59 72  1  0  0  0  0
 60 83  1  0  0  0  0
 61 65  1  0  0  0  0
 62 64  1  0  0  0  0
 63 66  1  0  0  0  0
 65 67  1  0  0  0  0
 66 71  1  0  0  0  0
 67 82  1  0  0  0  0
 68 72  1  0  0  0  0
 68 81  1  0  0  0  0
 69 83  1  0  0  0  0
 70 90  1  0  0  0  0
 74 75  1  0  0  0  0
M  CHG  1  83   1
M  ISO  4  37 100  70 101  82 100  90 101
M  END
> <Batch ID>
0095

> <Smiles>
CCCc1c(CCC[100NH:0][100C:0](=O)N2CCCC(n3nc(-c4ccc(Oc5ccc(F)cc5F)cc4)c(C(N)=O)c3N)C2)cnc([101C:1](C)(C)[101O:1]c2ccc3c(c2)CN(C(=O)C(NC(=O)C(C)NC)C(C)(C)C)C(C(=O)NC2CCCc4ccccc42)C3)c1CCC(C)(C)C

> <Shape>
0.358

> <Color>
0.192

> <Negative vol penalty>
0.000

$$$$

  -OEChem-04052319213D

 87 95  0     1  0  0  0  0  0999 V2000
  -28.8898  -36.4795   24.8654 C   0  0  0  0  0  0  0  0  0  0  0  0
  -29.2772  -35.5512   23.9044 C   0  0  0  0  0  0  0  0  0  0  0  0
  -23.8457  -10.2458   22.6894 C   0  0  0  0  0  0  0  0  0  0  0  0
  -24.4196  -11.9650   24.2869 C   0  0  0  0  0  0  0  0  0  0  0  0
  -27.9405  -36.1322   25.8257 C   0  0  0  0  0  0  0  0  0  0  0  0
  -28.7163  -34.2746   23.9038 C   0  0  0  0  0  0  0  0  0  0  0  0
  -26.7712  -29.0333   19.4247 C   0  0  0  0  0  0  0  0  0  0  0  0
  -23.3344   -9.4581   23.7207 C   0  0  0  0  0  0  0  0  0  0  0  0
  -23.9083  -11.1773   25.3183 C   0  0  0  0  0  0  0  0  0  0  0  0
  -26.9530  -27.6658   19.2234 C   0  0  0  0  0  0  0  0  0  0  0  0
  -20.5108   -9.3075   25.5747 C   0  0  0  0  0  0  0  0  0  0  0  0
  -19.2791   -8.6868   25.3667 C   0  0  0  0  0  0  0  0  0  0  0  0
  -25.2638  -27.2033   20.8824 C   0  0  0  0  0  0  0  0  0  0  0  0
  -32.4684  -17.7204   20.4271 C   0  0  0  0  0  0  0  0  0  0  0  0
  -20.3151   -6.5266   25.6788 C   0  0  0  0  0  0  0  0  0  0  0  0
  -30.5527  -18.0941   21.7862 C   0  0  0  0  0  0  0  0  0  0  0  0
  -24.3884  -11.4993   22.9725 C   0  0  0  0  0  0  0  0  0  0  0  0
  -24.2200  -13.2626   21.1367 C   0  0  0  0  0  0  0  0  0  0  0  0
  -27.3606  -34.8538   25.8310 C   0  0  0  0  0  0  0  0  0  0  0  0
  -25.8406  -29.4968   20.3657 C   0  0  0  0  0  0  0  0  0  0  0  0
  -27.7594  -33.9094   24.8659 C   0  0  0  0  0  0  0  0  0  0  0  0
  -25.0703  -28.5772   21.0918 C   0  0  0  0  0  0  0  0  0  0  0  0
  -31.6056  -17.2710   21.4205 C   0  0  0  0  0  0  0  0  0  0  0  0
  -32.2551  -18.9618   19.8381 C   0  0  0  0  0  0  0  0  0  0  0  0
  -23.3657   -9.9239   25.0351 C   0  0  0  0  0  0  0  0  0  0  0  0
  -26.2013  -26.7505   19.9544 C   0  0  0  0  0  0  0  0  0  0  0  0
  -21.6447   -8.5378   25.8347 C   0  0  0  0  0  0  0  0  0  0  0  0
  -19.1812   -7.2964   25.4188 C   0  0  0  0  0  0  0  0  0  0  0  0
  -21.5468   -7.1474   25.8868 C   0  0  0  0  0  0  0  0  0  0  0  0
  -24.9173  -12.3132   21.9076 C   0  0  0  0  0  0  0  0  0  0  0  0
  -31.1730  -19.7091   20.2745 C   0  0  0  0  0  0  0  0  0  0  0  0
  -25.1614  -13.7572   20.2674 C   0  0  0  0  0  0  0  0  0  0  0  0
  -22.8444  -13.6617   21.2007 C   0  0  0  0  0  0  0  0  0  0  0  0
  -26.0143  -31.2173   23.0328 C   0  0  0  0  0  0  0  0  0  0  0  0
  -22.7778  -31.0610   22.8817 C   0  0  0  0  0  0  0  0  0  0  0  0
  -20.0059  -29.4194   21.7553 C   0  0  0  0  0  0  0  0  0  0  0  0
  -31.1318  -14.1402   20.5085 C   0  0  0  0  0  0  0  0  0  0  0  0
  -26.3734  -34.5090   26.9178 C   0  0  0  0  0  0  0  0  0  0  0  0
  -25.6374  -30.9755   20.5518 C   0  0  0  0  0  0  0  0  0  0  0  0
  -24.0437  -29.0236   22.0995 C   0  0  0  0  0  0  0  0  0  0  0  0
  -25.5514  -33.2578   26.6194 C   0  0  0  0  0  0  0  0  0  0  0  0
  -29.1902  -12.5136   18.0063 C   0  0  0  0  0  0  0  0  0  0  0  0
  -26.4534  -32.1321   26.1235 C   0  0  0  0  0  0  0  0  0  0  0  0
  -27.8120  -12.3634   18.6529 C   0  0  0  0  0  0  0  0  0  0  0  0
  -30.3139  -12.3332   19.0245 C   0  0  0  0  0  0  0  0  0  0  0  0
  -28.8356  -13.0456   20.8632 C   0  0  0  0  0  0  0  0  0  0  0  0
  -27.1555  -32.5226   24.8173 C   0  0  1  0  0  0  0  0  0  0  0  0
  -25.0279  -31.3292   21.9049 C   0  0  1  0  0  0  0  0  0  0  0  0
  -27.6692  -13.2747   19.8868 C   0  0  2  0  0  0  0  0  0  0  0  0
  -17.4990  -29.5093   21.8250 C   0  0  0  0  0  0  0  0  0  0  0  0
  -34.6086  -18.9081   18.9491 C   0  0  0  0  0  0  0  0  0  0  0  0
  -32.6680  -19.1102   17.3602 C   0  0  0  0  0  0  0  0  0  0  0  0
  -22.8211  -29.9898   25.7384 C   0  0  0  0  0  0  0  0  0  0  0  0
  -20.4614  -29.2197   25.4113 C   0  0  0  0  0  0  0  0  0  0  0  0
  -21.0089  -31.6495   25.2740 C   0  0  0  0  0  0  0  0  0  0  0  0
  -19.8191  -29.7123   18.8163 C   0  0  0  0  0  0  0  0  0  0  0  0
  -31.8057  -15.9479   22.0696 C   0  0  0  0  0  0  0  0  0  0  0  0
  -30.8918  -21.0625   19.6715 C   0  0  0  0  0  0  0  0  0  0  0  0
  -29.5243  -21.6393   20.0546 C   0  0  0  0  0  0  0  0  0  0  0  0
  -29.2892  -23.0462   19.4957 C   0  0  0  0  0  0  0  0  0  0  0  0
  -27.9048  -23.5683   19.8758 C   0  0  0  0  0  0  0  0  0  0  0  0
  -27.6770  -24.9824   19.3608 C   0  0  0  0  0  0  0  0  0  1  0  0
  -21.7279  -30.1093   23.4025 C   0  0  1  0  0  0  0  0  0  0  0  0
  -18.7503  -29.9196   21.0642 C   0  0  2  0  0  0  0  0  0  0  0  0
  -33.1768  -19.4501   18.7745 C   0  0  0  0  0  0  0  0  0  0  0  0
  -21.5255  -30.2333   24.9391 C   0  0  0  0  0  0  0  0  0  0  0  0
  -30.3133  -19.3060   21.2368 N   0  0  0  0  0  0  0  0  0  0  0  0
  -26.2023  -12.2091   21.5587 N   0  0  0  0  0  0  0  0  0  0  0  0
  -26.3200  -13.0994   20.5589 N   0  0  0  0  0  0  0  0  0  0  0  0
  -23.8863  -30.4797   22.2501 N   0  0  0  0  0  0  0  0  0  0  0  0
  -30.1201  -13.2269   20.1689 N   0  0  0  0  0  0  0  0  0  0  0  0
  -25.1027  -14.6863   19.2898 N   0  0  0  0  0  0  0  0  0  0  0  0
  -22.0156  -13.0526   22.1528 N   0  0  0  0  0  0  0  0  0  0  0  0
  -26.2442  -32.4058   23.6992 N   0  0  0  0  0  0  0  0  0  0  0  0
  -20.5235  -30.3616   22.6188 N   0  0  0  0  0  0  0  0  0  0  0  0
  -30.8648  -14.9544   21.6023 N   0  0  0  0  0  0  0  0  0  0  0  0
  -18.6635  -29.3660   19.6833 N   0  3  0  0  0  0  0  0  0  0  0  0
  -22.3605  -14.5208   20.4253 O   0  0  0  0  0  0  0  0  0  0  0  0
  -26.5276  -30.1326   23.2812 O   0  0  0  0  0  0  0  0  0  0  0  0
  -22.6166  -32.2757   23.0237 O   0  0  0  0  0  0  0  0  0  0  0  0
  -20.4780  -28.3029   21.5525 O   0  0  0  0  0  0  0  0  0  0  0  0
  -32.1921  -14.2274   19.8800 O   0  0  0  0  0  0  0  0  0  0  0  0
  -22.8666   -9.1556   26.0417 O   0  0  0  0  0  0  0  0  0  0  0  0
  -26.3772  -25.4151   19.7604 O   0  0  0  0  0  0  0  0  0  1  0  0
  -17.9981   -6.7005   25.2205 F   0  0  0  0  0  0  0  0  0  0  0  0
  -22.6323   -6.4027   26.1373 F   0  0  0  0  0  0  0  0  0  0  0  0
  -33.3194  -20.8275   18.7756 F   0  0  0  0  0  0  0  0  0  0  0  0
  1  2  1  0  0  0  0
  1  5  2  0  0  0  0
  2  6  2  0  0  0  0
  3  8  2  0  0  0  0
  3 17  1  0  0  0  0
  4  9  1  0  0  0  0
  4 17  2  0  0  0  0
  5 19  1  0  0  0  0
  6 21  1  0  0  0  0
  7 10  2  0  0  0  0
  7 20  1  0  0  0  0
  8 25  1  0  0  0  0
  9 25  2  0  0  0  0
 10 26  1  0  0  0  0
 11 12  2  0  0  0  0
 11 27  1  0  0  0  0
 12 28  1  0  0  0  0
 13 22  1  0  0  0  0
 13 26  2  0  0  0  0
 14 23  2  0  0  0  0
 14 24  1  0  0  0  0
 15 28  2  0  0  0  0
 15 29  1  0  0  0  0
 16 23  1  0  0  0  0
 16 67  2  0  0  0  0
 17 30  1  0  0  0  0
 18 30  1  0  0  0  0
 18 32  2  0  0  0  0
 18 33  1  0  0  0  0
 19 21  2  0  0  0  0
 19 38  1  0  0  0  0
 20 22  2  0  0  0  0
 20 39  1  0  0  0  0
 21 47  1  0  0  0  0
 22 40  1  0  0  0  0
 23 57  1  0  0  0  0
 24 31  2  0  0  0  0
 24 65  1  0  0  0  0
 25 83  1  0  0  0  0
 26 84  1  0  0  0  0
 27 29  2  0  0  0  0
 27 83  1  0  0  0  0
 28 85  1  0  0  0  0
 29 86  1  0  0  0  0
 30 68  2  0  0  0  0
 31 58  1  0  0  0  0
 31 67  1  0  0  0  0
 32 69  1  0  0  0  0
 32 72  1  0  0  0  0
 33 73  1  0  0  0  0
 33 78  2  0  0  0  0
 34 48  1  0  0  0  0
 34 74  1  0  0  0  0
 34 79  2  0  0  0  0
 35 63  1  0  0  0  0
 35 70  1  0  0  0  0
 35 80  2  0  0  0  0
 36 64  1  0  0  0  0
 36 75  1  0  0  0  0
 36 81  2  0  0  0  0
 37 71  1  0  0  0  0
 37 76  1  0  0  0  0
 37 82  2  0  0  0  0
 38 41  1  0  0  0  0
 39 48  1  0  0  0  0
 40 70  1  0  0  0  0
 41 43  1  0  0  0  0
 42 44  1  0  0  0  0
 42 45  1  0  0  0  0
 43 47  1  0  0  0  0
 44 49  1  0  0  0  0
 45 71  1  0  0  0  0
 46 49  1  0  0  0  0
 46 71  1  0  0  0  0
 47 74  1  0  0  0  0
 48 70  1  0  0  0  0
 49 69  1  0  0  0  0
 50 64  1  0  0  0  0
 51 65  1  0  0  0  0
 52 65  1  0  0  0  0
 53 66  1  0  0  0  0
 54 66  1  0  0  0  0
 55 66  1  0  0  0  0
 56 77  1  0  0  0  0
 57 76  1  0  0  0  0
 58 59  1  0  0  0  0
 59 60  1  0  0  0  0
 60 61  1  0  0  0  0
 61 62  1  0  0  0  0
 62 84  1  0  0  0  0
 63 66  1  0  0  0  0
 63 75  1  0  0  0  0
 64 77  1  0  0  0  0
 65 87  1  0  0  0  0
 68 69  1  0  0  0  0
M  CHG  1  77   1
M  ISO  4  37 100  62 101  76 100  84 101
M  END
> <Batch ID>
0095

> <Smiles>
CNC(C)C(=O)NC(C(=O)N1Cc2cc([101O:1][101CH2:1]CCCCc3ncc(C[100NH:0][100C:0](=O)N4CCCC(n5nc(-c6ccc(Oc7ccc(F)cc7F)cc6)c(C(N)=O)c5N)C4)cc3C(C)(C)F)ccc2CC1C(=O)NC1CCCc2ccccc21)C(C)(C)C

> <Shape>
0.294

> <Color>
0.145

> <Negative vol penalty>
0.000

$$$$

  -OEChem-04052319213D

 85 93  0     1  0  0  0  0  0999 V2000
  -22.5430  -25.8312   27.2177 C   0  0  0  0  0  0  0  0  0  0  0  0
  -22.7132  -24.4538   27.1208 C   0  0  0  0  0  0  0  0  0  0  0  0
  -23.0719   -9.8702   19.9445 C   0  0  0  0  0  0  0  0  0  0  0  0
  -23.8344   -9.8793   22.2370 C   0  0  0  0  0  0  0  0  0  0  0  0
  -23.6548  -26.6724   27.2057 C   0  0  0  0  0  0  0  0  0  0  0  0
  -23.9954  -23.9169   27.0108 C   0  0  0  0  0  0  0  0  0  0  0  0
  -27.8104  -18.1468   28.8730 C   0  0  0  0  0  0  0  0  0  0  0  0
  -22.3283   -8.7173   20.1964 C   0  0  0  0  0  0  0  0  0  0  0  0
  -23.0908   -8.7264   22.4890 C   0  0  0  0  0  0  0  0  0  0  0  0
  -28.6376  -17.1753   28.3112 C   0  0  0  0  0  0  0  0  0  0  0  0
  -20.5139   -5.5662   20.1432 C   0  0  0  0  0  0  0  0  0  0  0  0
  -20.5761   -4.5349   19.2061 C   0  0  0  0  0  0  0  0  0  0  0  0
  -30.4891  -18.7201   28.3808 C   0  0  0  0  0  0  0  0  0  0  0  0
  -22.9613   -4.3651   19.5513 C   0  0  0  0  0  0  0  0  0  0  0  0
  -29.3443  -18.9554   24.5220 C   0  0  0  0  0  0  0  0  0  0  0  0
  -23.8250  -10.4512   20.9648 C   0  0  0  0  0  0  0  0  0  0  0  0
  -24.1668  -12.9762   20.8420 C   0  0  0  0  0  0  0  0  0  0  0  0
  -24.9519  -26.1449   27.1052 C   0  0  0  0  0  0  0  0  0  0  0  0
  -28.3146  -19.4180   29.1833 C   0  0  0  0  0  0  0  0  0  0  0  0
  -25.1256  -24.7519   26.9961 C   0  0  0  0  0  0  0  0  0  0  0  0
  -29.6668  -19.7051   28.9488 C   0  0  0  0  0  0  0  0  0  0  0  0
  -28.3512  -19.0998   23.5785 C   0  0  0  0  0  0  0  0  0  0  0  0
  -28.7381  -18.3520   22.4391 C   0  0  0  0  0  0  0  0  0  0  0  0
  -22.3377   -8.1454   21.4686 C   0  0  0  0  0  0  0  0  0  0  0  0
  -29.9765  -17.4627   28.0623 C   0  0  0  0  0  0  0  0  0  0  0  0
  -21.6755   -5.9971   20.7842 C   0  0  0  0  0  0  0  0  0  0  0  0
  -21.7998   -3.9343   18.9102 C   0  0  0  0  0  0  0  0  0  0  0  0
  -22.8991   -5.3965   20.4883 C   0  0  0  0  0  0  0  0  0  0  0  0
  -24.5938  -11.6418   20.7050 C   0  0  0  0  0  0  0  0  0  0  0  0
  -29.9559  -17.7733   22.7211 C   0  0  0  0  0  0  0  0  0  0  0  0
  -25.2585  -13.7253   20.4767 C   0  0  0  0  0  0  0  0  0  0  0  0
  -22.8968  -13.4924   21.2619 C   0  0  0  0  0  0  0  0  0  0  0  0
  -27.6815  -22.3793   28.2173 C   0  0  0  0  0  0  0  0  0  0  0  0
  -29.7864  -23.1748   30.5536 C   0  0  0  0  0  0  0  0  0  0  0  0
  -32.4150  -22.2485   32.5232 C   0  0  0  0  0  0  0  0  0  0  0  0
  -30.7425  -14.7444   20.6578 C   0  0  0  0  0  0  0  0  0  0  0  0
  -26.1203  -27.0969   27.0488 C   0  0  0  0  0  0  0  0  0  0  0  0
  -27.4157  -20.4462   29.8136 C   0  0  0  0  0  0  0  0  0  0  0  0
  -30.2619  -21.0479   29.2826 C   0  0  0  0  0  0  0  0  0  0  0  0
  -27.4665  -26.4248   27.3065 C   0  0  0  0  0  0  0  0  0  0  0  0
  -29.6021  -12.3576   18.2746 C   0  0  0  0  0  0  0  0  0  0  0  0
  -27.5846  -25.1380   26.4960 C   0  0  0  0  0  0  0  0  0  0  0  0
  -28.1651  -12.0644   18.7094 C   0  0  0  0  0  0  0  0  0  0  0  0
  -30.5206  -12.5796   19.4742 C   0  0  0  0  0  0  0  0  0  0  0  0
  -28.6205  -13.3120   20.8623 C   0  0  0  0  0  0  0  0  0  0  0  0
  -26.5019  -24.1301   26.9003 C   0  0  1  0  0  0  0  0  0  0  0  0
  -27.9108  -21.8754   29.6141 C   0  0  1  0  0  0  0  0  0  0  0  0
  -27.6449  -13.1363   19.6860 C   0  0  2  0  0  0  0  0  0  0  0  0
  -27.9778  -18.2163   21.1796 C   0  0  0  0  0  0  0  0  0  0  0  0
  -27.3866  -21.3992   23.9472 C   0  0  0  0  0  0  0  0  0  0  0  0
  -26.2082  -19.3740   24.8772 C   0  0  0  0  0  0  0  0  0  0  0  0
  -33.9428  -23.1259   34.3103 C   0  0  0  0  0  0  0  0  0  0  0  0
  -30.1530  -14.5204   26.3411 C   0  0  0  0  0  0  0  0  0  0  0  0
  -31.3211  -24.7712   28.4545 C   0  0  0  0  0  0  0  0  0  0  0  0
  -33.2745  -24.8190   30.0197 C   0  0  0  0  0  0  0  0  0  0  0  0
  -31.1227  -25.8945   30.6801 C   0  0  0  0  0  0  0  0  0  0  0  0
  -31.5150  -20.2002   34.4607 C   0  0  0  0  0  0  0  0  0  0  0  0
  -30.8099  -16.8961   21.8925 C   0  0  0  0  0  0  0  0  0  0  0  0
  -31.5545  -16.2997   25.2347 C   0  0  0  0  0  0  0  0  0  0  0  0
  -31.5774  -17.7416   24.7072 C   0  0  0  0  0  0  0  0  0  0  0  0
  -27.1150  -19.8916   23.7368 C   0  0  0  0  0  0  0  0  0  0  0  0
  -31.2815  -23.3718   30.6239 C   0  0  1  0  0  0  0  0  0  0  0  0
  -32.6500  -22.3806   34.0172 C   0  0  2  0  0  0  0  0  0  0  0  0
  -30.4209  -16.0158   26.2280 C   0  0  2  0  0  0  0  0  0  1  0  0
  -31.7386  -24.6893   29.9363 C   0  0  0  0  0  0  0  0  0  0  0  0
  -25.8582  -11.5455   20.2854 N   0  0  0  0  0  0  0  0  0  0  0  0
  -30.3145  -18.1467   23.9900 N   0  0  0  0  0  0  0  0  0  0  0  0
  -26.2350  -12.8289   20.1554 N   0  0  0  0  0  0  0  0  0  0  0  0
  -29.3411  -22.0220   29.8915 N   0  0  0  0  0  0  0  0  0  0  0  0
  -29.9711  -13.6089   20.3598 N   0  0  0  0  0  0  0  0  0  0  0  0
  -25.4689  -15.0567   20.4022 N   0  0  0  0  0  0  0  0  0  0  0  0
  -21.8852  -12.5836   21.6012 N   0  0  0  0  0  0  0  0  0  0  0  0
  -26.8534  -23.4833   28.1463 N   0  0  0  0  0  0  0  0  0  0  0  0
  -31.6396  -23.2789   32.0351 N   0  0  0  0  0  0  0  0  0  0  0  0
  -30.1444  -15.6740   21.4996 N   0  0  0  0  0  0  0  0  0  0  0  0
  -32.7301  -21.0337   34.6500 N   0  3  0  0  0  0  0  0  0  0  0  0
  -22.6606  -14.7231   21.3184 O   0  0  0  0  0  0  0  0  0  0  0  0
  -28.2174  -21.8097   27.2738 O   0  0  0  0  0  0  0  0  0  0  0  0
  -29.0414  -24.0092   31.0736 O   0  0  0  0  0  0  0  0  0  0  0  0
  -32.8765  -21.3256   31.8554 O   0  0  0  0  0  0  0  0  0  0  0  0
  -31.8779  -14.9194   20.2027 O   0  0  0  0  0  0  0  0  0  0  0  0
  -21.6120   -7.0206   21.7149 O   0  0  0  0  0  0  0  0  0  0  0  0
  -30.7859  -16.5165   27.5134 O   0  0  0  0  0  0  0  0  0  1  0  0
  -21.8591   -2.9429   18.0114 F   0  0  0  0  0  0  0  0  0  0  0  0
  -24.0182   -5.8053   21.1018 F   0  0  0  0  0  0  0  0  0  0  0  0
  1  2  1  0  0  0  0
  1  5  2  0  0  0  0
  2  6  2  0  0  0  0
  3  8  2  0  0  0  0
  3 16  1  0  0  0  0
  4  9  1  0  0  0  0
  4 16  2  0  0  0  0
  5 18  1  0  0  0  0
  6 20  1  0  0  0  0
  7 10  2  0  0  0  0
  7 19  1  0  0  0  0
  8 24  1  0  0  0  0
  9 24  2  0  0  0  0
 10 25  1  0  0  0  0
 11 12  2  0  0  0  0
 11 26  1  0  0  0  0
 12 27  1  0  0  0  0
 13 21  1  0  0  0  0
 13 25  2  0  0  0  0
 14 27  2  0  0  0  0
 14 28  1  0  0  0  0
 15 22  2  0  0  0  0
 15 67  1  0  0  0  0
 16 29  1  0  0  0  0
 17 29  1  0  0  0  0
 17 31  2  0  0  0  0
 17 32  1  0  0  0  0
 18 20  2  0  0  0  0
 18 37  1  0  0  0  0
 19 21  2  0  0  0  0
 19 38  1  0  0  0  0
 20 46  1  0  0  0  0
 21 39  1  0  0  0  0
 22 23  1  0  0  0  0
 22 61  1  0  0  0  0
 23 30  2  0  0  0  0
 23 49  1  0  0  0  0
 24 82  1  0  0  0  0
 25 83  1  0  0  0  0
 26 28  2  0  0  0  0
 26 82  1  0  0  0  0
 27 84  1  0  0  0  0
 28 85  1  0  0  0  0
 29 66  2  0  0  0  0
 30 58  1  0  0  0  0
 30 67  1  0  0  0  0
 31 68  1  0  0  0  0
 31 71  1  0  0  0  0
 32 72  1  0  0  0  0
 32 77  2  0  0  0  0
 33 47  1  0  0  0  0
 33 73  1  0  0  0  0
 33 78  2  0  0  0  0
 34 62  1  0  0  0  0
 34 69  1  0  0  0  0
 34 79  2  0  0  0  0
 35 63  1  0  0  0  0
 35 74  1  0  0  0  0
 35 80  2  0  0  0  0
 36 70  1  0  0  0  0
 36 75  1  0  0  0  0
 36 81  2  0  0  0  0
 37 40  1  0  0  0  0
 38 47  1  0  0  0  0
 39 69  1  0  0  0  0
 40 42  1  0  0  0  0
 41 43  1  0  0  0  0
 41 44  1  0  0  0  0
 42 46  1  0  0  0  0
 43 48  1  0  0  0  0
 44 70  1  0  0  0  0
 45 48  1  0  0  0  0
 45 70  1  0  0  0  0
 46 73  1  0  0  0  0
 47 69  1  0  0  0  0
 48 68  1  0  0  0  0
 50 61  1  0  0  0  0
 51 61  1  0  0  0  0
 52 63  1  0  0  0  0
 53 64  1  0  0  0  0
 54 65  1  0  0  0  0
 55 65  1  0  0  0  0
 56 65  1  0  0  0  0
 57 76  1  0  0  0  0
 58 75  1  0  0  0  0
 59 60  1  0  0  0  0
 59 64  1  0  0  0  0
 60 67  1  0  0  0  0
 62 65  1  0  0  0  0
 62 74  1  0  0  0  0
 63 76  1  0  0  0  0
 64 83  1  0  0  0  0
 66 68  1  0  0  0  0
M  CHG  1  76   1
M  ISO  4  36 100  64 101  75 100  83 101
M  END
> <Batch ID>
0095

> <Smiles>
CNC(C)C(=O)NC(C(=O)N1Cc2cc([101O:1][101CH:1](C)CCn3cc(C(C)C)c(C)c3C[100NH:0][100C:0](=O)N3CCCC(n4nc(-c5ccc(Oc6ccc(F)cc6F)cc5)c(C(N)=O)c4N)C3)ccc2CC1C(=O)NC1CCCc2ccccc21)C(C)(C)C

> <Shape>
0.155

> <Color>
0.196

> <Negative vol penalty>
0.000

$$$$

  -OEChem-04052319213D

 78 86  0     1  0  0  0  0  0999 V2000
  -19.1538  -28.5680   21.7147 C   0  0  0  0  0  0  0  0  0  0  0  0
  -20.1727  -27.7258   21.2812 C   0  0  0  0  0  0  0  0  0  0  0  0
  -23.1866   -9.7720   21.2313 C   0  0  0  0  0  0  0  0  0  0  0  0
  -23.9016  -10.5694   23.3969 C   0  0  0  0  0  0  0  0  0  0  0  0
  -18.5953  -28.3907   22.9798 C   0  0  0  0  0  0  0  0  0  0  0  0
  -20.6346  -26.7065   22.1131 C   0  0  0  0  0  0  0  0  0  0  0  0
  -22.6093  -21.1679   20.4016 C   0  0  0  0  0  0  0  0  0  0  0  0
  -22.4945   -8.7276   21.8443 C   0  0  0  0  0  0  0  0  0  0  0  0
  -23.2094   -9.5250   24.0100 C   0  0  0  0  0  0  0  0  0  0  0  0
  -23.8876  -20.6471   20.2053 C   0  0  0  0  0  0  0  0  0  0  0  0
  -23.2201   -5.7220   23.2096 C   0  0  0  0  0  0  0  0  0  0  0  0
  -23.3542   -4.4466   22.6611 C   0  0  0  0  0  0  0  0  0  0  0  0
  -23.8568  -19.7446   22.4422 C   0  0  0  0  0  0  0  0  0  0  0  0
  -20.9716   -4.3645   22.2694 C   0  0  0  0  0  0  0  0  0  0  0  0
  -23.8902  -10.6929   22.0076 C   0  0  0  0  0  0  0  0  0  0  0  0
  -24.1124  -13.0534   21.0661 C   0  0  0  0  0  0  0  0  0  0  0  0
  -19.0440  -27.3627   23.8239 C   0  0  0  0  0  0  0  0  0  0  0  0
  -21.9484  -20.9899   21.6255 C   0  0  0  0  0  0  0  0  0  0  0  0
  -20.0826  -26.5162   23.3913 C   0  0  0  0  0  0  0  0  0  0  0  0
  -22.5691  -20.2619   22.6506 C   0  0  0  0  0  0  0  0  0  0  0  0
  -22.5059   -8.6042   23.2337 C   0  0  0  0  0  0  0  0  0  0  0  0
  -24.5128  -19.9379   21.2267 C   0  0  0  0  0  0  0  0  0  0  0  0
  -21.9618   -6.3187   23.2881 C   0  0  0  0  0  0  0  0  0  0  0  0
  -22.2300   -3.7679   22.1909 C   0  0  0  0  0  0  0  0  0  0  0  0
  -20.8375   -5.6400   22.8180 C   0  0  0  0  0  0  0  0  0  0  0  0
  -24.6059  -11.7716   21.3749 C   0  0  0  0  0  0  0  0  0  0  0  0
  -25.1739  -13.6978   20.4793 C   0  0  0  0  0  0  0  0  0  0  0  0
  -22.8109  -13.6116   21.2898 C   0  0  0  0  0  0  0  0  0  0  0  0
  -20.8528  -22.9366   23.8869 C   0  0  0  0  0  0  0  0  0  0  0  0
  -19.6544  -20.1886   25.1259 C   0  0  0  0  0  0  0  0  0  0  0  0
  -19.8438  -16.7888   25.3539 C   0  0  0  0  0  0  0  0  0  0  0  0
  -30.5977  -15.0042   20.3344 C   0  0  0  0  0  0  0  0  0  0  0  0
  -18.4422  -27.2399   25.2014 C   0  0  0  0  0  0  0  0  0  0  0  0
  -20.5590  -21.5350   21.8120 C   0  0  0  0  0  0  0  0  0  0  0  0
  -21.8942  -20.0256   23.9761 C   0  0  0  0  0  0  0  0  0  0  0  0
  -18.7307  -25.9007   25.8749 C   0  0  0  0  0  0  0  0  0  0  0  0
  -29.6216  -11.9138   18.8601 C   0  0  0  0  0  0  0  0  0  0  0  0
  -20.2051  -25.5372   25.7306 C   0  0  0  0  0  0  0  0  0  0  0  0
  -28.1920  -11.7043   19.3624 C   0  0  0  0  0  0  0  0  0  0  0  0
  -30.3010  -19.8144   19.9253 C   0  0  0  0  0  0  0  0  0  0  0  0
  -29.0682  -20.6570   19.7082 C   0  0  0  0  0  0  0  0  0  0  0  0
  -30.5041  -12.5630   19.9239 C   0  0  0  0  0  0  0  0  0  0  0  0
  -28.5435  -13.6088   20.9897 C   0  0  0  0  0  0  0  0  0  0  0  0
  -20.5935  -25.3836   24.2551 C   0  0  1  0  0  0  0  0  0  0  0  0
  -20.1873  -21.7348   23.2780 C   0  0  1  0  0  0  0  0  0  0  0  0
  -27.6013  -13.0079   19.9325 C   0  0  2  0  0  0  0  0  0  0  0  0
  -29.7067  -18.4170   19.9846 C   0  0  1  0  0  0  0  0  0  0  0  0
  -28.0583  -19.9513   20.5977 C   0  0  1  0  0  0  0  0  0  0  0  0
  -18.7522  -14.8257   26.4728 C   0  0  0  0  0  0  0  0  0  0  0  0
  -21.0508  -20.9065   27.7422 C   0  0  0  0  0  0  0  0  0  0  0  0
  -20.7374  -18.5344   28.4793 C   0  0  0  0  0  0  0  0  0  0  0  0
  -18.7490  -19.9664   28.0120 C   0  0  0  0  0  0  0  0  0  0  0  0
  -19.0790  -15.5875   22.7595 C   0  0  0  0  0  0  0  0  0  0  0  0
  -30.5366  -17.4417   20.7970 C   0  0  0  0  0  0  0  0  0  0  0  0
  -26.6223  -20.1358   20.1466 C   0  0  0  0  0  0  0  0  0  1  0  0
  -20.1605  -19.1382   26.0848 C   0  0  1  0  0  0  0  0  0  0  0  0
  -18.7816  -15.7106   25.2364 C   0  0  2  0  0  0  0  0  0  0  0  0
  -20.1882  -19.6423   27.5554 C   0  0  0  0  0  0  0  0  0  0  0  0
  -25.8816  -11.6095   21.0139 N   0  0  0  0  0  0  0  0  0  0  0  0
  -26.1987  -12.7978   20.4722 N   0  0  0  0  0  0  0  0  0  0  0  0
  -20.5387  -20.5838   24.1121 N   0  0  0  0  0  0  0  0  0  0  0  0
  -29.8880  -13.7952   20.4221 N   0  0  0  0  0  0  0  0  0  0  0  0
  -25.3214  -14.9408   19.9737 N   0  0  0  0  0  0  0  0  0  0  0  0
  -21.8376  -12.8121   21.9047 N   0  0  0  0  0  0  0  0  0  0  0  0
  -20.1369  -24.1096   23.7423 N   0  0  0  0  0  0  0  0  0  0  0  0
  -19.3295  -17.9580   25.8732 N   0  0  0  0  0  0  0  0  0  0  0  0
  -29.9387  -16.1254   20.8236 N   0  0  0  0  0  0  0  0  0  0  0  0
  -19.0461  -14.8501   24.0488 N   0  3  0  0  0  0  0  0  0  0  0  0
  -22.5146  -14.7791   20.9395 O   0  0  0  0  0  0  0  0  0  0  0  0
  -21.9348  -22.8087   24.4477 O   0  0  0  0  0  0  0  0  0  0  0  0
  -18.5137  -20.6367   25.2667 O   0  0  0  0  0  0  0  0  0  0  0  0
  -21.0136  -16.6104   25.0220 O   0  0  0  0  0  0  0  0  0  0  0  0
  -31.7323  -15.0798   19.8507 O   0  0  0  0  0  0  0  0  0  0  0  0
  -28.4015  -18.5547   20.5732 O   0  0  0  0  0  0  0  0  0  0  0  0
  -21.8304   -7.5853   23.8322 O   0  0  0  0  0  0  0  0  0  0  0  0
  -25.7607  -19.4291   21.0381 O   0  0  0  0  0  0  0  0  0  1  0  0
  -22.3591   -2.5437   21.6628 F   0  0  0  0  0  0  0  0  0  0  0  0
  -19.6261   -6.2086   22.8896 F   0  0  0  0  0  0  0  0  0  0  0  0
  1  2  1  0  0  0  0
  1  5  2  0  0  0  0
  2  6  2  0  0  0  0
  3  8  2  0  0  0  0
  3 15  1  0  0  0  0
  4  9  1  0  0  0  0
  4 15  2  0  0  0  0
  5 17  1  0  0  0  0
  6 19  1  0  0  0  0
  7 10  2  0  0  0  0
  7 18  1  0  0  0  0
  8 21  1  0  0  0  0
  9 21  2  0  0  0  0
 10 22  1  0  0  0  0
 11 12  2  0  0  0  0
 11 23  1  0  0  0  0
 12 24  1  0  0  0  0
 13 20  1  0  0  0  0
 13 22  2  0  0  0  0
 14 24  2  0  0  0  0
 14 25  1  0  0  0  0
 15 26  1  0  0  0  0
 16 26  1  0  0  0  0
 16 27  2  0  0  0  0
 16 28  1  0  0  0  0
 17 19  2  0  0  0  0
 17 33  1  0  0  0  0
 18 20  2  0  0  0  0
 18 34  1  0  0  0  0
 19 44  1  0  0  0  0
 20 35  1  0  0  0  0
 21 75  1  0  0  0  0
 22 76  1  0  0  0  0
 23 25  2  0  0  0  0
 23 75  1  0  0  0  0
 24 77  1  0  0  0  0
 25 78  1  0  0  0  0
 26 59  2  0  0  0  0
 27 60  1  0  0  0  0
 27 63  1  0  0  0  0
 28 64  1  0  0  0  0
 28 69  2  0  0  0  0
 29 45  1  0  0  0  0
 29 65  1  0  0  0  0
 29 70  2  0  0  0  0
 30 56  1  0  0  0  0
 30 61  1  0  0  0  0
 30 71  2  0  0  0  0
 31 57  1  0  0  0  0
 31 66  1  0  0  0  0
 31 72  2  0  0  0  0
 32 62  1  0  0  0  0
 32 67  1  0  0  0  0
 32 73  2  0  0  0  0
 33 36  1  0  0  0  0
 34 45  1  0  0  0  0
 35 61  1  0  0  0  0
 36 38  1  0  0  0  0
 37 39  1  0  0  0  0
 37 42  1  0  0  0  0
 38 44  1  0  0  0  0
 39 46  1  0  0  0  0
 40 41  1  0  0  0  0
 40 47  1  0  0  0  0
 41 48  1  0  0  0  0
 42 62  1  0  0  0  0
 43 46  1  0  0  0  0
 43 62  1  0  0  0  0
 44 65  1  0  0  0  0
 45 61  1  0  0  0  0
 46 60  1  0  0  0  0
 47 54  1  0  0  0  0
 47 74  1  0  0  0  0
 48 55  1  0  0  0  0
 48 74  1  0  0  0  0
 49 57  1  0  0  0  0
 50 58  1  0  0  0  0
 51 58  1  0  0  0  0
 52 58  1  0  0  0  0
 53 68  1  0  0  0  0
 54 67  1  0  0  0  0
 55 76  1  0  0  0  0
 56 58  1  0  0  0  0
 56 66  1  0  0  0  0
 57 68  1  0  0  0  0
 59 60  1  0  0  0  0
M  CHG  1  68   1
M  ISO  4  32 100  55 101  67 100  76 101
M  END
> <Batch ID>
0095

> <Smiles>
CNC(C)C(=O)NC(C(=O)N1Cc2cc([101O:1][101CH2:1]C3CCC(C[100NH:0][100C:0](=O)N4CCCC(n5nc(-c6ccc(Oc7ccc(F)cc7F)cc6)c(C(N)=O)c5N)C4)O3)ccc2CC1C(=O)NC1CCCc2ccccc21)C(C)(C)C

> <Shape>
0.220

> <Color>
0.177

> <Negative vol penalty>
0.000

$$$$

  -OEChem-04052319213D

 91 99  0     1  0  0  0  0  0999 V2000
  -24.1183  -27.9306   23.3165 C   0  0  0  0  0  0  0  0  0  0  0  0
  -24.0567  -26.5409   23.3376 C   0  0  0  0  0  0  0  0  0  0  0  0
  -28.4726  -22.9691   20.3251 C   0  0  0  0  0  0  0  0  0  0  0  0
  -30.0347  -22.2063   18.6472 C   0  0  0  0  0  0  0  0  0  0  0  0
  -22.9901  -28.6720   22.9680 C   0  0  0  0  0  0  0  0  0  0  0  0
  -22.8665  -25.8919   23.0114 C   0  0  0  0  0  0  0  0  0  0  0  0
  -23.5870  -21.9588   19.9039 C   0  0  0  0  0  0  0  0  0  0  0  0
  -29.0444  -24.2405   20.2795 C   0  0  0  0  0  0  0  0  0  0  0  0
  -30.6065  -23.4778   18.6016 C   0  0  0  0  0  0  0  0  0  0  0  0
  -24.0666  -20.7788   20.4709 C   0  0  0  0  0  0  0  0  0  0  0  0
  -28.9128  -26.9606   18.2753 C   0  0  0  0  0  0  0  0  0  0  0  0
  -28.0521  -28.0572   18.2307 C   0  0  0  0  0  0  0  0  0  0  0  0
  -21.8270  -19.8826   20.4856 C   0  0  0  0  0  0  0  0  0  0  0  0
  -25.0807  -13.5830   19.5832 C   0  0  0  0  0  0  0  0  0  0  0  0
  -28.9957  -28.8818   20.2963 C   0  0  0  0  0  0  0  0  0  0  0  0
  -28.9678  -21.9519   19.5090 C   0  0  0  0  0  0  0  0  0  0  0  0
  -27.3076  -20.1585   18.7774 C   0  0  0  0  0  0  0  0  0  0  0  0
  -21.7882  -28.0315   22.6280 C   0  0  0  0  0  0  0  0  0  0  0  0
  -22.2199  -22.1139   19.6331 C   0  0  0  0  0  0  0  0  0  0  0  0
  -21.7207  -26.6255   22.6594 C   0  0  0  0  0  0  0  0  0  0  0  0
  -21.3329  -21.0645   19.9127 C   0  0  0  0  0  0  0  0  0  0  0  0
  -24.2445  -13.7236   20.6852 C   0  0  0  0  0  0  0  0  0  0  0  0
  -24.3163  -12.8056   21.7270 C   0  0  0  0  0  0  0  0  0  0  0  0
  -30.1113  -24.4949   19.4178 C   0  0  0  0  0  0  0  0  0  0  0  0
  -23.1861  -19.7416   20.7645 C   0  0  0  0  0  0  0  0  0  0  0  0
  -29.8150  -26.8244   19.3304 C   0  0  0  0  0  0  0  0  0  0  0  0
  -28.0935  -29.0179   19.2412 C   0  0  0  0  0  0  0  0  0  0  0  0
  -29.8564  -27.7851   20.3409 C   0  0  0  0  0  0  0  0  0  0  0  0
  -28.3779  -20.6382   19.5560 C   0  0  0  0  0  0  0  0  0  0  0  0
  -25.9641  -12.5156   19.5714 C   0  0  0  0  0  0  0  0  0  0  0  0
  -25.2338  -11.7729   21.6192 C   0  0  0  0  0  0  0  0  0  0  0  0
  -27.1296  -18.8636   19.1991 C   0  0  0  0  0  0  0  0  0  0  0  0
  -26.5428  -20.8240   17.7635 C   0  0  0  0  0  0  0  0  0  0  0  0
  -19.9448  -24.0939   20.6370 C   0  0  0  0  0  0  0  0  0  0  0  0
  -18.1742  -22.5808   18.3792 C   0  0  0  0  0  0  0  0  0  0  0  0
  -17.6811  -19.7952   16.4702 C   0  0  0  0  0  0  0  0  0  0  0  0
  -29.2020  -13.8877   20.6453 C   0  0  0  0  0  0  0  0  0  0  0  0
  -20.5817  -28.8765   22.3039 C   0  0  0  0  0  0  0  0  0  0  0  0
  -21.7223  -23.3827   18.9966 C   0  0  0  0  0  0  0  0  0  0  0  0
  -19.8590  -21.1733   19.6225 C   0  0  0  0  0  0  0  0  0  0  0  0
  -19.4650  -28.1024   21.6083 C   0  0  0  0  0  0  0  0  0  0  0  0
  -29.0681  -16.3974   23.1673 C   0  0  0  0  0  0  0  0  0  0  0  0
  -19.2092  -26.7782   22.3209 C   0  0  0  0  0  0  0  0  0  0  0  0
  -28.7947  -17.6850   22.3879 C   0  0  0  0  0  0  0  0  0  0  0  0
  -29.9887  -15.4549   22.3951 C   0  0  0  0  0  0  0  0  0  0  0  0
  -29.2682  -16.4241   20.2467 C   0  0  0  0  0  0  0  0  0  0  0  0
  -20.4548  -25.8843   22.2878 C   0  0  1  0  0  0  0  0  0  0  0  0
  -20.2363  -23.6294   19.2381 C   0  0  1  0  0  0  0  0  0  0  0  0
  -28.2995  -17.3822   20.9609 C   0  0  2  0  0  0  0  0  0  0  0  0
  -22.2711  -11.9439   22.8936 C   0  0  0  0  0  0  0  0  0  0  0  0
  -26.7527  -10.7639   23.3594 C   0  0  0  0  0  0  0  0  0  0  0  0
  -25.0121   -9.3362   22.2250 C   0  0  0  0  0  0  0  0  0  0  0  0
  -16.1291  -18.8381   14.7461 C   0  0  0  0  0  0  0  0  0  0  0  0
  -25.1985   -9.4352   16.3254 C   0  0  0  0  0  0  0  0  0  0  0  0
  -24.9314  -11.9034   16.0233 C   0  0  0  0  0  0  0  0  0  0  0  0
  -16.1066  -22.0240   20.5530 C   0  0  0  0  0  0  0  0  0  0  0  0
  -15.0893  -20.3020   19.0470 C   0  0  0  0  0  0  0  0  0  0  0  0
  -15.1436  -22.6950   18.3446 C   0  0  0  0  0  0  0  0  0  0  0  0
  -19.8501  -19.5817   14.4680 C   0  0  0  0  0  0  0  0  0  0  0  0
  -23.2708  -14.8742   20.7243 C   0  0  0  0  0  0  0  0  0  0  0  0
  -23.4335  -12.9327   22.9228 C   0  0  0  0  0  0  0  0  0  0  0  0
  -23.9197  -16.2191   21.0586 C   0  0  0  0  0  0  0  0  0  0  0  0
  -26.6660  -10.9816   17.6575 C   0  0  0  0  0  0  0  0  0  0  0  0
  -28.3754  -12.4475   18.8010 C   0  0  0  0  0  0  0  0  0  0  0  0
  -22.9434  -17.3888   21.0118 C   0  0  0  0  0  0  0  0  0  1  0  0
  -26.8776  -12.3341   18.4055 C   0  0  2  0  0  0  0  0  0  0  0  0
  -25.3583  -10.7567   22.7070 C   0  0  0  0  0  0  0  0  0  0  0  0
  -17.2893  -21.3578   18.3568 C   0  0  1  0  0  0  0  0  0  0  0  0
  -17.4072  -19.6263   14.9867 C   0  0  2  0  0  0  0  0  0  0  0  0
  -25.2699  -10.7968   17.0233 C   0  0  0  0  0  0  0  0  0  0  0  0
  -15.9346  -21.5931   19.0827 C   0  0  0  0  0  0  0  0  0  0  0  0
  -28.8466  -19.7226   20.4080 N   0  0  0  0  0  0  0  0  0  0  0  0
  -26.0626  -11.6037   20.5646 N   0  0  0  0  0  0  0  0  0  0  0  0
  -28.0672  -18.6546   20.1672 N   0  0  0  0  0  0  0  0  0  0  0  0
  -19.4201  -22.4360   19.0057 N   0  0  0  0  0  0  0  0  0  0  0  0
  -29.4615  -15.2073   21.0509 N   0  0  0  0  0  0  0  0  0  0  0  0
  -26.2639  -17.8947   18.8326 N   0  0  0  0  0  0  0  0  0  0  0  0
  -26.8583  -22.1539   17.4536 N   0  0  0  0  0  0  0  0  0  0  0  0
  -20.5952  -25.2611   20.9892 N   0  0  0  0  0  0  0  0  0  0  0  0
  -17.1576  -20.9750   16.9552 N   0  0  0  0  0  0  0  0  0  0  0  0
  -28.6979  -13.7420   19.3588 N   0  0  0  0  0  0  0  0  0  0  0  0
  -18.5345  -18.9054   14.3306 N   0  3  0  0  0  0  0  0  0  0  0  0
  -25.5968  -20.2613   17.1620 O   0  0  0  0  0  0  0  0  0  0  0  0
  -19.1849  -23.4424   21.3440 O   0  0  0  0  0  0  0  0  0  0  0  0
  -17.7775  -23.6240   17.8539 O   0  0  0  0  0  0  0  0  0  0  0  0
  -18.2946  -18.9620   17.1334 O   0  0  0  0  0  0  0  0  0  0  0  0
  -29.3996  -12.9122   21.3776 O   0  0  0  0  0  0  0  0  0  0  0  0
  -30.6694  -25.7355   19.3728 O   0  0  0  0  0  0  0  0  0  0  0  0
  -23.6515  -18.5891   21.3186 O   0  0  0  0  0  0  0  0  0  1  0  0
  -27.2680  -30.0718   19.1975 F   0  0  0  0  0  0  0  0  0  0  0  0
  -30.7218  -27.6603   21.3565 F   0  0  0  0  0  0  0  0  0  0  0  0
  1  2  1  0  0  0  0
  1  5  2  0  0  0  0
  2  6  2  0  0  0  0
  3  8  2  0  0  0  0
  3 16  1  0  0  0  0
  4  9  1  0  0  0  0
  4 16  2  0  0  0  0
  5 18  1  0  0  0  0
  6 20  1  0  0  0  0
  7 10  2  0  0  0  0
  7 19  1  0  0  0  0
  8 24  1  0  0  0  0
  9 24  2  0  0  0  0
 10 25  1  0  0  0  0
 11 12  2  0  0  0  0
 11 26  1  0  0  0  0
 12 27  1  0  0  0  0
 13 21  1  0  0  0  0
 13 25  2  0  0  0  0
 14 22  2  0  0  0  0
 14 30  1  0  0  0  0
 15 27  2  0  0  0  0
 15 28  1  0  0  0  0
 16 29  1  0  0  0  0
 17 29  1  0  0  0  0
 17 32  2  0  0  0  0
 17 33  1  0  0  0  0
 18 20  2  0  0  0  0
 18 38  1  0  0  0  0
 19 21  2  0  0  0  0
 19 39  1  0  0  0  0
 20 47  1  0  0  0  0
 21 40  1  0  0  0  0
 22 23  1  0  0  0  0
 22 60  1  0  0  0  0
 23 31  2  0  0  0  0
 23 61  1  0  0  0  0
 24 88  1  0  0  0  0
 25 89  1  0  0  0  0
 26 28  2  0  0  0  0
 26 88  1  0  0  0  0
 27 90  1  0  0  0  0
 28 91  1  0  0  0  0
 29 72  2  0  0  0  0
 30 66  1  0  0  0  0
 30 73  2  0  0  0  0
 31 67  1  0  0  0  0
 31 73  1  0  0  0  0
 32 74  1  0  0  0  0
 32 77  1  0  0  0  0
 33 78  1  0  0  0  0
 33 83  2  0  0  0  0
 34 48  1  0  0  0  0
 34 79  1  0  0  0  0
 34 84  2  0  0  0  0
 35 68  1  0  0  0  0
 35 75  1  0  0  0  0
 35 85  2  0  0  0  0
 36 69  1  0  0  0  0
 36 80  1  0  0  0  0
 36 86  2  0  0  0  0
 37 76  1  0  0  0  0
 37 81  1  0  0  0  0
 37 87  2  0  0  0  0
 38 41  1  0  0  0  0
 39 48  1  0  0  0  0
 40 75  1  0  0  0  0
 41 43  1  0  0  0  0
 42 44  1  0  0  0  0
 42 45  1  0  0  0  0
 43 47  1  0  0  0  0
 44 49  1  0  0  0  0
 45 76  1  0  0  0  0
 46 49  1  0  0  0  0
 46 76  1  0  0  0  0
 47 79  1  0  0  0  0
 48 75  1  0  0  0  0
 49 74  1  0  0  0  0
 50 61  1  0  0  0  0
 51 67  1  0  0  0  0
 52 67  1  0  0  0  0
 53 69  1  0  0  0  0
 54 70  1  0  0  0  0
 55 70  1  0  0  0  0
 56 71  1  0  0  0  0
 57 71  1  0  0  0  0
 58 71  1  0  0  0  0
 59 82  1  0  0  0  0
 60 62  1  0  0  0  0
 62 65  1  0  0  0  0
 63 66  1  0  0  0  0
 63 70  1  0  0  0  0
 64 66  1  0  0  0  0
 64 81  1  0  0  0  0
 65 89  1  0  0  0  0
 68 71  1  0  0  0  0
 68 80  1  0  0  0  0
 69 82  1  0  0  0  0
 72 74  1  0  0  0  0
M  CHG  1  82   1
M  ISO  4  37 100  65 101  81 100  89 101
M  END
> <Batch ID>
0095

> <Smiles>
CCc1c(CC[101CH2:1][101O:1]c2ccc3c(c2)CN(C(=O)C(NC(=O)C(C)NC)C(C)(C)C)C(C(=O)NC2CCCc4ccccc42)C3)cc(C(C[100NH:0][100C:0](=O)N2CCCC(n3nc(-c4ccc(Oc5ccc(F)cc5F)cc4)c(C(N)=O)c3N)C2)CC(C)C)nc1C(C)C

> <Shape>
0.229

> <Color>
0.062

> <Negative vol penalty>
0.000

$$$$

  -OEChem-04052319213D

 84 92  0     1  0  0  0  0  0999 V2000
  -30.3047  -24.6577   18.4309 C   0  0  0  0  0  0  0  0  0  0  0  0
  -28.9158  -24.7331   18.4527 C   0  0  0  0  0  0  0  0  0  0  0  0
  -23.2080  -14.3623   20.4818 C   0  0  0  0  0  0  0  0  0  0  0  0
  -25.2858  -14.9523   21.5643 C   0  0  0  0  0  0  0  0  0  0  0  0
  -31.0487  -25.2226   19.4660 C   0  0  0  0  0  0  0  0  0  0  0  0
  -28.2699  -25.3726   19.5103 C   0  0  0  0  0  0  0  0  0  0  0  0
  -23.1023  -28.6470   19.2285 C   0  0  0  0  0  0  0  0  0  0  0  0
  -23.6808  -13.0655   20.2811 C   0  0  0  0  0  0  0  0  0  0  0  0
  -25.7586  -13.6554   21.3636 C   0  0  0  0  0  0  0  0  0  0  0  0
  -21.7748  -28.3311   19.5146 C   0  0  0  0  0  0  0  0  0  0  0  0
  -24.2014   -9.4993   19.8053 C   0  0  0  0  0  0  0  0  0  0  0  0
  -23.3367   -8.4425   20.0897 C   0  0  0  0  0  0  0  0  0  0  0  0
  -22.0339  -29.2687   21.7221 C   0  0  0  0  0  0  0  0  0  0  0  0
  -23.1880   -9.1820   22.3850 C   0  0  0  0  0  0  0  0  0  0  0  0
  -24.0106  -15.3058   21.1234 C   0  0  0  0  0  0  0  0  0  0  0  0
  -22.8070  -17.1274   22.4428 C   0  0  0  0  0  0  0  0  0  0  0  0
  -30.4120  -25.8777   20.5319 C   0  0  0  0  0  0  0  0  0  0  0  0
  -23.9100  -29.2674   20.1924 C   0  0  0  0  0  0  0  0  0  0  0  0
  -29.0060  -25.9456   20.5612 C   0  0  0  0  0  0  0  0  0  0  0  0
  -23.3705  -29.5938   21.4448 C   0  0  0  0  0  0  0  0  0  0  0  0
  -24.9561  -12.7120   20.7220 C   0  0  0  0  0  0  0  0  0  0  0  0
  -21.2413  -28.6393   20.7626 C   0  0  0  0  0  0  0  0  0  0  0  0
  -24.5596  -10.3975   20.8107 C   0  0  0  0  0  0  0  0  0  0  0  0
  -22.8299   -8.2839   21.3796 C   0  0  0  0  0  0  0  0  0  0  0  0
  -24.0528  -10.2388   22.1005 C   0  0  0  0  0  0  0  0  0  0  0  0
  -23.5230  -16.6457   21.3305 C   0  0  0  0  0  0  0  0  0  0  0  0
  -22.5803  -18.4517   22.1580 C   0  0  0  0  0  0  0  0  0  0  0  0
  -22.3847  -16.4392   23.6276 C   0  0  0  0  0  0  0  0  0  0  0  0
  -26.5810  -28.4791   21.7247 C   0  0  0  0  0  0  0  0  0  0  0  0
  -26.3631  -31.5105   22.8585 C   0  0  0  0  0  0  0  0  0  0  0  0
  -24.3914  -34.2052   23.5638 C   0  0  0  0  0  0  0  0  0  0  0  0
  -24.3599  -23.4036   20.2985 C   0  0  0  0  0  0  0  0  0  0  0  0
  -31.2565  -26.4317   21.6519 C   0  0  0  0  0  0  0  0  0  0  0  0
  -25.3322  -29.6258   19.8588 C   0  0  0  0  0  0  0  0  0  0  0  0
  -24.1899  -30.2781   22.5073 C   0  0  0  0  0  0  0  0  0  0  0  0
  -30.5108  -27.4189   22.5461 C   0  0  0  0  0  0  0  0  0  0  0  0
  -18.5534  -22.9097   23.3270 C   0  0  0  0  0  0  0  0  0  0  0  0
  -23.2329  -21.0557   17.8708 C   0  0  0  0  0  0  0  0  0  0  0  0
  -19.4454  -22.8803   24.5616 C   0  0  0  0  0  0  0  0  0  0  0  0
  -29.1396  -26.8669   22.9232 C   0  0  0  0  0  0  0  0  0  0  0  0
  -23.1550  -19.7384   18.6445 C   0  0  0  0  0  0  0  0  0  0  0  0
  -19.2688  -23.5439   22.1388 C   0  0  0  0  0  0  0  0  0  0  0  0
  -24.4161  -21.9078   18.3248 C   0  0  0  0  0  0  0  0  0  0  0  0
  -24.3954  -20.8478   20.5496 C   0  0  0  0  0  0  0  0  0  0  0  0
  -19.9881  -24.2593   24.9024 C   0  0  0  0  0  0  0  0  0  0  0  0
  -28.2699  -26.6525   21.6786 C   0  0  1  0  0  0  0  0  0  0  0  0
  -26.2120  -29.7920   21.0940 C   0  0  1  0  0  0  0  0  0  0  0  0
  -23.1853  -19.9790   20.1658 C   0  0  2  0  0  0  0  0  0  0  0  0
  -19.8484  -24.9272   22.4472 C   0  0  1  0  0  0  0  0  0  0  0  0
  -24.4919  -36.5236   24.5191 C   0  0  0  0  0  0  0  0  0  0  0  0
  -17.1620  -27.5797   21.4914 C   0  0  0  0  0  0  0  0  0  0  0  0
  -26.5711  -30.3409   25.6690 C   0  0  0  0  0  0  0  0  0  0  0  0
  -25.7252  -32.5209   26.5635 C   0  0  0  0  0  0  0  0  0  0  0  0
  -27.8823  -32.4406   25.3132 C   0  0  0  0  0  0  0  0  0  0  0  0
  -23.4403  -35.4135   21.0351 C   0  0  0  0  0  0  0  0  0  0  0  0
  -18.7789  -26.0098   22.5881 C   0  0  0  0  0  0  0  0  0  0  0  0
  -22.8662  -25.2597   22.6107 C   0  0  0  0  0  0  0  0  0  0  0  0
  -24.2897  -24.7691   22.3697 C   0  0  0  0  0  0  0  0  0  0  0  0
  -22.0652  -24.3013   23.4828 C   0  0  0  0  0  0  0  0  0  0  0  0
  -19.3921  -27.1910   20.3899 C   0  0  0  0  0  0  0  0  0  1  0  0
  -25.7083  -32.1606   24.0533 C   0  0  1  0  0  0  0  0  0  0  0  0
  -24.5555  -35.6822   23.2539 C   0  0  2  0  0  0  0  0  0  0  0  0
  -18.2796  -26.5612   21.2386 C   0  0  2  0  0  0  0  0  0  0  0  0
  -26.4565  -31.8511   25.3806 C   0  0  0  0  0  0  0  0  0  0  0  0
  -23.7369  -17.5874   20.4078 N   0  0  0  0  0  0  0  0  0  0  0  0
  -23.1518  -18.6741   20.9397 N   0  0  0  0  0  0  0  0  0  0  0  0
  -25.5769  -30.6024   22.1353 N   0  0  0  0  0  0  0  0  0  0  0  0
  -24.3852  -22.0997   19.7767 N   0  0  0  0  0  0  0  0  0  0  0  0
  -21.9499  -19.4361   22.8332 N   0  0  0  0  0  0  0  0  0  0  0  0
  -22.7009  -15.0802   23.7595 N   0  0  0  0  0  0  0  0  0  0  0  0
  -27.7336  -27.9137   21.2134 N   0  0  0  0  0  0  0  0  0  0  0  0
  -25.6086  -33.5821   23.7410 N   0  0  0  0  0  0  0  0  0  0  0  0
  -24.3249  -23.4963   21.6845 N   0  0  0  0  0  0  0  0  0  0  0  0
  -20.6905  -24.8786   23.7147 N   0  3  2  0  0  0  0  0  0  0  0  0
  -23.4795  -36.1403   22.3302 N   0  3  0  0  0  0  0  0  0  0  0  0
  -21.7315  -17.0083   24.5347 O   0  0  0  0  0  0  0  0  0  0  0  0
  -25.8734  -28.0143   22.6106 O   0  0  0  0  0  0  0  0  0  0  0  0
  -27.5270  -31.8032   22.5731 O   0  0  0  0  0  0  0  0  0  0  0  0
  -23.2930  -33.6596   23.6447 O   0  0  0  0  0  0  0  0  0  0  0  0
  -24.3625  -24.4105   19.5822 O   0  0  0  0  0  0  0  0  0  0  0  0
  -25.4176  -11.4466   20.5265 O   0  0  0  0  0  0  0  0  0  0  0  0
  -19.9461  -28.3314   21.0448 O   0  0  0  0  0  0  0  0  0  1  0  0
  -21.9982   -7.2699   21.6522 F   0  0  0  0  0  0  0  0  0  0  0  0
  -24.3923  -11.0991   23.0703 F   0  0  0  0  0  0  0  0  0  0  0  0
  1  2  1  0  0  0  0
  1  5  2  0  0  0  0
  2  6  2  0  0  0  0
  3  8  2  0  0  0  0
  3 15  1  0  0  0  0
  4  9  1  0  0  0  0
  4 15  2  0  0  0  0
  5 17  1  0  0  0  0
  6 19  1  0  0  0  0
  7 10  2  0  0  0  0
  7 18  1  0  0  0  0
  8 21  1  0  0  0  0
  9 21  2  0  0  0  0
 10 22  1  0  0  0  0
 11 12  2  0  0  0  0
 11 23  1  0  0  0  0
 12 24  1  0  0  0  0
 13 20  1  0  0  0  0
 13 22  2  0  0  0  0
 14 24  2  0  0  0  0
 14 25  1  0  0  0  0
 15 26  1  0  0  0  0
 16 26  1  0  0  0  0
 16 27  2  0  0  0  0
 16 28  1  0  0  0  0
 17 19  2  0  0  0  0
 17 33  1  0  0  0  0
 18 20  2  0  0  0  0
 18 34  1  0  0  0  0
 19 46  1  0  0  0  0
 20 35  1  0  0  0  0
 21 81  1  0  0  0  0
 22 82  1  0  0  0  0
 23 25  2  0  0  0  0
 23 81  1  0  0  0  0
 24 83  1  0  0  0  0
 25 84  1  0  0  0  0
 26 65  2  0  0  0  0
 27 66  1  0  0  0  0
 27 69  1  0  0  0  0
 28 70  1  0  0  0  0
 28 76  2  0  0  0  0
 29 47  1  0  0  0  0
 29 71  1  0  0  0  0
 29 77  2  0  0  0  0
 30 61  1  0  0  0  0
 30 67  1  0  0  0  0
 30 78  2  0  0  0  0
 31 62  1  0  0  0  0
 31 72  1  0  0  0  0
 31 79  2  0  0  0  0
 32 68  1  0  0  0  0
 32 73  1  0  0  0  0
 32 80  2  0  0  0  0
 33 36  1  0  0  0  0
 34 47  1  0  0  0  0
 35 67  1  0  0  0  0
 36 40  1  0  0  0  0
 37 39  1  0  0  0  0
 37 42  1  0  0  0  0
 38 41  1  0  0  0  0
 38 43  1  0  0  0  0
 39 45  1  0  0  0  0
 40 46  1  0  0  0  0
 41 48  1  0  0  0  0
 42 49  1  0  0  0  0
 43 68  1  0  0  0  0
 44 48  1  0  0  0  0
 44 68  1  0  0  0  0
 45 74  1  0  0  0  0
 46 71  1  0  0  0  0
 47 67  1  0  0  0  0
 48 66  1  0  0  0  0
 49 56  1  0  0  0  0
 49 74  1  0  0  0  0
 50 62  1  0  0  0  0
 51 63  1  0  0  0  0
 52 64  1  0  0  0  0
 53 64  1  0  0  0  0
 54 64  1  0  0  0  0
 55 75  1  0  0  0  0
 56 63  1  0  0  0  0
 57 58  1  0  0  0  0
 57 59  1  0  0  0  0
 58 73  1  0  0  0  0
 59 74  1  0  0  0  0
 60 63  1  0  0  0  0
 60 82  1  0  0  0  0
 61 64  1  0  0  0  0
 61 72  1  0  0  0  0
 62 75  1  0  0  0  0
 65 66  1  0  0  0  0
M  CHG  2  74   1  75   1
M  ISO  4  32 100  60 101  73 100  82 101
M  END
> <Batch ID>
0095

> <Smiles>
CNC(C)C(=O)NC(C(=O)N1Cc2cc([101O:1][101CH2:1]C(C)CC3CCCCN3CCC[100NH:0][100C:0](=O)N3CCCC(n4nc(-c5ccc(Oc6ccc(F)cc6F)cc5)c(C(N)=O)c4N)C3)ccc2CC1C(=O)NC1CCCc2ccccc21)C(C)(C)C

> <Shape>
0.269

> <Color>
0.077

> <Negative vol penalty>
0.000

$$$$

  -OEChem-04052319213D

 88 96  0     1  0  0  0  0  0999 V2000
  -33.1930  -28.3452   20.5998 C   0  0  0  0  0  0  0  0  0  0  0  0
  -32.1925  -27.5134   20.1072 C   0  0  0  0  0  0  0  0  0  0  0  0
  -26.4201  -12.9791   21.8346 C   0  0  0  0  0  0  0  0  0  0  0  0
  -25.2050  -14.6028   20.5215 C   0  0  0  0  0  0  0  0  0  0  0  0
  -32.9975  -29.0369   21.7944 C   0  0  0  0  0  0  0  0  0  0  0  0
  -30.9962  -27.3722   20.8096 C   0  0  0  0  0  0  0  0  0  0  0  0
  -26.9341  -27.6052   17.7947 C   0  0  0  0  0  0  0  0  0  0  0  0
  -25.2707  -12.1945   21.9282 C   0  0  0  0  0  0  0  0  0  0  0  0
  -24.0555  -13.8181   20.6150 C   0  0  0  0  0  0  0  0  0  0  0  0
  -26.6251  -26.4655   17.0534 C   0  0  0  0  0  0  0  0  0  0  0  0
  -22.7516   -9.5885   22.2078 C   0  0  0  0  0  0  0  0  0  0  0  0
  -22.8843   -8.2162   21.9967 C   0  0  0  0  0  0  0  0  0  0  0  0
  -24.9326  -25.8806   18.6698 C   0  0  0  0  0  0  0  0  0  0  0  0
  -28.6023  -21.2419   17.4931 C   0  0  0  0  0  0  0  0  0  0  0  0
  -27.5322  -22.4585   19.2852 C   0  0  0  0  0  0  0  0  0  0  0  0
  -23.7104   -8.6390   19.7661 C   0  0  0  0  0  0  0  0  0  0  0  0
  -26.3873  -14.1833   21.1314 C   0  0  0  0  0  0  0  0  0  0  0  0
  -28.5673  -14.9329   20.0391 C   0  0  0  0  0  0  0  0  0  0  0  0
  -31.7944  -28.9116   22.5068 C   0  0  0  0  0  0  0  0  0  0  0  0
  -26.2509  -27.8858   18.9867 C   0  0  0  0  0  0  0  0  0  0  0  0
  -30.7849  -28.0619   22.0155 C   0  0  0  0  0  0  0  0  0  0  0  0
  -25.2330  -27.0258   19.4229 C   0  0  0  0  0  0  0  0  0  0  0  0
  -27.4568  -21.8055   18.0549 C   0  0  0  0  0  0  0  0  0  0  0  0
  -29.8234  -21.3313   18.1616 C   0  0  0  0  0  0  0  0  0  0  0  0
  -28.7532  -22.5479   19.9537 C   0  0  0  0  0  0  0  0  0  0  0  0
  -29.8988  -21.9843   19.3919 C   0  0  0  0  0  0  0  0  0  0  0  0
  -24.0884  -12.6140   21.3184 C   0  0  0  0  0  0  0  0  0  0  0  0
  -25.6262  -25.6015   17.4924 C   0  0  0  0  0  0  0  0  0  0  0  0
  -23.0983  -10.4862   21.1979 C   0  0  0  0  0  0  0  0  0  0  0  0
  -23.3637   -7.7414   20.7759 C   0  0  0  0  0  0  0  0  0  0  0  0
  -23.5777  -10.0114   19.9771 C   0  0  0  0  0  0  0  0  0  0  0  0
  -27.5741  -14.9946   21.0349 C   0  0  0  0  0  0  0  0  0  0  0  0
  -29.4730  -15.9015   20.3970 C   0  0  0  0  0  0  0  0  0  0  0  0
  -28.6627  -14.0767   18.8930 C   0  0  0  0  0  0  0  0  0  0  0  0
  -27.0919  -28.1812   22.0378 C   0  0  0  0  0  0  0  0  0  0  0  0
  -23.9982  -29.0875   22.3983 C   0  0  0  0  0  0  0  0  0  0  0  0
  -20.7960  -28.9942   21.2218 C   0  0  0  0  0  0  0  0  0  0  0  0
  -29.0111  -20.9215   23.6276 C   0  0  0  0  0  0  0  0  0  0  0  0
  -31.6475  -29.6426   23.8178 C   0  0  0  0  0  0  0  0  0  0  0  0
  -26.5778  -29.1334   19.7607 C   0  0  0  0  0  0  0  0  0  0  0  0
  -24.4561  -27.2927   20.6853 C   0  0  0  0  0  0  0  0  0  0  0  0
  -30.2046  -29.7292   24.3086 C   0  0  0  0  0  0  0  0  0  0  0  0
  -31.1992  -18.1791   24.2341 C   0  0  0  0  0  0  0  0  0  0  0  0
  -29.5196  -28.3711   24.1948 C   0  0  0  0  0  0  0  0  0  0  0  0
  -30.6079  -17.0464   23.3931 C   0  0  0  0  0  0  0  0  0  0  0  0
  -30.1092  -19.0609   24.8394 C   0  0  0  0  0  0  0  0  0  0  0  0
  -28.5475  -18.4677   23.0276 C   0  0  0  0  0  0  0  0  0  0  0  0
  -29.4637  -27.9019   22.7359 C   0  0  1  0  0  0  0  0  0  0  0  0
  -26.1707  -29.0497   21.2286 C   0  0  1  0  0  0  0  0  0  0  0  0
  -29.6095  -17.5845   22.3505 C   0  0  2  0  0  0  0  0  0  0  0  0
  -31.0355  -20.7203   17.5378 C   0  0  0  0  0  0  0  0  0  0  0  0
  -33.0633  -23.2990   22.1663 C   0  0  0  0  0  0  0  0  0  0  0  0
  -25.6943  -20.2425   17.1943 C   0  0  0  0  0  0  0  0  0  0  0  0
  -18.4786  -29.7980   21.7516 C   0  0  0  0  0  0  0  0  0  0  0  0
  -23.7568  -26.9547   24.5670 C   0  0  0  0  0  0  0  0  0  0  0  0
  -21.2675  -27.1457   24.3801 C   0  0  0  0  0  0  0  0  0  0  0  0
  -22.6174  -29.1166   25.0985 C   0  0  0  0  0  0  0  0  0  0  0  0
  -20.6310  -30.5394   18.7031 C   0  0  0  0  0  0  0  0  0  0  0  0
  -28.8073  -23.2526   21.2699 C   0  0  0  0  0  0  0  0  0  0  0  0
  -31.2082  -22.0803   20.1081 C   0  0  0  0  0  0  0  0  0  0  0  0
  -33.1919  -23.5558   20.6734 C   0  0  0  0  0  0  0  0  0  0  0  0
  -31.8360  -23.4753   19.9720 C   0  0  0  0  0  0  0  0  0  0  0  0
  -26.1428  -22.3887   15.9452 C   0  0  0  0  0  0  0  0  0  0  0  0
  -27.8454  -22.6745   22.3132 C   0  0  0  0  0  0  0  0  0  0  0  0
  -26.3798  -23.8943   16.0182 C   0  0  0  0  0  0  0  0  0  1  0  0
  -26.1270  -21.7076   17.3273 C   0  0  2  0  0  0  0  0  0  0  0  0
  -22.7006  -28.3709   22.6841 C   0  0  1  0  0  0  0  0  0  0  0  0
  -19.7703  -30.0920   21.0048 C   0  0  2  0  0  0  0  0  0  0  0  0
  -22.6014  -27.8907   24.1596 C   0  0  0  0  0  0  0  0  0  0  0  0
  -27.8251  -15.9284   21.9563 N   0  0  0  0  0  0  0  0  0  0  0  0
  -28.9863  -16.4623   21.5411 N   0  0  0  0  0  0  0  0  0  0  0  0
  -24.8170  -28.5221   21.4105 N   0  0  0  0  0  0  0  0  0  0  0  0
  -29.1970  -19.5397   23.7980 N   0  0  0  0  0  0  0  0  0  0  0  0
  -30.6303  -16.3195   19.8417 N   0  0  0  0  0  0  0  0  0  0  0  0
  -27.6457  -13.1375   18.6742 N   0  0  0  0  0  0  0  0  0  0  0  0
  -28.4109  -28.5929   22.0228 N   0  0  0  0  0  0  0  0  0  0  0  0
  -21.6342  -29.2802   22.2787 N   0  0  0  0  0  0  0  0  0  0  0  0
  -28.1347  -21.2901   22.6143 N   0  0  0  0  0  0  0  0  0  0  0  0
  -19.4545  -30.2265   19.5545 N   0  3  0  0  0  0  0  0  0  0  0  0
  -29.6297  -14.1315   18.0959 O   0  0  0  0  0  0  0  0  0  0  0  0
  -26.6393  -27.2104   22.6330 O   0  0  0  0  0  0  0  0  0  0  0  0
  -24.2718  -30.1152   23.0232 O   0  0  0  0  0  0  0  0  0  0  0  0
  -20.8461  -27.9824   20.5260 O   0  0  0  0  0  0  0  0  0  0  0  0
  -29.5877  -21.7645   24.3233 O   0  0  0  0  0  0  0  0  0  0  0  0
  -22.9667  -11.8484   21.4092 O   0  0  0  0  0  0  0  0  0  0  0  0
  -25.3230  -24.4880   16.7712 O   0  0  0  0  0  0  0  0  0  1  0  0
  -23.4926   -6.4235   20.5740 F   0  0  0  0  0  0  0  0  0  0  0  0
  -23.9134  -10.8690   19.0036 F   0  0  0  0  0  0  0  0  0  0  0  0
  1  2  1  0  0  0  0
  1  5  2  0  0  0  0
  2  6  2  0  0  0  0
  3  8  2  0  0  0  0
  3 17  1  0  0  0  0
  4  9  1  0  0  0  0
  4 17  2  0  0  0  0
  5 19  1  0  0  0  0
  6 21  1  0  0  0  0
  7 10  2  0  0  0  0
  7 20  1  0  0  0  0
  8 27  1  0  0  0  0
  9 27  2  0  0  0  0
 10 28  1  0  0  0  0
 11 12  2  0  0  0  0
 11 29  1  0  0  0  0
 12 30  1  0  0  0  0
 13 22  1  0  0  0  0
 13 28  2  0  0  0  0
 14 23  1  0  0  0  0
 14 24  2  0  0  0  0
 15 23  2  0  0  0  0
 15 25  1  0  0  0  0
 16 30  2  0  0  0  0
 16 31  1  0  0  0  0
 17 32  1  0  0  0  0
 18 32  1  0  0  0  0
 18 33  2  0  0  0  0
 18 34  1  0  0  0  0
 19 21  2  0  0  0  0
 19 39  1  0  0  0  0
 20 22  2  0  0  0  0
 20 40  1  0  0  0  0
 21 48  1  0  0  0  0
 22 41  1  0  0  0  0
 23 66  1  0  0  0  0
 24 26  1  0  0  0  0
 24 51  1  0  0  0  0
 25 26  2  0  0  0  0
 25 59  1  0  0  0  0
 26 60  1  0  0  0  0
 27 85  1  0  0  0  0
 28 86  1  0  0  0  0
 29 31  2  0  0  0  0
 29 85  1  0  0  0  0
 30 87  1  0  0  0  0
 31 88  1  0  0  0  0
 32 70  2  0  0  0  0
 33 71  1  0  0  0  0
 33 74  1  0  0  0  0
 34 75  1  0  0  0  0
 34 80  2  0  0  0  0
 35 49  1  0  0  0  0
 35 76  1  0  0  0  0
 35 81  2  0  0  0  0
 36 67  1  0  0  0  0
 36 72  1  0  0  0  0
 36 82  2  0  0  0  0
 37 68  1  0  0  0  0
 37 77  1  0  0  0  0
 37 83  2  0  0  0  0
 38 73  1  0  0  0  0
 38 78  1  0  0  0  0
 38 84  2  0  0  0  0
 39 42  1  0  0  0  0
 40 49  1  0  0  0  0
 41 72  1  0  0  0  0
 42 44  1  0  0  0  0
 43 45  1  0  0  0  0
 43 46  1  0  0  0  0
 44 48  1  0  0  0  0
 45 50  1  0  0  0  0
 46 73  1  0  0  0  0
 47 50  1  0  0  0  0
 47 73  1  0  0  0  0
 48 76  1  0  0  0  0
 49 72  1  0  0  0  0
 50 71  1  0  0  0  0
 52 61  1  0  0  0  0
 53 66  1  0  0  0  0
 54 68  1  0  0  0  0
 55 69  1  0  0  0  0
 56 69  1  0  0  0  0
 57 69  1  0  0  0  0
 58 79  1  0  0  0  0
 59 64  1  0  0  0  0
 60 62  1  0  0  0  0
 61 62  1  0  0  0  0
 63 65  1  0  0  0  0
 63 66  1  0  0  0  0
 64 78  1  0  0  0  0
 65 86  1  0  0  0  0
 67 69  1  0  0  0  0
 67 77  1  0  0  0  0
 68 79  1  0  0  0  0
 70 71  1  0  0  0  0
M  CHG  1  79   1
M  ISO  4  38 100  65 101  78 100  86 101
M  END
> <Batch ID>
0095

> <Smiles>
CCCCc1c(C)cc(C(C)C[101CH2:1][101O:1]c2ccc3c(c2)CN(C(=O)C(NC(=O)C(C)NC)C(C)(C)C)C(C(=O)NC2CCCc4ccccc42)C3)cc1CC[100NH:0][100C:0](=O)N1CCCC(n2nc(-c3ccc(Oc4ccc(F)cc4F)cc3)c(C(N)=O)c2N)C1

> <Shape>
0.217

> <Color>
0.063

> <Negative vol penalty>
0.000

$$$$

  -OEChem-04052319213D

 87 95  0     1  0  0  0  0  0999 V2000
  -20.4810  -22.7330   24.3865 C   0  0  0  0  0  0  0  0  0  0  0  0
  -21.7839  -23.1945   24.2366 C   0  0  0  0  0  0  0  0  0  0  0  0
  -23.0245  -10.4499   22.2775 C   0  0  0  0  0  0  0  0  0  0  0  0
  -22.7222  -10.2999   19.8852 C   0  0  0  0  0  0  0  0  0  0  0  0
  -19.4122  -23.5326   23.9872 C   0  0  0  0  0  0  0  0  0  0  0  0
  -22.0180  -24.4603   23.6984 C   0  0  0  0  0  0  0  0  0  0  0  0
  -26.6607  -26.0871   23.7497 C   0  0  0  0  0  0  0  0  0  0  0  0
  -22.6935   -9.1008   22.4039 C   0  0  0  0  0  0  0  0  0  0  0  0
  -22.3913   -8.9508   20.0116 C   0  0  0  0  0  0  0  0  0  0  0  0
  -27.6494  -25.5710   22.9132 C   0  0  0  0  0  0  0  0  0  0  0  0
  -24.2065   -6.1115   21.9477 C   0  0  0  0  0  0  0  0  0  0  0  0
  -25.0045   -5.3232   22.7768 C   0  0  0  0  0  0  0  0  0  0  0  0
  -27.4738  -27.5254   21.5100 C   0  0  0  0  0  0  0  0  0  0  0  0
  -23.0803   -4.8164   24.1471 C   0  0  0  0  0  0  0  0  0  0  0  0
  -25.6779  -20.3147   18.6092 C   0  0  0  0  0  0  0  0  0  0  0  0
  -25.1178  -21.7718   20.2148 C   0  0  0  0  0  0  0  0  0  0  0  0
  -23.0388  -11.0495   21.0181 C   0  0  0  0  0  0  0  0  0  0  0  0
  -24.6625  -12.9896   20.6905 C   0  0  0  0  0  0  0  0  0  0  0  0
  -19.6347  -24.8037   23.4324 C   0  0  0  0  0  0  0  0  0  0  0  0
  -26.0623  -27.3232   23.4661 C   0  0  0  0  0  0  0  0  0  0  0  0
  -20.9516  -25.2920   23.3115 C   0  0  0  0  0  0  0  0  0  0  0  0
  -26.4795  -28.0561   22.3459 C   0  0  0  0  0  0  0  0  0  0  0  0
  -24.5112  -19.8633   19.1855 C   0  0  0  0  0  0  0  0  0  0  0  0
  -24.1568  -20.7850   20.2014 C   0  0  0  0  0  0  0  0  0  0  0  0
  -22.3770   -8.3512   21.2710 C   0  0  0  0  0  0  0  0  0  0  0  0
  -28.0541  -26.2888   21.7915 C   0  0  0  0  0  0  0  0  0  0  0  0
  -22.8453   -6.2524   22.2184 C   0  0  0  0  0  0  0  0  0  0  0  0
  -24.4415   -4.6756   23.8764 C   0  0  0  0  0  0  0  0  0  0  0  0
  -22.2823   -5.6048   23.3181 C   0  0  0  0  0  0  0  0  0  0  0  0
  -23.3800  -12.4432   20.8870 C   0  0  0  0  0  0  0  0  0  0  0  0
  -24.4525  -14.3456   20.6311 C   0  0  0  0  0  0  0  0  0  0  0  0
  -25.9301  -12.3303   20.5721 C   0  0  0  0  0  0  0  0  0  0  0  0
  -23.1072  -28.2840   22.7971 C   0  0  0  0  0  0  0  0  0  0  0  0
  -24.4449  -31.2341   22.9695 C   0  0  0  0  0  0  0  0  0  0  0  0
  -27.2550  -33.1583   22.7516 C   0  0  0  0  0  0  0  0  0  0  0  0
  -21.2804  -18.5002   18.3962 C   0  0  0  0  0  0  0  0  0  0  0  0
  -18.4409  -25.6305   23.0243 C   0  0  0  0  0  0  0  0  0  0  0  0
  -25.0161  -27.8785   24.3932 C   0  0  0  0  0  0  0  0  0  0  0  0
  -25.8830  -29.3973   22.0086 C   0  0  0  0  0  0  0  0  0  0  0  0
  -18.8000  -26.7595   22.0638 C   0  0  0  0  0  0  0  0  0  0  0  0
  -20.3678  -17.1129   21.7044 C   0  0  0  0  0  0  0  0  0  0  0  0
  -19.9865  -27.5438   22.6039 C   0  0  0  0  0  0  0  0  0  0  0  0
  -21.1247  -15.7861   21.7296 C   0  0  0  0  0  0  0  0  0  0  0  0
  -20.0132  -17.5368   20.2824 C   0  0  0  0  0  0  0  0  0  0  0  0
  -21.9385  -16.2692   19.3876 C   0  0  0  0  0  0  0  0  0  0  0  0
  -21.2316  -26.6531   22.7004 C   0  0  1  0  0  0  0  0  0  0  0  0
  -24.1111  -28.9085   23.7243 C   0  0  1  0  0  0  0  0  0  0  0  0
  -22.3516  -15.8368   20.8024 C   0  0  2  0  0  0  0  0  0  0  0  0
  -22.0144  -21.9079   20.9103 C   0  0  0  0  0  0  0  0  0  0  0  0
  -23.3545  -20.5796   22.5821 C   0  0  0  0  0  0  0  0  0  0  0  0
  -28.0275  -35.5410   22.9032 C   0  0  0  0  0  0  0  0  0  0  0  0
  -30.2717  -22.2516   17.7780 C   0  0  0  0  0  0  0  0  0  0  0  0
  -23.2932  -31.7813   20.1975 C   0  0  0  0  0  0  0  0  0  0  0  0
  -24.8517  -33.7318   20.0114 C   0  0  0  0  0  0  0  0  0  0  0  0
  -23.1119  -33.6939   21.7986 C   0  0  0  0  0  0  0  0  0  0  0  0
  -22.7120  -19.9332   16.9904 C   0  0  0  0  0  0  0  0  0  0  0  0
  -29.0350  -32.5574   25.0385 C   0  0  0  0  0  0  0  0  0  0  0  0
  -23.7735  -18.6423   18.8048 C   0  0  0  0  0  0  0  0  0  0  0  0
  -28.5301  -21.6768   19.4962 C   0  0  0  0  0  0  0  0  0  0  0  0
  -29.6581  -24.0093   19.4982 C   0  0  0  0  0  0  0  0  0  0  0  0
  -27.2565  -22.3021   18.9180 C   0  0  0  0  0  0  0  0  0  0  0  0
  -29.1145  -24.3666   20.8770 C   0  0  0  0  0  0  0  0  0  1  0  0
  -22.9788  -20.7123   21.0880 C   0  0  0  0  0  0  0  0  0  0  0  0
  -25.1153  -32.1631   21.9864 C   0  0  1  0  0  0  0  0  0  0  0  0
  -27.8074  -34.2410   23.6610 C   0  0  2  0  0  0  0  0  0  0  0  0
  -29.8013  -22.5021   19.2149 C   0  0  2  0  0  0  0  0  0  0  0  0
  -24.1031  -32.8164   21.0035 C   0  0  0  0  0  0  0  0  0  0  0  0
  -22.4260  -13.3760   20.9485 N   0  0  0  0  0  0  0  0  0  0  0  0
  -26.0372  -21.4757   19.2426 N   0  0  0  0  0  0  0  0  0  0  0  0
  -23.1095  -14.5222   20.7899 N   0  0  0  0  0  0  0  0  0  0  0  0
  -24.8590  -29.8949   22.9421 N   0  0  0  0  0  0  0  0  0  0  0  0
  -21.1897  -17.5346   19.4123 N   0  0  0  0  0  0  0  0  0  0  0  0
  -25.2876  -15.3923   20.4593 N   0  0  0  0  0  0  0  0  0  0  0  0
  -25.9662  -10.9317   20.6560 N   0  0  0  0  0  0  0  0  0  0  0  0
  -22.2706  -27.3691   23.4074 N   0  0  0  0  0  0  0  0  0  0  0  0
  -25.8771  -33.1192   22.7826 N   0  0  0  0  0  0  0  0  0  0  0  0
  -22.5667  -18.9252   18.0309 N   0  0  0  0  0  0  0  0  0  0  0  0
  -29.1092  -33.8118   24.2460 N   0  3  0  0  0  0  0  0  0  0  0  0
  -27.0012  -12.9637   20.4135 O   0  0  0  0  0  0  0  0  0  0  0  0
  -23.0917  -28.6093   21.6157 O   0  0  0  0  0  0  0  0  0  0  0  0
  -23.5905  -31.6817   23.7385 O   0  0  0  0  0  0  0  0  0  0  0  0
  -27.9738  -32.4233   22.0781 O   0  0  0  0  0  0  0  0  0  0  0  0
  -20.2690  -18.9633   17.8536 O   0  0  0  0  0  0  0  0  0  0  0  0
  -22.0542   -7.0347   21.3940 O   0  0  0  0  0  0  0  0  0  0  0  0
  -29.0185  -25.7871   20.9730 O   0  0  0  0  0  0  0  0  0  1  0  0
  -25.2076   -3.9174   24.6716 F   0  0  0  0  0  0  0  0  0  0  0  0
  -20.9751   -5.7353   23.5825 F   0  0  0  0  0  0  0  0  0  0  0  0
  1  2  1  0  0  0  0
  1  5  2  0  0  0  0
  2  6  2  0  0  0  0
  3  8  2  0  0  0  0
  3 17  1  0  0  0  0
  4  9  1  0  0  0  0
  4 17  2  0  0  0  0
  5 19  1  0  0  0  0
  6 21  1  0  0  0  0
  7 10  2  0  0  0  0
  7 20  1  0  0  0  0
  8 25  1  0  0  0  0
  9 25  2  0  0  0  0
 10 26  1  0  0  0  0
 11 12  2  0  0  0  0
 11 27  1  0  0  0  0
 12 28  1  0  0  0  0
 13 22  1  0  0  0  0
 13 26  2  0  0  0  0
 14 28  2  0  0  0  0
 14 29  1  0  0  0  0
 15 23  2  0  0  0  0
 15 69  1  0  0  0  0
 16 24  2  0  0  0  0
 16 69  1  0  0  0  0
 17 30  1  0  0  0  0
 18 30  1  0  0  0  0
 18 31  2  0  0  0  0
 18 32  1  0  0  0  0
 19 21  2  0  0  0  0
 19 37  1  0  0  0  0
 20 22  2  0  0  0  0
 20 38  1  0  0  0  0
 21 46  1  0  0  0  0
 22 39  1  0  0  0  0
 23 24  1  0  0  0  0
 23 58  1  0  0  0  0
 24 63  1  0  0  0  0
 25 84  1  0  0  0  0
 26 85  1  0  0  0  0
 27 29  2  0  0  0  0
 27 84  1  0  0  0  0
 28 86  1  0  0  0  0
 29 87  1  0  0  0  0
 30 68  2  0  0  0  0
 31 70  1  0  0  0  0
 31 73  1  0  0  0  0
 32 74  1  0  0  0  0
 32 79  2  0  0  0  0
 33 47  1  0  0  0  0
 33 75  1  0  0  0  0
 33 80  2  0  0  0  0
 34 64  1  0  0  0  0
 34 71  1  0  0  0  0
 34 81  2  0  0  0  0
 35 65  1  0  0  0  0
 35 76  1  0  0  0  0
 35 82  2  0  0  0  0
 36 72  1  0  0  0  0
 36 77  1  0  0  0  0
 36 83  2  0  0  0  0
 37 40  1  0  0  0  0
 38 47  1  0  0  0  0
 39 71  1  0  0  0  0
 40 42  1  0  0  0  0
 41 43  1  0  0  0  0
 41 44  1  0  0  0  0
 42 46  1  0  0  0  0
 43 48  1  0  0  0  0
 44 72  1  0  0  0  0
 45 48  1  0  0  0  0
 45 72  1  0  0  0  0
 46 75  1  0  0  0  0
 47 71  1  0  0  0  0
 48 70  1  0  0  0  0
 49 63  1  0  0  0  0
 50 63  1  0  0  0  0
 51 65  1  0  0  0  0
 52 66  1  0  0  0  0
 53 67  1  0  0  0  0
 54 67  1  0  0  0  0
 55 67  1  0  0  0  0
 56 77  1  0  0  0  0
 57 78  1  0  0  0  0
 58 77  1  0  0  0  0
 59 61  1  0  0  0  0
 59 66  1  0  0  0  0
 60 62  1  0  0  0  0
 60 66  1  0  0  0  0
 61 69  1  0  0  0  0
 62 85  1  0  0  0  0
 64 67  1  0  0  0  0
 64 76  1  0  0  0  0
 65 78  1  0  0  0  0
 68 70  1  0  0  0  0
M  CHG  1  78   1
M  ISO  4  36 100  62 101  77 100  85 101
M  END
> <Batch ID>
0095

> <Smiles>
CNC(C)C(=O)NC(C(=O)N1Cc2cc([101O:1][101CH2:1]CC(C)CCn3cc(C[100N:0](C)[100C:0](=O)N4CCCC(n5nc(-c6ccc(Oc7ccc(F)cc7F)cc6)c(C(N)=O)c5N)C4)c(C(C)C)c3)ccc2CC1C(=O)NC1CCCc2ccccc21)C(C)(C)C

> <Shape>
0.226

> <Color>
0.096

> <Negative vol penalty>
0.000

$$$$

  -OEChem-04052319213D

 83 91  0     1  0  0  0  0  0999 V2000
  -34.3812  -24.4279   31.8155 C   0  0  0  0  0  0  0  0  0  0  0  0
  -33.2431  -23.8895   31.2235 C   0  0  0  0  0  0  0  0  0  0  0  0
  -23.0779   -9.8657   19.9424 C   0  0  0  0  0  0  0  0  0  0  0  0
  -23.8406   -9.8755   22.2349 C   0  0  0  0  0  0  0  0  0  0  0  0
  -35.0941  -25.4343   31.1652 C   0  0  0  0  0  0  0  0  0  0  0  0
  -32.8167  -24.3580   29.9813 C   0  0  0  0  0  0  0  0  0  0  0  0
  -30.1543  -21.0977   25.5330 C   0  0  0  0  0  0  0  0  0  0  0  0
  -22.3369   -8.7110   20.1939 C   0  0  0  0  0  0  0  0  0  0  0  0
  -23.0995   -8.7209   22.4864 C   0  0  0  0  0  0  0  0  0  0  0  0
  -28.8212  -20.9357   25.1583 C   0  0  0  0  0  0  0  0  0  0  0  0
  -19.8739   -7.9162   23.0932 C   0  0  0  0  0  0  0  0  0  0  0  0
  -19.1185   -7.8752   24.2650 C   0  0  0  0  0  0  0  0  0  0  0  0
  -29.0877  -22.6561   23.4884 C   0  0  0  0  0  0  0  0  0  0  0  0
  -28.3379  -18.4481   19.6164 C   0  0  0  0  0  0  0  0  0  0  0  0
  -20.3651   -5.9408   25.0010 C   0  0  0  0  0  0  0  0  0  0  0  0
  -28.2549  -18.7957   21.8395 C   0  0  0  0  0  0  0  0  0  0  0  0
  -23.8298  -10.4479   20.9629 C   0  0  0  0  0  0  0  0  0  0  0  0
  -24.1659  -12.9738   20.8412 C   0  0  0  0  0  0  0  0  0  0  0  0
  -34.6817  -25.9086   29.9100 C   0  0  0  0  0  0  0  0  0  0  0  0
  -30.9625  -22.0494   24.8945 C   0  0  0  0  0  0  0  0  0  0  0  0
  -33.5241  -25.3726   29.3142 C   0  0  0  0  0  0  0  0  0  0  0  0
  -30.4315  -22.8265   23.8552 C   0  0  0  0  0  0  0  0  0  0  0  0
  -29.0976  -18.4330   20.8121 C   0  0  0  0  0  0  0  0  0  0  0  0
  -22.3477   -8.1386   21.4658 C   0  0  0  0  0  0  0  0  0  0  0  0
  -28.2869  -21.7169   24.1378 C   0  0  0  0  0  0  0  0  0  0  0  0
  -20.8749   -6.9695   22.8752 C   0  0  0  0  0  0  0  0  0  0  0  0
  -19.3641   -6.8875   25.2189 C   0  0  0  0  0  0  0  0  0  0  0  0
  -21.1205   -5.9819   23.8291 C   0  0  0  0  0  0  0  0  0  0  0  0
  -24.5959  -11.6404   20.7037 C   0  0  0  0  0  0  0  0  0  0  0  0
  -27.0540  -18.8197   19.9494 C   0  0  0  0  0  0  0  0  0  0  0  0
  -25.2559  -13.7255   20.4763 C   0  0  0  0  0  0  0  0  0  0  0  0
  -22.8948  -13.4870   21.2614 C   0  0  0  0  0  0  0  0  0  0  0  0
  -32.5270  -24.6535   25.8298 C   0  0  0  0  0  0  0  0  0  0  0  0
  -33.6472  -24.5997   22.7860 C   0  0  0  0  0  0  0  0  0  0  0  0
  -33.2009  -23.6063   19.5517 C   0  0  0  0  0  0  0  0  0  0  0  0
  -30.7376  -14.7568   20.6574 C   0  0  0  0  0  0  0  0  0  0  0  0
  -35.4578  -27.0308   29.2673 C   0  0  0  0  0  0  0  0  0  0  0  0
  -32.4059  -22.1933   25.2923 C   0  0  0  0  0  0  0  0  0  0  0  0
  -31.2627  -23.8480   23.1244 C   0  0  0  0  0  0  0  0  0  0  0  0
  -35.1528  -27.2097   27.7823 C   0  0  0  0  0  0  0  0  0  0  0  0
  -29.6024  -12.3686   18.2732 C   0  0  0  0  0  0  0  0  0  0  0  0
  -33.6471  -27.1841   27.5396 C   0  0  0  0  0  0  0  0  0  0  0  0
  -28.1661  -12.0719   18.7081 C   0  0  0  0  0  0  0  0  0  0  0  0
  -30.5205  -12.5921   19.4729 C   0  0  0  0  0  0  0  0  0  0  0  0
  -28.6188  -13.3196   20.8614 C   0  0  0  0  0  0  0  0  0  0  0  0
  -33.0440  -25.8372   27.9564 C   0  0  1  0  0  0  0  0  0  0  0  0
  -32.9951  -23.5511   24.9225 C   0  0  1  0  0  0  0  0  0  0  0  0
  -27.6436  -13.1423   19.6851 C   0  0  2  0  0  0  0  0  0  0  0  0
  -25.8641  -18.9922   19.0907 C   0  0  0  0  0  0  0  0  0  0  0  0
  -33.7491  -23.2479   17.1292 C   0  0  0  0  0  0  0  0  0  0  0  0
  -32.6979  -27.4871   22.5184 C   0  0  0  0  0  0  0  0  0  0  0  0
  -32.9069  -27.2524   20.0346 C   0  0  0  0  0  0  0  0  0  0  0  0
  -34.9256  -27.0211   21.4818 C   0  0  0  0  0  0  0  0  0  0  0  0
  -34.4993  -21.0061   20.1105 C   0  0  0  0  0  0  0  0  0  0  0  0
  -25.4916  -20.9441   21.9978 C   0  0  0  0  0  0  0  0  0  0  0  0
  -25.8050  -19.4496   22.0980 C   0  0  0  0  0  0  0  0  0  0  0  0
  -30.8002  -16.9082   21.8932 C   0  0  0  0  0  0  0  0  0  0  0  0
  -26.6582  -21.8348   22.4089 C   0  0  0  0  0  0  0  0  0  1  0  0
  -30.5276  -18.0916   20.9356 C   0  0  2  0  0  0  0  0  0  0  0  0
  -33.1922  -25.1806   21.4689 C   0  0  1  0  0  0  0  0  0  0  0  0
  -34.1398  -22.9354   18.5653 C   0  0  2  0  0  0  0  0  0  0  0  0
  -33.4142  -26.7175   21.3908 C   0  0  0  0  0  0  0  0  0  0  0  0
  -25.8605  -11.5472   20.2839 N   0  0  0  0  0  0  0  0  0  0  0  0
  -27.0153  -19.0287   21.3033 N   0  0  0  0  0  0  0  0  0  0  0  0
  -26.2344  -12.8315   20.1545 N   0  0  0  0  0  0  0  0  0  0  0  0
  -32.6667  -23.9559   23.5541 N   0  0  0  0  0  0  0  0  0  0  0  0
  -29.9687  -13.6198   20.3590 N   0  0  0  0  0  0  0  0  0  0  0  0
  -25.4633  -15.0574   20.4023 N   0  0  0  0  0  0  0  0  0  0  0  0
  -21.8853  -12.5757   21.6004 N   0  0  0  0  0  0  0  0  0  0  0  0
  -33.3133  -24.8305   26.9522 N   0  0  0  0  0  0  0  0  0  0  0  0
  -33.8812  -24.4238   20.4293 N   0  0  0  0  0  0  0  0  0  0  0  0
  -30.1374  -15.6848   21.4997 N   0  0  0  0  0  0  0  0  0  0  0  0
  -31.3864  -19.2469   21.3985 N   0  3  0  0  0  0  0  0  0  0  0  0
  -34.1131  -21.4566   18.7485 N   0  3  0  0  0  0  0  0  0  0  0  0
  -22.6558  -14.7171   21.3184 O   0  0  0  0  0  0  0  0  0  0  0  0
  -31.5273  -25.2969   25.5327 O   0  0  0  0  0  0  0  0  0  0  0  0
  -34.8304  -24.7069   23.1177 O   0  0  0  0  0  0  0  0  0  0  0  0
  -31.9851  -23.4263   19.5421 O   0  0  0  0  0  0  0  0  0  0  0  0
  -31.8726  -14.9346   20.2023 O   0  0  0  0  0  0  0  0  0  0  0  0
  -21.6245   -7.0120   21.7116 O   0  0  0  0  0  0  0  0  0  0  0  0
  -26.9859  -21.5612   23.7706 O   0  0  0  0  0  0  0  0  0  1  0  0
  -18.6396   -6.8492   26.3449 F   0  0  0  0  0  0  0  0  0  0  0  0
  -22.0816   -5.0704   23.6257 F   0  0  0  0  0  0  0  0  0  0  0  0
  1  2  1  0  0  0  0
  1  5  2  0  0  0  0
  2  6  2  0  0  0  0
  3  8  2  0  0  0  0
  3 17  1  0  0  0  0
  4  9  1  0  0  0  0
  4 17  2  0  0  0  0
  5 19  1  0  0  0  0
  6 21  1  0  0  0  0
  7 10  2  0  0  0  0
  7 20  1  0  0  0  0
  8 24  1  0  0  0  0
  9 24  2  0  0  0  0
 10 25  1  0  0  0  0
 11 12  2  0  0  0  0
 11 26  1  0  0  0  0
 12 27  1  0  0  0  0
 13 22  1  0  0  0  0
 13 25  2  0  0  0  0
 14 23  1  0  0  0  0
 14 30  2  0  0  0  0
 15 27  2  0  0  0  0
 15 28  1  0  0  0  0
 16 23  2  0  0  0  0
 16 64  1  0  0  0  0
 17 29  1  0  0  0  0
 18 29  1  0  0  0  0
 18 31  2  0  0  0  0
 18 32  1  0  0  0  0
 19 21  2  0  0  0  0
 19 37  1  0  0  0  0
 20 22  2  0  0  0  0
 20 38  1  0  0  0  0
 21 46  1  0  0  0  0
 22 39  1  0  0  0  0
 23 59  1  0  0  0  0
 24 80  1  0  0  0  0
 25 81  1  0  0  0  0
 26 28  2  0  0  0  0
 26 80  1  0  0  0  0
 27 82  1  0  0  0  0
 28 83  1  0  0  0  0
 29 63  2  0  0  0  0
 30 49  1  0  0  0  0
 30 64  1  0  0  0  0
 31 65  1  0  0  0  0
 31 68  1  0  0  0  0
 32 69  1  0  0  0  0
 32 75  2  0  0  0  0
 33 47  1  0  0  0  0
 33 70  1  0  0  0  0
 33 76  2  0  0  0  0
 34 60  1  0  0  0  0
 34 66  1  0  0  0  0
 34 77  2  0  0  0  0
 35 61  1  0  0  0  0
 35 71  1  0  0  0  0
 35 78  2  0  0  0  0
 36 67  1  0  0  0  0
 36 72  1  0  0  0  0
 36 79  2  0  0  0  0
 37 40  1  0  0  0  0
 38 47  1  0  0  0  0
 39 66  1  0  0  0  0
 40 42  1  0  0  0  0
 41 43  1  0  0  0  0
 41 44  1  0  0  0  0
 42 46  1  0  0  0  0
 43 48  1  0  0  0  0
 44 67  1  0  0  0  0
 45 48  1  0  0  0  0
 45 67  1  0  0  0  0
 46 70  1  0  0  0  0
 47 66  1  0  0  0  0
 48 65  1  0  0  0  0
 50 61  1  0  0  0  0
 51 62  1  0  0  0  0
 52 62  1  0  0  0  0
 53 62  1  0  0  0  0
 54 74  1  0  0  0  0
 55 56  1  0  0  0  0
 55 58  1  0  0  0  0
 56 64  1  0  0  0  0
 57 59  1  0  0  0  0
 57 72  1  0  0  0  0
 58 81  1  0  0  0  0
 59 73  1  0  0  0  0
 60 62  1  0  0  0  0
 60 71  1  0  0  0  0
 61 74  1  0  0  0  0
 63 65  1  0  0  0  0
M  CHG  2  73   1  74   1
M  ISO  4  36 100  58 101  72 100  81 101
M  END
> <Batch ID>
0095

> <Smiles>
CNC(C)C(=O)NC(C(=O)N1Cc2cc([101O:1][101CH2:1]CCn3cc(C(N)C[100NH:0][100C:0](=O)N4CCCC(n5nc(-c6ccc(Oc7ccc(F)cc7F)cc6)c(C(N)=O)c5N)C4)cc3C)ccc2CC1C(=O)NC1CCCc2ccccc21)C(C)(C)C

> <Shape>
0.196

> <Color>
0.192

> <Negative vol penalty>
0.000

$$$$

  -OEChem-04052319213D

 80 87  0     1  0  0  0  0  0999 V2000
  -28.5442  -11.3567   21.1549 C   0  0  0  0  0  0  0  0  0  0  0  0
  -28.8492  -12.6009   20.6123 C   0  0  0  0  0  0  0  0  0  0  0  0
  -25.4176  -26.8100   20.5100 C   0  0  0  0  0  0  0  0  0  0  0  0
  -26.8292  -28.4031   19.3670 C   0  0  0  0  0  0  0  0  0  0  0  0
  -27.2131  -10.9677   21.2990 C   0  0  0  0  0  0  0  0  0  0  0  0
  -27.8232  -13.4564   20.2123 C   0  0  0  0  0  0  0  0  0  0  0  0
  -28.5784  -18.2323   21.7174 C   0  0  0  0  0  0  0  0  0  0  0  0
  -24.3905  -27.7526   20.5554 C   0  0  0  0  0  0  0  0  0  0  0  0
  -25.8020  -29.3458   19.4124 C   0  0  0  0  0  0  0  0  0  0  0  0
  -29.4888  -18.9939   20.9861 C   0  0  0  0  0  0  0  0  0  0  0  0
  -21.5204  -29.8607   21.2917 C   0  0  0  0  0  0  0  0  0  0  0  0
  -20.8289  -30.0112   22.4937 C   0  0  0  0  0  0  0  0  0  0  0  0
  -27.6601  -20.0432   19.8138 C   0  0  0  0  0  0  0  0  0  0  0  0
  -22.8878  -30.6195   23.6020 C   0  0  0  0  0  0  0  0  0  0  0  0
  -26.6370  -27.1352   19.9158 C   0  0  0  0  0  0  0  0  0  0  0  0
  -27.9422  -25.2180   18.8536 C   0  0  0  0  0  0  0  0  0  0  0  0
  -26.1701  -11.8228   20.9096 C   0  0  0  0  0  0  0  0  0  0  0  0
  -27.2001  -18.3627   21.4944 C   0  0  0  0  0  0  0  0  0  0  0  0
  -26.4770  -13.0779   20.3501 C   0  0  0  0  0  0  0  0  0  0  0  0
  -26.7342  -19.2839   20.5454 C   0  0  0  0  0  0  0  0  0  0  0  0
  -24.5827  -29.0205   20.0066 C   0  0  0  0  0  0  0  0  0  0  0  0
  -29.0298  -19.8974   20.0321 C   0  0  0  0  0  0  0  0  0  0  0  0
  -22.8956  -30.0895   21.2449 C   0  0  0  0  0  0  0  0  0  0  0  0
  -21.5126  -30.3906   23.6488 C   0  0  0  0  0  0  0  0  0  0  0  0
  -23.5793  -30.4690   22.4000 C   0  0  0  0  0  0  0  0  0  0  0  0
  -27.6986  -26.1621   19.8690 C   0  0  0  0  0  0  0  0  0  0  0  0
  -29.0566  -24.5367   19.2785 C   0  0  0  0  0  0  0  0  0  0  0  0
  -27.2254  -24.9784   17.6353 C   0  0  0  0  0  0  0  0  0  0  0  0
  -24.8941  -16.4132   20.5015 C   0  0  0  0  0  0  0  0  0  0  0  0
  -22.9862  -18.9353   21.2237 C   0  0  0  0  0  0  0  0  0  0  0  0
  -22.6830  -22.3057   21.6656 C   0  0  0  0  0  0  0  0  0  0  0  0
  -34.1766  -24.4843   21.4985 C   0  0  0  0  0  0  0  0  0  0  0  0
  -24.7476  -11.3393   21.0410 C   0  0  0  0  0  0  0  0  0  0  0  0
  -26.2300  -17.5531   22.3104 C   0  0  0  0  0  0  0  0  0  0  0  0
  -25.2637  -19.4762   20.2824 C   0  0  0  0  0  0  0  0  0  0  0  0
  -23.7125  -12.4567   20.9391 C   0  0  0  0  0  0  0  0  0  0  0  0
  -31.4199  -24.5538   23.7507 C   0  0  0  0  0  0  0  0  0  0  0  0
  -24.0256  -13.3681   19.7567 C   0  0  0  0  0  0  0  0  0  0  0  0
  -30.2279  -24.9065   22.8592 C   0  0  0  0  0  0  0  0  0  0  0  0
  -32.6883  -25.2817   23.3112 C   0  0  0  0  0  0  0  0  0  0  0  0
  -31.8522  -25.4562   20.9995 C   0  0  0  0  0  0  0  0  0  0  0  0
  -25.3914  -14.0439   19.9274 C   0  0  1  0  0  0  0  0  0  0  0  0
  -24.8696  -17.3956   21.6382 C   0  0  1  0  0  0  0  0  0  0  0  0
  -30.5627  -24.7033   21.3692 C   0  0  2  0  0  0  0  0  0  0  0  0
  -20.9914  -24.0762   22.2140 C   0  0  0  0  0  0  0  0  0  0  0  0
  -21.8645  -18.7369   18.3930 C   0  0  0  0  0  0  0  0  0  0  0  0
  -20.9252  -21.0400   18.6787 C   0  0  0  0  0  0  0  0  0  0  0  0
  -20.1562  -19.1884   20.1629 C   0  0  0  0  0  0  0  0  0  0  0  0
  -33.0768  -18.4826   17.1587 C   0  0  0  0  0  0  0  0  0  0  0  0
  -33.4666  -20.6092   15.9222 C   0  0  0  0  0  0  0  0  0  0  0  0
  -24.1457  -23.1101   24.1095 C   0  0  0  0  0  0  0  0  0  0  0  0
  -31.7227  -20.5512   17.7197 C   0  0  0  0  0  0  0  0  0  0  0  0
  -35.5458  -23.7141   19.5773 C   0  0  0  0  0  0  0  0  0  0  0  0
  -35.4659  -22.2025   19.4727 C   0  0  0  0  0  0  0  0  0  0  0  0
  -34.2305  -20.3592   18.3261 C   0  0  0  0  0  0  0  0  0  0  0  0
  -31.1977  -20.0647   19.0687 C   0  0  0  0  0  0  0  0  0  1  0  0
  -22.4777  -20.1411   20.4711 C   0  0  1  0  0  0  0  0  0  0  0  0
  -22.0374  -23.1227   22.7702 C   0  0  2  0  0  0  0  0  0  0  0  0
  -21.3838  -19.7718   19.4298 C   0  0  0  0  0  0  0  0  0  0  0  0
  -33.1209  -20.0180   17.3063 C   0  0  0  0  0  0  0  0  0  0  0  0
  -28.5866  -26.0900   20.8641 N   0  0  0  0  0  0  0  0  0  0  0  0
  -29.3991  -25.0923   20.4760 N   0  0  0  0  0  0  0  0  0  0  0  0
  -24.3550  -18.6570   21.1013 N   0  0  0  0  0  0  0  0  0  0  0  0
  -32.9502  -25.0468   21.8892 N   0  0  0  0  0  0  0  0  0  0  0  0
  -29.7671  -23.5226   18.7408 N   0  0  0  0  0  0  0  0  0  0  0  0
  -26.1033  -25.7694   17.3536 N   0  0  0  0  0  0  0  0  0  0  0  0
  -25.2981  -15.1426   20.8647 N   0  0  0  0  0  0  0  0  0  0  0  0
  -22.0418  -21.0990   21.4815 N   0  0  0  0  0  0  0  0  0  0  0  0
  -34.3410  -24.2892   20.1327 N   0  0  0  0  0  0  0  0  0  0  0  0
  -23.0668  -23.9232   23.4916 N   0  3  0  0  0  0  0  0  0  0  0  0
  -34.3609  -21.8192   18.5519 N   0  3  0  0  0  0  0  0  0  0  0  0
  -27.5601  -24.0782   16.8283 O   0  0  0  0  0  0  0  0  0  0  0  0
  -24.5691  -16.7804   19.3785 O   0  0  0  0  0  0  0  0  0  0  0  0
  -22.1995  -18.2692   21.9010 O   0  0  0  0  0  0  0  0  0  0  0  0
  -23.6564  -22.7002   21.0272 O   0  0  0  0  0  0  0  0  0  0  0  0
  -35.0575  -24.1738   22.3076 O   0  0  0  0  0  0  0  0  0  0  0  0
  -23.5806  -29.9405   20.0506 O   0  0  0  0  0  0  0  0  0  0  0  0
  -29.9163  -20.6416   19.3164 O   0  0  0  0  0  0  0  0  0  1  0  0
  -20.8482  -30.5366   24.8027 F   0  0  0  0  0  0  0  0  0  0  0  0
  -24.9002  -30.6913   22.3609 F   0  0  0  0  0  0  0  0  0  0  0  0
  1  2  1  0  0  0  0
  1  5  2  0  0  0  0
  2  6  2  0  0  0  0
  3  8  2  0  0  0  0
  3 15  1  0  0  0  0
  4  9  1  0  0  0  0
  4 15  2  0  0  0  0
  5 17  1  0  0  0  0
  6 19  1  0  0  0  0
  7 10  2  0  0  0  0
  7 18  1  0  0  0  0
  8 21  1  0  0  0  0
  9 21  2  0  0  0  0
 10 22  1  0  0  0  0
 11 12  2  0  0  0  0
 11 23  1  0  0  0  0
 12 24  1  0  0  0  0
 13 20  1  0  0  0  0
 13 22  2  0  0  0  0
 14 24  2  0  0  0  0
 14 25  1  0  0  0  0
 15 26  1  0  0  0  0
 16 26  1  0  0  0  0
 16 27  2  0  0  0  0
 16 28  1  0  0  0  0
 17 19  2  0  0  0  0
 17 33  1  0  0  0  0
 18 20  2  0  0  0  0
 18 34  1  0  0  0  0
 19 42  1  0  0  0  0
 20 35  1  0  0  0  0
 21 77  1  0  0  0  0
 22 78  1  0  0  0  0
 23 25  2  0  0  0  0
 23 77  1  0  0  0  0
 24 79  1  0  0  0  0
 25 80  1  0  0  0  0
 26 61  2  0  0  0  0
 27 62  1  0  0  0  0
 27 65  1  0  0  0  0
 28 66  1  0  0  0  0
 28 72  2  0  0  0  0
 29 43  1  0  0  0  0
 29 67  1  0  0  0  0
 29 73  2  0  0  0  0
 30 57  1  0  0  0  0
 30 63  1  0  0  0  0
 30 74  2  0  0  0  0
 31 58  1  0  0  0  0
 31 68  1  0  0  0  0
 31 75  2  0  0  0  0
 32 64  1  0  0  0  0
 32 69  1  0  0  0  0
 32 76  2  0  0  0  0
 33 36  1  0  0  0  0
 34 43  1  0  0  0  0
 35 63  1  0  0  0  0
 36 38  1  0  0  0  0
 37 39  1  0  0  0  0
 37 40  1  0  0  0  0
 38 42  1  0  0  0  0
 39 44  1  0  0  0  0
 40 64  1  0  0  0  0
 41 44  1  0  0  0  0
 41 64  1  0  0  0  0
 42 67  1  0  0  0  0
 43 63  1  0  0  0  0
 44 62  1  0  0  0  0
 45 58  1  0  0  0  0
 46 59  1  0  0  0  0
 47 59  1  0  0  0  0
 48 59  1  0  0  0  0
 49 60  1  0  0  0  0
 50 60  1  0  0  0  0
 51 70  1  0  0  0  0
 52 56  1  0  0  0  0
 52 60  1  0  0  0  0
 53 54  1  0  0  0  0
 53 69  1  0  0  0  0
 54 71  1  0  0  0  0
 55 60  1  0  0  0  0
 55 71  1  0  0  0  0
 56 78  1  0  0  0  0
 57 59  1  0  0  0  0
 57 68  1  0  0  0  0
 58 70  1  0  0  0  0
 61 62  1  0  0  0  0
M  CHG  2  70   1  71   1
M  ISO  4  32 100  56 101  69 100  78 101
M  END
> <Batch ID>
0095

> <Smiles>
CNC(C)C(=O)NC(C(=O)N1Cc2cc([101O:1][101CH2:1]CC(C)(C)CNCC[100NH:0][100C:0](=O)N3CCCC(n4nc(-c5ccc(Oc6ccc(F)cc6F)cc5)c(C(N)=O)c4N)C3)ccc2CC1C(=O)NC1CCCc2ccccc21)C(C)(C)C

> <Shape>
0.189

> <Color>
0.072

> <Negative vol penalty>
0.000

$$$$

  -OEChem-04052319213D

 83 91  0     1  0  0  0  0  0999 V2000
  -21.6646  -12.8879   21.6081 C   0  0  0  0  0  0  0  0  0  0  0  0
  -21.0938  -14.1367   21.8263 C   0  0  0  0  0  0  0  0  0  0  0  0
  -29.0953  -17.6913   19.3215 C   0  0  0  0  0  0  0  0  0  0  0  0
  -30.4773  -18.1287   21.2544 C   0  0  0  0  0  0  0  0  0  0  0  0
  -22.8090  -12.7768   20.8214 C   0  0  0  0  0  0  0  0  0  0  0  0
  -21.6603  -15.2733   21.2482 C   0  0  0  0  0  0  0  0  0  0  0  0
  -21.4165  -22.4350   21.0046 C   0  0  0  0  0  0  0  0  0  0  0  0
  -25.3130  -27.9308   19.0193 C   0  0  0  0  0  0  0  0  0  0  0  0
  -25.9709  -29.1015   19.3964 C   0  0  0  0  0  0  0  0  0  0  0  0
  -29.6196  -16.4015   19.2384 C   0  0  0  0  0  0  0  0  0  0  0  0
  -31.0016  -16.8387   21.1713 C   0  0  0  0  0  0  0  0  0  0  0  0
  -22.1487  -23.6048   21.2025 C   0  0  0  0  0  0  0  0  0  0  0  0
  -30.3284  -12.8717   18.7351 C   0  0  0  0  0  0  0  0  0  0  0  0
  -29.4362  -11.8218   18.5176 C   0  0  0  0  0  0  0  0  0  0  0  0
  -23.2461  -23.2698   19.0806 C   0  0  0  0  0  0  0  0  0  0  0  0
  -26.1689  -26.8167   20.9848 C   0  0  0  0  0  0  0  0  0  0  0  0
  -28.2838  -12.3765   20.5673 C   0  0  0  0  0  0  0  0  0  0  0  0
  -29.5242  -18.5550   20.3294 C   0  0  0  0  0  0  0  0  0  0  0  0
  -27.8460  -20.2987   21.1359 C   0  0  0  0  0  0  0  0  0  0  0  0
  -23.3964  -13.9146   20.2439 C   0  0  0  0  0  0  0  0  0  0  0  0
  -21.6018  -21.6667   19.8462 C   0  0  0  0  0  0  0  0  0  0  0  0
  -22.8015  -15.1788   20.4314 C   0  0  0  0  0  0  0  0  0  0  0  0
  -22.5131  -22.0920   18.8691 C   0  0  0  0  0  0  0  0  0  0  0  0
  -25.4119  -26.7884   19.8136 C   0  0  0  0  0  0  0  0  0  0  0  0
  -26.7279  -29.1298   20.5676 C   0  0  0  0  0  0  0  0  0  0  0  0
  -26.8269  -27.9874   21.3619 C   0  0  0  0  0  0  0  0  0  0  0  0
  -30.5728  -15.9751   20.1633 C   0  0  0  0  0  0  0  0  0  0  0  0
  -23.0658  -24.0209   20.2418 C   0  0  0  0  0  0  0  0  0  0  0  0
  -30.1983  -13.6740   19.8687 C   0  0  0  0  0  0  0  0  0  0  0  0
  -28.4139  -11.5742   19.4337 C   0  0  0  0  0  0  0  0  0  0  0  0
  -29.1760  -13.4264   20.7848 C   0  0  0  0  0  0  0  0  0  0  0  0
  -28.9834  -19.8877   20.4154 C   0  0  0  0  0  0  0  0  0  0  0  0
  -27.7564  -21.6481   20.8956 C   0  0  0  0  0  0  0  0  0  0  0  0
  -26.9504  -19.5296   21.9496 C   0  0  0  0  0  0  0  0  0  0  0  0
  -22.5910  -18.7046   19.2536 C   0  0  0  0  0  0  0  0  0  0  0  0
  -21.7527  -19.4502   16.2100 C   0  0  0  0  0  0  0  0  0  0  0  0
  -21.2104  -21.8687   13.8640 C   0  0  0  0  0  0  0  0  0  0  0  0
  -30.1297  -26.6789   20.4436 C   0  0  0  0  0  0  0  0  0  0  0  0
  -24.6302  -13.7359   19.3948 C   0  0  0  0  0  0  0  0  0  0  0  0
  -20.7848  -20.4216   19.6353 C   0  0  0  0  0  0  0  0  0  0  0  0
  -22.7345  -21.3137   17.5988 C   0  0  0  0  0  0  0  0  0  0  0  0
  -25.4070  -15.0331   19.1944 C   0  0  0  0  0  0  0  0  0  0  0  0
  -30.2099  -24.5709   17.5754 C   0  0  0  0  0  0  0  0  0  0  0  0
  -24.4628  -16.1415   18.7533 C   0  0  0  0  0  0  0  0  0  0  0  0
  -29.8105  -23.1981   18.1191 C   0  0  0  0  0  0  0  0  0  0  0  0
  -31.0640  -25.3473   18.5754 C   0  0  0  0  0  0  0  0  0  0  0  0
  -30.0734  -24.1112   20.4634 C   0  0  0  0  0  0  0  0  0  0  0  0
  -23.4179  -16.4327   19.8379 C   0  0  1  0  0  0  0  0  0  0  0  0
  -21.4274  -19.4440   18.6561 C   0  0  1  0  0  0  0  0  0  0  0  0
  -29.1645  -23.3133   19.5130 C   0  0  2  0  0  0  0  0  0  0  0  0
  -26.4412  -31.5508   21.2081 C   0  0  0  0  0  0  0  0  0  0  0  0
  -28.4763  -30.8227   19.9108 C   0  0  0  0  0  0  0  0  0  0  0  0
  -20.5718  -22.1693   11.4559 C   0  0  0  0  0  0  0  0  0  0  0  0
  -24.5592  -18.6044   15.3626 C   0  0  0  0  0  0  0  0  0  0  0  0
  -24.1870  -19.7946   13.1917 C   0  0  0  0  0  0  0  0  0  0  0  0
  -22.7360  -17.8648   13.8188 C   0  0  0  0  0  0  0  0  0  0  0  0
  -18.7821  -23.4020   14.5790 C   0  0  0  0  0  0  0  0  0  0  0  0
  -27.6320  -27.9940   22.6199 C   0  0  0  0  0  0  0  0  0  0  0  0
  -24.7045  -25.5291   19.4075 C   0  0  0  0  0  0  0  0  0  1  0  0
  -29.1410  -27.8731   22.3816 C   0  0  0  0  0  0  0  0  0  0  0  0
  -27.4244  -30.3944   20.9503 C   0  0  0  0  0  0  0  0  0  0  0  0
  -22.4589  -20.0681   15.0274 C   0  0  1  0  0  0  0  0  0  0  0  0
  -20.0681  -22.0878   12.8885 C   0  0  2  0  0  0  0  0  0  0  0  0
  -23.4827  -19.0968   14.3748 C   0  0  0  0  0  0  0  0  0  0  0  0
  -29.5740  -20.8944   19.7660 N   0  0  0  0  0  0  0  0  0  0  0  0
  -28.8046  -21.9514   20.0775 N   0  0  0  0  0  0  0  0  0  0  0  0
  -21.9164  -20.0999   17.4417 N   0  0  0  0  0  0  0  0  0  0  0  0
  -30.3941  -25.4215   19.8760 N   0  0  0  0  0  0  0  0  0  0  0  0
  -26.8841  -22.5929   21.3065 N   0  0  0  0  0  0  0  0  0  0  0  0
  -27.1882  -18.1555   22.0896 N   0  0  0  0  0  0  0  0  0  0  0  0
  -22.4212  -17.3342   19.3033 N   0  0  0  0  0  0  0  0  0  0  0  0
  -21.4120  -20.5293   14.1221 N   0  0  0  0  0  0  0  0  0  0  0  0
  -29.4861  -26.6597   21.6750 N   0  0  0  0  0  0  0  0  0  0  0  0
  -19.3505  -23.3544   13.2072 N   0  3  0  0  0  0  0  0  0  0  0  0
  -25.9591  -20.0426   22.5219 O   0  0  0  0  0  0  0  0  0  0  0  0
  -23.5710  -19.3310   19.6396 O   0  0  0  0  0  0  0  0  0  0  0  0
  -21.0748  -18.4328   16.0456 O   0  0  0  0  0  0  0  0  0  0  0  0
  -21.8615  -22.7932   14.3458 O   0  0  0  0  0  0  0  0  0  0  0  0
  -30.4391  -27.7401   19.8913 O   0  0  0  0  0  0  0  0  0  0  0  0
  -31.0844  -14.7165   20.0828 O   0  0  0  0  0  0  0  0  0  0  0  0
  -23.7822  -25.1619   20.4328 O   0  0  0  0  0  0  0  0  0  1  0  0
  -27.5563  -10.5669   19.2240 F   0  0  0  0  0  0  0  0  0  0  0  0
  -29.0453  -14.1945   21.8751 F   0  0  0  0  0  0  0  0  0  0  0  0
  1  2  1  0  0  0  0
  1  5  2  0  0  0  0
  2  6  2  0  0  0  0
  3 10  2  0  0  0  0
  3 18  1  0  0  0  0
  4 11  1  0  0  0  0
  4 18  2  0  0  0  0
  5 20  1  0  0  0  0
  6 22  1  0  0  0  0
  7 12  2  0  0  0  0
  7 21  1  0  0  0  0
  8  9  2  0  0  0  0
  8 24  1  0  0  0  0
  9 25  1  0  0  0  0
 10 27  1  0  0  0  0
 11 27  2  0  0  0  0
 12 28  1  0  0  0  0
 13 14  2  0  0  0  0
 13 29  1  0  0  0  0
 14 30  1  0  0  0  0
 15 23  1  0  0  0  0
 15 28  2  0  0  0  0
 16 24  2  0  0  0  0
 16 26  1  0  0  0  0
 17 30  2  0  0  0  0
 17 31  1  0  0  0  0
 18 32  1  0  0  0  0
 19 32  1  0  0  0  0
 19 33  2  0  0  0  0
 19 34  1  0  0  0  0
 20 22  2  0  0  0  0
 20 39  1  0  0  0  0
 21 23  2  0  0  0  0
 21 40  1  0  0  0  0
 22 48  1  0  0  0  0
 23 41  1  0  0  0  0
 24 59  1  0  0  0  0
 25 26  2  0  0  0  0
 25 61  1  0  0  0  0
 26 58  1  0  0  0  0
 27 80  1  0  0  0  0
 28 81  1  0  0  0  0
 29 31  2  0  0  0  0
 29 80  1  0  0  0  0
 30 82  1  0  0  0  0
 31 83  1  0  0  0  0
 32 65  2  0  0  0  0
 33 66  1  0  0  0  0
 33 69  1  0  0  0  0
 34 70  1  0  0  0  0
 34 75  2  0  0  0  0
 35 49  1  0  0  0  0
 35 71  1  0  0  0  0
 35 76  2  0  0  0  0
 36 62  1  0  0  0  0
 36 67  1  0  0  0  0
 36 77  2  0  0  0  0
 37 63  1  0  0  0  0
 37 72  1  0  0  0  0
 37 78  2  0  0  0  0
 38 68  1  0  0  0  0
 38 73  1  0  0  0  0
 38 79  2  0  0  0  0
 39 42  1  0  0  0  0
 40 49  1  0  0  0  0
 41 67  1  0  0  0  0
 42 44  1  0  0  0  0
 43 45  1  0  0  0  0
 43 46  1  0  0  0  0
 44 48  1  0  0  0  0
 45 50  1  0  0  0  0
 46 68  1  0  0  0  0
 47 50  1  0  0  0  0
 47 68  1  0  0  0  0
 48 71  1  0  0  0  0
 49 67  1  0  0  0  0
 50 66  1  0  0  0  0
 51 61  1  0  0  0  0
 52 61  1  0  0  0  0
 53 63  1  0  0  0  0
 54 64  1  0  0  0  0
 55 64  1  0  0  0  0
 56 64  1  0  0  0  0
 57 74  1  0  0  0  0
 58 60  1  0  0  0  0
 59 81  1  0  0  0  0
 60 73  1  0  0  0  0
 62 64  1  0  0  0  0
 62 72  1  0  0  0  0
 63 74  1  0  0  0  0
 65 66  1  0  0  0  0
M  CHG  1  74   1
M  ISO  4  38 100  59 101  73 100  81 101
M  END
> <Batch ID>
0095

> <Smiles>
CNC(C)C(=O)NC(C(=O)N1Cc2cc([101O:1][101CH2:1]c3ccc(C(C)C)c(CC[100NH:0][100C:0](=O)N4CCCC(n5nc(-c6ccc(Oc7ccc(F)cc7F)cc6)c(C(N)=O)c5N)C4)c3)ccc2CC1C(=O)NC1CCCc2ccccc21)C(C)(C)C

> <Shape>
0.235

> <Color>
0.062

> <Negative vol penalty>
0.000

$$$$

  -OEChem-04052319213D

 87 95  0     1  0  0  0  0  0999 V2000
  -32.7285  -13.5703   21.2015 C   0  0  0  0  0  0  0  0  0  0  0  0
  -32.0552  -14.7608   21.4559 C   0  0  0  0  0  0  0  0  0  0  0  0
  -28.8020  -23.5722   18.3585 C   0  0  0  0  0  0  0  0  0  0  0  0
  -29.3951  -23.6709   20.6985 C   0  0  0  0  0  0  0  0  0  0  0  0
  -32.0886  -12.5431   20.5092 C   0  0  0  0  0  0  0  0  0  0  0  0
  -30.7419  -14.9252   21.0171 C   0  0  0  0  0  0  0  0  0  0  0  0
  -26.2796  -18.0303   23.8371 C   0  0  0  0  0  0  0  0  0  0  0  0
  -28.7631  -22.1796   18.4271 C   0  0  0  0  0  0  0  0  0  0  0  0
  -29.3561  -22.2782   20.7671 C   0  0  0  0  0  0  0  0  0  0  0  0
  -25.7720  -19.3160   23.6552 C   0  0  0  0  0  0  0  0  0  0  0  0
  -30.9749  -19.6238   18.4354 C   0  0  0  0  0  0  0  0  0  0  0  0
  -31.5898  -18.9077   17.4084 C   0  0  0  0  0  0  0  0  0  0  0  0
  -24.0189  -18.4200   22.2612 C   0  0  0  0  0  0  0  0  0  0  0  0
  -29.4772  -17.8669   16.8692 C   0  0  0  0  0  0  0  0  0  0  0  0
  -21.9938  -28.6182   21.0078 C   0  0  0  0  0  0  0  0  0  0  0  0
  -23.3363  -27.2634   19.8345 C   0  0  0  0  0  0  0  0  0  0  0  0
  -29.1181  -24.3178   19.4942 C   0  0  0  0  0  0  0  0  0  0  0  0
  -29.9872  -26.5441   18.6021 C   0  0  0  0  0  0  0  0  0  0  0  0
  -30.7635  -12.6913   20.0702 C   0  0  0  0  0  0  0  0  0  0  0  0
  -25.6661  -16.9293   23.2226 C   0  0  0  0  0  0  0  0  0  0  0  0
  -30.0841  -13.8995   20.3171 C   0  0  0  0  0  0  0  0  0  0  0  0
  -24.5192  -17.1211   22.4390 C   0  0  0  0  0  0  0  0  0  0  0  0
  -21.4666  -27.3481   21.0861 C   0  0  0  0  0  0  0  0  0  0  0  0
  -22.3158  -26.4910   20.3437 C   0  0  0  0  0  0  0  0  0  0  0  0
  -29.0401  -21.5326   19.6314 C   0  0  0  0  0  0  0  0  0  0  0  0
  -24.6431  -19.5113   22.8648 C   0  0  0  0  0  0  0  0  0  0  0  0
  -29.6111  -19.4614   18.6793 C   0  0  0  0  0  0  0  0  0  0  0  0
  -30.8410  -18.0292   16.6253 C   0  0  0  0  0  0  0  0  0  0  0  0
  -28.8623  -18.5830   17.8962 C   0  0  0  0  0  0  0  0  0  0  0  0
  -29.1590  -25.7564   19.4239 C   0  0  0  0  0  0  0  0  0  0  0  0
  -29.6438  -27.8382   18.9082 C   0  0  0  0  0  0  0  0  0  0  0  0
  -30.9783  -26.1419   17.6473 C   0  0  0  0  0  0  0  0  0  0  0  0
  -26.5735  -14.7616   21.0821 C   0  0  0  0  0  0  0  0  0  0  0  0
  -24.6167  -30.2267   21.1743 C   0  0  0  0  0  0  0  0  0  0  0  0
  -23.6858  -13.4501   21.7628 C   0  0  0  0  0  0  0  0  0  0  0  0
  -20.5048  -13.8881   22.9186 C   0  0  0  0  0  0  0  0  0  0  0  0
  -30.1295  -11.5710   19.2843 C   0  0  0  0  0  0  0  0  0  0  0  0
  -26.2103  -15.5457   23.4505 C   0  0  0  0  0  0  0  0  0  0  0  0
  -23.8116  -15.9699   21.7739 C   0  0  0  0  0  0  0  0  0  0  0  0
  -28.6106  -11.6830   19.1810 C   0  0  0  0  0  0  0  0  0  0  0  0
  -27.9432  -30.5262   22.4721 C   0  0  0  0  0  0  0  0  0  0  0  0
  -28.2045  -13.1049   18.8067 C   0  0  0  0  0  0  0  0  0  0  0  0
  -28.7004  -29.3908   21.7845 C   0  0  0  0  0  0  0  0  0  0  0  0
  -26.5004  -30.1330   22.7734 C   0  0  0  0  0  0  0  0  0  0  0  0
  -26.4909  -28.5306   20.8882 C   0  0  0  0  0  0  0  0  0  0  0  0
  -28.6505  -14.1064   19.8789 C   0  0  1  0  0  0  0  0  0  0  0  0
  -25.8084  -14.5583   22.3592 C   0  0  1  0  0  0  0  0  0  0  0  0
  -27.9441  -28.8971   20.5384 C   0  0  2  0  0  0  0  0  0  0  0  0
  -18.9715  -27.6586   21.2647 C   0  0  0  0  0  0  0  0  0  0  0  0
  -20.3384  -27.2186   23.3366 C   0  0  0  0  0  0  0  0  0  0  0  0
  -18.3655  -12.6394   23.3209 C   0  0  0  0  0  0  0  0  0  0  0  0
  -22.7840  -24.5368   17.8980 C   0  0  0  0  0  0  0  0  0  0  0  0
  -23.1003  -13.4935   18.7686 C   0  0  0  0  0  0  0  0  0  0  0  0
  -20.6795  -13.1506   19.3077 C   0  0  0  0  0  0  0  0  0  0  0  0
  -22.3556  -11.4172   19.9471 C   0  0  0  0  0  0  0  0  0  0  0  0
  -20.5854  -14.4531   25.8227 C   0  0  0  0  0  0  0  0  0  0  0  0
  -23.6498  -22.4960   21.0703 C   0  0  0  0  0  0  0  0  0  0  0  0
  -22.9340  -22.8397   19.7566 C   0  0  0  0  0  0  0  0  0  0  0  0
  -23.2614  -30.8110   19.1884 C   0  0  0  0  0  0  0  0  0  0  0  0
  -23.4806  -21.0293   21.4505 C   0  0  0  0  0  0  0  0  0  1  0  0
  -20.2397  -26.9662   21.8145 C   0  0  0  0  0  0  0  0  0  0  0  0
  -23.9811  -29.6772   19.9220 C   0  0  2  0  0  0  0  0  0  0  0  0
  -22.2868  -13.6027   21.2165 C   0  0  1  0  0  0  0  0  0  0  0  0
  -19.6817  -13.1040   23.9247 C   0  0  2  0  0  0  0  0  0  0  0  0
  -23.0797  -24.3205   19.3788 C   0  0  2  0  0  0  0  0  0  0  0  0
  -22.1198  -12.9381   19.8208 C   0  0  0  0  0  0  0  0  0  0  0  0
  -28.3505  -26.4889   20.1944 N   0  0  0  0  0  0  0  0  0  0  0  0
  -23.1304  -28.5547   20.2447 N   0  0  0  0  0  0  0  0  0  0  0  0
  -28.6690  -27.7505   19.8581 N   0  0  0  0  0  0  0  0  0  0  0  0
  -24.3857  -14.6370   22.0218 N   0  0  0  0  0  0  0  0  0  0  0  0
  -25.8232  -29.6485   21.5692 N   0  0  0  0  0  0  0  0  0  0  0  0
  -30.0837  -29.0313   18.4550 N   0  0  0  0  0  0  0  0  0  0  0  0
  -32.2988  -25.9733   18.0856 N   0  0  0  0  0  0  0  0  0  0  0  0
  -22.1631  -25.1291   20.1553 N   0  0  0  0  0  0  0  0  0  0  0  0
  -27.7601  -14.0564   21.0188 N   0  0  0  0  0  0  0  0  0  0  0  0
  -21.3894  -13.0772   22.2397 N   0  0  0  0  0  0  0  0  0  0  0  0
  -23.0399  -30.4396   17.7679 N   0  3  0  0  0  0  0  0  0  0  0  0
  -19.3805  -13.9466   25.1165 N   0  3  0  0  0  0  0  0  0  0  0  0
  -30.7043  -25.9541   16.4377 O   0  0  0  0  0  0  0  0  0  0  0  0
  -26.1200  -15.5022   20.2175 O   0  0  0  0  0  0  0  0  0  0  0  0
  -24.0575  -31.1445   21.7803 O   0  0  0  0  0  0  0  0  0  0  0  0
  -24.1382  -12.3194   21.9594 O   0  0  0  0  0  0  0  0  0  0  0  0
  -20.3733  -15.0983   22.7492 O   0  0  0  0  0  0  0  0  0  0  0  0
  -29.0019  -20.1737   19.6987 O   0  0  0  0  0  0  0  0  0  0  0  0
  -24.1459  -20.7653   22.6850 O   0  0  0  0  0  0  0  0  0  1  0  0
  -31.4313  -17.3428   15.6382 F   0  0  0  0  0  0  0  0  0  0  0  0
  -27.5515  -18.4237   18.1250 F   0  0  0  0  0  0  0  0  0  0  0  0
  1  2  1  0  0  0  0
  1  5  2  0  0  0  0
  2  6  2  0  0  0  0
  3  8  2  0  0  0  0
  3 17  1  0  0  0  0
  4  9  1  0  0  0  0
  4 17  2  0  0  0  0
  5 19  1  0  0  0  0
  6 21  1  0  0  0  0
  7 10  2  0  0  0  0
  7 20  1  0  0  0  0
  8 25  1  0  0  0  0
  9 25  2  0  0  0  0
 10 26  1  0  0  0  0
 11 12  2  0  0  0  0
 11 27  1  0  0  0  0
 12 28  1  0  0  0  0
 13 22  1  0  0  0  0
 13 26  2  0  0  0  0
 14 28  2  0  0  0  0
 14 29  1  0  0  0  0
 15 23  2  0  0  0  0
 15 68  1  0  0  0  0
 16 24  2  0  0  0  0
 16 68  1  0  0  0  0
 17 30  1  0  0  0  0
 18 30  1  0  0  0  0
 18 31  2  0  0  0  0
 18 32  1  0  0  0  0
 19 21  2  0  0  0  0
 19 37  1  0  0  0  0
 20 22  2  0  0  0  0
 20 38  1  0  0  0  0
 21 46  1  0  0  0  0
 22 39  1  0  0  0  0
 23 24  1  0  0  0  0
 23 61  1  0  0  0  0
 24 74  1  0  0  0  0
 25 84  1  0  0  0  0
 26 85  1  0  0  0  0
 27 29  2  0  0  0  0
 27 84  1  0  0  0  0
 28 86  1  0  0  0  0
 29 87  1  0  0  0  0
 30 67  2  0  0  0  0
 31 69  1  0  0  0  0
 31 72  1  0  0  0  0
 32 73  1  0  0  0  0
 32 79  2  0  0  0  0
 33 47  1  0  0  0  0
 33 75  1  0  0  0  0
 33 80  2  0  0  0  0
 34 62  1  0  0  0  0
 34 71  1  0  0  0  0
 34 81  2  0  0  0  0
 35 63  1  0  0  0  0
 35 70  1  0  0  0  0
 35 82  2  0  0  0  0
 36 64  1  0  0  0  0
 36 76  1  0  0  0  0
 36 83  2  0  0  0  0
 37 40  1  0  0  0  0
 38 47  1  0  0  0  0
 39 70  1  0  0  0  0
 40 42  1  0  0  0  0
 41 43  1  0  0  0  0
 41 44  1  0  0  0  0
 42 46  1  0  0  0  0
 43 48  1  0  0  0  0
 44 71  1  0  0  0  0
 45 48  1  0  0  0  0
 45 71  1  0  0  0  0
 46 75  1  0  0  0  0
 47 70  1  0  0  0  0
 48 69  1  0  0  0  0
 49 61  1  0  0  0  0
 50 61  1  0  0  0  0
 51 64  1  0  0  0  0
 52 65  1  0  0  0  0
 53 66  1  0  0  0  0
 54 66  1  0  0  0  0
 55 66  1  0  0  0  0
 56 78  1  0  0  0  0
 57 58  1  0  0  0  0
 57 60  1  0  0  0  0
 58 65  1  0  0  0  0
 59 62  1  0  0  0  0
 59 77  1  0  0  0  0
 60 85  1  0  0  0  0
 62 68  1  0  0  0  0
 63 66  1  0  0  0  0
 63 76  1  0  0  0  0
 64 78  1  0  0  0  0
 65 74  1  0  0  0  0
 67 69  1  0  0  0  0
M  CHG  2  77   1  78   1
M  ISO  4  34 100  60 101  62 100  85 101
M  END
> <Batch ID>
0095

> <Smiles>
CNC(C)C(=O)NC(C(=O)N1Cc2cc([101O:1][101CH2:1]CCC(C)Nc3cn([100CH:0](CN)[100C:0](=O)N4CCCC(n5nc(-c6ccc(Oc7ccc(F)cc7F)cc6)c(C(N)=O)c5N)C4)cc3C(C)C)ccc2CC1C(=O)NC1CCCc2ccccc21)C(C)(C)C

> <Shape>
0.268

> <Color>
0.068

> <Negative vol penalty>
0.000

$$$$

  -OEChem-04052319213D

 87 95  0     1  0  0  0  0  0999 V2000
  -16.9702  -28.7319   24.3644 C   0  0  0  0  0  0  0  0  0  0  0  0
  -17.6651  -27.7237   23.7040 C   0  0  0  0  0  0  0  0  0  0  0  0
  -22.6123  -14.9428   24.3470 C   0  0  0  0  0  0  0  0  0  0  0  0
  -21.9555  -15.9473   22.2502 C   0  0  0  0  0  0  0  0  0  0  0  0
  -17.2931  -30.0679   24.1308 C   0  0  0  0  0  0  0  0  0  0  0  0
  -18.6827  -28.0512   22.8087 C   0  0  0  0  0  0  0  0  0  0  0  0
  -22.8091  -25.1806   23.4233 C   0  0  0  0  0  0  0  0  0  0  0  0
  -21.5059  -15.5200   24.9701 C   0  0  0  0  0  0  0  0  0  0  0  0
  -20.8491  -16.5245   22.8733 C   0  0  0  0  0  0  0  0  0  0  0  0
  -22.7711  -23.8901   22.8970 C   0  0  0  0  0  0  0  0  0  0  0  0
  -20.2158  -19.1848   24.8614 C   0  0  0  0  0  0  0  0  0  0  0  0
  -19.9412  -20.5239   24.5840 C   0  0  0  0  0  0  0  0  0  0  0  0
  -24.0308  -24.6407   20.9815 C   0  0  0  0  0  0  0  0  0  0  0  0
  -26.3133  -20.5378   22.0610 C   0  0  0  0  0  0  0  0  0  0  0  0
  -25.7756  -20.1529   19.7486 C   0  0  0  0  0  0  0  0  0  0  0  0
  -17.7761  -19.8994   23.7125 C   0  0  0  0  0  0  0  0  0  0  0  0
  -22.8372  -15.1565   22.9870 C   0  0  0  0  0  0  0  0  0  0  0  0
  -24.0436  -13.3006   21.7190 C   0  0  0  0  0  0  0  0  0  0  0  0
  -18.3217  -30.4116   23.2395 C   0  0  0  0  0  0  0  0  0  0  0  0
  -23.4499  -26.2150   22.7262 C   0  0  0  0  0  0  0  0  0  0  0  0
  -19.0189  -29.3931   22.5619 C   0  0  0  0  0  0  0  0  0  0  0  0
  -24.0777  -25.9429   21.5023 C   0  0  0  0  0  0  0  0  0  0  0  0
  -25.3754  -20.2458   21.0769 C   0  0  0  0  0  0  0  0  0  0  0  0
  -20.6243  -16.3108   24.2333 C   0  0  0  0  0  0  0  0  0  0  0  0
  -23.3795  -23.6206   21.6746 C   0  0  0  0  0  0  0  0  0  0  0  0
  -19.2706  -18.2030   24.5642 C   0  0  0  0  0  0  0  0  0  0  0  0
  -18.7213  -20.8813   24.0096 C   0  0  0  0  0  0  0  0  0  0  0  0
  -18.0507  -18.5603   23.9898 C   0  0  0  0  0  0  0  0  0  0  0  0
  -23.9802  -14.5610   22.3429 C   0  0  0  0  0  0  0  0  0  0  0  0
  -27.6284  -20.7266   21.6679 C   0  0  0  0  0  0  0  0  0  0  0  0
  -27.1148  -20.3592   19.4589 C   0  0  0  0  0  0  0  0  0  0  0  0
  -25.3372  -13.2057   21.2674 C   0  0  0  0  0  0  0  0  0  0  0  0
  -23.0242  -12.3047   21.5617 C   0  0  0  0  0  0  0  0  0  0  0  0
  -22.5193  -28.9756   21.4548 C   0  0  0  0  0  0  0  0  0  0  0  0
  -25.6979  -29.3607   20.9350 C   0  0  0  0  0  0  0  0  0  0  0  0
  -28.7614  -27.9157   20.5182 C   0  0  0  0  0  0  0  0  0  0  0  0
  -29.4563  -17.2982   19.8060 C   0  0  0  0  0  0  0  0  0  0  0  0
  -18.6031  -31.8711   22.9836 C   0  0  0  0  0  0  0  0  0  0  0  0
  -23.5050  -27.5957   23.3203 C   0  0  0  0  0  0  0  0  0  0  0  0
  -24.7962  -27.0138   20.7243 C   0  0  0  0  0  0  0  0  0  0  0  0
  -19.9460  -32.1222   22.3026 C   0  0  0  0  0  0  0  0  0  0  0  0
  -29.7666  -14.7257   22.2478 C   0  0  0  0  0  0  0  0  0  0  0  0
  -20.1366  -31.1663   21.1293 C   0  0  0  0  0  0  0  0  0  0  0  0
  -28.3245  -14.2781   22.4928 C   0  0  0  0  0  0  0  0  0  0  0  0
  -29.8568  -16.2307   22.0052 C   0  0  0  0  0  0  0  0  0  0  0  0
  -27.5349  -16.2919   21.1814 C   0  0  0  0  0  0  0  0  0  0  0  0
  -20.1458  -29.7075   21.6020 C   0  0  1  0  0  0  0  0  0  0  0  0
  -23.7416  -28.6852   22.2789 C   0  0  1  0  0  0  0  0  0  0  0  0
  -27.3863  -14.7732   21.3757 C   0  0  2  0  0  0  0  0  0  0  0  0
  -23.7615  -18.8181   22.3763 C   0  0  0  0  0  0  0  0  0  0  0  0
  -29.3093  -22.4215   22.4776 C   0  0  0  0  0  0  0  0  0  0  0  0
  -29.7543  -19.9592   22.7841 C   0  0  0  0  0  0  0  0  0  0  0  0
  -31.1642  -28.4860   20.0726 C   0  0  0  0  0  0  0  0  0  0  0  0
  -25.0285  -29.8801   18.0038 C   0  0  0  0  0  0  0  0  0  0  0  0
  -27.4416  -29.4973   17.4571 C   0  0  0  0  0  0  0  0  0  0  0  0
  -26.7875  -31.3824   18.9542 C   0  0  0  0  0  0  0  0  0  0  0  0
  -26.5764  -20.6019   17.0482 C   0  0  0  0  0  0  0  0  0  0  0  0
  -29.6403  -26.7233   23.0803 C   0  0  0  0  0  0  0  0  0  0  0  0
  -28.8989  -18.3209   17.6145 C   0  0  0  0  0  0  0  0  0  0  0  0
  -28.8462  -19.8339   17.7600 C   0  0  0  0  0  0  0  0  0  0  0  0
  -23.2959  -21.2800   22.0874 C   0  0  0  0  0  0  0  0  0  1  0  0
  -23.9178  -20.0289   21.4522 C   0  0  1  0  0  0  0  0  0  0  0  0
  -28.6620  -21.0414   22.6973 C   0  0  0  0  0  0  0  0  0  0  0  0
  -26.6485  -29.0097   19.8160 C   0  0  1  0  0  0  0  0  0  0  0  0
  -30.1125  -28.2221   21.1388 C   0  0  2  0  0  0  0  0  0  0  0  0
  -26.4614  -29.9224   18.5713 C   0  0  0  0  0  0  0  0  0  0  0  0
  -25.1413  -15.2194   22.2941 N   0  0  0  0  0  0  0  0  0  0  0  0
  -28.0549  -20.6445   20.3876 N   0  0  0  0  0  0  0  0  0  0  0  0
  -25.9464  -14.3695   21.6342 N   0  0  0  0  0  0  0  0  0  0  0  0
  -24.8172  -28.3492   21.3437 N   0  0  0  0  0  0  0  0  0  0  0  0
  -28.9440  -16.6350   20.9332 N   0  0  0  0  0  0  0  0  0  0  0  0
  -26.0017  -12.2411   20.5963 N   0  0  0  0  0  0  0  0  0  0  0  0
  -21.7504  -12.5638   22.0857 N   0  0  0  0  0  0  0  0  0  0  0  0
  -21.4237  -29.3765   22.1953 N   0  0  0  0  0  0  0  0  0  0  0  0
  -27.9887  -29.0506   20.3909 N   0  0  0  0  0  0  0  0  0  0  0  0
  -28.5241  -17.6405   18.8340 N   0  0  0  0  0  0  0  0  0  0  0  0
  -27.5075  -20.2614   18.1009 N   0  0  3  0  0  0  0  0  0  0  0  0
  -30.5693  -27.0772   21.9764 N   0  3  0  0  0  0  0  0  0  0  0  0
  -23.2412  -11.2103   20.9883 O   0  0  0  0  0  0  0  0  0  0  0  0
  -22.5670  -28.8469   20.2370 O   0  0  0  0  0  0  0  0  0  0  0  0
  -25.7403  -30.4884   21.4331 O   0  0  0  0  0  0  0  0  0  0  0  0
  -28.4266  -26.7835   20.1768 O   0  0  0  0  0  0  0  0  0  0  0  0
  -30.6564  -17.5608   19.6730 O   0  0  0  0  0  0  0  0  0  0  0  0
  -19.5444  -16.8740   24.8409 O   0  0  0  0  0  0  0  0  0  0  0  0
  -23.3434  -22.3620   21.1583 O   0  0  0  0  0  0  0  0  0  1  0  0
  -18.4571  -22.1674   23.7447 F   0  0  0  0  0  0  0  0  0  0  0  0
  -17.1383  -17.6216   23.7033 F   0  0  0  0  0  0  0  0  0  0  0  0
  1  2  1  0  0  0  0
  1  5  2  0  0  0  0
  2  6  2  0  0  0  0
  3  8  2  0  0  0  0
  3 17  1  0  0  0  0
  4  9  1  0  0  0  0
  4 17  2  0  0  0  0
  5 19  1  0  0  0  0
  6 21  1  0  0  0  0
  7 10  2  0  0  0  0
  7 20  1  0  0  0  0
  8 24  1  0  0  0  0
  9 24  2  0  0  0  0
 10 25  1  0  0  0  0
 11 12  2  0  0  0  0
 11 26  1  0  0  0  0
 12 27  1  0  0  0  0
 13 22  1  0  0  0  0
 13 25  2  0  0  0  0
 14 23  1  0  0  0  0
 14 30  2  0  0  0  0
 15 23  2  0  0  0  0
 15 31  1  0  0  0  0
 16 27  2  0  0  0  0
 16 28  1  0  0  0  0
 17 29  1  0  0  0  0
 18 29  1  0  0  0  0
 18 32  2  0  0  0  0
 18 33  1  0  0  0  0
 19 21  2  0  0  0  0
 19 38  1  0  0  0  0
 20 22  2  0  0  0  0
 20 39  1  0  0  0  0
 21 47  1  0  0  0  0
 22 40  1  0  0  0  0
 23 62  1  0  0  0  0
 24 84  1  0  0  0  0
 25 85  1  0  0  0  0
 26 28  2  0  0  0  0
 26 84  1  0  0  0  0
 27 86  1  0  0  0  0
 28 87  1  0  0  0  0
 29 67  2  0  0  0  0
 30 63  1  0  0  0  0
 30 68  1  0  0  0  0
 31 68  2  0  0  0  0
 31 77  1  0  0  0  0
 32 69  1  0  0  0  0
 32 72  1  0  0  0  0
 33 73  1  0  0  0  0
 33 79  2  0  0  0  0
 34 48  1  0  0  0  0
 34 74  1  0  0  0  0
 34 80  2  0  0  0  0
 35 64  1  0  0  0  0
 35 70  1  0  0  0  0
 35 81  2  0  0  0  0
 36 65  1  0  0  0  0
 36 75  1  0  0  0  0
 36 82  2  0  0  0  0
 37 71  1  0  0  0  0
 37 76  1  0  0  0  0
 37 83  2  0  0  0  0
 38 41  1  0  0  0  0
 39 48  1  0  0  0  0
 40 70  1  0  0  0  0
 41 43  1  0  0  0  0
 42 44  1  0  0  0  0
 42 45  1  0  0  0  0
 43 47  1  0  0  0  0
 44 49  1  0  0  0  0
 45 71  1  0  0  0  0
 46 49  1  0  0  0  0
 46 71  1  0  0  0  0
 47 74  1  0  0  0  0
 48 70  1  0  0  0  0
 49 69  1  0  0  0  0
 50 62  1  0  0  0  0
 51 63  1  0  0  0  0
 52 63  1  0  0  0  0
 53 65  1  0  0  0  0
 54 66  1  0  0  0  0
 55 66  1  0  0  0  0
 56 66  1  0  0  0  0
 57 77  1  0  0  0  0
 58 78  1  0  0  0  0
 59 60  1  0  0  0  0
 59 76  1  0  0  0  0
 60 77  1  0  0  0  0
 61 62  1  0  0  0  0
 61 85  1  0  0  0  0
 64 66  1  0  0  0  0
 64 75  1  0  0  0  0
 65 78  1  0  0  0  0
 67 69  1  0  0  0  0
M  CHG  1  78   1
M  ISO  4  37 100  61 101  76 100  85 101
M  END
> <Batch ID>
0095

> <Smiles>
CNC(C)C(=O)NC(C(=O)N1Cc2cc([101O:1][101CH2:1]C(C)c3cc(C(C)C)nc(N(C)CC[100NH:0][100C:0](=O)N4CCCC(n5nc(-c6ccc(Oc7ccc(F)cc7F)cc6)c(C(N)=O)c5N)C4)c3)ccc2CC1C(=O)NC1CCCc2ccccc21)C(C)(C)C

> <Shape>
0.207

> <Color>
0.105

> <Negative vol penalty>
0.000

$$$$

  -OEChem-04052319213D

 87 95  0     1  0  0  0  0  0999 V2000
  -19.0035  -20.9801   25.4470 C   0  0  0  0  0  0  0  0  0  0  0  0
  -20.3939  -21.0102   25.4833 C   0  0  0  0  0  0  0  0  0  0  0  0
  -23.1187   -9.8348   19.9068 C   0  0  0  0  0  0  0  0  0  0  0  0
  -23.8811   -9.8005   22.1990 C   0  0  0  0  0  0  0  0  0  0  0  0
  -18.3103  -21.8497   24.6061 C   0  0  0  0  0  0  0  0  0  0  0  0
  -21.0920  -21.9092   24.6778 C   0  0  0  0  0  0  0  0  0  0  0  0
  -24.8282  -24.2519   27.1671 C   0  0  0  0  0  0  0  0  0  0  0  0
  -22.3996   -8.6603   20.1283 C   0  0  0  0  0  0  0  0  0  0  0  0
  -23.1620   -8.6260   22.4206 C   0  0  0  0  0  0  0  0  0  0  0  0
  -26.0051  -23.5332   27.3724 C   0  0  0  0  0  0  0  0  0  0  0  0
  -23.5222   -5.3259   21.7802 C   0  0  0  0  0  0  0  0  0  0  0  0
  -24.1601   -4.2962   22.4718 C   0  0  0  0  0  0  0  0  0  0  0  0
  -27.0240  -24.6818   25.5118 C   0  0  0  0  0  0  0  0  0  0  0  0
  -22.4575   -4.3911   24.1834 C   0  0  0  0  0  0  0  0  0  0  0  0
  -23.8594  -10.4049   20.9421 C   0  0  0  0  0  0  0  0  0  0  0  0
  -24.1478  -12.9389   20.8850 C   0  0  0  0  0  0  0  0  0  0  0  0
  -18.9999  -22.7665   23.7970 C   0  0  0  0  0  0  0  0  0  0  0  0
  -24.7366  -25.1847   26.1241 C   0  0  0  0  0  0  0  0  0  0  0  0
  -20.4074  -22.7910   23.8242 C   0  0  0  0  0  0  0  0  0  0  0  0
  -25.8456  -25.4129   25.2970 C   0  0  0  0  0  0  0  0  0  0  0  0
  -22.4212   -8.0559   21.3852 C   0  0  0  0  0  0  0  0  0  0  0  0
  -27.1023  -23.7460   26.5429 C   0  0  0  0  0  0  0  0  0  0  0  0
  -22.3520   -5.8883   22.2901 C   0  0  0  0  0  0  0  0  0  0  0  0
  -23.6278   -3.8288   23.6734 C   0  0  0  0  0  0  0  0  0  0  0  0
  -21.8197   -5.4209   23.4917 C   0  0  0  0  0  0  0  0  0  0  0  0
  -24.6029  -11.6178   20.7137 C   0  0  0  0  0  0  0  0  0  0  0  0
  -29.5041  -21.0367   26.1920 C   0  0  0  0  0  0  0  0  0  0  0  0
  -28.3929  -21.8383   26.0763 C   0  0  0  0  0  0  0  0  0  1  0  0
  -25.2234  -13.7201   20.5399 C   0  0  0  0  0  0  0  0  0  0  0  0
  -28.0107  -20.1532   24.8334 C   0  0  0  0  0  0  0  0  0  0  0  0
  -22.8672  -13.4171   21.3176 C   0  0  0  0  0  0  0  0  0  0  0  0
  -22.9355  -25.4685   23.5204 C   0  0  0  0  0  0  0  0  0  0  0  0
  -24.4365  -28.3330   23.2683 C   0  0  0  0  0  0  0  0  0  0  0  0
  -27.1521  -30.2573   24.0231 C   0  0  0  0  0  0  0  0  0  0  0  0
  -30.6847  -14.8498   20.7498 C   0  0  0  0  0  0  0  0  0  0  0  0
  -18.2088  -23.6542   22.8692 C   0  0  0  0  0  0  0  0  0  0  0  0
  -23.4689  -25.9712   25.9326 C   0  0  0  0  0  0  0  0  0  0  0  0
  -25.8053  -26.4178   24.1758 C   0  0  0  0  0  0  0  0  0  0  0  0
  -19.0100  -24.8339   22.3247 C   0  0  0  0  0  0  0  0  0  0  0  0
  -29.5947  -12.5022   18.3049 C   0  0  0  0  0  0  0  0  0  0  0  0
  -20.3785  -24.3697   21.8362 C   0  0  0  0  0  0  0  0  0  0  0  0
  -28.1643  -12.1674   18.7314 C   0  0  0  0  0  0  0  0  0  0  0  0
  -30.5084  -12.7122   19.5103 C   0  0  0  0  0  0  0  0  0  0  0  0
  -28.5934  -13.3681   20.9161 C   0  0  0  0  0  0  0  0  0  0  0  0
  -21.1993  -23.7689   22.9837 C   0  0  1  0  0  0  0  0  0  0  0  0
  -23.3167  -26.5244   24.5191 C   0  0  1  0  0  0  0  0  0  0  0  0
  -27.6217  -13.2024   19.7351 C   0  0  2  0  0  0  0  0  0  0  0  0
  -27.4055  -19.1780   23.9034 C   0  0  0  0  0  0  0  0  0  0  0  0
  -30.5126  -21.2292   28.4941 C   0  0  0  0  0  0  0  0  0  0  0  0
  -31.5781  -22.4247   26.5471 C   0  0  0  0  0  0  0  0  0  0  0  0
  -28.1115  -32.5451   23.6453 C   0  0  0  0  0  0  0  0  0  0  0  0
  -25.2090  -27.5370   20.4258 C   0  0  0  0  0  0  0  0  0  0  0  0
  -26.9119  -29.3721   20.4492 C   0  0  0  0  0  0  0  0  0  0  0  0
  -24.4892  -29.9182   20.6832 C   0  0  0  0  0  0  0  0  0  0  0  0
  -33.2620  -18.5402   22.8475 C   0  0  0  0  0  0  0  0  0  0  0  0
  -33.0108  -17.6066   25.1423 C   0  0  0  0  0  0  0  0  0  0  0  0
  -27.1503  -30.8633   26.9199 C   0  0  0  0  0  0  0  0  0  0  0  0
  -31.2528  -19.1783   24.2019 C   0  0  0  0  0  0  0  0  0  0  0  0
  -31.5212  -16.7562   23.3152 C   0  0  0  0  0  0  0  0  0  0  0  0
  -30.1156  -18.8289   25.1712 C   0  0  0  0  0  0  0  0  0  0  0  0
  -30.7066  -16.9697   22.0400 C   0  0  0  0  0  0  0  0  0  0  0  0
  -30.7498  -21.1869   26.9658 C   0  0  0  0  0  0  0  0  0  0  0  0
  -25.7042  -28.8215   22.6101 C   0  0  1  0  0  0  0  0  0  0  0  0
  -27.2658  -31.6727   24.5598 C   0  0  2  0  0  0  0  0  0  0  0  0
  -25.5790  -28.8918   21.0619 C   0  0  0  0  0  0  0  0  0  0  0  0
  -32.2337  -18.0182   23.8739 C   0  0  0  0  0  0  0  0  0  0  0  0
  -25.8690  -11.5592   20.2922 N   0  0  0  0  0  0  0  0  0  0  0  0
  -27.4670  -21.2826   25.2293 N   0  0  0  0  0  0  0  0  0  0  0  0
  -29.2446  -19.9613   25.3900 N   0  0  0  0  0  0  0  0  0  0  0  0
  -26.2186  -12.8533   20.1958 N   0  0  0  0  0  0  0  0  0  0  0  0
  -24.5412  -27.1573   24.0249 N   0  0  0  0  0  0  0  0  0  0  0  0
  -29.9374  -13.7064   20.4221 N   0  0  0  0  0  0  0  0  0  0  0  0
  -25.4056  -15.0572   20.5000 N   0  0  0  0  0  0  0  0  0  0  0  0
  -21.8751  -12.4786   21.6328 N   0  0  0  0  0  0  0  0  0  0  0  0
  -21.7519  -24.8182   23.8132 N   0  0  0  0  0  0  0  0  0  0  0  0
  -26.0273  -30.0961   23.2419 N   0  0  0  0  0  0  0  0  0  0  0  0
  -30.0671  -15.7444   21.6152 N   0  0  0  0  0  0  0  0  0  0  0  0
  -27.8913  -31.6651   25.9125 N   0  3  0  0  0  0  0  0  0  0  0  0
  -22.6051  -14.6407   21.4059 O   0  0  0  0  0  0  0  0  0  0  0  0
  -23.6608  -25.2601   22.5548 O   0  0  0  0  0  0  0  0  0  0  0  0
  -23.3933  -28.9751   23.1226 O   0  0  0  0  0  0  0  0  0  0  0  0
  -27.9803  -29.3832   24.2689 O   0  0  0  0  0  0  0  0  0  0  0  0
  -31.8161  -15.0605   20.2999 O   0  0  0  0  0  0  0  0  0  0  0  0
  -21.7195   -6.9100   21.6019 O   0  0  0  0  0  0  0  0  0  0  0  0
  -28.2520  -23.0453   26.7406 O   0  0  0  0  0  0  0  0  0  1  0  0
  -24.2396   -2.8389   24.3367 F   0  0  0  0  0  0  0  0  0  0  0  0
  -20.6951   -5.9564   23.9860 F   0  0  0  0  0  0  0  0  0  0  0  0
  1  2  1  0  0  0  0
  1  5  2  0  0  0  0
  2  6  2  0  0  0  0
  3  8  2  0  0  0  0
  3 15  1  0  0  0  0
  4  9  1  0  0  0  0
  4 15  2  0  0  0  0
  5 17  1  0  0  0  0
  6 19  1  0  0  0  0
  7 10  2  0  0  0  0
  7 18  1  0  0  0  0
  8 21  1  0  0  0  0
  9 21  2  0  0  0  0
 10 22  1  0  0  0  0
 11 12  2  0  0  0  0
 11 23  1  0  0  0  0
 12 24  1  0  0  0  0
 13 20  1  0  0  0  0
 13 22  2  0  0  0  0
 14 24  2  0  0  0  0
 14 25  1  0  0  0  0
 15 26  1  0  0  0  0
 16 26  1  0  0  0  0
 16 29  2  0  0  0  0
 16 31  1  0  0  0  0
 17 19  2  0  0  0  0
 17 36  1  0  0  0  0
 18 20  2  0  0  0  0
 18 37  1  0  0  0  0
 19 45  1  0  0  0  0
 20 38  1  0  0  0  0
 21 84  1  0  0  0  0
 22 85  1  0  0  0  0
 23 25  2  0  0  0  0
 23 84  1  0  0  0  0
 24 86  1  0  0  0  0
 25 87  1  0  0  0  0
 26 67  2  0  0  0  0
 27 28  2  0  0  0  0
 27 62  1  0  0  0  0
 27 69  1  0  0  0  0
 28 68  1  0  0  0  0
 28 85  1  0  0  0  0
 29 70  1  0  0  0  0
 29 73  1  0  0  0  0
 30 48  1  0  0  0  0
 30 68  2  0  0  0  0
 30 69  1  0  0  0  0
 31 74  1  0  0  0  0
 31 79  2  0  0  0  0
 32 46  1  0  0  0  0
 32 75  1  0  0  0  0
 32 80  2  0  0  0  0
 33 63  1  0  0  0  0
 33 71  1  0  0  0  0
 33 81  2  0  0  0  0
 34 64  1  0  0  0  0
 34 76  1  0  0  0  0
 34 82  2  0  0  0  0
 35 72  1  0  0  0  0
 35 77  1  0  0  0  0
 35 83  2  0  0  0  0
 36 39  1  0  0  0  0
 37 46  1  0  0  0  0
 38 71  1  0  0  0  0
 39 41  1  0  0  0  0
 40 42  1  0  0  0  0
 40 43  1  0  0  0  0
 41 45  1  0  0  0  0
 42 47  1  0  0  0  0
 43 72  1  0  0  0  0
 44 47  1  0  0  0  0
 44 72  1  0  0  0  0
 45 75  1  0  0  0  0
 46 71  1  0  0  0  0
 47 70  1  0  0  0  0
 49 62  1  0  0  0  0
 50 62  1  0  0  0  0
 51 64  1  0  0  0  0
 52 65  1  0  0  0  0
 53 65  1  0  0  0  0
 54 65  1  0  0  0  0
 55 66  1  0  0  0  0
 56 66  1  0  0  0  0
 57 78  1  0  0  0  0
 58 60  1  0  0  0  0
 58 66  1  0  0  0  0
 59 61  1  0  0  0  0
 59 66  1  0  0  0  0
 60 69  1  0  0  0  0
 61 77  1  0  0  0  0
 63 65  1  0  0  0  0
 63 76  1  0  0  0  0
 64 78  1  0  0  0  0
 67 70  1  0  0  0  0
M  CHG  1  78   1
M  ISO  4  28 101  35 100  77 100  85 101
M  END
> <Batch ID>
0095

> <Smiles>
CNC(C)C(=O)NC(C(=O)N1Cc2cc([101O:1][101c:1]3nc(C)n(CCC(C)(C)CC[100NH:0][100C:0](=O)N4CCCC(n5nc(-c6ccc(Oc7ccc(F)cc7F)cc6)c(C(N)=O)c5N)C4)c3C(C)C)ccc2CC1C(=O)NC1CCCc2ccccc21)C(C)(C)C

> <Shape>
0.245

> <Color>
0.206

> <Negative vol penalty>
0.000

$$$$

  -OEChem-04052319213D

 94103  0     1  0  0  0  0  0999 V2000
  -30.3452  -29.0719   21.2843 C   0  0  0  0  0  0  0  0  0  0  0  0
  -29.5959  -28.1333   21.9864 C   0  0  0  0  0  0  0  0  0  0  0  0
  -30.7296  -22.0116   21.2300 C   0  0  0  0  0  0  0  0  0  0  0  0
  -28.4036  -22.3682   20.6823 C   0  0  0  0  0  0  0  0  0  0  0  0
  -29.7849  -30.3061   20.9573 C   0  0  0  0  0  0  0  0  0  0  0  0
  -28.2861  -28.4287   22.3627 C   0  0  0  0  0  0  0  0  0  0  0  0
  -25.0965  -24.5988   21.4662 C   0  0  0  0  0  0  0  0  0  0  0  0
  -31.0482  -23.2565   20.6873 C   0  0  0  0  0  0  0  0  0  0  0  0
  -28.7223  -23.6131   20.1397 C   0  0  0  0  0  0  0  0  0  0  0  0
  -25.1084  -23.5359   22.3683 C   0  0  0  0  0  0  0  0  0  0  0  0
  -28.9741  -26.7292   18.2859 C   0  0  0  0  0  0  0  0  0  0  0  0
  -28.4065  -27.0652   17.0569 C   0  0  0  0  0  0  0  0  0  0  0  0
  -23.1438  -24.4335   23.4425 C   0  0  0  0  0  0  0  0  0  0  0  0
  -23.8460  -15.4445   23.2690 C   0  0  0  0  0  0  0  0  0  0  0  0
  -29.4762  -25.1525   16.0398 C   0  0  0  0  0  0  0  0  0  0  0  0
  -25.3445  -15.5757   25.1112 C   0  0  0  0  0  0  0  0  0  0  0  0
  -29.4073  -21.5674   21.2274 C   0  0  0  0  0  0  0  0  0  0  0  0
  -28.7206  -20.0005   23.1197 C   0  0  0  0  0  0  0  0  0  0  0  0
  -28.4644  -30.6130   21.3214 C   0  0  0  0  0  0  0  0  0  0  0  0
  -24.1129  -25.5946   21.5524 C   0  0  0  0  0  0  0  0  0  0  0  0
  -27.7081  -29.6686   22.0414 C   0  0  0  0  0  0  0  0  0  0  0  0
  -23.1201  -25.5066   22.5387 C   0  0  0  0  0  0  0  0  0  0  0  0
  -24.3295  -16.1515   24.3642 C   0  0  0  0  0  0  0  0  0  0  0  0
  -24.3847  -14.2008   22.9585 C   0  0  0  0  0  0  0  0  0  0  0  0
  -30.0446  -24.0572   20.1422 C   0  0  0  0  0  0  0  0  0  0  0  0
  -24.1336  -23.4546   23.3584 C   0  0  0  0  0  0  0  0  0  0  0  0
  -29.7929  -25.6048   18.3919 C   0  0  0  0  0  0  0  0  0  0  0  0
  -28.6575  -26.2769   15.9339 C   0  0  0  0  0  0  0  0  0  0  0  0
  -30.0439  -24.8165   17.2688 C   0  0  0  0  0  0  0  0  0  0  0  0
  -29.0776  -20.2814   21.7872 C   0  0  0  0  0  0  0  0  0  0  0  0
  -25.3973  -13.7123   23.7683 C   0  0  0  0  0  0  0  0  0  0  0  0
  -28.5071  -18.6439   23.1393 C   0  0  0  0  0  0  0  0  0  0  0  0
  -28.5932  -20.8868   24.2396 C   0  0  0  0  0  0  0  0  0  0  0  0
  -24.1347  -28.7294   22.0778 C   0  0  0  0  0  0  0  0  0  0  0  0
  -20.9674  -28.4665   21.4282 C   0  0  0  0  0  0  0  0  0  0  0  0
  -18.1866  -26.4913   21.3186 C   0  0  0  0  0  0  0  0  0  0  0  0
  -26.3873  -14.4046   19.8153 C   0  0  0  0  0  0  0  0  0  0  0  0
  -27.9178  -31.9783   20.9870 C   0  0  0  0  0  0  0  0  0  0  0  0
  -24.0983  -26.7204   20.5551 C   0  0  0  0  0  0  0  0  0  0  0  0
  -22.0303  -26.5390   22.6612 C   0  0  0  0  0  0  0  0  0  0  0  0
  -26.3979  -32.0693   21.0957 C   0  0  0  0  0  0  0  0  0  0  0  0
  -28.1714   -7.7510   25.2043 C   0  0  0  0  0  0  0  0  0  0  0  0
  -29.2379   -8.8359   25.0901 C   0  0  0  0  0  0  0  0  0  0  0  0
  -26.9948   -8.0206   24.2715 C   0  0  0  0  0  0  0  0  0  0  0  0
  -29.8886  -14.8577   20.2760 C   0  0  0  0  0  0  0  0  0  0  0  0
  -25.9166  -31.4324   22.3955 C   0  0  0  0  0  0  0  0  0  0  0  0
  -28.6519  -10.2278   25.3158 C   0  0  0  0  0  0  0  0  0  0  0  0
  -26.4052   -9.4112   24.4956 C   0  0  0  0  0  0  0  0  0  0  0  0
  -30.0032  -16.2764   20.8365 C   0  0  0  0  0  0  0  0  0  0  0  0
  -28.7721  -14.7487   19.2400 C   0  0  0  0  0  0  0  0  0  0  0  0
  -27.5677  -16.6420   20.2592 C   0  0  0  0  0  0  0  0  0  0  0  0
  -26.2757  -29.9424   22.4457 C   0  0  1  0  0  0  0  0  0  0  0  0
  -23.3523  -27.9531   21.0565 C   0  0  1  0  0  0  0  0  0  0  0  0
  -27.4735  -10.5061   24.3728 C   0  0  0  0  0  0  0  0  0  0  0  0
  -28.6436  -16.7884   21.3489 C   0  0  2  0  0  0  0  0  0  0  0  0
  -15.7360  -26.5676   20.7837 C   0  0  0  0  0  0  0  0  0  0  0  0
  -20.4338  -29.8701   24.0843 C   0  0  0  0  0  0  0  0  0  0  0  0
  -18.0628  -29.0779   23.9469 C   0  0  0  0  0  0  0  0  0  0  0  0
  -18.9668  -30.6115   22.1995 C   0  0  0  0  0  0  0  0  0  0  0  0
  -18.4805  -24.5031   19.1461 C   0  0  0  0  0  0  0  0  0  0  0  0
  -21.9155  -12.3279   20.7144 C   0  0  0  0  0  0  0  0  0  0  0  0
  -22.2110  -12.2134   23.1842 C   0  0  0  0  0  0  0  0  0  0  0  0
  -23.7678  -17.5030   24.7273 C   0  0  0  0  0  0  0  0  0  0  0  0
  -26.0141  -12.3822   23.4823 C   0  0  0  0  0  0  0  0  0  0  0  0
  -26.8711  -11.8815   24.6537 C   0  0  0  0  0  0  0  0  0  0  0  0
  -24.4915  -18.6752   24.0555 C   0  0  0  0  0  0  0  0  0  0  0  0
  -23.9580  -20.0394   24.4952 C   0  0  0  0  0  0  0  0  0  0  0  0
  -23.9987  -14.2084   20.4598 C   0  0  0  0  0  0  0  0  0  0  0  0
  -24.6729  -21.1767   23.7783 C   0  0  0  0  0  0  0  0  0  1  0  0
  -23.8700  -13.4371   21.7875 C   0  0  2  0  0  0  0  0  0  0  0  0
  -19.7268  -28.2006   22.2461 C   0  0  1  0  0  0  0  0  0  0  0  0
  -17.1317  -26.2956   20.2446 C   0  0  2  0  0  0  0  0  0  0  0  0
  -19.3191  -29.4215   23.1184 C   0  0  0  0  0  0  0  0  0  0  0  0
  -25.8928  -14.3700   24.8405 N   0  0  0  0  0  0  0  0  0  0  0  0
  -29.0914  -19.1908   21.0163 N   0  0  0  0  0  0  0  0  0  0  0  0
  -28.7405  -18.2114   21.8671 N   0  0  0  0  0  0  0  0  0  0  0  0
  -22.0625  -27.6240   21.6665 N   0  0  0  0  0  0  0  0  0  0  0  0
  -27.5095  -15.2490   19.7892 N   0  0  0  0  0  0  0  0  0  0  0  0
  -28.1445  -17.7906   24.1206 N   0  0  0  0  0  0  0  0  0  0  0  0
  -28.8491  -22.2509   24.0445 N   0  0  0  0  0  0  0  0  0  0  0  0
  -25.3626  -29.1745   21.6266 N   0  0  0  0  0  0  0  0  0  0  0  0
  -18.7003  -27.7708   21.3028 N   0  0  0  0  0  0  0  0  0  0  0  0
  -25.2328  -14.9551   20.3581 N   0  0  0  0  0  0  0  0  0  0  0  0
  -17.1719  -24.8984   19.7277 N   0  3  0  0  0  0  0  0  0  0  0  0
  -22.4295  -13.0237   21.9404 N   0  3  0  0  0  0  0  0  0  0  0  0
  -28.2784  -20.4786   25.3831 O   0  0  0  0  0  0  0  0  0  0  0  0
  -23.6588  -28.9124   23.1921 O   0  0  0  0  0  0  0  0  0  0  0  0
  -20.9627  -29.3834   20.6029 O   0  0  0  0  0  0  0  0  0  0  0  0
  -18.5188  -25.5995   22.0964 O   0  0  0  0  0  0  0  0  0  0  0  0
  -26.4139  -13.2441   19.3916 O   0  0  0  0  0  0  0  0  0  0  0  0
  -30.3551  -25.2721   19.6129 O   0  0  0  0  0  0  0  0  0  0  0  0
  -24.1433  -22.4185   24.2406 O   0  0  0  0  0  0  0  0  0  1  0  0
  -28.1111  -26.5989   14.7541 F   0  0  0  0  0  0  0  0  0  0  0  0
  -30.8287  -23.7345   17.3647 F   0  0  0  0  0  0  0  0  0  0  0  0
  1  2  1  0  0  0  0
  1  5  2  0  0  0  0
  2  6  2  0  0  0  0
  3  8  2  0  0  0  0
  3 17  1  0  0  0  0
  4  9  1  0  0  0  0
  4 17  2  0  0  0  0
  5 19  1  0  0  0  0
  6 21  1  0  0  0  0
  7 10  2  0  0  0  0
  7 20  1  0  0  0  0
  8 25  1  0  0  0  0
  9 25  2  0  0  0  0
 10 26  1  0  0  0  0
 11 12  2  0  0  0  0
 11 27  1  0  0  0  0
 12 28  1  0  0  0  0
 13 22  1  0  0  0  0
 13 26  2  0  0  0  0
 14 23  2  0  0  0  0
 14 24  1  0  0  0  0
 15 28  2  0  0  0  0
 15 29  1  0  0  0  0
 16 23  1  0  0  0  0
 16 74  2  0  0  0  0
 17 30  1  0  0  0  0
 18 30  1  0  0  0  0
 18 32  2  0  0  0  0
 18 33  1  0  0  0  0
 19 21  2  0  0  0  0
 19 38  1  0  0  0  0
 20 22  2  0  0  0  0
 20 39  1  0  0  0  0
 21 52  1  0  0  0  0
 22 40  1  0  0  0  0
 23 63  1  0  0  0  0
 24 31  2  0  0  0  0
 24 70  1  0  0  0  0
 25 91  1  0  0  0  0
 26 92  1  0  0  0  0
 27 29  2  0  0  0  0
 27 91  1  0  0  0  0
 28 93  1  0  0  0  0
 29 94  1  0  0  0  0
 30 75  2  0  0  0  0
 31 64  1  0  0  0  0
 31 74  1  0  0  0  0
 32 76  1  0  0  0  0
 32 79  1  0  0  0  0
 33 80  1  0  0  0  0
 33 86  2  0  0  0  0
 34 53  1  0  0  0  0
 34 81  1  0  0  0  0
 34 87  2  0  0  0  0
 35 71  1  0  0  0  0
 35 77  1  0  0  0  0
 35 88  2  0  0  0  0
 36 72  1  0  0  0  0
 36 82  1  0  0  0  0
 36 89  2  0  0  0  0
 37 78  1  0  0  0  0
 37 83  1  0  0  0  0
 37 90  2  0  0  0  0
 38 41  1  0  0  0  0
 39 53  1  0  0  0  0
 40 77  1  0  0  0  0
 41 46  1  0  0  0  0
 42 43  1  0  0  0  0
 42 44  1  0  0  0  0
 43 47  1  0  0  0  0
 44 48  1  0  0  0  0
 45 49  1  0  0  0  0
 45 50  1  0  0  0  0
 46 52  1  0  0  0  0
 47 54  1  0  0  0  0
 48 54  1  0  0  0  0
 49 55  1  0  0  0  0
 50 78  1  0  0  0  0
 51 55  1  0  0  0  0
 51 78  1  0  0  0  0
 52 81  1  0  0  0  0
 53 77  1  0  0  0  0
 54 65  1  0  0  0  0
 55 76  1  0  0  0  0
 56 72  1  0  0  0  0
 57 73  1  0  0  0  0
 58 73  1  0  0  0  0
 59 73  1  0  0  0  0
 60 84  1  0  0  0  0
 61 85  1  0  0  0  0
 62 85  1  0  0  0  0
 63 66  1  0  0  0  0
 64 65  1  0  0  0  0
 66 67  1  0  0  0  0
 67 69  1  0  0  0  0
 68 70  1  0  0  0  0
 68 83  1  0  0  0  0
 69 92  1  0  0  0  0
 70 85  1  0  0  0  0
 71 73  1  0  0  0  0
 71 82  1  0  0  0  0
 72 84  1  0  0  0  0
 75 76  1  0  0  0  0
M  CHG  2  84   1  85   1
M  ISO  4  37 100  69 101  83 100  92 101
M  END
> <Batch ID>
0095

> <Smiles>
CNC(C)C(=O)NC(C(=O)N1Cc2cc([101O:1][101CH2:1]CCCc3cnc(CCC4CCCCC4)c(C(C[100NH:0][100C:0](=O)N4CCCC(n5nc(-c6ccc(Oc7ccc(F)cc7F)cc6)c(C(N)=O)c5N)C4)N(C)C)c3)ccc2CC1C(=O)NC1CCCc2ccccc21)C(C)(C)C

> <Shape>
0.224

> <Color>
0.066

> <Negative vol penalty>
0.000

$$$$

  -OEChem-04052319213D

 82 90  0     1  0  0  0  0  0999 V2000
  -28.2798  -21.4344   11.2695 C   0  0  0  0  0  0  0  0  0  0  0  0
  -28.8798  -21.5169   12.5220 C   0  0  0  0  0  0  0  0  0  0  0  0
  -23.0684   -9.8676   19.9528 C   0  0  0  0  0  0  0  0  0  0  0  0
  -23.8584   -9.8759   22.2359 C   0  0  0  0  0  0  0  0  0  0  0  0
  -27.9473  -22.5992   10.5791 C   0  0  0  0  0  0  0  0  0  0  0  0
  -29.1487  -22.7643   13.0842 C   0  0  0  0  0  0  0  0  0  0  0  0
  -27.8412  -23.0154   17.9702 C   0  0  0  0  0  0  0  0  0  0  0  0
  -22.3317   -8.7119   20.2119 C   0  0  0  0  0  0  0  0  0  0  0  0
  -23.1216   -8.7202   22.4951 C   0  0  0  0  0  0  0  0  0  0  0  0
  -28.7034  -22.4224   18.8913 C   0  0  0  0  0  0  0  0  0  0  0  0
  -19.9044   -7.9115   23.1397 C   0  0  0  0  0  0  0  0  0  0  0  0
  -19.1631   -7.8685   24.3204 C   0  0  0  0  0  0  0  0  0  0  0  0
  -29.6297  -24.5886   19.4097 C   0  0  0  0  0  0  0  0  0  0  0  0
  -31.9682  -16.7475   23.1081 C   0  0  0  0  0  0  0  0  0  0  0  0
  -20.4204   -5.9348   25.0394 C   0  0  0  0  0  0  0  0  0  0  0  0
  -31.2453  -17.9649   21.3574 C   0  0  0  0  0  0  0  0  0  0  0  0
  -23.8318  -10.4496   20.9648 C   0  0  0  0  0  0  0  0  0  0  0  0
  -24.1637  -12.9759   20.8416 C   0  0  0  0  0  0  0  0  0  0  0  0
  -28.2034  -23.8614   11.1374 C   0  0  0  0  0  0  0  0  0  0  0  0
  -27.8743  -24.4005   17.7536 C   0  0  0  0  0  0  0  0  0  0  0  0
  -28.8205  -23.9470   12.4000 C   0  0  0  0  0  0  0  0  0  0  0  0
  -28.7651  -25.1971   18.4871 C   0  0  0  0  0  0  0  0  0  0  0  0
  -31.0746  -16.7634   22.0089 C   0  0  0  0  0  0  0  0  0  0  0  0
  -22.3583   -8.1382   21.4830 C   0  0  0  0  0  0  0  0  0  0  0  0
  -29.5999  -23.2086   19.6092 C   0  0  0  0  0  0  0  0  0  0  0  0
  -20.9037   -6.9661   22.9087 C   0  0  0  0  0  0  0  0  0  0  0  0
  -19.4211   -6.8802   25.2703 C   0  0  0  0  0  0  0  0  0  0  0  0
  -21.1617   -5.9778   23.8586 C   0  0  0  0  0  0  0  0  0  0  0  0
  -24.5935  -11.6431   20.6975 C   0  0  0  0  0  0  0  0  0  0  0  0
  -32.6577  -17.9399   23.0950 C   0  0  0  0  0  0  0  0  0  0  0  0
  -25.2485  -13.7292   20.4643 C   0  0  0  0  0  0  0  0  0  0  0  0
  -22.8972  -13.4873   21.2775 C   0  0  0  0  0  0  0  0  0  0  0  0
  -28.5076  -26.2663   15.2593 C   0  0  0  0  0  0  0  0  0  0  0  0
  -30.7532  -14.6998   20.6775 C   0  0  0  0  0  0  0  0  0  0  0  0
  -27.5713  -28.6245   17.2804 C   0  0  0  0  0  0  0  0  0  0  0  0
  -27.1476  -29.6854   20.4963 C   0  0  0  0  0  0  0  0  0  0  0  0
  -27.8693  -25.0925   10.3326 C   0  0  0  0  0  0  0  0  0  0  0  0
  -26.9191  -25.0282   16.7758 C   0  0  0  0  0  0  0  0  0  0  0  0
  -28.8262  -26.6911   18.3064 C   0  0  0  0  0  0  0  0  0  0  0  0
  -27.8461  -26.3742   11.1615 C   0  0  0  0  0  0  0  0  0  0  0  0
  -29.5632  -12.4006   18.2002 C   0  0  0  0  0  0  0  0  0  0  0  0
  -29.0753  -26.4503   12.0615 C   0  0  0  0  0  0  0  0  0  0  0  0
  -28.1397  -12.0849   18.6577 C   0  0  0  0  0  0  0  0  0  0  0  0
  -30.4988  -12.6057   19.3875 C   0  0  0  0  0  0  0  0  0  0  0  0
  -28.6117  -13.3335   20.8125 C   0  0  0  0  0  0  0  0  0  0  0  0
  -29.1055  -25.2817   13.0539 C   0  0  1  0  0  0  0  0  0  0  0  0
  -27.3948  -26.3837   16.2621 C   0  0  1  0  0  0  0  0  0  0  0  0
  -27.6273  -13.1493   19.6440 C   0  0  2  0  0  0  0  0  0  0  0  0
  -33.7039  -18.4402   24.0106 C   0  0  0  0  0  0  0  0  0  0  0  0
  -26.4007  -31.6740   21.8323 C   0  0  0  0  0  0  0  0  0  0  0  0
  -30.2388  -22.5203   23.4212 C   0  0  0  0  0  0  0  0  0  0  0  0
  -30.2167  -30.0203   16.6773 C   0  0  0  0  0  0  0  0  0  0  0  0
  -29.8425  -31.4507   18.6977 C   0  0  0  0  0  0  0  0  0  0  0  0
  -28.2361  -31.5429   16.7915 C   0  0  0  0  0  0  0  0  0  0  0  0
  -24.9422  -28.1608   21.7496 C   0  0  0  0  0  0  0  0  0  0  0  0
  -30.1344  -15.6913   21.6304 C   0  0  0  0  0  0  0  0  0  0  0  0
  -32.1536  -21.1753   22.5206 C   0  0  0  0  0  0  0  0  0  0  0  0
  -32.6924  -20.0455   21.6319 C   0  0  0  0  0  0  0  0  0  0  0  0
  -29.9868  -21.4473   21.1597 C   0  0  0  0  0  0  0  0  0  1  0  0
  -28.2665  -29.5064   18.2893 C   0  0  1  0  0  0  0  0  0  0  0  0
  -25.9782  -30.3630   21.1876 C   0  0  2  0  0  0  0  0  0  0  0  0
  -30.6154  -21.3129   22.5531 C   0  0  2  0  0  0  0  0  0  0  0  0
  -29.1409  -30.6017   17.6162 C   0  0  0  0  0  0  0  0  0  0  0  0
  -25.8530  -11.5517   20.2626 N   0  0  0  0  0  0  0  0  0  0  0  0
  -32.2098  -18.6721   22.0266 N   0  0  0  0  0  0  0  0  0  0  0  0
  -26.2240  -12.8365   20.1300 N   0  0  0  0  0  0  0  0  0  0  0  0
  -27.8764  -27.2571   17.3342 N   0  0  0  0  0  0  0  0  0  0  0  0
  -29.9658  -13.6078   20.3121 N   0  0  0  0  0  0  0  0  0  0  0  0
  -25.4535  -15.0614   20.3892 N   0  0  0  0  0  0  0  0  0  0  0  0
  -21.8928  -12.5747   21.6276 N   0  0  0  0  0  0  0  0  0  0  0  0
  -28.1826  -25.5195   14.1431 N   0  0  0  0  0  0  0  0  0  0  0  0
  -27.2216  -30.0292   19.1630 N   0  0  0  0  0  0  0  0  0  0  0  0
  -25.4189  -29.4769   22.2473 N   0  3  0  0  0  0  0  0  0  0  0  0
  -22.6576  -14.7171   21.3386 O   0  0  0  0  0  0  0  0  0  0  0  0
  -29.5811  -26.8142   15.4812 O   0  0  0  0  0  0  0  0  0  0  0  0
  -31.9012  -14.8933   20.2690 O   0  0  0  0  0  0  0  0  0  0  0  0
  -26.7811  -29.1292   16.4789 O   0  0  0  0  0  0  0  0  0  0  0  0
  -27.9204  -28.9298   21.0814 O   0  0  0  0  0  0  0  0  0  0  0  0
  -21.6393   -7.0106   21.7363 O   0  0  0  0  0  0  0  0  0  0  0  0
  -30.4431  -22.6322   20.5084 O   0  0  0  0  0  0  0  0  0  1  0  0
  -18.7102   -6.8400   26.4049 F   0  0  0  0  0  0  0  0  0  0  0  0
  -22.1213   -5.0676   23.6429 F   0  0  0  0  0  0  0  0  0  0  0  0
  1  2  1  0  0  0  0
  1  5  2  0  0  0  0
  2  6  2  0  0  0  0
  3  8  2  0  0  0  0
  3 17  1  0  0  0  0
  4  9  1  0  0  0  0
  4 17  2  0  0  0  0
  5 19  1  0  0  0  0
  6 21  1  0  0  0  0
  7 10  2  0  0  0  0
  7 20  1  0  0  0  0
  8 24  1  0  0  0  0
  9 24  2  0  0  0  0
 10 25  1  0  0  0  0
 11 12  2  0  0  0  0
 11 26  1  0  0  0  0
 12 27  1  0  0  0  0
 13 22  1  0  0  0  0
 13 25  2  0  0  0  0
 14 23  1  0  0  0  0
 14 30  2  0  0  0  0
 15 27  2  0  0  0  0
 15 28  1  0  0  0  0
 16 23  2  0  0  0  0
 16 65  1  0  0  0  0
 17 29  1  0  0  0  0
 18 29  1  0  0  0  0
 18 31  2  0  0  0  0
 18 32  1  0  0  0  0
 19 21  2  0  0  0  0
 19 37  1  0  0  0  0
 20 22  2  0  0  0  0
 20 38  1  0  0  0  0
 21 46  1  0  0  0  0
 22 39  1  0  0  0  0
 23 56  1  0  0  0  0
 24 79  1  0  0  0  0
 25 80  1  0  0  0  0
 26 28  2  0  0  0  0
 26 79  1  0  0  0  0
 27 81  1  0  0  0  0
 28 82  1  0  0  0  0
 29 64  2  0  0  0  0
 30 49  1  0  0  0  0
 30 65  1  0  0  0  0
 31 66  1  0  0  0  0
 31 69  1  0  0  0  0
 32 70  1  0  0  0  0
 32 74  2  0  0  0  0
 33 47  1  0  0  0  0
 33 71  1  0  0  0  0
 33 75  2  0  0  0  0
 34 56  1  0  0  0  0
 34 68  1  0  0  0  0
 34 76  2  0  0  0  0
 35 60  1  0  0  0  0
 35 67  1  0  0  0  0
 35 77  2  0  0  0  0
 36 61  1  0  0  0  0
 36 72  1  0  0  0  0
 36 78  2  0  0  0  0
 37 40  1  0  0  0  0
 38 47  1  0  0  0  0
 39 67  1  0  0  0  0
 40 42  1  0  0  0  0
 41 43  1  0  0  0  0
 41 44  1  0  0  0  0
 42 46  1  0  0  0  0
 43 48  1  0  0  0  0
 44 68  1  0  0  0  0
 45 48  1  0  0  0  0
 45 68  1  0  0  0  0
 46 71  1  0  0  0  0
 47 67  1  0  0  0  0
 48 66  1  0  0  0  0
 50 61  1  0  0  0  0
 51 62  1  0  0  0  0
 52 63  1  0  0  0  0
 53 63  1  0  0  0  0
 54 63  1  0  0  0  0
 55 73  1  0  0  0  0
 57 58  1  0  0  0  0
 57 62  1  0  0  0  0
 58 65  1  0  0  0  0
 59 62  1  0  0  0  0
 59 80  1  0  0  0  0
 60 63  1  0  0  0  0
 60 72  1  0  0  0  0
 61 73  1  0  0  0  0
 64 66  1  0  0  0  0
M  CHG  1  73   1
M  ISO  4  34 100  56 100  59 101  80 101
M  END
> <Batch ID>
0095

> <Smiles>
CNC(C)C(=O)NC(C(=O)N1Cc2cc([101O:1][101CH2:1]C(C)CCn3cc([100CH2:0][100C:0](=O)N4CCCC(n5nc(-c6ccc(Oc7ccc(F)cc7F)cc6)c(C(N)=O)c5N)C4)cc3C)ccc2CC1C(=O)NC1CCCc2ccccc21)C(C)(C)C

> <Shape>
0.249

> <Color>
0.199

> <Negative vol penalty>
0.000

$$$$

  -OEChem-04052319213D

 89 97  0     1  0  0  0  0  0999 V2000
  -30.9212  -29.4709   19.6023 C   0  0  0  0  0  0  0  0  0  0  0  0
  -30.1988  -28.3516   20.0034 C   0  0  0  0  0  0  0  0  0  0  0  0
  -23.1557   -9.8632   19.9614 C   0  0  0  0  0  0  0  0  0  0  0  0
  -23.8244   -9.9633   22.2809 C   0  0  0  0  0  0  0  0  0  0  0  0
  -32.3151  -29.4385   19.6084 C   0  0  0  0  0  0  0  0  0  0  0  0
  -30.8700  -27.1989   20.4098 C   0  0  0  0  0  0  0  0  0  0  0  0
  -29.1188  -23.2598   24.7599 C   0  0  0  0  0  0  0  0  0  0  0  0
  -22.4430   -8.6919   20.2175 C   0  0  0  0  0  0  0  0  0  0  0  0
  -23.1116   -8.7920   22.5369 C   0  0  0  0  0  0  0  0  0  0  0  0
  -28.4664  -22.0290   24.7033 C   0  0  0  0  0  0  0  0  0  0  0  0
  -23.5390   -5.4679   22.0915 C   0  0  0  0  0  0  0  0  0  0  0  0
  -24.1610   -4.4863   22.8630 C   0  0  0  0  0  0  0  0  0  0  0  0
  -30.5974  -20.9021   24.7957 C   0  0  0  0  0  0  0  0  0  0  0  0
  -22.3890   -4.6480   24.4973 C   0  0  0  0  0  0  0  0  0  0  0  0
  -28.4346  -14.9835   26.2938 C   0  0  0  0  0  0  0  0  0  0  0  0
  -23.8465  -10.4989   20.9931 C   0  0  0  0  0  0  0  0  0  0  0  0
  -24.1051  -13.0302   20.8102 C   0  0  0  0  0  0  0  0  0  0  0  0
  -33.0037  -28.2880   20.0243 C   0  0  0  0  0  0  0  0  0  0  0  0
  -30.5183  -23.3213   24.8239 C   0  0  0  0  0  0  0  0  0  0  0  0
  -32.2743  -27.1506   20.4202 C   0  0  0  0  0  0  0  0  0  0  0  0
  -31.2650  -22.1349   24.8556 C   0  0  0  0  0  0  0  0  0  0  0  0
  -28.6493  -13.6347   26.4729 C   0  0  0  0  0  0  0  0  0  0  0  0
  -29.8742  -13.3133   25.8378 C   0  0  0  0  0  0  0  0  0  0  0  0
  -22.4209   -8.1563   21.5052 C   0  0  0  0  0  0  0  0  0  0  0  0
  -29.2058  -20.8499   24.7182 C   0  0  0  0  0  0  0  0  0  0  0  0
  -22.3420   -6.0396   22.5229 C   0  0  0  0  0  0  0  0  0  0  0  0
  -23.5860   -4.0763   24.0659 C   0  0  0  0  0  0  0  0  0  0  0  0
  -21.7670   -5.6296   23.7258 C   0  0  0  0  0  0  0  0  0  0  0  0
  -24.5834  -11.7086   20.7292 C   0  0  0  0  0  0  0  0  0  0  0  0
  -30.3709  -14.4756   25.2900 C   0  0  0  0  0  0  0  0  0  0  0  0
  -25.1841  -13.8075   20.4665 C   0  0  0  0  0  0  0  0  0  0  0  0
  -22.8021  -13.5121   21.1646 C   0  0  0  0  0  0  0  0  0  0  0  0
  -32.7984  -24.5205   22.9620 C   0  0  0  0  0  0  0  0  0  0  0  0
  -34.7219  -23.6669   25.4306 C   0  0  0  0  0  0  0  0  0  0  0  0
  -35.2271  -21.6750   28.1553 C   0  0  0  0  0  0  0  0  0  0  0  0
  -30.9404  -13.9764   21.0585 C   0  0  0  0  0  0  0  0  0  0  0  0
  -34.5108  -28.2843   19.9689 C   0  0  0  0  0  0  0  0  0  0  0  0
  -31.2056  -24.6564   24.9114 C   0  0  0  0  0  0  0  0  0  0  0  0
  -32.7685  -22.1462   24.9440 C   0  0  0  0  0  0  0  0  0  0  0  0
  -35.1470  -27.1514   20.7702 C   0  0  0  0  0  0  0  0  0  0  0  0
  -29.3942  -13.0270   17.9950 C   0  0  0  0  0  0  0  0  0  0  0  0
  -34.4421  -25.8304   20.4791 C   0  0  0  0  0  0  0  0  0  0  0  0
  -27.9516  -12.7131   18.3953 C   0  0  0  0  0  0  0  0  0  0  0  0
  -30.3854  -12.5996   19.0753 C   0  0  0  0  0  0  0  0  0  0  0  0
  -28.6600  -12.8188   20.8213 C   0  0  0  0  0  0  0  0  0  0  0  0
  -32.9663  -25.8900   20.8915 C   0  0  1  0  0  0  0  0  0  0  0  0
  -32.6607  -24.6104   24.4555 C   0  0  1  0  0  0  0  0  0  0  0  0
  -27.6195  -13.2826   19.7877 C   0  0  2  0  0  0  0  0  0  0  0  0
  -30.5049  -11.9787   25.7732 C   0  0  0  0  0  0  0  0  0  0  0  0
  -26.3381  -12.0325   25.1707 C   0  0  0  0  0  0  0  0  0  0  0  0
  -27.6341  -13.0698   28.6957 C   0  0  0  0  0  0  0  0  0  0  0  0
  -36.9103  -21.1818   29.9500 C   0  0  0  0  0  0  0  0  0  0  0  0
  -27.9541  -19.1297   22.4018 C   0  0  0  0  0  0  0  0  0  0  0  0
  -32.5222  -13.4534   24.2782 C   0  0  0  0  0  0  0  0  0  0  0  0
  -32.5451  -15.7285   25.2678 C   0  0  0  0  0  0  0  0  0  0  0  0
  -36.4191  -22.1307   23.4133 C   0  0  0  0  0  0  0  0  0  0  0  0
  -37.4788  -20.9202   25.3316 C   0  0  0  0  0  0  0  0  0  0  0  0
  -37.7275  -23.3940   25.1298 C   0  0  0  0  0  0  0  0  0  0  0  0
  -33.3399  -22.4491   30.2997 C   0  0  0  0  0  0  0  0  0  0  0  0
  -26.3258  -12.5786   26.5934 C   0  0  0  0  0  0  0  0  0  0  0  0
  -28.7317  -17.3336   23.9904 C   0  0  0  0  0  0  0  0  0  0  0  0
  -29.6338  -16.9283   25.1650 C   0  0  0  0  0  0  0  0  0  0  0  0
  -31.3429  -15.3338   23.0967 C   0  0  0  0  0  0  0  0  0  0  0  0
  -27.7588  -12.7047   27.1956 C   0  0  1  0  0  0  0  0  0  0  0  0
  -35.4925  -22.4240   25.8052 C   0  0  1  0  0  0  0  0  0  0  0  0
  -35.6843  -21.9960   29.5668 C   0  0  2  0  0  0  0  0  0  0  0  0
  -28.8863  -18.7976   23.5600 C   0  0  2  0  0  0  0  0  0  1  0  0
  -31.6107  -14.7139   24.5210 C   0  0  0  0  0  0  0  0  0  0  0  0
  -36.7512  -22.2167   24.9163 C   0  0  0  0  0  0  0  0  0  0  0  0
  -25.8662  -11.6461   20.3625 N   0  0  0  0  0  0  0  0  0  0  0  0
  -29.4876  -15.4843   25.5737 N   0  0  0  0  0  0  0  0  0  0  0  0
  -26.2032  -12.9381   20.2101 N   0  0  0  0  0  0  0  0  0  0  0  0
  -33.3946  -23.4764   25.0210 N   0  0  0  0  0  0  0  0  0  0  0  0
  -30.0147  -13.1746   20.3706 N   0  0  0  0  0  0  0  0  0  0  0  0
  -25.3510  -15.1429   20.3614 N   0  0  0  0  0  0  0  0  0  0  0  0
  -21.8098  -12.5774   21.4902 N   0  0  0  0  0  0  0  0  0  0  0  0
  -32.8361  -25.7465   22.3257 N   0  0  0  0  0  0  0  0  0  0  0  0
  -35.7799  -22.5362   27.2311 N   0  0  0  0  0  0  0  0  0  0  0  0
  -30.5065  -14.4869   22.2758 N   0  0  0  0  0  0  0  0  0  0  0  0
  -34.5985  -21.6985   30.5433 N   0  3  0  0  0  0  0  0  0  0  0  0
  -22.5213  -14.7346   21.1758 O   0  0  0  0  0  0  0  0  0  0  0  0
  -32.8671  -23.4203   22.4267 O   0  0  0  0  0  0  0  0  0  0  0  0
  -35.2750  -24.7670   25.5057 O   0  0  0  0  0  0  0  0  0  0  0  0
  -34.4594  -20.7504   27.8979 O   0  0  0  0  0  0  0  0  0  0  0  0
  -32.0681  -14.2236   20.6177 O   0  0  0  0  0  0  0  0  0  0  0  0
  -21.7253   -7.0134   21.7555 O   0  0  0  0  0  0  0  0  0  0  0  0
  -28.5716  -19.6472   24.6624 O   0  0  0  0  0  0  0  0  0  1  0  0
  -24.1826   -3.1326   24.8059 F   0  0  0  0  0  0  0  0  0  0  0  0
  -20.6166   -6.1744   24.1449 F   0  0  0  0  0  0  0  0  0  0  0  0
  1  2  1  0  0  0  0
  1  5  2  0  0  0  0
  2  6  2  0  0  0  0
  3  8  2  0  0  0  0
  3 16  1  0  0  0  0
  4  9  1  0  0  0  0
  4 16  2  0  0  0  0
  5 18  1  0  0  0  0
  6 20  1  0  0  0  0
  7 10  2  0  0  0  0
  7 19  1  0  0  0  0
  8 24  1  0  0  0  0
  9 24  2  0  0  0  0
 10 25  1  0  0  0  0
 11 12  2  0  0  0  0
 11 26  1  0  0  0  0
 12 27  1  0  0  0  0
 13 21  1  0  0  0  0
 13 25  2  0  0  0  0
 14 27  2  0  0  0  0
 14 28  1  0  0  0  0
 15 22  2  0  0  0  0
 15 71  1  0  0  0  0
 16 29  1  0  0  0  0
 17 29  1  0  0  0  0
 17 31  2  0  0  0  0
 17 32  1  0  0  0  0
 18 20  2  0  0  0  0
 18 37  1  0  0  0  0
 19 21  2  0  0  0  0
 19 38  1  0  0  0  0
 20 46  1  0  0  0  0
 21 39  1  0  0  0  0
 22 23  1  0  0  0  0
 22 64  1  0  0  0  0
 23 30  2  0  0  0  0
 23 49  1  0  0  0  0
 24 86  1  0  0  0  0
 25 87  1  0  0  0  0
 26 28  2  0  0  0  0
 26 86  1  0  0  0  0
 27 88  1  0  0  0  0
 28 89  1  0  0  0  0
 29 70  2  0  0  0  0
 30 68  1  0  0  0  0
 30 71  1  0  0  0  0
 31 72  1  0  0  0  0
 31 75  1  0  0  0  0
 32 76  1  0  0  0  0
 32 81  2  0  0  0  0
 33 47  1  0  0  0  0
 33 77  1  0  0  0  0
 33 82  2  0  0  0  0
 34 65  1  0  0  0  0
 34 73  1  0  0  0  0
 34 83  2  0  0  0  0
 35 66  1  0  0  0  0
 35 78  1  0  0  0  0
 35 84  2  0  0  0  0
 36 74  1  0  0  0  0
 36 79  1  0  0  0  0
 36 85  2  0  0  0  0
 37 40  1  0  0  0  0
 38 47  1  0  0  0  0
 39 73  1  0  0  0  0
 40 42  1  0  0  0  0
 41 43  1  0  0  0  0
 41 44  1  0  0  0  0
 42 46  1  0  0  0  0
 43 48  1  0  0  0  0
 44 74  1  0  0  0  0
 45 48  1  0  0  0  0
 45 74  1  0  0  0  0
 46 77  1  0  0  0  0
 47 73  1  0  0  0  0
 48 72  1  0  0  0  0
 50 60  1  0  0  0  0
 51 64  1  0  0  0  0
 52 66  1  0  0  0  0
 53 67  1  0  0  0  0
 54 68  1  0  0  0  0
 55 68  1  0  0  0  0
 56 69  1  0  0  0  0
 57 69  1  0  0  0  0
 58 69  1  0  0  0  0
 59 80  1  0  0  0  0
 60 64  1  0  0  0  0
 61 62  1  0  0  0  0
 61 67  1  0  0  0  0
 62 71  1  0  0  0  0
 63 68  1  0  0  0  0
 63 79  1  0  0  0  0
 65 69  1  0  0  0  0
 65 78  1  0  0  0  0
 66 80  1  0  0  0  0
 67 87  1  0  0  0  0
 70 72  1  0  0  0  0
M  CHG  1  80   1
M  ISO  4  36 100  67 101  79 100  87 101
M  END
> <Batch ID>
0095

> <Smiles>
CCC(C)c1cn(CC[101CH:1](C)[101O:1]c2ccc3c(c2)CN(C(=O)C(NC(=O)C(C)NC)C(C)(C)C)C(C(=O)NC2CCCc4ccccc42)C3)c(C(C)(C)C[100NH:0][100C:0](=O)N2CCCC(n3nc(-c4ccc(Oc5ccc(F)cc5F)cc4)c(C(N)=O)c3N)C2)c1C

> <Shape>
0.169

> <Color>
0.183

> <Negative vol penalty>
0.000

$$$$

  -OEChem-04052319213D

 86 94  0     1  0  0  0  0  0999 V2000
  -32.0900  -31.9068   16.6796 C   0  0  0  0  0  0  0  0  0  0  0  0
  -31.9211  -31.0335   17.7493 C   0  0  0  0  0  0  0  0  0  0  0  0
  -23.0730   -9.9826   19.9081 C   0  0  0  0  0  0  0  0  0  0  0  0
  -24.3823   -9.5396   21.8895 C   0  0  0  0  0  0  0  0  0  0  0  0
  -31.0865  -32.8213   16.3627 C   0  0  0  0  0  0  0  0  0  0  0  0
  -30.7489  -31.0751   18.5035 C   0  0  0  0  0  0  0  0  0  0  0  0
  -28.8837  -26.4632   19.4507 C   0  0  0  0  0  0  0  0  0  0  0  0
  -22.4993   -8.7148   20.0036 C   0  0  0  0  0  0  0  0  0  0  0  0
  -23.8087   -8.2717   21.9851 C   0  0  0  0  0  0  0  0  0  0  0  0
  -29.4981  -25.7229   20.4597 C   0  0  0  0  0  0  0  0  0  0  0  0
  -20.9003   -6.9304   23.0636 C   0  0  0  0  0  0  0  0  0  0  0  0
  -20.4667   -6.5101   24.3209 C   0  0  0  0  0  0  0  0  0  0  0  0
  -27.7333  -26.3447   21.9822 C   0  0  0  0  0  0  0  0  0  0  0  0
  -28.4758  -19.1623   21.7660 C   0  0  0  0  0  0  0  0  0  0  0  0
  -21.9873   -4.6353   24.2185 C   0  0  0  0  0  0  0  0  0  0  0  0
  -28.7300  -20.8607   20.1206 C   0  0  0  0  0  0  0  0  0  0  0  0
  -24.0145  -10.3950   20.8510 C   0  0  0  0  0  0  0  0  0  0  0  0
  -24.1356  -12.8974   21.3316 C   0  0  0  0  0  0  0  0  0  0  0  0
  -29.8973  -32.8676   17.1073 C   0  0  0  0  0  0  0  0  0  0  0  0
  -27.6933  -27.1600   19.7033 C   0  0  0  0  0  0  0  0  0  0  0  0
  -29.7291  -31.9920   18.1970 C   0  0  0  0  0  0  0  0  0  0  0  0
  -27.1045  -27.0911   20.9740 C   0  0  0  0  0  0  0  0  0  0  0  0
  -28.4689  -20.5130   21.4362 C   0  0  0  0  0  0  0  0  0  0  0  0
  -28.7399  -18.2139   20.7841 C   0  0  0  0  0  0  0  0  0  0  0  0
  -22.8671   -7.8594   21.0421 C   0  0  0  0  0  0  0  0  0  0  0  0
  -28.9244  -25.6659   21.7265 C   0  0  0  0  0  0  0  0  0  0  0  0
  -21.8774   -6.2032   22.3837 C   0  0  0  0  0  0  0  0  0  0  0  0
  -21.0102   -5.3626   24.8984 C   0  0  0  0  0  0  0  0  0  0  0  0
  -22.4208   -5.0557   22.9612 C   0  0  0  0  0  0  0  0  0  0  0  0
  -24.6079  -11.7043   20.7525 C   0  0  0  0  0  0  0  0  0  0  0  0
  -28.9888  -18.6645   19.4977 C   0  0  0  0  0  0  0  0  0  0  0  0
  -25.0456  -13.8506   20.9445 C   0  0  0  0  0  0  0  0  0  0  0  0
  -22.9780  -13.1238   22.1466 C   0  0  0  0  0  0  0  0  0  0  0  0
  -26.8276  -30.2179   19.6417 C   0  0  0  0  0  0  0  0  0  0  0  0
  -23.8768  -28.9902   20.1964 C   0  0  0  0  0  0  0  0  0  0  0  0
  -21.9902  -26.4170   21.4072 C   0  0  0  0  0  0  0  0  0  0  0  0
  -30.5620  -15.1333   20.4537 C   0  0  0  0  0  0  0  0  0  0  0  0
  -28.8609  -33.9054   16.7562 C   0  0  0  0  0  0  0  0  0  0  0  0
  -27.0289  -27.9324   18.5967 C   0  0  0  0  0  0  0  0  0  0  0  0
  -25.8164  -27.8046   21.2909 C   0  0  0  0  0  0  0  0  0  0  0  0
  -27.4914  -33.6314   17.3725 C   0  0  0  0  0  0  0  0  0  0  0  0
  -28.7827  -13.6755   17.5536 C   0  0  0  0  0  0  0  0  0  0  0  0
  -27.6327  -33.2679   18.8472 C   0  0  0  0  0  0  0  0  0  0  0  0
  -27.5358  -13.0714   18.1971 C   0  0  0  0  0  0  0  0  0  0  0  0
  -29.9588  -13.7169   18.5246 C   0  0  0  0  0  0  0  0  0  0  0  0
  -28.4102  -13.8056   20.4503 C   0  0  0  0  0  0  0  0  0  0  0  0
  -28.4614  -31.9898   19.0234 C   0  0  1  0  0  0  0  0  0  0  0  0
  -26.0913  -29.0218   19.1079 C   0  0  1  0  0  0  0  0  0  0  0  0
  -27.1935  -13.7920   19.5128 C   0  0  2  0  0  0  0  0  0  0  0  0
  -29.2777  -17.6910   18.4021 C   0  0  0  0  0  0  0  0  0  0  0  0
  -19.6058  -25.7180   21.7588 C   0  0  0  0  0  0  0  0  0  0  0  0
  -23.6798  -30.8740   22.5885 C   0  0  0  0  0  0  0  0  0  0  0  0
  -21.7650  -29.4963   23.4273 C   0  0  0  0  0  0  0  0  0  0  0  0
  -21.5836  -30.6792   21.2386 C   0  0  0  0  0  0  0  0  0  0  0  0
  -30.6502  -23.4257   24.9434 C   0  0  0  0  0  0  0  0  0  0  0  0
  -28.3404  -22.5569   25.3878 C   0  0  0  0  0  0  0  0  0  0  0  0
  -31.0717  -17.0518   21.9164 C   0  0  0  0  0  0  0  0  0  0  0  0
  -22.2997  -24.0597   19.6447 C   0  0  0  0  0  0  0  0  0  0  0  0
  -28.1849  -21.5677   22.4783 C   0  0  0  0  0  0  0  0  0  0  0  0
  -28.7507  -16.7652   21.1311 C   0  0  0  0  0  0  0  0  0  0  0  0
  -29.4755  -22.0392   23.1627 C   0  0  0  0  0  0  0  0  0  0  0  0
  -28.6718  -24.3726   23.7063 C   0  0  0  0  0  0  0  0  0  1  0  0
  -23.0760  -28.6474   21.4294 C   0  0  1  0  0  0  0  0  0  0  0  0
  -20.8021  -25.6761   20.8207 C   0  0  2  0  0  0  0  0  0  0  0  0
  -22.5514  -29.9123   22.1659 C   0  0  0  0  0  0  0  0  0  0  0  0
  -29.2930  -23.0844   24.3002 C   0  0  0  0  0  0  0  0  0  0  0  0
  -28.9907  -19.9680   19.1394 N   0  0  0  0  0  0  0  0  0  0  0  0
  -25.7306  -11.8809   20.0507 N   0  0  0  0  0  0  0  0  0  0  0  0
  -25.9713  -13.1961   20.1863 N   0  0  0  0  0  0  0  0  0  0  0  0
  -25.2085  -28.5517   20.1775 N   0  0  0  0  0  0  0  0  0  0  0  0
  -29.5936  -14.3685   19.7829 N   0  0  0  0  0  0  0  0  0  0  0  0
  -25.1361  -15.1765   21.1820 N   0  0  0  0  0  0  0  0  0  0  0  0
  -22.1503  -12.0339   22.4490 N   0  0  0  0  0  0  0  0  0  0  0  0
  -27.6611  -30.8227   18.7202 N   0  0  0  0  0  0  0  0  0  0  0  0
  -22.0273  -27.7317   20.9934 N   0  0  0  0  0  0  0  0  0  0  0  0
  -30.1048  -16.2218   21.2119 N   0  0  0  0  0  0  0  0  0  0  0  0
  -21.1533  -24.2497   20.5703 N   0  3  0  0  0  0  0  0  0  0  0  0
  -22.6772  -14.2619   22.5800 O   0  0  0  0  0  0  0  0  0  0  0  0
  -26.6516  -30.5671   20.8030 O   0  0  0  0  0  0  0  0  0  0  0  0
  -23.3386  -29.6174   19.2808 O   0  0  0  0  0  0  0  0  0  0  0  0
  -22.8020  -25.8837   22.1603 O   0  0  0  0  0  0  0  0  0  0  0  0
  -31.7674  -14.8646   20.3714 O   0  0  0  0  0  0  0  0  0  0  0  0
  -22.3074   -6.6223   21.1358 O   0  0  0  0  0  0  0  0  0  0  0  0
  -29.5224  -24.9444   22.7134 O   0  0  0  0  0  0  0  0  0  1  0  0
  -20.5948   -4.9599   26.1065 F   0  0  0  0  0  0  0  0  0  0  0  0
  -23.3606   -4.3536   22.3133 F   0  0  0  0  0  0  0  0  0  0  0  0
  1  2  1  0  0  0  0
  1  5  2  0  0  0  0
  2  6  2  0  0  0  0
  3  8  2  0  0  0  0
  3 17  1  0  0  0  0
  4  9  1  0  0  0  0
  4 17  2  0  0  0  0
  5 19  1  0  0  0  0
  6 21  1  0  0  0  0
  7 10  2  0  0  0  0
  7 20  1  0  0  0  0
  8 25  1  0  0  0  0
  9 25  2  0  0  0  0
 10 26  1  0  0  0  0
 11 12  2  0  0  0  0
 11 27  1  0  0  0  0
 12 28  1  0  0  0  0
 13 22  1  0  0  0  0
 13 26  2  0  0  0  0
 14 23  2  0  0  0  0
 14 24  1  0  0  0  0
 15 28  2  0  0  0  0
 15 29  1  0  0  0  0
 16 23  1  0  0  0  0
 16 67  2  0  0  0  0
 17 30  1  0  0  0  0
 18 30  1  0  0  0  0
 18 32  2  0  0  0  0
 18 33  1  0  0  0  0
 19 21  2  0  0  0  0
 19 38  1  0  0  0  0
 20 22  2  0  0  0  0
 20 39  1  0  0  0  0
 21 47  1  0  0  0  0
 22 40  1  0  0  0  0
 23 59  1  0  0  0  0
 24 31  2  0  0  0  0
 24 60  1  0  0  0  0
 25 83  1  0  0  0  0
 26 84  1  0  0  0  0
 27 29  2  0  0  0  0
 27 83  1  0  0  0  0
 28 85  1  0  0  0  0
 29 86  1  0  0  0  0
 30 68  2  0  0  0  0
 31 50  1  0  0  0  0
 31 67  1  0  0  0  0
 32 69  1  0  0  0  0
 32 72  1  0  0  0  0
 33 73  1  0  0  0  0
 33 78  2  0  0  0  0
 34 48  1  0  0  0  0
 34 74  1  0  0  0  0
 34 79  2  0  0  0  0
 35 63  1  0  0  0  0
 35 70  1  0  0  0  0
 35 80  2  0  0  0  0
 36 64  1  0  0  0  0
 36 75  1  0  0  0  0
 36 81  2  0  0  0  0
 37 71  1  0  0  0  0
 37 76  1  0  0  0  0
 37 82  2  0  0  0  0
 38 41  1  0  0  0  0
 39 48  1  0  0  0  0
 40 70  1  0  0  0  0
 41 43  1  0  0  0  0
 42 44  1  0  0  0  0
 42 45  1  0  0  0  0
 43 47  1  0  0  0  0
 44 49  1  0  0  0  0
 45 71  1  0  0  0  0
 46 49  1  0  0  0  0
 46 71  1  0  0  0  0
 47 74  1  0  0  0  0
 48 70  1  0  0  0  0
 49 69  1  0  0  0  0
 51 64  1  0  0  0  0
 52 65  1  0  0  0  0
 53 65  1  0  0  0  0
 54 65  1  0  0  0  0
 55 66  1  0  0  0  0
 56 66  1  0  0  0  0
 57 76  1  0  0  0  0
 58 77  1  0  0  0  0
 59 61  1  0  0  0  0
 60 76  1  0  0  0  0
 61 66  1  0  0  0  0
 62 66  1  0  0  0  0
 62 84  1  0  0  0  0
 63 65  1  0  0  0  0
 63 75  1  0  0  0  0
 64 77  1  0  0  0  0
 68 69  1  0  0  0  0
M  CHG  1  77   1
M  ISO  4  37 100  62 101  76 100  84 101
M  END
> <Batch ID>
0095

> <Smiles>
CNC(C)C(=O)NC(C(=O)N1Cc2cc([101O:1][101CH2:1]C(C)(C)CCc3cnc(C)c(C[100N:0](C)[100C:0](=O)N4CCCC(n5nc(-c6ccc(Oc7ccc(F)cc7F)cc6)c(C(N)=O)c5N)C4)c3)ccc2CC1C(=O)NC1CCCc2ccccc21)C(C)(C)C

> <Shape>
0.329

> <Color>
0.157

> <Negative vol penalty>
0.000

$$$$

  -OEChem-04052319213D

 88 96  0     1  0  0  0  0  0999 V2000
  -21.9721  -31.4402   22.6701 C   0  0  0  0  0  0  0  0  0  0  0  0
  -21.5852  -30.1076   22.7695 C   0  0  0  0  0  0  0  0  0  0  0  0
  -26.3285  -12.8801   21.4908 C   0  0  0  0  0  0  0  0  0  0  0  0
  -26.0202  -13.5296   19.1843 C   0  0  0  0  0  0  0  0  0  0  0  0
  -23.1754  -31.7710   22.0482 C   0  0  0  0  0  0  0  0  0  0  0  0
  -22.4009  -29.1051   22.2461 C   0  0  0  0  0  0  0  0  0  0  0  0
  -24.3476  -22.3116   23.4192 C   0  0  0  0  0  0  0  0  0  0  0  0
  -25.1015  -12.2171   21.4682 C   0  0  0  0  0  0  0  0  0  0  0  0
  -24.7932  -12.8666   19.1616 C   0  0  0  0  0  0  0  0  0  0  0  0
  -24.4340  -21.0866   22.7590 C   0  0  0  0  0  0  0  0  0  0  0  0
  -23.8803   -9.2752   20.3337 C   0  0  0  0  0  0  0  0  0  0  0  0
  -23.8221   -7.9999   20.8956 C   0  0  0  0  0  0  0  0  0  0  0  0
  -26.5284  -21.7705   21.7768 C   0  0  0  0  0  0  0  0  0  0  0  0
  -28.0610  -23.6267   17.7563 C   0  0  0  0  0  0  0  0  0  0  0  0
  -26.8210  -21.6170   17.2460 C   0  0  0  0  0  0  0  0  0  0  0  0
  -22.1597   -8.7697   22.4707 C   0  0  0  0  0  0  0  0  0  0  0  0
  -26.7878  -13.5364   20.3489 C   0  0  0  0  0  0  0  0  0  0  0  0
  -29.3171  -13.6864   20.0521 C   0  0  0  0  0  0  0  0  0  0  0  0
  -24.0108  -30.7713   21.5255 C   0  0  0  0  0  0  0  0  0  0  0  0
  -25.3472  -23.2811   23.2542 C   0  0  0  0  0  0  0  0  0  0  0  0
  -23.6158  -29.4229   21.6155 C   0  0  0  0  0  0  0  0  0  0  0  0
  -26.4536  -23.0060   22.4380 C   0  0  0  0  0  0  0  0  0  0  0  0
  -28.0245  -22.2453   17.5664 C   0  0  0  0  0  0  0  0  0  0  0  0
  -26.8941  -24.3797   17.6260 C   0  0  0  0  0  0  0  0  0  0  0  0
  -25.6541  -22.3700   17.1157 C   0  0  0  0  0  0  0  0  0  0  0  0
  -25.6907  -23.7514   17.3057 C   0  0  0  0  0  0  0  0  0  0  0  0
  -24.3338  -12.2103   20.3036 C   0  0  0  0  0  0  0  0  0  0  0  0
  -25.5230  -20.8171   21.9354 C   0  0  0  0  0  0  0  0  0  0  0  0
  -23.0782  -10.2979   20.8404 C   0  0  0  0  0  0  0  0  0  0  0  0
  -22.9618   -7.7471   21.9640 C   0  0  0  0  0  0  0  0  0  0  0  0
  -22.2179  -10.0451   21.9089 C   0  0  0  0  0  0  0  0  0  0  0  0
  -28.0550  -14.2218   20.3718 C   0  0  0  0  0  0  0  0  0  0  0  0
  -30.1889  -14.7328   20.2294 C   0  0  0  0  0  0  0  0  0  0  0  0
  -29.6698  -12.3616   19.6324 C   0  0  0  0  0  0  0  0  0  0  0  0
  -25.4320  -26.2419   22.1007 C   0  0  0  0  0  0  0  0  0  0  0  0
  -28.4902  -26.1575   23.1788 C   0  0  0  0  0  0  0  0  0  0  0  0
  -31.2098  -24.2817   24.0345 C   0  0  0  0  0  0  0  0  0  0  0  0
  -29.5104  -20.6793   20.0566 C   0  0  0  0  0  0  0  0  0  0  0  0
  -25.2795  -31.1810   20.8203 C   0  0  0  0  0  0  0  0  0  0  0  0
  -25.2526  -24.5871   23.9943 C   0  0  0  0  0  0  0  0  0  0  0  0
  -27.5636  -24.0053   22.2435 C   0  0  0  0  0  0  0  0  0  0  0  0
  -26.2655  -30.0323   20.6243 C   0  0  0  0  0  0  0  0  0  0  0  0
  -30.7554  -18.7447   22.7739 C   0  0  0  0  0  0  0  0  0  0  0  0
  -25.5469  -28.7970   20.0907 C   0  0  0  0  0  0  0  0  0  0  0  0
  -30.3184  -17.3179   22.4376 C   0  0  0  0  0  0  0  0  0  0  0  0
  -29.7055  -19.7706   22.3528 C   0  0  0  0  0  0  0  0  0  0  0  0
  -28.8506  -18.2584   20.6046 C   0  0  0  0  0  0  0  0  0  0  0  0
  -24.4854  -28.3051   21.0820 C   0  0  1  0  0  0  0  0  0  0  0  0
  -26.0711  -25.7007   23.3482 C   0  0  1  0  0  0  0  0  0  0  0  0
  -29.9016  -17.1927   20.9598 C   0  0  2  0  0  0  0  0  0  0  0  0
  -24.4398  -24.5592   17.1656 C   0  0  0  0  0  0  0  0  0  0  0  0
  -26.9375  -26.6279   16.5169 C   0  0  0  0  0  0  0  0  0  0  0  0
  -24.1201  -21.6646   15.2494 C   0  0  0  0  0  0  0  0  0  0  0  0
  -33.5758  -24.4968   24.8429 C   0  0  0  0  0  0  0  0  0  0  0  0
  -24.2804  -17.6441   21.6515 C   0  0  0  0  0  0  0  0  0  0  0  0
  -29.3681  -26.9951   20.3792 C   0  0  0  0  0  0  0  0  0  0  0  0
  -31.6931  -26.2778   20.9693 C   0  0  0  0  0  0  0  0  0  0  0  0
  -30.5991  -28.1246   22.2402 C   0  0  0  0  0  0  0  0  0  0  0  0
  -30.6222  -22.7761   26.5138 C   0  0  0  0  0  0  0  0  0  0  0  0
  -26.9605  -25.8576   17.8335 C   0  0  0  0  0  0  0  0  0  0  0  0
  -29.2719  -21.4401   17.7064 C   0  0  0  0  0  0  0  0  0  0  0  0
  -24.2928  -20.2249   17.3063 C   0  0  0  0  0  0  0  0  0  0  0  0
  -24.2955  -18.8884   19.4164 C   0  0  0  0  0  0  0  0  0  0  0  0
  -24.3525  -21.6591   16.7649 C   0  0  1  0  0  0  0  0  0  0  0  0
  -29.8193  -25.7457   22.5931 C   0  0  1  0  0  0  0  0  0  0  0  0
  -32.1204  -24.3231   25.2484 C   0  0  2  0  0  0  0  0  0  0  0  0
  -24.3828  -18.9848   20.9361 C   0  0  2  0  0  0  0  0  0  1  0  0
  -30.3482  -26.7675   21.5474 C   0  0  0  0  0  0  0  0  0  0  0  0
  -28.1153  -15.5084   20.7255 N   0  0  0  0  0  0  0  0  0  0  0  0
  -29.4258  -15.7901   20.6292 N   0  0  0  0  0  0  0  0  0  0  0  0
  -27.4224  -25.2702   22.9835 N   0  0  0  0  0  0  0  0  0  0  0  0
  -29.3554  -19.5989   20.9407 N   0  0  0  0  0  0  0  0  0  0  0  0
  -31.5262  -14.8424   20.0807 N   0  0  0  0  0  0  0  0  0  0  0  0
  -28.6505  -11.4087   19.5011 N   0  0  0  0  0  0  0  0  0  0  0  0
  -25.1071  -27.5831   22.1713 N   0  0  0  0  0  0  0  0  0  0  0  0
  -30.7150  -25.5308   23.7245 N   0  0  0  0  0  0  0  0  0  0  0  0
  -29.1616  -20.4298   18.7349 N   0  0  0  0  0  0  0  0  0  0  0  0
  -31.9980  -23.0607   26.0310 N   0  3  0  0  0  0  0  0  0  0  0  0
  -24.4213  -20.2274   18.7889 N   0  3  0  0  0  0  0  0  0  0  0  0
  -30.8560  -12.0281   19.3971 O   0  0  0  0  0  0  0  0  0  0  0  0
  -25.2486  -25.4980   21.1443 O   0  0  0  0  0  0  0  0  0  0  0  0
  -28.4045  -27.2236   23.7933 O   0  0  0  0  0  0  0  0  0  0  0  0
  -30.9652  -23.2457   23.4203 O   0  0  0  0  0  0  0  0  0  0  0  0
  -29.9337  -21.7828   20.4172 O   0  0  0  0  0  0  0  0  0  0  0  0
  -23.1366  -11.5633   20.2810 O   0  0  0  0  0  0  0  0  0  0  0  0
  -25.6095  -19.6225   21.2894 O   0  0  0  0  0  0  0  0  0  1  0  0
  -22.9049   -6.5219   22.5025 F   0  0  0  0  0  0  0  0  0  0  0  0
  -21.4441  -11.0231   22.3992 F   0  0  0  0  0  0  0  0  0  0  0  0
  1  2  1  0  0  0  0
  1  5  2  0  0  0  0
  2  6  2  0  0  0  0
  3  8  2  0  0  0  0
  3 17  1  0  0  0  0
  4  9  1  0  0  0  0
  4 17  2  0  0  0  0
  5 19  1  0  0  0  0
  6 21  1  0  0  0  0
  7 10  2  0  0  0  0
  7 20  1  0  0  0  0
  8 27  1  0  0  0  0
  9 27  2  0  0  0  0
 10 28  1  0  0  0  0
 11 12  2  0  0  0  0
 11 29  1  0  0  0  0
 12 30  1  0  0  0  0
 13 22  1  0  0  0  0
 13 28  2  0  0  0  0
 14 23  2  0  0  0  0
 14 24  1  0  0  0  0
 15 23  1  0  0  0  0
 15 25  2  0  0  0  0
 16 30  2  0  0  0  0
 16 31  1  0  0  0  0
 17 32  1  0  0  0  0
 18 32  1  0  0  0  0
 18 33  2  0  0  0  0
 18 34  1  0  0  0  0
 19 21  2  0  0  0  0
 19 39  1  0  0  0  0
 20 22  2  0  0  0  0
 20 40  1  0  0  0  0
 21 48  1  0  0  0  0
 22 41  1  0  0  0  0
 23 61  1  0  0  0  0
 24 26  2  0  0  0  0
 24 60  1  0  0  0  0
 25 26  1  0  0  0  0
 25 64  1  0  0  0  0
 26 51  1  0  0  0  0
 27 85  1  0  0  0  0
 28 86  1  0  0  0  0
 29 31  2  0  0  0  0
 29 85  1  0  0  0  0
 30 87  1  0  0  0  0
 31 88  1  0  0  0  0
 32 69  2  0  0  0  0
 33 70  1  0  0  0  0
 33 73  1  0  0  0  0
 34 74  1  0  0  0  0
 34 80  2  0  0  0  0
 35 49  1  0  0  0  0
 35 75  1  0  0  0  0
 35 81  2  0  0  0  0
 36 65  1  0  0  0  0
 36 71  1  0  0  0  0
 36 82  2  0  0  0  0
 37 66  1  0  0  0  0
 37 76  1  0  0  0  0
 37 83  2  0  0  0  0
 38 72  1  0  0  0  0
 38 77  1  0  0  0  0
 38 84  2  0  0  0  0
 39 42  1  0  0  0  0
 40 49  1  0  0  0  0
 41 71  1  0  0  0  0
 42 44  1  0  0  0  0
 43 45  1  0  0  0  0
 43 46  1  0  0  0  0
 44 48  1  0  0  0  0
 45 50  1  0  0  0  0
 46 72  1  0  0  0  0
 47 50  1  0  0  0  0
 47 72  1  0  0  0  0
 48 75  1  0  0  0  0
 49 71  1  0  0  0  0
 50 70  1  0  0  0  0
 52 60  1  0  0  0  0
 53 64  1  0  0  0  0
 54 66  1  0  0  0  0
 55 67  1  0  0  0  0
 56 68  1  0  0  0  0
 57 68  1  0  0  0  0
 58 68  1  0  0  0  0
 59 78  1  0  0  0  0
 61 77  1  0  0  0  0
 62 64  1  0  0  0  0
 62 79  1  0  0  0  0
 63 67  1  0  0  0  0
 63 79  1  0  0  0  0
 65 68  1  0  0  0  0
 65 76  1  0  0  0  0
 66 78  1  0  0  0  0
 67 86  1  0  0  0  0
 69 70  1  0  0  0  0
M  CHG  2  78   1  79   1
M  ISO  4  38 100  67 101  77 100  86 101
M  END
> <Batch ID>
0095

> <Smiles>
CCc1cc(C[100NH:0][100C:0](=O)N2CCCC(n3nc(-c4ccc(Oc5ccc(F)cc5F)cc4)c(C(N)=O)c3N)C2)cc(C(C)CNC[101CH:1](C)[101O:1]c2ccc3c(c2)CN(C(=O)C(NC(=O)C(C)NC)C(C)(C)C)C(C(=O)NC2CCCc4ccccc42)C3)c1C

> <Shape>
0.227

> <Color>
0.065

> <Negative vol penalty>
0.000

$$$$

  -OEChem-04052319213D

 91100  0     1  0  0  0  0  0999 V2000
  -16.3998  -29.3746   23.5931 C   0  0  0  0  0  0  0  0  0  0  0  0
  -17.2319  -28.8326   22.6188 C   0  0  0  0  0  0  0  0  0  0  0  0
  -24.5141   -9.0831   21.7097 C   0  0  0  0  0  0  0  0  0  0  0  0
  -22.8484  -10.0913   20.2793 C   0  0  0  0  0  0  0  0  0  0  0  0
  -16.9464  -30.1051   24.6473 C   0  0  0  0  0  0  0  0  0  0  0  0
  -18.6112  -29.0218   22.6976 C   0  0  0  0  0  0  0  0  0  0  0  0
  -22.9719  -25.0681   21.0070 C   0  0  0  0  0  0  0  0  0  0  0  0
  -23.7284   -7.9355   21.8158 C   0  0  0  0  0  0  0  0  0  0  0  0
  -22.0627   -8.9437   20.3854 C   0  0  0  0  0  0  0  0  0  0  0  0
  -23.7468  -24.9633   19.8527 C   0  0  0  0  0  0  0  0  0  0  0  0
  -20.9972   -6.9377   23.5389 C   0  0  0  0  0  0  0  0  0  0  0  0
  -20.8363   -6.3782   24.8064 C   0  0  0  0  0  0  0  0  0  0  0  0
  -25.5240  -26.1768   20.9428 C   0  0  0  0  0  0  0  0  0  0  0  0
  -21.8334   -4.3210   24.0250 C   0  0  0  0  0  0  0  0  0  0  0  0
  -28.7015  -19.3070   20.2970 C   0  0  0  0  0  0  0  0  0  0  0  0
  -24.0740  -10.1611   20.9415 C   0  0  0  0  0  0  0  0  0  0  0  0
  -25.8747  -11.6141   19.8672 C   0  0  0  0  0  0  0  0  0  0  0  0
  -18.3339  -30.2951   24.7443 C   0  0  0  0  0  0  0  0  0  0  0  0
  -23.4639  -25.7386   22.1361 C   0  0  0  0  0  0  0  0  0  0  0  0
  -19.1768  -29.7566   23.7534 C   0  0  0  0  0  0  0  0  0  0  0  0
  -24.7544  -26.2864   22.1111 C   0  0  0  0  0  0  0  0  0  0  0  0
  -22.5028   -7.8657   21.1536 C   0  0  0  0  0  0  0  0  0  0  0  0
  -25.0219  -25.5203   19.8195 C   0  0  0  0  0  0  0  0  0  0  0  0
  -21.5762   -6.1888   22.5143 C   0  0  0  0  0  0  0  0  0  0  0  0
  -21.2544   -5.0699   25.0495 C   0  0  0  0  0  0  0  0  0  0  0  0
  -21.9943   -4.8805   22.7574 C   0  0  0  0  0  0  0  0  0  0  0  0
  -24.8849  -11.3471   20.8320 C   0  0  0  0  0  0  0  0  0  0  0  0
  -27.6781  -20.2227   20.2700 C   0  0  0  0  0  0  0  0  0  0  0  0
  -28.7800  -18.9066   21.6443 C   0  0  0  0  0  0  0  0  0  0  0  0
  -26.3466  -12.8615   20.1956 C   0  0  0  0  0  0  0  0  0  0  0  0
  -26.3270  -10.8068   18.7721 C   0  0  0  0  0  0  0  0  0  0  0  0
  -22.5759  -28.3083   23.7829 C   0  0  0  0  0  0  0  0  0  0  0  0
  -24.9664  -27.3807   25.7698 C   0  0  0  0  0  0  0  0  0  0  0  0
  -27.8907  -25.6707   26.1832 C   0  0  0  0  0  0  0  0  0  0  0  0
  -24.9133  -18.1278   21.5434 C   0  0  0  0  0  0  0  0  0  0  0  0
  -18.8746  -31.1322   25.8764 C   0  0  0  0  0  0  0  0  0  0  0  0
  -22.6260  -25.8196   23.3826 C   0  0  0  0  0  0  0  0  0  0  0  0
  -25.3367  -26.9988   23.3035 C   0  0  0  0  0  0  0  0  0  0  0  0
  -20.3772  -30.9693   26.0908 C   0  0  0  0  0  0  0  0  0  0  0  0
  -25.6051  -15.7000   24.3037 C   0  0  0  0  0  0  0  0  0  0  0  0
  -26.6933  -21.0426   16.6580 C   0  0  0  0  0  0  0  0  0  0  0  0
  -21.1178  -31.0473   24.7595 C   0  0  0  0  0  0  0  0  0  0  0  0
  -27.2048  -20.2179   17.8360 C   0  0  0  0  0  0  0  0  0  0  0  0
  -25.4900  -14.3710   23.5587 C   0  0  0  0  0  0  0  0  0  0  0  0
  -24.7267  -16.7688   23.6645 C   0  0  0  0  0  0  0  0  0  0  0  0
  -24.8852  -15.6602   21.4594 C   0  0  0  0  0  0  0  0  0  0  0  0
  -27.4001  -22.3865   16.5618 C   0  0  0  0  0  0  0  0  0  0  0  0
  -27.8147  -22.3622   19.0365 C   0  0  0  0  0  0  0  0  0  0  0  0
  -20.6800  -29.9191   23.8177 C   0  0  1  0  0  0  0  0  0  0  0  0
  -27.1021  -21.0088   19.1499 C   0  0  2  0  0  0  0  0  0  0  0  0
  -23.0278  -26.9713   24.2988 C   0  0  1  0  0  0  0  0  0  0  0  0
  -25.7717  -14.5554   22.0578 C   0  0  2  0  0  0  0  0  0  0  0  0
  -29.6268  -25.1260   27.9114 C   0  0  0  0  0  0  0  0  0  0  0  0
  -31.2056  -18.3592   22.0476 C   0  0  0  0  0  0  0  0  0  0  0  0
  -29.5582  -16.5111   21.5928 C   0  0  0  0  0  0  0  0  0  0  0  0
  -29.5586  -17.6856   23.7841 C   0  0  0  0  0  0  0  0  0  0  0  0
  -26.1105  -30.1968   25.5045 C   0  0  0  0  0  0  0  0  0  0  0  0
  -28.2686  -29.3324   26.4338 C   0  0  0  0  0  0  0  0  0  0  0  0
  -26.1948  -29.2502   27.8177 C   0  0  0  0  0  0  0  0  0  0  0  0
  -24.2821  -19.2296   23.7313 C   0  0  0  0  0  0  0  0  0  0  0  0
  -27.3686  -22.7661   25.9602 C   0  0  0  0  0  0  0  0  0  0  0  0
  -26.1500  -21.1479   22.0373 C   0  0  0  0  0  0  0  0  0  0  0  0
  -24.7668  -20.5823   21.7259 C   0  0  0  0  0  0  0  0  0  0  0  0
  -27.8154  -24.5198   17.7831 C   0  0  0  0  0  0  0  0  0  0  0  0
  -27.1961  -25.3813   18.8659 C   0  0  0  0  0  0  0  0  0  1  0  0
  -26.4463  -27.6626   25.8663 C   0  0  1  0  0  0  0  0  0  0  0  0
  -28.3365  -24.6787   27.2423 C   0  0  2  0  0  0  0  0  0  0  0  0
  -29.7101  -17.9313   22.2378 C   0  0  0  0  0  0  0  0  0  0  0  0
  -26.7436  -29.0988   26.3823 C   0  0  0  0  0  0  0  0  0  0  0  0
  -24.7360  -12.3446   21.7077 N   0  0  0  0  0  0  0  0  0  0  0  0
  -27.8785  -19.5180   22.4173 N   0  0  0  0  0  0  0  0  0  0  0  0
  -27.2238  -20.3119   21.5529 N   0  0  0  0  0  0  0  0  0  0  0  0
  -25.6386  -13.2505   21.2945 N   0  0  0  0  0  0  0  0  0  0  0  0
  -24.4761  -27.0573   24.4966 N   0  0  0  0  0  0  0  0  0  0  0  0
  -24.9953  -16.9032   22.2266 N   0  0  0  0  0  0  0  0  0  0  0  0
  -27.2939  -13.6525   19.6486 N   0  0  0  0  0  0  0  0  0  0  0  0
  -25.7348   -9.5514   18.5782 N   0  0  0  0  0  0  0  0  0  0  0  0
  -21.3086  -28.6718   24.1965 N   0  0  0  0  0  0  0  0  0  0  0  0
  -27.0109  -26.6017   26.6934 N   0  0  0  0  0  0  0  0  0  0  0  0
  -24.5679  -19.2586   22.2988 N   0  0  0  0  0  0  0  0  0  0  0  0
  -27.2511  -23.1490   17.8649 N   0  3  1  0  0  0  0  0  0  0  0  0
  -28.5633  -23.3376   26.6332 N   0  3  0  0  0  0  0  0  0  0  0  0
  -27.2411  -11.1804   17.9986 O   0  0  0  0  0  0  0  0  0  0  0  0
  -23.3225  -28.9622   23.0641 O   0  0  0  0  0  0  0  0  0  0  0  0
  -24.2722  -27.4381   26.7879 O   0  0  0  0  0  0  0  0  0  0  0  0
  -28.2866  -25.6265   25.0205 O   0  0  0  0  0  0  0  0  0  0  0  0
  -25.1460  -18.2074   20.3304 O   0  0  0  0  0  0  0  0  0  0  0  0
  -21.7360   -6.7459   21.2566 O   0  0  0  0  0  0  0  0  0  0  0  0
  -25.7800  -25.4200   18.6939 O   0  0  0  0  0  0  0  0  0  1  0  0
  -21.1012   -4.5333   26.2672 F   0  0  0  0  0  0  0  0  0  0  0  0
  -22.5523   -4.1565   21.7774 F   0  0  0  0  0  0  0  0  0  0  0  0
  1  2  1  0  0  0  0
  1  5  2  0  0  0  0
  2  6  2  0  0  0  0
  3  8  2  0  0  0  0
  3 16  1  0  0  0  0
  4  9  1  0  0  0  0
  4 16  2  0  0  0  0
  5 18  1  0  0  0  0
  6 20  1  0  0  0  0
  7 10  2  0  0  0  0
  7 19  1  0  0  0  0
  8 22  1  0  0  0  0
  9 22  2  0  0  0  0
 10 23  1  0  0  0  0
 11 12  2  0  0  0  0
 11 24  1  0  0  0  0
 12 25  1  0  0  0  0
 13 21  1  0  0  0  0
 13 23  2  0  0  0  0
 14 25  2  0  0  0  0
 14 26  1  0  0  0  0
 15 28  2  0  0  0  0
 15 29  1  0  0  0  0
 16 27  1  0  0  0  0
 17 27  1  0  0  0  0
 17 30  2  0  0  0  0
 17 31  1  0  0  0  0
 18 20  2  0  0  0  0
 18 36  1  0  0  0  0
 19 21  2  0  0  0  0
 19 37  1  0  0  0  0
 20 49  1  0  0  0  0
 21 38  1  0  0  0  0
 22 88  1  0  0  0  0
 23 89  1  0  0  0  0
 24 26  2  0  0  0  0
 24 88  1  0  0  0  0
 25 90  1  0  0  0  0
 26 91  1  0  0  0  0
 27 70  2  0  0  0  0
 28 50  1  0  0  0  0
 28 72  1  0  0  0  0
 29 68  1  0  0  0  0
 29 71  2  0  0  0  0
 30 73  1  0  0  0  0
 30 76  1  0  0  0  0
 31 77  1  0  0  0  0
 31 83  2  0  0  0  0
 32 51  1  0  0  0  0
 32 78  1  0  0  0  0
 32 84  2  0  0  0  0
 33 66  1  0  0  0  0
 33 74  1  0  0  0  0
 33 85  2  0  0  0  0
 34 67  1  0  0  0  0
 34 79  1  0  0  0  0
 34 86  2  0  0  0  0
 35 75  1  0  0  0  0
 35 80  1  0  0  0  0
 35 87  2  0  0  0  0
 36 39  1  0  0  0  0
 37 51  1  0  0  0  0
 38 74  1  0  0  0  0
 39 42  1  0  0  0  0
 40 44  1  0  0  0  0
 40 45  1  0  0  0  0
 41 43  1  0  0  0  0
 41 47  1  0  0  0  0
 42 49  1  0  0  0  0
 43 50  1  0  0  0  0
 44 52  1  0  0  0  0
 45 75  1  0  0  0  0
 46 52  1  0  0  0  0
 46 75  1  0  0  0  0
 47 81  1  0  0  0  0
 48 50  1  0  0  0  0
 48 81  1  0  0  0  0
 49 78  1  0  0  0  0
 51 74  1  0  0  0  0
 52 73  1  0  0  0  0
 53 67  1  0  0  0  0
 54 68  1  0  0  0  0
 55 68  1  0  0  0  0
 56 68  1  0  0  0  0
 57 69  1  0  0  0  0
 58 69  1  0  0  0  0
 59 69  1  0  0  0  0
 60 80  1  0  0  0  0
 61 82  1  0  0  0  0
 62 63  1  0  0  0  0
 62 72  1  0  0  0  0
 63 80  1  0  0  0  0
 64 65  1  0  0  0  0
 64 81  1  0  0  0  0
 65 89  1  0  0  0  0
 66 69  1  0  0  0  0
 66 79  1  0  0  0  0
 67 82  1  0  0  0  0
 70 73  1  0  0  0  0
 71 72  1  0  0  0  0
M  CHG  2  81   1  82   1
M  ISO  4  35 100  65 101  80 100  89 101
M  END
> <Batch ID>
0095

> <Smiles>
CNC(C)C(=O)NC(C(=O)N1Cc2cc([101O:1][101CH2:1]CN3CCCC(c4cc(C(C)(C)C)nn4CC[100N:0](C)[100C:0](=O)N4CCCC(n5nc(-c6ccc(Oc7ccc(F)cc7F)cc6)c(C(N)=O)c5N)C4)C3)ccc2CC1C(=O)NC1CCCc2ccccc21)C(C)(C)C

> <Shape>
0.228

> <Color>
0.102

> <Negative vol penalty>
0.000

$$$$

  -OEChem-04052319213D

 89 97  0     1  0  0  0  0  0999 V2000
  -27.3798  -19.6744   26.3070 C   0  0  0  0  0  0  0  0  0  0  0  0
  -27.9674  -20.4221   25.2916 C   0  0  0  0  0  0  0  0  0  0  0  0
  -26.6873  -12.6348   21.8173 C   0  0  0  0  0  0  0  0  0  0  0  0
  -25.9983  -14.1717   20.0852 C   0  0  0  0  0  0  0  0  0  0  0  0
  -25.9908  -19.5923   26.3962 C   0  0  0  0  0  0  0  0  0  0  0  0
  -27.1664  -21.0871   24.3639 C   0  0  0  0  0  0  0  0  0  0  0  0
  -28.3225  -26.4767   21.6954 C   0  0  0  0  0  0  0  0  0  0  0  0
  -25.4000  -12.0992   21.8542 C   0  0  0  0  0  0  0  0  0  0  0  0
  -24.7109  -13.6361   20.1221 C   0  0  0  0  0  0  0  0  0  0  0  0
  -28.8489  -26.8124   20.4488 C   0  0  0  0  0  0  0  0  0  0  0  0
  -23.5526   -9.9272   20.0369 C   0  0  0  0  0  0  0  0  0  0  0  0
  -23.4290   -8.5383   20.0696 C   0  0  0  0  0  0  0  0  0  0  0  0
  -26.6129  -27.0677   19.5801 C   0  0  0  0  0  0  0  0  0  0  0  0
  -22.2655   -8.6915   22.1814 C   0  0  0  0  0  0  0  0  0  0  0  0
  -29.8154  -22.0289   18.3774 C   0  0  0  0  0  0  0  0  0  0  0  0
  -26.9865  -13.6711   20.9329 C   0  0  0  0  0  0  0  0  0  0  0  0
  -29.3910  -13.8011   20.0906 C   0  0  0  0  0  0  0  0  0  0  0  0
  -25.1722  -20.2645   25.4749 C   0  0  0  0  0  0  0  0  0  0  0  0
  -26.9350  -26.4233   21.8911 C   0  0  0  0  0  0  0  0  0  0  0  0
  -25.7652  -21.0127   24.4401 C   0  0  0  0  0  0  0  0  0  0  0  0
  -26.0715  -26.7336   20.8309 C   0  0  0  0  0  0  0  0  0  0  0  0
  -24.4118  -12.5998   21.0066 C   0  0  0  0  0  0  0  0  0  0  0  0
  -27.9941  -27.1051   19.3901 C   0  0  0  0  0  0  0  0  0  0  0  0
  -23.0327  -10.6984   21.0765 C   0  0  0  0  0  0  0  0  0  0  0  0
  -22.7855   -7.9204   21.1418 C   0  0  0  0  0  0  0  0  0  0  0  0
  -22.3891  -10.0805   22.1487 C   0  0  0  0  0  0  0  0  0  0  0  0
  -28.3161  -14.2252   20.8947 C   0  0  0  0  0  0  0  0  0  0  0  0
  -29.3139  -21.9345   19.6449 C   0  0  0  0  0  0  0  0  0  0  0  0
  -30.4233  -14.6428   20.4256 C   0  0  0  0  0  0  0  0  0  0  0  0
  -27.6060  -22.0435   18.2407 C   0  0  0  0  0  0  0  0  0  0  0  0
  -29.4509  -12.7412   19.1269 C   0  0  0  0  0  0  0  0  0  0  0  0
  -24.8695  -24.1460   22.6985 C   0  0  0  0  0  0  0  0  0  0  0  0
  -22.7658  -26.6146   22.7510 C   0  0  0  0  0  0  0  0  0  0  0  0
  -21.9458  -29.7458   21.6693 C   0  0  0  0  0  0  0  0  0  0  0  0
  -30.5962  -20.1824   22.6916 C   0  0  0  0  0  0  0  0  0  0  0  0
  -23.6762  -20.1075   25.5835 C   0  0  0  0  0  0  0  0  0  0  0  0
  -26.3832  -26.0856   23.2490 C   0  0  0  0  0  0  0  0  0  0  0  0
  -24.5745  -26.7104   20.9945 C   0  0  0  0  0  0  0  0  0  0  0  0
  -22.8950  -21.1475   24.7845 C   0  0  0  0  0  0  0  0  0  0  0  0
  -32.0902  -17.2585   24.0685 C   0  0  0  0  0  0  0  0  0  0  0  0
  -23.4744  -21.2876   23.3804 C   0  0  0  0  0  0  0  0  0  0  0  0
  -31.3893  -16.1113   23.3387 C   0  0  0  0  0  0  0  0  0  0  0  0
  -31.1359  -18.4182   24.3448 C   0  0  0  0  0  0  0  0  0  0  0  0
  -29.7215  -17.7818   22.4295 C   0  0  0  0  0  0  0  0  0  0  0  0
  -24.9297  -21.7685   23.4297 C   0  0  1  0  0  0  0  0  0  0  0  0
  -24.9517  -25.5605   23.1986 C   0  0  1  0  0  0  0  0  0  0  0  0
  -30.6572  -16.6122   22.0792 C   0  0  2  0  0  0  0  0  0  0  0  0
  -25.6847  -23.5248   17.5567 C   0  0  0  0  0  0  0  0  0  0  0  0
  -25.2325  -21.2607   18.5688 C   0  0  0  0  0  0  0  0  0  0  0  0
  -20.1461  -31.4850   21.8531 C   0  0  0  0  0  0  0  0  0  0  0  0
  -31.6009  -23.3635   15.3074 C   0  0  0  0  0  0  0  0  0  0  0  0
  -21.0098  -24.9947   20.8531 C   0  0  0  0  0  0  0  0  0  0  0  0
  -19.7521  -27.0965   20.3344 C   0  0  0  0  0  0  0  0  0  0  0  0
  -19.7637  -26.1936   22.6598 C   0  0  0  0  0  0  0  0  0  0  0  0
  -32.0043  -26.2906   16.0024 C   0  0  0  0  0  0  0  0  0  0  0  0
  -30.4946  -26.0058   14.0347 C   0  0  0  0  0  0  0  0  0  0  0  0
  -23.8082  -31.7139   22.8597 C   0  0  0  0  0  0  0  0  0  0  0  0
  -29.9816  -21.8351   20.9452 C   0  0  0  0  0  0  0  0  0  0  0  0
  -29.0946  -23.6335   15.5232 C   0  0  0  0  0  0  0  0  0  0  0  0
  -28.8200  -22.2060   16.0269 C   0  0  0  0  0  0  0  0  0  0  0  0
  -29.5272  -26.6417   16.2495 C   0  0  0  0  0  0  0  0  0  0  0  0
  -26.2186  -22.0856   17.7152 C   0  0  0  0  0  0  0  0  0  0  0  0
  -21.8581  -27.2675   21.7366 C   0  0  1  0  0  0  0  0  0  0  0  0
  -21.4634  -30.9757   22.4171 C   0  0  2  0  0  0  0  0  0  0  0  0
  -30.4774  -24.2267   15.9121 C   0  0  2  0  0  0  0  0  0  0  0  0
  -20.6241  -26.3867   21.3920 C   0  0  0  0  0  0  0  0  0  0  0  0
  -30.6173  -25.7640   15.5557 C   0  0  0  0  0  0  0  0  0  0  0  0
  -28.6360  -15.2560   21.6814 N   0  0  0  0  0  0  0  0  0  0  0  0
  -28.7366  -22.0944   17.5289 N   0  0  0  0  0  0  0  0  0  0  0  0
  -29.9236  -15.4867   21.3734 N   0  0  0  0  0  0  0  0  0  0  0  0
  -27.9447  -21.9460   19.5303 N   0  3  0  0  0  0  0  0  0  0  0  0
  -24.0834  -26.3682   22.3396 N   0  0  0  0  0  0  0  0  0  0  0  0
  -30.4752  -18.8468   23.1096 N   0  0  0  0  0  0  0  0  0  0  0  0
  -31.7007  -14.7359   19.9991 N   0  0  0  0  0  0  0  0  0  0  0  0
  -28.2992  -11.9739   18.9052 N   0  0  0  0  0  0  0  0  0  0  0  0
  -24.9833  -23.1910   23.6907 N   0  0  0  0  0  0  0  0  0  0  0  0
  -21.5229  -28.5814   22.2748 N   0  0  0  0  0  0  0  0  0  0  0  0
  -29.9445  -20.5033   21.5071 N   0  0  0  0  0  0  0  0  0  0  0  0
  -29.3233  -26.3345   17.6579 N   0  0  0  0  0  0  0  0  0  1  0  0
  -22.4708  -32.0696   22.3194 N   0  3  0  0  0  0  0  0  0  0  0  0
  -30.4995  -12.4717   18.4934 O   0  0  0  0  0  0  0  0  0  0  0  0
  -24.7129  -23.9366   21.5013 O   0  0  0  0  0  0  0  0  0  0  0  0
  -22.3242  -26.3401   23.8695 O   0  0  0  0  0  0  0  0  0  0  0  0
  -22.6263  -29.8116   20.6480 O   0  0  0  0  0  0  0  0  0  0  0  0
  -31.2418  -21.0249   23.3242 O   0  0  0  0  0  0  0  0  0  0  0  0
  -23.1555  -12.0773   21.0422 O   0  0  0  0  0  0  0  0  0  0  0  0
  -28.5052  -27.4324   18.1722 O   0  0  0  0  0  0  0  0  0  1  0  0
  -22.6655   -6.5867   21.1724 F   0  0  0  0  0  0  0  0  0  0  0  0
  -21.8865  -10.8161   23.1498 F   0  0  0  0  0  0  0  0  0  0  0  0
  1  2  1  0  0  0  0
  1  5  2  0  0  0  0
  2  6  2  0  0  0  0
  3  8  2  0  0  0  0
  3 16  1  0  0  0  0
  4  9  1  0  0  0  0
  4 16  2  0  0  0  0
  5 18  1  0  0  0  0
  6 20  1  0  0  0  0
  7 10  2  0  0  0  0
  7 19  1  0  0  0  0
  8 22  1  0  0  0  0
  9 22  2  0  0  0  0
 10 23  1  0  0  0  0
 11 12  2  0  0  0  0
 11 24  1  0  0  0  0
 12 25  1  0  0  0  0
 13 21  1  0  0  0  0
 13 23  2  0  0  0  0
 14 25  2  0  0  0  0
 14 26  1  0  0  0  0
 15 28  2  0  0  0  0
 15 69  1  0  0  0  0
 16 27  1  0  0  0  0
 17 27  1  0  0  0  0
 17 29  2  0  0  0  0
 17 31  1  0  0  0  0
 18 20  2  0  0  0  0
 18 36  1  0  0  0  0
 19 21  2  0  0  0  0
 19 37  1  0  0  0  0
 20 45  1  0  0  0  0
 21 38  1  0  0  0  0
 22 86  1  0  0  0  0
 23 87  1  0  0  0  0
 24 26  2  0  0  0  0
 24 86  1  0  0  0  0
 25 88  1  0  0  0  0
 26 89  1  0  0  0  0
 27 68  2  0  0  0  0
 28 58  1  0  0  0  0
 28 71  1  0  0  0  0
 29 70  1  0  0  0  0
 29 74  1  0  0  0  0
 30 62  1  0  0  0  0
 30 69  1  0  0  0  0
 30 71  2  0  0  0  0
 31 75  1  0  0  0  0
 31 81  2  0  0  0  0
 32 46  1  0  0  0  0
 32 76  1  0  0  0  0
 32 82  2  0  0  0  0
 33 63  1  0  0  0  0
 33 72  1  0  0  0  0
 33 83  2  0  0  0  0
 34 64  1  0  0  0  0
 34 77  1  0  0  0  0
 34 84  2  0  0  0  0
 35 73  1  0  0  0  0
 35 78  1  0  0  0  0
 35 85  2  0  0  0  0
 36 39  1  0  0  0  0
 37 46  1  0  0  0  0
 38 72  1  0  0  0  0
 39 41  1  0  0  0  0
 40 42  1  0  0  0  0
 40 43  1  0  0  0  0
 41 45  1  0  0  0  0
 42 47  1  0  0  0  0
 43 73  1  0  0  0  0
 44 47  1  0  0  0  0
 44 73  1  0  0  0  0
 45 76  1  0  0  0  0
 46 72  1  0  0  0  0
 47 70  1  0  0  0  0
 48 62  1  0  0  0  0
 49 62  1  0  0  0  0
 50 64  1  0  0  0  0
 51 65  1  0  0  0  0
 52 66  1  0  0  0  0
 53 66  1  0  0  0  0
 54 66  1  0  0  0  0
 55 67  1  0  0  0  0
 56 67  1  0  0  0  0
 57 80  1  0  0  0  0
 58 78  1  0  0  0  0
 59 60  1  0  0  0  0
 59 65  1  0  0  0  0
 60 69  1  0  0  0  0
 61 67  1  0  0  0  0
 61 79  1  0  0  0  0
 63 66  1  0  0  0  0
 63 77  1  0  0  0  0
 64 80  1  0  0  0  0
 65 67  1  0  0  0  0
 68 70  1  0  0  0  0
 79 87  1  0  0  0  0
M  CHG  2  71   1  80   1
M  ISO  4  35 100  78 100  79 101  87 101
M  END
> <Batch ID>
0095

> <Smiles>
CNC(C)C(=O)NC(C(=O)N1Cc2cc([101O:1][101NH:1]CC(C)(C)C(C)CCn3cc(C[100NH:0][100C:0](=O)N4CCCC(n5nc(-c6ccc(Oc7ccc(F)cc7F)cc6)c(C(N)=O)c5N)C4)nc3C(C)C)ccc2CC1C(=O)NC1CCCc2ccccc21)C(C)(C)C

> <Shape>
0.244

> <Color>
0.056

> <Negative vol penalty>
0.000

$$$$

  -OEChem-04052319213D

 89 97  0     1  0  0  0  0  0999 V2000
  -23.7623  -31.6723   20.9392 C   0  0  0  0  0  0  0  0  0  0  0  0
  -23.0176  -30.7591   20.1997 C   0  0  0  0  0  0  0  0  0  0  0  0
  -31.2494  -19.2745   20.0915 C   0  0  0  0  0  0  0  0  0  0  0  0
  -28.8349  -19.2081   20.1463 C   0  0  0  0  0  0  0  0  0  0  0  0
  -25.0573  -31.3498   21.3427 C   0  0  0  0  0  0  0  0  0  0  0  0
  -23.5679  -29.5231   19.8623 C   0  0  0  0  0  0  0  0  0  0  0  0
  -21.7082  -22.6881   18.7947 C   0  0  0  0  0  0  0  0  0  0  0  0
  -31.2023  -20.5757   19.5914 C   0  0  0  0  0  0  0  0  0  0  0  0
  -28.7878  -20.5094   19.6462 C   0  0  0  0  0  0  0  0  0  0  0  0
  -21.8347  -21.6727   17.8477 C   0  0  0  0  0  0  0  0  0  0  0  0
  -30.6466  -22.0819   16.6170 C   0  0  0  0  0  0  0  0  0  0  0  0
  -31.4872  -22.3958   15.5491 C   0  0  0  0  0  0  0  0  0  0  0  0
  -24.0524  -21.1932   18.6669 C   0  0  0  0  0  0  0  0  0  0  0  0
  -32.5549  -24.0984   16.8901 C   0  0  0  0  0  0  0  0  0  0  0  0
  -30.0656  -18.5906   20.3689 C   0  0  0  0  0  0  0  0  0  0  0  0
  -30.7138  -16.8167   22.0838 C   0  0  0  0  0  0  0  0  0  0  0  0
  -25.6203  -30.1054   21.0183 C   0  0  0  0  0  0  0  0  0  0  0  0
  -22.7589  -22.9712   19.6793 C   0  0  0  0  0  0  0  0  0  0  0  0
  -24.8722  -29.1841   20.2607 C   0  0  0  0  0  0  0  0  0  0  0  0
  -23.9358  -22.2109   19.6259 C   0  0  0  0  0  0  0  0  0  0  0  0
  -22.4593  -14.8149   19.8797 C   0  0  0  0  0  0  0  0  0  0  0  0
  -22.5014  -16.2190   19.6959 C   0  0  0  0  0  0  0  0  0  0  0  0
  -29.9715  -21.1932   19.3687 C   0  0  0  0  0  0  0  0  0  0  0  0
  -23.0080  -20.9270   17.7817 C   0  0  0  0  0  0  0  0  0  0  0  0
  -30.7600  -22.7763   17.8214 C   0  0  0  0  0  0  0  0  0  0  0  0
  -32.4414  -23.4040   15.6857 C   0  0  0  0  0  0  0  0  0  0  0  0
  -31.7142  -23.7846   17.9580 C   0  0  0  0  0  0  0  0  0  0  0  0
  -30.1136  -17.2462   20.8850 C   0  0  0  0  0  0  0  0  0  0  0  0
  -23.1167  -14.5343   21.0571 C   0  0  0  0  0  0  0  0  0  0  0  0
  -23.1834  -16.7537   20.7666 C   0  0  0  0  0  0  0  0  0  0  0  0
  -30.4860  -15.4627   22.1160 C   0  0  0  0  0  0  0  0  0  0  0  0
  -31.4144  -17.5741   23.0794 C   0  0  0  0  0  0  0  0  0  0  0  0
  -24.6046  -25.4990   20.2338 C   0  0  0  0  0  0  0  0  0  0  0  0
  -25.6883  -23.6803   22.6915 C   0  0  0  0  0  0  0  0  0  0  0  0
  -26.1378  -20.5659   24.0126 C   0  0  0  0  0  0  0  0  0  0  0  0
  -26.3005  -11.9720   19.6366 C   0  0  0  0  0  0  0  0  0  0  0  0
  -27.0412  -29.8204   21.4361 C   0  0  0  0  0  0  0  0  0  0  0  0
  -22.5964  -24.0520   20.7127 C   0  0  0  0  0  0  0  0  0  0  0  0
  -25.0853  -22.4617   20.5663 C   0  0  0  0  0  0  0  0  0  0  0  0
  -27.4141  -28.3422   21.3583 C   0  0  0  0  0  0  0  0  0  0  0  0
  -29.8272  -11.7069   19.2262 C   0  0  0  0  0  0  0  0  0  0  0  0
  -26.9506  -27.7437   20.0340 C   0  0  0  0  0  0  0  0  0  0  0  0
  -30.3547  -13.0577   19.7129 C   0  0  0  0  0  0  0  0  0  0  0  0
  -28.4950  -11.8519   18.4939 C   0  0  0  0  0  0  0  0  0  0  0  0
  -27.9754  -13.9165   19.7352 C   0  0  0  0  0  0  0  0  0  0  0  0
  -25.4254  -27.8235   19.8964 C   0  0  1  0  0  0  0  0  0  0  0  0
  -23.9274  -24.5945   21.2242 C   0  0  1  0  0  0  0  0  0  0  0  0
  -29.2894  -13.8147   20.5286 C   0  0  2  0  0  0  0  0  0  0  0  0
  -21.8264  -13.8309   18.9774 C   0  0  0  0  0  0  0  0  0  0  0  0
  -23.5177  -18.1601   21.0777 C   0  0  0  0  0  0  0  0  0  0  0  0
  -27.0861  -19.3956   26.0197 C   0  0  0  0  0  0  0  0  0  0  0  0
  -23.2357  -17.7413   14.9312 C   0  0  0  0  0  0  0  0  0  0  0  0
  -25.6541  -15.1651   22.7586 C   0  0  0  0  0  0  0  0  0  0  0  0
  -23.4796  -15.3949   24.0334 C   0  0  0  0  0  0  0  0  0  0  0  0
  -28.5095  -24.1423   21.6250 C   0  0  0  0  0  0  0  0  0  0  0  0
  -29.2846  -22.2329   23.0469 C   0  0  0  0  0  0  0  0  0  0  0  0
  -28.3026  -24.2624   24.1145 C   0  0  0  0  0  0  0  0  0  0  0  0
  -23.5069  -19.4152   24.7291 C   0  0  0  0  0  0  0  0  0  0  0  0
  -21.9121  -16.9889   18.5406 C   0  0  0  0  0  0  0  0  0  0  0  0
  -22.7767  -16.9698   17.2724 C   0  0  0  0  0  0  0  0  0  0  0  0
  -24.1485  -12.2358   20.8443 C   0  0  0  0  0  0  0  0  0  0  0  0
  -21.9405  -19.2635   16.4592 C   0  0  0  0  0  0  0  0  0  1  0  0
  -23.3668  -13.2381   21.7230 C   0  0  2  0  0  0  0  0  0  0  0  0
  -26.7924  -22.6656   22.8648 C   0  0  1  0  0  0  0  0  0  0  0  0
  -25.8420  -20.0044   25.3916 C   0  0  2  0  0  0  0  0  0  0  0  0
  -22.2330  -17.8028   16.0905 C   0  0  1  0  0  0  0  0  0  0  0  0
  -24.2928  -15.8604   22.8241 C   0  0  0  0  0  0  0  0  0  0  0  0
  -28.2015  -23.3221   22.8937 C   0  0  0  0  0  0  0  0  0  0  0  0
  -29.5473  -16.2460   20.2047 N   0  0  0  0  0  0  0  0  0  0  0  0
  -23.5530  -15.7203   21.5874 N   0  0  0  0  0  0  0  0  0  0  0  0
  -29.7907  -15.1745   20.9786 N   0  0  0  0  0  0  0  0  0  0  0  0
  -24.8807  -23.5334   21.5548 N   0  0  0  0  0  0  0  0  0  0  0  0
  -27.5285  -12.5770   19.3221 N   0  0  0  0  0  0  0  0  0  0  0  0
  -30.8148  -14.5022   23.0058 N   0  0  0  0  0  0  0  0  0  0  0  0
  -30.6817  -18.1193   24.1425 N   0  0  0  0  0  0  0  0  0  0  0  0
  -24.7918  -26.7906   20.6877 N   0  0  0  0  0  0  0  0  0  0  0  0
  -26.4630  -21.9049   24.0653 N   0  0  0  0  0  0  0  0  0  0  0  0
  -25.4450  -12.7251   20.4314 N   0  0  0  0  0  0  0  0  0  0  0  0
  -22.1049  -12.5447   22.1808 N   0  3  0  0  0  0  0  0  0  0  0  0
  -24.7935  -18.9487   25.3071 N   0  3  0  0  0  0  0  0  0  0  0  0
  -32.6511  -17.7757   23.0190 O   0  0  0  0  0  0  0  0  0  0  0  0
  -24.9344  -25.0572   19.1393 O   0  0  0  0  0  0  0  0  0  0  0  0
  -25.5430  -24.5663   23.5374 O   0  0  0  0  0  0  0  0  0  0  0  0
  -26.0891  -19.8840   22.9912 O   0  0  0  0  0  0  0  0  0  0  0  0
  -25.9916  -10.8421   19.2430 O   0  0  0  0  0  0  0  0  0  0  0  0
  -29.9252  -22.4630   18.8810 O   0  0  0  0  0  0  0  0  0  0  0  0
  -23.1344  -19.9359   16.8579 O   0  0  0  0  0  0  0  0  0  1  0  0
  -33.2497  -23.7043   14.6606 F   0  0  0  0  0  0  0  0  0  0  0  0
  -31.8287  -24.4544   19.1130 F   0  0  0  0  0  0  0  0  0  0  0  0
  1  2  1  0  0  0  0
  1  5  2  0  0  0  0
  2  6  2  0  0  0  0
  3  8  2  0  0  0  0
  3 15  1  0  0  0  0
  4  9  1  0  0  0  0
  4 15  2  0  0  0  0
  5 17  1  0  0  0  0
  6 19  1  0  0  0  0
  7 10  2  0  0  0  0
  7 18  1  0  0  0  0
  8 23  1  0  0  0  0
  9 23  2  0  0  0  0
 10 24  1  0  0  0  0
 11 12  2  0  0  0  0
 11 25  1  0  0  0  0
 12 26  1  0  0  0  0
 13 20  1  0  0  0  0
 13 24  2  0  0  0  0
 14 26  2  0  0  0  0
 14 27  1  0  0  0  0
 15 28  1  0  0  0  0
 16 28  1  0  0  0  0
 16 31  2  0  0  0  0
 16 32  1  0  0  0  0
 17 19  2  0  0  0  0
 17 37  1  0  0  0  0
 18 20  2  0  0  0  0
 18 38  1  0  0  0  0
 19 46  1  0  0  0  0
 20 39  1  0  0  0  0
 21 22  1  0  0  0  0
 21 29  2  0  0  0  0
 21 49  1  0  0  0  0
 22 30  2  0  0  0  0
 22 59  1  0  0  0  0
 23 86  1  0  0  0  0
 24 87  1  0  0  0  0
 25 27  2  0  0  0  0
 25 86  1  0  0  0  0
 26 88  1  0  0  0  0
 27 89  1  0  0  0  0
 28 69  2  0  0  0  0
 29 63  1  0  0  0  0
 29 70  1  0  0  0  0
 30 50  1  0  0  0  0
 30 70  1  0  0  0  0
 31 71  1  0  0  0  0
 31 74  1  0  0  0  0
 32 75  1  0  0  0  0
 32 81  2  0  0  0  0
 33 47  1  0  0  0  0
 33 76  1  0  0  0  0
 33 82  2  0  0  0  0
 34 64  1  0  0  0  0
 34 72  1  0  0  0  0
 34 83  2  0  0  0  0
 35 65  1  0  0  0  0
 35 77  1  0  0  0  0
 35 84  2  0  0  0  0
 36 73  1  0  0  0  0
 36 78  1  0  0  0  0
 36 85  2  0  0  0  0
 37 40  1  0  0  0  0
 38 47  1  0  0  0  0
 39 72  1  0  0  0  0
 40 42  1  0  0  0  0
 41 43  1  0  0  0  0
 41 44  1  0  0  0  0
 42 46  1  0  0  0  0
 43 48  1  0  0  0  0
 44 73  1  0  0  0  0
 45 48  1  0  0  0  0
 45 73  1  0  0  0  0
 46 76  1  0  0  0  0
 47 72  1  0  0  0  0
 48 71  1  0  0  0  0
 51 65  1  0  0  0  0
 52 66  1  0  0  0  0
 53 67  1  0  0  0  0
 54 67  1  0  0  0  0
 55 68  1  0  0  0  0
 56 68  1  0  0  0  0
 57 68  1  0  0  0  0
 58 80  1  0  0  0  0
 59 60  1  0  0  0  0
 60 66  1  0  0  0  0
 61 63  1  0  0  0  0
 61 78  1  0  0  0  0
 62 66  1  0  0  0  0
 62 87  1  0  0  0  0
 63 79  1  0  0  0  0
 64 68  1  0  0  0  0
 64 77  1  0  0  0  0
 65 80  1  0  0  0  0
 67 70  1  0  0  0  0
 69 71  1  0  0  0  0
M  CHG  2  79   1  80   1
M  ISO  4  36 100  62 101  78 100  87 101
M  END
> <Batch ID>
0095

> <Smiles>
CNC(C)C(=O)NC(C(=O)N1Cc2cc([101O:1][101CH2:1]C(C)CCc3c(C)c(C(N)C[100NH:0][100C:0](=O)N4CCCC(n5nc(-c6ccc(Oc7ccc(F)cc7F)cc6)c(C(N)=O)c5N)C4)n(C(C)C)c3C)ccc2CC1C(=O)NC1CCCc2ccccc21)C(C)(C)C

> <Shape>
0.214

> <Color>
0.065

> <Negative vol penalty>
0.000

$$$$

  -OEChem-04052319213D

 90 98  0     1  0  0  0  0  0999 V2000
  -38.3921  -24.5892   17.2542 C   0  0  0  0  0  0  0  0  0  0  0  0
  -37.2514  -23.7999   17.1474 C   0  0  0  0  0  0  0  0  0  0  0  0
  -23.0060   -9.8975   19.9613 C   0  0  0  0  0  0  0  0  0  0  0  0
  -23.7459   -9.9135   22.2612 C   0  0  0  0  0  0  0  0  0  0  0  0
  -38.2901  -25.9008   17.7158 C   0  0  0  0  0  0  0  0  0  0  0  0
  -36.0082  -24.3216   17.5032 C   0  0  0  0  0  0  0  0  0  0  0  0
  -30.6098  -23.0771   14.8926 C   0  0  0  0  0  0  0  0  0  0  0  0
  -22.2448   -8.7564   20.2141 C   0  0  0  0  0  0  0  0  0  0  0  0
  -22.9846   -8.7724   22.5140 C   0  0  0  0  0  0  0  0  0  0  0  0
  -29.5759  -22.2101   15.2435 C   0  0  0  0  0  0  0  0  0  0  0  0
  -23.2363   -5.4424   21.9865 C   0  0  0  0  0  0  0  0  0  0  0  0
  -23.8318   -4.4150   22.7182 C   0  0  0  0  0  0  0  0  0  0  0  0
  -31.5303  -18.4295   20.0288 C   0  0  0  0  0  0  0  0  0  0  0  0
  -28.4255  -24.0312   16.3295 C   0  0  0  0  0  0  0  0  0  0  0  0
  -22.1181   -4.6252   24.4082 C   0  0  0  0  0  0  0  0  0  0  0  0
  -23.7566  -10.4761   20.9848 C   0  0  0  0  0  0  0  0  0  0  0  0
  -30.8716  -19.4755   19.3368 C   0  0  0  0  0  0  0  0  0  0  0  0
  -24.1330  -12.9954   20.8472 C   0  0  0  0  0  0  0  0  0  0  0  0
  -37.0437  -26.4419   18.0683 C   0  0  0  0  0  0  0  0  0  0  0  0
  -30.5644  -24.4276   15.2677 C   0  0  0  0  0  0  0  0  0  0  0  0
  -35.8896  -25.6413   17.9712 C   0  0  0  0  0  0  0  0  0  0  0  0
  -29.4588  -24.9138   15.9800 C   0  0  0  0  0  0  0  0  0  0  0  0
  -22.2340   -8.1939   21.4905 C   0  0  0  0  0  0  0  0  0  0  0  0
  -28.4849  -22.6864   15.9645 C   0  0  0  0  0  0  0  0  0  0  0  0
  -22.0816   -6.0612   22.4656 C   0  0  0  0  0  0  0  0  0  0  0  0
  -23.2727   -4.0064   23.9290 C   0  0  0  0  0  0  0  0  0  0  0  0
  -21.5225   -5.6526   23.6764 C   0  0  0  0  0  0  0  0  0  0  0  0
  -24.5437  -11.6545   20.7241 C   0  0  0  0  0  0  0  0  0  0  0  0
  -30.6442  -17.9282   20.9567 C   0  0  0  0  0  0  0  0  0  0  0  0
  -29.6030  -19.5818   19.8629 C   0  0  0  0  0  0  0  0  0  0  0  0
  -25.2381  -13.7274   20.4874 C   0  0  0  0  0  0  0  0  0  0  0  0
  -31.3988  -20.2736   18.2983 C   0  0  0  0  0  0  0  0  0  0  0  0
  -32.6662  -20.2147   17.7611 C   0  0  0  0  0  0  0  0  0  0  0  0
  -22.8658  -13.5314   21.2506 C   0  0  0  0  0  0  0  0  0  0  0  0
  -32.3654  -26.3123   17.0864 C   0  0  0  0  0  0  0  0  0  0  0  0
  -30.3813  -28.6256   15.9754 C   0  0  0  0  0  0  0  0  0  0  0  0
  -27.3411  -29.4500   14.6623 C   0  0  0  0  0  0  0  0  0  0  0  0
  -30.7330  -14.6755   20.7158 C   0  0  0  0  0  0  0  0  0  0  0  0
  -36.9895  -27.8496   18.6070 C   0  0  0  0  0  0  0  0  0  0  0  0
  -31.6750  -25.3558   14.8584 C   0  0  0  0  0  0  0  0  0  0  0  0
  -29.3525  -26.3594   16.3892 C   0  0  0  0  0  0  0  0  0  0  0  0
  -35.5850  -28.4477   18.6082 C   0  0  0  0  0  0  0  0  0  0  0  0
  -29.5847  -12.2865   18.3387 C   0  0  0  0  0  0  0  0  0  0  0  0
  -34.5809  -27.4511   19.1785 C   0  0  0  0  0  0  0  0  0  0  0  0
  -28.1398  -12.0154   18.7613 C   0  0  0  0  0  0  0  0  0  0  0  0
  -30.4942  -12.5052   19.5458 C   0  0  0  0  0  0  0  0  0  0  0  0
  -28.5903  -13.2728   20.9095 C   0  0  0  0  0  0  0  0  0  0  0  0
  -34.5198  -26.1793   18.3240 C   0  0  1  0  0  0  0  0  0  0  0  0
  -31.7691  -26.5991   15.7374 C   0  0  1  0  0  0  0  0  0  0  0  0
  -27.6242  -13.1013   19.7248 C   0  0  2  0  0  0  0  0  0  0  0  0
  -33.1851  -21.0884   16.6655 C   0  0  0  0  0  0  0  0  0  0  0  0
  -25.9973  -31.4251   13.8940 C   0  0  0  0  0  0  0  0  0  0  0  0
  -25.9354  -19.4445   23.3283 C   0  0  0  0  0  0  0  0  0  0  0  0
  -27.4349  -19.3662   25.3299 C   0  0  0  0  0  0  0  0  0  0  0  0
  -25.3196  -20.0954   17.2269 C   0  0  0  0  0  0  0  0  0  0  0  0
  -29.8543  -29.3942   18.8809 C   0  0  0  0  0  0  0  0  0  0  0  0
  -27.8486  -30.6761   18.1051 C   0  0  0  0  0  0  0  0  0  0  0  0
  -30.1247  -31.3310   17.3220 C   0  0  0  0  0  0  0  0  0  0  0  0
  -27.1430  -28.3899   11.9062 C   0  0  0  0  0  0  0  0  0  0  0  0
  -28.4735  -20.5176   19.5116 C   0  0  0  0  0  0  0  0  0  0  0  0
  -30.8166  -16.8352   21.9356 C   0  0  0  0  0  0  0  0  0  0  0  0
  -27.4024  -19.8913   18.6080 C   0  0  0  0  0  0  0  0  0  0  0  0
  -28.4326  -19.0098   23.0522 C   0  0  0  0  0  0  0  0  0  0  0  0
  -28.2901  -18.4183   21.6482 C   0  0  0  0  0  0  0  0  0  0  0  0
  -26.7680  -22.1324   17.5141 C   0  0  0  0  0  0  0  0  0  1  0  0
  -29.0675  -29.2154   16.4283 C   0  0  1  0  0  0  0  0  0  0  0  0
  -26.9574  -30.3209   13.4796 C   0  0  2  0  0  0  0  0  0  0  0  0
  -27.1855  -18.8007   23.9297 C   0  0  0  0  0  0  0  0  0  0  0  0
  -26.2645  -20.8428   18.1764 C   0  0  1  0  0  0  0  0  0  0  0  0
  -29.2264  -30.1265   17.6782 C   0  0  0  0  0  0  0  0  0  0  0  0
  -25.8107  -11.5386   20.3178 N   0  0  0  0  0  0  0  0  0  0  0  0
  -29.4761  -18.6365   20.8470 N   0  0  0  0  0  0  0  0  0  0  0  0
  -26.2057  -12.8159   20.1823 N   0  0  0  0  0  0  0  0  0  0  0  0
  -30.4666  -27.2261   15.9709 N   0  0  0  0  0  0  0  0  0  0  0  0
  -29.9496  -13.5482   20.4184 N   0  0  0  0  0  0  0  0  0  0  0  0
  -25.4667  -15.0553   20.4054 N   0  0  0  0  0  0  0  0  0  0  0  0
  -21.8390  -12.6385   21.5864 N   0  0  0  0  0  0  0  0  0  0  0  0
  -33.7431  -26.4125   17.1254 N   0  0  0  0  0  0  0  0  0  0  0  0
  -28.5004  -29.8897   15.2655 N   0  0  0  0  0  0  0  0  0  0  0  0
  -30.1389  -15.6192   21.5449 N   0  0  0  0  0  0  0  0  0  0  0  0
  -26.3015  -29.4998   12.4229 N   0  3  0  0  0  0  0  0  0  0  0  0
  -22.6454  -14.7655   21.2958 O   0  0  0  0  0  0  0  0  0  0  0  0
  -31.6300  -26.0231   18.0230 O   0  0  0  0  0  0  0  0  0  0  0  0
  -31.2957  -29.3787   15.6314 O   0  0  0  0  0  0  0  0  0  0  0  0
  -26.6767  -28.4790   15.0178 O   0  0  0  0  0  0  0  0  0  0  0  0
  -31.8751  -14.8322   20.2708 O   0  0  0  0  0  0  0  0  0  0  0  0
  -21.4911   -7.0805   21.7376 O   0  0  0  0  0  0  0  0  0  0  0  0
  -27.4747  -21.8422   16.3088 O   0  0  0  0  0  0  0  0  0  1  0  0
  -23.8439   -3.0188   24.6308 F   0  0  0  0  0  0  0  0  0  0  0  0
  -20.4127   -6.2426   24.1412 F   0  0  0  0  0  0  0  0  0  0  0  0
  1  2  1  0  0  0  0
  1  5  2  0  0  0  0
  2  6  2  0  0  0  0
  3  8  2  0  0  0  0
  3 16  1  0  0  0  0
  4  9  1  0  0  0  0
  4 16  2  0  0  0  0
  5 19  1  0  0  0  0
  6 21  1  0  0  0  0
  7 10  2  0  0  0  0
  7 20  1  0  0  0  0
  8 23  1  0  0  0  0
  9 23  2  0  0  0  0
 10 24  1  0  0  0  0
 11 12  2  0  0  0  0
 11 25  1  0  0  0  0
 12 26  1  0  0  0  0
 13 17  1  0  0  0  0
 13 29  2  0  0  0  0
 14 22  1  0  0  0  0
 14 24  2  0  0  0  0
 15 26  2  0  0  0  0
 15 27  1  0  0  0  0
 16 28  1  0  0  0  0
 17 30  2  0  0  0  0
 17 32  1  0  0  0  0
 18 28  1  0  0  0  0
 18 31  2  0  0  0  0
 18 34  1  0  0  0  0
 19 21  2  0  0  0  0
 19 39  1  0  0  0  0
 20 22  2  0  0  0  0
 20 40  1  0  0  0  0
 21 48  1  0  0  0  0
 22 41  1  0  0  0  0
 23 87  1  0  0  0  0
 24 88  1  0  0  0  0
 25 27  2  0  0  0  0
 25 87  1  0  0  0  0
 26 89  1  0  0  0  0
 27 90  1  0  0  0  0
 28 71  2  0  0  0  0
 29 61  1  0  0  0  0
 29 72  1  0  0  0  0
 30 60  1  0  0  0  0
 30 72  1  0  0  0  0
 31 73  1  0  0  0  0
 31 76  1  0  0  0  0
 32 33  2  0  0  0  0
 33 51  1  0  0  0  0
 34 77  1  0  0  0  0
 34 82  2  0  0  0  0
 35 49  1  0  0  0  0
 35 78  1  0  0  0  0
 35 83  2  0  0  0  0
 36 66  1  0  0  0  0
 36 74  1  0  0  0  0
 36 84  2  0  0  0  0
 37 67  1  0  0  0  0
 37 79  1  0  0  0  0
 37 85  2  0  0  0  0
 38 75  1  0  0  0  0
 38 80  1  0  0  0  0
 38 86  2  0  0  0  0
 39 42  1  0  0  0  0
 40 49  1  0  0  0  0
 41 74  1  0  0  0  0
 42 44  1  0  0  0  0
 43 45  1  0  0  0  0
 43 46  1  0  0  0  0
 44 48  1  0  0  0  0
 45 50  1  0  0  0  0
 46 75  1  0  0  0  0
 47 50  1  0  0  0  0
 47 75  1  0  0  0  0
 48 78  1  0  0  0  0
 49 74  1  0  0  0  0
 50 73  1  0  0  0  0
 52 67  1  0  0  0  0
 53 68  1  0  0  0  0
 54 68  1  0  0  0  0
 55 69  1  0  0  0  0
 56 70  1  0  0  0  0
 57 70  1  0  0  0  0
 58 70  1  0  0  0  0
 59 81  1  0  0  0  0
 60 62  1  0  0  0  0
 61 80  1  0  0  0  0
 62 69  1  0  0  0  0
 63 64  1  0  0  0  0
 63 68  1  0  0  0  0
 64 72  1  0  0  0  0
 65 69  1  0  0  0  0
 65 88  1  0  0  0  0
 66 70  1  0  0  0  0
 66 79  1  0  0  0  0
 67 81  1  0  0  0  0
 71 73  1  0  0  0  0
M  CHG  1  81   1
M  ISO  4  38 100  65 101  80 100  88 101
M  END
> <Batch ID>
0095

> <Smiles>
CC=Cc1cc(C[100NH:0][100C:0](=O)N2CCCC(n3nc(-c4ccc(Oc5ccc(F)cc5F)cc4)c(C(N)=O)c3N)C2)n(CCC(C)C)c1CCC(C)[101CH2:1][101O:1]c1ccc2c(c1)CN(C(=O)C(NC(=O)C(C)NC)C(C)(C)C)C(C(=O)NC1CCCc3ccccc31)C2

> <Shape>
0.213

> <Color>
0.194

> <Negative vol penalty>
0.000

$$$$

  -OEChem-04052319213D

 90 98  0     1  0  0  0  0  0999 V2000
  -30.3206  -24.1506   14.9013 C   0  0  0  0  0  0  0  0  0  0  0  0
  -29.3561  -23.8307   15.8514 C   0  0  0  0  0  0  0  0  0  0  0  0
  -24.5124  -11.7244   20.0693 C   0  0  0  0  0  0  0  0  0  0  0  0
  -25.3399  -12.2472   22.2781 C   0  0  0  0  0  0  0  0  0  0  0  0
  -31.2203  -25.1876   15.1447 C   0  0  0  0  0  0  0  0  0  0  0  0
  -29.2914  -24.5469   17.0461 C   0  0  0  0  0  0  0  0  0  0  0  0
  -24.5507  -25.8142   18.2971 C   0  0  0  0  0  0  0  0  0  0  0  0
  -24.6511  -10.3630   20.3395 C   0  0  0  0  0  0  0  0  0  0  0  0
  -25.4787  -10.8858   22.5483 C   0  0  0  0  0  0  0  0  0  0  0  0
  -23.7527  -24.8186   18.8591 C   0  0  0  0  0  0  0  0  0  0  0  0
  -24.4468   -6.7413   20.5774 C   0  0  0  0  0  0  0  0  0  0  0  0
  -23.3971   -5.8978   20.2140 C   0  0  0  0  0  0  0  0  0  0  0  0
  -24.1802  -25.7235   21.0540 C   0  0  0  0  0  0  0  0  0  0  0  0
  -24.9783  -21.7582   21.7029 C   0  0  0  0  0  0  0  0  0  0  0  0
  -21.9066   -7.1281   21.6637 C   0  0  0  0  0  0  0  0  0  0  0  0
  -24.8568  -12.6665   21.0386 C   0  0  0  0  0  0  0  0  0  0  0  0
  -23.5818  -14.8756   20.9944 C   0  0  0  0  0  0  0  0  0  0  0  0
  -31.1604  -25.9232   16.3388 C   0  0  0  0  0  0  0  0  0  0  0  0
  -25.1793  -26.7669   19.1116 C   0  0  0  0  0  0  0  0  0  0  0  0
  -30.1919  -25.5939   17.3063 C   0  0  0  0  0  0  0  0  0  0  0  0
  -24.9836  -26.7316   20.4996 C   0  0  0  0  0  0  0  0  0  0  0  0
  -23.7065  -21.3702   22.1091 C   0  0  0  0  0  0  0  0  0  0  0  0
  -23.4999  -20.9445   23.4166 C   0  0  0  0  0  0  0  0  0  0  0  0
  -25.1342   -9.9437   21.5790 C   0  0  0  0  0  0  0  0  0  0  0  0
  -23.5697  -24.7714   20.2380 C   0  0  0  0  0  0  0  0  0  0  0  0
  -24.2265   -7.7783   21.4840 C   0  0  0  0  0  0  0  0  0  0  0  0
  -22.1270   -6.0912   20.7571 C   0  0  0  0  0  0  0  0  0  0  0  0
  -22.9563   -7.9717   22.0271 C   0  0  0  0  0  0  0  0  0  0  0  0
  -24.7143  -14.0729   20.7598 C   0  0  0  0  0  0  0  0  0  0  0  0
  -26.0019  -21.7028   22.6351 C   0  0  0  0  0  0  0  0  0  0  0  0
  -24.5898  -20.9253   24.2720 C   0  0  0  0  0  0  0  0  0  0  0  0
  -23.9510  -16.1255   20.5611 C   0  0  0  0  0  0  0  0  0  0  0  0
  -22.3097  -14.5228   21.5540 C   0  0  0  0  0  0  0  0  0  0  0  0
  -28.1974  -27.5601   19.7164 C   0  0  0  0  0  0  0  0  0  0  0  0
  -26.8189  -29.9632   21.4037 C   0  0  0  0  0  0  0  0  0  0  0  0
  -24.0858  -31.1260   23.0844 C   0  0  0  0  0  0  0  0  0  0  0  0
  -28.5722  -19.6077   20.3774 C   0  0  0  0  0  0  0  0  0  0  0  0
  -32.1844  -27.0045   16.5774 C   0  0  0  0  0  0  0  0  0  0  0  0
  -26.0153  -27.8505   18.4876 C   0  0  0  0  0  0  0  0  0  0  0  0
  -25.6199  -27.7433   21.4162 C   0  0  0  0  0  0  0  0  0  0  0  0
  -31.8094  -27.9598   17.7076 C   0  0  0  0  0  0  0  0  0  0  0  0
  -27.4158  -17.8674   17.4946 C   0  0  0  0  0  0  0  0  0  0  0  0
  -31.3306  -27.1806   18.9284 C   0  0  0  0  0  0  0  0  0  0  0  0
  -26.4960  -16.7862   18.0645 C   0  0  0  0  0  0  0  0  0  0  0  0
  -28.6205  -18.1178   18.3990 C   0  0  0  0  0  0  0  0  0  0  0  0
  -27.3683  -17.3390   20.3737 C   0  0  0  0  0  0  0  0  0  0  0  0
  -30.0741  -26.3639   18.6037 C   0  0  1  0  0  0  0  0  0  0  0  0
  -27.0230  -28.4607   19.4569 C   0  0  1  0  0  0  0  0  0  0  0  0
  -26.1099  -17.0908   19.5244 C   0  0  2  0  0  0  0  0  0  0  0  0
  -21.5786  -19.3754   23.0523 C   0  0  0  0  0  0  0  0  0  0  0  0
  -23.2717  -33.1097   24.3881 C   0  0  0  0  0  0  0  0  0  0  0  0
  -23.9113  -19.0106   25.7617 C   0  0  0  0  0  0  0  0  0  0  0  0
  -23.4097  -21.3790   26.4511 C   0  0  0  0  0  0  0  0  0  0  0  0
  -25.7353  -20.5053   26.5495 C   0  0  0  0  0  0  0  0  0  0  0  0
  -28.4896  -29.0731   23.7967 C   0  0  0  0  0  0  0  0  0  0  0  0
  -26.9767  -30.4222   25.2663 C   0  0  0  0  0  0  0  0  0  0  0  0
  -28.3292  -31.5512   23.5003 C   0  0  0  0  0  0  0  0  0  0  0  0
  -21.8957  -31.6377   21.1607 C   0  0  0  0  0  0  0  0  0  0  0  0
  -29.0509  -23.9583   22.2968 C   0  0  0  0  0  0  0  0  0  0  0  0
  -26.7631  -24.3191   23.2113 C   0  0  0  0  0  0  0  0  0  0  0  0
  -22.5722  -21.4175   21.1144 C   0  0  0  0  0  0  0  0  0  0  0  0
  -22.1460  -20.5246   23.8812 C   0  0  0  0  0  0  0  0  0  0  0  0
  -28.4205  -20.9949   22.4297 C   0  0  0  0  0  0  0  0  0  0  0  0
  -22.7328  -22.5493   20.1053 C   0  0  0  0  0  0  0  0  0  1  0  0
  -27.3798  -22.1130   22.2349 C   0  0  2  0  0  0  0  0  0  0  0  0
  -26.3456  -30.1356   22.8269 C   0  0  1  0  0  0  0  0  0  0  0  0
  -23.3523  -32.4535   23.0186 C   0  0  2  0  0  0  0  0  0  0  0  0
  -24.4300  -20.4793   25.6888 C   0  0  0  0  0  0  0  0  0  0  0  0
  -27.5247  -30.2751   23.8307 C   0  0  0  0  0  0  0  0  0  0  0  0
  -25.7271  -14.7556   20.2193 N   0  0  0  0  0  0  0  0  0  0  0  0
  -25.8399  -21.2949   23.9138 N   0  0  0  0  0  0  0  0  0  0  0  0
  -25.2323  -16.0004   20.1105 N   0  0  0  0  0  0  0  0  0  0  0  0
  -26.4334  -28.7794   20.7588 N   0  0  0  0  0  0  0  0  0  0  0  0
  -28.1857  -18.4023   19.7687 N   0  0  0  0  0  0  0  0  0  0  0  0
  -23.3015  -17.3084   20.5252 N   0  0  0  0  0  0  0  0  0  0  0  0
  -22.0980  -13.1942   21.9470 N   0  0  0  0  0  0  0  0  0  0  0  0
  -28.9071  -27.2195   18.5807 N   0  0  0  0  0  0  0  0  0  0  0  0
  -25.4308  -31.2719   22.8180 N   0  0  0  0  0  0  0  0  0  0  0  0
  -28.1119  -19.8013   21.6741 N   0  0  0  0  0  0  0  0  0  0  0  0
  -21.9655  -32.2544   22.5105 N   0  3  0  0  0  0  0  0  0  0  0  0
  -27.8674  -23.3308   22.9734 N   0  3  0  0  0  0  0  0  0  0  0  0
  -21.3825  -15.3573   21.6860 O   0  0  0  0  0  0  0  0  0  0  0  0
  -28.4425  -27.2019   20.8625 O   0  0  0  0  0  0  0  0  0  0  0  0
  -27.4993  -30.8495   20.8812 O   0  0  0  0  0  0  0  0  0  0  0  0
  -23.5226  -30.0663   23.3496 O   0  0  0  0  0  0  0  0  0  0  0  0
  -29.2709  -20.4514   19.8057 O   0  0  0  0  0  0  0  0  0  0  0  0
  -25.2695   -8.6154   21.8431 O   0  0  0  0  0  0  0  0  0  0  0  0
  -22.7919  -23.8003   20.7892 O   0  0  0  0  0  0  0  0  0  1  0  0
  -21.1186   -5.2820   20.4069 F   0  0  0  0  0  0  0  0  0  0  0  0
  -22.7383   -8.9669   22.8976 F   0  0  0  0  0  0  0  0  0  0  0  0
  1  2  1  0  0  0  0
  1  5  2  0  0  0  0
  2  6  2  0  0  0  0
  3  8  2  0  0  0  0
  3 16  1  0  0  0  0
  4  9  1  0  0  0  0
  4 16  2  0  0  0  0
  5 18  1  0  0  0  0
  6 20  1  0  0  0  0
  7 10  2  0  0  0  0
  7 19  1  0  0  0  0
  8 24  1  0  0  0  0
  9 24  2  0  0  0  0
 10 25  1  0  0  0  0
 11 12  2  0  0  0  0
 11 26  1  0  0  0  0
 12 27  1  0  0  0  0
 13 21  1  0  0  0  0
 13 25  2  0  0  0  0
 14 22  2  0  0  0  0
 14 30  1  0  0  0  0
 15 27  2  0  0  0  0
 15 28  1  0  0  0  0
 16 29  1  0  0  0  0
 17 29  1  0  0  0  0
 17 32  2  0  0  0  0
 17 33  1  0  0  0  0
 18 20  2  0  0  0  0
 18 38  1  0  0  0  0
 19 21  2  0  0  0  0
 19 39  1  0  0  0  0
 20 47  1  0  0  0  0
 21 40  1  0  0  0  0
 22 23  1  0  0  0  0
 22 61  1  0  0  0  0
 23 31  2  0  0  0  0
 23 62  1  0  0  0  0
 24 87  1  0  0  0  0
 25 88  1  0  0  0  0
 26 28  2  0  0  0  0
 26 87  1  0  0  0  0
 27 89  1  0  0  0  0
 28 90  1  0  0  0  0
 29 70  2  0  0  0  0
 30 65  1  0  0  0  0
 30 71  2  0  0  0  0
 31 68  1  0  0  0  0
 31 71  1  0  0  0  0
 32 72  1  0  0  0  0
 32 75  1  0  0  0  0
 33 76  1  0  0  0  0
 33 82  2  0  0  0  0
 34 48  1  0  0  0  0
 34 77  1  0  0  0  0
 34 83  2  0  0  0  0
 35 66  1  0  0  0  0
 35 73  1  0  0  0  0
 35 84  2  0  0  0  0
 36 67  1  0  0  0  0
 36 78  1  0  0  0  0
 36 85  2  0  0  0  0
 37 74  1  0  0  0  0
 37 79  1  0  0  0  0
 37 86  2  0  0  0  0
 38 41  1  0  0  0  0
 39 48  1  0  0  0  0
 40 73  1  0  0  0  0
 41 43  1  0  0  0  0
 42 44  1  0  0  0  0
 42 45  1  0  0  0  0
 43 47  1  0  0  0  0
 44 49  1  0  0  0  0
 45 74  1  0  0  0  0
 46 49  1  0  0  0  0
 46 74  1  0  0  0  0
 47 77  1  0  0  0  0
 48 73  1  0  0  0  0
 49 72  1  0  0  0  0
 50 62  1  0  0  0  0
 51 67  1  0  0  0  0
 52 68  1  0  0  0  0
 53 68  1  0  0  0  0
 54 68  1  0  0  0  0
 55 69  1  0  0  0  0
 56 69  1  0  0  0  0
 57 69  1  0  0  0  0
 58 80  1  0  0  0  0
 59 81  1  0  0  0  0
 60 81  1  0  0  0  0
 61 64  1  0  0  0  0
 63 65  1  0  0  0  0
 63 79  1  0  0  0  0
 64 88  1  0  0  0  0
 65 81  1  0  0  0  0
 66 69  1  0  0  0  0
 66 78  1  0  0  0  0
 67 80  1  0  0  0  0
 70 72  1  0  0  0  0
M  CHG  2  80   1  81   1
M  ISO  4  37 100  64 101  79 100  88 101
M  END
> <Batch ID>
0095

> <Smiles>
CCc1c(C[101CH2:1][101O:1]c2ccc3c(c2)CN(C(=O)C(NC(=O)C(C)NC)C(C)(C)C)C(C(=O)NC2CCCc4ccccc42)C3)cc(C(C[100NH:0][100C:0](=O)N2CCCC(n3nc(-c4ccc(Oc5ccc(F)cc5F)cc4)c(C(N)=O)c3N)C2)N(C)C)nc1C(C)(C)C

> <Shape>
0.235

> <Color>
0.074

> <Negative vol penalty>
0.000

$$$$

  -OEChem-04052319213D

 82 89  0     1  0  0  0  0  0999 V2000
  -25.0612  -10.8874   20.9716 C   0  0  0  0  0  0  0  0  0  0  0  0
  -24.3282  -11.8688   21.6310 C   0  0  0  0  0  0  0  0  0  0  0  0
  -28.5519  -25.8296   20.1307 C   0  0  0  0  0  0  0  0  0  0  0  0
  -26.5337  -25.3715   18.8840 C   0  0  0  0  0  0  0  0  0  0  0  0
  -26.1991  -11.2380   20.2462 C   0  0  0  0  0  0  0  0  0  0  0  0
  -24.7334  -13.2016   21.5662 C   0  0  0  0  0  0  0  0  0  0  0  0
  -22.0656  -19.8491   21.4699 C   0  0  0  0  0  0  0  0  0  0  0  0
  -28.9889  -24.5248   19.9026 C   0  0  0  0  0  0  0  0  0  0  0  0
  -26.9708  -24.0667   18.6559 C   0  0  0  0  0  0  0  0  0  0  0  0
  -22.2007  -21.0735   22.1231 C   0  0  0  0  0  0  0  0  0  0  0  0
  -30.4716  -21.2047   19.9533 C   0  0  0  0  0  0  0  0  0  0  0  0
  -31.0110  -20.5022   21.0308 C   0  0  0  0  0  0  0  0  0  0  0  0
  -24.1376  -21.5723   20.7745 C   0  0  0  0  0  0  0  0  0  0  0  0
  -28.9257  -20.7370   22.2280 C   0  0  0  0  0  0  0  0  0  0  0  0
  -27.3242  -26.2530   19.6214 C   0  0  0  0  0  0  0  0  0  0  0  0
  -27.1119  -28.7308   19.0529 C   0  0  0  0  0  0  0  0  0  0  0  0
  -26.6128  -12.5770   20.1645 C   0  0  0  0  0  0  0  0  0  0  0  0
  -22.9735  -19.4718   20.4701 C   0  0  0  0  0  0  0  0  0  0  0  0
  -25.8786  -13.5703   20.8401 C   0  0  0  0  0  0  0  0  0  0  0  0
  -24.0104  -20.3438   20.1084 C   0  0  0  0  0  0  0  0  0  0  0  0
  -28.1984  -23.6434   19.1652 C   0  0  0  0  0  0  0  0  0  0  0  0
  -23.2385  -21.9340   21.7774 C   0  0  0  0  0  0  0  0  0  0  0  0
  -29.1591  -21.6735   20.0132 C   0  0  0  0  0  0  0  0  0  0  0  0
  -30.2381  -20.2683   22.1681 C   0  0  0  0  0  0  0  0  0  0  0  0
  -28.3862  -21.4396   21.1505 C   0  0  0  0  0  0  0  0  0  0  0  0
  -26.8719  -27.6005   19.8572 C   0  0  0  0  0  0  0  0  0  0  0  0
  -26.4748  -29.7579   19.7053 C   0  0  0  0  0  0  0  0  0  0  0  0
  -20.4552  -24.5898   23.9833 C   0  0  0  0  0  0  0  0  0  0  0  0
  -27.8451  -28.8421   17.8259 C   0  0  0  0  0  0  0  0  0  0  0  0
  -21.7515  -24.3459   23.7041 C   0  0  0  0  0  0  0  0  0  0  0  0
  -25.0575  -17.0986   20.1120 C   0  0  0  0  0  0  0  0  0  0  0  0
  -25.3959  -18.3634   17.1442 C   0  0  0  0  0  0  0  0  0  0  0  0
  -25.1205  -21.0877   15.1072 C   0  0  0  0  0  0  0  0  0  0  0  0
  -21.8641  -29.9266   23.5216 C   0  0  0  0  0  0  0  0  0  0  0  0
  -27.8762  -12.9014   19.4073 C   0  0  0  0  0  0  0  0  0  0  0  0
  -22.7983  -18.1594   19.7565 C   0  0  0  0  0  0  0  0  0  0  0  0
  -24.9995  -19.9946   19.0276 C   0  0  0  0  0  0  0  0  0  0  0  0
  -28.0256  -14.3847   19.0790 C   0  0  0  0  0  0  0  0  0  0  0  0
  -25.1545  -31.1657   24.0831 C   0  0  0  0  0  0  0  0  0  0  0  0
  -27.7180  -15.2368   20.3062 C   0  0  0  0  0  0  0  0  0  0  0  0
  -25.9894  -30.4944   22.9912 C   0  0  0  0  0  0  0  0  0  0  0  0
  -24.0662  -30.2350   24.6137 C   0  0  0  0  0  0  0  0  0  0  0  0
  -24.0201  -28.9885   22.4881 C   0  0  0  0  0  0  0  0  0  0  0  0
  -26.2720  -15.0300   20.7730 C   0  0  1  0  0  0  0  0  0  0  0  0
  -24.0847  -17.6540   19.1107 C   0  0  1  0  0  0  0  0  0  0  0  0
  -25.0950  -29.9074   21.8827 C   0  0  2  0  0  0  0  0  0  0  0  0
  -22.7668  -24.3709   24.8215 C   0  0  0  0  0  0  0  0  0  0  0  0
  -22.7426  -25.3024   21.5906 C   0  0  0  0  0  0  0  0  0  0  0  0
  -25.5067  -21.8241   12.7395 C   0  0  0  0  0  0  0  0  0  0  0  0
  -28.3984  -18.4830   17.6737 C   0  0  0  0  0  0  0  0  0  0  0  0
  -28.6066  -20.0566   15.7375 C   0  0  0  0  0  0  0  0  0  0  0  0
  -27.7743  -17.7338   15.3708 C   0  0  0  0  0  0  0  0  0  0  0  0
  -22.2593  -21.7380   14.7203 C   0  0  0  0  0  0  0  0  0  0  0  0
  -17.1733  -25.8649   22.5883 C   0  0  0  0  0  0  0  0  0  0  0  0
  -19.3024  -24.6516   23.0302 C   0  0  0  0  0  0  0  0  0  0  0  0
  -18.9737  -28.3971   22.9485 C   0  0  0  0  0  0  0  0  0  0  0  0
  -19.7362  -29.5485   22.3018 C   0  0  0  0  0  0  0  0  0  0  0  0
  -19.3524  -27.0472   22.3526 C   0  0  0  0  0  0  0  0  0  0  0  0
  -22.2814  -24.0433   22.3167 C   0  0  1  0  0  0  0  0  0  1  0  0
  -26.2827  -19.4170   16.5258 C   0  0  1  0  0  0  0  0  0  0  0  0
  -24.5022  -21.2583   13.7313 C   0  0  2  0  0  0  0  0  0  0  0  0
  -27.7482  -18.9286   16.3487 C   0  0  0  0  0  0  0  0  0  0  0  0
  -26.1396  -27.8829   20.9380 N   0  0  0  0  0  0  0  0  0  0  0  0
  -25.9140  -29.2022   20.8174 N   0  0  0  0  0  0  0  0  0  0  0  0
  -24.7899  -18.6975   18.3636 N   0  0  0  0  0  0  0  0  0  0  0  0
  -23.2526  -29.7140   23.5125 N   0  0  0  0  0  0  0  0  0  0  0  0
  -26.3452  -31.0732   19.4303 N   0  0  0  0  0  0  0  0  0  0  0  0
  -28.4366  -27.6883   17.2939 N   0  0  0  0  0  0  0  0  0  0  0  0
  -25.3572  -15.7628   19.9241 N   0  0  0  0  0  0  0  0  0  0  0  0
  -25.6328  -19.8197   15.2833 N   0  0  0  0  0  0  0  0  0  0  0  0
  -21.1686  -29.4055   22.4375 N   0  0  0  0  0  0  0  0  0  0  0  0
  -23.3359  -22.1835   13.7986 N   0  3  0  0  0  0  0  0  0  0  0  0
  -18.5965  -25.9614   23.0747 N   0  3  1  0  0  0  0  0  0  0  0  0
  -27.9859  -29.9358   17.2278 O   0  0  0  0  0  0  0  0  0  0  0  0
  -25.5044  -17.8283   20.9892 O   0  0  0  0  0  0  0  0  0  0  0  0
  -25.2406  -17.2865   16.5630 O   0  0  0  0  0  0  0  0  0  0  0  0
  -25.1496  -21.9902   15.9409 O   0  0  0  0  0  0  0  0  0  0  0  0
  -21.2878  -30.5405   24.4261 O   0  0  0  0  0  0  0  0  0  0  0  0
  -28.6247  -22.3701   18.9423 O   0  0  0  0  0  0  0  0  0  0  0  0
  -23.3730  -23.1294   22.4138 O   0  0  0  0  0  0  0  0  0  1  0  0
  -30.7558  -19.5923   23.2022 F   0  0  0  0  0  0  0  0  0  0  0  0
  -27.1244  -21.8864   21.2133 F   0  0  0  0  0  0  0  0  0  0  0  0
  1  2  1  0  0  0  0
  1  5  2  0  0  0  0
  2  6  2  0  0  0  0
  3  8  2  0  0  0  0
  3 15  1  0  0  0  0
  4  9  1  0  0  0  0
  4 15  2  0  0  0  0
  5 17  1  0  0  0  0
  6 19  1  0  0  0  0
  7 10  2  0  0  0  0
  7 18  1  0  0  0  0
  8 21  1  0  0  0  0
  9 21  2  0  0  0  0
 10 22  1  0  0  0  0
 11 12  2  0  0  0  0
 11 23  1  0  0  0  0
 12 24  1  0  0  0  0
 13 20  1  0  0  0  0
 13 22  2  0  0  0  0
 14 24  2  0  0  0  0
 14 25  1  0  0  0  0
 15 26  1  0  0  0  0
 16 26  1  0  0  0  0
 16 27  2  0  0  0  0
 16 29  1  0  0  0  0
 17 19  2  0  0  0  0
 17 35  1  0  0  0  0
 18 20  2  0  0  0  0
 18 36  1  0  0  0  0
 19 44  1  0  0  0  0
 20 37  1  0  0  0  0
 21 79  1  0  0  0  0
 22 80  1  0  0  0  0
 23 25  2  0  0  0  0
 23 79  1  0  0  0  0
 24 81  1  0  0  0  0
 25 82  1  0  0  0  0
 26 63  2  0  0  0  0
 27 64  1  0  0  0  0
 27 67  1  0  0  0  0
 28 30  2  0  0  0  0
 28 55  1  0  0  0  0
 29 68  1  0  0  0  0
 29 74  2  0  0  0  0
 30 47  1  0  0  0  0
 30 59  1  0  0  0  0
 31 45  1  0  0  0  0
 31 69  1  0  0  0  0
 31 75  2  0  0  0  0
 32 60  1  0  0  0  0
 32 65  1  0  0  0  0
 32 76  2  0  0  0  0
 33 61  1  0  0  0  0
 33 70  1  0  0  0  0
 33 77  2  0  0  0  0
 34 66  1  0  0  0  0
 34 71  1  0  0  0  0
 34 78  2  0  0  0  0
 35 38  1  0  0  0  0
 36 45  1  0  0  0  0
 37 65  1  0  0  0  0
 38 40  1  0  0  0  0
 39 41  1  0  0  0  0
 39 42  1  0  0  0  0
 40 44  1  0  0  0  0
 41 46  1  0  0  0  0
 42 66  1  0  0  0  0
 43 46  1  0  0  0  0
 43 66  1  0  0  0  0
 44 69  1  0  0  0  0
 45 65  1  0  0  0  0
 46 64  1  0  0  0  0
 48 59  1  0  0  0  0
 49 61  1  0  0  0  0
 50 62  1  0  0  0  0
 51 62  1  0  0  0  0
 52 62  1  0  0  0  0
 53 72  1  0  0  0  0
 54 73  1  0  0  0  0
 55 73  1  0  0  0  0
 56 57  1  0  0  0  0
 56 58  1  0  0  0  0
 57 71  1  0  0  0  0
 58 73  1  0  0  0  0
 59 80  1  0  0  0  0
 60 62  1  0  0  0  0
 60 70  1  0  0  0  0
 61 72  1  0  0  0  0
 63 64  1  0  0  0  0
M  CHG  2  72   1  73   1
M  ISO  4  34 100  59 101  71 100  80 101
M  END
> <Batch ID>
0095

> <Smiles>
CNC(C)C(=O)NC(C(=O)N1Cc2cc([101O:1][101CH:1](C)C(C)=CCN(C)CCC[100NH:0][100C:0](=O)N3CCCC(n4nc(-c5ccc(Oc6ccc(F)cc6F)cc5)c(C(N)=O)c4N)C3)ccc2CC1C(=O)NC1CCCc2ccccc21)C(C)(C)C

> <Shape>
0.195

> <Color>
0.068

> <Negative vol penalty>
0.000

$$$$

  -OEChem-04052319213D

 94102  0     1  0  0  0  0  0999 V2000
  -34.4012  -26.0456    6.2138 C   0  0  0  0  0  0  0  0  0  0  0  0
  -34.2728  -25.1626    7.2812 C   0  0  0  0  0  0  0  0  0  0  0  0
  -23.0725   -9.8700   19.9429 C   0  0  0  0  0  0  0  0  0  0  0  0
  -23.8354   -9.8773   22.2353 C   0  0  0  0  0  0  0  0  0  0  0  0
  -33.5015  -27.1012    6.0717 C   0  0  0  0  0  0  0  0  0  0  0  0
  -33.2452  -25.3354    8.2078 C   0  0  0  0  0  0  0  0  0  0  0  0
  -30.9081  -20.9904    9.3498 C   0  0  0  0  0  0  0  0  0  0  0  0
  -22.3295   -8.7166   20.1938 C   0  0  0  0  0  0  0  0  0  0  0  0
  -23.0923   -8.7238   22.4863 C   0  0  0  0  0  0  0  0  0  0  0  0
  -31.5558  -20.1336   10.2387 C   0  0  0  0  0  0  0  0  0  0  0  0
  -19.3834   -7.9187   21.6490 C   0  0  0  0  0  0  0  0  0  0  0  0
  -18.0759   -7.8720   21.1654 C   0  0  0  0  0  0  0  0  0  0  0  0
  -30.1462  -20.9321   12.0260 C   0  0  0  0  0  0  0  0  0  0  0  0
  -29.1765  -19.7108   19.9473 C   0  0  0  0  0  0  0  0  0  0  0  0
  -31.6152  -18.3601   20.0506 C   0  0  0  0  0  0  0  0  0  0  0  0
  -18.6347   -5.9292   19.8424 C   0  0  0  0  0  0  0  0  0  0  0  0
  -23.8256  -10.4504   20.9637 C   0  0  0  0  0  0  0  0  0  0  0  0
  -24.1662  -12.9757   20.8433 C   0  0  0  0  0  0  0  0  0  0  0  0
  -32.4566  -27.2813    6.9917 C   0  0  0  0  0  0  0  0  0  0  0  0
  -29.8803  -21.8338    9.7953 C   0  0  0  0  0  0  0  0  0  0  0  0
  -32.3315  -26.3952    8.0786 C   0  0  0  0  0  0  0  0  0  0  0  0
  -29.4854  -21.7969   11.1403 C   0  0  0  0  0  0  0  0  0  0  0  0
  -29.3641  -18.6796   20.8676 C   0  0  0  0  0  0  0  0  0  0  0  0
  -30.5835  -18.0043   20.9193 C   0  0  0  0  0  0  0  0  0  0  0  0
  -31.4275  -19.3913   19.1302 C   0  0  0  0  0  0  0  0  0  0  0  0
  -30.2082  -20.0666   19.0785 C   0  0  0  0  0  0  0  0  0  0  0  0
  -22.3393   -8.1435   21.4655 C   0  0  0  0  0  0  0  0  0  0  0  0
  -31.1769  -20.1064   11.5776 C   0  0  0  0  0  0  0  0  0  0  0  0
  -20.3167   -6.9708   21.2292 C   0  0  0  0  0  0  0  0  0  0  0  0
  -17.7016   -6.8772   20.2622 C   0  0  0  0  0  0  0  0  0  0  0  0
  -19.9423   -5.9760   20.3259 C   0  0  0  0  0  0  0  0  0  0  0  0
  -24.5938  -11.6416   20.7050 C   0  0  0  0  0  0  0  0  0  0  0  0
  -25.2575  -13.7256   20.4786 C   0  0  0  0  0  0  0  0  0  0  0  0
  -22.8960  -13.4910   21.2639 C   0  0  0  0  0  0  0  0  0  0  0  0
  -29.4580  -24.9817    9.9221 C   0  0  0  0  0  0  0  0  0  0  0  0
  -26.4801  -24.1507   10.9037 C   0  0  0  0  0  0  0  0  0  0  0  0
  -24.4510  -21.8160   12.3455 C   0  0  0  0  0  0  0  0  0  0  0  0
  -30.7411  -14.7469   20.6598 C   0  0  0  0  0  0  0  0  0  0  0  0
  -31.5370  -28.4648    6.8231 C   0  0  0  0  0  0  0  0  0  0  0  0
  -29.1735  -22.7330    8.8184 C   0  0  0  0  0  0  0  0  0  0  0  0
  -28.3740  -22.6677   11.6647 C   0  0  0  0  0  0  0  0  0  0  0  0
  -30.2508  -28.3578    7.6383 C   0  0  0  0  0  0  0  0  0  0  0  0
  -29.6014  -12.3620   18.2744 C   0  0  0  0  0  0  0  0  0  0  0  0
  -30.5591  -27.9209    9.0669 C   0  0  0  0  0  0  0  0  0  0  0  0
  -28.1646  -12.0677   18.7092 C   0  0  0  0  0  0  0  0  0  0  0  0
  -30.5200  -12.5832   19.4741 C   0  0  0  0  0  0  0  0  0  0  0  0
  -28.6198  -13.3134   20.8632 C   0  0  0  0  0  0  0  0  0  0  0  0
  -31.2150  -26.5350    9.0906 C   0  0  1  0  0  0  0  0  0  0  0  0
  -28.4876  -23.9202    9.4873 C   0  0  1  0  0  0  0  0  0  0  0  0
  -27.6441  -13.1385   19.6869 C   0  0  2  0  0  0  0  0  0  0  0  0
  -30.7953  -23.0450   19.6497 C   0  0  0  0  0  0  0  0  0  0  0  0
  -28.8680  -20.8188   17.0964 C   0  0  0  0  0  0  0  0  0  0  0  0
  -22.0718  -21.4383   13.0483 C   0  0  0  0  0  0  0  0  0  0  0  0
  -33.1252  -17.5798   14.4413 C   0  0  0  0  0  0  0  0  0  0  0  0
  -26.9141  -25.9486   13.3305 C   0  0  0  0  0  0  0  0  0  0  0  0
  -24.9712  -24.8154   14.4302 C   0  0  0  0  0  0  0  0  0  0  0  0
  -24.6326  -26.0970   12.3170 C   0  0  0  0  0  0  0  0  0  0  0  0
  -24.1544  -19.5095   10.5149 C   0  0  0  0  0  0  0  0  0  0  0  0
  -24.5571  -18.3673   24.2036 C   0  0  0  0  0  0  0  0  0  0  0  0
  -25.3253  -20.1094   22.5988 C   0  0  0  0  0  0  0  0  0  0  0  0
  -28.2454  -18.3167   21.7881 C   0  0  0  0  0  0  0  0  0  0  0  0
  -30.8077  -16.8975   21.8966 C   0  0  0  0  0  0  0  0  0  0  0  0
  -32.5513  -19.7558   18.2054 C   0  0  0  0  0  0  0  0  0  0  0  0
  -29.6652  -22.5429   18.7592 C   0  0  0  0  0  0  0  0  0  0  0  0
  -28.0927  -19.2520   23.0023 C   0  0  0  0  0  0  0  0  0  0  0  0
  -26.9858  -18.8708   23.9805 C   0  0  0  0  0  0  0  0  0  0  0  0
  -33.4017  -19.6740   15.8583 C   0  0  0  0  0  0  0  0  0  0  0  0
  -31.8918  -19.6938   13.8080 C   0  0  0  0  0  0  0  0  0  1  0  0
  -29.9838  -21.1733   18.1010 C   0  0  1  0  0  0  0  0  0  0  0  0
  -25.8332  -23.8733   12.2392 C   0  0  1  0  0  0  0  0  0  0  0  0
  -23.0953  -21.2692   11.9363 C   0  0  2  0  0  0  0  0  0  0  0  0
  -33.1559  -19.1123   14.4532 C   0  0  2  0  0  0  0  0  0  0  0  0
  -25.6101  -25.1685   13.0701 C   0  0  0  0  0  0  0  0  0  0  0  0
  -25.8582  -11.5463   20.2850 N   0  0  0  0  0  0  0  0  0  0  0  0
  -26.2344  -12.8300   20.1562 N   0  0  0  0  0  0  0  0  0  0  0  0
  -27.7179  -23.5344   10.6717 N   0  0  0  0  0  0  0  0  0  0  0  0
  -29.9702  -13.6114   20.3608 N   0  0  0  0  0  0  0  0  0  0  0  0
  -25.4673  -15.0572   20.4053 N   0  0  0  0  0  0  0  0  0  0  0  0
  -21.8849  -12.5813   21.6024 N   0  0  0  0  0  0  0  0  0  0  0  0
  -30.2208  -25.5019    8.8939 N   0  0  0  0  0  0  0  0  0  0  0  0
  -24.6116  -23.1284   11.9542 N   0  0  0  0  0  0  0  0  0  0  0  0
  -30.1427  -15.6755   21.5026 N   0  0  0  0  0  0  0  0  0  0  0  0
  -23.1989  -19.8189   11.6095 N   0  3  0  0  0  0  0  0  0  0  0  0
  -32.3391  -19.2761   16.8119 N   0  3  0  0  0  0  0  0  0  0  0  0
  -25.6750  -18.8146   23.2925 N   0  3  0  0  0  0  0  0  0  0  0  0
  -22.6593  -14.7215   21.3215 O   0  0  0  0  0  0  0  0  0  0  0  0
  -29.5098  -25.3060   11.1027 O   0  0  0  0  0  0  0  0  0  0  0  0
  -25.9049  -24.8814   10.0933 O   0  0  0  0  0  0  0  0  0  0  0  0
  -25.2828  -21.1470   12.9547 O   0  0  0  0  0  0  0  0  0  0  0  0
  -31.8764  -14.9229   20.2046 O   0  0  0  0  0  0  0  0  0  0  0  0
  -21.6142   -7.0181   21.7107 O   0  0  0  0  0  0  0  0  0  0  0  0
  -31.8078  -19.2715   12.4475 O   0  0  0  0  0  0  0  0  0  1  0  0
  -16.4455   -6.8315   19.7991 F   0  0  0  0  0  0  0  0  0  0  0  0
  -20.8340   -5.0618   19.9199 F   0  0  0  0  0  0  0  0  0  0  0  0
  1  2  1  0  0  0  0
  1  5  2  0  0  0  0
  2  6  2  0  0  0  0
  3  8  2  0  0  0  0
  3 17  1  0  0  0  0
  4  9  1  0  0  0  0
  4 17  2  0  0  0  0
  5 19  1  0  0  0  0
  6 21  1  0  0  0  0
  7 10  2  0  0  0  0
  7 20  1  0  0  0  0
  8 27  1  0  0  0  0
  9 27  2  0  0  0  0
 10 28  1  0  0  0  0
 11 12  2  0  0  0  0
 11 29  1  0  0  0  0
 12 30  1  0  0  0  0
 13 22  1  0  0  0  0
 13 28  2  0  0  0  0
 14 23  2  0  0  0  0
 14 26  1  0  0  0  0
 15 24  2  0  0  0  0
 15 25  1  0  0  0  0
 16 30  2  0  0  0  0
 16 31  1  0  0  0  0
 17 32  1  0  0  0  0
 18 32  1  0  0  0  0
 18 33  2  0  0  0  0
 18 34  1  0  0  0  0
 19 21  2  0  0  0  0
 19 39  1  0  0  0  0
 20 22  2  0  0  0  0
 20 40  1  0  0  0  0
 21 48  1  0  0  0  0
 22 41  1  0  0  0  0
 23 24  1  0  0  0  0
 23 61  1  0  0  0  0
 24 62  1  0  0  0  0
 25 26  2  0  0  0  0
 25 63  1  0  0  0  0
 26 69  1  0  0  0  0
 27 91  1  0  0  0  0
 28 92  1  0  0  0  0
 29 31  2  0  0  0  0
 29 91  1  0  0  0  0
 30 93  1  0  0  0  0
 31 94  1  0  0  0  0
 32 74  2  0  0  0  0
 33 75  1  0  0  0  0
 33 78  1  0  0  0  0
 34 79  1  0  0  0  0
 34 86  2  0  0  0  0
 35 49  1  0  0  0  0
 35 80  1  0  0  0  0
 35 87  2  0  0  0  0
 36 70  1  0  0  0  0
 36 76  1  0  0  0  0
 36 88  2  0  0  0  0
 37 71  1  0  0  0  0
 37 81  1  0  0  0  0
 37 89  2  0  0  0  0
 38 77  1  0  0  0  0
 38 82  1  0  0  0  0
 38 90  2  0  0  0  0
 39 42  1  0  0  0  0
 40 49  1  0  0  0  0
 41 76  1  0  0  0  0
 42 44  1  0  0  0  0
 43 45  1  0  0  0  0
 43 46  1  0  0  0  0
 44 48  1  0  0  0  0
 45 50  1  0  0  0  0
 46 77  1  0  0  0  0
 47 50  1  0  0  0  0
 47 77  1  0  0  0  0
 48 80  1  0  0  0  0
 49 76  1  0  0  0  0
 50 75  1  0  0  0  0
 51 64  1  0  0  0  0
 52 69  1  0  0  0  0
 53 71  1  0  0  0  0
 54 72  1  0  0  0  0
 55 73  1  0  0  0  0
 56 73  1  0  0  0  0
 57 73  1  0  0  0  0
 58 83  1  0  0  0  0
 59 85  1  0  0  0  0
 60 85  1  0  0  0  0
 61 65  1  0  0  0  0
 62 82  1  0  0  0  0
 63 84  1  0  0  0  0
 64 69  1  0  0  0  0
 65 66  1  0  0  0  0
 66 85  1  0  0  0  0
 67 72  1  0  0  0  0
 67 84  1  0  0  0  0
 68 72  1  0  0  0  0
 68 92  1  0  0  0  0
 70 73  1  0  0  0  0
 70 81  1  0  0  0  0
 71 83  1  0  0  0  0
 74 75  1  0  0  0  0
M  CHG  3  83   1  84   1  85   1
M  ISO  4  38 100  68 101  82 100  92 101
M  END
> <Batch ID>
0095

> <Smiles>
CCC(C)c1cc(CCCN(C)C)c(C[100NH:0][100C:0](=O)N2CCCC(n3nc(-c4ccc(Oc5ccc(F)cc5F)cc4)c(C(N)=O)c3N)C2)cc1CNCC(C)[101CH2:1][101O:1]c1ccc2c(c1)CN(C(=O)C(NC(=O)C(C)NC)C(C)(C)C)C(C(=O)NC1CCCc3ccccc31)C2

> <Shape>
0.175

> <Color>
0.173

> <Negative vol penalty>
0.000

$$$$

  -OEChem-04052319213D

 87 95  0     1  0  0  0  0  0999 V2000
  -41.8587  -24.7228   24.9019 C   0  0  0  0  0  0  0  0  0  0  0  0
  -40.8707  -25.3717   24.1683 C   0  0  0  0  0  0  0  0  0  0  0  0
  -23.0400   -9.8997   19.9703 C   0  0  0  0  0  0  0  0  0  0  0  0
  -23.7721   -9.9529   22.2721 C   0  0  0  0  0  0  0  0  0  0  0  0
  -41.8038  -23.3401   25.0726 C   0  0  0  0  0  0  0  0  0  0  0  0
  -39.8278  -24.6381   23.6039 C   0  0  0  0  0  0  0  0  0  0  0  0
  -32.8740  -25.1713   21.9678 C   0  0  0  0  0  0  0  0  0  0  0  0
  -22.2937   -8.7512   20.2342 C   0  0  0  0  0  0  0  0  0  0  0  0
  -23.0258   -8.8045   22.5361 C   0  0  0  0  0  0  0  0  0  0  0  0
  -32.0037  -24.9943   20.8930 C   0  0  0  0  0  0  0  0  0  0  0  0
  -23.3250   -5.4722   22.0487 C   0  0  0  0  0  0  0  0  0  0  0  0
  -23.9322   -4.4619   22.7944 C   0  0  0  0  0  0  0  0  0  0  0  0
  -31.9687  -22.6204   21.3203 C   0  0  0  0  0  0  0  0  0  0  0  0
  -22.2102   -4.6683   24.4764 C   0  0  0  0  0  0  0  0  0  0  0  0
  -29.3398  -18.7139   20.8094 C   0  0  0  0  0  0  0  0  0  0  0  0
  -23.7793  -10.5005   20.9892 C   0  0  0  0  0  0  0  0  0  0  0  0
  -24.1214  -13.0230   20.8229 C   0  0  0  0  0  0  0  0  0  0  0  0
  -40.7544  -22.5904   24.5181 C   0  0  0  0  0  0  0  0  0  0  0  0
  -33.3074  -24.0710   22.7214 C   0  0  0  0  0  0  0  0  0  0  0  0
  -39.7595  -23.2440   23.7662 C   0  0  0  0  0  0  0  0  0  0  0  0
  -32.8424  -22.7864   22.4057 C   0  0  0  0  0  0  0  0  0  0  0  0
  -22.2866   -8.2036   21.5171 C   0  0  0  0  0  0  0  0  0  0  0  0
  -31.5532  -23.7183   20.5673 C   0  0  0  0  0  0  0  0  0  0  0  0
  -22.1604   -6.0807   22.5169 C   0  0  0  0  0  0  0  0  0  0  0  0
  -23.3749   -4.0599   24.0082 C   0  0  0  0  0  0  0  0  0  0  0  0
  -21.6030   -5.6787   23.7308 C   0  0  0  0  0  0  0  0  0  0  0  0
  -24.5509  -11.6866   20.7171 C   0  0  0  0  0  0  0  0  0  0  0  0
  -30.5452  -18.0517   20.8873 C   0  0  0  0  0  0  0  0  0  0  0  0
  -30.1559  -19.9990   19.1030 C   0  0  0  0  0  0  0  0  0  0  0  0
  -31.3616  -19.3374   19.1813 C   0  0  0  0  0  0  0  0  0  0  0  0
  -25.2175  -13.7659   20.4580 C   0  0  0  0  0  0  0  0  0  0  0  0
  -22.8457  -13.5462   21.2161 C   0  0  0  0  0  0  0  0  0  0  0  0
  -36.1278  -22.7317   23.3176 C   0  0  0  0  0  0  0  0  0  0  0  0
  -34.3886  -20.8950   25.3485 C   0  0  0  0  0  0  0  0  0  0  0  0
  -31.3516  -19.5867   26.1922 C   0  0  0  0  0  0  0  0  0  0  0  0
  -30.6981  -14.7923   20.6921 C   0  0  0  0  0  0  0  0  0  0  0  0
  -40.7632  -21.0920   24.6896 C   0  0  0  0  0  0  0  0  0  0  0  0
  -34.2252  -24.2820   23.8942 C   0  0  0  0  0  0  0  0  0  0  0  0
  -33.2619  -21.5748   23.1959 C   0  0  0  0  0  0  0  0  0  0  0  0
  -39.4216  -20.4351   24.3752 C   0  0  0  0  0  0  0  0  0  0  0  0
  -29.5905  -12.3599   18.3399 C   0  0  0  0  0  0  0  0  0  0  0  0
  -38.8555  -20.9770   23.0665 C   0  0  0  0  0  0  0  0  0  0  0  0
  -28.1480  -12.0738   18.7612 C   0  0  0  0  0  0  0  0  0  0  0  0
  -30.4929  -12.6053   19.5471 C   0  0  0  0  0  0  0  0  0  0  0  0
  -28.5742  -13.3625   20.8958 C   0  0  0  0  0  0  0  0  0  0  0  0
  -38.5987  -22.4860   23.1594 C   0  0  1  0  0  0  0  0  0  0  0  0
  -35.0075  -23.0285   24.2739 C   0  0  1  0  0  0  0  0  0  0  0  0
  -27.6145  -13.1638   19.7102 C   0  0  2  0  0  0  0  0  0  0  0  0
  -30.2511  -18.0921   27.8810 C   0  0  0  0  0  0  0  0  0  0  0  0
  -28.4552  -24.0785   20.1620 C   0  0  0  0  0  0  0  0  0  0  0  0
  -33.7457  -18.7784   18.5764 C   0  0  0  0  0  0  0  0  0  0  0  0
  -32.2243  -19.4582   16.7453 C   0  0  0  0  0  0  0  0  0  0  0  0
  -35.5740  -18.4527   23.9557 C   0  0  0  0  0  0  0  0  0  0  0  0
  -33.7703  -17.0672   25.0023 C   0  0  0  0  0  0  0  0  0  0  0  0
  -35.4186  -18.2613   26.4444 C   0  0  0  0  0  0  0  0  0  0  0  0
  -29.5734  -21.7595   27.1281 C   0  0  0  0  0  0  0  0  0  0  0  0
  -29.9271  -21.1002   18.0986 C   0  0  0  0  0  0  0  0  0  0  0  0
  -30.7480  -16.9672   21.8865 C   0  0  0  0  0  0  0  0  0  0  0  0
  -28.9466  -22.1808   18.5772 C   0  0  0  0  0  0  0  0  0  0  0  0
  -32.9933  -21.1637   18.4367 C   0  0  0  0  0  0  0  0  0  0  0  0
  -33.6399  -19.5892   25.2340 C   0  0  1  0  0  0  0  0  0  0  0  0
  -30.6155  -19.5233   27.5182 C   0  0  2  0  0  0  0  0  0  0  0  0
  -29.4309  -22.9649   19.8031 C   0  0  1  0  0  0  0  0  0  1  0  0
  -32.4959  -19.6795   18.2768 C   0  0  0  0  0  0  0  0  0  0  0  0
  -34.5941  -18.3650   25.1428 C   0  0  0  0  0  0  0  0  0  0  0  0
  -29.1235  -19.6994   19.9158 N   0  0  0  0  0  0  0  0  0  0  0  0
  -25.8207  -11.5833   20.3161 N   0  0  0  0  0  0  0  0  0  0  0  0
  -31.5778  -18.3517   20.0747 N   0  0  0  0  0  0  0  0  0  0  0  0
  -26.1986  -12.8643   20.1667 N   0  0  0  0  0  0  0  0  0  0  0  0
  -34.1653  -21.8319   24.3296 N   0  0  0  0  0  0  0  0  0  0  0  0
  -29.9312  -13.6509   20.4057 N   0  0  0  0  0  0  0  0  0  0  0  0
  -25.4281  -15.0958   20.3609 N   0  0  0  0  0  0  0  0  0  0  0  0
  -21.8302  -12.6432   21.5592 N   0  0  0  0  0  0  0  0  0  0  0  0
  -37.3818  -22.7470   23.8979 N   0  0  0  0  0  0  0  0  0  0  0  0
  -32.7191  -19.5461   26.3647 N   0  0  0  0  0  0  0  0  0  0  0  0
  -30.0883  -15.7374   21.5082 N   0  0  0  0  0  0  0  0  0  0  0  0
  -33.8695  -21.3082   19.6281 N   0  3  0  0  0  0  0  0  0  0  0  0
  -29.3612  -20.3255   27.4533 N   0  3  0  0  0  0  0  0  0  0  0  0
  -22.6082  -14.7775   21.2460 O   0  0  0  0  0  0  0  0  0  0  0  0
  -35.8732  -22.5040   22.1407 O   0  0  0  0  0  0  0  0  0  0  0  0
  -35.1384  -21.0799   26.3104 O   0  0  0  0  0  0  0  0  0  0  0  0
  -30.7716  -19.6609   25.1112 O   0  0  0  0  0  0  0  0  0  0  0  0
  -31.8393  -14.9595   20.2488 O   0  0  0  0  0  0  0  0  0  0  0  0
  -21.5582   -7.0831   21.7751 O   0  0  0  0  0  0  0  0  0  0  0  0
  -30.7043  -23.5426   19.5184 O   0  0  0  0  0  0  0  0  0  1  0  0
  -23.9573   -3.0886   24.7234 F   0  0  0  0  0  0  0  0  0  0  0  0
  -20.4837   -6.2588   24.1851 F   0  0  0  0  0  0  0  0  0  0  0  0
  1  2  1  0  0  0  0
  1  5  2  0  0  0  0
  2  6  2  0  0  0  0
  3  8  2  0  0  0  0
  3 16  1  0  0  0  0
  4  9  1  0  0  0  0
  4 16  2  0  0  0  0
  5 18  1  0  0  0  0
  6 20  1  0  0  0  0
  7 10  2  0  0  0  0
  7 19  1  0  0  0  0
  8 22  1  0  0  0  0
  9 22  2  0  0  0  0
 10 23  1  0  0  0  0
 11 12  2  0  0  0  0
 11 24  1  0  0  0  0
 12 25  1  0  0  0  0
 13 21  1  0  0  0  0
 13 23  2  0  0  0  0
 14 25  2  0  0  0  0
 14 26  1  0  0  0  0
 15 28  1  0  0  0  0
 15 66  2  0  0  0  0
 16 27  1  0  0  0  0
 17 27  1  0  0  0  0
 17 31  2  0  0  0  0
 17 32  1  0  0  0  0
 18 20  2  0  0  0  0
 18 37  1  0  0  0  0
 19 21  2  0  0  0  0
 19 38  1  0  0  0  0
 20 46  1  0  0  0  0
 21 39  1  0  0  0  0
 22 84  1  0  0  0  0
 23 85  1  0  0  0  0
 24 26  2  0  0  0  0
 24 84  1  0  0  0  0
 25 86  1  0  0  0  0
 26 87  1  0  0  0  0
 27 67  2  0  0  0  0
 28 58  1  0  0  0  0
 28 68  2  0  0  0  0
 29 30  2  0  0  0  0
 29 57  1  0  0  0  0
 29 66  1  0  0  0  0
 30 64  1  0  0  0  0
 30 68  1  0  0  0  0
 31 69  1  0  0  0  0
 31 72  1  0  0  0  0
 32 73  1  0  0  0  0
 32 79  2  0  0  0  0
 33 47  1  0  0  0  0
 33 74  1  0  0  0  0
 33 80  2  0  0  0  0
 34 61  1  0  0  0  0
 34 70  1  0  0  0  0
 34 81  2  0  0  0  0
 35 62  1  0  0  0  0
 35 75  1  0  0  0  0
 35 82  2  0  0  0  0
 36 71  1  0  0  0  0
 36 76  1  0  0  0  0
 36 83  2  0  0  0  0
 37 40  1  0  0  0  0
 38 47  1  0  0  0  0
 39 70  1  0  0  0  0
 40 42  1  0  0  0  0
 41 43  1  0  0  0  0
 41 44  1  0  0  0  0
 42 46  1  0  0  0  0
 43 48  1  0  0  0  0
 44 71  1  0  0  0  0
 45 48  1  0  0  0  0
 45 71  1  0  0  0  0
 46 74  1  0  0  0  0
 47 70  1  0  0  0  0
 48 69  1  0  0  0  0
 49 62  1  0  0  0  0
 50 63  1  0  0  0  0
 51 64  1  0  0  0  0
 52 64  1  0  0  0  0
 53 65  1  0  0  0  0
 54 65  1  0  0  0  0
 55 65  1  0  0  0  0
 56 78  1  0  0  0  0
 57 59  1  0  0  0  0
 58 76  1  0  0  0  0
 59 63  1  0  0  0  0
 60 64  1  0  0  0  0
 60 77  1  0  0  0  0
 61 65  1  0  0  0  0
 61 75  1  0  0  0  0
 62 78  1  0  0  0  0
 63 85  1  0  0  0  0
 67 69  1  0  0  0  0
M  CHG  2  77   1  78   1
M  ISO  4  36 100  63 101  76 100  85 101
M  END
> <Batch ID>
0095

> <Smiles>
CNC(C)C(=O)NC(C(=O)N1Cc2cc([101O:1][101CH:1](C)CCc3ncc(C[100NH:0][100C:0](=O)N4CCCC(n5nc(-c6ccc(Oc7ccc(F)cc7F)cc6)c(C(N)=O)c5N)C4)nc3C(C)(C)CN)ccc2CC1C(=O)NC1CCCc2ccccc21)C(C)(C)C

> <Shape>
0.215

> <Color>
0.203

> <Negative vol penalty>
0.000

$$$$

  -OEChem-04052319213D

 89 97  0     1  0  0  0  0  0999 V2000
  -17.5428  -26.1262   22.1852 C   0  0  0  0  0  0  0  0  0  0  0  0
  -18.8906  -25.9248   22.4606 C   0  0  0  0  0  0  0  0  0  0  0  0
  -26.9561  -12.6242   20.6459 C   0  0  0  0  0  0  0  0  0  0  0  0
  -27.4672  -12.0271   18.3613 C   0  0  0  0  0  0  0  0  0  0  0  0
  -17.1290  -27.3091   21.5763 C   0  0  0  0  0  0  0  0  0  0  0  0
  -19.8235  -26.9110   22.1381 C   0  0  0  0  0  0  0  0  0  0  0  0
  -25.8995  -26.9172   22.5950 C   0  0  0  0  0  0  0  0  0  0  0  0
  -26.4018  -11.3610   20.8520 C   0  0  0  0  0  0  0  0  0  0  0  0
  -26.9129  -10.7638   18.5675 C   0  0  0  0  0  0  0  0  0  0  0  0
  -26.9923  -26.5954   21.7912 C   0  0  0  0  0  0  0  0  0  0  0  0
  -23.5053   -9.7673   20.1483 C   0  0  0  0  0  0  0  0  0  0  0  0
  -22.2827   -9.6981   20.8160 C   0  0  0  0  0  0  0  0  0  0  0  0
  -27.2165  -28.9173   21.1767 C   0  0  0  0  0  0  0  0  0  0  0  0
  -23.3018   -8.3494   22.5422 C   0  0  0  0  0  0  0  0  0  0  0  0
  -27.1476  -22.9552   17.8021 C   0  0  0  0  0  0  0  0  0  0  0  0
  -27.4888  -12.9573   19.4004 C   0  0  0  0  0  0  0  0  0  0  0  0
  -26.6948  -22.2773   18.9124 C   0  0  0  0  0  0  0  0  0  0  0  0
  -29.4008  -14.6460   19.3859 C   0  0  0  0  0  0  0  0  0  0  0  0
  -18.0595  -28.3045   21.2352 C   0  0  0  0  0  0  0  0  0  0  0  0
  -25.4495  -28.2421   22.6873 C   0  0  0  0  0  0  0  0  0  0  0  0
  -19.4226  -28.1218   21.5449 C   0  0  0  0  0  0  0  0  0  0  0  0
  -26.1194  -29.2537   21.9844 C   0  0  0  0  0  0  0  0  0  0  0  0
  -25.6294  -23.0316   19.4633 C   0  0  0  0  0  0  0  0  0  0  0  0
  -26.3802  -10.4308   19.8129 C   0  0  0  0  0  0  0  0  0  0  0  0
  -27.6492  -27.5950   21.0796 C   0  0  0  0  0  0  0  0  0  0  0  0
  -24.6262   -9.1276   20.6775 C   0  0  0  0  0  0  0  0  0  0  0  0
  -22.1809   -8.9891   22.0129 C   0  0  0  0  0  0  0  0  0  0  0  0
  -24.5244   -8.4186   21.8744 C   0  0  0  0  0  0  0  0  0  0  0  0
  -28.0610  -14.2623   19.1867 C   0  0  0  0  0  0  0  0  0  0  0  0
  -25.4637  -24.1475   18.6729 C   0  0  0  0  0  0  0  0  0  0  0  0
  -29.4314  -15.9760   19.0442 C   0  0  0  0  0  0  0  0  0  0  0  0
  -27.2541  -21.0069   19.3902 C   0  0  0  0  0  0  0  0  0  0  0  0
  -30.5177  -13.8697   19.8392 C   0  0  0  0  0  0  0  0  0  0  0  0
  -22.7455  -29.7483   21.9638 C   0  0  0  0  0  0  0  0  0  0  0  0
  -24.2199  -32.2610   23.3902 C   0  0  0  0  0  0  0  0  0  0  0  0
  -27.1423  -33.7620   24.3140 C   0  0  0  0  0  0  0  0  0  0  0  0
  -17.5558  -29.5689   20.5848 C   0  0  0  0  0  0  0  0  0  0  0  0
  -24.2859  -28.5769   23.5797 C   0  0  0  0  0  0  0  0  0  0  0  0
  -25.6884  -30.6946   22.0654 C   0  0  0  0  0  0  0  0  0  0  0  0
  -18.6576  -30.3556   19.8822 C   0  0  0  0  0  0  0  0  0  0  0  0
  -25.9859  -18.8725   16.7439 C   0  0  0  0  0  0  0  0  0  0  0  0
  -19.8484  -30.5273   20.8134 C   0  0  0  0  0  0  0  0  0  0  0  0
  -26.5134  -17.5044   17.1780 C   0  0  0  0  0  0  0  0  0  0  0  0
  -25.5921  -19.7238   17.9472 C   0  0  0  0  0  0  0  0  0  0  0  0
  -27.2135  -18.5350   19.3864 C   0  0  0  0  0  0  0  0  0  0  0  0
  -20.4591  -29.1675   21.1753 C   0  0  1  0  0  0  0  0  0  0  0  0
  -23.5948  -29.8817   23.1961 C   0  0  1  0  0  0  0  0  0  0  0  0
  -27.6490  -17.6465   18.2082 C   0  0  1  0  0  0  0  0  0  0  0  0
  -25.6946  -22.6274   21.9505 C   0  0  0  0  0  0  0  0  0  0  0  0
  -24.0553  -21.3645   20.5107 C   0  0  0  0  0  0  0  0  0  0  0  0
  -28.0292  -35.8272   25.4301 C   0  0  0  0  0  0  0  0  0  0  0  0
  -22.0770  -26.0578   18.8442 C   0  0  0  0  0  0  0  0  0  0  0  0
  -22.7088  -24.1050   17.4121 C   0  0  0  0  0  0  0  0  0  0  0  0
  -23.6536  -33.8689   20.8596 C   0  0  0  0  0  0  0  0  0  0  0  0
  -25.3457  -35.5457   21.6300 C   0  0  0  0  0  0  0  0  0  0  0  0
  -23.3000  -35.1237   22.9938 C   0  0  0  0  0  0  0  0  0  0  0  0
  -29.7919  -28.2097   16.7914 C   0  0  0  0  0  0  0  0  0  0  0  0
  -30.9511  -26.7591   18.4621 C   0  0  0  0  0  0  0  0  0  0  0  0
  -28.4125  -32.1890   26.4753 C   0  0  0  0  0  0  0  0  0  0  0  0
  -24.5011  -25.2637   18.7882 C   0  0  0  0  0  0  0  0  0  0  0  0
  -27.3329  -26.3684   17.0082 C   0  0  0  0  0  0  0  0  0  0  0  0
  -28.7130  -26.0491   17.6025 C   0  0  0  0  0  0  0  0  0  0  0  0
  -26.5708  -25.1101   16.5694 C   0  0  0  0  0  0  0  0  0  0  0  0
  -28.9355  -28.0995   19.1440 C   0  0  0  0  0  0  0  0  0  1  0  0
  -24.8398  -22.6876   20.6640 C   0  0  0  0  0  0  0  0  0  0  0  0
  -25.1249  -33.3753   22.9230 C   0  0  1  0  0  0  0  0  0  0  0  0
  -27.5833  -34.3865   25.6255 C   0  0  2  0  0  0  0  0  0  0  0  0
  -23.0055  -24.8475   18.7174 C   0  0  0  0  0  0  0  0  0  0  0  0
  -24.3632  -34.4511   22.0983 C   0  0  0  0  0  0  0  0  0  0  0  0
  -29.5735  -27.2824   18.0002 C   0  0  0  0  0  0  0  0  0  0  0  0
  -27.2959  -15.2672   18.7523 N   0  0  0  0  0  0  0  0  0  0  0  0
  -26.3919  -24.0905   17.6662 N   0  0  0  0  0  0  0  0  0  0  0  0
  -28.1577  -16.2956   18.6758 N   0  0  0  0  0  0  0  0  0  0  0  0
  -26.7042  -19.8193   18.9012 N   0  0  0  0  0  0  0  0  0  0  0  0
  -24.5415  -30.9706   22.9463 N   0  0  0  0  0  0  0  0  0  0  0  0
  -30.4233  -16.8916   19.0261 N   0  0  0  0  0  0  0  0  0  0  0  0
  -30.3110  -12.5181   20.1470 N   0  0  0  0  0  0  0  0  0  0  0  0
  -21.4452  -29.3549   22.2166 N   0  0  0  0  0  0  0  0  0  0  0  0
  -25.7840  -33.8936   24.1169 N   0  0  0  0  0  0  0  0  0  0  0  0
  -28.7190  -33.6180   26.2091 N   0  3  0  0  0  0  0  0  0  0  0  0
  -28.1855  -21.0907   20.1893 O   0  0  0  0  0  0  0  0  0  0  0  0
  -31.6615  -14.3642   19.9831 O   0  0  0  0  0  0  0  0  0  0  0  0
  -23.2334  -29.9860   20.8651 O   0  0  0  0  0  0  0  0  0  0  0  0
  -23.2670  -32.5249   24.1278 O   0  0  0  0  0  0  0  0  0  0  0  0
  -27.9251  -33.2156   23.5400 O   0  0  0  0  0  0  0  0  0  0  0  0
  -25.8396   -9.1979   20.0138 O   0  0  0  0  0  0  0  0  0  0  0  0
  -28.7156  -27.2835   20.2938 O   0  0  0  0  0  0  0  0  0  1  0  0
  -21.0070   -8.9240   22.6548 F   0  0  0  0  0  0  0  0  0  0  0  0
  -25.5981   -7.8030   22.3883 F   0  0  0  0  0  0  0  0  0  0  0  0
  1  2  1  0  0  0  0
  1  5  2  0  0  0  0
  2  6  2  0  0  0  0
  3  8  2  0  0  0  0
  3 16  1  0  0  0  0
  4  9  1  0  0  0  0
  4 16  2  0  0  0  0
  5 19  1  0  0  0  0
  6 21  1  0  0  0  0
  7 10  2  0  0  0  0
  7 20  1  0  0  0  0
  8 24  1  0  0  0  0
  9 24  2  0  0  0  0
 10 25  1  0  0  0  0
 11 12  2  0  0  0  0
 11 26  1  0  0  0  0
 12 27  1  0  0  0  0
 13 22  1  0  0  0  0
 13 25  2  0  0  0  0
 14 27  2  0  0  0  0
 14 28  1  0  0  0  0
 15 17  2  0  0  0  0
 15 72  1  0  0  0  0
 16 29  1  0  0  0  0
 17 23  1  0  0  0  0
 17 32  1  0  0  0  0
 18 29  1  0  0  0  0
 18 31  2  0  0  0  0
 18 33  1  0  0  0  0
 19 21  2  0  0  0  0
 19 37  1  0  0  0  0
 20 22  2  0  0  0  0
 20 38  1  0  0  0  0
 21 46  1  0  0  0  0
 22 39  1  0  0  0  0
 23 30  2  0  0  0  0
 23 65  1  0  0  0  0
 24 86  1  0  0  0  0
 25 87  1  0  0  0  0
 26 28  2  0  0  0  0
 26 86  1  0  0  0  0
 27 88  1  0  0  0  0
 28 89  1  0  0  0  0
 29 71  2  0  0  0  0
 30 60  1  0  0  0  0
 30 72  1  0  0  0  0
 31 73  1  0  0  0  0
 31 76  1  0  0  0  0
 32 74  1  0  0  0  0
 32 81  2  0  0  0  0
 33 77  1  0  0  0  0
 33 82  2  0  0  0  0
 34 47  1  0  0  0  0
 34 78  1  0  0  0  0
 34 83  2  0  0  0  0
 35 66  1  0  0  0  0
 35 75  1  0  0  0  0
 35 84  2  0  0  0  0
 36 67  1  0  0  0  0
 36 79  1  0  0  0  0
 36 85  2  0  0  0  0
 37 40  1  0  0  0  0
 38 47  1  0  0  0  0
 39 75  1  0  0  0  0
 40 42  1  0  0  0  0
 41 43  1  0  0  0  0
 41 44  1  0  0  0  0
 42 46  1  0  0  0  0
 43 48  1  0  0  0  0
 44 74  1  0  0  0  0
 45 48  1  0  0  0  0
 45 74  1  0  0  0  0
 46 78  1  0  0  0  0
 47 75  1  0  0  0  0
 48 73  1  0  0  0  0
 49 65  1  0  0  0  0
 50 65  1  0  0  0  0
 51 67  1  0  0  0  0
 52 68  1  0  0  0  0
 53 68  1  0  0  0  0
 54 69  1  0  0  0  0
 55 69  1  0  0  0  0
 56 69  1  0  0  0  0
 57 70  1  0  0  0  0
 58 70  1  0  0  0  0
 59 80  1  0  0  0  0
 60 68  1  0  0  0  0
 61 62  1  0  0  0  0
 61 63  1  0  0  0  0
 62 70  1  0  0  0  0
 63 72  1  0  0  0  0
 64 70  1  0  0  0  0
 64 87  1  0  0  0  0
 66 69  1  0  0  0  0
 66 79  1  0  0  0  0
 67 80  1  0  0  0  0
 71 73  1  0  0  0  0
M  CHG  1  80   1
M  ISO  4  17 100  32 100  64 101  87 101
M  END
> <Batch ID>
0095

> <Smiles>
CNC(C)C(=O)NC(C(=O)N1Cc2cc([101O:1][101CH2:1]C(C)(C)CCCn3c[100c:0]([100C:0](=O)N4CCCC(n5nc(-c6ccc(Oc7ccc(F)cc7F)cc6)c(C(N)=O)c5N)C4)c(C(C)C)c3CC(C)C)ccc2CC1C(=O)NC1CCCc2ccccc21)C(C)(C)C

> <Shape>
0.271

> <Color>
0.114

> <Negative vol penalty>
0.000

$$$$

  -OEChem-04052319213D

 83 91  0     1  0  0  0  0  0999 V2000
  -25.0074  -32.7761   23.6438 C   0  0  0  0  0  0  0  0  0  0  0  0
  -24.7893  -31.4059   23.7462 C   0  0  0  0  0  0  0  0  0  0  0  0
  -23.0631   -9.8862   19.9293 C   0  0  0  0  0  0  0  0  0  0  0  0
  -23.8422   -9.8576   22.2161 C   0  0  0  0  0  0  0  0  0  0  0  0
  -25.5303  -33.3116   22.4674 C   0  0  0  0  0  0  0  0  0  0  0  0
  -25.0930  -30.5705   22.6718 C   0  0  0  0  0  0  0  0  0  0  0  0
  -27.2279  -24.8375   22.9551 C   0  0  0  0  0  0  0  0  0  0  0  0
  -22.3170   -8.7324   20.1691 C   0  0  0  0  0  0  0  0  0  0  0  0
  -23.0960   -8.7038   22.4559 C   0  0  0  0  0  0  0  0  0  0  0  0
  -26.6006  -23.5968   22.8510 C   0  0  0  0  0  0  0  0  0  0  0  0
  -19.8700   -7.9094   23.0741 C   0  0  0  0  0  0  0  0  0  0  0  0
  -19.1227   -7.8555   24.2507 C   0  0  0  0  0  0  0  0  0  0  0  0
  -27.1840  -23.5049   20.5121 C   0  0  0  0  0  0  0  0  0  0  0  0
  -20.3629   -5.9032   24.9490 C   0  0  0  0  0  0  0  0  0  0  0  0
  -28.3095  -18.7436   21.9397 C   0  0  0  0  0  0  0  0  0  0  0  0
  -23.8258  -10.4489   20.9528 C   0  0  0  0  0  0  0  0  0  0  0  0
  -24.1762  -12.9742   20.8659 C   0  0  0  0  0  0  0  0  0  0  0  0
  -25.8496  -32.4811   21.3816 C   0  0  0  0  0  0  0  0  0  0  0  0
  -27.8295  -25.4273   21.8341 C   0  0  0  0  0  0  0  0  0  0  0  0
  -25.6194  -31.0955   21.4794 C   0  0  0  0  0  0  0  0  0  0  0  0
  -27.8205  -24.7520   20.6052 C   0  0  0  0  0  0  0  0  0  0  0  0
  -29.1180  -18.3853   20.8836 C   0  0  0  0  0  0  0  0  0  0  0  0
  -28.3256  -18.4299   19.7101 C   0  0  0  0  0  0  0  0  0  0  0  0
  -22.3334   -8.1412   21.4323 C   0  0  0  0  0  0  0  0  0  0  0  0
  -26.5761  -22.9316   21.6287 C   0  0  0  0  0  0  0  0  0  0  0  0
  -20.8637   -6.9601   22.8349 C   0  0  0  0  0  0  0  0  0  0  0  0
  -19.3692   -6.8525   25.1881 C   0  0  0  0  0  0  0  0  0  0  0  0
  -21.1101   -5.9570   23.7724 C   0  0  0  0  0  0  0  0  0  0  0  0
  -24.5972  -11.6404   20.7056 C   0  0  0  0  0  0  0  0  0  0  0  0
  -27.0570  -18.8144   20.0847 C   0  0  0  0  0  0  0  0  0  0  0  0
  -25.2681  -13.7247   20.5042 C   0  0  0  0  0  0  0  0  0  0  0  0
  -22.9112  -13.4886   21.3028 C   0  0  0  0  0  0  0  0  0  0  0  0
  -27.3626  -28.1051   20.1865 C   0  0  0  0  0  0  0  0  0  0  0  0
  -30.0469  -27.1559   18.6321 C   0  0  0  0  0  0  0  0  0  0  0  0
  -32.1166  -24.5999   17.7211 C   0  0  0  0  0  0  0  0  0  0  0  0
  -30.7571  -14.7208   20.6609 C   0  0  0  0  0  0  0  0  0  0  0  0
  -26.3684  -33.1115   20.1135 C   0  0  0  0  0  0  0  0  0  0  0  0
  -28.5253  -26.7539   21.9692 C   0  0  0  0  0  0  0  0  0  0  0  0
  -28.4695  -25.3329   19.3765 C   0  0  0  0  0  0  0  0  0  0  0  0
  -27.0141  -32.1126   19.1567 C   0  0  0  0  0  0  0  0  0  0  0  0
  -29.5905  -12.3748   18.2500 C   0  0  0  0  0  0  0  0  0  0  0  0
  -26.1350  -30.8755   19.0032 C   0  0  0  0  0  0  0  0  0  0  0  0
  -28.1556  -12.0802   18.6908 C   0  0  0  0  0  0  0  0  0  0  0  0
  -30.5185  -12.5751   19.4462 C   0  0  0  0  0  0  0  0  0  0  0  0
  -28.6312  -13.2933   20.8590 C   0  0  0  0  0  0  0  0  0  0  0  0
  -25.9593  -30.1537   20.3447 C   0  0  1  0  0  0  0  0  0  0  0  0
  -28.6583  -27.4967   20.6433 C   0  0  1  0  0  0  0  0  0  0  0  0
  -27.6465  -13.1391   19.6872 C   0  0  2  0  0  0  0  0  0  0  0  0
  -25.8422  -19.0197   19.2679 C   0  0  0  0  0  0  0  0  0  0  0  0
  -29.5928  -19.2547   17.7100 C   0  0  0  0  0  0  0  0  0  0  0  0
  -34.2098  -24.1285   16.4197 C   0  0  0  0  0  0  0  0  0  0  0  0
  -28.4870  -27.4397   16.0251 C   0  0  0  0  0  0  0  0  0  0  0  0
  -30.2615  -26.0811   14.8966 C   0  0  0  0  0  0  0  0  0  0  0  0
  -30.8416  -28.2770   15.9284 C   0  0  0  0  0  0  0  0  0  0  0  0
  -33.5125  -23.5665   20.1175 C   0  0  0  0  0  0  0  0  0  0  0  0
  -30.5467  -18.0227   20.9710 C   0  0  0  0  0  0  0  0  0  0  0  0
  -28.7744  -18.1215   18.3366 C   0  0  0  0  0  0  0  0  0  0  0  0
  -25.8768  -19.4283   22.2784 C   0  0  0  0  0  0  0  0  0  0  0  0
  -30.8415  -16.8532   21.9277 C   0  0  0  0  0  0  0  0  0  0  0  0
  -25.9544  -20.8951   22.6879 C   0  0  0  0  0  0  0  0  0  1  0  0
  -30.3356  -26.3008   17.4220 C   0  0  1  0  0  0  0  0  0  0  0  0
  -33.6263  -24.4544   17.7857 C   0  0  2  0  0  0  0  0  0  0  0  0
  -29.9674  -27.0143   16.0905 C   0  0  0  0  0  0  0  0  0  0  0  0
  -25.8581  -11.5459   20.2754 N   0  0  0  0  0  0  0  0  0  0  0  0
  -27.0591  -19.0025   21.4422 N   0  0  0  0  0  0  0  0  0  0  0  0
  -26.2388  -12.8298   20.1622 N   0  0  0  0  0  0  0  0  0  0  0  0
  -29.1316  -26.6353   19.5579 N   0  0  0  0  0  0  0  0  0  0  0  0
  -29.9792  -13.5929   20.3513 N   0  0  0  0  0  0  0  0  0  0  0  0
  -25.4830  -15.0563   20.4484 N   0  0  0  0  0  0  0  0  0  0  0  0
  -21.8987  -12.5785   21.6356 N   0  0  0  0  0  0  0  0  0  0  0  0
  -27.1425  -29.3834   20.6629 N   0  0  0  0  0  0  0  0  0  0  0  0
  -31.7378  -25.9108   17.5229 N   0  0  0  0  0  0  0  0  0  0  0  0
  -30.1685  -15.6397   21.5211 N   0  0  0  0  0  0  0  0  0  0  0  0
  -34.0017  -23.3639   18.7295 N   0  3  0  0  0  0  0  0  0  0  0  0
  -22.6801  -14.7192   21.3797 O   0  0  0  0  0  0  0  0  0  0  0  0
  -26.6185  -27.4630   19.4546 O   0  0  0  0  0  0  0  0  0  0  0  0
  -30.6178  -28.2424   18.7550 O   0  0  0  0  0  0  0  0  0  0  0  0
  -31.3502  -23.6455   17.8315 O   0  0  0  0  0  0  0  0  0  0  0  0
  -31.8899  -14.8985   20.2002 O   0  0  0  0  0  0  0  0  0  0  0  0
  -21.6052   -7.0154   21.6667 O   0  0  0  0  0  0  0  0  0  0  0  0
  -25.9639  -21.7207   21.5241 O   0  0  0  0  0  0  0  0  0  1  0  0
  -18.6525   -6.8018   26.3186 F   0  0  0  0  0  0  0  0  0  0  0  0
  -22.0642   -5.0430   23.5487 F   0  0  0  0  0  0  0  0  0  0  0  0
  1  2  1  0  0  0  0
  1  5  2  0  0  0  0
  2  6  2  0  0  0  0
  3  8  2  0  0  0  0
  3 16  1  0  0  0  0
  4  9  1  0  0  0  0
  4 16  2  0  0  0  0
  5 18  1  0  0  0  0
  6 20  1  0  0  0  0
  7 10  2  0  0  0  0
  7 19  1  0  0  0  0
  8 24  1  0  0  0  0
  9 24  2  0  0  0  0
 10 25  1  0  0  0  0
 11 12  2  0  0  0  0
 11 26  1  0  0  0  0
 12 27  1  0  0  0  0
 13 21  1  0  0  0  0
 13 25  2  0  0  0  0
 14 27  2  0  0  0  0
 14 28  1  0  0  0  0
 15 22  2  0  0  0  0
 15 65  1  0  0  0  0
 16 29  1  0  0  0  0
 17 29  1  0  0  0  0
 17 31  2  0  0  0  0
 17 32  1  0  0  0  0
 18 20  2  0  0  0  0
 18 37  1  0  0  0  0
 19 21  2  0  0  0  0
 19 38  1  0  0  0  0
 20 46  1  0  0  0  0
 21 39  1  0  0  0  0
 22 23  1  0  0  0  0
 22 56  1  0  0  0  0
 23 30  2  0  0  0  0
 23 57  1  0  0  0  0
 24 80  1  0  0  0  0
 25 81  1  0  0  0  0
 26 28  2  0  0  0  0
 26 80  1  0  0  0  0
 27 82  1  0  0  0  0
 28 83  1  0  0  0  0
 29 64  2  0  0  0  0
 30 49  1  0  0  0  0
 30 65  1  0  0  0  0
 31 66  1  0  0  0  0
 31 69  1  0  0  0  0
 32 70  1  0  0  0  0
 32 75  2  0  0  0  0
 33 47  1  0  0  0  0
 33 71  1  0  0  0  0
 33 76  2  0  0  0  0
 34 61  1  0  0  0  0
 34 67  1  0  0  0  0
 34 77  2  0  0  0  0
 35 62  1  0  0  0  0
 35 72  1  0  0  0  0
 35 78  2  0  0  0  0
 36 68  1  0  0  0  0
 36 73  1  0  0  0  0
 36 79  2  0  0  0  0
 37 40  1  0  0  0  0
 38 47  1  0  0  0  0
 39 67  1  0  0  0  0
 40 42  1  0  0  0  0
 41 43  1  0  0  0  0
 41 44  1  0  0  0  0
 42 46  1  0  0  0  0
 43 48  1  0  0  0  0
 44 68  1  0  0  0  0
 45 48  1  0  0  0  0
 45 68  1  0  0  0  0
 46 71  1  0  0  0  0
 47 67  1  0  0  0  0
 48 66  1  0  0  0  0
 50 57  1  0  0  0  0
 51 62  1  0  0  0  0
 52 63  1  0  0  0  0
 53 63  1  0  0  0  0
 54 63  1  0  0  0  0
 55 74  1  0  0  0  0
 56 59  1  0  0  0  0
 58 60  1  0  0  0  0
 58 65  1  0  0  0  0
 59 73  1  0  0  0  0
 60 81  1  0  0  0  0
 61 63  1  0  0  0  0
 61 72  1  0  0  0  0
 62 74  1  0  0  0  0
 64 66  1  0  0  0  0
M  CHG  1  74   1
M  ISO  4  36 100  60 101  73 100  81 101
M  END
> <Batch ID>
0095

> <Smiles>
CCc1c(CC[100NH:0][100C:0](=O)N2CCCC(n3nc(-c4ccc(Oc5ccc(F)cc5F)cc4)c(C(N)=O)c3N)C2)cn(C[101CH2:1][101O:1]c2ccc3c(c2)CN(C(=O)C(NC(=O)C(C)NC)C(C)(C)C)C(C(=O)NC2CCCc4ccccc42)C3)c1C

> <Shape>
0.325

> <Color>
0.196

> <Negative vol penalty>
0.000

$$$$

  -OEChem-04052319213D

 85 93  0     1  0  0  0  0  0999 V2000
  -29.8425  -12.0134   19.4216 C   0  0  0  0  0  0  0  0  0  0  0  0
  -29.8391  -13.3825   19.6684 C   0  0  0  0  0  0  0  0  0  0  0  0
  -29.6890  -21.8638   21.9960 C   0  0  0  0  0  0  0  0  0  0  0  0
  -28.0212  -22.0603   20.2590 C   0  0  0  0  0  0  0  0  0  0  0  0
  -28.6375  -11.3361   19.2394 C   0  0  0  0  0  0  0  0  0  0  0  0
  -28.6307  -14.0753   19.7320 C   0  0  0  0  0  0  0  0  0  0  0  0
  -25.5401  -19.6152   23.0599 C   0  0  0  0  0  0  0  0  0  0  0  0
  -20.6598  -25.5140   22.4806 C   0  0  0  0  0  0  0  0  0  0  0  0
  -29.7416  -20.4854   21.7896 C   0  0  0  0  0  0  0  0  0  0  0  0
  -28.0738  -20.6818   20.0526 C   0  0  0  0  0  0  0  0  0  0  0  0
  -24.8350  -20.7843   22.7774 C   0  0  0  0  0  0  0  0  0  0  0  0
  -31.1463  -18.3499   19.5761 C   0  0  0  0  0  0  0  0  0  0  0  0
  -32.4046  -17.7515   19.5128 C   0  0  0  0  0  0  0  0  0  0  0  0
  -21.5086  -24.4551   22.7834 C   0  0  0  0  0  0  0  0  0  0  0  0
  -22.8113  -19.4958   22.5257 C   0  0  0  0  0  0  0  0  0  0  0  0
  -31.8394  -16.3626   21.4071 C   0  0  0  0  0  0  0  0  0  0  0  0
  -28.8288  -22.6513   21.2307 C   0  0  0  0  0  0  0  0  0  0  0  0
  -29.5519  -25.0609   20.8078 C   0  0  0  0  0  0  0  0  0  0  0  0
  -27.4132  -12.0192   19.3104 C   0  0  0  0  0  0  0  0  0  0  0  0
  -24.8871  -18.3742   23.0668 C   0  0  0  0  0  0  0  0  0  0  0  0
  -27.4082  -13.4068   19.5492 C   0  0  0  0  0  0  0  0  0  0  0  0
  -23.5098  -18.3127   22.8111 C   0  0  0  0  0  0  0  0  0  0  0  0
  -20.9063  -26.2961   21.3577 C   0  0  0  0  0  0  0  0  0  0  0  0
  -28.9340  -19.8944   20.8179 C   0  0  0  0  0  0  0  0  0  0  0  0
  -23.4710  -20.7244   22.5074 C   0  0  0  0  0  0  0  0  0  0  0  0
  -30.2345  -17.9548   20.5550 C   0  0  0  0  0  0  0  0  0  0  0  0
  -32.7512  -16.7578   20.4283 C   0  0  0  0  0  0  0  0  0  0  0  0
  -30.5810  -16.9611   21.4705 C   0  0  0  0  0  0  0  0  0  0  0  0
  -28.7736  -24.0753   21.4439 C   0  0  0  0  0  0  0  0  0  0  0  0
  -22.5814  -24.2218   21.9383 C   0  0  0  0  0  0  0  0  0  0  0  0
  -22.0063  -25.9804   20.5765 C   0  0  0  0  0  0  0  0  0  0  0  0
  -29.1207  -26.2447   21.3546 C   0  0  0  0  0  0  0  0  0  0  0  0
  -30.5733  -24.9190   19.8116 C   0  0  0  0  0  0  0  0  0  0  0  0
  -25.1580  -15.6877   21.3896 C   0  0  0  0  0  0  0  0  0  0  0  0
  -22.9757  -14.5935   23.5256 C   0  0  0  0  0  0  0  0  0  0  0  0
  -20.4803  -15.3072   25.7415 C   0  0  0  0  0  0  0  0  0  0  0  0
  -24.3031  -28.7163   23.1138 C   0  0  0  0  0  0  0  0  0  0  0  0
  -26.1387  -11.2528   19.0599 C   0  0  0  0  0  0  0  0  0  0  0  0
  -25.6565  -17.1254   23.3997 C   0  0  0  0  0  0  0  0  0  0  0  0
  -22.7579  -17.0077   22.8261 C   0  0  0  0  0  0  0  0  0  0  0  0
  -24.8835  -11.9929   19.5148 C   0  0  0  0  0  0  0  0  0  0  0  0
  -26.7392  -27.5060   25.5008 C   0  0  0  0  0  0  0  0  0  0  0  0
  -24.9200  -13.4440   19.0462 C   0  0  0  0  0  0  0  0  0  0  0  0
  -27.5930  -26.5874   24.6249 C   0  0  0  0  0  0  0  0  0  0  0  0
  -25.2654  -27.4256   25.1140 C   0  0  0  0  0  0  0  0  0  0  0  0
  -25.8408  -26.7979   22.8013 C   0  0  0  0  0  0  0  0  0  0  0  0
  -26.1166  -14.1889   19.6502 C   0  0  1  0  0  0  0  0  0  0  0  0
  -24.9929  -15.8565   22.8734 C   0  0  1  0  0  0  0  0  0  0  0  0
  -27.3443  -26.8507   23.1278 C   0  0  2  0  0  0  0  0  0  0  0  0
  -22.3182  -26.7839   19.3567 C   0  0  0  0  0  0  0  0  0  0  0  0
  -18.5654  -26.9561   20.7108 C   0  0  0  0  0  0  0  0  0  0  0  0
  -18.8605  -14.2018   27.3073 C   0  0  0  0  0  0  0  0  0  0  0  0
  -21.2574  -13.7509   21.1492 C   0  0  0  0  0  0  0  0  0  0  0  0
  -19.3145  -13.5479   22.7151 C   0  0  0  0  0  0  0  0  0  0  0  0
  -21.3221  -12.1004   23.0270 C   0  0  0  0  0  0  0  0  0  0  0  0
  -21.6228  -16.6982   28.0908 C   0  0  0  0  0  0  0  0  0  0  0  0
  -23.5167  -23.0864   22.2340 C   0  0  0  0  0  0  0  0  0  1  0  0
  -22.7750  -30.6143   23.5825 C   0  0  0  0  0  0  0  0  0  0  0  0
  -21.3392  -30.1722   23.3699 C   0  0  0  0  0  0  0  0  0  0  0  0
  -19.9356  -28.5231   22.1253 C   0  0  0  0  0  0  0  0  0  0  0  0
  -20.0013  -27.4325   21.0288 C   0  0  1  0  0  0  0  0  0  0  0  0
  -21.4679  -14.5605   23.5918 C   0  0  1  0  0  0  0  0  0  0  0  0
  -20.2332  -14.8407   27.1648 C   0  0  2  0  0  0  0  0  0  0  0  0
  -20.8547  -13.5144   22.6185 C   0  0  0  0  0  0  0  0  0  0  0  0
  -27.9132  -24.5884   22.3274 N   0  0  0  0  0  0  0  0  0  0  0  0
  -22.8531  -24.9598   20.8387 N   0  0  0  0  0  0  0  0  0  0  0  0
  -28.1484  -25.9093   22.2503 N   0  0  0  0  0  0  0  0  0  0  0  0
  -23.5557  -15.8137   23.1507 N   0  0  0  0  0  0  0  0  0  0  0  0
  -25.0955  -27.7045   23.6810 N   0  0  0  0  0  0  0  0  0  0  0  0
  -29.4822  -27.5295   21.1518 N   0  0  0  0  0  0  0  0  0  0  0  0
  -30.8923  -23.6309   19.3606 N   0  0  0  0  0  0  0  0  0  0  0  0
  -25.8471  -14.5463   21.0264 N   0  0  0  0  0  0  0  0  0  0  0  0
  -21.1254  -14.3452   24.9935 N   0  0  0  0  0  0  0  0  0  0  0  0
  -23.6245  -29.5271   24.0153 N   0  0  0  0  0  0  0  0  0  0  0  0
  -20.3165  -15.9909   28.1088 N   0  3  0  0  0  0  0  0  0  0  0  0
  -21.2938  -29.0741   22.3676 N   0  3  0  0  0  0  0  0  0  0  0  0
  -31.1963  -25.9038   19.3475 O   0  0  0  0  0  0  0  0  0  0  0  0
  -24.6933  -16.5298   20.6302 O   0  0  0  0  0  0  0  0  0  0  0  0
  -23.6156  -13.5761   23.8034 O   0  0  0  0  0  0  0  0  0  0  0  0
  -20.1323  -16.4129   25.3331 O   0  0  0  0  0  0  0  0  0  0  0  0
  -24.2113  -28.8882   21.8934 O   0  0  0  0  0  0  0  0  0  0  0  0
  -28.9853  -18.5493   20.6160 O   0  0  0  0  0  0  0  0  0  0  0  0
  -22.7806  -21.8639   22.2307 O   0  0  0  0  0  0  0  0  0  1  0  0
  -33.9590  -16.1821   20.3664 F   0  0  0  0  0  0  0  0  0  0  0  0
  -29.7089  -16.5764   22.4124 F   0  0  0  0  0  0  0  0  0  0  0  0
  1  2  1  0  0  0  0
  1  5  2  0  0  0  0
  2  6  2  0  0  0  0
  3  9  2  0  0  0  0
  3 17  1  0  0  0  0
  4 10  1  0  0  0  0
  4 17  2  0  0  0  0
  5 19  1  0  0  0  0
  6 21  1  0  0  0  0
  7 11  2  0  0  0  0
  7 20  1  0  0  0  0
  8 14  2  0  0  0  0
  8 23  1  0  0  0  0
  9 24  1  0  0  0  0
 10 24  2  0  0  0  0
 11 25  1  0  0  0  0
 12 13  2  0  0  0  0
 12 26  1  0  0  0  0
 13 27  1  0  0  0  0
 14 30  1  0  0  0  0
 15 22  1  0  0  0  0
 15 25  2  0  0  0  0
 16 27  2  0  0  0  0
 16 28  1  0  0  0  0
 17 29  1  0  0  0  0
 18 29  1  0  0  0  0
 18 32  2  0  0  0  0
 18 33  1  0  0  0  0
 19 21  2  0  0  0  0
 19 38  1  0  0  0  0
 20 22  2  0  0  0  0
 20 39  1  0  0  0  0
 21 47  1  0  0  0  0
 22 40  1  0  0  0  0
 23 31  2  0  0  0  0
 23 61  1  0  0  0  0
 24 82  1  0  0  0  0
 25 83  1  0  0  0  0
 26 28  2  0  0  0  0
 26 82  1  0  0  0  0
 27 84  1  0  0  0  0
 28 85  1  0  0  0  0
 29 65  2  0  0  0  0
 30 57  1  0  0  0  0
 30 66  2  0  0  0  0
 31 50  1  0  0  0  0
 31 66  1  0  0  0  0
 32 67  1  0  0  0  0
 32 70  1  0  0  0  0
 33 71  1  0  0  0  0
 33 77  2  0  0  0  0
 34 48  1  0  0  0  0
 34 72  1  0  0  0  0
 34 78  2  0  0  0  0
 35 62  1  0  0  0  0
 35 68  1  0  0  0  0
 35 79  2  0  0  0  0
 36 63  1  0  0  0  0
 36 73  1  0  0  0  0
 36 80  2  0  0  0  0
 37 69  1  0  0  0  0
 37 74  1  0  0  0  0
 37 81  2  0  0  0  0
 38 41  1  0  0  0  0
 39 48  1  0  0  0  0
 40 68  1  0  0  0  0
 41 43  1  0  0  0  0
 42 44  1  0  0  0  0
 42 45  1  0  0  0  0
 43 47  1  0  0  0  0
 44 49  1  0  0  0  0
 45 69  1  0  0  0  0
 46 49  1  0  0  0  0
 46 69  1  0  0  0  0
 47 72  1  0  0  0  0
 48 68  1  0  0  0  0
 49 67  1  0  0  0  0
 51 61  1  0  0  0  0
 52 63  1  0  0  0  0
 53 64  1  0  0  0  0
 54 64  1  0  0  0  0
 55 64  1  0  0  0  0
 56 75  1  0  0  0  0
 57 83  1  0  0  0  0
 58 59  1  0  0  0  0
 58 74  1  0  0  0  0
 59 76  1  0  0  0  0
 60 61  1  0  0  0  0
 60 76  1  0  0  0  0
 62 64  1  0  0  0  0
 62 73  1  0  0  0  0
 63 75  1  0  0  0  0
 65 67  1  0  0  0  0
M  CHG  2  75   1  76   1
M  ISO  4  37 100  57 101  74 100  83 101
M  END
> <Batch ID>
0095

> <Smiles>
CNC(C)C(=O)NC(C(=O)N1Cc2cc([101O:1][101CH2:1]c3ccc(C(C)CNCC[100NH:0][100C:0](=O)N4CCCC(n5nc(-c6ccc(Oc7ccc(F)cc7F)cc6)c(C(N)=O)c5N)C4)c(C)n3)ccc2CC1C(=O)NC1CCCc2ccccc21)C(C)(C)C

> <Shape>
0.213

> <Color>
0.056

> <Negative vol penalty>
0.000

$$$$

  -OEChem-04052319213D

 88 96  0     1  0  0  0  0  0999 V2000
  -20.4942  -18.3667   17.0853 C   0  0  0  0  0  0  0  0  0  0  0  0
  -21.6857  -18.8805   17.5870 C   0  0  0  0  0  0  0  0  0  0  0  0
  -22.3763  -29.2612   21.0769 C   0  0  0  0  0  0  0  0  0  0  0  0
  -23.6414  -29.8530   23.0483 C   0  0  0  0  0  0  0  0  0  0  0  0
  -20.1022  -17.0699   17.4146 C   0  0  0  0  0  0  0  0  0  0  0  0
  -22.4855  -18.0980   18.4192 C   0  0  0  0  0  0  0  0  0  0  0  0
  -27.3920  -18.3432   17.1898 C   0  0  0  0  0  0  0  0  0  0  0  0
  -21.2290  -29.8121   21.6478 C   0  0  0  0  0  0  0  0  0  0  0  0
  -22.4941  -30.4040   23.6192 C   0  0  0  0  0  0  0  0  0  0  0  0
  -28.0938  -19.4779   17.5944 C   0  0  0  0  0  0  0  0  0  0  0  0
  -17.8860  -30.7417   22.7357 C   0  0  0  0  0  0  0  0  0  0  0  0
  -16.7004  -30.0125   22.6450 C   0  0  0  0  0  0  0  0  0  0  0  0
  -29.0025  -18.2442   19.4576 C   0  0  0  0  0  0  0  0  0  0  0  0
  -33.0370  -20.4233   17.8871 C   0  0  0  0  0  0  0  0  0  0  0  0
  -17.7279  -28.1915   23.8556 C   0  0  0  0  0  0  0  0  0  0  0  0
  -23.5825  -29.2816   21.7772 C   0  0  0  0  0  0  0  0  0  0  0  0
  -25.7166  -29.3696   20.3824 C   0  0  0  0  0  0  0  0  0  0  0  0
  -20.9023  -16.2677   18.2435 C   0  0  0  0  0  0  0  0  0  0  0  0
  -27.4817  -17.1515   17.9236 C   0  0  0  0  0  0  0  0  0  0  0  0
  -22.1031  -16.7897   18.7610 C   0  0  0  0  0  0  0  0  0  0  0  0
  -28.3029  -17.0951   19.0588 C   0  0  0  0  0  0  0  0  0  0  0  0
  -32.4101  -21.2668   18.8373 C   0  0  0  0  0  0  0  0  0  0  0  0
  -21.2879  -30.3835   22.9189 C   0  0  0  0  0  0  0  0  0  0  0  0
  -28.8969  -19.4294   18.7300 C   0  0  0  0  0  0  0  0  0  0  0  0
  -18.9926  -30.1958   23.3863 C   0  0  0  0  0  0  0  0  0  0  0  0
  -16.6214  -28.7374   23.2050 C   0  0  0  0  0  0  0  0  0  0  0  0
  -18.9135  -28.9207   23.9462 C   0  0  0  0  0  0  0  0  0  0  0  0
  -24.7679  -28.7122   21.1883 C   0  0  0  0  0  0  0  0  0  0  0  0
  -34.0419  -19.7440   18.5398 C   0  0  0  0  0  0  0  0  0  0  0  0
  -33.0512  -21.0773   20.0416 C   0  0  0  0  0  0  0  0  0  0  0  0
  -26.6416  -28.4001   20.0808 C   0  0  0  0  0  0  0  0  0  0  0  0
  -25.7580  -30.7345   19.9454 C   0  0  0  0  0  0  0  0  0  0  0  0
  -25.4158  -15.3406   19.5223 C   0  0  0  0  0  0  0  0  0  0  0  0
  -27.9681  -13.3585   19.8035 C   0  0  0  0  0  0  0  0  0  0  0  0
  -31.3607  -12.9882   19.8211 C   0  0  0  0  0  0  0  0  0  0  0  0
  -28.2401  -23.4721   22.9119 C   0  0  0  0  0  0  0  0  0  0  0  0
  -20.4137  -14.8887   18.6099 C   0  0  0  0  0  0  0  0  0  0  0  0
  -26.7394  -15.9287   17.4588 C   0  0  0  0  0  0  0  0  0  0  0  0
  -28.4493  -15.8343   19.8697 C   0  0  0  0  0  0  0  0  0  0  0  0
  -21.5022  -13.9923   19.1947 C   0  0  0  0  0  0  0  0  0  0  0  0
  -27.0520  -23.6672   19.4990 C   0  0  0  0  0  0  0  0  0  0  0  0
  -22.3023  -14.7451   20.2529 C   0  0  0  0  0  0  0  0  0  0  0  0
  -26.4184  -25.0594   19.4766 C   0  0  0  0  0  0  0  0  0  0  0  0
  -26.8134  -22.9726   20.8364 C   0  0  0  0  0  0  0  0  0  0  0  0
  -26.6449  -25.1369   22.0030 C   0  0  0  0  0  0  0  0  0  0  0  0
  -23.0099  -15.9630   19.6466 C   0  0  1  0  0  0  0  0  0  0  0  0
  -26.5005  -14.9151   18.5736 C   0  0  1  0  0  0  0  0  0  0  0  0
  -26.8705  -25.9003   20.6852 C   0  0  2  0  0  0  0  0  0  0  0  0
  -34.4771  -17.3082   18.1350 C   0  0  0  0  0  0  0  0  0  0  0  0
  -31.6281  -23.2837   17.5520 C   0  0  0  0  0  0  0  0  0  0  0  0
  -33.1515  -11.2545   20.1121 C   0  0  0  0  0  0  0  0  0  0  0  0
  -34.2111  -18.9369   21.9923 C   0  0  0  0  0  0  0  0  0  0  0  0
  -35.8360  -20.7906   21.4183 C   0  0  0  0  0  0  0  0  0  0  0  0
  -27.4884  -13.3722   22.8167 C   0  0  0  0  0  0  0  0  0  0  0  0
  -29.7950  -12.4464   23.1179 C   0  0  0  0  0  0  0  0  0  0  0  0
  -28.0810  -11.1368   21.8649 C   0  0  0  0  0  0  0  0  0  0  0  0
  -32.4119  -13.4489   17.0932 C   0  0  0  0  0  0  0  0  0  0  0  0
  -34.9989  -18.7441   18.0230 C   0  0  0  0  0  0  0  0  0  0  0  0
  -32.8057  -21.7003   21.3598 C   0  0  0  0  0  0  0  0  0  0  0  0
  -29.7926  -21.7070   23.7066 C   0  0  0  0  0  0  0  0  0  0  0  0
  -31.2023  -22.0285   23.2466 C   0  0  0  0  0  0  0  0  0  0  0  0
  -29.9911  -21.4474   18.1086 C   0  0  0  0  0  0  0  0  0  1  0  0
  -31.2440  -22.2051   18.5688 C   0  0  1  0  0  0  0  0  0  0  0  0
  -29.0905  -13.1955   20.7998 C   0  0  1  0  0  0  0  0  0  0  0  0
  -32.2692  -11.9950   19.1192 C   0  0  2  0  0  0  0  0  0  0  0  0
  -34.9486  -19.6712   20.8708 C   0  0  0  0  0  0  0  0  0  0  0  0
  -28.6097  -12.5622   22.1359 C   0  0  0  0  0  0  0  0  0  0  0  0
  -25.0629  -27.4246   21.3861 N   0  0  0  0  0  0  0  0  0  0  0  0
  -34.0415  -20.1498   19.8488 N   0  0  0  0  0  0  0  0  0  0  0  0
  -26.2075  -27.2651   20.7000 N   0  0  0  0  0  0  0  0  0  0  0  0
  -27.6984  -14.6671   19.3783 N   0  0  0  0  0  0  0  0  0  0  0  0
  -27.2825  -23.8174   21.9438 N   0  0  0  0  0  0  0  0  0  0  0  0
  -27.7759  -28.4163   19.3489 N   0  0  0  0  0  0  0  0  0  0  0  0
  -24.7280  -31.5961   20.3468 N   0  0  0  0  0  0  0  0  0  0  0  0
  -24.1907  -15.5508   18.9185 N   0  0  0  0  0  0  0  0  0  0  0  0
  -30.1332  -12.4352   20.1193 N   0  0  0  0  0  0  0  0  0  0  0  0
  -28.7907  -22.2023   22.7890 N   0  0  0  0  0  0  0  0  0  0  0  0
  -33.1483  -12.6978   18.1423 N   0  3  0  0  0  0  0  0  0  0  0  0
  -31.4341  -21.4531   21.8985 N   0  3  0  0  0  0  0  0  0  0  0  0
  -26.6724  -31.1729   19.2070 O   0  0  0  0  0  0  0  0  0  0  0  0
  -25.6710  -15.4674   20.7142 O   0  0  0  0  0  0  0  0  0  0  0  0
  -27.3580  -12.3607   19.4113 O   0  0  0  0  0  0  0  0  0  0  0  0
  -31.7067  -14.1382   20.0824 O   0  0  0  0  0  0  0  0  0  0  0  0
  -28.5835  -24.2410   23.8163 O   0  0  0  0  0  0  0  0  0  0  0  0
  -20.1687  -30.9214   23.4761 O   0  0  0  0  0  0  0  0  0  0  0  0
  -29.5825  -20.5357   19.1275 O   0  0  0  0  0  0  0  0  0  1  0  0
  -15.4823  -28.0379   23.1192 F   0  0  0  0  0  0  0  0  0  0  0  0
  -19.9729  -28.3915   24.5735 F   0  0  0  0  0  0  0  0  0  0  0  0
  1  2  1  0  0  0  0
  1  5  2  0  0  0  0
  2  6  2  0  0  0  0
  3  8  2  0  0  0  0
  3 16  1  0  0  0  0
  4  9  1  0  0  0  0
  4 16  2  0  0  0  0
  5 18  1  0  0  0  0
  6 20  1  0  0  0  0
  7 10  2  0  0  0  0
  7 19  1  0  0  0  0
  8 23  1  0  0  0  0
  9 23  2  0  0  0  0
 10 24  1  0  0  0  0
 11 12  2  0  0  0  0
 11 25  1  0  0  0  0
 12 26  1  0  0  0  0
 13 21  1  0  0  0  0
 13 24  2  0  0  0  0
 14 22  1  0  0  0  0
 14 29  2  0  0  0  0
 15 26  2  0  0  0  0
 15 27  1  0  0  0  0
 16 28  1  0  0  0  0
 17 28  1  0  0  0  0
 17 31  2  0  0  0  0
 17 32  1  0  0  0  0
 18 20  2  0  0  0  0
 18 37  1  0  0  0  0
 19 21  2  0  0  0  0
 19 38  1  0  0  0  0
 20 46  1  0  0  0  0
 21 39  1  0  0  0  0
 22 30  2  0  0  0  0
 22 63  1  0  0  0  0
 23 85  1  0  0  0  0
 24 86  1  0  0  0  0
 25 27  2  0  0  0  0
 25 85  1  0  0  0  0
 26 87  1  0  0  0  0
 27 88  1  0  0  0  0
 28 68  2  0  0  0  0
 29 58  1  0  0  0  0
 29 69  1  0  0  0  0
 30 59  1  0  0  0  0
 30 69  1  0  0  0  0
 31 70  1  0  0  0  0
 31 73  1  0  0  0  0
 32 74  1  0  0  0  0
 32 80  2  0  0  0  0
 33 47  1  0  0  0  0
 33 75  1  0  0  0  0
 33 81  2  0  0  0  0
 34 64  1  0  0  0  0
 34 71  1  0  0  0  0
 34 82  2  0  0  0  0
 35 65  1  0  0  0  0
 35 76  1  0  0  0  0
 35 83  2  0  0  0  0
 36 72  1  0  0  0  0
 36 77  1  0  0  0  0
 36 84  2  0  0  0  0
 37 40  1  0  0  0  0
 38 47  1  0  0  0  0
 39 71  1  0  0  0  0
 40 42  1  0  0  0  0
 41 43  1  0  0  0  0
 41 44  1  0  0  0  0
 42 46  1  0  0  0  0
 43 48  1  0  0  0  0
 44 72  1  0  0  0  0
 45 48  1  0  0  0  0
 45 72  1  0  0  0  0
 46 75  1  0  0  0  0
 47 71  1  0  0  0  0
 48 70  1  0  0  0  0
 49 58  1  0  0  0  0
 50 63  1  0  0  0  0
 51 65  1  0  0  0  0
 52 66  1  0  0  0  0
 53 66  1  0  0  0  0
 54 67  1  0  0  0  0
 55 67  1  0  0  0  0
 56 67  1  0  0  0  0
 57 78  1  0  0  0  0
 59 79  1  0  0  0  0
 60 61  1  0  0  0  0
 60 77  1  0  0  0  0
 61 79  1  0  0  0  0
 62 63  1  0  0  0  0
 62 86  1  0  0  0  0
 64 67  1  0  0  0  0
 64 76  1  0  0  0  0
 65 78  1  0  0  0  0
 66 69  1  0  0  0  0
 68 70  1  0  0  0  0
M  CHG  2  78   1  79   1
M  ISO  4  36 100  62 101  77 100  86 101
M  END
> <Batch ID>
0095

> <Smiles>
CCc1cc(C(C)[101CH2:1][101O:1]c2ccc3c(c2)CN(C(=O)C(NC(=O)C(C)NC)C(C)(C)C)C(C(=O)NC2CCCc4ccccc42)C3)c(CNCC[100NH:0][100C:0](=O)N2CCCC(n3nc(-c4ccc(Oc5ccc(F)cc5F)cc4)c(C(N)=O)c3N)C2)n1C(C)C

> <Shape>
0.209

> <Color>
0.066

> <Negative vol penalty>
0.000

$$$$

  -OEChem-04052319213D

 86 94  0     1  0  0  0  0  0999 V2000
  -27.5636  -35.4072   26.1951 C   0  0  0  0  0  0  0  0  0  0  0  0
  -28.0632  -34.4120   25.3612 C   0  0  0  0  0  0  0  0  0  0  0  0
  -23.1284  -10.8979   21.5559 C   0  0  0  0  0  0  0  0  0  0  0  0
  -23.9649   -8.7358   20.8758 C   0  0  0  0  0  0  0  0  0  0  0  0
  -26.3219  -35.2433   26.8078 C   0  0  0  0  0  0  0  0  0  0  0  0
  -27.3219  -33.2518   25.1403 C   0  0  0  0  0  0  0  0  0  0  0  0
  -27.0383  -29.9940   19.9623 C   0  0  0  0  0  0  0  0  0  0  0  0
  -21.8283  -10.4877   21.2612 C   0  0  0  0  0  0  0  0  0  0  0  0
  -22.6647   -8.3255   20.5811 C   0  0  0  0  0  0  0  0  0  0  0  0
  -27.6881  -28.8320   19.5484 C   0  0  0  0  0  0  0  0  0  0  0  0
  -19.4231   -8.6017   22.7073 C   0  0  0  0  0  0  0  0  0  0  0  0
  -18.4241   -8.8977   23.6345 C   0  0  0  0  0  0  0  0  0  0  0  0
  -25.7902  -27.5243   20.2608 C   0  0  0  0  0  0  0  0  0  0  0  0
  -17.2496  -10.1825   21.9590 C   0  0  0  0  0  0  0  0  0  0  0  0
  -24.1968  -10.0220   21.3632 C   0  0  0  0  0  0  0  0  0  0  0  0
  -26.2137  -10.3189   22.8967 C   0  0  0  0  0  0  0  0  0  0  0  0
  -25.5607  -34.0847   26.5867 C   0  0  0  0  0  0  0  0  0  0  0  0
  -25.7620  -29.9288   20.5395 C   0  0  0  0  0  0  0  0  0  0  0  0
  -26.0695  -33.0717   25.7517 C   0  0  0  0  0  0  0  0  0  0  0  0
  -25.1254  -28.6872   20.6788 C   0  0  0  0  0  0  0  0  0  0  0  0
  -21.5964   -9.2015   20.7738 C   0  0  0  0  0  0  0  0  0  0  0  0
  -27.0652  -27.5966   19.7003 C   0  0  0  0  0  0  0  0  0  0  0  0
  -19.3355   -9.0962   21.4059 C   0  0  0  0  0  0  0  0  0  0  0  0
  -17.3373   -9.6881   23.2604 C   0  0  0  0  0  0  0  0  0  0  0  0
  -18.2488   -9.8865   21.0318 C   0  0  0  0  0  0  0  0  0  0  0  0
  -25.5401  -10.4454   21.6670 C   0  0  0  0  0  0  0  0  0  0  0  0
  -27.4515  -10.8687   22.6683 C   0  0  0  0  0  0  0  0  0  0  0  0
  -25.7610   -9.7549   24.1347 C   0  0  0  0  0  0  0  0  0  0  0  0
  -24.5390  -30.6959   23.3713 C   0  0  0  0  0  0  0  0  0  0  0  0
  -21.7340  -29.9371   21.9296 C   0  0  0  0  0  0  0  0  0  0  0  0
  -20.1144  -28.2146   19.4685 C   0  0  0  0  0  0  0  0  0  0  0  0
  -30.7338  -14.7404   20.5800 C   0  0  0  0  0  0  0  0  0  0  0  0
  -24.2453  -33.9317   27.3084 C   0  0  0  0  0  0  0  0  0  0  0  0
  -25.0635  -31.1940   20.9562 C   0  0  0  0  0  0  0  0  0  0  0  0
  -23.7472  -28.5651   21.2739 C   0  0  0  0  0  0  0  0  0  0  0  0
  -23.3545  -32.8374   26.7258 C   0  0  0  0  0  0  0  0  0  0  0  0
  -29.7044  -12.2710   18.3725 C   0  0  0  0  0  0  0  0  0  0  0  0
  -24.1609  -31.5656   26.4831 C   0  0  0  0  0  0  0  0  0  0  0  0
  -28.5787  -11.5583   19.1209 C   0  0  0  0  0  0  0  0  0  0  0  0
  -31.7843  -17.7097   21.7327 C   0  0  0  0  0  0  0  0  0  0  0  0
  -29.2810  -17.7300   21.3556 C   0  0  0  0  0  0  0  0  0  0  0  0
  -29.6296  -13.7786   18.5840 C   0  0  0  0  0  0  0  0  0  0  0  0
  -31.6514  -16.2857   22.2665 C   0  0  0  0  0  0  0  0  0  0  0  0
  -28.5439  -13.4813   20.7858 C   0  0  0  0  0  0  0  0  0  0  0  0
  -25.2839  -31.8097   25.4678 C   0  0  1  0  0  0  0  0  0  0  0  0
  -23.9782  -30.9605   22.0027 C   0  0  1  0  0  0  0  0  0  0  0  0
  -30.4837  -18.5042   21.9227 C   0  0  2  0  0  0  0  0  0  0  0  0
  -28.5733  -11.9497   20.6089 C   0  0  1  0  0  0  0  0  0  0  0  0
  -29.1940  -16.2821   21.8807 C   0  0  2  0  0  0  0  0  0  0  0  0
  -17.8173  -27.7618   18.5655 C   0  0  0  0  0  0  0  0  0  0  0  0
  -27.2337  -16.4352   23.4420 C   0  0  0  0  0  0  0  0  0  0  0  0
  -29.1593  -14.9199   23.9893 C   0  0  0  0  0  0  0  0  0  0  0  0
  -29.0042  -20.9791   22.9264 C   0  0  0  0  0  0  0  0  0  0  0  0
  -21.1971  -28.0361   24.2552 C   0  0  0  0  0  0  0  0  0  0  0  0
  -19.4238  -26.9462   22.8638 C   0  0  0  0  0  0  0  0  0  0  0  0
  -19.2068  -29.3486   23.4998 C   0  0  0  0  0  0  0  0  0  0  0  0
  -20.7894  -29.3933   16.8391 C   0  0  0  0  0  0  0  0  0  0  0  0
  -30.5934  -19.8830   21.2737 C   0  0  0  0  0  0  0  0  0  0  0  0
  -28.3214  -23.0153   20.7407 C   0  0  0  0  0  0  0  0  0  0  0  0
  -28.6019  -24.3289   20.0021 C   0  0  0  0  0  0  0  0  0  0  0  0
  -29.5395  -22.0862   20.6977 C   0  0  0  0  0  0  0  0  0  0  0  0
  -27.3968  -25.2616   20.0064 C   0  0  0  0  0  0  0  0  0  1  0  0
  -20.9218  -28.6747   21.7687 C   0  0  1  0  0  0  0  0  0  0  0  0
  -19.0536  -28.6423   18.4705 C   0  0  2  0  0  0  0  0  0  0  0  0
  -28.7431  -16.2378   23.3441 C   0  0  0  0  0  0  0  0  0  0  0  0
  -29.3323  -20.7518   21.4477 C   0  0  2  0  0  0  0  0  0  0  0  0
  -20.2142  -28.2532   23.0874 C   0  0  0  0  0  0  0  0  0  0  0  0
  -26.2879  -11.0297   20.7272 N   0  0  0  0  0  0  0  0  0  0  0  0
  -27.4442  -11.2754   21.3665 N   0  0  0  0  0  0  0  0  0  0  0  0
  -23.1080  -29.8302   21.6719 N   0  0  0  0  0  0  0  0  0  0  0  0
  -29.6172  -14.1141   20.0080 N   0  0  0  0  0  0  0  0  0  0  0  0
  -30.4977  -15.6113   21.6645 N   0  0  0  0  0  0  0  0  0  0  0  0
  -28.5345  -11.0390   23.4560 N   0  0  0  0  0  0  0  0  0  0  0  0
  -24.4614   -9.2337   24.1959 N   0  0  0  0  0  0  0  0  0  0  0  0
  -24.7518  -31.8362   24.1222 N   0  0  0  0  0  0  0  0  0  0  0  0
  -20.0129  -28.9136   20.6528 N   0  0  0  0  0  0  0  0  0  0  0  0
  -19.5854  -28.5574   17.0809 N   0  3  0  0  0  0  0  0  0  0  0  0
  -26.4817   -9.7291   25.1611 O   0  0  0  0  0  0  0  0  0  0  0  0
  -24.7606  -29.5425   23.7208 O   0  0  0  0  0  0  0  0  0  0  0  0
  -21.1688  -30.9812   22.2645 O   0  0  0  0  0  0  0  0  0  0  0  0
  -20.9473  -27.3447   19.2236 O   0  0  0  0  0  0  0  0  0  0  0  0
  -31.8750  -14.5446   20.1423 O   0  0  0  0  0  0  0  0  0  0  0  0
  -20.3278   -8.8008   20.4862 O   0  0  0  0  0  0  0  0  0  0  0  0
  -27.7022  -26.4522   19.2948 O   0  0  0  0  0  0  0  0  0  1  0  0
  -16.3772   -9.9710   24.1506 F   0  0  0  0  0  0  0  0  0  0  0  0
  -18.1585  -10.3634   19.7827 F   0  0  0  0  0  0  0  0  0  0  0  0
  1  2  1  0  0  0  0
  1  5  2  0  0  0  0
  2  6  2  0  0  0  0
  3  8  2  0  0  0  0
  3 15  1  0  0  0  0
  4  9  1  0  0  0  0
  4 15  2  0  0  0  0
  5 17  1  0  0  0  0
  6 19  1  0  0  0  0
  7 10  2  0  0  0  0
  7 18  1  0  0  0  0
  8 21  1  0  0  0  0
  9 21  2  0  0  0  0
 10 22  1  0  0  0  0
 11 12  2  0  0  0  0
 11 23  1  0  0  0  0
 12 24  1  0  0  0  0
 13 20  1  0  0  0  0
 13 22  2  0  0  0  0
 14 24  2  0  0  0  0
 14 25  1  0  0  0  0
 15 26  1  0  0  0  0
 16 26  1  0  0  0  0
 16 27  2  0  0  0  0
 16 28  1  0  0  0  0
 17 19  2  0  0  0  0
 17 33  1  0  0  0  0
 18 20  2  0  0  0  0
 18 34  1  0  0  0  0
 19 45  1  0  0  0  0
 20 35  1  0  0  0  0
 21 83  1  0  0  0  0
 22 84  1  0  0  0  0
 23 25  2  0  0  0  0
 23 83  1  0  0  0  0
 24 85  1  0  0  0  0
 25 86  1  0  0  0  0
 26 68  2  0  0  0  0
 27 69  1  0  0  0  0
 27 73  1  0  0  0  0
 28 74  1  0  0  0  0
 28 78  2  0  0  0  0
 29 46  1  0  0  0  0
 29 75  1  0  0  0  0
 29 79  2  0  0  0  0
 30 63  1  0  0  0  0
 30 70  1  0  0  0  0
 30 80  2  0  0  0  0
 31 64  1  0  0  0  0
 31 76  1  0  0  0  0
 31 81  2  0  0  0  0
 32 71  1  0  0  0  0
 32 72  1  0  0  0  0
 32 82  2  0  0  0  0
 33 36  1  0  0  0  0
 34 46  1  0  0  0  0
 35 70  1  0  0  0  0
 36 38  1  0  0  0  0
 37 39  1  0  0  0  0
 37 42  1  0  0  0  0
 38 45  1  0  0  0  0
 39 48  1  0  0  0  0
 40 43  1  0  0  0  0
 40 47  1  0  0  0  0
 41 47  1  0  0  0  0
 41 49  1  0  0  0  0
 42 71  1  0  0  0  0
 43 72  1  0  0  0  0
 44 48  1  0  0  0  0
 44 71  1  0  0  0  0
 45 75  1  0  0  0  0
 46 70  1  0  0  0  0
 47 58  1  0  0  0  0
 48 69  1  0  0  0  0
 49 65  1  0  0  0  0
 49 72  1  0  0  0  0
 50 64  1  0  0  0  0
 51 65  1  0  0  0  0
 52 65  1  0  0  0  0
 53 66  1  0  0  0  0
 54 67  1  0  0  0  0
 55 67  1  0  0  0  0
 56 67  1  0  0  0  0
 57 77  1  0  0  0  0
 58 66  1  0  0  0  0
 59 60  1  0  0  0  0
 59 61  1  0  0  0  0
 60 62  1  0  0  0  0
 61 66  1  0  0  0  0
 62 84  1  0  0  0  0
 63 67  1  0  0  0  0
 63 76  1  0  0  0  0
 64 77  1  0  0  0  0
 68 69  1  0  0  0  0
M  CHG  1  77   1
M  ISO  4  32 100  62 101  72 100  84 101
M  END
> <Batch ID>
0095

> <Smiles>
CNC(C)C(=O)NC(C(=O)N1Cc2cc([101O:1][101CH2:1]CCCC(C)CC3CC[100N:0]([100C:0](=O)N4CCCC(n5nc(-c6ccc(Oc7ccc(F)cc7F)cc6)c(C(N)=O)c5N)C4)C(C(C)C)C3)ccc2CC1C(=O)NC1CCCc2ccccc21)C(C)(C)C

> <Shape>
0.300

> <Color>
0.104

> <Negative vol penalty>
0.000

$$$$

  -OEChem-04052319213D

 87 95  0     1  0  0  0  0  0999 V2000
  -17.5779  -32.3775   21.3998 C   0  0  0  0  0  0  0  0  0  0  0  0
  -18.9067  -32.6098   21.7401 C   0  0  0  0  0  0  0  0  0  0  0  0
  -26.5792  -12.6605   20.9757 C   0  0  0  0  0  0  0  0  0  0  0  0
  -25.2622  -14.1557   19.6093 C   0  0  0  0  0  0  0  0  0  0  0  0
  -16.9788  -31.1612   21.7245 C   0  0  0  0  0  0  0  0  0  0  0  0
  -19.6369  -31.6261   22.4062 C   0  0  0  0  0  0  0  0  0  0  0  0
  -25.6878  -28.9388   19.5679 C   0  0  0  0  0  0  0  0  0  0  0  0
  -25.4133  -12.0285   21.4079 C   0  0  0  0  0  0  0  0  0  0  0  0
  -24.0962  -13.5236   20.0415 C   0  0  0  0  0  0  0  0  0  0  0  0
  -26.9659  -28.5261   19.1907 C   0  0  0  0  0  0  0  0  0  0  0  0
  -23.2316   -9.7384   20.2127 C   0  0  0  0  0  0  0  0  0  0  0  0
  -23.2215   -8.3439   20.2380 C   0  0  0  0  0  0  0  0  0  0  0  0
  -27.0565  -27.0335   21.0912 C   0  0  0  0  0  0  0  0  0  0  0  0
  -22.7967   -8.3901   22.6160 C   0  0  0  0  0  0  0  0  0  0  0  0
  -33.0263  -23.3855   20.8069 C   0  0  0  0  0  0  0  0  0  0  0  0
  -26.5036  -13.7242   20.0764 C   0  0  0  0  0  0  0  0  0  0  0  0
  -28.4908  -14.0436   18.5090 C   0  0  0  0  0  0  0  0  0  0  0  0
  -17.7048  -30.1584   22.3863 C   0  0  0  0  0  0  0  0  0  0  0  0
  -25.0823  -28.3884   20.7009 C   0  0  0  0  0  0  0  0  0  0  0  0
  -19.0465  -30.3957   22.7412 C   0  0  0  0  0  0  0  0  0  0  0  0
  -25.7714  -27.4338   21.4669 C   0  0  0  0  0  0  0  0  0  0  0  0
  -31.8301  -23.2799   20.1270 C   0  0  0  0  0  0  0  0  0  0  0  0
  -24.1718  -12.4600   20.9408 C   0  0  0  0  0  0  0  0  0  0  0  0
  -27.6486  -27.5760   19.9506 C   0  0  0  0  0  0  0  0  0  0  0  0
  -23.0244  -10.4589   21.3891 C   0  0  0  0  0  0  0  0  0  0  0  0
  -23.0040   -7.6697   21.4396 C   0  0  0  0  0  0  0  0  0  0  0  0
  -22.8069   -9.7847   22.5907 C   0  0  0  0  0  0  0  0  0  0  0  0
  -27.7076  -14.3779   19.6300 C   0  0  0  0  0  0  0  0  0  0  0  0
  -31.8645  -23.6479   18.7975 C   0  0  0  0  0  0  0  0  0  0  0  0
  -29.5153  -14.9583   18.5208 C   0  0  0  0  0  0  0  0  0  0  0  0
  -34.0781  -24.1449   18.9403 C   0  0  0  0  0  0  0  0  0  0  0  0
  -28.3084  -12.9997   17.5432 C   0  0  0  0  0  0  0  0  0  0  0  0
  -22.0665  -28.2751   22.9299 C   0  0  0  0  0  0  0  0  0  0  0  0
  -23.0503  -25.3867   22.6143 C   0  0  0  0  0  0  0  0  0  0  0  0
  -24.1990  -22.3154   21.6735 C   0  0  0  0  0  0  0  0  0  0  0  0
  -29.8821  -20.4252   20.7194 C   0  0  0  0  0  0  0  0  0  0  0  0
  -17.0004  -28.8777   22.7584 C   0  0  0  0  0  0  0  0  0  0  0  0
  -23.7320  -28.8483   21.1793 C   0  0  0  0  0  0  0  0  0  0  0  0
  -25.0948  -26.8945   22.6974 C   0  0  0  0  0  0  0  0  0  0  0  0
  -17.9531  -27.7449   23.1316 C   0  0  0  0  0  0  0  0  0  0  0  0
  -32.0836  -17.6659   21.5176 C   0  0  0  0  0  0  0  0  0  0  0  0
  -19.0280  -28.2456   24.0912 C   0  0  0  0  0  0  0  0  0  0  0  0
  -31.2719  -16.4726   21.0101 C   0  0  0  0  0  0  0  0  0  0  0  0
  -31.1789  -18.7249   22.1407 C   0  0  0  0  0  0  0  0  0  0  0  0
  -29.2802  -18.0211   20.7361 C   0  0  0  0  0  0  0  0  0  0  0  0
  -19.8788  -29.3439   23.4420 C   0  0  1  0  0  0  0  0  0  0  0  0
  -22.8991  -27.7192   21.8123 C   0  0  1  0  0  0  0  0  0  0  0  0
  -30.1354  -16.9253   20.0744 C   0  0  2  0  0  0  0  0  0  0  0  0
  -35.6589  -26.0688   18.6472 C   0  0  0  0  0  0  0  0  0  0  0  0
  -23.7909  -19.8653   22.0312 C   0  0  0  0  0  0  0  0  0  0  0  0
  -24.3894  -25.5667   25.3489 C   0  0  0  0  0  0  0  0  0  0  0  0
  -24.8105  -23.1018   25.2262 C   0  0  0  0  0  0  0  0  0  0  0  0
  -22.4708  -23.9669   25.2297 C   0  0  0  0  0  0  0  0  0  0  0  0
  -23.6001  -21.8784   18.8083 C   0  0  0  0  0  0  0  0  0  0  0  0
  -30.6170  -23.5738   17.9537 C   0  0  0  0  0  0  0  0  0  0  0  0
  -35.3267  -24.6246   18.2808 C   0  0  0  0  0  0  0  0  0  0  0  0
  -29.6238  -24.7115   18.2157 C   0  0  0  0  0  0  0  0  0  0  0  0
  -30.1873  -26.0900   17.8677 C   0  0  0  0  0  0  0  0  0  0  0  0
  -30.1693  -23.6411   22.0378 C   0  0  0  0  0  0  0  0  0  0  0  0
  -28.6919  -23.5315   22.4061 C   0  0  0  0  0  0  0  0  0  0  0  0
  -29.1886  -27.1967   18.1779 C   0  0  0  0  0  0  0  0  0  1  0  0
  -30.5998  -22.7989   20.8057 C   0  0  2  0  0  0  0  0  0  0  0  0
  -23.9023  -24.2729   23.1684 C   0  0  1  0  0  0  0  0  0  0  0  0
  -23.4749  -21.0793   21.1715 C   0  0  2  0  0  0  0  0  0  0  0  0
  -23.9029  -24.2444   24.7229 C   0  0  0  0  0  0  0  0  0  0  0  0
  -34.1738  -23.8159   20.2426 N   0  0  0  0  0  0  0  0  0  0  0  0
  -28.1931  -15.4232   20.3050 N   0  0  0  0  0  0  0  0  0  0  0  0
  -32.9752  -24.0867   18.1696 N   0  0  0  0  0  0  0  0  0  0  0  0
  -29.2924  -15.7536   19.6062 N   0  0  0  0  0  0  0  0  0  0  0  0
  -23.6772  -26.6223   22.4127 N   0  0  0  0  0  0  0  0  0  0  0  0
  -30.1303  -19.1259   21.1922 N   0  0  0  0  0  0  0  0  0  0  0  0
  -30.5762  -15.1518   17.7087 N   0  0  0  0  0  0  0  0  0  0  0  0
  -27.2029  -12.1491   17.6795 N   0  0  0  0  0  0  0  0  0  0  0  0
  -20.8388  -28.7649   22.5269 N   0  0  0  0  0  0  0  0  0  0  0  0
  -23.4205  -23.0433   22.5484 N   0  0  0  0  0  0  0  0  0  0  0  0
  -30.7276  -21.4151   21.2053 N   0  0  0  0  0  0  0  0  0  0  0  0
  -28.3709  -24.4094   23.5554 N   0  3  0  0  0  0  0  0  0  0  0  0
  -23.8757  -20.7784   19.7680 N   0  3  0  0  0  0  0  0  0  0  0  0
  -29.1114  -12.8160   16.5972 O   0  0  0  0  0  0  0  0  0  0  0  0
  -22.5039  -28.2599   24.0745 O   0  0  0  0  0  0  0  0  0  0  0  0
  -21.8595  -25.1714   22.3713 O   0  0  0  0  0  0  0  0  0  0  0  0
  -25.3423  -22.6043   21.3273 O   0  0  0  0  0  0  0  0  0  0  0  0
  -28.9769  -20.6836   19.9188 O   0  0  0  0  0  0  0  0  0  0  0  0
  -23.0340  -11.8434   21.3622 O   0  0  0  0  0  0  0  0  0  0  0  0
  -28.8942  -27.1742   19.5741 O   0  0  0  0  0  0  0  0  0  1  0  0
  -22.9927   -6.3305   21.4635 F   0  0  0  0  0  0  0  0  0  0  0  0
  -22.6060  -10.4714   23.7238 F   0  0  0  0  0  0  0  0  0  0  0  0
  1  2  1  0  0  0  0
  1  5  2  0  0  0  0
  2  6  2  0  0  0  0
  3  8  2  0  0  0  0
  3 16  1  0  0  0  0
  4  9  1  0  0  0  0
  4 16  2  0  0  0  0
  5 18  1  0  0  0  0
  6 20  1  0  0  0  0
  7 10  2  0  0  0  0
  7 19  1  0  0  0  0
  8 23  1  0  0  0  0
  9 23  2  0  0  0  0
 10 24  1  0  0  0  0
 11 12  2  0  0  0  0
 11 25  1  0  0  0  0
 12 26  1  0  0  0  0
 13 21  1  0  0  0  0
 13 24  2  0  0  0  0
 14 26  2  0  0  0  0
 14 27  1  0  0  0  0
 15 22  1  0  0  0  0
 15 66  2  0  0  0  0
 16 28  1  0  0  0  0
 17 28  1  0  0  0  0
 17 30  2  0  0  0  0
 17 32  1  0  0  0  0
 18 20  2  0  0  0  0
 18 37  1  0  0  0  0
 19 21  2  0  0  0  0
 19 38  1  0  0  0  0
 20 46  1  0  0  0  0
 21 39  1  0  0  0  0
 22 29  2  0  0  0  0
 22 62  1  0  0  0  0
 23 84  1  0  0  0  0
 24 85  1  0  0  0  0
 25 27  2  0  0  0  0
 25 84  1  0  0  0  0
 26 86  1  0  0  0  0
 27 87  1  0  0  0  0
 28 67  2  0  0  0  0
 29 55  1  0  0  0  0
 29 68  1  0  0  0  0
 30 69  1  0  0  0  0
 30 72  1  0  0  0  0
 31 56  1  0  0  0  0
 31 66  1  0  0  0  0
 31 68  2  0  0  0  0
 32 73  1  0  0  0  0
 32 79  2  0  0  0  0
 33 47  1  0  0  0  0
 33 74  1  0  0  0  0
 33 80  2  0  0  0  0
 34 63  1  0  0  0  0
 34 70  1  0  0  0  0
 34 81  2  0  0  0  0
 35 64  1  0  0  0  0
 35 75  1  0  0  0  0
 35 82  2  0  0  0  0
 36 71  1  0  0  0  0
 36 76  1  0  0  0  0
 36 83  2  0  0  0  0
 37 40  1  0  0  0  0
 38 47  1  0  0  0  0
 39 70  1  0  0  0  0
 40 42  1  0  0  0  0
 41 43  1  0  0  0  0
 41 44  1  0  0  0  0
 42 46  1  0  0  0  0
 43 48  1  0  0  0  0
 44 71  1  0  0  0  0
 45 48  1  0  0  0  0
 45 71  1  0  0  0  0
 46 74  1  0  0  0  0
 47 70  1  0  0  0  0
 48 69  1  0  0  0  0
 49 56  1  0  0  0  0
 50 64  1  0  0  0  0
 51 65  1  0  0  0  0
 52 65  1  0  0  0  0
 53 65  1  0  0  0  0
 54 78  1  0  0  0  0
 55 57  1  0  0  0  0
 57 58  1  0  0  0  0
 58 61  1  0  0  0  0
 59 60  1  0  0  0  0
 59 62  1  0  0  0  0
 60 77  1  0  0  0  0
 61 85  1  0  0  0  0
 62 76  1  0  0  0  0
 63 65  1  0  0  0  0
 63 75  1  0  0  0  0
 64 78  1  0  0  0  0
 67 69  1  0  0  0  0
M  CHG  2  77   1  78   1
M  ISO  4  36 100  61 101  76 100  85 101
M  END
> <Batch ID>
0095

> <Smiles>
CCc1ncc(C(CCN)[100NH:0][100C:0](=O)N2CCCC(n3nc(-c4ccc(Oc5ccc(F)cc5F)cc4)c(C(N)=O)c3N)C2)c(CCC[101CH2:1][101O:1]c2ccc3c(c2)CN(C(=O)C(NC(=O)C(C)NC)C(C)(C)C)C(C(=O)NC2CCCc4ccccc42)C3)n1

> <Shape>
0.250

> <Color>
0.095

> <Negative vol penalty>
0.000

$$$$

  -OEChem-04052319213D

 87 95  0     1  0  0  0  0  0999 V2000
  -32.1838  -28.4180   14.3114 C   0  0  0  0  0  0  0  0  0  0  0  0
  -31.4620  -27.3330   14.7983 C   0  0  0  0  0  0  0  0  0  0  0  0
  -24.2060   -9.3447   22.3752 C   0  0  0  0  0  0  0  0  0  0  0  0
  -23.1902  -11.5311   22.5321 C   0  0  0  0  0  0  0  0  0  0  0  0
  -32.4493  -29.5062   15.1416 C   0  0  0  0  0  0  0  0  0  0  0  0
  -31.0062  -27.3351   16.1161 C   0  0  0  0  0  0  0  0  0  0  0  0
  -25.7872  -24.9096   18.2103 C   0  0  0  0  0  0  0  0  0  0  0  0
  -23.5279   -8.9468   23.5273 C   0  0  0  0  0  0  0  0  0  0  0  0
  -22.5120  -11.1332   23.6843 C   0  0  0  0  0  0  0  0  0  0  0  0
  -25.5020  -23.6991   18.8405 C   0  0  0  0  0  0  0  0  0  0  0  0
  -21.7850   -7.2405   26.2229 C   0  0  0  0  0  0  0  0  0  0  0  0
  -21.1693   -5.9890   26.2134 C   0  0  0  0  0  0  0  0  0  0  0  0
  -25.6437  -24.7903   20.9873 C   0  0  0  0  0  0  0  0  0  0  0  0
  -28.9050  -22.0727   21.3398 C   0  0  0  0  0  0  0  0  0  0  0  0
  -19.7954   -6.6790   24.3497 C   0  0  0  0  0  0  0  0  0  0  0  0
  -24.0372  -10.6368   21.8776 C   0  0  0  0  0  0  0  0  0  0  0  0
  -24.2921  -10.9371   19.3572 C   0  0  0  0  0  0  0  0  0  0  0  0
  -31.9882  -29.5259   16.4673 C   0  0  0  0  0  0  0  0  0  0  0  0
  -26.0140  -26.0692   18.9656 C   0  0  0  0  0  0  0  0  0  0  0  0
  -31.2669  -28.4240   16.9652 C   0  0  0  0  0  0  0  0  0  0  0  0
  -25.9291  -26.0148   20.3641 C   0  0  0  0  0  0  0  0  0  0  0  0
  -28.3004  -20.8215   21.6159 C   0  0  0  0  0  0  0  0  0  0  0  0
  -22.6808   -9.8411   24.1818 C   0  0  0  0  0  0  0  0  0  0  0  0
  -25.4331  -23.6387   20.2293 C   0  0  0  0  0  0  0  0  0  0  0  0
  -21.4059   -8.2114   25.2958 C   0  0  0  0  0  0  0  0  0  0  0  0
  -20.1745   -5.7082   25.2768 C   0  0  0  0  0  0  0  0  0  0  0  0
  -20.4111   -7.9306   24.3592 C   0  0  0  0  0  0  0  0  0  0  0  0
  -24.7380  -11.0485   20.6878 C   0  0  0  0  0  0  0  0  0  0  0  0
  -30.1341  -21.8192   20.7722 C   0  0  0  0  0  0  0  0  0  0  0  0
  -29.1786  -19.8416   21.2087 C   0  0  0  0  0  0  0  0  0  0  0  0
  -25.3138  -11.4666   18.6073 C   0  0  0  0  0  0  0  0  0  0  0  0
  -23.0642  -10.4029   18.8449 C   0  0  0  0  0  0  0  0  0  0  0  0
  -28.4688  -28.0517   19.3495 C   0  0  0  0  0  0  0  0  0  0  0  0
  -26.3228  -29.7489   21.0921 C   0  0  0  0  0  0  0  0  0  0  0  0
  -23.4534  -29.7612   22.9395 C   0  0  0  0  0  0  0  0  0  0  0  0
  -29.6334  -15.4307   19.8230 C   0  0  0  0  0  0  0  0  0  0  0  0
  -32.3405  -30.7037   17.3411 C   0  0  0  0  0  0  0  0  0  0  0  0
  -26.2942  -27.3728   18.2696 C   0  0  0  0  0  0  0  0  0  0  0  0
  -26.1445  -27.2354   21.2197 C   0  0  0  0  0  0  0  0  0  0  0  0
  -31.5001  -30.7920   18.6123 C   0  0  0  0  0  0  0  0  0  0  0  0
  -30.0566  -12.0944   18.6540 C   0  0  0  0  0  0  0  0  0  0  0  0
  -31.4152  -29.4290   19.2920 C   0  0  0  0  0  0  0  0  0  0  0  0
  -28.7013  -11.4380   18.9226 C   0  0  0  0  0  0  0  0  0  0  0  0
  -30.4309  -13.0864   19.7530 C   0  0  0  0  0  0  0  0  0  0  0  0
  -28.0569  -13.4598   20.2995 C   0  0  0  0  0  0  0  0  0  0  0  0
  -30.7343  -28.4000   18.3815 C   0  0  1  0  0  0  0  0  0  0  0  0
  -27.0154  -28.3816   19.1581 C   0  0  1  0  0  0  0  0  0  0  0  0
  -27.6106  -12.4926   19.1897 C   0  0  2  0  0  0  0  0  0  0  0  0
  -30.3438  -23.2580   17.3949 C   0  0  0  0  0  0  0  0  0  0  0  0
  -32.2236  -23.0608   21.3896 C   0  0  0  0  0  0  0  0  0  0  0  0
  -21.9716  -31.2910   24.2668 C   0  0  0  0  0  0  0  0  0  0  0  0
  -28.3444  -29.7205   23.3773 C   0  0  0  0  0  0  0  0  0  0  0  0
  -26.4969  -30.3928   24.9274 C   0  0  0  0  0  0  0  0  0  0  0  0
  -27.1636  -31.9016   23.0561 C   0  0  0  0  0  0  0  0  0  0  0  0
  -31.4509  -19.7811   20.1612 C   0  0  0  0  0  0  0  0  0  0  0  0
  -21.1412  -29.2518   21.1638 C   0  0  0  0  0  0  0  0  0  0  0  0
  -26.9442  -20.6103   22.2402 C   0  0  0  0  0  0  0  0  0  0  0  0
  -29.0548  -18.3692   21.2626 C   0  0  0  0  0  0  0  0  0  0  0  0
  -29.6505  -23.9178   18.5772 C   0  0  0  0  0  0  0  0  0  0  0  0
  -25.8625  -20.1994   21.2389 C   0  0  0  0  0  0  0  0  0  0  0  0
  -30.6149  -24.1136   19.7519 C   0  0  0  0  0  0  0  0  0  0  0  0
  -28.6834  -17.7215   19.9173 C   0  0  0  0  0  0  0  0  0  0  0  0
  -25.5768  -21.2652   20.1873 C   0  0  0  0  0  0  0  0  0  1  0  0
  -31.1689  -22.7601   20.2961 C   0  0  2  0  0  0  0  0  0  0  0  0
  -25.9021  -29.7718   22.5417 C   0  0  1  0  0  0  0  0  0  0  0  0
  -22.2369  -30.6686   22.9048 C   0  0  2  0  0  0  0  0  0  0  0  0
  -26.9746  -30.4231   23.4599 C   0  0  0  0  0  0  0  0  0  0  0  0
  -25.9487  -11.6049   20.7811 N   0  0  0  0  0  0  0  0  0  0  0  0
  -30.2899  -20.4596   20.6977 N   0  0  0  0  0  0  0  0  0  0  0  0
  -26.2723  -11.8478   19.4996 N   0  0  0  0  0  0  0  0  0  0  0  0
  -26.4218  -28.4853   20.4927 N   0  0  0  0  0  0  0  0  0  0  0  0
  -29.3554  -14.0602   19.9556 N   0  0  0  0  0  0  0  0  0  0  0  0
  -25.4768  -11.6385   17.2783 N   0  0  0  0  0  0  0  0  0  0  0  0
  -22.1236   -9.8998   19.7540 N   0  0  0  0  0  0  0  0  0  0  0  0
  -29.2998  -28.5917   18.3866 N   0  0  0  0  0  0  0  0  0  0  0  0
  -24.6022  -30.4331   22.5791 N   0  0  0  0  0  0  0  0  0  0  0  0
  -28.5565  -16.2852   20.0252 N   0  0  0  0  0  0  0  0  0  0  0  0
  -21.0280  -29.8988   22.4963 N   0  3  0  0  0  0  0  0  0  0  0  0
  -22.8156  -10.3576   17.6162 O   0  0  0  0  0  0  0  0  0  0  0  0
  -28.8110  -27.3597   20.3012 O   0  0  0  0  0  0  0  0  0  0  0  0
  -26.5482  -30.8133   20.5109 O   0  0  0  0  0  0  0  0  0  0  0  0
  -23.3913  -28.5759   23.2584 O   0  0  0  0  0  0  0  0  0  0  0  0
  -30.7567  -15.8606   19.5399 O   0  0  0  0  0  0  0  0  0  0  0  0
  -22.0187   -9.4532   25.3060 O   0  0  0  0  0  0  0  0  0  0  0  0
  -25.1555  -22.4583   20.8470 O   0  0  0  0  0  0  0  0  0  1  0  0
  -19.5844   -4.5058   25.2668 F   0  0  0  0  0  0  0  0  0  0  0  0
  -20.0435   -8.8588   23.4653 F   0  0  0  0  0  0  0  0  0  0  0  0
  1  2  1  0  0  0  0
  1  5  2  0  0  0  0
  2  6  2  0  0  0  0
  3  8  2  0  0  0  0
  3 16  1  0  0  0  0
  4  9  1  0  0  0  0
  4 16  2  0  0  0  0
  5 18  1  0  0  0  0
  6 20  1  0  0  0  0
  7 10  2  0  0  0  0
  7 19  1  0  0  0  0
  8 23  1  0  0  0  0
  9 23  2  0  0  0  0
 10 24  1  0  0  0  0
 11 12  2  0  0  0  0
 11 25  1  0  0  0  0
 12 26  1  0  0  0  0
 13 21  1  0  0  0  0
 13 24  2  0  0  0  0
 14 22  1  0  0  0  0
 14 29  2  0  0  0  0
 15 26  2  0  0  0  0
 15 27  1  0  0  0  0
 16 28  1  0  0  0  0
 17 28  1  0  0  0  0
 17 31  2  0  0  0  0
 17 32  1  0  0  0  0
 18 20  2  0  0  0  0
 18 37  1  0  0  0  0
 19 21  2  0  0  0  0
 19 38  1  0  0  0  0
 20 46  1  0  0  0  0
 21 39  1  0  0  0  0
 22 30  2  0  0  0  0
 22 57  1  0  0  0  0
 23 84  1  0  0  0  0
 24 85  1  0  0  0  0
 25 27  2  0  0  0  0
 25 84  1  0  0  0  0
 26 86  1  0  0  0  0
 27 87  1  0  0  0  0
 28 68  2  0  0  0  0
 29 64  1  0  0  0  0
 29 69  1  0  0  0  0
 30 58  1  0  0  0  0
 30 69  1  0  0  0  0
 31 70  1  0  0  0  0
 31 73  1  0  0  0  0
 32 74  1  0  0  0  0
 32 79  2  0  0  0  0
 33 47  1  0  0  0  0
 33 75  1  0  0  0  0
 33 80  2  0  0  0  0
 34 65  1  0  0  0  0
 34 71  1  0  0  0  0
 34 81  2  0  0  0  0
 35 66  1  0  0  0  0
 35 76  1  0  0  0  0
 35 82  2  0  0  0  0
 36 72  1  0  0  0  0
 36 77  1  0  0  0  0
 36 83  2  0  0  0  0
 37 40  1  0  0  0  0
 38 47  1  0  0  0  0
 39 71  1  0  0  0  0
 40 42  1  0  0  0  0
 41 43  1  0  0  0  0
 41 44  1  0  0  0  0
 42 46  1  0  0  0  0
 43 48  1  0  0  0  0
 44 72  1  0  0  0  0
 45 48  1  0  0  0  0
 45 72  1  0  0  0  0
 46 75  1  0  0  0  0
 47 71  1  0  0  0  0
 48 70  1  0  0  0  0
 49 59  1  0  0  0  0
 50 64  1  0  0  0  0
 51 66  1  0  0  0  0
 52 67  1  0  0  0  0
 53 67  1  0  0  0  0
 54 67  1  0  0  0  0
 55 69  1  0  0  0  0
 56 78  1  0  0  0  0
 57 60  1  0  0  0  0
 58 62  1  0  0  0  0
 59 61  1  0  0  0  0
 60 63  1  0  0  0  0
 61 64  1  0  0  0  0
 62 77  1  0  0  0  0
 63 85  1  0  0  0  0
 65 67  1  0  0  0  0
 65 76  1  0  0  0  0
 66 78  1  0  0  0  0
 68 70  1  0  0  0  0
M  CHG  1  78   1
M  ISO  4  36 100  63 101  77 100  85 101
M  END
> <Batch ID>
0095

> <Smiles>
CCCC(C)c1cc(CC[101CH2:1][101O:1]c2ccc3c(c2)CN(C(=O)C(NC(=O)C(C)NC)C(C)(C)C)C(C(=O)NC2CCCc4ccccc42)C3)c(CC[100NH:0][100C:0](=O)N2CCCC(n3nc(-c4ccc(Oc5ccc(F)cc5F)cc4)c(C(N)=O)c3N)C2)n1C

> <Shape>
0.266

> <Color>
0.089

> <Negative vol penalty>
0.000

$$$$

  -OEChem-04052319213D

 84 92  0     1  0  0  0  0  0999 V2000
  -19.0451  -22.7848   23.7273 C   0  0  0  0  0  0  0  0  0  0  0  0
  -20.3562  -22.3328   23.6175 C   0  0  0  0  0  0  0  0  0  0  0  0
  -26.1315  -12.6737   21.6024 C   0  0  0  0  0  0  0  0  0  0  0  0
  -25.2048  -13.3363   19.4718 C   0  0  0  0  0  0  0  0  0  0  0  0
  -18.6409  -23.9237   23.0319 C   0  0  0  0  0  0  0  0  0  0  0  0
  -21.2637  -23.0189   22.8112 C   0  0  0  0  0  0  0  0  0  0  0  0
  -28.2203  -24.6781   22.3981 C   0  0  0  0  0  0  0  0  0  0  0  0
  -25.1974  -11.6414   21.6876 C   0  0  0  0  0  0  0  0  0  0  0  0
  -24.2708  -12.3039   19.5570 C   0  0  0  0  0  0  0  0  0  0  0  0
  -29.2924  -24.6117   21.5093 C   0  0  0  0  0  0  0  0  0  0  0  0
  -23.2888   -8.6078   22.2957 C   0  0  0  0  0  0  0  0  0  0  0  0
  -23.7445   -7.3526   22.6987 C   0  0  0  0  0  0  0  0  0  0  0  0
  -28.5030  -26.6125   20.4171 C   0  0  0  0  0  0  0  0  0  0  0  0
  -25.2396   -7.2865   20.8020 C   0  0  0  0  0  0  0  0  0  0  0  0
  -27.1840  -23.7097   17.9240 C   0  0  0  0  0  0  0  0  0  0  0  0
  -28.1677  -22.7392   16.1618 C   0  0  0  0  0  0  0  0  0  0  0  0
  -26.1352  -13.5213   20.4945 C   0  0  0  0  0  0  0  0  0  0  0  0
  -28.3824  -14.5291   19.8296 C   0  0  0  0  0  0  0  0  0  0  0  0
  -19.5465  -24.6296   22.2243 C   0  0  0  0  0  0  0  0  0  0  0  0
  -27.2738  -25.7077   22.2960 C   0  0  0  0  0  0  0  0  0  0  0  0
  -20.8710  -24.1676   22.1033 C   0  0  0  0  0  0  0  0  0  0  0  0
  -27.4212  -26.6911   21.3073 C   0  0  0  0  0  0  0  0  0  0  0  0
  -26.5536  -22.5031   17.7139 C   0  0  0  0  0  0  0  0  0  0  0  0
  -27.1758  -21.8892   16.5990 C   0  0  0  0  0  0  0  0  0  0  0  0
  -24.2671  -11.4564   20.6649 C   0  0  0  0  0  0  0  0  0  0  0  0
  -29.4323  -25.5774   20.5168 C   0  0  0  0  0  0  0  0  0  0  0  0
  -23.8085   -9.2024   21.1459 C   0  0  0  0  0  0  0  0  0  0  0  0
  -24.7199   -6.6919   21.9518 C   0  0  0  0  0  0  0  0  0  0  0  0
  -24.7839   -8.5417   20.3990 C   0  0  0  0  0  0  0  0  0  0  0  0
  -27.0995  -14.5882   20.4061 C   0  0  0  0  0  0  0  0  0  0  0  0
  -28.8936  -15.7925   19.9992 C   0  0  0  0  0  0  0  0  0  0  0  0
  -29.0520  -13.4303   19.1971 C   0  0  0  0  0  0  0  0  0  0  0  0
  -24.1481  -25.8335   21.7317 C   0  0  0  0  0  0  0  0  0  0  0  0
  -24.5541  -28.9872   22.3732 C   0  0  0  0  0  0  0  0  0  0  0  0
  -26.6585  -31.6710   22.4974 C   0  0  0  0  0  0  0  0  0  0  0  0
  -26.3420  -21.1659   20.6820 C   0  0  0  0  0  0  0  0  0  0  0  0
  -19.0510  -25.8282   21.4545 C   0  0  0  0  0  0  0  0  0  0  0  0
  -26.1378  -25.7803   23.2791 C   0  0  0  0  0  0  0  0  0  0  0  0
  -26.4436  -27.8284   21.1681 C   0  0  0  0  0  0  0  0  0  0  0  0
  -20.1727  -26.7131   20.9169 C   0  0  0  0  0  0  0  0  0  0  0  0
  -28.6245  -19.5815   22.9082 C   0  0  0  0  0  0  0  0  0  0  0  0
  -21.2511  -25.8632   20.2523 C   0  0  0  0  0  0  0  0  0  0  0  0
  -28.6083  -18.1168   22.4673 C   0  0  0  0  0  0  0  0  0  0  0  0
  -27.2438  -20.2225   22.7875 C   0  0  0  0  0  0  0  0  0  0  0  0
  -26.6007  -18.6328   21.0175 C   0  0  0  0  0  0  0  0  0  0  0  0
  -21.8913  -24.8989   21.2582 C   0  0  1  0  0  0  0  0  0  0  0  0
  -24.9483  -26.5821   22.7598 C   0  0  1  0  0  0  0  0  0  0  0  0
  -27.9827  -17.9591   21.0684 C   0  0  2  0  0  0  0  0  0  0  0  0
  -27.9936  -19.5616   16.0818 C   0  0  0  0  0  0  0  0  0  0  0  0
  -26.3472  -20.6904   14.5422 C   0  0  0  0  0  0  0  0  0  0  0  0
  -26.6928  -34.1247   23.0226 C   0  0  0  0  0  0  0  0  0  0  0  0
  -31.8909  -23.6377   19.1588 C   0  0  0  0  0  0  0  0  0  0  0  0
  -23.2103  -29.5761   19.6979 C   0  0  0  0  0  0  0  0  0  0  0  0
  -24.1132  -31.9072   19.8367 C   0  0  0  0  0  0  0  0  0  0  0  0
  -22.5168  -31.0847   21.5681 C   0  0  0  0  0  0  0  0  0  0  0  0
  -28.6035  -31.2915   24.6955 C   0  0  0  0  0  0  0  0  0  0  0  0
  -25.4366  -21.9595   18.5117 C   0  0  0  0  0  0  0  0  0  0  0  0
  -30.5164  -24.7453   17.3593 C   0  0  0  0  0  0  0  0  0  0  0  0
  -29.0957  -25.0207   16.8461 C   0  0  0  0  0  0  0  0  0  0  0  0
  -26.8336  -20.5813   16.0060 C   0  0  0  0  0  0  0  0  0  0  0  0
  -24.8890  -30.2103   21.5542 C   0  0  1  0  0  0  0  0  0  0  0  0
  -26.8912  -32.7198   23.5700 C   0  0  2  0  0  0  0  0  0  0  0  0
  -30.5797  -24.3439   18.8382 C   0  0  2  0  0  0  0  0  0  1  0  0
  -23.6998  -30.6722   20.6654 C   0  0  0  0  0  0  0  0  0  0  0  0
  -26.8134  -15.7938   20.9049 N   0  0  0  0  0  0  0  0  0  0  0  0
  -28.1637  -23.8424   16.9748 N   0  0  0  0  0  0  0  0  0  0  0  0
  -27.9238  -16.5039   20.6423 N   0  0  0  0  0  0  0  0  0  0  0  0
  -25.3462  -27.8522   22.1493 N   0  0  0  0  0  0  0  0  0  0  0  0
  -26.7073  -20.0391   21.4367 N   0  0  0  0  0  0  0  0  0  0  0  0
  -30.0737  -16.3533   19.6595 N   0  0  0  0  0  0  0  0  0  0  0  0
  -28.3826  -12.2022   19.1072 N   0  0  0  0  0  0  0  0  0  0  0  0
  -22.8367  -25.6006   22.0998 N   0  0  0  0  0  0  0  0  0  0  0  0
  -25.3558  -31.2191   22.4991 N   0  0  0  0  0  0  0  0  0  0  0  0
  -25.8485  -20.9037   19.4098 N   0  0  0  0  0  0  0  0  0  0  0  0
  -28.2784  -32.6151   24.1044 N   0  3  0  0  0  0  0  0  0  0  0  0
  -30.2160  -13.5298   18.7404 O   0  0  0  0  0  0  0  0  0  0  0  0
  -24.6806  -25.4936   20.6817 O   0  0  0  0  0  0  0  0  0  0  0  0
  -23.6285  -29.0392   23.1870 O   0  0  0  0  0  0  0  0  0  0  0  0
  -27.5428  -31.2934   21.7320 O   0  0  0  0  0  0  0  0  0  0  0  0
  -26.4527  -22.3205   21.1081 O   0  0  0  0  0  0  0  0  0  0  0  0
  -23.3556  -10.4489   20.7476 O   0  0  0  0  0  0  0  0  0  0  0  0
  -30.4775  -25.5146   19.6477 O   0  0  0  0  0  0  0  0  0  1  0  0
  -25.1585   -5.4872   22.3397 F   0  0  0  0  0  0  0  0  0  0  0  0
  -25.2877   -9.1084   19.2941 F   0  0  0  0  0  0  0  0  0  0  0  0
  1  2  1  0  0  0  0
  1  5  2  0  0  0  0
  2  6  2  0  0  0  0
  3  8  2  0  0  0  0
  3 17  1  0  0  0  0
  4  9  1  0  0  0  0
  4 17  2  0  0  0  0
  5 19  1  0  0  0  0
  6 21  1  0  0  0  0
  7 10  2  0  0  0  0
  7 20  1  0  0  0  0
  8 25  1  0  0  0  0
  9 25  2  0  0  0  0
 10 26  1  0  0  0  0
 11 12  2  0  0  0  0
 11 27  1  0  0  0  0
 12 28  1  0  0  0  0
 13 22  1  0  0  0  0
 13 26  2  0  0  0  0
 14 28  2  0  0  0  0
 14 29  1  0  0  0  0
 15 23  2  0  0  0  0
 15 66  1  0  0  0  0
 16 24  2  0  0  0  0
 16 66  1  0  0  0  0
 17 30  1  0  0  0  0
 18 30  1  0  0  0  0
 18 31  2  0  0  0  0
 18 32  1  0  0  0  0
 19 21  2  0  0  0  0
 19 37  1  0  0  0  0
 20 22  2  0  0  0  0
 20 38  1  0  0  0  0
 21 46  1  0  0  0  0
 22 39  1  0  0  0  0
 23 24  1  0  0  0  0
 23 57  1  0  0  0  0
 24 60  1  0  0  0  0
 25 81  1  0  0  0  0
 26 82  1  0  0  0  0
 27 29  2  0  0  0  0
 27 81  1  0  0  0  0
 28 83  1  0  0  0  0
 29 84  1  0  0  0  0
 30 65  2  0  0  0  0
 31 67  1  0  0  0  0
 31 70  1  0  0  0  0
 32 71  1  0  0  0  0
 32 76  2  0  0  0  0
 33 47  1  0  0  0  0
 33 72  1  0  0  0  0
 33 77  2  0  0  0  0
 34 61  1  0  0  0  0
 34 68  1  0  0  0  0
 34 78  2  0  0  0  0
 35 62  1  0  0  0  0
 35 73  1  0  0  0  0
 35 79  2  0  0  0  0
 36 69  1  0  0  0  0
 36 74  1  0  0  0  0
 36 80  2  0  0  0  0
 37 40  1  0  0  0  0
 38 47  1  0  0  0  0
 39 68  1  0  0  0  0
 40 42  1  0  0  0  0
 41 43  1  0  0  0  0
 41 44  1  0  0  0  0
 42 46  1  0  0  0  0
 43 48  1  0  0  0  0
 44 69  1  0  0  0  0
 45 48  1  0  0  0  0
 45 69  1  0  0  0  0
 46 72  1  0  0  0  0
 47 68  1  0  0  0  0
 48 67  1  0  0  0  0
 49 60  1  0  0  0  0
 50 60  1  0  0  0  0
 51 62  1  0  0  0  0
 52 63  1  0  0  0  0
 53 64  1  0  0  0  0
 54 64  1  0  0  0  0
 55 64  1  0  0  0  0
 56 75  1  0  0  0  0
 57 74  1  0  0  0  0
 58 59  1  0  0  0  0
 58 63  1  0  0  0  0
 59 66  1  0  0  0  0
 61 64  1  0  0  0  0
 61 73  1  0  0  0  0
 62 75  1  0  0  0  0
 63 82  1  0  0  0  0
 65 67  1  0  0  0  0
M  CHG  1  75   1
M  ISO  4  36 100  63 101  74 100  82 101
M  END
> <Batch ID>
0095

> <Smiles>
CNC(C)C(=O)NC(C(=O)N1Cc2cc([101O:1][101CH:1](C)CCn3cc(C[100NH:0][100C:0](=O)N4CCCC(n5nc(-c6ccc(Oc7ccc(F)cc7F)cc6)c(C(N)=O)c5N)C4)c(C(C)C)c3)ccc2CC1C(=O)NC1CCCc2ccccc21)C(C)(C)C

> <Shape>
0.236

> <Color>
0.058

> <Negative vol penalty>
0.000

$$$$
