
  -OEChem-04052319233D

 87 95  0     1  0  0  0  0  0999 V2000
  -19.8416  -10.7928   21.3445 C   0  0  0  0  0  0  0  0  0  0  0  0
  -20.3619  -11.9832   21.8421 C   0  0  0  0  0  0  0  0  0  0  0  0
  -20.2690  -28.7067   23.1257 C   0  0  0  0  0  0  0  0  0  0  0  0
  -20.6840  -26.4203   22.4647 C   0  0  0  0  0  0  0  0  0  0  0  0
  -20.6989   -9.7482   21.0013 C   0  0  0  0  0  0  0  0  0  0  0  0
  -21.7399  -12.1293   21.9978 C   0  0  0  0  0  0  0  0  0  0  0  0
  -23.4226  -16.5978   20.3107 C   0  0  0  0  0  0  0  0  0  0  0  0
  -18.9960  -28.6394   22.5595 C   0  0  0  0  0  0  0  0  0  0  0  0
  -19.4110  -26.3529   21.8985 C   0  0  0  0  0  0  0  0  0  0  0  0
  -23.2196  -17.7059   21.1320 C   0  0  0  0  0  0  0  0  0  0  0  0
  -15.5021  -28.9531   21.6061 C   0  0  0  0  0  0  0  0  0  0  0  0
  -14.4366  -29.4706   22.3425 C   0  0  0  0  0  0  0  0  0  0  0  0
  -25.5030  -17.5515   21.8946 C   0  0  0  0  0  0  0  0  0  0  0  0
  -14.9005  -27.8992   24.1180 C   0  0  0  0  0  0  0  0  0  0  0  0
  -30.8335  -24.3685   19.5180 C   0  0  0  0  0  0  0  0  0  0  0  0
  -21.1130  -27.5972   23.0783 C   0  0  0  0  0  0  0  0  0  0  0  0
  -22.7885  -27.3489   24.9859 C   0  0  0  0  0  0  0  0  0  0  0  0
  -22.0887   -9.8851   21.1438 C   0  0  0  0  0  0  0  0  0  0  0  0
  -24.6663  -15.9504   20.2833 C   0  0  0  0  0  0  0  0  0  0  0  0
  -22.6165  -11.0851   21.6574 C   0  0  0  0  0  0  0  0  0  0  0  0
  -25.7200  -16.4369   21.0702 C   0  0  0  0  0  0  0  0  0  0  0  0
  -30.3583  -23.0679   19.4691 C   0  0  0  0  0  0  0  0  0  0  0  0
  -29.0531  -22.8356   19.8885 C   0  0  0  0  0  0  0  0  0  0  0  0
  -28.2740  -23.8961   20.3377 C   0  0  0  0  0  0  0  0  0  0  0  0
  -18.5670  -27.4625   21.9459 C   0  0  0  0  0  0  0  0  0  0  0  0
  -24.2590  -18.1812   21.9263 C   0  0  0  0  0  0  0  0  0  0  0  0
  -16.2668  -27.9085   22.1256 C   0  0  0  0  0  0  0  0  0  0  0  0
  -14.1357  -28.9437   23.5985 C   0  0  0  0  0  0  0  0  0  0  0  0
  -15.9660  -27.3816   23.3816 C   0  0  0  0  0  0  0  0  0  0  0  0
  -22.4283  -27.6663   23.6625 C   0  0  0  0  0  0  0  0  0  0  0  0
  -28.8426  -25.1596   20.3479 C   0  0  0  0  0  0  0  0  0  0  0  0
  -24.1416  -27.5786   25.0380 C   0  0  0  0  0  0  0  0  0  0  0  0
  -21.9728  -26.8876   26.0710 C   0  0  0  0  0  0  0  0  0  0  0  0
  -25.6900  -13.0277   20.9999 C   0  0  0  0  0  0  0  0  0  0  0  0
  -28.4871  -14.1315   19.7832 C   0  0  0  0  0  0  0  0  0  0  0  0
  -30.4751  -16.8090   19.0580 C   0  0  0  0  0  0  0  0  0  0  0  0
  -28.4434  -27.5870   20.8907 C   0  0  0  0  0  0  0  0  0  0  0  0
  -22.9724   -8.7111   20.8040 C   0  0  0  0  0  0  0  0  0  0  0  0
  -24.8770  -14.7726   19.3719 C   0  0  0  0  0  0  0  0  0  0  0  0
  -27.0801  -15.7900   21.0618 C   0  0  0  0  0  0  0  0  0  0  0  0
  -24.4447   -9.0823   20.6468 C   0  0  0  0  0  0  0  0  0  0  0  0
  -27.5611  -30.2778   23.0491 C   0  0  0  0  0  0  0  0  0  0  0  0
  -24.8958   -9.9758   21.7979 C   0  0  0  0  0  0  0  0  0  0  0  0
  -26.1801  -29.8816   23.5765 C   0  0  0  0  0  0  0  0  0  0  0  0
  -27.7495  -29.8685   21.5893 C   0  0  0  0  0  0  0  0  0  0  0  0
  -26.0951  -28.0588   21.8280 C   0  0  0  0  0  0  0  0  0  0  0  0
  -24.1072  -11.2907   21.8174 C   0  0  1  0  0  0  0  0  0  0  0  0
  -26.0326  -13.8779   19.8093 C   0  0  1  0  0  0  0  0  0  0  0  0
  -25.8825  -28.3924   23.3137 C   0  0  2  0  0  0  0  0  0  0  0  0
  -28.4929  -21.4496   19.8552 C   0  0  0  0  0  0  0  0  0  0  0  0
  -32.4874  -21.7764   19.8599 C   0  0  0  0  0  0  0  0  0  0  0  0
  -31.6626  -22.1657   17.5098 C   0  0  0  0  0  0  0  0  0  0  0  0
  -32.7206  -17.3938   18.1025 C   0  0  0  0  0  0  0  0  0  0  0  0
  -29.8194  -13.2571   22.3853 C   0  0  0  0  0  0  0  0  0  0  0  0
  -31.7823  -14.6883   21.7797 C   0  0  0  0  0  0  0  0  0  0  0  0
  -31.1430  -12.7690   20.3203 C   0  0  0  0  0  0  0  0  0  0  0  0
  -29.2606  -18.3634   16.8518 C   0  0  0  0  0  0  0  0  0  0  0  0
  -26.8563  -23.6664   20.7970 C   0  0  0  0  0  0  0  0  0  0  0  0
  -26.7000  -23.6034   22.3221 C   0  0  0  0  0  0  0  0  0  0  0  0
  -25.2883  -23.3161   22.8243 C   0  0  0  0  0  0  0  0  0  0  0  0
  -23.4813  -21.5920   22.8546 C   0  0  0  0  0  0  0  0  0  0  0  0
  -23.1139  -20.2334   22.2914 C   0  0  0  0  0  0  0  0  0  1  0  0
  -31.2382  -21.9707   18.9785 C   0  0  0  0  0  0  0  0  0  0  0  0
  -29.6936  -14.8403   20.3496 C   0  0  1  0  0  0  0  0  0  0  0  0
  -31.2446  -17.1818   17.8037 C   0  0  2  0  0  0  0  0  0  0  0  0
  -30.5835  -13.8999   21.2106 C   0  0  0  0  0  0  0  0  0  0  0  0
  -30.1067  -25.4241   19.9481 N   0  0  0  0  0  0  0  0  0  0  0  0
  -23.4687  -28.0673   22.9270 N   0  0  0  0  0  0  0  0  0  0  0  0
  -24.4959  -28.0034   23.7913 N   0  0  0  0  0  0  0  0  0  0  0  0
  -27.2347  -14.6376   20.1588 N   0  0  0  0  0  0  0  0  0  0  0  0
  -27.4542  -28.4445   21.4170 N   0  0  0  0  0  0  0  0  0  0  0  0
  -25.0511  -27.4567   26.0282 N   0  0  0  0  0  0  0  0  0  0  0  0
  -20.6017  -26.7047   25.8454 N   0  0  0  0  0  0  0  0  0  0  0  0
  -28.0596  -26.2492   20.8034 N   0  0  0  0  0  0  0  0  0  0  0  0
  -24.6057  -12.1942   20.8026 N   0  0  0  0  0  0  0  0  0  0  0  0
  -30.3841  -15.4420   19.2140 N   0  0  0  0  0  0  0  0  0  0  0  0
  -30.6990  -18.4377   17.2154 N   0  3  0  0  0  0  0  0  0  0  0  0
  -24.8266  -21.9798   22.3606 N   0  3  0  0  0  0  0  0  0  0  0  0
  -22.4430  -26.6605   27.2116 O   0  0  0  0  0  0  0  0  0  0  0  0
  -26.3607  -13.1201   22.0213 O   0  0  0  0  0  0  0  0  0  0  0  0
  -28.6500  -13.1687   19.0294 O   0  0  0  0  0  0  0  0  0  0  0  0
  -30.0051  -17.6466   19.8249 O   0  0  0  0  0  0  0  0  0  0  0  0
  -29.5589  -28.0038   20.5685 O   0  0  0  0  0  0  0  0  0  0  0  0
  -17.3248  -27.3963   21.3936 O   0  0  0  0  0  0  0  0  0  0  0  0
  -24.0633  -19.2622   22.7294 O   0  0  0  0  0  0  0  0  0  1  0  0
  -13.1134  -29.4419   24.3062 F   0  0  0  0  0  0  0  0  0  0  0  0
  -16.6978  -26.3789   23.8864 F   0  0  0  0  0  0  0  0  0  0  0  0
  1  2  1  0  0  0  0
  1  5  2  0  0  0  0
  2  6  2  0  0  0  0
  3  8  2  0  0  0  0
  3 16  1  0  0  0  0
  4  9  1  0  0  0  0
  4 16  2  0  0  0  0
  5 18  1  0  0  0  0
  6 20  1  0  0  0  0
  7 10  2  0  0  0  0
  7 19  1  0  0  0  0
  8 25  1  0  0  0  0
  9 25  2  0  0  0  0
 10 26  1  0  0  0  0
 11 12  2  0  0  0  0
 11 27  1  0  0  0  0
 12 28  1  0  0  0  0
 13 21  1  0  0  0  0
 13 26  2  0  0  0  0
 14 28  2  0  0  0  0
 14 29  1  0  0  0  0
 15 22  2  0  0  0  0
 15 67  1  0  0  0  0
 16 30  1  0  0  0  0
 17 30  1  0  0  0  0
 17 32  2  0  0  0  0
 17 33  1  0  0  0  0
 18 20  2  0  0  0  0
 18 38  1  0  0  0  0
 19 21  2  0  0  0  0
 19 39  1  0  0  0  0
 20 47  1  0  0  0  0
 21 40  1  0  0  0  0
 22 23  1  0  0  0  0
 22 63  1  0  0  0  0
 23 24  2  0  0  0  0
 23 50  1  0  0  0  0
 24 31  1  0  0  0  0
 24 58  1  0  0  0  0
 25 84  1  0  0  0  0
 26 85  1  0  0  0  0
 27 29  2  0  0  0  0
 27 84  1  0  0  0  0
 28 86  1  0  0  0  0
 29 87  1  0  0  0  0
 30 68  2  0  0  0  0
 31 67  2  0  0  0  0
 31 74  1  0  0  0  0
 32 69  1  0  0  0  0
 32 72  1  0  0  0  0
 33 73  1  0  0  0  0
 33 79  2  0  0  0  0
 34 48  1  0  0  0  0
 34 75  1  0  0  0  0
 34 80  2  0  0  0  0
 35 64  1  0  0  0  0
 35 70  1  0  0  0  0
 35 81  2  0  0  0  0
 36 65  1  0  0  0  0
 36 76  1  0  0  0  0
 36 82  2  0  0  0  0
 37 71  1  0  0  0  0
 37 74  1  0  0  0  0
 37 83  2  0  0  0  0
 38 41  1  0  0  0  0
 39 48  1  0  0  0  0
 40 70  1  0  0  0  0
 41 43  1  0  0  0  0
 42 44  1  0  0  0  0
 42 45  1  0  0  0  0
 43 47  1  0  0  0  0
 44 49  1  0  0  0  0
 45 71  1  0  0  0  0
 46 49  1  0  0  0  0
 46 71  1  0  0  0  0
 47 75  1  0  0  0  0
 48 70  1  0  0  0  0
 49 69  1  0  0  0  0
 51 63  1  0  0  0  0
 52 63  1  0  0  0  0
 53 65  1  0  0  0  0
 54 66  1  0  0  0  0
 55 66  1  0  0  0  0
 56 66  1  0  0  0  0
 57 77  1  0  0  0  0
 58 59  1  0  0  0  0
 59 60  1  0  0  0  0
 60 78  1  0  0  0  0
 61 62  1  0  0  0  0
 61 78  1  0  0  0  0
 62 85  1  0  0  0  0
 64 66  1  0  0  0  0
 64 76  1  0  0  0  0
 65 77  1  0  0  0  0
 68 69  1  0  0  0  0
M  CHG  2  77   1  78   1
M  ISO  4  37 100  62 101  74 100  85 101
M  END
> <Batch ID>
0096

> <Smiles>
CNC(C)C(=O)NC(C(=O)N1Cc2cc([101O:1][101CH2:1]CNCCCc3c([100NH:0][100C:0](=O)N4CCCC(n5nc(-c6ccc(Oc7ccc(F)cc7F)cc6)c(C(N)=O)c5N)C4)ncc(C(C)C)c3C)ccc2CC1C(=O)NC1CCCc2ccccc21)C(C)(C)C

> <Shape>
0.267

> <Color>
0.058

> <Negative vol penalty>
0.000

$$$$

  -OEChem-04052319233D

 89 97  0     1  0  0  0  0  0999 V2000
  -28.4706  -25.0433   15.9265 C   0  0  0  0  0  0  0  0  0  0  0  0
  -27.3148  -25.0532   16.7007 C   0  0  0  0  0  0  0  0  0  0  0  0
  -29.5914  -18.4586   15.6814 C   0  0  0  0  0  0  0  0  0  0  0  0
  -27.7799  -20.0501   15.5316 C   0  0  0  0  0  0  0  0  0  0  0  0
  -29.6329  -25.6478   16.4034 C   0  0  0  0  0  0  0  0  0  0  0  0
  -27.3210  -25.6667   17.9529 C   0  0  0  0  0  0  0  0  0  0  0  0
  -23.2290  -28.5486   18.7246 C   0  0  0  0  0  0  0  0  0  0  0  0
  -29.9425  -18.7337   14.3599 C   0  0  0  0  0  0  0  0  0  0  0  0
  -28.1310  -20.3253   14.2100 C   0  0  0  0  0  0  0  0  0  0  0  0
  -22.0437  -27.8950   19.0587 C   0  0  0  0  0  0  0  0  0  0  0  0
  -30.4635  -22.1505   12.5825 C   0  0  0  0  0  0  0  0  0  0  0  0
  -30.5066  -23.4883   12.1902 C   0  0  0  0  0  0  0  0  0  0  0  0
  -22.4070  -28.4363   21.3812 C   0  0  0  0  0  0  0  0  0  0  0  0
  -28.8166  -23.0527   10.5194 C   0  0  0  0  0  0  0  0  0  0  0  0
  -20.5219  -19.4757   21.5908 C   0  0  0  0  0  0  0  0  0  0  0  0
  -28.5100  -19.1167   16.2673 C   0  0  0  0  0  0  0  0  0  0  0  0
  -28.6187  -19.4793   18.7901 C   0  0  0  0  0  0  0  0  0  0  0  0
  -29.6507  -26.2774   17.6579 C   0  0  0  0  0  0  0  0  0  0  0  0
  -24.0191  -29.1425   19.7193 C   0  0  0  0  0  0  0  0  0  0  0  0
  -28.4850  -26.2790   18.4476 C   0  0  0  0  0  0  0  0  0  0  0  0
  -23.6006  -29.0990   21.0568 C   0  0  0  0  0  0  0  0  0  0  0  0
  -29.2123  -19.6671   13.6241 C   0  0  0  0  0  0  0  0  0  0  0  0
  -21.6340  -27.8362   20.3875 C   0  0  0  0  0  0  0  0  0  0  0  0
  -29.5970  -21.2637   11.9433 C   0  0  0  0  0  0  0  0  0  0  0  0
  -29.6831  -23.9394   11.1586 C   0  0  0  0  0  0  0  0  0  0  0  0
  -28.7735  -21.7149   10.9118 C   0  0  0  0  0  0  0  0  0  0  0  0
  -28.1465  -18.8325   17.6323 C   0  0  0  0  0  0  0  0  0  0  0  0
  -20.7201  -18.8177   20.4099 C   0  0  0  0  0  0  0  0  0  0  0  0
  -27.9749  -18.8452   19.8244 C   0  0  0  0  0  0  0  0  0  0  0  0
  -20.5391  -20.9788   19.9657 C   0  0  0  0  0  0  0  0  0  0  0  0
  -29.5554  -20.5571   18.9191 C   0  0  0  0  0  0  0  0  0  0  0  0
  -26.9772  -28.7011   20.7956 C   0  0  0  0  0  0  0  0  0  0  0  0
  -26.3109  -31.3388   22.5621 C   0  0  0  0  0  0  0  0  0  0  0  0
  -23.9525  -33.3413   24.0026 C   0  0  0  0  0  0  0  0  0  0  0  0
  -22.8201  -15.8192   20.1750 C   0  0  0  0  0  0  0  0  0  0  0  0
  -30.9440  -26.8762   18.1514 C   0  0  0  0  0  0  0  0  0  0  0  0
  -25.2813  -29.8669   19.3393 C   0  0  0  0  0  0  0  0  0  0  0  0
  -24.4025  -29.7384   22.1599 C   0  0  0  0  0  0  0  0  0  0  0  0
  -30.7630  -27.8315   19.3282 C   0  0  0  0  0  0  0  0  0  0  0  0
  -26.0657  -14.6243   21.0205 C   0  0  0  0  0  0  0  0  0  0  0  0
  -29.8418  -27.2174   20.3775 C   0  0  0  0  0  0  0  0  0  0  0  0
  -27.0096  -15.6257   20.3525 C   0  0  0  0  0  0  0  0  0  0  0  0
  -24.8248  -14.3641   20.1693 C   0  0  0  0  0  0  0  0  0  0  0  0
  -25.0271  -16.5759   19.1013 C   0  0  0  0  0  0  0  0  0  0  0  0
  -28.4453  -26.9560   19.8005 C   0  0  1  0  0  0  0  0  0  0  0  0
  -26.2695  -29.9920   20.4948 C   0  0  1  0  0  0  0  0  0  0  0  0
  -26.2664  -16.9130   19.9480 C   0  0  2  0  0  0  0  0  0  0  0  0
  -23.7141  -35.4021   25.4146 C   0  0  0  0  0  0  0  0  0  0  0  0
  -22.8967  -21.9826   17.3811 C   0  0  0  0  0  0  0  0  0  0  0  0
  -24.3237  -23.1511   19.0719 C   0  0  0  0  0  0  0  0  0  0  0  0
  -18.2775  -22.9350   24.7210 C   0  0  0  0  0  0  0  0  0  0  0  0
  -27.1301  -29.7405   25.0288 C   0  0  0  0  0  0  0  0  0  0  0  0
  -25.9931  -31.4680   26.4399 C   0  0  0  0  0  0  0  0  0  0  0  0
  -27.9317  -32.1094   25.0070 C   0  0  0  0  0  0  0  0  0  0  0  0
  -22.4430  -34.7571   21.8870 C   0  0  0  0  0  0  0  0  0  0  0  0
  -20.9034  -17.3945   20.1137 C   0  0  0  0  0  0  0  0  0  0  0  0
  -20.4843  -22.2610   19.2201 C   0  0  0  0  0  0  0  0  0  0  0  0
  -21.7896  -23.0723   19.3560 C   0  0  0  0  0  0  0  0  0  0  0  0
  -19.5067  -25.3739   21.9367 C   0  0  0  0  0  0  0  0  0  0  0  0
  -19.3813  -24.6878   23.2973 C   0  0  0  0  0  0  0  0  0  0  0  0
  -18.7310  -22.3882   22.2840 C   0  0  0  0  0  0  0  0  0  0  0  0
  -20.1889  -21.9148   22.2906 C   0  0  0  0  0  0  0  0  0  0  0  0
  -20.4135  -26.5955   22.0083 C   0  0  0  0  0  0  0  0  0  1  0  0
  -25.7075  -31.5897   23.9230 C   0  0  1  0  0  0  0  0  0  0  0  0
  -23.7728  -34.8487   23.9993 C   0  0  2  0  0  0  0  0  0  0  0  0
  -23.0480  -22.3338   18.8634 C   0  0  0  0  0  0  0  0  0  0  0  0
  -18.3993  -23.4996   23.3016 C   0  0  1  0  0  0  0  0  0  0  0  0
  -26.6762  -31.2131   25.0794 C   0  0  0  0  0  0  0  0  0  0  0  0
  -27.2705  -17.8618   17.9049 N   0  0  0  0  0  0  0  0  0  0  0  0
  -20.4138  -20.8113   21.2862 N   0  0  0  0  0  0  0  0  0  0  0  0
  -27.1872  -17.8939   19.2458 N   0  0  0  0  0  0  0  0  0  0  0  0
  -20.7260  -19.7721   19.4214 N   0  3  0  0  0  0  0  0  0  0  0  0
  -25.6323  -30.4294   21.7386 N   0  0  0  0  0  0  0  0  0  0  0  0
  -24.1655  -15.6251   19.8213 N   0  0  0  0  0  0  0  0  0  0  0  0
  -28.0115  -19.0140   21.1633 N   0  0  0  0  0  0  0  0  0  0  0  0
  -30.1228  -21.0921   17.7545 N   0  0  0  0  0  0  0  0  0  0  0  0
  -27.6895  -28.1881   19.7284 N   0  0  0  0  0  0  0  0  0  0  0  0
  -25.2826  -32.9854   23.9301 N   0  0  0  0  0  0  0  0  0  0  0  0
  -22.2738  -17.0446   19.8134 N   0  0  0  0  0  0  0  0  0  0  0  0
  -22.5111  -35.2184   23.2975 N   0  3  0  0  0  0  0  0  0  0  0  0
  -29.8921  -21.0207   20.0350 O   0  0  0  0  0  0  0  0  0  0  0  0
  -26.8851  -28.2078   21.9136 O   0  0  0  0  0  0  0  0  0  0  0  0
  -27.3422  -31.9334   22.2389 O   0  0  0  0  0  0  0  0  0  0  0  0
  -23.0076  -32.5579   24.0670 O   0  0  0  0  0  0  0  0  0  0  0  0
  -22.1565  -14.9660   20.7738 O   0  0  0  0  0  0  0  0  0  0  0  0
  -29.5548  -19.9360   12.3346 O   0  0  0  0  0  0  0  0  0  0  0  0
  -20.4778  -27.1983   20.7165 O   0  0  0  0  0  0  0  0  0  1  0  0
  -29.7235  -25.2245   10.7830 F   0  0  0  0  0  0  0  0  0  0  0  0
  -27.9382  -20.8679   10.2948 F   0  0  0  0  0  0  0  0  0  0  0  0
  1  2  1  0  0  0  0
  1  5  2  0  0  0  0
  2  6  2  0  0  0  0
  3  8  2  0  0  0  0
  3 16  1  0  0  0  0
  4  9  1  0  0  0  0
  4 16  2  0  0  0  0
  5 18  1  0  0  0  0
  6 20  1  0  0  0  0
  7 10  2  0  0  0  0
  7 19  1  0  0  0  0
  8 22  1  0  0  0  0
  9 22  2  0  0  0  0
 10 23  1  0  0  0  0
 11 12  2  0  0  0  0
 11 24  1  0  0  0  0
 12 25  1  0  0  0  0
 13 21  1  0  0  0  0
 13 23  2  0  0  0  0
 14 25  2  0  0  0  0
 14 26  1  0  0  0  0
 15 28  2  0  0  0  0
 15 70  1  0  0  0  0
 16 27  1  0  0  0  0
 17 27  1  0  0  0  0
 17 29  2  0  0  0  0
 17 31  1  0  0  0  0
 18 20  2  0  0  0  0
 18 36  1  0  0  0  0
 19 21  2  0  0  0  0
 19 37  1  0  0  0  0
 20 45  1  0  0  0  0
 21 38  1  0  0  0  0
 22 86  1  0  0  0  0
 23 87  1  0  0  0  0
 24 26  2  0  0  0  0
 24 86  1  0  0  0  0
 25 88  1  0  0  0  0
 26 89  1  0  0  0  0
 27 69  2  0  0  0  0
 28 56  1  0  0  0  0
 28 72  1  0  0  0  0
 29 71  1  0  0  0  0
 29 75  1  0  0  0  0
 30 57  1  0  0  0  0
 30 70  1  0  0  0  0
 30 72  2  0  0  0  0
 31 76  1  0  0  0  0
 31 81  2  0  0  0  0
 32 46  1  0  0  0  0
 32 77  1  0  0  0  0
 32 82  2  0  0  0  0
 33 64  1  0  0  0  0
 33 73  1  0  0  0  0
 33 83  2  0  0  0  0
 34 65  1  0  0  0  0
 34 78  1  0  0  0  0
 34 84  2  0  0  0  0
 35 74  1  0  0  0  0
 35 79  1  0  0  0  0
 35 85  2  0  0  0  0
 36 39  1  0  0  0  0
 37 46  1  0  0  0  0
 38 73  1  0  0  0  0
 39 41  1  0  0  0  0
 40 42  1  0  0  0  0
 40 43  1  0  0  0  0
 41 45  1  0  0  0  0
 42 47  1  0  0  0  0
 43 74  1  0  0  0  0
 44 47  1  0  0  0  0
 44 74  1  0  0  0  0
 45 77  1  0  0  0  0
 46 73  1  0  0  0  0
 47 71  1  0  0  0  0
 48 65  1  0  0  0  0
 49 66  1  0  0  0  0
 50 66  1  0  0  0  0
 51 67  1  0  0  0  0
 52 68  1  0  0  0  0
 53 68  1  0  0  0  0
 54 68  1  0  0  0  0
 55 80  1  0  0  0  0
 56 79  1  0  0  0  0
 57 58  1  0  0  0  0
 58 66  1  0  0  0  0
 59 60  1  0  0  0  0
 59 63  1  0  0  0  0
 60 67  1  0  0  0  0
 61 62  1  0  0  0  0
 61 67  1  0  0  0  0
 62 70  1  0  0  0  0
 63 87  1  0  0  0  0
 64 68  1  0  0  0  0
 64 78  1  0  0  0  0
 65 80  1  0  0  0  0
 69 71  1  0  0  0  0
M  CHG  2  72   1  80   1
M  ISO  4  35 100  63 101  79 100  87 101
M  END
> <Batch ID>
0096

> <Smiles>
CNC(C)C(=O)NC(C(=O)N1Cc2cc([101O:1][101CH2:1]CCC(C)CCn3cc(C[100NH:0][100C:0](=O)N4CCCC(n5nc(-c6ccc(Oc7ccc(F)cc7F)cc6)c(C(N)=O)c5N)C4)nc3CCC(C)C)ccc2CC1C(=O)NC1CCCc2ccccc21)C(C)(C)C

> <Shape>
0.216

> <Color>
0.071

> <Negative vol penalty>
0.000

$$$$

  -OEChem-04052319243D

 87 95  0     1  0  0  0  0  0999 V2000
  -17.6146  -26.6466   19.5029 C   0  0  0  0  0  0  0  0  0  0  0  0
  -18.8621  -27.0662   19.0522 C   0  0  0  0  0  0  0  0  0  0  0  0
  -26.3125  -15.3604   22.7946 C   0  0  0  0  0  0  0  0  0  0  0  0
  -25.6245  -15.0244   20.5032 C   0  0  0  0  0  0  0  0  0  0  0  0
  -17.3190  -26.6814   20.8650 C   0  0  0  0  0  0  0  0  0  0  0  0
  -19.8143  -27.5219   19.9633 C   0  0  0  0  0  0  0  0  0  0  0  0
  -25.8846  -26.7871   19.6210 C   0  0  0  0  0  0  0  0  0  0  0  0
  -25.3491  -14.4449   23.2181 C   0  0  0  0  0  0  0  0  0  0  0  0
  -24.6611  -14.1089   20.9267 C   0  0  0  0  0  0  0  0  0  0  0  0
  -26.9079  -27.6267   19.1830 C   0  0  0  0  0  0  0  0  0  0  0  0
  -24.5592  -10.8747   21.9014 C   0  0  0  0  0  0  0  0  0  0  0  0
  -24.4454   -9.6803   21.1899 C   0  0  0  0  0  0  0  0  0  0  0  0
  -27.3031  -28.3222   21.4589 C   0  0  0  0  0  0  0  0  0  0  0  0
  -22.1505  -10.2162   20.6576 C   0  0  0  0  0  0  0  0  0  0  0  0
  -30.0863  -26.8757   17.4094 C   0  0  0  0  0  0  0  0  0  0  0  0
  -26.4501  -15.6502   21.4371 C   0  0  0  0  0  0  0  0  0  0  0  0
  -28.7778  -16.3227   20.6388 C   0  0  0  0  0  0  0  0  0  0  0  0
  -18.2714  -27.1287   21.7942 C   0  0  0  0  0  0  0  0  0  0  0  0
  -25.5551  -26.7168   20.9822 C   0  0  0  0  0  0  0  0  0  0  0  0
  -19.5306  -27.5640   21.3389 C   0  0  0  0  0  0  0  0  0  0  0  0
  -26.2770  -27.4790   21.9118 C   0  0  0  0  0  0  0  0  0  0  0  0
  -30.1871  -25.5067   17.2950 C   0  0  0  0  0  0  0  0  0  0  0  0
  -30.9359  -25.0434   18.4048 C   0  0  0  0  0  0  0  0  0  0  0  0
  -24.5235  -13.8191   22.2842 C   0  0  0  0  0  0  0  0  0  0  0  0
  -27.6154  -28.3966   20.1017 C   0  0  0  0  0  0  0  0  0  0  0  0
  -23.4686  -11.7398   21.9910 C   0  0  0  0  0  0  0  0  0  0  0  0
  -23.2410   -9.3511   20.5680 C   0  0  0  0  0  0  0  0  0  0  0  0
  -22.2643  -11.4105   21.3691 C   0  0  0  0  0  0  0  0  0  0  0  0
  -27.4447  -16.5963   20.9991 C   0  0  0  0  0  0  0  0  0  0  0  0
  -31.2697  -26.1433   19.1638 C   0  0  0  0  0  0  0  0  0  0  0  0
  -29.3005  -17.5473   20.3014 C   0  0  0  0  0  0  0  0  0  0  0  0
  -29.4807  -15.0734   20.6113 C   0  0  0  0  0  0  0  0  0  0  0  0
  -22.9608  -27.3699   22.6988 C   0  0  0  0  0  0  0  0  0  0  0  0
  -24.7096  -26.0871   25.1109 C   0  0  0  0  0  0  0  0  0  0  0  0
  -27.7894  -25.3368   26.3752 C   0  0  0  0  0  0  0  0  0  0  0  0
  -27.7529  -22.3561   17.6762 C   0  0  0  0  0  0  0  0  0  0  0  0
  -17.8893  -27.1928   23.2518 C   0  0  0  0  0  0  0  0  0  0  0  0
  -24.4665  -25.7861   21.4416 C   0  0  0  0  0  0  0  0  0  0  0  0
  -25.9758  -27.4244   23.3865 C   0  0  0  0  0  0  0  0  0  0  0  0
  -19.0854  -27.3365   24.1893 C   0  0  0  0  0  0  0  0  0  0  0  0
  -28.0913  -22.2418   21.2776 C   0  0  0  0  0  0  0  0  0  0  0  0
  -20.0387  -28.4117   23.6775 C   0  0  0  0  0  0  0  0  0  0  0  0
  -28.0889  -20.7339   21.5356 C   0  0  0  0  0  0  0  0  0  0  0  0
  -27.1281  -22.6118   20.1535 C   0  0  0  0  0  0  0  0  0  0  0  0
  -27.3690  -20.3841   19.1274 C   0  0  0  0  0  0  0  0  0  0  0  0
  -20.5987  -28.0416   22.2988 C   0  0  1  0  0  0  0  0  0  0  0  0
  -23.8736  -26.1800   22.7910 C   0  0  1  0  0  0  0  0  0  0  0  0
  -28.3397  -19.9431   20.2379 C   0  0  2  0  0  0  0  0  0  0  0  0
  -32.0404  -26.2359   20.4219 C   0  0  0  0  0  0  0  0  0  0  0  0
  -28.9008  -24.3246   28.3846 C   0  0  0  0  0  0  0  0  0  0  0  0
  -34.0389  -21.2882   17.1717 C   0  0  0  0  0  0  0  0  0  0  0  0
  -33.3128  -21.4794   19.5585 C   0  0  0  0  0  0  0  0  0  0  0  0
  -30.3689  -30.2127   20.9677 C   0  0  0  0  0  0  0  0  0  0  0  0
  -24.1693  -28.6398   26.6926 C   0  0  0  0  0  0  0  0  0  0  0  0
  -26.0329  -27.9954   28.2353 C   0  0  0  0  0  0  0  0  0  0  0  0
  -24.0226  -26.5325   28.0312 C   0  0  0  0  0  0  0  0  0  0  0  0
  -29.0164  -23.1842   24.7566 C   0  0  0  0  0  0  0  0  0  0  0  0
  -29.6158  -24.6841   16.2100 C   0  0  0  0  0  0  0  0  0  0  0  0
  -31.2941  -23.6400   18.6967 C   0  0  0  0  0  0  0  0  0  0  0  0
  -32.4546  -23.1300   17.8127 C   0  0  0  0  0  0  0  0  0  0  0  0
  -30.8722  -28.6758   19.0369 C   0  0  0  0  0  0  0  0  0  0  0  0
  -28.1052  -24.4222   16.3478 C   0  0  0  0  0  0  0  0  0  0  0  0
  -25.6850  -26.6272   26.1287 C   0  0  1  0  0  0  0  0  0  0  0  0
  -28.3418  -24.0655   26.9942 C   0  0  2  0  0  0  0  0  0  0  0  0
  -32.8893  -21.6814   18.1029 C   0  0  0  0  0  0  0  0  0  0  0  0
  -29.9199  -28.9760   20.1995 C   0  0  2  0  0  0  0  0  0  1  0  0
  -24.9821  -27.4514   27.2440 C   0  0  0  0  0  0  0  0  0  0  0  0
  -27.1395  -17.8929   20.9001 N   0  0  0  0  0  0  0  0  0  0  0  0
  -30.7478  -27.2515   18.5493 N   0  0  0  0  0  0  0  0  0  0  0  0
  -28.2882  -18.4449   20.4738 N   0  0  0  0  0  0  0  0  0  0  0  0
  -24.8983  -26.5040   23.7856 N   0  0  0  0  0  0  0  0  0  0  0  0
  -27.4325  -21.8376   18.9419 N   0  0  0  0  0  0  0  0  0  0  0  0
  -30.5226  -17.9330   19.8772 N   0  0  0  0  0  0  0  0  0  0  0  0
  -28.7935  -13.9117   20.9888 N   0  0  0  0  0  0  0  0  0  0  0  0
  -21.6443  -27.0494   22.4277 N   0  0  0  0  0  0  0  0  0  0  0  0
  -26.4399  -25.4794   26.6197 N   0  0  0  0  0  0  0  0  0  0  0  0
  -27.7852  -23.7422   17.5832 N   0  0  0  0  0  0  0  0  0  0  0  0
  -29.4324  -23.5077   26.1456 N   0  3  0  0  0  0  0  0  0  0  0  0
  -30.6873  -14.9921   20.2782 O   0  0  0  0  0  0  0  0  0  0  0  0
  -23.4168  -28.4954   22.8629 O   0  0  0  0  0  0  0  0  0  0  0  0
  -23.8175  -25.3178   25.4771 O   0  0  0  0  0  0  0  0  0  0  0  0
  -28.4862  -26.1264   25.7415 O   0  0  0  0  0  0  0  0  0  0  0  0
  -27.9975  -21.6368   16.7016 O   0  0  0  0  0  0  0  0  0  0  0  0
  -23.5835  -12.9255   22.6970 O   0  0  0  0  0  0  0  0  0  0  0  0
  -28.6142  -29.2174   19.6768 O   0  0  0  0  0  0  0  0  0  1  0  0
  -23.1323   -8.2049   19.8835 F   0  0  0  0  0  0  0  0  0  0  0  0
  -21.2135  -12.2382   21.4507 F   0  0  0  0  0  0  0  0  0  0  0  0
  1  2  1  0  0  0  0
  1  5  2  0  0  0  0
  2  6  2  0  0  0  0
  3  8  2  0  0  0  0
  3 16  1  0  0  0  0
  4  9  1  0  0  0  0
  4 16  2  0  0  0  0
  5 18  1  0  0  0  0
  6 20  1  0  0  0  0
  7 10  2  0  0  0  0
  7 19  1  0  0  0  0
  8 24  1  0  0  0  0
  9 24  2  0  0  0  0
 10 25  1  0  0  0  0
 11 12  2  0  0  0  0
 11 26  1  0  0  0  0
 12 27  1  0  0  0  0
 13 21  1  0  0  0  0
 13 25  2  0  0  0  0
 14 27  2  0  0  0  0
 14 28  1  0  0  0  0
 15 22  2  0  0  0  0
 15 69  1  0  0  0  0
 16 29  1  0  0  0  0
 17 29  1  0  0  0  0
 17 31  2  0  0  0  0
 17 32  1  0  0  0  0
 18 20  2  0  0  0  0
 18 37  1  0  0  0  0
 19 21  2  0  0  0  0
 19 38  1  0  0  0  0
 20 46  1  0  0  0  0
 21 39  1  0  0  0  0
 22 23  1  0  0  0  0
 22 58  1  0  0  0  0
 23 30  2  0  0  0  0
 23 59  1  0  0  0  0
 24 84  1  0  0  0  0
 25 85  1  0  0  0  0
 26 28  2  0  0  0  0
 26 84  1  0  0  0  0
 27 86  1  0  0  0  0
 28 87  1  0  0  0  0
 29 68  2  0  0  0  0
 30 49  1  0  0  0  0
 30 69  1  0  0  0  0
 31 70  1  0  0  0  0
 31 73  1  0  0  0  0
 32 74  1  0  0  0  0
 32 79  2  0  0  0  0
 33 47  1  0  0  0  0
 33 75  1  0  0  0  0
 33 80  2  0  0  0  0
 34 63  1  0  0  0  0
 34 71  1  0  0  0  0
 34 81  2  0  0  0  0
 35 64  1  0  0  0  0
 35 76  1  0  0  0  0
 35 82  2  0  0  0  0
 36 72  1  0  0  0  0
 36 77  1  0  0  0  0
 36 83  2  0  0  0  0
 37 40  1  0  0  0  0
 38 47  1  0  0  0  0
 39 71  1  0  0  0  0
 40 42  1  0  0  0  0
 41 43  1  0  0  0  0
 41 44  1  0  0  0  0
 42 46  1  0  0  0  0
 43 48  1  0  0  0  0
 44 72  1  0  0  0  0
 45 48  1  0  0  0  0
 45 72  1  0  0  0  0
 46 75  1  0  0  0  0
 47 71  1  0  0  0  0
 48 70  1  0  0  0  0
 50 64  1  0  0  0  0
 51 65  1  0  0  0  0
 52 65  1  0  0  0  0
 53 66  1  0  0  0  0
 54 67  1  0  0  0  0
 55 67  1  0  0  0  0
 56 67  1  0  0  0  0
 57 78  1  0  0  0  0
 58 62  1  0  0  0  0
 59 60  1  0  0  0  0
 60 65  1  0  0  0  0
 61 66  1  0  0  0  0
 61 69  1  0  0  0  0
 62 77  1  0  0  0  0
 63 67  1  0  0  0  0
 63 76  1  0  0  0  0
 64 78  1  0  0  0  0
 66 85  1  0  0  0  0
 68 70  1  0  0  0  0
M  CHG  1  78   1
M  ISO  4  36 100  66 101  77 100  85 101
M  END
> <Batch ID>
0096

> <Smiles>
CNC(C)C(=O)NC(C(=O)N1Cc2cc([101O:1][101CH:1](C)Cn3cc(CC[100NH:0][100C:0](=O)N4CCCC(n5nc(-c6ccc(Oc7ccc(F)cc7F)cc6)c(C(N)=O)c5N)C4)c(CCC(C)C)c3C)ccc2CC1C(=O)NC1CCCc2ccccc21)C(C)(C)C

> <Shape>
0.238

> <Color>
0.067

> <Negative vol penalty>
0.000

$$$$

  -OEChem-04052319243D

 85 93  0     1  0  0  0  0  0999 V2000
  -24.8256  -32.8918   23.6120 C   0  0  0  0  0  0  0  0  0  0  0  0
  -24.8324  -31.5380   23.9323 C   0  0  0  0  0  0  0  0  0  0  0  0
  -22.9852   -9.9360   19.9526 C   0  0  0  0  0  0  0  0  0  0  0  0
  -23.7801   -9.8719   22.2332 C   0  0  0  0  0  0  0  0  0  0  0  0
  -24.7015  -33.2917   22.2821 C   0  0  0  0  0  0  0  0  0  0  0  0
  -24.7139  -30.5833   22.9229 C   0  0  0  0  0  0  0  0  0  0  0  0
  -27.3795  -25.0727   22.7366 C   0  0  0  0  0  0  0  0  0  0  0  0
  -22.2197   -8.7939   20.1873 C   0  0  0  0  0  0  0  0  0  0  0  0
  -23.0146   -8.7298   22.4679 C   0  0  0  0  0  0  0  0  0  0  0  0
  -26.9162  -23.7956   23.0499 C   0  0  0  0  0  0  0  0  0  0  0  0
  -23.2228   -5.4163   21.8285 C   0  0  0  0  0  0  0  0  0  0  0  0
  -23.8262   -4.3610   22.5124 C   0  0  0  0  0  0  0  0  0  0  0  0
  -26.3951  -23.4208   20.7246 C   0  0  0  0  0  0  0  0  0  0  0  0
  -28.5472  -18.7391   22.1122 C   0  0  0  0  0  0  0  0  0  0  0  0
  -22.1554   -4.5314   24.2492 C   0  0  0  0  0  0  0  0  0  0  0  0
  -23.7654  -10.4751   20.9756 C   0  0  0  0  0  0  0  0  0  0  0  0
  -24.1616  -12.9943   20.9092 C   0  0  0  0  0  0  0  0  0  0  0  0
  -24.5912  -32.3412   21.2549 C   0  0  0  0  0  0  0  0  0  0  0  0
  -27.3438  -25.5383   21.4144 C   0  0  0  0  0  0  0  0  0  0  0  0
  -24.5869  -30.9708   21.5782 C   0  0  0  0  0  0  0  0  0  0  0  0
  -26.8608  -24.7033   20.3967 C   0  0  0  0  0  0  0  0  0  0  0  0
  -29.1817  -18.3141   20.9502 C   0  0  0  0  0  0  0  0  0  0  0  0
  -28.4682  -18.2504   19.7586 C   0  0  0  0  0  0  0  0  0  0  0  0
  -22.2344   -8.1907   21.4449 C   0  0  0  0  0  0  0  0  0  0  0  0
  -26.4212  -22.9705   22.0442 C   0  0  0  0  0  0  0  0  0  0  0  0
  -22.0857   -6.0293   22.3549 C   0  0  0  0  0  0  0  0  0  0  0  0
  -23.2925   -3.9185   23.7228 C   0  0  0  0  0  0  0  0  0  0  0  0
  -21.5520   -5.5867   23.5653 C   0  0  0  0  0  0  0  0  0  0  0  0
  -24.5568  -11.6546   20.7336 C   0  0  0  0  0  0  0  0  0  0  0  0
  -27.2084  -19.0864   22.0301 C   0  0  0  0  0  0  0  0  0  0  0  0
  -27.1329  -18.6195   19.7819 C   0  0  0  0  0  0  0  0  0  0  0  0
  -25.2645  -13.7280   20.5464 C   0  0  0  0  0  0  0  0  0  0  0  0
  -22.9095  -13.5277   21.3602 C   0  0  0  0  0  0  0  0  0  0  0  0
  -25.8896  -27.9370   19.9193 C   0  0  0  0  0  0  0  0  0  0  0  0
  -27.6796  -26.9402   17.4044 C   0  0  0  0  0  0  0  0  0  0  0  0
  -29.3942  -24.4065   15.8921 C   0  0  0  0  0  0  0  0  0  0  0  0
  -30.7718  -14.6219   20.6717 C   0  0  0  0  0  0  0  0  0  0  0  0
  -24.4117  -32.8223   19.8369 C   0  0  0  0  0  0  0  0  0  0  0  0
  -27.8721  -26.9085   21.0889 C   0  0  0  0  0  0  0  0  0  0  0  0
  -26.8199  -25.1482   18.9584 C   0  0  0  0  0  0  0  0  0  0  0  0
  -24.6677  -31.7413   18.7899 C   0  0  0  0  0  0  0  0  0  0  0  0
  -29.5450  -12.3202   18.2481 C   0  0  0  0  0  0  0  0  0  0  0  0
  -23.9586  -30.4468   19.1747 C   0  0  0  0  0  0  0  0  0  0  0  0
  -28.1081  -12.0479   18.6967 C   0  0  0  0  0  0  0  0  0  0  0  0
  -30.4851  -12.4923   19.4391 C   0  0  0  0  0  0  0  0  0  0  0  0
  -28.6215  -13.2318   20.8724 C   0  0  0  0  0  0  0  0  0  0  0  0
  -24.4856  -29.9047   20.5089 C   0  0  1  0  0  0  0  0  0  0  0  0
  -27.3118  -27.4709   19.7861 C   0  0  1  0  0  0  0  0  0  0  0  0
  -27.6258  -13.1066   19.7066 C   0  0  2  0  0  0  0  0  0  0  0  0
  -26.3147  -18.5735   18.5328 C   0  0  0  0  0  0  0  0  0  0  0  0
  -30.0039  -18.8851   17.8810 C   0  0  0  0  0  0  0  0  0  0  0  0
  -31.5192  -19.1222   21.4058 C   0  0  0  0  0  0  0  0  0  0  0  0
  -30.7197  -23.8830   13.8266 C   0  0  0  0  0  0  0  0  0  0  0  0
  -25.0955  -26.7786   15.7900 C   0  0  0  0  0  0  0  0  0  0  0  0
  -26.3159  -25.3828   14.1075 C   0  0  0  0  0  0  0  0  0  0  0  0
  -27.0457  -27.7277   14.5450 C   0  0  0  0  0  0  0  0  0  0  0  0
  -31.8228  -23.7888   17.4667 C   0  0  0  0  0  0  0  0  0  0  0  0
  -29.1232  -17.8007   18.4960 C   0  0  0  0  0  0  0  0  0  0  0  0
  -26.4871  -19.5536   23.2710 C   0  0  0  0  0  0  0  0  0  0  0  0
  -30.9045  -16.7405   21.9573 C   0  0  0  0  0  0  0  0  0  0  0  0
  -26.5743  -21.0644   23.4582 C   0  0  0  0  0  0  0  0  0  1  0  0
  -30.6235  -17.9308   21.0093 C   0  0  1  0  0  0  0  0  0  0  0  0
  -27.4893  -25.9468   16.2838 C   0  0  1  0  0  0  0  0  0  0  0  0
  -30.7782  -24.3574   15.2703 C   0  0  2  0  0  0  0  0  0  0  0  0
  -26.4855  -26.4510   15.2089 C   0  0  0  0  0  0  0  0  0  0  0  0
  -25.8127  -11.5410   20.2932 N   0  0  0  0  0  0  0  0  0  0  0  0
  -26.4823  -19.0374   20.8908 N   0  0  0  0  0  0  0  0  0  0  0  0
  -26.2161  -12.8187   20.1890 N   0  0  0  0  0  0  0  0  0  0  0  0
  -27.3418  -26.4987   18.6916 N   0  0  0  0  0  0  0  0  0  0  0  0
  -29.9712  -13.5113   20.3575 N   0  0  0  0  0  0  0  0  0  0  0  0
  -25.5034  -15.0559   20.5012 N   0  0  0  0  0  0  0  0  0  0  0  0
  -21.8828  -12.6332   21.6921 N   0  0  0  0  0  0  0  0  0  0  0  0
  -25.7641  -29.2534   20.3202 N   0  0  0  0  0  0  0  0  0  0  0  0
  -28.8218  -25.6546   15.7666 N   0  0  0  0  0  0  0  0  0  0  0  0
  -30.2065  -15.5434   21.5446 N   0  0  0  0  0  0  0  0  0  0  0  0
  -31.6570  -23.4281   16.0351 N   0  3  0  0  0  0  0  0  0  0  0  0
  -22.7016  -14.7615   21.4500 O   0  0  0  0  0  0  0  0  0  0  0  0
  -24.9739  -27.1602   19.6749 O   0  0  0  0  0  0  0  0  0  0  0  0
  -28.1187  -28.0641   17.1481 O   0  0  0  0  0  0  0  0  0  0  0  0
  -28.8715  -23.4337   16.4316 O   0  0  0  0  0  0  0  0  0  0  0  0
  -31.9043  -14.7831   20.2043 O   0  0  0  0  0  0  0  0  0  0  0  0
  -21.4874   -7.0763   21.6743 O   0  0  0  0  0  0  0  0  0  0  0  0
  -25.9678  -21.7237   22.3474 O   0  0  0  0  0  0  0  0  0  1  0  0
  -23.8712   -2.9041   24.3787 F   0  0  0  0  0  0  0  0  0  0  0  0
  -20.4592   -6.1708   24.0754 F   0  0  0  0  0  0  0  0  0  0  0  0
  1  2  1  0  0  0  0
  1  5  2  0  0  0  0
  2  6  2  0  0  0  0
  3  8  2  0  0  0  0
  3 16  1  0  0  0  0
  4  9  1  0  0  0  0
  4 16  2  0  0  0  0
  5 18  1  0  0  0  0
  6 20  1  0  0  0  0
  7 10  2  0  0  0  0
  7 19  1  0  0  0  0
  8 24  1  0  0  0  0
  9 24  2  0  0  0  0
 10 25  1  0  0  0  0
 11 12  2  0  0  0  0
 11 26  1  0  0  0  0
 12 27  1  0  0  0  0
 13 21  1  0  0  0  0
 13 25  2  0  0  0  0
 14 22  2  0  0  0  0
 14 30  1  0  0  0  0
 15 27  2  0  0  0  0
 15 28  1  0  0  0  0
 16 29  1  0  0  0  0
 17 29  1  0  0  0  0
 17 32  2  0  0  0  0
 17 33  1  0  0  0  0
 18 20  2  0  0  0  0
 18 38  1  0  0  0  0
 19 21  2  0  0  0  0
 19 39  1  0  0  0  0
 20 47  1  0  0  0  0
 21 40  1  0  0  0  0
 22 23  1  0  0  0  0
 22 62  1  0  0  0  0
 23 31  2  0  0  0  0
 23 58  1  0  0  0  0
 24 82  1  0  0  0  0
 25 83  1  0  0  0  0
 26 28  2  0  0  0  0
 26 82  1  0  0  0  0
 27 84  1  0  0  0  0
 28 85  1  0  0  0  0
 29 66  2  0  0  0  0
 30 59  1  0  0  0  0
 30 67  2  0  0  0  0
 31 50  1  0  0  0  0
 31 67  1  0  0  0  0
 32 68  1  0  0  0  0
 32 71  1  0  0  0  0
 33 72  1  0  0  0  0
 33 77  2  0  0  0  0
 34 48  1  0  0  0  0
 34 73  1  0  0  0  0
 34 78  2  0  0  0  0
 35 63  1  0  0  0  0
 35 69  1  0  0  0  0
 35 79  2  0  0  0  0
 36 64  1  0  0  0  0
 36 74  1  0  0  0  0
 36 80  2  0  0  0  0
 37 70  1  0  0  0  0
 37 75  1  0  0  0  0
 37 81  2  0  0  0  0
 38 41  1  0  0  0  0
 39 48  1  0  0  0  0
 40 69  1  0  0  0  0
 41 43  1  0  0  0  0
 42 44  1  0  0  0  0
 42 45  1  0  0  0  0
 43 47  1  0  0  0  0
 44 49  1  0  0  0  0
 45 70  1  0  0  0  0
 46 49  1  0  0  0  0
 46 70  1  0  0  0  0
 47 73  1  0  0  0  0
 48 69  1  0  0  0  0
 49 68  1  0  0  0  0
 51 58  1  0  0  0  0
 52 62  1  0  0  0  0
 53 64  1  0  0  0  0
 54 65  1  0  0  0  0
 55 65  1  0  0  0  0
 56 65  1  0  0  0  0
 57 76  1  0  0  0  0
 59 61  1  0  0  0  0
 60 62  1  0  0  0  0
 60 75  1  0  0  0  0
 61 83  1  0  0  0  0
 63 65  1  0  0  0  0
 63 74  1  0  0  0  0
 64 76  1  0  0  0  0
 66 68  1  0  0  0  0
M  CHG  1  76   1
M  ISO  4  37 100  61 101  75 100  83 101
M  END
> <Batch ID>
0096

> <Smiles>
CCc1c(C(C)C[100NH:0][100C:0](=O)N2CCCC(n3nc(-c4ccc(Oc5ccc(F)cc5F)cc4)c(C(N)=O)c3N)C2)cc(C[101CH2:1][101O:1]c2ccc3c(c2)CN(C(=O)C(NC(=O)C(C)NC)C(C)(C)C)C(C(=O)NC2CCCc4ccccc42)C3)nc1C

> <Shape>
0.314

> <Color>
0.194

> <Negative vol penalty>
0.000

$$$$

  -OEChem-04052319243D

 78 86  0     1  0  0  0  0  0999 V2000
  -30.8482  -33.6991   22.0657 C   0  0  0  0  0  0  0  0  0  0  0  0
  -30.4989  -32.3525   22.0588 C   0  0  0  0  0  0  0  0  0  0  0  0
  -26.3415  -13.8299   19.3135 C   0  0  0  0  0  0  0  0  0  0  0  0
  -26.4626  -13.1706   21.6346 C   0  0  0  0  0  0  0  0  0  0  0  0
  -29.9555  -34.6471   22.5638 C   0  0  0  0  0  0  0  0  0  0  0  0
  -29.2569  -31.9530   22.5511 C   0  0  0  0  0  0  0  0  0  0  0  0
  -26.9658  -28.5857   19.5416 C   0  0  0  0  0  0  0  0  0  0  0  0
  -25.0570  -13.2930   19.2279 C   0  0  0  0  0  0  0  0  0  0  0  0
  -25.1780  -12.6337   21.5491 C   0  0  0  0  0  0  0  0  0  0  0  0
  -27.4093  -27.2656   19.6096 C   0  0  0  0  0  0  0  0  0  0  0  0
  -23.7278   -9.8205   20.3602 C   0  0  0  0  0  0  0  0  0  0  0  0
  -23.5127   -8.5619   20.9217 C   0  0  0  0  0  0  0  0  0  0  0  0
  -25.5377  -26.7164   21.0290 C   0  0  0  0  0  0  0  0  0  0  0  0
  -21.8573   -9.5071   22.4061 C   0  0  0  0  0  0  0  0  0  0  0  0
  -27.0443  -13.7687   20.5168 C   0  0  0  0  0  0  0  0  0  0  0  0
  -29.5020  -13.9456   19.8563 C   0  0  0  0  0  0  0  0  0  0  0  0
  -28.6981  -34.2601   23.0536 C   0  0  0  0  0  0  0  0  0  0  0  0
  -25.8090  -28.9842   20.2268 C   0  0  0  0  0  0  0  0  0  0  0  0
  -28.3470  -32.8967   23.0575 C   0  0  0  0  0  0  0  0  0  0  0  0
  -25.0802  -28.0415   20.9660 C   0  0  0  0  0  0  0  0  0  0  0  0
  -24.4752  -12.6949   20.3457 C   0  0  0  0  0  0  0  0  0  0  0  0
  -26.6968  -26.3314   20.3558 C   0  0  0  0  0  0  0  0  0  0  0  0
  -23.0076  -10.9224   20.8217 C   0  0  0  0  0  0  0  0  0  0  0  0
  -22.5774   -8.4052   21.9446 C   0  0  0  0  0  0  0  0  0  0  0  0
  -22.0724  -10.7657   21.8446 C   0  0  0  0  0  0  0  0  0  0  0  0
  -28.3715  -14.3226   20.6057 C   0  0  0  0  0  0  0  0  0  0  0  0
  -30.5054  -14.7650   20.3126 C   0  0  0  0  0  0  0  0  0  0  0  0
  -29.6333  -12.9442   18.8386 C   0  0  0  0  0  0  0  0  0  0  0  0
  -25.1818  -31.0584   22.5523 C   0  0  0  0  0  0  0  0  0  0  0  0
  -22.1059  -30.2527   21.9106 C   0  0  0  0  0  0  0  0  0  0  0  0
  -19.9138  -27.9607   20.6504 C   0  0  0  0  0  0  0  0  0  0  0  0
  -30.4999  -20.1612   22.9071 C   0  0  0  0  0  0  0  0  0  0  0  0
  -27.7855  -35.3159   23.6255 C   0  0  0  0  0  0  0  0  0  0  0  0
  -25.3291  -30.4058   20.1216 C   0  0  0  0  0  0  0  0  0  0  0  0
  -23.8209  -28.4139   21.7034 C   0  0  0  0  0  0  0  0  0  0  0  0
  -26.3401  -34.8511   23.7834 C   0  0  0  0  0  0  0  0  0  0  0  0
  -30.1436  -23.2786   19.0266 C   0  0  0  0  0  0  0  0  0  0  0  0
  -31.9018  -17.1598   24.2121 C   0  0  0  0  0  0  0  0  0  0  0  0
  -26.2908  -33.4711   24.4314 C   0  0  0  0  0  0  0  0  0  0  0  0
  -31.2580  -16.0583   23.3682 C   0  0  0  0  0  0  0  0  0  0  0  0
  -30.0962  -21.9031   19.6928 C   0  0  0  0  0  0  0  0  0  0  0  0
  -28.8341  -22.7254   21.7940 C   0  0  0  0  0  0  0  0  0  0  0  0
  -28.7967  -23.9910   19.0630 C   0  0  0  0  0  0  0  0  0  0  0  0
  -29.0279  -24.2355   21.6424 C   0  0  0  0  0  0  0  0  0  0  0  0
  -30.9267  -18.3022   24.4878 C   0  0  0  0  0  0  0  0  0  0  0  0
  -29.6535  -17.7812   22.4429 C   0  0  0  0  0  0  0  0  0  0  0  0
  -26.9991  -32.4268   23.5601 C   0  0  1  0  0  0  0  0  0  0  0  0
  -24.4232  -30.8177   21.2779 C   0  0  1  0  0  0  0  0  0  0  0  0
  -30.6153  -16.6333   22.0916 C   0  0  2  0  0  0  0  0  0  0  0  0
  -30.0057  -21.9174   21.2209 C   0  0  1  0  0  0  0  0  0  0  0  0
  -28.5368  -24.8207   20.3193 C   0  0  2  0  0  0  0  0  0  1  0  0
  -17.4605  -27.5673   20.2986 C   0  0  0  0  0  0  0  0  0  0  0  0
  -21.7847  -29.6176   24.8777 C   0  0  0  0  0  0  0  0  0  0  0  0
  -19.6934  -28.3631   24.3114 C   0  0  0  0  0  0  0  0  0  0  0  0
  -19.8416  -30.8100   23.8498 C   0  0  0  0  0  0  0  0  0  0  0  0
  -20.2423  -27.8008   17.7134 C   0  0  0  0  0  0  0  0  0  0  0  0
  -21.1510  -29.1957   22.4106 C   0  0  1  0  0  0  0  0  0  0  0  0
  -18.7466  -28.1049   19.6906 C   0  0  2  0  0  0  0  0  0  0  0  0
  -20.6424  -29.4897   23.8502 C   0  0  0  0  0  0  0  0  0  0  0  0
  -28.6317  -15.3050   21.4724 N   0  0  0  0  0  0  0  0  0  0  0  0
  -29.9371  -15.5521   21.2705 N   0  0  0  0  0  0  0  0  0  0  0  0
  -23.3958  -29.8175   21.5749 N   0  0  0  0  0  0  0  0  0  0  0  0
  -30.3539  -18.8035   23.2362 N   0  0  0  0  0  0  0  0  0  0  0  0
  -31.8095  -14.8817   19.9840 N   0  0  0  0  0  0  0  0  0  0  0  0
  -29.9854  -11.6432   19.2228 N   0  0  0  0  0  0  0  0  0  0  0  0
  -26.1538  -32.0355   22.4525 N   0  0  0  0  0  0  0  0  0  0  0  0
  -20.0925  -29.0964   21.4116 N   0  0  0  0  0  0  0  0  0  0  0  0
  -29.9329  -20.5521   21.7003 N   0  0  0  0  0  0  0  0  0  0  0  0
  -19.0179  -27.3589   18.4293 N   0  3  0  0  0  0  0  0  0  0  0  0
  -29.4602  -13.1996   17.6227 O   0  0  0  0  0  0  0  0  0  0  0  0
  -24.9048  -30.4069   23.5526 O   0  0  0  0  0  0  0  0  0  0  0  0
  -21.7193  -31.4202   21.8145 O   0  0  0  0  0  0  0  0  0  0  0  0
  -20.5963  -26.9410   20.7206 O   0  0  0  0  0  0  0  0  0  0  0  0
  -31.0965  -20.9644   23.6324 O   0  0  0  0  0  0  0  0  0  0  0  0
  -23.2217  -12.1711   20.2626 O   0  0  0  0  0  0  0  0  0  0  0  0
  -27.1278  -25.0425   20.4244 O   0  0  0  0  0  0  0  0  0  1  0  0
  -22.3699   -7.1962   22.4827 F   0  0  0  0  0  0  0  0  0  0  0  0
  -21.3767  -11.8203   22.2913 F   0  0  0  0  0  0  0  0  0  0  0  0
  1  2  1  0  0  0  0
  1  5  2  0  0  0  0
  2  6  2  0  0  0  0
  3  8  2  0  0  0  0
  3 15  1  0  0  0  0
  4  9  1  0  0  0  0
  4 15  2  0  0  0  0
  5 17  1  0  0  0  0
  6 19  1  0  0  0  0
  7 10  2  0  0  0  0
  7 18  1  0  0  0  0
  8 21  1  0  0  0  0
  9 21  2  0  0  0  0
 10 22  1  0  0  0  0
 11 12  2  0  0  0  0
 11 23  1  0  0  0  0
 12 24  1  0  0  0  0
 13 20  1  0  0  0  0
 13 22  2  0  0  0  0
 14 24  2  0  0  0  0
 14 25  1  0  0  0  0
 15 26  1  0  0  0  0
 16 26  1  0  0  0  0
 16 27  2  0  0  0  0
 16 28  1  0  0  0  0
 17 19  2  0  0  0  0
 17 33  1  0  0  0  0
 18 20  2  0  0  0  0
 18 34  1  0  0  0  0
 19 47  1  0  0  0  0
 20 35  1  0  0  0  0
 21 75  1  0  0  0  0
 22 76  1  0  0  0  0
 23 25  2  0  0  0  0
 23 75  1  0  0  0  0
 24 77  1  0  0  0  0
 25 78  1  0  0  0  0
 26 60  2  0  0  0  0
 27 61  1  0  0  0  0
 27 64  1  0  0  0  0
 28 65  1  0  0  0  0
 28 70  2  0  0  0  0
 29 48  1  0  0  0  0
 29 66  1  0  0  0  0
 29 71  2  0  0  0  0
 30 57  1  0  0  0  0
 30 62  1  0  0  0  0
 30 72  2  0  0  0  0
 31 58  1  0  0  0  0
 31 67  1  0  0  0  0
 31 73  2  0  0  0  0
 32 63  1  0  0  0  0
 32 68  1  0  0  0  0
 32 74  2  0  0  0  0
 33 36  1  0  0  0  0
 34 48  1  0  0  0  0
 35 62  1  0  0  0  0
 36 39  1  0  0  0  0
 37 41  1  0  0  0  0
 37 43  1  0  0  0  0
 38 40  1  0  0  0  0
 38 45  1  0  0  0  0
 39 47  1  0  0  0  0
 40 49  1  0  0  0  0
 41 50  1  0  0  0  0
 42 44  1  0  0  0  0
 42 50  1  0  0  0  0
 43 51  1  0  0  0  0
 44 51  1  0  0  0  0
 45 63  1  0  0  0  0
 46 49  1  0  0  0  0
 46 63  1  0  0  0  0
 47 66  1  0  0  0  0
 48 62  1  0  0  0  0
 49 61  1  0  0  0  0
 50 68  1  0  0  0  0
 51 76  1  0  0  0  0
 52 58  1  0  0  0  0
 53 59  1  0  0  0  0
 54 59  1  0  0  0  0
 55 59  1  0  0  0  0
 56 69  1  0  0  0  0
 57 59  1  0  0  0  0
 57 67  1  0  0  0  0
 58 69  1  0  0  0  0
 60 61  1  0  0  0  0
M  CHG  1  69   1
M  ISO  4  32 100  51 101  68 100  76 101
M  END
> <Batch ID>
0096

> <Smiles>
CNC(C)C(=O)NC(C(=O)N1Cc2cc([101O:1][101CH:1]3CCCC([100NH:0][100C:0](=O)N4CCCC(n5nc(-c6ccc(Oc7ccc(F)cc7F)cc6)c(C(N)=O)c5N)C4)CC3)ccc2CC1C(=O)NC1CCCc2ccccc21)C(C)(C)C

> <Shape>
0.317

> <Color>
0.070

> <Negative vol penalty>
0.000

$$$$

  -OEChem-04052319243D

 87 95  0     1  0  0  0  0  0999 V2000
  -22.8842  -28.9054   23.9751 C   0  0  0  0  0  0  0  0  0  0  0  0
  -23.2771  -27.6195   24.3322 C   0  0  0  0  0  0  0  0  0  0  0  0
  -28.2181  -23.5780   21.4733 C   0  0  0  0  0  0  0  0  0  0  0  0
  -30.0465  -23.6815   19.8974 C   0  0  0  0  0  0  0  0  0  0  0  0
  -21.6984  -29.0996   23.2681 C   0  0  0  0  0  0  0  0  0  0  0  0
  -22.4837  -26.5271   23.9834 C   0  0  0  0  0  0  0  0  0  0  0  0
  -24.4089  -20.9198   22.4480 C   0  0  0  0  0  0  0  0  0  0  0  0
  -27.9711  -24.9365   21.2760 C   0  0  0  0  0  0  0  0  0  0  0  0
  -29.7994  -25.0400   19.7000 C   0  0  0  0  0  0  0  0  0  0  0  0
  -24.5159  -19.7336   23.1728 C   0  0  0  0  0  0  0  0  0  0  0  0
  -26.4582  -26.8827   18.9616 C   0  0  0  0  0  0  0  0  0  0  0  0
  -25.1332  -27.2820   18.7870 C   0  0  0  0  0  0  0  0  0  0  0  0
  -22.3690  -19.0302   22.3272 C   0  0  0  0  0  0  0  0  0  0  0  0
  -26.4751  -12.7704   20.4608 C   0  0  0  0  0  0  0  0  0  0  0  0
  -25.3021  -28.6958   20.7389 C   0  0  0  0  0  0  0  0  0  0  0  0
  -29.2559  -22.9505   20.7841 C   0  0  0  0  0  0  0  0  0  0  0  0
  -29.8500  -20.9118   22.1978 C   0  0  0  0  0  0  0  0  0  0  0  0
  -20.8949  -28.0082   22.9020 C   0  0  0  0  0  0  0  0  0  0  0  0
  -23.2743  -21.1753   21.6646 C   0  0  0  0  0  0  0  0  0  0  0  0
  -21.2853  -26.7070   23.2719 C   0  0  0  0  0  0  0  0  0  0  0  0
  -22.2512  -20.2192   21.5914 C   0  0  0  0  0  0  0  0  0  0  0  0
  -26.9444  -13.9523   19.8986 C   0  0  0  0  0  0  0  0  0  0  0  0
  -25.2088  -12.7345   21.0340 C   0  0  0  0  0  0  0  0  0  0  0  0
  -28.7617  -25.6675   20.3893 C   0  0  0  0  0  0  0  0  0  0  0  0
  -23.4946  -18.7899   23.1148 C   0  0  0  0  0  0  0  0  0  0  0  0
  -27.2052  -27.3899   20.0248 C   0  0  0  0  0  0  0  0  0  0  0  0
  -24.5551  -28.1885   19.6756 C   0  0  0  0  0  0  0  0  0  0  0  0
  -26.6271  -28.2965   20.9134 C   0  0  0  0  0  0  0  0  0  0  0  0
  -29.5119  -21.5472   20.9880 C   0  0  0  0  0  0  0  0  0  0  0  0
  -26.1151  -15.0617   19.9348 C   0  0  0  0  0  0  0  0  0  0  0  0
  -24.4573  -13.8985   21.0196 C   0  0  0  0  0  0  0  0  0  0  0  0
  -29.9868  -19.5868   21.8631 C   0  0  0  0  0  0  0  0  0  0  0  0
  -30.0247  -21.4694   23.5071 C   0  0  0  0  0  0  0  0  0  0  0  0
  -20.9910  -23.3867   21.6777 C   0  0  0  0  0  0  0  0  0  0  0  0
  -20.0918  -21.9164   18.9296 C   0  0  0  0  0  0  0  0  0  0  0  0
  -20.1070  -19.0900   17.0170 C   0  0  0  0  0  0  0  0  0  0  0  0
  -27.6196  -16.6087   17.0604 C   0  0  0  0  0  0  0  0  0  0  0  0
  -19.5978  -28.2719   22.1791 C   0  0  0  0  0  0  0  0  0  0  0  0
  -23.1861  -22.4478   20.8677 C   0  0  0  0  0  0  0  0  0  0  0  0
  -21.0215  -20.4365   20.7492 C   0  0  0  0  0  0  0  0  0  0  0  0
  -19.0034  -27.0291   21.5215 C   0  0  0  0  0  0  0  0  0  0  0  0
  -31.1375  -16.7360   18.2047 C   0  0  0  0  0  0  0  0  0  0  0  0
  -19.0274  -25.8500   22.4890 C   0  0  0  0  0  0  0  0  0  0  0  0
  -31.1536  -17.9775   19.0949 C   0  0  0  0  0  0  0  0  0  0  0  0
  -30.0768  -16.8348   17.1127 C   0  0  0  0  0  0  0  0  0  0  0  0
  -28.7242  -18.3564   18.5160 C   0  0  0  0  0  0  0  0  0  0  0  0
  -20.4642  -25.4946   22.8901 C   0  0  1  0  0  0  0  0  0  0  0  0
  -21.7535  -22.8300   20.5087 C   0  0  1  0  0  0  0  0  0  0  0  0
  -29.7506  -18.2688   19.6554 C   0  0  2  0  0  0  0  0  0  0  0  0
  -28.3000  -13.9972   19.2829 C   0  0  0  0  0  0  0  0  0  0  0  0
  -25.5573  -10.9995   22.8289 C   0  0  0  0  0  0  0  0  0  0  0  0
  -24.5700  -10.3337   20.6070 C   0  0  0  0  0  0  0  0  0  0  0  0
  -19.2562  -18.1814   14.8380 C   0  0  0  0  0  0  0  0  0  0  0  0
  -17.3021  -21.6444   20.1351 C   0  0  0  0  0  0  0  0  0  0  0  0
  -16.7837  -19.9406   18.3755 C   0  0  0  0  0  0  0  0  0  0  0  0
  -17.3360  -22.2825   17.7172 C   0  0  0  0  0  0  0  0  0  0  0  0
  -25.3117  -15.7761   17.3049 C   0  0  0  0  0  0  0  0  0  0  0  0
  -22.8491  -18.5955   16.0193 C   0  0  0  0  0  0  0  0  0  0  0  0
  -23.0766  -13.9177   21.6256 C   0  0  0  0  0  0  0  0  0  0  0  0
  -26.5662  -16.3589   19.3475 C   0  0  0  0  0  0  0  0  0  0  0  0
  -23.0735  -13.9637   23.1576 C   0  0  0  0  0  0  0  0  0  0  0  0
  -23.7082  -15.2365   23.7196 C   0  0  0  0  0  0  0  0  0  0  0  0
  -22.9490  -16.4810   23.2800 C   0  0  0  0  0  0  0  0  0  1  0  0
  -24.7002  -11.4714   21.6383 C   0  0  0  0  0  0  0  0  0  0  0  0
  -19.1705  -20.7724   18.5812 C   0  0  1  0  0  0  0  0  0  0  0  0
  -20.4121  -18.8707   15.5461 C   0  0  2  0  0  0  0  0  0  0  0  0
  -17.6702  -21.1564   18.7198 C   0  0  0  0  0  0  0  0  0  0  0  0
  -29.4386  -20.6960   19.9614 N   0  0  0  0  0  0  0  0  0  0  0  0
  -24.8793  -15.0653   20.4828 N   0  0  0  0  0  0  0  0  0  0  0  0
  -29.7326  -19.5120   20.5252 N   0  0  0  0  0  0  0  0  0  0  0  0
  -20.9791  -21.6992   19.9933 N   0  0  0  0  0  0  0  0  0  0  0  0
  -28.7617  -17.1549   17.6688 N   0  0  0  0  0  0  0  0  0  0  0  0
  -30.2987  -18.4899   22.5857 N   0  0  0  0  0  0  0  0  0  0  0  0
  -28.9112  -21.5458   24.3548 N   0  0  0  0  0  0  0  0  0  0  0  0
  -21.1161  -24.7543   21.8311 N   0  0  0  0  0  0  0  0  0  0  0  0
  -19.5536  -20.3324   17.2441 N   0  0  0  0  0  0  0  0  0  0  0  0
  -26.5151  -16.3529   17.8871 N   0  0  0  0  0  0  0  0  0  0  0  0
  -21.6299  -18.0259   15.3901 N   0  3  0  0  0  0  0  0  0  0  0  0
  -31.1318  -21.9027   23.9073 O   0  0  0  0  0  0  0  0  0  0  0  0
  -20.3365  -22.6316   22.3870 O   0  0  0  0  0  0  0  0  0  0  0  0
  -20.0316  -22.9616   18.2772 O   0  0  0  0  0  0  0  0  0  0  0  0
  -20.3334  -18.2425   17.8778 O   0  0  0  0  0  0  0  0  0  0  0  0
  -27.5922  -16.3549   15.8494 O   0  0  0  0  0  0  0  0  0  0  0  0
  -28.5208  -26.9931   20.1963 O   0  0  0  0  0  0  0  0  0  0  0  0
  -23.5963  -17.6316   23.8218 O   0  0  0  0  0  0  0  0  0  1  0  0
  -23.2831  -28.5730   19.5070 F   0  0  0  0  0  0  0  0  0  0  0  0
  -27.3401  -28.7881   21.9361 F   0  0  0  0  0  0  0  0  0  0  0  0
  1  2  1  0  0  0  0
  1  5  2  0  0  0  0
  2  6  2  0  0  0  0
  3  8  2  0  0  0  0
  3 16  1  0  0  0  0
  4  9  1  0  0  0  0
  4 16  2  0  0  0  0
  5 18  1  0  0  0  0
  6 20  1  0  0  0  0
  7 10  2  0  0  0  0
  7 19  1  0  0  0  0
  8 24  1  0  0  0  0
  9 24  2  0  0  0  0
 10 25  1  0  0  0  0
 11 12  2  0  0  0  0
 11 26  1  0  0  0  0
 12 27  1  0  0  0  0
 13 21  1  0  0  0  0
 13 25  2  0  0  0  0
 14 22  2  0  0  0  0
 14 23  1  0  0  0  0
 15 27  2  0  0  0  0
 15 28  1  0  0  0  0
 16 29  1  0  0  0  0
 17 29  1  0  0  0  0
 17 32  2  0  0  0  0
 17 33  1  0  0  0  0
 18 20  2  0  0  0  0
 18 38  1  0  0  0  0
 19 21  2  0  0  0  0
 19 39  1  0  0  0  0
 20 47  1  0  0  0  0
 21 40  1  0  0  0  0
 22 30  1  0  0  0  0
 22 50  1  0  0  0  0
 23 31  2  0  0  0  0
 23 64  1  0  0  0  0
 24 84  1  0  0  0  0
 25 85  1  0  0  0  0
 26 28  2  0  0  0  0
 26 84  1  0  0  0  0
 27 86  1  0  0  0  0
 28 87  1  0  0  0  0
 29 68  2  0  0  0  0
 30 60  1  0  0  0  0
 30 69  2  0  0  0  0
 31 59  1  0  0  0  0
 31 69  1  0  0  0  0
 32 70  1  0  0  0  0
 32 73  1  0  0  0  0
 33 74  1  0  0  0  0
 33 79  2  0  0  0  0
 34 48  1  0  0  0  0
 34 75  1  0  0  0  0
 34 80  2  0  0  0  0
 35 65  1  0  0  0  0
 35 71  1  0  0  0  0
 35 81  2  0  0  0  0
 36 66  1  0  0  0  0
 36 76  1  0  0  0  0
 36 82  2  0  0  0  0
 37 72  1  0  0  0  0
 37 77  1  0  0  0  0
 37 83  2  0  0  0  0
 38 41  1  0  0  0  0
 39 48  1  0  0  0  0
 40 71  1  0  0  0  0
 41 43  1  0  0  0  0
 42 44  1  0  0  0  0
 42 45  1  0  0  0  0
 43 47  1  0  0  0  0
 44 49  1  0  0  0  0
 45 72  1  0  0  0  0
 46 49  1  0  0  0  0
 46 72  1  0  0  0  0
 47 75  1  0  0  0  0
 48 71  1  0  0  0  0
 49 70  1  0  0  0  0
 51 64  1  0  0  0  0
 52 64  1  0  0  0  0
 53 66  1  0  0  0  0
 54 67  1  0  0  0  0
 55 67  1  0  0  0  0
 56 67  1  0  0  0  0
 57 77  1  0  0  0  0
 58 78  1  0  0  0  0
 59 61  1  0  0  0  0
 60 77  1  0  0  0  0
 61 62  1  0  0  0  0
 62 63  1  0  0  0  0
 63 85  1  0  0  0  0
 65 67  1  0  0  0  0
 65 76  1  0  0  0  0
 66 78  1  0  0  0  0
 68 70  1  0  0  0  0
M  CHG  1  78   1
M  ISO  4  37 100  63 101  77 100  85 101
M  END
> <Batch ID>
0096

> <Smiles>
CNC(C)C(=O)NC(C(=O)N1Cc2cc([101O:1][101CH2:1]CCCc3nc(C[100N:0](C)[100C:0](=O)N4CCCC(n5nc(-c6ccc(Oc7ccc(F)cc7F)cc6)c(C(N)=O)c5N)C4)c(C)cc3C(C)C)ccc2CC1C(=O)NC1CCCc2ccccc21)C(C)(C)C

> <Shape>
0.211

> <Color>
0.074

> <Negative vol penalty>
0.000

$$$$

  -OEChem-04052319243D

 78 85  0     1  0  0  0  0  0999 V2000
  -30.0973  -23.3208   18.2850 C   0  0  0  0  0  0  0  0  0  0  0  0
  -28.8574  -23.4200   18.9083 C   0  0  0  0  0  0  0  0  0  0  0  0
  -24.4823  -12.9329   19.5798 C   0  0  0  0  0  0  0  0  0  0  0  0
  -25.4571  -13.4122   21.7378 C   0  0  0  0  0  0  0  0  0  0  0  0
  -31.1502  -24.1369   18.6963 C   0  0  0  0  0  0  0  0  0  0  0  0
  -28.6702  -24.3347   19.9440 C   0  0  0  0  0  0  0  0  0  0  0  0
  -24.3334  -26.9116   19.4998 C   0  0  0  0  0  0  0  0  0  0  0  0
  -25.1889  -11.7315   19.5274 C   0  0  0  0  0  0  0  0  0  0  0  0
  -26.1638  -12.2107   21.6855 C   0  0  0  0  0  0  0  0  0  0  0  0
  -23.1620  -26.2562   19.8765 C   0  0  0  0  0  0  0  0  0  0  0  0
  -28.5014   -9.4411   21.9585 C   0  0  0  0  0  0  0  0  0  0  0  0
  -29.8470   -9.4639   22.3248 C   0  0  0  0  0  0  0  0  0  0  0  0
  -23.2024  -27.4131   21.9929 C   0  0  0  0  0  0  0  0  0  0  0  0
  -30.3013  -11.0469   20.5570 C   0  0  0  0  0  0  0  0  0  0  0  0
  -24.6164  -13.7733   20.6850 C   0  0  0  0  0  0  0  0  0  0  0  0
  -22.6016  -15.2229   21.2743 C   0  0  0  0  0  0  0  0  0  0  0  0
  -30.9731  -25.0688   19.7311 C   0  0  0  0  0  0  0  0  0  0  0  0
  -24.9552  -27.8160   20.3727 C   0  0  0  0  0  0  0  0  0  0  0  0
  -29.7222  -25.1631   20.3704 C   0  0  0  0  0  0  0  0  0  0  0  0
  -24.3803  -28.0806   21.6239 C   0  0  0  0  0  0  0  0  0  0  0  0
  -26.0296  -11.3704   20.5802 C   0  0  0  0  0  0  0  0  0  0  0  0
  -22.5978  -26.5048   21.1243 C   0  0  0  0  0  0  0  0  0  0  0  0
  -28.0556  -10.2211   20.8914 C   0  0  0  0  0  0  0  0  0  0  0  0
  -30.7470  -10.2668   21.6241 C   0  0  0  0  0  0  0  0  0  0  0  0
  -28.9556  -11.0240   20.1907 C   0  0  0  0  0  0  0  0  0  0  0  0
  -23.8871  -15.0148   20.7395 C   0  0  0  0  0  0  0  0  0  0  0  0
  -22.3637  -16.5623   21.0852 C   0  0  0  0  0  0  0  0  0  0  0  0
  -21.7029  -14.2888   21.8872 C   0  0  0  0  0  0  0  0  0  0  0  0
  -27.7824  -27.9545   21.8189 C   0  0  0  0  0  0  0  0  0  0  0  0
  -26.7328  -30.8834   22.7369 C   0  0  0  0  0  0  0  0  0  0  0  0
  -24.0892  -32.9547   23.3432 C   0  0  0  0  0  0  0  0  0  0  0  0
  -24.0488  -21.8792   21.2775 C   0  0  0  0  0  0  0  0  0  0  0  0
  -32.1541  -25.8963   20.1729 C   0  0  0  0  0  0  0  0  0  0  0  0
  -26.2039  -28.5349   19.9408 C   0  0  0  0  0  0  0  0  0  0  0  0
  -24.9976  -29.0578   22.5896 C   0  0  0  0  0  0  0  0  0  0  0  0
  -31.7681  -27.1020   21.0259 C   0  0  0  0  0  0  0  0  0  0  0  0
  -24.8883  -20.0034   18.3701 C   0  0  0  0  0  0  0  0  0  0  0  0
  -30.7682  -26.6952   22.1037 C   0  0  0  0  0  0  0  0  0  0  0  0
  -24.6027  -18.5558   18.7736 C   0  0  0  0  0  0  0  0  0  0  0  0
  -25.4513  -20.8136   19.5357 C   0  0  0  0  0  0  0  0  0  0  0  0
  -24.3511  -19.3310   21.1683 C   0  0  0  0  0  0  0  0  0  0  0  0
  -29.4729  -26.1605   21.4810 C   0  0  1  0  0  0  0  0  0  0  0  0
  -27.0331  -29.0493   21.1135 C   0  0  1  0  0  0  0  0  0  0  0  0
  -23.7295  -18.4889   20.0410 C   0  0  2  0  0  0  0  0  0  0  0  0
  -23.5447  -35.2783   24.1192 C   0  0  0  0  0  0  0  0  0  0  0  0
  -27.3483  -30.0651   25.6111 C   0  0  0  0  0  0  0  0  0  0  0  0
  -25.9360  -31.9818   26.3856 C   0  0  0  0  0  0  0  0  0  0  0  0
  -27.9885  -32.4130   25.0351 C   0  0  0  0  0  0  0  0  0  0  0  0
  -20.3113  -24.0780   24.6339 C   0  0  0  0  0  0  0  0  0  0  0  0
  -19.0840  -24.4862   22.4861 C   0  0  0  0  0  0  0  0  0  0  0  0
  -22.7592  -33.6223   20.7850 C   0  0  0  0  0  0  0  0  0  0  0  0
  -22.6011  -22.7970   23.0723 C   0  0  0  0  0  0  0  0  0  0  0  0
  -21.2731  -25.6151   22.8877 C   0  0  0  0  0  0  0  0  0  1  0  0
  -25.9525  -31.4192   23.9129 C   0  0  1  0  0  0  0  0  0  0  0  0
  -23.8121  -34.3853   22.9176 C   0  0  2  0  0  0  0  0  0  0  0  0
  -21.2362  -23.1188   22.4699 C   0  0  2  0  0  0  0  0  0  0  0  0
  -26.7955  -31.4498   25.2190 C   0  0  0  0  0  0  0  0  0  0  0  0
  -20.4758  -24.3078   23.1196 C   0  0  0  0  0  0  0  0  0  0  0  0
  -24.4280  -16.1326   20.2475 N   0  0  0  0  0  0  0  0  0  0  0  0
  -23.4776  -17.0559   20.4722 N   0  0  0  0  0  0  0  0  0  0  0  0
  -26.2213  -29.7308   22.1238 N   0  0  0  0  0  0  0  0  0  0  0  0
  -24.5756  -20.7095   20.7054 N   0  0  0  0  0  0  0  0  0  0  0  0
  -21.3124  -17.3543   21.3850 N   0  0  0  0  0  0  0  0  0  0  0  0
  -22.1053  -12.9512   22.0017 N   0  0  0  0  0  0  0  0  0  0  0  0
  -28.6520  -27.2534   21.0055 N   0  0  0  0  0  0  0  0  0  0  0  0
  -25.4388  -32.7216   23.5026 N   0  0  0  0  0  0  0  0  0  0  0  0
  -23.2232  -21.6909   22.3792 N   0  0  0  0  0  0  0  0  0  0  0  0
  -22.6240  -34.4376   22.0195 N   0  3  0  0  0  0  0  0  0  0  0  0
  -20.5698  -14.6271   22.3057 O   0  0  0  0  0  0  0  0  0  0  0  0
  -27.5872  -27.7613   23.0132 O   0  0  0  0  0  0  0  0  0  0  0  0
  -27.7544  -31.4700   22.3711 O   0  0  0  0  0  0  0  0  0  0  0  0
  -23.1973  -32.1279   23.5204 O   0  0  0  0  0  0  0  0  0  0  0  0
  -24.2916  -23.0074   20.8358 O   0  0  0  0  0  0  0  0  0  0  0  0
  -26.7192  -10.1979   20.5295 O   0  0  0  0  0  0  0  0  0  0  0  0
  -21.4548  -25.8660   21.4947 O   0  0  0  0  0  0  0  0  0  1  0  0
  -32.0390  -10.2898   21.9769 F   0  0  0  0  0  0  0  0  0  0  0  0
  -28.5331  -11.7765   19.1655 F   0  0  0  0  0  0  0  0  0  0  0  0
  -20.4616  -21.9984   22.6055 F   0  0  0  0  0  0  0  0  0  0  0  0
  1  2  1  0  0  0  0
  1  5  2  0  0  0  0
  2  6  2  0  0  0  0
  3  8  2  0  0  0  0
  3 15  1  0  0  0  0
  4  9  1  0  0  0  0
  4 15  2  0  0  0  0
  5 17  1  0  0  0  0
  6 19  1  0  0  0  0
  7 10  2  0  0  0  0
  7 18  1  0  0  0  0
  8 21  1  0  0  0  0
  9 21  2  0  0  0  0
 10 22  1  0  0  0  0
 11 12  2  0  0  0  0
 11 23  1  0  0  0  0
 12 24  1  0  0  0  0
 13 20  1  0  0  0  0
 13 22  2  0  0  0  0
 14 24  2  0  0  0  0
 14 25  1  0  0  0  0
 15 26  1  0  0  0  0
 16 26  1  0  0  0  0
 16 27  2  0  0  0  0
 16 28  1  0  0  0  0
 17 19  2  0  0  0  0
 17 33  1  0  0  0  0
 18 20  2  0  0  0  0
 18 34  1  0  0  0  0
 19 42  1  0  0  0  0
 20 35  1  0  0  0  0
 21 74  1  0  0  0  0
 22 75  1  0  0  0  0
 23 25  2  0  0  0  0
 23 74  1  0  0  0  0
 24 76  1  0  0  0  0
 25 77  1  0  0  0  0
 26 59  2  0  0  0  0
 27 60  1  0  0  0  0
 27 63  1  0  0  0  0
 28 64  1  0  0  0  0
 28 69  2  0  0  0  0
 29 43  1  0  0  0  0
 29 65  1  0  0  0  0
 29 70  2  0  0  0  0
 30 54  1  0  0  0  0
 30 61  1  0  0  0  0
 30 71  2  0  0  0  0
 31 55  1  0  0  0  0
 31 66  1  0  0  0  0
 31 72  2  0  0  0  0
 32 62  1  0  0  0  0
 32 67  1  0  0  0  0
 32 73  2  0  0  0  0
 33 36  1  0  0  0  0
 34 43  1  0  0  0  0
 35 61  1  0  0  0  0
 36 38  1  0  0  0  0
 37 39  1  0  0  0  0
 37 40  1  0  0  0  0
 38 42  1  0  0  0  0
 39 44  1  0  0  0  0
 40 62  1  0  0  0  0
 41 44  1  0  0  0  0
 41 62  1  0  0  0  0
 42 65  1  0  0  0  0
 43 61  1  0  0  0  0
 44 60  1  0  0  0  0
 45 55  1  0  0  0  0
 46 57  1  0  0  0  0
 47 57  1  0  0  0  0
 48 57  1  0  0  0  0
 49 58  1  0  0  0  0
 50 58  1  0  0  0  0
 51 68  1  0  0  0  0
 52 56  1  0  0  0  0
 52 67  1  0  0  0  0
 53 58  1  0  0  0  0
 53 75  1  0  0  0  0
 54 57  1  0  0  0  0
 54 66  1  0  0  0  0
 55 68  1  0  0  0  0
 56 58  1  0  0  0  0
 56 78  1  0  0  0  0
 59 60  1  0  0  0  0
M  CHG  1  68   1
M  ISO  4  32 100  53 101  67 100  75 101
M  END
> <Batch ID>
0096

> <Smiles>
CNC(C)C(=O)NC(C(=O)N1Cc2cc([101O:1][101CH2:1]C(C)(C)C(F)C[100NH:0][100C:0](=O)N3CCCC(n4nc(-c5ccc(Oc6ccc(F)cc6F)cc5)c(C(N)=O)c4N)C3)ccc2CC1C(=O)NC1CCCc2ccccc21)C(C)(C)C

> <Shape>
0.218

> <Color>
0.085

> <Negative vol penalty>
0.000

$$$$

  -OEChem-04052319243D

 88 96  0     1  0  0  0  0  0999 V2000
  -18.2101  -28.1408   22.3418 C   0  0  0  0  0  0  0  0  0  0  0  0
  -18.6037  -26.8701   21.9348 C   0  0  0  0  0  0  0  0  0  0  0  0
  -30.0339  -23.5014   20.8175 C   0  0  0  0  0  0  0  0  0  0  0  0
  -27.7569  -22.7895   20.4359 C   0  0  0  0  0  0  0  0  0  0  0  0
  -19.1444  -29.0144   22.8966 C   0  0  0  0  0  0  0  0  0  0  0  0
  -19.9322  -26.4725   22.0814 C   0  0  0  0  0  0  0  0  0  0  0  0
  -21.9686  -20.8467   23.3889 C   0  0  0  0  0  0  0  0  0  0  0  0
  -29.6372  -24.8335   20.6998 C   0  0  0  0  0  0  0  0  0  0  0  0
  -27.3602  -24.1216   20.3181 C   0  0  0  0  0  0  0  0  0  0  0  0
  -22.4712  -19.8216   22.5887 C   0  0  0  0  0  0  0  0  0  0  0  0
  -27.4669  -26.5549   17.9732 C   0  0  0  0  0  0  0  0  0  0  0  0
  -26.6143  -26.8865   16.9203 C   0  0  0  0  0  0  0  0  0  0  0  0
  -24.7183  -20.5511   23.0762 C   0  0  0  0  0  0  0  0  0  0  0  0
  -25.2977  -13.5020   19.6749 C   0  0  0  0  0  0  0  0  0  0  0  0
  -24.9577  -27.6531   18.5031 C   0  0  0  0  0  0  0  0  0  0  0  0
  -29.0938  -22.4794   20.6855 C   0  0  0  0  0  0  0  0  0  0  0  0
  -30.1029  -20.4897   21.9225 C   0  0  0  0  0  0  0  0  0  0  0  0
  -20.4830  -28.6239   23.0589 C   0  0  0  0  0  0  0  0  0  0  0  0
  -22.8382  -21.7399   24.0310 C   0  0  0  0  0  0  0  0  0  0  0  0
  -20.8856  -27.3422   22.6377 C   0  0  0  0  0  0  0  0  0  0  0  0
  -24.2243  -21.5851   23.8860 C   0  0  0  0  0  0  0  0  0  0  0  0
  -24.7060  -13.8007   20.9270 C   0  0  0  0  0  0  0  0  0  0  0  0
  -28.3003  -25.1436   20.4501 C   0  0  0  0  0  0  0  0  0  0  0  0
  -23.8462  -19.6755   22.4299 C   0  0  0  0  0  0  0  0  0  0  0  0
  -27.0649  -26.7723   19.2912 C   0  0  0  0  0  0  0  0  0  0  0  0
  -25.3598  -27.4356   17.1852 C   0  0  0  0  0  0  0  0  0  0  0  0
  -25.8103  -27.3214   19.5560 C   0  0  0  0  0  0  0  0  0  0  0  0
  -29.5031  -21.1032   20.8065 C   0  0  0  0  0  0  0  0  0  0  0  0
  -26.0597  -12.3665   19.8405 C   0  0  0  0  0  0  0  0  0  0  0  0
  -25.1247  -12.8387   21.8197 C   0  0  0  0  0  0  0  0  0  0  0  0
  -30.2937  -19.1856   21.5361 C   0  0  0  0  0  0  0  0  0  0  0  0
  -30.4560  -21.0486   23.1948 C   0  0  0  0  0  0  0  0  0  0  0  0
  -23.3336  -24.8768   23.8954 C   0  0  0  0  0  0  0  0  0  0  0  0
  -25.3477  -24.2721   26.3652 C   0  0  0  0  0  0  0  0  0  0  0  0
  -27.3090  -22.0224   28.0201 C   0  0  0  0  0  0  0  0  0  0  0  0
  -28.4214  -14.5788   19.2516 C   0  0  0  0  0  0  0  0  0  0  0  0
  -21.4667  -29.6199   23.6202 C   0  0  0  0  0  0  0  0  0  0  0  0
  -22.2809  -22.8240   24.9122 C   0  0  0  0  0  0  0  0  0  0  0  0
  -25.2008  -22.5052   24.5702 C   0  0  0  0  0  0  0  0  0  0  0  0
  -22.7755  -28.9870   24.0858 C   0  0  0  0  0  0  0  0  0  0  0  0
  -29.8786  -17.0013   16.9921 C   0  0  0  0  0  0  0  0  0  0  0  0
  -23.3014  -28.0139   23.0354 C   0  0  0  0  0  0  0  0  0  0  0  0
  -29.9591  -18.2405   17.8855 C   0  0  0  0  0  0  0  0  0  0  0  0
  -28.6096  -16.2009   17.2702 C   0  0  0  0  0  0  0  0  0  0  0  0
  -28.5167  -17.0324   19.5883 C   0  0  0  0  0  0  0  0  0  0  0  0
  -22.3123  -26.8654   22.8031 C   0  0  1  0  0  0  0  0  0  0  0  0
  -23.2443  -23.9910   25.1058 C   0  0  1  0  0  0  0  0  0  0  0  0
  -29.7886  -17.8722   19.3712 C   0  0  2  0  0  0  0  0  0  0  0  0
  -23.3082  -12.4302   23.5188 C   0  0  0  0  0  0  0  0  0  0  0  0
  -25.2995  -13.8543   24.1202 C   0  0  0  0  0  0  0  0  0  0  0  0
  -28.8628  -21.8314   29.9814 C   0  0  0  0  0  0  0  0  0  0  0  0
  -25.5881   -9.7806   22.2260 C   0  0  0  0  0  0  0  0  0  0  0  0
  -27.5872  -11.2111   22.8291 C   0  0  0  0  0  0  0  0  0  0  0  0
  -27.5245  -25.7035   24.7769 C   0  0  0  0  0  0  0  0  0  0  0  0
  -29.2196  -24.6706   26.3025 C   0  0  0  0  0  0  0  0  0  0  0  0
  -27.5015  -26.2279   27.2220 C   0  0  0  0  0  0  0  0  0  0  0  0
  -25.5905  -20.0019   29.3329 C   0  0  0  0  0  0  0  0  0  0  0  0
  -23.7875  -14.9600   21.2200 C   0  0  0  0  0  0  0  0  0  0  0  0
  -24.5114  -16.3019   21.3497 C   0  0  0  0  0  0  0  0  0  0  0  0
  -28.3347  -12.1484   18.7590 C   0  0  0  0  0  0  0  0  0  0  0  0
  -23.5670  -17.4796   21.5604 C   0  0  0  0  0  0  0  0  0  1  0  0
  -24.8118  -12.6703   23.2549 C   0  0  0  0  0  0  0  0  0  0  0  0
  -26.8828  -11.6279   18.8608 C   0  0  2  0  0  0  0  0  0  0  0  0
  -26.8078  -23.9095   26.4899 C   0  0  1  0  0  0  0  0  0  0  0  0
  -27.4294  -21.6844   29.4952 C   0  0  2  0  0  0  0  0  0  0  0  0
  -26.5981  -10.8175   21.7304 C   0  0  0  0  0  0  0  0  0  0  0  0
  -27.7452  -25.1115   26.1832 C   0  0  0  0  0  0  0  0  0  0  0  0
  -29.3248  -20.2584   19.7875 N   0  0  0  0  0  0  0  0  0  0  0  0
  -25.9473  -11.9724   21.1482 N   0  0  0  0  0  0  0  0  0  0  0  0
  -29.8156  -19.1006   20.2617 N   0  0  0  0  0  0  0  0  0  0  0  0
  -24.6068  -23.5535   25.4162 N   0  0  0  0  0  0  0  0  0  0  0  0
  -28.5171  -15.8665   18.6984 N   0  0  0  0  0  0  0  0  0  0  0  0
  -30.8223  -18.1147   22.1656 N   0  0  0  0  0  0  0  0  0  0  0  0
  -29.5066  -21.0163   24.2254 N   0  0  0  0  0  0  0  0  0  0  0  0
  -22.4016  -25.8968   23.8747 N   0  0  0  0  0  0  0  0  0  0  0  0
  -26.9760  -23.3461   27.8250 N   0  0  0  0  0  0  0  0  0  0  0  0
  -28.4214  -13.5298   18.3404 N   0  0  0  0  0  0  0  0  0  0  0  0
  -26.3058  -11.6339   17.4640 N   0  3  0  0  0  0  0  0  0  0  0  0
  -26.9907  -20.2818   29.7427 N   0  3  0  0  0  0  0  0  0  0  0  0
  -31.5741  -21.5762   23.4064 O   0  0  0  0  0  0  0  0  0  0  0  0
  -24.1860  -24.6524   23.0440 O   0  0  0  0  0  0  0  0  0  0  0  0
  -24.8800  -25.1552   27.0884 O   0  0  0  0  0  0  0  0  0  0  0  0
  -27.4956  -21.1957   27.1300 O   0  0  0  0  0  0  0  0  0  0  0  0
  -28.3468  -14.3782   20.4687 O   0  0  0  0  0  0  0  0  0  0  0  0
  -27.9128  -26.4433   20.3354 O   0  0  0  0  0  0  0  0  0  0  0  0
  -24.3394  -18.6761   21.6489 O   0  0  0  0  0  0  0  0  0  1  0  0
  -24.5417  -27.7555   16.1739 F   0  0  0  0  0  0  0  0  0  0  0  0
  -25.4191  -27.5337   20.8200 F   0  0  0  0  0  0  0  0  0  0  0  0
  1  2  1  0  0  0  0
  1  5  2  0  0  0  0
  2  6  2  0  0  0  0
  3  8  2  0  0  0  0
  3 16  1  0  0  0  0
  4  9  1  0  0  0  0
  4 16  2  0  0  0  0
  5 18  1  0  0  0  0
  6 20  1  0  0  0  0
  7 10  2  0  0  0  0
  7 19  1  0  0  0  0
  8 23  1  0  0  0  0
  9 23  2  0  0  0  0
 10 24  1  0  0  0  0
 11 12  2  0  0  0  0
 11 25  1  0  0  0  0
 12 26  1  0  0  0  0
 13 21  1  0  0  0  0
 13 24  2  0  0  0  0
 14 22  1  0  0  0  0
 14 29  2  0  0  0  0
 15 26  2  0  0  0  0
 15 27  1  0  0  0  0
 16 28  1  0  0  0  0
 17 28  1  0  0  0  0
 17 31  2  0  0  0  0
 17 32  1  0  0  0  0
 18 20  2  0  0  0  0
 18 37  1  0  0  0  0
 19 21  2  0  0  0  0
 19 38  1  0  0  0  0
 20 46  1  0  0  0  0
 21 39  1  0  0  0  0
 22 30  2  0  0  0  0
 22 58  1  0  0  0  0
 23 85  1  0  0  0  0
 24 86  1  0  0  0  0
 25 27  2  0  0  0  0
 25 85  1  0  0  0  0
 26 87  1  0  0  0  0
 27 88  1  0  0  0  0
 28 68  2  0  0  0  0
 29 63  1  0  0  0  0
 29 69  1  0  0  0  0
 30 62  1  0  0  0  0
 30 69  1  0  0  0  0
 31 70  1  0  0  0  0
 31 73  1  0  0  0  0
 32 74  1  0  0  0  0
 32 80  2  0  0  0  0
 33 47  1  0  0  0  0
 33 75  1  0  0  0  0
 33 81  2  0  0  0  0
 34 64  1  0  0  0  0
 34 71  1  0  0  0  0
 34 82  2  0  0  0  0
 35 65  1  0  0  0  0
 35 76  1  0  0  0  0
 35 83  2  0  0  0  0
 36 72  1  0  0  0  0
 36 77  1  0  0  0  0
 36 84  2  0  0  0  0
 37 40  1  0  0  0  0
 38 47  1  0  0  0  0
 39 71  1  0  0  0  0
 40 42  1  0  0  0  0
 41 43  1  0  0  0  0
 41 44  1  0  0  0  0
 42 46  1  0  0  0  0
 43 48  1  0  0  0  0
 44 72  1  0  0  0  0
 45 48  1  0  0  0  0
 45 72  1  0  0  0  0
 46 75  1  0  0  0  0
 47 71  1  0  0  0  0
 48 70  1  0  0  0  0
 49 62  1  0  0  0  0
 50 62  1  0  0  0  0
 51 65  1  0  0  0  0
 52 66  1  0  0  0  0
 53 66  1  0  0  0  0
 54 67  1  0  0  0  0
 55 67  1  0  0  0  0
 56 67  1  0  0  0  0
 57 79  1  0  0  0  0
 58 59  1  0  0  0  0
 59 61  1  0  0  0  0
 60 63  1  0  0  0  0
 60 77  1  0  0  0  0
 61 86  1  0  0  0  0
 63 78  1  0  0  0  0
 64 67  1  0  0  0  0
 64 76  1  0  0  0  0
 65 79  1  0  0  0  0
 66 69  1  0  0  0  0
 68 70  1  0  0  0  0
M  CHG  2  78   1  79   1
M  ISO  4  36 100  61 101  77 100  86 101
M  END
> <Batch ID>
0096

> <Smiles>
CNC(C)C(=O)NC(C(=O)N1Cc2cc([101O:1][101CH2:1]CCc3cc(C(N)C[100NH:0][100C:0](=O)N4CCCC(n5nc(-c6ccc(Oc7ccc(F)cc7F)cc6)c(C(N)=O)c5N)C4)n(C(C)C)c3C(C)C)ccc2CC1C(=O)NC1CCCc2ccccc21)C(C)(C)C

> <Shape>
0.202

> <Color>
0.064

> <Negative vol penalty>
0.000

$$$$

  -OEChem-04052319243D

 86 94  0     1  0  0  0  0  0999 V2000
  -30.2335  -32.4978   29.5645 C   0  0  0  0  0  0  0  0  0  0  0  0
  -30.6673  -31.1947   29.7856 C   0  0  0  0  0  0  0  0  0  0  0  0
  -23.2815   -9.7239   20.0401 C   0  0  0  0  0  0  0  0  0  0  0  0
  -23.7050  -10.0436   22.3971 C   0  0  0  0  0  0  0  0  0  0  0  0
  -29.3514  -32.7698   28.5196 C   0  0  0  0  0  0  0  0  0  0  0  0
  -30.2185  -30.1624   28.9626 C   0  0  0  0  0  0  0  0  0  0  0  0
  -32.3657  -23.9395   26.1375 C   0  0  0  0  0  0  0  0  0  0  0  0
  -22.5756   -8.5552   20.3254 C   0  0  0  0  0  0  0  0  0  0  0  0
  -22.9990   -8.8749   22.6825 C   0  0  0  0  0  0  0  0  0  0  0  0
  -31.9614  -22.6098   26.0282 C   0  0  0  0  0  0  0  0  0  0  0  0
  -23.5525   -5.5412   22.5768 C   0  0  0  0  0  0  0  0  0  0  0  0
  -24.1159   -4.6504   23.4904 C   0  0  0  0  0  0  0  0  0  0  0  0
  -30.5006  -23.2101   24.2048 C   0  0  0  0  0  0  0  0  0  0  0  0
  -30.7352  -17.8353   25.4274 C   0  0  0  0  0  0  0  0  0  0  0  0
  -29.3932  -17.5321   23.4414 C   0  0  0  0  0  0  0  0  0  0  0  0
  -22.1815   -4.8908   24.9178 C   0  0  0  0  0  0  0  0  0  0  0  0
  -23.8463  -10.4680   21.0759 C   0  0  0  0  0  0  0  0  0  0  0  0
  -24.0594  -12.9818   20.6976 C   0  0  0  0  0  0  0  0  0  0  0  0
  -28.8990  -31.7419   27.6773 C   0  0  0  0  0  0  0  0  0  0  0  0
  -31.8315  -24.9181   25.2869 C   0  0  0  0  0  0  0  0  0  0  0  0
  -29.3284  -30.4207   27.9062 C   0  0  0  0  0  0  0  0  0  0  0  0
  -30.9017  -24.5511   24.3036 C   0  0  0  0  0  0  0  0  0  0  0  0
  -29.6619  -18.2208   24.6242 C   0  0  0  0  0  0  0  0  0  0  0  0
  -31.5399  -16.7610   25.0476 C   0  0  0  0  0  0  0  0  0  0  0  0
  -30.1979  -16.4578   23.0617 C   0  0  0  0  0  0  0  0  0  0  0  0
  -31.2712  -16.0723   23.8648 C   0  0  0  0  0  0  0  0  0  0  0  0
  -22.4343   -8.1307   21.6466 C   0  0  0  0  0  0  0  0  0  0  0  0
  -31.0265  -22.2453   25.0637 C   0  0  0  0  0  0  0  0  0  0  0  0
  -22.3036   -6.1069   22.8337 C   0  0  0  0  0  0  0  0  0  0  0  0
  -23.4304   -4.3252   24.6608 C   0  0  0  0  0  0  0  0  0  0  0  0
  -21.6181   -5.7817   24.0042 C   0  0  0  0  0  0  0  0  0  0  0  0
  -24.5762  -11.6750   20.7818 C   0  0  0  0  0  0  0  0  0  0  0  0
  -25.1484  -13.7630   20.3969 C   0  0  0  0  0  0  0  0  0  0  0  0
  -22.7153  -13.4479   20.8754 C   0  0  0  0  0  0  0  0  0  0  0  0
  -30.1092  -27.5566   25.7061 C   0  0  0  0  0  0  0  0  0  0  0  0
  -30.6132  -27.9236   22.5228 C   0  0  0  0  0  0  0  0  0  0  0  0
  -31.3250  -26.4744   19.5162 C   0  0  0  0  0  0  0  0  0  0  0  0
  -31.0256  -13.0974   21.3277 C   0  0  0  0  0  0  0  0  0  0  0  0
  -27.9089  -32.0771   26.5901 C   0  0  0  0  0  0  0  0  0  0  0  0
  -32.2980  -26.3436   25.4000 C   0  0  0  0  0  0  0  0  0  0  0  0
  -30.3132  -25.5600   23.3527 C   0  0  0  0  0  0  0  0  0  0  0  0
  -27.7739  -30.9856   25.5315 C   0  0  0  0  0  0  0  0  0  0  0  0
  -29.3947  -13.5813   18.1999 C   0  0  0  0  0  0  0  0  0  0  0  0
  -27.6386  -29.6166   26.1905 C   0  0  0  0  0  0  0  0  0  0  0  0
  -27.9283  -13.2656   18.4994 C   0  0  0  0  0  0  0  0  0  0  0  0
  -30.3392  -12.6741   18.9854 C   0  0  0  0  0  0  0  0  0  0  0  0
  -28.6431  -12.3382   20.7416 C   0  0  0  0  0  0  0  0  0  0  0  0
  -28.8833  -29.2779   27.0196 C   0  0  1  0  0  0  0  0  0  0  0  0
  -31.3042  -27.3453   24.8201 C   0  0  1  0  0  0  0  0  0  0  0  0
  -27.6530  -13.2646   20.0151 C   0  0  2  0  0  0  0  0  0  0  0  0
  -32.6824  -16.3676   25.9260 C   0  0  0  0  0  0  0  0  0  0  0  0
  -28.8956  -16.4997   20.9195 C   0  0  0  0  0  0  0  0  0  0  0  0
  -31.6338  -27.0257   17.0876 C   0  0  0  0  0  0  0  0  0  0  0  0
  -27.5909  -28.1938   22.2024 C   0  0  0  0  0  0  0  0  0  0  0  0
  -27.8847  -27.7871   19.7496 C   0  0  0  0  0  0  0  0  0  0  0  0
  -28.9333  -29.7839   20.8153 C   0  0  0  0  0  0  0  0  0  0  0  0
  -30.8310  -13.4193   25.0694 C   0  0  0  0  0  0  0  0  0  0  0  0
  -32.7156  -12.4819   23.7274 C   0  0  0  0  0  0  0  0  0  0  0  0
  -34.1212  -25.5048   19.5321 C   0  0  0  0  0  0  0  0  0  0  0  0
  -28.7916  -19.3837   25.0348 C   0  0  0  0  0  0  0  0  0  0  0  0
  -29.8889  -15.7366   21.7904 C   0  0  0  0  0  0  0  0  0  0  0  0
  -32.1339  -14.9202   23.4582 C   0  0  0  0  0  0  0  0  0  0  0  0
  -29.3025  -20.7120   24.4872 C   0  0  0  0  0  0  0  0  0  1  0  0
  -29.8929  -27.4893   21.2693 C   0  0  1  0  0  0  0  0  0  0  0  0
  -32.3214  -26.8421   18.4315 C   0  0  2  0  0  0  0  0  0  0  0  0
  -28.5849  -28.2946   21.0282 C   0  0  0  0  0  0  0  0  0  0  0  0
  -31.5584  -13.4950   23.7188 C   0  0  0  0  0  0  0  0  0  0  0  0
  -25.8911  -11.6248   20.5529 N   0  0  0  0  0  0  0  0  0  0  0  0
  -26.2098  -12.9098   20.3218 N   0  0  0  0  0  0  0  0  0  0  0  0
  -30.7963  -26.9422   23.5072 N   0  0  0  0  0  0  0  0  0  0  0  0
  -30.0261  -12.7201   20.4158 N   0  0  0  0  0  0  0  0  0  0  0  0
  -25.2920  -15.0895   20.1919 N   0  0  0  0  0  0  0  0  0  0  0  0
  -21.7183  -12.5114   21.1808 N   0  0  0  0  0  0  0  0  0  0  0  0
  -29.9655  -28.8549   26.1568 N   0  0  0  0  0  0  0  0  0  0  0  0
  -30.8641  -27.5885   20.1852 N   0  0  0  0  0  0  0  0  0  0  0  0
  -30.6434  -13.1210   22.6634 N   0  0  0  0  0  0  0  0  0  0  0  0
  -33.3512  -25.7741   18.2905 N   0  3  0  0  0  0  0  0  0  0  0  0
  -22.4045  -14.6568   20.7506 O   0  0  0  0  0  0  0  0  0  0  0  0
  -29.3713  -26.6120   25.9608 O   0  0  0  0  0  0  0  0  0  0  0  0
  -31.0056  -29.0889   22.6219 O   0  0  0  0  0  0  0  0  0  0  0  0
  -30.9865  -25.3152   19.7445 O   0  0  0  0  0  0  0  0  0  0  0  0
  -32.1721  -13.3966   20.9769 O   0  0  0  0  0  0  0  0  0  0  0  0
  -21.7452   -6.9905   21.9254 O   0  0  0  0  0  0  0  0  0  0  0  0
  -30.6296  -20.9482   24.9553 O   0  0  0  0  0  0  0  0  0  1  0  0
  -23.9709   -3.4685   25.5373 F   0  0  0  0  0  0  0  0  0  0  0  0
  -20.4174   -6.3210   24.2559 F   0  0  0  0  0  0  0  0  0  0  0  0
  1  2  1  0  0  0  0
  1  5  2  0  0  0  0
  2  6  2  0  0  0  0
  3  8  2  0  0  0  0
  3 17  1  0  0  0  0
  4  9  1  0  0  0  0
  4 17  2  0  0  0  0
  5 19  1  0  0  0  0
  6 21  1  0  0  0  0
  7 10  2  0  0  0  0
  7 20  1  0  0  0  0
  8 27  1  0  0  0  0
  9 27  2  0  0  0  0
 10 28  1  0  0  0  0
 11 12  2  0  0  0  0
 11 29  1  0  0  0  0
 12 30  1  0  0  0  0
 13 22  1  0  0  0  0
 13 28  2  0  0  0  0
 14 23  1  0  0  0  0
 14 24  2  0  0  0  0
 15 23  2  0  0  0  0
 15 25  1  0  0  0  0
 16 30  2  0  0  0  0
 16 31  1  0  0  0  0
 17 32  1  0  0  0  0
 18 32  1  0  0  0  0
 18 33  2  0  0  0  0
 18 34  1  0  0  0  0
 19 21  2  0  0  0  0
 19 39  1  0  0  0  0
 20 22  2  0  0  0  0
 20 40  1  0  0  0  0
 21 48  1  0  0  0  0
 22 41  1  0  0  0  0
 23 60  1  0  0  0  0
 24 26  1  0  0  0  0
 24 51  1  0  0  0  0
 25 26  2  0  0  0  0
 25 61  1  0  0  0  0
 26 62  1  0  0  0  0
 27 83  1  0  0  0  0
 28 84  1  0  0  0  0
 29 31  2  0  0  0  0
 29 83  1  0  0  0  0
 30 85  1  0  0  0  0
 31 86  1  0  0  0  0
 32 68  2  0  0  0  0
 33 69  1  0  0  0  0
 33 72  1  0  0  0  0
 34 73  1  0  0  0  0
 34 78  2  0  0  0  0
 35 49  1  0  0  0  0
 35 74  1  0  0  0  0
 35 79  2  0  0  0  0
 36 64  1  0  0  0  0
 36 70  1  0  0  0  0
 36 80  2  0  0  0  0
 37 65  1  0  0  0  0
 37 75  1  0  0  0  0
 37 81  2  0  0  0  0
 38 71  1  0  0  0  0
 38 76  1  0  0  0  0
 38 82  2  0  0  0  0
 39 42  1  0  0  0  0
 40 49  1  0  0  0  0
 41 70  1  0  0  0  0
 42 44  1  0  0  0  0
 43 45  1  0  0  0  0
 43 46  1  0  0  0  0
 44 48  1  0  0  0  0
 45 50  1  0  0  0  0
 46 71  1  0  0  0  0
 47 50  1  0  0  0  0
 47 71  1  0  0  0  0
 48 74  1  0  0  0  0
 49 70  1  0  0  0  0
 50 69  1  0  0  0  0
 52 61  1  0  0  0  0
 53 65  1  0  0  0  0
 54 66  1  0  0  0  0
 55 66  1  0  0  0  0
 56 66  1  0  0  0  0
 57 67  1  0  0  0  0
 58 67  1  0  0  0  0
 59 77  1  0  0  0  0
 60 63  1  0  0  0  0
 62 67  1  0  0  0  0
 63 84  1  0  0  0  0
 64 66  1  0  0  0  0
 64 75  1  0  0  0  0
 65 77  1  0  0  0  0
 67 76  1  0  0  0  0
 68 69  1  0  0  0  0
M  CHG  1  77   1
M  ISO  4  38 100  63 101  76 100  84 101
M  END
> <Batch ID>
0096

> <Smiles>
CCc1cc(C[101CH2:1][101O:1]c2ccc3c(c2)CN(C(=O)C(NC(=O)C(C)NC)C(C)(C)C)C(C(=O)NC2CCCc4ccccc42)C3)cc(C)c1CC(C)(C)[100NH:0][100C:0](=O)N1CCCC(n2nc(-c3ccc(Oc4ccc(F)cc4F)cc3)c(C(N)=O)c2N)C1

> <Shape>
0.224

> <Color>
0.194

> <Negative vol penalty>
0.000

$$$$

  -OEChem-04052319243D

 85 93  0     1  0  0  0  0  0999 V2000
  -26.4982  -24.0046   14.0482 C   0  0  0  0  0  0  0  0  0  0  0  0
  -25.6780  -24.1267   15.1653 C   0  0  0  0  0  0  0  0  0  0  0  0
  -27.1621  -13.2104   21.4623 C   0  0  0  0  0  0  0  0  0  0  0  0
  -25.1200  -13.7117   20.2725 C   0  0  0  0  0  0  0  0  0  0  0  0
  -27.8652  -24.2560   14.1578 C   0  0  0  0  0  0  0  0  0  0  0  0
  -26.2246  -24.4991   16.3929 C   0  0  0  0  0  0  0  0  0  0  0  0
  -23.4532  -28.0089   18.7689 C   0  0  0  0  0  0  0  0  0  0  0  0
  -26.5320  -12.1367   22.0914 C   0  0  0  0  0  0  0  0  0  0  0  0
  -24.4899  -12.6380   20.9016 C   0  0  0  0  0  0  0  0  0  0  0  0
  -22.3003  -27.5751   19.4220 C   0  0  0  0  0  0  0  0  0  0  0  0
  -22.4473   -9.8090   21.9229 C   0  0  0  0  0  0  0  0  0  0  0  0
  -21.6645   -8.9641   21.1362 C   0  0  0  0  0  0  0  0  0  0  0  0
  -23.4827  -27.6171   21.5243 C   0  0  0  0  0  0  0  0  0  0  0  0
  -23.5967   -8.4290   19.7881 C   0  0  0  0  0  0  0  0  0  0  0  0
  -22.5308  -23.6173   20.7838 C   0  0  0  0  0  0  0  0  0  0  0  0
  -26.4560  -13.9980   20.5529 C   0  0  0  0  0  0  0  0  0  0  0  0
  -27.8105  -15.0852   18.6845 C   0  0  0  0  0  0  0  0  0  0  0  0
  -28.4273  -24.6410   15.3851 C   0  0  0  0  0  0  0  0  0  0  0  0
  -24.6345  -28.2399   19.4883 C   0  0  0  0  0  0  0  0  0  0  0  0
  -27.6006  -24.7545   16.5192 C   0  0  0  0  0  0  0  0  0  0  0  0
  -24.6484  -28.0563   20.8783 C   0  0  0  0  0  0  0  0  0  0  0  0
  -25.1959  -11.8505   21.8110 C   0  0  0  0  0  0  0  0  0  0  0  0
  -22.3157  -27.3764   20.7995 C   0  0  0  0  0  0  0  0  0  0  0  0
  -23.8048   -9.9641   21.6421 C   0  0  0  0  0  0  0  0  0  0  0  0
  -22.2391   -8.2741   20.0689 C   0  0  0  0  0  0  0  0  0  0  0  0
  -24.3795   -9.2740   20.5747 C   0  0  0  0  0  0  0  0  0  0  0  0
  -27.1062  -15.1076   19.9032 C   0  0  0  0  0  0  0  0  0  0  0  0
  -22.9775  -22.4927   20.1492 C   0  0  0  0  0  0  0  0  0  0  0  0
  -28.2309  -16.3807   18.5070 C   0  0  0  0  0  0  0  0  0  0  0  0
  -21.1747  -21.9497   21.3135 C   0  0  0  0  0  0  0  0  0  0  0  0
  -28.0621  -13.9912   17.7925 C   0  0  0  0  0  0  0  0  0  0  0  0
  -27.5608  -26.9994   19.4538 C   0  0  0  0  0  0  0  0  0  0  0  0
  -28.1703  -29.3729   21.5793 C   0  0  0  0  0  0  0  0  0  0  0  0
  -26.9654  -31.5522   23.9128 C   0  0  0  0  0  0  0  0  0  0  0  0
  -26.1765  -21.6424   20.4931 C   0  0  0  0  0  0  0  0  0  0  0  0
  -29.9179  -24.8562   15.4653 C   0  0  0  0  0  0  0  0  0  0  0  0
  -25.8621  -28.7333   18.7728 C   0  0  0  0  0  0  0  0  0  0  0  0
  -25.8854  -28.3097   21.6993 C   0  0  0  0  0  0  0  0  0  0  0  0
  -30.3581  -25.6102   16.7175 C   0  0  0  0  0  0  0  0  0  0  0  0
  -29.4375  -20.2973   20.9759 C   0  0  0  0  0  0  0  0  0  0  0  0
  -29.6760  -25.0346   17.9546 C   0  0  0  0  0  0  0  0  0  0  0  0
  -29.2733  -18.8127   20.6458 C   0  0  0  0  0  0  0  0  0  0  0  0
  -28.2043  -20.8585   21.6804 C   0  0  0  0  0  0  0  0  0  0  0  0
  -26.7660  -19.1471   20.6430 C   0  0  0  0  0  0  0  0  0  0  0  0
  -28.1523  -25.1804   17.8626 C   0  0  1  0  0  0  0  0  0  0  0  0
  -27.1532  -28.4435   19.5320 C   0  0  1  0  0  0  0  0  0  0  0  0
  -27.9617  -18.5499   19.8816 C   0  0  2  0  0  0  0  0  0  0  0  0
  -20.0675  -21.1552   21.9015 C   0  0  0  0  0  0  0  0  0  0  0  0
  -17.5110  -25.0306   19.9942 C   0  0  0  0  0  0  0  0  0  0  0  0
  -17.9969  -25.1483   23.7304 C   0  0  0  0  0  0  0  0  0  0  0  0
  -27.7099  -33.3409   25.5077 C   0  0  0  0  0  0  0  0  0  0  0  0
  -29.2628  -27.2353   23.4627 C   0  0  0  0  0  0  0  0  0  0  0  0
  -29.0974  -28.8951   25.3298 C   0  0  0  0  0  0  0  0  0  0  0  0
  -30.6018  -29.3464   23.3918 C   0  0  0  0  0  0  0  0  0  0  0  0
  -25.3004  -33.6006   22.5747 C   0  0  0  0  0  0  0  0  0  0  0  0
  -24.1189  -22.2733   19.2572 C   0  0  0  0  0  0  0  0  0  0  0  0
  -18.5791  -24.2625   20.7666 C   0  0  0  0  0  0  0  0  0  0  0  0
  -18.8012  -25.9500   22.7122 C   0  0  0  0  0  0  0  0  0  0  0  0
  -20.5862  -24.1844   22.3542 C   0  0  0  0  0  0  0  0  0  0  0  0
  -20.2931  -26.1296   20.6968 C   0  0  0  0  0  0  0  0  0  1  0  0
  -28.0979  -29.5077   23.0811 C   0  0  1  0  0  0  0  0  0  0  0  0
  -27.1884  -33.0406   24.1111 C   0  0  2  0  0  0  0  0  0  0  0  0
  -29.2421  -28.7394   23.8009 C   0  0  0  0  0  0  0  0  0  0  0  0
  -19.5596  -25.1199   21.6229 C   0  0  0  0  0  0  0  0  0  0  0  0
  -27.0787  -16.3211   20.4606 N   0  0  0  0  0  0  0  0  0  0  0  0
  -21.4141  -23.2523   21.4965 N   0  0  0  0  0  0  0  0  0  0  0  0
  -27.7710  -17.0732   19.5883 N   0  0  0  0  0  0  0  0  0  0  0  0
  -22.1199  -21.4764   20.4950 N   0  3  0  0  0  0  0  0  0  0  0  0
  -27.0621  -28.7851   20.9530 N   0  0  0  0  0  0  0  0  0  0  0  0
  -26.9948  -20.5770   20.9034 N   0  0  0  0  0  0  0  0  0  0  0  0
  -28.9454  -16.9836   17.5332 N   0  0  0  0  0  0  0  0  0  0  0  0
  -27.5579  -12.7270   18.1269 N   0  0  0  0  0  0  0  0  0  0  0  0
  -27.7553  -26.5386   18.1656 N   0  0  0  0  0  0  0  0  0  0  0  0
  -28.0706  -30.9391   23.3616 N   0  0  0  0  0  0  0  0  0  0  0  0
  -25.0533  -21.2888   19.7554 N   0  0  0  0  0  0  0  0  0  0  0  0
  -25.9129  -33.7861   23.9153 N   0  3  0  0  0  0  0  0  0  0  0  0
  -28.7288  -14.1272   16.7387 O   0  0  0  0  0  0  0  0  0  0  0  0
  -27.6909  -26.3516   20.4859 O   0  0  0  0  0  0  0  0  0  0  0  0
  -29.1702  -29.7808   20.9830 O   0  0  0  0  0  0  0  0  0  0  0  0
  -25.9170  -30.9890   24.2199 O   0  0  0  0  0  0  0  0  0  0  0  0
  -26.4310  -22.8219   20.7596 O   0  0  0  0  0  0  0  0  0  0  0  0
  -24.5809  -10.8027   22.4245 O   0  0  0  0  0  0  0  0  0  0  0  0
  -21.1920  -26.9524   21.4393 O   0  0  0  0  0  0  0  0  0  1  0  0
  -21.4876   -7.4615   19.3145 F   0  0  0  0  0  0  0  0  0  0  0  0
  -25.6834   -9.4180   20.3009 F   0  0  0  0  0  0  0  0  0  0  0  0
  1  2  1  0  0  0  0
  1  5  2  0  0  0  0
  2  6  2  0  0  0  0
  3  8  2  0  0  0  0
  3 16  1  0  0  0  0
  4  9  1  0  0  0  0
  4 16  2  0  0  0  0
  5 18  1  0  0  0  0
  6 20  1  0  0  0  0
  7 10  2  0  0  0  0
  7 19  1  0  0  0  0
  8 22  1  0  0  0  0
  9 22  2  0  0  0  0
 10 23  1  0  0  0  0
 11 12  2  0  0  0  0
 11 24  1  0  0  0  0
 12 25  1  0  0  0  0
 13 21  1  0  0  0  0
 13 23  2  0  0  0  0
 14 25  2  0  0  0  0
 14 26  1  0  0  0  0
 15 28  2  0  0  0  0
 15 66  1  0  0  0  0
 16 27  1  0  0  0  0
 17 27  1  0  0  0  0
 17 29  2  0  0  0  0
 17 31  1  0  0  0  0
 18 20  2  0  0  0  0
 18 36  1  0  0  0  0
 19 21  2  0  0  0  0
 19 37  1  0  0  0  0
 20 45  1  0  0  0  0
 21 38  1  0  0  0  0
 22 82  1  0  0  0  0
 23 83  1  0  0  0  0
 24 26  2  0  0  0  0
 24 82  1  0  0  0  0
 25 84  1  0  0  0  0
 26 85  1  0  0  0  0
 27 65  2  0  0  0  0
 28 56  1  0  0  0  0
 28 68  1  0  0  0  0
 29 67  1  0  0  0  0
 29 71  1  0  0  0  0
 30 48  1  0  0  0  0
 30 66  1  0  0  0  0
 30 68  2  0  0  0  0
 31 72  1  0  0  0  0
 31 77  2  0  0  0  0
 32 46  1  0  0  0  0
 32 73  1  0  0  0  0
 32 78  2  0  0  0  0
 33 61  1  0  0  0  0
 33 69  1  0  0  0  0
 33 79  2  0  0  0  0
 34 62  1  0  0  0  0
 34 74  1  0  0  0  0
 34 80  2  0  0  0  0
 35 70  1  0  0  0  0
 35 75  1  0  0  0  0
 35 81  2  0  0  0  0
 36 39  1  0  0  0  0
 37 46  1  0  0  0  0
 38 69  1  0  0  0  0
 39 41  1  0  0  0  0
 40 42  1  0  0  0  0
 40 43  1  0  0  0  0
 41 45  1  0  0  0  0
 42 47  1  0  0  0  0
 43 70  1  0  0  0  0
 44 47  1  0  0  0  0
 44 70  1  0  0  0  0
 45 73  1  0  0  0  0
 46 69  1  0  0  0  0
 47 67  1  0  0  0  0
 49 57  1  0  0  0  0
 50 58  1  0  0  0  0
 51 62  1  0  0  0  0
 52 63  1  0  0  0  0
 53 63  1  0  0  0  0
 54 63  1  0  0  0  0
 55 76  1  0  0  0  0
 56 75  1  0  0  0  0
 57 64  1  0  0  0  0
 58 64  1  0  0  0  0
 59 64  1  0  0  0  0
 59 66  1  0  0  0  0
 60 64  1  0  0  0  0
 60 83  1  0  0  0  0
 61 63  1  0  0  0  0
 61 74  1  0  0  0  0
 62 76  1  0  0  0  0
 65 67  1  0  0  0  0
M  CHG  2  68   1  76   1
M  ISO  4  35 100  60 101  75 100  83 101
M  END
> <Batch ID>
0096

> <Smiles>
CCC(CC)(Cn1cc(C[100NH:0][100C:0](=O)N2CCCC(n3nc(-c4ccc(Oc5ccc(F)cc5F)cc4)c(C(N)=O)c3N)C2)nc1C)[101CH2:1][101O:1]c1ccc2c(c1)CN(C(=O)C(NC(=O)C(C)NC)C(C)(C)C)C(C(=O)NC1CCCc3ccccc31)C2

> <Shape>
0.238

> <Color>
0.065

> <Negative vol penalty>
0.000

$$$$

  -OEChem-04052319243D

 84 91  0     1  0  0  0  0  0999 V2000
  -35.3447  -29.1072   27.3359 C   0  0  0  0  0  0  0  0  0  0  0  0
  -34.1929  -28.3389   27.4716 C   0  0  0  0  0  0  0  0  0  0  0  0
  -23.0760   -9.8644   19.9445 C   0  0  0  0  0  0  0  0  0  0  0  0
  -23.8372   -9.8770   22.2374 C   0  0  0  0  0  0  0  0  0  0  0  0
  -35.3621  -30.1850   26.4516 C   0  0  0  0  0  0  0  0  0  0  0  0
  -33.0574  -28.6486   26.7239 C   0  0  0  0  0  0  0  0  0  0  0  0
  -30.9013  -24.5490   24.6772 C   0  0  0  0  0  0  0  0  0  0  0  0
  -22.3336   -8.7109   20.1972 C   0  0  0  0  0  0  0  0  0  0  0  0
  -23.0947   -8.7235   22.4902 C   0  0  0  0  0  0  0  0  0  0  0  0
  -30.1228  -23.7530   25.5163 C   0  0  0  0  0  0  0  0  0  0  0  0
  -19.8678   -7.9231   23.0962 C   0  0  0  0  0  0  0  0  0  0  0  0
  -19.1116   -7.8847   24.2676 C   0  0  0  0  0  0  0  0  0  0  0  0
  -28.1285  -24.7861   24.6361 C   0  0  0  0  0  0  0  0  0  0  0  0
  -20.3557   -5.9502   25.0073 C   0  0  0  0  0  0  0  0  0  0  0  0
  -23.8278  -10.4474   20.9646 C   0  0  0  0  0  0  0  0  0  0  0  0
  -24.1666  -12.9727   20.8392 C   0  0  0  0  0  0  0  0  0  0  0  0
  -34.2293  -30.5022   25.6855 C   0  0  0  0  0  0  0  0  0  0  0  0
  -30.2988  -25.4788   23.8176 C   0  0  0  0  0  0  0  0  0  0  0  0
  -33.0592  -29.7325   25.8295 C   0  0  0  0  0  0  0  0  0  0  0  0
  -28.9015  -25.5909   23.7853 C   0  0  0  0  0  0  0  0  0  0  0  0
  -22.3429   -8.1404   21.4701 C   0  0  0  0  0  0  0  0  0  0  0  0
  -28.7363  -23.8735   25.4979 C   0  0  0  0  0  0  0  0  0  0  0  0
  -20.8680   -6.9750   22.8802 C   0  0  0  0  0  0  0  0  0  0  0  0
  -19.3555   -6.8983   25.2231 C   0  0  0  0  0  0  0  0  0  0  0  0
  -21.1119   -5.9886   23.8358 C   0  0  0  0  0  0  0  0  0  0  0  0
  -24.5954  -11.6387   20.7040 C   0  0  0  0  0  0  0  0  0  0  0  0
  -25.2577  -13.7227   20.4738 C   0  0  0  0  0  0  0  0  0  0  0  0
  -22.8958  -13.4879   21.2578 C   0  0  0  0  0  0  0  0  0  0  0  0
  -30.4017  -28.6405   23.5062 C   0  0  0  0  0  0  0  0  0  0  0  0
  -28.6068  -28.0488   20.8698 C   0  0  0  0  0  0  0  0  0  0  0  0
  -26.4543  -25.9624   19.2387 C   0  0  0  0  0  0  0  0  0  0  0  0
  -30.7404  -14.7485   20.6570 C   0  0  0  0  0  0  0  0  0  0  0  0
  -34.2806  -31.7055   24.7777 C   0  0  0  0  0  0  0  0  0  0  0  0
  -31.1512  -26.3111   22.8995 C   0  0  0  0  0  0  0  0  0  0  0  0
  -28.2047  -26.5596   22.8662 C   0  0  0  0  0  0  0  0  0  0  0  0
  -33.1562  -31.7384   23.7458 C   0  0  0  0  0  0  0  0  0  0  0  0
  -29.6042  -12.3578   18.2757 C   0  0  0  0  0  0  0  0  0  0  0  0
  -31.8165  -31.4281   24.4060 C   0  0  0  0  0  0  0  0  0  0  0  0
  -28.1674  -12.0633   18.7101 C   0  0  0  0  0  0  0  0  0  0  0  0
  -30.5218  -12.5822   19.4757 C   0  0  0  0  0  0  0  0  0  0  0  0
  -28.6199  -13.3139   20.8618 C   0  0  0  0  0  0  0  0  0  0  0  0
  -31.8154  -30.0218   25.0175 C   0  0  1  0  0  0  0  0  0  0  0  0
  -30.4582  -27.5883   22.4350 C   0  0  1  0  0  0  0  0  0  0  0  0
  -27.6453  -13.1357   19.6851 C   0  0  2  0  0  0  0  0  0  0  0  0
  -25.1289  -25.7665   17.1168 C   0  0  0  0  0  0  0  0  0  0  0  0
  -26.8375  -17.4249   23.0176 C   0  0  0  0  0  0  0  0  0  0  0  0
  -26.2714  -21.2451   22.5304 C   0  0  0  0  0  0  0  0  0  0  0  0
  -26.5768  -30.0512   21.9558 C   0  0  0  0  0  0  0  0  0  0  0  0
  -24.9021  -29.1222   20.3431 C   0  0  0  0  0  0  0  0  0  0  0  0
  -26.9811  -30.2073   19.4927 C   0  0  0  0  0  0  0  0  0  0  0  0
  -27.8930  -23.5057   18.4302 C   0  0  0  0  0  0  0  0  0  0  0  0
  -28.6428  -19.0875   19.6720 C   0  0  0  0  0  0  0  0  0  0  0  0
  -27.3170  -20.8593   26.8719 C   0  0  0  0  0  0  0  0  0  0  0  0
  -30.8044  -16.9017   21.8894 C   0  0  0  0  0  0  0  0  0  0  0  0
  -26.4374  -20.6804   25.6437 C   0  0  0  0  0  0  0  0  0  0  0  0
  -30.5204  -18.0425   20.9302 C   0  0  0  0  0  0  0  0  0  0  0  0
  -28.6010  -19.0425   22.1616 C   0  0  0  0  0  0  0  0  0  0  0  0
  -28.4875  -21.8104   26.6545 C   0  0  0  0  0  0  0  0  0  1  0  0
  -27.1285  -27.9328   20.5868 C   0  0  1  0  0  0  0  0  0  0  0  0
  -26.4419  -25.4426   17.8125 C   0  0  2  0  0  0  0  0  0  0  0  0
  -27.1012  -18.8101   22.4065 C   0  0  2  0  0  0  0  0  0  0  0  0
  -26.4439  -19.9198   23.2646 C   0  0  1  0  0  0  0  0  0  0  0  0
  -26.4100  -29.3114   20.6134 C   0  0  0  0  0  0  0  0  0  0  0  0
  -25.8601  -11.5434   20.2852 N   0  0  0  0  0  0  0  0  0  0  0  0
  -26.2354  -12.8272   20.1540 N   0  0  0  0  0  0  0  0  0  0  0  0
  -29.0820  -27.3556   21.9920 N   0  0  0  0  0  0  0  0  0  0  0  0
  -29.9705  -13.6119   20.3598 N   0  0  0  0  0  0  0  0  0  0  0  0
  -25.4665  -15.0543   20.3979 N   0  0  0  0  0  0  0  0  0  0  0  0
  -21.8851  -12.5782   21.5975 N   0  0  0  0  0  0  0  0  0  0  0  0
  -31.6401  -29.0222   23.9858 N   0  0  0  0  0  0  0  0  0  0  0  0
  -27.0102  -27.2217   19.3184 N   0  0  0  0  0  0  0  0  0  0  0  0
  -30.1406  -15.6784   21.4975 N   0  0  0  0  0  0  0  0  0  0  0  0
  -26.6291  -23.9642   17.7984 N   0  3  0  0  0  0  0  0  0  0  0  0
  -27.2346  -20.1800   24.4993 N   0  3  0  0  0  0  0  0  0  0  0  0
  -29.0435  -18.3490   20.9247 N   0  3  1  0  0  0  0  0  0  0  0  0
  -22.6581  -14.7184   21.3127 O   0  0  0  0  0  0  0  0  0  0  0  0
  -29.3150  -29.0749   23.8696 O   0  0  0  0  0  0  0  0  0  0  0  0
  -29.3152  -28.7237   20.1184 O   0  0  0  0  0  0  0  0  0  0  0  0
  -26.0116  -25.3175   20.1866 O   0  0  0  0  0  0  0  0  0  0  0  0
  -31.8759  -14.9244   20.2024 O   0  0  0  0  0  0  0  0  0  0  0  0
  -21.6184   -7.0150   21.7171 O   0  0  0  0  0  0  0  0  0  0  0  0
  -27.9741  -23.0983   26.3164 O   0  0  0  0  0  0  0  0  0  1  0  0
  -18.6303   -6.8625   26.3487 F   0  0  0  0  0  0  0  0  0  0  0  0
  -22.0722   -5.0758   23.6345 F   0  0  0  0  0  0  0  0  0  0  0  0
  1  2  1  0  0  0  0
  1  5  2  0  0  0  0
  2  6  2  0  0  0  0
  3  8  2  0  0  0  0
  3 15  1  0  0  0  0
  4  9  1  0  0  0  0
  4 15  2  0  0  0  0
  5 17  1  0  0  0  0
  6 19  1  0  0  0  0
  7 10  2  0  0  0  0
  7 18  1  0  0  0  0
  8 21  1  0  0  0  0
  9 21  2  0  0  0  0
 10 22  1  0  0  0  0
 11 12  2  0  0  0  0
 11 23  1  0  0  0  0
 12 24  1  0  0  0  0
 13 20  1  0  0  0  0
 13 22  2  0  0  0  0
 14 24  2  0  0  0  0
 14 25  1  0  0  0  0
 15 26  1  0  0  0  0
 16 26  1  0  0  0  0
 16 27  2  0  0  0  0
 16 28  1  0  0  0  0
 17 19  2  0  0  0  0
 17 33  1  0  0  0  0
 18 20  2  0  0  0  0
 18 34  1  0  0  0  0
 19 42  1  0  0  0  0
 20 35  1  0  0  0  0
 21 81  1  0  0  0  0
 22 82  1  0  0  0  0
 23 25  2  0  0  0  0
 23 81  1  0  0  0  0
 24 83  1  0  0  0  0
 25 84  1  0  0  0  0
 26 64  2  0  0  0  0
 27 65  1  0  0  0  0
 27 68  1  0  0  0  0
 28 69  1  0  0  0  0
 28 76  2  0  0  0  0
 29 43  1  0  0  0  0
 29 70  1  0  0  0  0
 29 77  2  0  0  0  0
 30 59  1  0  0  0  0
 30 66  1  0  0  0  0
 30 78  2  0  0  0  0
 31 60  1  0  0  0  0
 31 71  1  0  0  0  0
 31 79  2  0  0  0  0
 32 67  1  0  0  0  0
 32 72  1  0  0  0  0
 32 80  2  0  0  0  0
 33 36  1  0  0  0  0
 34 43  1  0  0  0  0
 35 66  1  0  0  0  0
 36 38  1  0  0  0  0
 37 39  1  0  0  0  0
 37 40  1  0  0  0  0
 38 42  1  0  0  0  0
 39 44  1  0  0  0  0
 40 67  1  0  0  0  0
 41 44  1  0  0  0  0
 41 67  1  0  0  0  0
 42 70  1  0  0  0  0
 43 66  1  0  0  0  0
 44 65  1  0  0  0  0
 45 60  1  0  0  0  0
 46 61  1  0  0  0  0
 47 62  1  0  0  0  0
 48 63  1  0  0  0  0
 49 63  1  0  0  0  0
 50 63  1  0  0  0  0
 51 73  1  0  0  0  0
 52 75  1  0  0  0  0
 53 55  1  0  0  0  0
 53 58  1  0  0  0  0
 54 56  1  0  0  0  0
 54 72  1  0  0  0  0
 55 74  1  0  0  0  0
 56 75  1  0  0  0  0
 57 61  1  0  0  0  0
 57 75  1  0  0  0  0
 58 82  1  0  0  0  0
 59 63  1  0  0  0  0
 59 71  1  0  0  0  0
 60 73  1  0  0  0  0
 61 62  1  0  0  0  0
 62 74  1  0  0  0  0
 64 65  1  0  0  0  0
M  CHG  3  73   1  74   1  75   1
M  ISO  4  32 100  58 101  72 100  82 101
M  END
> <Batch ID>
0096

> <Smiles>
CNC(C)C(=O)NC(C(=O)N1Cc2cc([101O:1][101CH2:1]CCNC(C)C(C)CN(C)CC[100NH:0][100C:0](=O)N3CCCC(n4nc(-c5ccc(Oc6ccc(F)cc6F)cc5)c(C(N)=O)c4N)C3)ccc2CC1C(=O)NC1CCCc2ccccc21)C(C)(C)C

> <Shape>
0.251

> <Color>
0.184

> <Negative vol penalty>
0.000

$$$$

  -OEChem-04052319243D

 85 93  0     1  0  0  0  0  0999 V2000
  -24.2219  -22.6302   16.6794 C   0  0  0  0  0  0  0  0  0  0  0  0
  -24.8632  -21.4143   16.4712 C   0  0  0  0  0  0  0  0  0  0  0  0
  -26.2982  -28.3234   19.0287 C   0  0  0  0  0  0  0  0  0  0  0  0
  -26.2328  -27.2531   21.1937 C   0  0  0  0  0  0  0  0  0  0  0  0
  -23.6545  -22.9110   17.9206 C   0  0  0  0  0  0  0  0  0  0  0  0
  -24.9270  -20.4741   17.5002 C   0  0  0  0  0  0  0  0  0  0  0  0
  -27.7319  -15.0712   17.7609 C   0  0  0  0  0  0  0  0  0  0  0  0
  -25.2142  -29.1229   19.3911 C   0  0  0  0  0  0  0  0  0  0  0  0
  -25.1489  -28.0527   21.5562 C   0  0  0  0  0  0  0  0  0  0  0  0
  -28.9704  -14.5730   18.1630 C   0  0  0  0  0  0  0  0  0  0  0  0
  -21.8155  -28.1337   20.9966 C   0  0  0  0  0  0  0  0  0  0  0  0
  -20.7384  -27.5159   21.6319 C   0  0  0  0  0  0  0  0  0  0  0  0
  -28.0318  -13.9862   20.3063 C   0  0  0  0  0  0  0  0  0  0  0  0
  -30.3770  -19.2320   21.9286 C   0  0  0  0  0  0  0  0  0  0  0  0
  -21.0566  -28.9408   23.5569 C   0  0  0  0  0  0  0  0  0  0  0  0
  -26.8074  -27.3884   19.9299 C   0  0  0  0  0  0  0  0  0  0  0  0
  -29.2931  -26.8475   19.7386 C   0  0  0  0  0  0  0  0  0  0  0  0
  -23.7228  -21.9783   18.9686 C   0  0  0  0  0  0  0  0  0  0  0  0
  -26.6349  -15.0405   18.6339 C   0  0  0  0  0  0  0  0  0  0  0  0
  -24.3397  -20.7292   18.7526 C   0  0  0  0  0  0  0  0  0  0  0  0
  -26.7798  -14.4823   19.9120 C   0  0  0  0  0  0  0  0  0  0  0  0
  -31.6908  -18.8904   22.2298 C   0  0  0  0  0  0  0  0  0  0  0  0
  -32.3087  -17.8525   21.5413 C   0  0  0  0  0  0  0  0  0  0  0  0
  -24.6396  -28.9876   20.6549 C   0  0  0  0  0  0  0  0  0  0  0  0
  -29.1212  -14.0330   19.4369 C   0  0  0  0  0  0  0  0  0  0  0  0
  -22.5133  -29.1550   21.6414 C   0  0  0  0  0  0  0  0  0  0  0  0
  -20.3589  -27.9195   22.9121 C   0  0  0  0  0  0  0  0  0  0  0  0
  -22.1339  -29.5585   22.9216 C   0  0  0  0  0  0  0  0  0  0  0  0
  -27.9268  -26.5618   19.5559 C   0  0  0  0  0  0  0  0  0  0  0  0
  -29.7301  -18.5105   20.9382 C   0  0  0  0  0  0  0  0  0  0  0  0
  -31.5753  -17.1926   20.5684 C   0  0  0  0  0  0  0  0  0  0  0  0
  -29.9446  -25.7555   19.2194 C   0  0  0  0  0  0  0  0  0  0  0  0
  -29.9175  -27.9971   20.3252 C   0  0  0  0  0  0  0  0  0  0  0  0
  -24.7758  -17.2406   19.9782 C   0  0  0  0  0  0  0  0  0  0  0  0
  -23.1203  -14.6494   21.0113 C   0  0  0  0  0  0  0  0  0  0  0  0
  -23.1246  -11.3219   21.7691 C   0  0  0  0  0  0  0  0  0  0  0  0
  -28.3292  -20.0466   18.4131 C   0  0  0  0  0  0  0  0  0  0  0  0
  -23.0850  -22.3308   20.2893 C   0  0  0  0  0  0  0  0  0  0  0  0
  -25.2989  -15.5576   18.1754 C   0  0  0  0  0  0  0  0  0  0  0  0
  -25.6282  -14.4074   20.8798 C   0  0  0  0  0  0  0  0  0  0  0  0
  -23.5869  -21.4665   21.4414 C   0  0  0  0  0  0  0  0  0  0  0  0
  -29.4587  -22.3244   15.9206 C   0  0  0  0  0  0  0  0  0  0  0  0
  -23.5229  -19.9965   21.0545 C   0  0  0  0  0  0  0  0  0  0  0  0
  -29.3174  -23.6944   16.5861 C   0  0  0  0  0  0  0  0  0  0  0  0
  -28.3285  -21.3808   16.3260 C   0  0  0  0  0  0  0  0  0  0  0  0
  -28.0033  -22.5940   18.4464 C   0  0  0  0  0  0  0  0  0  0  0  0
  -24.4481  -19.7037   19.8666 C   0  0  1  0  0  0  0  0  0  0  0  0
  -24.3797  -15.9442   19.3300 C   0  0  1  0  0  0  0  0  0  0  0  0
  -29.1509  -23.5621   18.1119 C   0  0  2  0  0  0  0  0  0  0  0  0
  -33.7178  -17.4656   21.8413 C   0  0  0  0  0  0  0  0  0  0  0  0
  -32.5010  -18.8681   24.6025 C   0  0  0  0  0  0  0  0  0  0  0  0
  -21.6330   -9.4947   22.6258 C   0  0  0  0  0  0  0  0  0  0  0  0
  -31.0917  -13.1011   22.0637 C   0  0  0  0  0  0  0  0  0  0  0  0
  -23.3774  -15.7683   23.8383 C   0  0  0  0  0  0  0  0  0  0  0  0
  -22.7420  -13.5107   24.7147 C   0  0  0  0  0  0  0  0  0  0  0  0
  -21.1371  -14.7950   23.3013 C   0  0  0  0  0  0  0  0  0  0  0  0
  -23.4269   -9.7493   19.2802 C   0  0  0  0  0  0  0  0  0  0  0  0
  -32.4119  -19.6489   23.2946 C   0  0  0  0  0  0  0  0  0  0  0  0
  -32.1913  -16.0598   19.7868 C   0  0  0  0  0  0  0  0  0  0  0  0
  -28.3200  -18.8502   20.5875 C   0  0  0  0  0  0  0  0  0  0  0  0
  -32.2891  -14.7453   20.5747 C   0  0  0  0  0  0  0  0  0  0  0  0
  -23.1789  -13.7591   22.2290 C   0  0  1  0  0  0  0  0  0  0  0  0
  -22.1721  -10.2016   21.3920 C   0  0  2  0  0  0  0  0  0  0  0  0
  -30.9317  -14.1539   20.9743 C   0  0  1  0  0  0  0  0  0  1  0  0
  -22.6313  -14.4613   23.5035 C   0  0  0  0  0  0  0  0  0  0  0  0
  -27.7212  -25.3810   18.9665 N   0  0  0  0  0  0  0  0  0  0  0  0
  -30.2974  -17.4960   20.2479 N   0  0  0  0  0  0  0  0  0  0  0  0
  -28.9670  -24.9150   18.7743 N   0  0  0  0  0  0  0  0  0  0  0  0
  -24.3436  -14.9317   20.3872 N   0  0  0  0  0  0  0  0  0  0  0  0
  -28.2248  -21.2986   17.7849 N   0  0  0  0  0  0  0  0  0  0  0  0
  -31.2526  -25.4419   19.1046 N   0  0  0  0  0  0  0  0  0  0  0  0
  -29.0999  -29.0275   20.8091 N   0  0  0  0  0  0  0  0  0  0  0  0
  -24.2039  -18.3571   19.3988 N   0  0  0  0  0  0  0  0  0  0  0  0
  -22.4734  -12.5329   21.8725 N   0  0  0  0  0  0  0  0  0  0  0  0
  -28.2263  -20.0585   19.7988 N   0  0  0  0  0  0  0  0  0  0  0  0
  -22.8670   -9.1956   20.5400 N   0  3  0  0  0  0  0  0  0  0  0  0
  -31.1640  -28.1147   20.4028 O   0  0  0  0  0  0  0  0  0  0  0  0
  -25.5423  -17.2286   20.9342 O   0  0  0  0  0  0  0  0  0  0  0  0
  -22.0284  -15.0728   20.6237 O   0  0  0  0  0  0  0  0  0  0  0  0
  -24.3255  -11.1401   21.9571 O   0  0  0  0  0  0  0  0  0  0  0  0
  -28.5067  -18.9967   17.7861 O   0  0  0  0  0  0  0  0  0  0  0  0
  -23.5820  -29.7678   21.0090 O   0  0  0  0  0  0  0  0  0  0  0  0
  -30.3292  -13.5467   19.8321 O   0  0  0  0  0  0  0  0  0  1  0  0
  -19.3235  -27.3272   23.5214 F   0  0  0  0  0  0  0  0  0  0  0  0
  -22.7996  -30.5399   23.5457 F   0  0  0  0  0  0  0  0  0  0  0  0
  1  2  1  0  0  0  0
  1  5  2  0  0  0  0
  2  6  2  0  0  0  0
  3  8  2  0  0  0  0
  3 16  1  0  0  0  0
  4  9  1  0  0  0  0
  4 16  2  0  0  0  0
  5 18  1  0  0  0  0
  6 20  1  0  0  0  0
  7 10  2  0  0  0  0
  7 19  1  0  0  0  0
  8 24  1  0  0  0  0
  9 24  2  0  0  0  0
 10 25  1  0  0  0  0
 11 12  2  0  0  0  0
 11 26  1  0  0  0  0
 12 27  1  0  0  0  0
 13 21  1  0  0  0  0
 13 25  2  0  0  0  0
 14 22  1  0  0  0  0
 14 30  2  0  0  0  0
 15 27  2  0  0  0  0
 15 28  1  0  0  0  0
 16 29  1  0  0  0  0
 17 29  1  0  0  0  0
 17 32  2  0  0  0  0
 17 33  1  0  0  0  0
 18 20  2  0  0  0  0
 18 38  1  0  0  0  0
 19 21  2  0  0  0  0
 19 39  1  0  0  0  0
 20 47  1  0  0  0  0
 21 40  1  0  0  0  0
 22 23  2  0  0  0  0
 22 58  1  0  0  0  0
 23 31  1  0  0  0  0
 23 50  1  0  0  0  0
 24 82  1  0  0  0  0
 25 83  1  0  0  0  0
 26 28  2  0  0  0  0
 26 82  1  0  0  0  0
 27 84  1  0  0  0  0
 28 85  1  0  0  0  0
 29 66  2  0  0  0  0
 30 60  1  0  0  0  0
 30 67  1  0  0  0  0
 31 59  1  0  0  0  0
 31 67  2  0  0  0  0
 32 68  1  0  0  0  0
 32 71  1  0  0  0  0
 33 72  1  0  0  0  0
 33 77  2  0  0  0  0
 34 48  1  0  0  0  0
 34 73  1  0  0  0  0
 34 78  2  0  0  0  0
 35 62  1  0  0  0  0
 35 69  1  0  0  0  0
 35 79  2  0  0  0  0
 36 63  1  0  0  0  0
 36 74  1  0  0  0  0
 36 80  2  0  0  0  0
 37 70  1  0  0  0  0
 37 75  1  0  0  0  0
 37 81  2  0  0  0  0
 38 41  1  0  0  0  0
 39 48  1  0  0  0  0
 40 69  1  0  0  0  0
 41 43  1  0  0  0  0
 42 44  1  0  0  0  0
 42 45  1  0  0  0  0
 43 47  1  0  0  0  0
 44 49  1  0  0  0  0
 45 70  1  0  0  0  0
 46 49  1  0  0  0  0
 46 70  1  0  0  0  0
 47 73  1  0  0  0  0
 48 69  1  0  0  0  0
 49 68  1  0  0  0  0
 51 58  1  0  0  0  0
 52 63  1  0  0  0  0
 53 64  1  0  0  0  0
 54 65  1  0  0  0  0
 55 65  1  0  0  0  0
 56 65  1  0  0  0  0
 57 76  1  0  0  0  0
 59 61  1  0  0  0  0
 60 75  1  0  0  0  0
 61 64  1  0  0  0  0
 62 65  1  0  0  0  0
 62 74  1  0  0  0  0
 63 76  1  0  0  0  0
 64 83  1  0  0  0  0
 66 68  1  0  0  0  0
M  CHG  1  76   1
M  ISO  4  37 100  64 101  75 100  83 101
M  END
> <Batch ID>
0096

> <Smiles>
CCc1cc(C[100NH:0][100C:0](=O)N2CCCC(n3nc(-c4ccc(Oc5ccc(F)cc5F)cc4)c(C(N)=O)c3N)C2)nc(CC[101CH:1](C)[101O:1]c2ccc3c(c2)CN(C(=O)C(NC(=O)C(C)NC)C(C)(C)C)C(C(=O)NC2CCCc4ccccc42)C3)c1C

> <Shape>
0.270

> <Color>
0.077

> <Negative vol penalty>
0.000

$$$$

  -OEChem-04052319243D

 90 98  0     1  0  0  0  0  0999 V2000
  -26.4768  -38.2298   23.3234 C   0  0  0  0  0  0  0  0  0  0  0  0
  -27.1639  -37.3626   22.4800 C   0  0  0  0  0  0  0  0  0  0  0  0
  -25.5542   -9.1598   21.1393 C   0  0  0  0  0  0  0  0  0  0  0  0
  -25.5051  -10.3398   23.2470 C   0  0  0  0  0  0  0  0  0  0  0  0
  -25.7386  -37.7223   24.3918 C   0  0  0  0  0  0  0  0  0  0  0  0
  -27.1140  -35.9874   22.7051 C   0  0  0  0  0  0  0  0  0  0  0  0
  -27.1686  -29.7484   19.1854 C   0  0  0  0  0  0  0  0  0  0  0  0
  -25.7103   -7.9519   21.8192 C   0  0  0  0  0  0  0  0  0  0  0  0
  -25.6612   -9.1319   23.9269 C   0  0  0  0  0  0  0  0  0  0  0  0
  -27.8391  -28.5261   19.1702 C   0  0  0  0  0  0  0  0  0  0  0  0
  -25.7596   -4.5187   23.0131 C   0  0  0  0  0  0  0  0  0  0  0  0
  -24.9835   -3.4363   22.5988 C   0  0  0  0  0  0  0  0  0  0  0  0
  -26.4673  -27.7578   20.9998 C   0  0  0  0  0  0  0  0  0  0  0  0
  -22.9761   -4.6873   23.0909 C   0  0  0  0  0  0  0  0  0  0  0  0
  -28.7746  -20.3752   21.6602 C   0  0  0  0  0  0  0  0  0  0  0  0
  -25.4516  -10.3538   21.8532 C   0  0  0  0  0  0  0  0  0  0  0  0
  -24.0812  -12.2179   20.7786 C   0  0  0  0  0  0  0  0  0  0  0  0
  -25.6718  -36.3395   24.6244 C   0  0  0  0  0  0  0  0  0  0  0  0
  -26.1481  -29.9889   20.1165 C   0  0  0  0  0  0  0  0  0  0  0  0
  -26.3753  -35.4610   23.7784 C   0  0  0  0  0  0  0  0  0  0  0  0
  -25.7837  -28.9831   21.0229 C   0  0  0  0  0  0  0  0  0  0  0  0
  -28.4833  -19.2473   22.3952 C   0  0  0  0  0  0  0  0  0  0  0  0
  -27.1835  -19.4166   22.9328 C   0  0  0  0  0  0  0  0  0  0  0  0
  -25.7638   -7.9379   23.2129 C   0  0  0  0  0  0  0  0  0  0  0  0
  -27.4905  -27.5317   20.0794 C   0  0  0  0  0  0  0  0  0  0  0  0
  -25.1440   -5.6854   23.4664 C   0  0  0  0  0  0  0  0  0  0  0  0
  -23.5918   -3.5206   22.6376 C   0  0  0  0  0  0  0  0  0  0  0  0
  -23.7522   -5.7697   23.5052 C   0  0  0  0  0  0  0  0  0  0  0  0
  -25.2909  -11.6019   21.1515 C   0  0  0  0  0  0  0  0  0  0  0  0
  -26.7200  -20.6428   22.5099 C   0  0  0  0  0  0  0  0  0  0  0  0
  -24.4658  -13.3726   20.1421 C   0  0  0  0  0  0  0  0  0  0  0  0
  -22.7306  -11.7850   20.9890 C   0  0  0  0  0  0  0  0  0  0  0  0
  -25.7178  -32.0619   22.4875 C   0  0  0  0  0  0  0  0  0  0  0  0
  -22.7656  -30.7225   22.6022 C   0  0  0  0  0  0  0  0  0  0  0  0
  -20.7777  -28.0303   21.9338 C   0  0  0  0  0  0  0  0  0  0  0  0
  -29.3862  -16.7681   20.4765 C   0  0  0  0  0  0  0  0  0  0  0  0
  -24.8995  -35.8410   25.8201 C   0  0  0  0  0  0  0  0  0  0  0  0
  -25.4164  -31.3030   20.1023 C   0  0  0  0  0  0  0  0  0  0  0  0
  -24.6814  -29.1839   22.0294 C   0  0  0  0  0  0  0  0  0  0  0  0
  -24.5927  -34.3466   25.7672 C   0  0  0  0  0  0  0  0  0  0  0  0
  -28.0534  -15.2110   17.5652 C   0  0  0  0  0  0  0  0  0  0  0  0
  -25.8384  -33.5595   25.3727 C   0  0  0  0  0  0  0  0  0  0  0  0
  -27.0851  -14.1650   18.1205 C   0  0  0  0  0  0  0  0  0  0  0  0
  -29.2938  -15.3547   18.4442 C   0  0  0  0  0  0  0  0  0  0  0  0
  -28.0482  -14.5764   20.4232 C   0  0  0  0  0  0  0  0  0  0  0  0
  -26.3254  -33.9614   23.9753 C   0  0  1  0  0  0  0  0  0  0  0  0
  -24.7416  -31.6256   21.4319 C   0  0  1  0  0  0  0  0  0  0  0  0
  -26.7557  -14.4359   19.6009 C   0  0  2  0  0  0  0  0  0  0  0  0
  -25.4321  -21.3186   22.7742 C   0  0  0  0  0  0  0  0  0  0  0  0
  -24.1873  -23.8235   16.8301 C   0  0  0  0  0  0  0  0  0  0  0  0
  -25.3194  -17.1749   21.8835 C   0  0  0  0  0  0  0  0  0  0  0  0
  -26.1757  -19.0360   25.1978 C   0  0  0  0  0  0  0  0  0  0  0  0
  -18.4162  -27.2167   22.1764 C   0  0  0  0  0  0  0  0  0  0  0  0
  -23.2479  -30.2158   25.5722 C   0  0  0  0  0  0  0  0  0  0  0  0
  -21.3342  -28.6018   25.5362 C   0  0  0  0  0  0  0  0  0  0  0  0
  -20.9436  -31.0087   25.0098 C   0  0  0  0  0  0  0  0  0  0  0  0
  -20.4481  -27.7572   19.0054 C   0  0  0  0  0  0  0  0  0  0  0  0
  -29.3711  -18.0822   22.5817 C   0  0  0  0  0  0  0  0  0  0  0  0
  -25.0558  -23.8315   18.0776 C   0  0  0  0  0  0  0  0  0  0  0  0
  -25.1159  -17.9370   23.1873 C   0  0  0  0  0  0  0  0  0  0  0  0
  -27.6157  -22.5207   21.0876 C   0  0  0  0  0  0  0  0  0  0  0  0
  -26.5329  -23.8666   17.7192 C   0  0  0  0  0  0  0  0  0  0  0  0
  -27.3573  -22.4431   19.5887 C   0  0  0  0  0  0  0  0  0  0  0  0
  -28.7172  -24.3751   18.8019 C   0  0  0  0  0  0  0  0  0  0  0  0
  -28.6543  -25.8897   18.8124 C   0  0  0  0  0  0  0  0  0  1  0  0
  -26.4570  -18.4567   23.7895 C   0  0  1  0  0  0  0  0  0  0  0  0
  -22.1499  -29.5528   23.3314 C   0  0  1  0  0  0  0  0  0  0  0  0
  -19.4150  -27.9236   21.2734 C   0  0  2  0  0  0  0  0  0  0  0  0
  -21.9410  -29.8414   24.8448 C   0  0  0  0  0  0  0  0  0  0  0  0
  -26.3637  -12.3068   20.7824 N   0  0  0  0  0  0  0  0  0  0  0  0
  -27.6954  -21.2165   21.7368 N   0  0  0  0  0  0  0  0  0  0  0  0
  -25.8294  -13.3777   20.1709 N   0  0  0  0  0  0  0  0  0  0  0  0
  -24.0000  -30.4881   21.9800 N   0  0  0  0  0  0  0  0  0  0  0  0
  -28.9123  -15.6118   19.8350 N   0  0  0  0  0  0  0  0  0  0  0  0
  -23.7672  -14.3739   19.5661 N   0  0  0  0  0  0  0  0  0  0  0  0
  -22.5140  -10.5743   21.6609 N   0  0  0  0  0  0  0  0  0  0  0  0
  -25.5035  -33.3438   22.9567 N   0  0  0  0  0  0  0  0  0  0  0  0
  -20.9249  -29.2220   22.6115 N   0  0  0  0  0  0  0  0  0  0  0  0
  -28.9719  -16.9388   21.7918 N   0  0  0  0  0  0  0  0  0  0  0  0
  -19.5163  -27.1610   19.9970 N   0  3  0  0  0  0  0  0  0  0  0  0
  -27.3500  -23.8266   18.9869 N   0  3  1  0  0  0  0  0  0  0  0  0
  -21.7454  -12.4441   20.5784 O   0  0  0  0  0  0  0  0  0  0  0  0
  -26.5992  -31.2918   22.8506 O   0  0  0  0  0  0  0  0  0  0  0  0
  -22.1698  -31.8023   22.5793 O   0  0  0  0  0  0  0  0  0  0  0  0
  -21.6253  -27.1434   21.8593 O   0  0  0  0  0  0  0  0  0  0  0  0
  -30.1195  -17.5902   19.9168 O   0  0  0  0  0  0  0  0  0  0  0  0
  -25.9159   -6.7594   23.8767 O   0  0  0  0  0  0  0  0  0  0  0  0
  -28.1438  -26.3380   20.0673 O   0  0  0  0  0  0  0  0  0  1  0  0
  -22.8466   -2.4817   22.2383 F   0  0  0  0  0  0  0  0  0  0  0  0
  -23.1550   -6.8884   23.9386 F   0  0  0  0  0  0  0  0  0  0  0  0
  1  2  1  0  0  0  0
  1  5  2  0  0  0  0
  2  6  2  0  0  0  0
  3  8  2  0  0  0  0
  3 16  1  0  0  0  0
  4  9  1  0  0  0  0
  4 16  2  0  0  0  0
  5 18  1  0  0  0  0
  6 20  1  0  0  0  0
  7 10  2  0  0  0  0
  7 19  1  0  0  0  0
  8 24  1  0  0  0  0
  9 24  2  0  0  0  0
 10 25  1  0  0  0  0
 11 12  2  0  0  0  0
 11 26  1  0  0  0  0
 12 27  1  0  0  0  0
 13 21  1  0  0  0  0
 13 25  2  0  0  0  0
 14 27  2  0  0  0  0
 14 28  1  0  0  0  0
 15 22  2  0  0  0  0
 15 71  1  0  0  0  0
 16 29  1  0  0  0  0
 17 29  1  0  0  0  0
 17 31  2  0  0  0  0
 17 32  1  0  0  0  0
 18 20  2  0  0  0  0
 18 37  1  0  0  0  0
 19 21  2  0  0  0  0
 19 38  1  0  0  0  0
 20 46  1  0  0  0  0
 21 39  1  0  0  0  0
 22 23  1  0  0  0  0
 22 58  1  0  0  0  0
 23 30  2  0  0  0  0
 23 66  1  0  0  0  0
 24 87  1  0  0  0  0
 25 88  1  0  0  0  0
 26 28  2  0  0  0  0
 26 87  1  0  0  0  0
 27 89  1  0  0  0  0
 28 90  1  0  0  0  0
 29 70  2  0  0  0  0
 30 49  1  0  0  0  0
 30 71  1  0  0  0  0
 31 72  1  0  0  0  0
 31 75  1  0  0  0  0
 32 76  1  0  0  0  0
 32 82  2  0  0  0  0
 33 47  1  0  0  0  0
 33 77  1  0  0  0  0
 33 83  2  0  0  0  0
 34 67  1  0  0  0  0
 34 73  1  0  0  0  0
 34 84  2  0  0  0  0
 35 68  1  0  0  0  0
 35 78  1  0  0  0  0
 35 85  2  0  0  0  0
 36 74  1  0  0  0  0
 36 79  1  0  0  0  0
 36 86  2  0  0  0  0
 37 40  1  0  0  0  0
 38 47  1  0  0  0  0
 39 73  1  0  0  0  0
 40 42  1  0  0  0  0
 41 43  1  0  0  0  0
 41 44  1  0  0  0  0
 42 46  1  0  0  0  0
 43 48  1  0  0  0  0
 44 74  1  0  0  0  0
 45 48  1  0  0  0  0
 45 74  1  0  0  0  0
 46 77  1  0  0  0  0
 47 73  1  0  0  0  0
 48 72  1  0  0  0  0
 50 59  1  0  0  0  0
 51 60  1  0  0  0  0
 52 66  1  0  0  0  0
 53 68  1  0  0  0  0
 54 69  1  0  0  0  0
 55 69  1  0  0  0  0
 56 69  1  0  0  0  0
 57 80  1  0  0  0  0
 58 79  1  0  0  0  0
 59 62  1  0  0  0  0
 60 66  1  0  0  0  0
 61 63  1  0  0  0  0
 61 71  1  0  0  0  0
 62 81  1  0  0  0  0
 63 81  1  0  0  0  0
 64 65  1  0  0  0  0
 64 81  1  0  0  0  0
 65 88  1  0  0  0  0
 67 69  1  0  0  0  0
 67 78  1  0  0  0  0
 68 80  1  0  0  0  0
 70 72  1  0  0  0  0
M  CHG  2  80   1  81   1
M  ISO  4  36 100  65 101  79 100  88 101
M  END
> <Batch ID>
0096

> <Smiles>
CCCN(CCn1cc(C[100NH:0][100C:0](=O)N2CCCC(n3nc(-c4ccc(Oc5ccc(F)cc5F)cc4)c(C(N)=O)c3N)C2)c(C(C)CC)c1C)C[101CH2:1][101O:1]c1ccc2c(c1)CN(C(=O)C(NC(=O)C(C)NC)C(C)(C)C)C(C(=O)NC1CCCc3ccccc31)C2

> <Shape>
0.293

> <Color>
0.103

> <Negative vol penalty>
0.000

$$$$

  -OEChem-04052319243D

 83 91  0     1  0  0  0  0  0999 V2000
  -18.9862  -23.1887   24.1331 C   0  0  0  0  0  0  0  0  0  0  0  0
  -20.2852  -22.7052   24.0139 C   0  0  0  0  0  0  0  0  0  0  0  0
  -26.2183  -12.5417   21.5899 C   0  0  0  0  0  0  0  0  0  0  0  0
  -25.3184  -13.2208   19.4531 C   0  0  0  0  0  0  0  0  0  0  0  0
  -18.5876  -24.3022   23.3948 C   0  0  0  0  0  0  0  0  0  0  0  0
  -21.1860  -23.3342   23.1553 C   0  0  0  0  0  0  0  0  0  0  0  0
  -28.1615  -24.8283   22.5019 C   0  0  0  0  0  0  0  0  0  0  0  0
  -25.3212  -11.4743   21.6286 C   0  0  0  0  0  0  0  0  0  0  0  0
  -24.4213  -12.1533   19.4917 C   0  0  0  0  0  0  0  0  0  0  0  0
  -29.2102  -24.6986   21.5924 C   0  0  0  0  0  0  0  0  0  0  0  0
  -25.0524   -8.3955   20.2569 C   0  0  0  0  0  0  0  0  0  0  0  0
  -25.5455   -7.1478   20.6383 C   0  0  0  0  0  0  0  0  0  0  0  0
  -28.4336  -26.6624   20.4263 C   0  0  0  0  0  0  0  0  0  0  0  0
  -24.0067   -7.1090   22.5005 C   0  0  0  0  0  0  0  0  0  0  0  0
  -26.9960  -23.6773   18.1071 C   0  0  0  0  0  0  0  0  0  0  0  0
  -26.2168  -13.4150   20.5022 C   0  0  0  0  0  0  0  0  0  0  0  0
  -28.4404  -14.5194   19.9157 C   0  0  0  0  0  0  0  0  0  0  0  0
  -19.4868  -24.9511   22.5340 C   0  0  0  0  0  0  0  0  0  0  0  0
  -27.2331  -25.8714   22.3739 C   0  0  0  0  0  0  0  0  0  0  0  0
  -20.7987  -24.4566   22.4037 C   0  0  0  0  0  0  0  0  0  0  0  0
  -27.3755  -26.8046   21.3370 C   0  0  0  0  0  0  0  0  0  0  0  0
  -24.4227  -11.2801   20.5795 C   0  0  0  0  0  0  0  0  0  0  0  0
  -29.3447  -25.6141   20.5527 C   0  0  0  0  0  0  0  0  0  0  0  0
  -24.0364   -9.0001   20.9972 C   0  0  0  0  0  0  0  0  0  0  0  0
  -25.0227   -6.5045   21.7602 C   0  0  0  0  0  0  0  0  0  0  0  0
  -23.5136   -8.3568   22.1190 C   0  0  0  0  0  0  0  0  0  0  0  0
  -27.1429  -14.5181   20.4620 C   0  0  0  0  0  0  0  0  0  0  0  0
  -26.3554  -22.4806   17.9505 C   0  0  0  0  0  0  0  0  0  0  0  0
  -28.9005  -15.7962   20.1267 C   0  0  0  0  0  0  0  0  0  0  0  0
  -27.9151  -22.6304   16.3867 C   0  0  0  0  0  0  0  0  0  0  0  0
  -29.1648  -13.4610   19.2748 C   0  0  0  0  0  0  0  0  0  0  0  0
  -24.0977  -26.0354   21.8778 C   0  0  0  0  0  0  0  0  0  0  0  0
  -24.5807  -29.2065   22.3610 C   0  0  0  0  0  0  0  0  0  0  0  0
  -26.7396  -31.8491   22.3099 C   0  0  0  0  0  0  0  0  0  0  0  0
  -26.1368  -21.0555   20.8702 C   0  0  0  0  0  0  0  0  0  0  0  0
  -18.9962  -26.1226   21.7207 C   0  0  0  0  0  0  0  0  0  0  0  0
  -26.1231  -26.0130   23.3789 C   0  0  0  0  0  0  0  0  0  0  0  0
  -26.4173  -27.9542   21.1676 C   0  0  0  0  0  0  0  0  0  0  0  0
  -20.1215  -26.9582   21.1160 C   0  0  0  0  0  0  0  0  0  0  0  0
  -28.4232  -19.5024   23.1145 C   0  0  0  0  0  0  0  0  0  0  0  0
  -21.1666  -26.0564   20.4669 C   0  0  0  0  0  0  0  0  0  0  0  0
  -28.4714  -18.0490   22.6399 C   0  0  0  0  0  0  0  0  0  0  0  0
  -27.0230  -20.0955   22.9749 C   0  0  0  0  0  0  0  0  0  0  0  0
  -26.4809  -18.5261   21.1537 C   0  0  0  0  0  0  0  0  0  0  0  0
  -21.8122  -25.1267   21.5016 C   0  0  1  0  0  0  0  0  0  0  0  0
  -24.9372  -26.8142   22.8506 C   0  0  1  0  0  0  0  0  0  0  0  0
  -27.8853  -17.9021   21.2229 C   0  0  2  0  0  0  0  0  0  0  0  0
  -29.8763  -21.2919   15.5812 C   0  0  0  0  0  0  0  0  0  0  0  0
  -26.8347  -34.3232   22.7185 C   0  0  0  0  0  0  0  0  0  0  0  0
  -31.7311  -23.5631   19.2298 C   0  0  0  0  0  0  0  0  0  0  0  0
  -23.1839  -29.6983   19.6933 C   0  0  0  0  0  0  0  0  0  0  0  0
  -24.1353  -32.0141   19.7014 C   0  0  0  0  0  0  0  0  0  0  0  0
  -22.5659  -31.3060   21.5065 C   0  0  0  0  0  0  0  0  0  0  0  0
  -28.7299  -31.5319   24.4772 C   0  0  0  0  0  0  0  0  0  0  0  0
  -25.2543  -21.8671   18.6973 C   0  0  0  0  0  0  0  0  0  0  0  0
  -28.7799  -22.2976   15.2273 C   0  0  0  0  0  0  0  0  0  0  0  0
  -30.3350  -24.6142   17.4131 C   0  0  0  0  0  0  0  0  0  0  0  0
  -28.9078  -24.8948   16.9210 C   0  0  0  0  0  0  0  0  0  0  0  0
  -24.9194  -30.3831   21.4779 C   0  0  1  0  0  0  0  0  0  0  0  0
  -27.0189  -32.9414   23.3264 C   0  0  2  0  0  0  0  0  0  0  0  0
  -30.4265  -24.2806   18.9073 C   0  0  2  0  0  0  0  0  0  1  0  0
  -23.7182  -30.8277   20.5966 C   0  0  0  0  0  0  0  0  0  0  0  0
  -26.8009  -15.7003   20.9812 N   0  0  0  0  0  0  0  0  0  0  0  0
  -27.9564  -23.7432   17.1266 N   0  0  0  0  0  0  0  0  0  0  0  0
  -27.8902  -16.4562   20.7621 N   0  0  0  0  0  0  0  0  0  0  0  0
  -26.9443  -21.8540   16.8788 N   0  3  0  0  0  0  0  0  0  0  0  0
  -25.3448  -28.0462   22.1720 N   0  0  0  0  0  0  0  0  0  0  0  0
  -26.5256  -19.9249   21.6076 N   0  0  0  0  0  0  0  0  0  0  0  0
  -30.0668  -16.4074   19.8290 N   0  0  0  0  0  0  0  0  0  0  0  0
  -28.5435  -12.2120   19.1404 N   0  0  0  0  0  0  0  0  0  0  0  0
  -22.7914  -25.8471   22.2869 N   0  0  0  0  0  0  0  0  0  0  0  0
  -25.4288  -31.4247   22.3633 N   0  0  0  0  0  0  0  0  0  0  0  0
  -25.6835  -20.8059   19.5807 N   0  0  0  0  0  0  0  0  0  0  0  0
  -28.4164  -32.8331   23.8325 N   0  3  0  0  0  0  0  0  0  0  0  0
  -30.3348  -13.6137   18.8490 O   0  0  0  0  0  0  0  0  0  0  0  0
  -24.5977  -25.6363   20.8326 O   0  0  0  0  0  0  0  0  0  0  0  0
  -23.6765  -29.3152   23.1929 O   0  0  0  0  0  0  0  0  0  0  0  0
  -27.5975  -31.4182   21.5425 O   0  0  0  0  0  0  0  0  0  0  0  0
  -26.1948  -22.2029   21.3253 O   0  0  0  0  0  0  0  0  0  0  0  0
  -23.5474  -10.2385   20.6167 O   0  0  0  0  0  0  0  0  0  0  0  0
  -30.3670  -25.4895   19.6631 O   0  0  0  0  0  0  0  0  0  1  0  0
  -25.4953   -5.3056   22.1255 F   0  0  0  0  0  0  0  0  0  0  0  0
  -22.5367   -8.9320   22.8336 F   0  0  0  0  0  0  0  0  0  0  0  0
  1  2  1  0  0  0  0
  1  5  2  0  0  0  0
  2  6  2  0  0  0  0
  3  8  2  0  0  0  0
  3 16  1  0  0  0  0
  4  9  1  0  0  0  0
  4 16  2  0  0  0  0
  5 18  1  0  0  0  0
  6 20  1  0  0  0  0
  7 10  2  0  0  0  0
  7 19  1  0  0  0  0
  8 22  1  0  0  0  0
  9 22  2  0  0  0  0
 10 23  1  0  0  0  0
 11 12  2  0  0  0  0
 11 24  1  0  0  0  0
 12 25  1  0  0  0  0
 13 21  1  0  0  0  0
 13 23  2  0  0  0  0
 14 25  2  0  0  0  0
 14 26  1  0  0  0  0
 15 28  2  0  0  0  0
 15 64  1  0  0  0  0
 16 27  1  0  0  0  0
 17 27  1  0  0  0  0
 17 29  2  0  0  0  0
 17 31  1  0  0  0  0
 18 20  2  0  0  0  0
 18 36  1  0  0  0  0
 19 21  2  0  0  0  0
 19 37  1  0  0  0  0
 20 45  1  0  0  0  0
 21 38  1  0  0  0  0
 22 80  1  0  0  0  0
 23 81  1  0  0  0  0
 24 26  2  0  0  0  0
 24 80  1  0  0  0  0
 25 82  1  0  0  0  0
 26 83  1  0  0  0  0
 27 63  2  0  0  0  0
 28 55  1  0  0  0  0
 28 66  1  0  0  0  0
 29 65  1  0  0  0  0
 29 69  1  0  0  0  0
 30 56  1  0  0  0  0
 30 64  1  0  0  0  0
 30 66  2  0  0  0  0
 31 70  1  0  0  0  0
 31 75  2  0  0  0  0
 32 46  1  0  0  0  0
 32 71  1  0  0  0  0
 32 76  2  0  0  0  0
 33 59  1  0  0  0  0
 33 67  1  0  0  0  0
 33 77  2  0  0  0  0
 34 60  1  0  0  0  0
 34 72  1  0  0  0  0
 34 78  2  0  0  0  0
 35 68  1  0  0  0  0
 35 73  1  0  0  0  0
 35 79  2  0  0  0  0
 36 39  1  0  0  0  0
 37 46  1  0  0  0  0
 38 67  1  0  0  0  0
 39 41  1  0  0  0  0
 40 42  1  0  0  0  0
 40 43  1  0  0  0  0
 41 45  1  0  0  0  0
 42 47  1  0  0  0  0
 43 68  1  0  0  0  0
 44 47  1  0  0  0  0
 44 68  1  0  0  0  0
 45 71  1  0  0  0  0
 46 67  1  0  0  0  0
 47 65  1  0  0  0  0
 48 56  1  0  0  0  0
 49 60  1  0  0  0  0
 50 61  1  0  0  0  0
 51 62  1  0  0  0  0
 52 62  1  0  0  0  0
 53 62  1  0  0  0  0
 54 74  1  0  0  0  0
 55 73  1  0  0  0  0
 57 58  1  0  0  0  0
 57 61  1  0  0  0  0
 58 64  1  0  0  0  0
 59 62  1  0  0  0  0
 59 72  1  0  0  0  0
 60 74  1  0  0  0  0
 61 81  1  0  0  0  0
 63 65  1  0  0  0  0
M  CHG  2  66   1  74   1
M  ISO  4  35 100  61 101  73 100  81 101
M  END
> <Batch ID>
0096

> <Smiles>
CCc1nc(C[100NH:0][100C:0](=O)N2CCCC(n3nc(-c4ccc(Oc5ccc(F)cc5F)cc4)c(C(N)=O)c3N)C2)cn1CC[101CH:1](C)[101O:1]c1ccc2c(c1)CN(C(=O)C(NC(=O)C(C)NC)C(C)(C)C)C(C(=O)NC1CCCc3ccccc31)C2

> <Shape>
0.233

> <Color>
0.050

> <Negative vol penalty>
0.000

$$$$

  -OEChem-04052319243D

 86 94  0     1  0  0  0  0  0999 V2000
  -26.0891  -26.7027   29.9174 C   0  0  0  0  0  0  0  0  0  0  0  0
  -25.6375  -25.8111   28.9496 C   0  0  0  0  0  0  0  0  0  0  0  0
  -23.0876   -9.8335   21.4594 C   0  0  0  0  0  0  0  0  0  0  0  0
  -23.9005  -10.7159   23.5564 C   0  0  0  0  0  0  0  0  0  0  0  0
  -26.4069  -28.0130   29.5623 C   0  0  0  0  0  0  0  0  0  0  0  0
  -25.5025  -26.2297   27.6263 C   0  0  0  0  0  0  0  0  0  0  0  0
  -27.3570  -22.8660   24.3261 C   0  0  0  0  0  0  0  0  0  0  0  0
  -22.3927   -8.8388   22.1474 C   0  0  0  0  0  0  0  0  0  0  0  0
  -23.2056   -9.7212   24.2444 C   0  0  0  0  0  0  0  0  0  0  0  0
  -26.5709  -21.7493   24.0455 C   0  0  0  0  0  0  0  0  0  0  0  0
  -20.6947   -5.8492   23.3319 C   0  0  0  0  0  0  0  0  0  0  0  0
  -20.7737   -4.5450   22.8439 C   0  0  0  0  0  0  0  0  0  0  0  0
  -25.8297  -22.7924   22.0005 C   0  0  0  0  0  0  0  0  0  0  0  0
  -23.1707   -4.5775   23.1449 C   0  0  0  0  0  0  0  0  0  0  0  0
  -23.8416  -10.7720   22.1640 C   0  0  0  0  0  0  0  0  0  0  0  0
  -24.0875  -13.0773   21.0996 C   0  0  0  0  0  0  0  0  0  0  0  0
  -26.2849  -28.4451   28.2323 C   0  0  0  0  0  0  0  0  0  0  0  0
  -27.3769  -23.9607   23.4499 C   0  0  0  0  0  0  0  0  0  0  0  0
  -25.8177  -27.5473   27.2534 C   0  0  0  0  0  0  0  0  0  0  0  0
  -26.6188  -23.9207   22.2710 C   0  0  0  0  0  0  0  0  0  0  0  0
  -29.3551  -18.3899   19.3688 C   0  0  0  0  0  0  0  0  0  0  0  0
  -22.4517   -8.7826   23.5398 C   0  0  0  0  0  0  0  0  0  0  0  0
  -25.8048  -21.7136   22.8840 C   0  0  0  0  0  0  0  0  0  0  0  0
  -21.8537   -6.5177   23.7264 C   0  0  0  0  0  0  0  0  0  0  0  0
  -22.0116   -3.9091   22.7504 C   0  0  0  0  0  0  0  0  0  0  0  0
  -23.0916   -5.8818   23.6330 C   0  0  0  0  0  0  0  0  0  0  0  0
  -24.5601  -11.7994   21.4539 C   0  0  0  0  0  0  0  0  0  0  0  0
  -30.2036  -19.4515   19.1697 C   0  0  0  0  0  0  0  0  0  0  0  0
  -30.2095  -17.2893   19.5698 C   0  0  0  0  0  0  0  0  0  0  0  0
  -25.1425  -13.6642   20.4446 C   0  0  0  0  0  0  0  0  0  0  0  0
  -22.8091  -13.6799   21.3410 C   0  0  0  0  0  0  0  0  0  0  0  0
  -26.5749  -27.0283   23.6743 C   0  0  0  0  0  0  0  0  0  0  0  0
  -27.8596  -27.1795   20.6996 C   0  0  0  0  0  0  0  0  0  0  0  0
  -28.6964  -25.5520   17.8190 C   0  0  0  0  0  0  0  0  0  0  0  0
  -30.5691  -14.8373   20.0225 C   0  0  0  0  0  0  0  0  0  0  0  0
  -26.5954  -29.8843   27.9052 C   0  0  0  0  0  0  0  0  0  0  0  0
  -28.2509  -25.1466   23.7537 C   0  0  0  0  0  0  0  0  0  0  0  0
  -26.6211  -25.0615   21.2876 C   0  0  0  0  0  0  0  0  0  0  0  0
  -26.7817  -30.1431   26.4123 C   0  0  0  0  0  0  0  0  0  0  0  0
  -29.4888  -11.6861   18.7657 C   0  0  0  0  0  0  0  0  0  0  0  0
  -25.6663  -29.4782   25.6120 C   0  0  0  0  0  0  0  0  0  0  0  0
  -28.0714  -11.5397   19.3239 C   0  0  0  0  0  0  0  0  0  0  0  0
  -30.4229  -12.3704   19.7621 C   0  0  0  0  0  0  0  0  0  0  0  0
  -28.5236  -13.5099   20.8407 C   0  0  0  0  0  0  0  0  0  0  0  0
  -25.6817  -27.9568   25.8029 C   0  0  1  0  0  0  0  0  0  0  0  0
  -27.7970  -26.4200   23.0466 C   0  0  1  0  0  0  0  0  0  0  0  0
  -27.5304  -12.8846   19.8477 C   0  0  2  0  0  0  0  0  0  0  0  0
  -29.1780  -21.5740   20.0622 C   0  0  0  0  0  0  0  0  0  0  0  0
  -29.1703  -21.1157   17.5833 C   0  0  0  0  0  0  0  0  0  0  0  0
  -29.6896  -25.2152   15.5392 C   0  0  0  0  0  0  0  0  0  0  0  0
  -23.5291  -18.2170   22.0091 C   0  0  0  0  0  0  0  0  0  0  0  0
  -25.2451  -28.4493   19.7709 C   0  0  0  0  0  0  0  0  0  0  0  0
  -25.9205  -27.9484   17.4127 C   0  0  0  0  0  0  0  0  0  0  0  0
  -27.3076  -29.4836   18.8062 C   0  0  0  0  0  0  0  0  0  0  0  0
  -32.7066  -19.6678   19.1194 C   0  0  0  0  0  0  0  0  0  0  0  0
  -31.3208  -24.7807   18.9490 C   0  0  0  0  0  0  0  0  0  0  0  0
  -27.8472  -18.4117   19.3690 C   0  0  0  0  0  0  0  0  0  0  0  0
  -27.2286  -18.3419   20.7710 C   0  0  0  0  0  0  0  0  0  0  0  0
  -25.6951  -18.3784   20.7486 C   0  0  0  0  0  0  0  0  0  0  0  0
  -25.4955  -19.3651   23.0956 C   0  0  0  0  0  0  0  0  0  1  0  0
  -29.9347  -20.8781   18.9067 C   0  0  0  0  0  0  0  0  0  0  0  0
  -27.3309  -27.0034   19.2965 C   0  0  1  0  0  0  0  0  0  0  0  0
  -29.9712  -25.5542   16.9947 C   0  0  2  0  0  0  0  0  0  0  0  0
  -25.0572  -18.2437   22.1450 C   0  0  1  0  0  0  0  0  0  0  0  0
  -26.4493  -28.2003   18.8409 C   0  0  0  0  0  0  0  0  0  0  0  0
  -25.8174  -11.5863   21.0567 N   0  0  0  0  0  0  0  0  0  0  0  0
  -31.5017  -17.6209   19.5042 N   0  0  0  0  0  0  0  0  0  0  0  0
  -31.4655  -18.9419   19.2597 N   0  0  0  0  0  0  0  0  0  0  0  0
  -26.1438  -12.7381   20.4460 N   0  0  0  0  0  0  0  0  0  0  0  0
  -27.4868  -26.2014   21.6324 N   0  0  0  0  0  0  0  0  0  0  0  0
  -29.8472  -13.6399   20.2114 N   0  0  0  0  0  0  0  0  0  0  0  0
  -25.3021  -14.8768   19.8733 N   0  0  0  0  0  0  0  0  0  0  0  0
  -21.8395  -12.9373   22.0285 N   0  0  0  0  0  0  0  0  0  0  0  0
  -29.7735  -15.9639   19.8165 N   0  0  0  0  0  0  0  0  0  0  0  0
  -26.7318  -27.3581   25.0070 N   0  0  0  0  0  0  0  0  0  0  0  0
  -28.4938  -26.7614   18.4495 N   0  0  0  0  0  0  0  0  0  0  0  0
  -30.9370  -24.5543   17.5318 N   0  3  0  0  0  0  0  0  0  0  0  0
  -22.5292  -14.8365   20.9440 O   0  0  0  0  0  0  0  0  0  0  0  0
  -25.5648  -27.1880   22.9991 O   0  0  0  0  0  0  0  0  0  0  0  0
  -28.5826  -28.1453   20.9566 O   0  0  0  0  0  0  0  0  0  0  0  0
  -27.9527  -24.5763   17.8929 O   0  0  0  0  0  0  0  0  0  0  0  0
  -31.8026  -14.8571   20.0148 O   0  0  0  0  0  0  0  0  0  0  0  0
  -21.7735   -7.8123   24.2115 O   0  0  0  0  0  0  0  0  0  0  0  0
  -25.0361  -20.6251   22.6081 O   0  0  0  0  0  0  0  0  0  1  0  0
  -22.0872   -2.6560   22.2831 F   0  0  0  0  0  0  0  0  0  0  0  0
  -24.2084   -6.5185   24.0115 F   0  0  0  0  0  0  0  0  0  0  0  0
  1  2  1  0  0  0  0
  1  5  2  0  0  0  0
  2  6  2  0  0  0  0
  3  8  2  0  0  0  0
  3 15  1  0  0  0  0
  4  9  1  0  0  0  0
  4 15  2  0  0  0  0
  5 17  1  0  0  0  0
  6 19  1  0  0  0  0
  7 10  2  0  0  0  0
  7 18  1  0  0  0  0
  8 22  1  0  0  0  0
  9 22  2  0  0  0  0
 10 23  1  0  0  0  0
 11 12  2  0  0  0  0
 11 24  1  0  0  0  0
 12 25  1  0  0  0  0
 13 20  1  0  0  0  0
 13 23  2  0  0  0  0
 14 25  2  0  0  0  0
 14 26  1  0  0  0  0
 15 27  1  0  0  0  0
 16 27  1  0  0  0  0
 16 30  2  0  0  0  0
 16 31  1  0  0  0  0
 17 19  2  0  0  0  0
 17 36  1  0  0  0  0
 18 20  2  0  0  0  0
 18 37  1  0  0  0  0
 19 45  1  0  0  0  0
 20 38  1  0  0  0  0
 21 28  2  0  0  0  0
 21 29  1  0  0  0  0
 21 57  1  0  0  0  0
 22 83  1  0  0  0  0
 23 84  1  0  0  0  0
 24 26  2  0  0  0  0
 24 83  1  0  0  0  0
 25 85  1  0  0  0  0
 26 86  1  0  0  0  0
 27 66  2  0  0  0  0
 28 61  1  0  0  0  0
 28 68  1  0  0  0  0
 29 67  2  0  0  0  0
 29 74  1  0  0  0  0
 30 69  1  0  0  0  0
 30 72  1  0  0  0  0
 31 73  1  0  0  0  0
 31 78  2  0  0  0  0
 32 46  1  0  0  0  0
 32 75  1  0  0  0  0
 32 79  2  0  0  0  0
 33 62  1  0  0  0  0
 33 70  1  0  0  0  0
 33 80  2  0  0  0  0
 34 63  1  0  0  0  0
 34 76  1  0  0  0  0
 34 81  2  0  0  0  0
 35 71  1  0  0  0  0
 35 74  1  0  0  0  0
 35 82  2  0  0  0  0
 36 39  1  0  0  0  0
 37 46  1  0  0  0  0
 38 70  1  0  0  0  0
 39 41  1  0  0  0  0
 40 42  1  0  0  0  0
 40 43  1  0  0  0  0
 41 45  1  0  0  0  0
 42 47  1  0  0  0  0
 43 71  1  0  0  0  0
 44 47  1  0  0  0  0
 44 71  1  0  0  0  0
 45 75  1  0  0  0  0
 46 70  1  0  0  0  0
 47 69  1  0  0  0  0
 48 61  1  0  0  0  0
 49 61  1  0  0  0  0
 50 63  1  0  0  0  0
 51 64  1  0  0  0  0
 52 65  1  0  0  0  0
 53 65  1  0  0  0  0
 54 65  1  0  0  0  0
 55 68  1  0  0  0  0
 56 77  1  0  0  0  0
 57 58  1  0  0  0  0
 58 59  1  0  0  0  0
 59 64  1  0  0  0  0
 60 64  1  0  0  0  0
 60 84  1  0  0  0  0
 62 65  1  0  0  0  0
 62 76  1  0  0  0  0
 63 77  1  0  0  0  0
 66 69  1  0  0  0  0
 67 68  1  0  0  0  0
M  CHG  1  77   1
M  ISO  4  35 100  60 101  74 100  84 101
M  END
> <Batch ID>
0096

> <Smiles>
CNC(C)C(=O)NC(C(=O)N1Cc2cc([101O:1][101CH2:1]C(C)CCCc3c([100NH:0][100C:0](=O)N4CCCC(n5nc(-c6ccc(Oc7ccc(F)cc7F)cc6)c(C(N)=O)c5N)C4)nn(C)c3C(C)C)ccc2CC1C(=O)NC1CCCc2ccccc21)C(C)(C)C

> <Shape>
0.244

> <Color>
0.157

> <Negative vol penalty>
0.000

$$$$

  -OEChem-04052319243D

 85 93  0     1  0  0  0  0  0999 V2000
  -27.7340  -10.9287   16.6016 C   0  0  0  0  0  0  0  0  0  0  0  0
  -26.9317  -12.0621   16.5178 C   0  0  0  0  0  0  0  0  0  0  0  0
  -25.9492  -29.2096   19.7367 C   0  0  0  0  0  0  0  0  0  0  0  0
  -24.2113  -28.6424   21.3163 C   0  0  0  0  0  0  0  0  0  0  0  0
  -28.6834  -10.8216   17.6170 C   0  0  0  0  0  0  0  0  0  0  0  0
  -27.0777  -13.0888   17.4500 C   0  0  0  0  0  0  0  0  0  0  0  0
  -27.1052  -17.6744   15.3015 C   0  0  0  0  0  0  0  0  0  0  0  0
  -26.0163  -30.4958   20.2722 C   0  0  0  0  0  0  0  0  0  0  0  0
  -24.2784  -29.9286   21.8518 C   0  0  0  0  0  0  0  0  0  0  0  0
  -25.8743  -18.2061   14.9196 C   0  0  0  0  0  0  0  0  0  0  0  0
  -24.2441  -32.9507   23.8727 C   0  0  0  0  0  0  0  0  0  0  0  0
  -24.2511  -33.0761   25.2619 C   0  0  0  0  0  0  0  0  0  0  0  0
  -25.8408  -19.5512   16.9218 C   0  0  0  0  0  0  0  0  0  0  0  0
  -22.0961  -20.7455   13.4432 C   0  0  0  0  0  0  0  0  0  0  0  0
  -26.2784  -31.7662   25.3698 C   0  0  0  0  0  0  0  0  0  0  0  0
  -25.0467  -28.2829   20.2587 C   0  0  0  0  0  0  0  0  0  0  0  0
  -25.7130  -25.8249   20.1105 C   0  0  0  0  0  0  0  0  0  0  0  0
  -28.8478  -11.8518   18.5564 C   0  0  0  0  0  0  0  0  0  0  0  0
  -27.7091  -18.0698   16.5038 C   0  0  0  0  0  0  0  0  0  0  0  0
  -28.0293  -12.9948   18.4797 C   0  0  0  0  0  0  0  0  0  0  0  0
  -27.0807  -19.0250   17.3154 C   0  0  0  0  0  0  0  0  0  0  0  0
  -21.4574  -20.8565   14.7029 C   0  0  0  0  0  0  0  0  0  0  0  0
  -25.1809  -30.8553   21.3298 C   0  0  0  0  0  0  0  0  0  0  0  0
  -25.2405  -19.1424   15.7312 C   0  0  0  0  0  0  0  0  0  0  0  0
  -25.2541  -32.2331   23.2320 C   0  0  0  0  0  0  0  0  0  0  0  0
  -25.2682  -32.4838   26.0104 C   0  0  0  0  0  0  0  0  0  0  0  0
  -26.2713  -31.6409   23.9806 C   0  0  0  0  0  0  0  0  0  0  0  0
  -24.9766  -26.9543   19.7055 C   0  0  0  0  0  0  0  0  0  0  0  0
  -21.5909  -21.7413   12.6367 C   0  0  0  0  0  0  0  0  0  0  0  0
  -20.5811  -21.9167   14.6278 C   0  0  0  0  0  0  0  0  0  0  0  0
  -25.2843  -24.8192   19.2791 C   0  0  0  0  0  0  0  0  0  0  0  0
  -26.6965  -25.6963   21.1458 C   0  0  0  0  0  0  0  0  0  0  0  0
  -28.5580  -16.5837   19.1824 C   0  0  0  0  0  0  0  0  0  0  0  0
  -20.4250  -23.0455   16.8179 C   0  0  0  0  0  0  0  0  0  0  0  0
  -29.8568  -19.4659   19.9091 C   0  0  0  0  0  0  0  0  0  0  0  0
  -29.8675  -22.8440   19.4242 C   0  0  0  0  0  0  0  0  0  0  0  0
  -29.8549  -11.6701   19.6642 C   0  0  0  0  0  0  0  0  0  0  0  0
  -29.0498  -17.5068   16.8885 C   0  0  0  0  0  0  0  0  0  0  0  0
  -27.6966  -19.4978   18.6060 C   0  0  0  0  0  0  0  0  0  0  0  0
  -30.2038  -12.9674   20.3890 C   0  0  0  0  0  0  0  0  0  0  0  0
  -23.0586  -24.6346   14.8775 C   0  0  0  0  0  0  0  0  0  0  0  0
  -28.9372  -13.7467   20.7283 C   0  0  0  0  0  0  0  0  0  0  0  0
  -23.8782  -25.3143   15.9736 C   0  0  0  0  0  0  0  0  0  0  0  0
  -21.5676  -24.6432   15.2045 C   0  0  0  0  0  0  0  0  0  0  0  0
  -22.0569  -24.7188   17.6292 C   0  0  0  0  0  0  0  0  0  0  0  0
  -28.1747  -14.1407   19.4575 C   0  0  1  0  0  0  0  0  0  0  0  0
  -29.3288  -17.5979   18.3856 C   0  0  1  0  0  0  0  0  0  0  0  0
  -23.5695  -24.7042   17.3521 C   0  0  2  0  0  0  0  0  0  0  0  0
  -21.3194  -18.5134   15.6097 C   0  0  0  0  0  0  0  0  0  0  0  0
  -21.5669  -20.9355   10.2484 C   0  0  0  0  0  0  0  0  0  0  0  0
  -23.3850  -22.4950   11.0345 C   0  0  0  0  0  0  0  0  0  0  0  0
  -31.0174  -24.9400   20.1871 C   0  0  0  0  0  0  0  0  0  0  0  0
  -28.2795  -19.3781   22.5196 C   0  0  0  0  0  0  0  0  0  0  0  0
  -28.6999  -21.8330   22.7750 C   0  0  0  0  0  0  0  0  0  0  0  0
  -30.6175  -20.2379   22.7417 C   0  0  0  0  0  0  0  0  0  0  0  0
  -19.9099  -23.5787   12.8808 C   0  0  0  0  0  0  0  0  0  0  0  0
  -30.8442  -23.4401   16.6948 C   0  0  0  0  0  0  0  0  0  0  0  0
  -18.6273  -21.4740   16.2109 C   0  0  0  0  0  0  0  0  0  0  0  0
  -23.1504  -20.0537   16.4071 C   0  0  0  0  0  0  0  0  0  1  0  0
  -21.7007  -19.9655   15.9108 C   0  0  1  0  0  0  0  0  0  0  0  0
  -19.6661  -22.4705   15.6486 C   0  0  2  0  0  0  0  0  0  0  0  0
  -21.9103  -22.0762   11.2337 C   0  0  0  0  0  0  0  0  0  0  0  0
  -29.3661  -20.7166   20.5977 C   0  0  1  0  0  0  0  0  0  0  0  0
  -30.9995  -23.8199   19.1586 C   0  0  2  0  0  0  0  0  0  0  0  0
  -29.2280  -20.5312   22.1352 C   0  0  0  0  0  0  0  0  0  0  0  0
  -24.1434  -26.6914   18.6952 N   0  0  0  0  0  0  0  0  0  0  0  0
  -20.6706  -22.4468   13.3671 N   0  0  0  0  0  0  0  0  0  0  0  0
  -24.3537  -25.3854   18.4583 N   0  0  0  0  0  0  0  0  0  0  0  0
  -29.0055  -18.9132   18.9418 N   0  0  0  0  0  0  0  0  0  0  0  0
  -21.3182  -24.0795   16.5365 N   0  0  0  0  0  0  0  0  0  0  0  0
  -25.6164  -23.5147   19.1772 N   0  0  0  0  0  0  0  0  0  0  0  0
  -27.0186  -26.8290   21.9058 N   0  0  0  0  0  0  0  0  0  0  0  0
  -28.8085  -15.2742   18.8189 N   0  0  0  0  0  0  0  0  0  0  0  0
  -30.2793  -21.7842   20.2042 N   0  0  0  0  0  0  0  0  0  0  0  0
  -17.7907  -20.9486   15.1025 N   0  3  0  0  0  0  0  0  0  0  0  0
  -30.8535  -24.4268   17.8053 N   0  3  0  0  0  0  0  0  0  0  0  0
  -27.2846  -24.6131   21.3789 O   0  0  0  0  0  0  0  0  0  0  0  0
  -27.7938  -16.9611   20.0628 O   0  0  0  0  0  0  0  0  0  0  0  0
  -20.2304  -22.5862   17.9463 O   0  0  0  0  0  0  0  0  0  0  0  0
  -30.9580  -19.0006   20.2131 O   0  0  0  0  0  0  0  0  0  0  0  0
  -28.7306  -23.0076   18.9868 O   0  0  0  0  0  0  0  0  0  0  0  0
  -25.2462  -32.1102   21.8527 O   0  0  0  0  0  0  0  0  0  0  0  0
  -24.0386  -19.6624   15.3611 O   0  0  0  0  0  0  0  0  0  1  0  0
  -25.2757  -32.6056   27.3443 F   0  0  0  0  0  0  0  0  0  0  0  0
  -27.2450  -30.9512   23.3706 F   0  0  0  0  0  0  0  0  0  0  0  0
  1  2  1  0  0  0  0
  1  5  2  0  0  0  0
  2  6  2  0  0  0  0
  3  8  2  0  0  0  0
  3 16  1  0  0  0  0
  4  9  1  0  0  0  0
  4 16  2  0  0  0  0
  5 18  1  0  0  0  0
  6 20  1  0  0  0  0
  7 10  2  0  0  0  0
  7 19  1  0  0  0  0
  8 23  1  0  0  0  0
  9 23  2  0  0  0  0
 10 24  1  0  0  0  0
 11 12  2  0  0  0  0
 11 25  1  0  0  0  0
 12 26  1  0  0  0  0
 13 21  1  0  0  0  0
 13 24  2  0  0  0  0
 14 22  1  0  0  0  0
 14 29  2  0  0  0  0
 15 26  2  0  0  0  0
 15 27  1  0  0  0  0
 16 28  1  0  0  0  0
 17 28  1  0  0  0  0
 17 31  2  0  0  0  0
 17 32  1  0  0  0  0
 18 20  2  0  0  0  0
 18 37  1  0  0  0  0
 19 21  2  0  0  0  0
 19 38  1  0  0  0  0
 20 46  1  0  0  0  0
 21 39  1  0  0  0  0
 22 30  2  0  0  0  0
 22 60  1  0  0  0  0
 23 82  1  0  0  0  0
 24 83  1  0  0  0  0
 25 27  2  0  0  0  0
 25 82  1  0  0  0  0
 26 84  1  0  0  0  0
 27 85  1  0  0  0  0
 28 66  2  0  0  0  0
 29 62  1  0  0  0  0
 29 67  1  0  0  0  0
 30 61  1  0  0  0  0
 30 67  1  0  0  0  0
 31 68  1  0  0  0  0
 31 71  1  0  0  0  0
 32 72  1  0  0  0  0
 32 77  2  0  0  0  0
 33 47  1  0  0  0  0
 33 73  1  0  0  0  0
 33 78  2  0  0  0  0
 34 61  1  0  0  0  0
 34 70  1  0  0  0  0
 34 79  2  0  0  0  0
 35 63  1  0  0  0  0
 35 69  1  0  0  0  0
 35 80  2  0  0  0  0
 36 64  1  0  0  0  0
 36 74  1  0  0  0  0
 36 81  2  0  0  0  0
 37 40  1  0  0  0  0
 38 47  1  0  0  0  0
 39 69  1  0  0  0  0
 40 42  1  0  0  0  0
 41 43  1  0  0  0  0
 41 44  1  0  0  0  0
 42 46  1  0  0  0  0
 43 48  1  0  0  0  0
 44 70  1  0  0  0  0
 45 48  1  0  0  0  0
 45 70  1  0  0  0  0
 46 73  1  0  0  0  0
 47 69  1  0  0  0  0
 48 68  1  0  0  0  0
 49 60  1  0  0  0  0
 50 62  1  0  0  0  0
 51 62  1  0  0  0  0
 52 64  1  0  0  0  0
 53 65  1  0  0  0  0
 54 65  1  0  0  0  0
 55 65  1  0  0  0  0
 56 67  1  0  0  0  0
 57 76  1  0  0  0  0
 58 61  1  0  0  0  0
 58 75  1  0  0  0  0
 59 60  1  0  0  0  0
 59 83  1  0  0  0  0
 63 65  1  0  0  0  0
 63 74  1  0  0  0  0
 64 76  1  0  0  0  0
 66 68  1  0  0  0  0
M  CHG  2  75   1  76   1
M  ISO  4  34 100  59 101  61 100  83 101
M  END
> <Batch ID>
0096

> <Smiles>
CNC(C)C(=O)NC(C(=O)N1Cc2cc([101O:1][101CH2:1]C(C)c3cc(C(C)C)n(C)c3[100CH:0](CN)[100C:0](=O)N3CCCC(n4nc(-c5ccc(Oc6ccc(F)cc6F)cc5)c(C(N)=O)c4N)C3)ccc2CC1C(=O)NC1CCCc2ccccc21)C(C)(C)C

> <Shape>
0.215

> <Color>
0.049

> <Negative vol penalty>
0.000

$$$$

  -OEChem-04052319243D

 81 89  0     1  0  0  0  0  0999 V2000
  -22.1724  -11.1913   19.8914 C   0  0  0  0  0  0  0  0  0  0  0  0
  -21.6996  -12.4729   20.1548 C   0  0  0  0  0  0  0  0  0  0  0  0
  -28.8469  -28.0532   18.1944 C   0  0  0  0  0  0  0  0  0  0  0  0
  -27.5738  -26.5976   19.6427 C   0  0  0  0  0  0  0  0  0  0  0  0
  -23.5295  -10.9065   20.0371 C   0  0  0  0  0  0  0  0  0  0  0  0
  -22.5836  -13.4703   20.5650 C   0  0  0  0  0  0  0  0  0  0  0  0
  -22.2964  -19.4334   19.1994 C   0  0  0  0  0  0  0  0  0  0  0  0
  -29.9880  -27.2851   18.4253 C   0  0  0  0  0  0  0  0  0  0  0  0
  -28.7149  -25.8294   19.8736 C   0  0  0  0  0  0  0  0  0  0  0  0
  -21.8110  -20.5345   19.9033 C   0  0  0  0  0  0  0  0  0  0  0  0
  -33.3204  -25.9158   18.9189 C   0  0  0  0  0  0  0  0  0  0  0  0
  -34.5133  -26.5876   19.1857 C   0  0  0  0  0  0  0  0  0  0  0  0
  -24.0420  -21.0080   20.6893 C   0  0  0  0  0  0  0  0  0  0  0  0
  -33.5027  -27.6110   21.1270 C   0  0  0  0  0  0  0  0  0  0  0  0
  -27.6398  -27.7096   18.8031 C   0  0  0  0  0  0  0  0  0  0  0  0
  -25.8365  -28.7483   17.3277 C   0  0  0  0  0  0  0  0  0  0  0  0
  -24.4320  -11.9034   20.4400 C   0  0  0  0  0  0  0  0  0  0  0  0
  -23.6588  -19.1043   19.2440 C   0  0  0  0  0  0  0  0  0  0  0  0
  -23.9538  -13.1983   20.7175 C   0  0  0  0  0  0  0  0  0  0  0  0
  -24.5426  -19.9037   19.9830 C   0  0  0  0  0  0  0  0  0  0  0  0
  -29.9220  -26.1731   19.2649 C   0  0  0  0  0  0  0  0  0  0  0  0
  -22.6833  -21.3204   20.6508 C   0  0  0  0  0  0  0  0  0  0  0  0
  -32.2186  -26.0915   19.7561 C   0  0  0  0  0  0  0  0  0  0  0  0
  -34.6045  -27.4352   20.2897 C   0  0  0  0  0  0  0  0  0  0  0  0
  -32.3098  -26.9391   20.8601 C   0  0  0  0  0  0  0  0  0  0  0  0
  -26.4608  -28.5030   18.5654 C   0  0  0  0  0  0  0  0  0  0  0  0
  -24.7658  -29.5513   17.6363 C   0  0  0  0  0  0  0  0  0  0  0  0
  -26.1927  -28.2912   16.0162 C   0  0  0  0  0  0  0  0  0  0  0  0
  -25.3288  -16.5969   20.2578 C   0  0  0  0  0  0  0  0  0  0  0  0
  -27.8162  -18.2170   18.9501 C   0  0  0  0  0  0  0  0  0  0  0  0
  -29.6731  -21.2263   18.2333 C   0  0  0  0  0  0  0  0  0  0  0  0
  -21.5524  -30.3213   22.6295 C   0  0  0  0  0  0  0  0  0  0  0  0
  -25.8825  -11.5360   20.6291 C   0  0  0  0  0  0  0  0  0  0  0  0
  -24.1710  -17.9290   18.4575 C   0  0  0  0  0  0  0  0  0  0  0  0
  -26.0174  -19.6049   20.0471 C   0  0  0  0  0  0  0  0  0  0  0  0
  -26.8119  -12.7445   20.7063 C   0  0  0  0  0  0  0  0  0  0  0  0
  -23.3322  -32.8200   20.8224 C   0  0  0  0  0  0  0  0  0  0  0  0
  -26.2385  -13.7996   21.6470 C   0  0  0  0  0  0  0  0  0  0  0  0
  -19.9186  -25.2948   20.6272 C   0  0  0  0  0  0  0  0  0  0  0  0
  -21.1890  -24.6853   22.7227 C   0  0  0  0  0  0  0  0  0  0  0  0
  -19.9220  -26.7622   21.0519 C   0  0  0  0  0  0  0  0  0  0  0  0
  -21.1923  -26.1527   23.1475 C   0  0  0  0  0  0  0  0  0  0  0  0
  -24.2795  -32.0191   19.9274 C   0  0  0  0  0  0  0  0  0  0  0  0
  -23.1528  -32.1598   22.1877 C   0  0  0  0  0  0  0  0  0  0  0  0
  -23.6838  -29.9447   21.2469 C   0  0  0  0  0  0  0  0  0  0  0  0
  -24.8853  -14.3133   21.1406 C   0  0  1  0  0  0  0  0  0  0  0  0
  -25.4934  -17.3849   18.9891 C   0  0  1  0  0  0  0  0  0  0  0  0
  -21.1241  -24.5369   21.1973 C   0  0  0  0  0  0  0  0  0  0  0  0
  -19.9867  -26.9105   22.5773 C   0  0  0  0  0  0  0  0  0  0  0  0
  -23.8524  -30.5416   19.8391 C   0  0  2  0  0  0  0  0  0  0  0  0
  -31.7632  -21.5724   16.8883 C   0  0  0  0  0  0  0  0  0  0  0  0
  -20.0626  -28.5148   24.5031 C   0  0  0  0  0  0  0  0  0  0  0  0
  -18.8123  -29.1204   22.4186 C   0  0  0  0  0  0  0  0  0  0  0  0
  -29.2419  -17.9451   21.6340 C   0  0  0  0  0  0  0  0  0  0  0  0
  -30.8236  -19.7403   20.8968 C   0  0  0  0  0  0  0  0  0  0  0  0
  -30.7036  -17.5914   19.6358 C   0  0  0  0  0  0  0  0  0  0  0  0
  -28.3689  -23.2497   16.5116 C   0  0  0  0  0  0  0  0  0  0  0  0
  -21.0716  -23.0627   20.8005 C   0  0  0  0  0  0  0  0  0  1  0  0
  -28.8017  -19.2466   19.4480 C   0  0  1  0  0  0  0  0  0  0  0  0
  -30.2441  -21.6436   16.8901 C   0  0  2  0  0  0  0  0  0  0  0  0
  -20.0392  -28.3847   22.9742 C   0  0  0  0  0  0  0  0  0  0  0  0
  -29.8646  -18.6356   20.4042 C   0  0  0  0  0  0  0  0  0  0  0  0
  -25.8385  -29.1018   19.5843 N   0  0  0  0  0  0  0  0  0  0  0  0
  -24.8122  -29.7313   18.9875 N   0  0  0  0  0  0  0  0  0  0  0  0
  -26.4688  -18.4414   19.2661 N   0  0  0  0  0  0  0  0  0  0  0  0
  -22.7460  -30.7610   22.0337 N   0  0  0  0  0  0  0  0  0  0  0  0
  -23.7986  -30.1138   16.8810 N   0  0  0  0  0  0  0  0  0  0  0  0
  -25.6547  -27.0793   15.5621 N   0  0  0  0  0  0  0  0  0  0  0  0
  -25.0750  -15.2535   20.0569 N   0  0  0  0  0  0  0  0  0  0  0  0
  -29.3616  -19.8834   18.2609 N   0  0  0  0  0  0  0  0  0  0  0  0
  -21.2376  -28.9828   22.4293 N   0  0  0  0  0  0  0  0  0  0  0  0
  -29.8387  -23.0407   16.5664 N   0  3  0  0  0  0  0  0  0  0  0  0
  -26.9780  -28.9301   15.2755 O   0  0  0  0  0  0  0  0  0  0  0  0
  -25.4264  -17.1654   21.3390 O   0  0  0  0  0  0  0  0  0  0  0  0
  -28.2261  -17.2532   18.2984 O   0  0  0  0  0  0  0  0  0  0  0  0
  -29.5221  -22.0122   19.1661 O   0  0  0  0  0  0  0  0  0  0  0  0
  -20.8187  -31.0677   23.2864 O   0  0  0  0  0  0  0  0  0  0  0  0
  -31.0353  -25.4232   19.4903 O   0  0  0  0  0  0  0  0  0  0  0  0
  -22.2120  -22.3954   21.3393 O   0  0  0  0  0  0  0  0  0  1  0  0
  -35.7505  -28.0792   20.5467 F   0  0  0  0  0  0  0  0  0  0  0  0
  -31.2551  -27.1110   21.6687 F   0  0  0  0  0  0  0  0  0  0  0  0
  1  2  1  0  0  0  0
  1  5  2  0  0  0  0
  2  6  2  0  0  0  0
  3  8  2  0  0  0  0
  3 15  1  0  0  0  0
  4  9  1  0  0  0  0
  4 15  2  0  0  0  0
  5 17  1  0  0  0  0
  6 19  1  0  0  0  0
  7 10  2  0  0  0  0
  7 18  1  0  0  0  0
  8 21  1  0  0  0  0
  9 21  2  0  0  0  0
 10 22  1  0  0  0  0
 11 12  2  0  0  0  0
 11 23  1  0  0  0  0
 12 24  1  0  0  0  0
 13 20  1  0  0  0  0
 13 22  2  0  0  0  0
 14 24  2  0  0  0  0
 14 25  1  0  0  0  0
 15 26  1  0  0  0  0
 16 26  1  0  0  0  0
 16 27  2  0  0  0  0
 16 28  1  0  0  0  0
 17 19  2  0  0  0  0
 17 33  1  0  0  0  0
 18 20  2  0  0  0  0
 18 34  1  0  0  0  0
 19 46  1  0  0  0  0
 20 35  1  0  0  0  0
 21 78  1  0  0  0  0
 22 79  1  0  0  0  0
 23 25  2  0  0  0  0
 23 78  1  0  0  0  0
 24 80  1  0  0  0  0
 25 81  1  0  0  0  0
 26 63  2  0  0  0  0
 27 64  1  0  0  0  0
 27 67  1  0  0  0  0
 28 68  1  0  0  0  0
 28 73  2  0  0  0  0
 29 47  1  0  0  0  0
 29 69  1  0  0  0  0
 29 74  2  0  0  0  0
 30 59  1  0  0  0  0
 30 65  1  0  0  0  0
 30 75  2  0  0  0  0
 31 60  1  0  0  0  0
 31 70  1  0  0  0  0
 31 76  2  0  0  0  0
 32 66  1  0  0  0  0
 32 71  1  0  0  0  0
 32 77  2  0  0  0  0
 33 36  1  0  0  0  0
 34 47  1  0  0  0  0
 35 65  1  0  0  0  0
 36 38  1  0  0  0  0
 37 43  1  0  0  0  0
 37 44  1  0  0  0  0
 38 46  1  0  0  0  0
 39 41  1  0  0  0  0
 39 48  1  0  0  0  0
 40 42  1  0  0  0  0
 40 48  1  0  0  0  0
 41 49  1  0  0  0  0
 42 49  1  0  0  0  0
 43 50  1  0  0  0  0
 44 66  1  0  0  0  0
 45 50  1  0  0  0  0
 45 66  1  0  0  0  0
 46 69  1  0  0  0  0
 47 65  1  0  0  0  0
 48 58  1  0  0  0  0
 49 61  1  0  0  0  0
 50 64  1  0  0  0  0
 51 60  1  0  0  0  0
 52 61  1  0  0  0  0
 53 61  1  0  0  0  0
 54 62  1  0  0  0  0
 55 62  1  0  0  0  0
 56 62  1  0  0  0  0
 57 72  1  0  0  0  0
 58 79  1  0  0  0  0
 59 62  1  0  0  0  0
 59 70  1  0  0  0  0
 60 72  1  0  0  0  0
 61 71  1  0  0  0  0
 63 64  1  0  0  0  0
M  CHG  1  72   1
M  ISO  4  32 100  58 101  71 100  79 101
M  END
> <Batch ID>
0096

> <Smiles>
CNC(C)C(=O)NC(C(=O)N1Cc2cc([101O:1][101CH2:1]C3CCC(C(C)(C)[100NH:0][100C:0](=O)N4CCCC(n5nc(-c6ccc(Oc7ccc(F)cc7F)cc6)c(C(N)=O)c5N)C4)CC3)ccc2CC1C(=O)NC1CCCc2ccccc21)C(C)(C)C

> <Shape>
0.234

> <Color>
0.075

> <Negative vol penalty>
0.000

$$$$

  -OEChem-04052319243D

 87 95  0     1  0  0  0  0  0999 V2000
  -28.5476  -20.7482    9.5489 C   0  0  0  0  0  0  0  0  0  0  0  0
  -28.5668  -20.5496   10.9257 C   0  0  0  0  0  0  0  0  0  0  0  0
  -23.0751   -9.8367   19.9179 C   0  0  0  0  0  0  0  0  0  0  0  0
  -23.8475   -9.8121   22.2070 C   0  0  0  0  0  0  0  0  0  0  0  0
  -29.2432  -21.8197    8.9905 C   0  0  0  0  0  0  0  0  0  0  0  0
  -29.2825  -21.4220   11.7449 C   0  0  0  0  0  0  0  0  0  0  0  0
  -26.6805  -22.7904   15.8682 C   0  0  0  0  0  0  0  0  0  0  0  0
  -22.3422   -8.6734   20.1527 C   0  0  0  0  0  0  0  0  0  0  0  0
  -23.1145   -8.6488   22.4418 C   0  0  0  0  0  0  0  0  0  0  0  0
  -26.6167  -21.8715   16.9148 C   0  0  0  0  0  0  0  0  0  0  0  0
  -19.9806   -5.9114   20.2484 C   0  0  0  0  0  0  0  0  0  0  0  0
  -18.6727   -5.8605   19.7663 C   0  0  0  0  0  0  0  0  0  0  0  0
  -28.3607  -23.0739   18.0689 C   0  0  0  0  0  0  0  0  0  0  0  0
  -31.3883  -21.3181   22.2949 C   0  0  0  0  0  0  0  0  0  0  0  0
  -18.0987   -7.7765   21.1215 C   0  0  0  0  0  0  0  0  0  0  0  0
  -23.8278  -10.4060   20.9451 C   0  0  0  0  0  0  0  0  0  0  0  0
  -24.1481  -12.9356   20.8650 C   0  0  0  0  0  0  0  0  0  0  0  0
  -29.9599  -22.7113    9.8041 C   0  0  0  0  0  0  0  0  0  0  0  0
  -27.5941  -23.8534   15.9092 C   0  0  0  0  0  0  0  0  0  0  0  0
  -29.9895  -22.5057   11.1967 C   0  0  0  0  0  0  0  0  0  0  0  0
  -28.4324  -24.0063   17.0227 C   0  0  0  0  0  0  0  0  0  0  0  0
  -32.6251  -20.8657   21.7727 C   0  0  0  0  0  0  0  0  0  0  0  0
  -22.3619   -8.0794   21.4147 C   0  0  0  0  0  0  0  0  0  0  0  0
  -27.4588  -22.0115   18.0141 C   0  0  0  0  0  0  0  0  0  0  0  0
  -20.3476   -6.8948   21.1671 C   0  0  0  0  0  0  0  0  0  0  0  0
  -17.7318   -6.7931   20.2029 C   0  0  0  0  0  0  0  0  0  0  0  0
  -19.4066   -7.8273   21.6036 C   0  0  0  0  0  0  0  0  0  0  0  0
  -24.5856  -11.6074   20.7030 C   0  0  0  0  0  0  0  0  0  0  0  0
  -30.4594  -20.3263   22.0700 C   0  0  0  0  0  0  0  0  0  0  0  0
  -32.4143  -19.6112   21.2444 C   0  0  0  0  0  0  0  0  0  0  0  0
  -25.2320  -13.7001   20.5084 C   0  0  0  0  0  0  0  0  0  0  0  0
  -22.8757  -13.4338   21.2992 C   0  0  0  0  0  0  0  0  0  0  0  0
  -30.0634  -24.7590   14.1242 C   0  0  0  0  0  0  0  0  0  0  0  0
  -30.0191  -27.3536   16.0706 C   0  0  0  0  0  0  0  0  0  0  0  0
  -29.1456  -28.7021   19.0815 C   0  0  0  0  0  0  0  0  0  0  0  0
  -30.7080  -14.7618   20.6844 C   0  0  0  0  0  0  0  0  0  0  0  0
  -30.7353  -23.8275    9.1504 C   0  0  0  0  0  0  0  0  0  0  0  0
  -27.6320  -24.8514   14.7844 C   0  0  0  0  0  0  0  0  0  0  0  0
  -29.4167  -25.1418   17.1244 C   0  0  0  0  0  0  0  0  0  0  0  0
  -31.1617  -24.9240   10.1231 C   0  0  0  0  0  0  0  0  0  0  0  0
  -29.5772  -12.4076   18.2646 C   0  0  0  0  0  0  0  0  0  0  0  0
  -31.7619  -24.3137   11.3857 C   0  0  0  0  0  0  0  0  0  0  0  0
  -28.1446  -12.0947   18.7002 C   0  0  0  0  0  0  0  0  0  0  0  0
  -30.4990  -12.6162   19.4641 C   0  0  0  0  0  0  0  0  0  0  0  0
  -28.5989  -13.3083   20.8727 C   0  0  0  0  0  0  0  0  0  0  0  0
  -30.7341  -23.4448   12.1207 C   0  0  1  0  0  0  0  0  0  0  0  0
  -28.9577  -25.6011   14.6953 C   0  0  1  0  0  0  0  0  0  0  0  0
  -27.6198  -13.1451   19.6975 C   0  0  2  0  0  0  0  0  0  0  0  0
  -33.3570  -18.6874   20.5781 C   0  0  0  0  0  0  0  0  0  0  0  0
  -34.4059  -21.8979   23.2278 C   0  0  0  0  0  0  0  0  0  0  0  0
  -33.8435  -22.9322   20.9987 C   0  0  0  0  0  0  0  0  0  0  0  0
  -29.2751  -30.8357   20.3963 C   0  0  0  0  0  0  0  0  0  0  0  0
  -28.5816  -19.1100   23.3680 C   0  0  0  0  0  0  0  0  0  0  0  0
  -28.5979  -21.5816   23.1793 C   0  0  0  0  0  0  0  0  0  0  0  0
  -32.9689  -26.8206   16.6405 C   0  0  0  0  0  0  0  0  0  0  0  0
  -32.7887  -28.3396   18.6225 C   0  0  0  0  0  0  0  0  0  0  0  0
  -32.3859  -29.2324   16.3283 C   0  0  0  0  0  0  0  0  0  0  0  0
  -26.1983  -28.9184   19.2414 C   0  0  0  0  0  0  0  0  0  0  0  0
  -28.0797  -20.1954   21.1449 C   0  0  0  0  0  0  0  0  0  0  0  0
  -30.4658  -18.0570   21.0157 C   0  0  0  0  0  0  0  0  0  0  0  0
  -30.7628  -16.8921   21.9564 C   0  0  0  0  0  0  0  0  0  0  0  0
  -28.2909  -21.3195   20.1318 C   0  0  0  0  0  0  0  0  0  1  0  0
  -33.9011  -21.6083   21.7953 C   0  0  0  0  0  0  0  0  0  0  0  0
  -30.6643  -27.7136   17.3871 C   0  0  1  0  0  0  0  0  0  0  0  0
  -28.4416  -29.9989   19.4381 C   0  0  2  0  0  0  0  0  0  0  0  0
  -28.9626  -20.2777   22.4266 C   0  0  0  0  0  0  0  0  0  0  0  0
  -32.1848  -28.0039   17.2421 C   0  0  0  0  0  0  0  0  0  0  0  0
  -25.8489  -11.5291   20.2764 N   0  0  0  0  0  0  0  0  0  0  0  0
  -31.0942  -19.2937   21.4306 N   0  0  0  0  0  0  0  0  0  0  0  0
  -26.2145  -12.8177   20.1674 N   0  0  0  0  0  0  0  0  0  0  0  0
  -29.4204  -26.0880   15.9965 N   0  0  0  0  0  0  0  0  0  0  0  0
  -29.9448  -13.6253   20.3699 N   0  0  0  0  0  0  0  0  0  0  0  0
  -25.4309  -15.0343   20.4564 N   0  0  0  0  0  0  0  0  0  0  0  0
  -21.8732  -12.5107   21.6268 N   0  0  0  0  0  0  0  0  0  0  0  0
  -29.8042  -24.2748   12.8562 N   0  0  0  0  0  0  0  0  0  0  0  0
  -29.8924  -28.8267   17.9291 N   0  0  0  0  0  0  0  0  0  0  0  0
  -30.1058  -15.6715   21.5449 N   0  0  0  0  0  0  0  0  0  0  0  0
  -27.1283  -29.7150   20.0826 N   0  3  0  0  0  0  0  0  0  0  0  0
  -22.6295  -14.6613   21.3782 O   0  0  0  0  0  0  0  0  0  0  0  0
  -31.0772  -24.5644   14.7844 O   0  0  0  0  0  0  0  0  0  0  0  0
  -30.0392  -28.1682   15.1445 O   0  0  0  0  0  0  0  0  0  0  0  0
  -29.0462  -27.6819   19.7595 O   0  0  0  0  0  0  0  0  0  0  0  0
  -31.8400  -14.9542   20.2277 O   0  0  0  0  0  0  0  0  0  0  0  0
  -21.6466   -6.9444   21.6442 O   0  0  0  0  0  0  0  0  0  0  0  0
  -27.3990  -21.1156   19.0367 O   0  0  0  0  0  0  0  0  0  1  0  0
  -16.4762   -6.7451   19.7387 F   0  0  0  0  0  0  0  0  0  0  0  0
  -19.7535   -8.7751   22.4852 F   0  0  0  0  0  0  0  0  0  0  0  0
  1  2  1  0  0  0  0
  1  5  2  0  0  0  0
  2  6  2  0  0  0  0
  3  8  2  0  0  0  0
  3 16  1  0  0  0  0
  4  9  1  0  0  0  0
  4 16  2  0  0  0  0
  5 18  1  0  0  0  0
  6 20  1  0  0  0  0
  7 10  2  0  0  0  0
  7 19  1  0  0  0  0
  8 23  1  0  0  0  0
  9 23  2  0  0  0  0
 10 24  1  0  0  0  0
 11 12  2  0  0  0  0
 11 25  1  0  0  0  0
 12 26  1  0  0  0  0
 13 21  1  0  0  0  0
 13 24  2  0  0  0  0
 14 22  1  0  0  0  0
 14 29  2  0  0  0  0
 15 26  2  0  0  0  0
 15 27  1  0  0  0  0
 16 28  1  0  0  0  0
 17 28  1  0  0  0  0
 17 31  2  0  0  0  0
 17 32  1  0  0  0  0
 18 20  2  0  0  0  0
 18 37  1  0  0  0  0
 19 21  2  0  0  0  0
 19 38  1  0  0  0  0
 20 46  1  0  0  0  0
 21 39  1  0  0  0  0
 22 30  2  0  0  0  0
 22 63  1  0  0  0  0
 23 84  1  0  0  0  0
 24 85  1  0  0  0  0
 25 27  2  0  0  0  0
 25 84  1  0  0  0  0
 26 86  1  0  0  0  0
 27 87  1  0  0  0  0
 28 68  2  0  0  0  0
 29 66  1  0  0  0  0
 29 69  1  0  0  0  0
 30 49  1  0  0  0  0
 30 69  1  0  0  0  0
 31 70  1  0  0  0  0
 31 73  1  0  0  0  0
 32 74  1  0  0  0  0
 32 79  2  0  0  0  0
 33 47  1  0  0  0  0
 33 75  1  0  0  0  0
 33 80  2  0  0  0  0
 34 64  1  0  0  0  0
 34 71  1  0  0  0  0
 34 81  2  0  0  0  0
 35 65  1  0  0  0  0
 35 76  1  0  0  0  0
 35 82  2  0  0  0  0
 36 72  1  0  0  0  0
 36 77  1  0  0  0  0
 36 83  2  0  0  0  0
 37 40  1  0  0  0  0
 38 47  1  0  0  0  0
 39 71  1  0  0  0  0
 40 42  1  0  0  0  0
 41 43  1  0  0  0  0
 41 44  1  0  0  0  0
 42 46  1  0  0  0  0
 43 48  1  0  0  0  0
 44 72  1  0  0  0  0
 45 48  1  0  0  0  0
 45 72  1  0  0  0  0
 46 75  1  0  0  0  0
 47 71  1  0  0  0  0
 48 70  1  0  0  0  0
 50 63  1  0  0  0  0
 51 63  1  0  0  0  0
 52 65  1  0  0  0  0
 53 66  1  0  0  0  0
 54 66  1  0  0  0  0
 55 67  1  0  0  0  0
 56 67  1  0  0  0  0
 57 67  1  0  0  0  0
 58 78  1  0  0  0  0
 59 62  1  0  0  0  0
 59 66  1  0  0  0  0
 60 61  1  0  0  0  0
 60 69  1  0  0  0  0
 61 77  1  0  0  0  0
 62 85  1  0  0  0  0
 64 67  1  0  0  0  0
 64 76  1  0  0  0  0
 65 78  1  0  0  0  0
 68 70  1  0  0  0  0
M  CHG  1  78   1
M  ISO  4  36 100  62 101  77 100  85 101
M  END
> <Batch ID>
0096

> <Smiles>
CNC(C)C(=O)NC(C(=O)N1Cc2cc([101O:1][101CH2:1]CC(C)(C)c3cc(C(C)C)c(C)n3CC[100NH:0][100C:0](=O)N3CCCC(n4nc(-c5ccc(Oc6ccc(F)cc6F)cc5)c(C(N)=O)c4N)C3)ccc2CC1C(=O)NC1CCCc2ccccc21)C(C)(C)C

> <Shape>
0.200

> <Color>
0.197

> <Negative vol penalty>
0.000

$$$$

  -OEChem-04052319243D

 91 99  0     1  0  0  0  0  0999 V2000
  -22.0129  -10.8775   20.9405 C   0  0  0  0  0  0  0  0  0  0  0  0
  -21.6115  -12.2064   20.8497 C   0  0  0  0  0  0  0  0  0  0  0  0
  -25.2610  -30.0497   19.8796 C   0  0  0  0  0  0  0  0  0  0  0  0
  -25.2271  -29.2601   22.1627 C   0  0  0  0  0  0  0  0  0  0  0  0
  -23.3704  -10.5613   20.9742 C   0  0  0  0  0  0  0  0  0  0  0  0
  -22.5674  -13.2201   20.7937 C   0  0  0  0  0  0  0  0  0  0  0  0
  -22.1840  -18.4733   17.6691 C   0  0  0  0  0  0  0  0  0  0  0  0
  -23.8972  -30.3321   19.9570 C   0  0  0  0  0  0  0  0  0  0  0  0
  -23.8633  -29.5425   22.2401 C   0  0  0  0  0  0  0  0  0  0  0  0
  -21.8353  -19.7682   18.0505 C   0  0  0  0  0  0  0  0  0  0  0  0
  -20.9643  -28.1238   21.2333 C   0  0  0  0  0  0  0  0  0  0  0  0
  -20.1353  -27.1625   21.8115 C   0  0  0  0  0  0  0  0  0  0  0  0
  -24.1702  -20.3107   18.3210 C   0  0  0  0  0  0  0  0  0  0  0  0
  -19.4669  -28.7552   23.5009 C   0  0  0  0  0  0  0  0  0  0  0  0
  -27.2074  -21.9381   22.9103 C   0  0  0  0  0  0  0  0  0  0  0  0
  -25.9259  -29.5136   20.9824 C   0  0  0  0  0  0  0  0  0  0  0  0
  -28.4011  -30.0845   21.2174 C   0  0  0  0  0  0  0  0  0  0  0  0
  -24.3436  -11.5710   20.9088 C   0  0  0  0  0  0  0  0  0  0  0  0
  -23.5301  -18.0835   17.6213 C   0  0  0  0  0  0  0  0  0  0  0  0
  -23.9392  -12.9172   20.8279 C   0  0  0  0  0  0  0  0  0  0  0  0
  -24.5334  -19.0110   17.9363 C   0  0  0  0  0  0  0  0  0  0  0  0
  -28.2887  -21.8146   23.7545 C   0  0  0  0  0  0  0  0  0  0  0  0
  -27.8494  -22.1561   25.0574 C   0  0  0  0  0  0  0  0  0  0  0  0
  -23.1984  -30.0785   21.1373 C   0  0  0  0  0  0  0  0  0  0  0  0
  -22.8283  -20.6862   18.3793 C   0  0  0  0  0  0  0  0  0  0  0  0
  -21.0447  -29.4007   21.7889 C   0  0  0  0  0  0  0  0  0  0  0  0
  -19.3866  -27.4782   22.9452 C   0  0  0  0  0  0  0  0  0  0  0  0
  -20.2960  -29.7164   22.9227 C   0  0  0  0  0  0  0  0  0  0  0  0
  -27.3346  -29.2212   20.9028 C   0  0  0  0  0  0  0  0  0  0  0  0
  -26.5129  -22.4777   24.9697 C   0  0  0  0  0  0  0  0  0  0  0  0
  -29.5290  -29.3385   20.9770 C   0  0  0  0  0  0  0  0  0  0  0  0
  -28.3746  -31.4395   21.6852 C   0  0  0  0  0  0  0  0  0  0  0  0
  -25.2899  -15.9066   19.1273 C   0  0  0  0  0  0  0  0  0  0  0  0
  -27.5732  -16.8718   17.0350 C   0  0  0  0  0  0  0  0  0  0  0  0
  -28.7726  -19.3193   14.9813 C   0  0  0  0  0  0  0  0  0  0  0  0
  -30.5823  -23.4447   20.9121 C   0  0  0  0  0  0  0  0  0  0  0  0
  -25.7985  -11.1836   20.9962 C   0  0  0  0  0  0  0  0  0  0  0  0
  -23.8909  -16.6908   17.1821 C   0  0  0  0  0  0  0  0  0  0  0  0
  -25.9942  -18.6484   17.8812 C   0  0  0  0  0  0  0  0  0  0  0  0
  -26.7514  -12.2915   20.5546 C   0  0  0  0  0  0  0  0  0  0  0  0
  -31.1329  -25.7473   18.2528 C   0  0  0  0  0  0  0  0  0  0  0  0
  -26.3520  -13.6219   21.1850 C   0  0  0  0  0  0  0  0  0  0  0  0
  -30.3181  -26.9766   18.6588 C   0  0  0  0  0  0  0  0  0  0  0  0
  -30.4341  -24.4497   18.6528 C   0  0  0  0  0  0  0  0  0  0  0  0
  -29.2412  -25.5924   20.4818 C   0  0  0  0  0  0  0  0  0  0  0  0
  -24.9463  -14.0433   20.7400 C   0  0  1  0  0  0  0  0  0  0  0  0
  -25.2695  -16.2504   17.6647 C   0  0  1  0  0  0  0  0  0  0  0  0
  -29.9319  -26.9261   20.1493 C   0  0  2  0  0  0  0  0  0  0  0  0
  -28.6711  -22.1662   26.2854 C   0  0  0  0  0  0  0  0  0  0  0  0
  -25.9615  -24.2390   26.6866 C   0  0  0  0  0  0  0  0  0  0  0  0
  -25.3535  -21.8298   27.1122 C   0  0  0  0  0  0  0  0  0  0  0  0
  -30.6785  -19.8313   13.4312 C   0  0  0  0  0  0  0  0  0  0  0  0
  -29.3947  -17.3485   19.4360 C   0  0  0  0  0  0  0  0  0  0  0  0
  -30.8759  -18.7172   17.9524 C   0  0  0  0  0  0  0  0  0  0  0  0
  -30.5197  -16.2967   17.4656 C   0  0  0  0  0  0  0  0  0  0  0  0
  -25.3737  -24.0757   21.1251 C   0  0  0  0  0  0  0  0  0  0  0  0
  -24.9609  -25.0772   23.3637 C   0  0  0  0  0  0  0  0  0  0  0  0
  -26.9568  -19.6337   12.6655 C   0  0  0  0  0  0  0  0  0  0  0  0
  -21.9212  -22.0170   22.4901 C   0  0  0  0  0  0  0  0  0  0  0  0
  -29.6509  -21.4018   23.3620 C   0  0  0  0  0  0  0  0  0  0  0  0
  -24.7486  -22.5930   23.1075 C   0  0  0  0  0  0  0  0  0  0  0  0
  -30.6486  -22.5670   23.2325 C   0  0  0  0  0  0  0  0  0  0  0  0
  -21.3376  -23.2560   20.4105 C   0  0  0  0  0  0  0  0  0  0  0  0
  -23.0343  -24.1852   21.9784 C   0  0  0  0  0  0  0  0  0  0  0  0
  -21.2364  -22.1202   19.4115 C   0  0  0  0  0  0  0  0  0  1  0  0
  -25.5632  -22.9028   26.0198 C   0  0  0  0  0  0  0  0  0  0  0  0
  -28.6436  -17.9363   17.0368 C   0  0  1  0  0  0  0  0  0  0  0  0
  -29.2668  -19.2778   13.5465 C   0  0  2  0  0  0  0  0  0  0  0  0
  -29.8309  -17.5812   17.9757 C   0  0  0  0  0  0  0  0  0  0  0  0
  -24.5056  -23.9598   22.3967 C   0  0  0  0  0  0  0  0  0  0  0  0
  -27.7479  -28.0188   20.4936 N   0  0  0  0  0  0  0  0  0  0  0  0
  -26.1333  -22.3414   23.6600 N   0  0  0  0  0  0  0  0  0  0  0  0
  -29.0868  -28.1213   20.5494 N   0  0  0  0  0  0  0  0  0  0  0  0
  -26.2960  -17.2728   17.4521 N   0  0  0  0  0  0  0  0  0  0  0  0
  -30.0963  -24.4651   20.0781 N   0  0  0  0  0  0  0  0  0  0  0  0
  -30.8461  -29.6116   21.0918 N   0  0  0  0  0  0  0  0  0  0  0  0
  -27.1306  -32.0553   21.8790 N   0  0  0  0  0  0  0  0  0  0  0  0
  -24.9824  -14.5872   19.3994 N   0  0  0  0  0  0  0  0  0  0  0  0
  -29.0234  -18.1355   15.6423 N   0  0  0  0  0  0  0  0  0  0  0  0
  -30.2206  -23.5381   22.2504 N   0  0  0  0  0  0  0  0  0  0  0  0
  -28.3728  -20.0832   12.6672 N   0  3  0  0  0  0  0  0  0  0  0  0
  -22.3992  -22.9447   21.4006 N   0  3  1  0  0  0  0  0  0  0  0  0
  -29.4233  -32.0906   21.9087 O   0  0  0  0  0  0  0  0  0  0  0  0
  -25.5658  -16.7737   19.9480 O   0  0  0  0  0  0  0  0  0  0  0  0
  -27.8579  -15.7284   16.6700 O   0  0  0  0  0  0  0  0  0  0  0  0
  -28.2227  -20.3048   15.4681 O   0  0  0  0  0  0  0  0  0  0  0  0
  -31.2909  -22.5218   20.4958 O   0  0  0  0  0  0  0  0  0  0  0  0
  -21.8677  -30.3541   21.2133 O   0  0  0  0  0  0  0  0  0  0  0  0
  -22.4907  -21.9506   18.7525 O   0  0  0  0  0  0  0  0  0  1  0  0
  -18.5893  -26.5555   23.4995 F   0  0  0  0  0  0  0  0  0  0  0  0
  -20.3682  -30.9418   23.4603 F   0  0  0  0  0  0  0  0  0  0  0  0
  1  2  1  0  0  0  0
  1  5  2  0  0  0  0
  2  6  2  0  0  0  0
  3  8  2  0  0  0  0
  3 16  1  0  0  0  0
  4  9  1  0  0  0  0
  4 16  2  0  0  0  0
  5 18  1  0  0  0  0
  6 20  1  0  0  0  0
  7 10  2  0  0  0  0
  7 19  1  0  0  0  0
  8 24  1  0  0  0  0
  9 24  2  0  0  0  0
 10 25  1  0  0  0  0
 11 12  2  0  0  0  0
 11 26  1  0  0  0  0
 12 27  1  0  0  0  0
 13 21  1  0  0  0  0
 13 25  2  0  0  0  0
 14 27  2  0  0  0  0
 14 28  1  0  0  0  0
 15 22  2  0  0  0  0
 15 72  1  0  0  0  0
 16 29  1  0  0  0  0
 17 29  1  0  0  0  0
 17 31  2  0  0  0  0
 17 32  1  0  0  0  0
 18 20  2  0  0  0  0
 18 37  1  0  0  0  0
 19 21  2  0  0  0  0
 19 38  1  0  0  0  0
 20 46  1  0  0  0  0
 21 39  1  0  0  0  0
 22 23  1  0  0  0  0
 22 60  1  0  0  0  0
 23 30  2  0  0  0  0
 23 49  1  0  0  0  0
 24 88  1  0  0  0  0
 25 89  1  0  0  0  0
 26 28  2  0  0  0  0
 26 88  1  0  0  0  0
 27 90  1  0  0  0  0
 28 91  1  0  0  0  0
 29 71  2  0  0  0  0
 30 66  1  0  0  0  0
 30 72  1  0  0  0  0
 31 73  1  0  0  0  0
 31 76  1  0  0  0  0
 32 77  1  0  0  0  0
 32 83  2  0  0  0  0
 33 47  1  0  0  0  0
 33 78  1  0  0  0  0
 33 84  2  0  0  0  0
 34 67  1  0  0  0  0
 34 74  1  0  0  0  0
 34 85  2  0  0  0  0
 35 68  1  0  0  0  0
 35 79  1  0  0  0  0
 35 86  2  0  0  0  0
 36 75  1  0  0  0  0
 36 80  1  0  0  0  0
 36 87  2  0  0  0  0
 37 40  1  0  0  0  0
 38 47  1  0  0  0  0
 39 74  1  0  0  0  0
 40 42  1  0  0  0  0
 41 43  1  0  0  0  0
 41 44  1  0  0  0  0
 42 46  1  0  0  0  0
 43 48  1  0  0  0  0
 44 75  1  0  0  0  0
 45 48  1  0  0  0  0
 45 75  1  0  0  0  0
 46 78  1  0  0  0  0
 47 74  1  0  0  0  0
 48 73  1  0  0  0  0
 50 66  1  0  0  0  0
 51 66  1  0  0  0  0
 52 68  1  0  0  0  0
 53 69  1  0  0  0  0
 54 69  1  0  0  0  0
 55 69  1  0  0  0  0
 56 70  1  0  0  0  0
 57 70  1  0  0  0  0
 58 81  1  0  0  0  0
 59 82  1  0  0  0  0
 60 62  1  0  0  0  0
 61 70  1  0  0  0  0
 61 72  1  0  0  0  0
 62 80  1  0  0  0  0
 63 65  1  0  0  0  0
 63 82  1  0  0  0  0
 64 70  1  0  0  0  0
 64 82  1  0  0  0  0
 65 89  1  0  0  0  0
 67 69  1  0  0  0  0
 67 79  1  0  0  0  0
 68 81  1  0  0  0  0
 71 73  1  0  0  0  0
M  CHG  2  81   1  82   1
M  ISO  4  36 100  65 101  80 100  89 101
M  END
> <Batch ID>
0096

> <Smiles>
CNC(C)C(=O)NC(C(=O)N1Cc2cc([101O:1][101CH2:1]CN(C)CC(C)(C)Cn3cc(CC[100NH:0][100C:0](=O)N4CCCC(n5nc(-c6ccc(Oc7ccc(F)cc7F)cc6)c(C(N)=O)c5N)C4)c(C)c3C(C)C)ccc2CC1C(=O)NC1CCCc2ccccc21)C(C)(C)C

> <Shape>
0.212

> <Color>
0.044

> <Negative vol penalty>
0.000

$$$$

  -OEChem-04052319243D

 90 98  0     1  0  0  0  0  0999 V2000
  -35.8348  -28.9937   22.4595 C   0  0  0  0  0  0  0  0  0  0  0  0
  -35.8088  -27.9736   21.5139 C   0  0  0  0  0  0  0  0  0  0  0  0
  -23.0483   -9.8762   19.9946 C   0  0  0  0  0  0  0  0  0  0  0  0
  -23.8053   -9.9313   22.2883 C   0  0  0  0  0  0  0  0  0  0  0  0
  -34.6603  -29.3698   23.1100 C   0  0  0  0  0  0  0  0  0  0  0  0
  -34.6084  -27.3282   21.2191 C   0  0  0  0  0  0  0  0  0  0  0  0
  -32.8420  -25.1460   15.7763 C   0  0  0  0  0  0  0  0  0  0  0  0
  -22.2861   -8.7418   20.2734 C   0  0  0  0  0  0  0  0  0  0  0  0
  -23.0430   -8.7969   22.5671 C   0  0  0  0  0  0  0  0  0  0  0  0
  -32.8678  -23.8652   15.2260 C   0  0  0  0  0  0  0  0  0  0  0  0
  -21.0136   -6.1272   23.9715 C   0  0  0  0  0  0  0  0  0  0  0  0
  -20.2552   -6.1262   25.1421 C   0  0  0  0  0  0  0  0  0  0  0  0
  -28.5008  -18.7248   21.8318 C   0  0  0  0  0  0  0  0  0  0  0  0
  -30.5744  -23.5369   15.8981 C   0  0  0  0  0  0  0  0  0  0  0  0
  -19.0422   -8.0630   24.3581 C   0  0  0  0  0  0  0  0  0  0  0  0
  -27.1645  -19.0688   21.7067 C   0  0  0  0  0  0  0  0  0  0  0  0
  -23.8080  -10.4709   21.0020 C   0  0  0  0  0  0  0  0  0  0  0  0
  -24.1897  -12.9864   20.8166 C   0  0  0  0  0  0  0  0  0  0  0  0
  -33.4432  -28.7352   22.8159 C   0  0  0  0  0  0  0  0  0  0  0  0
  -31.6837  -25.6286   16.4023 C   0  0  0  0  0  0  0  0  0  0  0  0
  -33.4168  -27.6952   21.8672 C   0  0  0  0  0  0  0  0  0  0  0  0
  -30.5357  -24.8251   16.4533 C   0  0  0  0  0  0  0  0  0  0  0  0
  -29.1827  -18.3353   20.6844 C   0  0  0  0  0  0  0  0  0  0  0  0
  -28.5169  -18.3022   19.4642 C   0  0  0  0  0  0  0  0  0  0  0  0
  -22.2834   -8.2022   21.5596 C   0  0  0  0  0  0  0  0  0  0  0  0
  -31.7348  -23.0594   15.2895 C   0  0  0  0  0  0  0  0  0  0  0  0
  -20.7863   -7.0962   22.9941 C   0  0  0  0  0  0  0  0  0  0  0  0
  -19.2695   -7.0940   25.3354 C   0  0  0  0  0  0  0  0  0  0  0  0
  -19.8006   -8.0640   23.1874 C   0  0  0  0  0  0  0  0  0  0  0  0
  -24.5961  -11.6424   20.7145 C   0  0  0  0  0  0  0  0  0  0  0  0
  -27.1798  -18.6650   19.4451 C   0  0  0  0  0  0  0  0  0  0  0  0
  -25.2940  -13.7089   20.4357 C   0  0  0  0  0  0  0  0  0  0  0  0
  -22.9269  -13.5329   21.2197 C   0  0  0  0  0  0  0  0  0  0  0  0
  -30.9559  -26.5806   19.3464 C   0  0  0  0  0  0  0  0  0  0  0  0
  -28.1312  -27.3843   17.9690 C   0  0  0  0  0  0  0  0  0  0  0  0
  -25.9007  -26.8924   15.4333 C   0  0  0  0  0  0  0  0  0  0  0  0
  -30.7928  -14.6463   20.6065 C   0  0  0  0  0  0  0  0  0  0  0  0
  -32.2083  -29.1442   23.5792 C   0  0  0  0  0  0  0  0  0  0  0  0
  -31.6637  -27.0224   16.9674 C   0  0  0  0  0  0  0  0  0  0  0  0
  -29.2607  -25.3038   17.0964 C   0  0  0  0  0  0  0  0  0  0  0  0
  -30.9089  -28.6645   22.9376 C   0  0  0  0  0  0  0  0  0  0  0  0
  -29.6209  -12.2183   18.2810 C   0  0  0  0  0  0  0  0  0  0  0  0
  -31.0202  -27.1961   22.5400 C   0  0  0  0  0  0  0  0  0  0  0  0
  -28.1784  -11.9586   18.7191 C   0  0  0  0  0  0  0  0  0  0  0  0
  -30.5398  -12.4560   19.4773 C   0  0  0  0  0  0  0  0  0  0  0  0
  -28.6481  -13.2529   20.8411 C   0  0  0  0  0  0  0  0  0  0  0  0
  -32.1297  -26.9881   21.5021 C   0  0  1  0  0  0  0  0  0  0  0  0
  -30.5924  -27.2187   18.0356 C   0  0  1  0  0  0  0  0  0  0  0  0
  -27.6728  -13.0629   19.6668 C   0  0  2  0  0  0  0  0  0  0  0  0
  -25.0735  -19.3708   18.2824 C   0  0  0  0  0  0  0  0  0  0  0  0
  -33.7602  -19.0876   17.4859 C   0  0  0  0  0  0  0  0  0  0  0  0
  -30.5330  -19.6424   13.1419 C   0  0  0  0  0  0  0  0  0  0  0  0
  -23.6658  -27.6695   14.5972 C   0  0  0  0  0  0  0  0  0  0  0  0
  -26.7504  -25.7280   20.1278 C   0  0  0  0  0  0  0  0  0  0  0  0
  -24.6785  -25.7514   18.7224 C   0  0  0  0  0  0  0  0  0  0  0  0
  -25.6190  -27.8926   19.5904 C   0  0  0  0  0  0  0  0  0  0  0  0
  -27.0635  -27.8824   12.8982 C   0  0  0  0  0  0  0  0  0  0  0  0
  -30.6238  -17.9588   20.7882 C   0  0  0  0  0  0  0  0  0  0  0  0
  -29.2270  -17.8862   18.2097 C   0  0  0  0  0  0  0  0  0  0  0  0
  -26.4122  -18.6488   18.1637 C   0  0  0  0  0  0  0  0  0  0  0  0
  -32.8397  -20.1807   16.9579 C   0  0  0  0  0  0  0  0  0  0  0  0
  -29.8872  -20.3308   14.3390 C   0  0  0  0  0  0  0  0  0  0  0  0
  -30.8909  -16.8272   21.7869 C   0  0  0  0  0  0  0  0  0  0  0  0
  -30.9125  -18.5315   16.4830 C   0  0  0  0  0  0  0  0  0  0  0  0
  -26.8199  -26.6764   17.7274 C   0  0  1  0  0  0  0  0  0  0  0  0
  -25.1718  -27.8700   14.5292 C   0  0  2  0  0  0  0  0  0  0  0  0
  -31.7927  -19.6743   15.9383 C   0  0  1  0  0  0  0  0  0  0  0  0
  -30.9208  -20.8260   15.3627 C   0  0  1  0  0  0  0  0  0  1  0  0
  -25.9914  -26.5021   19.0315 C   0  0  0  0  0  0  0  0  0  0  0  0
  -26.4840  -19.0489   20.5388 N   0  0  0  0  0  0  0  0  0  0  0  0
  -25.8598  -11.5158   20.3010 N   0  0  0  0  0  0  0  0  0  0  0  0
  -26.2570  -12.7895   20.1398 N   0  0  0  0  0  0  0  0  0  0  0  0
  -29.2930  -26.6716   17.6401 N   0  0  0  0  0  0  0  0  0  0  0  0
  -30.0044  -13.5159   20.3351 N   0  0  0  0  0  0  0  0  0  0  0  0
  -25.5254  -15.0345   20.3282 N   0  0  0  0  0  0  0  0  0  0  0  0
  -21.9004  -12.6488   21.5789 N   0  0  0  0  0  0  0  0  0  0  0  0
  -31.6788  -27.4017   20.1906 N   0  0  0  0  0  0  0  0  0  0  0  0
  -26.1362  -27.4293   16.6813 N   0  0  0  0  0  0  0  0  0  0  0  0
  -30.2073  -15.6061   21.4230 N   0  0  0  0  0  0  0  0  0  0  0  0
  -25.6064  -27.6905   13.1150 N   0  3  0  0  0  0  0  0  0  0  0  0
  -30.1466  -18.9338   17.6849 N   0  3  0  0  0  0  0  0  0  0  0  0
  -22.7100  -14.7681   21.2444 O   0  0  0  0  0  0  0  0  0  0  0  0
  -30.6051  -25.4290   19.5756 O   0  0  0  0  0  0  0  0  0  0  0  0
  -28.1246  -28.5301   18.4258 O   0  0  0  0  0  0  0  0  0  0  0  0
  -26.2250  -25.7640   15.0701 O   0  0  0  0  0  0  0  0  0  0  0  0
  -31.9320  -14.7920   20.1504 O   0  0  0  0  0  0  0  0  0  0  0  0
  -21.5395   -7.0954   21.8321 O   0  0  0  0  0  0  0  0  0  0  0  0
  -31.7574  -21.8087   14.7537 O   0  0  0  0  0  0  0  0  0  1  0  0
  -18.5403   -7.0920   26.4590 F   0  0  0  0  0  0  0  0  0  0  0  0
  -19.5769   -8.9967   22.2515 F   0  0  0  0  0  0  0  0  0  0  0  0
  1  2  1  0  0  0  0
  1  5  2  0  0  0  0
  2  6  2  0  0  0  0
  3  8  2  0  0  0  0
  3 17  1  0  0  0  0
  4  9  1  0  0  0  0
  4 17  2  0  0  0  0
  5 19  1  0  0  0  0
  6 21  1  0  0  0  0
  7 10  2  0  0  0  0
  7 20  1  0  0  0  0
  8 25  1  0  0  0  0
  9 25  2  0  0  0  0
 10 26  1  0  0  0  0
 11 12  2  0  0  0  0
 11 27  1  0  0  0  0
 12 28  1  0  0  0  0
 13 16  1  0  0  0  0
 13 23  2  0  0  0  0
 14 22  1  0  0  0  0
 14 26  2  0  0  0  0
 15 28  2  0  0  0  0
 15 29  1  0  0  0  0
 16 70  2  0  0  0  0
 17 30  1  0  0  0  0
 18 30  1  0  0  0  0
 18 32  2  0  0  0  0
 18 33  1  0  0  0  0
 19 21  2  0  0  0  0
 19 38  1  0  0  0  0
 20 22  2  0  0  0  0
 20 39  1  0  0  0  0
 21 47  1  0  0  0  0
 22 40  1  0  0  0  0
 23 24  1  0  0  0  0
 23 58  1  0  0  0  0
 24 31  2  0  0  0  0
 24 59  1  0  0  0  0
 25 87  1  0  0  0  0
 26 88  1  0  0  0  0
 27 29  2  0  0  0  0
 27 87  1  0  0  0  0
 28 89  1  0  0  0  0
 29 90  1  0  0  0  0
 30 71  2  0  0  0  0
 31 60  1  0  0  0  0
 31 70  1  0  0  0  0
 32 72  1  0  0  0  0
 32 75  1  0  0  0  0
 33 76  1  0  0  0  0
 33 82  2  0  0  0  0
 34 48  1  0  0  0  0
 34 77  1  0  0  0  0
 34 83  2  0  0  0  0
 35 65  1  0  0  0  0
 35 73  1  0  0  0  0
 35 84  2  0  0  0  0
 36 66  1  0  0  0  0
 36 78  1  0  0  0  0
 36 85  2  0  0  0  0
 37 74  1  0  0  0  0
 37 79  1  0  0  0  0
 37 86  2  0  0  0  0
 38 41  1  0  0  0  0
 39 48  1  0  0  0  0
 40 73  1  0  0  0  0
 41 43  1  0  0  0  0
 42 44  1  0  0  0  0
 42 45  1  0  0  0  0
 43 47  1  0  0  0  0
 44 49  1  0  0  0  0
 45 74  1  0  0  0  0
 46 49  1  0  0  0  0
 46 74  1  0  0  0  0
 47 77  1  0  0  0  0
 48 73  1  0  0  0  0
 49 72  1  0  0  0  0
 50 60  1  0  0  0  0
 51 61  1  0  0  0  0
 52 62  1  0  0  0  0
 53 66  1  0  0  0  0
 54 69  1  0  0  0  0
 55 69  1  0  0  0  0
 56 69  1  0  0  0  0
 57 80  1  0  0  0  0
 58 63  1  0  0  0  0
 59 81  1  0  0  0  0
 61 67  1  0  0  0  0
 62 68  1  0  0  0  0
 63 79  1  0  0  0  0
 64 67  1  0  0  0  0
 64 81  1  0  0  0  0
 65 69  1  0  0  0  0
 65 78  1  0  0  0  0
 66 80  1  0  0  0  0
 67 68  1  0  0  0  0
 68 88  1  0  0  0  0
 71 72  1  0  0  0  0
M  CHG  2  80   1  81   1
M  ISO  4  37 100  68 101  79 100  88 101
M  END
> <Batch ID>
0096

> <Smiles>
CCc1nccc(CC[100NH:0][100C:0](=O)N2CCCC(n3nc(-c4ccc(Oc5ccc(F)cc5F)cc4)c(C(N)=O)c3N)C2)c1CNCC(CC)[101CH:1](CC)[101O:1]c1ccc2c(c1)CN(C(=O)C(NC(=O)C(C)NC)C(C)(C)C)C(C(=O)NC1CCCc3ccccc31)C2

> <Shape>
0.252

> <Color>
0.197

> <Negative vol penalty>
0.000

$$$$

  -OEChem-04052319243D

 83 91  0     1  0  0  0  0  0999 V2000
  -29.6496  -36.5733   19.8903 C   0  0  0  0  0  0  0  0  0  0  0  0
  -30.0179  -35.2679   20.1998 C   0  0  0  0  0  0  0  0  0  0  0  0
  -24.5358  -10.1091   22.2586 C   0  0  0  0  0  0  0  0  0  0  0  0
  -24.6328  -11.5621   24.1864 C   0  0  0  0  0  0  0  0  0  0  0  0
  -28.4856  -37.1154   20.4335 C   0  0  0  0  0  0  0  0  0  0  0  0
  -29.2227  -34.5042   21.0536 C   0  0  0  0  0  0  0  0  0  0  0  0
  -28.2321  -28.4686   20.7448 C   0  0  0  0  0  0  0  0  0  0  0  0
  -24.1619   -9.0451   23.0793 C   0  0  0  0  0  0  0  0  0  0  0  0
  -24.2589  -10.4980   25.0072 C   0  0  0  0  0  0  0  0  0  0  0  0
  -28.7945  -27.3897   21.4255 C   0  0  0  0  0  0  0  0  0  0  0  0
  -22.8310   -6.0330   24.6191 C   0  0  0  0  0  0  0  0  0  0  0  0
  -21.7826   -5.2196   24.1892 C   0  0  0  0  0  0  0  0  0  0  0  0
  -26.9585  -27.4272   22.9897 C   0  0  0  0  0  0  0  0  0  0  0  0
  -20.3046   -7.1307   24.1780 C   0  0  0  0  0  0  0  0  0  0  0  0
  -24.7713  -11.3676   22.8122 C   0  0  0  0  0  0  0  0  0  0  0  0
  -24.3064  -13.3824   21.3182 C   0  0  0  0  0  0  0  0  0  0  0  0
  -27.6707  -36.3547   21.2867 C   0  0  0  0  0  0  0  0  0  0  0  0
  -27.0322  -29.0428   21.1885 C   0  0  0  0  0  0  0  0  0  0  0  0
  -28.0474  -35.0371   21.6098 C   0  0  0  0  0  0  0  0  0  0  0  0
  -26.3815  -28.5117   22.3113 C   0  0  0  0  0  0  0  0  0  0  0  0
  -24.0234   -9.2395   24.4536 C   0  0  0  0  0  0  0  0  0  0  0  0
  -28.1592  -26.8707   22.5498 C   0  0  0  0  0  0  0  0  0  0  0  0
  -22.6162   -7.3952   24.8286 C   0  0  0  0  0  0  0  0  0  0  0  0
  -20.5194   -5.7685   23.9686 C   0  0  0  0  0  0  0  0  0  0  0  0
  -21.3530   -7.9441   24.6080 C   0  0  0  0  0  0  0  0  0  0  0  0
  -25.1581  -12.4670   21.9650 C   0  0  0  0  0  0  0  0  0  0  0  0
  -25.1561  -14.2237   20.6424 C   0  0  0  0  0  0  0  0  0  0  0  0
  -22.8750  -13.4650   21.3274 C   0  0  0  0  0  0  0  0  0  0  0  0
  -26.1773  -31.9150   22.2485 C   0  0  0  0  0  0  0  0  0  0  0  0
  -23.2001  -30.6297   22.1658 C   0  0  0  0  0  0  0  0  0  0  0  0
  -21.2507  -27.8292   22.2288 C   0  0  0  0  0  0  0  0  0  0  0  0
  -29.7798  -17.3429   20.4481 C   0  0  0  0  0  0  0  0  0  0  0  0
  -26.4467  -36.9997   21.8871 C   0  0  0  0  0  0  0  0  0  0  0  0
  -26.4247  -30.1891   20.4274 C   0  0  0  0  0  0  0  0  0  0  0  0
  -25.0811  -29.0791   22.8165 C   0  0  0  0  0  0  0  0  0  0  0  0
  -25.4621  -35.9984   22.4856 C   0  0  0  0  0  0  0  0  0  0  0  0
  -30.1230  -13.8678   19.7536 C   0  0  0  0  0  0  0  0  0  0  0  0
  -28.5394  -21.3505   18.4601 C   0  0  0  0  0  0  0  0  0  0  0  0
  -26.1973  -34.9767   23.3473 C   0  0  0  0  0  0  0  0  0  0  0  0
  -28.7947  -13.2688   20.2192 C   0  0  0  0  0  0  0  0  0  0  0  0
  -28.4896  -19.8653   18.8058 C   0  0  0  0  0  0  0  0  0  0  0  0
  -30.5776  -15.0075   20.6626 C   0  0  0  0  0  0  0  0  0  0  0  0
  -28.2517  -15.4760   21.3291 C   0  0  0  0  0  0  0  0  0  0  0  0
  -27.6593  -22.1764   19.3860 C   0  0  0  0  0  0  0  0  0  0  0  0
  -27.9437  -20.4615   21.1980 C   0  0  0  0  0  0  0  0  0  0  0  0
  -27.1980  -34.1688   22.5123 C   0  0  1  0  0  0  0  0  0  0  0  0
  -25.4654  -31.0242   21.2700 C   0  0  1  0  0  0  0  0  0  0  0  0
  -27.7243  -14.3599   20.4113 C   0  0  2  0  0  0  0  0  0  0  0  0
  -28.8319  -19.6284   20.2776 C   0  0  1  0  0  0  0  0  0  0  0  0
  -18.8505  -27.0985   22.1832 C   0  0  0  0  0  0  0  0  0  0  0  0
  -30.0031  -23.5516   24.5129 C   0  0  0  0  0  0  0  0  0  0  0  0
  -25.8982  -22.2240   21.9296 C   0  0  0  0  0  0  0  0  0  0  0  0
  -22.8899  -31.4752   25.0810 C   0  0  0  0  0  0  0  0  0  0  0  0
  -20.9333  -29.9225   25.2505 C   0  0  0  0  0  0  0  0  0  0  0  0
  -20.8621  -31.8474   23.6655 C   0  0  0  0  0  0  0  0  0  0  0  0
  -21.6413  -26.3055   19.7218 C   0  0  0  0  0  0  0  0  0  0  0  0
  -28.0330  -22.8722   23.1176 C   0  0  0  0  0  0  0  0  0  0  0  0
  -29.4792  -24.8949   22.4505 C   0  0  0  0  0  0  0  0  0  1  0  0
  -22.3390  -29.8636   23.1407 C   0  0  1  0  0  0  0  0  0  0  0  0
  -20.0912  -27.3891   21.3533 C   0  0  2  0  0  0  0  0  0  0  0  0
  -29.4454  -23.4983   23.0845 C   0  0  1  0  0  0  0  0  0  0  0  0
  -27.2993  -22.8025   21.7717 C   0  0  1  0  0  0  0  0  0  0  0  0
  -21.7816  -30.7675   24.2763 C   0  0  0  0  0  0  0  0  0  0  0  0
  -26.4499  -12.7042   21.7218 N   0  0  0  0  0  0  0  0  0  0  0  0
  -26.4161  -13.7782   20.9146 N   0  0  0  0  0  0  0  0  0  0  0  0
  -24.5301  -30.2035   22.0420 N   0  0  0  0  0  0  0  0  0  0  0  0
  -29.5176  -16.0090   20.8018 N   0  0  0  0  0  0  0  0  0  0  0  0
  -24.9410  -15.2936   19.8478 N   0  0  0  0  0  0  0  0  0  0  0  0
  -22.1562  -12.5213   22.0739 N   0  0  0  0  0  0  0  0  0  0  0  0
  -26.5105  -33.1560   21.7402 N   0  0  0  0  0  0  0  0  0  0  0  0
  -21.3109  -29.2019   22.3446 N   0  0  0  0  0  0  0  0  0  0  0  0
  -28.7188  -18.2264   20.6046 N   0  0  0  0  0  0  0  0  0  0  0  0
  -28.0590  -21.9207   20.8190 N   0  3  2  0  0  0  0  0  0  0  0  0
  -20.4513  -26.1557   20.5984 N   0  3  0  0  0  0  0  0  0  0  0  0
  -22.2513  -14.3393   20.6794 O   0  0  0  0  0  0  0  0  0  0  0  0
  -26.4060  -31.5072   23.3812 O   0  0  0  0  0  0  0  0  0  0  0  0
  -22.7089  -31.5670   21.5320 O   0  0  0  0  0  0  0  0  0  0  0  0
  -22.0234  -27.0346   22.7599 O   0  0  0  0  0  0  0  0  0  0  0  0
  -30.8764  -17.7176   20.0193 O   0  0  0  0  0  0  0  0  0  0  0  0
  -23.6583   -8.2015   25.2547 O   0  0  0  0  0  0  0  0  0  0  0  0
  -28.7064  -25.8180   23.2165 O   0  0  0  0  0  0  0  0  0  1  0  0
  -19.5131   -4.9876   23.5542 F   0  0  0  0  0  0  0  0  0  0  0  0
  -21.1409   -9.2523   24.8064 F   0  0  0  0  0  0  0  0  0  0  0  0
  1  2  1  0  0  0  0
  1  5  2  0  0  0  0
  2  6  2  0  0  0  0
  3  8  2  0  0  0  0
  3 15  1  0  0  0  0
  4  9  1  0  0  0  0
  4 15  2  0  0  0  0
  5 17  1  0  0  0  0
  6 19  1  0  0  0  0
  7 10  2  0  0  0  0
  7 18  1  0  0  0  0
  8 21  1  0  0  0  0
  9 21  2  0  0  0  0
 10 22  1  0  0  0  0
 11 12  2  0  0  0  0
 11 23  1  0  0  0  0
 12 24  1  0  0  0  0
 13 20  1  0  0  0  0
 13 22  2  0  0  0  0
 14 24  2  0  0  0  0
 14 25  1  0  0  0  0
 15 26  1  0  0  0  0
 16 26  1  0  0  0  0
 16 27  2  0  0  0  0
 16 28  1  0  0  0  0
 17 19  2  0  0  0  0
 17 33  1  0  0  0  0
 18 20  2  0  0  0  0
 18 34  1  0  0  0  0
 19 46  1  0  0  0  0
 20 35  1  0  0  0  0
 21 80  1  0  0  0  0
 22 81  1  0  0  0  0
 23 25  2  0  0  0  0
 23 80  1  0  0  0  0
 24 82  1  0  0  0  0
 25 83  1  0  0  0  0
 26 64  2  0  0  0  0
 27 65  1  0  0  0  0
 27 68  1  0  0  0  0
 28 69  1  0  0  0  0
 28 75  2  0  0  0  0
 29 47  1  0  0  0  0
 29 70  1  0  0  0  0
 29 76  2  0  0  0  0
 30 59  1  0  0  0  0
 30 66  1  0  0  0  0
 30 77  2  0  0  0  0
 31 60  1  0  0  0  0
 31 71  1  0  0  0  0
 31 78  2  0  0  0  0
 32 67  1  0  0  0  0
 32 72  1  0  0  0  0
 32 79  2  0  0  0  0
 33 36  1  0  0  0  0
 34 47  1  0  0  0  0
 35 66  1  0  0  0  0
 36 39  1  0  0  0  0
 37 40  1  0  0  0  0
 37 42  1  0  0  0  0
 38 41  1  0  0  0  0
 38 44  1  0  0  0  0
 39 46  1  0  0  0  0
 40 48  1  0  0  0  0
 41 49  1  0  0  0  0
 42 67  1  0  0  0  0
 43 48  1  0  0  0  0
 43 67  1  0  0  0  0
 44 73  1  0  0  0  0
 45 49  1  0  0  0  0
 45 73  1  0  0  0  0
 46 70  1  0  0  0  0
 47 66  1  0  0  0  0
 48 65  1  0  0  0  0
 49 72  1  0  0  0  0
 50 60  1  0  0  0  0
 51 61  1  0  0  0  0
 52 62  1  0  0  0  0
 53 63  1  0  0  0  0
 54 63  1  0  0  0  0
 55 63  1  0  0  0  0
 56 74  1  0  0  0  0
 57 61  1  0  0  0  0
 57 62  1  0  0  0  0
 58 61  1  0  0  0  0
 58 81  1  0  0  0  0
 59 63  1  0  0  0  0
 59 71  1  0  0  0  0
 60 74  1  0  0  0  0
 62 73  1  0  0  0  0
 64 65  1  0  0  0  0
M  CHG  2  73   1  74   1
M  ISO  4  32 100  58 101  72 100  81 101
M  END
> <Batch ID>
0096

> <Smiles>
CNC(C)C(=O)NC(C(=O)N1Cc2cc([101O:1][101CH2:1]C(C)CC(C)N3CCCC([100NH:0][100C:0](=O)N4CCCC(n5nc(-c6ccc(Oc7ccc(F)cc7F)cc6)c(C(N)=O)c5N)C4)C3)ccc2CC1C(=O)NC1CCCc2ccccc21)C(C)(C)C

> <Shape>
0.295

> <Color>
0.106

> <Negative vol penalty>
0.000

$$$$

  -OEChem-04052319243D

 95103  0     1  0  0  0  0  0999 V2000
  -34.4083  -30.1959   26.6518 C   0  0  0  0  0  0  0  0  0  0  0  0
  -33.4849  -29.1612   26.7628 C   0  0  0  0  0  0  0  0  0  0  0  0
  -23.4509   -9.7493   20.0550 C   0  0  0  0  0  0  0  0  0  0  0  0
  -24.0728   -9.9689   22.3792 C   0  0  0  0  0  0  0  0  0  0  0  0
  -34.4478  -30.9723   25.4945 C   0  0  0  0  0  0  0  0  0  0  0  0
  -32.5997  -28.9031   25.7167 C   0  0  0  0  0  0  0  0  0  0  0  0
  -32.2105  -23.9626   24.6754 C   0  0  0  0  0  0  0  0  0  0  0  0
  -22.8477   -8.5226   20.3322 C   0  0  0  0  0  0  0  0  0  0  0  0
  -23.4696   -8.7422   22.6565 C   0  0  0  0  0  0  0  0  0  0  0  0
  -31.4182  -23.1930   25.5262 C   0  0  0  0  0  0  0  0  0  0  0  0
  -21.7788   -5.8384   24.0449 C   0  0  0  0  0  0  0  0  0  0  0  0
  -20.9694   -5.7543   25.1777 C   0  0  0  0  0  0  0  0  0  0  0  0
  -29.6142  -23.2943   23.9280 C   0  0  0  0  0  0  0  0  0  0  0  0
  -19.5305   -7.4737   24.2774 C   0  0  0  0  0  0  0  0  0  0  0  0
  -29.4491  -18.5921   25.0368 C   0  0  0  0  0  0  0  0  0  0  0  0
  -24.0635  -10.4725   21.0785 C   0  0  0  0  0  0  0  0  0  0  0  0
  -24.0858  -13.0116   20.8336 C   0  0  0  0  0  0  0  0  0  0  0  0
  -33.5690  -30.7174   24.4298 C   0  0  0  0  0  0  0  0  0  0  0  0
  -31.7060  -24.4137   23.4473 C   0  0  0  0  0  0  0  0  0  0  0  0
  -32.6265  -29.6778   24.5446 C   0  0  0  0  0  0  0  0  0  0  0  0
  -30.4029  -24.0673   23.0623 C   0  0  0  0  0  0  0  0  0  0  0  0
  -28.6237  -19.2663   25.9094 C   0  0  0  0  0  0  0  0  0  0  0  0
  -27.2985  -19.1333   25.4264 C   0  0  0  0  0  0  0  0  0  0  0  0
  -22.8571   -8.0190   21.6330 C   0  0  0  0  0  0  0  0  0  0  0  0
  -30.1189  -22.8612   25.1538 C   0  0  0  0  0  0  0  0  0  0  0  0
  -21.4642   -6.7403   23.0283 C   0  0  0  0  0  0  0  0  0  0  0  0
  -19.8452   -6.5718   25.2940 C   0  0  0  0  0  0  0  0  0  0  0  0
  -20.3400   -7.5579   23.1446 C   0  0  0  0  0  0  0  0  0  0  0  0
  -24.6873  -11.7395   20.7926 C   0  0  0  0  0  0  0  0  0  0  0  0
  -27.3545  -18.3818   24.2734 C   0  0  0  0  0  0  0  0  0  0  0  0
  -25.0918  -13.8786   20.4833 C   0  0  0  0  0  0  0  0  0  0  0  0
  -22.7381  -13.3770   21.1592 C   0  0  0  0  0  0  0  0  0  0  0  0
  -31.1583  -27.2677   22.1594 C   0  0  0  0  0  0  0  0  0  0  0  0
  -30.4652  -25.5119   19.5214 C   0  0  0  0  0  0  0  0  0  0  0  0
  -29.4790  -22.5197   18.2095 C   0  0  0  0  0  0  0  0  0  0  0  0
  -31.0601  -13.5564   20.8399 C   0  0  0  0  0  0  0  0  0  0  0  0
  -33.6177  -31.6138   23.2179 C   0  0  0  0  0  0  0  0  0  0  0  0
  -32.5825  -25.2205   22.5290 C   0  0  0  0  0  0  0  0  0  0  0  0
  -29.8211  -24.5097   21.7454 C   0  0  0  0  0  0  0  0  0  0  0  0
  -32.8960  -31.0357   22.0033 C   0  0  0  0  0  0  0  0  0  0  0  0
  -29.1169  -14.0987   17.9062 C   0  0  0  0  0  0  0  0  0  0  0  0
  -31.5290  -30.4902   22.4042 C   0  0  0  0  0  0  0  0  0  0  0  0
  -27.7070  -13.6703   18.3170 C   0  0  0  0  0  0  0  0  0  0  0  0
  -30.1845  -13.2153   18.5478 C   0  0  0  0  0  0  0  0  0  0  0  0
  -28.6842  -12.6730   20.4263 C   0  0  0  0  0  0  0  0  0  0  0  0
  -31.6664  -29.3510   23.4214 C   0  0  1  0  0  0  0  0  0  0  0  0
  -31.7902  -26.0584   21.5302 C   0  0  1  0  0  0  0  0  0  0  0  0
  -27.5755  -13.5694   19.8486 C   0  0  2  0  0  0  0  0  0  0  0  0
  -29.7104  -19.0611   28.1696 C   0  0  0  0  0  0  0  0  0  0  0  0
  -25.5283  -19.1228   22.7018 C   0  0  0  0  0  0  0  0  0  0  0  0
  -25.2454  -17.0178   24.0598 C   0  0  0  0  0  0  0  0  0  0  0  0
  -28.9653  -21.4011   16.0227 C   0  0  0  0  0  0  0  0  0  0  0  0
  -24.6149  -23.3354   26.0527 C   0  0  0  0  0  0  0  0  0  0  0  0
  -23.3800  -21.1676   25.8626 C   0  0  0  0  0  0  0  0  0  0  0  0
  -29.4257  -18.1572   21.7119 C   0  0  0  0  0  0  0  0  0  0  0  0
  -27.7889  -26.9727   19.4056 C   0  0  0  0  0  0  0  0  0  0  0  0
  -26.9662  -25.1967   17.8443 C   0  0  0  0  0  0  0  0  0  0  0  0
  -28.8922  -26.6391   17.1862 C   0  0  0  0  0  0  0  0  0  0  0  0
  -32.1802  -15.2258   25.3108 C   0  0  0  0  0  0  0  0  0  0  0  0
  -30.6141  -13.2580   25.3365 C   0  0  0  0  0  0  0  0  0  0  0  0
  -31.6305  -20.5239   18.5924 C   0  0  0  0  0  0  0  0  0  0  0  0
  -26.0796  -19.6960   26.0434 C   0  0  0  0  0  0  0  0  0  0  0  0
  -25.9296  -21.2115   25.7807 C   0  0  0  0  0  0  0  0  0  0  0  0
  -31.7890  -13.8590   23.1928 C   0  0  0  0  0  0  0  0  0  0  0  0
  -30.4153  -16.4550   23.2908 C   0  0  0  0  0  0  0  0  0  0  0  0
  -30.0118  -21.1754   26.8279 C   0  0  0  0  0  0  0  0  0  1  0  0
  -29.0656  -20.0129   27.1582 C   0  0  1  0  0  0  0  0  0  0  0  0
  -26.2720  -17.9427   23.3674 C   0  0  0  0  0  0  0  0  0  0  0  0
  -29.2190  -24.8694   18.9619 C   0  0  1  0  0  0  0  0  0  0  0  0
  -30.0335  -21.6895   17.0660 C   0  0  2  0  0  0  0  0  0  0  0  0
  -24.6549  -21.8394   26.3746 C   0  0  0  0  0  0  0  0  0  0  0  0
  -29.1677  -17.2755   22.9380 C   0  0  1  0  0  0  0  0  0  0  0  0
  -28.2266  -25.9126   18.3753 C   0  0  0  0  0  0  0  0  0  0  0  0
  -31.1803  -14.4039   24.4935 C   0  0  0  0  0  0  0  0  0  0  0  0
  -25.9756  -11.7893   20.4436 N   0  0  0  0  0  0  0  0  0  0  0  0
  -28.6667  -18.0582   24.0464 N   0  0  0  0  0  0  0  0  0  0  0  0
  -26.1919  -13.1032   20.2621 N   0  0  0  0  0  0  0  0  0  0  0  0
  -30.7152  -25.3019   20.8849 N   0  0  0  0  0  0  0  0  0  0  0  0
  -30.0046  -13.1631   20.0007 N   0  0  0  0  0  0  0  0  0  0  0  0
  -25.1340  -15.2209   20.3460 N   0  0  0  0  0  0  0  0  0  0  0  0
  -21.8334  -12.3611   21.4965 N   0  0  0  0  0  0  0  0  0  0  0  0
  -32.0602  -28.1263   22.7585 N   0  0  0  0  0  0  0  0  0  0  0  0
  -29.6716  -23.8691   18.0012 N   0  0  0  0  0  0  0  0  0  0  0  0
  -30.8039  -13.4824   22.2036 N   0  0  0  0  0  0  0  0  0  0  0  0
  -30.5561  -20.3900   17.5753 N   0  3  0  0  0  0  0  0  0  0  0  0
  -30.0432  -15.2969   24.1430 N   0  3  0  0  0  0  0  0  0  0  0  0
  -22.3435  -14.5674   21.1354 O   0  0  0  0  0  0  0  0  0  0  0  0
  -29.9427  -27.4119   22.1041 O   0  0  0  0  0  0  0  0  0  0  0  0
  -31.1939  -26.1698   18.7745 O   0  0  0  0  0  0  0  0  0  0  0  0
  -28.9267  -22.0214   19.1878 O   0  0  0  0  0  0  0  0  0  0  0  0
  -32.1482  -13.9497   20.4059 O   0  0  0  0  0  0  0  0  0  0  0  0
  -22.2684   -6.8221   21.9040 O   0  0  0  0  0  0  0  0  0  0  0  0
  -29.3432  -22.1108   25.9827 O   0  0  0  0  0  0  0  0  0  1  0  0
  -19.0671   -6.4898   26.3812 F   0  0  0  0  0  0  0  0  0  0  0  0
  -20.0320   -8.4253   22.1707 F   0  0  0  0  0  0  0  0  0  0  0  0
  1  2  1  0  0  0  0
  1  5  2  0  0  0  0
  2  6  2  0  0  0  0
  3  8  2  0  0  0  0
  3 16  1  0  0  0  0
  4  9  1  0  0  0  0
  4 16  2  0  0  0  0
  5 18  1  0  0  0  0
  6 20  1  0  0  0  0
  7 10  2  0  0  0  0
  7 19  1  0  0  0  0
  8 24  1  0  0  0  0
  9 24  2  0  0  0  0
 10 25  1  0  0  0  0
 11 12  2  0  0  0  0
 11 26  1  0  0  0  0
 12 27  1  0  0  0  0
 13 21  1  0  0  0  0
 13 25  2  0  0  0  0
 14 27  2  0  0  0  0
 14 28  1  0  0  0  0
 15 22  2  0  0  0  0
 15 76  1  0  0  0  0
 16 29  1  0  0  0  0
 17 29  1  0  0  0  0
 17 31  2  0  0  0  0
 17 32  1  0  0  0  0
 18 20  2  0  0  0  0
 18 37  1  0  0  0  0
 19 21  2  0  0  0  0
 19 38  1  0  0  0  0
 20 46  1  0  0  0  0
 21 39  1  0  0  0  0
 22 23  1  0  0  0  0
 22 67  1  0  0  0  0
 23 30  2  0  0  0  0
 23 62  1  0  0  0  0
 24 92  1  0  0  0  0
 25 93  1  0  0  0  0
 26 28  2  0  0  0  0
 26 92  1  0  0  0  0
 27 94  1  0  0  0  0
 28 95  1  0  0  0  0
 29 75  2  0  0  0  0
 30 68  1  0  0  0  0
 30 76  1  0  0  0  0
 31 77  1  0  0  0  0
 31 80  1  0  0  0  0
 32 81  1  0  0  0  0
 32 87  2  0  0  0  0
 33 47  1  0  0  0  0
 33 82  1  0  0  0  0
 33 88  2  0  0  0  0
 34 69  1  0  0  0  0
 34 78  1  0  0  0  0
 34 89  2  0  0  0  0
 35 70  1  0  0  0  0
 35 83  1  0  0  0  0
 35 90  2  0  0  0  0
 36 79  1  0  0  0  0
 36 84  1  0  0  0  0
 36 91  2  0  0  0  0
 37 40  1  0  0  0  0
 38 47  1  0  0  0  0
 39 78  1  0  0  0  0
 40 42  1  0  0  0  0
 41 43  1  0  0  0  0
 41 44  1  0  0  0  0
 42 46  1  0  0  0  0
 43 48  1  0  0  0  0
 44 79  1  0  0  0  0
 45 48  1  0  0  0  0
 45 79  1  0  0  0  0
 46 82  1  0  0  0  0
 47 78  1  0  0  0  0
 48 77  1  0  0  0  0
 49 67  1  0  0  0  0
 50 68  1  0  0  0  0
 51 68  1  0  0  0  0
 52 70  1  0  0  0  0
 53 71  1  0  0  0  0
 54 71  1  0  0  0  0
 55 72  1  0  0  0  0
 56 73  1  0  0  0  0
 57 73  1  0  0  0  0
 58 73  1  0  0  0  0
 59 74  1  0  0  0  0
 60 74  1  0  0  0  0
 61 85  1  0  0  0  0
 62 63  1  0  0  0  0
 63 71  1  0  0  0  0
 64 74  1  0  0  0  0
 64 84  1  0  0  0  0
 65 72  1  0  0  0  0
 65 86  1  0  0  0  0
 66 67  1  0  0  0  0
 66 93  1  0  0  0  0
 69 73  1  0  0  0  0
 69 83  1  0  0  0  0
 70 85  1  0  0  0  0
 72 76  1  0  0  0  0
 74 86  1  0  0  0  0
 75 77  1  0  0  0  0
M  CHG  2  85   1  86   1
M  ISO  4  36 100  66 101  84 100  93 101
M  END
> <Batch ID>
0096

> <Smiles>
CNC(C)C(=O)NC(C(=O)N1Cc2cc([101O:1][101CH2:1]C(C)c3cn(C(C)CNC(C)(C)C[100NH:0][100C:0](=O)N4CCCC(n5nc(-c6ccc(Oc7ccc(F)cc7F)cc6)c(C(N)=O)c5N)C4)c(C(C)C)c3CCC(C)C)ccc2CC1C(=O)NC1CCCc2ccccc21)C(C)(C)C

> <Shape>
0.212

> <Color>
0.161

> <Negative vol penalty>
0.000

$$$$

  -OEChem-04052319243D

 87 95  0     1  0  0  0  0  0999 V2000
  -28.1786  -10.6821   20.7488 C   0  0  0  0  0  0  0  0  0  0  0  0
  -28.6533  -11.8183   20.1014 C   0  0  0  0  0  0  0  0  0  0  0  0
  -24.2301  -29.1230   22.2030 C   0  0  0  0  0  0  0  0  0  0  0  0
  -25.4406  -30.8800   21.0695 C   0  0  0  0  0  0  0  0  0  0  0  0
  -26.8295  -10.5867   21.0876 C   0  0  0  0  0  0  0  0  0  0  0  0
  -27.7790  -12.8594   19.7915 C   0  0  0  0  0  0  0  0  0  0  0  0
  -29.7004  -17.4087   20.9124 C   0  0  0  0  0  0  0  0  0  0  0  0
  -23.6781  -30.0640   23.0721 C   0  0  0  0  0  0  0  0  0  0  0  0
  -24.8885  -31.8210   21.9385 C   0  0  0  0  0  0  0  0  0  0  0  0
  -30.6362  -17.9406   20.0263 C   0  0  0  0  0  0  0  0  0  0  0  0
  -24.6411  -31.7854   25.8168 C   0  0  0  0  0  0  0  0  0  0  0  0
  -24.6205  -31.4768   27.1769 C   0  0  0  0  0  0  0  0  0  0  0  0
  -28.9159  -19.3187   19.0462 C   0  0  0  0  0  0  0  0  0  0  0  0
  -22.2107  -31.6490   27.1795 C   0  0  0  0  0  0  0  0  0  0  0  0
  -34.4964  -20.5296   18.5127 C   0  0  0  0  0  0  0  0  0  0  0  0
  -25.1114  -29.5310   21.2017 C   0  0  0  0  0  0  0  0  0  0  0  0
  -25.1558  -28.1275   19.0719 C   0  0  0  0  0  0  0  0  0  0  0  0
  -25.9401  -11.6313   20.7904 C   0  0  0  0  0  0  0  0  0  0  0  0
  -28.3608  -17.8206   20.8648 C   0  0  0  0  0  0  0  0  0  0  0  0
  -26.4165  -12.7773   20.1256 C   0  0  0  0  0  0  0  0  0  0  0  0
  -27.9656  -18.7925   19.9345 C   0  0  0  0  0  0  0  0  0  0  0  0
  -33.7119  -20.5661   17.3711 C   0  0  0  0  0  0  0  0  0  0  0  0
  -33.5004  -21.7999   16.7660 C   0  0  0  0  0  0  0  0  0  0  0  0
  -34.0717  -22.9434   17.3130 C   0  0  0  0  0  0  0  0  0  0  0  0
  -24.0072  -31.4130   22.9399 C   0  0  0  0  0  0  0  0  0  0  0  0
  -30.2435  -18.8936   19.0911 C   0  0  0  0  0  0  0  0  0  0  0  0
  -23.4465  -32.0260   25.1381 C   0  0  0  0  0  0  0  0  0  0  0  0
  -23.4053  -31.4085   27.8583 C   0  0  0  0  0  0  0  0  0  0  0  0
  -22.2313  -31.9577   25.8194 C   0  0  0  0  0  0  0  0  0  0  0  0
  -25.6825  -28.5593   20.3040 C   0  0  0  0  0  0  0  0  0  0  0  0
  -34.8400  -22.8005   18.4573 C   0  0  0  0  0  0  0  0  0  0  0  0
  -26.0656  -27.2062   18.6136 C   0  0  0  0  0  0  0  0  0  0  0  0
  -23.9520  -28.5238   18.4016 C   0  0  0  0  0  0  0  0  0  0  0  0
  -25.5884  -16.3743   20.2942 C   0  0  0  0  0  0  0  0  0  0  0  0
  -24.3584  -19.2612   21.1163 C   0  0  0  0  0  0  0  0  0  0  0  0
  -24.8177  -22.6307   21.4029 C   0  0  0  0  0  0  0  0  0  0  0  0
  -31.9724  -26.6098   20.1275 C   0  0  0  0  0  0  0  0  0  0  0  0
  -24.4813  -11.4625   21.1341 C   0  0  0  0  0  0  0  0  0  0  0  0
  -27.3692  -17.2569   21.8453 C   0  0  0  0  0  0  0  0  0  0  0  0
  -26.5438  -19.2832   19.8558 C   0  0  0  0  0  0  0  0  0  0  0  0
  -23.6936  -12.7697   21.1057 C   0  0  0  0  0  0  0  0  0  0  0  0
  -29.3047  -24.0437   20.1437 C   0  0  0  0  0  0  0  0  0  0  0  0
  -24.0183  -13.5613   19.8428 C   0  0  0  0  0  0  0  0  0  0  0  0
  -28.0311  -24.8873   20.1543 C   0  0  0  0  0  0  0  0  0  0  0  0
  -30.4721  -24.7706   20.8044 C   0  0  0  0  0  0  0  0  0  0  0  0
  -29.4711  -26.9608   20.2426 C   0  0  0  0  0  0  0  0  0  0  0  0
  -25.5039  -13.9383   19.7948 C   0  0  1  0  0  0  0  0  0  0  0  0
  -25.9250  -17.3711   21.3670 C   0  0  1  0  0  0  0  0  0  0  0  0
  -28.2877  -26.2757   19.5429 C   0  0  2  0  0  0  0  0  0  0  0  0
  -35.4785  -23.9929   19.0911 C   0  0  0  0  0  0  0  0  0  0  0  0
  -33.4105  -21.4276   14.2881 C   0  0  0  0  0  0  0  0  0  0  0  0
  -24.2962  -25.0081   22.0140 C   0  0  0  0  0  0  0  0  0  0  0  0
  -22.8352  -19.2249   18.4727 C   0  0  0  0  0  0  0  0  0  0  0  0
  -22.4375  -21.6814   18.7483 C   0  0  0  0  0  0  0  0  0  0  0  0
  -21.5205  -20.0757   20.4226 C   0  0  0  0  0  0  0  0  0  0  0  0
  -33.2577  -28.5122   19.2283 C   0  0  0  0  0  0  0  0  0  0  0  0
  -25.9508  -22.3036   24.1173 C   0  0  0  0  0  0  0  0  0  0  0  0
  -33.1171  -19.2919   16.8224 C   0  0  0  0  0  0  0  0  0  0  0  0
  -32.6614  -21.8941   15.5319 C   0  0  0  0  0  0  0  0  0  0  0  0
  -33.8650  -24.2813   16.6861 C   0  0  0  0  0  0  0  0  0  0  0  0
  -31.7514  -27.2935   17.7014 C   0  0  0  0  0  0  0  0  0  0  0  0
  -32.7301  -26.4998   16.8561 C   0  0  0  0  0  0  0  0  0  0  0  0
  -32.2431  -18.5729   17.8442 C   0  0  0  0  0  0  0  0  0  1  0  0
  -24.0078  -20.5257   20.3698 C   0  0  1  0  0  0  0  0  0  0  0  0
  -24.5143  -23.5960   22.5346 C   0  0  2  0  0  0  0  0  0  0  0  0
  -22.7267  -20.3665   19.5033 C   0  0  0  0  0  0  0  0  0  0  0  0
  -35.0679  -21.6189   19.0733 N   0  0  0  0  0  0  0  0  0  0  0  0
  -26.8372  -27.9613   20.6091 N   0  0  0  0  0  0  0  0  0  0  0  0
  -27.0436  -27.1443   19.5623 N   0  0  0  0  0  0  0  0  0  0  0  0
  -25.6101  -18.6972   20.8317 N   0  0  0  0  0  0  0  0  0  0  0  0
  -30.6664  -26.1041   20.2340 N   0  0  0  0  0  0  0  0  0  0  0  0
  -26.1163  -26.4510   17.4958 N   0  0  0  0  0  0  0  0  0  0  0  0
  -23.1316  -29.4821   19.0124 N   0  0  0  0  0  0  0  0  0  0  0  0
  -25.7699  -15.0578   20.6726 N   0  0  0  0  0  0  0  0  0  0  0  0
  -23.9233  -21.5817   21.3729 N   0  0  0  0  0  0  0  0  0  0  0  0
  -32.2327  -27.4907   19.0669 N   0  0  0  0  0  0  0  0  0  0  0  0
  -25.6420  -23.6231   23.5086 N   0  3  0  0  0  0  0  0  0  0  0  0
  -32.9066  -25.1416   17.4331 N   0  3  0  0  0  0  0  0  0  0  0  0
  -23.6055  -28.0304   17.3016 O   0  0  0  0  0  0  0  0  0  0  0  0
  -25.1917  -16.7704   19.2045 O   0  0  0  0  0  0  0  0  0  0  0  0
  -23.5544  -18.7951   21.9274 O   0  0  0  0  0  0  0  0  0  0  0  0
  -25.7522  -22.7932   20.6213 O   0  0  0  0  0  0  0  0  0  0  0  0
  -32.8579  -26.2845   20.9289 O   0  0  0  0  0  0  0  0  0  0  0  0
  -23.4686  -32.3316   23.7876 O   0  0  0  0  0  0  0  0  0  0  0  0
  -31.1547  -19.4139   18.2246 O   0  0  0  0  0  0  0  0  0  1  0  0
  -23.3856  -31.1105   29.1640 F   0  0  0  0  0  0  0  0  0  0  0  0
  -21.0803  -32.1866   25.1724 F   0  0  0  0  0  0  0  0  0  0  0  0
  1  2  1  0  0  0  0
  1  5  2  0  0  0  0
  2  6  2  0  0  0  0
  3  8  2  0  0  0  0
  3 16  1  0  0  0  0
  4  9  1  0  0  0  0
  4 16  2  0  0  0  0
  5 18  1  0  0  0  0
  6 20  1  0  0  0  0
  7 10  2  0  0  0  0
  7 19  1  0  0  0  0
  8 25  1  0  0  0  0
  9 25  2  0  0  0  0
 10 26  1  0  0  0  0
 11 12  2  0  0  0  0
 11 27  1  0  0  0  0
 12 28  1  0  0  0  0
 13 21  1  0  0  0  0
 13 26  2  0  0  0  0
 14 28  2  0  0  0  0
 14 29  1  0  0  0  0
 15 22  2  0  0  0  0
 15 67  1  0  0  0  0
 16 30  1  0  0  0  0
 17 30  1  0  0  0  0
 17 32  2  0  0  0  0
 17 33  1  0  0  0  0
 18 20  2  0  0  0  0
 18 38  1  0  0  0  0
 19 21  2  0  0  0  0
 19 39  1  0  0  0  0
 20 47  1  0  0  0  0
 21 40  1  0  0  0  0
 22 23  1  0  0  0  0
 22 58  1  0  0  0  0
 23 24  2  0  0  0  0
 23 59  1  0  0  0  0
 24 31  1  0  0  0  0
 24 60  1  0  0  0  0
 25 84  1  0  0  0  0
 26 85  1  0  0  0  0
 27 29  2  0  0  0  0
 27 84  1  0  0  0  0
 28 86  1  0  0  0  0
 29 87  1  0  0  0  0
 30 68  2  0  0  0  0
 31 50  1  0  0  0  0
 31 67  2  0  0  0  0
 32 69  1  0  0  0  0
 32 72  1  0  0  0  0
 33 73  1  0  0  0  0
 33 79  2  0  0  0  0
 34 48  1  0  0  0  0
 34 74  1  0  0  0  0
 34 80  2  0  0  0  0
 35 64  1  0  0  0  0
 35 70  1  0  0  0  0
 35 81  2  0  0  0  0
 36 65  1  0  0  0  0
 36 75  1  0  0  0  0
 36 82  2  0  0  0  0
 37 71  1  0  0  0  0
 37 76  1  0  0  0  0
 37 83  2  0  0  0  0
 38 41  1  0  0  0  0
 39 48  1  0  0  0  0
 40 70  1  0  0  0  0
 41 43  1  0  0  0  0
 42 44  1  0  0  0  0
 42 45  1  0  0  0  0
 43 47  1  0  0  0  0
 44 49  1  0  0  0  0
 45 71  1  0  0  0  0
 46 49  1  0  0  0  0
 46 71  1  0  0  0  0
 47 74  1  0  0  0  0
 48 70  1  0  0  0  0
 49 69  1  0  0  0  0
 51 59  1  0  0  0  0
 52 65  1  0  0  0  0
 53 66  1  0  0  0  0
 54 66  1  0  0  0  0
 55 66  1  0  0  0  0
 56 76  1  0  0  0  0
 57 77  1  0  0  0  0
 58 63  1  0  0  0  0
 60 78  1  0  0  0  0
 61 62  1  0  0  0  0
 61 76  1  0  0  0  0
 62 78  1  0  0  0  0
 63 85  1  0  0  0  0
 64 66  1  0  0  0  0
 64 75  1  0  0  0  0
 65 77  1  0  0  0  0
 68 69  1  0  0  0  0
M  CHG  2  77   1  78   1
M  ISO  4  37 100  63 101  76 100  85 101
M  END
> <Batch ID>
0096

> <Smiles>
CCc1c(C[101CH2:1][101O:1]c2ccc3c(c2)CN(C(=O)C(NC(=O)C(C)NC)C(C)(C)C)C(C(=O)NC2CCCc4ccccc42)C3)cnc(C)c1CNCC[100N:0](C)[100C:0](=O)N1CCCC(n2nc(-c3ccc(Oc4ccc(F)cc4F)cc3)c(C(N)=O)c2N)C1

> <Shape>
0.211

> <Color>
0.068

> <Negative vol penalty>
0.000

$$$$

  -OEChem-04052319243D

 88 96  0     1  0  0  0  0  0999 V2000
  -31.7179  -29.1318   14.3502 C   0  0  0  0  0  0  0  0  0  0  0  0
  -31.1699  -27.8855   14.6367 C   0  0  0  0  0  0  0  0  0  0  0  0
  -25.2483  -10.4474   22.0105 C   0  0  0  0  0  0  0  0  0  0  0  0
  -23.9975  -12.2719   21.0390 C   0  0  0  0  0  0  0  0  0  0  0  0
  -31.8506  -30.0827   15.3611 C   0  0  0  0  0  0  0  0  0  0  0  0
  -30.7554  -27.5892   15.9347 C   0  0  0  0  0  0  0  0  0  0  0  0
  -25.8013  -23.8318   19.4922 C   0  0  0  0  0  0  0  0  0  0  0  0
  -24.0564   -9.8433   22.4105 C   0  0  0  0  0  0  0  0  0  0  0  0
  -22.8055  -11.6678   21.4390 C   0  0  0  0  0  0  0  0  0  0  0  0
  -25.6930  -22.8825   20.5075 C   0  0  0  0  0  0  0  0  0  0  0  0
  -21.6009   -7.9995   20.9950 C   0  0  0  0  0  0  0  0  0  0  0  0
  -21.4612   -6.6299   20.7708 C   0  0  0  0  0  0  0  0  0  0  0  0
  -25.8979  -24.6314   22.1563 C   0  0  0  0  0  0  0  0  0  0  0  0
  -21.1871   -6.2693   23.1439 C   0  0  0  0  0  0  0  0  0  0  0  0
  -29.6385  -23.0868   22.0904 C   0  0  0  0  0  0  0  0  0  0  0  0
  -30.5497  -21.4149   23.2691 C   0  0  0  0  0  0  0  0  0  0  0  0
  -25.2188  -11.6618   21.3248 C   0  0  0  0  0  0  0  0  0  0  0  0
  -27.1289  -12.1032   19.6925 C   0  0  0  0  0  0  0  0  0  0  0  0
  -31.4286  -29.8014   16.6700 C   0  0  0  0  0  0  0  0  0  0  0  0
  -25.9700  -25.1891   19.8018 C   0  0  0  0  0  0  0  0  0  0  0  0
  -30.8838  -28.5368   16.9643 C   0  0  0  0  0  0  0  0  0  0  0  0
  -26.0056  -25.5963   21.1431 C   0  0  0  0  0  0  0  0  0  0  0  0
  -30.7437  -22.6481   21.3952 C   0  0  0  0  0  0  0  0  0  0  0  0
  -31.3203  -21.5905   22.1409 C   0  0  0  0  0  0  0  0  0  0  0  0
  -22.8350  -10.4534   22.1247 C   0  0  0  0  0  0  0  0  0  0  0  0
  -25.7442  -23.2819   21.8398 C   0  0  0  0  0  0  0  0  0  0  0  0
  -21.5337   -8.5040   22.2937 C   0  0  0  0  0  0  0  0  0  0  0  0
  -21.2543   -5.7648   21.8452 C   0  0  0  0  0  0  0  0  0  0  0  0
  -21.3268   -7.6389   23.3682 C   0  0  0  0  0  0  0  0  0  0  0  0
  -26.4497  -12.2867   20.9119 C   0  0  0  0  0  0  0  0  0  0  0  0
  -28.2337  -12.9134   19.7895 C   0  0  0  0  0  0  0  0  0  0  0  0
  -26.7912  -11.2746   18.5722 C   0  0  0  0  0  0  0  0  0  0  0  0
  -28.2337  -27.3512   19.2500 C   0  0  0  0  0  0  0  0  0  0  0  0
  -26.0759  -29.3780   20.5759 C   0  0  0  0  0  0  0  0  0  0  0  0
  -23.3806  -29.8046   22.6254 C   0  0  0  0  0  0  0  0  0  0  0  0
  -30.4990  -17.7408   21.0190 C   0  0  0  0  0  0  0  0  0  0  0  0
  -31.6358  -30.8443   17.7396 C   0  0  0  0  0  0  0  0  0  0  0  0
  -26.0585  -26.2038   18.6951 C   0  0  0  0  0  0  0  0  0  0  0  0
  -26.1650  -27.0435   21.5285 C   0  0  0  0  0  0  0  0  0  0  0  0
  -30.8272  -30.5850   19.0081 C   0  0  0  0  0  0  0  0  0  0  0  0
  -30.1614  -15.3949   23.7541 C   0  0  0  0  0  0  0  0  0  0  0  0
  -30.9541  -29.1255   19.4330 C   0  0  0  0  0  0  0  0  0  0  0  0
  -29.2147  -14.3567   23.1491 C   0  0  0  0  0  0  0  0  0  0  0  0
  -29.7945  -16.8061   23.3043 C   0  0  0  0  0  0  0  0  0  0  0  0
  -28.7965  -15.9510   21.2196 C   0  0  0  0  0  0  0  0  0  0  0  0
  -30.3997  -28.1867   18.3547 C   0  0  1  0  0  0  0  0  0  0  0  0
  -26.7436  -27.4976   19.1241 C   0  0  1  0  0  0  0  0  0  0  0  0
  -29.1287  -14.5015   21.6182 C   0  0  2  0  0  0  0  0  0  0  0  0
  -28.7938  -21.5167   17.5318 C   0  0  0  0  0  0  0  0  0  0  0  0
  -31.6652  -24.6689   20.2307 C   0  0  0  0  0  0  0  0  0  0  0  0
  -21.8644  -31.5819   23.5417 C   0  0  0  0  0  0  0  0  0  0  0  0
  -25.9394  -19.9807   22.6857 C   0  0  0  0  0  0  0  0  0  0  0  0
  -28.2698  -30.2495   22.5091 C   0  0  0  0  0  0  0  0  0  0  0  0
  -26.4964  -31.2689   23.9527 C   0  0  0  0  0  0  0  0  0  0  0  0
  -26.8513  -32.1132   21.6324 C   0  0  0  0  0  0  0  0  0  0  0  0
  -20.9949  -28.5763   21.3770 C   0  0  0  0  0  0  0  0  0  0  0  0
  -29.8175  -21.6091   18.6532 C   0  0  0  0  0  0  0  0  0  0  0  0
  -30.2141  -23.0634   18.9287 C   0  0  0  0  0  0  0  0  0  0  0  0
  -27.3726  -21.3896   24.2074 C   0  0  0  0  0  0  0  0  0  0  0  0
  -28.4528  -22.4789   24.2721 C   0  0  0  0  0  0  0  0  0  0  0  0
  -32.2149  -19.5327   20.9758 C   0  0  0  0  0  0  0  0  0  0  0  0
  -31.2279  -23.1878   20.1090 C   0  0  2  0  0  0  0  0  0  0  0  0
  -32.5238  -20.8131   21.7856 C   0  0  2  0  0  0  0  0  0  0  0  0
  -25.7749  -29.8517   21.9774 C   0  0  1  0  0  0  0  0  0  0  0  0
  -22.0795  -30.5627   22.4337 C   0  0  2  0  0  0  0  0  0  0  0  0
  -26.6269  -21.3278   22.8685 C   0  0  2  0  0  0  0  0  0  1  0  0
  -26.8470  -30.8432   22.5110 C   0  0  0  0  0  0  0  0  0  0  0  0
  -27.0712  -13.1458   21.7240 N   0  0  0  0  0  0  0  0  0  0  0  0
  -29.5301  -22.3297   23.2276 N   0  0  0  0  0  0  0  0  0  0  0  0
  -28.1525  -13.5094   21.0136 N   0  0  0  0  0  0  0  0  0  0  0  0
  -26.2535  -27.9971   20.4104 N   0  0  0  0  0  0  0  0  0  0  0  0
  -29.7479  -16.8808   21.8373 N   0  0  0  0  0  0  0  0  0  0  0  0
  -29.2570  -13.1670   18.9464 N   0  0  0  0  0  0  0  0  0  0  0  0
  -25.6208  -10.5064   18.6381 N   0  0  0  0  0  0  0  0  0  0  0  0
  -28.9532  -28.1665   18.3973 N   0  0  0  0  0  0  0  0  0  0  0  0
  -24.4220  -30.3965   21.9423 N   0  0  0  0  0  0  0  0  0  0  0  0
  -31.3715  -18.5946   21.6827 N   0  0  0  0  0  0  0  0  0  0  0  0
  -33.3479  -20.3968   22.9827 N   0  3  0  0  0  0  0  0  0  0  0  0
  -20.9257  -29.6194   22.4325 N   0  3  0  0  0  0  0  0  0  0  0  0
  -27.5147  -11.2047   17.5499 O   0  0  0  0  0  0  0  0  0  0  0  0
  -28.6965  -26.5583   20.0617 O   0  0  0  0  0  0  0  0  0  0  0  0
  -26.1438  -30.2021   19.6606 O   0  0  0  0  0  0  0  0  0  0  0  0
  -23.4656  -28.7910   23.3153 O   0  0  0  0  0  0  0  0  0  0  0  0
  -30.4032  -17.7440   19.7870 O   0  0  0  0  0  0  0  0  0  0  0  0
  -21.6718   -9.8641   22.5147 O   0  0  0  0  0  0  0  0  0  0  0  0
  -25.6393  -22.3573   22.8327 O   0  0  0  0  0  0  0  0  0  1  0  0
  -21.1187   -4.4498   21.6295 F   0  0  0  0  0  0  0  0  0  0  0  0
  -21.2602   -8.1178   24.6180 F   0  0  0  0  0  0  0  0  0  0  0  0
  1  2  1  0  0  0  0
  1  5  2  0  0  0  0
  2  6  2  0  0  0  0
  3  8  2  0  0  0  0
  3 17  1  0  0  0  0
  4  9  1  0  0  0  0
  4 17  2  0  0  0  0
  5 19  1  0  0  0  0
  6 21  1  0  0  0  0
  7 10  2  0  0  0  0
  7 20  1  0  0  0  0
  8 25  1  0  0  0  0
  9 25  2  0  0  0  0
 10 26  1  0  0  0  0
 11 12  2  0  0  0  0
 11 27  1  0  0  0  0
 12 28  1  0  0  0  0
 13 22  1  0  0  0  0
 13 26  2  0  0  0  0
 14 28  2  0  0  0  0
 14 29  1  0  0  0  0
 15 23  2  0  0  0  0
 15 69  1  0  0  0  0
 16 24  2  0  0  0  0
 16 69  1  0  0  0  0
 17 30  1  0  0  0  0
 18 30  1  0  0  0  0
 18 31  2  0  0  0  0
 18 32  1  0  0  0  0
 19 21  2  0  0  0  0
 19 37  1  0  0  0  0
 20 22  2  0  0  0  0
 20 38  1  0  0  0  0
 21 46  1  0  0  0  0
 22 39  1  0  0  0  0
 23 24  1  0  0  0  0
 23 62  1  0  0  0  0
 24 63  1  0  0  0  0
 25 85  1  0  0  0  0
 26 86  1  0  0  0  0
 27 29  2  0  0  0  0
 27 85  1  0  0  0  0
 28 87  1  0  0  0  0
 29 88  1  0  0  0  0
 30 68  2  0  0  0  0
 31 70  1  0  0  0  0
 31 73  1  0  0  0  0
 32 74  1  0  0  0  0
 32 80  2  0  0  0  0
 33 47  1  0  0  0  0
 33 75  1  0  0  0  0
 33 81  2  0  0  0  0
 34 64  1  0  0  0  0
 34 71  1  0  0  0  0
 34 82  2  0  0  0  0
 35 65  1  0  0  0  0
 35 76  1  0  0  0  0
 35 83  2  0  0  0  0
 36 72  1  0  0  0  0
 36 77  1  0  0  0  0
 36 84  2  0  0  0  0
 37 40  1  0  0  0  0
 38 47  1  0  0  0  0
 39 71  1  0  0  0  0
 40 42  1  0  0  0  0
 41 43  1  0  0  0  0
 41 44  1  0  0  0  0
 42 46  1  0  0  0  0
 43 48  1  0  0  0  0
 44 72  1  0  0  0  0
 45 48  1  0  0  0  0
 45 72  1  0  0  0  0
 46 75  1  0  0  0  0
 47 71  1  0  0  0  0
 48 70  1  0  0  0  0
 49 57  1  0  0  0  0
 50 62  1  0  0  0  0
 51 65  1  0  0  0  0
 52 66  1  0  0  0  0
 53 67  1  0  0  0  0
 54 67  1  0  0  0  0
 55 67  1  0  0  0  0
 56 79  1  0  0  0  0
 57 58  1  0  0  0  0
 58 62  1  0  0  0  0
 59 60  1  0  0  0  0
 59 66  1  0  0  0  0
 60 69  1  0  0  0  0
 61 63  1  0  0  0  0
 61 77  1  0  0  0  0
 63 78  1  0  0  0  0
 64 67  1  0  0  0  0
 64 76  1  0  0  0  0
 65 79  1  0  0  0  0
 66 86  1  0  0  0  0
 68 70  1  0  0  0  0
M  CHG  2  78   1  79   1
M  ISO  4  36 100  66 101  77 100  86 101
M  END
> <Batch ID>
0096

> <Smiles>
CCCC(C)c1cn(CC[101CH:1](C)[101O:1]c2ccc3c(c2)CN(C(=O)C(NC(=O)C(C)NC)C(C)(C)C)C(C(=O)NC2CCCc4ccccc42)C3)cc1C(N)C[100NH:0][100C:0](=O)N1CCCC(n2nc(-c3ccc(Oc4ccc(F)cc4F)cc3)c(C(N)=O)c2N)C1

> <Shape>
0.260

> <Color>
0.068

> <Negative vol penalty>
0.000

$$$$

  -OEChem-04052319243D

 83 91  0     1  0  0  0  0  0999 V2000
  -23.0104   -8.3801   22.1443 C   0  0  0  0  0  0  0  0  0  0  0  0
  -24.1391   -9.1880   22.2379 C   0  0  0  0  0  0  0  0  0  0  0  0
  -20.8560  -28.6449   21.0214 C   0  0  0  0  0  0  0  0  0  0  0  0
  -22.3800  -27.1178   22.1089 C   0  0  0  0  0  0  0  0  0  0  0  0
  -22.0030   -8.6946   21.2332 C   0  0  0  0  0  0  0  0  0  0  0  0
  -24.2615  -10.3104   21.4194 C   0  0  0  0  0  0  0  0  0  0  0  0
  -26.8935  -15.6488   22.8615 C   0  0  0  0  0  0  0  0  0  0  0  0
  -30.5387  -25.5190   20.0593 C   0  0  0  0  0  0  0  0  0  0  0  0
  -19.7931  -27.7886   21.3085 C   0  0  0  0  0  0  0  0  0  0  0  0
  -21.3170  -26.2615   22.3960 C   0  0  0  0  0  0  0  0  0  0  0  0
  -28.1586  -16.1723   22.5982 C   0  0  0  0  0  0  0  0  0  0  0  0
  -18.8111  -26.0752   24.6558 C   0  0  0  0  0  0  0  0  0  0  0  0
  -18.7414  -25.5399   25.9419 C   0  0  0  0  0  0  0  0  0  0  0  0
  -30.4759  -24.2840   20.6951 C   0  0  0  0  0  0  0  0  0  0  0  0
  -27.2713  -17.3356   20.6802 C   0  0  0  0  0  0  0  0  0  0  0  0
  -18.8825  -23.3105   25.0216 C   0  0  0  0  0  0  0  0  0  0  0  0
  -29.4363  -24.5525   18.1865 C   0  0  0  0  0  0  0  0  0  0  0  0
  -22.1495  -28.3095   21.4216 C   0  0  0  0  0  0  0  0  0  0  0  0
  -23.7323  -30.2458   21.9246 C   0  0  0  0  0  0  0  0  0  0  0  0
  -22.1087   -9.8268   20.4100 C   0  0  0  0  0  0  0  0  0  0  0  0
  -25.8083  -15.9566   22.0285 C   0  0  0  0  0  0  0  0  0  0  0  0
  -23.2552  -10.6395   20.4955 C   0  0  0  0  0  0  0  0  0  0  0  0
  -25.9929  -16.8168   20.9367 C   0  0  0  0  0  0  0  0  0  0  0  0
  -30.0113  -25.6642   18.7811 C   0  0  0  0  0  0  0  0  0  0  0  0
  -20.0235  -26.5969   21.9958 C   0  0  0  0  0  0  0  0  0  0  0  0
  -28.3482  -17.0135   21.5057 C   0  0  0  0  0  0  0  0  0  0  0  0
  -18.9165  -25.2282   23.5525 C   0  0  0  0  0  0  0  0  0  0  0  0
  -18.7771  -24.1575   26.1249 C   0  0  0  0  0  0  0  0  0  0  0  0
  -18.9522  -23.8458   23.7355 C   0  0  0  0  0  0  0  0  0  0  0  0
  -23.2481  -29.1933   21.1248 C   0  0  0  0  0  0  0  0  0  0  0  0
  -29.8799  -23.2342   20.0150 C   0  0  0  0  0  0  0  0  0  0  0  0
  -24.7760  -30.7726   21.2037 C   0  0  0  0  0  0  0  0  0  0  0  0
  -23.2793  -30.7060   23.2047 C   0  0  0  0  0  0  0  0  0  0  0  0
  -23.8597  -14.2700   20.1679 C   0  0  0  0  0  0  0  0  0  0  0  0
  -22.3411  -17.1176   19.8402 C   0  0  0  0  0  0  0  0  0  0  0  0
  -22.5130  -20.5238   19.9639 C   0  0  0  0  0  0  0  0  0  0  0  0
  -28.4063  -28.4918   17.0239 C   0  0  0  0  0  0  0  0  0  0  0  0
  -21.0159  -10.0997   19.4070 C   0  0  0  0  0  0  0  0  0  0  0  0
  -24.4444  -15.4052   22.3416 C   0  0  0  0  0  0  0  0  0  0  0  0
  -24.8563  -17.1944   20.0235 C   0  0  0  0  0  0  0  0  0  0  0  0
  -21.0498  -11.5164   18.8396 C   0  0  0  0  0  0  0  0  0  0  0  0
  -26.3068  -31.3499   16.7077 C   0  0  0  0  0  0  0  0  0  0  0  0
  -22.4704  -11.8947   18.4329 C   0  0  0  0  0  0  0  0  0  0  0  0
  -25.3286  -31.2163   17.8760 C   0  0  0  0  0  0  0  0  0  0  0  0
  -26.6592  -29.9903   16.1082 C   0  0  0  0  0  0  0  0  0  0  0  0
  -26.1779  -28.8625   18.2460 C   0  0  0  0  0  0  0  0  0  0  0  0
  -23.4132  -11.8794   19.6422 C   0  0  1  0  0  0  0  0  0  0  0  0
  -23.5196  -15.3740   21.1287 C   0  0  1  0  0  0  0  0  0  0  0  0
  -25.8362  -30.2027   18.9192 C   0  0  2  0  0  0  0  0  0  0  0  0
  -21.1196  -22.5806   19.6097 C   0  0  0  0  0  0  0  0  0  0  0  0
  -32.1504  -18.7525   20.5801 C   0  0  0  0  0  0  0  0  0  0  0  0
  -22.5734  -16.7519   16.8199 C   0  0  0  0  0  0  0  0  0  0  0  0
  -22.0561  -19.1872   16.5553 C   0  0  0  0  0  0  0  0  0  0  0  0
  -20.3770  -17.6630   17.5945 C   0  0  0  0  0  0  0  0  0  0  0  0
  -22.8647  -21.3868   22.7729 C   0  0  0  0  0  0  0  0  0  0  0  0
  -30.0634  -26.9719   18.0743 C   0  0  0  0  0  0  0  0  0  0  0  0
  -29.7939  -21.8804   20.6743 C   0  0  0  0  0  0  0  0  0  0  0  0
  -31.0000  -20.9728   20.3954 C   0  0  0  0  0  0  0  0  0  0  0  0
  -29.6352  -18.8018   20.6104 C   0  0  0  0  0  0  0  0  0  1  0  0
  -22.4550  -18.2871   18.8924 C   0  0  1  0  0  0  0  0  0  0  0  0
  -21.6114  -21.5547   20.6189 C   0  0  2  0  0  0  0  0  0  0  0  0
  -30.9133  -19.5551   21.0029 C   0  0  1  0  0  0  0  0  0  0  0  0
  -21.8874  -17.9638   17.4814 C   0  0  0  0  0  0  0  0  0  0  0  0
  -29.3568  -23.3369   18.7727 N   0  0  0  0  0  0  0  0  0  0  0  0
  -23.9281  -29.0582   19.9832 N   0  0  0  0  0  0  0  0  0  0  0  0
  -24.8503  -30.0327   20.0603 N   0  0  0  0  0  0  0  0  0  0  0  0
  -23.5431  -16.6247   20.3677 N   0  0  0  0  0  0  0  0  0  0  0  0
  -27.1353  -29.0764   17.1494 N   0  0  0  0  0  0  0  0  0  0  0  0
  -25.6282  -31.7920   21.4426 N   0  0  0  0  0  0  0  0  0  0  0  0
  -22.1946  -30.0517   23.8043 N   0  0  0  0  0  0  0  0  0  0  0  0
  -23.2289  -13.0714   20.4419 N   0  0  0  0  0  0  0  0  0  0  0  0
  -21.8055  -19.4135   19.5540 N   0  0  0  0  0  0  0  0  0  0  0  0
  -28.7827  -27.6431   18.0577 N   0  0  0  0  0  0  0  0  0  0  0  0
  -22.3451  -22.2725   21.6994 N   0  3  0  0  0  0  0  0  0  0  0  0
  -23.8100  -31.6793   23.7916 O   0  0  0  0  0  0  0  0  0  0  0  0
  -24.6357  -14.4897   19.2453 O   0  0  0  0  0  0  0  0  0  0  0  0
  -21.2263  -16.6629   20.1083 O   0  0  0  0  0  0  0  0  0  0  0  0
  -23.7231  -20.6887   19.8261 O   0  0  0  0  0  0  0  0  0  0  0  0
  -29.1526  -28.7141   16.0645 O   0  0  0  0  0  0  0  0  0  0  0  0
  -18.9864  -25.7612   22.2764 O   0  0  0  0  0  0  0  0  0  0  0  0
  -29.5821  -17.5253   21.2460 O   0  0  0  0  0  0  0  0  0  1  0  0
  -18.7116  -23.6436   27.3601 F   0  0  0  0  0  0  0  0  0  0  0  0
  -19.0545  -23.0271   22.6795 F   0  0  0  0  0  0  0  0  0  0  0  0
  1  2  1  0  0  0  0
  1  5  2  0  0  0  0
  2  6  2  0  0  0  0
  3  9  2  0  0  0  0
  3 18  1  0  0  0  0
  4 10  1  0  0  0  0
  4 18  2  0  0  0  0
  5 20  1  0  0  0  0
  6 22  1  0  0  0  0
  7 11  2  0  0  0  0
  7 21  1  0  0  0  0
  8 14  2  0  0  0  0
  8 24  1  0  0  0  0
  9 25  1  0  0  0  0
 10 25  2  0  0  0  0
 11 26  1  0  0  0  0
 12 13  2  0  0  0  0
 12 27  1  0  0  0  0
 13 28  1  0  0  0  0
 14 31  1  0  0  0  0
 15 23  1  0  0  0  0
 15 26  2  0  0  0  0
 16 28  2  0  0  0  0
 16 29  1  0  0  0  0
 17 24  2  0  0  0  0
 17 64  1  0  0  0  0
 18 30  1  0  0  0  0
 19 30  1  0  0  0  0
 19 32  2  0  0  0  0
 19 33  1  0  0  0  0
 20 22  2  0  0  0  0
 20 38  1  0  0  0  0
 21 23  2  0  0  0  0
 21 39  1  0  0  0  0
 22 47  1  0  0  0  0
 23 40  1  0  0  0  0
 24 56  1  0  0  0  0
 25 80  1  0  0  0  0
 26 81  1  0  0  0  0
 27 29  2  0  0  0  0
 27 80  1  0  0  0  0
 28 82  1  0  0  0  0
 29 83  1  0  0  0  0
 30 65  2  0  0  0  0
 31 57  1  0  0  0  0
 31 64  2  0  0  0  0
 32 66  1  0  0  0  0
 32 69  1  0  0  0  0
 33 70  1  0  0  0  0
 33 75  2  0  0  0  0
 34 48  1  0  0  0  0
 34 71  1  0  0  0  0
 34 76  2  0  0  0  0
 35 60  1  0  0  0  0
 35 67  1  0  0  0  0
 35 77  2  0  0  0  0
 36 61  1  0  0  0  0
 36 72  1  0  0  0  0
 36 78  2  0  0  0  0
 37 68  1  0  0  0  0
 37 73  1  0  0  0  0
 37 79  2  0  0  0  0
 38 41  1  0  0  0  0
 39 48  1  0  0  0  0
 40 67  1  0  0  0  0
 41 43  1  0  0  0  0
 42 44  1  0  0  0  0
 42 45  1  0  0  0  0
 43 47  1  0  0  0  0
 44 49  1  0  0  0  0
 45 68  1  0  0  0  0
 46 49  1  0  0  0  0
 46 68  1  0  0  0  0
 47 71  1  0  0  0  0
 48 67  1  0  0  0  0
 49 66  1  0  0  0  0
 50 61  1  0  0  0  0
 51 62  1  0  0  0  0
 52 63  1  0  0  0  0
 53 63  1  0  0  0  0
 54 63  1  0  0  0  0
 55 74  1  0  0  0  0
 56 73  1  0  0  0  0
 57 58  1  0  0  0  0
 58 62  1  0  0  0  0
 59 62  1  0  0  0  0
 59 81  1  0  0  0  0
 60 63  1  0  0  0  0
 60 72  1  0  0  0  0
 61 74  1  0  0  0  0
 65 66  1  0  0  0  0
M  CHG  1  74   1
M  ISO  4  37 100  59 101  73 100  81 101
M  END
> <Batch ID>
0096

> <Smiles>
CNC(C)C(=O)NC(C(=O)N1Cc2cc([101O:1][101CH2:1]C(C)CCc3ccc(C[100NH:0][100C:0](=O)N4CCCC(n5nc(-c6ccc(Oc7ccc(F)cc7F)cc6)c(C(N)=O)c5N)C4)cn3)ccc2CC1C(=O)NC1CCCc2ccccc21)C(C)(C)C

> <Shape>
0.217

> <Color>
0.063

> <Negative vol penalty>
0.000

$$$$

  -OEChem-04052319243D

 82 90  0     1  0  0  0  0  0999 V2000
  -40.9413  -25.2565   18.1890 C   0  0  0  0  0  0  0  0  0  0  0  0
  -40.1209  -24.5680   19.0769 C   0  0  0  0  0  0  0  0  0  0  0  0
  -23.0195   -9.8443   20.0588 C   0  0  0  0  0  0  0  0  0  0  0  0
  -23.6987  -10.0576   22.3675 C   0  0  0  0  0  0  0  0  0  0  0  0
  -40.4644  -26.3953   17.5411 C   0  0  0  0  0  0  0  0  0  0  0  0
  -38.8235  -25.0185   19.3182 C   0  0  0  0  0  0  0  0  0  0  0  0
  -35.4277  -21.2618   19.2994 C   0  0  0  0  0  0  0  0  0  0  0  0
  -22.2544   -8.7252   20.3872 C   0  0  0  0  0  0  0  0  0  0  0  0
  -22.9335   -8.9385   22.6960 C   0  0  0  0  0  0  0  0  0  0  0  0
  -35.3549  -20.4636   20.4401 C   0  0  0  0  0  0  0  0  0  0  0  0
  -23.2064   -5.5770   22.4583 C   0  0  0  0  0  0  0  0  0  0  0  0
  -23.7847   -4.6177   23.2894 C   0  0  0  0  0  0  0  0  0  0  0  0
  -33.4252  -21.7076   21.1802 C   0  0  0  0  0  0  0  0  0  0  0  0
  -31.9838  -16.6999   22.3339 C   0  0  0  0  0  0  0  0  0  0  0  0
  -22.0267   -4.9621   24.9105 C   0  0  0  0  0  0  0  0  0  0  0  0
  -23.7417  -10.5105   21.0489 C   0  0  0  0  0  0  0  0  0  0  0  0
  -24.1159  -13.0109   20.7088 C   0  0  0  0  0  0  0  0  0  0  0  0
  -39.1572  -26.8544   17.7672 C   0  0  0  0  0  0  0  0  0  0  0  0
  -34.5047  -22.2977   19.0955 C   0  0  0  0  0  0  0  0  0  0  0  0
  -38.3292  -26.1652   18.6737 C   0  0  0  0  0  0  0  0  0  0  0  0
  -33.4868  -22.5159   20.0348 C   0  0  0  0  0  0  0  0  0  0  0  0
  -30.6056  -16.7052   22.1501 C   0  0  0  0  0  0  0  0  0  0  0  0
  -22.2114   -8.2723   21.7058 C   0  0  0  0  0  0  0  0  0  0  0  0
  -34.3553  -20.6882   21.3821 C   0  0  0  0  0  0  0  0  0  0  0  0
  -22.0381   -6.2289   22.8533 C   0  0  0  0  0  0  0  0  0  0  0  0
  -23.1949   -4.3102   24.5155 C   0  0  0  0  0  0  0  0  0  0  0  0
  -21.4483   -5.9215   24.0793 C   0  0  0  0  0  0  0  0  0  0  0  0
  -29.8268  -17.6563   22.7998 C   0  0  0  0  0  0  0  0  0  0  0  0
  -24.5327  -11.6662   20.7102 C   0  0  0  0  0  0  0  0  0  0  0  0
  -32.5301  -17.6593   23.1711 C   0  0  0  0  0  0  0  0  0  0  0  0
  -30.4696  -18.5728   23.6163 C   0  0  0  0  0  0  0  0  0  0  0  0
  -25.2285  -13.7147   20.3174 C   0  0  0  0  0  0  0  0  0  0  0  0
  -22.8374  -13.5734   21.0325 C   0  0  0  0  0  0  0  0  0  0  0  0
  -34.7053  -25.4575   18.8140 C   0  0  0  0  0  0  0  0  0  0  0  0
  -31.5431  -25.2072   18.1356 C   0  0  0  0  0  0  0  0  0  0  0  0
  -28.6505  -23.4197   18.4252 C   0  0  0  0  0  0  0  0  0  0  0  0
  -30.6966  -14.7284   20.5910 C   0  0  0  0  0  0  0  0  0  0  0  0
  -38.7022  -28.1172   17.0795 C   0  0  0  0  0  0  0  0  0  0  0  0
  -34.5806  -23.1327   17.8467 C   0  0  0  0  0  0  0  0  0  0  0  0
  -32.4594  -23.6020   19.8529 C   0  0  0  0  0  0  0  0  0  0  0  0
  -37.1886  -28.3135   17.1057 C   0  0  0  0  0  0  0  0  0  0  0  0
  -29.6387  -12.1146   18.4171 C   0  0  0  0  0  0  0  0  0  0  0  0
  -36.6408  -28.0538   18.5055 C   0  0  0  0  0  0  0  0  0  0  0  0
  -28.1817  -11.8756   18.8198 C   0  0  0  0  0  0  0  0  0  0  0  0
  -30.5137  -12.4464   19.6246 C   0  0  0  0  0  0  0  0  0  0  0  0
  -28.5679  -13.3109   20.8638 C   0  0  0  0  0  0  0  0  0  0  0  0
  -36.9075  -26.6084   18.9429 C   0  0  1  0  0  0  0  0  0  0  0  0
  -33.9001  -24.4902   17.9933 C   0  0  1  0  0  0  0  0  0  0  0  0
  -27.6350  -13.0370   19.6728 C   0  0  2  0  0  0  0  0  0  0  0  0
  -29.2805  -20.7728   23.4361 C   0  0  0  0  0  0  0  0  0  0  0  0
  -26.2215  -23.4879   17.7985 C   0  0  0  0  0  0  0  0  0  0  0  0
  -31.0372  -27.2653   20.3306 C   0  0  0  0  0  0  0  0  0  0  0  0
  -28.6260  -26.5914   20.3102 C   0  0  0  0  0  0  0  0  0  0  0  0
  -29.6600  -27.5810   18.2671 C   0  0  0  0  0  0  0  0  0  0  0  0
  -28.8711  -20.9325   16.8364 C   0  0  0  0  0  0  0  0  0  0  0  0
  -34.0227  -17.6840   23.3942 C   0  0  0  0  0  0  0  0  0  0  0  0
  -29.7017  -19.6255   24.3486 C   0  0  0  0  0  0  0  0  0  0  0  0
  -34.7457  -18.5661   22.3822 C   0  0  0  0  0  0  0  0  0  1  0  0
  -30.2708  -25.2240   18.9479 C   0  0  1  0  0  0  0  0  0  0  0  0
  -27.6097  -23.0142   17.3972 C   0  0  2  0  0  0  0  0  0  0  0  0
  -29.9189  -26.6461   19.4686 C   0  0  0  0  0  0  0  0  0  0  0  0
  -25.8103  -11.5220   20.3482 N   0  0  0  0  0  0  0  0  0  0  0  0
  -31.8059  -18.5990   23.8193 N   0  0  0  0  0  0  0  0  0  0  0  0
  -26.2058  -12.7851   20.1157 N   0  0  0  0  0  0  0  0  0  0  0  0
  -32.5794  -24.3958   18.6187 N   0  0  0  0  0  0  0  0  0  0  0  0
  -29.9360  -13.5585   20.3825 N   0  0  0  0  0  0  0  0  0  0  0  0
  -25.4563  -15.0320   20.1294 N   0  0  0  0  0  0  0  0  0  0  0  0
  -21.8042  -12.7074   21.4156 N   0  0  0  0  0  0  0  0  0  0  0  0
  -30.0315  -15.7304   21.2968 N   0  0  0  0  0  0  0  0  0  0  0  0
  -35.9677  -25.7075   18.3107 N   0  0  0  0  0  0  0  0  0  0  0  0
  -29.2412  -24.6241   18.1063 N   0  0  0  0  0  0  0  0  0  0  0  0
  -27.5763  -21.5315   17.2510 N   0  3  0  0  0  0  0  0  0  0  0  0
  -22.6132  -14.8058   20.9675 O   0  0  0  0  0  0  0  0  0  0  0  0
  -34.2169  -25.9424   19.8280 O   0  0  0  0  0  0  0  0  0  0  0  0
  -31.6124  -25.8835   17.1062 O   0  0  0  0  0  0  0  0  0  0  0  0
  -28.9105  -22.7381   19.4144 O   0  0  0  0  0  0  0  0  0  0  0  0
  -31.8432  -14.8441   20.1507 O   0  0  0  0  0  0  0  0  0  0  0  0
  -21.4647   -7.1805   22.0266 O   0  0  0  0  0  0  0  0  0  0  0  0
  -34.2824  -19.9109   22.4968 O   0  0  0  0  0  0  0  0  0  1  0  0
  -23.7496   -3.3879   25.3128 F   0  0  0  0  0  0  0  0  0  0  0  0
  -20.3253   -6.5436   24.4636 F   0  0  0  0  0  0  0  0  0  0  0  0
  -28.1118  -17.6951   22.5967 Cl  0  0  0  0  0  0  0  0  0  0  0  0
  1  2  1  0  0  0  0
  1  5  2  0  0  0  0
  2  6  2  0  0  0  0
  3  8  2  0  0  0  0
  3 16  1  0  0  0  0
  4  9  1  0  0  0  0
  4 16  2  0  0  0  0
  5 18  1  0  0  0  0
  6 20  1  0  0  0  0
  7 10  2  0  0  0  0
  7 19  1  0  0  0  0
  8 23  1  0  0  0  0
  9 23  2  0  0  0  0
 10 24  1  0  0  0  0
 11 12  2  0  0  0  0
 11 25  1  0  0  0  0
 12 26  1  0  0  0  0
 13 21  1  0  0  0  0
 13 24  2  0  0  0  0
 14 22  2  0  0  0  0
 14 30  1  0  0  0  0
 15 26  2  0  0  0  0
 15 27  1  0  0  0  0
 16 29  1  0  0  0  0
 17 29  1  0  0  0  0
 17 32  2  0  0  0  0
 17 33  1  0  0  0  0
 18 20  2  0  0  0  0
 18 38  1  0  0  0  0
 19 21  2  0  0  0  0
 19 39  1  0  0  0  0
 20 47  1  0  0  0  0
 21 40  1  0  0  0  0
 22 28  1  0  0  0  0
 22 69  1  0  0  0  0
 23 78  1  0  0  0  0
 24 79  1  0  0  0  0
 25 27  2  0  0  0  0
 25 78  1  0  0  0  0
 26 80  1  0  0  0  0
 27 81  1  0  0  0  0
 28 31  2  0  0  0  0
 28 82  1  0  0  0  0
 29 62  2  0  0  0  0
 30 56  1  0  0  0  0
 30 63  2  0  0  0  0
 31 57  1  0  0  0  0
 31 63  1  0  0  0  0
 32 64  1  0  0  0  0
 32 67  1  0  0  0  0
 33 68  1  0  0  0  0
 33 73  2  0  0  0  0
 34 48  1  0  0  0  0
 34 70  1  0  0  0  0
 34 74  2  0  0  0  0
 35 59  1  0  0  0  0
 35 65  1  0  0  0  0
 35 75  2  0  0  0  0
 36 60  1  0  0  0  0
 36 71  1  0  0  0  0
 36 76  2  0  0  0  0
 37 66  1  0  0  0  0
 37 69  1  0  0  0  0
 37 77  2  0  0  0  0
 38 41  1  0  0  0  0
 39 48  1  0  0  0  0
 40 65  1  0  0  0  0
 41 43  1  0  0  0  0
 42 44  1  0  0  0  0
 42 45  1  0  0  0  0
 43 47  1  0  0  0  0
 44 49  1  0  0  0  0
 45 66  1  0  0  0  0
 46 49  1  0  0  0  0
 46 66  1  0  0  0  0
 47 70  1  0  0  0  0
 48 65  1  0  0  0  0
 49 64  1  0  0  0  0
 50 57  1  0  0  0  0
 51 60  1  0  0  0  0
 52 61  1  0  0  0  0
 53 61  1  0  0  0  0
 54 61  1  0  0  0  0
 55 72  1  0  0  0  0
 56 58  1  0  0  0  0
 58 79  1  0  0  0  0
 59 61  1  0  0  0  0
 59 71  1  0  0  0  0
 60 72  1  0  0  0  0
 62 64  1  0  0  0  0
M  CHG  1  72   1
M  ISO  4  37 100  58 101  69 100  79 101
M  END
> <Batch ID>
0096

> <Smiles>
CCc1nc(C[101CH2:1][101O:1]c2ccc3c(c2)CN(C(=O)C(NC(=O)C(C)NC)C(C)(C)C)C(C(=O)NC2CCCc4ccccc42)C3)cc([100NH:0][100C:0](=O)N2CCCC(n3nc(-c4ccc(Oc5ccc(F)cc5F)cc4)c(C(N)=O)c3N)C2)c1Cl

> <Shape>
0.237

> <Color>
0.209

> <Negative vol penalty>
0.000

$$$$

  -OEChem-04052319243D

 86 94  0     1  0  0  0  0  0999 V2000
  -35.4671  -25.1314   12.4897 C   0  0  0  0  0  0  0  0  0  0  0  0
  -35.1692  -24.1589   13.4389 C   0  0  0  0  0  0  0  0  0  0  0  0
  -23.2909   -9.7968   19.9137 C   0  0  0  0  0  0  0  0  0  0  0  0
  -23.7427   -9.9386   22.2828 C   0  0  0  0  0  0  0  0  0  0  0  0
  -35.9475  -26.3758   12.8953 C   0  0  0  0  0  0  0  0  0  0  0  0
  -35.3527  -24.4300   14.7944 C   0  0  0  0  0  0  0  0  0  0  0  0
  -31.4515  -22.8855   17.6298 C   0  0  0  0  0  0  0  0  0  0  0  0
  -22.5669   -8.6229   20.1220 C   0  0  0  0  0  0  0  0  0  0  0  0
  -23.0187   -8.7647   22.4912 C   0  0  0  0  0  0  0  0  0  0  0  0
  -31.3748  -21.5239   17.9199 C   0  0  0  0  0  0  0  0  0  0  0  0
  -20.9857   -6.0007   23.6934 C   0  0  0  0  0  0  0  0  0  0  0  0
  -20.0848   -5.9738   24.7579 C   0  0  0  0  0  0  0  0  0  0  0  0
  -28.3877  -16.0910   24.5907 C   0  0  0  0  0  0  0  0  0  0  0  0
  -28.5866  -15.4791   25.8529 C   0  0  0  0  0  0  0  0  0  0  0  0
  -32.3165  -21.9418   20.1012 C   0  0  0  0  0  0  0  0  0  0  0  0
  -18.8711   -7.8185   23.7774 C   0  0  0  0  0  0  0  0  0  0  0  0
  -23.8789  -10.4547   20.9941 C   0  0  0  0  0  0  0  0  0  0  0  0
  -24.1332  -12.9851   20.7951 C   0  0  0  0  0  0  0  0  0  0  0  0
  -36.1278  -26.6656   14.2569 C   0  0  0  0  0  0  0  0  0  0  0  0
  -31.9722  -23.7855   18.5707 C   0  0  0  0  0  0  0  0  0  0  0  0
  -35.8372  -25.6790   15.2185 C   0  0  0  0  0  0  0  0  0  0  0  0
  -32.3963  -23.3146   19.8215 C   0  0  0  0  0  0  0  0  0  0  0  0
  -22.4308   -8.1069   21.4107 C   0  0  0  0  0  0  0  0  0  0  0  0
  -31.8100  -21.0515   19.1546 C   0  0  0  0  0  0  0  0  0  0  0  0
  -20.8294   -6.9366   22.6709 C   0  0  0  0  0  0  0  0  0  0  0  0
  -19.0274   -6.8826   24.7999 C   0  0  0  0  0  0  0  0  0  0  0  0
  -19.7721   -7.8454   22.7129 C   0  0  0  0  0  0  0  0  0  0  0  0
  -24.6273  -11.6670   20.7795 C   0  0  0  0  0  0  0  0  0  0  0  0
  -29.5084  -15.8393   23.8304 C   0  0  0  0  0  0  0  0  0  0  0  0
  -29.8228  -14.8722   25.8255 C   0  0  0  0  0  0  0  0  0  0  0  0
  -25.2330  -13.7671   20.5394 C   0  0  0  0  0  0  0  0  0  0  0  0
  -22.7993  -13.4602   21.0206 C   0  0  0  0  0  0  0  0  0  0  0  0
  -34.4614  -25.7607   18.6468 C   0  0  0  0  0  0  0  0  0  0  0  0
  -33.1441  -26.6875   21.4625 C   0  0  0  0  0  0  0  0  0  0  0  0
  -31.1371  -25.9200   24.1139 C   0  0  0  0  0  0  0  0  0  0  0  0
  -31.1061  -12.9357   21.3558 C   0  0  0  0  0  0  0  0  0  0  0  0
  -36.6944  -28.0086   14.6445 C   0  0  0  0  0  0  0  0  0  0  0  0
  -32.0233  -25.2547   18.2525 C   0  0  0  0  0  0  0  0  0  0  0  0
  -32.9445  -24.2423   20.8738 C   0  0  0  0  0  0  0  0  0  0  0  0
  -36.5057  -28.3460   16.1212 C   0  0  0  0  0  0  0  0  0  0  0  0
  -29.4540  -13.6715   18.2889 C   0  0  0  0  0  0  0  0  0  0  0  0
  -36.8912  -27.1561   16.9942 C   0  0  0  0  0  0  0  0  0  0  0  0
  -27.9851  -13.3602   18.5808 C   0  0  0  0  0  0  0  0  0  0  0  0
  -30.3896  -12.6940   18.9968 C   0  0  0  0  0  0  0  0  0  0  0  0
  -28.7048  -12.2616   20.7427 C   0  0  0  0  0  0  0  0  0  0  0  0
  -35.9995  -25.9438   16.6996 C   0  0  1  0  0  0  0  0  0  0  0  0
  -33.0482  -26.0123   19.0909 C   0  0  1  0  0  0  0  0  0  0  0  0
  -27.7245  -13.2548   20.0955 C   0  0  2  0  0  0  0  0  0  0  0  0
  -28.7441  -12.2650   27.1064 C   0  0  0  0  0  0  0  0  0  0  0  0
  -31.4615  -14.9890   27.7207 C   0  0  0  0  0  0  0  0  0  0  0  0
  -30.2836  -26.8641   26.2767 C   0  0  0  0  0  0  0  0  0  0  0  0
  -35.8524  -26.1525   22.7620 C   0  0  0  0  0  0  0  0  0  0  0  0
  -34.7114  -26.1846   24.9903 C   0  0  0  0  0  0  0  0  0  0  0  0
  -34.7049  -28.2271   23.5582 C   0  0  0  0  0  0  0  0  0  0  0  0
  -28.3249  -25.7691   23.2041 C   0  0  0  0  0  0  0  0  0  0  0  0
  -29.8293  -16.2526   22.4162 C   0  0  0  0  0  0  0  0  0  0  0  0
  -29.5775  -13.3126   27.8346 C   0  0  0  0  0  0  0  0  0  0  0  0
  -30.5503  -17.6013   22.3137 C   0  0  0  0  0  0  0  0  0  0  0  0
  -30.7982  -18.0394   20.8696 C   0  0  0  0  0  0  0  0  0  0  0  0
  -31.6722  -14.6254   24.1578 C   0  0  0  0  0  0  0  0  0  0  0  0
  -31.6689  -13.1508   23.7633 C   0  0  0  0  0  0  0  0  0  0  0  0
  -31.5504  -19.3619   20.8080 C   0  0  0  0  0  0  0  0  0  1  0  0
  -30.5205  -14.0980   26.8729 C   0  0  1  0  0  0  0  0  0  0  0  0
  -33.2760  -26.2477   22.9006 C   0  0  1  0  0  0  0  0  0  0  0  0
  -30.0194  -26.6946   24.7886 C   0  0  2  0  0  0  0  0  0  0  0  0
  -34.6277  -26.6850   23.5325 C   0  0  0  0  0  0  0  0  0  0  0  0
  -25.9389  -11.6109   20.5332 N   0  0  0  0  0  0  0  0  0  0  0  0
  -30.3742  -15.0979   24.5913 N   0  0  0  0  0  0  0  0  0  0  0  0
  -26.2782  -12.9035   20.3916 N   0  0  0  0  0  0  0  0  0  0  0  0
  -32.9800  -25.6692   20.5128 N   0  0  0  0  0  0  0  0  0  0  0  0
  -30.0912  -12.6422   20.4300 N   0  0  0  0  0  0  0  0  0  0  0  0
  -25.3983  -15.1024   20.4287 N   0  0  0  0  0  0  0  0  0  0  0  0
  -21.7887  -12.5213   21.2687 N   0  0  0  0  0  0  0  0  0  0  0  0
  -34.7067  -26.1022   17.3305 N   0  0  0  0  0  0  0  0  0  0  0  0
  -32.0990  -26.7600   23.5938 N   0  0  0  0  0  0  0  0  0  0  0  0
  -30.7373  -12.8696   22.6938 N   0  0  0  0  0  0  0  0  0  0  0  0
  -28.7209  -25.9831   24.6199 N   0  3  0  0  0  0  0  0  0  0  0  0
  -22.5091  -14.6801   20.9863 O   0  0  0  0  0  0  0  0  0  0  0  0
  -35.2698  -25.2929   19.4401 O   0  0  0  0  0  0  0  0  0  0  0  0
  -33.1780  -27.8906   21.1925 O   0  0  0  0  0  0  0  0  0  0  0  0
  -31.1569  -24.6924   24.0574 O   0  0  0  0  0  0  0  0  0  0  0  0
  -32.2543  -13.2397   21.0149 O   0  0  0  0  0  0  0  0  0  0  0  0
  -21.7242   -6.9615   21.6144 O   0  0  0  0  0  0  0  0  0  0  0  0
  -31.7370  -19.7230   19.4401 O   0  0  0  0  0  0  0  0  0  1  0  0
  -18.1614   -6.8557   25.8214 F   0  0  0  0  0  0  0  0  0  0  0  0
  -19.6161   -8.7460   21.7329 F   0  0  0  0  0  0  0  0  0  0  0  0
  1  2  1  0  0  0  0
  1  5  2  0  0  0  0
  2  6  2  0  0  0  0
  3  8  2  0  0  0  0
  3 17  1  0  0  0  0
  4  9  1  0  0  0  0
  4 17  2  0  0  0  0
  5 19  1  0  0  0  0
  6 21  1  0  0  0  0
  7 10  2  0  0  0  0
  7 20  1  0  0  0  0
  8 23  1  0  0  0  0
  9 23  2  0  0  0  0
 10 24  1  0  0  0  0
 11 12  2  0  0  0  0
 11 25  1  0  0  0  0
 12 26  1  0  0  0  0
 13 14  1  0  0  0  0
 13 29  2  0  0  0  0
 14 30  2  0  0  0  0
 15 22  1  0  0  0  0
 15 24  2  0  0  0  0
 16 26  2  0  0  0  0
 16 27  1  0  0  0  0
 17 28  1  0  0  0  0
 18 28  1  0  0  0  0
 18 31  2  0  0  0  0
 18 32  1  0  0  0  0
 19 21  2  0  0  0  0
 19 37  1  0  0  0  0
 20 22  2  0  0  0  0
 20 38  1  0  0  0  0
 21 46  1  0  0  0  0
 22 39  1  0  0  0  0
 23 83  1  0  0  0  0
 24 84  1  0  0  0  0
 25 27  2  0  0  0  0
 25 83  1  0  0  0  0
 26 85  1  0  0  0  0
 27 86  1  0  0  0  0
 28 67  2  0  0  0  0
 29 56  1  0  0  0  0
 29 68  1  0  0  0  0
 30 63  1  0  0  0  0
 30 68  1  0  0  0  0
 31 69  1  0  0  0  0
 31 72  1  0  0  0  0
 32 73  1  0  0  0  0
 32 78  2  0  0  0  0
 33 47  1  0  0  0  0
 33 74  1  0  0  0  0
 33 79  2  0  0  0  0
 34 64  1  0  0  0  0
 34 70  1  0  0  0  0
 34 80  2  0  0  0  0
 35 65  1  0  0  0  0
 35 75  1  0  0  0  0
 35 81  2  0  0  0  0
 36 71  1  0  0  0  0
 36 76  1  0  0  0  0
 36 82  2  0  0  0  0
 37 40  1  0  0  0  0
 38 47  1  0  0  0  0
 39 70  1  0  0  0  0
 40 42  1  0  0  0  0
 41 43  1  0  0  0  0
 41 44  1  0  0  0  0
 42 46  1  0  0  0  0
 43 48  1  0  0  0  0
 44 71  1  0  0  0  0
 45 48  1  0  0  0  0
 45 71  1  0  0  0  0
 46 74  1  0  0  0  0
 47 70  1  0  0  0  0
 48 69  1  0  0  0  0
 49 57  1  0  0  0  0
 50 63  1  0  0  0  0
 51 65  1  0  0  0  0
 52 66  1  0  0  0  0
 53 66  1  0  0  0  0
 54 66  1  0  0  0  0
 55 77  1  0  0  0  0
 56 58  1  0  0  0  0
 57 63  1  0  0  0  0
 58 59  1  0  0  0  0
 59 62  1  0  0  0  0
 60 61  1  0  0  0  0
 60 68  1  0  0  0  0
 61 76  1  0  0  0  0
 62 84  1  0  0  0  0
 64 66  1  0  0  0  0
 64 75  1  0  0  0  0
 65 77  1  0  0  0  0
 67 69  1  0  0  0  0
M  CHG  1  77   1
M  ISO  4  36 100  62 101  76 100  84 101
M  END
> <Batch ID>
0096

> <Smiles>
CCC(C)c1ccc(CCC[101CH2:1][101O:1]c2ccc3c(c2)CN(C(=O)C(NC(=O)C(C)NC)C(C)(C)C)C(C(=O)NC2CCCc4ccccc42)C3)n1CC[100NH:0][100C:0](=O)N1CCCC(n2nc(-c3ccc(Oc4ccc(F)cc4F)cc3)c(C(N)=O)c2N)C1

> <Shape>
0.164

> <Color>
0.174

> <Negative vol penalty>
0.000

$$$$

  -OEChem-04052319243D

 81 89  0     1  0  0  0  0  0999 V2000
  -19.5852  -17.9238   21.0443 C   0  0  0  0  0  0  0  0  0  0  0  0
  -20.5668  -18.5246   20.2626 C   0  0  0  0  0  0  0  0  0  0  0  0
  -25.3719  -15.7648   21.7365 C   0  0  0  0  0  0  0  0  0  0  0  0
  -24.8273  -16.6244   19.5452 C   0  0  0  0  0  0  0  0  0  0  0  0
  -18.4875  -18.6672   21.4757 C   0  0  0  0  0  0  0  0  0  0  0  0
  -20.4506  -19.8689   19.9111 C   0  0  0  0  0  0  0  0  0  0  0  0
  -25.0065  -23.9071   19.2450 C   0  0  0  0  0  0  0  0  0  0  0  0
  -24.1371  -15.1182   21.7897 C   0  0  0  0  0  0  0  0  0  0  0  0
  -23.5926  -15.9777   19.5984 C   0  0  0  0  0  0  0  0  0  0  0  0
  -25.6803  -24.3841   18.1216 C   0  0  0  0  0  0  0  0  0  0  0  0
  -21.2770  -12.9454   22.3496 C   0  0  0  0  0  0  0  0  0  0  0  0
  -21.2549  -11.6260   22.8015 C   0  0  0  0  0  0  0  0  0  0  0  0
  -24.2166  -26.3008   18.0650 C   0  0  0  0  0  0  0  0  0  0  0  0
  -28.8924  -27.5960   19.6097 C   0  0  0  0  0  0  0  0  0  0  0  0
  -22.7211  -10.9818   20.9925 C   0  0  0  0  0  0  0  0  0  0  0  0
  -29.0529  -26.5168   17.6401 C   0  0  0  0  0  0  0  0  0  0  0  0
  -25.7170  -16.5180   20.6143 C   0  0  0  0  0  0  0  0  0  0  0  0
  -28.2014  -16.6708   20.0559 C   0  0  0  0  0  0  0  0  0  0  0  0
  -18.3626  -20.0239   21.1374 C   0  0  0  0  0  0  0  0  0  0  0  0
  -23.9239  -24.6190   19.7813 C   0  0  0  0  0  0  0  0  0  0  0  0
  -19.3495  -20.6309   20.3373 C   0  0  0  0  0  0  0  0  0  0  0  0
  -23.5324  -25.8320   19.1968 C   0  0  0  0  0  0  0  0  0  0  0  0
  -29.5131  -26.5139   18.9383 C   0  0  0  0  0  0  0  0  0  0  0  0
  -23.2475  -15.2246   20.7206 C   0  0  0  0  0  0  0  0  0  0  0  0
  -25.2836  -25.5796   17.5296 C   0  0  0  0  0  0  0  0  0  0  0  0
  -22.0211  -13.2830   21.2191 C   0  0  0  0  0  0  0  0  0  0  0  0
  -21.9769  -10.6442   22.1230 C   0  0  0  0  0  0  0  0  0  0  0  0
  -22.7431  -12.3012   20.5406 C   0  0  0  0  0  0  0  0  0  0  0  0
  -26.9921  -17.1867   20.5590 C   0  0  0  0  0  0  0  0  0  0  0  0
  -28.0715  -28.2272   18.7012 C   0  0  0  0  0  0  0  0  0  0  0  0
  -29.1073  -17.6886   20.2290 C   0  0  0  0  0  0  0  0  0  0  0  0
  -28.4809  -15.3865   19.4831 C   0  0  0  0  0  0  0  0  0  0  0  0
  -20.8339  -24.0123   20.2143 C   0  0  0  0  0  0  0  0  0  0  0  0
  -20.8912  -26.8612   21.7645 C   0  0  0  0  0  0  0  0  0  0  0  0
  -22.4001  -29.8905   22.2042 C   0  0  0  0  0  0  0  0  0  0  0  0
  -29.3783  -23.3655   19.8947 C   0  0  0  0  0  0  0  0  0  0  0  0
  -17.1343  -20.7743   21.5876 C   0  0  0  0  0  0  0  0  0  0  0  0
  -23.2245  -24.1046   21.0095 C   0  0  0  0  0  0  0  0  0  0  0  0
  -22.3893  -26.6444   19.7461 C   0  0  0  0  0  0  0  0  0  0  0  0
  -17.2752  -22.2908   21.4846 C   0  0  0  0  0  0  0  0  0  0  0  0
  -29.3318  -21.7024   23.1087 C   0  0  0  0  0  0  0  0  0  0  0  0
  -17.8666  -22.6816   20.1339 C   0  0  0  0  0  0  0  0  0  0  0  0
  -28.8375  -20.3073   22.7221 C   0  0  0  0  0  0  0  0  0  0  0  0
  -28.6389  -22.7828   22.2835 C   0  0  0  0  0  0  0  0  0  0  0  0
  -28.2691  -21.2124   20.4204 C   0  0  0  0  0  0  0  0  0  0  0  0
  -19.2715  -22.0932   19.9559 C   0  0  1  0  0  0  0  0  0  0  0  0
  -21.8083  -24.6505   21.1635 C   0  0  1  0  0  0  0  0  0  0  0  0
  -28.9484  -20.0743   21.2037 C   0  0  2  0  0  0  0  0  0  0  0  0
  -27.1977  -29.4062   18.8726 C   0  0  0  0  0  0  0  0  0  0  0  0
  -22.1961  -32.0212   23.5140 C   0  0  0  0  0  0  0  0  0  0  0  0
  -25.2832  -27.8096   14.9494 C   0  0  0  0  0  0  0  0  0  0  0  0
  -18.5932  -27.7459   19.9627 C   0  0  0  0  0  0  0  0  0  0  0  0
  -19.0672  -30.1101   20.6366 C   0  0  0  0  0  0  0  0  0  0  0  0
  -18.3705  -28.4411   22.3547 C   0  0  0  0  0  0  0  0  0  0  0  0
  -25.0409  -29.4949   23.4804 C   0  0  0  0  0  0  0  0  0  0  0  0
  -30.4755  -25.5594   19.5209 C   0  0  0  0  0  0  0  0  0  0  0  0
  -27.4486  -27.9134   16.2316 C   0  0  0  0  0  0  0  0  0  0  0  0
  -20.6912  -28.3021   21.3610 C   0  0  1  0  0  0  0  0  0  0  0  0
  -22.8184  -30.6347   23.4594 C   0  0  2  0  0  0  0  0  0  0  0  0
  -25.9841  -27.4626   16.2570 C   0  0  2  0  0  0  0  0  0  1  0  0
  -19.2009  -28.6338   21.0670 C   0  0  0  0  0  0  0  0  0  0  0  0
  -27.1152  -18.4352   21.0175 N   0  0  0  0  0  0  0  0  0  0  0  0
  -28.1769  -27.5623   17.5075 N   0  0  0  0  0  0  0  0  0  0  0  0
  -28.4126  -18.7122   20.8033 N   0  0  0  0  0  0  0  0  0  0  0  0
  -21.7330  -26.0964   20.9446 N   0  0  0  0  0  0  0  0  0  0  0  0
  -28.7978  -22.5121   20.8477 N   0  0  0  0  0  0  0  0  0  0  0  0
  -30.4224  -17.7988   19.9447 N   0  0  0  0  0  0  0  0  0  0  0  0
  -27.4352  -14.4591   19.3800 N   0  0  0  0  0  0  0  0  0  0  0  0
  -20.2409  -22.8643   20.7042 N   0  0  0  0  0  0  0  0  0  0  0  0
  -21.2850  -29.1091   22.4215 N   0  0  0  0  0  0  0  0  0  0  0  0
  -29.8480  -24.5799   20.3798 N   0  0  0  0  0  0  0  0  0  0  0  0
  -24.3007  -30.7828   23.5041 N   0  3  0  0  0  0  0  0  0  0  0  0
  -29.6278  -15.0648   19.0899 O   0  0  0  0  0  0  0  0  0  0  0  0
  -20.6337  -24.5244   19.1191 O   0  0  0  0  0  0  0  0  0  0  0  0
  -20.3271  -26.4320   22.7741 O   0  0  0  0  0  0  0  0  0  0  0  0
  -23.0002  -29.9949   21.1367 O   0  0  0  0  0  0  0  0  0  0  0  0
  -29.4760  -23.0651   18.7000 O   0  0  0  0  0  0  0  0  0  0  0  0
  -22.0427  -14.5935   20.7721 O   0  0  0  0  0  0  0  0  0  0  0  0
  -25.9392  -26.0472   16.4326 O   0  0  0  0  0  0  0  0  0  1  0  0
  -21.9569   -9.3775   22.5580 F   0  0  0  0  0  0  0  0  0  0  0  0
  -23.4608  -12.6197   19.4546 F   0  0  0  0  0  0  0  0  0  0  0  0
  1  2  1  0  0  0  0
  1  5  2  0  0  0  0
  2  6  2  0  0  0  0
  3  8  2  0  0  0  0
  3 17  1  0  0  0  0
  4  9  1  0  0  0  0
  4 17  2  0  0  0  0
  5 19  1  0  0  0  0
  6 21  1  0  0  0  0
  7 10  2  0  0  0  0
  7 20  1  0  0  0  0
  8 24  1  0  0  0  0
  9 24  2  0  0  0  0
 10 25  1  0  0  0  0
 11 12  2  0  0  0  0
 11 26  1  0  0  0  0
 12 27  1  0  0  0  0
 13 22  1  0  0  0  0
 13 25  2  0  0  0  0
 14 23  1  0  0  0  0
 14 30  2  0  0  0  0
 15 27  2  0  0  0  0
 15 28  1  0  0  0  0
 16 23  2  0  0  0  0
 16 63  1  0  0  0  0
 17 29  1  0  0  0  0
 18 29  1  0  0  0  0
 18 31  2  0  0  0  0
 18 32  1  0  0  0  0
 19 21  2  0  0  0  0
 19 37  1  0  0  0  0
 20 22  2  0  0  0  0
 20 38  1  0  0  0  0
 21 46  1  0  0  0  0
 22 39  1  0  0  0  0
 23 56  1  0  0  0  0
 24 78  1  0  0  0  0
 25 79  1  0  0  0  0
 26 28  2  0  0  0  0
 26 78  1  0  0  0  0
 27 80  1  0  0  0  0
 28 81  1  0  0  0  0
 29 62  2  0  0  0  0
 30 49  1  0  0  0  0
 30 63  1  0  0  0  0
 31 64  1  0  0  0  0
 31 67  1  0  0  0  0
 32 68  1  0  0  0  0
 32 73  2  0  0  0  0
 33 47  1  0  0  0  0
 33 69  1  0  0  0  0
 33 74  2  0  0  0  0
 34 58  1  0  0  0  0
 34 65  1  0  0  0  0
 34 75  2  0  0  0  0
 35 59  1  0  0  0  0
 35 70  1  0  0  0  0
 35 76  2  0  0  0  0
 36 66  1  0  0  0  0
 36 71  1  0  0  0  0
 36 77  2  0  0  0  0
 37 40  1  0  0  0  0
 38 47  1  0  0  0  0
 39 65  1  0  0  0  0
 40 42  1  0  0  0  0
 41 43  1  0  0  0  0
 41 44  1  0  0  0  0
 42 46  1  0  0  0  0
 43 48  1  0  0  0  0
 44 66  1  0  0  0  0
 45 48  1  0  0  0  0
 45 66  1  0  0  0  0
 46 69  1  0  0  0  0
 47 65  1  0  0  0  0
 48 64  1  0  0  0  0
 50 59  1  0  0  0  0
 51 60  1  0  0  0  0
 52 61  1  0  0  0  0
 53 61  1  0  0  0  0
 54 61  1  0  0  0  0
 55 72  1  0  0  0  0
 56 71  1  0  0  0  0
 57 60  1  0  0  0  0
 57 63  1  0  0  0  0
 58 61  1  0  0  0  0
 58 70  1  0  0  0  0
 59 72  1  0  0  0  0
 60 79  1  0  0  0  0
 62 64  1  0  0  0  0
M  CHG  1  72   1
M  ISO  4  36 100  60 101  71 100  79 101
M  END
> <Batch ID>
0096

> <Smiles>
CNC(C)C(=O)NC(C(=O)N1Cc2cc([101O:1][101CH:1](C)Cn3cc(C[100NH:0][100C:0](=O)N4CCCC(n5nc(-c6ccc(Oc7ccc(F)cc7F)cc6)c(C(N)=O)c5N)C4)cc3C)ccc2CC1C(=O)NC1CCCc2ccccc21)C(C)(C)C

> <Shape>
0.206

> <Color>
0.070

> <Negative vol penalty>
0.000

$$$$

  -OEChem-04052319243D

 89 97  0     1  0  0  0  0  0999 V2000
  -22.7711   -7.9880   22.1657 C   0  0  0  0  0  0  0  0  0  0  0  0
  -23.9436   -8.6320   22.5477 C   0  0  0  0  0  0  0  0  0  0  0  0
  -25.6660  -29.5439   22.8231 C   0  0  0  0  0  0  0  0  0  0  0  0
  -25.0518  -29.4058   25.1557 C   0  0  0  0  0  0  0  0  0  0  0  0
  -22.1222   -8.3634   20.9901 C   0  0  0  0  0  0  0  0  0  0  0  0
  -24.4685   -9.6510   21.7537 C   0  0  0  0  0  0  0  0  0  0  0  0
  -28.1073  -15.8017   22.2490 C   0  0  0  0  0  0  0  0  0  0  0  0
  -26.3990  -30.7014   23.0846 C   0  0  0  0  0  0  0  0  0  0  0  0
  -25.7849  -30.5633   25.4172 C   0  0  0  0  0  0  0  0  0  0  0  0
  -29.2401  -16.4276   21.7307 C   0  0  0  0  0  0  0  0  0  0  0  0
  -28.1376  -33.8953   23.0735 C   0  0  0  0  0  0  0  0  0  0  0  0
  -27.9934  -34.9685   22.1944 C   0  0  0  0  0  0  0  0  0  0  0  0
  -27.9905  -17.0456   19.7620 C   0  0  0  0  0  0  0  0  0  0  0  0
  -29.6222  -23.7835   20.5609 C   0  0  0  0  0  0  0  0  0  0  0  0
  -25.6320  -35.0625   22.6966 C   0  0  0  0  0  0  0  0  0  0  0  0
  -24.9923  -28.8961   23.8586 C   0  0  0  0  0  0  0  0  0  0  0  0
  -23.1408  -27.5670   22.7127 C   0  0  0  0  0  0  0  0  0  0  0  0
  -22.6342   -9.3941   20.1863 C   0  0  0  0  0  0  0  0  0  0  0  0
  -26.9085  -15.7835   21.5216 C   0  0  0  0  0  0  0  0  0  0  0  0
  -23.8266  -10.0396   20.5656 C   0  0  0  0  0  0  0  0  0  0  0  0
  -26.8432  -16.4210   20.2744 C   0  0  0  0  0  0  0  0  0  0  0  0
  -28.3557  -24.3648   20.3057 C   0  0  0  0  0  0  0  0  0  0  0  0
  -26.4585  -31.2111   24.3816 C   0  0  0  0  0  0  0  0  0  0  0  0
  -29.1827  -17.0473   20.4858 C   0  0  0  0  0  0  0  0  0  0  0  0
  -27.0290  -33.4055   23.7642 C   0  0  0  0  0  0  0  0  0  0  0  0
  -26.7406  -35.5522   22.0060 C   0  0  0  0  0  0  0  0  0  0  0  0
  -25.7762  -33.9892   23.5757 C   0  0  0  0  0  0  0  0  0  0  0  0
  -24.2344  -27.7007   23.5890 C   0  0  0  0  0  0  0  0  0  0  0  0
  -29.4125  -22.4555   20.8601 C   0  0  0  0  0  0  0  0  0  0  0  0
  -27.4106  -23.3743   20.4569 C   0  0  0  0  0  0  0  0  0  0  0  0
  -22.7793  -26.2458   22.8138 C   0  0  0  0  0  0  0  0  0  0  0  0
  -22.5084  -28.5493   21.8814 C   0  0  0  0  0  0  0  0  0  0  0  0
  -25.0747  -13.5054   20.2763 C   0  0  0  0  0  0  0  0  0  0  0  0
  -23.0982  -15.9939   19.6256 C   0  0  0  0  0  0  0  0  0  0  0  0
  -22.7388  -19.3453   19.0911 C   0  0  0  0  0  0  0  0  0  0  0  0
  -25.7819  -21.3043   24.3682 C   0  0  0  0  0  0  0  0  0  0  0  0
  -21.9233   -9.7328   18.9000 C   0  0  0  0  0  0  0  0  0  0  0  0
  -25.6881  -15.1272   22.1065 C   0  0  0  0  0  0  0  0  0  0  0  0
  -25.5747  -16.4473   19.4628 C   0  0  0  0  0  0  0  0  0  0  0  0
  -22.3418  -11.0764   18.3083 C   0  0  0  0  0  0  0  0  0  0  0  0
  -22.8220  -22.5765   25.8839 C   0  0  0  0  0  0  0  0  0  0  0  0
  -23.8611  -11.2122   18.3140 C   0  0  0  0  0  0  0  0  0  0  0  0
  -22.7497  -24.0220   25.3885 C   0  0  0  0  0  0  0  0  0  0  0  0
  -24.2627  -22.1385   26.1381 C   0  0  0  0  0  0  0  0  0  0  0  0
  -25.1070  -23.7786   24.5038 C   0  0  0  0  0  0  0  0  0  0  0  0
  -24.4137  -11.1665   19.7437 C   0  0  1  0  0  0  0  0  0  0  0  0
  -24.6624  -14.7248   21.0513 C   0  0  1  0  0  0  0  0  0  0  0  0
  -23.6782  -24.2477   24.1802 C   0  0  2  0  0  0  0  0  0  0  0  0
  -25.9405  -23.4297   20.3091 C   0  0  0  0  0  0  0  0  0  0  0  0
  -28.7355  -26.1103   18.5665 C   0  0  0  0  0  0  0  0  0  0  0  0
  -21.0081  -21.0785   18.5452 C   0  0  0  0  0  0  0  0  0  0  0  0
  -27.8486  -26.5313   22.3766 C   0  0  0  0  0  0  0  0  0  0  0  0
  -28.3025  -28.2738   20.6535 C   0  0  0  0  0  0  0  0  0  0  0  0
  -32.6781  -19.0608   19.0528 C   0  0  0  0  0  0  0  0  0  0  0  0
  -23.0796  -15.0574   16.7217 C   0  0  0  0  0  0  0  0  0  0  0  0
  -22.1583  -17.2948   16.0790 C   0  0  0  0  0  0  0  0  0  0  0  0
  -20.8559  -15.7998   17.5927 C   0  0  0  0  0  0  0  0  0  0  0  0
  -23.2307  -20.8004   21.6208 C   0  0  0  0  0  0  0  0  0  0  0  0
  -30.4055  -21.3752   21.2092 C   0  0  0  0  0  0  0  0  0  0  0  0
  -30.9400  -20.6030   19.9950 C   0  0  0  0  0  0  0  0  0  0  0  0
  -27.4291  -20.9409   21.0427 C   0  0  0  0  0  0  0  0  0  0  0  0
  -27.3004  -20.6180   22.5291 C   0  0  0  0  0  0  0  0  0  0  0  0
  -31.2105  -18.2141   20.9126 C   0  0  0  0  0  0  0  0  0  1  0  0
  -28.1038  -25.7740   19.9440 C   0  0  2  0  0  0  0  0  0  0  0  0
  -22.9288  -16.9508   18.4705 C   0  0  1  0  0  0  0  0  0  0  0  0
  -21.7558  -20.3555   19.6547 C   0  0  2  0  0  0  0  0  0  0  0  0
  -28.5556  -26.8118   21.0422 C   0  0  0  0  0  0  0  0  0  0  0  0
  -31.9101  -19.4465   20.3234 C   0  0  1  0  0  0  0  0  0  0  0  0
  -22.2802  -16.2737   17.2301 C   0  0  0  0  0  0  0  0  0  0  0  0
  -24.5470  -26.5558   24.2019 N   0  0  0  0  0  0  0  0  0  0  0  0
  -28.0644  -22.2180   20.7942 N   0  0  0  0  0  0  0  0  0  0  0  0
  -23.6443  -25.6902   23.7100 N   0  0  0  0  0  0  0  0  0  0  0  0
  -24.4101  -15.7863   20.0746 N   0  0  0  0  0  0  0  0  0  0  0  0
  -25.0902  -22.3777   24.9532 N   0  0  0  0  0  0  0  0  0  0  0  0
  -21.8089  -25.5168   22.2228 N   0  0  0  0  0  0  0  0  0  0  0  0
  -21.4429  -29.2884   22.4130 N   0  0  0  0  0  0  0  0  0  0  0  0
  -24.2081  -12.4369   20.4058 N   0  0  0  0  0  0  0  0  0  0  0  0
  -22.1788  -18.0893   18.9901 N   0  0  0  0  0  0  0  0  0  0  0  0
  -26.5379  -21.6164   23.2449 N   0  0  0  0  0  0  0  0  0  0  0  0
  -22.4714  -21.3706   20.4783 N   0  3  0  0  0  0  0  0  0  0  0  0
  -22.8666  -28.7536   20.6968 O   0  0  0  0  0  0  0  0  0  0  0  0
  -26.1021  -13.5324   19.6089 O   0  0  0  0  0  0  0  0  0  0  0  0
  -22.1024  -15.4559   20.1163 O   0  0  0  0  0  0  0  0  0  0  0  0
  -23.8872  -19.6415   18.7688 O   0  0  0  0  0  0  0  0  0  0  0  0
  -25.7254  -20.1519   24.8108 O   0  0  0  0  0  0  0  0  0  0  0  0
  -27.1740  -32.3404   24.6372 O   0  0  0  0  0  0  0  0  0  0  0  0
  -30.2871  -17.6584   19.9772 O   0  0  0  0  0  0  0  0  0  1  0  0
  -26.6025  -36.5839   21.1629 F   0  0  0  0  0  0  0  0  0  0  0  0
  -24.7078  -33.5239   24.2373 F   0  0  0  0  0  0  0  0  0  0  0  0
  1  2  1  0  0  0  0
  1  5  2  0  0  0  0
  2  6  2  0  0  0  0
  3  8  2  0  0  0  0
  3 16  1  0  0  0  0
  4  9  1  0  0  0  0
  4 16  2  0  0  0  0
  5 18  1  0  0  0  0
  6 20  1  0  0  0  0
  7 10  2  0  0  0  0
  7 19  1  0  0  0  0
  8 23  1  0  0  0  0
  9 23  2  0  0  0  0
 10 24  1  0  0  0  0
 11 12  2  0  0  0  0
 11 25  1  0  0  0  0
 12 26  1  0  0  0  0
 13 21  1  0  0  0  0
 13 24  2  0  0  0  0
 14 22  1  0  0  0  0
 14 29  2  0  0  0  0
 15 26  2  0  0  0  0
 15 27  1  0  0  0  0
 16 28  1  0  0  0  0
 17 28  1  0  0  0  0
 17 31  2  0  0  0  0
 17 32  1  0  0  0  0
 18 20  2  0  0  0  0
 18 37  1  0  0  0  0
 19 21  2  0  0  0  0
 19 38  1  0  0  0  0
 20 46  1  0  0  0  0
 21 39  1  0  0  0  0
 22 30  2  0  0  0  0
 22 64  1  0  0  0  0
 23 86  1  0  0  0  0
 24 87  1  0  0  0  0
 25 27  2  0  0  0  0
 25 86  1  0  0  0  0
 26 88  1  0  0  0  0
 27 89  1  0  0  0  0
 28 70  2  0  0  0  0
 29 59  1  0  0  0  0
 29 71  1  0  0  0  0
 30 49  1  0  0  0  0
 30 71  1  0  0  0  0
 31 72  1  0  0  0  0
 31 75  1  0  0  0  0
 32 76  1  0  0  0  0
 32 81  2  0  0  0  0
 33 47  1  0  0  0  0
 33 77  1  0  0  0  0
 33 82  2  0  0  0  0
 34 65  1  0  0  0  0
 34 73  1  0  0  0  0
 34 83  2  0  0  0  0
 35 66  1  0  0  0  0
 35 78  1  0  0  0  0
 35 84  2  0  0  0  0
 36 74  1  0  0  0  0
 36 79  1  0  0  0  0
 36 85  2  0  0  0  0
 37 40  1  0  0  0  0
 38 47  1  0  0  0  0
 39 73  1  0  0  0  0
 40 42  1  0  0  0  0
 41 43  1  0  0  0  0
 41 44  1  0  0  0  0
 42 46  1  0  0  0  0
 43 48  1  0  0  0  0
 44 74  1  0  0  0  0
 45 48  1  0  0  0  0
 45 74  1  0  0  0  0
 46 77  1  0  0  0  0
 47 73  1  0  0  0  0
 48 72  1  0  0  0  0
 50 64  1  0  0  0  0
 51 66  1  0  0  0  0
 52 67  1  0  0  0  0
 53 67  1  0  0  0  0
 54 68  1  0  0  0  0
 55 69  1  0  0  0  0
 56 69  1  0  0  0  0
 57 69  1  0  0  0  0
 58 80  1  0  0  0  0
 59 60  1  0  0  0  0
 60 68  1  0  0  0  0
 61 62  1  0  0  0  0
 61 71  1  0  0  0  0
 62 79  1  0  0  0  0
 63 68  1  0  0  0  0
 63 87  1  0  0  0  0
 64 67  1  0  0  0  0
 65 69  1  0  0  0  0
 65 78  1  0  0  0  0
 66 80  1  0  0  0  0
 70 72  1  0  0  0  0
M  CHG  1  80   1
M  ISO  4  36 100  63 101  79 100  87 101
M  END
> <Batch ID>
0096

> <Smiles>
CNC(C)C(=O)NC(C(=O)N1Cc2cc([101O:1][101CH2:1]C(C)CCc3cc(C(C)C(C)C)c(C)n3CC[100NH:0][100C:0](=O)N3CCCC(n4nc(-c5ccc(Oc6ccc(F)cc6F)cc5)c(C(N)=O)c4N)C3)ccc2CC1C(=O)NC1CCCc2ccccc21)C(C)(C)C

> <Shape>
0.232

> <Color>
0.061

> <Negative vol penalty>
0.000

$$$$

  -OEChem-04052319243D

 86 94  0     1  0  0  0  0  0999 V2000
  -26.6332  -29.5383   19.6357 C   0  0  0  0  0  0  0  0  0  0  0  0
  -27.2772  -28.3196   19.8240 C   0  0  0  0  0  0  0  0  0  0  0  0
  -23.3792   -9.6653   20.4961 C   0  0  0  0  0  0  0  0  0  0  0  0
  -23.8399  -10.2481   22.7950 C   0  0  0  0  0  0  0  0  0  0  0  0
  -25.4111  -29.7834   20.2605 C   0  0  0  0  0  0  0  0  0  0  0  0
  -26.7000  -27.3457   20.6381 C   0  0  0  0  0  0  0  0  0  0  0  0
  -26.1235  -20.2347   21.2850 C   0  0  0  0  0  0  0  0  0  0  0  0
  -22.6909   -8.5294   20.9219 C   0  0  0  0  0  0  0  0  0  0  0  0
  -23.1516   -9.1121   23.2209 C   0  0  0  0  0  0  0  0  0  0  0  0
  -26.3099  -19.2199   22.2225 C   0  0  0  0  0  0  0  0  0  0  0  0
  -23.4490   -5.4260   22.0259 C   0  0  0  0  0  0  0  0  0  0  0  0
  -23.7051   -4.2268   21.3612 C   0  0  0  0  0  0  0  0  0  0  0  0
  -24.1573  -19.7242   23.1875 C   0  0  0  0  0  0  0  0  0  0  0  0
  -21.3786   -4.0824   20.7255 C   0  0  0  0  0  0  0  0  0  0  0  0
  -23.9538  -10.5247   21.4326 C   0  0  0  0  0  0  0  0  0  0  0  0
  -24.1333  -12.9828   20.7745 C   0  0  0  0  0  0  0  0  0  0  0  0
  -24.8140  -28.8084   21.0750 C   0  0  0  0  0  0  0  0  0  0  0  0
  -24.9554  -21.0105   21.2985 C   0  0  0  0  0  0  0  0  0  0  0  0
  -25.4695  -27.5785   21.2754 C   0  0  0  0  0  0  0  0  0  0  0  0
  -23.9573  -20.7466   22.2474 C   0  0  0  0  0  0  0  0  0  0  0  0
  -22.5770   -8.2527   22.2843 C   0  0  0  0  0  0  0  0  0  0  0  0
  -25.3280  -18.9664   23.1758 C   0  0  0  0  0  0  0  0  0  0  0  0
  -22.1577   -5.9534   22.0405 C   0  0  0  0  0  0  0  0  0  0  0  0
  -22.6699   -3.5550   20.7110 C   0  0  0  0  0  0  0  0  0  0  0  0
  -21.1226   -5.2816   21.3903 C   0  0  0  0  0  0  0  0  0  0  0  0
  -24.6654  -11.6980   20.9933 C   0  0  0  0  0  0  0  0  0  0  0  0
  -25.2084  -13.7353   20.3692 C   0  0  0  0  0  0  0  0  0  0  0  0
  -22.7874  -13.4539   20.9243 C   0  0  0  0  0  0  0  0  0  0  0  0
  -24.3164  -24.0960   21.7170 C   0  0  0  0  0  0  0  0  0  0  0  0
  -21.3013  -23.1752   20.9529 C   0  0  0  0  0  0  0  0  0  0  0  0
  -18.9872  -20.6714   20.8017 C   0  0  0  0  0  0  0  0  0  0  0  0
  -31.1077  -13.2286   21.2597 C   0  0  0  0  0  0  0  0  0  0  0  0
  -23.5150  -29.1371   21.7673 C   0  0  0  0  0  0  0  0  0  0  0  0
  -24.7577  -22.0839   20.2635 C   0  0  0  0  0  0  0  0  0  0  0  0
  -22.6763  -21.5374   22.2917 C   0  0  0  0  0  0  0  0  0  0  0  0
  -22.7888  -27.9106   22.3139 C   0  0  0  0  0  0  0  0  0  0  0  0
  -29.4178  -13.3485   18.1281 C   0  0  0  0  0  0  0  0  0  0  0  0
  -23.7606  -27.0047   23.0633 C   0  0  0  0  0  0  0  0  0  0  0  0
  -27.9409  -16.6187   24.7076 C   0  0  0  0  0  0  0  0  0  0  0  0
  -26.8011  -14.4480   24.0790 C   0  0  0  0  0  0  0  0  0  0  0  0
  -27.9602  -13.0550   18.4876 C   0  0  0  0  0  0  0  0  0  0  0  0
  -28.8937  -15.8522   25.6250 C   0  0  0  0  0  0  0  0  0  0  0  0
  -27.7543  -13.6823   24.9965 C   0  0  0  0  0  0  0  0  0  0  0  0
  -30.3853  -12.5423   18.9917 C   0  0  0  0  0  0  0  0  0  0  0  0
  -28.7236  -12.3882   20.8052 C   0  0  0  0  0  0  0  0  0  0  0  0
  -24.8632  -26.4876   22.1313 C   0  0  1  0  0  0  0  0  0  0  0  0
  -23.7551  -23.1505   20.6928 C   0  0  1  0  0  0  0  0  0  0  0  0
  -26.5960  -15.8938   24.5537 C   0  0  0  0  0  0  0  0  0  0  0  0
  -27.7113  -13.2197   19.9989 C   0  0  2  0  0  0  0  0  0  0  0  0
  -29.0836  -14.4188   25.1366 C   0  0  0  0  0  0  0  0  0  0  0  0
  -16.5990  -20.2319   20.1688 C   0  0  0  0  0  0  0  0  0  0  0  0
  -24.3246  -15.9792   23.4631 C   0  0  0  0  0  0  0  0  0  0  0  0
  -20.3739  -24.5072   23.5366 C   0  0  0  0  0  0  0  0  0  0  0  0
  -18.2218  -23.2441   23.3334 C   0  0  0  0  0  0  0  0  0  0  0  0
  -18.8740  -24.8851   21.5715 C   0  0  0  0  0  0  0  0  0  0  0  0
  -32.9316  -13.5641   25.7214 C   0  0  0  0  0  0  0  0  0  0  0  0
  -32.5829  -11.6182   24.2021 C   0  0  0  0  0  0  0  0  0  0  0  0
  -19.7769  -18.7307   18.7116 C   0  0  0  0  0  0  0  0  0  0  0  0
  -29.1860  -13.2899   27.3538 C   0  0  0  0  0  0  0  0  0  0  0  0
  -31.6774  -13.8935   23.5818 C   0  0  0  0  0  0  0  0  0  0  0  0
  -30.6375  -12.5049   25.4890 C   0  0  0  0  0  0  0  0  0  0  0  0
  -20.1047  -22.6824   21.7301 C   0  0  1  0  0  0  0  0  0  0  0  0
  -18.0439  -20.2371   19.6945 C   0  0  2  0  0  0  0  0  0  0  0  0
  -25.6827  -16.6519   23.5922 C   0  0  1  0  0  0  0  0  0  1  0  0
  -19.4185  -23.8159   22.5436 C   0  0  0  0  0  0  0  0  0  0  0  0
  -31.9325  -12.9076   24.7467 C   0  0  0  0  0  0  0  0  0  0  0  0
  -25.9767  -11.6342   20.7472 N   0  0  0  0  0  0  0  0  0  0  0  0
  -26.2775  -12.8884   20.3695 N   0  0  0  0  0  0  0  0  0  0  0  0
  -22.5326  -22.5805   21.2627 N   0  0  0  0  0  0  0  0  0  0  0  0
  -30.0966  -12.7438   20.4137 N   0  0  0  0  0  0  0  0  0  0  0  0
  -25.3341  -15.0322   20.0160 N   0  0  0  0  0  0  0  0  0  0  0  0
  -21.8060  -12.5483   21.3498 N   0  0  0  0  0  0  0  0  0  0  0  0
  -24.3611  -25.4132   21.3019 N   0  0  0  0  0  0  0  0  0  0  0  0
  -19.2306  -22.0281   20.7625 N   0  0  0  0  0  0  0  0  0  0  0  0
  -30.7484  -13.3968   22.5913 N   0  0  0  0  0  0  0  0  0  0  0  0
  -18.3903  -18.8649   19.2275 N   0  3  0  0  0  0  0  0  0  0  0  0
  -29.9386  -13.6881   26.1094 N   0  3  1  0  0  0  0  0  0  0  0  0
  -22.4616  -14.6387   20.6722 O   0  0  0  0  0  0  0  0  0  0  0  0
  -24.6805  -23.6627   22.8039 O   0  0  0  0  0  0  0  0  0  0  0  0
  -21.1480  -24.0505   20.0973 O   0  0  0  0  0  0  0  0  0  0  0  0
  -19.4579  -19.8864   21.6219 O   0  0  0  0  0  0  0  0  0  0  0  0
  -32.2446  -13.4971   20.8569 O   0  0  0  0  0  0  0  0  0  0  0  0
  -21.9052   -7.1445   22.7003 O   0  0  0  0  0  0  0  0  0  0  0  0
  -25.5078  -17.9769   24.0926 O   0  0  0  0  0  0  0  0  0  1  0  0
  -22.9163   -2.4042   20.0713 F   0  0  0  0  0  0  0  0  0  0  0  0
  -19.8802   -5.7839   21.3999 F   0  0  0  0  0  0  0  0  0  0  0  0
  1  2  1  0  0  0  0
  1  5  2  0  0  0  0
  2  6  2  0  0  0  0
  3  8  2  0  0  0  0
  3 15  1  0  0  0  0
  4  9  1  0  0  0  0
  4 15  2  0  0  0  0
  5 17  1  0  0  0  0
  6 19  1  0  0  0  0
  7 10  2  0  0  0  0
  7 18  1  0  0  0  0
  8 21  1  0  0  0  0
  9 21  2  0  0  0  0
 10 22  1  0  0  0  0
 11 12  2  0  0  0  0
 11 23  1  0  0  0  0
 12 24  1  0  0  0  0
 13 20  1  0  0  0  0
 13 22  2  0  0  0  0
 14 24  2  0  0  0  0
 14 25  1  0  0  0  0
 15 26  1  0  0  0  0
 16 26  1  0  0  0  0
 16 27  2  0  0  0  0
 16 28  1  0  0  0  0
 17 19  2  0  0  0  0
 17 33  1  0  0  0  0
 18 20  2  0  0  0  0
 18 34  1  0  0  0  0
 19 46  1  0  0  0  0
 20 35  1  0  0  0  0
 21 83  1  0  0  0  0
 22 84  1  0  0  0  0
 23 25  2  0  0  0  0
 23 83  1  0  0  0  0
 24 85  1  0  0  0  0
 25 86  1  0  0  0  0
 26 67  2  0  0  0  0
 27 68  1  0  0  0  0
 27 71  1  0  0  0  0
 28 72  1  0  0  0  0
 28 78  2  0  0  0  0
 29 47  1  0  0  0  0
 29 73  1  0  0  0  0
 29 79  2  0  0  0  0
 30 62  1  0  0  0  0
 30 69  1  0  0  0  0
 30 80  2  0  0  0  0
 31 63  1  0  0  0  0
 31 74  1  0  0  0  0
 31 81  2  0  0  0  0
 32 70  1  0  0  0  0
 32 75  1  0  0  0  0
 32 82  2  0  0  0  0
 33 36  1  0  0  0  0
 34 47  1  0  0  0  0
 35 69  1  0  0  0  0
 36 38  1  0  0  0  0
 37 41  1  0  0  0  0
 37 44  1  0  0  0  0
 38 46  1  0  0  0  0
 39 42  1  0  0  0  0
 39 48  1  0  0  0  0
 40 43  1  0  0  0  0
 40 48  1  0  0  0  0
 41 49  1  0  0  0  0
 42 50  1  0  0  0  0
 43 50  1  0  0  0  0
 44 70  1  0  0  0  0
 45 49  1  0  0  0  0
 45 70  1  0  0  0  0
 46 73  1  0  0  0  0
 47 69  1  0  0  0  0
 48 64  1  0  0  0  0
 49 68  1  0  0  0  0
 50 77  1  0  0  0  0
 51 63  1  0  0  0  0
 52 64  1  0  0  0  0
 53 65  1  0  0  0  0
 54 65  1  0  0  0  0
 55 65  1  0  0  0  0
 56 66  1  0  0  0  0
 57 66  1  0  0  0  0
 58 76  1  0  0  0  0
 59 77  1  0  0  0  0
 60 66  1  0  0  0  0
 60 75  1  0  0  0  0
 61 66  1  0  0  0  0
 61 77  1  0  0  0  0
 62 65  1  0  0  0  0
 62 74  1  0  0  0  0
 63 76  1  0  0  0  0
 64 84  1  0  0  0  0
 67 68  1  0  0  0  0
M  CHG  2  76   1  77   1
M  ISO  4  32 100  64 101  75 100  84 101
M  END
> <Batch ID>
0096

> <Smiles>
CNC(C)C(=O)NC(C(=O)N1Cc2cc([101O:1][101CH:1](C)C3CCC(N(C)CC(C)(C)C[100NH:0][100C:0](=O)N4CCCC(n5nc(-c6ccc(Oc7ccc(F)cc7F)cc6)c(C(N)=O)c5N)C4)CC3)ccc2CC1C(=O)NC1CCCc2ccccc21)C(C)(C)C

> <Shape>
0.176

> <Color>
0.161

> <Negative vol penalty>
0.000

$$$$

  -OEChem-04052319243D

 86 94  0     1  0  0  0  0  0999 V2000
  -16.5704  -28.3662   23.1672 C   0  0  0  0  0  0  0  0  0  0  0  0
  -17.4532  -28.0278   22.1466 C   0  0  0  0  0  0  0  0  0  0  0  0
  -27.3083  -15.0107   22.4681 C   0  0  0  0  0  0  0  0  0  0  0  0
  -26.9806  -15.7172   20.1811 C   0  0  0  0  0  0  0  0  0  0  0  0
  -16.9650  -29.2617   24.1603 C   0  0  0  0  0  0  0  0  0  0  0  0
  -18.7309  -28.5856   22.1180 C   0  0  0  0  0  0  0  0  0  0  0  0
  -23.8837  -25.8878   20.2007 C   0  0  0  0  0  0  0  0  0  0  0  0
  -26.7153  -13.7829   22.1739 C   0  0  0  0  0  0  0  0  0  0  0  0
  -26.3876  -14.4894   19.8868 C   0  0  0  0  0  0  0  0  0  0  0  0
  -24.5807  -25.9468   18.9947 C   0  0  0  0  0  0  0  0  0  0  0  0
  -23.5903  -12.5594   21.7720 C   0  0  0  0  0  0  0  0  0  0  0  0
  -22.6510  -12.0612   22.6748 C   0  0  0  0  0  0  0  0  0  0  0  0
  -26.0273  -27.6407   19.9205 C   0  0  0  0  0  0  0  0  0  0  0  0
  -24.0202  -10.1003   23.0173 C   0  0  0  0  0  0  0  0  0  0  0  0
  -31.7665  -24.5417   18.1741 C   0  0  0  0  0  0  0  0  0  0  0  0
  -27.4409  -15.9778   21.4717 C   0  0  0  0  0  0  0  0  0  0  0  0
  -29.4184  -17.5758   21.6811 C   0  0  0  0  0  0  0  0  0  0  0  0
  -18.2515  -29.8234   24.1492 C   0  0  0  0  0  0  0  0  0  0  0  0
  -24.2470  -26.7140   21.2739 C   0  0  0  0  0  0  0  0  0  0  0  0
  -19.1426  -29.4906   23.1111 C   0  0  0  0  0  0  0  0  0  0  0  0
  -25.3349  -27.5884   21.1400 C   0  0  0  0  0  0  0  0  0  0  0  0
  -32.6534  -24.7563   19.2060 C   0  0  0  0  0  0  0  0  0  0  0  0
  -31.8931  -25.0793   20.3570 C   0  0  0  0  0  0  0  0  0  0  0  0
  -26.2549  -13.5223   20.8832 C   0  0  0  0  0  0  0  0  0  0  0  0
  -25.6508  -26.8254   18.8535 C   0  0  0  0  0  0  0  0  0  0  0  0
  -24.7445  -11.8280   21.4917 C   0  0  0  0  0  0  0  0  0  0  0  0
  -22.8660  -10.8317   23.2975 C   0  0  0  0  0  0  0  0  0  0  0  0
  -24.9595  -10.5985   22.1144 C   0  0  0  0  0  0  0  0  0  0  0  0
  -28.0529  -17.2465   21.7752 C   0  0  0  0  0  0  0  0  0  0  0  0
  -30.5647  -25.0521   19.9934 C   0  0  0  0  0  0  0  0  0  0  0  0
  -29.4828  -18.8895   22.0768 C   0  0  0  0  0  0  0  0  0  0  0  0
  -30.5292  -16.7666   21.2724 C   0  0  0  0  0  0  0  0  0  0  0  0
  -22.8021  -29.0166   22.9214 C   0  0  0  0  0  0  0  0  0  0  0  0
  -25.4793  -28.8552   24.7459 C   0  0  0  0  0  0  0  0  0  0  0  0
  -28.7794  -28.0178   24.9804 C   0  0  0  0  0  0  0  0  0  0  0  0
  -27.5143  -24.1102   21.9577 C   0  0  0  0  0  0  0  0  0  0  0  0
  -18.6164  -30.8231   25.2178 C   0  0  0  0  0  0  0  0  0  0  0  0
  -23.5020  -26.6192   22.5771 C   0  0  0  0  0  0  0  0  0  0  0  0
  -25.7778  -28.4820   22.2686 C   0  0  0  0  0  0  0  0  0  0  0  0
  -20.1172  -31.0814   25.3234 C   0  0  0  0  0  0  0  0  0  0  0  0
  -26.0038  -21.8466   24.2535 C   0  0  0  0  0  0  0  0  0  0  0  0
  -20.7200  -31.2994   23.9392 C   0  0  0  0  0  0  0  0  0  0  0  0
  -26.5097  -20.4755   23.8018 C   0  0  0  0  0  0  0  0  0  0  0  0
  -25.7484  -22.7730   23.0667 C   0  0  0  0  0  0  0  0  0  0  0  0
  -27.3961  -21.5581   21.6945 C   0  0  0  0  0  0  0  0  0  0  0  0
  -20.5455  -30.0556   23.0594 C   0  0  1  0  0  0  0  0  0  0  0  0
  -23.6338  -27.8748   23.4335 C   0  0  1  0  0  0  0  0  0  0  0  0
  -27.7211  -20.6075   22.8593 C   0  0  2  0  0  0  0  0  0  0  0  0
  -32.4243  -25.3888   21.7005 C   0  0  0  0  0  0  0  0  0  0  0  0
  -34.7350  -25.6914   18.1355 C   0  0  0  0  0  0  0  0  0  0  0  0
  -34.6192  -23.2477   18.7438 C   0  0  0  0  0  0  0  0  0  0  0  0
  -31.0129  -27.6320   26.0574 C   0  0  0  0  0  0  0  0  0  0  0  0
  -27.7322  -24.3581   15.2367 C   0  0  0  0  0  0  0  0  0  0  0  0
  -25.7931  -31.8616   24.3299 C   0  0  0  0  0  0  0  0  0  0  0  0
  -28.1610  -31.6528   25.1159 C   0  0  0  0  0  0  0  0  0  0  0  0
  -26.2830  -31.0730   26.6521 C   0  0  0  0  0  0  0  0  0  0  0  0
  -28.0813  -25.2333   25.7001 C   0  0  0  0  0  0  0  0  0  0  0  0
  -29.3505  -25.3097   20.7963 C   0  0  0  0  0  0  0  0  0  0  0  0
  -28.9683  -25.7618   16.9065 C   0  0  0  0  0  0  0  0  0  0  0  0
  -29.2388  -24.5811   17.8493 C   0  0  0  0  0  0  0  0  0  0  0  0
  -26.3962  -25.6893   16.9017 C   0  0  0  0  0  0  0  0  0  1  0  0
  -34.1243  -24.6643   19.1167 C   0  0  0  0  0  0  0  0  0  0  0  0
  -26.8295  -29.5302   24.7252 C   0  0  1  0  0  0  0  0  0  0  0  0
  -29.5467  -27.2295   26.0264 C   0  0  2  0  0  0  0  0  0  0  0  0
  -27.6800  -25.6503   16.0618 C   0  0  2  0  0  0  0  0  0  0  0  0
  -26.7573  -31.0141   25.1837 C   0  0  0  0  0  0  0  0  0  0  0  0
  -27.3039  -18.2685   22.1978 N   0  0  0  0  0  0  0  0  0  0  0  0
  -30.4998  -24.7239   18.6644 N   0  0  0  0  0  0  0  0  0  0  0  0
  -28.2020  -19.2529   22.3727 N   0  0  0  0  0  0  0  0  0  0  0  0
  -25.0136  -28.3571   23.5208 N   0  0  0  0  0  0  0  0  0  0  0  0
  -26.9362  -22.8558   22.2134 N   0  0  0  0  0  0  0  0  0  0  0  0
  -30.5096  -19.7576   22.1971 N   0  0  0  0  0  0  0  0  0  0  0  0
  -30.2860  -15.4382   20.8976 N   0  0  0  0  0  0  0  0  0  0  0  0
  -21.5135  -29.0418   23.4196 N   0  0  0  0  0  0  0  0  0  0  0  0
  -27.7145  -28.6976   25.5327 N   0  0  0  0  0  0  0  0  0  0  0  0
  -28.6410  -24.0988   21.1446 N   0  0  0  0  0  0  0  0  0  0  0  0
  -29.4661  -25.7698   25.7371 N   0  3  0  0  0  0  0  0  0  0  0  0
  -31.7049  -17.2037   21.2562 O   0  0  0  0  0  0  0  0  0  0  0  0
  -23.2937  -29.8164   22.1337 O   0  0  0  0  0  0  0  0  0  0  0  0
  -24.8638  -28.7666   25.8112 O   0  0  0  0  0  0  0  0  0  0  0  0
  -29.0955  -28.0324   23.7928 O   0  0  0  0  0  0  0  0  0  0  0  0
  -27.0631  -25.1618   22.4241 O   0  0  0  0  0  0  0  0  0  0  0  0
  -25.6764  -12.3243   20.5956 O   0  0  0  0  0  0  0  0  0  0  0  0
  -26.3324  -26.8855   17.6772 O   0  0  0  0  0  0  0  0  0  1  0  0
  -21.9647  -10.3542   24.1657 F   0  0  0  0  0  0  0  0  0  0  0  0
  -26.0670   -9.8919   21.8500 F   0  0  0  0  0  0  0  0  0  0  0  0
  1  2  1  0  0  0  0
  1  5  2  0  0  0  0
  2  6  2  0  0  0  0
  3  8  2  0  0  0  0
  3 16  1  0  0  0  0
  4  9  1  0  0  0  0
  4 16  2  0  0  0  0
  5 18  1  0  0  0  0
  6 20  1  0  0  0  0
  7 10  2  0  0  0  0
  7 19  1  0  0  0  0
  8 24  1  0  0  0  0
  9 24  2  0  0  0  0
 10 25  1  0  0  0  0
 11 12  2  0  0  0  0
 11 26  1  0  0  0  0
 12 27  1  0  0  0  0
 13 21  1  0  0  0  0
 13 25  2  0  0  0  0
 14 27  2  0  0  0  0
 14 28  1  0  0  0  0
 15 22  2  0  0  0  0
 15 68  1  0  0  0  0
 16 29  1  0  0  0  0
 17 29  1  0  0  0  0
 17 31  2  0  0  0  0
 17 32  1  0  0  0  0
 18 20  2  0  0  0  0
 18 37  1  0  0  0  0
 19 21  2  0  0  0  0
 19 38  1  0  0  0  0
 20 46  1  0  0  0  0
 21 39  1  0  0  0  0
 22 23  1  0  0  0  0
 22 62  1  0  0  0  0
 23 30  2  0  0  0  0
 23 49  1  0  0  0  0
 24 83  1  0  0  0  0
 25 84  1  0  0  0  0
 26 28  2  0  0  0  0
 26 83  1  0  0  0  0
 27 85  1  0  0  0  0
 28 86  1  0  0  0  0
 29 67  2  0  0  0  0
 30 58  1  0  0  0  0
 30 68  1  0  0  0  0
 31 69  1  0  0  0  0
 31 72  1  0  0  0  0
 32 73  1  0  0  0  0
 32 78  2  0  0  0  0
 33 47  1  0  0  0  0
 33 74  1  0  0  0  0
 33 79  2  0  0  0  0
 34 63  1  0  0  0  0
 34 70  1  0  0  0  0
 34 80  2  0  0  0  0
 35 64  1  0  0  0  0
 35 75  1  0  0  0  0
 35 81  2  0  0  0  0
 36 71  1  0  0  0  0
 36 76  1  0  0  0  0
 36 82  2  0  0  0  0
 37 40  1  0  0  0  0
 38 47  1  0  0  0  0
 39 70  1  0  0  0  0
 40 42  1  0  0  0  0
 41 43  1  0  0  0  0
 41 44  1  0  0  0  0
 42 46  1  0  0  0  0
 43 48  1  0  0  0  0
 44 71  1  0  0  0  0
 45 48  1  0  0  0  0
 45 71  1  0  0  0  0
 46 74  1  0  0  0  0
 47 70  1  0  0  0  0
 48 69  1  0  0  0  0
 50 62  1  0  0  0  0
 51 62  1  0  0  0  0
 52 64  1  0  0  0  0
 53 65  1  0  0  0  0
 54 66  1  0  0  0  0
 55 66  1  0  0  0  0
 56 66  1  0  0  0  0
 57 77  1  0  0  0  0
 58 76  1  0  0  0  0
 59 60  1  0  0  0  0
 59 65  1  0  0  0  0
 60 68  1  0  0  0  0
 61 65  1  0  0  0  0
 61 84  1  0  0  0  0
 63 66  1  0  0  0  0
 63 75  1  0  0  0  0
 64 77  1  0  0  0  0
 67 69  1  0  0  0  0
M  CHG  1  77   1
M  ISO  4  36 100  61 101  76 100  84 101
M  END
> <Batch ID>
0096

> <Smiles>
CNC(C)C(=O)NC(C(=O)N1Cc2cc([101O:1][101CH2:1]C(C)CCn3cc(C(C)C)c(C)c3C[100NH:0][100C:0](=O)N3CCCC(n4nc(-c5ccc(Oc6ccc(F)cc6F)cc5)c(C(N)=O)c4N)C3)ccc2CC1C(=O)NC1CCCc2ccccc21)C(C)(C)C

> <Shape>
0.242

> <Color>
0.053

> <Negative vol penalty>
0.000

$$$$

  -OEChem-04052319243D

 81 89  0     1  0  0  0  0  0999 V2000
  -30.5997  -25.6894   20.5523 C   0  0  0  0  0  0  0  0  0  0  0  0
  -29.6439  -25.2573   21.4661 C   0  0  0  0  0  0  0  0  0  0  0  0
  -25.7838  -29.5036   22.4598 C   0  0  0  0  0  0  0  0  0  0  0  0
  -24.2854  -30.1659   20.6840 C   0  0  0  0  0  0  0  0  0  0  0  0
  -30.7381  -25.0360   19.3285 C   0  0  0  0  0  0  0  0  0  0  0  0
  -28.8251  -24.1719   21.1562 C   0  0  0  0  0  0  0  0  0  0  0  0
  -25.4713  -18.6471   24.2455 C   0  0  0  0  0  0  0  0  0  0  0  0
  -25.1561  -30.4006   23.3240 C   0  0  0  0  0  0  0  0  0  0  0  0
  -23.6576  -31.0629   21.5483 C   0  0  0  0  0  0  0  0  0  0  0  0
  -24.2082  -18.0622   24.3258 C   0  0  0  0  0  0  0  0  0  0  0  0
  -25.1983  -33.7271   23.9214 C   0  0  0  0  0  0  0  0  0  0  0  0
  -26.0102  -34.5294   24.7232 C   0  0  0  0  0  0  0  0  0  0  0  0
  -24.5908  -16.9606   22.2141 C   0  0  0  0  0  0  0  0  0  0  0  0
  -22.5490  -19.3505   20.1456 C   0  0  0  0  0  0  0  0  0  0  0  0
  -24.9952  -33.5808   26.6999 C   0  0  0  0  0  0  0  0  0  0  0  0
  -21.5599  -19.2693   18.0438 C   0  0  0  0  0  0  0  0  0  0  0  0
  -25.3485  -29.3863   21.1397 C   0  0  0  0  0  0  0  0  0  0  0  0
  -27.3517  -28.4553   19.8638 C   0  0  0  0  0  0  0  0  0  0  0  0
  -29.9272  -23.9360   19.0074 C   0  0  0  0  0  0  0  0  0  0  0  0
  -26.3006  -18.4014   23.1418 C   0  0  0  0  0  0  0  0  0  0  0  0
  -28.9519  -23.5040   19.9264 C   0  0  0  0  0  0  0  0  0  0  0  0
  -25.8649  -17.5416   22.1234 C   0  0  0  0  0  0  0  0  0  0  0  0
  -22.7159  -19.5382   18.7430 C   0  0  0  0  0  0  0  0  0  0  0  0
  -24.0930  -31.1802   22.8683 C   0  0  0  0  0  0  0  0  0  0  0  0
  -23.7667  -17.2211   23.3086 C   0  0  0  0  0  0  0  0  0  0  0  0
  -24.2848  -32.8518   24.5088 C   0  0  0  0  0  0  0  0  0  0  0  0
  -25.9086  -34.4562   26.1125 C   0  0  0  0  0  0  0  0  0  0  0  0
  -24.1833  -32.7786   25.8981 C   0  0  0  0  0  0  0  0  0  0  0  0
  -25.9969  -28.4603   20.2463 C   0  0  0  0  0  0  0  0  0  0  0  0
  -21.2715  -18.9454   20.4649 C   0  0  0  0  0  0  0  0  0  0  0  0
  -27.4634  -27.3853   19.0098 C   0  0  0  0  0  0  0  0  0  0  0  0
  -28.4142  -29.3387   20.2462 C   0  0  0  0  0  0  0  0  0  0  0  0
  -27.5855  -20.1995   20.8571 C   0  0  0  0  0  0  0  0  0  0  0  0
  -29.0878  -17.4353   20.0668 C   0  0  0  0  0  0  0  0  0  0  0  0
  -29.1155  -14.0239   20.1594 C   0  0  0  0  0  0  0  0  0  0  0  0
  -24.3558  -22.3877   18.5387 C   0  0  0  0  0  0  0  0  0  0  0  0
  -30.0816  -23.2912   17.6527 C   0  0  0  0  0  0  0  0  0  0  0  0
  -27.6709  -19.0188   23.0831 C   0  0  0  0  0  0  0  0  0  0  0  0
  -26.7250  -17.2295   20.9271 C   0  0  0  0  0  0  0  0  0  0  0  0
  -29.4288  -21.9148   17.5553 C   0  0  0  0  0  0  0  0  0  0  0  0
  -24.9116  -24.7969   15.8960 C   0  0  0  0  0  0  0  0  0  0  0  0
  -28.0239  -21.9470   18.1486 C   0  0  0  0  0  0  0  0  0  0  0  0
  -25.3854  -26.0156   16.6901 C   0  0  0  0  0  0  0  0  0  0  0  0
  -23.8207  -24.0383   16.6462 C   0  0  0  0  0  0  0  0  0  0  0  0
  -24.6752  -24.8295   18.8182 C   0  0  0  0  0  0  0  0  0  0  0  0
  -28.0618  -22.3149   19.6368 C   0  0  1  0  0  0  0  0  0  0  0  0
  -28.2264  -19.1066   21.6649 C   0  0  1  0  0  0  0  0  0  0  0  0
  -25.7942  -25.6262   18.1231 C   0  0  2  0  0  0  0  0  0  0  0  0
  -30.4534  -12.0433   19.3947 C   0  0  0  0  0  0  0  0  0  0  0  0
  -21.6372  -14.8728   22.0428 C   0  0  0  0  0  0  0  0  0  0  0  0
  -28.0221  -17.8127   17.2327 C   0  0  0  0  0  0  0  0  0  0  0  0
  -28.5604  -15.4090   16.7849 C   0  0  0  0  0  0  0  0  0  0  0  0
  -30.3866  -17.0082   17.3596 C   0  0  0  0  0  0  0  0  0  0  0  0
  -29.5856  -13.1219   22.9387 C   0  0  0  0  0  0  0  0  0  0  0  0
  -23.9843  -19.9716   18.1125 C   0  0  0  0  0  0  0  0  0  0  0  0
  -20.6953  -18.6427   21.8250 C   0  0  0  0  0  0  0  0  0  0  0  0
  -20.5417  -17.1420   22.1124 C   0  0  0  0  0  0  0  0  0  0  0  0
  -28.7739  -16.2691   19.1610 C   0  0  1  0  0  0  0  0  0  0  0  0
  -30.2088  -13.0349   20.5215 C   0  0  2  0  0  0  0  0  0  0  0  0
  -21.8690  -16.3745   22.1519 C   0  0  1  0  0  0  0  0  0  1  0  0
  -28.9185  -16.6319   17.6560 C   0  0  0  0  0  0  0  0  0  0  0  0
  -25.2980  -27.4721   19.6815 N   0  0  0  0  0  0  0  0  0  0  0  0
  -26.2172  -26.8361   18.9354 N   0  0  0  0  0  0  0  0  0  0  0  0
  -28.0542  -17.8623   20.9124 N   0  0  0  0  0  0  0  0  0  0  0  0
  -24.2801  -23.6811   17.9958 N   0  0  0  0  0  0  0  0  0  0  0  0
  -28.5050  -26.8701   18.3228 N   0  0  0  0  0  0  0  0  0  0  0  0
  -28.6429  -30.4837   19.4710 N   0  0  0  0  0  0  0  0  0  0  0  0
  -28.4671  -21.1738   20.4293 N   0  0  0  0  0  0  0  0  0  0  0  0
  -29.6314  -15.1719   19.5962 N   0  0  0  0  0  0  0  0  0  0  0  0
  -23.9568  -21.3565   17.6972 N   0  0  0  0  0  0  0  0  0  0  0  0
  -29.8328  -12.2723   21.7454 N   0  3  0  0  0  0  0  0  0  0  0  0
  -29.1499  -29.1107   21.2363 O   0  0  0  0  0  0  0  0  0  0  0  0
  -26.3807  -20.1608   20.6370 O   0  0  0  0  0  0  0  0  0  0  0  0
  -30.2111  -17.9439   20.0306 O   0  0  0  0  0  0  0  0  0  0  0  0
  -27.9229  -13.7989   20.3532 O   0  0  0  0  0  0  0  0  0  0  0  0
  -24.7547  -22.1673   19.6874 O   0  0  0  0  0  0  0  0  0  0  0  0
  -23.4801  -32.0554   23.7114 O   0  0  0  0  0  0  0  0  0  0  0  0
  -22.5341  -16.6494   23.3842 O   0  0  0  0  0  0  0  0  0  1  0  0
  -26.6894  -35.2255   26.8823 F   0  0  0  0  0  0  0  0  0  0  0  0
  -23.3084  -31.9388   26.4682 F   0  0  0  0  0  0  0  0  0  0  0  0
  -20.2802  -18.7927   19.0770 S   0  0  0  0  0  0  0  0  0  0  0  0
  1  2  1  0  0  0  0
  1  5  2  0  0  0  0
  2  6  2  0  0  0  0
  3  8  2  0  0  0  0
  3 17  1  0  0  0  0
  4  9  1  0  0  0  0
  4 17  2  0  0  0  0
  5 19  1  0  0  0  0
  6 21  1  0  0  0  0
  7 10  2  0  0  0  0
  7 20  1  0  0  0  0
  8 24  1  0  0  0  0
  9 24  2  0  0  0  0
 10 25  1  0  0  0  0
 11 12  2  0  0  0  0
 11 26  1  0  0  0  0
 12 27  1  0  0  0  0
 13 22  1  0  0  0  0
 13 25  2  0  0  0  0
 14 23  1  0  0  0  0
 14 30  2  0  0  0  0
 15 27  2  0  0  0  0
 15 28  1  0  0  0  0
 16 23  2  0  0  0  0
 16 81  1  0  0  0  0
 17 29  1  0  0  0  0
 18 29  1  0  0  0  0
 18 31  2  0  0  0  0
 18 32  1  0  0  0  0
 19 21  2  0  0  0  0
 19 37  1  0  0  0  0
 20 22  2  0  0  0  0
 20 38  1  0  0  0  0
 21 46  1  0  0  0  0
 22 39  1  0  0  0  0
 23 55  1  0  0  0  0
 24 77  1  0  0  0  0
 25 78  1  0  0  0  0
 26 28  2  0  0  0  0
 26 77  1  0  0  0  0
 27 79  1  0  0  0  0
 28 80  1  0  0  0  0
 29 62  2  0  0  0  0
 30 56  1  0  0  0  0
 30 81  1  0  0  0  0
 31 63  1  0  0  0  0
 31 66  1  0  0  0  0
 32 67  1  0  0  0  0
 32 72  2  0  0  0  0
 33 47  1  0  0  0  0
 33 68  1  0  0  0  0
 33 73  2  0  0  0  0
 34 58  1  0  0  0  0
 34 64  1  0  0  0  0
 34 74  2  0  0  0  0
 35 59  1  0  0  0  0
 35 69  1  0  0  0  0
 35 75  2  0  0  0  0
 36 65  1  0  0  0  0
 36 70  1  0  0  0  0
 36 76  2  0  0  0  0
 37 40  1  0  0  0  0
 38 47  1  0  0  0  0
 39 64  1  0  0  0  0
 40 42  1  0  0  0  0
 41 43  1  0  0  0  0
 41 44  1  0  0  0  0
 42 46  1  0  0  0  0
 43 48  1  0  0  0  0
 44 65  1  0  0  0  0
 45 48  1  0  0  0  0
 45 65  1  0  0  0  0
 46 68  1  0  0  0  0
 47 64  1  0  0  0  0
 48 63  1  0  0  0  0
 49 59  1  0  0  0  0
 50 60  1  0  0  0  0
 51 61  1  0  0  0  0
 52 61  1  0  0  0  0
 53 61  1  0  0  0  0
 54 71  1  0  0  0  0
 55 70  1  0  0  0  0
 56 57  1  0  0  0  0
 57 60  1  0  0  0  0
 58 61  1  0  0  0  0
 58 69  1  0  0  0  0
 59 71  1  0  0  0  0
 60 78  1  0  0  0  0
 62 63  1  0  0  0  0
M  CHG  1  71   1
M  ISO  4  36 100  60 101  70 100  78 101
M  END
> <Batch ID>
0096

> <Smiles>
CNC(C)C(=O)NC(C(=O)N1Cc2cc([101O:1][101CH:1](C)CCc3cc(C[100NH:0][100C:0](=O)N4CCCC(n5nc(-c6ccc(Oc7ccc(F)cc7F)cc6)c(C(N)=O)c5N)C4)cs3)ccc2CC1C(=O)NC1CCCc2ccccc21)C(C)(C)C

> <Shape>
0.217

> <Color>
0.054

> <Negative vol penalty>
0.000

$$$$

  -OEChem-04052319243D

 84 92  0     1  0  0  0  0  0999 V2000
  -22.8817  -24.2077   16.0905 C   0  0  0  0  0  0  0  0  0  0  0  0
  -24.0425  -23.5664   16.5109 C   0  0  0  0  0  0  0  0  0  0  0  0
  -23.0018   -9.8835   19.9810 C   0  0  0  0  0  0  0  0  0  0  0  0
  -23.7302   -9.9379   22.2839 C   0  0  0  0  0  0  0  0  0  0  0  0
  -22.9639  -25.4317   15.4280 C   0  0  0  0  0  0  0  0  0  0  0  0
  -25.2862  -24.1483   16.2681 C   0  0  0  0  0  0  0  0  0  0  0  0
  -28.3374  -23.9669   20.3057 C   0  0  0  0  0  0  0  0  0  0  0  0
  -22.2396   -8.7464   20.2489 C   0  0  0  0  0  0  0  0  0  0  0  0
  -22.9680   -8.8009   22.5519 C   0  0  0  0  0  0  0  0  0  0  0  0
  -28.9664  -22.7520   20.5744 C   0  0  0  0  0  0  0  0  0  0  0  0
  -23.2232   -5.4626   22.0809 C   0  0  0  0  0  0  0  0  0  0  0  0
  -23.8154   -4.4478   22.8326 C   0  0  0  0  0  0  0  0  0  0  0  0
  -30.9867  -23.5776   19.5469 C   0  0  0  0  0  0  0  0  0  0  0  0
  -28.8101  -17.6863   19.1639 C   0  0  0  0  0  0  0  0  0  0  0  0
  -22.0932   -4.6854   24.5103 C   0  0  0  0  0  0  0  0  0  0  0  0
  -23.7472  -10.4792   20.9985 C   0  0  0  0  0  0  0  0  0  0  0  0
  -24.1235  -12.9960   20.8209 C   0  0  0  0  0  0  0  0  0  0  0  0
  -24.2087  -26.0336   15.1856 C   0  0  0  0  0  0  0  0  0  0  0  0
  -29.0262  -24.9941   19.6447 C   0  0  0  0  0  0  0  0  0  0  0  0
  -25.3852  -25.3809   15.6006 C   0  0  0  0  0  0  0  0  0  0  0  0
  -30.3650  -24.8055   19.2733 C   0  0  0  0  0  0  0  0  0  0  0  0
  -29.1048  -18.0116   17.8169 C   0  0  0  0  0  0  0  0  0  0  0  0
  -22.2227   -8.2051   21.5344 C   0  0  0  0  0  0  0  0  0  0  0  0
  -30.2903  -22.5561   20.1924 C   0  0  0  0  0  0  0  0  0  0  0  0
  -22.0660   -6.0889   22.5440 C   0  0  0  0  0  0  0  0  0  0  0  0
  -23.2504   -4.0591   24.0472 C   0  0  0  0  0  0  0  0  0  0  0  0
  -21.5010   -5.7003   23.7586 C   0  0  0  0  0  0  0  0  0  0  0  0
  -24.5352  -11.6534   20.7222 C   0  0  0  0  0  0  0  0  0  0  0  0
  -29.8415  -18.1690   19.9388 C   0  0  0  0  0  0  0  0  0  0  0  0
  -30.3075  -18.6830   17.8096 C   0  0  0  0  0  0  0  0  0  0  0  0
  -25.2302  -13.7223   20.4546 C   0  0  0  0  0  0  0  0  0  0  0  0
  -22.8542  -13.5382   21.2091 C   0  0  0  0  0  0  0  0  0  0  0  0
  -28.6459  -26.5414   16.8943 C   0  0  0  0  0  0  0  0  0  0  0  0
  -31.0987  -28.3428   18.0174 C   0  0  0  0  0  0  0  0  0  0  0  0
  -33.8136  -28.5829   20.0713 C   0  0  0  0  0  0  0  0  0  0  0  0
  -30.7236  -14.6761   20.6945 C   0  0  0  0  0  0  0  0  0  0  0  0
  -24.2499  -27.3347   14.4239 C   0  0  0  0  0  0  0  0  0  0  0  0
  -28.3418  -26.3083   19.3861 C   0  0  0  0  0  0  0  0  0  0  0  0
  -31.1549  -25.8839   18.5793 C   0  0  0  0  0  0  0  0  0  0  0  0
  -25.5855  -28.0651   14.5376 C   0  0  0  0  0  0  0  0  0  0  0  0
  -29.5879  -12.2475   18.3517 C   0  0  0  0  0  0  0  0  0  0  0  0
  -26.7436  -27.0976   14.3148 C   0  0  0  0  0  0  0  0  0  0  0  0
  -28.1409  -11.9829   18.7716 C   0  0  0  0  0  0  0  0  0  0  0  0
  -30.4913  -12.4865   19.5595 C   0  0  0  0  0  0  0  0  0  0  0  0
  -28.5804  -13.2759   20.9008 C   0  0  0  0  0  0  0  0  0  0  0  0
  -26.7514  -25.9923   15.3777 C   0  0  1  0  0  0  0  0  0  0  0  0
  -28.9792  -27.1003   18.2487 C   0  0  1  0  0  0  0  0  0  0  0  0
  -27.6203  -13.0845   19.7143 C   0  0  2  0  0  0  0  0  0  0  0  0
  -31.0768  -19.2470   16.6799 C   0  0  0  0  0  0  0  0  0  0  0  0
  -26.8773  -18.3567   16.6886 C   0  0  0  0  0  0  0  0  0  0  0  0
  -28.0973  -16.1663   16.4262 C   0  0  0  0  0  0  0  0  0  0  0  0
  -35.6413  -30.1656   20.7436 C   0  0  0  0  0  0  0  0  0  0  0  0
  -32.5512  -27.7757   15.3946 C   0  0  0  0  0  0  0  0  0  0  0  0
  -34.6705  -28.5456   16.4827 C   0  0  0  0  0  0  0  0  0  0  0  0
  -32.7612  -30.1286   16.2159 C   0  0  0  0  0  0  0  0  0  0  0  0
  -32.9118  -28.6102   22.8899 C   0  0  0  0  0  0  0  0  0  0  0  0
  -30.0369  -18.1039   21.4017 C   0  0  0  0  0  0  0  0  0  0  0  0
  -32.0289  -19.4346   19.5462 C   0  0  0  0  0  0  0  0  0  0  0  0
  -30.8006  -16.8557   21.8787 C   0  0  0  0  0  0  0  0  0  0  0  0
  -31.9263  -20.9560   19.5453 C   0  0  0  0  0  0  0  0  0  1  0  0
  -28.2704  -17.6875   16.6427 C   0  0  0  0  0  0  0  0  0  0  0  0
  -32.6041  -28.2743   17.9274 C   0  0  1  0  0  0  0  0  0  0  0  0
  -34.2415  -29.6582   21.0536 C   0  0  2  0  0  0  0  0  0  0  0  0
  -33.1315  -28.6598   16.5165 C   0  0  0  0  0  0  0  0  0  0  0  0
  -25.8043  -11.5312   20.3242 N   0  0  0  0  0  0  0  0  0  0  0  0
  -30.7462  -18.7726   19.1048 N   0  0  0  0  0  0  0  0  0  0  0  0
  -26.1996  -12.8063   20.1695 N   0  0  0  0  0  0  0  0  0  0  0  0
  -30.4397  -27.1488   18.3429 N   0  0  0  0  0  0  0  0  0  0  0  0
  -29.9421  -13.5437   20.4120 N   0  0  0  0  0  0  0  0  0  0  0  0
  -25.4589  -15.0488   20.3516 N   0  0  0  0  0  0  0  0  0  0  0  0
  -21.8260  -12.6506   21.5545 N   0  0  0  0  0  0  0  0  0  0  0  0
  -27.2918  -26.4929   16.6234 N   0  0  0  0  0  0  0  0  0  0  0  0
  -33.1160  -29.1124   19.0062 N   0  0  0  0  0  0  0  0  0  0  0  0
  -30.1252  -15.6331   21.5049 N   0  0  0  0  0  0  0  0  0  0  0  0
  -34.2331  -29.1224   22.4442 N   0  3  0  0  0  0  0  0  0  0  0  0
  -22.6332  -14.7728   21.2327 O   0  0  0  0  0  0  0  0  0  0  0  0
  -29.5504  -26.1823   16.1496 O   0  0  0  0  0  0  0  0  0  0  0  0
  -30.5289  -29.4178   17.8136 O   0  0  0  0  0  0  0  0  0  0  0  0
  -34.0753  -27.3927   20.2307 O   0  0  0  0  0  0  0  0  0  0  0  0
  -31.8679  -14.8258   20.2527 O   0  0  0  0  0  0  0  0  0  0  0  0
  -21.4788   -7.0958   21.7962 O   0  0  0  0  0  0  0  0  0  0  0  0
  -30.9064  -21.3710   20.4529 O   0  0  0  0  0  0  0  0  0  1  0  0
  -23.8183   -3.0835   24.7682 F   0  0  0  0  0  0  0  0  0  0  0  0
  -20.3887   -6.2975   24.2081 F   0  0  0  0  0  0  0  0  0  0  0  0
  1  2  1  0  0  0  0
  1  5  2  0  0  0  0
  2  6  2  0  0  0  0
  3  8  2  0  0  0  0
  3 16  1  0  0  0  0
  4  9  1  0  0  0  0
  4 16  2  0  0  0  0
  5 18  1  0  0  0  0
  6 20  1  0  0  0  0
  7 10  2  0  0  0  0
  7 19  1  0  0  0  0
  8 23  1  0  0  0  0
  9 23  2  0  0  0  0
 10 24  1  0  0  0  0
 11 12  2  0  0  0  0
 11 25  1  0  0  0  0
 12 26  1  0  0  0  0
 13 21  1  0  0  0  0
 13 24  2  0  0  0  0
 14 22  1  0  0  0  0
 14 29  2  0  0  0  0
 15 26  2  0  0  0  0
 15 27  1  0  0  0  0
 16 28  1  0  0  0  0
 17 28  1  0  0  0  0
 17 31  2  0  0  0  0
 17 32  1  0  0  0  0
 18 20  2  0  0  0  0
 18 37  1  0  0  0  0
 19 21  2  0  0  0  0
 19 38  1  0  0  0  0
 20 46  1  0  0  0  0
 21 39  1  0  0  0  0
 22 30  2  0  0  0  0
 22 61  1  0  0  0  0
 23 81  1  0  0  0  0
 24 82  1  0  0  0  0
 25 27  2  0  0  0  0
 25 81  1  0  0  0  0
 26 83  1  0  0  0  0
 27 84  1  0  0  0  0
 28 65  2  0  0  0  0
 29 57  1  0  0  0  0
 29 66  1  0  0  0  0
 30 49  1  0  0  0  0
 30 66  1  0  0  0  0
 31 67  1  0  0  0  0
 31 70  1  0  0  0  0
 32 71  1  0  0  0  0
 32 76  2  0  0  0  0
 33 47  1  0  0  0  0
 33 72  1  0  0  0  0
 33 77  2  0  0  0  0
 34 62  1  0  0  0  0
 34 68  1  0  0  0  0
 34 78  2  0  0  0  0
 35 63  1  0  0  0  0
 35 73  1  0  0  0  0
 35 79  2  0  0  0  0
 36 69  1  0  0  0  0
 36 74  1  0  0  0  0
 36 80  2  0  0  0  0
 37 40  1  0  0  0  0
 38 47  1  0  0  0  0
 39 68  1  0  0  0  0
 40 42  1  0  0  0  0
 41 43  1  0  0  0  0
 41 44  1  0  0  0  0
 42 46  1  0  0  0  0
 43 48  1  0  0  0  0
 44 69  1  0  0  0  0
 45 48  1  0  0  0  0
 45 69  1  0  0  0  0
 46 72  1  0  0  0  0
 47 68  1  0  0  0  0
 48 67  1  0  0  0  0
 50 61  1  0  0  0  0
 51 61  1  0  0  0  0
 52 63  1  0  0  0  0
 53 64  1  0  0  0  0
 54 64  1  0  0  0  0
 55 64  1  0  0  0  0
 56 75  1  0  0  0  0
 57 59  1  0  0  0  0
 58 60  1  0  0  0  0
 58 66  1  0  0  0  0
 59 74  1  0  0  0  0
 60 82  1  0  0  0  0
 62 64  1  0  0  0  0
 62 73  1  0  0  0  0
 63 75  1  0  0  0  0
 65 67  1  0  0  0  0
M  CHG  1  75   1
M  ISO  4  36 100  60 101  74 100  82 101
M  END
> <Batch ID>
0096

> <Smiles>
CNC(C)C(=O)NC(C(=O)N1Cc2cc([101O:1][101CH2:1]Cn3c(CC[100NH:0][100C:0](=O)N4CCCC(n5nc(-c6ccc(Oc7ccc(F)cc7F)cc6)c(C(N)=O)c5N)C4)cc(C(C)C)c3C)ccc2CC1C(=O)NC1CCCc2ccccc21)C(C)(C)C

> <Shape>
0.261

> <Color>
0.202

> <Negative vol penalty>
0.000

$$$$

  -OEChem-04052319243D

 90 98  0     1  0  0  0  0  0999 V2000
  -31.6950  -30.1692   18.0013 C   0  0  0  0  0  0  0  0  0  0  0  0
  -30.6144  -29.3245   18.2342 C   0  0  0  0  0  0  0  0  0  0  0  0
  -26.5554  -12.2841   21.7098 C   0  0  0  0  0  0  0  0  0  0  0  0
  -25.8731  -13.6250   19.8195 C   0  0  0  0  0  0  0  0  0  0  0  0
  -32.0125  -31.1639   18.9252 C   0  0  0  0  0  0  0  0  0  0  0  0
  -29.8513  -29.4734   19.3918 C   0  0  0  0  0  0  0  0  0  0  0  0
  -24.8750  -29.2478   18.4806 C   0  0  0  0  0  0  0  0  0  0  0  0
  -25.3098  -11.6564   21.7142 C   0  0  0  0  0  0  0  0  0  0  0  0
  -24.6274  -12.9973   19.8238 C   0  0  0  0  0  0  0  0  0  0  0  0
  -24.3200  -27.9838   18.2860 C   0  0  0  0  0  0  0  0  0  0  0  0
  -23.7444   -9.2155   19.9753 C   0  0  0  0  0  0  0  0  0  0  0  0
  -23.7183   -7.8279   20.1147 C   0  0  0  0  0  0  0  0  0  0  0  0
  -23.5277  -27.9876   20.5645 C   0  0  0  0  0  0  0  0  0  0  0  0
  -29.1096  -23.6803   18.5323 C   0  0  0  0  0  0  0  0  0  0  0  0
  -28.6130  -21.3509   18.8664 C   0  0  0  0  0  0  0  0  0  0  0  0
  -22.4116   -8.0553   22.1340 C   0  0  0  0  0  0  0  0  0  0  0  0
  -26.8371  -13.2685   20.7624 C   0  0  0  0  0  0  0  0  0  0  0  0
  -29.2759  -13.5158   20.0563 C   0  0  0  0  0  0  0  0  0  0  0  0
  -31.2471  -31.3314   20.0900 C   0  0  0  0  0  0  0  0  0  0  0  0
  -24.7698  -29.8877   19.7239 C   0  0  0  0  0  0  0  0  0  0  0  0
  -30.1597  -30.4705   20.3328 C   0  0  0  0  0  0  0  0  0  0  0  0
  -24.0800  -29.2608   20.7715 C   0  0  0  0  0  0  0  0  0  0  0  0
  -28.5519  -22.4919   18.0741 C   0  0  0  0  0  0  0  0  0  0  0  0
  -24.3458  -12.0130   20.7712 C   0  0  0  0  0  0  0  0  0  0  0  0
  -23.6487  -27.3522   19.3289 C   0  0  0  0  0  0  0  0  0  0  0  0
  -23.1042  -10.0231   20.9153 C   0  0  0  0  0  0  0  0  0  0  0  0
  -23.0518   -7.2478   21.1940 C   0  0  0  0  0  0  0  0  0  0  0  0
  -22.4377   -9.4430   21.9947 C   0  0  0  0  0  0  0  0  0  0  0  0
  -28.1234  -13.9177   20.7577 C   0  0  0  0  0  0  0  0  0  0  0  0
  -29.7123  -23.6753   19.7799 C   0  0  0  0  0  0  0  0  0  0  0  0
  -29.2380  -21.4501   20.0990 C   0  0  0  0  0  0  0  0  0  0  0  0
  -30.2216  -14.4572   20.3816 C   0  0  0  0  0  0  0  0  0  0  0  0
  -29.4739  -12.3919   19.1883 C   0  0  0  0  0  0  0  0  0  0  0  0
  -26.8451  -30.9013   21.9078 C   0  0  0  0  0  0  0  0  0  0  0  0
  -24.1849  -32.1269   23.3019 C   0  0  0  0  0  0  0  0  0  0  0  0
  -20.7970  -31.9977   23.6920 C   0  0  0  0  0  0  0  0  0  0  0  0
  -29.8704  -20.1503   22.1622 C   0  0  0  0  0  0  0  0  0  0  0  0
  -31.6575  -32.3903   21.0824 C   0  0  0  0  0  0  0  0  0  0  0  0
  -25.3508  -31.2626   19.9097 C   0  0  0  0  0  0  0  0  0  0  0  0
  -23.9217  -29.9138   22.1195 C   0  0  0  0  0  0  0  0  0  0  0  0
  -30.5712  -32.7235   22.1018 C   0  0  0  0  0  0  0  0  0  0  0  0
  -31.4516  -17.4712   23.8941 C   0  0  0  0  0  0  0  0  0  0  0  0
  -29.9608  -31.4456   22.6684 C   0  0  0  0  0  0  0  0  0  0  0  0
  -30.8871  -16.2194   23.2184 C   0  0  0  0  0  0  0  0  0  0  0  0
  -30.4024  -18.5755   24.0094 C   0  0  0  0  0  0  0  0  0  0  0  0
  -29.1680  -17.6775   22.0758 C   0  0  0  0  0  0  0  0  0  0  0  0
  -29.2930  -30.6166   21.5647 C   0  0  1  0  0  0  0  0  0  0  0  0
  -25.6288  -31.6013   21.3710 C   0  0  1  0  0  0  0  0  0  0  0  0
  -30.2061  -16.5608   21.8786 C   0  0  2  0  0  0  0  0  0  0  0  0
  -28.6209  -21.4846   15.7688 C   0  0  0  0  0  0  0  0  0  0  0  0
  -18.9125  -33.1040   24.9258 C   0  0  0  0  0  0  0  0  0  0  0  0
  -27.4199  -25.2078   24.4524 C   0  0  0  0  0  0  0  0  0  0  0  0
  -26.6439  -26.3926   22.3897 C   0  0  0  0  0  0  0  0  0  0  0  0
  -25.0007  -30.6657   25.8532 C   0  0  0  0  0  0  0  0  0  0  0  0
  -22.6738  -31.0094   26.7110 C   0  0  0  0  0  0  0  0  0  0  0  0
  -24.1208  -32.9791   26.2118 C   0  0  0  0  0  0  0  0  0  0  0  0
  -19.4869  -32.8363   21.1742 C   0  0  0  0  0  0  0  0  0  0  0  0
  -30.3221  -24.9327   20.3035 C   0  0  0  0  0  0  0  0  0  0  0  0
  -29.3570  -25.8132   21.1193 C   0  0  0  0  0  0  0  0  0  0  0  0
  -28.8541  -25.1183   22.3912 C   0  0  0  0  0  0  0  0  0  0  0  0
  -23.5291  -23.8144   18.6245 C   0  0  0  0  0  0  0  0  0  0  0  0
  -24.1910  -22.7987   17.7055 C   0  0  0  0  0  0  0  0  0  0  0  0
  -26.3937  -22.0548   16.7925 C   0  0  0  0  0  0  0  0  0  0  0  0
  -23.7519  -25.2610   18.2009 C   0  0  0  0  0  0  0  0  0  1  0  0
  -27.8764  -22.4400   16.7089 C   0  0  1  0  0  0  0  0  0  0  0  0
  -23.1723  -31.6220   24.3012 C   0  0  1  0  0  0  0  0  0  0  0  0
  -19.7358  -33.0823   23.6473 C   0  0  2  0  0  0  0  0  0  0  0  0
  -27.8679  -25.9761   23.2065 C   0  0  0  0  0  0  0  0  0  0  0  0
  -23.7464  -31.5557   25.7446 C   0  0  0  0  0  0  0  0  0  0  0  0
  -28.3170  -15.0279   21.4747 N   0  0  0  0  0  0  0  0  0  0  0  0
  -29.7911  -22.5869   20.5779 N   0  0  0  0  0  0  0  0  0  0  0  0
  -29.6023  -15.3315   21.2255 N   0  0  0  0  0  0  0  0  0  0  0  0
  -24.5127  -31.2555   22.2536 N   0  0  0  0  0  0  0  0  0  0  0  0
  -29.8033  -18.8480   22.7011 N   0  0  0  0  0  0  0  0  0  0  0  0
  -31.5142  -14.6141   20.0254 N   0  0  0  0  0  0  0  0  0  0  0  0
  -28.3967  -11.5241   18.9625 N   0  0  0  0  0  0  0  0  0  0  0  0
  -29.2955  -20.2817   20.8986 N   0  0  0  0  0  0  0  0  0  0  0  0
  -28.0075  -31.1822   21.2154 N   0  0  0  0  0  0  0  0  0  0  0  0
  -22.0000  -32.4793   24.1632 N   0  0  0  0  0  0  0  0  0  0  0  0
  -18.8137  -32.8577   22.4983 N   0  3  0  0  0  0  0  0  0  0  0  0
  -25.6510  -23.0389   17.6277 N   0  3  0  0  0  0  0  0  0  0  0  0
  -30.5781  -12.1549   18.6424 O   0  0  0  0  0  0  0  0  0  0  0  0
  -26.7373  -30.1621   22.8793 O   0  0  0  0  0  0  0  0  0  0  0  0
  -24.6619  -33.2558   23.4421 O   0  0  0  0  0  0  0  0  0  0  0  0
  -20.5794  -30.8382   23.3472 O   0  0  0  0  0  0  0  0  0  0  0  0
  -30.4231  -21.0742   22.7647 O   0  0  0  0  0  0  0  0  0  0  0  0
  -23.1304  -11.4005   20.7751 O   0  0  0  0  0  0  0  0  0  0  0  0
  -23.1066  -26.1181   19.1418 O   0  0  0  0  0  0  0  0  0  1  0  0
  -23.0255   -5.9152   21.3269 F   0  0  0  0  0  0  0  0  0  0  0  0
  -21.8198  -10.2136   22.9003 F   0  0  0  0  0  0  0  0  0  0  0  0
  1  2  1  0  0  0  0
  1  5  2  0  0  0  0
  2  6  2  0  0  0  0
  3  8  2  0  0  0  0
  3 17  1  0  0  0  0
  4  9  1  0  0  0  0
  4 17  2  0  0  0  0
  5 19  1  0  0  0  0
  6 21  1  0  0  0  0
  7 10  2  0  0  0  0
  7 20  1  0  0  0  0
  8 24  1  0  0  0  0
  9 24  2  0  0  0  0
 10 25  1  0  0  0  0
 11 12  2  0  0  0  0
 11 26  1  0  0  0  0
 12 27  1  0  0  0  0
 13 22  1  0  0  0  0
 13 25  2  0  0  0  0
 14 23  1  0  0  0  0
 14 30  2  0  0  0  0
 15 23  2  0  0  0  0
 15 31  1  0  0  0  0
 16 27  2  0  0  0  0
 16 28  1  0  0  0  0
 17 29  1  0  0  0  0
 18 29  1  0  0  0  0
 18 32  2  0  0  0  0
 18 33  1  0  0  0  0
 19 21  2  0  0  0  0
 19 38  1  0  0  0  0
 20 22  2  0  0  0  0
 20 39  1  0  0  0  0
 21 47  1  0  0  0  0
 22 40  1  0  0  0  0
 23 65  1  0  0  0  0
 24 87  1  0  0  0  0
 25 88  1  0  0  0  0
 26 28  2  0  0  0  0
 26 87  1  0  0  0  0
 27 89  1  0  0  0  0
 28 90  1  0  0  0  0
 29 70  2  0  0  0  0
 30 58  1  0  0  0  0
 30 71  1  0  0  0  0
 31 71  2  0  0  0  0
 31 77  1  0  0  0  0
 32 72  1  0  0  0  0
 32 75  1  0  0  0  0
 33 76  1  0  0  0  0
 33 82  2  0  0  0  0
 34 48  1  0  0  0  0
 34 78  1  0  0  0  0
 34 83  2  0  0  0  0
 35 66  1  0  0  0  0
 35 73  1  0  0  0  0
 35 84  2  0  0  0  0
 36 67  1  0  0  0  0
 36 79  1  0  0  0  0
 36 85  2  0  0  0  0
 37 74  1  0  0  0  0
 37 77  1  0  0  0  0
 37 86  2  0  0  0  0
 38 41  1  0  0  0  0
 39 48  1  0  0  0  0
 40 73  1  0  0  0  0
 41 43  1  0  0  0  0
 42 44  1  0  0  0  0
 42 45  1  0  0  0  0
 43 47  1  0  0  0  0
 44 49  1  0  0  0  0
 45 74  1  0  0  0  0
 46 49  1  0  0  0  0
 46 74  1  0  0  0  0
 47 78  1  0  0  0  0
 48 73  1  0  0  0  0
 49 72  1  0  0  0  0
 50 65  1  0  0  0  0
 51 67  1  0  0  0  0
 52 68  1  0  0  0  0
 53 68  1  0  0  0  0
 54 69  1  0  0  0  0
 55 69  1  0  0  0  0
 56 69  1  0  0  0  0
 57 80  1  0  0  0  0
 58 59  1  0  0  0  0
 59 60  1  0  0  0  0
 60 68  1  0  0  0  0
 61 62  1  0  0  0  0
 61 64  1  0  0  0  0
 62 81  1  0  0  0  0
 63 65  1  0  0  0  0
 63 81  1  0  0  0  0
 64 88  1  0  0  0  0
 66 69  1  0  0  0  0
 66 79  1  0  0  0  0
 67 80  1  0  0  0  0
 70 72  1  0  0  0  0
M  CHG  2  80   1  81   1
M  ISO  4  37 100  64 101  77 100  88 101
M  END
> <Batch ID>
0096

> <Smiles>
CNC(C)C(=O)NC(C(=O)N1Cc2cc([101O:1][101CH2:1]CCNCC(C)c3cc(CCCC(C)C)nc([100NH:0][100C:0](=O)N4CCCC(n5nc(-c6ccc(Oc7ccc(F)cc7F)cc6)c(C(N)=O)c5N)C4)c3)ccc2CC1C(=O)NC1CCCc2ccccc21)C(C)(C)C

> <Shape>
0.276

> <Color>
0.062

> <Negative vol penalty>
0.000

$$$$

  -OEChem-04052319243D

 89 97  0     1  0  0  0  0  0999 V2000
  -26.2766  -26.7816   28.0320 C   0  0  0  0  0  0  0  0  0  0  0  0
  -25.6376  -26.6732   26.8010 C   0  0  0  0  0  0  0  0  0  0  0  0
  -30.4199  -18.8748   21.0758 C   0  0  0  0  0  0  0  0  0  0  0  0
  -28.3061  -18.3142   20.0487 C   0  0  0  0  0  0  0  0  0  0  0  0
  -26.4295  -28.0323   28.6290 C   0  0  0  0  0  0  0  0  0  0  0  0
  -25.1502  -27.8154   26.1667 C   0  0  0  0  0  0  0  0  0  0  0  0
  -26.2656  -27.9205   21.2281 C   0  0  0  0  0  0  0  0  0  0  0  0
  -30.9416  -17.6454   20.6731 C   0  0  0  0  0  0  0  0  0  0  0  0
  -28.8278  -17.0849   19.6460 C   0  0  0  0  0  0  0  0  0  0  0  0
  -25.4893  -27.1287   20.3830 C   0  0  0  0  0  0  0  0  0  0  0  0
  -29.4894  -13.6501   18.6590 C   0  0  0  0  0  0  0  0  0  0  0  0
  -28.6984  -12.5169   18.8479 C   0  0  0  0  0  0  0  0  0  0  0  0
  -24.2024  -29.0704   19.7559 C   0  0  0  0  0  0  0  0  0  0  0  0
  -20.8119  -23.0165   19.4700 C   0  0  0  0  0  0  0  0  0  0  0  0
  -21.3228  -25.0576   20.6574 C   0  0  0  0  0  0  0  0  0  0  0  0
  -28.6677  -12.9350   21.2273 C   0  0  0  0  0  0  0  0  0  0  0  0
  -29.1022  -19.2092   20.7636 C   0  0  0  0  0  0  0  0  0  0  0  0
  -28.5894  -21.6899   20.4630 C   0  0  0  0  0  0  0  0  0  0  0  0
  -25.9523  -29.1915   27.9971 C   0  0  0  0  0  0  0  0  0  0  0  0
  -26.0087  -29.2935   21.3519 C   0  0  0  0  0  0  0  0  0  0  0  0
  -25.2957  -29.0826   26.7564 C   0  0  0  0  0  0  0  0  0  0  0  0
  -24.9785  -29.8778   20.6013 C   0  0  0  0  0  0  0  0  0  0  0  0
  -21.2327  -24.3463   19.4608 C   0  0  0  0  0  0  0  0  0  0  0  0
  -20.4810  -22.3980   20.6756 C   0  0  0  0  0  0  0  0  0  0  0  0
  -20.9920  -24.4390   21.8630 C   0  0  0  0  0  0  0  0  0  0  0  0
  -20.5711  -23.1092   21.8721 C   0  0  0  0  0  0  0  0  0  0  0  0
  -30.1456  -16.7505   19.9582 C   0  0  0  0  0  0  0  0  0  0  0  0
  -24.4556  -27.7031   19.6489 C   0  0  0  0  0  0  0  0  0  0  0  0
  -29.8697  -14.4257   19.7542 C   0  0  0  0  0  0  0  0  0  0  0  0
  -28.2875  -12.1594   20.1320 C   0  0  0  0  0  0  0  0  0  0  0  0
  -29.4588  -14.0682   21.0383 C   0  0  0  0  0  0  0  0  0  0  0  0
  -28.5625  -20.4787   21.1798 C   0  0  0  0  0  0  0  0  0  0  0  0
  -27.9517  -22.5885   21.2831 C   0  0  0  0  0  0  0  0  0  0  0  0
  -29.1413  -21.9772   19.1713 C   0  0  0  0  0  0  0  0  0  0  0  0
  -25.1418  -31.2072   23.7373 C   0  0  0  0  0  0  0  0  0  0  0  0
  -25.6186  -33.5332   21.5271 C   0  0  0  0  0  0  0  0  0  0  0  0
  -25.7733  -34.4119   18.2331 C   0  0  0  0  0  0  0  0  0  0  0  0
  -23.7539  -23.9200   24.7110 C   0  0  0  0  0  0  0  0  0  0  0  0
  -26.0989  -30.5159   28.7035 C   0  0  0  0  0  0  0  0  0  0  0  0
  -26.8724  -30.1387   22.2475 C   0  0  0  0  0  0  0  0  0  0  0  0
  -24.6750  -31.3508   20.6831 C   0  0  0  0  0  0  0  0  0  0  0  0
  -25.8865  -31.7203   27.7899 C   0  0  0  0  0  0  0  0  0  0  0  0
  -26.5317  -22.1968   26.1221 C   0  0  0  0  0  0  0  0  0  0  0  0
  -24.6379  -31.5282   26.9349 C   0  0  0  0  0  0  0  0  0  0  0  0
  -27.3059  -21.6911   24.9036 C   0  0  0  0  0  0  0  0  0  0  0  0
  -25.0229  -22.1500   25.8914 C   0  0  0  0  0  0  0  0  0  0  0  0
  -25.3353  -22.3341   23.4537 C   0  0  0  0  0  0  0  0  0  0  0  0
  -24.7755  -30.3013   26.0255 C   0  0  1  0  0  0  0  0  0  0  0  0
  -26.1922  -31.4318   22.6866 C   0  0  1  0  0  0  0  0  0  0  0  0
  -26.8626  -22.4147   23.6178 C   0  0  2  0  0  0  0  0  0  0  0  0
  -20.2167  -22.4456   23.1647 C   0  0  0  0  0  0  0  0  0  0  0  0
  -17.7794  -27.3072   23.2051 C   0  0  0  0  0  0  0  0  0  0  0  0
  -26.1432  -36.3932   16.7381 C   0  0  0  0  0  0  0  0  0  0  0  0
  -22.7953  -34.5170   22.1364 C   0  0  0  0  0  0  0  0  0  0  0  0
  -22.8721  -35.8384   20.0113 C   0  0  0  0  0  0  0  0  0  0  0  0
  -24.4917  -36.3311   21.8434 C   0  0  0  0  0  0  0  0  0  0  0  0
  -28.1666  -33.1819   17.0011 C   0  0  0  0  0  0  0  0  0  0  0  0
  -21.5897  -25.0152   18.1575 C   0  0  0  0  0  0  0  0  0  0  0  0
  -20.0341  -20.9726   20.6582 C   0  0  0  0  0  0  0  0  0  0  0  0
  -18.6738  -26.0817   23.0955 C   0  0  0  0  0  0  0  0  0  0  0  0
  -23.0639  -24.8697   17.7740 C   0  0  0  0  0  0  0  0  0  0  0  0
  -20.1565  -26.4639   23.1712 C   0  0  0  0  0  0  0  0  0  0  0  0
  -22.5627  -25.6522   23.3921 C   0  0  0  0  0  0  0  0  0  0  0  0
  -18.6014  -20.7736   20.1645 C   0  0  0  0  0  0  0  0  0  0  0  0
  -24.0132  -25.5426   18.7586 C   0  0  0  0  0  0  0  0  0  1  0  0
  -21.0970  -25.2225   23.1307 C   0  0  2  0  0  0  0  0  0  0  0  0
  -24.7596  -34.2134   20.4886 C   0  0  1  0  0  0  0  0  0  0  0  0
  -26.7948  -35.2196   17.4529 C   0  0  2  0  0  0  0  0  0  0  0  0
  -23.7339  -35.1968   21.1196 C   0  0  0  0  0  0  0  0  0  0  0  0
  -27.9559  -20.5938   22.3643 N   0  0  0  0  0  0  0  0  0  0  0  0
  -27.5958  -21.8881   22.3980 N   0  0  0  0  0  0  0  0  0  0  0  0
  -25.5434  -32.1340   21.5775 N   0  0  0  0  0  0  0  0  0  0  0  0
  -24.6686  -22.8554   24.6574 N   0  0  0  0  0  0  0  0  0  0  0  0
  -27.6664  -23.9014   21.1520 N   0  0  0  0  0  0  0  0  0  0  0  0
  -29.7615  -20.9384   18.4637 N   0  0  0  0  0  0  0  0  0  0  0  0
  -25.6163  -30.6070   24.8879 N   0  0  0  0  0  0  0  0  0  0  0  0
  -25.6792  -34.8352   19.5419 N   0  0  0  0  0  0  0  0  0  0  0  0
  -23.4784  -24.5381   23.4975 N   0  0  0  0  0  0  0  0  0  0  0  0
  -18.2662  -19.3287   20.1265 N   0  3  0  0  0  0  0  0  0  0  0  0
  -27.4647  -34.3623   16.4346 N   0  3  0  0  0  0  0  0  0  0  0  0
  -29.1007  -23.1250   18.6668 O   0  0  0  0  0  0  0  0  0  0  0  0
  -23.9867  -31.5542   23.5206 O   0  0  0  0  0  0  0  0  0  0  0  0
  -26.3353  -34.2176   22.2616 O   0  0  0  0  0  0  0  0  0  0  0  0
  -25.1212  -33.4993   17.7305 O   0  0  0  0  0  0  0  0  0  0  0  0
  -23.2262  -24.2955   25.7634 O   0  0  0  0  0  0  0  0  0  0  0  0
  -30.6544  -15.5509   19.5648 O   0  0  0  0  0  0  0  0  0  0  0  0
  -23.6959  -26.9324   18.8238 O   0  0  0  0  0  0  0  0  0  1  0  0
  -27.5266  -11.0720   20.3132 F   0  0  0  0  0  0  0  0  0  0  0  0
  -29.8200  -14.8102   22.0942 F   0  0  0  0  0  0  0  0  0  0  0  0
  1  2  1  0  0  0  0
  1  5  2  0  0  0  0
  2  6  2  0  0  0  0
  3  8  2  0  0  0  0
  3 17  1  0  0  0  0
  4  9  1  0  0  0  0
  4 17  2  0  0  0  0
  5 19  1  0  0  0  0
  6 21  1  0  0  0  0
  7 10  2  0  0  0  0
  7 20  1  0  0  0  0
  8 27  1  0  0  0  0
  9 27  2  0  0  0  0
 10 28  1  0  0  0  0
 11 12  2  0  0  0  0
 11 29  1  0  0  0  0
 12 30  1  0  0  0  0
 13 22  1  0  0  0  0
 13 28  2  0  0  0  0
 14 23  1  0  0  0  0
 14 24  2  0  0  0  0
 15 23  2  0  0  0  0
 15 25  1  0  0  0  0
 16 30  2  0  0  0  0
 16 31  1  0  0  0  0
 17 32  1  0  0  0  0
 18 32  1  0  0  0  0
 18 33  2  0  0  0  0
 18 34  1  0  0  0  0
 19 21  2  0  0  0  0
 19 39  1  0  0  0  0
 20 22  2  0  0  0  0
 20 40  1  0  0  0  0
 21 48  1  0  0  0  0
 22 41  1  0  0  0  0
 23 58  1  0  0  0  0
 24 26  1  0  0  0  0
 24 59  1  0  0  0  0
 25 26  2  0  0  0  0
 25 66  1  0  0  0  0
 26 51  1  0  0  0  0
 27 86  1  0  0  0  0
 28 87  1  0  0  0  0
 29 31  2  0  0  0  0
 29 86  1  0  0  0  0
 30 88  1  0  0  0  0
 31 89  1  0  0  0  0
 32 70  2  0  0  0  0
 33 71  1  0  0  0  0
 33 74  1  0  0  0  0
 34 75  1  0  0  0  0
 34 81  2  0  0  0  0
 35 49  1  0  0  0  0
 35 76  1  0  0  0  0
 35 82  2  0  0  0  0
 36 67  1  0  0  0  0
 36 72  1  0  0  0  0
 36 83  2  0  0  0  0
 37 68  1  0  0  0  0
 37 77  1  0  0  0  0
 37 84  2  0  0  0  0
 38 73  1  0  0  0  0
 38 78  1  0  0  0  0
 38 85  2  0  0  0  0
 39 42  1  0  0  0  0
 40 49  1  0  0  0  0
 41 72  1  0  0  0  0
 42 44  1  0  0  0  0
 43 45  1  0  0  0  0
 43 46  1  0  0  0  0
 44 48  1  0  0  0  0
 45 50  1  0  0  0  0
 46 73  1  0  0  0  0
 47 50  1  0  0  0  0
 47 73  1  0  0  0  0
 48 76  1  0  0  0  0
 49 72  1  0  0  0  0
 50 71  1  0  0  0  0
 52 60  1  0  0  0  0
 53 68  1  0  0  0  0
 54 69  1  0  0  0  0
 55 69  1  0  0  0  0
 56 69  1  0  0  0  0
 57 80  1  0  0  0  0
 58 61  1  0  0  0  0
 59 64  1  0  0  0  0
 60 62  1  0  0  0  0
 61 65  1  0  0  0  0
 62 66  1  0  0  0  0
 63 66  1  0  0  0  0
 63 78  1  0  0  0  0
 64 79  1  0  0  0  0
 65 87  1  0  0  0  0
 67 69  1  0  0  0  0
 67 77  1  0  0  0  0
 68 80  1  0  0  0  0
 70 71  1  0  0  0  0
M  CHG  2  79   1  80   1
M  ISO  4  38 100  65 101  78 100  87 101
M  END
> <Batch ID>
0096

> <Smiles>
CCCC(C[100NH:0][100C:0](=O)N1CCCC(n2nc(-c3ccc(Oc4ccc(F)cc4F)cc3)c(C(N)=O)c2N)C1)c1cc(CC[101CH2:1][101O:1]c2ccc3c(c2)CN(C(=O)C(NC(=O)C(C)NC)C(C)(C)C)C(C(=O)NC2CCCc4ccccc42)C3)cc(CCN)c1C

> <Shape>
0.222

> <Color>
0.065

> <Negative vol penalty>
0.000

$$$$

  -OEChem-04052319243D

 86 94  0     1  0  0  0  0  0999 V2000
  -23.7059  -37.6867   22.5523 C   0  0  0  0  0  0  0  0  0  0  0  0
  -24.4790  -36.9461   21.6639 C   0  0  0  0  0  0  0  0  0  0  0  0
  -26.8416  -13.9059   20.2581 C   0  0  0  0  0  0  0  0  0  0  0  0
  -24.4711  -14.3168   20.4794 C   0  0  0  0  0  0  0  0  0  0  0  0
  -23.3231  -37.1309   23.7723 C   0  0  0  0  0  0  0  0  0  0  0  0
  -24.8708  -35.6496   21.9955 C   0  0  0  0  0  0  0  0  0  0  0  0
  -26.2137  -29.2840   18.9969 C   0  0  0  0  0  0  0  0  0  0  0  0
  -26.6856  -12.6690   20.8836 C   0  0  0  0  0  0  0  0  0  0  0  0
  -24.3151  -13.0799   21.1049 C   0  0  0  0  0  0  0  0  0  0  0  0
  -27.2030  -28.3028   18.9499 C   0  0  0  0  0  0  0  0  0  0  0  0
  -23.2348   -9.8739   22.4362 C   0  0  0  0  0  0  0  0  0  0  0  0
  -22.1675   -9.0719   22.0321 C   0  0  0  0  0  0  0  0  0  0  0  0
  -26.4164  -27.4173   21.0513 C   0  0  0  0  0  0  0  0  0  0  0  0
  -26.2630  -21.5444   14.7210 C   0  0  0  0  0  0  0  0  0  0  0  0
  -23.0512   -9.0289   19.7839 C   0  0  0  0  0  0  0  0  0  0  0  0
  -25.7343  -14.7299   20.0560 C   0  0  0  0  0  0  0  0  0  0  0  0
  -25.8132  -16.2801   18.0316 C   0  0  0  0  0  0  0  0  0  0  0  0
  -23.7023  -35.8234   24.1150 C   0  0  0  0  0  0  0  0  0  0  0  0
  -25.3236  -29.3460   20.0788 C   0  0  0  0  0  0  0  0  0  0  0  0
  -24.4938  -35.0763   23.2219 C   0  0  0  0  0  0  0  0  0  0  0  0
  -25.4150  -28.3986   21.1085 C   0  0  0  0  0  0  0  0  0  0  0  0
  -25.0325  -21.7889   14.0628 C   0  0  0  0  0  0  0  0  0  0  0  0
  -25.4223  -12.2560   21.3070 C   0  0  0  0  0  0  0  0  0  0  0  0
  -27.3064  -27.3710   19.9786 C   0  0  0  0  0  0  0  0  0  0  0  0
  -24.2103  -10.2534   21.5142 C   0  0  0  0  0  0  0  0  0  0  0  0
  -22.0757   -8.6494   20.7059 C   0  0  0  0  0  0  0  0  0  0  0  0
  -24.1185   -9.8309   20.1881 C   0  0  0  0  0  0  0  0  0  0  0  0
  -25.8949  -16.0079   19.4104 C   0  0  0  0  0  0  0  0  0  0  0  0
  -26.3513  -22.4317   15.7709 C   0  0  0  0  0  0  0  0  0  0  0  0
  -24.4064  -22.8183   14.7304 C   0  0  0  0  0  0  0  0  0  0  0  0
  -26.0376  -17.6317   17.9345 C   0  0  0  0  0  0  0  0  0  0  0  0
  -25.5572  -15.3907   16.9365 C   0  0  0  0  0  0  0  0  0  0  0  0
  -24.6736  -31.4955   22.3284 C   0  0  0  0  0  0  0  0  0  0  0  0
  -22.2998  -29.4165   23.0804 C   0  0  0  0  0  0  0  0  0  0  0  0
  -21.1127  -26.2182   22.9883 C   0  0  0  0  0  0  0  0  0  0  0  0
  -25.1649  -22.8498   19.7106 C   0  0  0  0  0  0  0  0  0  0  0  0
  -23.3042  -35.2825   25.4654 C   0  0  0  0  0  0  0  0  0  0  0  0
  -24.2450  -30.3941   20.1015 C   0  0  0  0  0  0  0  0  0  0  0  0
  -24.4710  -28.4095   22.2821 C   0  0  0  0  0  0  0  0  0  0  0  0
  -23.4458  -33.7669   25.5803 C   0  0  0  0  0  0  0  0  0  0  0  0
  -27.6729  -20.9534   21.3810 C   0  0  0  0  0  0  0  0  0  0  0  0
  -24.7915  -33.3128   25.0239 C   0  0  0  0  0  0  0  0  0  0  0  0
  -27.4231  -19.5202   20.9084 C   0  0  0  0  0  0  0  0  0  0  0  0
  -26.3668  -21.7240   21.5610 C   0  0  0  0  0  0  0  0  0  0  0  0
  -25.2301  -20.2901   19.9101 C   0  0  0  0  0  0  0  0  0  0  0  0
  -24.9177  -33.6577   23.5350 C   0  0  1  0  0  0  0  0  0  0  0  0
  -23.7183  -30.6791   21.5046 C   0  0  1  0  0  0  0  0  0  0  0  0
  -26.5203  -19.4905   19.6605 C   0  0  2  0  0  0  0  0  0  0  0  0
  -24.5221  -21.0679   12.8798 C   0  0  0  0  0  0  0  0  0  0  0  0
  -23.1051  -23.4703   14.4703 C   0  0  0  0  0  0  0  0  0  0  0  0
  -19.1613  -24.8195   23.7187 C   0  0  0  0  0  0  0  0  0  0  0  0
  -30.3868  -22.5754   17.7199 C   0  0  0  0  0  0  0  0  0  0  0  0
  -23.3609  -29.4342   25.9411 C   0  0  0  0  0  0  0  0  0  0  0  0
  -22.0243  -27.3622   26.3756 C   0  0  0  0  0  0  0  0  0  0  0  0
  -20.8676  -29.4828   25.7529 C   0  0  0  0  0  0  0  0  0  0  0  0
  -20.4311  -25.5048   20.1981 C   0  0  0  0  0  0  0  0  0  0  0  0
  -27.4438  -22.6109   16.7955 C   0  0  0  0  0  0  0  0  0  0  0  0
  -28.5300  -23.6138   16.3824 C   0  0  0  0  0  0  0  0  0  0  0  0
  -29.1113  -24.5095   18.7454 C   0  0  0  0  0  0  0  0  0  0  0  0
  -24.9220  -24.2570   16.7126 C   0  0  0  0  0  0  0  0  0  0  0  0
  -23.9317  -23.8301   17.7929 C   0  0  0  0  0  0  0  0  0  0  0  0
  -28.6917  -25.9716   18.6450 C   0  0  0  0  0  0  0  0  0  1  0  0
  -22.1750  -28.2216   23.9945 C   0  0  1  0  0  0  0  0  0  0  0  0
  -19.7568  -25.6579   22.5982 C   0  0  2  0  0  0  0  0  0  0  0  0
  -29.6248  -23.8759   17.4386 C   0  0  1  0  0  0  0  0  0  0  0  0
  -22.1261  -28.6259   25.4950 C   0  0  0  0  0  0  0  0  0  0  0  0
  -26.1514  -17.0989   20.1370 N   0  0  0  0  0  0  0  0  0  0  0  0
  -25.2173  -23.2013   15.7667 N   0  0  0  0  0  0  0  0  0  0  0  0
  -26.2328  -18.0698   19.2113 N   0  0  0  0  0  0  0  0  0  0  0  0
  -23.4374  -29.4577   22.2618 N   0  0  0  0  0  0  0  0  0  0  0  0
  -25.5578  -21.6580   20.3416 N   0  0  0  0  0  0  0  0  0  0  0  0
  -26.0850  -18.4762   16.8824 N   0  0  0  0  0  0  0  0  0  0  0  0
  -25.3484  -14.0328   17.2134 N   0  0  0  0  0  0  0  0  0  0  0  0
  -24.1670  -32.7159   22.7327 N   0  0  0  0  0  0  0  0  0  0  0  0
  -21.0057  -27.4785   23.5375 N   0  0  0  0  0  0  0  0  0  0  0  0
  -24.4055  -22.6976   18.5569 N   0  0  0  0  0  0  0  0  0  0  0  0
  -19.8799  -24.8014   21.3849 N   0  3  0  0  0  0  0  0  0  0  0  0
  -25.5312  -15.7856   15.7462 O   0  0  0  0  0  0  0  0  0  0  0  0
  -25.7873  -31.0504   22.5799 O   0  0  0  0  0  0  0  0  0  0  0  0
  -21.4169  -30.2779   23.0870 O   0  0  0  0  0  0  0  0  0  0  0  0
  -22.1614  -25.5983   22.8258 O   0  0  0  0  0  0  0  0  0  0  0  0
  -25.4728  -23.9667   20.1403 O   0  0  0  0  0  0  0  0  0  0  0  0
  -25.2697  -11.0490   21.9172 O   0  0  0  0  0  0  0  0  0  0  0  0
  -28.2715  -26.4127   19.9354 O   0  0  0  0  0  0  0  0  0  1  0  0
  -21.0515   -7.8781   20.3183 F   0  0  0  0  0  0  0  0  0  0  0  0
  -25.0532  -10.1913   19.2980 F   0  0  0  0  0  0  0  0  0  0  0  0
  1  2  1  0  0  0  0
  1  5  2  0  0  0  0
  2  6  2  0  0  0  0
  3  8  2  0  0  0  0
  3 16  1  0  0  0  0
  4  9  1  0  0  0  0
  4 16  2  0  0  0  0
  5 18  1  0  0  0  0
  6 20  1  0  0  0  0
  7 10  2  0  0  0  0
  7 19  1  0  0  0  0
  8 23  1  0  0  0  0
  9 23  2  0  0  0  0
 10 24  1  0  0  0  0
 11 12  2  0  0  0  0
 11 25  1  0  0  0  0
 12 26  1  0  0  0  0
 13 21  1  0  0  0  0
 13 24  2  0  0  0  0
 14 22  1  0  0  0  0
 14 29  2  0  0  0  0
 15 26  2  0  0  0  0
 15 27  1  0  0  0  0
 16 28  1  0  0  0  0
 17 28  1  0  0  0  0
 17 31  2  0  0  0  0
 17 32  1  0  0  0  0
 18 20  2  0  0  0  0
 18 37  1  0  0  0  0
 19 21  2  0  0  0  0
 19 38  1  0  0  0  0
 20 46  1  0  0  0  0
 21 39  1  0  0  0  0
 22 30  2  0  0  0  0
 22 49  1  0  0  0  0
 23 83  1  0  0  0  0
 24 84  1  0  0  0  0
 25 27  2  0  0  0  0
 25 83  1  0  0  0  0
 26 85  1  0  0  0  0
 27 86  1  0  0  0  0
 28 67  2  0  0  0  0
 29 57  1  0  0  0  0
 29 68  1  0  0  0  0
 30 50  1  0  0  0  0
 30 68  1  0  0  0  0
 31 69  1  0  0  0  0
 31 72  1  0  0  0  0
 32 73  1  0  0  0  0
 32 78  2  0  0  0  0
 33 47  1  0  0  0  0
 33 74  1  0  0  0  0
 33 79  2  0  0  0  0
 34 63  1  0  0  0  0
 34 70  1  0  0  0  0
 34 80  2  0  0  0  0
 35 64  1  0  0  0  0
 35 75  1  0  0  0  0
 35 81  2  0  0  0  0
 36 71  1  0  0  0  0
 36 76  1  0  0  0  0
 36 82  2  0  0  0  0
 37 40  1  0  0  0  0
 38 47  1  0  0  0  0
 39 70  1  0  0  0  0
 40 42  1  0  0  0  0
 41 43  1  0  0  0  0
 41 44  1  0  0  0  0
 42 46  1  0  0  0  0
 43 48  1  0  0  0  0
 44 71  1  0  0  0  0
 45 48  1  0  0  0  0
 45 71  1  0  0  0  0
 46 74  1  0  0  0  0
 47 70  1  0  0  0  0
 48 69  1  0  0  0  0
 51 64  1  0  0  0  0
 52 65  1  0  0  0  0
 53 66  1  0  0  0  0
 54 66  1  0  0  0  0
 55 66  1  0  0  0  0
 56 77  1  0  0  0  0
 57 58  1  0  0  0  0
 58 65  1  0  0  0  0
 59 62  1  0  0  0  0
 59 65  1  0  0  0  0
 60 61  1  0  0  0  0
 60 68  1  0  0  0  0
 61 76  1  0  0  0  0
 62 84  1  0  0  0  0
 63 66  1  0  0  0  0
 63 75  1  0  0  0  0
 64 77  1  0  0  0  0
 67 69  1  0  0  0  0
M  CHG  1  77   1
M  ISO  4  36 100  62 101  76 100  84 101
M  END
> <Batch ID>
0096

> <Smiles>
CNC(C)C(=O)NC(C(=O)N1Cc2cc([101O:1][101CH2:1]CC(C)CCc3cc(C)c(C)n3CC[100NH:0][100C:0](=O)N3CCCC(n4nc(-c5ccc(Oc6ccc(F)cc6F)cc5)c(C(N)=O)c4N)C3)ccc2CC1C(=O)NC1CCCc2ccccc21)C(C)(C)C

> <Shape>
0.247

> <Color>
0.073

> <Negative vol penalty>
0.000

$$$$

  -OEChem-04052319243D

 86 94  0     1  0  0  0  0  0999 V2000
  -25.7442  -33.3312   14.3498 C   0  0  0  0  0  0  0  0  0  0  0  0
  -26.2715  -32.0492   14.4678 C   0  0  0  0  0  0  0  0  0  0  0  0
  -23.9811   -9.6613   22.2443 C   0  0  0  0  0  0  0  0  0  0  0  0
  -23.6781   -9.4119   19.8604 C   0  0  0  0  0  0  0  0  0  0  0  0
  -25.6632  -34.1563   15.4708 C   0  0  0  0  0  0  0  0  0  0  0  0
  -26.7191  -31.5920   15.7068 C   0  0  0  0  0  0  0  0  0  0  0  0
  -26.3888  -25.8671   17.8568 C   0  0  0  0  0  0  0  0  0  0  0  0
  -22.9793   -8.7175   22.4704 C   0  0  0  0  0  0  0  0  0  0  0  0
  -22.6763   -8.4680   20.0865 C   0  0  0  0  0  0  0  0  0  0  0  0
  -27.3194  -24.8304   17.9112 C   0  0  0  0  0  0  0  0  0  0  0  0
  -22.6686   -5.3511   22.4081 C   0  0  0  0  0  0  0  0  0  0  0  0
  -22.9111   -4.3648   23.3640 C   0  0  0  0  0  0  0  0  0  0  0  0
  -27.8736  -25.4547   20.1744 C   0  0  0  0  0  0  0  0  0  0  0  0
  -20.9950   -5.1186   24.6280 C   0  0  0  0  0  0  0  0  0  0  0  0
  -31.4154  -19.1777   23.6277 C   0  0  0  0  0  0  0  0  0  0  0  0
  -24.3305  -10.0086   20.9393 C   0  0  0  0  0  0  0  0  0  0  0  0
  -26.7435  -10.7416   20.5549 C   0  0  0  0  0  0  0  0  0  0  0  0
  -26.1011  -33.7055   16.7260 C   0  0  0  0  0  0  0  0  0  0  0  0
  -26.2010  -26.7136   18.9589 C   0  0  0  0  0  0  0  0  0  0  0  0
  -26.6451  -32.4123   16.8453 C   0  0  0  0  0  0  0  0  0  0  0  0
  -26.9381  -26.4998   20.1324 C   0  0  0  0  0  0  0  0  0  0  0  0
  -30.5164  -18.6934   22.6912 C   0  0  0  0  0  0  0  0  0  0  0  0
  -30.0208  -16.9102   24.2272 C   0  0  0  0  0  0  0  0  0  0  0  0
  -29.8098  -17.5376   23.0044 C   0  0  0  0  0  0  0  0  0  0  0  0
  -22.3269   -8.1208   21.3915 C   0  0  0  0  0  0  0  0  0  0  0  0
  -28.0641  -24.6259   19.0691 C   0  0  0  0  0  0  0  0  0  0  0  0
  -21.5893   -6.2213   22.5621 C   0  0  0  0  0  0  0  0  0  0  0  0
  -22.0743   -4.2485   24.4740 C   0  0  0  0  0  0  0  0  0  0  0  0
  -20.7526   -6.1051   23.6721 C   0  0  0  0  0  0  0  0  0  0  0  0
  -25.3648  -10.9839   20.7050 C   0  0  0  0  0  0  0  0  0  0  0  0
  -30.9421  -17.4742   25.0948 C   0  0  0  0  0  0  0  0  0  0  0  0
  -27.2908  -11.9853   20.3544 C   0  0  0  0  0  0  0  0  0  0  0  0
  -27.4648   -9.5031   20.5933 C   0  0  0  0  0  0  0  0  0  0  0  0
  -26.5676  -29.8271   19.4841 C   0  0  0  0  0  0  0  0  0  0  0  0
  -25.2266  -29.1054   22.3483 C   0  0  0  0  0  0  0  0  0  0  0  0
  -24.5805  -26.7523   24.7341 C   0  0  0  0  0  0  0  0  0  0  0  0
  -27.5038  -17.3864   22.0799 C   0  0  0  0  0  0  0  0  0  0  0  0
  -26.0371  -34.6505   17.8997 C   0  0  0  0  0  0  0  0  0  0  0  0
  -25.1741  -27.8107   18.8937 C   0  0  0  0  0  0  0  0  0  0  0  0
  -26.7598  -27.3679   21.3502 C   0  0  0  0  0  0  0  0  0  0  0  0
  -26.1873  -33.9553   19.2504 C   0  0  0  0  0  0  0  0  0  0  0  0
  -25.1174  -16.4475   19.4278 C   0  0  0  0  0  0  0  0  0  0  0  0
  -27.3535  -32.9725   19.2181 C   0  0  0  0  0  0  0  0  0  0  0  0
  -25.0388  -14.9278   19.5629 C   0  0  0  0  0  0  0  0  0  0  0  0
  -25.4226  -17.1202   20.7628 C   0  0  0  0  0  0  0  0  0  0  0  0
  -26.5721  -15.0796   21.5657 C   0  0  0  0  0  0  0  0  0  0  0  0
  -27.1183  -31.8714   18.1771 C   0  0  1  0  0  0  0  0  0  0  0  0
  -25.4331  -28.9319   19.8954 C   0  0  1  0  0  0  0  0  0  0  0  0
  -26.3083  -14.3698   20.2291 C   0  0  1  0  0  0  0  0  0  0  0  0
  -29.2807  -15.6678   24.5969 C   0  0  0  0  0  0  0  0  0  0  0  0
  -32.9295  -16.4420   28.2396 C   0  0  0  0  0  0  0  0  0  0  0  0
  -23.4982  -26.4702   26.9805 C   0  0  0  0  0  0  0  0  0  0  0  0
  -27.6213  -30.4583   23.6692 C   0  0  0  0  0  0  0  0  0  0  0  0
  -26.9851  -29.3340   25.8138 C   0  0  0  0  0  0  0  0  0  0  0  0
  -25.4187  -30.9544   24.7446 C   0  0  0  0  0  0  0  0  0  0  0  0
  -29.3663  -16.2128   20.9296 C   0  0  0  0  0  0  0  0  0  0  0  0
  -22.6293  -24.7939   23.6773 C   0  0  0  0  0  0  0  0  0  0  0  0
  -30.3304  -19.4202   21.3831 C   0  0  0  0  0  0  0  0  0  0  0  0
  -31.2126  -16.8446   26.4224 C   0  0  0  0  0  0  0  0  0  0  0  0
  -32.6651  -17.0544   26.8733 C   0  0  0  0  0  0  0  0  0  0  0  0
  -29.8786  -20.8761   21.5425 C   0  0  0  0  0  0  0  0  0  0  0  0
  -29.6212  -21.5728   20.2056 C   0  0  0  0  0  0  0  0  0  0  0  0
  -29.2133  -23.0265   20.4022 C   0  0  0  0  0  0  0  0  0  1  0  0
  -25.7521  -28.6776   23.6973 C   0  0  1  0  0  0  0  0  0  0  0  0
  -23.3049  -26.3920   25.4741 C   0  0  2  0  0  0  0  0  0  0  0  0
  -26.4493  -29.8407   24.4578 C   0  0  0  0  0  0  0  0  0  0  0  0
  -31.6473  -18.5958   24.8258 N   0  0  0  0  0  0  0  0  0  0  0  0
  -25.0555  -12.2797   20.6083 N   0  0  0  0  0  0  0  0  0  0  0  0
  -26.2474  -12.8627   20.3953 N   0  0  0  0  0  0  0  0  0  0  0  0
  -25.7481  -28.4313   21.2349 N   0  0  0  0  0  0  0  0  0  0  0  0
  -26.6075  -16.5404   21.3963 N   0  0  0  0  0  0  0  0  0  0  0  0
  -28.5580  -12.4030   20.1489 N   0  0  0  0  0  0  0  0  0  0  0  0
  -26.7475   -8.3186   20.8092 N   0  0  0  0  0  0  0  0  0  0  0  0
  -26.1862  -30.8872   18.6842 N   0  0  0  0  0  0  0  0  0  0  0  0
  -24.6212  -28.0916   24.4087 N   0  0  0  0  0  0  0  0  0  0  0  0
  -28.8597  -16.9941   22.0626 N   0  0  0  0  0  0  0  0  0  0  0  0
  -22.8779  -25.0072   25.1263 N   0  3  0  0  0  0  0  0  0  0  0  0
  -28.7106   -9.4502   20.4570 O   0  0  0  0  0  0  0  0  0  0  0  0
  -27.7046  -29.5755   19.8657 O   0  0  0  0  0  0  0  0  0  0  0  0
  -24.3793  -29.9996   22.2852 O   0  0  0  0  0  0  0  0  0  0  0  0
  -25.4550  -25.9288   24.4742 O   0  0  0  0  0  0  0  0  0  0  0  0
  -27.1258  -18.4248   22.6354 O   0  0  0  0  0  0  0  0  0  0  0  0
  -21.3494   -7.1996   21.6118 O   0  0  0  0  0  0  0  0  0  0  0  0
  -28.9735  -23.6151   19.1246 O   0  0  0  0  0  0  0  0  0  1  0  0
  -22.3064   -3.3002   25.3911 F   0  0  0  0  0  0  0  0  0  0  0  0
  -19.7135   -6.9374   23.8249 F   0  0  0  0  0  0  0  0  0  0  0  0
  1  2  1  0  0  0  0
  1  5  2  0  0  0  0
  2  6  2  0  0  0  0
  3  8  2  0  0  0  0
  3 16  1  0  0  0  0
  4  9  1  0  0  0  0
  4 16  2  0  0  0  0
  5 18  1  0  0  0  0
  6 20  1  0  0  0  0
  7 10  2  0  0  0  0
  7 19  1  0  0  0  0
  8 25  1  0  0  0  0
  9 25  2  0  0  0  0
 10 26  1  0  0  0  0
 11 12  2  0  0  0  0
 11 27  1  0  0  0  0
 12 28  1  0  0  0  0
 13 21  1  0  0  0  0
 13 26  2  0  0  0  0
 14 28  2  0  0  0  0
 14 29  1  0  0  0  0
 15 22  1  0  0  0  0
 15 67  2  0  0  0  0
 16 30  1  0  0  0  0
 17 30  1  0  0  0  0
 17 32  2  0  0  0  0
 17 33  1  0  0  0  0
 18 20  2  0  0  0  0
 18 38  1  0  0  0  0
 19 21  2  0  0  0  0
 19 39  1  0  0  0  0
 20 47  1  0  0  0  0
 21 40  1  0  0  0  0
 22 24  2  0  0  0  0
 22 58  1  0  0  0  0
 23 24  1  0  0  0  0
 23 31  2  0  0  0  0
 23 50  1  0  0  0  0
 24 76  1  0  0  0  0
 25 83  1  0  0  0  0
 26 84  1  0  0  0  0
 27 29  2  0  0  0  0
 27 83  1  0  0  0  0
 28 85  1  0  0  0  0
 29 86  1  0  0  0  0
 30 68  2  0  0  0  0
 31 59  1  0  0  0  0
 31 67  1  0  0  0  0
 32 69  1  0  0  0  0
 32 72  1  0  0  0  0
 33 73  1  0  0  0  0
 33 78  2  0  0  0  0
 34 48  1  0  0  0  0
 34 74  1  0  0  0  0
 34 79  2  0  0  0  0
 35 64  1  0  0  0  0
 35 70  1  0  0  0  0
 35 80  2  0  0  0  0
 36 65  1  0  0  0  0
 36 75  1  0  0  0  0
 36 81  2  0  0  0  0
 37 71  1  0  0  0  0
 37 76  1  0  0  0  0
 37 82  2  0  0  0  0
 38 41  1  0  0  0  0
 39 48  1  0  0  0  0
 40 70  1  0  0  0  0
 41 43  1  0  0  0  0
 42 44  1  0  0  0  0
 42 45  1  0  0  0  0
 43 47  1  0  0  0  0
 44 49  1  0  0  0  0
 45 71  1  0  0  0  0
 46 49  1  0  0  0  0
 46 71  1  0  0  0  0
 47 74  1  0  0  0  0
 48 70  1  0  0  0  0
 49 69  1  0  0  0  0
 51 60  1  0  0  0  0
 52 65  1  0  0  0  0
 53 66  1  0  0  0  0
 54 66  1  0  0  0  0
 55 66  1  0  0  0  0
 56 76  1  0  0  0  0
 57 77  1  0  0  0  0
 58 61  1  0  0  0  0
 59 60  1  0  0  0  0
 61 62  1  0  0  0  0
 62 63  1  0  0  0  0
 63 84  1  0  0  0  0
 64 66  1  0  0  0  0
 64 75  1  0  0  0  0
 65 77  1  0  0  0  0
 68 69  1  0  0  0  0
M  CHG  1  77   1
M  ISO  4  37 100  63 101  76 100  84 101
M  END
> <Batch ID>
0096

> <Smiles>
CCCc1ncc(CCC[101CH2:1][101O:1]c2ccc3c(c2)CN(C(=O)C(NC(=O)C(C)NC)C(C)(C)C)C(C(=O)NC2CCCc4ccccc42)C3)c([100N:0](C)[100C:0](=O)N2CCCC(n3nc(-c4ccc(Oc5ccc(F)cc5F)cc4)c(C(N)=O)c3N)C2)c1C

> <Shape>
0.230

> <Color>
0.094

> <Negative vol penalty>
0.000

$$$$

  -OEChem-04052319243D

 81 89  0     1  0  0  0  0  0999 V2000
  -20.0691  -31.2298   22.8539 C   0  0  0  0  0  0  0  0  0  0  0  0
  -21.2040  -30.8265   22.1595 C   0  0  0  0  0  0  0  0  0  0  0  0
  -27.2310  -17.9334   19.9620 C   0  0  0  0  0  0  0  0  0  0  0  0
  -29.5705  -17.4104   19.6616 C   0  0  0  0  0  0  0  0  0  0  0  0
  -19.1122  -30.2875   23.2249 C   0  0  0  0  0  0  0  0  0  0  0  0
  -21.3766  -29.4828   21.8254 C   0  0  0  0  0  0  0  0  0  0  0  0
  -25.1911  -28.3736   18.9232 C   0  0  0  0  0  0  0  0  0  0  0  0
  -27.0024  -16.6403   20.4325 C   0  0  0  0  0  0  0  0  0  0  0  0
  -29.3419  -16.1174   20.1321 C   0  0  0  0  0  0  0  0  0  0  0  0
  -26.5122  -28.4118   19.3672 C   0  0  0  0  0  0  0  0  0  0  0  0
  -28.0786  -13.2182   18.9364 C   0  0  0  0  0  0  0  0  0  0  0  0
  -28.6522  -12.1608   18.2305 C   0  0  0  0  0  0  0  0  0  0  0  0
  -26.5256  -26.0041   19.5154 C   0  0  0  0  0  0  0  0  0  0  0  0
  -31.7746  -27.1844   18.5570 C   0  0  0  0  0  0  0  0  0  0  0  0
  -29.8808  -11.5085   20.2059 C   0  0  0  0  0  0  0  0  0  0  0  0
  -30.0468  -27.0695   16.9265 C   0  0  0  0  0  0  0  0  0  0  0  0
  -28.5151  -18.3184   19.5765 C   0  0  0  0  0  0  0  0  0  0  0  0
  -28.5310  -20.8613   19.7790 C   0  0  0  0  0  0  0  0  0  0  0  0
  -19.2800  -28.9300   22.9058 C   0  0  0  0  0  0  0  0  0  0  0  0
  -24.5228  -27.1489   18.7821 C   0  0  0  0  0  0  0  0  0  0  0  0
  -20.4105  -28.5203   22.1701 C   0  0  0  0  0  0  0  0  0  0  0  0
  -25.1970  -25.9529   19.0670 C   0  0  0  0  0  0  0  0  0  0  0  0
  -31.4006  -27.0973   17.2205 C   0  0  0  0  0  0  0  0  0  0  0  0
  -30.7972  -27.2403   19.5445 C   0  0  0  0  0  0  0  0  0  0  0  0
  -28.0578  -15.7323   20.5176 C   0  0  0  0  0  0  0  0  0  0  0  0
  -27.1787  -27.2271   19.6662 C   0  0  0  0  0  0  0  0  0  0  0  0
  -28.4061  -13.4208   20.2771 C   0  0  0  0  0  0  0  0  0  0  0  0
  -29.5533  -11.3059   18.8652 C   0  0  0  0  0  0  0  0  0  0  0  0
  -29.3072  -12.5659   20.9118 C   0  0  0  0  0  0  0  0  0  0  0  0
  -28.7518  -19.6538   19.0898 C   0  0  0  0  0  0  0  0  0  0  0  0
  -29.4704  -27.2062   19.1465 C   0  0  0  0  0  0  0  0  0  1  0  0
  -28.9094  -21.8379   18.8904 C   0  0  0  0  0  0  0  0  0  0  0  0
  -28.0289  -21.0806   21.1040 C   0  0  0  0  0  0  0  0  0  0  0  0
  -21.9519  -25.8308   20.1076 C   0  0  0  0  0  0  0  0  0  0  0  0
  -22.4956  -23.5024   17.9155 C   0  0  0  0  0  0  0  0  0  0  0  0
  -24.7171  -21.9054   15.8755 C   0  0  0  0  0  0  0  0  0  0  0  0
  -32.4819  -23.8570   15.1081 C   0  0  0  0  0  0  0  0  0  0  0  0
  -18.2092  -27.9538   23.3250 C   0  0  0  0  0  0  0  0  0  0  0  0
  -23.1064  -27.1231   18.2765 C   0  0  0  0  0  0  0  0  0  0  0  0
  -24.5308  -24.6109   18.9127 C   0  0  0  0  0  0  0  0  0  0  0  0
  -18.6892  -26.5061   23.3188 C   0  0  0  0  0  0  0  0  0  0  0  0
  -30.0183  -21.5555   13.9633 C   0  0  0  0  0  0  0  0  0  0  0  0
  -19.3810  -26.1935   22.0003 C   0  0  0  0  0  0  0  0  0  0  0  0
  -29.4559  -20.9511   15.2510 C   0  0  0  0  0  0  0  0  0  0  0  0
  -31.5177  -21.8232   14.0734 C   0  0  0  0  0  0  0  0  0  0  0  0
  -31.3551  -22.0340   16.5235 C   0  0  0  0  0  0  0  0  0  0  0  0
  -20.6345  -27.0596   21.8226 C   0  0  1  0  0  0  0  0  0  0  0  0
  -22.3578  -25.8507   18.6610 C   0  0  1  0  0  0  0  0  0  0  0  0
  -29.8356  -21.7982   16.4805 C   0  0  2  0  0  0  0  0  0  0  0  0
  -31.1862  -27.3355   20.9790 C   0  0  0  0  0  0  0  0  0  0  0  0
  -24.8755  -20.0157   14.2319 C   0  0  0  0  0  0  0  0  0  0  0  0
  -22.4593  -21.5002   20.2177 C   0  0  0  0  0  0  0  0  0  0  0  0
  -23.5420  -19.8345   18.6941 C   0  0  0  0  0  0  0  0  0  0  0  0
  -21.2797  -20.7338   18.1499 C   0  0  0  0  0  0  0  0  0  0  0  0
  -25.5199  -23.7253   13.6841 C   0  0  0  0  0  0  0  0  0  0  0  0
  -33.3882  -25.8434   16.2880 C   0  0  0  0  0  0  0  0  0  0  0  0
  -32.4220  -27.0358   16.1410 C   0  0  2  0  0  0  0  0  0  0  0  0
  -23.3030  -22.2271   17.8883 C   0  0  1  0  0  0  0  0  0  0  0  0
  -24.6348  -21.5063   14.4132 C   0  0  2  0  0  0  0  0  0  0  0  0
  -22.6582  -21.0991   18.7424 C   0  0  0  0  0  0  0  0  0  0  0  0
  -29.0686  -27.1220   17.8584 N   0  0  0  0  0  0  0  0  0  0  0  0
  -29.2329  -19.8435   17.8584 N   0  0  0  0  0  0  0  0  0  0  0  0
  -29.3175  -21.1816   17.7667 N   0  0  0  0  0  0  0  0  0  0  0  0
  -23.1433  -24.6384   18.4212 N   0  0  0  0  0  0  0  0  0  0  0  0
  -31.8104  -22.6325   15.2589 N   0  0  0  0  0  0  0  0  0  0  0  0
  -28.9293  -23.1855   18.9685 N   0  0  0  0  0  0  0  0  0  0  0  0
  -26.6459  -21.2252   21.2789 N   0  0  0  0  0  0  0  0  0  0  0  0
  -21.1413  -26.8864   20.4791 N   0  0  0  0  0  0  0  0  0  0  0  0
  -23.4784  -21.8850   16.4810 N   0  0  0  0  0  0  0  0  0  0  0  0
  -32.7141  -24.5641   16.2814 N   0  0  0  0  0  0  0  0  0  0  0  0
  -33.2542  -28.2886   16.0416 N   0  3  0  0  0  0  0  0  0  0  0  0
  -25.6529  -22.2472   13.6160 N   0  3  0  0  0  0  0  0  0  0  0  0
  -28.7857  -21.1627   22.1010 O   0  0  0  0  0  0  0  0  0  0  0  0
  -22.3439  -24.9240   20.8327 O   0  0  0  0  0  0  0  0  0  0  0  0
  -21.3354  -23.4926   17.4966 O   0  0  0  0  0  0  0  0  0  0  0  0
  -25.7749  -22.2018   16.4266 O   0  0  0  0  0  0  0  0  0  0  0  0
  -32.8425  -24.2907   14.0086 O   0  0  0  0  0  0  0  0  0  0  0  0
  -27.8351  -14.4706   20.9769 O   0  0  0  0  0  0  0  0  0  0  0  0
  -28.4679  -27.2616   20.1004 O   0  0  0  0  0  0  0  0  0  1  0  0
  -30.1029  -10.2896   18.1875 F   0  0  0  0  0  0  0  0  0  0  0  0
  -29.6248  -12.7548   22.1999 F   0  0  0  0  0  0  0  0  0  0  0  0
  1  2  1  0  0  0  0
  1  5  2  0  0  0  0
  2  6  2  0  0  0  0
  3  8  2  0  0  0  0
  3 17  1  0  0  0  0
  4  9  1  0  0  0  0
  4 17  2  0  0  0  0
  5 19  1  0  0  0  0
  6 21  1  0  0  0  0
  7 10  2  0  0  0  0
  7 20  1  0  0  0  0
  8 25  1  0  0  0  0
  9 25  2  0  0  0  0
 10 26  1  0  0  0  0
 11 12  2  0  0  0  0
 11 27  1  0  0  0  0
 12 28  1  0  0  0  0
 13 22  1  0  0  0  0
 13 26  2  0  0  0  0
 14 23  2  0  0  0  0
 14 24  1  0  0  0  0
 15 28  2  0  0  0  0
 15 29  1  0  0  0  0
 16 23  1  0  0  0  0
 16 61  2  0  0  0  0
 17 30  1  0  0  0  0
 18 30  1  0  0  0  0
 18 32  2  0  0  0  0
 18 33  1  0  0  0  0
 19 21  2  0  0  0  0
 19 38  1  0  0  0  0
 20 22  2  0  0  0  0
 20 39  1  0  0  0  0
 21 47  1  0  0  0  0
 22 40  1  0  0  0  0
 23 57  1  0  0  0  0
 24 31  2  0  0  0  0
 24 50  1  0  0  0  0
 25 78  1  0  0  0  0
 26 79  1  0  0  0  0
 27 29  2  0  0  0  0
 27 78  1  0  0  0  0
 28 80  1  0  0  0  0
 29 81  1  0  0  0  0
 30 62  2  0  0  0  0
 31 61  1  0  0  0  0
 31 79  1  0  0  0  0
 32 63  1  0  0  0  0
 32 66  1  0  0  0  0
 33 67  1  0  0  0  0
 33 73  2  0  0  0  0
 34 48  1  0  0  0  0
 34 68  1  0  0  0  0
 34 74  2  0  0  0  0
 35 58  1  0  0  0  0
 35 64  1  0  0  0  0
 35 75  2  0  0  0  0
 36 59  1  0  0  0  0
 36 69  1  0  0  0  0
 36 76  2  0  0  0  0
 37 65  1  0  0  0  0
 37 70  1  0  0  0  0
 37 77  2  0  0  0  0
 38 41  1  0  0  0  0
 39 48  1  0  0  0  0
 40 64  1  0  0  0  0
 41 43  1  0  0  0  0
 42 44  1  0  0  0  0
 42 45  1  0  0  0  0
 43 47  1  0  0  0  0
 44 49  1  0  0  0  0
 45 65  1  0  0  0  0
 46 49  1  0  0  0  0
 46 65  1  0  0  0  0
 47 68  1  0  0  0  0
 48 64  1  0  0  0  0
 49 63  1  0  0  0  0
 51 59  1  0  0  0  0
 52 60  1  0  0  0  0
 53 60  1  0  0  0  0
 54 60  1  0  0  0  0
 55 72  1  0  0  0  0
 56 57  1  0  0  0  0
 56 70  1  0  0  0  0
 57 71  1  0  0  0  0
 58 60  1  0  0  0  0
 58 69  1  0  0  0  0
 59 72  1  0  0  0  0
 62 63  1  0  0  0  0
M  CHG  2  71   1  72   1
M  ISO  4  31 101  37 100  70 100  79 101
M  END
> <Batch ID>
0096

> <Smiles>
CNC(C)C(=O)NC(C(=O)N1Cc2cc([101O:1][101c:1]3ncc(C(N)C[100NH:0][100C:0](=O)N4CCCC(n5nc(-c6ccc(Oc7ccc(F)cc7F)cc6)c(C(N)=O)c5N)C4)cc3C)ccc2CC1C(=O)NC1CCCc2ccccc21)C(C)(C)C

> <Shape>
0.219

> <Color>
0.069

> <Negative vol penalty>
0.000

$$$$

  -OEChem-04052319243D

 85 93  0     1  0  0  0  0  0999 V2000
  -21.4980  -11.9157   21.1001 C   0  0  0  0  0  0  0  0  0  0  0  0
  -21.5490  -13.2911   21.3028 C   0  0  0  0  0  0  0  0  0  0  0  0
  -31.8454  -27.0231   19.3729 C   0  0  0  0  0  0  0  0  0  0  0  0
  -31.5434  -26.1398   21.6013 C   0  0  0  0  0  0  0  0  0  0  0  0
  -22.6787  -11.1914   20.9417 C   0  0  0  0  0  0  0  0  0  0  0  0
  -22.7809  -13.9428   21.3484 C   0  0  0  0  0  0  0  0  0  0  0  0
  -24.0368  -19.5873   19.3313 C   0  0  0  0  0  0  0  0  0  0  0  0
  -20.5716  -25.4381   22.2719 C   0  0  0  0  0  0  0  0  0  0  0  0
  -21.5235  -24.6278   22.8905 C   0  0  0  0  0  0  0  0  0  0  0  0
  -33.1951  -27.2473   19.6446 C   0  0  0  0  0  0  0  0  0  0  0  0
  -32.8931  -26.3639   21.8730 C   0  0  0  0  0  0  0  0  0  0  0  0
  -24.1408  -20.8150   19.9838 C   0  0  0  0  0  0  0  0  0  0  0  0
  -36.3389  -26.3694   23.0324 C   0  0  0  0  0  0  0  0  0  0  0  0
  -37.0493  -25.3547   23.6738 C   0  0  0  0  0  0  0  0  0  0  0  0
  -26.5320  -20.5302   20.1257 C   0  0  0  0  0  0  0  0  0  0  0  0
  -22.1194  -27.2926   22.3193 C   0  0  0  0  0  0  0  0  0  0  0  0
  -36.5621  -23.8560   21.8425 C   0  0  0  0  0  0  0  0  0  0  0  0
  -31.0196  -26.4695   20.3512 C   0  0  0  0  0  0  0  0  0  0  0  0
  -29.0484  -25.0730   19.5315 C   0  0  0  0  0  0  0  0  0  0  0  0
  -23.9253  -11.8359   20.9758 C   0  0  0  0  0  0  0  0  0  0  0  0
  -25.1804  -18.8155   19.0805 C   0  0  0  0  0  0  0  0  0  0  0  0
  -23.9795  -13.2262   21.1917 C   0  0  0  0  0  0  0  0  0  0  0  0
  -26.4401  -19.2942   19.4676 C   0  0  0  0  0  0  0  0  0  0  0  0
  -20.8695  -26.7706   21.9862 C   0  0  0  0  0  0  0  0  0  0  0  0
  -22.7734  -25.1498   23.2236 C   0  0  0  0  0  0  0  0  0  0  0  0
  -23.0713  -26.4823   22.9380 C   0  0  0  0  0  0  0  0  0  0  0  0
  -33.7189  -26.9177   20.8947 C   0  0  0  0  0  0  0  0  0  0  0  0
  -25.3882  -21.2853   20.3836 C   0  0  0  0  0  0  0  0  0  0  0  0
  -35.7401  -26.1274   21.7960 C   0  0  0  0  0  0  0  0  0  0  0  0
  -37.1609  -24.0980   23.0789 C   0  0  0  0  0  0  0  0  0  0  0  0
  -35.8517  -24.8707   21.2011 C   0  0  0  0  0  0  0  0  0  0  0  0
  -29.6252  -26.2382   20.0713 C   0  0  0  0  0  0  0  0  0  0  0  0
  -27.7059  -25.3549   19.4622 C   0  0  0  0  0  0  0  0  0  0  0  0
  -29.6704  -23.8456   19.1288 C   0  0  0  0  0  0  0  0  0  0  0  0
  -26.1790  -15.9312   19.9680 C   0  0  0  0  0  0  0  0  0  0  0  0
  -28.5882  -16.5529   17.8868 C   0  0  0  0  0  0  0  0  0  0  0  0
  -30.4576  -18.8780   16.2296 C   0  0  0  0  0  0  0  0  0  0  0  0
  -24.5183  -29.5082   22.6446 C   0  0  0  0  0  0  0  0  0  0  0  0
  -25.1765  -11.0038   20.8470 C   0  0  0  0  0  0  0  0  0  0  0  0
  -25.0542  -17.5057   18.3518 C   0  0  0  0  0  0  0  0  0  0  0  0
  -27.7007  -18.5133   19.2038 C   0  0  0  0  0  0  0  0  0  0  0  0
  -26.4247  -11.8250   20.5341 C   0  0  0  0  0  0  0  0  0  0  0  0
  -24.6529  -28.9994   18.9807 C   0  0  0  0  0  0  0  0  0  0  0  0
  -26.4998  -13.0489   21.4415 C   0  0  0  0  0  0  0  0  0  0  0  0
  -25.9385  -28.1933   18.8033 C   0  0  0  0  0  0  0  0  0  0  0  0
  -24.7106  -29.8948   20.2146 C   0  0  0  0  0  0  0  0  0  0  0  0
  -26.3225  -28.3618   21.2942 C   0  0  0  0  0  0  0  0  0  0  0  0
  -25.2955  -13.9726   21.2226 C   0  0  1  0  0  0  0  0  0  0  0  0
  -26.2279  -16.5648   18.6064 C   0  0  1  0  0  0  0  0  0  0  0  0
  -26.2790  -27.4145   20.0858 C   0  0  2  0  0  0  0  0  0  0  0  0
  -20.3161  -28.1456   19.9474 C   0  0  0  0  0  0  0  0  0  0  0  0
  -19.4298  -28.8279   22.2066 C   0  0  0  0  0  0  0  0  0  0  0  0
  -32.3788  -19.0835   14.6284 C   0  0  0  0  0  0  0  0  0  0  0  0
  -30.5369  -15.9179   20.1471 C   0  0  0  0  0  0  0  0  0  0  0  0
  -32.3380  -17.0355   18.8147 C   0  0  0  0  0  0  0  0  0  0  0  0
  -31.1980  -15.0080   17.9134 C   0  0  0  0  0  0  0  0  0  0  0  0
  -23.7334  -28.8232   24.8794 C   0  0  0  0  0  0  0  0  0  0  0  0
  -28.7747  -20.2259   14.2023 C   0  0  0  0  0  0  0  0  0  0  0  0
  -23.7856  -24.2548   23.8928 C   0  0  0  0  0  0  0  0  0  0  0  0
  -24.4027  -27.0631   23.2857 C   0  0  0  0  0  0  0  0  0  0  0  0
  -24.8939  -23.7698   22.9557 C   0  0  0  0  0  0  0  0  0  0  0  0
  -24.3823  -22.8932   21.8184 C   0  0  0  0  0  0  0  0  0  1  0  0
  -19.8514  -27.6369   21.3252 C   0  0  0  0  0  0  0  0  0  0  0  0
  -29.9467  -17.2036   17.9874 C   0  0  1  0  0  0  0  0  0  0  0  0
  -30.8679  -18.9879   14.7722 C   0  0  2  0  0  0  0  0  0  0  0  0
  -30.9811  -16.3053   18.7225 C   0  0  0  0  0  0  0  0  0  0  0  0
  -28.7231  -27.1895   20.3267 N   0  0  0  0  0  0  0  0  0  0  0  0
  -27.5657  -26.6226   19.9455 N   0  0  0  0  0  0  0  0  0  0  0  0
  -27.5247  -17.2356   18.4939 N   0  0  0  0  0  0  0  0  0  0  0  0
  -25.0784  -29.1371   21.4112 N   0  0  0  0  0  0  0  0  0  0  0  0
  -26.6435  -24.6397   19.0354 N   0  0  0  0  0  0  0  0  0  0  0  0
  -31.0597  -23.7236   19.2679 N   0  0  0  0  0  0  0  0  0  0  0  0
  -25.4666  -14.7480   20.0127 N   0  0  0  0  0  0  0  0  0  0  0  0
  -30.3287  -17.5637   16.6262 N   0  0  0  0  0  0  0  0  0  0  0  0
  -24.3218  -28.4901   23.5900 N   0  0  0  0  0  0  0  0  0  0  0  0
  -30.2592  -20.1989   14.1526 N   0  3  0  0  0  0  0  0  0  0  0  0
  -29.0158  -22.8916   18.6442 O   0  0  0  0  0  0  0  0  0  0  0  0
  -26.7469  -16.4748   20.9080 O   0  0  0  0  0  0  0  0  0  0  0  0
  -28.4737  -15.4820   17.2853 O   0  0  0  0  0  0  0  0  0  0  0  0
  -30.2738  -19.8598   16.9457 O   0  0  0  0  0  0  0  0  0  0  0  0
  -24.2025  -30.6808   22.8835 O   0  0  0  0  0  0  0  0  0  0  0  0
  -35.0359  -27.1360   21.1601 O   0  0  0  0  0  0  0  0  0  0  0  0
  -25.4925  -22.4830   21.0212 O   0  0  0  0  0  0  0  0  0  1  0  0
  -37.8444  -23.1242   23.6942 F   0  0  0  0  0  0  0  0  0  0  0  0
  -35.2796  -24.6326   20.0129 F   0  0  0  0  0  0  0  0  0  0  0  0
  1  2  1  0  0  0  0
  1  5  2  0  0  0  0
  2  6  2  0  0  0  0
  3 10  2  0  0  0  0
  3 18  1  0  0  0  0
  4 11  1  0  0  0  0
  4 18  2  0  0  0  0
  5 20  1  0  0  0  0
  6 22  1  0  0  0  0
  7 12  2  0  0  0  0
  7 21  1  0  0  0  0
  8  9  2  0  0  0  0
  8 24  1  0  0  0  0
  9 25  1  0  0  0  0
 10 27  1  0  0  0  0
 11 27  2  0  0  0  0
 12 28  1  0  0  0  0
 13 14  2  0  0  0  0
 13 29  1  0  0  0  0
 14 30  1  0  0  0  0
 15 23  1  0  0  0  0
 15 28  2  0  0  0  0
 16 24  2  0  0  0  0
 16 26  1  0  0  0  0
 17 30  2  0  0  0  0
 17 31  1  0  0  0  0
 18 32  1  0  0  0  0
 19 32  1  0  0  0  0
 19 33  2  0  0  0  0
 19 34  1  0  0  0  0
 20 22  2  0  0  0  0
 20 39  1  0  0  0  0
 21 23  2  0  0  0  0
 21 40  1  0  0  0  0
 22 48  1  0  0  0  0
 23 41  1  0  0  0  0
 24 63  1  0  0  0  0
 25 26  2  0  0  0  0
 25 59  1  0  0  0  0
 26 60  1  0  0  0  0
 27 82  1  0  0  0  0
 28 83  1  0  0  0  0
 29 31  2  0  0  0  0
 29 82  1  0  0  0  0
 30 84  1  0  0  0  0
 31 85  1  0  0  0  0
 32 67  2  0  0  0  0
 33 68  1  0  0  0  0
 33 71  1  0  0  0  0
 34 72  1  0  0  0  0
 34 77  2  0  0  0  0
 35 49  1  0  0  0  0
 35 73  1  0  0  0  0
 35 78  2  0  0  0  0
 36 64  1  0  0  0  0
 36 69  1  0  0  0  0
 36 79  2  0  0  0  0
 37 65  1  0  0  0  0
 37 74  1  0  0  0  0
 37 80  2  0  0  0  0
 38 70  1  0  0  0  0
 38 75  1  0  0  0  0
 38 81  2  0  0  0  0
 39 42  1  0  0  0  0
 40 49  1  0  0  0  0
 41 69  1  0  0  0  0
 42 44  1  0  0  0  0
 43 45  1  0  0  0  0
 43 46  1  0  0  0  0
 44 48  1  0  0  0  0
 45 50  1  0  0  0  0
 46 70  1  0  0  0  0
 47 50  1  0  0  0  0
 47 70  1  0  0  0  0
 48 73  1  0  0  0  0
 49 69  1  0  0  0  0
 50 68  1  0  0  0  0
 51 63  1  0  0  0  0
 52 63  1  0  0  0  0
 53 65  1  0  0  0  0
 54 66  1  0  0  0  0
 55 66  1  0  0  0  0
 56 66  1  0  0  0  0
 57 75  1  0  0  0  0
 58 76  1  0  0  0  0
 59 61  1  0  0  0  0
 60 75  1  0  0  0  0
 61 62  1  0  0  0  0
 62 83  1  0  0  0  0
 64 66  1  0  0  0  0
 64 74  1  0  0  0  0
 65 76  1  0  0  0  0
 67 68  1  0  0  0  0
M  CHG  1  76   1
M  ISO  4  38 100  62 101  75 100  83 101
M  END
> <Batch ID>
0096

> <Smiles>
CNC(C)C(=O)NC(C(=O)N1Cc2cc([101O:1][101CH2:1]CCc3ccc(C(C)C)cc3C[100N:0](C)[100C:0](=O)N3CCCC(n4nc(-c5ccc(Oc6ccc(F)cc6F)cc5)c(C(N)=O)c4N)C3)ccc2CC1C(=O)NC1CCCc2ccccc21)C(C)(C)C

> <Shape>
0.203

> <Color>
0.078

> <Negative vol penalty>
0.000

$$$$

  -OEChem-04052319243D

 90 98  0     1  0  0  0  0  0999 V2000
  -23.0206  -33.0527   25.5033 C   0  0  0  0  0  0  0  0  0  0  0  0
  -23.8540  -32.0287   25.0649 C   0  0  0  0  0  0  0  0  0  0  0  0
  -23.8426  -12.3689   20.5084 C   0  0  0  0  0  0  0  0  0  0  0  0
  -25.6493  -12.3589   22.1125 C   0  0  0  0  0  0  0  0  0  0  0  0
  -21.6411  -32.9503   25.3285 C   0  0  0  0  0  0  0  0  0  0  0  0
  -23.3083  -30.9011   24.4524 C   0  0  0  0  0  0  0  0  0  0  0  0
  -25.8554  -29.5228   20.2982 C   0  0  0  0  0  0  0  0  0  0  0  0
  -23.7688  -10.9780   20.5828 C   0  0  0  0  0  0  0  0  0  0  0  0
  -25.5754  -10.9679   22.1869 C   0  0  0  0  0  0  0  0  0  0  0  0
  -27.0526  -28.8331   20.4849 C   0  0  0  0  0  0  0  0  0  0  0  0
  -22.4881   -8.6605   22.6856 C   0  0  0  0  0  0  0  0  0  0  0  0
  -21.2229   -8.0834   22.7939 C   0  0  0  0  0  0  0  0  0  0  0  0
  -25.9183  -26.7532   20.0304 C   0  0  0  0  0  0  0  0  0  0  0  0
  -30.2280  -23.1798   23.6709 C   0  0  0  0  0  0  0  0  0  0  0  0
  -30.0594  -22.0125   21.5624 C   0  0  0  0  0  0  0  0  0  0  0  0
  -21.5956   -6.8793   20.7327 C   0  0  0  0  0  0  0  0  0  0  0  0
  -24.7829  -13.0594   21.2732 C   0  0  0  0  0  0  0  0  0  0  0  0
  -24.1628  -15.4284   21.9879 C   0  0  0  0  0  0  0  0  0  0  0  0
  -21.0790  -31.8253   24.7048 C   0  0  0  0  0  0  0  0  0  0  0  0
  -24.6764  -28.8306   19.9864 C   0  0  0  0  0  0  0  0  0  0  0  0
  -21.9200  -30.7830   24.2703 C   0  0  0  0  0  0  0  0  0  0  0  0
  -24.7080  -27.4367   19.8377 C   0  0  0  0  0  0  0  0  0  0  0  0
  -30.7245  -22.9124   22.3951 C   0  0  0  0  0  0  0  0  0  0  0  0
  -29.0664  -22.5472   24.1140 C   0  0  0  0  0  0  0  0  0  0  0  0
  -28.4014  -21.6473   23.2813 C   0  0  0  0  0  0  0  0  0  0  0  0
  -28.8978  -21.3799   22.0055 C   0  0  0  0  0  0  0  0  0  0  0  0
  -24.6352  -10.2775   21.4221 C   0  0  0  0  0  0  0  0  0  0  0  0
  -27.0836  -27.4478   20.3538 C   0  0  0  0  0  0  0  0  0  0  0  0
  -23.3071   -8.3471   21.6008 C   0  0  0  0  0  0  0  0  0  0  0  0
  -20.7766   -7.1928   21.8174 C   0  0  0  0  0  0  0  0  0  0  0  0
  -22.8609   -7.4565   20.6243 C   0  0  0  0  0  0  0  0  0  0  0  0
  -24.8601  -14.4961   21.1964 C   0  0  0  0  0  0  0  0  0  0  0  0
  -24.5812  -16.6522   21.5256 C   0  0  0  0  0  0  0  0  0  0  0  0
  -23.2212  -15.2079   23.0464 C   0  0  0  0  0  0  0  0  0  0  0  0
  -21.8538  -28.4575   21.3996 C   0  0  0  0  0  0  0  0  0  0  0  0
  -21.1122  -26.9222   18.6400 C   0  0  0  0  0  0  0  0  0  0  0  0
  -22.1989  -25.2119   15.8940 C   0  0  0  0  0  0  0  0  0  0  0  0
  -28.6131  -20.1075   19.8499 C   0  0  0  0  0  0  0  0  0  0  0  0
  -19.5785  -31.7381   24.5806 C   0  0  0  0  0  0  0  0  0  0  0  0
  -23.3987  -29.5919   19.7618 C   0  0  0  0  0  0  0  0  0  0  0  0
  -23.4740  -26.6487   19.4841 C   0  0  0  0  0  0  0  0  0  0  0  0
  -19.1102  -30.6799   23.5850 C   0  0  0  0  0  0  0  0  0  0  0  0
  -27.2748  -17.8769   17.4188 C   0  0  0  0  0  0  0  0  0  0  0  0
  -19.8622  -29.3709   23.8041 C   0  0  0  0  0  0  0  0  0  0  0  0
  -26.4699  -16.8752   18.2499 C   0  0  0  0  0  0  0  0  0  0  0  0
  -28.5528  -18.3105   18.1347 C   0  0  0  0  0  0  0  0  0  0  0  0
  -27.5540  -17.8135   20.3311 C   0  0  0  0  0  0  0  0  0  0  0  0
  -21.3678  -29.5553   23.5790 C   0  0  1  0  0  0  0  0  0  0  0  0
  -22.1511  -28.7349   19.9531 C   0  0  1  0  0  0  0  0  0  0  0  0
  -26.2253  -17.3969   19.6794 C   0  0  2  0  0  0  0  0  0  0  0  0
  -27.1560  -20.9705   23.7619 C   0  0  0  0  0  0  0  0  0  0  0  0
  -33.1064  -22.5786   21.6543 C   0  0  0  0  0  0  0  0  0  0  0  0
  -21.3556  -24.0502   13.8357 C   0  0  0  0  0  0  0  0  0  0  0  0
  -20.2297  -24.5497   20.3436 C   0  0  0  0  0  0  0  0  0  0  0  0
  -20.3094  -23.1298   18.2831 C   0  0  0  0  0  0  0  0  0  0  0  0
  -18.7315  -25.0578   18.4067 C   0  0  0  0  0  0  0  0  0  0  0  0
  -23.6713  -27.0568   14.1085 C   0  0  0  0  0  0  0  0  0  0  0  0
  -26.7898  -27.5043   24.4975 C   0  0  0  0  0  0  0  0  0  0  0  0
  -25.2604  -25.5401   24.4365 C   0  0  0  0  0  0  0  0  0  0  0  0
  -28.5572  -22.8499   25.4852 C   0  0  0  0  0  0  0  0  0  0  0  0
  -27.3910  -23.8553   25.5221 C   0  0  0  0  0  0  0  0  0  0  0  0
  -27.6859  -25.2154   24.8971 C   0  0  0  0  0  0  0  0  0  0  0  0
  -30.5227  -26.4568   19.8143 C   0  0  0  0  0  0  0  0  0  0  0  0
  -31.7656  -24.4632   20.6623 C   0  0  0  0  0  0  0  0  0  0  0  0
  -29.4574  -27.4603   20.2098 C   0  0  0  0  0  0  0  0  0  1  0  0
  -31.9945  -23.6024   21.9115 C   0  0  1  0  0  0  0  0  0  0  0  0
  -21.2080  -25.4975   18.1503 C   0  0  1  0  0  0  0  0  0  0  0  0
  -21.8669  -25.3579   14.4199 C   0  0  2  0  0  0  0  0  0  0  0  0
  -20.1427  -24.5731   18.8045 C   0  0  0  0  0  0  0  0  0  0  0  0
  -25.6605  -15.0778   20.2992 N   0  0  0  0  0  0  0  0  0  0  0  0
  -25.4688  -16.3888   20.5241 N   0  0  0  0  0  0  0  0  0  0  0  0
  -22.2478  -27.4378   19.2807 N   0  0  0  0  0  0  0  0  0  0  0  0
  -28.2429  -18.7969   19.4808 N   0  0  0  0  0  0  0  0  0  0  0  0
  -24.2727  -17.9172   21.8821 N   0  0  0  0  0  0  0  0  0  0  0  0
  -22.9040  -13.8878   23.3942 N   0  0  0  0  0  0  0  0  0  0  0  0
  -28.2373  -20.4702   21.1429 N   0  0  0  0  0  0  0  0  0  0  0  0
  -21.6662  -29.5937   22.1634 N   0  0  0  0  0  0  0  0  0  0  0  0
  -21.1318  -25.5602   16.6947 N   0  0  0  0  0  0  0  0  0  0  0  0
  -23.0768  -25.7730   13.6551 N   0  3  0  0  0  0  0  0  0  0  0  0
  -30.7556  -25.5194   20.9418 N   0  3  0  0  0  0  0  0  0  0  0  0
  -26.5201  -26.1191   25.0347 N   0  3  0  0  0  0  0  0  0  0  0  0
  -22.6648  -16.1535   23.6544 O   0  0  0  0  0  0  0  0  0  0  0  0
  -21.7971  -27.2984   21.7933 O   0  0  0  0  0  0  0  0  0  0  0  0
  -20.0708  -27.5568   18.4544 O   0  0  0  0  0  0  0  0  0  0  0  0
  -23.2940  -24.8240   16.2949 O   0  0  0  0  0  0  0  0  0  0  0  0
  -29.1948  -20.8625   19.0666 O   0  0  0  0  0  0  0  0  0  0  0  0
  -24.5632   -8.9203   21.4951 O   0  0  0  0  0  0  0  0  0  0  0  0
  -28.2506  -26.7721   20.5362 O   0  0  0  0  0  0  0  0  0  1  0  0
  -19.5623   -6.6374   21.9224 F   0  0  0  0  0  0  0  0  0  0  0  0
  -23.6437   -7.1507   19.5805 F   0  0  0  0  0  0  0  0  0  0  0  0
  1  2  1  0  0  0  0
  1  5  2  0  0  0  0
  2  6  2  0  0  0  0
  3  8  2  0  0  0  0
  3 17  1  0  0  0  0
  4  9  1  0  0  0  0
  4 17  2  0  0  0  0
  5 19  1  0  0  0  0
  6 21  1  0  0  0  0
  7 10  2  0  0  0  0
  7 20  1  0  0  0  0
  8 27  1  0  0  0  0
  9 27  2  0  0  0  0
 10 28  1  0  0  0  0
 11 12  2  0  0  0  0
 11 29  1  0  0  0  0
 12 30  1  0  0  0  0
 13 22  1  0  0  0  0
 13 28  2  0  0  0  0
 14 23  1  0  0  0  0
 14 24  2  0  0  0  0
 15 23  2  0  0  0  0
 15 26  1  0  0  0  0
 16 30  2  0  0  0  0
 16 31  1  0  0  0  0
 17 32  1  0  0  0  0
 18 32  1  0  0  0  0
 18 33  2  0  0  0  0
 18 34  1  0  0  0  0
 19 21  2  0  0  0  0
 19 39  1  0  0  0  0
 20 22  2  0  0  0  0
 20 40  1  0  0  0  0
 21 48  1  0  0  0  0
 22 41  1  0  0  0  0
 23 66  1  0  0  0  0
 24 25  1  0  0  0  0
 24 60  1  0  0  0  0
 25 26  2  0  0  0  0
 25 51  1  0  0  0  0
 26 76  1  0  0  0  0
 27 87  1  0  0  0  0
 28 88  1  0  0  0  0
 29 31  2  0  0  0  0
 29 87  1  0  0  0  0
 30 89  1  0  0  0  0
 31 90  1  0  0  0  0
 32 70  2  0  0  0  0
 33 71  1  0  0  0  0
 33 74  1  0  0  0  0
 34 75  1  0  0  0  0
 34 82  2  0  0  0  0
 35 49  1  0  0  0  0
 35 77  1  0  0  0  0
 35 83  2  0  0  0  0
 36 67  1  0  0  0  0
 36 72  1  0  0  0  0
 36 84  2  0  0  0  0
 37 68  1  0  0  0  0
 37 78  1  0  0  0  0
 37 85  2  0  0  0  0
 38 73  1  0  0  0  0
 38 76  1  0  0  0  0
 38 86  2  0  0  0  0
 39 42  1  0  0  0  0
 40 49  1  0  0  0  0
 41 72  1  0  0  0  0
 42 44  1  0  0  0  0
 43 45  1  0  0  0  0
 43 46  1  0  0  0  0
 44 48  1  0  0  0  0
 45 50  1  0  0  0  0
 46 73  1  0  0  0  0
 47 50  1  0  0  0  0
 47 73  1  0  0  0  0
 48 77  1  0  0  0  0
 49 72  1  0  0  0  0
 50 71  1  0  0  0  0
 52 66  1  0  0  0  0
 53 68  1  0  0  0  0
 54 69  1  0  0  0  0
 55 69  1  0  0  0  0
 56 69  1  0  0  0  0
 57 79  1  0  0  0  0
 58 81  1  0  0  0  0
 59 81  1  0  0  0  0
 60 61  1  0  0  0  0
 61 62  1  0  0  0  0
 62 81  1  0  0  0  0
 63 65  1  0  0  0  0
 63 80  1  0  0  0  0
 64 66  1  0  0  0  0
 64 80  1  0  0  0  0
 65 88  1  0  0  0  0
 67 69  1  0  0  0  0
 67 78  1  0  0  0  0
 68 79  1  0  0  0  0
 70 71  1  0  0  0  0
M  CHG  3  79   1  80   1  81   1
M  ISO  4  38 100  65 101  76 100  88 101
M  END
> <Batch ID>
0096

> <Smiles>
CNC(C)C(=O)NC(C(=O)N1Cc2cc([101O:1][101CH2:1]CNCC(C)c3cc(CCCN(C)C)c(C)c([100NH:0][100C:0](=O)N4CCCC(n5nc(-c6ccc(Oc7ccc(F)cc7F)cc6)c(C(N)=O)c5N)C4)c3)ccc2CC1C(=O)NC1CCCc2ccccc21)C(C)(C)C

> <Shape>
0.223

> <Color>
0.074

> <Negative vol penalty>
0.000

$$$$

  -OEChem-04052319243D

 88 96  0     1  0  0  0  0  0999 V2000
  -28.5966  -13.3247   18.7059 C   0  0  0  0  0  0  0  0  0  0  0  0
  -27.9322  -14.5462   18.6616 C   0  0  0  0  0  0  0  0  0  0  0  0
  -28.5575  -21.4113   21.8236 C   0  0  0  0  0  0  0  0  0  0  0  0
  -27.4587  -21.3400   19.6731 C   0  0  0  0  0  0  0  0  0  0  0  0
  -27.9821  -12.2190   19.2922 C   0  0  0  0  0  0  0  0  0  0  0  0
  -26.6523  -14.6624   19.2027 C   0  0  0  0  0  0  0  0  0  0  0  0
  -24.2815  -19.5488   22.0326 C   0  0  0  0  0  0  0  0  0  0  0  0
  -20.5918  -23.9242   19.0167 C   0  0  0  0  0  0  0  0  0  0  0  0
  -19.6057  -24.8502   18.6764 C   0  0  0  0  0  0  0  0  0  0  0  0
  -28.7058  -20.0247   21.7939 C   0  0  0  0  0  0  0  0  0  0  0  0
  -27.6070  -19.9534   19.6433 C   0  0  0  0  0  0  0  0  0  0  0  0
  -23.4402  -20.5703   21.5939 C   0  0  0  0  0  0  0  0  0  0  0  0
  -30.7493  -17.7690   20.3212 C   0  0  0  0  0  0  0  0  0  0  0  0
  -31.9882  -17.2416   20.6851 C   0  0  0  0  0  0  0  0  0  0  0  0
  -21.5379  -19.3698   22.4651 C   0  0  0  0  0  0  0  0  0  0  0  0
  -20.0084  -24.1602   21.3493 C   0  0  0  0  0  0  0  0  0  0  0  0
  -30.9379  -16.0134   22.4811 C   0  0  0  0  0  0  0  0  0  0  0  0
  -27.9340  -22.0690   20.7633 C   0  0  0  0  0  0  0  0  0  0  0  0
  -28.6815  -24.4638   20.3010 C   0  0  0  0  0  0  0  0  0  0  0  0
  -26.6979  -12.3242   19.8494 C   0  0  0  0  0  0  0  0  0  0  0  0
  -23.7551  -18.4230   22.6823 C   0  0  0  0  0  0  0  0  0  0  0  0
  -26.0194  -13.5567   19.7959 C   0  0  0  0  0  0  0  0  0  0  0  0
  -22.3748  -18.3365   22.9134 C   0  0  0  0  0  0  0  0  0  0  0  0
  -20.7931  -23.5791   20.3532 C   0  0  0  0  0  0  0  0  0  0  0  0
  -18.8211  -25.4312   19.6725 C   0  0  0  0  0  0  0  0  0  0  0  0
  -19.0224  -25.0863   21.0090 C   0  0  0  0  0  0  0  0  0  0  0  0
  -28.2305  -19.2957   20.7037 C   0  0  0  0  0  0  0  0  0  0  0  0
  -22.0679  -20.4796   21.8075 C   0  0  0  0  0  0  0  0  0  0  0  0
  -29.6046  -17.4187   21.0373 C   0  0  0  0  0  0  0  0  0  0  0  0
  -32.0825  -16.3638   21.7650 C   0  0  0  0  0  0  0  0  0  0  0  0
  -29.6989  -16.5410   22.1172 C   0  0  0  0  0  0  0  0  0  0  0  0
  -27.7801  -23.5013   20.7937 C   0  0  0  0  0  0  0  0  0  0  0  0
  -28.0779  -25.6682   20.5685 C   0  0  0  0  0  0  0  0  0  0  0  0
  -29.9509  -24.2851   19.6588 C   0  0  0  0  0  0  0  0  0  0  0  0
  -23.6875  -15.3053   22.0669 C   0  0  0  0  0  0  0  0  0  0  0  0
  -22.3616  -15.1463   25.0231 C   0  0  0  0  0  0  0  0  0  0  0  0
  -20.6318  -16.7167   27.5108 C   0  0  0  0  0  0  0  0  0  0  0  0
  -22.8909  -28.0147   20.5998 C   0  0  0  0  0  0  0  0  0  0  0  0
  -26.0553  -11.0895   20.4303 C   0  0  0  0  0  0  0  0  0  0  0  0
  -24.6788  -17.3422   23.1733 C   0  0  0  0  0  0  0  0  0  0  0  0
  -21.7620  -17.1585   23.6240 C   0  0  0  0  0  0  0  0  0  0  0  0
  -24.8483  -11.3900   21.3153 C   0  0  0  0  0  0  0  0  0  0  0  0
  -24.5648  -27.1869   23.6999 C   0  0  0  0  0  0  0  0  0  0  0  0
  -23.9239  -12.3943   20.6343 C   0  0  0  0  0  0  0  0  0  0  0  0
  -25.6607  -26.2385   23.2100 C   0  0  0  0  0  0  0  0  0  0  0  0
  -23.2688  -26.9835   22.9207 C   0  0  0  0  0  0  0  0  0  0  0  0
  -24.5058  -26.1678   20.9514 C   0  0  0  0  0  0  0  0  0  0  0  0
  -24.6401  -13.7288   20.3942 C   0  0  1  0  0  0  0  0  0  0  0  0
  -23.9791  -16.0005   23.3667 C   0  0  1  0  0  0  0  0  0  0  0  0
  -25.8485  -26.3396   21.6846 C   0  0  2  0  0  0  0  0  0  0  0  0
  -19.0446  -26.4211   23.1313 C   0  0  0  0  0  0  0  0  0  0  0  0
  -19.6629  -16.3181   29.7910 C   0  0  0  0  0  0  0  0  0  0  0  0
  -21.5918  -31.2653   20.8725 C   0  0  0  0  0  0  0  0  0  0  0  0
  -17.7509  -26.6328   17.7300 C   0  0  0  0  0  0  0  0  0  0  0  0
  -16.2992  -26.0075   19.6357 C   0  0  0  0  0  0  0  0  0  0  0  0
  -20.0570  -13.5888   23.7689 C   0  0  0  0  0  0  0  0  0  0  0  0
  -18.7161  -14.0467   25.8330 C   0  0  0  0  0  0  0  0  0  0  0  0
  -20.8214  -12.7172   25.9849 C   0  0  0  0  0  0  0  0  0  0  0  0
  -22.3421  -18.8022   28.7293 C   0  0  0  0  0  0  0  0  0  0  0  0
  -18.1946  -25.6957   22.0926 C   0  0  0  0  0  0  0  0  0  0  0  0
  -21.8541  -22.5833   20.7191 C   0  0  0  0  0  0  0  0  0  1  0  0
  -19.7388  -29.5741   20.4015 C   0  0  0  0  0  0  0  0  0  0  0  0
  -18.0046  -27.8459   19.9070 C   0  0  0  0  0  0  0  0  0  0  0  0
  -20.9553  -15.2073   25.5687 C   0  0  1  0  0  0  0  0  0  0  0  0
  -20.8732  -16.8012   29.0071 C   0  0  2  0  0  0  0  0  0  0  0  0
  -21.2406  -29.8571   20.4020 C   0  0  2  0  0  0  0  0  0  0  0  0
  -17.7723  -26.4210   19.2840 C   0  0  0  0  0  0  0  0  0  0  0  0
  -20.1485  -13.9114   25.2738 C   0  0  0  0  0  0  0  0  0  0  0  0
  -26.6870  -24.0471   21.3335 N   0  0  0  0  0  0  0  0  0  0  0  0
  -26.8978  -25.3657   21.1816 N   0  0  0  0  0  0  0  0  0  0  0  0
  -22.7060  -16.1245   24.0795 N   0  0  0  0  0  0  0  0  0  0  0  0
  -23.5131  -27.1109   21.4770 N   0  0  0  0  0  0  0  0  0  0  0  0
  -28.4469  -26.9459   20.3368 N   0  0  0  0  0  0  0  0  0  0  0  0
  -30.4223  -22.9800   19.4620 N   0  0  0  0  0  0  0  0  0  0  0  0
  -24.7120  -14.4918   21.6218 N   0  0  0  0  0  0  0  0  0  0  0  0
  -21.0813  -15.5228   26.9875 N   0  0  0  0  0  0  0  0  0  0  0  0
  -21.9583  -28.8686   21.1759 N   0  0  0  0  0  0  0  0  0  0  0  0
  -21.1611  -18.2078   29.4067 N   0  3  0  0  0  0  0  0  0  0  0  0
  -19.4467  -28.2038   19.9020 N   0  3  0  0  0  0  0  0  0  0  0  0
  -30.6541  -25.2546   19.2857 O   0  0  0  0  0  0  0  0  0  0  0  0
  -22.6121  -15.4919   21.5099 O   0  0  0  0  0  0  0  0  0  0  0  0
  -23.1285  -14.2677   25.4248 O   0  0  0  0  0  0  0  0  0  0  0  0
  -20.0946  -17.6180   26.8708 O   0  0  0  0  0  0  0  0  0  0  0  0
  -23.1513  -28.0611   19.3927 O   0  0  0  0  0  0  0  0  0  0  0  0
  -28.3752  -17.9426   20.6743 O   0  0  0  0  0  0  0  0  0  0  0  0
  -21.2445  -21.4750   21.3796 O   0  0  0  0  0  0  0  0  0  1  0  0
  -33.2721  -15.8561   22.1134 F   0  0  0  0  0  0  0  0  0  0  0  0
  -28.6026  -16.1998   22.8082 F   0  0  0  0  0  0  0  0  0  0  0  0
  1  2  1  0  0  0  0
  1  5  2  0  0  0  0
  2  6  2  0  0  0  0
  3 10  2  0  0  0  0
  3 18  1  0  0  0  0
  4 11  1  0  0  0  0
  4 18  2  0  0  0  0
  5 20  1  0  0  0  0
  6 22  1  0  0  0  0
  7 12  2  0  0  0  0
  7 21  1  0  0  0  0
  8  9  2  0  0  0  0
  8 24  1  0  0  0  0
  9 25  1  0  0  0  0
 10 27  1  0  0  0  0
 11 27  2  0  0  0  0
 12 28  1  0  0  0  0
 13 14  2  0  0  0  0
 13 29  1  0  0  0  0
 14 30  1  0  0  0  0
 15 23  1  0  0  0  0
 15 28  2  0  0  0  0
 16 24  2  0  0  0  0
 16 26  1  0  0  0  0
 17 30  2  0  0  0  0
 17 31  1  0  0  0  0
 18 32  1  0  0  0  0
 19 32  1  0  0  0  0
 19 33  2  0  0  0  0
 19 34  1  0  0  0  0
 20 22  2  0  0  0  0
 20 39  1  0  0  0  0
 21 23  2  0  0  0  0
 21 40  1  0  0  0  0
 22 48  1  0  0  0  0
 23 41  1  0  0  0  0
 24 61  1  0  0  0  0
 25 26  2  0  0  0  0
 25 67  1  0  0  0  0
 26 60  1  0  0  0  0
 27 85  1  0  0  0  0
 28 86  1  0  0  0  0
 29 31  2  0  0  0  0
 29 85  1  0  0  0  0
 30 87  1  0  0  0  0
 31 88  1  0  0  0  0
 32 69  2  0  0  0  0
 33 70  1  0  0  0  0
 33 73  1  0  0  0  0
 34 74  1  0  0  0  0
 34 80  2  0  0  0  0
 35 49  1  0  0  0  0
 35 75  1  0  0  0  0
 35 81  2  0  0  0  0
 36 64  1  0  0  0  0
 36 71  1  0  0  0  0
 36 82  2  0  0  0  0
 37 65  1  0  0  0  0
 37 76  1  0  0  0  0
 37 83  2  0  0  0  0
 38 72  1  0  0  0  0
 38 77  1  0  0  0  0
 38 84  2  0  0  0  0
 39 42  1  0  0  0  0
 40 49  1  0  0  0  0
 41 71  1  0  0  0  0
 42 44  1  0  0  0  0
 43 45  1  0  0  0  0
 43 46  1  0  0  0  0
 44 48  1  0  0  0  0
 45 50  1  0  0  0  0
 46 72  1  0  0  0  0
 47 50  1  0  0  0  0
 47 72  1  0  0  0  0
 48 75  1  0  0  0  0
 49 71  1  0  0  0  0
 50 70  1  0  0  0  0
 51 60  1  0  0  0  0
 52 65  1  0  0  0  0
 53 66  1  0  0  0  0
 54 67  1  0  0  0  0
 55 67  1  0  0  0  0
 56 68  1  0  0  0  0
 57 68  1  0  0  0  0
 58 68  1  0  0  0  0
 59 78  1  0  0  0  0
 61 86  1  0  0  0  0
 62 66  1  0  0  0  0
 62 79  1  0  0  0  0
 63 67  1  0  0  0  0
 63 79  1  0  0  0  0
 64 68  1  0  0  0  0
 64 76  1  0  0  0  0
 65 78  1  0  0  0  0
 66 77  1  0  0  0  0
 69 70  1  0  0  0  0
M  CHG  2  78   1  79   1
M  ISO  4  38 100  61 101  77 100  86 101
M  END
> <Batch ID>
0096

> <Smiles>
CCc1cc([101CH2:1][101O:1]c2ccc3c(c2)CN(C(=O)C(NC(=O)C(C)NC)C(C)(C)C)C(C(=O)NC2CCCc4ccccc42)C3)ccc1C(C)(C)CNCC(C)[100NH:0][100C:0](=O)N1CCCC(n2nc(-c3ccc(Oc4ccc(F)cc4F)cc3)c(C(N)=O)c2N)C1

> <Shape>
0.186

> <Color>
0.058

> <Negative vol penalty>
0.000

$$$$

  -OEChem-04052319243D

 77 84  0     1  0  0  0  0  0999 V2000
  -29.7729  -26.7674   16.9812 C   0  0  0  0  0  0  0  0  0  0  0  0
  -28.7094  -26.0973   17.5772 C   0  0  0  0  0  0  0  0  0  0  0  0
  -25.3818  -30.9780   23.6922 C   0  0  0  0  0  0  0  0  0  0  0  0
  -26.0593  -28.8565   24.6287 C   0  0  0  0  0  0  0  0  0  0  0  0
  -30.9854  -26.1091   16.7801 C   0  0  0  0  0  0  0  0  0  0  0  0
  -28.8575  -24.7680   17.9715 C   0  0  0  0  0  0  0  0  0  0  0  0
  -26.9619  -23.8872   22.5841 C   0  0  0  0  0  0  0  0  0  0  0  0
  -26.2538  -31.6385   24.5575 C   0  0  0  0  0  0  0  0  0  0  0  0
  -26.9314  -29.5170   25.4940 C   0  0  0  0  0  0  0  0  0  0  0  0
  -25.5778  -23.7567   22.6894 C   0  0  0  0  0  0  0  0  0  0  0  0
  -29.5699  -32.2713   24.7479 C   0  0  0  0  0  0  0  0  0  0  0  0
  -30.3678  -33.2840   24.2157 C   0  0  0  0  0  0  0  0  0  0  0  0
  -25.8134  -21.3563   22.7324 C   0  0  0  0  0  0  0  0  0  0  0  0
  -29.3680  -34.8718   25.7376 C   0  0  0  0  0  0  0  0  0  0  0  0
  -25.2844  -29.5870   23.7278 C   0  0  0  0  0  0  0  0  0  0  0  0
  -24.6687  -28.4245   21.5421 C   0  0  0  0  0  0  0  0  0  0  0  0
  -31.1515  -24.7741   17.1809 C   0  0  0  0  0  0  0  0  0  0  0  0
  -27.7827  -22.7510   22.5411 C   0  0  0  0  0  0  0  0  0  0  0  0
  -30.0729  -24.0908   17.7744 C   0  0  0  0  0  0  0  0  0  0  0  0
  -27.2078  -21.4751   22.6291 C   0  0  0  0  0  0  0  0  0  0  0  0
  -27.0286  -30.9080   25.4584 C   0  0  0  0  0  0  0  0  0  0  0  0
  -25.0032  -22.4911   22.7607 C   0  0  0  0  0  0  0  0  0  0  0  0
  -28.6709  -32.5588   25.7749 C   0  0  0  0  0  0  0  0  0  0  0  0
  -30.2669  -34.5842   24.7105 C   0  0  0  0  0  0  0  0  0  0  0  0
  -28.5699  -33.8590   26.2698 C   0  0  0  0  0  0  0  0  0  0  0  0
  -24.3834  -28.9042   22.8345 C   0  0  0  0  0  0  0  0  0  0  0  0
  -23.4907  -27.8600   21.1176 C   0  0  0  0  0  0  0  0  0  0  0  0
  -25.8894  -28.4839   20.7924 C   0  0  0  0  0  0  0  0  0  0  0  0
  -29.8019  -21.5216   20.4161 C   0  0  0  0  0  0  0  0  0  0  0  0
  -30.4303  -19.4229   22.8083 C   0  0  0  0  0  0  0  0  0  0  0  0
  -29.3711  -17.8816   25.6630 C   0  0  0  0  0  0  0  0  0  0  0  0
  -18.8001  -25.5394   24.0268 C   0  0  0  0  0  0  0  0  0  0  0  0
  -32.4658  -24.0898   16.8997 C   0  0  0  0  0  0  0  0  0  0  0  0
  -29.2760  -22.9093   22.4542 C   0  0  0  0  0  0  0  0  0  0  0  0
  -28.0465  -20.2242   22.6074 C   0  0  0  0  0  0  0  0  0  0  0  0
  -32.6597  -22.7962   17.6867 C   0  0  0  0  0  0  0  0  0  0  0  0
  -18.7525  -28.2149   21.6782 C   0  0  0  0  0  0  0  0  0  0  0  0
  -31.4032  -21.9343   17.6148 C   0  0  0  0  0  0  0  0  0  0  0  0
  -20.2160  -28.6517   21.5916 C   0  0  0  0  0  0  0  0  0  0  0  0
  -18.3719  -27.7948   23.0962 C   0  0  0  0  0  0  0  0  0  0  0  0
  -20.7096  -27.2049   23.6071 C   0  0  0  0  0  0  0  0  0  0  0  0
  -30.2025  -22.6562   18.2383 C   0  0  1  0  0  0  0  0  0  0  0  0
  -29.9768  -21.6724   21.9008 C   0  0  1  0  0  0  0  0  0  0  0  0
  -21.1556  -27.5846   22.1847 C   0  0  2  0  0  0  0  0  0  0  0  0
  -30.0888  -16.1877   27.3697 C   0  0  0  0  0  0  0  0  0  0  0  0
  -18.3776  -22.6125   22.7429 C   0  0  0  0  0  0  0  0  0  0  0  0
  -29.8423  -17.1795   20.8256 C   0  0  0  0  0  0  0  0  0  0  0  0
  -29.6392  -15.6114   22.7668 C   0  0  0  0  0  0  0  0  0  0  0  0
  -31.8054  -16.7644   22.3183 C   0  0  0  0  0  0  0  0  0  0  0  0
  -29.2377  -19.8639   27.8565 C   0  0  0  0  0  0  0  0  0  0  0  0
  -21.8291  -21.5468   24.2281 C   0  0  0  0  0  0  0  0  0  0  0  0
  -20.7691  -21.9892   23.2120 C   0  0  0  0  0  0  0  0  0  0  0  0
  -19.3890  -23.3123   24.9501 C   0  0  0  0  0  0  0  0  0  0  0  0
  -23.1612  -21.2182   23.5624 C   0  0  0  0  0  0  0  0  0  1  0  0
  -29.8619  -18.0928   23.2404 C   0  0  1  0  0  0  0  0  0  0  0  0
  -30.0523  -17.6629   27.0019 C   0  0  2  0  0  0  0  0  0  0  0  0
  -19.3845  -22.2496   23.8407 C   0  0  1  0  0  0  0  0  0  0  0  0
  -30.2710  -16.9353   22.2862 C   0  0  0  0  0  0  0  0  0  0  0  0
  -23.1230  -28.6653   23.2066 N   0  0  0  0  0  0  0  0  0  0  0  0
  -22.6058  -28.0295   22.1415 N   0  0  0  0  0  0  0  0  0  0  0  0
  -29.5012  -20.4311   22.5150 N   0  0  0  0  0  0  0  0  0  0  0  0
  -19.3009  -26.7801   23.5994 N   0  0  0  0  0  0  0  0  0  0  0  0
  -23.1359  -27.2402   19.9720 N   0  0  0  0  0  0  0  0  0  0  0  0
  -27.0040  -29.0993   21.3782 N   0  0  0  0  0  0  0  0  0  0  0  0
  -30.2702  -22.5949   19.6826 N   0  0  0  0  0  0  0  0  0  0  0  0
  -30.2788  -17.9012   24.6253 N   0  0  0  0  0  0  0  0  0  0  0  0
  -19.7489  -24.6326   24.4831 N   0  0  0  0  0  0  0  0  0  0  0  0
  -29.3285  -18.3977   28.0775 N   0  3  0  0  0  0  0  0  0  0  0  0
  -25.9841  -28.0200   19.6308 O   0  0  0  0  0  0  0  0  0  0  0  0
  -29.2819  -20.5060   19.9690 O   0  0  0  0  0  0  0  0  0  0  0  0
  -31.6539  -19.5643   22.7406 O   0  0  0  0  0  0  0  0  0  0  0  0
  -28.1550  -18.0175   25.5487 O   0  0  0  0  0  0  0  0  0  0  0  0
  -17.5971  -25.2585   23.9985 O   0  0  0  0  0  0  0  0  0  0  0  0
  -27.8799  -31.5522   26.3028 O   0  0  0  0  0  0  0  0  0  0  0  0
  -23.6524  -22.3609   22.8629 O   0  0  0  0  0  0  0  0  0  1  0  0
  -31.0344  -35.5562   24.2004 F   0  0  0  0  0  0  0  0  0  0  0  0
  -27.7090  -34.1411   27.2572 F   0  0  0  0  0  0  0  0  0  0  0  0
  1  2  1  0  0  0  0
  1  5  2  0  0  0  0
  2  6  2  0  0  0  0
  3  8  2  0  0  0  0
  3 15  1  0  0  0  0
  4  9  1  0  0  0  0
  4 15  2  0  0  0  0
  5 17  1  0  0  0  0
  6 19  1  0  0  0  0
  7 10  2  0  0  0  0
  7 18  1  0  0  0  0
  8 21  1  0  0  0  0
  9 21  2  0  0  0  0
 10 22  1  0  0  0  0
 11 12  2  0  0  0  0
 11 23  1  0  0  0  0
 12 24  1  0  0  0  0
 13 20  1  0  0  0  0
 13 22  2  0  0  0  0
 14 24  2  0  0  0  0
 14 25  1  0  0  0  0
 15 26  1  0  0  0  0
 16 26  1  0  0  0  0
 16 27  2  0  0  0  0
 16 28  1  0  0  0  0
 17 19  2  0  0  0  0
 17 33  1  0  0  0  0
 18 20  2  0  0  0  0
 18 34  1  0  0  0  0
 19 42  1  0  0  0  0
 20 35  1  0  0  0  0
 21 74  1  0  0  0  0
 22 75  1  0  0  0  0
 23 25  2  0  0  0  0
 23 74  1  0  0  0  0
 24 76  1  0  0  0  0
 25 77  1  0  0  0  0
 26 59  2  0  0  0  0
 27 60  1  0  0  0  0
 27 63  1  0  0  0  0
 28 64  1  0  0  0  0
 28 69  2  0  0  0  0
 29 43  1  0  0  0  0
 29 65  1  0  0  0  0
 29 70  2  0  0  0  0
 30 55  1  0  0  0  0
 30 61  1  0  0  0  0
 30 71  2  0  0  0  0
 31 56  1  0  0  0  0
 31 66  1  0  0  0  0
 31 72  2  0  0  0  0
 32 62  1  0  0  0  0
 32 67  1  0  0  0  0
 32 73  2  0  0  0  0
 33 36  1  0  0  0  0
 34 43  1  0  0  0  0
 35 61  1  0  0  0  0
 36 38  1  0  0  0  0
 37 39  1  0  0  0  0
 37 40  1  0  0  0  0
 38 42  1  0  0  0  0
 39 44  1  0  0  0  0
 40 62  1  0  0  0  0
 41 44  1  0  0  0  0
 41 62  1  0  0  0  0
 42 65  1  0  0  0  0
 43 61  1  0  0  0  0
 44 60  1  0  0  0  0
 45 56  1  0  0  0  0
 46 57  1  0  0  0  0
 47 58  1  0  0  0  0
 48 58  1  0  0  0  0
 49 58  1  0  0  0  0
 50 68  1  0  0  0  0
 51 52  1  0  0  0  0
 51 54  1  0  0  0  0
 52 57  1  0  0  0  0
 53 57  1  0  0  0  0
 53 67  1  0  0  0  0
 54 75  1  0  0  0  0
 55 58  1  0  0  0  0
 55 66  1  0  0  0  0
 56 68  1  0  0  0  0
 59 60  1  0  0  0  0
M  CHG  1  68   1
M  ISO  4  32 100  54 101  67 100  75 101
M  END
> <Batch ID>
0096

> <Smiles>
CNC(C)C(=O)NC(C(=O)N1Cc2cc([101O:1][101CH2:1]CCC(C)C[100NH:0][100C:0](=O)N3CCCC(n4nc(-c5ccc(Oc6ccc(F)cc6F)cc5)c(C(N)=O)c4N)C3)ccc2CC1C(=O)NC1CCCc2ccccc21)C(C)(C)C

> <Shape>
0.196

> <Color>
0.053

> <Negative vol penalty>
0.000

$$$$

  -OEChem-04052319243D

 81 88  0     1  0  0  0  0  0999 V2000
  -16.6182  -29.2165   24.1597 C   0  0  0  0  0  0  0  0  0  0  0  0
  -17.1670  -28.1982   23.3869 C   0  0  0  0  0  0  0  0  0  0  0  0
  -26.6502  -12.5755   21.6389 C   0  0  0  0  0  0  0  0  0  0  0  0
  -26.1079  -13.7298   19.5869 C   0  0  0  0  0  0  0  0  0  0  0  0
  -17.2076  -30.4800   24.1664 C   0  0  0  0  0  0  0  0  0  0  0  0
  -18.3051  -28.4432   22.6194 C   0  0  0  0  0  0  0  0  0  0  0  0
  -22.8510  -24.5188   21.4193 C   0  0  0  0  0  0  0  0  0  0  0  0
  -25.3605  -12.0460   21.6819 C   0  0  0  0  0  0  0  0  0  0  0  0
  -24.8182  -13.2003   19.6299 C   0  0  0  0  0  0  0  0  0  0  0  0
  -23.1245  -23.7086   20.3182 C   0  0  0  0  0  0  0  0  0  0  0  0
  -23.6465   -9.5383   20.1967 C   0  0  0  0  0  0  0  0  0  0  0  0
  -23.5119   -8.1826   20.4961 C   0  0  0  0  0  0  0  0  0  0  0  0
  -24.6018  -25.4041   19.4451 C   0  0  0  0  0  0  0  0  0  0  0  0
  -22.1885   -8.7429   22.4382 C   0  0  0  0  0  0  0  0  0  0  0  0
  -27.0239  -13.4174   20.5914 C   0  0  0  0  0  0  0  0  0  0  0  0
  -29.4874  -13.3993   19.9292 C   0  0  0  0  0  0  0  0  0  0  0  0
  -18.3592  -30.7379   23.4061 C   0  0  0  0  0  0  0  0  0  0  0  0
  -23.4434  -25.7844   21.5364 C   0  0  0  0  0  0  0  0  0  0  0  0
  -18.9098  -29.7117   22.6148 C   0  0  0  0  0  0  0  0  0  0  0  0
  -24.3361  -26.2274   20.5500 C   0  0  0  0  0  0  0  0  0  0  0  0
  -24.4445  -12.3584   20.6775 C   0  0  0  0  0  0  0  0  0  0  0  0
  -23.9978  -24.1524   19.3294 C   0  0  0  0  0  0  0  0  0  0  0  0
  -23.0521  -10.4963   21.0180 C   0  0  0  0  0  0  0  0  0  0  0  0
  -22.7829   -7.7849   21.6168 C   0  0  0  0  0  0  0  0  0  0  0  0
  -22.3231  -10.0986   22.1387 C   0  0  0  0  0  0  0  0  0  0  0  0
  -28.3559  -13.9651   20.5467 C   0  0  0  0  0  0  0  0  0  0  0  0
  -30.4959  -14.3005   20.1686 C   0  0  0  0  0  0  0  0  0  0  0  0
  -29.6154  -12.1692   19.2039 C   0  0  0  0  0  0  0  0  0  0  0  0
  -22.3539  -28.7677   21.6662 C   0  0  0  0  0  0  0  0  0  0  0  0
  -25.4694  -29.4669   22.2380 C   0  0  0  0  0  0  0  0  0  0  0  0
  -30.4165  -20.1953   21.3338 C   0  0  0  0  0  0  0  0  0  0  0  0
  -28.7455  -28.5615   21.9309 C   0  0  0  0  0  0  0  0  0  0  0  0
  -18.9334  -32.1325   23.4085 C   0  0  0  0  0  0  0  0  0  0  0  0
  -23.1587  -26.6352   22.7436 C   0  0  0  0  0  0  0  0  0  0  0  0
  -25.0138  -27.5695   20.6388 C   0  0  0  0  0  0  0  0  0  0  0  0
  -20.3557  -32.2066   22.8591 C   0  0  0  0  0  0  0  0  0  0  0  0
  -31.9045  -17.6069   23.3153 C   0  0  0  0  0  0  0  0  0  0  0  0
  -20.4678  -31.4159   21.5594 C   0  0  0  0  0  0  0  0  0  0  0  0
  -31.2449  -16.3311   22.7933 C   0  0  0  0  0  0  0  0  0  0  0  0
  -30.9348  -18.7844   23.2972 C   0  0  0  0  0  0  0  0  0  0  0  0
  -29.6585  -17.7691   21.4366 C   0  0  0  0  0  0  0  0  0  0  0  0
  -20.1582  -29.9316   21.7882 C   0  0  1  0  0  0  0  0  0  0  0  0
  -23.4195  -28.1191   22.5038 C   0  0  1  0  0  0  0  0  0  0  0  0
  -30.6129  -16.5621   21.4092 C   0  0  2  0  0  0  0  0  0  0  0  0
  -31.0664  -29.3541   22.4624 C   0  0  0  0  0  0  0  0  0  0  0  0
  -24.8072  -21.5352   16.0316 C   0  0  0  0  0  0  0  0  0  0  0  0
  -30.0005  -21.7335   19.4802 C   0  0  0  0  0  0  0  0  0  0  0  0
  -30.4891  -19.3200   19.0203 C   0  0  0  0  0  0  0  0  0  0  0  0
  -25.3188  -31.4513   19.9251 C   0  0  0  0  0  0  0  0  0  0  0  0
  -27.8219  -31.4930   19.8895 C   0  0  0  0  0  0  0  0  0  0  0  0
  -26.5921  -32.2660   21.9175 C   0  0  0  0  0  0  0  0  0  0  0  0
  -29.2792  -26.2121   23.6496 C   0  0  0  0  0  0  0  0  0  0  0  0
  -25.8259  -18.1255   19.5886 C   0  0  0  0  0  0  0  0  0  0  0  0
  -28.2668  -20.0148   20.0749 C   0  0  0  0  0  0  0  0  0  0  0  0
  -27.5931  -19.6665   18.7500 C   0  0  0  0  0  0  0  0  0  0  0  0
  -25.3022  -19.7532   17.7779 C   0  0  0  0  0  0  0  0  0  0  0  0
  -24.2090  -21.9519   18.4524 C   0  0  0  0  0  0  0  0  0  1  0  0
  -26.6661  -29.7969   21.3790 C   0  0  1  0  0  0  0  0  0  0  0  0
  -29.8805  -28.5297   22.9384 C   0  0  2  0  0  0  0  0  0  0  0  0
  -25.1801  -21.2543   17.4916 C   0  0  2  0  0  0  0  0  0  0  0  0
  -29.7831  -20.2945   19.9689 C   0  0  0  0  0  0  0  0  0  0  0  0
  -26.5856  -31.2273   20.7748 C   0  0  0  0  0  0  0  0  0  0  0  0
  -28.6202  -15.1351   21.1344 N   0  0  0  0  0  0  0  0  0  0  0  0
  -29.9293  -15.3117   20.8873 N   0  0  0  0  0  0  0  0  0  0  0  0
  -24.6983  -28.3674   21.8351 N   0  0  0  0  0  0  0  0  0  0  0  0
  -30.3389  -18.9568   21.9712 N   0  0  0  0  0  0  0  0  0  0  0  0
  -31.8032  -14.3186   19.8325 N   0  0  0  0  0  0  0  0  0  0  0  0
  -28.4797  -11.3624   19.0510 N   0  0  0  0  0  0  0  0  0  0  0  0
  -21.2913  -29.2666   22.3951 N   0  0  0  0  0  0  0  0  0  0  0  0
  -27.8421  -29.5649   22.2107 N   0  0  0  0  0  0  0  0  0  0  0  0
  -30.3395  -27.1289   23.1575 N   0  3  0  0  0  0  0  0  0  0  0  0
  -26.1139  -19.4802   18.9877 N   0  3  1  0  0  0  0  0  0  0  0  0
  -30.7085  -11.7886   18.7201 O   0  0  0  0  0  0  0  0  0  0  0  0
  -22.4867  -28.8135   20.4488 O   0  0  0  0  0  0  0  0  0  0  0  0
  -25.2318  -30.1548   23.2340 O   0  0  0  0  0  0  0  0  0  0  0  0
  -30.9661  -21.1890   21.8161 O   0  0  0  0  0  0  0  0  0  0  0  0
  -28.6700  -27.7773   20.9875 O   0  0  0  0  0  0  0  0  0  0  0  0
  -23.1859  -11.8418   20.7190 O   0  0  0  0  0  0  0  0  0  0  0  0
  -24.2660  -23.3638   18.2533 O   0  0  0  0  0  0  0  0  0  1  0  0
  -22.6525   -6.4830   21.9033 F   0  0  0  0  0  0  0  0  0  0  0  0
  -21.7488  -11.0143   22.9309 F   0  0  0  0  0  0  0  0  0  0  0  0
  1  2  1  0  0  0  0
  1  5  2  0  0  0  0
  2  6  2  0  0  0  0
  3  8  2  0  0  0  0
  3 15  1  0  0  0  0
  4  9  1  0  0  0  0
  4 15  2  0  0  0  0
  5 17  1  0  0  0  0
  6 19  1  0  0  0  0
  7 10  2  0  0  0  0
  7 18  1  0  0  0  0
  8 21  1  0  0  0  0
  9 21  2  0  0  0  0
 10 22  1  0  0  0  0
 11 12  2  0  0  0  0
 11 23  1  0  0  0  0
 12 24  1  0  0  0  0
 13 20  1  0  0  0  0
 13 22  2  0  0  0  0
 14 24  2  0  0  0  0
 14 25  1  0  0  0  0
 15 26  1  0  0  0  0
 16 26  1  0  0  0  0
 16 27  2  0  0  0  0
 16 28  1  0  0  0  0
 17 19  2  0  0  0  0
 17 33  1  0  0  0  0
 18 20  2  0  0  0  0
 18 34  1  0  0  0  0
 19 42  1  0  0  0  0
 20 35  1  0  0  0  0
 21 78  1  0  0  0  0
 22 79  1  0  0  0  0
 23 25  2  0  0  0  0
 23 78  1  0  0  0  0
 24 80  1  0  0  0  0
 25 81  1  0  0  0  0
 26 63  2  0  0  0  0
 27 64  1  0  0  0  0
 27 67  1  0  0  0  0
 28 68  1  0  0  0  0
 28 73  2  0  0  0  0
 29 43  1  0  0  0  0
 29 69  1  0  0  0  0
 29 74  2  0  0  0  0
 30 58  1  0  0  0  0
 30 65  1  0  0  0  0
 30 75  2  0  0  0  0
 31 61  1  0  0  0  0
 31 66  1  0  0  0  0
 31 76  2  0  0  0  0
 32 59  1  0  0  0  0
 32 70  1  0  0  0  0
 32 77  2  0  0  0  0
 33 36  1  0  0  0  0
 34 43  1  0  0  0  0
 35 65  1  0  0  0  0
 36 38  1  0  0  0  0
 37 39  1  0  0  0  0
 37 40  1  0  0  0  0
 38 42  1  0  0  0  0
 39 44  1  0  0  0  0
 40 66  1  0  0  0  0
 41 44  1  0  0  0  0
 41 66  1  0  0  0  0
 42 69  1  0  0  0  0
 43 65  1  0  0  0  0
 44 64  1  0  0  0  0
 45 59  1  0  0  0  0
 46 60  1  0  0  0  0
 47 61  1  0  0  0  0
 48 61  1  0  0  0  0
 49 62  1  0  0  0  0
 50 62  1  0  0  0  0
 51 62  1  0  0  0  0
 52 71  1  0  0  0  0
 53 72  1  0  0  0  0
 54 55  1  0  0  0  0
 54 61  1  0  0  0  0
 55 72  1  0  0  0  0
 56 60  1  0  0  0  0
 56 72  1  0  0  0  0
 57 60  1  0  0  0  0
 57 79  1  0  0  0  0
 58 62  1  0  0  0  0
 58 70  1  0  0  0  0
 59 71  1  0  0  0  0
 63 64  1  0  0  0  0
M  CHG  2  71   1  72   1
M  ISO  4  31 100  57 101  61 100  79 101
M  END
> <Batch ID>
0096

> <Smiles>
CNC(C)C(=O)NC(C(=O)N1Cc2cc([101O:1][101CH2:1]C(C)CN(C)CC[100C:0](C)(C)[100C:0](=O)N3CCCC(n4nc(-c5ccc(Oc6ccc(F)cc6F)cc5)c(C(N)=O)c4N)C3)ccc2CC1C(=O)NC1CCCc2ccccc21)C(C)(C)C

> <Shape>
0.289

> <Color>
0.090

> <Negative vol penalty>
0.000

$$$$

  -OEChem-04052319243D

 84 92  0     1  0  0  0  0  0999 V2000
  -22.2752  -11.2087   21.3253 C   0  0  0  0  0  0  0  0  0  0  0  0
  -21.9809  -12.5118   21.7138 C   0  0  0  0  0  0  0  0  0  0  0  0
  -27.6334  -29.1699   18.6803 C   0  0  0  0  0  0  0  0  0  0  0  0
  -28.6135  -29.3938   20.8772 C   0  0  0  0  0  0  0  0  0  0  0  0
  -23.5670  -10.8791   20.9174 C   0  0  0  0  0  0  0  0  0  0  0  0
  -22.9786  -13.4857   21.6956 C   0  0  0  0  0  0  0  0  0  0  0  0
  -21.4002  -17.8461   19.6606 C   0  0  0  0  0  0  0  0  0  0  0  0
  -28.9031  -29.2379   18.1069 C   0  0  0  0  0  0  0  0  0  0  0  0
  -29.8833  -29.4616   20.3038 C   0  0  0  0  0  0  0  0  0  0  0  0
  -20.6156  -18.6751   20.4611 C   0  0  0  0  0  0  0  0  0  0  0  0
  -31.9162  -28.9898   16.0882 C   0  0  0  0  0  0  0  0  0  0  0  0
  -32.2236  -28.0731   15.0829 C   0  0  0  0  0  0  0  0  0  0  0  0
  -22.5518  -20.0299   20.9454 C   0  0  0  0  0  0  0  0  0  0  0  0
  -31.8445  -26.2534   16.6263 C   0  0  0  0  0  0  0  0  0  0  0  0
  -19.1497  -27.4487   23.7410 C   0  0  0  0  0  0  0  0  0  0  0  0
  -27.4886  -29.2479   20.0655 C   0  0  0  0  0  0  0  0  0  0  0  0
  -25.4954  -28.0214   21.0806 C   0  0  0  0  0  0  0  0  0  0  0  0
  -24.5788  -11.8517   20.8850 C   0  0  0  0  0  0  0  0  0  0  0  0
  -22.7711  -18.0968   19.5050 C   0  0  0  0  0  0  0  0  0  0  0  0
  -24.2855  -13.1685   21.2881 C   0  0  0  0  0  0  0  0  0  0  0  0
  -23.3511  -19.2041   20.1403 C   0  0  0  0  0  0  0  0  0  0  0  0
  -19.0212  -26.6409   22.6376 C   0  0  0  0  0  0  0  0  0  0  0  0
  -30.0280  -29.3837   18.9186 C   0  0  0  0  0  0  0  0  0  0  0  0
  -21.1919  -19.7655   21.1060 C   0  0  0  0  0  0  0  0  0  0  0  0
  -31.5729  -28.5384   17.3626 C   0  0  0  0  0  0  0  0  0  0  0  0
  -32.1878  -26.7049   15.3519 C   0  0  0  0  0  0  0  0  0  0  0  0
  -31.5371  -27.1702   17.6317 C   0  0  0  0  0  0  0  0  0  0  0  0
  -26.1772  -29.1784   20.6583 C   0  0  0  0  0  0  0  0  0  0  0  0
  -19.2430  -27.5000   21.5447 C   0  0  0  0  0  0  0  0  0  0  0  0
  -24.2986  -28.4868   21.5681 C   0  0  0  0  0  0  0  0  0  0  0  0
  -25.9072  -26.6488   21.0363 C   0  0  0  0  0  0  0  0  0  0  0  0
  -25.4350  -16.5054   20.1940 C   0  0  0  0  0  0  0  0  0  0  0  0
  -26.8470  -18.9578   18.6083 C   0  0  0  0  0  0  0  0  0  0  0  0
  -26.6877  -22.1994   17.5533 C   0  0  0  0  0  0  0  0  0  0  0  0
  -21.7793  -32.3562   24.8843 C   0  0  0  0  0  0  0  0  0  0  0  0
  -25.9717  -11.4371   20.4817 C   0  0  0  0  0  0  0  0  0  0  0  0
  -23.5983  -17.2086   18.6166 C   0  0  0  0  0  0  0  0  0  0  0  0
  -24.8142  -19.5285   19.9895 C   0  0  0  0  0  0  0  0  0  0  0  0
  -26.8805  -12.6132   20.1337 C   0  0  0  0  0  0  0  0  0  0  0  0
  -22.1498  -33.0460   21.2665 C   0  0  0  0  0  0  0  0  0  0  0  0
  -26.7644  -13.7082   21.1893 C   0  0  0  0  0  0  0  0  0  0  0  0
  -23.2283  -32.0489   20.8461 C   0  0  0  0  0  0  0  0  0  0  0  0
  -22.2902  -33.4492   22.7313 C   0  0  0  0  0  0  0  0  0  0  0  0
  -23.3966  -31.3002   23.2527 C   0  0  0  0  0  0  0  0  0  0  0  0
  -25.3348  -14.2586   21.2584 C   0  0  1  0  0  0  0  0  0  0  0  0
  -25.0880  -17.2593   18.9414 C   0  0  1  0  0  0  0  0  0  0  0  0
  -23.2555  -30.8378   21.7946 C   0  0  2  0  0  0  0  0  0  0  0  0
  -19.2254  -27.1606   20.1110 C   0  0  0  0  0  0  0  0  0  0  0  0
  -28.0095  -23.9342   16.3119 C   0  0  0  0  0  0  0  0  0  0  0  0
  -28.6218  -19.3550   21.0582 C   0  0  0  0  0  0  0  0  0  0  0  0
  -29.2242  -21.6165   20.1687 C   0  0  0  0  0  0  0  0  0  0  0  0
  -29.8061  -19.5702   18.8661 C   0  0  0  0  0  0  0  0  0  0  0  0
  -20.6452  -31.2009   26.7441 C   0  0  0  0  0  0  0  0  0  0  0  0
  -24.6127  -22.4482   15.4578 C   0  0  0  0  0  0  0  0  0  0  0  0
  -18.7112  -25.1653   22.6158 C   0  0  0  0  0  0  0  0  0  0  0  0
  -19.9289  -24.2810   22.3252 C   0  0  0  0  0  0  0  0  0  0  0  0
  -19.5807  -22.7948   22.2308 C   0  0  0  0  0  0  0  0  0  0  0  0
  -19.6502  -29.8851   24.0455 C   0  0  0  0  0  0  0  0  0  0  0  0
  -21.0465  -29.9447   24.6593 C   0  0  0  0  0  0  0  0  0  0  0  0
  -20.8194  -21.9452   21.9813 C   0  0  0  0  0  0  0  0  0  1  0  0
  -27.3923  -20.3103   18.9987 C   0  0  1  0  0  0  0  0  0  0  0  0
  -26.9654  -22.8338   16.2024 C   0  0  2  0  0  0  0  0  0  0  0  0
  -28.7339  -20.2060   19.7775 C   0  0  0  0  0  0  0  0  0  0  0  0
  -25.4721  -30.2948   20.8597 N   0  0  0  0  0  0  0  0  0  0  0  0
  -19.4933  -28.7573   21.9197 N   0  0  0  0  0  0  0  0  0  0  0  0
  -19.4295  -28.6941   23.2606 N   0  0  0  0  0  0  0  0  0  0  0  0
  -24.3348  -29.8414   21.4138 N   0  0  0  0  0  0  0  0  0  0  0  0
  -25.5824  -18.6266   19.1154 N   0  0  0  0  0  0  0  0  0  0  0  0
  -22.3571  -32.2784   23.6065 N   0  0  0  0  0  0  0  0  0  0  0  0
  -23.2294  -27.8652   22.1092 N   0  0  0  0  0  0  0  0  0  0  0  0
  -27.1678  -26.3462   20.5038 N   0  0  0  0  0  0  0  0  0  0  0  0
  -25.0896  -15.1678   20.1594 N   0  0  0  0  0  0  0  0  0  0  0  0
  -27.4752  -21.0879   17.7671 N   0  0  0  0  0  0  0  0  0  0  0  0
  -21.2645  -31.1690   25.4268 N   0  0  0  0  0  0  0  0  0  0  0  0
  -25.7175  -23.4242   15.6411 N   0  3  0  0  0  0  0  0  0  0  0  0
  -25.1720  -25.7165   21.4413 O   0  0  0  0  0  0  0  0  0  0  0  0
  -25.9772  -17.0932   21.1224 O   0  0  0  0  0  0  0  0  0  0  0  0
  -27.5152  -18.2251   17.8746 O   0  0  0  0  0  0  0  0  0  0  0  0
  -25.8581  -22.6474   18.3417 O   0  0  0  0  0  0  0  0  0  0  0  0
  -21.7180  -33.4276   25.5009 O   0  0  0  0  0  0  0  0  0  0  0  0
  -31.2672  -29.4498   18.3594 O   0  0  0  0  0  0  0  0  0  0  0  0
  -20.4284  -20.5760   21.8884 O   0  0  0  0  0  0  0  0  0  1  0  0
  -32.4815  -25.8246   14.3860 F   0  0  0  0  0  0  0  0  0  0  0  0
  -31.2069  -26.7304   18.8537 F   0  0  0  0  0  0  0  0  0  0  0  0
  1  2  1  0  0  0  0
  1  5  2  0  0  0  0
  2  6  2  0  0  0  0
  3  8  2  0  0  0  0
  3 16  1  0  0  0  0
  4  9  1  0  0  0  0
  4 16  2  0  0  0  0
  5 18  1  0  0  0  0
  6 20  1  0  0  0  0
  7 10  2  0  0  0  0
  7 19  1  0  0  0  0
  8 23  1  0  0  0  0
  9 23  2  0  0  0  0
 10 24  1  0  0  0  0
 11 12  2  0  0  0  0
 11 25  1  0  0  0  0
 12 26  1  0  0  0  0
 13 21  1  0  0  0  0
 13 24  2  0  0  0  0
 14 26  2  0  0  0  0
 14 27  1  0  0  0  0
 15 22  2  0  0  0  0
 15 66  1  0  0  0  0
 16 28  1  0  0  0  0
 17 28  1  0  0  0  0
 17 30  2  0  0  0  0
 17 31  1  0  0  0  0
 18 20  2  0  0  0  0
 18 36  1  0  0  0  0
 19 21  2  0  0  0  0
 19 37  1  0  0  0  0
 20 45  1  0  0  0  0
 21 38  1  0  0  0  0
 22 29  1  0  0  0  0
 22 55  1  0  0  0  0
 23 81  1  0  0  0  0
 24 82  1  0  0  0  0
 25 27  2  0  0  0  0
 25 81  1  0  0  0  0
 26 83  1  0  0  0  0
 27 84  1  0  0  0  0
 28 64  2  0  0  0  0
 29 48  1  0  0  0  0
 29 65  2  0  0  0  0
 30 67  1  0  0  0  0
 30 70  1  0  0  0  0
 31 71  1  0  0  0  0
 31 76  2  0  0  0  0
 32 46  1  0  0  0  0
 32 72  1  0  0  0  0
 32 77  2  0  0  0  0
 33 61  1  0  0  0  0
 33 68  1  0  0  0  0
 33 78  2  0  0  0  0
 34 62  1  0  0  0  0
 34 73  1  0  0  0  0
 34 79  2  0  0  0  0
 35 69  1  0  0  0  0
 35 74  1  0  0  0  0
 35 80  2  0  0  0  0
 36 39  1  0  0  0  0
 37 46  1  0  0  0  0
 38 68  1  0  0  0  0
 39 41  1  0  0  0  0
 40 42  1  0  0  0  0
 40 43  1  0  0  0  0
 41 45  1  0  0  0  0
 42 47  1  0  0  0  0
 43 69  1  0  0  0  0
 44 47  1  0  0  0  0
 44 69  1  0  0  0  0
 45 72  1  0  0  0  0
 46 68  1  0  0  0  0
 47 67  1  0  0  0  0
 49 62  1  0  0  0  0
 50 63  1  0  0  0  0
 51 63  1  0  0  0  0
 52 63  1  0  0  0  0
 53 74  1  0  0  0  0
 54 75  1  0  0  0  0
 55 56  1  0  0  0  0
 56 57  1  0  0  0  0
 57 60  1  0  0  0  0
 58 59  1  0  0  0  0
 58 66  1  0  0  0  0
 59 74  1  0  0  0  0
 60 82  1  0  0  0  0
 61 63  1  0  0  0  0
 61 73  1  0  0  0  0
 62 75  1  0  0  0  0
 64 67  1  0  0  0  0
 65 66  1  0  0  0  0
M  CHG  1  75   1
M  ISO  4  35 100  60 101  74 100  82 101
M  END
> <Batch ID>
0096

> <Smiles>
CNC(C)C(=O)NC(C(=O)N1Cc2cc([101O:1][101CH2:1]CCCc3cn(CC[100N:0](C)[100C:0](=O)N4CCCC(n5nc(-c6ccc(Oc7ccc(F)cc7F)cc6)c(C(N)=O)c5N)C4)nc3C)ccc2CC1C(=O)NC1CCCc2ccccc21)C(C)(C)C

> <Shape>
0.206

> <Color>
0.062

> <Negative vol penalty>
0.000

$$$$

  -OEChem-04052319243D

 86 94  0     1  0  0  0  0  0999 V2000
  -14.6469  -23.9917   13.3472 C   0  0  0  0  0  0  0  0  0  0  0  0
  -15.6808  -24.2628   14.2377 C   0  0  0  0  0  0  0  0  0  0  0  0
  -23.0714   -9.8700   19.9443 C   0  0  0  0  0  0  0  0  0  0  0  0
  -23.8343   -9.8787   22.2366 C   0  0  0  0  0  0  0  0  0  0  0  0
  -14.2289  -22.6770   13.1455 C   0  0  0  0  0  0  0  0  0  0  0  0
  -16.2965  -23.2192   14.9279 C   0  0  0  0  0  0  0  0  0  0  0  0
  -22.1965  -22.8372   16.5249 C   0  0  0  0  0  0  0  0  0  0  0  0
  -28.3184  -19.4115   24.3002 C   0  0  0  0  0  0  0  0  0  0  0  0
  -28.9013  -18.2759   24.8625 C   0  0  0  0  0  0  0  0  0  0  0  0
  -22.3277   -8.7172   20.1961 C   0  0  0  0  0  0  0  0  0  0  0  0
  -23.0905   -8.7258   22.4885 C   0  0  0  0  0  0  0  0  0  0  0  0
  -22.8640  -23.1032   17.7197 C   0  0  0  0  0  0  0  0  0  0  0  0
  -22.8997   -5.3988   20.4889 C   0  0  0  0  0  0  0  0  0  0  0  0
  -22.9652   -4.3685   19.5510 C   0  0  0  0  0  0  0  0  0  0  0  0
  -22.7433  -20.7650   18.3007 C   0  0  0  0  0  0  0  0  0  0  0  0
  -29.3610  -18.8980   22.1821 C   0  0  0  0  0  0  0  0  0  0  0  0
  -20.5802   -4.5344   19.2023 C   0  0  0  0  0  0  0  0  0  0  0  0
  -23.8248  -10.4507   20.9645 C   0  0  0  0  0  0  0  0  0  0  0  0
  -24.1669  -12.9757   20.8420 C   0  0  0  0  0  0  0  0  0  0  0  0
  -14.8462  -21.6159   13.8263 C   0  0  0  0  0  0  0  0  0  0  0  0
  -21.7871  -21.5326   16.2135 C   0  0  0  0  0  0  0  0  0  0  0  0
  -15.8854  -21.8892   14.7361 C   0  0  0  0  0  0  0  0  0  0  0  0
  -22.0731  -20.4847   17.1002 C   0  0  0  0  0  0  0  0  0  0  0  0
  -28.5482  -19.7226   22.9600 C   0  0  0  0  0  0  0  0  0  0  0  0
  -29.7140  -17.4513   24.0846 C   0  0  0  0  0  0  0  0  0  0  0  0
  -29.9439  -17.7623   22.7444 C   0  0  0  0  0  0  0  0  0  0  0  0
  -22.3372   -8.1451   21.4682 C   0  0  0  0  0  0  0  0  0  0  0  0
  -23.1349  -22.0676   18.6091 C   0  0  0  0  0  0  0  0  0  0  0  0
  -21.6745   -5.9970   20.7836 C   0  0  0  0  0  0  0  0  0  0  0  0
  -21.8055   -3.9363   18.9077 C   0  0  0  0  0  0  0  0  0  0  0  0
  -20.5148   -5.5648   20.1403 C   0  0  0  0  0  0  0  0  0  0  0  0
  -24.5937  -11.6412   20.7048 C   0  0  0  0  0  0  0  0  0  0  0  0
  -25.2587  -13.7247   20.4767 C   0  0  0  0  0  0  0  0  0  0  0  0
  -22.8970  -13.4921   21.2622 C   0  0  0  0  0  0  0  0  0  0  0  0
  -18.9844  -20.1234   15.7009 C   0  0  0  0  0  0  0  0  0  0  0  0
  -20.8443  -17.5767   14.9410 C   0  0  0  0  0  0  0  0  0  0  0  0
  -23.8403  -15.9760   15.2707 C   0  0  0  0  0  0  0  0  0  0  0  0
  -30.7429  -14.7429   20.6572 C   0  0  0  0  0  0  0  0  0  0  0  0
  -14.3281  -20.2160   13.6109 C   0  0  0  0  0  0  0  0  0  0  0  0
  -21.0917  -21.2578   14.9084 C   0  0  0  0  0  0  0  0  0  0  0  0
  -21.6727  -19.0633   16.8035 C   0  0  0  0  0  0  0  0  0  0  0  0
  -15.2837  -19.1308   14.1004 C   0  0  0  0  0  0  0  0  0  0  0  0
  -29.6017  -12.3567   18.2738 C   0  0  0  0  0  0  0  0  0  0  0  0
  -15.8050  -19.4674   15.4939 C   0  0  0  0  0  0  0  0  0  0  0  0
  -28.1648  -12.0636   18.7088 C   0  0  0  0  0  0  0  0  0  0  0  0
  -30.5205  -12.5783   19.4733 C   0  0  0  0  0  0  0  0  0  0  0  0
  -28.6207  -13.3108   20.8618 C   0  0  0  0  0  0  0  0  0  0  0  0
  -16.5947  -20.7818   15.4849 C   0  0  1  0  0  0  0  0  0  0  0  0
  -20.2656  -19.9755   14.9299 C   0  0  1  0  0  0  0  0  0  0  0  0
  -27.6449  -13.1355   19.6855 C   0  0  2  0  0  0  0  0  0  0  0  0
  -30.3281  -16.2414   24.7088 C   0  0  0  0  0  0  0  0  0  0  0  0
  -25.0503  -13.8949   14.5622 C   0  0  0  0  0  0  0  0  0  0  0  0
  -19.2281  -15.9536   16.9567 C   0  0  0  0  0  0  0  0  0  0  0  0
  -21.0371  -14.2234   16.9090 C   0  0  0  0  0  0  0  0  0  0  0  0
  -19.7590  -14.7467   14.8316 C   0  0  0  0  0  0  0  0  0  0  0  0
  -25.1448  -22.6760   22.3241 C   0  0  0  0  0  0  0  0  0  0  0  0
  -25.9412  -17.5308   13.8823 C   0  0  0  0  0  0  0  0  0  0  0  0
  -27.9176  -20.9521   22.3518 C   0  0  0  0  0  0  0  0  0  0  0  0
  -30.8107  -16.8945   21.8922 C   0  0  0  0  0  0  0  0  0  0  0  0
  -26.5416  -20.6343   21.7513 C   0  0  0  0  0  0  0  0  0  0  0  0
  -26.6481  -22.8075   20.3446 C   0  0  0  0  0  0  0  0  0  0  0  0
  -24.5964  -21.2794   20.3117 C   0  0  0  0  0  0  0  0  0  1  0  0
  -21.4391  -16.4205   15.7080 C   0  0  1  0  0  0  0  0  0  0  0  0
  -24.7690  -15.3549   14.2430 C   0  0  2  0  0  0  0  0  0  0  0  0
  -20.3718  -15.3630   16.1081 C   0  0  0  0  0  0  0  0  0  0  0  0
  -25.7572  -21.8487   21.1709 C   0  0  2  0  0  0  0  0  0  0  0  0
  -25.8580  -11.5448   20.2850 N   0  0  0  0  0  0  0  0  0  0  0  0
  -26.2350  -12.8282   20.1551 N   0  0  0  0  0  0  0  0  0  0  0  0
  -20.9896  -18.8465   15.5175 N   0  0  0  0  0  0  0  0  0  0  0  0
  -29.9712  -13.6076   20.3592 N   0  0  0  0  0  0  0  0  0  0  0  0
  -25.4692  -15.0561   20.4024 N   0  0  0  0  0  0  0  0  0  0  0  0
  -21.8854  -12.5834   21.6015 N   0  0  0  0  0  0  0  0  0  0  0  0
  -17.9199  -20.5715   14.9424 N   0  0  0  0  0  0  0  0  0  0  0  0
  -22.5201  -15.8950   14.8811 N   0  0  0  0  0  0  0  0  0  0  0  0
  -30.1450  -15.6725   21.4992 N   0  0  0  0  0  0  0  0  0  0  0  0
  -27.2822  -22.1278   19.1889 N   0  3  0  0  0  0  0  0  0  0  0  0
  -26.0667  -16.0868   14.2082 N   0  3  0  0  0  0  0  0  0  0  0  0
  -22.6611  -14.7228   21.3188 O   0  0  0  0  0  0  0  0  0  0  0  0
  -18.9629  -19.8496   16.8952 O   0  0  0  0  0  0  0  0  0  0  0  0
  -20.2780  -17.3620   13.8663 O   0  0  0  0  0  0  0  0  0  0  0  0
  -24.2452  -16.4791   16.3164 O   0  0  0  0  0  0  0  0  0  0  0  0
  -31.8783  -14.9178   20.2019 O   0  0  0  0  0  0  0  0  0  0  0  0
  -21.6113   -7.0203   21.7144 O   0  0  0  0  0  0  0  0  0  0  0  0
  -23.7857  -22.3246   19.7763 O   0  0  0  0  0  0  0  0  0  1  0  0
  -21.8687   -2.9479   18.0059 F   0  0  0  0  0  0  0  0  0  0  0  0
  -19.3351   -6.1364   20.4183 F   0  0  0  0  0  0  0  0  0  0  0  0
  1  2  1  0  0  0  0
  1  5  2  0  0  0  0
  2  6  2  0  0  0  0
  3 10  2  0  0  0  0
  3 18  1  0  0  0  0
  4 11  1  0  0  0  0
  4 18  2  0  0  0  0
  5 20  1  0  0  0  0
  6 22  1  0  0  0  0
  7 12  2  0  0  0  0
  7 21  1  0  0  0  0
  8  9  2  0  0  0  0
  8 24  1  0  0  0  0
  9 25  1  0  0  0  0
 10 27  1  0  0  0  0
 11 27  2  0  0  0  0
 12 28  1  0  0  0  0
 13 14  2  0  0  0  0
 13 29  1  0  0  0  0
 14 30  1  0  0  0  0
 15 23  1  0  0  0  0
 15 28  2  0  0  0  0
 16 24  2  0  0  0  0
 16 26  1  0  0  0  0
 17 30  2  0  0  0  0
 17 31  1  0  0  0  0
 18 32  1  0  0  0  0
 19 32  1  0  0  0  0
 19 33  2  0  0  0  0
 19 34  1  0  0  0  0
 20 22  2  0  0  0  0
 20 39  1  0  0  0  0
 21 23  2  0  0  0  0
 21 40  1  0  0  0  0
 22 48  1  0  0  0  0
 23 41  1  0  0  0  0
 24 58  1  0  0  0  0
 25 26  2  0  0  0  0
 25 51  1  0  0  0  0
 26 59  1  0  0  0  0
 27 83  1  0  0  0  0
 28 84  1  0  0  0  0
 29 31  2  0  0  0  0
 29 83  1  0  0  0  0
 30 85  1  0  0  0  0
 31 86  1  0  0  0  0
 32 67  2  0  0  0  0
 33 68  1  0  0  0  0
 33 71  1  0  0  0  0
 34 72  1  0  0  0  0
 34 78  2  0  0  0  0
 35 49  1  0  0  0  0
 35 73  1  0  0  0  0
 35 79  2  0  0  0  0
 36 63  1  0  0  0  0
 36 69  1  0  0  0  0
 36 80  2  0  0  0  0
 37 64  1  0  0  0  0
 37 74  1  0  0  0  0
 37 81  2  0  0  0  0
 38 70  1  0  0  0  0
 38 75  1  0  0  0  0
 38 82  2  0  0  0  0
 39 42  1  0  0  0  0
 40 49  1  0  0  0  0
 41 69  1  0  0  0  0
 42 44  1  0  0  0  0
 43 45  1  0  0  0  0
 43 46  1  0  0  0  0
 44 48  1  0  0  0  0
 45 50  1  0  0  0  0
 46 70  1  0  0  0  0
 47 50  1  0  0  0  0
 47 70  1  0  0  0  0
 48 73  1  0  0  0  0
 49 69  1  0  0  0  0
 50 68  1  0  0  0  0
 52 64  1  0  0  0  0
 53 65  1  0  0  0  0
 54 65  1  0  0  0  0
 55 65  1  0  0  0  0
 56 66  1  0  0  0  0
 57 77  1  0  0  0  0
 58 60  1  0  0  0  0
 59 75  1  0  0  0  0
 60 66  1  0  0  0  0
 61 66  1  0  0  0  0
 61 76  1  0  0  0  0
 62 66  1  0  0  0  0
 62 84  1  0  0  0  0
 63 65  1  0  0  0  0
 63 74  1  0  0  0  0
 64 77  1  0  0  0  0
 67 68  1  0  0  0  0
M  CHG  2  76   1  77   1
M  ISO  4  38 100  62 101  75 100  84 101
M  END
> <Batch ID>
0096

> <Smiles>
CNC(C)C(=O)NC(C(=O)N1Cc2cc([101O:1][101CH2:1]C(C)(CN)CCc3ccc(C)c(C[100NH:0][100C:0](=O)N4CCCC(n5nc(-c6ccc(Oc7ccc(F)cc7F)cc6)c(C(N)=O)c5N)C4)c3)ccc2CC1C(=O)NC1CCCc2ccccc21)C(C)(C)C

> <Shape>
0.158

> <Color>
0.187

> <Negative vol penalty>
0.000

$$$$

  -OEChem-04052319243D

 86 94  0     1  0  0  0  0  0999 V2000
  -25.2415  -11.7075   21.5129 C   0  0  0  0  0  0  0  0  0  0  0  0
  -25.6539  -13.0157   21.2803 C   0  0  0  0  0  0  0  0  0  0  0  0
  -29.7615  -17.8309   19.3522 C   0  0  0  0  0  0  0  0  0  0  0  0
  -27.7354  -18.2380   20.6037 C   0  0  0  0  0  0  0  0  0  0  0  0
  -24.0129  -11.2674   21.0222 C   0  0  0  0  0  0  0  0  0  0  0  0
  -24.8383  -13.8842   20.5558 C   0  0  0  0  0  0  0  0  0  0  0  0
  -24.1940  -19.9125   21.4224 C   0  0  0  0  0  0  0  0  0  0  0  0
  -29.8400  -16.5489   19.8963 C   0  0  0  0  0  0  0  0  0  0  0  0
  -27.8139  -16.9560   21.1477 C   0  0  0  0  0  0  0  0  0  0  0  0
  -24.7600  -21.0172   20.7874 C   0  0  0  0  0  0  0  0  0  0  0  0
  -30.3764  -13.0395   20.6780 C   0  0  0  0  0  0  0  0  0  0  0  0
  -30.6736  -11.9855   19.8142 C   0  0  0  0  0  0  0  0  0  0  0  0
  -22.8121  -21.1959   19.3756 C   0  0  0  0  0  0  0  0  0  0  0  0
  -28.6894  -12.4803   18.5277 C   0  0  0  0  0  0  0  0  0  0  0  0
  -25.9570  -27.6495   19.0578 C   0  0  0  0  0  0  0  0  0  0  0  0
  -28.7092  -18.6755   19.7060 C   0  0  0  0  0  0  0  0  0  0  0  0
  -27.9721  -20.3822   17.9591 C   0  0  0  0  0  0  0  0  0  0  0  0
  -23.1775  -12.1339   20.2996 C   0  0  0  0  0  0  0  0  0  0  0  0
  -22.9355  -19.4338   21.0307 C   0  0  0  0  0  0  0  0  0  0  0  0
  -23.5980  -13.4549   20.0538 C   0  0  0  0  0  0  0  0  0  0  0  0
  -22.2313  -20.0866   20.0089 C   0  0  0  0  0  0  0  0  0  0  0  0
  -28.8662  -16.1115   20.7940 C   0  0  0  0  0  0  0  0  0  0  0  0
  -24.0703  -21.6573   19.7619 C   0  0  0  0  0  0  0  0  0  0  0  0
  -29.2356  -13.8139   20.4668 C   0  0  0  0  0  0  0  0  0  0  0  0
  -29.8301  -11.7059   18.7390 C   0  0  0  0  0  0  0  0  0  0  0  0
  -28.3921  -13.5343   19.3916 C   0  0  0  0  0  0  0  0  0  0  0  0
  -28.6279  -20.0000   19.1447 C   0  0  0  0  0  0  0  0  0  0  0  0
  -25.6052  -26.8091   20.0761 C   0  0  0  0  0  0  0  0  0  0  0  0
  -28.1872  -21.7357   17.8687 C   0  0  0  0  0  0  0  0  0  0  0  0
  -26.7093  -28.5170   20.9505 C   0  0  0  0  0  0  0  0  0  0  0  0
  -27.2344  -19.5849   17.0232 C   0  0  0  0  0  0  0  0  0  0  0  0
  -21.8528  -16.7031   19.8162 C   0  0  0  0  0  0  0  0  0  0  0  0
  -18.9624  -18.1141   20.2367 C   0  0  0  0  0  0  0  0  0  0  0  0
  -17.1644  -20.9977   20.5518 C   0  0  0  0  0  0  0  0  0  0  0  0
  -29.3501  -25.9610   21.9486 C   0  0  0  0  0  0  0  0  0  0  0  0
  -21.8795  -11.5990   19.7485 C   0  0  0  0  0  0  0  0  0  0  0  0
  -22.3271  -18.2574   21.7437 C   0  0  0  0  0  0  0  0  0  0  0  0
  -20.8684  -19.6244   19.5648 C   0  0  0  0  0  0  0  0  0  0  0  0
  -20.9070  -12.6915   19.3117 C   0  0  0  0  0  0  0  0  0  0  0  0
  -31.3330  -25.1186   19.1140 C   0  0  0  0  0  0  0  0  0  0  0  0
  -21.6283  -13.7463   18.4786 C   0  0  0  0  0  0  0  0  0  0  0  0
  -30.8054  -23.7458   18.6934 C   0  0  0  0  0  0  0  0  0  0  0  0
  -31.3356  -25.2814   20.6323 C   0  0  0  0  0  0  0  0  0  0  0  0
  -29.5140  -23.6378   20.8659 C   0  0  0  0  0  0  0  0  0  0  0  0
  -22.7302  -14.4343   19.2935 C   0  0  1  0  0  0  0  0  0  0  0  0
  -21.2645  -17.5412   20.9159 C   0  0  1  0  0  0  0  0  0  0  0  0
  -29.4399  -23.4473   19.3412 C   0  0  2  0  0  0  0  0  0  0  0  0
  -14.8164  -21.8330   20.8455 C   0  0  0  0  0  0  0  0  0  0  0  0
  -25.3499  -30.9694   22.1971 C   0  0  0  0  0  0  0  0  0  0  0  0
  -27.6265  -31.7740   22.8558 C   0  0  0  0  0  0  0  0  0  0  0  0
  -25.1097  -27.7412   23.4617 C   0  0  0  0  0  0  0  0  0  0  0  0
  -18.3897  -17.5306   17.2971 C   0  0  0  0  0  0  0  0  0  0  0  0
  -16.5106  -19.1814   17.4075 C   0  0  0  0  0  0  0  0  0  0  0  0
  -16.4572  -17.1361   18.8347 C   0  0  0  0  0  0  0  0  0  0  0  0
  -17.8223  -22.2867   23.1334 C   0  0  0  0  0  0  0  0  0  0  0  0
  -24.8473  -25.5058   20.0504 C   0  0  0  0  0  0  0  0  0  0  0  0
  -27.3682  -29.4361   21.9115 C   0  0  0  0  0  0  0  0  0  0  0  0
  -24.4115  -25.0744   18.6484 C   0  0  0  0  0  0  0  0  0  0  0  0
  -27.2912  -26.5003   23.2250 C   0  0  0  0  0  0  0  0  0  0  0  0
  -23.7219  -23.7153   18.6221 C   0  0  0  0  0  0  0  0  0  1  0  0
  -18.0721  -18.9983   19.3973 C   0  0  1  0  0  0  0  0  0  0  0  0
  -16.0989  -21.4166   21.5487 C   0  0  2  0  0  0  0  0  0  0  0  0
  -26.8447  -30.8963   21.8752 C   0  0  0  0  0  0  0  0  0  0  0  0
  -25.9377  -26.8126   22.5671 C   0  0  2  0  0  0  0  0  0  0  0  0
  -17.3839  -18.2194   18.2410 C   0  0  0  0  0  0  0  0  0  0  0  0
  -29.2157  -21.0278   19.7631 N   0  0  0  0  0  0  0  0  0  0  0  0
  -26.0838  -27.3702   21.2355 N   0  0  0  0  0  0  0  0  0  0  0  0
  -28.9302  -22.0690   18.9628 N   0  0  0  0  0  0  0  0  0  0  0  0
  -26.6387  -28.6977   19.6277 N   0  3  0  0  0  0  0  0  0  0  0  0
  -20.3186  -18.4661   20.2884 N   0  0  0  0  0  0  0  0  0  0  0  0
  -30.0111  -24.9856   21.1840 N   0  0  0  0  0  0  0  0  0  0  0  0
  -27.8116  -22.6614   16.9607 N   0  0  0  0  0  0  0  0  0  0  0  0
  -27.1105  -18.2105   17.2682 N   0  0  0  0  0  0  0  0  0  0  0  0
  -22.1572  -15.4098   20.1959 N   0  0  0  0  0  0  0  0  0  0  0  0
  -17.1431  -19.6382   20.3225 N   0  0  0  0  0  0  0  0  0  0  0  0
  -28.0965  -25.6017   22.4283 N   0  0  0  0  0  0  0  0  0  0  0  0
  -16.5793  -22.5645   22.3687 N   0  3  0  0  0  0  0  0  0  0  0  0
  -26.7149  -20.0739   15.9915 O   0  0  0  0  0  0  0  0  0  0  0  0
  -22.0169  -17.1931   18.7051 O   0  0  0  0  0  0  0  0  0  0  0  0
  -18.4713  -17.1510   20.8307 O   0  0  0  0  0  0  0  0  0  0  0  0
  -17.9359  -21.7971   20.0262 O   0  0  0  0  0  0  0  0  0  0  0  0
  -29.8384  -27.0720   22.1815 O   0  0  0  0  0  0  0  0  0  0  0  0
  -28.9423  -14.8605   21.3249 O   0  0  0  0  0  0  0  0  0  0  0  0
  -24.6207  -22.7354   19.1400 O   0  0  0  0  0  0  0  0  0  1  0  0
  -30.1165  -10.6946   17.9086 F   0  0  0  0  0  0  0  0  0  0  0  0
  -27.2954  -14.2756   19.1829 F   0  0  0  0  0  0  0  0  0  0  0  0
  1  2  1  0  0  0  0
  1  5  2  0  0  0  0
  2  6  2  0  0  0  0
  3  8  2  0  0  0  0
  3 16  1  0  0  0  0
  4  9  1  0  0  0  0
  4 16  2  0  0  0  0
  5 18  1  0  0  0  0
  6 20  1  0  0  0  0
  7 10  2  0  0  0  0
  7 19  1  0  0  0  0
  8 22  1  0  0  0  0
  9 22  2  0  0  0  0
 10 23  1  0  0  0  0
 11 12  2  0  0  0  0
 11 24  1  0  0  0  0
 12 25  1  0  0  0  0
 13 21  1  0  0  0  0
 13 23  2  0  0  0  0
 14 25  2  0  0  0  0
 14 26  1  0  0  0  0
 15 28  2  0  0  0  0
 15 69  1  0  0  0  0
 16 27  1  0  0  0  0
 17 27  1  0  0  0  0
 17 29  2  0  0  0  0
 17 31  1  0  0  0  0
 18 20  2  0  0  0  0
 18 36  1  0  0  0  0
 19 21  2  0  0  0  0
 19 37  1  0  0  0  0
 20 45  1  0  0  0  0
 21 38  1  0  0  0  0
 22 83  1  0  0  0  0
 23 84  1  0  0  0  0
 24 26  2  0  0  0  0
 24 83  1  0  0  0  0
 25 85  1  0  0  0  0
 26 86  1  0  0  0  0
 27 66  2  0  0  0  0
 28 56  1  0  0  0  0
 28 67  1  0  0  0  0
 29 68  1  0  0  0  0
 29 72  1  0  0  0  0
 30 57  1  0  0  0  0
 30 67  1  0  0  0  0
 30 69  2  0  0  0  0
 31 73  1  0  0  0  0
 31 78  2  0  0  0  0
 32 46  1  0  0  0  0
 32 74  1  0  0  0  0
 32 79  2  0  0  0  0
 33 61  1  0  0  0  0
 33 70  1  0  0  0  0
 33 80  2  0  0  0  0
 34 62  1  0  0  0  0
 34 75  1  0  0  0  0
 34 81  2  0  0  0  0
 35 71  1  0  0  0  0
 35 76  1  0  0  0  0
 35 82  2  0  0  0  0
 36 39  1  0  0  0  0
 37 46  1  0  0  0  0
 38 70  1  0  0  0  0
 39 41  1  0  0  0  0
 40 42  1  0  0  0  0
 40 43  1  0  0  0  0
 41 45  1  0  0  0  0
 42 47  1  0  0  0  0
 43 71  1  0  0  0  0
 44 47  1  0  0  0  0
 44 71  1  0  0  0  0
 45 74  1  0  0  0  0
 46 70  1  0  0  0  0
 47 68  1  0  0  0  0
 48 62  1  0  0  0  0
 49 63  1  0  0  0  0
 50 63  1  0  0  0  0
 51 64  1  0  0  0  0
 52 65  1  0  0  0  0
 53 65  1  0  0  0  0
 54 65  1  0  0  0  0
 55 77  1  0  0  0  0
 56 58  1  0  0  0  0
 57 63  1  0  0  0  0
 58 60  1  0  0  0  0
 59 64  1  0  0  0  0
 59 76  1  0  0  0  0
 60 84  1  0  0  0  0
 61 65  1  0  0  0  0
 61 75  1  0  0  0  0
 62 77  1  0  0  0  0
 64 67  1  0  0  0  0
 66 68  1  0  0  0  0
M  CHG  2  69   1  77   1
M  ISO  4  35 100  60 101  76 100  84 101
M  END
> <Batch ID>
0096

> <Smiles>
CNC(C)C(=O)NC(C(=O)N1Cc2cc([101O:1][101CH2:1]CCc3cnc(CC(C)C)n3C(C)C[100NH:0][100C:0](=O)N3CCCC(n4nc(-c5ccc(Oc6ccc(F)cc6F)cc5)c(C(N)=O)c4N)C3)ccc2CC1C(=O)NC1CCCc2ccccc21)C(C)(C)C

> <Shape>
0.207

> <Color>
0.051

> <Negative vol penalty>
0.000

$$$$

  -OEChem-04052319243D

 89 97  0     1  0  0  0  0  0999 V2000
  -25.6231  -14.2705   18.6165 C   0  0  0  0  0  0  0  0  0  0  0  0
  -25.6829  -15.5956   19.0361 C   0  0  0  0  0  0  0  0  0  0  0  0
  -29.3347  -17.5628   19.0594 C   0  0  0  0  0  0  0  0  0  0  0  0
  -30.3348  -18.0487   21.2044 C   0  0  0  0  0  0  0  0  0  0  0  0
  -24.4458  -13.7678   18.0641 C   0  0  0  0  0  0  0  0  0  0  0  0
  -24.5655  -16.4190   18.9026 C   0  0  0  0  0  0  0  0  0  0  0  0
  -22.8156  -20.8940   22.6997 C   0  0  0  0  0  0  0  0  0  0  0  0
  -29.8155  -16.2555   19.1314 C   0  0  0  0  0  0  0  0  0  0  0  0
  -30.8155  -16.7413   21.2764 C   0  0  0  0  0  0  0  0  0  0  0  0
  -22.9827  -22.2775   22.6591 C   0  0  0  0  0  0  0  0  0  0  0  0
  -28.9704  -13.3726   20.6830 C   0  0  0  0  0  0  0  0  0  0  0  0
  -28.0959  -12.3406   20.3425 C   0  0  0  0  0  0  0  0  0  0  0  0
  -20.7936  -22.5069   21.6720 C   0  0  0  0  0  0  0  0  0  0  0  0
  -29.5953  -11.6523   18.5776 C   0  0  0  0  0  0  0  0  0  0  0  0
  -29.5944  -18.4595   20.0959 C   0  0  0  0  0  0  0  0  0  0  0  0
  -27.8603  -20.2883   20.4912 C   0  0  0  0  0  0  0  0  0  0  0  0
  -23.3104  -14.5828   17.9327 C   0  0  0  0  0  0  0  0  0  0  0  0
  -21.6386  -20.3047   22.2160 C   0  0  0  0  0  0  0  0  0  0  0  0
  -23.3723  -15.9271   18.3468 C   0  0  0  0  0  0  0  0  0  0  0  0
  -20.6129  -21.1159   21.7100 C   0  0  0  0  0  0  0  0  0  0  0  0
  -30.5559  -15.8447   20.2398 C   0  0  0  0  0  0  0  0  0  0  0  0
  -21.9728  -23.0840   22.1425 C   0  0  0  0  0  0  0  0  0  0  0  0
  -30.1574  -13.5444   19.9707 C   0  0  0  0  0  0  0  0  0  0  0  0
  -28.4083  -11.4805   19.2898 C   0  0  0  0  0  0  0  0  0  0  0  0
  -30.4698  -12.6843   18.9180 C   0  0  0  0  0  0  0  0  0  0  0  0
  -29.0985  -19.8103   20.0219 C   0  0  0  0  0  0  0  0  0  0  0  0
  -27.8704  -21.6270   20.1842 C   0  0  0  0  0  0  0  0  0  0  0  0
  -23.2841  -30.3369   20.9167 C   0  0  0  0  0  0  0  0  0  0  0  0
  -25.0738  -29.2375   22.0749 C   0  0  0  0  0  0  0  0  0  0  0  0
  -24.1304  -31.0548   20.1623 C   0  0  0  0  0  0  0  0  0  0  0  0
  -23.7538  -29.3959   21.9076 C   0  0  0  0  0  0  0  0  0  0  0  0
  -25.6123  -30.8760   20.3519 C   0  0  0  0  0  0  0  0  0  0  0  0
  -26.7963  -19.5850   21.1461 C   0  0  0  0  0  0  0  0  0  0  0  0
  -20.9501  -18.2537   19.8873 C   0  0  0  0  0  0  0  0  0  0  0  0
  -17.9729  -18.4023   21.1666 C   0  0  0  0  0  0  0  0  0  0  0  0
  -15.6946  -20.1539   23.0072 C   0  0  0  0  0  0  0  0  0  0  0  0
  -30.4769  -26.5582   19.9993 C   0  0  0  0  0  0  0  0  0  0  0  0
  -22.0750  -14.0080   17.2862 C   0  0  0  0  0  0  0  0  0  0  0  0
  -21.4628  -18.8128   22.2915 C   0  0  0  0  0  0  0  0  0  0  0  0
  -19.3219  -20.5341   21.1969 C   0  0  0  0  0  0  0  0  0  0  0  0
  -20.8187  -14.8418   17.5244 C   0  0  0  0  0  0  0  0  0  0  0  0
  -31.0266  -24.3170   17.2880 C   0  0  0  0  0  0  0  0  0  0  0  0
  -21.1039  -16.3196   17.2762 C   0  0  0  0  0  0  0  0  0  0  0  0
  -30.4778  -22.9836   17.7986 C   0  0  0  0  0  0  0  0  0  0  0  0
  -31.7014  -25.1135   18.4026 C   0  0  0  0  0  0  0  0  0  0  0  0
  -30.3197  -23.9971   20.1109 C   0  0  0  0  0  0  0  0  0  0  0  0
  -22.1735  -16.8447   18.2414 C   0  0  1  0  0  0  0  0  0  0  0  0
  -20.4341  -18.2813   21.2982 C   0  0  1  0  0  0  0  0  0  0  0  0
  -29.5807  -23.1830   19.0350 C   0  0  2  0  0  0  0  0  0  0  0  0
  -22.8655  -31.3290   18.0449 C   0  0  0  0  0  0  0  0  0  0  0  0
  -22.8639  -33.1615   19.7655 C   0  0  0  0  0  0  0  0  0  0  0  0
  -13.3339  -20.0356   23.8502 C   0  0  0  0  0  0  0  0  0  0  0  0
  -16.9450  -19.0934   18.3782 C   0  0  0  0  0  0  0  0  0  0  0  0
  -14.8157  -19.8805   19.4342 C   0  0  0  0  0  0  0  0  0  0  0  0
  -15.5066  -17.4936   19.6534 C   0  0  0  0  0  0  0  0  0  0  0  0
  -16.5757  -20.2440   25.8311 C   0  0  0  0  0  0  0  0  0  0  0  0
  -22.7314  -28.6474   22.6949 C   0  0  0  0  0  0  0  0  0  0  0  0
  -22.3415  -27.3331   22.0183 C   0  0  0  0  0  0  0  0  0  0  0  0
  -21.3187  -26.5631   22.8518 C   0  0  0  0  0  0  0  0  0  0  0  0
  -27.4097  -29.6979   21.5914 C   0  0  0  0  0  0  0  0  0  0  0  0
  -29.1804  -27.8707   21.6594 C   0  0  0  0  0  0  0  0  0  0  0  0
  -20.9554  -25.2326   22.2076 C   0  0  0  0  0  0  0  0  0  1  0  0
  -23.6757  -32.0360   19.1280 C   0  0  0  0  0  0  0  0  0  0  0  0
  -16.7571  -19.2697   20.9472 C   0  0  1  0  0  0  0  0  0  0  0  0
  -14.7936  -19.7376   24.1558 C   0  0  2  0  0  0  0  0  0  0  0  0
  -27.9072  -28.3841   20.9899 C   0  0  2  0  0  0  0  0  0  0  0  0
  -16.0311  -18.9454   19.6110 C   0  0  0  0  0  0  0  0  0  0  0  0
  -29.8411  -20.7676   19.4594 N   0  0  0  0  0  0  0  0  0  0  0  0
  -29.0672  -21.8604   19.5732 N   0  0  0  0  0  0  0  0  0  0  0  0
  -25.9965  -29.9477   21.3279 N   0  0  0  0  0  0  0  0  0  0  0  0
  -19.2002  -19.0696   21.2862 N   0  0  0  0  0  0  0  0  0  0  0  0
  -30.7972  -25.2684   19.5446 N   0  0  0  0  0  0  0  0  0  0  0  0
  -26.9721  -22.6155   20.3799 N   0  0  0  0  0  0  0  0  0  0  0  0
  -26.9499  -18.2125   21.3845 N   0  0  0  0  0  0  0  0  0  0  0  0
  -21.6012  -17.0827   19.5492 N   0  0  0  0  0  0  0  0  0  0  0  0
  -15.9233  -19.1117   22.1339 N   0  0  0  0  0  0  0  0  0  0  0  0
  -29.6083  -26.6158   21.0824 N   0  0  0  0  0  0  0  0  0  0  0  0
  -15.1713  -20.4653   25.4003 N   0  3  0  0  0  0  0  0  0  0  0  0
  -26.3948  -31.5313   19.6637 O   0  0  0  0  0  0  0  0  0  0  0  0
  -25.7337  -20.1535   21.4944 O   0  0  0  0  0  0  0  0  0  0  0  0
  -20.7695  -19.2224   19.1588 O   0  0  0  0  0  0  0  0  0  0  0  0
  -17.8378  -17.1782   21.2368 O   0  0  0  0  0  0  0  0  0  0  0  0
  -16.1470  -21.2911   22.8938 O   0  0  0  0  0  0  0  0  0  0  0  0
  -30.9271  -27.5828   19.4754 O   0  0  0  0  0  0  0  0  0  0  0  0
  -28.1423  -28.5882   19.5973 O   0  0  0  0  0  0  0  0  0  0  0  0
  -31.0249  -14.5689   20.3105 O   0  0  0  0  0  0  0  0  0  0  0  0
  -22.1337  -24.4347   22.1010 O   0  0  0  0  0  0  0  0  0  1  0  0
  -27.5692  -10.4886   18.9640 F   0  0  0  0  0  0  0  0  0  0  0  0
  -31.6092  -12.8437   18.2309 F   0  0  0  0  0  0  0  0  0  0  0  0
  1  2  1  0  0  0  0
  1  5  2  0  0  0  0
  2  6  2  0  0  0  0
  3  8  2  0  0  0  0
  3 15  1  0  0  0  0
  4  9  1  0  0  0  0
  4 15  2  0  0  0  0
  5 17  1  0  0  0  0
  6 19  1  0  0  0  0
  7 10  2  0  0  0  0
  7 18  1  0  0  0  0
  8 21  1  0  0  0  0
  9 21  2  0  0  0  0
 10 22  1  0  0  0  0
 11 12  2  0  0  0  0
 11 23  1  0  0  0  0
 12 24  1  0  0  0  0
 13 20  1  0  0  0  0
 13 22  2  0  0  0  0
 14 24  2  0  0  0  0
 14 25  1  0  0  0  0
 15 26  1  0  0  0  0
 16 26  1  0  0  0  0
 16 27  2  0  0  0  0
 16 33  1  0  0  0  0
 17 19  2  0  0  0  0
 17 38  1  0  0  0  0
 18 20  2  0  0  0  0
 18 39  1  0  0  0  0
 19 47  1  0  0  0  0
 20 40  1  0  0  0  0
 21 86  1  0  0  0  0
 22 87  1  0  0  0  0
 23 25  2  0  0  0  0
 23 86  1  0  0  0  0
 24 88  1  0  0  0  0
 25 89  1  0  0  0  0
 26 68  2  0  0  0  0
 27 69  1  0  0  0  0
 27 73  1  0  0  0  0
 28 30  2  0  0  0  0
 28 31  1  0  0  0  0
 29 31  2  0  0  0  0
 29 70  1  0  0  0  0
 30 32  1  0  0  0  0
 30 63  1  0  0  0  0
 31 57  1  0  0  0  0
 32 70  1  0  0  0  0
 32 79  2  0  0  0  0
 33 74  1  0  0  0  0
 33 80  2  0  0  0  0
 34 48  1  0  0  0  0
 34 75  1  0  0  0  0
 34 81  2  0  0  0  0
 35 64  1  0  0  0  0
 35 71  1  0  0  0  0
 35 82  2  0  0  0  0
 36 65  1  0  0  0  0
 36 76  1  0  0  0  0
 36 83  2  0  0  0  0
 37 72  1  0  0  0  0
 37 77  1  0  0  0  0
 37 84  2  0  0  0  0
 38 41  1  0  0  0  0
 39 48  1  0  0  0  0
 40 71  1  0  0  0  0
 41 43  1  0  0  0  0
 42 44  1  0  0  0  0
 42 45  1  0  0  0  0
 43 47  1  0  0  0  0
 44 49  1  0  0  0  0
 45 72  1  0  0  0  0
 46 49  1  0  0  0  0
 46 72  1  0  0  0  0
 47 75  1  0  0  0  0
 48 71  1  0  0  0  0
 49 69  1  0  0  0  0
 50 63  1  0  0  0  0
 51 63  1  0  0  0  0
 52 65  1  0  0  0  0
 53 67  1  0  0  0  0
 54 67  1  0  0  0  0
 55 67  1  0  0  0  0
 56 78  1  0  0  0  0
 57 58  1  0  0  0  0
 58 59  1  0  0  0  0
 59 62  1  0  0  0  0
 60 66  1  0  0  0  0
 60 70  1  0  0  0  0
 61 66  1  0  0  0  0
 61 77  1  0  0  0  0
 62 87  1  0  0  0  0
 64 67  1  0  0  0  0
 64 76  1  0  0  0  0
 65 78  1  0  0  0  0
 66 85  1  0  0  0  0
 68 69  1  0  0  0  0
M  CHG  1  78   1
M  ISO  4  37 100  62 101  77 100  87 101
M  END
> <Batch ID>
0096

> <Smiles>
CNC(C)C(=O)NC(C(=O)N1Cc2cc([101O:1][101CH2:1]CCCc3cc(C(C)C)c(=O)n(CC(O)C[100NH:0][100C:0](=O)N4CCCC(n5nc(-c6ccc(Oc7ccc(F)cc7F)cc6)c(C(N)=O)c5N)C4)c3)ccc2CC1C(=O)NC1CCCc2ccccc21)C(C)(C)C

> <Shape>
0.233

> <Color>
0.054

> <Negative vol penalty>
0.000

$$$$

  -OEChem-04052319243D

 87 95  0     1  0  0  0  0  0999 V2000
  -18.1207   -9.7427   22.2237 C   0  0  0  0  0  0  0  0  0  0  0  0
  -18.1274  -11.0049   21.6387 C   0  0  0  0  0  0  0  0  0  0  0  0
  -30.2577  -24.2477   20.0560 C   0  0  0  0  0  0  0  0  0  0  0  0
  -28.2083  -23.8479   18.8406 C   0  0  0  0  0  0  0  0  0  0  0  0
  -19.1532   -9.3682   23.0825 C   0  0  0  0  0  0  0  0  0  0  0  0
  -19.1662  -11.8938   21.9131 C   0  0  0  0  0  0  0  0  0  0  0  0
  -22.9890  -17.1267   18.8604 C   0  0  0  0  0  0  0  0  0  0  0  0
  -30.4472  -22.8722   20.1890 C   0  0  0  0  0  0  0  0  0  0  0  0
  -28.3978  -22.4723   18.9736 C   0  0  0  0  0  0  0  0  0  0  0  0
  -23.3844  -18.4443   19.0867 C   0  0  0  0  0  0  0  0  0  0  0  0
  -28.5279  -18.8509   18.6800 C   0  0  0  0  0  0  0  0  0  0  0  0
  -28.3213  -18.0551   17.5532 C   0  0  0  0  0  0  0  0  0  0  0  0
  -25.1560  -17.6595   20.5236 C   0  0  0  0  0  0  0  0  0  0  0  0
  -22.4692  -26.5617   21.0809 C   0  0  0  0  0  0  0  0  0  0  0  0
  -30.0538  -19.2644   16.3814 C   0  0  0  0  0  0  0  0  0  0  0  0
  -21.5053  -25.4639   22.9577 C   0  0  0  0  0  0  0  0  0  0  0  0
  -29.1382  -24.7355   19.3818 C   0  0  0  0  0  0  0  0  0  0  0  0
  -29.4002  -26.9809   18.1998 C   0  0  0  0  0  0  0  0  0  0  0  0
  -20.2102  -10.2494   23.3600 C   0  0  0  0  0  0  0  0  0  0  0  0
  -23.6685  -16.0643   19.4736 C   0  0  0  0  0  0  0  0  0  0  0  0
  -20.2131  -11.5312   22.7775 C   0  0  0  0  0  0  0  0  0  0  0  0
  -24.7688  -16.3291   20.3013 C   0  0  0  0  0  0  0  0  0  0  0  0
  -22.4912  -25.5056   21.9851 C   0  0  0  0  0  0  0  0  0  0  0  0
  -21.4759  -27.5301   21.1756 C   0  0  0  0  0  0  0  0  0  0  0  0
  -29.5172  -21.9845   19.6478 C   0  0  0  0  0  0  0  0  0  0  0  0
  -24.4662  -18.7110   19.9207 C   0  0  0  0  0  0  0  0  0  0  0  0
  -29.4974  -19.8535   18.6575 C   0  0  0  0  0  0  0  0  0  0  0  0
  -29.0842  -18.2618   16.4039 C   0  0  0  0  0  0  0  0  0  0  0  0
  -30.2604  -20.0602   17.5082 C   0  0  0  0  0  0  0  0  0  0  0  0
  -28.9417  -26.1563   19.2446 C   0  0  0  0  0  0  0  0  0  0  0  0
  -20.5353  -27.3976   22.1843 C   0  0  0  0  0  0  0  0  0  0  0  0
  -28.9561  -28.2370   18.5337 C   0  0  0  0  0  0  0  0  0  0  0  0
  -30.1595  -26.6418   17.0318 C   0  0  0  0  0  0  0  0  0  0  0  0
  -22.8677  -13.7813   21.5352 C   0  0  0  0  0  0  0  0  0  0  0  0
  -25.8735  -12.7220   20.9311 C   0  0  0  0  0  0  0  0  0  0  0  0
  -29.0459  -13.4408   19.8987 C   0  0  0  0  0  0  0  0  0  0  0  0
  -24.4016  -30.1925   21.8928 C   0  0  0  0  0  0  0  0  0  0  0  0
  -21.2795   -9.8172   24.3318 C   0  0  0  0  0  0  0  0  0  0  0  0
  -23.2462  -14.6472   19.1980 C   0  0  0  0  0  0  0  0  0  0  0  0
  -25.5444  -15.2231   20.9674 C   0  0  0  0  0  0  0  0  0  0  0  0
  -22.5376  -10.6800   24.2765 C   0  0  0  0  0  0  0  0  0  0  0  0
  -27.8565  -30.9335   22.3298 C   0  0  0  0  0  0  0  0  0  0  0  0
  -22.1698  -12.1603   24.2679 C   0  0  0  0  0  0  0  0  0  0  0  0
  -28.5677  -29.8676   21.4944 C   0  0  0  0  0  0  0  0  0  0  0  0
  -26.6059  -30.3778   23.0076 C   0  0  0  0  0  0  0  0  0  0  0  0
  -26.3599  -28.6549   21.2626 C   0  0  0  0  0  0  0  0  0  0  0  0
  -21.3353  -12.5143   23.0310 C   0  0  1  0  0  0  0  0  0  0  0  0
  -23.6895  -13.6700   20.2823 C   0  0  1  0  0  0  0  0  0  0  0  0
  -27.5962  -29.1826   20.5146 C   0  0  2  0  0  0  0  0  0  0  0  0
  -19.5105  -29.1464   23.6827 C   0  0  0  0  0  0  0  0  0  0  0  0
  -18.0463  -27.7937   22.1394 C   0  0  0  0  0  0  0  0  0  0  0  0
  -31.2916  -12.3775   19.5474 C   0  0  0  0  0  0  0  0  0  0  0  0
  -22.2003  -31.0214   19.6495 C   0  0  0  0  0  0  0  0  0  0  0  0
  -26.3517  -12.7421   23.9446 C   0  0  0  0  0  0  0  0  0  0  0  0
  -28.8092  -12.6073   23.4852 C   0  0  0  0  0  0  0  0  0  0  0  0
  -27.3017  -10.7605   22.7508 C   0  0  0  0  0  0  0  0  0  0  0  0
  -29.0183  -14.0653   17.0059 C   0  0  0  0  0  0  0  0  0  0  0  0
  -23.5541  -24.4386   21.9092 C   0  0  0  0  0  0  0  0  0  0  0  0
  -21.4476  -28.6652   20.2113 C   0  0  0  0  0  0  0  0  0  0  0  0
  -23.1752  -23.2495   21.0194 C   0  0  0  0  0  0  0  0  0  0  0  0
  -24.2317  -22.1437   21.0161 C   0  0  0  0  0  0  0  0  0  0  0  0
  -23.8398  -20.9989   20.0918 C   0  0  0  0  0  0  0  0  0  1  0  0
  -19.4447  -28.4075   22.3337 C   0  0  0  0  0  0  0  0  0  0  0  0
  -27.2362  -12.9735   21.5300 C   0  0  1  0  0  0  0  0  0  0  0  0
  -29.9634  -12.7490   18.9067 C   0  0  2  0  0  0  0  0  0  0  0  0
  -22.2588  -29.8949   20.6765 C   0  0  1  0  0  0  0  0  0  0  0  0
  -27.4091  -12.2920   22.9168 C   0  0  0  0  0  0  0  0  0  0  0  0
  -20.5244  -26.3859   23.0811 N   0  0  0  0  0  0  0  0  0  0  0  0
  -28.2589  -26.8317   20.1728 N   0  0  0  0  0  0  0  0  0  0  0  0
  -28.2851  -28.0941   19.7125 N   0  0  0  0  0  0  0  0  0  0  0  0
  -25.0889  -13.8547   20.6718 N   0  0  0  0  0  0  0  0  0  0  0  0
  -25.7259  -29.7431   22.0233 N   0  0  0  0  0  0  0  0  0  0  0  0
  -29.0782  -29.4389   17.9311 N   0  0  0  0  0  0  0  0  0  0  0  0
  -30.5332  -25.3043   16.8430 N   0  0  0  0  0  0  0  0  0  0  0  0
  -22.1838  -12.6265   21.8640 N   0  0  0  0  0  0  0  0  0  0  0  0
  -28.2074  -12.5458   20.5288 N   0  0  0  0  0  0  0  0  0  0  0  0
  -23.6373  -29.5412   20.9323 N   0  0  0  0  0  0  0  0  0  0  0  0
  -30.2356  -13.6407   17.7440 N   0  3  0  0  0  0  0  0  0  0  0  0
  -30.5106  -27.5022   16.1892 O   0  0  0  0  0  0  0  0  0  0  0  0
  -22.8560  -14.8364   22.1584 O   0  0  0  0  0  0  0  0  0  0  0  0
  -25.5210  -11.5636   20.6953 O   0  0  0  0  0  0  0  0  0  0  0  0
  -29.0731  -14.6533   20.0977 O   0  0  0  0  0  0  0  0  0  0  0  0
  -23.9364  -31.1100   22.5774 O   0  0  0  0  0  0  0  0  0  0  0  0
  -29.7019  -20.6422   19.7772 O   0  0  0  0  0  0  0  0  0  0  0  0
  -24.8539  -19.9963   20.1439 O   0  0  0  0  0  0  0  0  0  1  0  0
  -28.8868  -17.4965   15.3225 F   0  0  0  0  0  0  0  0  0  0  0  0
  -31.1941  -21.0211   17.4810 F   0  0  0  0  0  0  0  0  0  0  0  0
  1  2  1  0  0  0  0
  1  5  2  0  0  0  0
  2  6  2  0  0  0  0
  3  8  2  0  0  0  0
  3 17  1  0  0  0  0
  4  9  1  0  0  0  0
  4 17  2  0  0  0  0
  5 19  1  0  0  0  0
  6 21  1  0  0  0  0
  7 10  2  0  0  0  0
  7 20  1  0  0  0  0
  8 25  1  0  0  0  0
  9 25  2  0  0  0  0
 10 26  1  0  0  0  0
 11 12  2  0  0  0  0
 11 27  1  0  0  0  0
 12 28  1  0  0  0  0
 13 22  1  0  0  0  0
 13 26  2  0  0  0  0
 14 23  2  0  0  0  0
 14 24  1  0  0  0  0
 15 28  2  0  0  0  0
 15 29  1  0  0  0  0
 16 23  1  0  0  0  0
 16 68  2  0  0  0  0
 17 30  1  0  0  0  0
 18 30  1  0  0  0  0
 18 32  2  0  0  0  0
 18 33  1  0  0  0  0
 19 21  2  0  0  0  0
 19 38  1  0  0  0  0
 20 22  2  0  0  0  0
 20 39  1  0  0  0  0
 21 47  1  0  0  0  0
 22 40  1  0  0  0  0
 23 58  1  0  0  0  0
 24 31  2  0  0  0  0
 24 59  1  0  0  0  0
 25 84  1  0  0  0  0
 26 85  1  0  0  0  0
 27 29  2  0  0  0  0
 27 84  1  0  0  0  0
 28 86  1  0  0  0  0
 29 87  1  0  0  0  0
 30 69  2  0  0  0  0
 31 63  1  0  0  0  0
 31 68  1  0  0  0  0
 32 70  1  0  0  0  0
 32 73  1  0  0  0  0
 33 74  1  0  0  0  0
 33 79  2  0  0  0  0
 34 48  1  0  0  0  0
 34 75  1  0  0  0  0
 34 80  2  0  0  0  0
 35 64  1  0  0  0  0
 35 71  1  0  0  0  0
 35 81  2  0  0  0  0
 36 65  1  0  0  0  0
 36 76  1  0  0  0  0
 36 82  2  0  0  0  0
 37 72  1  0  0  0  0
 37 77  1  0  0  0  0
 37 83  2  0  0  0  0
 38 41  1  0  0  0  0
 39 48  1  0  0  0  0
 40 71  1  0  0  0  0
 41 43  1  0  0  0  0
 42 44  1  0  0  0  0
 42 45  1  0  0  0  0
 43 47  1  0  0  0  0
 44 49  1  0  0  0  0
 45 72  1  0  0  0  0
 46 49  1  0  0  0  0
 46 72  1  0  0  0  0
 47 75  1  0  0  0  0
 48 71  1  0  0  0  0
 49 70  1  0  0  0  0
 50 63  1  0  0  0  0
 51 63  1  0  0  0  0
 52 65  1  0  0  0  0
 53 66  1  0  0  0  0
 54 67  1  0  0  0  0
 55 67  1  0  0  0  0
 56 67  1  0  0  0  0
 57 78  1  0  0  0  0
 58 60  1  0  0  0  0
 59 66  1  0  0  0  0
 60 61  1  0  0  0  0
 61 62  1  0  0  0  0
 62 85  1  0  0  0  0
 64 67  1  0  0  0  0
 64 76  1  0  0  0  0
 65 78  1  0  0  0  0
 66 77  1  0  0  0  0
 69 70  1  0  0  0  0
M  CHG  1  78   1
M  ISO  4  37 100  62 101  77 100  85 101
M  END
> <Batch ID>
0096

> <Smiles>
CNC(C)C(=O)NC(C(=O)N1Cc2cc([101O:1][101CH2:1]CCCc3cnc(C(C)C)c(CC(C)[100NH:0][100C:0](=O)N4CCCC(n5nc(-c6ccc(Oc7ccc(F)cc7F)cc6)c(C(N)=O)c5N)C4)c3)ccc2CC1C(=O)NC1CCCc2ccccc21)C(C)(C)C

> <Shape>
0.266

> <Color>
0.071

> <Negative vol penalty>
0.000

$$$$

  -OEChem-04052319243D

 87 95  0     1  0  0  0  0  0999 V2000
  -29.1695  -24.1329   17.4324 C   0  0  0  0  0  0  0  0  0  0  0  0
  -27.9674  -24.2339   18.1252 C   0  0  0  0  0  0  0  0  0  0  0  0
  -24.1863  -12.2315   21.1803 C   0  0  0  0  0  0  0  0  0  0  0  0
  -25.3295  -14.1395   20.2370 C   0  0  0  0  0  0  0  0  0  0  0  0
  -30.2836  -24.8521   17.8631 C   0  0  0  0  0  0  0  0  0  0  0  0
  -27.8789  -25.0534   19.2499 C   0  0  0  0  0  0  0  0  0  0  0  0
  -23.6736  -27.8749   19.2719 C   0  0  0  0  0  0  0  0  0  0  0  0
  -25.1417  -11.3827   20.6215 C   0  0  0  0  0  0  0  0  0  0  0  0
  -26.2850  -13.2906   19.6782 C   0  0  0  0  0  0  0  0  0  0  0  0
  -22.4869  -27.2459   19.6457 C   0  0  0  0  0  0  0  0  0  0  0  0
  -29.2272  -11.6548   18.3050 C   0  0  0  0  0  0  0  0  0  0  0  0
  -30.5685  -12.0176   18.4266 C   0  0  0  0  0  0  0  0  0  0  0  0
  -22.6890  -28.1914   21.8558 C   0  0  0  0  0  0  0  0  0  0  0  0
  -19.8850  -23.3051   20.9451 C   0  0  0  0  0  0  0  0  0  0  0  0
  -30.3656  -11.9613   20.8334 C   0  0  0  0  0  0  0  0  0  0  0  0
  -21.6332  -23.3773   22.3623 C   0  0  0  0  0  0  0  0  0  0  0  0
  -24.2802  -13.6099   20.9880 C   0  0  0  0  0  0  0  0  0  0  0  0
  -23.3321  -15.0923   22.8351 C   0  0  0  0  0  0  0  0  0  0  0  0
  -30.2061  -25.6884   18.9880 C   0  0  0  0  0  0  0  0  0  0  0  0
  -24.3839  -28.6593   20.1920 C   0  0  0  0  0  0  0  0  0  0  0  0
  -28.9933  -25.7835   19.6969 C   0  0  0  0  0  0  0  0  0  0  0  0
  -23.8832  -28.8313   21.4904 C   0  0  0  0  0  0  0  0  0  0  0  0
  -20.4343  -23.9845   22.0603 C   0  0  0  0  0  0  0  0  0  0  0  0
  -26.1911  -11.9122   19.8705 C   0  0  0  0  0  0  0  0  0  0  0  0
  -21.9959  -27.4018   20.9386 C   0  0  0  0  0  0  0  0  0  0  0  0
  -28.4550  -11.4452   19.4476 C   0  0  0  0  0  0  0  0  0  0  0  0
  -31.1377  -12.1708   19.6908 C   0  0  0  0  0  0  0  0  0  0  0  0
  -29.0242  -11.5985   20.7118 C   0  0  0  0  0  0  0  0  0  0  0  0
  -23.2932  -14.4872   21.5646 C   0  0  0  0  0  0  0  0  0  0  0  0
  -22.1710  -15.8228   22.9032 C   0  0  0  0  0  0  0  0  0  0  0  0
  -20.7649  -22.3031   20.5997 C   0  0  0  0  0  0  0  0  0  0  0  0
  -24.3288  -15.0021   23.8618 C   0  0  0  0  0  0  0  0  0  0  0  0
  -27.2787  -28.5170   21.4972 C   0  0  0  0  0  0  0  0  0  0  0  0
  -26.4348  -31.3933   22.7370 C   0  0  0  0  0  0  0  0  0  0  0  0
  -23.9396  -33.5268   23.6691 C   0  0  0  0  0  0  0  0  0  0  0  0
  -18.6178  -18.2307   18.7285 C   0  0  0  0  0  0  0  0  0  0  0  0
  -31.4499  -26.4096   19.4435 C   0  0  0  0  0  0  0  0  0  0  0  0
  -25.6486  -29.3528   19.7652 C   0  0  0  0  0  0  0  0  0  0  0  0
  -24.5973  -29.6794   22.5098 C   0  0  0  0  0  0  0  0  0  0  0  0
  -31.1706  -27.5458   20.4239 C   0  0  0  0  0  0  0  0  0  0  0  0
  -17.6849  -15.8873   21.2415 C   0  0  0  0  0  0  0  0  0  0  0  0
  -30.2012  -27.0883   21.5092 C   0  0  0  0  0  0  0  0  0  0  0  0
  -19.0199  -15.3174   21.7239 C   0  0  0  0  0  0  0  0  0  0  0  0
  -17.6991  -16.1643   19.7398 C   0  0  0  0  0  0  0  0  0  0  0  0
  -20.1476  -16.4438   19.7597 C   0  0  0  0  0  0  0  0  0  0  0  0
  -28.8510  -26.6811   20.9069 C   0  0  1  0  0  0  0  0  0  0  0  0
  -26.5584  -29.7104   20.9364 C   0  0  1  0  0  0  0  0  0  0  0  0
  -20.2007  -16.2005   21.2777 C   0  0  2  0  0  0  0  0  0  0  0  0
  -18.5695  -23.6829   24.4649 C   0  0  0  0  0  0  0  0  0  0  0  0
  -23.5598  -35.7897   24.6852 C   0  0  0  0  0  0  0  0  0  0  0  0
  -27.1378  -30.2737   25.4869 C   0  0  0  0  0  0  0  0  0  0  0  0
  -25.8701  -32.1757   26.5084 C   0  0  0  0  0  0  0  0  0  0  0  0
  -27.8780  -32.6310   25.0999 C   0  0  0  0  0  0  0  0  0  0  0  0
  -23.9376  -21.8678   22.5991 C   0  0  0  0  0  0  0  0  0  0  0  0
  -23.7016  -21.5881   20.0999 C   0  0  0  0  0  0  0  0  0  0  0  0
  -22.6222  -19.9823   21.6572 C   0  0  0  0  0  0  0  0  0  0  0  0
  -22.5305  -34.5020   21.2561 C   0  0  0  0  0  0  0  0  0  0  0  0
  -19.5200  -24.8589   24.2746 C   0  0  0  0  0  0  0  0  0  0  0  0
  -19.6861  -20.2535   17.7662 C   0  0  0  0  0  0  0  0  0  0  0  0
  -19.5653  -21.3980   18.7564 C   0  0  0  0  0  0  0  0  0  0  0  0
  -20.7080  -26.4148   22.6774 C   0  0  0  0  0  0  0  0  0  1  0  0
  -19.8153  -25.1676   22.7918 C   0  0  1  0  0  0  0  0  0  0  0  0
  -25.7406  -31.8524   23.9964 C   0  0  1  0  0  0  0  0  0  0  0  0
  -23.7217  -35.0036   23.3934 C   0  0  2  0  0  0  0  0  0  0  0  0
  -26.6440  -31.7156   25.2545 C   0  0  0  0  0  0  0  0  0  0  0  0
  -22.9725  -21.4777   21.4576 C   0  0  0  0  0  0  0  0  0  0  0  0
  -22.1943  -14.8055   20.8753 N   0  0  0  0  0  0  0  0  0  0  0  0
  -21.8237  -22.3563   21.4681 N   0  0  0  0  0  0  0  0  0  0  0  0
  -21.5319  -15.6185   21.7157 N   0  0  0  0  0  0  0  0  0  0  0  0
  -25.8331  -30.3318   22.0463 N   0  0  0  0  0  0  0  0  0  0  0  0
  -18.8421  -17.0081   19.3828 N   0  0  0  0  0  0  0  0  0  0  0  0
  -21.6445  -16.6134   23.8624 N   0  0  0  0  0  0  0  0  0  0  0  0
  -25.4595  -14.2078   23.6275 N   0  0  0  0  0  0  0  0  0  0  0  0
  -28.0698  -27.8542   20.5783 N   0  0  0  0  0  0  0  0  0  0  0  0
  -25.2804  -33.2122   23.7363 N   0  0  0  0  0  0  0  0  0  0  0  0
  -19.7551  -18.9718   18.4320 N   0  0  0  0  0  0  0  0  0  0  0  0
  -22.4977  -35.2011   22.5665 N   0  3  0  0  0  0  0  0  0  0  0  0
  -24.2121  -15.5949   24.9611 O   0  0  0  0  0  0  0  0  0  0  0  0
  -27.1291  -28.2203   22.6768 O   0  0  0  0  0  0  0  0  0  0  0  0
  -27.4688  -31.9604   22.3753 O   0  0  0  0  0  0  0  0  0  0  0  0
  -23.0130  -32.7325   23.8142 O   0  0  0  0  0  0  0  0  0  0  0  0
  -17.4873  -18.6345   18.4355 O   0  0  0  0  0  0  0  0  0  0  0  0
  -27.1237  -11.0843   19.3252 O   0  0  0  0  0  0  0  0  0  0  0  0
  -20.8381  -26.7884   21.3063 O   0  0  0  0  0  0  0  0  0  1  0  0
  -20.7109  -21.3957   19.6336 O   0  0  0  0  0  0  0  0  0  0  0  0
  -32.4262  -12.5178   19.8074 F   0  0  0  0  0  0  0  0  0  0  0  0
  -28.2877  -11.3973   21.8132 F   0  0  0  0  0  0  0  0  0  0  0  0
  1  2  1  0  0  0  0
  1  5  2  0  0  0  0
  2  6  2  0  0  0  0
  3  8  2  0  0  0  0
  3 17  1  0  0  0  0
  4  9  1  0  0  0  0
  4 17  2  0  0  0  0
  5 19  1  0  0  0  0
  6 21  1  0  0  0  0
  7 10  2  0  0  0  0
  7 20  1  0  0  0  0
  8 24  1  0  0  0  0
  9 24  2  0  0  0  0
 10 25  1  0  0  0  0
 11 12  2  0  0  0  0
 11 26  1  0  0  0  0
 12 27  1  0  0  0  0
 13 22  1  0  0  0  0
 13 25  2  0  0  0  0
 14 23  1  0  0  0  0
 14 31  2  0  0  0  0
 15 27  2  0  0  0  0
 15 28  1  0  0  0  0
 16 23  2  0  0  0  0
 16 68  1  0  0  0  0
 17 29  1  0  0  0  0
 18 29  1  0  0  0  0
 18 30  2  0  0  0  0
 18 32  1  0  0  0  0
 19 21  2  0  0  0  0
 19 37  1  0  0  0  0
 20 22  2  0  0  0  0
 20 38  1  0  0  0  0
 21 46  1  0  0  0  0
 22 39  1  0  0  0  0
 23 62  1  0  0  0  0
 24 83  1  0  0  0  0
 25 84  1  0  0  0  0
 26 28  2  0  0  0  0
 26 83  1  0  0  0  0
 27 86  1  0  0  0  0
 28 87  1  0  0  0  0
 29 67  2  0  0  0  0
 30 69  1  0  0  0  0
 30 72  1  0  0  0  0
 31 68  1  0  0  0  0
 31 85  1  0  0  0  0
 32 73  1  0  0  0  0
 32 78  2  0  0  0  0
 33 47  1  0  0  0  0
 33 74  1  0  0  0  0
 33 79  2  0  0  0  0
 34 63  1  0  0  0  0
 34 70  1  0  0  0  0
 34 80  2  0  0  0  0
 35 64  1  0  0  0  0
 35 75  1  0  0  0  0
 35 81  2  0  0  0  0
 36 71  1  0  0  0  0
 36 76  1  0  0  0  0
 36 82  2  0  0  0  0
 37 40  1  0  0  0  0
 38 47  1  0  0  0  0
 39 70  1  0  0  0  0
 40 42  1  0  0  0  0
 41 43  1  0  0  0  0
 41 44  1  0  0  0  0
 42 46  1  0  0  0  0
 43 48  1  0  0  0  0
 44 71  1  0  0  0  0
 45 48  1  0  0  0  0
 45 71  1  0  0  0  0
 46 74  1  0  0  0  0
 47 70  1  0  0  0  0
 48 69  1  0  0  0  0
 49 58  1  0  0  0  0
 50 64  1  0  0  0  0
 51 65  1  0  0  0  0
 52 65  1  0  0  0  0
 53 65  1  0  0  0  0
 54 66  1  0  0  0  0
 55 66  1  0  0  0  0
 56 66  1  0  0  0  0
 57 77  1  0  0  0  0
 58 62  1  0  0  0  0
 59 60  1  0  0  0  0
 59 76  1  0  0  0  0
 60 85  1  0  0  0  0
 61 62  1  0  0  0  0
 61 84  1  0  0  0  0
 63 65  1  0  0  0  0
 63 75  1  0  0  0  0
 64 77  1  0  0  0  0
 66 68  1  0  0  0  0
 67 69  1  0  0  0  0
M  CHG  1  77   1
M  ISO  4  36 100  61 101  76 100  84 101
M  END
> <Batch ID>
0096

> <Smiles>
CCC(c1cc(OCC[100NH:0][100C:0](=O)N2CCCC(n3nc(-c4ccc(Oc5ccc(F)cc5F)cc4)c(C(N)=O)c3N)C2)n(C(C)(C)C)c1)[101CH2:1][101O:1]c1ccc2c(c1)CN(C(=O)C(NC(=O)C(C)NC)C(C)(C)C)C(C(=O)NC1CCCc3ccccc31)C2

> <Shape>
0.263

> <Color>
0.084

> <Negative vol penalty>
0.000

$$$$

  -OEChem-04052319243D

 82 90  0     1  0  0  0  0  0999 V2000
  -31.0253  -35.1437   19.7507 C   0  0  0  0  0  0  0  0  0  0  0  0
  -31.1112  -33.7874   19.4532 C   0  0  0  0  0  0  0  0  0  0  0  0
  -24.3606   -9.5149   21.0117 C   0  0  0  0  0  0  0  0  0  0  0  0
  -24.9419  -10.3108   23.2175 C   0  0  0  0  0  0  0  0  0  0  0  0
  -30.2009  -35.5778   20.7880 C   0  0  0  0  0  0  0  0  0  0  0  0
  -30.3736  -32.8643   20.1936 C   0  0  0  0  0  0  0  0  0  0  0  0
  -27.8338  -27.6844   18.1384 C   0  0  0  0  0  0  0  0  0  0  0  0
  -24.0706   -8.2577   21.5418 C   0  0  0  0  0  0  0  0  0  0  0  0
  -24.6519   -9.0536   23.7476 C   0  0  0  0  0  0  0  0  0  0  0  0
  -28.2475  -26.3538   18.1855 C   0  0  0  0  0  0  0  0  0  0  0  0
  -21.5349   -6.7907   23.2301 C   0  0  0  0  0  0  0  0  0  0  0  0
  -20.3609   -6.1652   22.8103 C   0  0  0  0  0  0  0  0  0  0  0  0
  -26.9066  -26.0131   20.1617 C   0  0  0  0  0  0  0  0  0  0  0  0
  -21.6545   -4.3155   21.9488 C   0  0  0  0  0  0  0  0  0  0  0  0
  -26.4164  -20.4404   23.3699 C   0  0  0  0  0  0  0  0  0  0  0  0
  -24.7963  -10.5415   21.8496 C   0  0  0  0  0  0  0  0  0  0  0  0
  -24.2098  -12.9224   21.1460 C   0  0  0  0  0  0  0  0  0  0  0  0
  -29.4454  -34.6604   21.5352 C   0  0  0  0  0  0  0  0  0  0  0  0
  -26.9604  -28.1930   19.1105 C   0  0  0  0  0  0  0  0  0  0  0  0
  -29.5394  -33.2864   21.2427 C   0  0  0  0  0  0  0  0  0  0  0  0
  -26.4813  -27.3498   20.1232 C   0  0  0  0  0  0  0  0  0  0  0  0
  -25.8925  -20.9358   22.1963 C   0  0  0  0  0  0  0  0  0  0  0  0
  -26.7459  -20.5216   21.1440 C   0  0  0  0  0  0  0  0  0  0  0  0
  -24.2163   -8.0270   22.9097 C   0  0  0  0  0  0  0  0  0  0  0  0
  -27.7863  -25.5187   19.1989 C   0  0  0  0  0  0  0  0  0  0  0  0
  -22.7687   -6.1786   23.0092 C   0  0  0  0  0  0  0  0  0  0  0  0
  -20.4207   -4.9276   22.1697 C   0  0  0  0  0  0  0  0  0  0  0  0
  -22.8285   -4.9410   22.3686 C   0  0  0  0  0  0  0  0  0  0  0  0
  -25.0965  -11.8402   21.3026 C   0  0  0  0  0  0  0  0  0  0  0  0
  -27.7652  -19.7854   21.7066 C   0  0  0  0  0  0  0  0  0  0  0  0
  -24.9758  -13.9157   20.5866 C   0  0  0  0  0  0  0  0  0  0  0  0
  -22.8181  -13.0208   21.4767 C   0  0  0  0  0  0  0  0  0  0  0  0
  -27.1421  -30.4756   21.3152 C   0  0  0  0  0  0  0  0  0  0  0  0
  -24.0040  -29.7734   21.7411 C   0  0  0  0  0  0  0  0  0  0  0  0
  -21.4778  -27.4982   21.4426 C   0  0  0  0  0  0  0  0  0  0  0  0
  -29.7035  -16.8726   20.3619 C   0  0  0  0  0  0  0  0  0  0  0  0
  -28.6047  -35.1726   22.6777 C   0  0  0  0  0  0  0  0  0  0  0  0
  -26.5025  -29.6235   19.0303 C   0  0  0  0  0  0  0  0  0  0  0  0
  -25.5265  -27.8416   21.1791 C   0  0  0  0  0  0  0  0  0  0  0  0
  -27.5684  -34.1658   23.1705 C   0  0  0  0  0  0  0  0  0  0  0  0
  -29.6336  -13.7684   18.6195 C   0  0  0  0  0  0  0  0  0  0  0  0
  -28.2015  -32.7887   23.3423 C   0  0  0  0  0  0  0  0  0  0  0  0
  -28.3779  -13.0773   19.1538 C   0  0  0  0  0  0  0  0  0  0  0  0
  -30.3430  -14.5703   19.7084 C   0  0  0  0  0  0  0  0  0  0  0  0
  -28.2338  -14.8507   20.9519 C   0  0  0  0  0  0  0  0  0  0  0  0
  -28.7358  -32.2567   22.0070 C   0  0  1  0  0  0  0  0  0  0  0  0
  -26.0158  -30.1710   20.3685 C   0  0  1  0  0  0  0  0  0  0  0  0
  -27.4533  -14.0750   19.8769 C   0  0  2  0  0  0  0  0  0  0  0  0
  -24.6663  -21.7487   22.0706 C   0  0  0  0  0  0  0  0  0  0  0  0
  -19.0306  -27.1992   21.9107 C   0  0  0  0  0  0  0  0  0  0  0  0
  -24.6198  -29.3950   24.7055 C   0  0  0  0  0  0  0  0  0  0  0  0
  -22.4300  -28.2036   24.9368 C   0  0  0  0  0  0  0  0  0  0  0  0
  -22.4779  -30.5953   24.2298 C   0  0  0  0  0  0  0  0  0  0  0  0
  -28.3930  -19.0701   24.0280 C   0  0  0  0  0  0  0  0  0  0  0  0
  -20.8614  -27.0871   18.5773 C   0  0  0  0  0  0  0  0  0  0  0  0
  -26.5727  -20.8285   19.6779 C   0  0  0  0  0  0  0  0  0  0  0  0
  -28.9221  -19.1182   21.0730 C   0  0  0  0  0  0  0  0  0  0  0  0
  -27.5137  -21.9191   19.1616 C   0  0  0  0  0  0  0  0  0  0  0  0
  -27.2773  -23.2777   19.8111 C   0  0  0  0  0  0  0  0  0  1  0  0
  -23.2326  -28.8082   22.6085 C   0  0  1  0  0  0  0  0  0  0  0  0
  -20.0711  -27.6223   20.8855 C   0  0  2  0  0  0  0  0  0  0  0  0
  -23.2096  -29.2415   24.1015 C   0  0  0  0  0  0  0  0  0  0  0  0
  -26.3313  -12.1196   20.8769 N   0  0  0  0  0  0  0  0  0  0  0  0
  -27.5545  -19.7425   23.0601 N   0  0  0  0  0  0  0  0  0  0  0  0
  -26.2259  -13.3886   20.4472 N   0  0  0  0  0  0  0  0  0  0  0  0
  -25.1129  -29.2497   21.0614 N   0  0  0  0  0  0  0  0  0  0  0  0
  -29.4115  -15.4987   20.3536 N   0  0  0  0  0  0  0  0  0  0  0  0
  -24.6951  -15.1799   20.2052 N   0  0  0  0  0  0  0  0  0  0  0  0
  -22.1859  -11.9064   22.0447 N   0  0  0  0  0  0  0  0  0  0  0  0
  -27.6502  -31.7547   21.1922 N   0  0  0  0  0  0  0  0  0  0  0  0
  -21.9115  -28.6812   22.0027 N   0  0  0  0  0  0  0  0  0  0  0  0
  -28.7651  -17.6833   20.9886 N   0  0  0  0  0  0  0  0  0  0  0  0
  -19.9154  -26.7650   19.6765 N   0  3  0  0  0  0  0  0  0  0  0  0
  -22.1510  -14.0607   21.2594 O   0  0  0  0  0  0  0  0  0  0  0  0
  -27.5211  -29.6143   22.1003 O   0  0  0  0  0  0  0  0  0  0  0  0
  -23.6320  -30.9469   21.6636 O   0  0  0  0  0  0  0  0  0  0  0  0
  -22.1256  -26.4551   21.3898 O   0  0  0  0  0  0  0  0  0  0  0  0
  -30.7223  -17.3426   19.8440 O   0  0  0  0  0  0  0  0  0  0  0  0
  -23.9332   -6.8005   23.4273 O   0  0  0  0  0  0  0  0  0  0  0  0
  -28.1891  -24.2198   19.2476 O   0  0  0  0  0  0  0  0  0  1  0  0
  -19.2932   -4.3264   21.7680 F   0  0  0  0  0  0  0  0  0  0  0  0
  -24.0108   -4.3475   22.1547 F   0  0  0  0  0  0  0  0  0  0  0  0
  1  2  1  0  0  0  0
  1  5  2  0  0  0  0
  2  6  2  0  0  0  0
  3  8  2  0  0  0  0
  3 16  1  0  0  0  0
  4  9  1  0  0  0  0
  4 16  2  0  0  0  0
  5 18  1  0  0  0  0
  6 20  1  0  0  0  0
  7 10  2  0  0  0  0
  7 19  1  0  0  0  0
  8 24  1  0  0  0  0
  9 24  2  0  0  0  0
 10 25  1  0  0  0  0
 11 12  2  0  0  0  0
 11 26  1  0  0  0  0
 12 27  1  0  0  0  0
 13 21  1  0  0  0  0
 13 25  2  0  0  0  0
 14 27  2  0  0  0  0
 14 28  1  0  0  0  0
 15 22  2  0  0  0  0
 15 64  1  0  0  0  0
 16 29  1  0  0  0  0
 17 29  1  0  0  0  0
 17 31  2  0  0  0  0
 17 32  1  0  0  0  0
 18 20  2  0  0  0  0
 18 37  1  0  0  0  0
 19 21  2  0  0  0  0
 19 38  1  0  0  0  0
 20 46  1  0  0  0  0
 21 39  1  0  0  0  0
 22 23  1  0  0  0  0
 22 49  1  0  0  0  0
 23 30  2  0  0  0  0
 23 56  1  0  0  0  0
 24 79  1  0  0  0  0
 25 80  1  0  0  0  0
 26 28  2  0  0  0  0
 26 79  1  0  0  0  0
 27 81  1  0  0  0  0
 28 82  1  0  0  0  0
 29 63  2  0  0  0  0
 30 57  1  0  0  0  0
 30 64  1  0  0  0  0
 31 65  1  0  0  0  0
 31 68  1  0  0  0  0
 32 69  1  0  0  0  0
 32 74  2  0  0  0  0
 33 47  1  0  0  0  0
 33 70  1  0  0  0  0
 33 75  2  0  0  0  0
 34 60  1  0  0  0  0
 34 66  1  0  0  0  0
 34 76  2  0  0  0  0
 35 61  1  0  0  0  0
 35 71  1  0  0  0  0
 35 77  2  0  0  0  0
 36 67  1  0  0  0  0
 36 72  1  0  0  0  0
 36 78  2  0  0  0  0
 37 40  1  0  0  0  0
 38 47  1  0  0  0  0
 39 66  1  0  0  0  0
 40 42  1  0  0  0  0
 41 43  1  0  0  0  0
 41 44  1  0  0  0  0
 42 46  1  0  0  0  0
 43 48  1  0  0  0  0
 44 67  1  0  0  0  0
 45 48  1  0  0  0  0
 45 67  1  0  0  0  0
 46 70  1  0  0  0  0
 47 66  1  0  0  0  0
 48 65  1  0  0  0  0
 50 61  1  0  0  0  0
 51 62  1  0  0  0  0
 52 62  1  0  0  0  0
 53 62  1  0  0  0  0
 54 64  1  0  0  0  0
 55 73  1  0  0  0  0
 56 58  1  0  0  0  0
 57 72  1  0  0  0  0
 58 59  1  0  0  0  0
 59 80  1  0  0  0  0
 60 62  1  0  0  0  0
 60 71  1  0  0  0  0
 61 73  1  0  0  0  0
 63 65  1  0  0  0  0
M  CHG  1  73   1
M  ISO  4  36 100  59 101  72 100  80 101
M  END
> <Batch ID>
0096

> <Smiles>
CNC(C)C(=O)NC(C(=O)N1Cc2cc([101O:1][101CH2:1]CCc3c(C)cn(C)c3C[100NH:0][100C:0](=O)N3CCCC(n4nc(-c5ccc(Oc6ccc(F)cc6F)cc5)c(C(N)=O)c4N)C3)ccc2CC1C(=O)NC1CCCc2ccccc21)C(C)(C)C

> <Shape>
0.275

> <Color>
0.129

> <Negative vol penalty>
0.000

$$$$

  -OEChem-04052319243D

 88 96  0     1  0  0  0  0  0999 V2000
  -31.3106  -30.6546   16.9076 C   0  0  0  0  0  0  0  0  0  0  0  0
  -31.0967  -29.4832   17.6269 C   0  0  0  0  0  0  0  0  0  0  0  0
  -24.3780  -14.4596   20.7368 C   0  0  0  0  0  0  0  0  0  0  0  0
  -26.5382  -14.3794   21.8157 C   0  0  0  0  0  0  0  0  0  0  0  0
  -30.6937  -31.8393   17.3075 C   0  0  0  0  0  0  0  0  0  0  0  0
  -30.2667  -29.4960   18.7473 C   0  0  0  0  0  0  0  0  0  0  0  0
  -26.5631  -24.9995   20.6369 C   0  0  0  0  0  0  0  0  0  0  0  0
  -24.4682  -13.0966   20.4548 C   0  0  0  0  0  0  0  0  0  0  0  0
  -26.6284  -13.0163   21.5338 C   0  0  0  0  0  0  0  0  0  0  0  0
  -26.7077  -24.0119   21.6103 C   0  0  0  0  0  0  0  0  0  0  0  0
  -23.9679   -9.5619   19.7688 C   0  0  0  0  0  0  0  0  0  0  0  0
  -22.8416   -8.7744   20.0075 C   0  0  0  0  0  0  0  0  0  0  0  0
  -25.5252  -25.4021   23.1877 C   0  0  0  0  0  0  0  0  0  0  0  0
  -22.9069   -9.3888   22.3431 C   0  0  0  0  0  0  0  0  0  0  0  0
  -30.9079  -22.5827   22.8740 C   0  0  0  0  0  0  0  0  0  0  0  0
  -25.4131  -15.1011   21.4171 C   0  0  0  0  0  0  0  0  0  0  0  0
  -24.7690  -17.1053   22.8579 C   0  0  0  0  0  0  0  0  0  0  0  0
  -29.8480  -31.8645   18.4277 C   0  0  0  0  0  0  0  0  0  0  0  0
  -25.9069  -26.2023   20.9352 C   0  0  0  0  0  0  0  0  0  0  0  0
  -29.6390  -30.6824   19.1634 C   0  0  0  0  0  0  0  0  0  0  0  0
  -25.3713  -26.4022   22.2156 C   0  0  0  0  0  0  0  0  0  0  0  0
  -25.5933  -12.3749   20.8534 C   0  0  0  0  0  0  0  0  0  0  0  0
  -26.1913  -24.2143   22.8868 C   0  0  0  0  0  0  0  0  0  0  0  0
  -24.5638  -10.2627   20.8174 C   0  0  0  0  0  0  0  0  0  0  0  0
  -22.3111   -8.6879   21.2946 C   0  0  0  0  0  0  0  0  0  0  0  0
  -24.0333  -10.1762   22.1045 C   0  0  0  0  0  0  0  0  0  0  0  0
  -25.3208  -16.5092   21.7081 C   0  0  0  0  0  0  0  0  0  0  0  0
  -30.9632  -22.7105   21.5148 C   0  0  0  0  0  0  0  0  0  0  0  0
  -24.9226  -18.4547   22.6525 C   0  0  0  0  0  0  0  0  0  0  0  0
  -30.9675  -24.7426   22.3929 C   0  0  0  0  0  0  0  0  0  0  0  0
  -24.1710  -16.4940   24.0087 C   0  0  0  0  0  0  0  0  0  0  0  0
  -26.7512  -29.2664   20.9823 C   0  0  0  0  0  0  0  0  0  0  0  0
  -23.5930  -29.7250   21.5633 C   0  0  0  0  0  0  0  0  0  0  0  0
  -20.6494  -28.4587   22.7374 C   0  0  0  0  0  0  0  0  0  0  0  0
  -28.7555  -21.6675   19.3604 C   0  0  0  0  0  0  0  0  0  0  0  0
  -29.2409  -33.1792   18.8495 C   0  0  0  0  0  0  0  0  0  0  0  0
  -25.7358  -27.2466   19.8663 C   0  0  0  0  0  0  0  0  0  0  0  0
  -24.6405  -27.6675   22.5807 C   0  0  0  0  0  0  0  0  0  0  0  0
  -28.0788  -33.0275   19.8277 C   0  0  0  0  0  0  0  0  0  0  0  0
  -25.2015  -21.7011   19.1491 C   0  0  0  0  0  0  0  0  0  0  0  0
  -28.4404  -32.0461   20.9381 C   0  0  0  0  0  0  0  0  0  0  0  0
  -24.7793  -20.4281   19.8847 C   0  0  0  0  0  0  0  0  0  0  0  0
  -26.4945  -21.4961   18.3629 C   0  0  0  0  0  0  0  0  0  0  0  0
  -27.1997  -19.6932   19.8880 C   0  0  0  0  0  0  0  0  0  0  0  0
  -28.7258  -30.6507   20.3697 C   0  0  1  0  0  0  0  0  0  0  0  0
  -25.5000  -28.6448   20.4293 C   0  0  1  0  0  0  0  0  0  0  0  0
  -25.9309  -19.8667   20.7402 C   0  0  2  0  0  0  0  0  0  0  0  0
  -29.5772  -26.8380   22.5652 C   0  0  0  0  0  0  0  0  0  0  0  0
  -31.8086  -26.8986   21.3938 C   0  0  0  0  0  0  0  0  0  0  0  0
  -18.2490  -29.0832   23.1188 C   0  0  0  0  0  0  0  0  0  0  0  0
  -29.6970  -21.7466   26.2860 C   0  0  0  0  0  0  0  0  0  0  0  0
  -24.4078  -31.3504   24.0136 C   0  0  0  0  0  0  0  0  0  0  0  0
  -22.0586  -31.1339   24.8519 C   0  0  0  0  0  0  0  0  0  0  0  0
  -22.5102  -32.3184   22.7034 C   0  0  0  0  0  0  0  0  0  0  0  0
  -26.7104  -21.3117   25.9872 C   0  0  0  0  0  0  0  0  0  0  0  0
  -27.2686  -23.1841   27.5126 C   0  0  0  0  0  0  0  0  0  0  0  0
  -19.6873  -26.3476   20.8999 C   0  0  0  0  0  0  0  0  0  0  0  0
  -30.9858  -21.7063   20.4481 C   0  0  0  0  0  0  0  0  0  0  0  0
  -29.4523  -24.1305   25.4706 C   0  0  0  0  0  0  0  0  0  0  0  0
  -30.8630  -24.1945   24.8604 C   0  0  0  0  0  0  0  0  0  0  0  0
  -26.4118  -23.6879   25.1955 C   0  0  0  0  0  0  0  0  0  1  0  0
  -30.9910  -26.2217   22.5139 C   0  0  0  0  0  0  0  0  0  0  0  0
  -22.7340  -29.8020   22.8023 C   0  0  1  0  0  0  0  0  0  0  0  0
  -19.2477  -28.4621   22.1547 C   0  0  2  0  0  0  0  0  0  0  0  0
  -28.7983  -22.7211   25.5038 C   0  0  2  0  0  0  0  0  0  0  0  0
  -22.9431  -31.1280   23.5868 C   0  0  0  0  0  0  0  0  0  0  0  0
  -27.3068  -22.7403   26.0296 C   0  0  0  0  0  0  0  0  0  0  0  0
  -25.7899  -17.4064   20.8368 N   0  0  0  0  0  0  0  0  0  0  0  0
  -30.9124  -23.8555   23.3916 N   0  0  0  0  0  0  0  0  0  0  0  0
  -25.5331  -18.5799   21.4393 N   0  0  0  0  0  0  0  0  0  0  0  0
  -30.9990  -24.0574   21.2453 N   0  3  0  0  0  0  0  0  0  0  0  0
  -24.5045  -28.6613   21.5030 N   0  0  0  0  0  0  0  0  0  0  0  0
  -27.5466  -20.9638   19.2321 N   0  0  0  0  0  0  0  0  0  0  0  0
  -24.5937  -19.5344   23.3931 N   0  0  0  0  0  0  0  0  0  0  0  0
  -24.0936  -15.0954   24.0579 N   0  0  0  0  0  0  0  0  0  0  0  0
  -27.4881  -29.9721   20.0504 N   0  0  0  0  0  0  0  0  0  0  0  0
  -21.3613  -29.5783   22.3619 N   0  0  0  0  0  0  0  0  0  0  0  0
  -29.6965  -21.0970   20.2087 N   0  0  0  0  0  0  0  0  0  0  0  0
  -18.8080  -27.0700   21.8548 N   0  3  0  0  0  0  0  0  0  0  0  0
  -23.7039  -17.1685   24.9576 O   0  0  0  0  0  0  0  0  0  0  0  0
  -27.0269  -29.1179   22.1671 O   0  0  0  0  0  0  0  0  0  0  0  0
  -23.4551  -30.5730   20.6782 O   0  0  0  0  0  0  0  0  0  0  0  0
  -21.0694  -27.5552   23.4570 O   0  0  0  0  0  0  0  0  0  0  0  0
  -28.9775  -22.7286   18.7672 O   0  0  0  0  0  0  0  0  0  0  0  0
  -25.6815  -11.0447   20.5787 O   0  0  0  0  0  0  0  0  0  0  0  0
  -26.3316  -23.2522   23.8390 O   0  0  0  0  0  0  0  0  0  1  0  0
  -21.2286   -7.9329   21.5233 F   0  0  0  0  0  0  0  0  0  0  0  0
  -24.6007  -10.8482   23.1156 F   0  0  0  0  0  0  0  0  0  0  0  0
  1  2  1  0  0  0  0
  1  5  2  0  0  0  0
  2  6  2  0  0  0  0
  3  8  2  0  0  0  0
  3 16  1  0  0  0  0
  4  9  1  0  0  0  0
  4 16  2  0  0  0  0
  5 18  1  0  0  0  0
  6 20  1  0  0  0  0
  7 10  2  0  0  0  0
  7 19  1  0  0  0  0
  8 22  1  0  0  0  0
  9 22  2  0  0  0  0
 10 23  1  0  0  0  0
 11 12  2  0  0  0  0
 11 24  1  0  0  0  0
 12 25  1  0  0  0  0
 13 21  1  0  0  0  0
 13 23  2  0  0  0  0
 14 25  2  0  0  0  0
 14 26  1  0  0  0  0
 15 28  2  0  0  0  0
 15 69  1  0  0  0  0
 16 27  1  0  0  0  0
 17 27  1  0  0  0  0
 17 29  2  0  0  0  0
 17 31  1  0  0  0  0
 18 20  2  0  0  0  0
 18 36  1  0  0  0  0
 19 21  2  0  0  0  0
 19 37  1  0  0  0  0
 20 45  1  0  0  0  0
 21 38  1  0  0  0  0
 22 85  1  0  0  0  0
 23 86  1  0  0  0  0
 24 26  2  0  0  0  0
 24 85  1  0  0  0  0
 25 87  1  0  0  0  0
 26 88  1  0  0  0  0
 27 68  2  0  0  0  0
 28 58  1  0  0  0  0
 28 71  1  0  0  0  0
 29 70  1  0  0  0  0
 29 74  1  0  0  0  0
 30 62  1  0  0  0  0
 30 69  1  0  0  0  0
 30 71  2  0  0  0  0
 31 75  1  0  0  0  0
 31 80  2  0  0  0  0
 32 46  1  0  0  0  0
 32 76  1  0  0  0  0
 32 81  2  0  0  0  0
 33 63  1  0  0  0  0
 33 72  1  0  0  0  0
 33 82  2  0  0  0  0
 34 64  1  0  0  0  0
 34 77  1  0  0  0  0
 34 83  2  0  0  0  0
 35 73  1  0  0  0  0
 35 78  1  0  0  0  0
 35 84  2  0  0  0  0
 36 39  1  0  0  0  0
 37 46  1  0  0  0  0
 38 72  1  0  0  0  0
 39 41  1  0  0  0  0
 40 42  1  0  0  0  0
 40 43  1  0  0  0  0
 41 45  1  0  0  0  0
 42 47  1  0  0  0  0
 43 73  1  0  0  0  0
 44 47  1  0  0  0  0
 44 73  1  0  0  0  0
 45 76  1  0  0  0  0
 46 72  1  0  0  0  0
 47 70  1  0  0  0  0
 48 62  1  0  0  0  0
 49 62  1  0  0  0  0
 50 64  1  0  0  0  0
 51 65  1  0  0  0  0
 52 66  1  0  0  0  0
 53 66  1  0  0  0  0
 54 66  1  0  0  0  0
 55 67  1  0  0  0  0
 56 67  1  0  0  0  0
 57 79  1  0  0  0  0
 58 78  1  0  0  0  0
 59 60  1  0  0  0  0
 59 65  1  0  0  0  0
 60 69  1  0  0  0  0
 61 67  1  0  0  0  0
 61 86  1  0  0  0  0
 63 66  1  0  0  0  0
 63 77  1  0  0  0  0
 64 79  1  0  0  0  0
 65 67  1  0  0  0  0
 68 70  1  0  0  0  0
M  CHG  2  71   1  79   1
M  ISO  4  35 100  61 101  78 100  86 101
M  END
> <Batch ID>
0096

> <Smiles>
CNC(C)C(=O)NC(C(=O)N1Cc2cc([101O:1][101CH2:1]C(C)(C)C(C)CCn3cc(C[100NH:0][100C:0](=O)N4CCCC(n5nc(-c6ccc(Oc7ccc(F)cc7F)cc6)c(C(N)=O)c5N)C4)nc3C(C)C)ccc2CC1C(=O)NC1CCCc2ccccc21)C(C)(C)C

> <Shape>
0.203

> <Color>
0.067

> <Negative vol penalty>
0.000

$$$$

  -OEChem-04052319243D

 81 89  0     1  0  0  0  0  0999 V2000
  -27.0525  -34.3902   25.5464 C   0  0  0  0  0  0  0  0  0  0  0  0
  -27.4170  -33.1760   24.9734 C   0  0  0  0  0  0  0  0  0  0  0  0
  -26.4292  -12.5782   21.0035 C   0  0  0  0  0  0  0  0  0  0  0  0
  -24.0774  -12.5087   20.4546 C   0  0  0  0  0  0  0  0  0  0  0  0
  -25.7286  -34.6125   25.9230 C   0  0  0  0  0  0  0  0  0  0  0  0
  -26.4580  -32.1829   24.7776 C   0  0  0  0  0  0  0  0  0  0  0  0
  -26.7953  -30.0308   20.2060 C   0  0  0  0  0  0  0  0  0  0  0  0
  -26.2723  -11.4568   21.8180 C   0  0  0  0  0  0  0  0  0  0  0  0
  -23.9205  -11.3872   21.2690 C   0  0  0  0  0  0  0  0  0  0  0  0
  -27.8023  -29.0847   20.0204 C   0  0  0  0  0  0  0  0  0  0  0  0
  -24.5214   -8.0672   21.0764 C   0  0  0  0  0  0  0  0  0  0  0  0
  -23.7731   -7.0028   20.5739 C   0  0  0  0  0  0  0  0  0  0  0  0
  -26.1895  -27.3170   20.3255 C   0  0  0  0  0  0  0  0  0  0  0  0
  -22.2234   -7.2234   22.4143 C   0  0  0  0  0  0  0  0  0  0  0  0
  -25.3318  -13.1042   20.3219 C   0  0  0  0  0  0  0  0  0  0  0  0
  -25.8125  -14.2805   18.1099 C   0  0  0  0  0  0  0  0  0  0  0  0
  -24.7509  -33.6252   25.7228 C   0  0  0  0  0  0  0  0  0  0  0  0
  -25.4776  -29.6264   20.4640 C   0  0  0  0  0  0  0  0  0  0  0  0
  -25.1200  -32.3917   25.1530 C   0  0  0  0  0  0  0  0  0  0  0  0
  -25.1671  -28.2599   20.5114 C   0  0  0  0  0  0  0  0  0  0  0  0
  -25.0179  -10.8612   21.9507 C   0  0  0  0  0  0  0  0  0  0  0  0
  -27.5001  -27.7276   20.0830 C   0  0  0  0  0  0  0  0  0  0  0  0
  -24.1208   -8.7097   22.2480 C   0  0  0  0  0  0  0  0  0  0  0  0
  -22.6241   -6.5809   21.2427 C   0  0  0  0  0  0  0  0  0  0  0  0
  -22.9718   -8.2878   22.9168 C   0  0  0  0  0  0  0  0  0  0  0  0
  -25.4932  -14.2629   19.4808 C   0  0  0  0  0  0  0  0  0  0  0  0
  -25.8485  -15.6140   17.7828 C   0  0  0  0  0  0  0  0  0  0  0  0
  -26.0547  -13.1890   17.2123 C   0  0  0  0  0  0  0  0  0  0  0  0
  -23.4452  -30.0104   22.8777 C   0  0  0  0  0  0  0  0  0  0  0  0
  -21.3693  -28.5625   20.8487 C   0  0  0  0  0  0  0  0  0  0  0  0
  -20.8984  -26.5079   18.1648 C   0  0  0  0  0  0  0  0  0  0  0  0
  -27.2709  -20.7145   18.6667 C   0  0  0  0  0  0  0  0  0  0  0  0
  -23.3420  -33.8937   26.1893 C   0  0  0  0  0  0  0  0  0  0  0  0
  -24.3977  -30.6593   20.6354 C   0  0  0  0  0  0  0  0  0  0  0  0
  -23.7644  -27.7737   20.7654 C   0  0  0  0  0  0  0  0  0  0  0  0
  -22.3126  -32.9304   25.6040 C   0  0  0  0  0  0  0  0  0  0  0  0
  -24.3751  -19.6924   20.3735 C   0  0  0  0  0  0  0  0  0  0  0  0
  -22.8106  -31.4920   25.7033 C   0  0  0  0  0  0  0  0  0  0  0  0
  -24.4310  -18.1768   20.1846 C   0  0  0  0  0  0  0  0  0  0  0  0
  -25.7566  -20.2866   20.6538 C   0  0  0  0  0  0  0  0  0  0  0  0
  -27.6496  -22.5345   20.3897 C   0  0  0  0  0  0  0  0  0  0  0  0
  -27.6660  -23.0598   17.9790 C   0  0  0  0  0  0  0  0  0  0  0  0
  -26.8366  -18.4086   19.4598 C   0  0  0  0  0  0  0  0  0  0  0  0
  -29.0539  -23.1120   20.5348 C   0  0  0  0  0  0  0  0  0  0  0  0
  -29.0751  -23.6204   18.0816 C   0  0  0  0  0  0  0  0  0  0  0  0
  -24.1035  -31.2992   24.9017 C   0  0  1  0  0  0  0  0  0  0  0  0
  -23.1872  -30.1365   21.4028 C   0  0  1  0  0  0  0  0  0  0  0  0
  -25.4718  -17.7911   19.1184 C   0  0  1  0  0  0  0  0  0  0  0  0
  -19.0873  -25.4813   16.7636 C   0  0  0  0  0  0  0  0  0  0  0  0
  -32.0176  -26.3098   21.1460 C   0  0  0  0  0  0  0  0  0  0  0  0
  -31.6565  -23.7220   19.8953 C   0  0  0  0  0  0  0  0  0  0  0  0
  -20.7875  -26.5576   23.0740 C   0  0  0  0  0  0  0  0  0  0  0  0
  -19.7491  -25.0596   21.3577 C   0  0  0  0  0  0  0  0  0  0  0  0
  -18.7738  -27.3130   21.7977 C   0  0  0  0  0  0  0  0  0  0  0  0
  -21.8692  -27.8558   15.7153 C   0  0  0  0  0  0  0  0  0  0  0  0
  -29.8021  -27.1710   20.3004 C   0  0  0  0  0  0  0  0  0  1  0  0
  -20.9734  -27.1337   20.5642 C   0  0  1  0  0  0  0  0  0  0  0  0
  -20.0404  -26.6558   16.9213 C   0  0  2  0  0  0  0  0  0  0  0  0
  -30.5982  -25.9203   20.7042 C   0  0  1  0  0  0  0  0  0  0  0  0
  -30.6309  -24.8168   19.6227 C   0  0  2  0  0  0  0  0  0  0  0  0
  -20.0979  -26.5248   21.6955 C   0  0  0  0  0  0  0  0  0  0  0  0
  -25.3376  -15.4880   19.9897 N   0  0  0  0  0  0  0  0  0  0  0  0
  -25.5602  -16.2878   18.9329 N   0  0  0  0  0  0  0  0  0  0  0  0
  -22.7445  -28.8223   20.9328 N   0  0  0  0  0  0  0  0  0  0  0  0
  -26.7244  -19.8583   19.6342 N   0  0  0  0  0  0  0  0  0  0  0  0
  -27.4143  -22.0647   19.0190 N   0  0  0  0  0  0  0  0  0  0  0  0
  -26.0985  -16.2641   16.6264 N   0  0  0  0  0  0  0  0  0  0  0  0
  -25.9772  -11.8823   17.7131 N   0  0  0  0  0  0  0  0  0  0  0  0
  -23.8110  -31.1949   23.4882 N   0  0  0  0  0  0  0  0  0  0  0  0
  -20.3348  -27.1407   19.2525 N   0  0  0  0  0  0  0  0  0  0  0  0
  -29.2853  -24.1632   19.4759 N   0  3  0  0  0  0  0  0  0  0  0  0
  -20.8989  -26.7308   15.7054 N   0  3  0  0  0  0  0  0  0  0  0  0
  -26.3478  -13.3676   16.0058 O   0  0  0  0  0  0  0  0  0  0  0  0
  -23.3201  -28.9195   23.4218 O   0  0  0  0  0  0  0  0  0  0  0  0
  -20.4909  -29.4179   20.9841 O   0  0  0  0  0  0  0  0  0  0  0  0
  -21.9605  -25.8894   18.1715 O   0  0  0  0  0  0  0  0  0  0  0  0
  -27.6117  -20.2967   17.5528 O   0  0  0  0  0  0  0  0  0  0  0  0
  -24.8644   -9.7668   22.7452 O   0  0  0  0  0  0  0  0  0  0  0  0
  -28.4876  -26.7961   19.9017 O   0  0  0  0  0  0  0  0  0  1  0  0
  -21.9047   -5.5597   20.7592 F   0  0  0  0  0  0  0  0  0  0  0  0
  -22.5813   -8.9019   24.0421 F   0  0  0  0  0  0  0  0  0  0  0  0
  1  2  1  0  0  0  0
  1  5  2  0  0  0  0
  2  6  2  0  0  0  0
  3  8  2  0  0  0  0
  3 15  1  0  0  0  0
  4  9  1  0  0  0  0
  4 15  2  0  0  0  0
  5 17  1  0  0  0  0
  6 19  1  0  0  0  0
  7 10  2  0  0  0  0
  7 18  1  0  0  0  0
  8 21  1  0  0  0  0
  9 21  2  0  0  0  0
 10 22  1  0  0  0  0
 11 12  2  0  0  0  0
 11 23  1  0  0  0  0
 12 24  1  0  0  0  0
 13 20  1  0  0  0  0
 13 22  2  0  0  0  0
 14 24  2  0  0  0  0
 14 25  1  0  0  0  0
 15 26  1  0  0  0  0
 16 26  1  0  0  0  0
 16 27  2  0  0  0  0
 16 28  1  0  0  0  0
 17 19  2  0  0  0  0
 17 33  1  0  0  0  0
 18 20  2  0  0  0  0
 18 34  1  0  0  0  0
 19 46  1  0  0  0  0
 20 35  1  0  0  0  0
 21 78  1  0  0  0  0
 22 79  1  0  0  0  0
 23 25  2  0  0  0  0
 23 78  1  0  0  0  0
 24 80  1  0  0  0  0
 25 81  1  0  0  0  0
 26 62  2  0  0  0  0
 27 63  1  0  0  0  0
 27 67  1  0  0  0  0
 28 68  1  0  0  0  0
 28 73  2  0  0  0  0
 29 47  1  0  0  0  0
 29 69  1  0  0  0  0
 29 74  2  0  0  0  0
 30 57  1  0  0  0  0
 30 64  1  0  0  0  0
 30 75  2  0  0  0  0
 31 58  1  0  0  0  0
 31 70  1  0  0  0  0
 31 76  2  0  0  0  0
 32 65  1  0  0  0  0
 32 66  1  0  0  0  0
 32 77  2  0  0  0  0
 33 36  1  0  0  0  0
 34 47  1  0  0  0  0
 35 64  1  0  0  0  0
 36 38  1  0  0  0  0
 37 39  1  0  0  0  0
 37 40  1  0  0  0  0
 38 46  1  0  0  0  0
 39 48  1  0  0  0  0
 40 65  1  0  0  0  0
 41 44  1  0  0  0  0
 41 66  1  0  0  0  0
 42 45  1  0  0  0  0
 42 66  1  0  0  0  0
 43 48  1  0  0  0  0
 43 65  1  0  0  0  0
 44 71  1  0  0  0  0
 45 71  1  0  0  0  0
 46 69  1  0  0  0  0
 47 64  1  0  0  0  0
 48 63  1  0  0  0  0
 49 58  1  0  0  0  0
 50 59  1  0  0  0  0
 51 60  1  0  0  0  0
 52 61  1  0  0  0  0
 53 61  1  0  0  0  0
 54 61  1  0  0  0  0
 55 72  1  0  0  0  0
 56 59  1  0  0  0  0
 56 79  1  0  0  0  0
 57 61  1  0  0  0  0
 57 70  1  0  0  0  0
 58 72  1  0  0  0  0
 59 60  1  0  0  0  0
 60 71  1  0  0  0  0
 62 63  1  0  0  0  0
M  CHG  2  71   1  72   1
M  ISO  4  32 100  56 101  66 100  79 101
M  END
> <Batch ID>
0096

> <Smiles>
CNC(C)C(=O)NC(C(=O)N1Cc2cc([101O:1][101CH2:1]C(C)C(C)N3CC[100N:0]([100C:0](=O)N4CCCC(n5nc(-c6ccc(Oc7ccc(F)cc7F)cc6)c(C(N)=O)c5N)C4)CC3)ccc2CC1C(=O)NC1CCCc2ccccc21)C(C)(C)C

> <Shape>
0.279

> <Color>
0.082

> <Negative vol penalty>
0.000

$$$$

  -OEChem-04052319243D

 92100  0     1  0  0  0  0  0999 V2000
  -19.5591   -7.7199   21.0821 C   0  0  0  0  0  0  0  0  0  0  0  0
  -19.2199   -8.8621   20.3639 C   0  0  0  0  0  0  0  0  0  0  0  0
  -20.4712  -28.4198   23.2821 C   0  0  0  0  0  0  0  0  0  0  0  0
  -20.3120  -26.7355   21.5573 C   0  0  0  0  0  0  0  0  0  0  0  0
  -20.4889   -7.7997   22.1179 C   0  0  0  0  0  0  0  0  0  0  0  0
  -19.8096  -10.0851   20.6819 C   0  0  0  0  0  0  0  0  0  0  0  0
  -21.9978  -16.1879   17.6351 C   0  0  0  0  0  0  0  0  0  0  0  0
  -19.0860  -28.3869   23.4421 C   0  0  0  0  0  0  0  0  0  0  0  0
  -18.9267  -26.7026   21.7173 C   0  0  0  0  0  0  0  0  0  0  0  0
  -21.8530  -17.5685   17.7642 C   0  0  0  0  0  0  0  0  0  0  0  0
  -16.3664  -29.6228   21.8607 C   0  0  0  0  0  0  0  0  0  0  0  0
  -15.6964  -30.8427   21.9541 C   0  0  0  0  0  0  0  0  0  0  0  0
  -23.5054  -17.5715   19.5217 C   0  0  0  0  0  0  0  0  0  0  0  0
  -29.3002  -23.0881   18.5630 C   0  0  0  0  0  0  0  0  0  0  0  0
  -14.8851  -30.2292   24.1455 C   0  0  0  0  0  0  0  0  0  0  0  0
  -21.0842  -27.5941   22.3397 C   0  0  0  0  0  0  0  0  0  0  0  0
  -23.4683  -26.8441   22.8508 C   0  0  0  0  0  0  0  0  0  0  0  0
  -21.0975   -9.0224   22.4425 C   0  0  0  0  0  0  0  0  0  0  0  0
  -22.8911  -15.4860   18.4572 C   0  0  0  0  0  0  0  0  0  0  0  0
  -20.7474  -10.1815   21.7240 C   0  0  0  0  0  0  0  0  0  0  0  0
  -23.6616  -16.1823   19.3993 C   0  0  0  0  0  0  0  0  0  0  0  0
  -30.1689  -22.9599   19.6410 C   0  0  0  0  0  0  0  0  0  0  0  0
  -29.0785  -24.3404   18.0011 C   0  0  0  0  0  0  0  0  0  0  0  0
  -18.3137  -27.5283   22.6597 C   0  0  0  0  0  0  0  0  0  0  0  0
  -22.6047  -18.2601   18.7096 C   0  0  0  0  0  0  0  0  0  0  0  0
  -16.2957  -28.7061   22.9097 C   0  0  0  0  0  0  0  0  0  0  0  0
  -14.9558  -31.1459   23.0965 C   0  0  0  0  0  0  0  0  0  0  0  0
  -15.5550  -29.0093   24.0521 C   0  0  0  0  0  0  0  0  0  0  0  0
  -22.5151  -27.6280   22.1736 C   0  0  0  0  0  0  0  0  0  0  0  0
  -30.7862  -24.1057   20.1163 C   0  0  0  0  0  0  0  0  0  0  0  0
  -29.7444  -25.4245   18.5499 C   0  0  0  0  0  0  0  0  0  0  0  0
  -24.6755  -27.2530   22.3389 C   0  0  0  0  0  0  0  0  0  0  0  0
  -23.2795  -25.8363   23.8530 C   0  0  0  0  0  0  0  0  0  0  0  0
  -22.6039  -13.1827   20.6289 C   0  0  0  0  0  0  0  0  0  0  0  0
  -25.8461  -13.2772   20.5896 C   0  0  0  0  0  0  0  0  0  0  0  0
  -28.6850  -15.0601   19.9503 C   0  0  0  0  0  0  0  0  0  0  0  0
  -27.9008  -28.6519   18.0046 C   0  0  0  0  0  0  0  0  0  0  0  0
  -22.0617   -9.0683   23.6013 C   0  0  0  0  0  0  0  0  0  0  0  0
  -23.0552  -14.0005   18.2872 C   0  0  0  0  0  0  0  0  0  0  0  0
  -24.6493  -15.4783   20.2922 C   0  0  0  0  0  0  0  0  0  0  0  0
  -22.9201  -10.3303   23.6298 C   0  0  0  0  0  0  0  0  0  0  0  0
  -25.8356  -31.1981   19.3932 C   0  0  0  0  0  0  0  0  0  0  0  0
  -22.0581  -11.5675   23.3993 C   0  0  0  0  0  0  0  0  0  0  0  0
  -24.8629  -30.4312   20.2908 C   0  0  0  0  0  0  0  0  0  0  0  0
  -26.1671  -30.4173   18.1234 C   0  0  0  0  0  0  0  0  0  0  0  0
  -25.6849  -28.2780   19.2481 C   0  0  0  0  0  0  0  0  0  0  0  0
  -21.3839  -11.5216   22.0228 C   0  0  1  0  0  0  0  0  0  0  0  0
  -23.6185  -13.3157   19.5286 C   0  0  1  0  0  0  0  0  0  0  0  0
  -25.3641  -29.0010   20.5675 C   0  0  2  0  0  0  0  0  0  0  0  0
  -31.7285  -24.0293   21.2727 C   0  0  0  0  0  0  0  0  0  0  0  0
  -31.1863  -14.8838   20.0503 C   0  0  0  0  0  0  0  0  0  0  0  0
  -29.0511  -19.9873   23.5353 C   0  0  0  0  0  0  0  0  0  0  0  0
  -29.4204  -18.9153   21.3049 C   0  0  0  0  0  0  0  0  0  0  0  0
  -25.7477  -13.6340   23.6183 C   0  0  0  0  0  0  0  0  0  0  0  0
  -28.1326  -14.3916   23.5366 C   0  0  0  0  0  0  0  0  0  0  0  0
  -27.5338  -12.0822   22.8081 C   0  0  0  0  0  0  0  0  0  0  0  0
  -28.9469  -15.4742   17.0316 C   0  0  0  0  0  0  0  0  0  0  0  0
  -23.6578  -24.8727   19.1402 C   0  0  0  0  0  0  0  0  0  0  0  0
  -30.4109  -21.6209   20.2474 C   0  0  0  0  0  0  0  0  0  0  0  0
  -28.1374  -24.4864   16.8320 C   0  0  0  0  0  0  0  0  0  0  0  0
  -29.5451  -26.7931   17.9856 C   0  0  0  0  0  0  0  0  0  0  0  0
  -26.7309  -23.9318   17.0939 C   0  0  0  0  0  0  0  0  0  0  0  0
  -29.6520  -21.4414   21.5763 C   0  0  0  0  0  0  0  0  0  0  0  0
  -23.5416  -21.7456   18.6861 C   0  0  0  0  0  0  0  0  0  0  0  0
  -25.9556  -24.6161   18.2156 C   0  0  0  0  0  0  0  0  0  0  0  0
  -24.7251  -22.6240   19.0630 C   0  0  0  0  0  0  0  0  0  0  0  0
  -23.6093  -20.3409   19.2728 C   0  0  0  0  0  0  0  0  0  1  0  0
  -26.9025  -14.0458   21.3461 C   0  0  1  0  0  0  0  0  0  0  0  0
  -29.9477  -14.7038   19.1865 C   0  0  2  0  0  0  0  0  0  0  0  0
  -29.8436  -20.0591   22.2276 C   0  0  0  0  0  0  0  0  0  0  0  0
  -27.0592  -13.5517   22.8119 C   0  0  0  0  0  0  0  0  0  0  0  0
  -23.0689  -28.4713   21.2983 N   0  0  0  0  0  0  0  0  0  0  0  0
  -30.5957  -25.3391   19.5967 N   0  0  0  0  0  0  0  0  0  0  0  0
  -24.3833  -28.2196   21.4221 N   0  0  0  0  0  0  0  0  0  0  0  0
  -24.7691  -14.0246   20.0922 N   0  0  0  0  0  0  0  0  0  0  0  0
  -26.6381  -29.0705   18.4555 N   0  0  0  0  0  0  0  0  0  0  0  0
  -25.9477  -26.8766   22.5880 N   0  0  0  0  0  0  0  0  0  0  0  0
  -21.9730  -25.5396   24.2644 N   0  0  0  0  0  0  0  0  0  0  0  0
  -22.3285  -11.8764   20.9853 N   0  0  0  0  0  0  0  0  0  0  0  0
  -28.1222  -13.9539   20.5509 N   0  0  0  0  0  0  0  0  0  0  0  0
  -28.2729  -27.3636   18.3689 N   0  0  0  0  0  0  0  0  0  0  0  0
  -30.0855  -15.5693   17.9811 N   0  3  0  0  0  0  0  0  0  0  0  0
  -24.6141  -23.9537   18.4187 N   0  3  1  0  0  0  0  0  0  0  0  0
  -24.2420  -25.2288   24.3803 O   0  0  0  0  0  0  0  0  0  0  0  0
  -22.1088  -14.1907   21.1192 O   0  0  0  0  0  0  0  0  0  0  0  0
  -25.9755  -12.0597   20.4392 O   0  0  0  0  0  0  0  0  0  0  0  0
  -28.2443  -16.2058   20.0113 O   0  0  0  0  0  0  0  0  0  0  0  0
  -28.6439  -29.3747   17.3322 O   0  0  0  0  0  0  0  0  0  0  0  0
  -16.9620  -27.4958   22.8157 O   0  0  0  0  0  0  0  0  0  0  0  0
  -22.4649  -19.6076   18.8381 O   0  0  0  0  0  0  0  0  0  1  0  0
  -14.3138  -32.3180   23.1867 F   0  0  0  0  0  0  0  0  0  0  0  0
  -15.4843  -28.1332   25.0636 F   0  0  0  0  0  0  0  0  0  0  0  0
  1  2  1  0  0  0  0
  1  5  2  0  0  0  0
  2  6  2  0  0  0  0
  3  8  2  0  0  0  0
  3 16  1  0  0  0  0
  4  9  1  0  0  0  0
  4 16  2  0  0  0  0
  5 18  1  0  0  0  0
  6 20  1  0  0  0  0
  7 10  2  0  0  0  0
  7 19  1  0  0  0  0
  8 24  1  0  0  0  0
  9 24  2  0  0  0  0
 10 25  1  0  0  0  0
 11 12  2  0  0  0  0
 11 26  1  0  0  0  0
 12 27  1  0  0  0  0
 13 21  1  0  0  0  0
 13 25  2  0  0  0  0
 14 22  2  0  0  0  0
 14 23  1  0  0  0  0
 15 27  2  0  0  0  0
 15 28  1  0  0  0  0
 16 29  1  0  0  0  0
 17 29  1  0  0  0  0
 17 32  2  0  0  0  0
 17 33  1  0  0  0  0
 18 20  2  0  0  0  0
 18 38  1  0  0  0  0
 19 21  2  0  0  0  0
 19 39  1  0  0  0  0
 20 47  1  0  0  0  0
 21 40  1  0  0  0  0
 22 30  1  0  0  0  0
 22 59  1  0  0  0  0
 23 31  2  0  0  0  0
 23 60  1  0  0  0  0
 24 89  1  0  0  0  0
 25 90  1  0  0  0  0
 26 28  2  0  0  0  0
 26 89  1  0  0  0  0
 27 91  1  0  0  0  0
 28 92  1  0  0  0  0
 29 72  2  0  0  0  0
 30 50  1  0  0  0  0
 30 73  2  0  0  0  0
 31 61  1  0  0  0  0
 31 73  1  0  0  0  0
 32 74  1  0  0  0  0
 32 77  1  0  0  0  0
 33 78  1  0  0  0  0
 33 84  2  0  0  0  0
 34 48  1  0  0  0  0
 34 79  1  0  0  0  0
 34 85  2  0  0  0  0
 35 68  1  0  0  0  0
 35 75  1  0  0  0  0
 35 86  2  0  0  0  0
 36 69  1  0  0  0  0
 36 80  1  0  0  0  0
 36 87  2  0  0  0  0
 37 76  1  0  0  0  0
 37 81  1  0  0  0  0
 37 88  2  0  0  0  0
 38 41  1  0  0  0  0
 39 48  1  0  0  0  0
 40 75  1  0  0  0  0
 41 43  1  0  0  0  0
 42 44  1  0  0  0  0
 42 45  1  0  0  0  0
 43 47  1  0  0  0  0
 44 49  1  0  0  0  0
 45 76  1  0  0  0  0
 46 49  1  0  0  0  0
 46 76  1  0  0  0  0
 47 79  1  0  0  0  0
 48 75  1  0  0  0  0
 49 74  1  0  0  0  0
 51 69  1  0  0  0  0
 52 70  1  0  0  0  0
 53 70  1  0  0  0  0
 54 71  1  0  0  0  0
 55 71  1  0  0  0  0
 56 71  1  0  0  0  0
 57 82  1  0  0  0  0
 58 83  1  0  0  0  0
 59 63  1  0  0  0  0
 60 62  1  0  0  0  0
 61 81  1  0  0  0  0
 62 65  1  0  0  0  0
 63 70  1  0  0  0  0
 64 66  1  0  0  0  0
 64 67  1  0  0  0  0
 65 83  1  0  0  0  0
 66 83  1  0  0  0  0
 67 90  1  0  0  0  0
 68 71  1  0  0  0  0
 68 80  1  0  0  0  0
 69 82  1  0  0  0  0
 72 74  1  0  0  0  0
M  CHG  2  82   1  83   1
M  ISO  4  37 100  67 101  81 100  90 101
M  END
> <Batch ID>
0096

> <Smiles>
CNC(C)C(=O)NC(C(=O)N1Cc2cc([101O:1][101CH2:1]CCN(C)CCCc3cc(CCC(C)C)c(C)nc3C[100NH:0][100C:0](=O)N3CCCC(n4nc(-c5ccc(Oc6ccc(F)cc6F)cc5)c(C(N)=O)c4N)C3)ccc2CC1C(=O)NC1CCCc2ccccc21)C(C)(C)C

> <Shape>
0.226

> <Color>
0.065

> <Negative vol penalty>
0.000

$$$$

  -OEChem-04052319243D

 87 95  0     1  0  0  0  0  0999 V2000
  -34.9071  -29.0427   18.7039 C   0  0  0  0  0  0  0  0  0  0  0  0
  -34.0047  -27.9850   18.7513 C   0  0  0  0  0  0  0  0  0  0  0  0
  -24.3025   -9.6705   21.7084 C   0  0  0  0  0  0  0  0  0  0  0  0
  -24.7416  -10.9454   23.7131 C   0  0  0  0  0  0  0  0  0  0  0  0
  -34.8576  -30.0437   19.6731 C   0  0  0  0  0  0  0  0  0  0  0  0
  -33.0528  -27.9272   19.7686 C   0  0  0  0  0  0  0  0  0  0  0  0
  -27.3361  -25.7719   19.3435 C   0  0  0  0  0  0  0  0  0  0  0  0
  -23.9198   -8.5782   22.4869 C   0  0  0  0  0  0  0  0  0  0  0  0
  -24.3589   -9.8531   24.4916 C   0  0  0  0  0  0  0  0  0  0  0  0
  -26.7685  -24.5450   19.6843 C   0  0  0  0  0  0  0  0  0  0  0  0
  -21.2006   -7.6017   24.2434 C   0  0  0  0  0  0  0  0  0  0  0  0
  -20.0382   -6.9219   23.8797 C   0  0  0  0  0  0  0  0  0  0  0  0
  -26.0707  -25.4632   21.8031 C   0  0  0  0  0  0  0  0  0  0  0  0
  -27.1902  -19.9152   21.1695 C   0  0  0  0  0  0  0  0  0  0  0  0
  -21.3174   -4.8941   23.5819 C   0  0  0  0  0  0  0  0  0  0  0  0
  -24.7134  -10.8541   22.3216 C   0  0  0  0  0  0  0  0  0  0  0  0
  -24.2834  -13.0179   21.0407 C   0  0  0  0  0  0  0  0  0  0  0  0
  -33.8984  -30.0033   20.6973 C   0  0  0  0  0  0  0  0  0  0  0  0
  -27.2848  -26.8524   20.2359 C   0  0  0  0  0  0  0  0  0  0  0  0
  -32.9913  -28.9280   20.7532 C   0  0  0  0  0  0  0  0  0  0  0  0
  -26.6362  -26.7035   21.4702 C   0  0  0  0  0  0  0  0  0  0  0  0
  -27.0450  -20.8473   22.2265 C   0  0  0  0  0  0  0  0  0  0  0  0
  -23.9480   -8.6695   23.8785 C   0  0  0  0  0  0  0  0  0  0  0  0
  -26.1382  -24.3896   20.9155 C   0  0  0  0  0  0  0  0  0  0  0  0
  -22.4214   -6.9277   24.2763 C   0  0  0  0  0  0  0  0  0  0  0  0
  -20.0966   -5.5681   23.5490 C   0  0  0  0  0  0  0  0  0  0  0  0
  -22.4798   -5.5739   23.9456 C   0  0  0  0  0  0  0  0  0  0  0  0
  -25.1093  -11.9826   21.5180 C   0  0  0  0  0  0  0  0  0  0  0  0
  -28.5393  -19.7663   20.9348 C   0  0  0  0  0  0  0  0  0  0  0  0
  -28.3099  -21.2397   22.6055 C   0  0  0  0  0  0  0  0  0  0  0  0
  -25.1315  -13.8363   20.3355 C   0  0  0  0  0  0  0  0  0  0  0  0
  -22.8754  -13.2217   21.2190 C   0  0  0  0  0  0  0  0  0  0  0  0
  -29.4523  -28.6037   21.7650 C   0  0  0  0  0  0  0  0  0  0  0  0
  -26.8567  -30.3328   22.6570 C   0  0  0  0  0  0  0  0  0  0  0  0
  -23.4873  -30.4355   23.1890 C   0  0  0  0  0  0  0  0  0  0  0  0
  -29.9813  -16.5535   19.8428 C   0  0  0  0  0  0  0  0  0  0  0  0
  -33.9142  -31.0834   21.7497 C   0  0  0  0  0  0  0  0  0  0  0  0
  -27.8785  -28.1771   19.8423 C   0  0  0  0  0  0  0  0  0  0  0  0
  -26.5362  -27.8384   22.4554 C   0  0  0  0  0  0  0  0  0  0  0  0
  -32.6339  -31.1448   22.5788 C   0  0  0  0  0  0  0  0  0  0  0  0
  -29.9191  -13.1311   18.8630 C   0  0  0  0  0  0  0  0  0  0  0  0
  -32.2227  -29.7470   23.0301 C   0  0  0  0  0  0  0  0  0  0  0  0
  -28.5977  -12.6116   19.4322 C   0  0  0  0  0  0  0  0  0  0  0  0
  -30.5737  -14.1487   19.7947 C   0  0  0  0  0  0  0  0  0  0  0  0
  -28.3869  -14.7579   20.7542 C   0  0  0  0  0  0  0  0  0  0  0  0
  -31.9282  -28.8431   21.8269 C   0  0  1  0  0  0  0  0  0  0  0  0
  -28.2178  -29.0593   21.0398 C   0  0  1  0  0  0  0  0  0  0  0  0
  -27.6616  -13.7707   19.8238 C   0  0  2  0  0  0  0  0  0  0  0  0
  -28.7383  -22.1897   23.6543 C   0  0  0  0  0  0  0  0  0  0  0  0
  -30.7195  -22.6161   20.1891 C   0  0  0  0  0  0  0  0  0  0  0  0
  -28.8759  -19.2544   18.4882 C   0  0  0  0  0  0  0  0  0  0  0  0
  -21.6597  -31.9762   23.9528 C   0  0  0  0  0  0  0  0  0  0  0  0
  -31.3058  -19.3888   22.3061 C   0  0  0  0  0  0  0  0  0  0  0  0
  -25.5747  -21.0192   24.3449 C   0  0  0  0  0  0  0  0  0  0  0  0
  -24.5445  -20.6119   22.1199 C   0  0  0  0  0  0  0  0  0  0  0  0
  -27.7710  -29.9807   25.5466 C   0  0  0  0  0  0  0  0  0  0  0  0
  -25.4828  -30.6813   26.2827 C   0  0  0  0  0  0  0  0  0  0  0  0
  -26.9159  -32.2650   24.9939 C   0  0  0  0  0  0  0  0  0  0  0  0
  -22.0780  -30.2387   20.5940 C   0  0  0  0  0  0  0  0  0  0  0  0
  -31.2812  -21.2602   20.5976 C   0  0  0  0  0  0  0  0  0  0  0  0
  -25.5537  -22.8570   22.6375 C   0  0  0  0  0  0  0  0  0  1  0  0
  -29.2405  -18.9198   19.9477 C   0  0  2  0  0  0  0  0  0  0  0  0
  -25.8841  -30.2833   23.8105 C   0  0  1  0  0  0  0  0  0  0  0  0
  -22.4295  -31.4354   22.7580 C   0  0  2  0  0  0  0  0  0  0  0  0
  -30.6498  -20.7103   21.8920 C   0  0  1  0  0  0  0  0  0  0  0  0
  -25.7139  -21.3274   22.8346 C   0  0  0  0  0  0  0  0  0  0  0  0
  -26.5169  -30.7805   25.1409 C   0  0  0  0  0  0  0  0  0  0  0  0
  -26.3843  -12.1276   21.1471 N   0  0  0  0  0  0  0  0  0  0  0  0
  -29.2103  -20.5764   21.8134 N   0  0  0  0  0  0  0  0  0  0  0  0
  -26.3658  -13.2636   20.4292 N   0  0  0  0  0  0  0  0  0  0  0  0
  -27.1376  -29.1121   22.0270 N   0  0  0  0  0  0  0  0  0  0  0  0
  -29.6339  -15.2223   20.1262 N   0  0  0  0  0  0  0  0  0  0  0  0
  -24.9345  -14.9828   19.6504 N   0  0  0  0  0  0  0  0  0  0  0  0
  -22.1548  -12.2846   21.9719 N   0  0  0  0  0  0  0  0  0  0  0  0
  -30.6251  -29.1455   21.2745 N   0  0  0  0  0  0  0  0  0  0  0  0
  -24.7106  -31.0399   23.3877 N   0  0  0  0  0  0  0  0  0  0  0  0
  -29.0311  -17.5086   20.1830 N   0  0  0  0  0  0  0  0  0  0  0  0
  -21.4599  -30.7941   21.8254 N   0  3  0  0  0  0  0  0  0  0  0  0
  -22.2712  -14.1968   20.7115 O   0  0  0  0  0  0  0  0  0  0  0  0
  -29.3484  -27.8200   22.7013 O   0  0  0  0  0  0  0  0  0  0  0  0
  -27.3436  -31.4157   22.3225 O   0  0  0  0  0  0  0  0  0  0  0  0
  -23.2510  -29.2387   23.3384 O   0  0  0  0  0  0  0  0  0  0  0  0
  -31.0562  -16.8671   19.3202 O   0  0  0  0  0  0  0  0  0  0  0  0
  -23.5744   -7.6039   24.6384 O   0  0  0  0  0  0  0  0  0  0  0  0
  -25.5839  -23.1929   21.2509 O   0  0  0  0  0  0  0  0  0  1  0  0
  -18.9800   -4.9151   23.2012 F   0  0  0  0  0  0  0  0  0  0  0  0
  -23.6495   -4.9208   23.9765 F   0  0  0  0  0  0  0  0  0  0  0  0
  1  2  1  0  0  0  0
  1  5  2  0  0  0  0
  2  6  2  0  0  0  0
  3  8  2  0  0  0  0
  3 16  1  0  0  0  0
  4  9  1  0  0  0  0
  4 16  2  0  0  0  0
  5 18  1  0  0  0  0
  6 20  1  0  0  0  0
  7 10  2  0  0  0  0
  7 19  1  0  0  0  0
  8 23  1  0  0  0  0
  9 23  2  0  0  0  0
 10 24  1  0  0  0  0
 11 12  2  0  0  0  0
 11 25  1  0  0  0  0
 12 26  1  0  0  0  0
 13 21  1  0  0  0  0
 13 24  2  0  0  0  0
 14 22  1  0  0  0  0
 14 29  2  0  0  0  0
 15 26  2  0  0  0  0
 15 27  1  0  0  0  0
 16 28  1  0  0  0  0
 17 28  1  0  0  0  0
 17 31  2  0  0  0  0
 17 32  1  0  0  0  0
 18 20  2  0  0  0  0
 18 37  1  0  0  0  0
 19 21  2  0  0  0  0
 19 38  1  0  0  0  0
 20 46  1  0  0  0  0
 21 39  1  0  0  0  0
 22 30  2  0  0  0  0
 22 66  1  0  0  0  0
 23 84  1  0  0  0  0
 24 85  1  0  0  0  0
 25 27  2  0  0  0  0
 25 84  1  0  0  0  0
 26 86  1  0  0  0  0
 27 87  1  0  0  0  0
 28 68  2  0  0  0  0
 29 62  1  0  0  0  0
 29 69  1  0  0  0  0
 30 49  1  0  0  0  0
 30 69  1  0  0  0  0
 31 70  1  0  0  0  0
 31 73  1  0  0  0  0
 32 74  1  0  0  0  0
 32 79  2  0  0  0  0
 33 47  1  0  0  0  0
 33 75  1  0  0  0  0
 33 80  2  0  0  0  0
 34 63  1  0  0  0  0
 34 71  1  0  0  0  0
 34 81  2  0  0  0  0
 35 64  1  0  0  0  0
 35 76  1  0  0  0  0
 35 82  2  0  0  0  0
 36 72  1  0  0  0  0
 36 77  1  0  0  0  0
 36 83  2  0  0  0  0
 37 40  1  0  0  0  0
 38 47  1  0  0  0  0
 39 71  1  0  0  0  0
 40 42  1  0  0  0  0
 41 43  1  0  0  0  0
 41 44  1  0  0  0  0
 42 46  1  0  0  0  0
 43 48  1  0  0  0  0
 44 72  1  0  0  0  0
 45 48  1  0  0  0  0
 45 72  1  0  0  0  0
 46 75  1  0  0  0  0
 47 71  1  0  0  0  0
 48 70  1  0  0  0  0
 50 60  1  0  0  0  0
 51 62  1  0  0  0  0
 52 64  1  0  0  0  0
 53 65  1  0  0  0  0
 54 66  1  0  0  0  0
 55 66  1  0  0  0  0
 56 67  1  0  0  0  0
 57 67  1  0  0  0  0
 58 67  1  0  0  0  0
 59 78  1  0  0  0  0
 60 65  1  0  0  0  0
 61 66  1  0  0  0  0
 61 85  1  0  0  0  0
 62 77  1  0  0  0  0
 63 67  1  0  0  0  0
 63 76  1  0  0  0  0
 64 78  1  0  0  0  0
 65 69  1  0  0  0  0
 68 70  1  0  0  0  0
M  CHG  1  78   1
M  ISO  4  36 100  61 101  77 100  85 101
M  END
> <Batch ID>
0096

> <Smiles>
CCC(C)n1c(C(C)[100NH:0][100C:0](=O)N2CCCC(n3nc(-c4ccc(Oc5ccc(F)cc5F)cc4)c(C(N)=O)c3N)C2)cc(C(C)(C)[101CH2:1][101O:1]c2ccc3c(c2)CN(C(=O)C(NC(=O)C(C)NC)C(C)(C)C)C(C(=O)NC2CCCc4ccccc42)C3)c1C

> <Shape>
0.274

> <Color>
0.126

> <Negative vol penalty>
0.000

$$$$

  -OEChem-04052319243D

 90 98  0     1  0  0  0  0  0999 V2000
  -17.8416  -26.0903   20.3329 C   0  0  0  0  0  0  0  0  0  0  0  0
  -19.0827  -26.3834   19.7769 C   0  0  0  0  0  0  0  0  0  0  0  0
  -24.6737   -8.6313   21.7814 C   0  0  0  0  0  0  0  0  0  0  0  0
  -23.0577  -10.0556   20.6873 C   0  0  0  0  0  0  0  0  0  0  0  0
  -17.4903  -26.6248   21.5718 C   0  0  0  0  0  0  0  0  0  0  0  0
  -19.9729  -27.2120   20.4591 C   0  0  0  0  0  0  0  0  0  0  0  0
  -24.7058  -25.4107   20.4422 C   0  0  0  0  0  0  0  0  0  0  0  0
  -23.6426   -7.9854   22.4635 C   0  0  0  0  0  0  0  0  0  0  0  0
  -22.0266   -9.4097   21.3694 C   0  0  0  0  0  0  0  0  0  0  0  0
  -25.4491  -25.5846   19.2756 C   0  0  0  0  0  0  0  0  0  0  0  0
  -21.3254   -5.6121   21.8070 C   0  0  0  0  0  0  0  0  0  0  0  0
  -21.3606   -4.2190   21.8666 C   0  0  0  0  0  0  0  0  0  0  0  0
  -26.5660  -27.4742   20.2761 C   0  0  0  0  0  0  0  0  0  0  0  0
  -21.4418   -4.3241   24.2789 C   0  0  0  0  0  0  0  0  0  0  0  0
  -24.3812   -9.6665   20.8934 C   0  0  0  0  0  0  0  0  0  0  0  0
  -25.9864   -9.9861   18.9366 C   0  0  0  0  0  0  0  0  0  0  0  0
  -18.3805  -27.4526   22.2739 C   0  0  0  0  0  0  0  0  0  0  0  0
  -24.8795  -26.2754   21.5324 C   0  0  0  0  0  0  0  0  0  0  0  0
  -19.6327  -27.7592   21.7079 C   0  0  0  0  0  0  0  0  0  0  0  0
  -25.8255  -27.3075   21.4564 C   0  0  0  0  0  0  0  0  0  0  0  0
  -30.3774  -23.0195   19.9165 C   0  0  0  0  0  0  0  0  0  0  0  0
  -31.3437  -23.8078   20.5314 C   0  0  0  0  0  0  0  0  0  0  0  0
  -29.7305  -23.4848   18.7770 C   0  0  0  0  0  0  0  0  0  0  0  0
  -22.3191   -8.3745   22.2575 C   0  0  0  0  0  0  0  0  0  0  0  0
  -26.3773  -26.6183   19.1913 C   0  0  0  0  0  0  0  0  0  0  0  0
  -21.3485   -6.3613   22.9834 C   0  0  0  0  0  0  0  0  0  0  0  0
  -21.4188   -3.5750   23.1025 C   0  0  0  0  0  0  0  0  0  0  0  0
  -21.4066   -5.7173   24.2194 C   0  0  0  0  0  0  0  0  0  0  0  0
  -25.4459  -10.3345   20.1889 C   0  0  0  0  0  0  0  0  0  0  0  0
  -31.6244  -25.0439   19.9719 C   0  0  0  0  0  0  0  0  0  0  0  0
  -30.0833  -24.7355   18.2962 C   0  0  0  0  0  0  0  0  0  0  0  0
  -26.9642  -10.9241   18.7117 C   0  0  0  0  0  0  0  0  0  0  0  0
  -25.6359   -8.9108   18.0555 C   0  0  0  0  0  0  0  0  0  0  0  0
  -23.0112  -28.3169   23.0962 C   0  0  0  0  0  0  0  0  0  0  0  0
  -25.5795  -28.5560   25.0632 C   0  0  0  0  0  0  0  0  0  0  0  0
  -28.9517  -28.2342   25.4771 C   0  0  0  0  0  0  0  0  0  0  0  0
  -27.8629  -16.4482   20.5430 C   0  0  0  0  0  0  0  0  0  0  0  0
  -17.9376  -28.0452   23.5883 C   0  0  0  0  0  0  0  0  0  0  0  0
  -24.0890  -26.0580   22.7935 C   0  0  0  0  0  0  0  0  0  0  0  0
  -26.0644  -28.2506   22.6062 C   0  0  0  0  0  0  0  0  0  0  0  0
  -19.0862  -28.6117   24.4189 C   0  0  0  0  0  0  0  0  0  0  0  0
  -30.0274  -13.7790   21.0084 C   0  0  0  0  0  0  0  0  0  0  0  0
  -20.0023  -29.4672   23.5496 C   0  0  0  0  0  0  0  0  0  0  0  0
  -29.1604  -12.5508   20.7350 C   0  0  0  0  0  0  0  0  0  0  0  0
  -29.2522  -14.8280   21.7966 C   0  0  0  0  0  0  0  0  0  0  0  0
  -27.1038  -14.0453   20.8519 C   0  0  0  0  0  0  0  0  0  0  0  0
  -20.6354  -28.6340   22.4286 C   0  0  1  0  0  0  0  0  0  0  0  0
  -23.9799  -27.3129   23.6541 C   0  0  1  0  0  0  0  0  0  0  0  0
  -27.8394  -12.9492   20.0539 C   0  0  2  0  0  0  0  0  0  0  0  0
  -32.0557  -23.3355   21.7544 C   0  0  0  0  0  0  0  0  0  0  0  0
  -28.6892  -22.6627   18.0942 C   0  0  0  0  0  0  0  0  0  0  0  0
  -33.3768  -26.7866   19.5489 C   0  0  0  0  0  0  0  0  0  0  0  0
  -30.7646  -28.5381   27.1855 C   0  0  0  0  0  0  0  0  0  0  0  0
  -31.0179  -18.0168   19.4528 C   0  0  0  0  0  0  0  0  0  0  0  0
  -25.4488  -31.5778   24.6609 C   0  0  0  0  0  0  0  0  0  0  0  0
  -27.7750  -31.7299   25.5741 C   0  0  0  0  0  0  0  0  0  0  0  0
  -25.9289  -30.8576   27.0072 C   0  0  0  0  0  0  0  0  0  0  0  0
  -28.8541  -17.4667   22.5575 C   0  0  0  0  0  0  0  0  0  0  0  0
  -29.6827  -25.3680   25.3810 C   0  0  0  0  0  0  0  0  0  0  0  0
  -30.0332  -21.6774   20.4795 C   0  0  0  0  0  0  0  0  0  0  0  0
  -32.6529  -25.9353   20.5875 C   0  0  0  0  0  0  0  0  0  0  0  0
  -29.4155  -25.2955   17.0658 C   0  0  0  0  0  0  0  0  0  0  0  0
  -30.6145  -20.4881   19.6923 C   0  0  0  0  0  0  0  0  0  0  0  0
  -29.2927  -26.8207   17.0718 C   0  0  0  0  0  0  0  0  0  0  0  0
  -28.8367  -18.7830   20.4709 C   0  0  0  0  0  0  0  0  0  0  0  0
  -28.4085  -27.3508   18.1947 C   0  0  0  0  0  0  0  0  0  1  0  0
  -26.8089  -29.4306   25.1147 C   0  0  1  0  0  0  0  0  0  0  0  0
  -29.7739  -27.5658   26.5641 C   0  0  2  0  0  0  0  0  0  0  0  0
  -30.3309  -19.0962   20.2988 C   0  0  1  0  0  0  0  0  0  0  0  0
  -26.4847  -30.8825   25.5667 C   0  0  0  0  0  0  0  0  0  0  0  0
  -26.0319  -11.4098   20.7223 N   0  0  0  0  0  0  0  0  0  0  0  0
  -31.0170  -25.5298   18.8662 N   0  0  0  0  0  0  0  0  0  0  0  0
  -26.9507  -11.7451   19.8007 N   0  0  0  0  0  0  0  0  0  0  0  0
  -25.2624  -28.0009   23.8153 N   0  0  0  0  0  0  0  0  0  0  0  0
  -28.0013  -15.1787   21.1236 N   0  0  0  0  0  0  0  0  0  0  0  0
  -27.8257  -11.1184   17.6906 N   0  0  0  0  0  0  0  0  0  0  0  0
  -24.6081   -8.0393   18.4407 N   0  0  0  0  0  0  0  0  0  0  0  0
  -21.7249  -27.8346   22.9467 N   0  0  0  0  0  0  0  0  0  0  0  0
  -27.7668  -28.7383   25.9700 N   0  0  0  0  0  0  0  0  0  0  0  0
  -28.5800  -17.5028   21.1280 N   0  0  0  0  0  0  0  0  0  0  0  0
  -30.5349  -26.4136   26.0035 N   0  3  0  0  0  0  0  0  0  0  0  0
  -26.2281   -8.7184   16.9665 O   0  0  0  0  0  0  0  0  0  0  0  0
  -23.4015  -29.4459   22.8231 O   0  0  0  0  0  0  0  0  0  0  0  0
  -24.9286  -28.3664   26.0938 O   0  0  0  0  0  0  0  0  0  0  0  0
  -29.3251  -28.3055   24.3083 O   0  0  0  0  0  0  0  0  0  0  0  0
  -27.1444  -16.6294   19.5515 O   0  0  0  0  0  0  0  0  0  0  0  0
  -21.3126   -7.7443   22.9227 O   0  0  0  0  0  0  0  0  0  0  0  0
  -27.1037  -26.7907   18.0536 O   0  0  0  0  0  0  0  0  0  1  0  0
  -21.4510   -2.2371   23.1596 F   0  0  0  0  0  0  0  0  0  0  0  0
  -21.4278   -6.4316   25.3530 F   0  0  0  0  0  0  0  0  0  0  0  0
  1  2  1  0  0  0  0
  1  5  2  0  0  0  0
  2  6  2  0  0  0  0
  3  8  2  0  0  0  0
  3 15  1  0  0  0  0
  4  9  1  0  0  0  0
  4 15  2  0  0  0  0
  5 17  1  0  0  0  0
  6 19  1  0  0  0  0
  7 10  2  0  0  0  0
  7 18  1  0  0  0  0
  8 24  1  0  0  0  0
  9 24  2  0  0  0  0
 10 25  1  0  0  0  0
 11 12  2  0  0  0  0
 11 26  1  0  0  0  0
 12 27  1  0  0  0  0
 13 20  1  0  0  0  0
 13 25  2  0  0  0  0
 14 27  2  0  0  0  0
 14 28  1  0  0  0  0
 15 29  1  0  0  0  0
 16 29  1  0  0  0  0
 16 32  2  0  0  0  0
 16 33  1  0  0  0  0
 17 19  2  0  0  0  0
 17 38  1  0  0  0  0
 18 20  2  0  0  0  0
 18 39  1  0  0  0  0
 19 47  1  0  0  0  0
 20 40  1  0  0  0  0
 21 22  1  0  0  0  0
 21 23  2  0  0  0  0
 21 60  1  0  0  0  0
 22 30  2  0  0  0  0
 22 50  1  0  0  0  0
 23 31  1  0  0  0  0
 23 51  1  0  0  0  0
 24 87  1  0  0  0  0
 25 88  1  0  0  0  0
 26 28  2  0  0  0  0
 26 87  1  0  0  0  0
 27 89  1  0  0  0  0
 28 90  1  0  0  0  0
 29 71  2  0  0  0  0
 30 61  1  0  0  0  0
 30 72  1  0  0  0  0
 31 62  1  0  0  0  0
 31 72  2  0  0  0  0
 32 73  1  0  0  0  0
 32 76  1  0  0  0  0
 33 77  1  0  0  0  0
 33 82  2  0  0  0  0
 34 48  1  0  0  0  0
 34 78  1  0  0  0  0
 34 83  2  0  0  0  0
 35 67  1  0  0  0  0
 35 74  1  0  0  0  0
 35 84  2  0  0  0  0
 36 68  1  0  0  0  0
 36 79  1  0  0  0  0
 36 85  2  0  0  0  0
 37 75  1  0  0  0  0
 37 80  1  0  0  0  0
 37 86  2  0  0  0  0
 38 41  1  0  0  0  0
 39 48  1  0  0  0  0
 40 74  1  0  0  0  0
 41 43  1  0  0  0  0
 42 44  1  0  0  0  0
 42 45  1  0  0  0  0
 43 47  1  0  0  0  0
 44 49  1  0  0  0  0
 45 75  1  0  0  0  0
 46 49  1  0  0  0  0
 46 75  1  0  0  0  0
 47 78  1  0  0  0  0
 48 74  1  0  0  0  0
 49 73  1  0  0  0  0
 52 61  1  0  0  0  0
 53 68  1  0  0  0  0
 54 69  1  0  0  0  0
 55 70  1  0  0  0  0
 56 70  1  0  0  0  0
 57 70  1  0  0  0  0
 58 80  1  0  0  0  0
 59 81  1  0  0  0  0
 60 63  1  0  0  0  0
 62 64  1  0  0  0  0
 63 69  1  0  0  0  0
 64 66  1  0  0  0  0
 65 69  1  0  0  0  0
 65 80  1  0  0  0  0
 66 88  1  0  0  0  0
 67 70  1  0  0  0  0
 67 79  1  0  0  0  0
 68 81  1  0  0  0  0
 71 73  1  0  0  0  0
M  CHG  1  81   1
M  ISO  4  37 100  66 101  80 100  88 101
M  END
> <Batch ID>
0096

> <Smiles>
CCc1nc(CC[101CH2:1][101O:1]c2ccc3c(c2)CN(C(=O)C(NC(=O)C(C)NC)C(C)(C)C)C(C(=O)NC2CCCc4ccccc42)C3)c(C)c(CCC(C)C[100N:0](C)[100C:0](=O)N2CCCC(n3nc(-c4ccc(Oc5ccc(F)cc5F)cc4)c(C(N)=O)c3N)C2)c1C

> <Shape>
0.331

> <Color>
0.101

> <Negative vol penalty>
0.000

$$$$

  -OEChem-04052319243D

 87 95  0     1  0  0  0  0  0999 V2000
  -18.1924  -33.1923   22.1693 C   0  0  0  0  0  0  0  0  0  0  0  0
  -19.4813  -33.1585   21.6466 C   0  0  0  0  0  0  0  0  0  0  0  0
  -26.4649  -12.8223   20.9509 C   0  0  0  0  0  0  0  0  0  0  0  0
  -26.7375  -12.7250   18.5523 C   0  0  0  0  0  0  0  0  0  0  0  0
  -17.8326  -32.3147   23.1911 C   0  0  0  0  0  0  0  0  0  0  0  0
  -20.4114  -32.2478   22.1465 C   0  0  0  0  0  0  0  0  0  0  0  0
  -24.8167  -29.3838   19.0005 C   0  0  0  0  0  0  0  0  0  0  0  0
  -25.2286  -12.1868   20.8362 C   0  0  0  0  0  0  0  0  0  0  0  0
  -25.5012  -12.0894   18.4376 C   0  0  0  0  0  0  0  0  0  0  0  0
  -26.1787  -29.6397   18.8488 C   0  0  0  0  0  0  0  0  0  0  0  0
  -24.0781   -9.0399   20.3819 C   0  0  0  0  0  0  0  0  0  0  0  0
  -23.7981   -8.0017   21.2703 C   0  0  0  0  0  0  0  0  0  0  0  0
  -30.4725  -24.9568   19.8640 C   0  0  0  0  0  0  0  0  0  0  0  0
  -30.1479  -23.7760   19.1517 C   0  0  0  0  0  0  0  0  0  0  0  0
  -26.6648  -28.0650   20.6104 C   0  0  0  0  0  0  0  0  0  0  0  0
  -21.8847   -9.2243   22.0958 C   0  0  0  0  0  0  0  0  0  0  0  0
  -27.2194  -13.0915   19.8089 C   0  0  0  0  0  0  0  0  0  0  0  0
  -29.7540  -13.1385   20.0941 C   0  0  0  0  0  0  0  0  0  0  0  0
  -18.7559  -31.3862   23.6971 C   0  0  0  0  0  0  0  0  0  0  0  0
  -24.3670  -28.4730   19.9674 C   0  0  0  0  0  0  0  0  0  0  0  0
  -20.0640  -31.3579   23.1770 C   0  0  0  0  0  0  0  0  0  0  0  0
  -25.2966  -27.7973   20.7706 C   0  0  0  0  0  0  0  0  0  0  0  0
  -24.7467  -11.8203   19.5796 C   0  0  0  0  0  0  0  0  0  0  0  0
  -27.1028  -28.9825   19.6557 C   0  0  0  0  0  0  0  0  0  0  0  0
  -23.2615  -10.1704   20.3505 C   0  0  0  0  0  0  0  0  0  0  0  0
  -22.7014   -8.0939   22.1273 C   0  0  0  0  0  0  0  0  0  0  0  0
  -22.1649  -10.2626   21.2074 C   0  0  0  0  0  0  0  0  0  0  0  0
  -28.4963  -13.7485   19.9267 C   0  0  0  0  0  0  0  0  0  0  0  0
  -31.0732  -25.8211   18.9756 C   0  0  0  0  0  0  0  0  0  0  0  0
  -30.5605  -23.9546   17.8496 C   0  0  0  0  0  0  0  0  0  0  0  0
  -30.6393  -14.1870   20.1514 C   0  0  0  0  0  0  0  0  0  0  0  0
  -30.0917  -11.7484   20.1894 C   0  0  0  0  0  0  0  0  0  0  0  0
  -22.5190  -28.6694   22.5462 C   0  0  0  0  0  0  0  0  0  0  0  0
  -22.8748  -25.4452   22.5680 C   0  0  0  0  0  0  0  0  0  0  0  0
  -24.7285  -22.7287   21.6564 C   0  0  0  0  0  0  0  0  0  0  0  0
  -30.4025  -19.6594   17.9485 C   0  0  0  0  0  0  0  0  0  0  0  0
  -18.3348  -30.4898   24.8345 C   0  0  0  0  0  0  0  0  0  0  0  0
  -22.8961  -28.1881   20.1003 C   0  0  0  0  0  0  0  0  0  0  0  0
  -24.8667  -26.7953   21.8096 C   0  0  0  0  0  0  0  0  0  0  0  0
  -19.2680  -29.3012   25.0509 C   0  0  0  0  0  0  0  0  0  0  0  0
  -30.9120  -18.7926   21.4251 C   0  0  0  0  0  0  0  0  0  0  0  0
  -20.7241  -29.7554   25.0323 C   0  0  0  0  0  0  0  0  0  0  0  0
  -30.4643  -17.3299   21.4426 C   0  0  0  0  0  0  0  0  0  0  0  0
  -30.0406  -19.6263   20.4903 C   0  0  0  0  0  0  0  0  0  0  0  0
  -29.5241  -17.6526   19.1077 C   0  0  0  0  0  0  0  0  0  0  0  0
  -21.0938  -30.3675   23.6758 C   0  0  1  0  0  0  0  0  0  0  0  0
  -22.5178  -27.6244   21.4665 C   0  0  1  0  0  0  0  0  0  0  0  0
  -30.3801  -16.7526   20.0172 C   0  0  2  0  0  0  0  0  0  0  0  0
  -27.4802  -21.6982   14.5303 C   0  0  0  0  0  0  0  0  0  0  0  0
  -24.7851  -20.2274   21.8505 C   0  0  0  0  0  0  0  0  0  0  0  0
  -30.6226  -25.9544   15.4570 C   0  0  0  0  0  0  0  0  0  0  0  0
  -32.8849  -24.9810   16.0407 C   0  0  0  0  0  0  0  0  0  0  0  0
  -23.8096  -25.6934   25.4619 C   0  0  0  0  0  0  0  0  0  0  0  0
  -24.7332  -23.3728   25.2894 C   0  0  0  0  0  0  0  0  0  0  0  0
  -22.2839  -23.7617   25.0205 C   0  0  0  0  0  0  0  0  0  0  0  0
  -24.5820  -22.3816   18.7209 C   0  0  0  0  0  0  0  0  0  0  0  0
  -31.6141  -27.2112   19.1960 C   0  0  0  0  0  0  0  0  0  0  0  0
  -28.9055  -22.1036   14.8736 C   0  0  0  0  0  0  0  0  0  0  0  0
  -30.5829  -28.3175   18.9630 C   0  0  0  0  0  0  0  0  0  0  0  0
  -28.9984  -22.6678   16.2960 C   0  0  0  0  0  0  0  0  0  0  0  0
  -31.2873  -21.7411   16.9282 C   0  0  0  0  0  0  0  0  0  0  0  0
  -29.3302  -28.1650   19.8181 C   0  0  0  0  0  0  0  0  0  1  0  0
  -30.4652  -23.0405   16.6928 C   0  0  2  0  0  0  0  0  0  0  0  0
  -23.8625  -24.4828   23.1821 C   0  0  1  0  0  0  0  0  0  0  0  0
  -24.3361  -21.4125   21.0098 C   0  0  2  0  0  0  0  0  0  0  0  0
  -31.6800  -25.7753   16.5482 C   0  0  0  0  0  0  0  0  0  0  0  0
  -23.6806  -24.3479   24.7203 C   0  0  0  0  0  0  0  0  0  0  0  0
  -28.5717  -15.0813   19.8807 N   0  0  0  0  0  0  0  0  0  0  0  0
  -31.1217  -25.2012   17.7543 N   0  0  0  0  0  0  0  0  0  0  0  0
  -29.8873  -15.3173   20.0202 N   0  0  0  0  0  0  0  0  0  0  0  0
  -23.4172  -26.5556   21.9058 N   0  0  0  0  0  0  0  0  0  0  0  0
  -30.0179  -19.0332   19.1457 N   0  0  0  0  0  0  0  0  0  0  0  0
  -31.9798  -14.2432   20.3007 N   0  0  0  0  0  0  0  0  0  0  0  0
  -29.0598  -10.8032   20.1112 N   0  0  0  0  0  0  0  0  0  0  0  0
  -21.3125  -29.3266   22.6944 N   0  0  0  0  0  0  0  0  0  0  0  0
  -23.7186  -23.2285   22.4511 N   0  0  0  0  0  0  0  0  0  0  0  0
  -30.8517  -20.9687   18.0704 N   0  0  0  0  0  0  0  0  0  0  0  0
  -24.9565  -21.2932   19.6601 N   0  3  0  0  0  0  0  0  0  0  0  0
  -31.2717  -11.3567   20.3558 O   0  0  0  0  0  0  0  0  0  0  0  0
  -23.5386  -28.8640   23.1975 O   0  0  0  0  0  0  0  0  0  0  0  0
  -21.6666  -25.2164   22.6660 O   0  0  0  0  0  0  0  0  0  0  0  0
  -25.8229  -23.2586   21.4775 O   0  0  0  0  0  0  0  0  0  0  0  0
  -30.3545  -19.0917   16.8519 O   0  0  0  0  0  0  0  0  0  0  0  0
  -23.5405  -11.1999   19.4673 O   0  0  0  0  0  0  0  0  0  0  0  0
  -28.4328  -29.2310   19.5102 O   0  0  0  0  0  0  0  0  0  1  0  0
  -22.4316   -7.0962   22.9793 F   0  0  0  0  0  0  0  0  0  0  0  0
  -21.3761  -11.3456   21.1810 F   0  0  0  0  0  0  0  0  0  0  0  0
  1  2  1  0  0  0  0
  1  5  2  0  0  0  0
  2  6  2  0  0  0  0
  3  8  2  0  0  0  0
  3 17  1  0  0  0  0
  4  9  1  0  0  0  0
  4 17  2  0  0  0  0
  5 19  1  0  0  0  0
  6 21  1  0  0  0  0
  7 10  2  0  0  0  0
  7 20  1  0  0  0  0
  8 23  1  0  0  0  0
  9 23  2  0  0  0  0
 10 24  1  0  0  0  0
 11 12  2  0  0  0  0
 11 25  1  0  0  0  0
 12 26  1  0  0  0  0
 13 14  1  0  0  0  0
 13 29  2  0  0  0  0
 14 30  2  0  0  0  0
 15 22  1  0  0  0  0
 15 24  2  0  0  0  0
 16 26  2  0  0  0  0
 16 27  1  0  0  0  0
 17 28  1  0  0  0  0
 18 28  1  0  0  0  0
 18 31  2  0  0  0  0
 18 32  1  0  0  0  0
 19 21  2  0  0  0  0
 19 37  1  0  0  0  0
 20 22  2  0  0  0  0
 20 38  1  0  0  0  0
 21 46  1  0  0  0  0
 22 39  1  0  0  0  0
 23 84  1  0  0  0  0
 24 85  1  0  0  0  0
 25 27  2  0  0  0  0
 25 84  1  0  0  0  0
 26 86  1  0  0  0  0
 27 87  1  0  0  0  0
 28 68  2  0  0  0  0
 29 57  1  0  0  0  0
 29 69  1  0  0  0  0
 30 63  1  0  0  0  0
 30 69  1  0  0  0  0
 31 70  1  0  0  0  0
 31 73  1  0  0  0  0
 32 74  1  0  0  0  0
 32 79  2  0  0  0  0
 33 47  1  0  0  0  0
 33 75  1  0  0  0  0
 33 80  2  0  0  0  0
 34 64  1  0  0  0  0
 34 71  1  0  0  0  0
 34 81  2  0  0  0  0
 35 65  1  0  0  0  0
 35 76  1  0  0  0  0
 35 82  2  0  0  0  0
 36 72  1  0  0  0  0
 36 77  1  0  0  0  0
 36 83  2  0  0  0  0
 37 40  1  0  0  0  0
 38 47  1  0  0  0  0
 39 71  1  0  0  0  0
 40 42  1  0  0  0  0
 41 43  1  0  0  0  0
 41 44  1  0  0  0  0
 42 46  1  0  0  0  0
 43 48  1  0  0  0  0
 44 72  1  0  0  0  0
 45 48  1  0  0  0  0
 45 72  1  0  0  0  0
 46 75  1  0  0  0  0
 47 71  1  0  0  0  0
 48 70  1  0  0  0  0
 49 58  1  0  0  0  0
 50 65  1  0  0  0  0
 51 66  1  0  0  0  0
 52 66  1  0  0  0  0
 53 67  1  0  0  0  0
 54 67  1  0  0  0  0
 55 67  1  0  0  0  0
 56 78  1  0  0  0  0
 57 59  1  0  0  0  0
 58 60  1  0  0  0  0
 59 62  1  0  0  0  0
 60 63  1  0  0  0  0
 61 63  1  0  0  0  0
 61 77  1  0  0  0  0
 62 85  1  0  0  0  0
 64 67  1  0  0  0  0
 64 76  1  0  0  0  0
 65 78  1  0  0  0  0
 66 69  1  0  0  0  0
 68 70  1  0  0  0  0
M  CHG  1  78   1
M  ISO  4  36 100  62 101  77 100  85 101
M  END
> <Batch ID>
0096

> <Smiles>
CCCC(C[100NH:0][100C:0](=O)N1CCCC(n2nc(-c3ccc(Oc4ccc(F)cc4F)cc3)c(C(N)=O)c2N)C1)c1ccc(CC[101CH2:1][101O:1]c2ccc3c(c2)CN(C(=O)C(NC(=O)C(C)NC)C(C)(C)C)C(C(=O)NC2CCCc4ccccc42)C3)n1C(C)C

> <Shape>
0.261

> <Color>
0.088

> <Negative vol penalty>
0.000

$$$$

  -OEChem-04052319243D

 81 89  0     1  0  0  0  0  0999 V2000
  -18.5736  -23.0132   21.0530 C   0  0  0  0  0  0  0  0  0  0  0  0
  -19.8411  -22.4408   21.0181 C   0  0  0  0  0  0  0  0  0  0  0  0
  -26.7614  -13.8308   21.9562 C   0  0  0  0  0  0  0  0  0  0  0  0
  -26.6545  -13.2267   19.6193 C   0  0  0  0  0  0  0  0  0  0  0  0
  -18.3994  -24.3424   20.6699 C   0  0  0  0  0  0  0  0  0  0  0  0
  -20.9351  -23.1971   20.5990 C   0  0  0  0  0  0  0  0  0  0  0  0
  -27.9595  -23.9771   21.7675 C   0  0  0  0  0  0  0  0  0  0  0  0
  -26.1341  -12.6319   22.2948 C   0  0  0  0  0  0  0  0  0  0  0  0
  -26.0272  -12.0278   19.9580 C   0  0  0  0  0  0  0  0  0  0  0  0
  -29.1686  -24.0180   21.0746 C   0  0  0  0  0  0  0  0  0  0  0  0
  -22.9950  -11.3788   22.3006 C   0  0  0  0  0  0  0  0  0  0  0  0
  -21.9625  -11.4304   23.2370 C   0  0  0  0  0  0  0  0  0  0  0  0
  -28.7608  -26.3279   20.5114 C   0  0  0  0  0  0  0  0  0  0  0  0
  -30.3291  -23.9046   16.3663 C   0  0  0  0  0  0  0  0  0  0  0  0
  -23.2010   -9.9445   24.6846 C   0  0  0  0  0  0  0  0  0  0  0  0
  -32.2213  -23.0715   17.2582 C   0  0  0  0  0  0  0  0  0  0  0  0
  -27.0216  -14.1283   20.6184 C   0  0  0  0  0  0  0  0  0  0  0  0
  -29.0523  -15.5978   20.1447 C   0  0  0  0  0  0  0  0  0  0  0  0
  -19.4933  -25.1182   20.2551 C   0  0  0  0  0  0  0  0  0  0  0  0
  -27.1354  -25.1101   21.8285 C   0  0  0  0  0  0  0  0  0  0  0  0
  -20.7751  -24.5376   20.2087 C   0  0  0  0  0  0  0  0  0  0  0  0
  -27.5429  -26.2996   21.2079 C   0  0  0  0  0  0  0  0  0  0  0  0
  -31.4898  -24.2293   17.1110 C   0  0  0  0  0  0  0  0  0  0  0  0
  -25.7670  -11.7304   21.2958 C   0  0  0  0  0  0  0  0  0  0  0  0
  -29.5681  -25.1927   20.4439 C   0  0  0  0  0  0  0  0  0  0  0  0
  -24.1305  -10.6099   22.5562 C   0  0  0  0  0  0  0  0  0  0  0  0
  -22.0655  -10.7133   24.4290 C   0  0  0  0  0  0  0  0  0  0  0  0
  -24.2335   -9.8928   23.7481 C   0  0  0  0  0  0  0  0  0  0  0  0
  -27.6691  -15.3668   20.2679 C   0  0  0  0  0  0  0  0  0  0  0  0
  -30.3866  -22.5581   16.0814 C   0  0  0  0  0  0  0  0  0  0  0  0
  -29.1495  -16.9229   19.7968 C   0  0  0  0  0  0  0  0  0  0  0  0
  -30.1511  -14.6952   20.3283 C   0  0  0  0  0  0  0  0  0  0  0  0
  -24.1891  -25.7959   20.8524 C   0  0  0  0  0  0  0  0  0  0  0  0
  -24.7250  -28.5690   22.4477 C   0  0  0  0  0  0  0  0  0  0  0  0
  -26.9817  -30.8141   23.6781 C   0  0  0  0  0  0  0  0  0  0  0  0
  -27.4576  -21.2973   16.7722 C   0  0  0  0  0  0  0  0  0  0  0  0
  -19.2482  -26.5368   19.8053 C   0  0  0  0  0  0  0  0  0  0  0  0
  -25.8468  -25.0575   22.6025 C   0  0  0  0  0  0  0  0  0  0  0  0
  -26.7041  -27.5494   21.2607 C   0  0  0  0  0  0  0  0  0  0  0  0
  -20.5184  -27.3802   19.7310 C   0  0  0  0  0  0  0  0  0  0  0  0
  -25.6567  -20.5815   19.7591 C   0  0  0  0  0  0  0  0  0  0  0  0
  -21.6283  -26.6124   19.0200 C   0  0  0  0  0  0  0  0  0  0  0  0
  -26.1290  -19.1784   20.1437 C   0  0  0  0  0  0  0  0  0  0  0  0
  -25.5440  -20.7438   18.2448 C   0  0  0  0  0  0  0  0  0  0  0  0
  -27.2349  -18.9891   17.8765 C   0  0  0  0  0  0  0  0  0  0  0  0
  -21.9904  -25.3329   19.7836 C   0  0  1  0  0  0  0  0  0  0  0  0
  -24.8435  -26.1204   22.1655 C   0  0  1  0  0  0  0  0  0  0  0  0
  -27.4175  -18.7947   19.3915 C   0  0  2  0  0  0  0  0  0  0  0  0
  -32.0624  -26.6043   16.5084 C   0  0  0  0  0  0  0  0  0  0  0  0
  -27.1181  -33.0014   24.9006 C   0  0  0  0  0  0  0  0  0  0  0  0
  -23.9523  -30.0436   19.8907 C   0  0  0  0  0  0  0  0  0  0  0  0
  -25.0009  -32.1065   20.8462 C   0  0  0  0  0  0  0  0  0  0  0  0
  -23.0499  -31.0559   21.9920 C   0  0  0  0  0  0  0  0  0  0  0  0
  -31.9885  -20.6881   16.5616 C   0  0  0  0  0  0  0  0  0  0  0  0
  -28.4486  -29.5915   25.9392 C   0  0  0  0  0  0  0  0  0  0  0  0
  -29.4385  -21.7060   15.3342 C   0  0  0  0  0  0  0  0  0  0  0  0
  -30.8256  -26.1251   18.6536 C   0  0  0  0  0  0  0  0  0  1  0  0
  -31.8612  -25.6023   17.6487 C   0  0  1  0  0  0  0  0  0  0  0  0
  -25.3043  -29.9154   22.0865 C   0  0  1  0  0  0  0  0  0  0  0  0
  -27.0965  -31.4866   25.0342 C   0  0  2  0  0  0  0  0  0  0  0  0
  -24.3420  -30.7564   21.2010 C   0  0  0  0  0  0  0  0  0  0  0  0
  -26.9399  -16.4578   20.0187 N   0  0  0  0  0  0  0  0  0  0  0  0
  -31.5409  -22.0620   16.6287 N   0  0  0  0  0  0  0  0  0  0  0  0
  -27.8685  -17.3871   19.7355 N   0  0  0  0  0  0  0  0  0  0  0  0
  -25.4497  -27.4458   22.0245 N   0  0  0  0  0  0  0  0  0  0  0  0
  -26.7994  -20.3654   17.5917 N   0  0  0  0  0  0  0  0  0  0  0  0
  -30.2049  -17.7247   19.5406 N   0  0  0  0  0  0  0  0  0  0  0  0
  -29.8735  -13.3685   20.6847 N   0  0  0  0  0  0  0  0  0  0  0  0
  -22.8177  -25.6450   20.9293 N   0  0  0  0  0  0  0  0  0  0  0  0
  -25.6688  -30.5543   23.3464 N   0  0  0  0  0  0  0  0  0  0  0  0
  -28.6442  -20.8598   16.1967 N   0  0  0  0  0  0  0  0  0  0  0  0
  -28.3476  -31.0575   25.7210 N   0  3  0  0  0  0  0  0  0  0  0  0
  -31.3444  -15.0587   20.1966 O   0  0  0  0  0  0  0  0  0  0  0  0
  -24.8773  -25.6917   19.8438 O   0  0  0  0  0  0  0  0  0  0  0  0
  -23.6721  -28.5158   23.0883 O   0  0  0  0  0  0  0  0  0  0  0  0
  -27.9587  -30.5492   22.9811 O   0  0  0  0  0  0  0  0  0  0  0  0
  -27.0228  -22.4366   16.5729 O   0  0  0  0  0  0  0  0  0  0  0  0
  -25.1551  -10.5603   21.6259 O   0  0  0  0  0  0  0  0  0  0  0  0
  -30.7475  -25.2351   19.7664 O   0  0  0  0  0  0  0  0  0  1  0  0
  -21.0745  -10.7642   25.3288 F   0  0  0  0  0  0  0  0  0  0  0  0
  -25.3224   -9.1534   23.9998 F   0  0  0  0  0  0  0  0  0  0  0  0
  1  2  1  0  0  0  0
  1  5  2  0  0  0  0
  2  6  2  0  0  0  0
  3  8  2  0  0  0  0
  3 17  1  0  0  0  0
  4  9  1  0  0  0  0
  4 17  2  0  0  0  0
  5 19  1  0  0  0  0
  6 21  1  0  0  0  0
  7 10  2  0  0  0  0
  7 20  1  0  0  0  0
  8 24  1  0  0  0  0
  9 24  2  0  0  0  0
 10 25  1  0  0  0  0
 11 12  2  0  0  0  0
 11 26  1  0  0  0  0
 12 27  1  0  0  0  0
 13 22  1  0  0  0  0
 13 25  2  0  0  0  0
 14 23  1  0  0  0  0
 14 30  2  0  0  0  0
 15 27  2  0  0  0  0
 15 28  1  0  0  0  0
 16 23  2  0  0  0  0
 16 63  1  0  0  0  0
 17 29  1  0  0  0  0
 18 29  1  0  0  0  0
 18 31  2  0  0  0  0
 18 32  1  0  0  0  0
 19 21  2  0  0  0  0
 19 37  1  0  0  0  0
 20 22  2  0  0  0  0
 20 38  1  0  0  0  0
 21 46  1  0  0  0  0
 22 39  1  0  0  0  0
 23 58  1  0  0  0  0
 24 78  1  0  0  0  0
 25 79  1  0  0  0  0
 26 28  2  0  0  0  0
 26 78  1  0  0  0  0
 27 80  1  0  0  0  0
 28 81  1  0  0  0  0
 29 62  2  0  0  0  0
 30 56  1  0  0  0  0
 30 63  1  0  0  0  0
 31 64  1  0  0  0  0
 31 67  1  0  0  0  0
 32 68  1  0  0  0  0
 32 73  2  0  0  0  0
 33 47  1  0  0  0  0
 33 69  1  0  0  0  0
 33 74  2  0  0  0  0
 34 59  1  0  0  0  0
 34 65  1  0  0  0  0
 34 75  2  0  0  0  0
 35 60  1  0  0  0  0
 35 70  1  0  0  0  0
 35 76  2  0  0  0  0
 36 66  1  0  0  0  0
 36 71  1  0  0  0  0
 36 77  2  0  0  0  0
 37 40  1  0  0  0  0
 38 47  1  0  0  0  0
 39 65  1  0  0  0  0
 40 42  1  0  0  0  0
 41 43  1  0  0  0  0
 41 44  1  0  0  0  0
 42 46  1  0  0  0  0
 43 48  1  0  0  0  0
 44 66  1  0  0  0  0
 45 48  1  0  0  0  0
 45 66  1  0  0  0  0
 46 69  1  0  0  0  0
 47 65  1  0  0  0  0
 48 64  1  0  0  0  0
 49 58  1  0  0  0  0
 50 60  1  0  0  0  0
 51 61  1  0  0  0  0
 52 61  1  0  0  0  0
 53 61  1  0  0  0  0
 54 63  1  0  0  0  0
 55 72  1  0  0  0  0
 56 71  1  0  0  0  0
 57 58  1  0  0  0  0
 57 79  1  0  0  0  0
 59 61  1  0  0  0  0
 59 70  1  0  0  0  0
 60 72  1  0  0  0  0
 62 64  1  0  0  0  0
M  CHG  1  72   1
M  ISO  4  36 100  57 101  71 100  79 101
M  END
> <Batch ID>
0096

> <Smiles>
CNC(C)C(=O)NC(C(=O)N1Cc2cc([101O:1][101CH2:1]C(C)c3cc(C[100NH:0][100C:0](=O)N4CCCC(n5nc(-c6ccc(Oc7ccc(F)cc7F)cc6)c(C(N)=O)c5N)C4)n(C)c3)ccc2CC1C(=O)NC1CCCc2ccccc21)C(C)(C)C

> <Shape>
0.211

> <Color>
0.069

> <Negative vol penalty>
0.000

$$$$

  -OEChem-04052319243D

 85 93  0     1  0  0  0  0  0999 V2000
  -27.4644  -33.6941   28.1728 C   0  0  0  0  0  0  0  0  0  0  0  0
  -27.8193  -32.4166   28.5942 C   0  0  0  0  0  0  0  0  0  0  0  0
  -23.0682   -9.7948   19.9717 C   0  0  0  0  0  0  0  0  0  0  0  0
  -23.8140   -9.8553   22.2689 C   0  0  0  0  0  0  0  0  0  0  0  0
  -26.9209  -33.8820   26.9026 C   0  0  0  0  0  0  0  0  0  0  0  0
  -27.6298  -31.3261   27.7460 C   0  0  0  0  0  0  0  0  0  0  0  0
  -30.5174  -24.9876   26.0720 C   0  0  0  0  0  0  0  0  0  0  0  0
  -22.3287   -8.6435   20.2421 C   0  0  0  0  0  0  0  0  0  0  0  0
  -23.0743   -8.7040   22.5394 C   0  0  0  0  0  0  0  0  0  0  0  0
  -30.1652  -23.6453   25.9381 C   0  0  0  0  0  0  0  0  0  0  0  0
  -19.8466   -7.9028   23.1395 C   0  0  0  0  0  0  0  0  0  0  0  0
  -19.0826   -7.8843   24.3064 C   0  0  0  0  0  0  0  0  0  0  0  0
  -29.2917  -24.1004   23.7361 C   0  0  0  0  0  0  0  0  0  0  0  0
  -28.3302  -17.0245   24.7310 C   0  0  0  0  0  0  0  0  0  0  0  0
  -30.0494  -18.6915   25.0507 C   0  0  0  0  0  0  0  0  0  0  0  0
  -20.3292   -5.9697   25.0921 C   0  0  0  0  0  0  0  0  0  0  0  0
  -23.8110  -10.4007   20.9851 C   0  0  0  0  0  0  0  0  0  0  0  0
  -24.1408  -12.9244   20.8125 C   0  0  0  0  0  0  0  0  0  0  0  0
  -26.7337  -32.7946   26.0348 C   0  0  0  0  0  0  0  0  0  0  0  0
  -30.2490  -25.9001   25.0416 C   0  0  0  0  0  0  0  0  0  0  0  0
  -27.0821  -31.4995   26.4636 C   0  0  0  0  0  0  0  0  0  0  0  0
  -29.6438  -25.4533   23.8583 C   0  0  0  0  0  0  0  0  0  0  0  0
  -29.6769  -17.3878   24.7235 C   0  0  0  0  0  0  0  0  0  0  0  0
  -27.3560  -17.9651   25.0656 C   0  0  0  0  0  0  0  0  0  0  0  0
  -29.0752  -19.6321   25.3853 C   0  0  0  0  0  0  0  0  0  0  0  0
  -27.7285  -19.2689   25.3928 C   0  0  0  0  0  0  0  0  0  0  0  0
  -22.3317   -8.0981   21.5259 C   0  0  0  0  0  0  0  0  0  0  0  0
  -29.5497  -23.2021   24.7712 C   0  0  0  0  0  0  0  0  0  0  0  0
  -20.8518   -6.9547   22.9488 C   0  0  0  0  0  0  0  0  0  0  0  0
  -19.3240   -6.9178   25.2827 C   0  0  0  0  0  0  0  0  0  0  0  0
  -21.0931   -5.9881   23.9252 C   0  0  0  0  0  0  0  0  0  0  0  0
  -24.5756  -11.5897   20.7063 C   0  0  0  0  0  0  0  0  0  0  0  0
  -25.2314  -13.6714   20.4397 C   0  0  0  0  0  0  0  0  0  0  0  0
  -22.8652  -13.4426   21.2125 C   0  0  0  0  0  0  0  0  0  0  0  0
  -28.4723  -28.5222   24.7737 C   0  0  0  0  0  0  0  0  0  0  0  0
  -29.8732  -28.7023   21.8535 C   0  0  0  0  0  0  0  0  0  0  0  0
  -31.4266  -27.0855   19.2807 C   0  0  0  0  0  0  0  0  0  0  0  0
  -30.7087  -14.7226   20.6390 C   0  0  0  0  0  0  0  0  0  0  0  0
  -26.0989  -33.0407   24.6891 C   0  0  0  0  0  0  0  0  0  0  0  0
  -30.6593  -27.3395   25.1908 C   0  0  0  0  0  0  0  0  0  0  0  0
  -29.3523  -26.3887   22.7145 C   0  0  0  0  0  0  0  0  0  0  0  0
  -26.2782  -31.8832   23.7102 C   0  0  0  0  0  0  0  0  0  0  0  0
  -29.5978  -12.2812   18.2977 C   0  0  0  0  0  0  0  0  0  0  0  0
  -25.9618  -30.5550   24.3903 C   0  0  0  0  0  0  0  0  0  0  0  0
  -28.1592  -11.9895   18.7281 C   0  0  0  0  0  0  0  0  0  0  0  0
  -30.5064  -12.5326   19.4990 C   0  0  0  0  0  0  0  0  0  0  0  0
  -28.5925  -13.2837   20.8579 C   0  0  0  0  0  0  0  0  0  0  0  0
  -26.9149  -30.2949   25.5630 C   0  0  1  0  0  0  0  0  0  0  0  0
  -29.8728  -28.2820   24.2851 C   0  0  1  0  0  0  0  0  0  0  0  0
  -27.6265  -13.0787   19.6785 C   0  0  2  0  0  0  0  0  0  0  0  0
  -26.6838  -20.2770   25.7519 C   0  0  0  0  0  0  0  0  0  0  0  0
  -25.3444  -17.4570   23.6577 C   0  0  0  0  0  0  0  0  0  0  0  0
  -31.6636  -16.1006   25.5530 C   0  0  0  0  0  0  0  0  0  0  0  0
  -32.4221  -27.4920   17.0133 C   0  0  0  0  0  0  0  0  0  0  0  0
  -27.0715  -28.8877   20.6593 C   0  0  0  0  0  0  0  0  0  0  0  0
  -28.0620  -28.3364   18.4270 C   0  0  0  0  0  0  0  0  0  0  0  0
  -28.7531  -30.4172   19.6167 C   0  0  0  0  0  0  0  0  0  0  0  0
  -34.1015  -26.1786   20.1645 C   0  0  0  0  0  0  0  0  0  0  0  0
  -25.9208  -17.5504   25.0671 C   0  0  0  0  0  0  0  0  0  0  0  0
  -29.5022  -21.0278   25.7335 C   0  0  0  0  0  0  0  0  0  1  0  0
  -31.5678  -16.7646   23.1180 C   0  0  0  0  0  0  0  0  0  0  0  0
  -30.7562  -16.8997   21.8294 C   0  0  0  0  0  0  0  0  0  0  0  0
  -30.7184  -16.3823   24.3651 C   0  0  2  0  0  0  0  0  0  0  0  0
  -29.5466  -28.1760   20.4768 C   0  0  1  0  0  0  0  0  0  0  0  0
  -32.6928  -27.4065   18.5073 C   0  0  2  0  0  0  0  0  0  0  0  0
  -28.3619  -28.9368   19.8171 C   0  0  0  0  0  0  0  0  0  0  0  0
  -25.8435  -11.4913   20.2978 N   0  0  0  0  0  0  0  0  0  0  0  0
  -26.2147  -12.7737   20.1440 N   0  0  0  0  0  0  0  0  0  0  0  0
  -29.7667  -27.7877   22.9108 N   0  0  0  0  0  0  0  0  0  0  0  0
  -29.9453  -13.5772   20.3591 N   0  0  0  0  0  0  0  0  0  0  0  0
  -25.4356  -15.0021   20.3391 N   0  0  0  0  0  0  0  0  0  0  0  0
  -21.8558  -12.5357   21.5632 N   0  0  0  0  0  0  0  0  0  0  0  0
  -28.2013  -29.8425   25.0780 N   0  0  0  0  0  0  0  0  0  0  0  0
  -30.7892  -28.2288   19.7142 N   0  0  0  0  0  0  0  0  0  0  0  0
  -30.0997  -15.6663   21.4571 N   0  0  0  0  0  0  0  0  0  0  0  0
  -33.7221  -26.3540   18.7389 N   0  3  0  0  0  0  0  0  0  0  0  0
  -22.6224  -14.6729   21.2417 O   0  0  0  0  0  0  0  0  0  0  0  0
  -27.6947  -27.5796   24.8661 O   0  0  0  0  0  0  0  0  0  0  0  0
  -30.2172  -29.8796   21.9849 O   0  0  0  0  0  0  0  0  0  0  0  0
  -31.0395  -25.9357   19.4770 O   0  0  0  0  0  0  0  0  0  0  0  0
  -31.8465  -14.8940   20.1886 O   0  0  0  0  0  0  0  0  0  0  0  0
  -21.6099   -6.9748   21.7902 O   0  0  0  0  0  0  0  0  0  0  0  0
  -29.2043  -21.8926   24.6381 O   0  0  0  0  0  0  0  0  0  1  0  0
  -18.5913   -6.9011   26.4039 F   0  0  0  0  0  0  0  0  0  0  0  0
  -22.0582   -5.0754   23.7482 F   0  0  0  0  0  0  0  0  0  0  0  0
  1  2  1  0  0  0  0
  1  5  2  0  0  0  0
  2  6  2  0  0  0  0
  3  8  2  0  0  0  0
  3 17  1  0  0  0  0
  4  9  1  0  0  0  0
  4 17  2  0  0  0  0
  5 19  1  0  0  0  0
  6 21  1  0  0  0  0
  7 10  2  0  0  0  0
  7 20  1  0  0  0  0
  8 27  1  0  0  0  0
  9 27  2  0  0  0  0
 10 28  1  0  0  0  0
 11 12  2  0  0  0  0
 11 29  1  0  0  0  0
 12 30  1  0  0  0  0
 13 22  1  0  0  0  0
 13 28  2  0  0  0  0
 14 23  2  0  0  0  0
 14 24  1  0  0  0  0
 15 23  1  0  0  0  0
 15 25  2  0  0  0  0
 16 30  2  0  0  0  0
 16 31  1  0  0  0  0
 17 32  1  0  0  0  0
 18 32  1  0  0  0  0
 18 33  2  0  0  0  0
 18 34  1  0  0  0  0
 19 21  2  0  0  0  0
 19 39  1  0  0  0  0
 20 22  2  0  0  0  0
 20 40  1  0  0  0  0
 21 48  1  0  0  0  0
 22 41  1  0  0  0  0
 23 63  1  0  0  0  0
 24 26  2  0  0  0  0
 24 59  1  0  0  0  0
 25 26  1  0  0  0  0
 25 60  1  0  0  0  0
 26 51  1  0  0  0  0
 27 82  1  0  0  0  0
 28 83  1  0  0  0  0
 29 31  2  0  0  0  0
 29 82  1  0  0  0  0
 30 84  1  0  0  0  0
 31 85  1  0  0  0  0
 32 67  2  0  0  0  0
 33 68  1  0  0  0  0
 33 71  1  0  0  0  0
 34 72  1  0  0  0  0
 34 77  2  0  0  0  0
 35 49  1  0  0  0  0
 35 73  1  0  0  0  0
 35 78  2  0  0  0  0
 36 64  1  0  0  0  0
 36 69  1  0  0  0  0
 36 79  2  0  0  0  0
 37 65  1  0  0  0  0
 37 74  1  0  0  0  0
 37 80  2  0  0  0  0
 38 70  1  0  0  0  0
 38 75  1  0  0  0  0
 38 81  2  0  0  0  0
 39 42  1  0  0  0  0
 40 49  1  0  0  0  0
 41 69  1  0  0  0  0
 42 44  1  0  0  0  0
 43 45  1  0  0  0  0
 43 46  1  0  0  0  0
 44 48  1  0  0  0  0
 45 50  1  0  0  0  0
 46 70  1  0  0  0  0
 47 50  1  0  0  0  0
 47 70  1  0  0  0  0
 48 73  1  0  0  0  0
 49 69  1  0  0  0  0
 50 68  1  0  0  0  0
 52 59  1  0  0  0  0
 53 63  1  0  0  0  0
 54 65  1  0  0  0  0
 55 66  1  0  0  0  0
 56 66  1  0  0  0  0
 57 66  1  0  0  0  0
 58 76  1  0  0  0  0
 60 83  1  0  0  0  0
 61 62  1  0  0  0  0
 61 63  1  0  0  0  0
 62 75  1  0  0  0  0
 64 66  1  0  0  0  0
 64 74  1  0  0  0  0
 65 76  1  0  0  0  0
 67 68  1  0  0  0  0
M  CHG  1  76   1
M  ISO  4  38 100  60 101  75 100  83 101
M  END
> <Batch ID>
0096

> <Smiles>
CCc1cc(C(C)CC[100NH:0][100C:0](=O)N2CCCC(n3nc(-c4ccc(Oc5ccc(F)cc5F)cc4)c(C(N)=O)c3N)C2)cc([101CH2:1][101O:1]c2ccc3c(c2)CN(C(=O)C(NC(=O)C(C)NC)C(C)(C)C)C(C(=O)NC2CCCc4ccccc42)C3)c1C

> <Shape>
0.266

> <Color>
0.207

> <Negative vol penalty>
0.000

$$$$

  -OEChem-04052319243D

 84 92  0     1  0  0  0  0  0999 V2000
  -28.2693  -18.3833   18.5712 C   0  0  0  0  0  0  0  0  0  0  0  0
  -28.6685  -17.2788   19.3168 C   0  0  0  0  0  0  0  0  0  0  0  0
  -23.1481   -9.8475   19.9321 C   0  0  0  0  0  0  0  0  0  0  0  0
  -23.6446   -9.9831   22.2926 C   0  0  0  0  0  0  0  0  0  0  0  0
  -28.5393  -19.6703   19.0346 C   0  0  0  0  0  0  0  0  0  0  0  0
  -29.3390  -17.4606   20.5259 C   0  0  0  0  0  0  0  0  0  0  0  0
  -28.9013  -13.9705   25.5392 C   0  0  0  0  0  0  0  0  0  0  0  0
  -22.3901   -8.6984   20.1575 C   0  0  0  0  0  0  0  0  0  0  0  0
  -22.8866   -8.8340   22.5181 C   0  0  0  0  0  0  0  0  0  0  0  0
  -29.7021  -12.9458   26.0416 C   0  0  0  0  0  0  0  0  0  0  0  0
  -23.2653   -5.4922   22.1728 C   0  0  0  0  0  0  0  0  0  0  0  0
  -23.8043   -4.5139   23.0083 C   0  0  0  0  0  0  0  0  0  0  0  0
  -30.8291  -14.5330   27.4663 C   0  0  0  0  0  0  0  0  0  0  0  0
  -21.9200   -4.7513   24.5017 C   0  0  0  0  0  0  0  0  0  0  0  0
  -33.4557  -14.1197   24.4148 C   0  0  0  0  0  0  0  0  0  0  0  0
  -35.1455  -12.6787   24.1267 C   0  0  0  0  0  0  0  0  0  0  0  0
  -23.7754  -10.4898   20.9996 C   0  0  0  0  0  0  0  0  0  0  0  0
  -24.1081  -13.0099   20.7858 C   0  0  0  0  0  0  0  0  0  0  0  0
  -29.2048  -19.8681   20.2546 C   0  0  0  0  0  0  0  0  0  0  0  0
  -29.0660  -15.2883   25.9894 C   0  0  0  0  0  0  0  0  0  0  0  0
  -29.6193  -18.7514   21.0054 C   0  0  0  0  0  0  0  0  0  0  0  0
  -30.0274  -15.5723   26.9699 C   0  0  0  0  0  0  0  0  0  0  0  0
  -33.7306  -14.0725   23.0659 C   0  0  0  0  0  0  0  0  0  0  0  0
  -34.7997  -13.1610   22.8836 C   0  0  0  0  0  0  0  0  0  0  0  0
  -22.2593   -8.1917   21.4505 C   0  0  0  0  0  0  0  0  0  0  0  0
  -30.6682  -13.2274   27.0031 C   0  0  0  0  0  0  0  0  0  0  0  0
  -22.0537   -6.1001   22.5018 C   0  0  0  0  0  0  0  0  0  0  0  0
  -23.1316   -4.1434   24.1727 C   0  0  0  0  0  0  0  0  0  0  0  0
  -21.3811   -5.7297   23.6662 C   0  0  0  0  0  0  0  0  0  0  0  0
  -24.5589  -11.6764   20.7674 C   0  0  0  0  0  0  0  0  0  0  0  0
  -25.2281  -13.7549   20.5082 C   0  0  0  0  0  0  0  0  0  0  0  0
  -22.7943  -13.5288   21.0318 C   0  0  0  0  0  0  0  0  0  0  0  0
  -29.8770  -18.0409   24.6223 C   0  0  0  0  0  0  0  0  0  0  0  0
  -29.1659  -19.2540   27.5455 C   0  0  0  0  0  0  0  0  0  0  0  0
  -28.8403  -18.7242   30.9011 C   0  0  0  0  0  0  0  0  0  0  0  0
  -30.8059  -13.8007   21.6474 C   0  0  0  0  0  0  0  0  0  0  0  0
  -29.5163  -21.2776   20.6915 C   0  0  0  0  0  0  0  0  0  0  0  0
  -28.1761  -16.3778   25.4571 C   0  0  0  0  0  0  0  0  0  0  0  0
  -30.2302  -16.9669   27.5012 C   0  0  0  0  0  0  0  0  0  0  0  0
  -29.8994  -21.3880   22.1650 C   0  0  0  0  0  0  0  0  0  0  0  0
  -29.5938  -12.8246   18.3801 C   0  0  0  0  0  0  0  0  0  0  0  0
  -30.9137  -20.3104   22.5350 C   0  0  0  0  0  0  0  0  0  0  0  0
  -28.1158  -12.5581   18.6712 C   0  0  0  0  0  0  0  0  0  0  0  0
  -30.4760  -12.3717   19.5399 C   0  0  0  0  0  0  0  0  0  0  0  0
  -28.6399  -12.7038   21.1499 C   0  0  0  0  0  0  0  0  0  0  0  0
  -30.3268  -18.9081   22.3339 C   0  0  1  0  0  0  0  0  0  0  0  0
  -28.7790  -17.7707   25.6117 C   0  0  1  0  0  0  0  0  0  0  0  0
  -27.6938  -13.1603   20.0245 C   0  0  2  0  0  0  0  0  0  0  0  0
  -34.8082  -11.5509   20.9454 C   0  0  0  0  0  0  0  0  0  0  0  0
  -28.2835  -19.9152   33.0386 C   0  0  0  0  0  0  0  0  0  0  0  0
  -31.8491  -10.0560   26.5572 C   0  0  0  0  0  0  0  0  0  0  0  0
  -31.9326  -20.5405   27.5464 C   0  0  0  0  0  0  0  0  0  0  0  0
  -31.6930  -20.8894   30.0140 C   0  0  0  0  0  0  0  0  0  0  0  0
  -30.1053  -21.9955   28.4397 C   0  0  0  0  0  0  0  0  0  0  0  0
  -26.4984  -16.9837   31.3967 C   0  0  0  0  0  0  0  0  0  0  0  0
  -33.0315  -14.8353   22.0127 C   0  0  0  0  0  0  0  0  0  0  0  0
  -33.7389  -11.6764   26.9537 C   0  0  0  0  0  0  0  0  0  0  0  0
  -34.3607  -13.0168   26.5360 C   0  0  0  0  0  0  0  0  0  0  0  0
  -35.4344  -12.7887   21.6038 C   0  0  2  0  0  0  0  0  0  0  0  0
  -29.9402  -19.5011   28.8176 C   0  0  1  0  0  0  0  0  0  0  0  0
  -27.7395  -19.0973   31.8776 C   0  0  2  0  0  0  0  0  0  0  0  0
  -32.2648  -11.5216   26.5596 C   0  0  2  0  0  0  0  0  0  1  0  0
  -30.9155  -20.7056   28.6932 C   0  0  0  0  0  0  0  0  0  0  0  0
  -25.8636  -11.5769   20.4992 N   0  0  0  0  0  0  0  0  0  0  0  0
  -34.3217  -13.2682   25.0497 N   0  0  0  0  0  0  0  0  0  0  0  0
  -26.2422  -12.8573   20.3464 N   0  0  0  0  0  0  0  0  0  0  0  0
  -29.3398  -17.9990   26.9449 N   0  0  0  0  0  0  0  0  0  0  0  0
  -30.0328  -12.9952   20.7949 N   0  0  0  0  0  0  0  0  0  0  0  0
  -25.4346  -15.0837   20.3892 N   0  0  0  0  0  0  0  0  0  0  0  0
  -21.7583  -12.6242   21.3009 N   0  0  0  0  0  0  0  0  0  0  0  0
  -29.4371  -18.5714   23.4245 N   0  0  0  0  0  0  0  0  0  0  0  0
  -28.9484  -19.6425   29.8782 N   0  0  0  0  0  0  0  0  0  0  0  0
  -32.1165  -14.0224   21.2426 N   0  0  0  0  0  0  0  0  0  0  0  0
  -27.0971  -17.8702   32.4276 N   0  3  0  0  0  0  0  0  0  0  0  0
  -22.5432  -14.7573   20.9973 O   0  0  0  0  0  0  0  0  0  0  0  0
  -31.0376  -17.7883   24.9238 O   0  0  0  0  0  0  0  0  0  0  0  0
  -28.4282  -20.1390   27.1049 O   0  0  0  0  0  0  0  0  0  0  0  0
  -29.5371  -17.7206   31.0345 O   0  0  0  0  0  0  0  0  0  0  0  0
  -30.3596  -14.2909   22.6903 O   0  0  0  0  0  0  0  0  0  0  0  0
  -36.8276  -12.5087   21.8190 O   0  0  0  0  0  0  0  0  0  0  0  0
  -21.5196   -7.0707   21.6708 O   0  0  0  0  0  0  0  0  0  0  0  0
  -31.4516  -12.2292   27.4946 O   0  0  0  0  0  0  0  0  0  1  0  0
  -23.6485   -3.2028   24.9742 F   0  0  0  0  0  0  0  0  0  0  0  0
  -20.2162   -6.3093   23.9869 F   0  0  0  0  0  0  0  0  0  0  0  0
  1  2  1  0  0  0  0
  1  5  2  0  0  0  0
  2  6  2  0  0  0  0
  3  8  2  0  0  0  0
  3 17  1  0  0  0  0
  4  9  1  0  0  0  0
  4 17  2  0  0  0  0
  5 19  1  0  0  0  0
  6 21  1  0  0  0  0
  7 10  2  0  0  0  0
  7 20  1  0  0  0  0
  8 25  1  0  0  0  0
  9 25  2  0  0  0  0
 10 26  1  0  0  0  0
 11 12  2  0  0  0  0
 11 27  1  0  0  0  0
 12 28  1  0  0  0  0
 13 22  1  0  0  0  0
 13 26  2  0  0  0  0
 14 28  2  0  0  0  0
 14 29  1  0  0  0  0
 15 23  2  0  0  0  0
 15 65  1  0  0  0  0
 16 24  2  0  0  0  0
 16 65  1  0  0  0  0
 17 30  1  0  0  0  0
 18 30  1  0  0  0  0
 18 31  2  0  0  0  0
 18 32  1  0  0  0  0
 19 21  2  0  0  0  0
 19 37  1  0  0  0  0
 20 22  2  0  0  0  0
 20 38  1  0  0  0  0
 21 46  1  0  0  0  0
 22 39  1  0  0  0  0
 23 24  1  0  0  0  0
 23 56  1  0  0  0  0
 24 59  1  0  0  0  0
 25 81  1  0  0  0  0
 26 82  1  0  0  0  0
 27 29  2  0  0  0  0
 27 81  1  0  0  0  0
 28 83  1  0  0  0  0
 29 84  1  0  0  0  0
 30 64  2  0  0  0  0
 31 66  1  0  0  0  0
 31 69  1  0  0  0  0
 32 70  1  0  0  0  0
 32 75  2  0  0  0  0
 33 47  1  0  0  0  0
 33 71  1  0  0  0  0
 33 76  2  0  0  0  0
 34 60  1  0  0  0  0
 34 67  1  0  0  0  0
 34 77  2  0  0  0  0
 35 61  1  0  0  0  0
 35 72  1  0  0  0  0
 35 78  2  0  0  0  0
 36 68  1  0  0  0  0
 36 73  1  0  0  0  0
 36 79  2  0  0  0  0
 37 40  1  0  0  0  0
 38 47  1  0  0  0  0
 39 67  1  0  0  0  0
 40 42  1  0  0  0  0
 41 43  1  0  0  0  0
 41 44  1  0  0  0  0
 42 46  1  0  0  0  0
 43 48  1  0  0  0  0
 44 68  1  0  0  0  0
 45 48  1  0  0  0  0
 45 68  1  0  0  0  0
 46 71  1  0  0  0  0
 47 67  1  0  0  0  0
 48 66  1  0  0  0  0
 49 59  1  0  0  0  0
 50 61  1  0  0  0  0
 51 62  1  0  0  0  0
 52 63  1  0  0  0  0
 53 63  1  0  0  0  0
 54 63  1  0  0  0  0
 55 74  1  0  0  0  0
 56 73  1  0  0  0  0
 57 58  1  0  0  0  0
 57 62  1  0  0  0  0
 58 65  1  0  0  0  0
 59 80  1  0  0  0  0
 60 63  1  0  0  0  0
 60 72  1  0  0  0  0
 61 74  1  0  0  0  0
 62 82  1  0  0  0  0
 64 66  1  0  0  0  0
M  CHG  1  74   1
M  ISO  4  36 100  62 101  73 100  82 101
M  END
> <Batch ID>
0096

> <Smiles>
CNC(C)C(=O)NC(C(=O)N1Cc2cc([101O:1][101CH:1](C)CCn3cc(C[100NH:0][100C:0](=O)N4CCCC(n5nc(-c6ccc(Oc7ccc(F)cc7F)cc6)c(C(N)=O)c5N)C4)c(C(C)O)c3)ccc2CC1C(=O)NC1CCCc2ccccc21)C(C)(C)C

> <Shape>
0.201

> <Color>
0.180

> <Negative vol penalty>
0.000

$$$$

  -OEChem-04052319243D

 88 96  0     1  0  0  0  0  0999 V2000
  -27.7704  -17.7547   13.6988 C   0  0  0  0  0  0  0  0  0  0  0  0
  -26.6908  -17.8355   14.5711 C   0  0  0  0  0  0  0  0  0  0  0  0
  -23.0014   -9.8948   19.9811 C   0  0  0  0  0  0  0  0  0  0  0  0
  -23.7314   -9.9437   22.2836 C   0  0  0  0  0  0  0  0  0  0  0  0
  -28.0975  -18.8467   12.8977 C   0  0  0  0  0  0  0  0  0  0  0  0
  -25.9307  -19.0039   14.6339 C   0  0  0  0  0  0  0  0  0  0  0  0
  -21.8605  -18.8765   17.3944 C   0  0  0  0  0  0  0  0  0  0  0  0
  -22.2365   -8.7592   20.2477 C   0  0  0  0  0  0  0  0  0  0  0  0
  -22.9665   -8.8081   22.5503 C   0  0  0  0  0  0  0  0  0  0  0  0
  -21.8954  -18.8485   18.7879 C   0  0  0  0  0  0  0  0  0  0  0  0
  -23.2130   -5.4700   22.0738 C   0  0  0  0  0  0  0  0  0  0  0  0
  -23.8031   -4.4525   22.8235 C   0  0  0  0  0  0  0  0  0  0  0  0
  -21.2970  -21.1848   18.8437 C   0  0  0  0  0  0  0  0  0  0  0  0
  -22.0826   -4.6917   24.5026 C   0  0  0  0  0  0  0  0  0  0  0  0
  -28.3101  -18.7622   21.7714 C   0  0  0  0  0  0  0  0  0  0  0  0
  -23.7489  -10.4870   20.9991 C   0  0  0  0  0  0  0  0  0  0  0  0
  -24.1314  -13.0032   20.8252 C   0  0  0  0  0  0  0  0  0  0  0  0
  -27.3481  -20.0331   12.9604 C   0  0  0  0  0  0  0  0  0  0  0  0
  -21.5537  -20.0635   16.7138 C   0  0  0  0  0  0  0  0  0  0  0  0
  -26.2303  -20.1084   13.8161 C   0  0  0  0  0  0  0  0  0  0  0  0
  -21.2563  -21.2245   17.4416 C   0  0  0  0  0  0  0  0  0  0  0  0
  -29.1364  -18.3553   20.7473 C   0  0  0  0  0  0  0  0  0  0  0  0
  -28.3696  -18.3646   19.5560 C   0  0  0  0  0  0  0  0  0  0  0  0
  -22.2190   -8.2159   21.5323 C   0  0  0  0  0  0  0  0  0  0  0  0
  -21.6165  -20.0035   19.5127 C   0  0  0  0  0  0  0  0  0  0  0  0
  -22.0577   -6.0985   22.5386 C   0  0  0  0  0  0  0  0  0  0  0  0
  -23.2379   -4.0633   24.0378 C   0  0  0  0  0  0  0  0  0  0  0  0
  -21.4925   -5.7093   23.7530 C   0  0  0  0  0  0  0  0  0  0  0  0
  -24.5396  -11.6597   20.7242 C   0  0  0  0  0  0  0  0  0  0  0  0
  -27.0981  -18.7771   19.8885 C   0  0  0  0  0  0  0  0  0  0  0  0
  -25.2397  -13.7273   20.4594 C   0  0  0  0  0  0  0  0  0  0  0  0
  -22.8637  -13.5479   21.2151 C   0  0  0  0  0  0  0  0  0  0  0  0
  -23.0984  -21.9359   14.6616 C   0  0  0  0  0  0  0  0  0  0  0  0
  -20.2452  -23.4722   14.5170 C   0  0  0  0  0  0  0  0  0  0  0  0
  -17.2689  -24.2033   16.0184 C   0  0  0  0  0  0  0  0  0  0  0  0
  -30.7357  -14.6669   20.6974 C   0  0  0  0  0  0  0  0  0  0  0  0
  -27.7414  -21.1817   12.0653 C   0  0  0  0  0  0  0  0  0  0  0  0
  -21.4939  -20.0704   15.2109 C   0  0  0  0  0  0  0  0  0  0  0  0
  -20.9014  -22.5193   16.7590 C   0  0  0  0  0  0  0  0  0  0  0  0
  -27.1592  -22.5161   12.5200 C   0  0  0  0  0  0  0  0  0  0  0  0
  -29.5924  -12.2449   18.3514 C   0  0  0  0  0  0  0  0  0  0  0  0
  -25.6676  -22.3703   12.7816 C   0  0  0  0  0  0  0  0  0  0  0  0
  -28.1450  -11.9833   18.7718 C   0  0  0  0  0  0  0  0  0  0  0  0
  -30.4971  -12.4797   19.5590 C   0  0  0  0  0  0  0  0  0  0  0  0
  -28.5890  -13.2718   20.9028 C   0  0  0  0  0  0  0  0  0  0  0  0
  -25.4078  -21.3798   13.9237 C   0  0  1  0  0  0  0  0  0  0  0  0
  -21.6734  -21.4621   14.6122 C   0  0  1  0  0  0  0  0  0  0  0  0
  -27.6277  -13.0846   19.7166 C   0  0  2  0  0  0  0  0  0  0  0  0
  -25.9034  -18.9650   19.0383 C   0  0  0  0  0  0  0  0  0  0  0  0
  -28.7705  -19.1742   17.2028 C   0  0  0  0  0  0  0  0  0  0  0  0
  -28.1014  -16.7789   17.6150 C   0  0  0  0  0  0  0  0  0  0  0  0
  -15.1577  -25.5149   15.6724 C   0  0  0  0  0  0  0  0  0  0  0  0
  -24.4283  -19.4614   24.9095 C   0  0  0  0  0  0  0  0  0  0  0  0
  -21.7409  -26.0489   15.1754 C   0  0  0  0  0  0  0  0  0  0  0  0
  -19.5407  -27.0980   15.7468 C   0  0  0  0  0  0  0  0  0  0  0  0
  -19.9695  -26.2888   13.4265 C   0  0  0  0  0  0  0  0  0  0  0  0
  -15.5980  -21.7629   16.1241 C   0  0  0  0  0  0  0  0  0  0  0  0
  -30.5584  -17.9803   20.8791 C   0  0  0  0  0  0  0  0  0  0  0  0
  -25.2359  -18.3364   22.8123 C   0  0  0  0  0  0  0  0  0  0  0  0
  -22.9884  -19.6256   22.8299 C   0  0  0  0  0  0  0  0  0  0  0  0
  -25.8800  -19.4862   22.0310 C   0  0  0  0  0  0  0  0  0  0  0  0
  -30.8188  -16.8445   21.8850 C   0  0  0  0  0  0  0  0  0  0  0  0
  -22.5530  -19.0578   21.4836 C   0  0  0  0  0  0  0  0  0  1  0  0
  -28.8438  -17.9996   18.2050 C   0  0  0  0  0  0  0  0  0  0  0  0
  -19.6020  -24.6065   15.2777 C   0  0  1  0  0  0  0  0  0  0  0  0
  -15.8431  -24.1685   15.4986 C   0  0  2  0  0  0  0  0  0  0  0  0
  -23.9921  -18.7624   23.6172 C   0  0  2  0  0  0  0  0  0  0  0  0
  -20.2218  -25.9868   14.9197 C   0  0  0  0  0  0  0  0  0  0  0  0
  -25.8082  -11.5349   20.3251 N   0  0  0  0  0  0  0  0  0  0  0  0
  -27.0736  -19.0162   21.2377 N   0  0  0  0  0  0  0  0  0  0  0  0
  -26.2066  -12.8092   20.1722 N   0  0  0  0  0  0  0  0  0  0  0  0
  -20.8623  -22.4769   15.2879 N   0  0  0  0  0  0  0  0  0  0  0  0
  -29.9511  -13.5369   20.4136 N   0  0  0  0  0  0  0  0  0  0  0  0
  -25.4717  -15.0533   20.3584 N   0  0  0  0  0  0  0  0  0  0  0  0
  -21.8335  -12.6623   21.5598 N   0  0  0  0  0  0  0  0  0  0  0  0
  -23.9888  -21.1107   14.0015 N   0  0  0  0  0  0  0  0  0  0  0  0
  -18.1692  -24.5101   15.0201 N   0  0  0  0  0  0  0  0  0  0  0  0
  -30.1401  -15.6241   21.5097 N   0  0  0  0  0  0  0  0  0  0  0  0
  -15.0503  -23.1398   16.2293 N   0  3  0  0  0  0  0  0  0  0  0  0
  -22.6459  -14.7829   21.2408 O   0  0  0  0  0  0  0  0  0  0  0  0
  -23.3698  -22.9741   15.2533 O   0  0  0  0  0  0  0  0  0  0  0  0
  -20.1954  -23.4658   13.2845 O   0  0  0  0  0  0  0  0  0  0  0  0
  -17.5550  -23.9841   17.1934 O   0  0  0  0  0  0  0  0  0  0  0  0
  -31.8800  -14.8144   20.2551 O   0  0  0  0  0  0  0  0  0  0  0  0
  -21.4726   -7.1080   21.7928 O   0  0  0  0  0  0  0  0  0  0  0  0
  -21.6505  -19.9791   20.8729 O   0  0  0  0  0  0  0  0  0  1  0  0
  -23.8038   -3.0851   24.7569 F   0  0  0  0  0  0  0  0  0  0  0  0
  -20.3820   -6.3086   24.2041 F   0  0  0  0  0  0  0  0  0  0  0  0
  1  2  1  0  0  0  0
  1  5  2  0  0  0  0
  2  6  2  0  0  0  0
  3  8  2  0  0  0  0
  3 16  1  0  0  0  0
  4  9  1  0  0  0  0
  4 16  2  0  0  0  0
  5 18  1  0  0  0  0
  6 20  1  0  0  0  0
  7 10  2  0  0  0  0
  7 19  1  0  0  0  0
  8 24  1  0  0  0  0
  9 24  2  0  0  0  0
 10 25  1  0  0  0  0
 11 12  2  0  0  0  0
 11 26  1  0  0  0  0
 12 27  1  0  0  0  0
 13 21  1  0  0  0  0
 13 25  2  0  0  0  0
 14 27  2  0  0  0  0
 14 28  1  0  0  0  0
 15 22  2  0  0  0  0
 15 70  1  0  0  0  0
 16 29  1  0  0  0  0
 17 29  1  0  0  0  0
 17 31  2  0  0  0  0
 17 32  1  0  0  0  0
 18 20  2  0  0  0  0
 18 37  1  0  0  0  0
 19 21  2  0  0  0  0
 19 38  1  0  0  0  0
 20 46  1  0  0  0  0
 21 39  1  0  0  0  0
 22 23  1  0  0  0  0
 22 58  1  0  0  0  0
 23 30  2  0  0  0  0
 23 64  1  0  0  0  0
 24 85  1  0  0  0  0
 25 86  1  0  0  0  0
 26 28  2  0  0  0  0
 26 85  1  0  0  0  0
 27 87  1  0  0  0  0
 28 88  1  0  0  0  0
 29 69  2  0  0  0  0
 30 49  1  0  0  0  0
 30 70  1  0  0  0  0
 31 71  1  0  0  0  0
 31 74  1  0  0  0  0
 32 75  1  0  0  0  0
 32 80  2  0  0  0  0
 33 47  1  0  0  0  0
 33 76  1  0  0  0  0
 33 81  2  0  0  0  0
 34 65  1  0  0  0  0
 34 72  1  0  0  0  0
 34 82  2  0  0  0  0
 35 66  1  0  0  0  0
 35 77  1  0  0  0  0
 35 83  2  0  0  0  0
 36 73  1  0  0  0  0
 36 78  1  0  0  0  0
 36 84  2  0  0  0  0
 37 40  1  0  0  0  0
 38 47  1  0  0  0  0
 39 72  1  0  0  0  0
 40 42  1  0  0  0  0
 41 43  1  0  0  0  0
 41 44  1  0  0  0  0
 42 46  1  0  0  0  0
 43 48  1  0  0  0  0
 44 73  1  0  0  0  0
 45 48  1  0  0  0  0
 45 73  1  0  0  0  0
 46 76  1  0  0  0  0
 47 72  1  0  0  0  0
 48 71  1  0  0  0  0
 50 64  1  0  0  0  0
 51 64  1  0  0  0  0
 52 66  1  0  0  0  0
 53 67  1  0  0  0  0
 54 68  1  0  0  0  0
 55 68  1  0  0  0  0
 56 68  1  0  0  0  0
 57 79  1  0  0  0  0
 58 62  1  0  0  0  0
 59 61  1  0  0  0  0
 59 67  1  0  0  0  0
 60 63  1  0  0  0  0
 60 67  1  0  0  0  0
 61 70  1  0  0  0  0
 62 78  1  0  0  0  0
 63 86  1  0  0  0  0
 65 68  1  0  0  0  0
 65 77  1  0  0  0  0
 66 79  1  0  0  0  0
 69 71  1  0  0  0  0
M  CHG  1  79   1
M  ISO  4  36 100  63 101  78 100  86 101
M  END
> <Batch ID>
0096

> <Smiles>
CNC(C)C(=O)NC(C(=O)N1Cc2cc([101O:1][101CH2:1]CC(C)CCn3cc(CC[100NH:0][100C:0](=O)N4CCCC(n5nc(-c6ccc(Oc7ccc(F)cc7F)cc6)c(C(N)=O)c5N)C4)c(C(C)C)c3C)ccc2CC1C(=O)NC1CCCc2ccccc21)C(C)(C)C

> <Shape>
0.199

> <Color>
0.197

> <Negative vol penalty>
0.000

$$$$

  -OEChem-04052319243D

 88 96  0     1  0  0  0  0  0999 V2000
  -19.4327  -13.9258   18.6403 C   0  0  0  0  0  0  0  0  0  0  0  0
  -20.2407  -14.9369   19.1504 C   0  0  0  0  0  0  0  0  0  0  0  0
  -23.0719   -9.8713   19.9435 C   0  0  0  0  0  0  0  0  0  0  0  0
  -23.8342   -9.8789   22.2361 C   0  0  0  0  0  0  0  0  0  0  0  0
  -19.3407  -13.7371   17.2619 C   0  0  0  0  0  0  0  0  0  0  0  0
  -20.9581  -15.7593   18.2824 C   0  0  0  0  0  0  0  0  0  0  0  0
  -20.6614  -20.6526   19.5521 C   0  0  0  0  0  0  0  0  0  0  0  0
  -22.3281   -8.7184   20.1946 C   0  0  0  0  0  0  0  0  0  0  0  0
  -23.0903   -8.7260   22.4873 C   0  0  0  0  0  0  0  0  0  0  0  0
  -21.4594  -21.0854   20.6102 C   0  0  0  0  0  0  0  0  0  0  0  0
  -20.5132   -5.5677   20.1393 C   0  0  0  0  0  0  0  0  0  0  0  0
  -20.5753   -4.5369   19.2017 C   0  0  0  0  0  0  0  0  0  0  0  0
  -23.0566  -21.9723   19.0348 C   0  0  0  0  0  0  0  0  0  0  0  0
  -22.9604   -4.3664   19.5471 C   0  0  0  0  0  0  0  0  0  0  0  0
  -28.2724  -18.7759   21.8623 C   0  0  0  0  0  0  0  0  0  0  0  0
  -23.8250  -10.4515   20.9642 C   0  0  0  0  0  0  0  0  0  0  0  0
  -24.1673  -12.9766   20.8429 C   0  0  0  0  0  0  0  0  0  0  0  0
  -20.0498  -14.5638   16.3762 C   0  0  0  0  0  0  0  0  0  0  0  0
  -21.0609  -20.8672   18.2251 C   0  0  0  0  0  0  0  0  0  0  0  0
  -20.8766  -15.5806   16.8909 C   0  0  0  0  0  0  0  0  0  0  0  0
  -22.2605  -21.5436   17.9617 C   0  0  0  0  0  0  0  0  0  0  0  0
  -29.0899  -18.4051   20.8176 C   0  0  0  0  0  0  0  0  0  0  0  0
  -28.3060  -18.4297   19.6377 C   0  0  0  0  0  0  0  0  0  0  0  0
  -22.3372   -8.1458   21.4665 C   0  0  0  0  0  0  0  0  0  0  0  0
  -22.6586  -21.7428   20.3516 C   0  0  0  0  0  0  0  0  0  0  0  0
  -21.6747   -5.9979   20.7808 C   0  0  0  0  0  0  0  0  0  0  0  0
  -21.7989   -3.9362   18.9056 C   0  0  0  0  0  0  0  0  0  0  0  0
  -22.8983   -5.3973   20.4847 C   0  0  0  0  0  0  0  0  0  0  0  0
  -24.5941  -11.6422   20.7052 C   0  0  0  0  0  0  0  0  0  0  0  0
  -27.0334  -18.8151   19.9974 C   0  0  0  0  0  0  0  0  0  0  0  0
  -25.2592  -13.7257   20.4782 C   0  0  0  0  0  0  0  0  0  0  0  0
  -22.8973  -13.4928   21.2629 C   0  0  0  0  0  0  0  0  0  0  0  0
  -21.7653  -18.9850   15.7625 C   0  0  0  0  0  0  0  0  0  0  0  0
  -21.9324  -21.8002   14.1597 C   0  0  0  0  0  0  0  0  0  0  0  0
  -22.4104  -25.1773   14.2777 C   0  0  0  0  0  0  0  0  0  0  0  0
  -30.7433  -14.7437   20.6606 C   0  0  0  0  0  0  0  0  0  0  0  0
  -19.9557  -14.2912   14.8959 C   0  0  0  0  0  0  0  0  0  0  0  0
  -20.1757  -20.4178   17.0951 C   0  0  0  0  0  0  0  0  0  0  0  0
  -22.7246  -21.8166   16.5551 C   0  0  0  0  0  0  0  0  0  0  0  0
  -20.4555  -15.4455   14.0310 C   0  0  0  0  0  0  0  0  0  0  0  0
  -29.6028  -12.3585   18.2759 C   0  0  0  0  0  0  0  0  0  0  0  0
  -21.7910  -15.9649   14.5538 C   0  0  0  0  0  0  0  0  0  0  0  0
  -28.1658  -12.0652   18.7104 C   0  0  0  0  0  0  0  0  0  0  0  0
  -30.5212  -12.5796   19.4758 C   0  0  0  0  0  0  0  0  0  0  0  0
  -28.6210  -13.3116   20.8640 C   0  0  0  0  0  0  0  0  0  0  0  0
  -21.6509  -16.5091   15.9806 C   0  0  1  0  0  0  0  0  0  0  0  0
  -20.9302  -20.2339   15.7819 C   0  0  1  0  0  0  0  0  0  0  0  0
  -27.6456  -13.1367   19.6874 C   0  0  2  0  0  0  0  0  0  0  0  0
  -25.8239  -19.0040   19.1687 C   0  0  0  0  0  0  0  0  0  0  0  0
  -28.6608  -19.2987   17.2983 C   0  0  0  0  0  0  0  0  0  0  0  0
  -28.0337  -16.8847   17.6647 C   0  0  0  0  0  0  0  0  0  0  0  0
  -22.5266  -27.2031   12.8013 C   0  0  0  0  0  0  0  0  0  0  0  0
  -24.7219  -20.9697   13.2439 C   0  0  0  0  0  0  0  0  0  0  0  0
  -25.1449  -23.3525   12.6024 C   0  0  0  0  0  0  0  0  0  0  0  0
  -23.3276  -22.0642   11.4798 C   0  0  0  0  0  0  0  0  0  0  0  0
  -24.6204  -20.6649   24.6533 C   0  0  0  0  0  0  0  0  0  0  0  0
  -24.9651  -22.9693   23.7539 C   0  0  0  0  0  0  0  0  0  0  0  0
  -20.1108  -26.4464   15.6415 C   0  0  0  0  0  0  0  0  0  0  0  0
  -30.5191  -18.0490   20.9208 C   0  0  0  0  0  0  0  0  0  0  0  0
  -25.9177  -20.9459   22.5340 C   0  0  0  0  0  0  0  0  0  0  0  0
  -25.8347  -19.4568   22.1732 C   0  0  0  0  0  0  0  0  0  0  0  0
  -30.8109  -16.8947   21.8966 C   0  0  0  0  0  0  0  0  0  0  0  0
  -23.3877  -21.4076   22.5904 C   0  0  0  0  0  0  0  0  0  1  0  0
  -28.7661  -18.1029   18.2722 C   0  0  0  0  0  0  0  0  0  0  0  0
  -23.0217  -22.8065   13.8771 C   0  0  1  0  0  0  0  0  0  0  0  0
  -21.6318  -26.3269   13.6639 C   0  0  2  0  0  0  0  0  0  0  0  0
  -24.0465  -22.2915   12.8274 C   0  0  0  0  0  0  0  0  0  0  0  0
  -24.7230  -21.5015   23.3595 C   0  0  0  0  0  0  0  0  0  0  0  0
  -25.8585  -11.5459   20.2857 N   0  0  0  0  0  0  0  0  0  0  0  0
  -27.0247  -19.0230   21.3519 N   0  0  0  0  0  0  0  0  0  0  0  0
  -26.2355  -12.8293   20.1565 N   0  0  0  0  0  0  0  0  0  0  0  0
  -21.8274  -21.3522   15.4841 N   0  0  0  0  0  0  0  0  0  0  0  0
  -29.9718  -13.6085   20.3619 N   0  0  0  0  0  0  0  0  0  0  0  0
  -25.4698  -15.0571   20.4045 N   0  0  0  0  0  0  0  0  0  0  0  0
  -21.8856  -12.5840   21.6015 N   0  0  0  0  0  0  0  0  0  0  0  0
  -21.0447  -17.8231   15.9632 N   0  0  0  0  0  0  0  0  0  0  0  0
  -22.3467  -24.0427   13.4967 N   0  0  0  0  0  0  0  0  0  0  0  0
  -30.1452  -15.6729   21.5029 N   0  0  0  0  0  0  0  0  0  0  0  0
  -21.0323  -27.1753   14.7324 N   0  3  0  0  0  0  0  0  0  0  0  0
  -22.6614  -14.7235   21.3200 O   0  0  0  0  0  0  0  0  0  0  0  0
  -22.9738  -19.0691   15.5775 O   0  0  0  0  0  0  0  0  0  0  0  0
  -21.1971  -21.4309   13.2407 O   0  0  0  0  0  0  0  0  0  0  0  0
  -23.0177  -25.2770   15.3416 O   0  0  0  0  0  0  0  0  0  0  0  0
  -31.8789  -14.9187   20.2058 O   0  0  0  0  0  0  0  0  0  0  0  0
  -21.6113   -7.0209   21.7120 O   0  0  0  0  0  0  0  0  0  0  0  0
  -23.4398  -22.1657   21.3825 O   0  0  0  0  0  0  0  0  0  1  0  0
  -21.8582   -2.9453   18.0063 F   0  0  0  0  0  0  0  0  0  0  0  0
  -24.0174   -5.8055   21.0986 F   0  0  0  0  0  0  0  0  0  0  0  0
  1  2  1  0  0  0  0
  1  5  2  0  0  0  0
  2  6  2  0  0  0  0
  3  8  2  0  0  0  0
  3 16  1  0  0  0  0
  4  9  1  0  0  0  0
  4 16  2  0  0  0  0
  5 18  1  0  0  0  0
  6 20  1  0  0  0  0
  7 10  2  0  0  0  0
  7 19  1  0  0  0  0
  8 24  1  0  0  0  0
  9 24  2  0  0  0  0
 10 25  1  0  0  0  0
 11 12  2  0  0  0  0
 11 26  1  0  0  0  0
 12 27  1  0  0  0  0
 13 21  1  0  0  0  0
 13 25  2  0  0  0  0
 14 27  2  0  0  0  0
 14 28  1  0  0  0  0
 15 22  2  0  0  0  0
 15 70  1  0  0  0  0
 16 29  1  0  0  0  0
 17 29  1  0  0  0  0
 17 31  2  0  0  0  0
 17 32  1  0  0  0  0
 18 20  2  0  0  0  0
 18 37  1  0  0  0  0
 19 21  2  0  0  0  0
 19 38  1  0  0  0  0
 20 46  1  0  0  0  0
 21 39  1  0  0  0  0
 22 23  1  0  0  0  0
 22 59  1  0  0  0  0
 23 30  2  0  0  0  0
 23 64  1  0  0  0  0
 24 85  1  0  0  0  0
 25 86  1  0  0  0  0
 26 28  2  0  0  0  0
 26 85  1  0  0  0  0
 27 87  1  0  0  0  0
 28 88  1  0  0  0  0
 29 69  2  0  0  0  0
 30 49  1  0  0  0  0
 30 70  1  0  0  0  0
 31 71  1  0  0  0  0
 31 74  1  0  0  0  0
 32 75  1  0  0  0  0
 32 80  2  0  0  0  0
 33 47  1  0  0  0  0
 33 76  1  0  0  0  0
 33 81  2  0  0  0  0
 34 65  1  0  0  0  0
 34 72  1  0  0  0  0
 34 82  2  0  0  0  0
 35 66  1  0  0  0  0
 35 77  1  0  0  0  0
 35 83  2  0  0  0  0
 36 73  1  0  0  0  0
 36 78  1  0  0  0  0
 36 84  2  0  0  0  0
 37 40  1  0  0  0  0
 38 47  1  0  0  0  0
 39 72  1  0  0  0  0
 40 42  1  0  0  0  0
 41 43  1  0  0  0  0
 41 44  1  0  0  0  0
 42 46  1  0  0  0  0
 43 48  1  0  0  0  0
 44 73  1  0  0  0  0
 45 48  1  0  0  0  0
 45 73  1  0  0  0  0
 46 76  1  0  0  0  0
 47 72  1  0  0  0  0
 48 71  1  0  0  0  0
 50 64  1  0  0  0  0
 51 64  1  0  0  0  0
 52 66  1  0  0  0  0
 53 67  1  0  0  0  0
 54 67  1  0  0  0  0
 55 67  1  0  0  0  0
 56 68  1  0  0  0  0
 57 68  1  0  0  0  0
 58 79  1  0  0  0  0
 59 62  1  0  0  0  0
 60 61  1  0  0  0  0
 60 68  1  0  0  0  0
 61 70  1  0  0  0  0
 62 78  1  0  0  0  0
 63 68  1  0  0  0  0
 63 86  1  0  0  0  0
 65 67  1  0  0  0  0
 65 77  1  0  0  0  0
 66 79  1  0  0  0  0
 69 71  1  0  0  0  0
M  CHG  1  79   1
M  ISO  4  36 100  63 101  78 100  86 101
M  END
> <Batch ID>
0096

> <Smiles>
CNC(C)C(=O)NC(C(=O)N1Cc2cc([101O:1][101CH2:1]C(C)(C)CCn3cc(CC[100NH:0][100C:0](=O)N4CCCC(n5nc(-c6ccc(Oc7ccc(F)cc7F)cc6)c(C(N)=O)c5N)C4)c(C(C)C)c3C)ccc2CC1C(=O)NC1CCCc2ccccc21)C(C)(C)C

> <Shape>
0.177

> <Color>
0.191

> <Negative vol penalty>
0.000

$$$$

  -OEChem-04052319243D

 86 94  0     1  0  0  0  0  0999 V2000
  -32.2255  -28.0621   17.8596 C   0  0  0  0  0  0  0  0  0  0  0  0
  -31.2806  -27.0902   18.1726 C   0  0  0  0  0  0  0  0  0  0  0  0
  -30.1654  -18.2305   21.3965 C   0  0  0  0  0  0  0  0  0  0  0  0
  -28.3512  -17.6780   19.8997 C   0  0  0  0  0  0  0  0  0  0  0  0
  -32.2404  -29.2687   18.5580 C   0  0  0  0  0  0  0  0  0  0  0  0
  -30.3506  -27.3241   19.1850 C   0  0  0  0  0  0  0  0  0  0  0  0
  -25.6575  -25.9520   17.8667 C   0  0  0  0  0  0  0  0  0  0  0  0
  -30.8341  -17.0673   21.0155 C   0  0  0  0  0  0  0  0  0  0  0  0
  -29.0199  -16.5147   19.5186 C   0  0  0  0  0  0  0  0  0  0  0  0
  -25.3551  -24.5918   17.9130 C   0  0  0  0  0  0  0  0  0  0  0  0
  -29.5319  -13.4137   20.7646 C   0  0  0  0  0  0  0  0  0  0  0  0
  -28.7904  -12.2345   20.6908 C   0  0  0  0  0  0  0  0  0  0  0  0
  -24.2659  -24.9126   20.0413 C   0  0  0  0  0  0  0  0  0  0  0  0
  -19.6203  -18.4697   21.5519 C   0  0  0  0  0  0  0  0  0  0  0  0
  -29.3399  -12.0356   18.3466 C   0  0  0  0  0  0  0  0  0  0  0  0
  -20.7812  -20.1915   20.6817 C   0  0  0  0  0  0  0  0  0  0  0  0
  -28.9239  -18.5359   20.8386 C   0  0  0  0  0  0  0  0  0  0  0  0
  -28.3340  -21.0097   20.6389 C   0  0  0  0  0  0  0  0  0  0  0  0
  -31.3040  -29.5213   19.5729 C   0  0  0  0  0  0  0  0  0  0  0  0
  -25.2753  -26.8022   18.9143 C   0  0  0  0  0  0  0  0  0  0  0  0
  -30.3538  -28.5347   19.8985 C   0  0  0  0  0  0  0  0  0  0  0  0
  -24.5624  -26.2837   20.0047 C   0  0  0  0  0  0  0  0  0  0  0  0
  -20.3889  -19.6165   21.8702 C   0  0  0  0  0  0  0  0  0  0  0  0
  -30.2614  -16.2093   20.0765 C   0  0  0  0  0  0  0  0  0  0  0  0
  -24.6618  -24.0714   19.0018 C   0  0  0  0  0  0  0  0  0  0  0  0
  -30.1773  -13.9039   19.6293 C   0  0  0  0  0  0  0  0  0  0  0  0
  -28.6944  -11.5455   19.4819 C   0  0  0  0  0  0  0  0  0  0  0  0
  -30.0813  -13.2148   18.4203 C   0  0  0  0  0  0  0  0  0  0  0  0
  -28.2324  -19.7371   21.2322 C   0  0  0  0  0  0  0  0  0  0  0  0
  -19.5665  -18.3788   20.1785 C   0  0  0  0  0  0  0  0  0  0  0  0
  -27.4852  -21.8003   21.3745 C   0  0  0  0  0  0  0  0  0  0  0  0
  -29.1249  -21.4388   19.5227 C   0  0  0  0  0  0  0  0  0  0  0  0
  -26.8284  -28.6292   21.0009 C   0  0  0  0  0  0  0  0  0  0  0  0
  -23.8331  -29.5756   21.8102 C   0  0  0  0  0  0  0  0  0  0  0  0
  -20.4942  -28.8738   21.8858 C   0  0  0  0  0  0  0  0  0  0  0  0
  -22.6478  -20.6023   24.6935 C   0  0  0  0  0  0  0  0  0  0  0  0
  -31.3894  -30.8217   20.3321 C   0  0  0  0  0  0  0  0  0  0  0  0
  -25.5857  -28.2719   18.8366 C   0  0  0  0  0  0  0  0  0  0  0  0
  -24.1117  -27.1578   21.1454 C   0  0  0  0  0  0  0  0  0  0  0  0
  -30.1321  -31.1409   21.1368 C   0  0  0  0  0  0  0  0  0  0  0  0
  -25.6287  -22.2291   25.7632 C   0  0  0  0  0  0  0  0  0  0  0  0
  -29.6726  -29.9141   21.9182 C   0  0  0  0  0  0  0  0  0  0  0  0
  -26.6432  -21.8897   24.6697 C   0  0  0  0  0  0  0  0  0  0  0  0
  -24.6794  -21.0639   26.0336 C   0  0  0  0  0  0  0  0  0  0  0  0
  -25.0017  -20.2002   23.7480 C   0  0  0  0  0  0  0  0  0  0  0  0
  -29.3129  -28.7611   20.9733 C   0  0  1  0  0  0  0  0  0  0  0  0
  -25.5979  -28.9530   20.2016 C   0  0  1  0  0  0  0  0  0  0  0  0
  -25.9453  -21.3644   23.4008 C   0  0  2  0  0  0  0  0  0  0  0  0
  -17.3642  -17.3558   19.5028 C   0  0  0  0  0  0  0  0  0  0  0  0
  -19.4566  -15.9498   19.5136 C   0  0  0  0  0  0  0  0  0  0  0  0
  -18.2983  -29.8235   22.6431 C   0  0  0  0  0  0  0  0  0  0  0  0
  -24.5218  -28.8607   24.6954 C   0  0  0  0  0  0  0  0  0  0  0  0
  -22.0743  -28.9153   25.2197 C   0  0  0  0  0  0  0  0  0  0  0  0
  -23.2247  -30.9821   24.4274 C   0  0  0  0  0  0  0  0  0  0  0  0
  -19.4230  -28.9026   19.1270 C   0  0  0  0  0  0  0  0  0  0  0  0
  -20.7101  -20.1059   23.2244 C   0  0  0  0  0  0  0  0  0  0  0  0
  -21.5016  -18.8005   17.5663 C   0  0  0  0  0  0  0  0  0  0  0  0
  -20.4727  -19.7125   18.2430 C   0  0  0  0  0  0  0  0  0  0  0  0
  -22.9134  -18.8706   18.1381 C   0  0  0  0  0  0  0  0  0  0  0  0
  -24.8130  -20.4229   18.6078 C   0  0  0  0  0  0  0  0  0  0  0  0
  -25.2699  -21.8530   18.3977 C   0  0  0  0  0  0  0  0  0  1  0  0
  -18.8990  -17.3785   19.3201 C   0  0  0  0  0  0  0  0  0  0  0  0
  -22.7914  -29.1012   22.7944 C   0  0  1  0  0  0  0  0  0  0  0  0
  -19.2824  -29.6982   21.4905 C   0  0  2  0  0  0  0  0  0  0  0  0
  -23.1631  -29.4477   24.2638 C   0  0  0  0  0  0  0  0  0  0  0  0
  -27.3859  -19.7159   22.2652 N   0  0  0  0  0  0  0  0  0  0  0  0
  -20.2759  -19.4305   19.6600 N   0  0  0  0  0  0  0  0  0  0  0  0
  -26.9480  -20.9850   22.3268 N   0  0  0  0  0  0  0  0  0  0  0  0
  -24.4446  -28.5869   21.0263 N   0  0  0  0  0  0  0  0  0  0  0  0
  -24.0491  -20.6142   24.7900 N   0  0  0  0  0  0  0  0  0  0  0  0
  -27.1535  -23.1063   21.2932 N   0  0  0  0  0  0  0  0  0  0  0  0
  -29.9417  -20.4976   18.8814 N   0  0  0  0  0  0  0  0  0  0  0  0
  -28.0115  -28.9813   20.3798 N   0  0  0  0  0  0  0  0  0  0  0  0
  -21.5222  -29.6669   22.3498 N   0  0  0  0  0  0  0  0  0  0  0  0
  -22.1323  -20.1681   23.4784 N   0  0  0  0  0  0  0  0  0  0  0  0
  -18.5791  -29.0660   20.3387 N   0  3  0  0  0  0  0  0  0  0  0  0
  -23.4608  -20.2491   18.0200 N   0  3  0  0  0  0  0  0  0  0  0  0
  -29.1202  -22.6257   19.1165 O   0  0  0  0  0  0  0  0  0  0  0  0
  -26.7129  -28.1004   22.1003 O   0  0  0  0  0  0  0  0  0  0  0  0
  -24.0896  -30.7798   21.7345 O   0  0  0  0  0  0  0  0  0  0  0  0
  -20.5243  -27.6484   21.7957 O   0  0  0  0  0  0  0  0  0  0  0  0
  -21.9109  -20.9578   25.6195 O   0  0  0  0  0  0  0  0  0  0  0  0
  -30.9137  -15.0742   19.7043 O   0  0  0  0  0  0  0  0  0  0  0  0
  -24.3659  -22.7440   19.0498 O   0  0  0  0  0  0  0  0  0  1  0  0
  -27.9836  -10.4124   19.4116 F   0  0  0  0  0  0  0  0  0  0  0  0
  -30.7002  -13.6802   17.3266 F   0  0  0  0  0  0  0  0  0  0  0  0
  1  2  1  0  0  0  0
  1  5  2  0  0  0  0
  2  6  2  0  0  0  0
  3  8  2  0  0  0  0
  3 17  1  0  0  0  0
  4  9  1  0  0  0  0
  4 17  2  0  0  0  0
  5 19  1  0  0  0  0
  6 21  1  0  0  0  0
  7 10  2  0  0  0  0
  7 20  1  0  0  0  0
  8 24  1  0  0  0  0
  9 24  2  0  0  0  0
 10 25  1  0  0  0  0
 11 12  2  0  0  0  0
 11 26  1  0  0  0  0
 12 27  1  0  0  0  0
 13 22  1  0  0  0  0
 13 25  2  0  0  0  0
 14 23  1  0  0  0  0
 14 30  2  0  0  0  0
 15 27  2  0  0  0  0
 15 28  1  0  0  0  0
 16 23  2  0  0  0  0
 16 67  1  0  0  0  0
 17 29  1  0  0  0  0
 18 29  1  0  0  0  0
 18 31  2  0  0  0  0
 18 32  1  0  0  0  0
 19 21  2  0  0  0  0
 19 37  1  0  0  0  0
 20 22  2  0  0  0  0
 20 38  1  0  0  0  0
 21 46  1  0  0  0  0
 22 39  1  0  0  0  0
 23 56  1  0  0  0  0
 24 83  1  0  0  0  0
 25 84  1  0  0  0  0
 26 28  2  0  0  0  0
 26 83  1  0  0  0  0
 27 85  1  0  0  0  0
 28 86  1  0  0  0  0
 29 66  2  0  0  0  0
 30 62  1  0  0  0  0
 30 67  1  0  0  0  0
 31 68  1  0  0  0  0
 31 71  1  0  0  0  0
 32 72  1  0  0  0  0
 32 78  2  0  0  0  0
 33 47  1  0  0  0  0
 33 73  1  0  0  0  0
 33 79  2  0  0  0  0
 34 63  1  0  0  0  0
 34 69  1  0  0  0  0
 34 80  2  0  0  0  0
 35 64  1  0  0  0  0
 35 74  1  0  0  0  0
 35 81  2  0  0  0  0
 36 70  1  0  0  0  0
 36 75  1  0  0  0  0
 36 82  2  0  0  0  0
 37 40  1  0  0  0  0
 38 47  1  0  0  0  0
 39 69  1  0  0  0  0
 40 42  1  0  0  0  0
 41 43  1  0  0  0  0
 41 44  1  0  0  0  0
 42 46  1  0  0  0  0
 43 48  1  0  0  0  0
 44 70  1  0  0  0  0
 45 48  1  0  0  0  0
 45 70  1  0  0  0  0
 46 73  1  0  0  0  0
 47 69  1  0  0  0  0
 48 68  1  0  0  0  0
 49 62  1  0  0  0  0
 50 62  1  0  0  0  0
 51 64  1  0  0  0  0
 52 65  1  0  0  0  0
 53 65  1  0  0  0  0
 54 65  1  0  0  0  0
 55 76  1  0  0  0  0
 56 75  1  0  0  0  0
 57 58  1  0  0  0  0
 57 59  1  0  0  0  0
 58 67  1  0  0  0  0
 59 77  1  0  0  0  0
 60 61  1  0  0  0  0
 60 77  1  0  0  0  0
 61 84  1  0  0  0  0
 63 65  1  0  0  0  0
 63 74  1  0  0  0  0
 64 76  1  0  0  0  0
 66 68  1  0  0  0  0
M  CHG  2  76   1  77   1
M  ISO  4  36 100  61 101  75 100  84 101
M  END
> <Batch ID>
0096

> <Smiles>
CNC(C)C(=O)NC(C(=O)N1Cc2cc([101O:1][101CH2:1]CNCCCn3cc(C[100NH:0][100C:0](=O)N4CCCC(n5nc(-c6ccc(Oc7ccc(F)cc7F)cc6)c(C(N)=O)c5N)C4)cc3C(C)C)ccc2CC1C(=O)NC1CCCc2ccccc21)C(C)(C)C

> <Shape>
0.206

> <Color>
0.058

> <Negative vol penalty>
0.000

$$$$

  -OEChem-04052319243D

 88 96  0     1  0  0  0  0  0999 V2000
  -29.3037  -34.8713   17.0517 C   0  0  0  0  0  0  0  0  0  0  0  0
  -29.3985  -33.5711   17.5376 C   0  0  0  0  0  0  0  0  0  0  0  0
  -24.5513   -9.4415   21.6654 C   0  0  0  0  0  0  0  0  0  0  0  0
  -24.3615  -10.9092   23.5751 C   0  0  0  0  0  0  0  0  0  0  0  0
  -28.7398  -35.8708   17.8434 C   0  0  0  0  0  0  0  0  0  0  0  0
  -28.9304  -33.2701   18.8162 C   0  0  0  0  0  0  0  0  0  0  0  0
  -26.2152  -28.9971   18.9346 C   0  0  0  0  0  0  0  0  0  0  0  0
  -24.2378   -8.3490   22.4739 C   0  0  0  0  0  0  0  0  0  0  0  0
  -24.0479   -9.8167   24.3836 C   0  0  0  0  0  0  0  0  0  0  0  0
  -26.9199  -27.7942   18.9172 C   0  0  0  0  0  0  0  0  0  0  0  0
  -23.1335   -5.2218   23.9627 C   0  0  0  0  0  0  0  0  0  0  0  0
  -22.2094   -4.2979   23.4747 C   0  0  0  0  0  0  0  0  0  0  0  0
  -26.6392  -27.6021   21.3054 C   0  0  0  0  0  0  0  0  0  0  0  0
  -28.6361  -20.2161   19.3924 C   0  0  0  0  0  0  0  0  0  0  0  0
  -20.5404   -6.0395   23.3380 C   0  0  0  0  0  0  0  0  0  0  0  0
  -24.6132  -10.7216   22.2160 C   0  0  0  0  0  0  0  0  0  0  0  0
  -24.0392  -12.6650   20.6664 C   0  0  0  0  0  0  0  0  0  0  0  0
  -28.2558  -35.5798   19.1286 C   0  0  0  0  0  0  0  0  0  0  0  0
  -25.7258  -29.5179   20.1412 C   0  0  0  0  0  0  0  0  0  0  0  0
  -28.3607  -34.2669   19.6264 C   0  0  0  0  0  0  0  0  0  0  0  0
  -25.9264  -28.8105   21.3351 C   0  0  0  0  0  0  0  0  0  0  0  0
  -27.9470  -21.4413   19.2159 C   0  0  0  0  0  0  0  0  0  0  0  0
  -23.9861   -8.5366   23.8330 C   0  0  0  0  0  0  0  0  0  0  0  0
  -27.1345  -27.0980   20.1031 C   0  0  0  0  0  0  0  0  0  0  0  0
  -22.7610   -6.5546   24.1384 C   0  0  0  0  0  0  0  0  0  0  0  0
  -20.9129   -4.7068   23.1624 C   0  0  0  0  0  0  0  0  0  0  0  0
  -21.4645   -6.9634   23.8260 C   0  0  0  0  0  0  0  0  0  0  0  0
  -24.9376  -11.8505   21.3814 C   0  0  0  0  0  0  0  0  0  0  0  0
  -26.6263  -21.2207   19.5388 C   0  0  0  0  0  0  0  0  0  0  0  0
  -27.7153  -19.2840   19.8176 C   0  0  0  0  0  0  0  0  0  0  0  0
  -24.8386  -13.5881   20.0375 C   0  0  0  0  0  0  0  0  0  0  0  0
  -22.6099  -12.5937   20.5785 C   0  0  0  0  0  0  0  0  0  0  0  0
  -26.2421  -32.1722   21.8119 C   0  0  0  0  0  0  0  0  0  0  0  0
  -23.8311  -31.0191   23.6503 C   0  0  0  0  0  0  0  0  0  0  0  0
  -22.0394  -28.3181   24.7185 C   0  0  0  0  0  0  0  0  0  0  0  0
  -29.0867  -17.1874   20.0822 C   0  0  0  0  0  0  0  0  0  0  0  0
  -27.6975  -36.7033   19.9656 C   0  0  0  0  0  0  0  0  0  0  0  0
  -24.9445  -30.8031   20.1393 C   0  0  0  0  0  0  0  0  0  0  0  0
  -25.4040  -29.3166   22.6540 C   0  0  0  0  0  0  0  0  0  0  0  0
  -26.8841  -36.2233   21.1649 C   0  0  0  0  0  0  0  0  0  0  0  0
  -29.8682  -13.7638   19.4946 C   0  0  0  0  0  0  0  0  0  0  0  0
  -27.6264  -35.1146   21.9041 C   0  0  0  0  0  0  0  0  0  0  0  0
  -28.5812  -13.0278   19.8743 C   0  0  0  0  0  0  0  0  0  0  0  0
  -30.1310  -14.9568   20.4119 C   0  0  0  0  0  0  0  0  0  0  0  0
  -27.7283  -15.1678   20.9137 C   0  0  0  0  0  0  0  0  0  0  0  0
  -27.8416  -33.8959   20.9986 C   0  0  1  0  0  0  0  0  0  0  0  0
  -24.9362  -31.4993   21.4968 C   0  0  1  0  0  0  0  0  0  0  0  0
  -27.3872  -13.9970   19.9773 C   0  0  2  0  0  0  0  0  0  0  0  0
  -20.1552  -27.6847   26.2501 C   0  0  0  0  0  0  0  0  0  0  0  0
  -23.6212  -24.0082   22.4458 C   0  0  0  0  0  0  0  0  0  0  0  0
  -24.1869  -24.8728   20.1670 C   0  0  0  0  0  0  0  0  0  0  0  0
  -25.6856  -31.3244   26.0540 C   0  0  0  0  0  0  0  0  0  0  0  0
  -24.1457  -29.8299   27.3437 C   0  0  0  0  0  0  0  0  0  0  0  0
  -23.3178  -32.0144   26.4689 C   0  0  0  0  0  0  0  0  0  0  0  0
  -30.9940  -24.6759   18.4306 C   0  0  0  0  0  0  0  0  0  0  0  0
  -30.6140  -25.4448   20.7868 C   0  0  0  0  0  0  0  0  0  0  0  0
  -25.2608  -19.2732   20.3143 C   0  0  0  0  0  0  0  0  0  0  0  0
  -20.4162  -27.2690   22.4771 C   0  0  0  0  0  0  0  0  0  0  0  0
  -28.5561  -22.7450   18.7588 C   0  0  0  0  0  0  0  0  0  0  0  0
  -25.4760  -22.1500   19.5318 C   0  0  0  0  0  0  0  0  0  0  0  0
  -29.3278  -23.4302   19.8952 C   0  0  0  0  0  0  0  0  0  0  0  0
  -25.0877  -22.6186   20.9518 C   0  0  0  0  0  0  0  0  0  0  0  0
  -28.8200  -25.7679   19.0806 C   0  0  0  0  0  0  0  0  0  1  0  0
  -23.7445  -30.1148   24.8559 C   0  0  1  0  0  0  0  0  0  0  0  0
  -20.5442  -28.0833   24.8349 C   0  0  2  0  0  0  0  0  0  0  0  0
  -23.9154  -23.6164   20.9955 C   0  0  0  0  0  0  0  0  0  0  0  0
  -24.2350  -30.8120   26.1562 C   0  0  0  0  0  0  0  0  0  0  0  0
  -29.9467  -24.8153   19.5511 C   0  0  0  0  0  0  0  0  0  0  0  0
  -26.2103  -12.2232   21.2222 N   0  0  0  0  0  0  0  0  0  0  0  0
  -26.4970  -19.9058   19.9028 N   0  0  0  0  0  0  0  0  0  0  0  0
  -26.1174  -13.2820   20.3997 N   0  0  0  0  0  0  0  0  0  0  0  0
  -24.6516  -30.5809   22.6012 N   0  0  0  0  0  0  0  0  0  0  0  0
  -28.9585  -15.8332   20.4569 N   0  0  0  0  0  0  0  0  0  0  0  0
  -24.5654  -14.6234   19.2154 N   0  0  0  0  0  0  0  0  0  0  0  0
  -21.9465  -11.5835   21.2881 N   0  0  0  0  0  0  0  0  0  0  0  0
  -27.8981  -17.9149   20.1337 N   0  0  0  0  0  0  0  0  0  0  0  0
  -26.6206  -33.1269   20.8874 N   0  0  0  0  0  0  0  0  0  0  0  0
  -22.3651  -29.6435   24.9145 N   0  0  0  0  0  0  0  0  0  0  0  0
  -20.1163  -26.9987   23.9068 N   0  3  0  0  0  0  0  0  0  0  0  0
  -21.9423  -13.3919   19.8780 O   0  0  0  0  0  0  0  0  0  0  0  0
  -26.8599  -31.8502   22.8201 O   0  0  0  0  0  0  0  0  0  0  0  0
  -23.1886  -32.0721   23.6368 O   0  0  0  0  0  0  0  0  0  0  0  0
  -22.8390  -27.4153   24.4812 O   0  0  0  0  0  0  0  0  0  0  0  0
  -30.1655  -17.6597   19.7148 O   0  0  0  0  0  0  0  0  0  0  0  0
  -23.6798   -7.4707   24.6222 O   0  0  0  0  0  0  0  0  0  0  0  0
  -27.8225  -25.9240   20.0890 O   0  0  0  0  0  0  0  0  0  1  0  0
  -20.0260   -3.8198   22.6923 F   0  0  0  0  0  0  0  0  0  0  0  0
  -21.1013   -8.2426   23.9915 F   0  0  0  0  0  0  0  0  0  0  0  0
  1  2  1  0  0  0  0
  1  5  2  0  0  0  0
  2  6  2  0  0  0  0
  3  8  2  0  0  0  0
  3 16  1  0  0  0  0
  4  9  1  0  0  0  0
  4 16  2  0  0  0  0
  5 18  1  0  0  0  0
  6 20  1  0  0  0  0
  7 10  2  0  0  0  0
  7 19  1  0  0  0  0
  8 23  1  0  0  0  0
  9 23  2  0  0  0  0
 10 24  1  0  0  0  0
 11 12  2  0  0  0  0
 11 25  1  0  0  0  0
 12 26  1  0  0  0  0
 13 21  1  0  0  0  0
 13 24  2  0  0  0  0
 14 22  1  0  0  0  0
 14 30  2  0  0  0  0
 15 26  2  0  0  0  0
 15 27  1  0  0  0  0
 16 28  1  0  0  0  0
 17 28  1  0  0  0  0
 17 31  2  0  0  0  0
 17 32  1  0  0  0  0
 18 20  2  0  0  0  0
 18 37  1  0  0  0  0
 19 21  2  0  0  0  0
 19 38  1  0  0  0  0
 20 46  1  0  0  0  0
 21 39  1  0  0  0  0
 22 29  2  0  0  0  0
 22 59  1  0  0  0  0
 23 85  1  0  0  0  0
 24 86  1  0  0  0  0
 25 27  2  0  0  0  0
 25 85  1  0  0  0  0
 26 87  1  0  0  0  0
 27 88  1  0  0  0  0
 28 69  2  0  0  0  0
 29 60  1  0  0  0  0
 29 70  1  0  0  0  0
 30 70  1  0  0  0  0
 30 76  1  0  0  0  0
 31 71  1  0  0  0  0
 31 74  1  0  0  0  0
 32 75  1  0  0  0  0
 32 80  2  0  0  0  0
 33 47  1  0  0  0  0
 33 77  1  0  0  0  0
 33 81  2  0  0  0  0
 34 64  1  0  0  0  0
 34 72  1  0  0  0  0
 34 82  2  0  0  0  0
 35 65  1  0  0  0  0
 35 78  1  0  0  0  0
 35 83  2  0  0  0  0
 36 73  1  0  0  0  0
 36 76  1  0  0  0  0
 36 84  2  0  0  0  0
 37 40  1  0  0  0  0
 38 47  1  0  0  0  0
 39 72  1  0  0  0  0
 40 42  1  0  0  0  0
 41 43  1  0  0  0  0
 41 44  1  0  0  0  0
 42 46  1  0  0  0  0
 43 48  1  0  0  0  0
 44 73  1  0  0  0  0
 45 48  1  0  0  0  0
 45 73  1  0  0  0  0
 46 77  1  0  0  0  0
 47 72  1  0  0  0  0
 48 71  1  0  0  0  0
 49 65  1  0  0  0  0
 50 66  1  0  0  0  0
 51 66  1  0  0  0  0
 52 67  1  0  0  0  0
 53 67  1  0  0  0  0
 54 67  1  0  0  0  0
 55 68  1  0  0  0  0
 56 68  1  0  0  0  0
 57 70  1  0  0  0  0
 58 79  1  0  0  0  0
 59 61  1  0  0  0  0
 60 62  1  0  0  0  0
 61 68  1  0  0  0  0
 62 66  1  0  0  0  0
 63 68  1  0  0  0  0
 63 86  1  0  0  0  0
 64 67  1  0  0  0  0
 64 78  1  0  0  0  0
 65 79  1  0  0  0  0
 69 71  1  0  0  0  0
M  CHG  1  79   1
M  ISO  4  36 100  63 101  76 100  86 101
M  END
> <Batch ID>
0096

> <Smiles>
CNC(C)C(=O)NC(C(=O)N1Cc2cc([101O:1][101CH2:1]C(C)(C)CCc3cc([100NH:0][100C:0](=O)N4CCCC(n5nc(-c6ccc(Oc7ccc(F)cc7F)cc6)c(C(N)=O)c5N)C4)n(C)c3CCC(C)C)ccc2CC1C(=O)NC1CCCc2ccccc21)C(C)(C)C

> <Shape>
0.296

> <Color>
0.129

> <Negative vol penalty>
0.000

$$$$

  -OEChem-04052319243D

 87 95  0     1  0  0  0  0  0999 V2000
  -24.7219  -21.0150   16.7830 C   0  0  0  0  0  0  0  0  0  0  0  0
  -23.9405  -22.1300   17.0687 C   0  0  0  0  0  0  0  0  0  0  0  0
  -26.0146  -13.6904   20.2867 C   0  0  0  0  0  0  0  0  0  0  0  0
  -24.1328  -13.4327   21.7798 C   0  0  0  0  0  0  0  0  0  0  0  0
  -25.8352  -20.7251   17.5706 C   0  0  0  0  0  0  0  0  0  0  0  0
  -24.2714  -22.9551   18.1430 C   0  0  0  0  0  0  0  0  0  0  0  0
  -23.5660  -29.0296   18.4733 C   0  0  0  0  0  0  0  0  0  0  0  0
  -26.1754  -12.3053   20.2502 C   0  0  0  0  0  0  0  0  0  0  0  0
  -24.2935  -12.0476   21.7433 C   0  0  0  0  0  0  0  0  0  0  0  0
  -22.5826  -29.8295   19.0536 C   0  0  0  0  0  0  0  0  0  0  0  0
  -23.5455   -9.5094   19.6413 C   0  0  0  0  0  0  0  0  0  0  0  0
  -22.4007   -8.7297   19.4768 C   0  0  0  0  0  0  0  0  0  0  0  0
  -23.9468  -30.0631   21.0293 C   0  0  0  0  0  0  0  0  0  0  0  0
  -18.1317  -27.0752   22.7204 C   0  0  0  0  0  0  0  0  0  0  0  0
  -20.7129  -28.1335   22.6991 C   0  0  0  0  0  0  0  0  0  0  0  0
  -22.8354   -7.6453   21.5916 C   0  0  0  0  0  0  0  0  0  0  0  0
  -24.9933  -14.2541   21.0515 C   0  0  0  0  0  0  0  0  0  0  0  0
  -24.0374  -16.4723   20.2310 C   0  0  0  0  0  0  0  0  0  0  0  0
  -26.1855  -21.5525   18.6492 C   0  0  0  0  0  0  0  0  0  0  0  0
  -24.7445  -28.7310   19.1722 C   0  0  0  0  0  0  0  0  0  0  0  0
  -25.3897  -22.6752   18.9466 C   0  0  0  0  0  0  0  0  0  0  0  0
  -24.9448  -29.2613   20.4547 C   0  0  0  0  0  0  0  0  0  0  0  0
  -18.3222  -28.4516   22.8423 C   0  0  0  0  0  0  0  0  0  0  0  0
  -19.2319  -26.2279   22.5879 C   0  0  0  0  0  0  0  0  0  0  0  0
  -19.6127  -28.9808   22.8316 C   0  0  0  0  0  0  0  0  0  0  0  0
  -20.5224  -26.7571   22.5772 C   0  0  0  0  0  0  0  0  0  0  0  0
  -25.3148  -11.4839   20.9785 C   0  0  0  0  0  0  0  0  0  0  0  0
  -22.7716  -30.3440   20.3329 C   0  0  0  0  0  0  0  0  0  0  0  0
  -24.3354   -9.3570   20.7808 C   0  0  0  0  0  0  0  0  0  0  0  0
  -22.0456   -7.7977   20.4520 C   0  0  0  0  0  0  0  0  0  0  0  0
  -23.9803   -8.4250   21.7560 C   0  0  0  0  0  0  0  0  0  0  0  0
  -24.8271  -15.6848   21.0901 C   0  0  0  0  0  0  0  0  0  0  0  0
  -24.2173  -17.7575   20.6810 C   0  0  0  0  0  0  0  0  0  0  0  0
  -23.2146  -16.0774   19.1252 C   0  0  0  0  0  0  0  0  0  0  0  0
  -26.1076  -26.0632   20.2346 C   0  0  0  0  0  0  0  0  0  0  0  0
  -28.5392  -28.0711   20.9950 C   0  0  0  0  0  0  0  0  0  0  0  0
  -29.5531  -31.2463   21.7278 C   0  0  0  0  0  0  0  0  0  0  0  0
  -24.5733  -21.4485   24.8517 C   0  0  0  0  0  0  0  0  0  0  0  0
  -27.3706  -21.1720   19.5010 C   0  0  0  0  0  0  0  0  0  0  0  0
  -25.8074  -27.8886   18.5217 C   0  0  0  0  0  0  0  0  0  0  0  0
  -26.2011  -28.9871   21.2389 C   0  0  0  0  0  0  0  0  0  0  0  0
  -27.8695  -22.3066   20.3922 C   0  0  0  0  0  0  0  0  0  0  0  0
  -27.5265  -19.6481   24.0069 C   0  0  0  0  0  0  0  0  0  0  0  0
  -26.6998  -22.9837   21.0994 C   0  0  0  0  0  0  0  0  0  0  0  0
  -27.0215  -18.5185   23.1075 C   0  0  0  0  0  0  0  0  0  0  0  0
  -26.5368  -19.9635   25.1263 C   0  0  0  0  0  0  0  0  0  0  0  0
  -24.6566  -19.1178   23.7759 C   0  0  0  0  0  0  0  0  0  0  0  0
  -25.7306  -23.6082   20.0884 C   0  0  1  0  0  0  0  0  0  0  0  0
  -26.7438  -27.2265   19.5277 C   0  0  1  0  0  0  0  0  0  0  0  0
  -25.5952  -18.8017   22.5989 C   0  0  2  0  0  0  0  0  0  0  0  0
  -17.1292  -29.3391   22.9824 C   0  0  0  0  0  0  0  0  0  0  0  0
  -19.0035  -24.7576   22.4597 C   0  0  0  0  0  0  0  0  0  0  0  0
  -31.5947  -32.5698   22.3422 C   0  0  0  0  0  0  0  0  0  0  0  0
  -28.4001  -26.9628   23.8344 C   0  0  0  0  0  0  0  0  0  0  0  0
  -29.7478  -28.9313   24.5942 C   0  0  0  0  0  0  0  0  0  0  0  0
  -30.7182  -27.3122   22.9633 C   0  0  0  0  0  0  0  0  0  0  0  0
  -29.3331  -32.9302   19.3039 C   0  0  0  0  0  0  0  0  0  0  0  0
  -22.7095  -25.9693   24.7182 C   0  0  0  0  0  0  0  0  0  0  0  0
  -19.8432  -30.4652   22.9613 C   0  0  0  0  0  0  0  0  0  0  0  0
  -21.7154  -25.8696   22.4373 C   0  0  0  0  0  0  0  0  0  0  0  0
  -19.5470  -31.2487   21.6807 C   0  0  0  0  0  0  0  0  0  0  0  0
  -22.5433  -22.8255   24.4742 C   0  0  0  0  0  0  0  0  0  0  0  0
  -22.8256  -23.8594   23.4002 C   0  0  0  0  0  0  0  0  0  0  0  0
  -20.4609  -30.8753   20.5193 C   0  0  0  0  0  0  0  0  0  1  0  0
  -28.9033  -28.8998   22.2032 C   0  0  1  0  0  0  0  0  0  0  0  0
  -30.7099  -32.0798   21.2066 C   0  0  2  0  0  0  0  0  0  0  0  0
  -29.4177  -28.0303   23.3850 C   0  0  0  0  0  0  0  0  0  0  0  0
  -25.4616  -16.4091   22.0157 N   0  0  0  0  0  0  0  0  0  0  0  0
  -25.0709  -17.6652   21.7407 N   0  0  0  0  0  0  0  0  0  0  0  0
  -27.2080  -28.1529   20.5624 N   0  0  0  0  0  0  0  0  0  0  0  0
  -25.2041  -20.2239   24.5769 N   0  0  0  0  0  0  0  0  0  0  0  0
  -23.7272  -18.9461   20.2695 N   0  0  0  0  0  0  0  0  0  0  0  0
  -23.1427  -14.7164   18.7984 N   0  0  0  0  0  0  0  0  0  0  0  0
  -26.2626  -24.8552   19.5820 N   0  0  0  0  0  0  0  0  0  0  0  0
  -29.8570  -29.9014   21.7388 N   0  0  0  0  0  0  0  0  0  0  0  0
  -23.3148  -21.6169   24.2873 N   0  0  0  0  0  0  0  0  0  0  0  0
  -30.1996  -33.2662   20.4629 N   0  3  0  0  0  0  0  0  0  0  0  0
  -22.0347  -25.1122   23.6779 N   0  3  1  0  0  0  0  0  0  0  0  0
  -22.5755  -16.9087   18.4367 O   0  0  0  0  0  0  0  0  0  0  0  0
  -25.5208  -26.2478   21.2945 O   0  0  0  0  0  0  0  0  0  0  0  0
  -29.4057  -27.3823   20.4507 O   0  0  0  0  0  0  0  0  0  0  0  0
  -28.4880  -31.7393   22.0923 O   0  0  0  0  0  0  0  0  0  0  0  0
  -25.0954  -22.3290   25.5439 O   0  0  0  0  0  0  0  0  0  0  0  0
  -25.4713  -10.1323   20.9430 O   0  0  0  0  0  0  0  0  0  0  0  0
  -21.8129  -31.1245   20.9019 O   0  0  0  0  0  0  0  0  0  1  0  0
  -20.9453   -7.0502   20.2947 F   0  0  0  0  0  0  0  0  0  0  0  0
  -24.7346   -8.2749   22.8534 F   0  0  0  0  0  0  0  0  0  0  0  0
  1  2  1  0  0  0  0
  1  5  2  0  0  0  0
  2  6  2  0  0  0  0
  3  8  2  0  0  0  0
  3 17  1  0  0  0  0
  4  9  1  0  0  0  0
  4 17  2  0  0  0  0
  5 19  1  0  0  0  0
  6 21  1  0  0  0  0
  7 10  2  0  0  0  0
  7 20  1  0  0  0  0
  8 27  1  0  0  0  0
  9 27  2  0  0  0  0
 10 28  1  0  0  0  0
 11 12  2  0  0  0  0
 11 29  1  0  0  0  0
 12 30  1  0  0  0  0
 13 22  1  0  0  0  0
 13 28  2  0  0  0  0
 14 23  1  0  0  0  0
 14 24  2  0  0  0  0
 15 25  1  0  0  0  0
 15 26  2  0  0  0  0
 16 30  2  0  0  0  0
 16 31  1  0  0  0  0
 17 32  1  0  0  0  0
 18 32  1  0  0  0  0
 18 33  2  0  0  0  0
 18 34  1  0  0  0  0
 19 21  2  0  0  0  0
 19 39  1  0  0  0  0
 20 22  2  0  0  0  0
 20 40  1  0  0  0  0
 21 48  1  0  0  0  0
 22 41  1  0  0  0  0
 23 25  2  0  0  0  0
 23 51  1  0  0  0  0
 24 26  1  0  0  0  0
 24 52  1  0  0  0  0
 25 59  1  0  0  0  0
 26 60  1  0  0  0  0
 27 84  1  0  0  0  0
 28 85  1  0  0  0  0
 29 31  2  0  0  0  0
 29 84  1  0  0  0  0
 30 86  1  0  0  0  0
 31 87  1  0  0  0  0
 32 68  2  0  0  0  0
 33 69  1  0  0  0  0
 33 72  1  0  0  0  0
 34 73  1  0  0  0  0
 34 79  2  0  0  0  0
 35 49  1  0  0  0  0
 35 74  1  0  0  0  0
 35 80  2  0  0  0  0
 36 65  1  0  0  0  0
 36 70  1  0  0  0  0
 36 81  2  0  0  0  0
 37 66  1  0  0  0  0
 37 75  1  0  0  0  0
 37 82  2  0  0  0  0
 38 71  1  0  0  0  0
 38 76  1  0  0  0  0
 38 83  2  0  0  0  0
 39 42  1  0  0  0  0
 40 49  1  0  0  0  0
 41 70  1  0  0  0  0
 42 44  1  0  0  0  0
 43 45  1  0  0  0  0
 43 46  1  0  0  0  0
 44 48  1  0  0  0  0
 45 50  1  0  0  0  0
 46 71  1  0  0  0  0
 47 50  1  0  0  0  0
 47 71  1  0  0  0  0
 48 74  1  0  0  0  0
 49 70  1  0  0  0  0
 50 69  1  0  0  0  0
 53 66  1  0  0  0  0
 54 67  1  0  0  0  0
 55 67  1  0  0  0  0
 56 67  1  0  0  0  0
 57 77  1  0  0  0  0
 58 78  1  0  0  0  0
 59 61  1  0  0  0  0
 60 78  1  0  0  0  0
 61 64  1  0  0  0  0
 62 63  1  0  0  0  0
 62 76  1  0  0  0  0
 63 78  1  0  0  0  0
 64 85  1  0  0  0  0
 65 67  1  0  0  0  0
 65 75  1  0  0  0  0
 66 77  1  0  0  0  0
 68 69  1  0  0  0  0
M  CHG  2  77   1  78   1
M  ISO  4  38 100  64 101  76 100  85 101
M  END
> <Batch ID>
0096

> <Smiles>
CNC(C)C(=O)NC(C(=O)N1Cc2cc([101O:1][101CH2:1]CCc3cc(CN(C)CC[100NH:0][100C:0](=O)N4CCCC(n5nc(-c6ccc(Oc7ccc(F)cc7F)cc6)c(C(N)=O)c5N)C4)c(C)cc3C)ccc2CC1C(=O)NC1CCCc2ccccc21)C(C)(C)C

> <Shape>
0.214

> <Color>
0.068

> <Negative vol penalty>
0.000

$$$$

  -OEChem-04052319243D

 89 97  0     1  0  0  0  0  0999 V2000
  -32.3380  -33.1471   13.1614 C   0  0  0  0  0  0  0  0  0  0  0  0
  -32.9253  -32.1214   13.8951 C   0  0  0  0  0  0  0  0  0  0  0  0
  -23.2513   -9.8148   19.9083 C   0  0  0  0  0  0  0  0  0  0  0  0
  -23.8136   -9.9156   22.2558 C   0  0  0  0  0  0  0  0  0  0  0  0
  -30.9508  -33.2059   13.0343 C   0  0  0  0  0  0  0  0  0  0  0  0
  -32.1255  -31.1544   14.5032 C   0  0  0  0  0  0  0  0  0  0  0  0
  -32.1272  -24.2111   16.2660 C   0  0  0  0  0  0  0  0  0  0  0  0
  -22.5442   -8.6329   20.1284 C   0  0  0  0  0  0  0  0  0  0  0  0
  -23.1064   -8.7336   22.4759 C   0  0  0  0  0  0  0  0  0  0  0  0
  -31.9127  -23.3785   17.3635 C   0  0  0  0  0  0  0  0  0  0  0  0
  -19.8801   -7.7924   22.8304 C   0  0  0  0  0  0  0  0  0  0  0  0
  -19.0297   -7.7439   23.9349 C   0  0  0  0  0  0  0  0  0  0  0  0
  -29.5316  -23.5360   17.0099 C   0  0  0  0  0  0  0  0  0  0  0  0
  -27.2844  -19.1343   21.0828 C   0  0  0  0  0  0  0  0  0  0  0  0
  -20.2944   -5.8888   24.8271 C   0  0  0  0  0  0  0  0  0  0  0  0
  -23.8861  -10.4562   20.9720 C   0  0  0  0  0  0  0  0  0  0  0  0
  -24.1175  -12.9914   20.8087 C   0  0  0  0  0  0  0  0  0  0  0  0
  -30.1342  -32.2337   13.6330 C   0  0  0  0  0  0  0  0  0  0  0  0
  -31.0433  -24.7221   15.5376 C   0  0  0  0  0  0  0  0  0  0  0  0
  -30.7260  -31.2010   14.3851 C   0  0  0  0  0  0  0  0  0  0  0  0
  -29.7352  -24.3729   15.9020 C   0  0  0  0  0  0  0  0  0  0  0  0
  -26.9901  -19.0472   22.4659 C   0  0  0  0  0  0  0  0  0  0  0  0
  -22.4717   -8.0922   21.4122 C   0  0  0  0  0  0  0  0  0  0  0  0
  -30.6146  -23.0431   17.7373 C   0  0  0  0  0  0  0  0  0  0  0  0
  -20.9376   -6.8891   22.7241 C   0  0  0  0  0  0  0  0  0  0  0  0
  -19.2368   -6.7921   24.9333 C   0  0  0  0  0  0  0  0  0  0  0  0
  -21.1448   -5.9373   23.7225 C   0  0  0  0  0  0  0  0  0  0  0  0
  -24.6172  -11.6769   20.7452 C   0  0  0  0  0  0  0  0  0  0  0  0
  -28.3998  -18.3604   20.8501 C   0  0  0  0  0  0  0  0  0  0  0  0
  -27.9349  -18.2228   23.0363 C   0  0  0  0  0  0  0  0  0  0  0  0
  -25.1998  -13.7848   20.5163 C   0  0  0  0  0  0  0  0  0  0  0  0
  -22.7932  -13.4540   21.1056 C   0  0  0  0  0  0  0  0  0  0  0  0
  -29.9262  -27.6341   14.9243 C   0  0  0  0  0  0  0  0  0  0  0  0
  -27.8860  -26.0196   12.9871 C   0  0  0  0  0  0  0  0  0  0  0  0
  -26.3015  -23.0890   12.2469 C   0  0  0  0  0  0  0  0  0  0  0  0
  -31.0168  -13.5556   21.6088 C   0  0  0  0  0  0  0  0  0  0  0  0
  -28.6370  -32.3657   13.5074 C   0  0  0  0  0  0  0  0  0  0  0  0
  -31.2925  -25.5975   14.3401 C   0  0  0  0  0  0  0  0  0  0  0  0
  -28.5380  -24.8787   15.1408 C   0  0  0  0  0  0  0  0  0  0  0  0
  -27.8806  -31.0902   13.8695 C   0  0  0  0  0  0  0  0  0  0  0  0
  -29.5304  -13.1009   18.2494 C   0  0  0  0  0  0  0  0  0  0  0  0
  -28.4151  -30.5042   15.1724 C   0  0  0  0  0  0  0  0  0  0  0  0
  -28.0818  -12.7389   18.5724 C   0  0  0  0  0  0  0  0  0  0  0  0
  -30.4826  -12.6790   19.3643 C   0  0  0  0  0  0  0  0  0  0  0  0
  -28.6613  -12.8427   21.0288 C   0  0  0  0  0  0  0  0  0  0  0  0
  -29.8935  -30.1194   15.0387 C   0  0  1  0  0  0  0  0  0  0  0  0
  -30.0973  -26.4757   13.9828 C   0  0  1  0  0  0  0  0  0  0  0  0
  -27.6703  -13.2960   19.9462 C   0  0  2  0  0  0  0  0  0  0  0  0
  -28.0995  -17.7916   24.4409 C   0  0  0  0  0  0  0  0  0  0  0  0
  -24.1661  -17.8317   22.8566 C   0  0  0  0  0  0  0  0  0  0  0  0
  -25.9980  -21.2619   23.0996 C   0  0  0  0  0  0  0  0  0  0  0  0
  -28.2410  -17.3589   18.5568 C   0  0  0  0  0  0  0  0  0  0  0  0
  -24.6663  -22.0880   10.6278 C   0  0  0  0  0  0  0  0  0  0  0  0
  -25.5976  -27.4316   14.4291 C   0  0  0  0  0  0  0  0  0  0  0  0
  -24.0329  -25.7326   13.4630 C   0  0  0  0  0  0  0  0  0  0  0  0
  -25.3138  -27.2480   11.9512 C   0  0  0  0  0  0  0  0  0  0  0  0
  -31.6617  -15.0112   23.4916 C   0  0  0  0  0  0  0  0  0  0  0  0
  -28.2864  -21.1172   11.2820 C   0  0  0  0  0  0  0  0  0  0  0  0
  -24.4558  -19.3139   22.6528 C   0  0  0  0  0  0  0  0  0  0  0  0
  -30.7843  -20.0546   19.7884 C   0  0  0  0  0  0  0  0  0  0  0  0
  -29.7246  -19.3723   18.9112 C   0  0  0  0  0  0  0  0  0  0  0  0
  -29.9216  -16.9317   22.2299 C   0  0  0  0  0  0  0  0  0  0  0  0
  -29.5248  -15.4622   22.3445 C   0  0  0  0  0  0  0  0  0  0  0  0
  -31.4090  -21.2620   19.0985 C   0  0  0  0  0  0  0  0  0  1  0  0
  -25.8737  -19.7191   23.1604 C   0  0  1  0  0  0  0  0  0  0  0  0
  -29.1457  -18.0933   19.5541 C   0  0  1  0  0  0  0  0  0  0  0  0
  -26.5264  -25.3859   13.1570 C   0  0  1  0  0  0  0  0  0  0  0  0
  -26.1339  -22.3369   10.9390 C   0  0  2  0  0  0  0  0  0  0  0  0
  -25.3899  -26.4414   13.2658 C   0  0  0  0  0  0  0  0  0  0  0  0
  -25.9160  -11.6334   20.4366 N   0  0  0  0  0  0  0  0  0  0  0  0
  -28.7867  -17.8115   22.0447 N   0  0  0  0  0  0  0  0  0  0  0  0
  -26.2415  -12.9305   20.3034 N   0  0  0  0  0  0  0  0  0  0  0  0
  -28.8332  -25.7365   13.9812 N   0  0  0  0  0  0  0  0  0  0  0  0
  -30.0444  -13.1858   20.6652 N   0  0  0  0  0  0  0  0  0  0  0  0
  -25.3527  -15.1228   20.4230 N   0  0  0  0  0  0  0  0  0  0  0  0
  -21.8004  -12.5046   21.3834 N   0  0  0  0  0  0  0  0  0  0  0  0
  -30.0278  -28.8717   14.3180 N   0  0  0  0  0  0  0  0  0  0  0  0
  -26.3699  -24.4516   12.0474 N   0  0  0  0  0  0  0  0  0  0  0  0
  -30.6824  -14.5844   22.5023 N   0  0  0  0  0  0  0  0  0  0  0  0
  -26.8300  -21.0209   11.0053 N   0  3  0  0  0  0  0  0  0  0  0  0
  -22.4952  -14.6725   21.1079 O   0  0  0  0  0  0  0  0  0  0  0  0
  -29.7161  -27.4210   16.1127 O   0  0  0  0  0  0  0  0  0  0  0  0
  -28.1018  -26.7336   12.0046 O   0  0  0  0  0  0  0  0  0  0  0  0
  -26.3617  -22.5244   13.3370 O   0  0  0  0  0  0  0  0  0  0  0  0
  -32.1245  -13.0044   21.6441 O   0  0  0  0  0  0  0  0  0  0  0  0
  -21.7816   -6.9390   21.6273 O   0  0  0  0  0  0  0  0  0  0  0  0
  -30.4024  -22.2311   18.8085 O   0  0  0  0  0  0  0  0  0  1  0  0
  -18.4210   -6.7466   25.9947 F   0  0  0  0  0  0  0  0  0  0  0  0
  -22.1598   -5.0675   23.6266 F   0  0  0  0  0  0  0  0  0  0  0  0
  1  2  1  0  0  0  0
  1  5  2  0  0  0  0
  2  6  2  0  0  0  0
  3  8  2  0  0  0  0
  3 16  1  0  0  0  0
  4  9  1  0  0  0  0
  4 16  2  0  0  0  0
  5 18  1  0  0  0  0
  6 20  1  0  0  0  0
  7 10  2  0  0  0  0
  7 19  1  0  0  0  0
  8 23  1  0  0  0  0
  9 23  2  0  0  0  0
 10 24  1  0  0  0  0
 11 12  2  0  0  0  0
 11 25  1  0  0  0  0
 12 26  1  0  0  0  0
 13 21  1  0  0  0  0
 13 24  2  0  0  0  0
 14 22  1  0  0  0  0
 14 29  2  0  0  0  0
 15 26  2  0  0  0  0
 15 27  1  0  0  0  0
 16 28  1  0  0  0  0
 17 28  1  0  0  0  0
 17 31  2  0  0  0  0
 17 32  1  0  0  0  0
 18 20  2  0  0  0  0
 18 37  1  0  0  0  0
 19 21  2  0  0  0  0
 19 38  1  0  0  0  0
 20 46  1  0  0  0  0
 21 39  1  0  0  0  0
 22 30  2  0  0  0  0
 22 65  1  0  0  0  0
 23 86  1  0  0  0  0
 24 87  1  0  0  0  0
 25 27  2  0  0  0  0
 25 86  1  0  0  0  0
 26 88  1  0  0  0  0
 27 89  1  0  0  0  0
 28 70  2  0  0  0  0
 29 66  1  0  0  0  0
 29 71  1  0  0  0  0
 30 49  1  0  0  0  0
 30 71  1  0  0  0  0
 31 72  1  0  0  0  0
 31 75  1  0  0  0  0
 32 76  1  0  0  0  0
 32 81  2  0  0  0  0
 33 47  1  0  0  0  0
 33 77  1  0  0  0  0
 33 82  2  0  0  0  0
 34 67  1  0  0  0  0
 34 73  1  0  0  0  0
 34 83  2  0  0  0  0
 35 68  1  0  0  0  0
 35 78  1  0  0  0  0
 35 84  2  0  0  0  0
 36 74  1  0  0  0  0
 36 79  1  0  0  0  0
 36 85  2  0  0  0  0
 37 40  1  0  0  0  0
 38 47  1  0  0  0  0
 39 73  1  0  0  0  0
 40 42  1  0  0  0  0
 41 43  1  0  0  0  0
 41 44  1  0  0  0  0
 42 46  1  0  0  0  0
 43 48  1  0  0  0  0
 44 74  1  0  0  0  0
 45 48  1  0  0  0  0
 45 74  1  0  0  0  0
 46 77  1  0  0  0  0
 47 73  1  0  0  0  0
 48 72  1  0  0  0  0
 50 59  1  0  0  0  0
 51 65  1  0  0  0  0
 52 66  1  0  0  0  0
 53 68  1  0  0  0  0
 54 69  1  0  0  0  0
 55 69  1  0  0  0  0
 56 69  1  0  0  0  0
 57 79  1  0  0  0  0
 58 80  1  0  0  0  0
 59 65  1  0  0  0  0
 60 61  1  0  0  0  0
 60 64  1  0  0  0  0
 61 66  1  0  0  0  0
 62 63  1  0  0  0  0
 62 71  1  0  0  0  0
 63 79  1  0  0  0  0
 64 87  1  0  0  0  0
 67 69  1  0  0  0  0
 67 78  1  0  0  0  0
 68 80  1  0  0  0  0
 70 72  1  0  0  0  0
M  CHG  1  80   1
M  ISO  4  36 100  64 101  79 100  87 101
M  END
> <Batch ID>
0096

> <Smiles>
CCC(C)c1cc(C(C)CC[101CH2:1][101O:1]c2ccc3c(c2)CN(C(=O)C(NC(=O)C(C)NC)C(C)(C)C)C(C(=O)NC2CCCc4ccccc42)C3)n(CC[100N:0](C)[100C:0](=O)N2CCCC(n3nc(-c4ccc(Oc5ccc(F)cc5F)cc4)c(C(N)=O)c3N)C2)c1C

> <Shape>
0.206

> <Color>
0.175

> <Negative vol penalty>
0.000

$$$$

  -OEChem-04052319243D

 89 97  0     1  0  0  0  0  0999 V2000
  -12.0251  -26.0626   20.1607 C   0  0  0  0  0  0  0  0  0  0  0  0
  -13.3327  -25.7620   19.7928 C   0  0  0  0  0  0  0  0  0  0  0  0
  -29.2986  -17.2518   19.0919 C   0  0  0  0  0  0  0  0  0  0  0  0
  -28.9125  -17.7973   21.4137 C   0  0  0  0  0  0  0  0  0  0  0  0
  -11.7135  -27.3310   20.6484 C   0  0  0  0  0  0  0  0  0  0  0  0
  -14.3292  -26.7302   19.9112 C   0  0  0  0  0  0  0  0  0  0  0  0
  -18.5818  -24.9000   21.9632 C   0  0  0  0  0  0  0  0  0  0  0  0
  -29.7488  -15.9853   19.4644 C   0  0  0  0  0  0  0  0  0  0  0  0
  -29.3626  -16.5307   21.7861 C   0  0  0  0  0  0  0  0  0  0  0  0
  -19.4174  -24.1516   21.1353 C   0  0  0  0  0  0  0  0  0  0  0  0
  -30.6597  -12.4799   19.7773 C   0  0  0  0  0  0  0  0  0  0  0  0
  -30.1952  -11.3860   19.0473 C   0  0  0  0  0  0  0  0  0  0  0  0
  -20.8334  -26.0808   20.8306 C   0  0  0  0  0  0  0  0  0  0  0  0
  -23.5974  -23.9333   17.4966 C   0  0  0  0  0  0  0  0  0  0  0  0
  -27.9255  -11.9373   19.6653 C   0  0  0  0  0  0  0  0  0  0  0  0
  -21.9177  -23.4203   15.8928 C   0  0  0  0  0  0  0  0  0  0  0  0
  -28.8804  -18.1579   20.0666 C   0  0  0  0  0  0  0  0  0  0  0  0
  -27.0947  -19.8431   19.3746 C   0  0  0  0  0  0  0  0  0  0  0  0
  -12.7085  -28.3122   20.7820 C   0  0  0  0  0  0  0  0  0  0  0  0
  -18.8602  -26.2497   22.2227 C   0  0  0  0  0  0  0  0  0  0  0  0
  -14.0303  -28.0134   20.3999 C   0  0  0  0  0  0  0  0  0  0  0  0
  -20.0012  -26.8434   21.6642 C   0  0  0  0  0  0  0  0  0  0  0  0
  -22.4498  -23.2253   17.1572 C   0  0  0  0  0  0  0  0  0  0  0  0
  -24.1696  -24.8023   16.5743 C   0  0  0  0  0  0  0  0  0  0  0  0
  -29.7808  -15.6247   20.8114 C   0  0  0  0  0  0  0  0  0  0  0  0
  -20.5418  -24.7427   20.5665 C   0  0  0  0  0  0  0  0  0  0  0  0
  -29.7572  -13.3026   20.4515 C   0  0  0  0  0  0  0  0  0  0  0  0
  -28.8281  -11.1146   18.9912 C   0  0  0  0  0  0  0  0  0  0  0  0
  -28.3901  -13.0313   20.3954 C   0  0  0  0  0  0  0  0  0  0  0  0
  -28.4158  -19.4666   19.6826 C   0  0  0  0  0  0  0  0  0  0  0  0
  -23.5606  -24.9266   15.3359 C   0  0  0  0  0  0  0  0  0  0  0  0
  -27.1799  -21.1809   19.0753 C   0  0  0  0  0  0  0  0  0  0  0  0
  -25.8976  -19.0542   19.3604 C   0  0  0  0  0  0  0  0  0  0  0  0
  -17.3564  -28.9959   21.6746 C   0  0  0  0  0  0  0  0  0  0  0  0
  -19.7890  -30.2291   23.4306 C   0  0  0  0  0  0  0  0  0  0  0  0
  -22.9898  -29.9119   24.5711 C   0  0  0  0  0  0  0  0  0  0  0  0
  -29.1073  -26.3012   20.1768 C   0  0  0  0  0  0  0  0  0  0  0  0
  -12.3145  -29.6840   21.2695 C   0  0  0  0  0  0  0  0  0  0  0  0
  -17.9636  -27.0359   23.1394 C   0  0  0  0  0  0  0  0  0  0  0  0
  -20.3555  -28.2833   21.9278 C   0  0  0  0  0  0  0  0  0  0  0  0
  -13.5001  -30.5352   21.7168 C   0  0  0  0  0  0  0  0  0  0  0  0
  -31.2153  -24.1307   18.3002 C   0  0  0  0  0  0  0  0  0  0  0  0
  -14.6258  -30.4643   20.6898 C   0  0  0  0  0  0  0  0  0  0  0  0
  -30.5696  -22.7547   18.4724 C   0  0  0  0  0  0  0  0  0  0  0  0
  -31.1060  -24.9686   19.5722 C   0  0  0  0  0  0  0  0  0  0  0  0
  -29.0922  -23.7348   20.2766 C   0  0  0  0  0  0  0  0  0  0  0  0
  -15.1437  -29.0291   20.5371 C   0  0  1  0  0  0  0  0  0  0  0  0
  -18.0606  -28.5428   22.9222 C   0  0  1  0  0  0  0  0  0  0  0  0
  -29.1280  -22.8741   19.0022 C   0  0  2  0  0  0  0  0  0  0  0  0
  -24.1316  -25.8448   14.3052 C   0  0  0  0  0  0  0  0  0  0  0  0
  -24.7145  -31.0979   25.9554 C   0  0  0  0  0  0  0  0  0  0  0  0
  -20.3083  -32.1595   21.1254 C   0  0  0  0  0  0  0  0  0  0  0  0
  -22.5533  -32.6389   22.1244 C   0  0  0  0  0  0  0  0  0  0  0  0
  -20.4803  -33.1820   23.4011 C   0  0  0  0  0  0  0  0  0  0  0  0
  -23.9766  -27.6164   17.3880 C   0  0  0  0  0  0  0  0  0  0  0  0
  -26.4603  -27.7484   17.5564 C   0  0  0  0  0  0  0  0  0  0  0  0
  -24.8775  -26.6848   21.8099 C   0  0  0  0  0  0  0  0  0  0  0  0
  -24.8860  -28.7429   20.4254 C   0  0  0  0  0  0  0  0  0  0  0  0
  -23.1204  -27.6900   26.5218 C   0  0  0  0  0  0  0  0  0  0  0  0
  -21.8139  -22.2875   18.1205 C   0  0  0  0  0  0  0  0  0  0  0  0
  -25.4171  -25.5771   16.9376 C   0  0  0  0  0  0  0  0  0  0  0  0
  -25.1448  -26.4135   19.3372 C   0  0  0  0  0  0  0  0  0  0  0  0
  -27.0230  -27.4959   20.7993 C   0  0  0  0  0  0  0  0  0  0  0  0
  -20.7595  -22.9596   19.0081 C   0  0  0  0  0  0  0  0  0  1  0  0
  -21.1662  -30.7647   23.1215 C   0  0  1  0  0  0  0  0  0  0  0  0
  -23.5864  -30.0780   25.9571 C   0  0  2  0  0  0  0  0  0  0  0  0
  -21.1196  -32.1596   22.4364 C   0  0  0  0  0  0  0  0  0  0  0  0
  -25.2402  -26.8544   17.8384 C   0  0  0  0  0  0  0  0  0  0  0  0
  -25.5017  -27.3406   20.5476 C   0  0  0  0  0  0  0  0  0  0  0  0
  -22.4454  -24.2557   14.9701 N   0  0  0  0  0  0  0  0  0  0  0  0
  -29.2771  -20.4830   19.5875 N   0  0  0  0  0  0  0  0  0  0  0  0
  -28.4956  -21.5114   19.2164 N   0  0  0  0  0  0  0  0  0  0  0  0
  -19.4443  -29.0121   22.8257 N   0  0  0  0  0  0  0  0  0  0  0  0
  -29.7136  -25.0438   20.0211 N   0  0  0  0  0  0  0  0  0  0  0  0
  -26.2570  -22.0950   18.7078 N   0  0  0  0  0  0  0  0  0  0  0  0
  -25.9886  -17.6959   19.6939 N   0  0  0  0  0  0  0  0  0  0  0  0
  -16.0105  -28.6841   21.6435 N   0  0  0  0  0  0  0  0  0  0  0  0
  -21.9051  -30.7411   24.3793 N   0  0  0  0  0  0  0  0  0  0  0  0
  -27.7838  -26.2826   20.5995 N   0  0  0  0  0  0  0  0  0  0  0  0
  -24.1281  -28.7789   26.4470 N   0  3  0  0  0  0  0  0  0  0  0  0
  -24.7831  -19.5356   19.0450 O   0  0  0  0  0  0  0  0  0  0  0  0
  -17.9870  -29.5860   20.8052 O   0  0  0  0  0  0  0  0  0  0  0  0
  -19.0491  -30.8635   24.1867 O   0  0  0  0  0  0  0  0  0  0  0  0
  -23.4432  -29.1278   23.7404 O   0  0  0  0  0  0  0  0  0  0  0  0
  -29.6998  -27.3617   19.9504 O   0  0  0  0  0  0  0  0  0  0  0  0
  -30.2199  -14.3888   21.1752 O   0  0  0  0  0  0  0  0  0  0  0  0
  -21.3645  -24.0096   19.7518 O   0  0  0  0  0  0  0  0  0  1  0  0
  -28.3820  -10.0650   18.2888 F   0  0  0  0  0  0  0  0  0  0  0  0
  -27.5181  -13.8187   21.0399 F   0  0  0  0  0  0  0  0  0  0  0  0
  1  2  1  0  0  0  0
  1  5  2  0  0  0  0
  2  6  2  0  0  0  0
  3  8  2  0  0  0  0
  3 17  1  0  0  0  0
  4  9  1  0  0  0  0
  4 17  2  0  0  0  0
  5 19  1  0  0  0  0
  6 21  1  0  0  0  0
  7 10  2  0  0  0  0
  7 20  1  0  0  0  0
  8 25  1  0  0  0  0
  9 25  2  0  0  0  0
 10 26  1  0  0  0  0
 11 12  2  0  0  0  0
 11 27  1  0  0  0  0
 12 28  1  0  0  0  0
 13 22  1  0  0  0  0
 13 26  2  0  0  0  0
 14 23  2  0  0  0  0
 14 24  1  0  0  0  0
 15 28  2  0  0  0  0
 15 29  1  0  0  0  0
 16 23  1  0  0  0  0
 16 70  2  0  0  0  0
 17 30  1  0  0  0  0
 18 30  1  0  0  0  0
 18 32  2  0  0  0  0
 18 33  1  0  0  0  0
 19 21  2  0  0  0  0
 19 38  1  0  0  0  0
 20 22  2  0  0  0  0
 20 39  1  0  0  0  0
 21 47  1  0  0  0  0
 22 40  1  0  0  0  0
 23 60  1  0  0  0  0
 24 31  2  0  0  0  0
 24 61  1  0  0  0  0
 25 86  1  0  0  0  0
 26 87  1  0  0  0  0
 27 29  2  0  0  0  0
 27 86  1  0  0  0  0
 28 88  1  0  0  0  0
 29 89  1  0  0  0  0
 30 71  2  0  0  0  0
 31 50  1  0  0  0  0
 31 70  1  0  0  0  0
 32 72  1  0  0  0  0
 32 75  1  0  0  0  0
 33 76  1  0  0  0  0
 33 81  2  0  0  0  0
 34 48  1  0  0  0  0
 34 77  1  0  0  0  0
 34 82  2  0  0  0  0
 35 65  1  0  0  0  0
 35 73  1  0  0  0  0
 35 83  2  0  0  0  0
 36 66  1  0  0  0  0
 36 78  1  0  0  0  0
 36 84  2  0  0  0  0
 37 74  1  0  0  0  0
 37 79  1  0  0  0  0
 37 85  2  0  0  0  0
 38 41  1  0  0  0  0
 39 48  1  0  0  0  0
 40 73  1  0  0  0  0
 41 43  1  0  0  0  0
 42 44  1  0  0  0  0
 42 45  1  0  0  0  0
 43 47  1  0  0  0  0
 44 49  1  0  0  0  0
 45 74  1  0  0  0  0
 46 49  1  0  0  0  0
 46 74  1  0  0  0  0
 47 77  1  0  0  0  0
 48 73  1  0  0  0  0
 49 72  1  0  0  0  0
 51 66  1  0  0  0  0
 52 67  1  0  0  0  0
 53 67  1  0  0  0  0
 54 67  1  0  0  0  0
 55 68  1  0  0  0  0
 56 68  1  0  0  0  0
 57 69  1  0  0  0  0
 58 69  1  0  0  0  0
 59 80  1  0  0  0  0
 60 64  1  0  0  0  0
 61 68  1  0  0  0  0
 62 68  1  0  0  0  0
 62 69  1  0  0  0  0
 63 69  1  0  0  0  0
 63 79  1  0  0  0  0
 64 87  1  0  0  0  0
 65 67  1  0  0  0  0
 65 78  1  0  0  0  0
 66 80  1  0  0  0  0
 71 72  1  0  0  0  0
M  CHG  1  80   1
M  ISO  4  37 100  64 101  79 100  87 101
M  END
> <Batch ID>
0096

> <Smiles>
CNC(C)C(=O)NC(C(=O)N1Cc2cc([101O:1][101CH2:1]Cc3cnc(C)c(CC(C)(C)CC(C)(C)C[100NH:0][100C:0](=O)N4CCCC(n5nc(-c6ccc(Oc7ccc(F)cc7F)cc6)c(C(N)=O)c5N)C4)c3)ccc2CC1C(=O)NC1CCCc2ccccc21)C(C)(C)C

> <Shape>
0.253

> <Color>
0.062

> <Negative vol penalty>
0.000

$$$$

  -OEChem-04052319243D

 85 93  0     1  0  0  0  0  0999 V2000
  -20.1429  -23.5262   23.0979 C   0  0  0  0  0  0  0  0  0  0  0  0
  -21.3150  -23.8739   22.4340 C   0  0  0  0  0  0  0  0  0  0  0  0
  -26.3396  -13.0209   20.9297 C   0  0  0  0  0  0  0  0  0  0  0  0
  -25.7837  -13.5898   18.6484 C   0  0  0  0  0  0  0  0  0  0  0  0
  -19.1892  -24.5023   23.3837 C   0  0  0  0  0  0  0  0  0  0  0  0
  -21.5335  -25.1977   22.0545 C   0  0  0  0  0  0  0  0  0  0  0  0
  -26.2315  -26.7696   23.1048 C   0  0  0  0  0  0  0  0  0  0  0  0
  -25.7693  -11.7601   20.7543 C   0  0  0  0  0  0  0  0  0  0  0  0
  -25.2134  -12.3290   18.4730 C   0  0  0  0  0  0  0  0  0  0  0  0
  -27.2473  -26.3619   22.2412 C   0  0  0  0  0  0  0  0  0  0  0  0
  -24.1380   -8.5207   21.0165 C   0  0  0  0  0  0  0  0  0  0  0  0
  -23.3032   -8.0389   22.0248 C   0  0  0  0  0  0  0  0  0  0  0  0
  -27.1705  -28.5100   21.1464 C   0  0  0  0  0  0  0  0  0  0  0  0
  -21.8330   -9.9303   21.7113 C   0  0  0  0  0  0  0  0  0  0  0  0
  -27.2521  -24.9077   17.7772 C   0  0  0  0  0  0  0  0  0  0  0  0
  -26.3468  -13.9358   19.8768 C   0  0  0  0  0  0  0  0  0  0  0  0
  -28.2738  -15.6066   19.8230 C   0  0  0  0  0  0  0  0  0  0  0  0
  -19.4005  -25.8405   23.0160 C   0  0  0  0  0  0  0  0  0  0  0  0
  -25.6691  -28.0489   22.9884 C   0  0  0  0  0  0  0  0  0  0  0  0
  -20.5811  -26.1924   22.3344 C   0  0  0  0  0  0  0  0  0  0  0  0
  -26.1495  -28.9325   22.0113 C   0  0  0  0  0  0  0  0  0  0  0  0
  -25.2061  -11.4142   19.5259 C   0  0  0  0  0  0  0  0  0  0  0  0
  -27.7150  -27.2311   21.2600 C   0  0  0  0  0  0  0  0  0  0  0  0
  -23.8203   -9.7073   20.3557 C   0  0  0  0  0  0  0  0  0  0  0  0
  -22.1507   -8.7437   22.3721 C   0  0  0  0  0  0  0  0  0  0  0  0
  -22.6678  -10.4121   20.7030 C   0  0  0  0  0  0  0  0  0  0  0  0
  -26.9354  -15.2385   20.0575 C   0  0  0  0  0  0  0  0  0  0  0  0
  -26.9768  -23.5760   17.9102 C   0  0  0  0  0  0  0  0  0  0  0  0
  -28.3238  -16.9414   20.1428 C   0  0  0  0  0  0  0  0  0  0  0  0
  -29.1015  -23.8913   18.4458 C   0  0  0  0  0  0  0  0  0  0  0  0
  -29.3734  -14.8130   19.3576 C   0  0  0  0  0  0  0  0  0  0  0  0
  -22.7650  -29.1729   22.3512 C   0  0  0  0  0  0  0  0  0  0  0  0
  -24.1470  -32.0287   23.0270 C   0  0  0  0  0  0  0  0  0  0  0  0
  -26.9986  -33.8934   23.2223 C   0  0  0  0  0  0  0  0  0  0  0  0
  -25.0956  -21.7366   19.8288 C   0  0  0  0  0  0  0  0  0  0  0  0
  -18.3195  -26.8519   23.3044 C   0  0  0  0  0  0  0  0  0  0  0  0
  -24.5925  -28.4830   23.9449 C   0  0  0  0  0  0  0  0  0  0  0  0
  -25.5932  -30.3237   21.8580 C   0  0  0  0  0  0  0  0  0  0  0  0
  -18.7956  -28.2986   23.2007 C   0  0  0  0  0  0  0  0  0  0  0  0
  -25.5465  -19.9728   22.8886 C   0  0  0  0  0  0  0  0  0  0  0  0
  -19.6101  -28.5026   21.9272 C   0  0  0  0  0  0  0  0  0  0  0  0
  -26.0751  -18.6064   22.4487 C   0  0  0  0  0  0  0  0  0  0  0  0
  -24.5130  -20.5209   21.9070 C   0  0  0  0  0  0  0  0  0  0  0  0
  -25.4892  -19.2094   20.0629 C   0  0  0  0  0  0  0  0  0  0  0  0
  -20.8657  -27.6222   21.9284 C   0  0  1  0  0  0  0  0  0  0  0  0
  -23.7374  -29.6246   23.4038 C   0  0  1  0  0  0  0  0  0  0  0  0
  -26.5755  -18.6412   20.9921 C   0  0  2  0  0  0  0  0  0  0  0  0
  -27.8067  -36.2057   23.7675 C   0  0  0  0  0  0  0  0  0  0  0  0
  -30.0495  -21.8329   21.2937 C   0  0  0  0  0  0  0  0  0  0  0  0
  -30.0884  -23.8385   22.7891 C   0  0  0  0  0  0  0  0  0  0  0  0
  -29.3687  -27.0002   16.7050 C   0  0  0  0  0  0  0  0  0  0  0  0
  -23.1312  -33.0181   20.3253 C   0  0  0  0  0  0  0  0  0  0  0  0
  -24.7317  -34.9350   20.5039 C   0  0  0  0  0  0  0  0  0  0  0  0
  -22.9129  -34.6698   22.1904 C   0  0  0  0  0  0  0  0  0  0  0  0
  -28.6628  -32.9089   25.4629 C   0  0  0  0  0  0  0  0  0  0  0  0
  -25.7439  -22.8156   17.6899 C   0  0  0  0  0  0  0  0  0  0  0  0
  -30.4981  -23.6258   18.8722 C   0  0  0  0  0  0  0  0  0  0  0  0
  -30.7526  -24.0463   20.3346 C   0  0  0  0  0  0  0  0  0  0  0  0
  -28.7076  -27.4018   19.1056 C   0  0  0  0  0  0  0  0  0  1  0  0
  -24.8776  -33.0791   22.2258 C   0  0  1  0  0  0  0  0  0  0  0  0
  -27.5292  -34.8117   24.3083 C   0  0  2  0  0  0  0  0  0  0  0  0
  -29.8420  -23.3480   21.3617 C   0  0  0  0  0  0  0  0  0  0  0  0
  -29.3158  -26.4014   18.1133 C   0  0  1  0  0  0  0  0  0  0  0  0
  -23.9227  -33.8987   21.3127 C   0  0  0  0  0  0  0  0  0  0  0  0
  -26.1891  -16.2571   20.4929 N   0  0  0  0  0  0  0  0  0  0  0  0
  -28.5734  -25.0743   18.1155 N   0  0  0  0  0  0  0  0  0  0  0  0
  -27.0616  -17.2784   20.5345 N   0  0  0  0  0  0  0  0  0  0  0  0
  -28.1390  -22.9713   18.3247 N   0  3  0  0  0  0  0  0  0  0  0  0
  -24.5375  -30.6993   22.8130 N   0  0  0  0  0  0  0  0  0  0  0  0
  -25.0506  -20.5287   20.5444 N   0  0  0  0  0  0  0  0  0  0  0  0
  -29.3240  -17.8479   20.1244 N   0  0  0  0  0  0  0  0  0  0  0  0
  -29.1478  -13.4587   19.0756 N   0  0  0  0  0  0  0  0  0  0  0  0
  -21.8853  -28.1971   22.7794 N   0  0  0  0  0  0  0  0  0  0  0  0
  -25.6201  -33.8843   23.1895 N   0  0  0  0  0  0  0  0  0  0  0  0
  -25.6256  -21.6569   18.5468 N   0  0  0  0  0  0  0  0  0  0  0  0
  -28.7953  -34.2667   24.8747 N   0  3  0  0  0  0  0  0  0  0  0  0
  -30.5258  -15.2866   19.2122 O   0  0  0  0  0  0  0  0  0  0  0  0
  -22.8085  -29.6737   21.2336 O   0  0  0  0  0  0  0  0  0  0  0  0
  -23.2672  -32.3757   23.8190 O   0  0  0  0  0  0  0  0  0  0  0  0
  -27.7335  -33.2513   22.4751 O   0  0  0  0  0  0  0  0  0  0  0  0
  -24.6980  -22.8077   20.2995 O   0  0  0  0  0  0  0  0  0  0  0  0
  -24.6497  -10.1840   19.3543 O   0  0  0  0  0  0  0  0  0  0  0  0
  -28.7059  -26.8355   20.4154 O   0  0  0  0  0  0  0  0  0  1  0  0
  -21.3483   -8.2800   23.3393 F   0  0  0  0  0  0  0  0  0  0  0  0
  -22.3568  -11.5520   20.0709 F   0  0  0  0  0  0  0  0  0  0  0  0
  1  2  1  0  0  0  0
  1  5  2  0  0  0  0
  2  6  2  0  0  0  0
  3  8  2  0  0  0  0
  3 16  1  0  0  0  0
  4  9  1  0  0  0  0
  4 16  2  0  0  0  0
  5 18  1  0  0  0  0
  6 20  1  0  0  0  0
  7 10  2  0  0  0  0
  7 19  1  0  0  0  0
  8 22  1  0  0  0  0
  9 22  2  0  0  0  0
 10 23  1  0  0  0  0
 11 12  2  0  0  0  0
 11 24  1  0  0  0  0
 12 25  1  0  0  0  0
 13 21  1  0  0  0  0
 13 23  2  0  0  0  0
 14 25  2  0  0  0  0
 14 26  1  0  0  0  0
 15 28  2  0  0  0  0
 15 66  1  0  0  0  0
 16 27  1  0  0  0  0
 17 27  1  0  0  0  0
 17 29  2  0  0  0  0
 17 31  1  0  0  0  0
 18 20  2  0  0  0  0
 18 36  1  0  0  0  0
 19 21  2  0  0  0  0
 19 37  1  0  0  0  0
 20 45  1  0  0  0  0
 21 38  1  0  0  0  0
 22 82  1  0  0  0  0
 23 83  1  0  0  0  0
 24 26  2  0  0  0  0
 24 82  1  0  0  0  0
 25 84  1  0  0  0  0
 26 85  1  0  0  0  0
 27 65  2  0  0  0  0
 28 56  1  0  0  0  0
 28 68  1  0  0  0  0
 29 67  1  0  0  0  0
 29 71  1  0  0  0  0
 30 57  1  0  0  0  0
 30 66  1  0  0  0  0
 30 68  2  0  0  0  0
 31 72  1  0  0  0  0
 31 77  2  0  0  0  0
 32 46  1  0  0  0  0
 32 73  1  0  0  0  0
 32 78  2  0  0  0  0
 33 60  1  0  0  0  0
 33 69  1  0  0  0  0
 33 79  2  0  0  0  0
 34 61  1  0  0  0  0
 34 74  1  0  0  0  0
 34 80  2  0  0  0  0
 35 70  1  0  0  0  0
 35 75  1  0  0  0  0
 35 81  2  0  0  0  0
 36 39  1  0  0  0  0
 37 46  1  0  0  0  0
 38 69  1  0  0  0  0
 39 41  1  0  0  0  0
 40 42  1  0  0  0  0
 40 43  1  0  0  0  0
 41 45  1  0  0  0  0
 42 47  1  0  0  0  0
 43 70  1  0  0  0  0
 44 47  1  0  0  0  0
 44 70  1  0  0  0  0
 45 73  1  0  0  0  0
 46 69  1  0  0  0  0
 47 67  1  0  0  0  0
 48 61  1  0  0  0  0
 49 62  1  0  0  0  0
 50 62  1  0  0  0  0
 51 63  1  0  0  0  0
 52 64  1  0  0  0  0
 53 64  1  0  0  0  0
 54 64  1  0  0  0  0
 55 76  1  0  0  0  0
 56 75  1  0  0  0  0
 57 58  1  0  0  0  0
 58 62  1  0  0  0  0
 59 63  1  0  0  0  0
 59 83  1  0  0  0  0
 60 64  1  0  0  0  0
 60 74  1  0  0  0  0
 61 76  1  0  0  0  0
 63 66  1  0  0  0  0
 65 67  1  0  0  0  0
M  CHG  2  68   1  76   1
M  ISO  4  35 100  59 101  75 100  83 101
M  END
> <Batch ID>
0096

> <Smiles>
CNC(C)C(=O)NC(C(=O)N1Cc2cc([101O:1][101CH2:1]C(C)n3cc(C[100NH:0][100C:0](=O)N4CCCC(n5nc(-c6ccc(Oc7ccc(F)cc7F)cc6)c(C(N)=O)c5N)C4)nc3CCC(C)C)ccc2CC1C(=O)NC1CCCc2ccccc21)C(C)(C)C

> <Shape>
0.266

> <Color>
0.092

> <Negative vol penalty>
0.000

$$$$

  -OEChem-04052319243D

 82 89  0     1  0  0  0  0  0999 V2000
  -22.7467   -8.1265   20.6531 C   0  0  0  0  0  0  0  0  0  0  0  0
  -22.2727   -9.2905   20.0565 C   0  0  0  0  0  0  0  0  0  0  0  0
  -29.0337  -22.8408   20.0047 C   0  0  0  0  0  0  0  0  0  0  0  0
  -26.9097  -22.0179   20.8099 C   0  0  0  0  0  0  0  0  0  0  0  0
  -23.7278   -8.2006   21.6410 C   0  0  0  0  0  0  0  0  0  0  0  0
  -22.7788  -10.5294   20.4484 C   0  0  0  0  0  0  0  0  0  0  0  0
  -24.2739  -17.0292   17.8344 C   0  0  0  0  0  0  0  0  0  0  0  0
  -29.6877  -21.8041   20.6703 C   0  0  0  0  0  0  0  0  0  0  0  0
  -27.5637  -20.9811   21.4754 C   0  0  0  0  0  0  0  0  0  0  0  0
  -24.0250  -18.3768   18.0911 C   0  0  0  0  0  0  0  0  0  0  0  0
  -29.3158  -20.5722   24.3379 C   0  0  0  0  0  0  0  0  0  0  0  0
  -28.9274  -20.2970   25.6490 C   0  0  0  0  0  0  0  0  0  0  0  0
  -25.7747  -18.3774   19.7517 C   0  0  0  0  0  0  0  0  0  0  0  0
  -28.3151  -18.0527   24.9965 C   0  0  0  0  0  0  0  0  0  0  0  0
  -27.6447  -22.9478   20.0746 C   0  0  0  0  0  0  0  0  0  0  0  0
  -26.4741  -24.0052   18.0697 C   0  0  0  0  0  0  0  0  0  0  0  0
  -24.2530   -9.4403   22.0383 C   0  0  0  0  0  0  0  0  0  0  0  0
  -25.2695  -16.3417   18.5433 C   0  0  0  0  0  0  0  0  0  0  0  0
  -23.7668  -10.6202   21.4435 C   0  0  0  0  0  0  0  0  0  0  0  0
  -26.0360  -17.0218   19.5003 C   0  0  0  0  0  0  0  0  0  0  0  0
  -28.9527  -20.8742   21.4056 C   0  0  0  0  0  0  0  0  0  0  0  0
  -24.7735  -19.0503   19.0519 C   0  0  0  0  0  0  0  0  0  0  0  0
  -29.2038  -19.5877   23.3561 C   0  0  0  0  0  0  0  0  0  0  0  0
  -28.4271  -19.0372   25.9783 C   0  0  0  0  0  0  0  0  0  0  0  0
  -28.7034  -18.3280   23.6854 C   0  0  0  0  0  0  0  0  0  0  0  0
  -26.9686  -24.0189   19.3877 C   0  0  0  0  0  0  0  0  0  0  0  0
  -25.9244  -25.2518   17.8962 C   0  0  0  0  0  0  0  0  0  0  0  0
  -26.5085  -22.9590   17.0899 C   0  0  0  0  0  0  0  0  0  0  0  0
  -25.3028  -13.8507   20.5176 C   0  0  0  0  0  0  0  0  0  0  0  0
  -28.5181  -14.2281   20.3143 C   0  0  0  0  0  0  0  0  0  0  0  0
  -31.1583  -16.2963   19.6832 C   0  0  0  0  0  0  0  0  0  0  0  0
  -23.7003  -29.2943   21.7123 C   0  0  0  0  0  0  0  0  0  0  0  0
  -25.2784   -9.4735   23.1438 C   0  0  0  0  0  0  0  0  0  0  0  0
  -25.5437  -14.8951   18.2357 C   0  0  0  0  0  0  0  0  0  0  0  0
  -27.1299  -16.3344   20.2745 C   0  0  0  0  0  0  0  0  0  0  0  0
  -26.0311  -10.7983   23.2368 C   0  0  0  0  0  0  0  0  0  0  0  0
  -26.3570  -29.7760   19.3915 C   0  0  0  0  0  0  0  0  0  0  0  0
  -25.0588  -11.9712   23.1614 C   0  0  0  0  0  0  0  0  0  0  0  0
  -26.7704  -28.3539   19.0084 C   0  0  0  0  0  0  0  0  0  0  0  0
  -25.9544  -29.8700   20.8615 C   0  0  0  0  0  0  0  0  0  0  0  0
  -25.3327  -27.4856   20.8999 C   0  0  0  0  0  0  0  0  0  0  0  0
  -24.3087  -11.9809   21.8240 C   0  0  1  0  0  0  0  0  0  0  0  0
  -26.2348  -14.1613   19.3807 C   0  0  1  0  0  0  0  0  0  0  0  0
  -25.6938  -27.3289   19.4128 C   0  0  2  0  0  0  0  0  0  0  0  0
  -33.6671  -16.3293   19.6342 C   0  0  0  0  0  0  0  0  0  0  0  0
  -28.5739  -14.3237   23.3636 C   0  0  0  0  0  0  0  0  0  0  0  0
  -30.8797  -15.2888   23.2217 C   0  0  0  0  0  0  0  0  0  0  0  0
  -30.4285  -13.0043   22.3271 C   0  0  0  0  0  0  0  0  0  0  0  0
  -31.2089  -16.9711   16.8020 C   0  0  0  0  0  0  0  0  0  0  0  0
  -18.1446  -25.5759   21.9500 C   0  0  0  0  0  0  0  0  0  0  0  0
  -21.5143  -22.5275   19.9183 C   0  0  0  0  0  0  0  0  0  0  0  0
  -21.2463  -23.6636   20.9063 C   0  0  0  0  0  0  0  0  0  0  0  0
  -22.9362  -21.9895   20.0618 C   0  0  0  0  0  0  0  0  0  0  0  0
  -21.4720  -28.5623   22.5235 C   0  0  0  0  0  0  0  0  0  0  0  0
  -19.8400  -24.2178   20.7328 C   0  0  0  0  0  0  0  0  0  0  0  0
  -20.3800  -26.5451   21.4347 C   0  0  0  0  0  0  0  0  0  0  0  0
  -23.1968  -20.8298   19.1109 C   0  0  0  0  0  0  0  0  0  1  0  0
  -29.5520  -15.0200   21.0778 C   0  0  1  0  0  0  0  0  0  0  0  0
  -32.3974  -16.1149   18.8251 C   0  0  2  0  0  0  0  0  0  0  0  0
  -20.6339  -27.3004   22.7348 C   0  0  1  0  0  0  0  0  0  0  0  0
  -29.8367  -14.4219   22.4845 C   0  0  0  0  0  0  0  0  0  0  0  0
  -26.7523  -25.1821   20.0075 N   0  0  0  0  0  0  0  0  0  0  0  0
  -26.1159  -25.9110   19.0748 N   0  0  0  0  0  0  0  0  0  0  0  0
  -27.3557  -14.9181   19.9421 N   0  0  0  0  0  0  0  0  0  0  0  0
  -24.9296  -28.8727   21.1794 N   0  0  0  0  0  0  0  0  0  0  0  0
  -25.3008  -25.8376   16.8520 N   0  0  0  0  0  0  0  0  0  0  0  0
  -27.1114  -21.7413   17.4335 N   0  0  0  0  0  0  0  0  0  0  0  0
  -25.1568  -12.5005   20.7727 N   0  0  0  0  0  0  0  0  0  0  0  0
  -30.7249  -15.0998   20.2139 N   0  0  0  0  0  0  0  0  0  0  0  0
  -22.7827  -28.2856   21.9792 N   0  0  0  0  0  0  0  0  0  0  0  0
  -32.3911  -17.0855   17.6944 N   0  3  0  0  0  0  0  0  0  0  0  0
  -19.6101  -25.2828   21.7384 N   0  3  1  0  0  0  0  0  0  0  0  0
  -26.0337  -23.1055   15.9381 O   0  0  0  0  0  0  0  0  0  0  0  0
  -24.7576  -14.7682   21.1198 O   0  0  0  0  0  0  0  0  0  0  0  0
  -28.7371  -13.0429   20.0515 O   0  0  0  0  0  0  0  0  0  0  0  0
  -30.6301  -17.3907   19.8674 O   0  0  0  0  0  0  0  0  0  0  0  0
  -23.4378  -30.4823   21.9289 O   0  0  0  0  0  0  0  0  0  0  0  0
  -21.3070  -26.4360   23.6494 O   0  0  0  0  0  0  0  0  0  0  0  0
  -29.5905  -19.8622   22.0550 O   0  0  0  0  0  0  0  0  0  0  0  0
  -24.5321  -20.3655   19.3050 O   0  0  0  0  0  0  0  0  0  1  0  0
  -28.0556  -18.7726   27.2377 F   0  0  0  0  0  0  0  0  0  0  0  0
  -28.5946  -17.3778   22.7467 F   0  0  0  0  0  0  0  0  0  0  0  0
  1  2  1  0  0  0  0
  1  5  2  0  0  0  0
  2  6  2  0  0  0  0
  3  8  2  0  0  0  0
  3 15  1  0  0  0  0
  4  9  1  0  0  0  0
  4 15  2  0  0  0  0
  5 17  1  0  0  0  0
  6 19  1  0  0  0  0
  7 10  2  0  0  0  0
  7 18  1  0  0  0  0
  8 21  1  0  0  0  0
  9 21  2  0  0  0  0
 10 22  1  0  0  0  0
 11 12  2  0  0  0  0
 11 23  1  0  0  0  0
 12 24  1  0  0  0  0
 13 20  1  0  0  0  0
 13 22  2  0  0  0  0
 14 24  2  0  0  0  0
 14 25  1  0  0  0  0
 15 26  1  0  0  0  0
 16 26  1  0  0  0  0
 16 27  2  0  0  0  0
 16 28  1  0  0  0  0
 17 19  2  0  0  0  0
 17 33  1  0  0  0  0
 18 20  2  0  0  0  0
 18 34  1  0  0  0  0
 19 42  1  0  0  0  0
 20 35  1  0  0  0  0
 21 79  1  0  0  0  0
 22 80  1  0  0  0  0
 23 25  2  0  0  0  0
 23 79  1  0  0  0  0
 24 81  1  0  0  0  0
 25 82  1  0  0  0  0
 26 62  2  0  0  0  0
 27 63  1  0  0  0  0
 27 66  1  0  0  0  0
 28 67  1  0  0  0  0
 28 73  2  0  0  0  0
 29 43  1  0  0  0  0
 29 68  1  0  0  0  0
 29 74  2  0  0  0  0
 30 58  1  0  0  0  0
 30 64  1  0  0  0  0
 30 75  2  0  0  0  0
 31 59  1  0  0  0  0
 31 69  1  0  0  0  0
 31 76  2  0  0  0  0
 32 65  1  0  0  0  0
 32 70  1  0  0  0  0
 32 77  2  0  0  0  0
 33 36  1  0  0  0  0
 34 43  1  0  0  0  0
 35 64  1  0  0  0  0
 36 38  1  0  0  0  0
 37 39  1  0  0  0  0
 37 40  1  0  0  0  0
 38 42  1  0  0  0  0
 39 44  1  0  0  0  0
 40 65  1  0  0  0  0
 41 44  1  0  0  0  0
 41 65  1  0  0  0  0
 42 68  1  0  0  0  0
 43 64  1  0  0  0  0
 44 63  1  0  0  0  0
 45 59  1  0  0  0  0
 46 61  1  0  0  0  0
 47 61  1  0  0  0  0
 48 61  1  0  0  0  0
 49 71  1  0  0  0  0
 50 72  1  0  0  0  0
 51 52  1  0  0  0  0
 51 53  1  0  0  0  0
 52 55  1  0  0  0  0
 53 57  1  0  0  0  0
 54 60  1  0  0  0  0
 54 70  1  0  0  0  0
 55 72  1  0  0  0  0
 56 60  1  0  0  0  0
 56 72  1  0  0  0  0
 57 80  1  0  0  0  0
 58 61  1  0  0  0  0
 58 69  1  0  0  0  0
 59 71  1  0  0  0  0
 60 78  1  0  0  0  0
 62 63  1  0  0  0  0
M  CHG  2  71   1  72   1
M  ISO  4  32 100  57 101  70 100  80 101
M  END
> <Batch ID>
0096

> <Smiles>
CNC(C)C(=O)NC(C(=O)N1Cc2cc([101O:1][101CH2:1]CCCCN(C)CC(O)C[100NH:0][100C:0](=O)N3CCCC(n4nc(-c5ccc(Oc6ccc(F)cc6F)cc5)c(C(N)=O)c4N)C3)ccc2CC1C(=O)NC1CCCc2ccccc21)C(C)(C)C

> <Shape>
0.228

> <Color>
0.056

> <Negative vol penalty>
0.000

$$$$

  -OEChem-04052319243D

 88 96  0     1  0  0  0  0  0999 V2000
  -38.5390  -27.7279   14.7128 C   0  0  0  0  0  0  0  0  0  0  0  0
  -37.4657  -27.6554   15.5949 C   0  0  0  0  0  0  0  0  0  0  0  0
  -23.0500   -9.9053   19.9685 C   0  0  0  0  0  0  0  0  0  0  0  0
  -23.8153   -9.9191   22.2600 C   0  0  0  0  0  0  0  0  0  0  0  0
  -38.3489  -28.2267   13.4248 C   0  0  0  0  0  0  0  0  0  0  0  0
  -36.2018  -28.0829   15.1899 C   0  0  0  0  0  0  0  0  0  0  0  0
  -32.5365  -24.8585   16.5368 C   0  0  0  0  0  0  0  0  0  0  0  0
  -22.2815   -8.7715   20.2319 C   0  0  0  0  0  0  0  0  0  0  0  0
  -23.0469   -8.7852   22.5235 C   0  0  0  0  0  0  0  0  0  0  0  0
  -32.1146  -24.8930   17.8651 C   0  0  0  0  0  0  0  0  0  0  0  0
  -19.8370   -6.0857   20.3937 C   0  0  0  0  0  0  0  0  0  0  0  0
  -18.5294   -6.0614   19.9087 C   0  0  0  0  0  0  0  0  0  0  0  0
  -30.2040  -26.2157   17.2177 C   0  0  0  0  0  0  0  0  0  0  0  0
  -30.1208  -19.9455   18.8787 C   0  0  0  0  0  0  0  0  0  0  0  0
  -29.2663  -18.7113   20.7717 C   0  0  0  0  0  0  0  0  0  0  0  0
  -18.0103   -8.0297   21.2101 C   0  0  0  0  0  0  0  0  0  0  0  0
  -23.8169  -10.4791   20.9825 C   0  0  0  0  0  0  0  0  0  0  0  0
  -24.2139  -12.9948   20.8358 C   0  0  0  0  0  0  0  0  0  0  0  0
  -37.0799  -28.6516   13.0006 C   0  0  0  0  0  0  0  0  0  0  0  0
  -31.7999  -25.5127   15.5388 C   0  0  0  0  0  0  0  0  0  0  0  0
  -35.9947  -28.5892   13.8955 C   0  0  0  0  0  0  0  0  0  0  0  0
  -30.6173  -26.1859   15.8770 C   0  0  0  0  0  0  0  0  0  0  0  0
  -29.5300  -19.9277   20.1421 C   0  0  0  0  0  0  0  0  0  0  0  0
  -30.4478  -18.7468   18.2448 C   0  0  0  0  0  0  0  0  0  0  0  0
  -29.5933  -17.5125   20.1377 C   0  0  0  0  0  0  0  0  0  0  0  0
  -30.1841  -17.5304   18.8743 C   0  0  0  0  0  0  0  0  0  0  0  0
  -22.2800   -8.2114   21.5094 C   0  0  0  0  0  0  0  0  0  0  0  0
  -30.9497  -25.5741   18.2062 C   0  0  0  0  0  0  0  0  0  0  0  0
  -20.2313   -7.0819   21.2869 C   0  0  0  0  0  0  0  0  0  0  0  0
  -17.6161   -7.0334   20.3169 C   0  0  0  0  0  0  0  0  0  0  0  0
  -19.3179   -8.0539   21.6951 C   0  0  0  0  0  0  0  0  0  0  0  0
  -24.6114  -11.6501   20.7109 C   0  0  0  0  0  0  0  0  0  0  0  0
  -25.3214  -13.7163   20.4625 C   0  0  0  0  0  0  0  0  0  0  0  0
  -22.9561  -13.5427   21.2522 C   0  0  0  0  0  0  0  0  0  0  0  0
  -32.3868  -27.8899   13.5120 C   0  0  0  0  0  0  0  0  0  0  0  0
  -29.4655  -27.0976   12.3456 C   0  0  0  0  0  0  0  0  0  0  0  0
  -26.4172  -25.6651   12.8960 C   0  0  0  0  0  0  0  0  0  0  0  0
  -30.9431  -14.3119   21.0609 C   0  0  0  0  0  0  0  0  0  0  0  0
  -36.9330  -29.2275   11.6145 C   0  0  0  0  0  0  0  0  0  0  0  0
  -32.2541  -25.4435   14.1066 C   0  0  0  0  0  0  0  0  0  0  0  0
  -29.7797  -26.8872   14.8401 C   0  0  0  0  0  0  0  0  0  0  0  0
  -35.4846  -29.3105   11.1397 C   0  0  0  0  0  0  0  0  0  0  0  0
  -29.6317  -12.2661   18.2686 C   0  0  0  0  0  0  0  0  0  0  0  0
  -34.5982  -29.9026   12.2309 C   0  0  0  0  0  0  0  0  0  0  0  0
  -28.1974  -11.9802   18.7102 C   0  0  0  0  0  0  0  0  0  0  0  0
  -30.5617  -12.4721   19.4604 C   0  0  0  0  0  0  0  0  0  0  0  0
  -28.6654  -13.2342   20.8524 C   0  0  0  0  0  0  0  0  0  0  0  0
  -34.6033  -29.0201   13.4850 C   0  0  1  0  0  0  0  0  0  0  0  0
  -31.7023  -26.5784   13.2493 C   0  0  1  0  0  0  0  0  0  0  0  0
  -27.6933  -13.0677   19.6748 C   0  0  2  0  0  0  0  0  0  0  0  0
  -30.5353  -16.2453   18.1945 C   0  0  0  0  0  0  0  0  0  0  0  0
  -32.5815  -18.5246   16.9468 C   0  0  0  0  0  0  0  0  0  0  0  0
  -24.2251  -25.2025   11.7656 C   0  0  0  0  0  0  0  0  0  0  0  0
  -28.7985  -23.0138   23.3116 C   0  0  0  0  0  0  0  0  0  0  0  0
  -28.6716  -30.0231   12.6934 C   0  0  0  0  0  0  0  0  0  0  0  0
  -26.2769  -29.3274   12.4704 C   0  0  0  0  0  0  0  0  0  0  0  0
  -27.8602  -28.9666   10.5769 C   0  0  0  0  0  0  0  0  0  0  0  0
  -31.4124  -16.5093   22.0761 C   0  0  0  0  0  0  0  0  0  0  0  0
  -26.7480  -22.7393   13.1952 C   0  0  0  0  0  0  0  0  0  0  0  0
  -29.1757  -21.2240   20.8274 C   0  0  0  0  0  0  0  0  0  0  0  0
  -31.0808  -18.7934   16.8924 C   0  0  0  0  0  0  0  0  0  0  0  0
  -29.3007  -16.2232   20.8333 C   0  0  0  0  0  0  0  0  0  0  0  0
  -30.2980  -21.7938   21.7060 C   0  0  0  0  0  0  0  0  0  0  0  0
  -29.7774  -24.3116   21.3682 C   0  0  0  0  0  0  0  0  0  0  0  0
  -30.8717  -24.4913   20.3222 C   0  0  0  0  0  0  0  0  0  1  0  0
  -28.0462  -27.5187   12.6411 C   0  0  1  0  0  0  0  0  0  0  0  0
  -25.6122  -24.6665   12.0841 C   0  0  2  0  0  0  0  0  0  0  0  0
  -29.9955  -23.1569   22.3642 C   0  0  1  0  0  0  0  0  0  0  0  0
  -27.7303  -28.9475   12.1155 C   0  0  0  0  0  0  0  0  0  0  0  0
  -25.8728  -11.5222   20.2908 N   0  0  0  0  0  0  0  0  0  0  0  0
  -26.2775  -12.7958   20.1485 N   0  0  0  0  0  0  0  0  0  0  0  0
  -30.2689  -26.7962   13.4545 N   0  0  0  0  0  0  0  0  0  0  0  0
  -30.0372  -13.4797   20.3829 N   0  0  0  0  0  0  0  0  0  0  0  0
  -25.5608  -15.0420   20.3753 N   0  0  0  0  0  0  0  0  0  0  0  0
  -21.9252  -12.6595   21.6010 N   0  0  0  0  0  0  0  0  0  0  0  0
  -33.7512  -27.8660   13.2943 N   0  0  0  0  0  0  0  0  0  0  0  0
  -27.1878  -26.4758   12.0897 N   0  0  0  0  0  0  0  0  0  0  0  0
  -30.5053  -15.6053   21.3833 N   0  0  0  0  0  0  0  0  0  0  0  0
  -25.4611  -23.3890   12.8366 N   0  3  0  0  0  0  0  0  0  0  0  0
  -22.7470  -14.7787   21.2973 O   0  0  0  0  0  0  0  0  0  0  0  0
  -31.7258  -28.8527   13.8831 O   0  0  0  0  0  0  0  0  0  0  0  0
  -29.8451  -27.0314   11.1738 O   0  0  0  0  0  0  0  0  0  0  0  0
  -26.3647  -25.7227   14.1226 O   0  0  0  0  0  0  0  0  0  0  0  0
  -32.0818  -13.9242   21.3525 O   0  0  0  0  0  0  0  0  0  0  0  0
  -21.5300   -7.1051   21.7668 O   0  0  0  0  0  0  0  0  0  0  0  0
  -30.5360  -25.6099   19.5021 O   0  0  0  0  0  0  0  0  0  1  0  0
  -16.3608   -7.0109   19.8499 F   0  0  0  0  0  0  0  0  0  0  0  0
  -19.6912   -9.0142   22.5521 F   0  0  0  0  0  0  0  0  0  0  0  0
  1  2  1  0  0  0  0
  1  5  2  0  0  0  0
  2  6  2  0  0  0  0
  3  8  2  0  0  0  0
  3 17  1  0  0  0  0
  4  9  1  0  0  0  0
  4 17  2  0  0  0  0
  5 19  1  0  0  0  0
  6 21  1  0  0  0  0
  7 10  2  0  0  0  0
  7 20  1  0  0  0  0
  8 27  1  0  0  0  0
  9 27  2  0  0  0  0
 10 28  1  0  0  0  0
 11 12  2  0  0  0  0
 11 29  1  0  0  0  0
 12 30  1  0  0  0  0
 13 22  1  0  0  0  0
 13 28  2  0  0  0  0
 14 23  2  0  0  0  0
 14 24  1  0  0  0  0
 15 23  1  0  0  0  0
 15 25  2  0  0  0  0
 16 30  2  0  0  0  0
 16 31  1  0  0  0  0
 17 32  1  0  0  0  0
 18 32  1  0  0  0  0
 18 33  2  0  0  0  0
 18 34  1  0  0  0  0
 19 21  2  0  0  0  0
 19 39  1  0  0  0  0
 20 22  2  0  0  0  0
 20 40  1  0  0  0  0
 21 48  1  0  0  0  0
 22 41  1  0  0  0  0
 23 60  1  0  0  0  0
 24 26  2  0  0  0  0
 24 61  1  0  0  0  0
 25 26  1  0  0  0  0
 25 62  1  0  0  0  0
 26 51  1  0  0  0  0
 27 85  1  0  0  0  0
 28 86  1  0  0  0  0
 29 31  2  0  0  0  0
 29 85  1  0  0  0  0
 30 87  1  0  0  0  0
 31 88  1  0  0  0  0
 32 70  2  0  0  0  0
 33 71  1  0  0  0  0
 33 74  1  0  0  0  0
 34 75  1  0  0  0  0
 34 80  2  0  0  0  0
 35 49  1  0  0  0  0
 35 76  1  0  0  0  0
 35 81  2  0  0  0  0
 36 66  1  0  0  0  0
 36 72  1  0  0  0  0
 36 82  2  0  0  0  0
 37 67  1  0  0  0  0
 37 77  1  0  0  0  0
 37 83  2  0  0  0  0
 38 73  1  0  0  0  0
 38 78  1  0  0  0  0
 38 84  2  0  0  0  0
 39 42  1  0  0  0  0
 40 49  1  0  0  0  0
 41 72  1  0  0  0  0
 42 44  1  0  0  0  0
 43 45  1  0  0  0  0
 43 46  1  0  0  0  0
 44 48  1  0  0  0  0
 45 50  1  0  0  0  0
 46 73  1  0  0  0  0
 47 50  1  0  0  0  0
 47 73  1  0  0  0  0
 48 76  1  0  0  0  0
 49 72  1  0  0  0  0
 50 71  1  0  0  0  0
 52 61  1  0  0  0  0
 53 67  1  0  0  0  0
 54 68  1  0  0  0  0
 55 69  1  0  0  0  0
 56 69  1  0  0  0  0
 57 69  1  0  0  0  0
 58 78  1  0  0  0  0
 59 79  1  0  0  0  0
 60 63  1  0  0  0  0
 62 78  1  0  0  0  0
 63 68  1  0  0  0  0
 64 65  1  0  0  0  0
 64 68  1  0  0  0  0
 65 86  1  0  0  0  0
 66 69  1  0  0  0  0
 66 77  1  0  0  0  0
 67 79  1  0  0  0  0
 70 71  1  0  0  0  0
M  CHG  1  79   1
M  ISO  4  38 100  65 101  78 100  86 101
M  END
> <Batch ID>
0096

> <Smiles>
CCc1cc(CCC(C)C[101CH2:1][101O:1]c2ccc3c(c2)CN(C(=O)C(NC(=O)C(C)NC)C(C)(C)C)C(C(=O)NC2CCCc4ccccc42)C3)cc(C[100N:0](C)[100C:0](=O)N2CCCC(n3nc(-c4ccc(Oc5ccc(F)cc5F)cc4)c(C(N)=O)c3N)C2)c1C

> <Shape>
0.209

> <Color>
0.189

> <Negative vol penalty>
0.000

$$$$

  -OEChem-04052319243D

 89 97  0     1  0  0  0  0  0999 V2000
  -18.2179  -28.0836   22.2314 C   0  0  0  0  0  0  0  0  0  0  0  0
  -18.7734  -26.8803   21.8084 C   0  0  0  0  0  0  0  0  0  0  0  0
  -28.3898  -22.8814   20.2324 C   0  0  0  0  0  0  0  0  0  0  0  0
  -30.0984  -22.0942   18.7164 C   0  0  0  0  0  0  0  0  0  0  0  0
  -18.9881  -28.9866   22.9631 C   0  0  0  0  0  0  0  0  0  0  0  0
  -20.0999  -26.5798   22.1158 C   0  0  0  0  0  0  0  0  0  0  0  0
  -20.6851  -21.8236   23.7531 C   0  0  0  0  0  0  0  0  0  0  0  0
  -28.9491  -24.1588   20.1995 C   0  0  0  0  0  0  0  0  0  0  0  0
  -30.6576  -23.3716   18.6834 C   0  0  0  0  0  0  0  0  0  0  0  0
  -20.6872  -20.8147   22.7908 C   0  0  0  0  0  0  0  0  0  0  0  0
  -31.5686  -25.7675   21.6047 C   0  0  0  0  0  0  0  0  0  0  0  0
  -31.7200  -26.4394   22.8176 C   0  0  0  0  0  0  0  0  0  0  0  0
  -23.0971  -20.7478   22.8747 C   0  0  0  0  0  0  0  0  0  0  0  0
  -24.2539  -12.7155   21.5682 C   0  0  0  0  0  0  0  0  0  0  0  0
  -25.1204  -13.3677   19.4216 C   0  0  0  0  0  0  0  0  0  0  0  0
  -30.2917  -28.2141   22.0129 C   0  0  0  0  0  0  0  0  0  0  0  0
  -28.9645  -21.8491   19.4909 C   0  0  0  0  0  0  0  0  0  0  0  0
  -27.3934  -20.0137   18.6719 C   0  0  0  0  0  0  0  0  0  0  0  0
  -20.3218  -28.6927   23.2879 C   0  0  0  0  0  0  0  0  0  0  0  0
  -21.8916  -22.3106   24.2763 C   0  0  0  0  0  0  0  0  0  0  0  0
  -20.8891  -27.4803   22.8513 C   0  0  0  0  0  0  0  0  0  0  0  0
  -23.1075  -21.7611   23.8454 C   0  0  0  0  0  0  0  0  0  0  0  0
  -24.2015  -13.5410   20.4506 C   0  0  0  0  0  0  0  0  0  0  0  0
  -30.0830  -24.4039   19.4250 C   0  0  0  0  0  0  0  0  0  0  0  0
  -21.8933  -20.2786   22.3494 C   0  0  0  0  0  0  0  0  0  0  0  0
  -30.7788  -26.3190   20.5957 C   0  0  0  0  0  0  0  0  0  0  0  0
  -31.0815  -27.6626   23.0217 C   0  0  0  0  0  0  0  0  0  0  0  0
  -30.1403  -27.5422   20.7999 C   0  0  0  0  0  0  0  0  0  0  0  0
  -28.3875  -20.5292   19.5250 C   0  0  0  0  0  0  0  0  0  0  0  0
  -25.2364  -11.7394   21.6080 C   0  0  0  0  0  0  0  0  0  0  0  0
  -26.0643  -12.3626   19.5576 C   0  0  0  0  0  0  0  0  0  0  0  0
  -27.1945  -18.7285   19.1138 C   0  0  0  0  0  0  0  0  0  0  0  0
  -26.7108  -20.6405   17.5779 C   0  0  0  0  0  0  0  0  0  0  0  0
  -23.3534  -25.1331   24.2902 C   0  0  0  0  0  0  0  0  0  0  0  0
  -25.4373  -23.6068   26.2524 C   0  0  0  0  0  0  0  0  0  0  0  0
  -26.8015  -20.6594   27.3006 C   0  0  0  0  0  0  0  0  0  0  0  0
  -29.1913  -13.8232   20.8731 C   0  0  0  0  0  0  0  0  0  0  0  0
  -21.1291  -29.7208   24.0402 C   0  0  0  0  0  0  0  0  0  0  0  0
  -21.8712  -23.3806   25.3332 C   0  0  0  0  0  0  0  0  0  0  0  0
  -24.4292  -22.2350   24.3904 C   0  0  0  0  0  0  0  0  0  0  0  0
  -22.4140  -29.1620   24.6461 C   0  0  0  0  0  0  0  0  0  0  0  0
  -28.8136  -16.3992   23.3017 C   0  0  0  0  0  0  0  0  0  0  0  0
  -23.1604  -28.3112   23.6235 C   0  0  0  0  0  0  0  0  0  0  0  0
  -28.5935  -17.6610   22.4654 C   0  0  0  0  0  0  0  0  0  0  0  0
  -29.8075  -15.4485   22.6381 C   0  0  0  0  0  0  0  0  0  0  0  0
  -29.2629  -16.3483   20.4093 C   0  0  0  0  0  0  0  0  0  0  0  0
  -22.3169  -27.1075   23.1864 C   0  0  1  0  0  0  0  0  0  0  0  0
  -23.1805  -24.1588   25.4209 C   0  0  1  0  0  0  0  0  0  0  0  0
  -28.2258  -17.3123   21.0106 C   0  0  2  0  0  0  0  0  0  0  0  0
  -25.6586  -10.2938   17.2764 C   0  0  0  0  0  0  0  0  0  0  0  0
  -26.6551  -10.9794   23.5480 C   0  0  0  0  0  0  0  0  0  0  0  0
  -25.0894   -9.3575   22.4198 C   0  0  0  0  0  0  0  0  0  0  0  0
  -28.5083  -19.7339   28.8905 C   0  0  0  0  0  0  0  0  0  0  0  0
  -26.9486  -13.1197   17.2428 C   0  0  0  0  0  0  0  0  0  0  0  0
  -27.6693  -24.5092   24.3779 C   0  0  0  0  0  0  0  0  0  0  0  0
  -29.1614  -22.8074   25.4483 C   0  0  0  0  0  0  0  0  0  0  0  0
  -28.2211  -24.6727   26.8117 C   0  0  0  0  0  0  0  0  0  0  0  0
  -24.7587  -19.1000   28.7682 C   0  0  0  0  0  0  0  0  0  0  0  0
  -23.1518  -14.6193   20.3546 C   0  0  0  0  0  0  0  0  0  0  0  0
  -27.0026  -10.6806   17.8879 C   0  0  0  0  0  0  0  0  0  0  0  0
  -23.5916  -15.9656   20.9405 C   0  0  0  0  0  0  0  0  0  0  0  0
  -22.4880  -17.0237   20.9038 C   0  0  0  0  0  0  0  0  0  0  0  0
  -28.5419  -12.3216   19.0069 C   0  0  0  0  0  0  0  0  0  0  0  0
  -22.9731  -18.3569   21.4567 C   0  0  0  0  0  0  0  0  0  1  0  0
  -25.3217  -10.8340   22.7911 C   0  0  0  0  0  0  0  0  0  0  0  0
  -26.6988  -22.8018   26.0539 C   0  0  1  0  0  0  0  0  0  0  0  0
  -27.0460  -20.1006   28.6907 C   0  0  2  0  0  0  0  0  0  0  0  0
  -27.0670  -12.1496   18.4732 C   0  0  2  0  0  0  0  0  0  0  0  0
  -27.9130  -23.6900   25.6610 C   0  0  0  0  0  0  0  0  0  0  0  0
  -28.7919  -19.6439   20.4397 N   0  0  0  0  0  0  0  0  0  0  0  0
  -26.1462  -11.5409   20.6280 N   0  0  0  0  0  0  0  0  0  0  0  0
  -28.0481  -18.5591   20.1640 N   0  0  0  0  0  0  0  0  0  0  0  0
  -24.3572  -23.2873   25.4174 N   0  0  0  0  0  0  0  0  0  0  0  0
  -29.4002  -15.1568   21.2615 N   0  0  0  0  0  0  0  0  0  0  0  0
  -26.3744  -17.7382   18.7026 N   0  0  0  0  0  0  0  0  0  0  0  0
  -27.0367  -21.9656   17.2582 N   0  0  0  0  0  0  0  0  0  0  0  0
  -22.3463  -26.0749   24.2001 N   0  0  0  0  0  0  0  0  0  0  0  0
  -26.8912  -22.0352   27.2802 N   0  0  0  0  0  0  0  0  0  0  0  0
  -28.8009  -13.6352   19.5529 N   0  0  0  0  0  0  0  0  0  0  0  0
  -26.2209  -18.8791   28.9103 N   0  3  0  0  0  0  0  0  0  0  0  0
  -25.8261  -20.0486   16.9142 O   0  0  0  0  0  0  0  0  0  0  0  0
  -24.3292  -25.0383   23.5549 O   0  0  0  0  0  0  0  0  0  0  0  0
  -25.4089  -24.4819   27.1214 O   0  0  0  0  0  0  0  0  0  0  0  0
  -26.5593  -19.9465   26.3292 O   0  0  0  0  0  0  0  0  0  0  0  0
  -29.3364  -12.8709   21.6472 O   0  0  0  0  0  0  0  0  0  0  0  0
  -30.6288  -25.6503   19.3924 O   0  0  0  0  0  0  0  0  0  0  0  0
  -21.8982  -19.2942   21.4098 O   0  0  0  0  0  0  0  0  0  1  0  0
  -31.2258  -28.3070   24.1871 F   0  0  0  0  0  0  0  0  0  0  0  0
  -29.3794  -28.0764   19.8348 F   0  0  0  0  0  0  0  0  0  0  0  0
  1  2  1  0  0  0  0
  1  5  2  0  0  0  0
  2  6  2  0  0  0  0
  3  8  2  0  0  0  0
  3 17  1  0  0  0  0
  4  9  1  0  0  0  0
  4 17  2  0  0  0  0
  5 19  1  0  0  0  0
  6 21  1  0  0  0  0
  7 10  2  0  0  0  0
  7 20  1  0  0  0  0
  8 24  1  0  0  0  0
  9 24  2  0  0  0  0
 10 25  1  0  0  0  0
 11 12  2  0  0  0  0
 11 26  1  0  0  0  0
 12 27  1  0  0  0  0
 13 22  1  0  0  0  0
 13 25  2  0  0  0  0
 14 23  1  0  0  0  0
 14 30  2  0  0  0  0
 15 23  2  0  0  0  0
 15 31  1  0  0  0  0
 16 27  2  0  0  0  0
 16 28  1  0  0  0  0
 17 29  1  0  0  0  0
 18 29  1  0  0  0  0
 18 32  2  0  0  0  0
 18 33  1  0  0  0  0
 19 21  2  0  0  0  0
 19 38  1  0  0  0  0
 20 22  2  0  0  0  0
 20 39  1  0  0  0  0
 21 47  1  0  0  0  0
 22 40  1  0  0  0  0
 23 59  1  0  0  0  0
 24 86  1  0  0  0  0
 25 87  1  0  0  0  0
 26 28  2  0  0  0  0
 26 86  1  0  0  0  0
 27 88  1  0  0  0  0
 28 89  1  0  0  0  0
 29 70  2  0  0  0  0
 30 65  1  0  0  0  0
 30 71  1  0  0  0  0
 31 68  1  0  0  0  0
 31 71  2  0  0  0  0
 32 72  1  0  0  0  0
 32 75  1  0  0  0  0
 33 76  1  0  0  0  0
 33 81  2  0  0  0  0
 34 48  1  0  0  0  0
 34 77  1  0  0  0  0
 34 82  2  0  0  0  0
 35 66  1  0  0  0  0
 35 73  1  0  0  0  0
 35 83  2  0  0  0  0
 36 67  1  0  0  0  0
 36 78  1  0  0  0  0
 36 84  2  0  0  0  0
 37 74  1  0  0  0  0
 37 79  1  0  0  0  0
 37 85  2  0  0  0  0
 38 41  1  0  0  0  0
 39 48  1  0  0  0  0
 40 73  1  0  0  0  0
 41 43  1  0  0  0  0
 42 44  1  0  0  0  0
 42 45  1  0  0  0  0
 43 47  1  0  0  0  0
 44 49  1  0  0  0  0
 45 74  1  0  0  0  0
 46 49  1  0  0  0  0
 46 74  1  0  0  0  0
 47 77  1  0  0  0  0
 48 73  1  0  0  0  0
 49 72  1  0  0  0  0
 50 60  1  0  0  0  0
 51 65  1  0  0  0  0
 52 65  1  0  0  0  0
 53 67  1  0  0  0  0
 54 68  1  0  0  0  0
 55 69  1  0  0  0  0
 56 69  1  0  0  0  0
 57 69  1  0  0  0  0
 58 80  1  0  0  0  0
 59 61  1  0  0  0  0
 60 68  1  0  0  0  0
 61 62  1  0  0  0  0
 62 64  1  0  0  0  0
 63 68  1  0  0  0  0
 63 79  1  0  0  0  0
 64 87  1  0  0  0  0
 66 69  1  0  0  0  0
 66 78  1  0  0  0  0
 67 80  1  0  0  0  0
 70 72  1  0  0  0  0
M  CHG  1  80   1
M  ISO  4  37 100  64 101  79 100  87 101
M  END
> <Batch ID>
0096

> <Smiles>
CCC(C)(C[100NH:0][100C:0](=O)N1CCCC(n2nc(-c3ccc(Oc4ccc(F)cc4F)cc3)c(C(N)=O)c2N)C1)c1cc(CCC[101CH2:1][101O:1]c2ccc3c(c2)CN(C(=O)C(NC(=O)C(C)NC)C(C)(C)C)C(C(=O)NC2CCCc4ccccc42)C3)cc(C(C)C)n1

> <Shape>
0.224

> <Color>
0.075

> <Negative vol penalty>
0.000

$$$$

  -OEChem-04052319243D

 83 90  0     1  0  0  0  0  0999 V2000
  -16.7375  -27.2074   21.0543 C   0  0  0  0  0  0  0  0  0  0  0  0
  -17.9427  -27.3024   20.3660 C   0  0  0  0  0  0  0  0  0  0  0  0
  -27.2670  -12.3223   22.0431 C   0  0  0  0  0  0  0  0  0  0  0  0
  -27.5256  -13.0675   19.7595 C   0  0  0  0  0  0  0  0  0  0  0  0
  -16.5950  -27.8244   22.2965 C   0  0  0  0  0  0  0  0  0  0  0  0
  -19.0059  -28.0153   20.9190 C   0  0  0  0  0  0  0  0  0  0  0  0
  -23.4135  -25.5544   20.5168 C   0  0  0  0  0  0  0  0  0  0  0  0
  -26.5000  -11.2431   21.6041 C   0  0  0  0  0  0  0  0  0  0  0  0
  -26.7586  -11.9883   19.3204 C   0  0  0  0  0  0  0  0  0  0  0  0
  -24.0484  -25.5842   19.2759 C   0  0  0  0  0  0  0  0  0  0  0  0
  -23.3219  -10.6945   20.5927 C   0  0  0  0  0  0  0  0  0  0  0  0
  -22.1482  -10.4083   21.2899 C   0  0  0  0  0  0  0  0  0  0  0  0
  -25.5160  -27.3239   20.0753 C   0  0  0  0  0  0  0  0  0  0  0  0
  -22.9961   -8.2074   21.8139 C   0  0  0  0  0  0  0  0  0  0  0  0
  -27.7797  -13.2345   21.1208 C   0  0  0  0  0  0  0  0  0  0  0  0
  -29.9686  -14.3871   21.7438 C   0  0  0  0  0  0  0  0  0  0  0  0
  -17.6600  -28.5372   22.8694 C   0  0  0  0  0  0  0  0  0  0  0  0
  -23.8186  -26.4182   21.5445 C   0  0  0  0  0  0  0  0  0  0  0  0
  -18.8770  -28.6436   22.1694 C   0  0  0  0  0  0  0  0  0  0  0  0
  -24.8863  -27.3013   21.3291 C   0  0  0  0  0  0  0  0  0  0  0  0
  -26.2458  -11.0761   20.2428 C   0  0  0  0  0  0  0  0  0  0  0  0
  -25.0979  -26.4710   19.0541 C   0  0  0  0  0  0  0  0  0  0  0  0
  -24.3327   -9.7371   20.5059 C   0  0  0  0  0  0  0  0  0  0  0  0
  -21.9853   -9.1648   21.9006 C   0  0  0  0  0  0  0  0  0  0  0  0
  -24.1698   -8.4936   21.1166 C   0  0  0  0  0  0  0  0  0  0  0  0
  -28.5716  -14.3498   21.5737 C   0  0  0  0  0  0  0  0  0  0  0  0
  -30.2265  -15.6610   22.1879 C   0  0  0  0  0  0  0  0  0  0  0  0
  -30.9457  -13.3619   21.5204 C   0  0  0  0  0  0  0  0  0  0  0  0
  -22.4262  -28.7534   23.1913 C   0  0  0  0  0  0  0  0  0  0  0  0
  -25.1932  -28.6820   24.8827 C   0  0  0  0  0  0  0  0  0  0  0  0
  -28.5122  -27.8929   24.9761 C   0  0  0  0  0  0  0  0  0  0  0  0
  -27.3072  -20.8550   21.5950 C   0  0  0  0  0  0  0  0  0  0  0  0
  -17.4432  -29.2271   24.1929 C   0  0  0  0  0  0  0  0  0  0  0  0
  -23.1410  -26.3551   22.8859 C   0  0  0  0  0  0  0  0  0  0  0  0
  -25.3726  -28.2351   22.4061 C   0  0  0  0  0  0  0  0  0  0  0  0
  -18.7398  -29.6483   24.8798 C   0  0  0  0  0  0  0  0  0  0  0  0
  -28.2240  -19.2496   24.6379 C   0  0  0  0  0  0  0  0  0  0  0  0
  -19.6708  -30.3366   23.8868 C   0  0  0  0  0  0  0  0  0  0  0  0
  -28.5431  -17.8152   24.2130 C   0  0  0  0  0  0  0  0  0  0  0  0
  -27.0607  -19.8300   23.8367 C   0  0  0  0  0  0  0  0  0  0  0  0
  -27.5384  -18.3214   21.9473 C   0  0  0  0  0  0  0  0  0  0  0  0
  -20.0614  -29.3872   22.7476 C   0  0  1  0  0  0  0  0  0  0  0  0
  -23.2981  -27.6385   23.6956 C   0  0  1  0  0  0  0  0  0  0  0  0
  -28.7411  -17.7128   22.6886 C   0  0  2  0  0  0  0  0  0  0  0  0
  -31.3463  -24.2768   21.6379 C   0  0  0  0  0  0  0  0  0  0  0  0
  -29.4890  -20.5817   17.2525 C   0  0  0  0  0  0  0  0  0  0  0  0
  -30.5174  -27.9859   26.4820 C   0  0  0  0  0  0  0  0  0  0  0  0
  -27.2793  -28.1541   17.0268 C   0  0  0  0  0  0  0  0  0  0  0  0
  -25.4443  -31.6775   24.3595 C   0  0  0  0  0  0  0  0  0  0  0  0
  -27.8511  -31.5224   25.0311 C   0  0  0  0  0  0  0  0  0  0  0  0
  -26.0605  -30.9681   26.6771 C   0  0  0  0  0  0  0  0  0  0  0  0
  -28.8222  -24.9499   24.9377 C   0  0  0  0  0  0  0  0  0  0  0  0
  -30.9401  -23.6417   20.3151 C   0  0  0  0  0  0  0  0  0  0  0  0
  -29.9240  -21.2606   18.5467 C   0  0  0  0  0  0  0  0  0  0  0  0
  -29.5463  -23.0083   20.4098 C   0  0  0  0  0  0  0  0  0  0  0  0
  -27.5949  -21.7342   19.2921 C   0  0  0  0  0  0  0  0  0  0  0  0
  -27.9280  -25.6982   17.3296 C   0  0  0  0  0  0  0  0  0  0  0  0
  -28.9127  -23.4992   17.9881 C   0  0  0  0  0  0  0  0  0  0  0  0
  -26.5312  -29.3725   24.7733 C   0  0  1  0  0  0  0  0  0  0  0  0
  -29.3416  -27.1471   26.0059 C   0  0  2  0  0  0  0  0  0  0  0  0
  -27.0987  -26.8749   17.8336 C   0  0  2  0  0  0  0  0  0  1  0  0
  -26.4616  -30.8690   25.1891 C   0  0  0  0  0  0  0  0  0  0  0  0
  -28.9907  -22.3979   19.0851 C   0  0  2  0  0  0  0  0  0  0  0  0
  -27.9832  -15.5079   21.8845 N   0  0  0  0  0  0  0  0  0  0  0  0
  -29.0155  -16.2849   22.2545 N   0  0  0  0  0  0  0  0  0  0  0  0
  -24.6738  -28.1401   23.6985 N   0  0  0  0  0  0  0  0  0  0  0  0
  -27.3118  -19.7032   22.3990 N   0  0  0  0  0  0  0  0  0  0  0  0
  -31.3688  -16.2971   22.5241 N   0  0  0  0  0  0  0  0  0  0  0  0
  -30.5091  -12.1110   21.0635 N   0  0  0  0  0  0  0  0  0  0  0  0
  -21.0767  -28.4562   23.1912 N   0  0  0  0  0  0  0  0  0  0  0  0
  -27.4669  -28.5765   25.5603 N   0  0  0  0  0  0  0  0  0  0  0  0
  -27.5602  -20.6469   20.2446 N   0  0  0  0  0  0  0  0  0  0  0  0
  -29.8719  -25.8811   25.4254 N   0  3  0  0  0  0  0  0  0  0  0  0
  -28.0730  -24.6559   18.3826 N   0  3  0  0  0  0  0  0  0  0  0  0
  -32.1679  -13.5445   21.7357 O   0  0  0  0  0  0  0  0  0  0  0  0
  -22.9396  -29.8059   22.8304 O   0  0  0  0  0  0  0  0  0  0  0  0
  -24.6330  -28.6192   25.9799 O   0  0  0  0  0  0  0  0  0  0  0  0
  -28.7683  -27.8741   23.7742 O   0  0  0  0  0  0  0  0  0  0  0  0
  -27.0988  -21.9856   22.0479 O   0  0  0  0  0  0  0  0  0  0  0  0
  -25.4976  -10.0230   19.8140 O   0  0  0  0  0  0  0  0  0  0  0  0
  -25.7226  -26.5027   17.8366 O   0  0  0  0  0  0  0  0  0  1  0  0
  -20.8589   -8.8907   22.5714 F   0  0  0  0  0  0  0  0  0  0  0  0
  -25.1379   -7.5703   21.0377 F   0  0  0  0  0  0  0  0  0  0  0  0
  1  2  1  0  0  0  0
  1  5  2  0  0  0  0
  2  6  2  0  0  0  0
  3  8  2  0  0  0  0
  3 15  1  0  0  0  0
  4  9  1  0  0  0  0
  4 15  2  0  0  0  0
  5 17  1  0  0  0  0
  6 19  1  0  0  0  0
  7 10  2  0  0  0  0
  7 18  1  0  0  0  0
  8 21  1  0  0  0  0
  9 21  2  0  0  0  0
 10 22  1  0  0  0  0
 11 12  2  0  0  0  0
 11 23  1  0  0  0  0
 12 24  1  0  0  0  0
 13 20  1  0  0  0  0
 13 22  2  0  0  0  0
 14 24  2  0  0  0  0
 14 25  1  0  0  0  0
 15 26  1  0  0  0  0
 16 26  1  0  0  0  0
 16 27  2  0  0  0  0
 16 28  1  0  0  0  0
 17 19  2  0  0  0  0
 17 33  1  0  0  0  0
 18 20  2  0  0  0  0
 18 34  1  0  0  0  0
 19 42  1  0  0  0  0
 20 35  1  0  0  0  0
 21 80  1  0  0  0  0
 22 81  1  0  0  0  0
 23 25  2  0  0  0  0
 23 80  1  0  0  0  0
 24 82  1  0  0  0  0
 25 83  1  0  0  0  0
 26 64  2  0  0  0  0
 27 65  1  0  0  0  0
 27 68  1  0  0  0  0
 28 69  1  0  0  0  0
 28 75  2  0  0  0  0
 29 43  1  0  0  0  0
 29 70  1  0  0  0  0
 29 76  2  0  0  0  0
 30 59  1  0  0  0  0
 30 66  1  0  0  0  0
 30 77  2  0  0  0  0
 31 60  1  0  0  0  0
 31 71  1  0  0  0  0
 31 78  2  0  0  0  0
 32 67  1  0  0  0  0
 32 72  1  0  0  0  0
 32 79  2  0  0  0  0
 33 36  1  0  0  0  0
 34 43  1  0  0  0  0
 35 66  1  0  0  0  0
 36 38  1  0  0  0  0
 37 39  1  0  0  0  0
 37 40  1  0  0  0  0
 38 42  1  0  0  0  0
 39 44  1  0  0  0  0
 40 67  1  0  0  0  0
 41 44  1  0  0  0  0
 41 67  1  0  0  0  0
 42 70  1  0  0  0  0
 43 66  1  0  0  0  0
 44 65  1  0  0  0  0
 45 53  1  0  0  0  0
 46 54  1  0  0  0  0
 47 60  1  0  0  0  0
 48 61  1  0  0  0  0
 49 62  1  0  0  0  0
 50 62  1  0  0  0  0
 51 62  1  0  0  0  0
 52 73  1  0  0  0  0
 53 55  1  0  0  0  0
 54 63  1  0  0  0  0
 55 63  1  0  0  0  0
 56 63  1  0  0  0  0
 56 72  1  0  0  0  0
 57 61  1  0  0  0  0
 57 74  1  0  0  0  0
 58 63  1  0  0  0  0
 58 74  1  0  0  0  0
 59 62  1  0  0  0  0
 59 71  1  0  0  0  0
 60 73  1  0  0  0  0
 61 81  1  0  0  0  0
 64 65  1  0  0  0  0
M  CHG  2  73   1  74   1
M  ISO  4  32 100  61 101  72 100  81 101
M  END
> <Batch ID>
0096

> <Smiles>
CCCC(CC)(CNC[101CH:1](C)[101O:1]c1ccc2c(c1)CN(C(=O)C(NC(=O)C(C)NC)C(C)(C)C)C(C(=O)NC1CCCc3ccccc31)C2)C[100NH:0][100C:0](=O)N1CCCC(n2nc(-c3ccc(Oc4ccc(F)cc4F)cc3)c(C(N)=O)c2N)C1

> <Shape>
0.262

> <Color>
0.053

> <Negative vol penalty>
0.000

$$$$

  -OEChem-04052319243D

 84 92  0     1  0  0  0  0  0999 V2000
  -29.0538   -9.6567   16.7502 C   0  0  0  0  0  0  0  0  0  0  0  0
  -27.9201  -10.4297   16.5206 C   0  0  0  0  0  0  0  0  0  0  0  0
  -27.0185  -31.0497   22.2666 C   0  0  0  0  0  0  0  0  0  0  0  0
  -26.4485  -29.1701   23.6735 C   0  0  0  0  0  0  0  0  0  0  0  0
  -29.8428   -9.8954   17.8746 C   0  0  0  0  0  0  0  0  0  0  0  0
  -27.5742  -11.4412   17.4159 C   0  0  0  0  0  0  0  0  0  0  0  0
  -24.9689  -16.8175   16.0692 C   0  0  0  0  0  0  0  0  0  0  0  0
  -21.0075  -21.8794   19.4313 C   0  0  0  0  0  0  0  0  0  0  0  0
  -27.4272  -31.7672   23.3907 C   0  0  0  0  0  0  0  0  0  0  0  0
  -26.8573  -29.8876   24.7977 C   0  0  0  0  0  0  0  0  0  0  0  0
  -23.6484  -17.2608   16.1282 C   0  0  0  0  0  0  0  0  0  0  0  0
  -28.2842  -34.2247   25.9304 C   0  0  0  0  0  0  0  0  0  0  0  0
  -27.8729  -35.5531   26.0386 C   0  0  0  0  0  0  0  0  0  0  0  0
  -20.7831  -23.0173   20.1982 C   0  0  0  0  0  0  0  0  0  0  0  0
  -24.0729  -18.2173   18.3017 C   0  0  0  0  0  0  0  0  0  0  0  0
  -25.5645  -34.8410   26.0062 C   0  0  0  0  0  0  0  0  0  0  0  0
  -26.5291  -29.7511   22.4080 C   0  0  0  0  0  0  0  0  0  0  0  0
  -26.8963  -28.1672   20.4423 C   0  0  0  0  0  0  0  0  0  0  0  0
  -29.5118  -10.9167   18.7791 C   0  0  0  0  0  0  0  0  0  0  0  0
  -25.8498  -17.0617   17.1326 C   0  0  0  0  0  0  0  0  0  0  0  0
  -28.3588  -11.6929   18.5542 C   0  0  0  0  0  0  0  0  0  0  0  0
  -25.4048  -17.7782   18.2527 C   0  0  0  0  0  0  0  0  0  0  0  0
  -20.1496  -21.5760   18.3800 C   0  0  0  0  0  0  0  0  0  0  0  0
  -27.3466  -31.1862   24.6563 C   0  0  0  0  0  0  0  0  0  0  0  0
  -23.1994  -17.9583   17.2458 C   0  0  0  0  0  0  0  0  0  0  0  0
  -27.3357  -33.2044   25.8600 C   0  0  0  0  0  0  0  0  0  0  0  0
  -26.5131  -35.8613   26.0765 C   0  0  0  0  0  0  0  0  0  0  0  0
  -25.9758  -33.5125   25.8979 C   0  0  0  0  0  0  0  0  0  0  0  0
  -26.1062  -29.0096   21.2472 C   0  0  0  0  0  0  0  0  0  0  0  0
  -19.6955  -23.8127   19.8755 C   0  0  0  0  0  0  0  0  0  0  0  0
  -19.0903  -22.4359   18.1388 C   0  0  0  0  0  0  0  0  0  0  0  0
  -26.0339  -27.7059   19.4780 C   0  0  0  0  0  0  0  0  0  0  0  0
  -28.2856  -27.8317   20.5560 C   0  0  0  0  0  0  0  0  0  0  0  0
  -27.4909  -15.2346   19.1507 C   0  0  0  0  0  0  0  0  0  0  0  0
  -28.7468  -18.0745   20.0889 C   0  0  0  0  0  0  0  0  0  0  0  0
  -28.4039  -21.4629   20.3086 C   0  0  0  0  0  0  0  0  0  0  0  0
  -20.0888  -27.0120   19.3196 C   0  0  0  0  0  0  0  0  0  0  0  0
  -30.3689  -11.1062   20.0055 C   0  0  0  0  0  0  0  0  0  0  0  0
  -27.2785  -16.6001   17.0420 C   0  0  0  0  0  0  0  0  0  0  0  0
  -26.3163  -18.0839   19.4121 C   0  0  0  0  0  0  0  0  0  0  0  0
  -30.1418  -12.4429   20.7067 C   0  0  0  0  0  0  0  0  0  0  0  0
  -22.0786  -28.9461   17.0888 C   0  0  0  0  0  0  0  0  0  0  0  0
  -28.6493  -12.7196   20.8580 C   0  0  0  0  0  0  0  0  0  0  0  0
  -23.4077  -29.1057   17.8290 C   0  0  0  0  0  0  0  0  0  0  0  0
  -20.8908  -28.9808   18.0480 C   0  0  0  0  0  0  0  0  0  0  0  0
  -22.2987  -28.1818   19.9063 C   0  0  0  0  0  0  0  0  0  0  0  0
  -27.9645  -12.8156   19.4892 C   0  0  1  0  0  0  0  0  0  0  0  0
  -27.9478  -16.4568   18.4055 C   0  0  1  0  0  0  0  0  0  0  0  0
  -23.5292  -28.0971   18.9871 C   0  0  2  0  0  0  0  0  0  0  0  0
  -18.1384  -22.1620   17.0208 C   0  0  0  0  0  0  0  0  0  0  0  0
  -18.9010  -18.8180   19.0625 C   0  0  0  0  0  0  0  0  0  0  0  0
  -29.5782  -23.5105   21.1604 C   0  0  0  0  0  0  0  0  0  0  0  0
  -20.6266  -20.6171   16.0245 C   0  0  0  0  0  0  0  0  0  0  0  0
  -27.9485  -17.3427   22.9415 C   0  0  0  0  0  0  0  0  0  0  0  0
  -28.2608  -19.7456   23.5711 C   0  0  0  0  0  0  0  0  0  0  0  0
  -30.1972  -18.4166   22.7304 C   0  0  0  0  0  0  0  0  0  0  0  0
  -28.5600  -22.6423   17.5987 C   0  0  0  0  0  0  0  0  0  0  0  0
  -19.4259  -25.0426   20.6766 C   0  0  0  0  0  0  0  0  0  0  0  0
  -19.1907  -19.3236   17.6519 C   0  0  0  0  0  0  0  0  0  0  0  0
  -21.6597  -19.5803   18.0546 C   0  0  0  0  0  0  0  0  0  1  0  0
  -28.3812  -19.1176   21.1171 C   0  0  1  0  0  0  0  0  0  0  0  0
  -29.3546  -22.5958   19.9662 C   0  0  2  0  0  0  0  0  0  0  0  0
  -20.3925  -20.3146   17.5265 C   0  0  2  0  0  0  0  0  0  0  0  0
  -28.6790  -18.6483   22.5692 C   0  0  0  0  0  0  0  0  0  0  0  0
  -24.8393  -29.0812   20.8304 N   0  0  0  0  0  0  0  0  0  0  0  0
  -18.8403  -23.5504   18.8619 N   0  0  0  0  0  0  0  0  0  0  0  0
  -24.8267  -28.2780   19.7531 N   0  0  0  0  0  0  0  0  0  0  0  0
  -27.7025  -17.6061   19.2791 N   0  0  0  0  0  0  0  0  0  0  0  0
  -21.0673  -28.0000   19.1217 N   0  0  0  0  0  0  0  0  0  0  0  0
  -26.1979  -26.8708   18.4301 N   0  0  0  0  0  0  0  0  0  0  0  0
  -29.0250  -28.3940   21.6055 N   0  0  0  0  0  0  0  0  0  0  0  0
  -28.2321  -14.1004   18.8793 N   0  0  0  0  0  0  0  0  0  0  0  0
  -29.0809  -20.3372   20.7280 N   0  0  0  0  0  0  0  0  0  0  0  0
  -20.3368  -26.1183   20.3543 N   0  0  0  0  0  0  0  0  0  0  0  0
  -28.8064  -23.4112   18.8457 N   0  3  0  0  0  0  0  0  0  0  0  0
  -28.8584  -27.0691   19.7413 O   0  0  0  0  0  0  0  0  0  0  0  0
  -26.5376  -15.3151   19.9164 O   0  0  0  0  0  0  0  0  0  0  0  0
  -29.9172  -17.6946   20.0026 O   0  0  0  0  0  0  0  0  0  0  0  0
  -27.1828  -21.5673   20.2169 O   0  0  0  0  0  0  0  0  0  0  0  0
  -19.0720  -26.9289   18.6222 O   0  0  0  0  0  0  0  0  0  0  0  0
  -27.7456  -31.8860   25.7534 O   0  0  0  0  0  0  0  0  0  0  0  0
  -21.9108  -18.3916   17.3062 O   0  0  0  0  0  0  0  0  0  1  0  0
  -26.1182  -37.1369   26.1820 F   0  0  0  0  0  0  0  0  0  0  0  0
  -25.0599  -32.5366   25.8319 F   0  0  0  0  0  0  0  0  0  0  0  0
  1  2  1  0  0  0  0
  1  5  2  0  0  0  0
  2  6  2  0  0  0  0
  3  9  2  0  0  0  0
  3 17  1  0  0  0  0
  4 10  1  0  0  0  0
  4 17  2  0  0  0  0
  5 19  1  0  0  0  0
  6 21  1  0  0  0  0
  7 11  2  0  0  0  0
  7 20  1  0  0  0  0
  8 14  2  0  0  0  0
  8 23  1  0  0  0  0
  9 24  1  0  0  0  0
 10 24  2  0  0  0  0
 11 25  1  0  0  0  0
 12 13  2  0  0  0  0
 12 26  1  0  0  0  0
 13 27  1  0  0  0  0
 14 30  1  0  0  0  0
 15 22  1  0  0  0  0
 15 25  2  0  0  0  0
 16 27  2  0  0  0  0
 16 28  1  0  0  0  0
 17 29  1  0  0  0  0
 18 29  1  0  0  0  0
 18 32  2  0  0  0  0
 18 33  1  0  0  0  0
 19 21  2  0  0  0  0
 19 38  1  0  0  0  0
 20 22  2  0  0  0  0
 20 39  1  0  0  0  0
 21 47  1  0  0  0  0
 22 40  1  0  0  0  0
 23 31  2  0  0  0  0
 23 63  1  0  0  0  0
 24 81  1  0  0  0  0
 25 82  1  0  0  0  0
 26 28  2  0  0  0  0
 26 81  1  0  0  0  0
 27 83  1  0  0  0  0
 28 84  1  0  0  0  0
 29 65  2  0  0  0  0
 30 58  1  0  0  0  0
 30 66  2  0  0  0  0
 31 50  1  0  0  0  0
 31 66  1  0  0  0  0
 32 67  1  0  0  0  0
 32 70  1  0  0  0  0
 33 71  1  0  0  0  0
 33 76  2  0  0  0  0
 34 48  1  0  0  0  0
 34 72  1  0  0  0  0
 34 77  2  0  0  0  0
 35 61  1  0  0  0  0
 35 68  1  0  0  0  0
 35 78  2  0  0  0  0
 36 62  1  0  0  0  0
 36 73  1  0  0  0  0
 36 79  2  0  0  0  0
 37 69  1  0  0  0  0
 37 74  1  0  0  0  0
 37 80  2  0  0  0  0
 38 41  1  0  0  0  0
 39 48  1  0  0  0  0
 40 68  1  0  0  0  0
 41 43  1  0  0  0  0
 42 44  1  0  0  0  0
 42 45  1  0  0  0  0
 43 47  1  0  0  0  0
 44 49  1  0  0  0  0
 45 69  1  0  0  0  0
 46 49  1  0  0  0  0
 46 69  1  0  0  0  0
 47 72  1  0  0  0  0
 48 68  1  0  0  0  0
 49 67  1  0  0  0  0
 51 59  1  0  0  0  0
 52 62  1  0  0  0  0
 53 63  1  0  0  0  0
 54 64  1  0  0  0  0
 55 64  1  0  0  0  0
 56 64  1  0  0  0  0
 57 75  1  0  0  0  0
 58 74  1  0  0  0  0
 59 63  1  0  0  0  0
 60 63  1  0  0  0  0
 60 82  1  0  0  0  0
 61 64  1  0  0  0  0
 61 73  1  0  0  0  0
 62 75  1  0  0  0  0
 65 67  1  0  0  0  0
M  CHG  1  75   1
M  ISO  4  37 100  60 101  74 100  82 101
M  END
> <Batch ID>
0096

> <Smiles>
CCC(C)(c1ccc(C[100NH:0][100C:0](=O)N2CCCC(n3nc(-c4ccc(Oc5ccc(F)cc5F)cc4)c(C(N)=O)c3N)C2)nc1C)[101CH2:1][101O:1]c1ccc2c(c1)CN(C(=O)C(NC(=O)C(C)NC)C(C)(C)C)C(C(=O)NC1CCCc3ccccc31)C2

> <Shape>
0.244

> <Color>
0.057

> <Negative vol penalty>
0.000

$$$$

  -OEChem-04052319243D

 86 94  0     1  0  0  0  0  0999 V2000
  -24.1193  -25.5593   23.6835 C   0  0  0  0  0  0  0  0  0  0  0  0
  -24.9671  -24.4648   23.5461 C   0  0  0  0  0  0  0  0  0  0  0  0
  -23.1747   -9.8134   19.9417 C   0  0  0  0  0  0  0  0  0  0  0  0
  -23.5713   -9.9994   22.3176 C   0  0  0  0  0  0  0  0  0  0  0  0
  -23.0111  -25.6904   22.8477 C   0  0  0  0  0  0  0  0  0  0  0  0
  -24.7065  -23.5002   22.5734 C   0  0  0  0  0  0  0  0  0  0  0  0
  -28.8627  -22.1475   20.0160 C   0  0  0  0  0  0  0  0  0  0  0  0
  -22.4078   -8.6689   20.1593 C   0  0  0  0  0  0  0  0  0  0  0  0
  -22.8044   -8.8548   22.5352 C   0  0  0  0  0  0  0  0  0  0  0  0
  -29.7390  -21.2650   20.6461 C   0  0  0  0  0  0  0  0  0  0  0  0
  -23.1968   -5.5067   22.2771 C   0  0  0  0  0  0  0  0  0  0  0  0
  -23.7000   -4.5467   23.1551 C   0  0  0  0  0  0  0  0  0  0  0  0
  -28.8093  -19.4407   19.3705 C   0  0  0  0  0  0  0  0  0  0  0  0
  -21.7545   -4.8143   24.5625 C   0  0  0  0  0  0  0  0  0  0  0  0
  -23.7566  -10.4787   21.0208 C   0  0  0  0  0  0  0  0  0  0  0  0
  -24.0984  -12.9940   20.7678 C   0  0  0  0  0  0  0  0  0  0  0  0
  -22.7421  -24.7319   21.8580 C   0  0  0  0  0  0  0  0  0  0  0  0
  -27.9442  -21.6808   19.0647 C   0  0  0  0  0  0  0  0  0  0  0  0
  -23.5928  -23.6180   21.7245 C   0  0  0  0  0  0  0  0  0  0  0  0
  -27.9242  -20.3198   18.7279 C   0  0  0  0  0  0  0  0  0  0  0  0
  -31.0631  -16.0773   22.4198 C   0  0  0  0  0  0  0  0  0  0  0  0
  -32.0062  -15.3578   23.1451 C   0  0  0  0  0  0  0  0  0  0  0  0
  -31.4735  -16.8846   21.3648 C   0  0  0  0  0  0  0  0  0  0  0  0
  -22.2226   -8.1896   21.4560 C   0  0  0  0  0  0  0  0  0  0  0  0
  -29.7104  -19.9109   20.3255 C   0  0  0  0  0  0  0  0  0  0  0  0
  -21.9726   -6.1206   22.5418 C   0  0  0  0  0  0  0  0  0  0  0  0
  -22.9788   -4.2005   24.2978 C   0  0  0  0  0  0  0  0  0  0  0  0
  -21.2514   -5.7743   23.6845 C   0  0  0  0  0  0  0  0  0  0  0  0
  -24.5494  -11.6607   20.7966 C   0  0  0  0  0  0  0  0  0  0  0  0
  -33.3368  -15.4790   22.7783 C   0  0  0  0  0  0  0  0  0  0  0  0
  -32.8280  -16.9377   21.0779 C   0  0  0  0  0  0  0  0  0  0  0  0
  -25.2292  -13.7338   20.5219 C   0  0  0  0  0  0  0  0  0  0  0  0
  -22.7755  -13.5170   20.9472 C   0  0  0  0  0  0  0  0  0  0  0  0
  -24.7734  -21.6181   18.8506 C   0  0  0  0  0  0  0  0  0  0  0  0
  -25.3861  -20.4895   15.8718 C   0  0  0  0  0  0  0  0  0  0  0  0
  -27.5500  -18.9028   13.7631 C   0  0  0  0  0  0  0  0  0  0  0  0
  -31.0497  -12.7350   21.5098 C   0  0  0  0  0  0  0  0  0  0  0  0
  -21.5056  -24.8920   21.0094 C   0  0  0  0  0  0  0  0  0  0  0  0
  -27.0239  -22.6499   18.3746 C   0  0  0  0  0  0  0  0  0  0  0  0
  -26.9711  -19.7715   17.6987 C   0  0  0  0  0  0  0  0  0  0  0  0
  -21.5099  -24.0203   19.7562 C   0  0  0  0  0  0  0  0  0  0  0  0
  -29.5000  -13.4470   18.3844 C   0  0  0  0  0  0  0  0  0  0  0  0
  -21.9327  -22.5953   20.0985 C   0  0  0  0  0  0  0  0  0  0  0  0
  -28.0148  -13.1903   18.6456 C   0  0  0  0  0  0  0  0  0  0  0  0
  -30.3851  -12.4579   19.1396 C   0  0  0  0  0  0  0  0  0  0  0  0
  -28.6438  -12.1232   20.8511 C   0  0  0  0  0  0  0  0  0  0  0  0
  -23.3574  -22.5635   20.6649 C   0  0  1  0  0  0  0  0  0  0  0  0
  -25.7795  -21.9835   17.7961 C   0  0  1  0  0  0  0  0  0  0  0  0
  -27.7130  -13.1309   20.1551 C   0  0  2  0  0  0  0  0  0  0  0  0
  -33.3300  -17.7890   19.9578 C   0  0  0  0  0  0  0  0  0  0  0  0
  -35.7982  -15.2287   23.1852 C   0  0  0  0  0  0  0  0  0  0  0  0
  -27.6485  -17.1430   23.8726 C   0  0  0  0  0  0  0  0  0  0  0  0
  -27.7558  -18.0899   11.3978 C   0  0  0  0  0  0  0  0  0  0  0  0
  -23.5645  -18.1309   16.5264 C   0  0  0  0  0  0  0  0  0  0  0  0
  -24.5432  -16.9206   14.5653 C   0  0  0  0  0  0  0  0  0  0  0  0
  -23.2917  -19.0501   14.2166 C   0  0  0  0  0  0  0  0  0  0  0  0
  -29.8742  -20.6585   13.2393 C   0  0  0  0  0  0  0  0  0  0  0  0
  -29.6130  -15.9853   22.7742 C   0  0  0  0  0  0  0  0  0  0  0  0
  -31.5964  -14.4823   24.2816 C   0  0  0  0  0  0  0  0  0  0  0  0
  -30.4805  -17.6734   20.5629 C   0  0  0  0  0  0  0  0  0  1  0  0
  -34.3956  -14.7305   23.5199 C   0  0  0  0  0  0  0  0  0  0  0  0
  -29.1305  -17.2234   23.5422 C   0  0  0  0  0  0  0  0  0  0  0  0
  -31.5586  -12.9916   23.9252 C   0  0  0  0  0  0  0  0  0  0  0  0
  -25.5899  -19.1210   15.2679 C   0  0  1  0  0  0  0  0  0  0  0  0
  -28.0169  -19.2397   12.3584 C   0  0  2  0  0  0  0  0  0  0  0  0
  -24.2641  -18.3154   15.1649 C   0  0  0  0  0  0  0  0  0  0  0  0
  -25.8642  -11.5565   20.5858 N   0  0  0  0  0  0  0  0  0  0  0  0
  -33.7736  -16.2532   21.7598 N   0  0  0  0  0  0  0  0  0  0  0  0
  -26.2490  -12.8337   20.4220 N   0  0  0  0  0  0  0  0  0  0  0  0
  -26.0869  -20.7578   17.0562 N   0  0  0  0  0  0  0  0  0  0  0  0
  -30.0493  -12.4513   20.5654 N   0  0  0  0  0  0  0  0  0  0  0  0
  -25.4407  -15.0598   20.3835 N   0  0  0  0  0  0  0  0  0  0  0  0
  -21.7289  -12.6175   21.1916 N   0  0  0  0  0  0  0  0  0  0  0  0
  -24.3279  -22.6909   19.5990 N   0  0  0  0  0  0  0  0  0  0  0  0
  -26.2603  -19.3344   13.9899 N   0  0  0  0  0  0  0  0  0  0  0  0
  -30.6454  -12.7140   22.8390 N   0  0  0  0  0  0  0  0  0  0  0  0
  -29.4781  -19.5328   12.3546 N   0  3  0  0  0  0  0  0  0  0  0  0
  -22.5262  -14.7443   20.8762 O   0  0  0  0  0  0  0  0  0  0  0  0
  -24.4259  -20.4495   18.9750 O   0  0  0  0  0  0  0  0  0  0  0  0
  -24.6386  -21.2935   15.3093 O   0  0  0  0  0  0  0  0  0  0  0  0
  -28.2573  -18.3122   14.5764 O   0  0  0  0  0  0  0  0  0  0  0  0
  -32.2154  -12.9935   21.1916 O   0  0  0  0  0  0  0  0  0  0  0  0
  -21.4741   -7.0729   21.6688 O   0  0  0  0  0  0  0  0  0  0  0  0
  -30.5642  -19.0472   20.9395 O   0  0  0  0  0  0  0  0  0  1  0  0
  -23.4613   -3.2775   25.1400 F   0  0  0  0  0  0  0  0  0  0  0  0
  -20.0741   -6.3598   23.9435 F   0  0  0  0  0  0  0  0  0  0  0  0
  1  2  1  0  0  0  0
  1  5  2  0  0  0  0
  2  6  2  0  0  0  0
  3  8  2  0  0  0  0
  3 15  1  0  0  0  0
  4  9  1  0  0  0  0
  4 15  2  0  0  0  0
  5 17  1  0  0  0  0
  6 19  1  0  0  0  0
  7 10  2  0  0  0  0
  7 18  1  0  0  0  0
  8 24  1  0  0  0  0
  9 24  2  0  0  0  0
 10 25  1  0  0  0  0
 11 12  2  0  0  0  0
 11 26  1  0  0  0  0
 12 27  1  0  0  0  0
 13 20  1  0  0  0  0
 13 25  2  0  0  0  0
 14 27  2  0  0  0  0
 14 28  1  0  0  0  0
 15 29  1  0  0  0  0
 16 29  1  0  0  0  0
 16 32  2  0  0  0  0
 16 33  1  0  0  0  0
 17 19  2  0  0  0  0
 17 38  1  0  0  0  0
 18 20  2  0  0  0  0
 18 39  1  0  0  0  0
 19 47  1  0  0  0  0
 20 40  1  0  0  0  0
 21 22  1  0  0  0  0
 21 23  2  0  0  0  0
 21 58  1  0  0  0  0
 22 30  2  0  0  0  0
 22 59  1  0  0  0  0
 23 31  1  0  0  0  0
 23 60  1  0  0  0  0
 24 83  1  0  0  0  0
 25 84  1  0  0  0  0
 26 28  2  0  0  0  0
 26 83  1  0  0  0  0
 27 85  1  0  0  0  0
 28 86  1  0  0  0  0
 29 67  2  0  0  0  0
 30 61  1  0  0  0  0
 30 68  1  0  0  0  0
 31 50  1  0  0  0  0
 31 68  2  0  0  0  0
 32 69  1  0  0  0  0
 32 72  1  0  0  0  0
 33 73  1  0  0  0  0
 33 78  2  0  0  0  0
 34 48  1  0  0  0  0
 34 74  1  0  0  0  0
 34 79  2  0  0  0  0
 35 64  1  0  0  0  0
 35 70  1  0  0  0  0
 35 80  2  0  0  0  0
 36 65  1  0  0  0  0
 36 75  1  0  0  0  0
 36 81  2  0  0  0  0
 37 71  1  0  0  0  0
 37 76  1  0  0  0  0
 37 82  2  0  0  0  0
 38 41  1  0  0  0  0
 39 48  1  0  0  0  0
 40 70  1  0  0  0  0
 41 43  1  0  0  0  0
 42 44  1  0  0  0  0
 42 45  1  0  0  0  0
 43 47  1  0  0  0  0
 44 49  1  0  0  0  0
 45 71  1  0  0  0  0
 46 49  1  0  0  0  0
 46 71  1  0  0  0  0
 47 74  1  0  0  0  0
 48 70  1  0  0  0  0
 49 69  1  0  0  0  0
 51 61  1  0  0  0  0
 52 62  1  0  0  0  0
 53 65  1  0  0  0  0
 54 66  1  0  0  0  0
 55 66  1  0  0  0  0
 56 66  1  0  0  0  0
 57 77  1  0  0  0  0
 58 62  1  0  0  0  0
 59 63  1  0  0  0  0
 60 84  1  0  0  0  0
 63 76  1  0  0  0  0
 64 66  1  0  0  0  0
 64 75  1  0  0  0  0
 65 77  1  0  0  0  0
 67 69  1  0  0  0  0
M  CHG  1  77   1
M  ISO  4  37 100  60 101  76 100  84 101
M  END
> <Batch ID>
0096

> <Smiles>
CCCc1c(CC[100NH:0][100C:0](=O)N2CCCC(n3nc(-c4ccc(Oc5ccc(F)cc5F)cc4)c(C(N)=O)c3N)C2)c(CC)nc(C)c1[101CH2:1][101O:1]c1ccc2c(c1)CN(C(=O)C(NC(=O)C(C)NC)C(C)(C)C)C(C(=O)NC1CCCc3ccccc31)C2

> <Shape>
0.211

> <Color>
0.180

> <Negative vol penalty>
0.000

$$$$

  -OEChem-04052319243D

 85 93  0     1  0  0  0  0  0999 V2000
  -17.2013  -29.6695   24.3201 C   0  0  0  0  0  0  0  0  0  0  0  0
  -17.9244  -28.4998   24.5303 C   0  0  0  0  0  0  0  0  0  0  0  0
  -24.1236   -9.7375   22.1011 C   0  0  0  0  0  0  0  0  0  0  0  0
  -24.4791  -11.2420   23.9578 C   0  0  0  0  0  0  0  0  0  0  0  0
  -17.4855  -30.4749   23.2180 C   0  0  0  0  0  0  0  0  0  0  0  0
  -18.9315  -28.1341   23.6378 C   0  0  0  0  0  0  0  0  0  0  0  0
  -24.1801  -25.2777   24.9789 C   0  0  0  0  0  0  0  0  0  0  0  0
  -23.7265   -8.7368   22.9880 C   0  0  0  0  0  0  0  0  0  0  0  0
  -24.0820  -10.2414   24.8447 C   0  0  0  0  0  0  0  0  0  0  0  0
  -24.5697  -23.9418   24.8924 C   0  0  0  0  0  0  0  0  0  0  0  0
  -20.9593   -7.9292   24.7554 C   0  0  0  0  0  0  0  0  0  0  0  0
  -19.8178   -7.1945   24.4348 C   0  0  0  0  0  0  0  0  0  0  0  0
  -25.5686  -24.3787   22.7406 C   0  0  0  0  0  0  0  0  0  0  0  0
  -21.1289   -5.1653   24.4167 C   0  0  0  0  0  0  0  0  0  0  0  0
  -27.1838  -19.7716   24.3332 C   0  0  0  0  0  0  0  0  0  0  0  0
  -24.5000  -10.9901   22.5860 C   0  0  0  0  0  0  0  0  0  0  0  0
  -24.0904  -12.9846   21.0493 C   0  0  0  0  0  0  0  0  0  0  0  0
  -18.5031  -30.1239   22.3169 C   0  0  0  0  0  0  0  0  0  0  0  0
  -24.4729  -26.1731   23.9402 C   0  0  0  0  0  0  0  0  0  0  0  0
  -19.2287  -28.9348   22.5219 C   0  0  0  0  0  0  0  0  0  0  0  0
  -25.1840  -25.7260   22.8175 C   0  0  0  0  0  0  0  0  0  0  0  0
  -23.7056   -8.9888   24.3598 C   0  0  0  0  0  0  0  0  0  0  0  0
  -25.2615  -23.4915   23.7719 C   0  0  0  0  0  0  0  0  0  0  0  0
  -22.1857   -7.2820   24.9065 C   0  0  0  0  0  0  0  0  0  0  0  0
  -19.9026   -5.8126   24.2655 C   0  0  0  0  0  0  0  0  0  0  0  0
  -22.2705   -5.9000   24.7372 C   0  0  0  0  0  0  0  0  0  0  0  0
  -24.9109  -12.0240   21.6704 C   0  0  0  0  0  0  0  0  0  0  0  0
  -27.5814  -18.4724   24.0920 C   0  0  0  0  0  0  0  0  0  0  0  0
  -25.8278  -19.9582   24.5084 C   0  0  0  0  0  0  0  0  0  0  0  0
  -24.9533  -13.7287   20.2822 C   0  0  0  0  0  0  0  0  0  0  0  0
  -25.4332  -17.7392   24.2127 C   0  0  0  0  0  0  0  0  0  0  0  0
  -22.6750  -13.1865   21.1562 C   0  0  0  0  0  0  0  0  0  0  0  0
  -22.7388  -27.9363   21.9432 C   0  0  0  0  0  0  0  0  0  0  0  0
  -25.6387  -29.0962   21.0672 C   0  0  0  0  0  0  0  0  0  0  0  0
  -29.0126  -28.6193   20.8764 C   0  0  0  0  0  0  0  0  0  0  0  0
  -30.8242  -14.8411   20.6641 C   0  0  0  0  0  0  0  0  0  0  0  0
  -18.7422  -31.0018   21.1141 C   0  0  0  0  0  0  0  0  0  0  0  0
  -24.0691  -27.6171   24.0608 C   0  0  0  0  0  0  0  0  0  0  0  0
  -25.5405  -26.6518   21.6843 C   0  0  0  0  0  0  0  0  0  0  0  0
  -20.0768  -30.7366   20.4222 C   0  0  0  0  0  0  0  0  0  0  0  0
  -29.0944  -13.3927   17.9097 C   0  0  0  0  0  0  0  0  0  0  0  0
  -20.2939  -29.2381   20.2374 C   0  0  0  0  0  0  0  0  0  0  0  0
  -27.7521  -12.9643   18.5052 C   0  0  0  0  0  0  0  0  0  0  0  0
  -30.2390  -13.2009   18.9023 C   0  0  0  0  0  0  0  0  0  0  0  0
  -28.6929  -13.4152   20.8095 C   0  0  0  0  0  0  0  0  0  0  0  0
  -20.3454  -28.5172   21.5899 C   0  0  1  0  0  0  0  0  0  0  0  0
  -23.9697  -28.3242   22.7127 C   0  0  1  0  0  0  0  0  0  0  0  0
  -27.5000  -13.6424   19.8653 C   0  0  2  0  0  0  0  0  0  0  0  0
  -24.4608  -16.6104   24.1496 C   0  0  0  0  0  0  0  0  0  0  0  0
  -31.1167  -29.7283   20.0761 C   0  0  0  0  0  0  0  0  0  0  0  0
  -24.9090  -28.3977   18.1881 C   0  0  0  0  0  0  0  0  0  0  0  0
  -27.3301  -28.6257   17.5926 C   0  0  0  0  0  0  0  0  0  0  0  0
  -26.0716  -30.5944   18.4660 C   0  0  0  0  0  0  0  0  0  0  0  0
  -31.8342  -18.8984   22.7953 C   0  0  0  0  0  0  0  0  0  0  0  0
  -31.1658  -18.0265   20.5597 C   0  0  0  0  0  0  0  0  0  0  0  0
  -30.1650  -28.6613   23.6020 C   0  0  0  0  0  0  0  0  0  0  0  0
  -29.0289  -18.1719   23.8903 C   0  0  0  0  0  0  0  0  0  0  0  0
  -25.3001  -21.3368   24.7777 C   0  0  0  0  0  0  0  0  0  1  0  0
  -29.4364  -18.2696   22.4073 C   0  0  0  0  0  0  0  0  0  0  0  0
  -31.2670  -16.4510   22.5002 C   0  0  0  0  0  0  0  0  0  0  0  0
  -26.6782  -28.7127   20.0418 C   0  0  1  0  0  0  0  0  0  0  0  0
  -30.1793  -29.5139   21.2543 C   0  0  2  0  0  0  0  0  0  0  0  0
  -26.2390  -29.0645   18.5924 C   0  0  0  0  0  0  0  0  0  0  0  0
  -30.9083  -17.8944   22.0745 C   0  0  0  0  0  0  0  0  0  0  0  0
  -26.1961  -12.1443   21.3274 N   0  0  0  0  0  0  0  0  0  0  0  0
  -26.7298  -17.4281   24.0249 N   0  0  0  0  0  0  0  0  0  0  0  0
  -24.9207  -18.9609   24.4543 N   0  0  0  0  0  0  0  0  0  0  0  0
  -26.1898  -13.1892   20.4824 N   0  0  0  0  0  0  0  0  0  0  0  0
  -25.1183  -28.0529   21.8460 N   0  0  0  0  0  0  0  0  0  0  0  0
  -29.9380  -13.8694   20.1706 N   0  0  0  0  0  0  0  0  0  0  0  0
  -24.7672  -14.7852   19.4626 N   0  0  0  0  0  0  0  0  0  0  0  0
  -21.9392  -12.3320   21.9885 N   0  0  0  0  0  0  0  0  0  0  0  0
  -21.6327  -28.7168   22.2203 N   0  0  0  0  0  0  0  0  0  0  0  0
  -27.9207  -29.3520   20.4614 N   0  0  0  0  0  0  0  0  0  0  0  0
  -30.4607  -15.4302   21.8689 N   0  0  0  0  0  0  0  0  0  0  0  0
  -30.9582  -28.9058   22.3699 N   0  3  0  0  0  0  0  0  0  0  0  0
  -22.0778  -14.0872   20.5194 O   0  0  0  0  0  0  0  0  0  0  0  0
  -22.7893  -26.9991   21.1552 O   0  0  0  0  0  0  0  0  0  0  0  0
  -25.3062  -30.2789   21.1781 O   0  0  0  0  0  0  0  0  0  0  0  0
  -29.0659  -27.3930   20.9391 O   0  0  0  0  0  0  0  0  0  0  0  0
  -31.8598  -15.1637   20.0721 O   0  0  0  0  0  0  0  0  0  0  0  0
  -23.3180   -8.0126   25.2255 O   0  0  0  0  0  0  0  0  0  0  0  0
  -25.6423  -22.1879   23.6846 O   0  0  0  0  0  0  0  0  0  1  0  0
  -18.8060   -5.1070   23.9592 F   0  0  0  0  0  0  0  0  0  0  0  0
  -23.4456   -5.2725   24.8822 F   0  0  0  0  0  0  0  0  0  0  0  0
  1  2  1  0  0  0  0
  1  5  2  0  0  0  0
  2  6  2  0  0  0  0
  3  8  2  0  0  0  0
  3 16  1  0  0  0  0
  4  9  1  0  0  0  0
  4 16  2  0  0  0  0
  5 18  1  0  0  0  0
  6 20  1  0  0  0  0
  7 10  2  0  0  0  0
  7 19  1  0  0  0  0
  8 22  1  0  0  0  0
  9 22  2  0  0  0  0
 10 23  1  0  0  0  0
 11 12  2  0  0  0  0
 11 24  1  0  0  0  0
 12 25  1  0  0  0  0
 13 21  1  0  0  0  0
 13 23  2  0  0  0  0
 14 25  2  0  0  0  0
 14 26  1  0  0  0  0
 15 28  2  0  0  0  0
 15 29  1  0  0  0  0
 16 27  1  0  0  0  0
 17 27  1  0  0  0  0
 17 30  2  0  0  0  0
 17 32  1  0  0  0  0
 18 20  2  0  0  0  0
 18 37  1  0  0  0  0
 19 21  2  0  0  0  0
 19 38  1  0  0  0  0
 20 46  1  0  0  0  0
 21 39  1  0  0  0  0
 22 82  1  0  0  0  0
 23 83  1  0  0  0  0
 24 26  2  0  0  0  0
 24 82  1  0  0  0  0
 25 84  1  0  0  0  0
 26 85  1  0  0  0  0
 27 65  2  0  0  0  0
 28 57  1  0  0  0  0
 28 66  1  0  0  0  0
 29 58  1  0  0  0  0
 29 67  2  0  0  0  0
 30 68  1  0  0  0  0
 30 71  1  0  0  0  0
 31 49  1  0  0  0  0
 31 66  2  0  0  0  0
 31 67  1  0  0  0  0
 32 72  1  0  0  0  0
 32 77  2  0  0  0  0
 33 47  1  0  0  0  0
 33 73  1  0  0  0  0
 33 78  2  0  0  0  0
 34 61  1  0  0  0  0
 34 69  1  0  0  0  0
 34 79  2  0  0  0  0
 35 62  1  0  0  0  0
 35 74  1  0  0  0  0
 35 80  2  0  0  0  0
 36 70  1  0  0  0  0
 36 75  1  0  0  0  0
 36 81  2  0  0  0  0
 37 40  1  0  0  0  0
 38 47  1  0  0  0  0
 39 69  1  0  0  0  0
 40 42  1  0  0  0  0
 41 43  1  0  0  0  0
 41 44  1  0  0  0  0
 42 46  1  0  0  0  0
 43 48  1  0  0  0  0
 44 70  1  0  0  0  0
 45 48  1  0  0  0  0
 45 70  1  0  0  0  0
 46 73  1  0  0  0  0
 47 69  1  0  0  0  0
 48 68  1  0  0  0  0
 50 62  1  0  0  0  0
 51 63  1  0  0  0  0
 52 63  1  0  0  0  0
 53 63  1  0  0  0  0
 54 64  1  0  0  0  0
 55 64  1  0  0  0  0
 56 76  1  0  0  0  0
 57 59  1  0  0  0  0
 58 83  1  0  0  0  0
 59 64  1  0  0  0  0
 60 64  1  0  0  0  0
 60 75  1  0  0  0  0
 61 63  1  0  0  0  0
 61 74  1  0  0  0  0
 62 76  1  0  0  0  0
 65 68  1  0  0  0  0
M  CHG  1  76   1
M  ISO  4  36 100  58 101  75 100  83 101
M  END
> <Batch ID>
0096

> <Smiles>
CNC(C)C(=O)NC(C(=O)N1Cc2cc([101O:1][101CH2:1]c3cc(CCC(C)(C)C[100NH:0][100C:0](=O)N4CCCC(n5nc(-c6ccc(Oc7ccc(F)cc7F)cc6)c(C(N)=O)c5N)C4)nc(C)n3)ccc2CC1C(=O)NC1CCCc2ccccc21)C(C)(C)C

> <Shape>
0.241

> <Color>
0.126

> <Negative vol penalty>
0.000

$$$$

  -OEChem-04052319243D

 87 95  0     1  0  0  0  0  0999 V2000
  -19.2395  -31.3030   21.7425 C   0  0  0  0  0  0  0  0  0  0  0  0
  -20.6155  -31.1547   21.8837 C   0  0  0  0  0  0  0  0  0  0  0  0
  -27.1779  -15.5526   21.8718 C   0  0  0  0  0  0  0  0  0  0  0  0
  -27.0201  -16.5170   19.6623 C   0  0  0  0  0  0  0  0  0  0  0  0
  -18.4001  -30.2024   21.9101 C   0  0  0  0  0  0  0  0  0  0  0  0
  -21.1529  -29.9059   22.1936 C   0  0  0  0  0  0  0  0  0  0  0  0
  -25.2128  -28.7859   19.3814 C   0  0  0  0  0  0  0  0  0  0  0  0
  -30.6662  -24.5189   17.4722 C   0  0  0  0  0  0  0  0  0  0  0  0
  -29.8425  -25.4088   16.7828 C   0  0  0  0  0  0  0  0  0  0  0  0
  -25.9691  -14.8873   21.6678 C   0  0  0  0  0  0  0  0  0  0  0  0
  -25.8113  -15.8516   19.4582 C   0  0  0  0  0  0  0  0  0  0  0  0
  -26.4196  -29.3858   19.7382 C   0  0  0  0  0  0  0  0  0  0  0  0
  -24.8903  -12.1222   20.0481 C   0  0  0  0  0  0  0  0  0  0  0  0
  -24.8182  -10.7800   20.4207 C   0  0  0  0  0  0  0  0  0  0  0  0
  -27.0920  -27.3555   20.8540 C   0  0  0  0  0  0  0  0  0  0  0  0
  -31.5964  -26.3574   18.7338 C   0  0  0  0  0  0  0  0  0  0  0  0
  -23.0337  -11.3039   21.9629 C   0  0  0  0  0  0  0  0  0  0  0  0
  -27.7034  -16.3676   20.8691 C   0  0  0  0  0  0  0  0  0  0  0  0
  -30.2438  -16.5831   20.7807 C   0  0  0  0  0  0  0  0  0  0  0  0
  -18.9283  -28.9374   22.2127 C   0  0  0  0  0  0  0  0  0  0  0  0
  -24.9314  -27.4677   19.7682 C   0  0  0  0  0  0  0  0  0  0  0  0
  -20.3197  -28.7876   22.3667 C   0  0  0  0  0  0  0  0  0  0  0  0
  -25.8819  -26.7403   20.4986 C   0  0  0  0  0  0  0  0  0  0  0  0
  -31.5432  -24.9932   18.4478 C   0  0  0  0  0  0  0  0  0  0  0  0
  -29.8958  -26.7729   17.0688 C   0  0  0  0  0  0  0  0  0  0  0  0
  -25.2858  -15.0367   20.4610 C   0  0  0  0  0  0  0  0  0  0  0  0
  -27.3583  -28.6715   20.4771 C   0  0  0  0  0  0  0  0  0  0  0  0
  -24.0341  -13.0553   20.6329 C   0  0  0  0  0  0  0  0  0  0  0  0
  -30.7727  -27.2473   18.0444 C   0  0  0  0  0  0  0  0  0  0  0  0
  -23.8899  -10.3708   21.3780 C   0  0  0  0  0  0  0  0  0  0  0  0
  -23.1058  -12.6461   21.5903 C   0  0  0  0  0  0  0  0  0  0  0  0
  -28.9518  -17.0556   21.0795 C   0  0  0  0  0  0  0  0  0  0  0  0
  -31.0797  -17.6028   21.1652 C   0  0  0  0  0  0  0  0  0  0  0  0
  -30.6517  -15.3341   20.2070 C   0  0  0  0  0  0  0  0  0  0  0  0
  -22.7145  -26.0861   21.5794 C   0  0  0  0  0  0  0  0  0  0  0  0
  -24.1022  -23.3549   20.5132 C   0  0  0  0  0  0  0  0  0  0  0  0
  -26.8723  -21.8161   19.2460 C   0  0  0  0  0  0  0  0  0  0  0  0
  -31.3056  -23.3860   21.3019 C   0  0  0  0  0  0  0  0  0  0  0  0
  -17.9776  -27.7871   22.4312 C   0  0  0  0  0  0  0  0  0  0  0  0
  -23.6361  -26.8260   19.3525 C   0  0  0  0  0  0  0  0  0  0  0  0
  -25.6367  -25.3155   20.9212 C   0  0  0  0  0  0  0  0  0  0  0  0
  -18.6556  -26.4201   22.3893 C   0  0  0  0  0  0  0  0  0  0  0  0
  -30.6882  -21.4604   24.2324 C   0  0  0  0  0  0  0  0  0  0  0  0
  -19.9306  -26.4307   23.2266 C   0  0  0  0  0  0  0  0  0  0  0  0
  -30.2975  -20.0844   23.6903 C   0  0  0  0  0  0  0  0  0  0  0  0
  -30.1591  -22.5867   23.3472 C   0  0  0  0  0  0  0  0  0  0  0  0
  -30.1336  -21.1020   21.3803 C   0  0  0  0  0  0  0  0  0  0  0  0
  -20.9425  -27.4440   22.6780 C   0  0  1  0  0  0  0  0  0  0  0  0
  -23.2395  -25.6507   20.2405 C   0  0  1  0  0  0  0  0  0  0  0  0
  -30.6922  -19.9325   22.2090 C   0  0  2  0  0  0  0  0  0  0  0  0
  -33.3796  -23.2746   18.2603 C   0  0  0  0  0  0  0  0  0  0  0  0
  -28.2708  -19.9786   18.2635 C   0  0  0  0  0  0  0  0  0  0  0  0
  -30.6913  -28.1849   14.4649 C   0  0  0  0  0  0  0  0  0  0  0  0
  -28.7642  -29.7390   14.8323 C   0  0  0  0  0  0  0  0  0  0  0  0
  -24.4007  -22.5153   23.4314 C   0  0  0  0  0  0  0  0  0  0  0  0
  -26.0515  -20.7843   22.6920 C   0  0  0  0  0  0  0  0  0  0  0  0
  -23.6932  -20.6813   21.8854 C   0  0  0  0  0  0  0  0  0  0  0  0
  -26.0760  -22.5279   16.4859 C   0  0  0  0  0  0  0  0  0  0  0  0
  -29.0079  -27.7108   16.3200 C   0  0  0  0  0  0  0  0  0  0  0  0
  -30.5749  -30.2742   20.0343 C   0  0  0  0  0  0  0  0  0  0  0  0
  -29.0571  -30.2484   19.9449 C   0  0  0  0  0  0  0  0  0  1  0  0
  -31.1891  -28.9314   19.6711 C   0  0  0  0  0  0  0  0  0  0  0  0
  -32.4232  -24.0413   19.1851 C   0  0  2  0  0  0  0  0  0  0  0  0
  -25.2330  -22.4744   20.9877 C   0  0  1  0  0  0  0  0  0  0  0  0
  -27.0499  -20.8657   18.0756 C   0  0  2  0  0  0  0  0  0  0  0  0
  -29.7602  -28.7976   15.5142 C   0  0  0  0  0  0  0  0  0  0  0  0
  -24.8487  -21.6413   22.2430 C   0  0  0  0  0  0  0  0  0  0  0  0
  -28.9611  -18.2802   21.6127 N   0  0  0  0  0  0  0  0  0  0  0  0
  -30.2692  -18.5857   21.6522 N   0  0  0  0  0  0  0  0  0  0  0  0
  -24.3527  -24.7343   20.4959 N   0  0  0  0  0  0  0  0  0  0  0  0
  -30.5697  -22.3839   21.9557 N   0  0  0  0  0  0  0  0  0  0  0  0
  -32.4217  -17.7456   21.1309 N   0  0  0  0  0  0  0  0  0  0  0  0
  -29.6635  -14.3990   19.8702 N   0  0  0  0  0  0  0  0  0  0  0  0
  -21.6082  -26.9110   21.5087 N   0  0  0  0  0  0  0  0  0  0  0  0
  -25.6354  -21.6716   19.8380 N   0  0  0  0  0  0  0  0  0  0  0  0
  -31.6601  -23.1109   19.9869 N   0  0  0  0  0  0  0  0  0  0  0  0
  -27.2157  -21.6309   16.8076 N   0  3  0  0  0  0  0  0  0  0  0  0
  -31.8580  -15.0489   20.0142 O   0  0  0  0  0  0  0  0  0  0  0  0
  -23.2710  -25.7009   22.6009 O   0  0  0  0  0  0  0  0  0  0  0  0
  -23.0385  -22.8372   20.1637 O   0  0  0  0  0  0  0  0  0  0  0  0
  -27.7450  -22.6049   19.6019 O   0  0  0  0  0  0  0  0  0  0  0  0
  -31.6279  -24.4449   21.8513 O   0  0  0  0  0  0  0  0  0  0  0  0
  -24.1064  -14.3874   20.2614 O   0  0  0  0  0  0  0  0  0  0  0  0
  -28.5368  -29.2549   20.8273 O   0  0  0  0  0  0  0  0  0  1  0  0
  -30.8369  -28.5844   18.3387 O   0  0  0  0  0  0  0  0  0  0  0  0
  -23.8198   -9.0815   21.7346 F   0  0  0  0  0  0  0  0  0  0  0  0
  -22.2799  -13.5377   22.1548 F   0  0  0  0  0  0  0  0  0  0  0  0
  1  2  1  0  0  0  0
  1  5  2  0  0  0  0
  2  6  2  0  0  0  0
  3 10  2  0  0  0  0
  3 18  1  0  0  0  0
  4 11  1  0  0  0  0
  4 18  2  0  0  0  0
  5 20  1  0  0  0  0
  6 22  1  0  0  0  0
  7 12  2  0  0  0  0
  7 21  1  0  0  0  0
  8  9  2  0  0  0  0
  8 24  1  0  0  0  0
  9 25  1  0  0  0  0
 10 26  1  0  0  0  0
 11 26  2  0  0  0  0
 12 27  1  0  0  0  0
 13 14  2  0  0  0  0
 13 28  1  0  0  0  0
 14 30  1  0  0  0  0
 15 23  1  0  0  0  0
 15 27  2  0  0  0  0
 16 24  2  0  0  0  0
 16 29  1  0  0  0  0
 17 30  2  0  0  0  0
 17 31  1  0  0  0  0
 18 32  1  0  0  0  0
 19 32  1  0  0  0  0
 19 33  2  0  0  0  0
 19 34  1  0  0  0  0
 20 22  2  0  0  0  0
 20 39  1  0  0  0  0
 21 23  2  0  0  0  0
 21 40  1  0  0  0  0
 22 48  1  0  0  0  0
 23 41  1  0  0  0  0
 24 63  1  0  0  0  0
 25 29  2  0  0  0  0
 25 59  1  0  0  0  0
 26 83  1  0  0  0  0
 27 84  1  0  0  0  0
 28 31  2  0  0  0  0
 28 83  1  0  0  0  0
 29 85  1  0  0  0  0
 30 86  1  0  0  0  0
 31 87  1  0  0  0  0
 32 68  2  0  0  0  0
 33 69  1  0  0  0  0
 33 72  1  0  0  0  0
 34 73  1  0  0  0  0
 34 78  2  0  0  0  0
 35 49  1  0  0  0  0
 35 74  1  0  0  0  0
 35 79  2  0  0  0  0
 36 64  1  0  0  0  0
 36 70  1  0  0  0  0
 36 80  2  0  0  0  0
 37 65  1  0  0  0  0
 37 75  1  0  0  0  0
 37 81  2  0  0  0  0
 38 71  1  0  0  0  0
 38 76  1  0  0  0  0
 38 82  2  0  0  0  0
 39 42  1  0  0  0  0
 40 49  1  0  0  0  0
 41 70  1  0  0  0  0
 42 44  1  0  0  0  0
 43 45  1  0  0  0  0
 43 46  1  0  0  0  0
 44 48  1  0  0  0  0
 45 50  1  0  0  0  0
 46 71  1  0  0  0  0
 47 50  1  0  0  0  0
 47 71  1  0  0  0  0
 48 74  1  0  0  0  0
 49 70  1  0  0  0  0
 50 69  1  0  0  0  0
 51 63  1  0  0  0  0
 52 65  1  0  0  0  0
 53 66  1  0  0  0  0
 54 66  1  0  0  0  0
 55 67  1  0  0  0  0
 56 67  1  0  0  0  0
 57 67  1  0  0  0  0
 58 77  1  0  0  0  0
 59 66  1  0  0  0  0
 60 61  1  0  0  0  0
 60 62  1  0  0  0  0
 61 84  1  0  0  0  0
 62 85  1  0  0  0  0
 63 76  1  0  0  0  0
 64 67  1  0  0  0  0
 64 75  1  0  0  0  0
 65 77  1  0  0  0  0
 68 69  1  0  0  0  0
M  CHG  1  77   1
M  ISO  4  38 100  61 101  76 100  84 101
M  END
> <Batch ID>
0096

> <Smiles>
CNC(C)C(=O)NC(C(=O)N1Cc2cc([101O:1][101CH2:1]CCOc3cc(C(C)[100NH:0][100C:0](=O)N4CCCC(n5nc(-c6ccc(Oc7ccc(F)cc7F)cc6)c(C(N)=O)c5N)C4)ccc3CC(C)C)ccc2CC1C(=O)NC1CCCc2ccccc21)C(C)(C)C

> <Shape>
0.239

> <Color>
0.060

> <Negative vol penalty>
0.000

$$$$

  -OEChem-04052319243D

 90 98  0     1  0  0  0  0  0999 V2000
  -31.8102  -26.0825   20.9760 C   0  0  0  0  0  0  0  0  0  0  0  0
  -30.7092  -25.6374   21.7006 C   0  0  0  0  0  0  0  0  0  0  0  0
  -25.6327  -30.7795   23.1341 C   0  0  0  0  0  0  0  0  0  0  0  0
  -25.0729  -30.2621   25.4267 C   0  0  0  0  0  0  0  0  0  0  0  0
  -32.1666  -25.4438   19.7890 C   0  0  0  0  0  0  0  0  0  0  0  0
  -29.9631  -24.5540   21.2380 C   0  0  0  0  0  0  0  0  0  0  0  0
  -27.1872  -20.2780   24.6315 C   0  0  0  0  0  0  0  0  0  0  0  0
  -26.3634  -31.8877   23.5626 C   0  0  0  0  0  0  0  0  0  0  0  0
  -25.8036  -31.3703   25.8552 C   0  0  0  0  0  0  0  0  0  0  0  0
  -25.8663  -20.1245   25.0504 C   0  0  0  0  0  0  0  0  0  0  0  0
  -25.7273  -35.0442   24.5903 C   0  0  0  0  0  0  0  0  0  0  0  0
  -25.5519  -36.2423   23.8979 C   0  0  0  0  0  0  0  0  0  0  0  0
  -25.4519  -18.6531   23.1843 C   0  0  0  0  0  0  0  0  0  0  0  0
  -20.9274  -21.1988   19.3639 C   0  0  0  0  0  0  0  0  0  0  0  0
  -20.8941  -19.2118   20.7378 C   0  0  0  0  0  0  0  0  0  0  0  0
  -27.9011  -36.2603   23.3339 C   0  0  0  0  0  0  0  0  0  0  0  0
  -24.9874  -29.9667   24.0662 C   0  0  0  0  0  0  0  0  0  0  0  0
  -24.7060  -27.5089   23.4437 C   0  0  0  0  0  0  0  0  0  0  0  0
  -31.4303  -24.3459   19.3166 C   0  0  0  0  0  0  0  0  0  0  0  0
  -27.6482  -19.6277   23.4778 C   0  0  0  0  0  0  0  0  0  0  0  0
  -30.3092  -23.9008   20.0428 C   0  0  0  0  0  0  0  0  0  0  0  0
  -26.7798  -18.7979   22.7544 C   0  0  0  0  0  0  0  0  0  0  0  0
  -21.1089  -19.8228   19.5024 C   0  0  0  0  0  0  0  0  0  0  0  0
  -20.5311  -21.9639   20.4608 C   0  0  0  0  0  0  0  0  0  0  0  0
  -20.4977  -19.9769   21.8347 C   0  0  0  0  0  0  0  0  0  0  0  0
  -26.4489  -32.1831   24.9232 C   0  0  0  0  0  0  0  0  0  0  0  0
  -24.9976  -19.3143   24.3251 C   0  0  0  0  0  0  0  0  0  0  0  0
  -26.9896  -34.4541   24.6546 C   0  0  0  0  0  0  0  0  0  0  0  0
  -20.3162  -21.3529   21.6962 C   0  0  0  0  0  0  0  0  0  0  0  0
  -26.6388  -36.8503   23.2697 C   0  0  0  0  0  0  0  0  0  0  0  0
  -28.0765  -35.0622   24.0263 C   0  0  0  0  0  0  0  0  0  0  0  0
  -24.2321  -28.8221   23.6241 C   0  0  0  0  0  0  0  0  0  0  0  0
  -23.6077  -26.8030   23.0171 C   0  0  0  0  0  0  0  0  0  0  0  0
  -26.0214  -26.9747   23.6439 C   0  0  0  0  0  0  0  0  0  0  0  0
  -28.8135  -20.5825   20.6789 C   0  0  0  0  0  0  0  0  0  0  0  0
  -29.3040  -17.4061   20.2405 C   0  0  0  0  0  0  0  0  0  0  0  0
  -28.4409  -14.2034   21.0430 C   0  0  0  0  0  0  0  0  0  0  0  0
  -18.1904  -25.5223   23.4144 C   0  0  0  0  0  0  0  0  0  0  0  0
  -31.8255  -23.7176   18.0037 C   0  0  0  0  0  0  0  0  0  0  0  0
  -29.0832  -19.7824   23.0544 C   0  0  0  0  0  0  0  0  0  0  0  0
  -27.2309  -18.0618   21.5202 C   0  0  0  0  0  0  0  0  0  0  0  0
  -31.2064  -22.3409   17.7765 C   0  0  0  0  0  0  0  0  0  0  0  0
  -19.0531  -28.3992   21.5025 C   0  0  0  0  0  0  0  0  0  0  0  0
  -29.7183  -22.3629   18.1111 C   0  0  0  0  0  0  0  0  0  0  0  0
  -20.5138  -28.6607   21.8739 C   0  0  0  0  0  0  0  0  0  0  0  0
  -18.2488  -27.8928   22.6977 C   0  0  0  0  0  0  0  0  0  0  0  0
  -20.2819  -26.9756   23.7461 C   0  0  0  0  0  0  0  0  0  0  0  0
  -29.4897  -22.7133   19.5864 C   0  0  1  0  0  0  0  0  0  0  0  0
  -29.3054  -19.4816   21.5753 C   0  0  1  0  0  0  0  0  0  0  0  0
  -21.1462  -27.4346   22.5593 C   0  0  2  0  0  0  0  0  0  0  0  0
  -20.3417  -23.4356   20.2927 C   0  0  0  0  0  0  0  0  0  0  0  0
  -28.9923  -11.8179   20.4928 C   0  0  0  0  0  0  0  0  0  0  0  0
  -27.7638  -17.6574   17.6186 C   0  0  0  0  0  0  0  0  0  0  0  0
  -27.5252  -15.1652   17.6006 C   0  0  0  0  0  0  0  0  0  0  0  0
  -29.7928  -16.2001   17.5010 C   0  0  0  0  0  0  0  0  0  0  0  0
  -29.2708  -13.6318   23.8257 C   0  0  0  0  0  0  0  0  0  0  0  0
  -23.2990  -15.9033   15.7410 C   0  0  0  0  0  0  0  0  0  0  0  0
  -23.2836  -15.9510   18.2306 C   0  0  0  0  0  0  0  0  0  0  0  0
  -21.5331  -19.0047   18.3299 C   0  0  0  0  0  0  0  0  0  0  0  0
  -20.2701  -19.2982   23.1618 C   0  0  0  0  0  0  0  0  0  0  0  0
  -23.0595  -18.8669   18.1672 C   0  0  0  0  0  0  0  0  0  0  0  0
  -21.4025  -19.5165   24.1675 C   0  0  0  0  0  0  0  0  0  0  0  0
  -18.2900  -23.1609   24.1715 C   0  0  0  0  0  0  0  0  0  0  0  0
  -23.5125  -18.0721   16.9463 C   0  0  0  0  0  0  0  0  0  0  0  0
  -22.7319  -18.9211   23.7186 C   0  0  0  0  0  0  0  0  0  1  0  0
  -18.5261  -22.2634   22.9700 C   0  0  0  0  0  0  0  0  0  0  0  0
  -28.4935  -16.2681   19.6688 C   0  0  1  0  0  0  0  0  0  0  0  0
  -29.2832  -12.9951   21.4105 C   0  0  2  0  0  0  0  0  0  0  0  0
  -28.3845  -16.3380   18.1193 C   0  0  0  0  0  0  0  0  0  0  0  0
  -22.9338  -28.9459   23.3356 N   0  0  0  0  0  0  0  0  0  0  0  0
  -22.5826  -27.7015   22.9695 N   0  0  0  0  0  0  0  0  0  0  0  0
  -28.6415  -18.2502   21.1430 N   0  0  0  0  0  0  0  0  0  0  0  0
  -18.9014  -26.7284   23.3012 N   0  0  0  0  0  0  0  0  0  0  0  0
  -23.4284  -25.5077   22.6817 N   0  0  0  0  0  0  0  0  0  0  0  0
  -27.0332  -27.8384   24.0851 N   0  0  0  0  0  0  0  0  0  0  0  0
  -29.7528  -21.5638   20.4254 N   0  0  0  0  0  0  0  0  0  0  0  0
  -29.1026  -15.0409   20.1702 N   0  0  0  0  0  0  0  0  0  0  0  0
  -18.8848  -24.4666   23.9923 N   0  0  0  0  0  0  0  0  0  0  0  0
  -29.0051  -12.5772   22.8137 N   0  3  0  0  0  0  0  0  0  0  0  0
  -22.9402  -16.7058   16.9687 N   0  3  0  0  0  0  0  0  0  0  0  0
  -26.2954  -25.7709   23.4219 O   0  0  0  0  0  0  0  0  0  0  0  0
  -27.6670  -20.5438   20.2477 O   0  0  0  0  0  0  0  0  0  0  0  0
  -30.4836  -17.5371   19.9043 O   0  0  0  0  0  0  0  0  0  0  0  0
  -27.3077  -14.3841   21.4831 O   0  0  0  0  0  0  0  0  0  0  0  0
  -17.0249  -25.3942   23.0242 O   0  0  0  0  0  0  0  0  0  0  0  0
  -27.1619  -33.2642   25.3417 O   0  0  0  0  0  0  0  0  0  0  0  0
  -23.7076  -19.1633   24.7313 O   0  0  0  0  0  0  0  0  0  1  0  0
  -19.9279  -22.1010   22.7685 O   0  0  0  0  0  0  0  0  0  0  0  0
  -26.4699  -38.0001   22.6036 F   0  0  0  0  0  0  0  0  0  0  0  0
  -29.2913  -34.4994   24.0836 F   0  0  0  0  0  0  0  0  0  0  0  0
  1  2  1  0  0  0  0
  1  5  2  0  0  0  0
  2  6  2  0  0  0  0
  3  8  2  0  0  0  0
  3 17  1  0  0  0  0
  4  9  1  0  0  0  0
  4 17  2  0  0  0  0
  5 19  1  0  0  0  0
  6 21  1  0  0  0  0
  7 10  2  0  0  0  0
  7 20  1  0  0  0  0
  8 26  1  0  0  0  0
  9 26  2  0  0  0  0
 10 27  1  0  0  0  0
 11 12  2  0  0  0  0
 11 28  1  0  0  0  0
 12 30  1  0  0  0  0
 13 22  1  0  0  0  0
 13 27  2  0  0  0  0
 14 23  1  0  0  0  0
 14 24  2  0  0  0  0
 15 23  2  0  0  0  0
 15 25  1  0  0  0  0
 16 30  2  0  0  0  0
 16 31  1  0  0  0  0
 17 32  1  0  0  0  0
 18 32  1  0  0  0  0
 18 33  2  0  0  0  0
 18 34  1  0  0  0  0
 19 21  2  0  0  0  0
 19 39  1  0  0  0  0
 20 22  2  0  0  0  0
 20 40  1  0  0  0  0
 21 48  1  0  0  0  0
 22 41  1  0  0  0  0
 23 59  1  0  0  0  0
 24 29  1  0  0  0  0
 24 51  1  0  0  0  0
 25 29  2  0  0  0  0
 25 60  1  0  0  0  0
 26 86  1  0  0  0  0
 27 87  1  0  0  0  0
 28 31  2  0  0  0  0
 28 86  1  0  0  0  0
 29 88  1  0  0  0  0
 30 89  1  0  0  0  0
 31 90  1  0  0  0  0
 32 70  2  0  0  0  0
 33 71  1  0  0  0  0
 33 74  1  0  0  0  0
 34 75  1  0  0  0  0
 34 81  2  0  0  0  0
 35 49  1  0  0  0  0
 35 76  1  0  0  0  0
 35 82  2  0  0  0  0
 36 67  1  0  0  0  0
 36 72  1  0  0  0  0
 36 83  2  0  0  0  0
 37 68  1  0  0  0  0
 37 77  1  0  0  0  0
 37 84  2  0  0  0  0
 38 73  1  0  0  0  0
 38 78  1  0  0  0  0
 38 85  2  0  0  0  0
 39 42  1  0  0  0  0
 40 49  1  0  0  0  0
 41 72  1  0  0  0  0
 42 44  1  0  0  0  0
 43 45  1  0  0  0  0
 43 46  1  0  0  0  0
 44 48  1  0  0  0  0
 45 50  1  0  0  0  0
 46 73  1  0  0  0  0
 47 50  1  0  0  0  0
 47 73  1  0  0  0  0
 48 76  1  0  0  0  0
 49 72  1  0  0  0  0
 50 71  1  0  0  0  0
 52 68  1  0  0  0  0
 53 69  1  0  0  0  0
 54 69  1  0  0  0  0
 55 69  1  0  0  0  0
 56 79  1  0  0  0  0
 57 80  1  0  0  0  0
 58 80  1  0  0  0  0
 59 61  1  0  0  0  0
 60 62  1  0  0  0  0
 61 64  1  0  0  0  0
 62 65  1  0  0  0  0
 63 66  1  0  0  0  0
 63 78  1  0  0  0  0
 64 80  1  0  0  0  0
 65 87  1  0  0  0  0
 66 88  1  0  0  0  0
 67 69  1  0  0  0  0
 67 77  1  0  0  0  0
 68 79  1  0  0  0  0
 70 71  1  0  0  0  0
M  CHG  2  79   1  80   1
M  ISO  4  38 100  65 101  78 100  87 101
M  END
> <Batch ID>
0096

> <Smiles>
CNC(C)C(=O)NC(C(=O)N1Cc2cc([101O:1][101CH2:1]CCc3cc(CCCN(C)C)cc(C)c3OCC[100NH:0][100C:0](=O)N3CCCC(n4nc(-c5ccc(Oc6ccc(F)cc6F)cc5)c(C(N)=O)c4N)C3)ccc2CC1C(=O)NC1CCCc2ccccc21)C(C)(C)C

> <Shape>
0.224

> <Color>
0.049

> <Negative vol penalty>
0.000

$$$$

  -OEChem-04052319243D

 92101  0     1  0  0  0  0  0999 V2000
  -17.3660  -27.3608   22.9967 C   0  0  0  0  0  0  0  0  0  0  0  0
  -18.3667  -27.1452   22.0546 C   0  0  0  0  0  0  0  0  0  0  0  0
  -27.2988  -14.1394   22.1813 C   0  0  0  0  0  0  0  0  0  0  0  0
  -26.8549  -15.4442   20.1970 C   0  0  0  0  0  0  0  0  0  0  0  0
  -17.3013  -28.5758   23.6776 C   0  0  0  0  0  0  0  0  0  0  0  0
  -19.3026  -28.1450   21.7920 C   0  0  0  0  0  0  0  0  0  0  0  0
  -24.1166  -26.3374   21.5679 C   0  0  0  0  0  0  0  0  0  0  0  0
  -26.1662  -13.3663   21.9264 C   0  0  0  0  0  0  0  0  0  0  0  0
  -25.7223  -14.6710   19.9420 C   0  0  0  0  0  0  0  0  0  0  0  0
  -24.5242  -25.6805   20.4077 C   0  0  0  0  0  0  0  0  0  0  0  0
  -25.3033  -10.8075   19.8913 C   0  0  0  0  0  0  0  0  0  0  0  0
  -25.4218   -9.4233   20.0161 C   0  0  0  0  0  0  0  0  0  0  0  0
  -25.5744  -27.7097   19.6348 C   0  0  0  0  0  0  0  0  0  0  0  0
  -29.0122  -25.8502   19.6491 C   0  0  0  0  0  0  0  0  0  0  0  0
  -28.7510  -23.4690   19.8634 C   0  0  0  0  0  0  0  0  0  0  0  0
  -23.7131   -9.4311   21.7241 C   0  0  0  0  0  0  0  0  0  0  0  0
  -27.6432  -15.1784   21.3167 C   0  0  0  0  0  0  0  0  0  0  0  0
  -30.1248  -15.7389   21.1291 C   0  0  0  0  0  0  0  0  0  0  0  0
  -18.2427  -29.5874   23.4302 C   0  0  0  0  0  0  0  0  0  0  0  0
  -24.4262  -27.6908   21.7663 C   0  0  0  0  0  0  0  0  0  0  0  0
  -19.2496  -29.3751   22.4692 C   0  0  0  0  0  0  0  0  0  0  0  0
  -25.1737  -28.3801   20.8005 C   0  0  0  0  0  0  0  0  0  0  0  0
  -28.7115  -24.6175   19.0806 C   0  0  0  0  0  0  0  0  0  0  0  0
  -25.3780  -13.6320   20.8067 C   0  0  0  0  0  0  0  0  0  0  0  0
  -25.2512  -26.3672   19.4399 C   0  0  0  0  0  0  0  0  0  0  0  0
  -24.3898  -11.5036   20.6830 C   0  0  0  0  0  0  0  0  0  0  0  0
  -24.6266   -8.7351   20.9325 C   0  0  0  0  0  0  0  0  0  0  0  0
  -23.5946  -10.8153   21.5994 C   0  0  0  0  0  0  0  0  0  0  0  0
  -28.8127  -15.9778   21.5799 C   0  0  0  0  0  0  0  0  0  0  0  0
  -29.3438  -25.8806   20.9941 C   0  0  0  0  0  0  0  0  0  0  0  0
  -29.0945  -23.6059   21.1987 C   0  0  0  0  0  0  0  0  0  0  0  0
  -30.8600  -16.7773   21.6464 C   0  0  0  0  0  0  0  0  0  0  0  0
  -30.6334  -14.6736   20.3153 C   0  0  0  0  0  0  0  0  0  0  0  0
  -22.7860  -30.4075   22.1843 C   0  0  0  0  0  0  0  0  0  0  0  0
  -25.8603  -31.5795   22.6623 C   0  0  0  0  0  0  0  0  0  0  0  0
  -24.5155  -34.4532   23.9165 C   0  0  0  0  0  0  0  0  0  0  0  0
  -29.4495  -22.3307   23.3421 C   0  0  0  0  0  0  0  0  0  0  0  0
  -18.1038  -30.9017   24.1567 C   0  0  0  0  0  0  0  0  0  0  0  0
  -24.0031  -28.3729   23.0391 C   0  0  0  0  0  0  0  0  0  0  0  0
  -25.5345  -29.8315   20.9681 C   0  0  0  0  0  0  0  0  0  0  0  0
  -19.3580  -31.7694   24.0911 C   0  0  0  0  0  0  0  0  0  0  0  0
  -30.9646  -19.8111   25.3504 C   0  0  0  0  0  0  0  0  0  0  0  0
  -28.9069  -21.7712   15.5883 C   0  0  0  0  0  0  0  0  0  0  0  0
  -29.6393  -22.7432   14.6855 C   0  0  0  0  0  0  0  0  0  0  0  0
  -19.8965  -31.8224   22.6649 C   0  0  0  0  0  0  0  0  0  0  0  0
  -30.7094  -18.5212   24.5673 C   0  0  0  0  0  0  0  0  0  0  0  0
  -29.7851  -20.7770   25.2521 C   0  0  0  0  0  0  0  0  0  0  0  0
  -29.0919  -19.7950   23.1017 C   0  0  0  0  0  0  0  0  0  0  0  0
  -29.2655  -22.2468   16.9854 C   0  0  0  0  0  0  0  0  0  0  0  0
  -29.3882  -24.0828   15.3524 C   0  0  0  0  0  0  0  0  0  0  0  0
  -20.2979  -30.4260   22.1746 C   0  0  1  0  0  0  0  0  0  0  0  0
  -23.9819  -29.8966   22.9368 C   0  0  1  0  0  0  0  0  0  0  0  0
  -30.2788  -18.8179   23.1175 C   0  0  2  0  0  0  0  0  0  0  0  0
  -33.1989  -23.8435   17.1565 C   0  0  0  0  0  0  0  0  0  0  0  0
  -31.1172  -27.2305   22.1716 C   0  0  0  0  0  0  0  0  0  0  0  0
  -28.6878  -27.5522   22.7631 C   0  0  0  0  0  0  0  0  0  0  0  0
  -25.1525  -36.5767   25.0922 C   0  0  0  0  0  0  0  0  0  0  0  0
  -26.4126  -24.2169   15.9545 C   0  0  0  0  0  0  0  0  0  0  0  0
  -26.1750  -30.0351   25.2741 C   0  0  0  0  0  0  0  0  0  0  0  0
  -25.8557  -32.1915   26.5054 C   0  0  0  0  0  0  0  0  0  0  0  0
  -27.8005  -31.9110   24.9686 C   0  0  0  0  0  0  0  0  0  0  0  0
  -23.5159  -36.1237   21.6874 C   0  0  0  0  0  0  0  0  0  0  0  0
  -31.8265  -23.4993   16.6011 C   0  0  0  0  0  0  0  0  0  0  0  0
  -30.7239  -24.1711   17.4039 C   0  0  0  0  0  0  0  0  0  0  0  0
  -25.9055  -24.3277   18.4064 C   0  0  0  0  0  0  0  0  0  1  0  0
  -28.3420  -24.5259   17.6126 C   0  0  2  0  0  0  0  0  0  0  0  0
  -29.6733  -27.1862   21.6377 C   0  0  0  0  0  0  0  0  0  0  0  0
  -25.4805  -32.1692   23.9975 C   0  0  1  0  0  0  0  0  0  0  0  0
  -24.9121  -35.9087   23.7473 C   0  0  2  0  0  0  0  0  0  0  0  0
  -26.9457  -23.8859   17.3583 C   0  0  2  0  0  0  0  0  0  0  0  0
  -26.3082  -31.5675   25.1681 C   0  0  0  0  0  0  0  0  0  0  0  0
  -28.7169  -17.0813   22.3263 N   0  0  0  0  0  0  0  0  0  0  0  0
  -29.3929  -24.7863   21.7863 N   0  0  0  0  0  0  0  0  0  0  0  0
  -29.9781  -17.5449   22.3486 N   0  0  0  0  0  0  0  0  0  0  0  0
  -25.1729  -30.4269   22.2610 N   0  0  0  0  0  0  0  0  0  0  0  0
  -29.4361  -21.0143   23.8497 N   0  0  0  0  0  0  0  0  0  0  0  0
  -32.1684  -17.0994   21.5647 N   0  0  0  0  0  0  0  0  0  0  0  0
  -29.7411  -13.6894   19.8687 N   0  0  0  0  0  0  0  0  0  0  0  0
  -29.1323  -22.4296   21.9877 N   0  0  0  0  0  0  0  0  0  0  0  0
  -21.5742  -30.0402   22.7375 N   0  0  0  0  0  0  0  0  0  0  0  0
  -25.6091  -33.6155   23.8564 N   0  0  0  0  0  0  0  0  0  0  0  0
  -29.3917  -23.7642   16.8456 N   0  3  0  0  0  0  0  0  0  0  0  0
  -23.8389  -36.6585   23.0353 N   0  3  0  0  0  0  0  0  0  0  0  0
  -31.8464  -14.5878   20.0075 O   0  0  0  0  0  0  0  0  0  0  0  0
  -22.9505  -31.0859   21.1772 O   0  0  0  0  0  0  0  0  0  0  0  0
  -26.7470  -32.1195   21.9949 O   0  0  0  0  0  0  0  0  0  0  0  0
  -23.3524  -34.0954   24.0888 O   0  0  0  0  0  0  0  0  0  0  0  0
  -29.7487  -23.2960   24.0495 O   0  0  0  0  0  0  0  0  0  0  0  0
  -24.2728  -12.8777   20.5574 O   0  0  0  0  0  0  0  0  0  0  0  0
  -25.6508  -25.7282   18.3068 O   0  0  0  0  0  0  0  0  0  1  0  0
  -24.7394   -7.4057   21.0511 F   0  0  0  0  0  0  0  0  0  0  0  0
  -22.7144  -11.4784   22.3618 F   0  0  0  0  0  0  0  0  0  0  0  0
  1  2  1  0  0  0  0
  1  5  2  0  0  0  0
  2  6  2  0  0  0  0
  3  8  2  0  0  0  0
  3 17  1  0  0  0  0
  4  9  1  0  0  0  0
  4 17  2  0  0  0  0
  5 19  1  0  0  0  0
  6 21  1  0  0  0  0
  7 10  2  0  0  0  0
  7 20  1  0  0  0  0
  8 24  1  0  0  0  0
  9 24  2  0  0  0  0
 10 25  1  0  0  0  0
 11 12  2  0  0  0  0
 11 26  1  0  0  0  0
 12 27  1  0  0  0  0
 13 22  1  0  0  0  0
 13 25  2  0  0  0  0
 14 23  2  0  0  0  0
 14 30  1  0  0  0  0
 15 23  1  0  0  0  0
 15 31  2  0  0  0  0
 16 27  2  0  0  0  0
 16 28  1  0  0  0  0
 17 29  1  0  0  0  0
 18 29  1  0  0  0  0
 18 32  2  0  0  0  0
 18 33  1  0  0  0  0
 19 21  2  0  0  0  0
 19 38  1  0  0  0  0
 20 22  2  0  0  0  0
 20 39  1  0  0  0  0
 21 51  1  0  0  0  0
 22 40  1  0  0  0  0
 23 66  1  0  0  0  0
 24 89  1  0  0  0  0
 25 90  1  0  0  0  0
 26 28  2  0  0  0  0
 26 89  1  0  0  0  0
 27 91  1  0  0  0  0
 28 92  1  0  0  0  0
 29 72  2  0  0  0  0
 30 67  1  0  0  0  0
 30 73  2  0  0  0  0
 31 73  1  0  0  0  0
 31 79  1  0  0  0  0
 32 74  1  0  0  0  0
 32 77  1  0  0  0  0
 33 78  1  0  0  0  0
 33 84  2  0  0  0  0
 34 52  1  0  0  0  0
 34 80  1  0  0  0  0
 34 85  2  0  0  0  0
 35 68  1  0  0  0  0
 35 75  1  0  0  0  0
 35 86  2  0  0  0  0
 36 69  1  0  0  0  0
 36 81  1  0  0  0  0
 36 87  2  0  0  0  0
 37 76  1  0  0  0  0
 37 79  1  0  0  0  0
 37 88  2  0  0  0  0
 38 41  1  0  0  0  0
 39 52  1  0  0  0  0
 40 75  1  0  0  0  0
 41 45  1  0  0  0  0
 42 46  1  0  0  0  0
 42 47  1  0  0  0  0
 43 44  1  0  0  0  0
 43 49  1  0  0  0  0
 44 50  1  0  0  0  0
 45 51  1  0  0  0  0
 46 53  1  0  0  0  0
 47 76  1  0  0  0  0
 48 53  1  0  0  0  0
 48 76  1  0  0  0  0
 49 82  1  0  0  0  0
 50 82  1  0  0  0  0
 51 80  1  0  0  0  0
 52 75  1  0  0  0  0
 53 74  1  0  0  0  0
 54 63  1  0  0  0  0
 55 67  1  0  0  0  0
 56 67  1  0  0  0  0
 57 69  1  0  0  0  0
 58 70  1  0  0  0  0
 59 71  1  0  0  0  0
 60 71  1  0  0  0  0
 61 71  1  0  0  0  0
 62 83  1  0  0  0  0
 63 64  1  0  0  0  0
 64 82  1  0  0  0  0
 65 70  1  0  0  0  0
 65 90  1  0  0  0  0
 66 70  1  0  0  0  0
 66 82  1  0  0  0  0
 68 71  1  0  0  0  0
 68 81  1  0  0  0  0
 69 83  1  0  0  0  0
 72 74  1  0  0  0  0
M  CHG  2  82   1  83   1
M  ISO  4  37 100  65 101  79 100  90 101
M  END
> <Batch ID>
0096

> <Smiles>
CCC[N+]1(C(c2cc([100NH:0][100C:0](=O)N3CCCC(n4nc(-c5ccc(Oc6ccc(F)cc6F)cc5)c(C(N)=O)c4N)C3)nc(C(C)C)c2)C(C)[101CH2:1][101O:1]c2ccc3c(c2)CN(C(=O)C(NC(=O)C(C)NC)C(C)(C)C)C(C(=O)NC2CCCc4ccccc42)C3)CCCC1

> <Shape>
0.355

> <Color>
0.071

> <Negative vol penalty>
0.000

$$$$

  -OEChem-04052319243D

 89 97  0     1  0  0  0  0  0999 V2000
  -29.7902  -11.9401   19.9781 C   0  0  0  0  0  0  0  0  0  0  0  0
  -30.1560  -13.2628   19.7502 C   0  0  0  0  0  0  0  0  0  0  0  0
  -20.5612  -27.1451   23.8804 C   0  0  0  0  0  0  0  0  0  0  0  0
  -20.3765  -27.8365   21.5728 C   0  0  0  0  0  0  0  0  0  0  0  0
  -28.4520  -11.5614   19.8803 C   0  0  0  0  0  0  0  0  0  0  0  0
  -29.1838  -14.2075   19.4232 C   0  0  0  0  0  0  0  0  0  0  0  0
  -29.1029  -20.1158   21.0331 C   0  0  0  0  0  0  0  0  0  0  0  0
  -31.2867  -24.8455   17.1972 C   0  0  0  0  0  0  0  0  0  0  0  0
  -31.4621  -26.0378   16.4949 C   0  0  0  0  0  0  0  0  0  0  0  0
  -19.1854  -26.9200   23.9231 C   0  0  0  0  0  0  0  0  0  0  0  0
  -19.0006  -27.6113   21.6154 C   0  0  0  0  0  0  0  0  0  0  0  0
  -29.4735  -21.2773   20.3570 C   0  0  0  0  0  0  0  0  0  0  0  0
  -15.4924  -26.8745   21.0090 C   0  0  0  0  0  0  0  0  0  0  0  0
  -14.9120  -26.1961   19.9374 C   0  0  0  0  0  0  0  0  0  0  0  0
  -27.1795  -21.6149   19.6917 C   0  0  0  0  0  0  0  0  0  0  0  0
  -29.7662  -25.9594   18.7087 C   0  0  0  0  0  0  0  0  0  0  0  0
  -16.3222  -24.2856   20.3832 C   0  0  0  0  0  0  0  0  0  0  0  0
  -21.1568  -27.6035   22.7052 C   0  0  0  0  0  0  0  0  0  0  0  0
  -23.5801  -26.9147   22.3040 C   0  0  0  0  0  0  0  0  0  0  0  0
  -27.4616  -12.5038   19.5615 C   0  0  0  0  0  0  0  0  0  0  0  0
  -27.7673  -19.6884   21.0344 C   0  0  0  0  0  0  0  0  0  0  0  0
  -27.8312  -13.8408   19.3197 C   0  0  0  0  0  0  0  0  0  0  0  0
  -26.7940  -20.4490   20.3707 C   0  0  0  0  0  0  0  0  0  0  0  0
  -30.4388  -24.8063   18.3041 C   0  0  0  0  0  0  0  0  0  0  0  0
  -30.7896  -27.1909   16.8994 C   0  0  0  0  0  0  0  0  0  0  0  0
  -29.9416  -27.1517   18.0063 C   0  0  0  0  0  0  0  0  0  0  0  0
  -18.4050  -27.1530   22.7906 C   0  0  0  0  0  0  0  0  0  0  0  0
  -28.5123  -22.0255   19.6837 C   0  0  0  0  0  0  0  0  0  0  0  0
  -16.4878  -26.2586   21.7677 C   0  0  0  0  0  0  0  0  0  0  0  0
  -15.3268  -24.9016   19.6245 C   0  0  0  0  0  0  0  0  0  0  0  0
  -16.9026  -24.9641   21.4548 C   0  0  0  0  0  0  0  0  0  0  0  0
  -22.5780  -27.8368   22.6607 C   0  0  0  0  0  0  0  0  0  0  0  0
  -24.7529  -27.6199   22.4205 C   0  0  0  0  0  0  0  0  0  0  0  0
  -23.4614  -25.5432   21.9031 C   0  0  0  0  0  0  0  0  0  0  0  0
  -26.2371  -17.1067   19.9872 C   0  0  0  0  0  0  0  0  0  0  0  0
  -23.7035  -18.4837   21.4728 C   0  0  0  0  0  0  0  0  0  0  0  0
  -25.9391  -33.5051   22.1576 C   0  0  0  0  0  0  0  0  0  0  0  0
  -22.2260  -21.3295   22.6413 C   0  0  0  0  0  0  0  0  0  0  0  0
  -26.0342  -12.0376   19.4207 C   0  0  0  0  0  0  0  0  0  0  0  0
  -27.3792  -18.4476   21.7909 C   0  0  0  0  0  0  0  0  0  0  0  0
  -25.3433  -20.0443   20.3588 C   0  0  0  0  0  0  0  0  0  0  0  0
  -25.0172  -13.1759   19.4373 C   0  0  0  0  0  0  0  0  0  0  0  0
  -26.7285  -31.2449   24.8237 C   0  0  0  0  0  0  0  0  0  0  0  0
  -25.4676  -14.3076   18.5191 C   0  0  0  0  0  0  0  0  0  0  0  0
  -25.8240  -30.0429   24.5549 C   0  0  0  0  0  0  0  0  0  0  0  0
  -26.0470  -32.5539   24.4374 C   0  0  0  0  0  0  0  0  0  0  0  0
  -24.6562  -31.3909   22.7538 C   0  0  0  0  0  0  0  0  0  0  0  0
  -26.8025  -14.8996   18.9871 C   0  0  1  0  0  0  0  0  0  0  0  0
  -26.0760  -17.8286   21.2950 C   0  0  1  0  0  0  0  0  0  0  0  0
  -25.3182  -30.0458   23.1014 C   0  0  2  0  0  0  0  0  0  0  0  0
  -30.9940  -28.4561   16.1325 C   0  0  0  0  0  0  0  0  0  0  0  0
  -20.1396  -22.1438   23.7730 C   0  0  0  0  0  0  0  0  0  0  0  0
  -29.8040  -28.6970   20.9037 C   0  0  0  0  0  0  0  0  0  0  0  0
  -23.8707  -33.4236   20.8014 C   0  0  0  0  0  0  0  0  0  0  0  0
  -25.9161  -34.6098   19.9776 C   0  0  0  0  0  0  0  0  0  0  0  0
  -22.1761  -18.2146   18.8451 C   0  0  0  0  0  0  0  0  0  0  0  0
  -20.5052  -19.8563   19.7289 C   0  0  0  0  0  0  0  0  0  0  0  0
  -20.8399  -17.6733   20.8887 C   0  0  0  0  0  0  0  0  0  0  0  0
  -23.7450  -22.3370   24.9729 C   0  0  0  0  0  0  0  0  0  0  0  0
  -30.0805  -31.4237   18.3264 C   0  0  0  0  0  0  0  0  0  0  0  0
  -29.2114  -28.3738   18.4581 C   0  0  0  0  0  0  0  0  0  0  0  0
  -30.2507  -23.5237   19.0598 C   0  0  0  0  0  0  0  0  0  1  0  0
  -27.4768  -31.9969   20.0365 C   0  0  0  0  0  0  0  0  0  0  0  0
  -25.9444  -32.0999   20.0911 C   0  0  0  0  0  0  0  0  0  0  0  0
  -27.9710  -30.6890   19.4268 C   0  0  0  0  0  0  0  0  0  0  0  0
  -22.6237  -19.4563   21.0641 C   0  0  1  0  0  0  0  0  0  0  0  0
  -21.5638  -21.6482   23.9696 C   0  0  2  0  0  0  0  0  0  0  0  0
  -29.9818  -29.2213   19.4847 C   0  0  1  0  0  0  0  0  0  0  0  0
  -25.4017  -33.3884   20.7534 C   0  0  0  0  0  0  0  0  0  0  0  0
  -21.5638  -18.8070   20.1301 C   0  0  0  0  0  0  0  0  0  0  0  0
  -23.0711  -29.0363   22.9801 N   0  0  0  0  0  0  0  0  0  0  0  0
  -24.3959  -28.8727   22.8246 N   0  0  0  0  0  0  0  0  0  0  0  0
  -25.0148  -18.8200   21.1076 N   0  0  0  0  0  0  0  0  0  0  0  0
  -25.5609  -32.5084   23.0573 N   0  0  0  0  0  0  0  0  0  0  0  0
  -26.0444  -27.2845   22.2159 N   0  0  0  0  0  0  0  0  0  0  0  0
  -22.1820  -24.9750   21.8360 N   0  0  0  0  0  0  0  0  0  0  0  0
  -26.5967  -15.7789   20.1181 N   0  0  0  0  0  0  0  0  0  0  0  0
  -22.0759  -20.0016   22.3014 N   0  0  0  0  0  0  0  0  0  0  0  0
  -22.3323  -22.7010   24.6921 N   0  3  0  0  0  0  0  0  0  0  0  0
  -29.4754  -30.6240   19.4500 N   0  3  1  0  0  0  0  0  0  0  0  0
  -24.4616  -24.8377   21.6287 O   0  0  0  0  0  0  0  0  0  0  0  0
  -26.0477  -17.7093   18.9371 O   0  0  0  0  0  0  0  0  0  0  0  0
  -23.3957  -17.4667   22.0994 O   0  0  0  0  0  0  0  0  0  0  0  0
  -26.6753  -34.4530   22.4435 O   0  0  0  0  0  0  0  0  0  0  0  0
  -22.8142  -22.1747   21.9704 O   0  0  0  0  0  0  0  0  0  0  0  0
  -17.0625  -26.9332   22.8318 O   0  0  0  0  0  0  0  0  0  0  0  0
  -28.8715  -23.1594   19.0224 O   0  0  0  0  0  0  0  0  0  1  0  0
  -14.7683  -24.2496   18.5963 F   0  0  0  0  0  0  0  0  0  0  0  0
  -17.8576  -24.3667   22.1808 F   0  0  0  0  0  0  0  0  0  0  0  0
  1  2  1  0  0  0  0
  1  5  2  0  0  0  0
  2  6  2  0  0  0  0
  3 10  2  0  0  0  0
  3 18  1  0  0  0  0
  4 11  1  0  0  0  0
  4 18  2  0  0  0  0
  5 20  1  0  0  0  0
  6 22  1  0  0  0  0
  7 12  2  0  0  0  0
  7 21  1  0  0  0  0
  8  9  2  0  0  0  0
  8 24  1  0  0  0  0
  9 25  1  0  0  0  0
 10 27  1  0  0  0  0
 11 27  2  0  0  0  0
 12 28  1  0  0  0  0
 13 14  2  0  0  0  0
 13 29  1  0  0  0  0
 14 30  1  0  0  0  0
 15 23  1  0  0  0  0
 15 28  2  0  0  0  0
 16 24  2  0  0  0  0
 16 26  1  0  0  0  0
 17 30  2  0  0  0  0
 17 31  1  0  0  0  0
 18 32  1  0  0  0  0
 19 32  1  0  0  0  0
 19 33  2  0  0  0  0
 19 34  1  0  0  0  0
 20 22  2  0  0  0  0
 20 39  1  0  0  0  0
 21 23  2  0  0  0  0
 21 40  1  0  0  0  0
 22 48  1  0  0  0  0
 23 41  1  0  0  0  0
 24 62  1  0  0  0  0
 25 26  2  0  0  0  0
 25 51  1  0  0  0  0
 26 61  1  0  0  0  0
 27 86  1  0  0  0  0
 28 87  1  0  0  0  0
 29 31  2  0  0  0  0
 29 86  1  0  0  0  0
 30 88  1  0  0  0  0
 31 89  1  0  0  0  0
 32 71  2  0  0  0  0
 33 72  1  0  0  0  0
 33 75  1  0  0  0  0
 34 76  1  0  0  0  0
 34 81  2  0  0  0  0
 35 49  1  0  0  0  0
 35 77  1  0  0  0  0
 35 82  2  0  0  0  0
 36 66  1  0  0  0  0
 36 73  1  0  0  0  0
 36 83  2  0  0  0  0
 37 69  1  0  0  0  0
 37 74  1  0  0  0  0
 37 84  2  0  0  0  0
 38 67  1  0  0  0  0
 38 78  1  0  0  0  0
 38 85  2  0  0  0  0
 39 42  1  0  0  0  0
 40 49  1  0  0  0  0
 41 73  1  0  0  0  0
 42 44  1  0  0  0  0
 43 45  1  0  0  0  0
 43 46  1  0  0  0  0
 44 48  1  0  0  0  0
 45 50  1  0  0  0  0
 46 74  1  0  0  0  0
 47 50  1  0  0  0  0
 47 74  1  0  0  0  0
 48 77  1  0  0  0  0
 49 73  1  0  0  0  0
 50 72  1  0  0  0  0
 52 67  1  0  0  0  0
 53 68  1  0  0  0  0
 54 69  1  0  0  0  0
 55 69  1  0  0  0  0
 56 70  1  0  0  0  0
 57 70  1  0  0  0  0
 58 70  1  0  0  0  0
 59 79  1  0  0  0  0
 60 80  1  0  0  0  0
 61 68  1  0  0  0  0
 62 87  1  0  0  0  0
 63 64  1  0  0  0  0
 63 65  1  0  0  0  0
 64 69  1  0  0  0  0
 65 80  1  0  0  0  0
 66 70  1  0  0  0  0
 66 78  1  0  0  0  0
 67 79  1  0  0  0  0
 68 80  1  0  0  0  0
 71 72  1  0  0  0  0
M  CHG  2  79   1  80   1
M  ISO  4  37 100  62 101  69 100  87 101
M  END
> <Batch ID>
0096

> <Smiles>
CNC(C)C(=O)NC(C(=O)N1Cc2cc([101O:1][101CH2:1]c3ccc(C)c(CC(C)N(C)CCC[100C:0](C)(C)[100C:0](=O)N4CCCC(n5nc(-c6ccc(Oc7ccc(F)cc7F)cc6)c(C(N)=O)c5N)C4)c3)ccc2CC1C(=O)NC1CCCc2ccccc21)C(C)(C)C

> <Shape>
0.223

> <Color>
0.084

> <Negative vol penalty>
0.000

$$$$

  -OEChem-04052319243D

 87 95  0     1  0  0  0  0  0999 V2000
  -29.7624  -12.4791   20.6996 C   0  0  0  0  0  0  0  0  0  0  0  0
  -29.7008  -13.7897   21.1621 C   0  0  0  0  0  0  0  0  0  0  0  0
  -29.6017  -23.6229   20.2594 C   0  0  0  0  0  0  0  0  0  0  0  0
  -27.5547  -23.2118   19.0436 C   0  0  0  0  0  0  0  0  0  0  0  0
  -28.8900  -12.0524   19.6992 C   0  0  0  0  0  0  0  0  0  0  0  0
  -28.7674  -14.6747   20.6237 C   0  0  0  0  0  0  0  0  0  0  0  0
  -24.6696  -20.2597   22.4491 C   0  0  0  0  0  0  0  0  0  0  0  0
  -29.8504  -22.2512   20.3045 C   0  0  0  0  0  0  0  0  0  0  0  0
  -27.8035  -21.8400   19.0887 C   0  0  0  0  0  0  0  0  0  0  0  0
  -24.3771  -21.5601   22.0404 C   0  0  0  0  0  0  0  0  0  0  0  0
  -30.8420  -18.8336   21.0528 C   0  0  0  0  0  0  0  0  0  0  0  0
  -31.2617  -18.2886   22.2663 C   0  0  0  0  0  0  0  0  0  0  0  0
  -22.8676  -20.6898   20.3721 C   0  0  0  0  0  0  0  0  0  0  0  0
  -29.2163  -19.0388   23.3106 C   0  0  0  0  0  0  0  0  0  0  0  0
  -19.0049  -26.3256   22.5169 C   0  0  0  0  0  0  0  0  0  0  0  0
  -20.2076  -27.9988   23.3935 C   0  0  0  0  0  0  0  0  0  0  0  0
  -28.4538  -24.1033   19.6290 C   0  0  0  0  0  0  0  0  0  0  0  0
  -28.6054  -26.4265   18.5863 C   0  0  0  0  0  0  0  0  0  0  0  0
  -27.9390  -12.9299   19.1550 C   0  0  0  0  0  0  0  0  0  0  0  0
  -24.0706  -19.1623   21.8141 C   0  0  0  0  0  0  0  0  0  0  0  0
  -27.8824  -14.2597   19.6141 C   0  0  0  0  0  0  0  0  0  0  0  0
  -23.1523  -19.3765   20.7763 C   0  0  0  0  0  0  0  0  0  0  0  0
  -19.7107  -26.9080   21.4874 C   0  0  0  0  0  0  0  0  0  0  0  0
  -20.4715  -27.9667   22.0420 C   0  0  0  0  0  0  0  0  0  0  0  0
  -28.9514  -21.3597   19.7191 C   0  0  0  0  0  0  0  0  0  0  0  0
  -23.4782  -21.7752   20.9998 C   0  0  0  0  0  0  0  0  0  0  0  0
  -29.6095  -19.4813   20.9683 C   0  0  0  0  0  0  0  0  0  0  0  0
  -30.4488  -18.3912   23.3952 C   0  0  0  0  0  0  0  0  0  0  0  0
  -28.7966  -19.5839   22.0972 C   0  0  0  0  0  0  0  0  0  0  0  0
  -28.1959  -25.5201   19.5826 C   0  0  0  0  0  0  0  0  0  0  0  0
  -28.1136  -27.6395   19.0025 C   0  0  0  0  0  0  0  0  0  0  0  0
  -29.3626  -26.1928   17.3914 C   0  0  0  0  0  0  0  0  0  0  0  0
  -25.1405  -16.6796   20.1420 C   0  0  0  0  0  0  0  0  0  0  0  0
  -22.0337  -15.7549   20.2653 C   0  0  0  0  0  0  0  0  0  0  0  0
  -18.7583  -16.6439   20.6235 C   0  0  0  0  0  0  0  0  0  0  0  0
  -23.5264  -29.1875   22.5256 C   0  0  0  0  0  0  0  0  0  0  0  0
  -27.0488  -12.4363   18.0421 C   0  0  0  0  0  0  0  0  0  0  0  0
  -24.3765  -17.7667   22.2846 C   0  0  0  0  0  0  0  0  0  0  0  0
  -22.4668  -18.2332   20.0754 C   0  0  0  0  0  0  0  0  0  0  0  0
  -25.8386  -13.3312   17.7878 C   0  0  0  0  0  0  0  0  0  0  0  0
  -26.9527  -30.0470   22.9707 C   0  0  0  0  0  0  0  0  0  0  0  0
  -26.2594  -14.7965   17.7370 C   0  0  0  0  0  0  0  0  0  0  0  0
  -27.6968  -29.0661   22.0630 C   0  0  0  0  0  0  0  0  0  0  0  0
  -25.7358  -29.3976   23.6260 C   0  0  0  0  0  0  0  0  0  0  0  0
  -25.5389  -27.7768   21.7799 C   0  0  0  0  0  0  0  0  0  0  0  0
  -26.8672  -15.2425   19.0724 C   0  0  1  0  0  0  0  0  0  0  0  0
  -24.0992  -16.7047   21.2250 C   0  0  1  0  0  0  0  0  0  0  0  0
  -26.7418  -28.4020   21.0529 C   0  0  2  0  0  0  0  0  0  0  0  0
  -16.4443  -15.6731   20.6411 C   0  0  0  0  0  0  0  0  0  0  0  0
  -22.1166  -15.5084   17.2252 C   0  0  0  0  0  0  0  0  0  0  0  0
  -19.6131  -15.4771   17.2291 C   0  0  0  0  0  0  0  0  0  0  0  0
  -20.8831  -13.6695   18.3877 C   0  0  0  0  0  0  0  0  0  0  0  0
  -18.2816  -17.5319   23.4061 C   0  0  0  0  0  0  0  0  0  0  0  0
  -19.5338  -22.3190   24.7063 C   0  0  0  0  0  0  0  0  0  0  0  0
  -18.2578  -23.5568   26.4499 C   0  0  0  0  0  0  0  0  0  0  0  0
  -19.6735  -26.4863   20.0401 C   0  0  0  0  0  0  0  0  0  0  0  0
  -21.3819  -28.8744   21.3163 C   0  0  0  0  0  0  0  0  0  0  0  0
  -20.0938  -25.0307   19.8084 C   0  0  0  0  0  0  0  0  0  0  0  0
  -21.4913  -24.7183   20.3453 C   0  0  0  0  0  0  0  0  0  0  0  0
  -19.7708  -25.9600   25.8948 C   0  0  0  0  0  0  0  0  0  0  0  0
  -18.7838  -26.6926   24.9799 C   0  0  0  0  0  0  0  0  0  0  0  0
  -20.2508  -24.6048   25.3867 C   0  0  0  0  0  0  0  0  0  0  0  0
  -21.8896  -23.2762   20.0621 C   0  0  0  0  0  0  0  0  0  1  0  0
  -20.8152  -15.9835   19.4039 C   0  0  1  0  0  0  0  0  0  0  0  0
  -17.6469  -16.0694   21.4834 C   0  0  2  0  0  0  0  0  0  0  0  0
  -20.8712  -15.1813   18.0732 C   0  0  0  0  0  0  0  0  0  0  0  0
  -27.4979  -26.1072   20.5583 N   0  0  0  0  0  0  0  0  0  0  0  0
  -19.3150  -26.9966   23.6709 N   0  0  0  0  0  0  0  0  0  0  0  0
  -27.4650  -27.3955   20.1772 N   0  0  0  0  0  0  0  0  0  0  0  0
  -22.8036  -16.8871   20.5675 N   0  0  0  0  0  0  0  0  0  0  0  0
  -24.8701  -28.7879   22.6137 N   0  0  0  0  0  0  0  0  0  0  0  0
  -28.1770  -28.8803   18.4746 N   0  0  0  0  0  0  0  0  0  0  0  0
  -29.7896  -24.8867   17.1156 N   0  0  0  0  0  0  0  0  0  0  0  0
  -25.8247  -15.4828   20.0470 N   0  0  0  0  0  0  0  0  0  0  0  0
  -19.6604  -15.6741   20.2400 N   0  0  0  0  0  0  0  0  0  0  0  0
  -22.7773  -28.5647   21.5348 N   0  0  0  0  0  0  0  0  0  0  0  0
  -17.2035  -17.0711   22.4938 N   0  3  0  0  0  0  0  0  0  0  0  0
  -19.1088  -23.6780   25.2085 N   0  3  0  0  0  0  0  0  0  0  0  0
  -29.6659  -27.1178   16.6002 O   0  0  0  0  0  0  0  0  0  0  0  0
  -25.3096  -17.6721   19.4433 O   0  0  0  0  0  0  0  0  0  0  0  0
  -22.2889  -14.6150   20.6616 O   0  0  0  0  0  0  0  0  0  0  0  0
  -18.8181  -17.8331   20.3192 O   0  0  0  0  0  0  0  0  0  0  0  0
  -23.0323  -30.0403   23.2710 O   0  0  0  0  0  0  0  0  0  0  0  0
  -29.1939  -20.0212   19.7627 O   0  0  0  0  0  0  0  0  0  0  0  0
  -23.1913  -23.0435   20.5985 O   0  0  0  0  0  0  0  0  0  1  0  0
  -30.8513  -17.8664   24.5600 F   0  0  0  0  0  0  0  0  0  0  0  0
  -27.6110  -20.2039   22.0218 F   0  0  0  0  0  0  0  0  0  0  0  0
  1  2  1  0  0  0  0
  1  5  2  0  0  0  0
  2  6  2  0  0  0  0
  3  8  2  0  0  0  0
  3 17  1  0  0  0  0
  4  9  1  0  0  0  0
  4 17  2  0  0  0  0
  5 19  1  0  0  0  0
  6 21  1  0  0  0  0
  7 10  2  0  0  0  0
  7 20  1  0  0  0  0
  8 25  1  0  0  0  0
  9 25  2  0  0  0  0
 10 26  1  0  0  0  0
 11 12  2  0  0  0  0
 11 27  1  0  0  0  0
 12 28  1  0  0  0  0
 13 22  1  0  0  0  0
 13 26  2  0  0  0  0
 14 28  2  0  0  0  0
 14 29  1  0  0  0  0
 15 23  2  0  0  0  0
 15 68  1  0  0  0  0
 16 24  2  0  0  0  0
 16 68  1  0  0  0  0
 17 30  1  0  0  0  0
 18 30  1  0  0  0  0
 18 31  2  0  0  0  0
 18 32  1  0  0  0  0
 19 21  2  0  0  0  0
 19 37  1  0  0  0  0
 20 22  2  0  0  0  0
 20 38  1  0  0  0  0
 21 46  1  0  0  0  0
 22 39  1  0  0  0  0
 23 24  1  0  0  0  0
 23 56  1  0  0  0  0
 24 57  1  0  0  0  0
 25 84  1  0  0  0  0
 26 85  1  0  0  0  0
 27 29  2  0  0  0  0
 27 84  1  0  0  0  0
 28 86  1  0  0  0  0
 29 87  1  0  0  0  0
 30 67  2  0  0  0  0
 31 69  1  0  0  0  0
 31 72  1  0  0  0  0
 32 73  1  0  0  0  0
 32 79  2  0  0  0  0
 33 47  1  0  0  0  0
 33 74  1  0  0  0  0
 33 80  2  0  0  0  0
 34 64  1  0  0  0  0
 34 70  1  0  0  0  0
 34 81  2  0  0  0  0
 35 65  1  0  0  0  0
 35 75  1  0  0  0  0
 35 82  2  0  0  0  0
 36 71  1  0  0  0  0
 36 76  1  0  0  0  0
 36 83  2  0  0  0  0
 37 40  1  0  0  0  0
 38 47  1  0  0  0  0
 39 70  1  0  0  0  0
 40 42  1  0  0  0  0
 41 43  1  0  0  0  0
 41 44  1  0  0  0  0
 42 46  1  0  0  0  0
 43 48  1  0  0  0  0
 44 71  1  0  0  0  0
 45 48  1  0  0  0  0
 45 71  1  0  0  0  0
 46 74  1  0  0  0  0
 47 70  1  0  0  0  0
 48 69  1  0  0  0  0
 49 65  1  0  0  0  0
 50 66  1  0  0  0  0
 51 66  1  0  0  0  0
 52 66  1  0  0  0  0
 53 77  1  0  0  0  0
 54 78  1  0  0  0  0
 55 78  1  0  0  0  0
 56 58  1  0  0  0  0
 57 76  1  0  0  0  0
 58 59  1  0  0  0  0
 59 63  1  0  0  0  0
 60 61  1  0  0  0  0
 60 62  1  0  0  0  0
 61 68  1  0  0  0  0
 62 78  1  0  0  0  0
 63 85  1  0  0  0  0
 64 66  1  0  0  0  0
 64 75  1  0  0  0  0
 65 77  1  0  0  0  0
 67 69  1  0  0  0  0
M  CHG  2  77   1  78   1
M  ISO  4  36 100  63 101  76 100  85 101
M  END
> <Batch ID>
0096

> <Smiles>
CNC(C)C(=O)NC(C(=O)N1Cc2cc([101O:1][101CH2:1]CCCc3cn(CCCN(C)C)cc3C[100NH:0][100C:0](=O)N3CCCC(n4nc(-c5ccc(Oc6ccc(F)cc6F)cc5)c(C(N)=O)c4N)C3)ccc2CC1C(=O)NC1CCCc2ccccc21)C(C)(C)C

> <Shape>
0.205

> <Color>
0.080

> <Negative vol penalty>
0.000

$$$$

  -OEChem-04052319243D

 89 97  0     1  0  0  0  0  0999 V2000
  -26.8947  -35.7243   18.9223 C   0  0  0  0  0  0  0  0  0  0  0  0
  -27.1487  -34.4926   18.3274 C   0  0  0  0  0  0  0  0  0  0  0  0
  -22.8001  -10.0742   20.1087 C   0  0  0  0  0  0  0  0  0  0  0  0
  -24.1343   -9.6728   22.0825 C   0  0  0  0  0  0  0  0  0  0  0  0
  -26.7678  -35.8150   20.3078 C   0  0  0  0  0  0  0  0  0  0  0  0
  -27.2769  -33.3510   19.1179 C   0  0  0  0  0  0  0  0  0  0  0  0
  -25.5258  -27.6615   17.6797 C   0  0  0  0  0  0  0  0  0  0  0  0
  -22.0396   -8.9398   20.3921 C   0  0  0  0  0  0  0  0  0  0  0  0
  -23.3738   -8.5384   22.3659 C   0  0  0  0  0  0  0  0  0  0  0  0
  -26.2260  -26.5606   17.1882 C   0  0  0  0  0  0  0  0  0  0  0  0
  -20.3565   -7.8381   23.7174 C   0  0  0  0  0  0  0  0  0  0  0  0
  -19.9347   -7.6549   25.0342 C   0  0  0  0  0  0  0  0  0  0  0  0
  -26.4728  -25.7214   19.4363 C   0  0  0  0  0  0  0  0  0  0  0  0
  -28.7927  -19.6325   16.5744 C   0  0  0  0  0  0  0  0  0  0  0  0
  -28.9401  -19.1016   18.9267 C   0  0  0  0  0  0  0  0  0  0  0  0
  -21.1312   -5.5579   25.1257 C   0  0  0  0  0  0  0  0  0  0  0  0
  -23.8475  -10.4407   20.9540 C   0  0  0  0  0  0  0  0  0  0  0  0
  -24.1754  -12.9389   20.5548 C   0  0  0  0  0  0  0  0  0  0  0  0
  -26.8849  -34.6724   21.1148 C   0  0  0  0  0  0  0  0  0  0  0  0
  -25.3030  -27.8064   19.0566 C   0  0  0  0  0  0  0  0  0  0  0  0
  -27.1528  -33.4268   20.5156 C   0  0  0  0  0  0  0  0  0  0  0  0
  -25.7674  -26.8237   19.9426 C   0  0  0  0  0  0  0  0  0  0  0  0
  -28.3497  -19.8160   17.8843 C   0  0  0  0  0  0  0  0  0  0  0  0
  -29.8260  -18.7344   16.3070 C   0  0  0  0  0  0  0  0  0  0  0  0
  -29.9735  -18.2036   18.6594 C   0  0  0  0  0  0  0  0  0  0  0  0
  -30.4164  -18.0201   17.3495 C   0  0  0  0  0  0  0  0  0  0  0  0
  -22.3264   -8.1719   21.5206 C   0  0  0  0  0  0  0  0  0  0  0  0
  -26.7021  -25.5918   18.0668 C   0  0  0  0  0  0  0  0  0  0  0  0
  -21.1657   -6.8812   23.1047 C   0  0  0  0  0  0  0  0  0  0  0  0
  -20.3220   -6.5148   25.7384 C   0  0  0  0  0  0  0  0  0  0  0  0
  -21.5530   -5.7412   23.8089 C   0  0  0  0  0  0  0  0  0  0  0  0
  -24.6339  -11.6121   20.6615 C   0  0  0  0  0  0  0  0  0  0  0  0
  -25.3022  -13.6694   20.2666 C   0  0  0  0  0  0  0  0  0  0  0  0
  -22.8495  -13.4640   20.7029 C   0  0  0  0  0  0  0  0  0  0  0  0
  -26.1341  -29.9518   21.2499 C   0  0  0  0  0  0  0  0  0  0  0  0
  -24.1951  -28.1808   23.1542 C   0  0  0  0  0  0  0  0  0  0  0  0
  -22.7142  -25.1710   23.7824 C   0  0  0  0  0  0  0  0  0  0  0  0
  -30.7355  -14.6326   21.6336 C   0  0  0  0  0  0  0  0  0  0  0  0
  -26.7870  -34.8279   22.6118 C   0  0  0  0  0  0  0  0  0  0  0  0
  -24.5228  -28.9861   19.5684 C   0  0  0  0  0  0  0  0  0  0  0  0
  -25.5369  -26.9222   21.4277 C   0  0  0  0  0  0  0  0  0  0  0  0
  -26.5642  -33.5092   23.3478 C   0  0  0  0  0  0  0  0  0  0  0  0
  -29.9519  -12.2028   18.9534 C   0  0  0  0  0  0  0  0  0  0  0  0
  -27.5174  -32.4388   22.8257 C   0  0  0  0  0  0  0  0  0  0  0  0
  -28.4767  -11.8947   19.2040 C   0  0  0  0  0  0  0  0  0  0  0  0
  -30.6748  -12.5983   20.2374 C   0  0  0  0  0  0  0  0  0  0  0  0
  -28.5577  -13.4171   21.2180 C   0  0  0  0  0  0  0  0  0  0  0  0
  -27.2738  -32.1618   21.3373 C   0  0  1  0  0  0  0  0  0  0  0  0
  -24.8000  -29.2942   21.0366 C   0  0  1  0  0  0  0  0  0  0  0  0
  -27.7896  -13.0602   19.9366 C   0  0  2  0  0  0  0  0  0  0  0  0
  -30.2826  -18.5571   14.8957 C   0  0  0  0  0  0  0  0  0  0  0  0
  -31.1554  -15.6118   17.4385 C   0  0  0  0  0  0  0  0  0  0  0  0
  -32.8413  -17.4600   17.7500 C   0  0  0  0  0  0  0  0  0  0  0  0
  -21.2159  -24.0192   25.4335 C   0  0  0  0  0  0  0  0  0  0  0  0
  -26.8453  -20.8845   19.6854 C   0  0  0  0  0  0  0  0  0  0  0  0
  -25.9240  -20.3516   17.4409 C   0  0  0  0  0  0  0  0  0  0  0  0
  -26.5227  -27.9698   25.1157 C   0  0  0  0  0  0  0  0  0  0  0  0
  -25.3195  -26.0793   26.2321 C   0  0  0  0  0  0  0  0  0  0  0  0
  -24.2924  -28.3520   26.1806 C   0  0  0  0  0  0  0  0  0  0  0  0
  -30.5325  -16.7515   22.8781 C   0  0  0  0  0  0  0  0  0  0  0  0
  -20.6575  -24.6405   21.7216 C   0  0  0  0  0  0  0  0  0  0  0  0
  -30.5891  -17.4509   19.7935 C   0  0  0  0  0  0  0  0  0  0  0  0
  -29.5784  -16.6347   20.6061 C   0  0  0  0  0  0  0  0  0  0  0  0
  -27.6570  -22.2201   17.6920 C   0  0  0  0  0  0  0  0  0  0  0  0
  -31.5246  -17.0577   17.0625 C   0  0  0  0  0  0  0  0  0  0  0  0
  -24.3843  -26.9849   24.0558 C   0  0  1  0  0  0  0  0  0  0  0  0
  -21.2832  -24.8063   24.1340 C   0  0  2  0  0  0  0  0  0  0  0  0
  -27.2048  -20.8100   18.1803 C   0  0  0  0  0  0  0  0  0  0  0  0
  -25.1359  -27.3454   25.3683 C   0  0  0  0  0  0  0  0  0  0  0  0
  -25.9494  -11.5032   20.4576 N   0  0  0  0  0  0  0  0  0  0  0  0
  -26.3272  -12.7708   20.2198 N   0  0  0  0  0  0  0  0  0  0  0  0
  -24.7741  -28.0974   21.8800 N   0  0  0  0  0  0  0  0  0  0  0  0
  -29.9771  -13.6785   20.9356 N   0  0  0  0  0  0  0  0  0  0  0  0
  -25.5064  -14.9863   20.0512 N   0  0  0  0  0  0  0  0  0  0  0  0
  -22.4319  -13.8748   21.9762 N   0  0  0  0  0  0  0  0  0  0  0  0
  -26.1020  -31.3305   21.1630 N   0  0  0  0  0  0  0  0  0  0  0  0
  -23.0569  -26.4167   24.2642 N   0  0  0  0  0  0  0  0  0  0  0  0
  -26.6908  -23.2797   17.9436 N   0  0  0  0  0  0  0  0  0  1  0  0
  -30.2079  -15.9298   21.7207 N   0  0  0  0  0  0  0  0  0  0  0  0
  -20.6786  -23.9792   23.0517 N   0  3  0  0  0  0  0  0  0  0  0  0
  -22.0527  -13.5506   19.7379 O   0  0  0  0  0  0  0  0  0  0  0  0
  -27.1193  -29.2596   21.4778 O   0  0  0  0  0  0  0  0  0  0  0  0
  -23.5509  -29.1503   23.5627 O   0  0  0  0  0  0  0  0  0  0  0  0
  -23.4552  -24.4238   23.1475 O   0  0  0  0  0  0  0  0  0  0  0  0
  -31.8268  -14.3440   22.1412 O   0  0  0  0  0  0  0  0  0  0  0  0
  -21.5843   -7.0650   21.7975 O   0  0  0  0  0  0  0  0  0  0  0  0
  -27.3864  -24.5166   17.5897 O   0  0  0  0  0  0  0  0  0  1  0  0
  -19.9180   -6.3397   27.0035 F   0  0  0  0  0  0  0  0  0  0  0  0
  -22.3312   -4.8190   23.2260 F   0  0  0  0  0  0  0  0  0  0  0  0
  1  2  1  0  0  0  0
  1  5  2  0  0  0  0
  2  6  2  0  0  0  0
  3  8  2  0  0  0  0
  3 17  1  0  0  0  0
  4  9  1  0  0  0  0
  4 17  2  0  0  0  0
  5 19  1  0  0  0  0
  6 21  1  0  0  0  0
  7 10  2  0  0  0  0
  7 20  1  0  0  0  0
  8 27  1  0  0  0  0
  9 27  2  0  0  0  0
 10 28  1  0  0  0  0
 11 12  2  0  0  0  0
 11 29  1  0  0  0  0
 12 30  1  0  0  0  0
 13 22  1  0  0  0  0
 13 28  2  0  0  0  0
 14 23  1  0  0  0  0
 14 24  2  0  0  0  0
 15 23  2  0  0  0  0
 15 25  1  0  0  0  0
 16 30  2  0  0  0  0
 16 31  1  0  0  0  0
 17 32  1  0  0  0  0
 18 32  1  0  0  0  0
 18 33  2  0  0  0  0
 18 34  1  0  0  0  0
 19 21  2  0  0  0  0
 19 39  1  0  0  0  0
 20 22  2  0  0  0  0
 20 40  1  0  0  0  0
 21 48  1  0  0  0  0
 22 41  1  0  0  0  0
 23 68  1  0  0  0  0
 24 26  1  0  0  0  0
 24 51  1  0  0  0  0
 25 26  2  0  0  0  0
 25 62  1  0  0  0  0
 26 65  1  0  0  0  0
 27 86  1  0  0  0  0
 28 87  1  0  0  0  0
 29 31  2  0  0  0  0
 29 86  1  0  0  0  0
 30 88  1  0  0  0  0
 31 89  1  0  0  0  0
 32 70  2  0  0  0  0
 33 71  1  0  0  0  0
 33 74  1  0  0  0  0
 34 75  1  0  0  0  0
 34 81  2  0  0  0  0
 35 49  1  0  0  0  0
 35 76  1  0  0  0  0
 35 82  2  0  0  0  0
 36 66  1  0  0  0  0
 36 72  1  0  0  0  0
 36 83  2  0  0  0  0
 37 67  1  0  0  0  0
 37 77  1  0  0  0  0
 37 84  2  0  0  0  0
 38 73  1  0  0  0  0
 38 79  1  0  0  0  0
 38 85  2  0  0  0  0
 39 42  1  0  0  0  0
 40 49  1  0  0  0  0
 41 72  1  0  0  0  0
 42 44  1  0  0  0  0
 43 45  1  0  0  0  0
 43 46  1  0  0  0  0
 44 48  1  0  0  0  0
 45 50  1  0  0  0  0
 46 73  1  0  0  0  0
 47 50  1  0  0  0  0
 47 73  1  0  0  0  0
 48 76  1  0  0  0  0
 49 72  1  0  0  0  0
 50 71  1  0  0  0  0
 52 65  1  0  0  0  0
 53 65  1  0  0  0  0
 54 67  1  0  0  0  0
 55 68  1  0  0  0  0
 56 68  1  0  0  0  0
 57 69  1  0  0  0  0
 58 69  1  0  0  0  0
 59 69  1  0  0  0  0
 60 79  1  0  0  0  0
 61 80  1  0  0  0  0
 62 63  1  0  0  0  0
 63 79  1  0  0  0  0
 64 68  1  0  0  0  0
 64 78  1  0  0  0  0
 66 69  1  0  0  0  0
 66 77  1  0  0  0  0
 67 80  1  0  0  0  0
 70 71  1  0  0  0  0
 78 87  1  0  0  0  0
M  CHG  1  80   1
M  ISO  4  38 100  78 101  79 100  87 101
M  END
> <Batch ID>
0096

> <Smiles>
CNC(C)C(=O)NC(C(=O)N1Cc2cc([101O:1][101NH:1]CC(C)(C)c3cc(C)c(C(C)C)c(CC[100N:0](C)[100C:0](=O)N4CCCC(n5nc(-c6ccc(Oc7ccc(F)cc7F)cc6)c(C(N)=O)c5N)C4)c3)ccc2CC1C(=O)NC1CCCc2ccccc21)C(C)(C)C

> <Shape>
0.287

> <Color>
0.168

> <Negative vol penalty>
0.000

$$$$

  -OEChem-04052319243D

 81 89  0     1  0  0  0  0  0999 V2000
  -21.9376  -23.4744   20.5359 C   0  0  0  0  0  0  0  0  0  0  0  0
  -23.1662  -22.8346   20.6654 C   0  0  0  0  0  0  0  0  0  0  0  0
  -23.4713  -30.2638   20.4275 C   0  0  0  0  0  0  0  0  0  0  0  0
  -23.3481  -28.5652   22.1412 C   0  0  0  0  0  0  0  0  0  0  0  0
  -20.7794  -22.8595   21.0096 C   0  0  0  0  0  0  0  0  0  0  0  0
  -23.2374  -21.5800   21.2698 C   0  0  0  0  0  0  0  0  0  0  0  0
  -26.1874  -18.3557   18.7112 C   0  0  0  0  0  0  0  0  0  0  0  0
  -22.2033  -30.7196   20.7880 C   0  0  0  0  0  0  0  0  0  0  0  0
  -22.0801  -29.0211   22.5018 C   0  0  0  0  0  0  0  0  0  0  0  0
  -27.5662  -18.4982   18.8611 C   0  0  0  0  0  0  0  0  0  0  0  0
  -18.9112  -28.7337   21.3588 C   0  0  0  0  0  0  0  0  0  0  0  0
  -17.9159  -27.7799   21.5715 C   0  0  0  0  0  0  0  0  0  0  0  0
  -27.5766  -16.6754   20.4411 C   0  0  0  0  0  0  0  0  0  0  0  0
  -17.6635  -28.5507   23.8473 C   0  0  0  0  0  0  0  0  0  0  0  0
  -31.5028  -20.5806   20.3806 C   0  0  0  0  0  0  0  0  0  0  0  0
  -24.0437  -29.1866   21.1040 C   0  0  0  0  0  0  0  0  0  0  0  0
  -26.5903  -29.1454   21.2475 C   0  0  0  0  0  0  0  0  0  0  0  0
  -20.8351  -21.5924   21.6114 C   0  0  0  0  0  0  0  0  0  0  0  0
  -25.4901  -17.3775   19.4346 C   0  0  0  0  0  0  0  0  0  0  0  0
  -22.0790  -20.9482   21.7532 C   0  0  0  0  0  0  0  0  0  0  0  0
  -26.1894  -16.5208   20.2967 C   0  0  0  0  0  0  0  0  0  0  0  0
  -31.1372  -21.8524   20.7628 C   0  0  0  0  0  0  0  0  0  0  0  0
  -30.5890  -21.7614   22.0660 C   0  0  0  0  0  0  0  0  0  0  0  0
  -21.5077  -30.0982   21.8252 C   0  0  0  0  0  0  0  0  0  0  0  0
  -28.2606  -17.6599   19.7284 C   0  0  0  0  0  0  0  0  0  0  0  0
  -19.2827  -29.5960   22.3904 C   0  0  0  0  0  0  0  0  0  0  0  0
  -17.2920  -27.6884   22.8157 C   0  0  0  0  0  0  0  0  0  0  0  0
  -18.6588  -29.5045   23.6346 C   0  0  0  0  0  0  0  0  0  0  0  0
  -25.3532  -28.7149   20.7316 C   0  0  0  0  0  0  0  0  0  0  0  0
  -30.6364  -20.4367   22.4406 C   0  0  0  0  0  0  0  0  0  0  0  0
  -27.5231  -28.3960   20.5730 C   0  0  0  0  0  0  0  0  0  0  0  0
  -26.8712  -30.1342   22.2470 C   0  0  0  0  0  0  0  0  0  0  0  0
  -23.1757  -17.4225   21.6129 C   0  0  0  0  0  0  0  0  0  0  0  0
  -23.2990  -14.2021   21.2439 C   0  0  0  0  0  0  0  0  0  0  0  0
  -25.1095  -11.4582   20.3275 C   0  0  0  0  0  0  0  0  0  0  0  0
  -29.2960  -23.5087   18.5442 C   0  0  0  0  0  0  0  0  0  0  0  0
  -19.5628  -20.9884   22.1507 C   0  0  0  0  0  0  0  0  0  0  0  0
  -24.0069  -17.2191   19.2414 C   0  0  0  0  0  0  0  0  0  0  0  0
  -25.4906  -15.4414   21.0808 C   0  0  0  0  0  0  0  0  0  0  0  0
  -19.6736  -19.4939   22.4414 C   0  0  0  0  0  0  0  0  0  0  0  0
  -27.0349  -25.3878   16.5359 C   0  0  0  0  0  0  0  0  0  0  0  0
  -20.9590  -19.1924   23.2053 C   0  0  0  0  0  0  0  0  0  0  0  0
  -26.4937  -26.4518   17.4923 C   0  0  0  0  0  0  0  0  0  0  0  0
  -27.2589  -24.0536   17.2442 C   0  0  0  0  0  0  0  0  0  0  0  0
  -27.5596  -25.1919   19.4094 C   0  0  0  0  0  0  0  0  0  0  0  0
  -22.1937  -19.5759   22.3807 C   0  0  1  0  0  0  0  0  0  0  0  0
  -23.3220  -16.5265   20.4156 C   0  0  1  0  0  0  0  0  0  0  0  0
  -27.3705  -26.5704   18.7534 C   0  0  2  0  0  0  0  0  0  0  0  0
  -30.0627  -22.8794   22.8760 C   0  0  0  0  0  0  0  0  0  0  0  0
  -30.1995  -19.7832   23.6925 C   0  0  0  0  0  0  0  0  0  0  0  0
  -24.9550   -8.9583   20.1713 C   0  0  0  0  0  0  0  0  0  0  0  0
  -23.6428  -13.9943   24.2686 C   0  0  0  0  0  0  0  0  0  0  0  0
  -24.4218  -11.6366   23.9481 C   0  0  0  0  0  0  0  0  0  0  0  0
  -22.1101  -12.2871   23.2732 C   0  0  0  0  0  0  0  0  0  0  0  0
  -25.5376  -11.4986   17.3993 C   0  0  0  0  0  0  0  0  0  0  0  0
  -31.2926  -23.0778   19.9539 C   0  0  0  0  0  0  0  0  0  0  0  0
  -31.4380  -18.2388   21.3875 C   0  0  0  0  0  0  0  0  0  0  0  0
  -30.1589  -17.4451   21.1447 C   0  0  0  0  0  0  0  0  0  1  0  0
  -24.0739  -13.0806   21.8926 C   0  0  1  0  0  0  0  0  0  0  0  0
  -24.7675  -10.2770   19.4373 C   0  0  2  0  0  0  0  0  0  0  0  0
  -23.5753  -12.7712   23.3325 C   0  0  0  0  0  0  0  0  0  0  0  0
  -25.4848  -27.7658   19.8011 N   0  0  0  0  0  0  0  0  0  0  0  0
  -31.1940  -19.7282   21.4084 N   0  0  0  0  0  0  0  0  0  0  0  0
  -26.8156  -27.5938   19.7268 N   0  0  0  0  0  0  0  0  0  0  0  0
  -24.0388  -15.3304   20.8625 N   0  0  0  0  0  0  0  0  0  0  0  0
  -28.0992  -24.2352   18.4303 N   0  0  0  0  0  0  0  0  0  0  0  0
  -28.8712  -28.3518   20.6270 N   0  0  0  0  0  0  0  0  0  0  0  0
  -25.7955  -30.8103   22.8388 N   0  0  0  0  0  0  0  0  0  0  0  0
  -22.4553  -18.5759   21.3677 N   0  0  0  0  0  0  0  0  0  0  0  0
  -23.9960  -11.9476   20.9769 N   0  0  0  0  0  0  0  0  0  0  0  0
  -30.0358  -23.7449   19.6964 N   0  0  0  0  0  0  0  0  0  0  0  0
  -25.6390  -10.2700   18.2284 N   0  3  0  0  0  0  0  0  0  0  0  0
  -28.0421  -30.4216   22.5931 O   0  0  0  0  0  0  0  0  0  0  0  0
  -23.6778  -17.0911   22.6805 O   0  0  0  0  0  0  0  0  0  0  0  0
  -22.0834  -14.0785   21.0752 O   0  0  0  0  0  0  0  0  0  0  0  0
  -26.2510  -11.8999   20.4387 O   0  0  0  0  0  0  0  0  0  0  0  0
  -29.6796  -22.7128   17.6803 O   0  0  0  0  0  0  0  0  0  0  0  0
  -20.2705  -30.5429   22.1775 O   0  0  0  0  0  0  0  0  0  0  0  0
  -29.6063  -17.7972   19.8771 O   0  0  0  0  0  0  0  0  0  1  0  0
  -16.3352  -26.7734   23.0193 F   0  0  0  0  0  0  0  0  0  0  0  0
  -19.0107  -30.3309   24.6292 F   0  0  0  0  0  0  0  0  0  0  0  0
  1  2  1  0  0  0  0
  1  5  2  0  0  0  0
  2  6  2  0  0  0  0
  3  8  2  0  0  0  0
  3 16  1  0  0  0  0
  4  9  1  0  0  0  0
  4 16  2  0  0  0  0
  5 18  1  0  0  0  0
  6 20  1  0  0  0  0
  7 10  2  0  0  0  0
  7 19  1  0  0  0  0
  8 24  1  0  0  0  0
  9 24  2  0  0  0  0
 10 25  1  0  0  0  0
 11 12  2  0  0  0  0
 11 26  1  0  0  0  0
 12 27  1  0  0  0  0
 13 21  1  0  0  0  0
 13 25  2  0  0  0  0
 14 27  2  0  0  0  0
 14 28  1  0  0  0  0
 15 22  2  0  0  0  0
 15 63  1  0  0  0  0
 16 29  1  0  0  0  0
 17 29  1  0  0  0  0
 17 31  2  0  0  0  0
 17 32  1  0  0  0  0
 18 20  2  0  0  0  0
 18 37  1  0  0  0  0
 19 21  2  0  0  0  0
 19 38  1  0  0  0  0
 20 46  1  0  0  0  0
 21 39  1  0  0  0  0
 22 23  1  0  0  0  0
 22 56  1  0  0  0  0
 23 30  2  0  0  0  0
 23 49  1  0  0  0  0
 24 78  1  0  0  0  0
 25 79  1  0  0  0  0
 26 28  2  0  0  0  0
 26 78  1  0  0  0  0
 27 80  1  0  0  0  0
 28 81  1  0  0  0  0
 29 62  2  0  0  0  0
 30 50  1  0  0  0  0
 30 63  1  0  0  0  0
 31 64  1  0  0  0  0
 31 67  1  0  0  0  0
 32 68  1  0  0  0  0
 32 73  2  0  0  0  0
 33 47  1  0  0  0  0
 33 69  1  0  0  0  0
 33 74  2  0  0  0  0
 34 59  1  0  0  0  0
 34 65  1  0  0  0  0
 34 75  2  0  0  0  0
 35 60  1  0  0  0  0
 35 70  1  0  0  0  0
 35 76  2  0  0  0  0
 36 66  1  0  0  0  0
 36 71  1  0  0  0  0
 36 77  2  0  0  0  0
 37 40  1  0  0  0  0
 38 47  1  0  0  0  0
 39 65  1  0  0  0  0
 40 42  1  0  0  0  0
 41 43  1  0  0  0  0
 41 44  1  0  0  0  0
 42 46  1  0  0  0  0
 43 48  1  0  0  0  0
 44 66  1  0  0  0  0
 45 48  1  0  0  0  0
 45 66  1  0  0  0  0
 46 69  1  0  0  0  0
 47 65  1  0  0  0  0
 48 64  1  0  0  0  0
 51 60  1  0  0  0  0
 52 61  1  0  0  0  0
 53 61  1  0  0  0  0
 54 61  1  0  0  0  0
 55 72  1  0  0  0  0
 56 71  1  0  0  0  0
 57 58  1  0  0  0  0
 57 63  1  0  0  0  0
 58 79  1  0  0  0  0
 59 61  1  0  0  0  0
 59 70  1  0  0  0  0
 60 72  1  0  0  0  0
 62 64  1  0  0  0  0
M  CHG  1  72   1
M  ISO  4  36 100  58 101  71 100  79 101
M  END
> <Batch ID>
0096

> <Smiles>
CNC(C)C(=O)NC(C(=O)N1Cc2cc([101O:1][101CH2:1]Cn3cc(C[100NH:0][100C:0](=O)N4CCCC(n5nc(-c6ccc(Oc7ccc(F)cc7F)cc6)c(C(N)=O)c5N)C4)c(C)c3C)ccc2CC1C(=O)NC1CCCc2ccccc21)C(C)(C)C

> <Shape>
0.237

> <Color>
0.067

> <Negative vol penalty>
0.000

$$$$

  -OEChem-04052319243D

 87 95  0     1  0  0  0  0  0999 V2000
  -21.4590  -17.4584   20.9969 C   0  0  0  0  0  0  0  0  0  0  0  0
  -22.0310  -18.2202   22.0095 C   0  0  0  0  0  0  0  0  0  0  0  0
  -24.6613  -13.9405   21.6840 C   0  0  0  0  0  0  0  0  0  0  0  0
  -27.0025  -13.4462   21.3501 C   0  0  0  0  0  0  0  0  0  0  0  0
  -21.2852  -18.0093   19.7290 C   0  0  0  0  0  0  0  0  0  0  0  0
  -22.4184  -19.5368   21.7579 C   0  0  0  0  0  0  0  0  0  0  0  0
  -25.2733  -23.5750   25.3174 C   0  0  0  0  0  0  0  0  0  0  0  0
  -24.3177  -12.7719   21.0043 C   0  0  0  0  0  0  0  0  0  0  0  0
  -26.6589  -12.2776   20.6705 C   0  0  0  0  0  0  0  0  0  0  0  0
  -26.5846  -23.9694   25.5799 C   0  0  0  0  0  0  0  0  0  0  0  0
  -22.8299   -9.7346   19.6715 C   0  0  0  0  0  0  0  0  0  0  0  0
  -21.8369   -8.9286   20.2283 C   0  0  0  0  0  0  0  0  0  0  0  0
  -26.3437  -25.7900   24.0157 C   0  0  0  0  0  0  0  0  0  0  0  0
  -30.7545  -26.9597   20.8406 C   0  0  0  0  0  0  0  0  0  0  0  0
  -31.0531  -24.6467   21.4282 C   0  0  0  0  0  0  0  0  0  0  0  0
  -23.1779   -8.6517   22.2189 C   0  0  0  0  0  0  0  0  0  0  0  0
  -26.0037  -14.2777   21.8569 C   0  0  0  0  0  0  0  0  0  0  0  0
  -26.5870  -15.6296   23.9400 C   0  0  0  0  0  0  0  0  0  0  0  0
  -21.6823  -19.3293   19.4592 C   0  0  0  0  0  0  0  0  0  0  0  0
  -24.4897  -24.2798   24.3924 C   0  0  0  0  0  0  0  0  0  0  0  0
  -22.2293  -20.1186   20.4913 C   0  0  0  0  0  0  0  0  0  0  0  0
  -25.0220  -25.4040   23.7452 C   0  0  0  0  0  0  0  0  0  0  0  0
  -31.1028  -25.9920   21.7763 C   0  0  0  0  0  0  0  0  0  0  0  0
  -25.3165  -11.9405   20.4976 C   0  0  0  0  0  0  0  0  0  0  0  0
  -27.1209  -25.0753   24.9268 C   0  0  0  0  0  0  0  0  0  0  0  0
  -23.9970   -9.9990   20.3883 C   0  0  0  0  0  0  0  0  0  0  0  0
  -22.0109   -8.3872   21.5020 C   0  0  0  0  0  0  0  0  0  0  0  0
  -24.1709   -9.4576   21.6620 C   0  0  0  0  0  0  0  0  0  0  0  0
  -26.3593  -15.4850   22.5584 C   0  0  0  0  0  0  0  0  0  0  0  0
  -30.3663  -26.5337   19.5806 C   0  0  0  0  0  0  0  0  0  0  0  0
  -30.6513  -24.3242   20.1420 C   0  0  0  0  0  0  0  0  0  0  0  0
  -26.8915  -16.9593   24.1005 C   0  0  0  0  0  0  0  0  0  0  0  0
  -26.5287  -14.6497   24.9850 C   0  0  0  0  0  0  0  0  0  0  0  0
  -23.0787  -23.5578   21.6371 C   0  0  0  0  0  0  0  0  0  0  0  0
  -21.8586  -26.5496   21.9260 C   0  0  0  0  0  0  0  0  0  0  0  0
  -22.1528  -29.6836   23.2443 C   0  0  0  0  0  0  0  0  0  0  0  0
  -29.2062  -20.9383   20.4038 C   0  0  0  0  0  0  0  0  0  0  0  0
  -21.4638  -19.8778   18.0712 C   0  0  0  0  0  0  0  0  0  0  0  0
  -23.0682  -23.8576   24.1404 C   0  0  0  0  0  0  0  0  0  0  0  0
  -24.2155  -26.2068   22.7584 C   0  0  0  0  0  0  0  0  0  0  0  0
  -22.3045  -21.1173   17.7826 C   0  0  0  0  0  0  0  0  0  0  0  0
  -26.0563  -21.2531   22.1579 C   0  0  0  0  0  0  0  0  0  0  0  0
  -22.1550  -22.1220   18.9153 C   0  0  0  0  0  0  0  0  0  0  0  0
  -25.8037  -19.8079   22.5912 C   0  0  0  0  0  0  0  0  0  0  0  0
  -26.6927  -21.3116   20.7724 C   0  0  0  0  0  0  0  0  0  0  0  0
  -27.7037  -19.0842   21.0725 C   0  0  0  0  0  0  0  0  0  0  0  0
  -22.6864  -21.5429   20.2326 C   0  0  1  0  0  0  0  0  0  0  0  0
  -22.5308  -24.3406   22.7968 C   0  0  1  0  0  0  0  0  0  0  0  0
  -27.0820  -18.9566   22.4751 C   0  0  2  0  0  0  0  0  0  0  0  0
  -28.4974  -27.8749   18.5832 C   0  0  0  0  0  0  0  0  0  0  0  0
  -34.0816  -26.3671   22.5441 C   0  0  0  0  0  0  0  0  0  0  0  0
  -30.8647  -22.6817   18.2398 C   0  0  0  0  0  0  0  0  0  0  0  0
  -21.0217  -31.9235   23.2712 C   0  0  0  0  0  0  0  0  0  0  0  0
  -31.5467  -27.9415   23.4214 C   0  0  0  0  0  0  0  0  0  0  0  0
  -22.9313  -27.1221   19.1275 C   0  0  0  0  0  0  0  0  0  0  0  0
  -22.6308  -29.5646   19.5877 C   0  0  0  0  0  0  0  0  0  0  0  0
  -20.6518  -28.0459   19.5802 C   0  0  0  0  0  0  0  0  0  0  0  0
  -21.7237  -29.5613   26.1700 C   0  0  0  0  0  0  0  0  0  0  0  0
  -29.9870  -27.5444   18.5505 C   0  0  0  0  0  0  0  0  0  0  0  0
  -32.9864  -25.8727   23.4856 C   0  0  0  0  0  0  0  0  0  0  0  0
  -30.5945  -25.7642   24.2584 C   0  0  0  0  0  0  0  0  0  0  0  0
  -29.1095  -26.0992   24.1186 C   0  0  0  0  0  0  0  0  0  1  0  0
  -30.5846  -22.8901   19.7349 C   0  0  2  0  0  0  0  0  0  0  0  0
  -22.2968  -27.9289   21.4966 C   0  0  1  0  0  0  0  0  0  0  0  0
  -21.1522  -30.5736   23.9593 C   0  0  2  0  0  0  0  0  0  0  0  0
  -31.5434  -26.4088   23.1930 C   0  0  2  0  0  0  0  0  0  0  0  0
  -22.1437  -28.1493   19.9651 C   0  0  0  0  0  0  0  0  0  0  0  0
  -26.5063  -16.6313   21.8887 N   0  0  0  0  0  0  0  0  0  0  0  0
  -30.3055  -25.2362   19.2059 N   0  0  0  0  0  0  0  0  0  0  0  0
  -26.8296  -17.5089   22.8538 N   0  0  0  0  0  0  0  0  0  0  0  0
  -22.8327  -25.7504   22.5411 N   0  0  0  0  0  0  0  0  0  0  0  0
  -27.9146  -20.4957   20.7345 N   0  0  0  0  0  0  0  0  0  0  0  0
  -27.2032  -17.7003   25.1850 N   0  0  0  0  0  0  0  0  0  0  0  0
  -26.2010  -13.3299   24.6457 N   0  0  0  0  0  0  0  0  0  0  0  0
  -22.3384  -22.4363   21.3154 N   0  0  0  0  0  0  0  0  0  0  0  0
  -21.5400  -28.8707   22.3143 N   0  0  0  0  0  0  0  0  0  0  0  0
  -29.3191  -22.2871   20.0896 N   0  0  0  0  0  0  0  0  0  0  0  0
  -21.5782  -30.8038   25.3687 N   0  3  0  0  0  0  0  0  0  0  0  0
  -26.7443  -14.9393   26.1863 O   0  0  0  0  0  0  0  0  0  0  0  0
  -24.0969  -23.9437   21.0749 O   0  0  0  0  0  0  0  0  0  0  0  0
  -20.6930  -26.1968   21.7296 O   0  0  0  0  0  0  0  0  0  0  0  0
  -23.3580  -29.7098   23.4840 O   0  0  0  0  0  0  0  0  0  0  0  0
  -30.1879  -20.1878   20.3946 O   0  0  0  0  0  0  0  0  0  0  0  0
  -24.9815  -10.8000   19.8345 O   0  0  0  0  0  0  0  0  0  0  0  0
  -28.4007  -25.4620   25.1807 O   0  0  0  0  0  0  0  0  0  1  0  0
  -21.0566   -7.6145   22.0372 F   0  0  0  0  0  0  0  0  0  0  0  0
  -25.2894   -9.7090   22.3560 F   0  0  0  0  0  0  0  0  0  0  0  0
  1  2  1  0  0  0  0
  1  5  2  0  0  0  0
  2  6  2  0  0  0  0
  3  8  2  0  0  0  0
  3 17  1  0  0  0  0
  4  9  1  0  0  0  0
  4 17  2  0  0  0  0
  5 19  1  0  0  0  0
  6 21  1  0  0  0  0
  7 10  2  0  0  0  0
  7 20  1  0  0  0  0
  8 24  1  0  0  0  0
  9 24  2  0  0  0  0
 10 25  1  0  0  0  0
 11 12  2  0  0  0  0
 11 26  1  0  0  0  0
 12 27  1  0  0  0  0
 13 22  1  0  0  0  0
 13 25  2  0  0  0  0
 14 23  2  0  0  0  0
 14 30  1  0  0  0  0
 15 23  1  0  0  0  0
 15 31  2  0  0  0  0
 16 27  2  0  0  0  0
 16 28  1  0  0  0  0
 17 29  1  0  0  0  0
 18 29  1  0  0  0  0
 18 32  2  0  0  0  0
 18 33  1  0  0  0  0
 19 21  2  0  0  0  0
 19 38  1  0  0  0  0
 20 22  2  0  0  0  0
 20 39  1  0  0  0  0
 21 47  1  0  0  0  0
 22 40  1  0  0  0  0
 23 66  1  0  0  0  0
 24 84  1  0  0  0  0
 25 85  1  0  0  0  0
 26 28  2  0  0  0  0
 26 84  1  0  0  0  0
 27 86  1  0  0  0  0
 28 87  1  0  0  0  0
 29 68  2  0  0  0  0
 30 59  1  0  0  0  0
 30 69  2  0  0  0  0
 31 63  1  0  0  0  0
 31 69  1  0  0  0  0
 32 70  1  0  0  0  0
 32 73  1  0  0  0  0
 33 74  1  0  0  0  0
 33 79  2  0  0  0  0
 34 48  1  0  0  0  0
 34 75  1  0  0  0  0
 34 80  2  0  0  0  0
 35 64  1  0  0  0  0
 35 71  1  0  0  0  0
 35 81  2  0  0  0  0
 36 65  1  0  0  0  0
 36 76  1  0  0  0  0
 36 82  2  0  0  0  0
 37 72  1  0  0  0  0
 37 77  1  0  0  0  0
 37 83  2  0  0  0  0
 38 41  1  0  0  0  0
 39 48  1  0  0  0  0
 40 71  1  0  0  0  0
 41 43  1  0  0  0  0
 42 44  1  0  0  0  0
 42 45  1  0  0  0  0
 43 47  1  0  0  0  0
 44 49  1  0  0  0  0
 45 72  1  0  0  0  0
 46 49  1  0  0  0  0
 46 72  1  0  0  0  0
 47 75  1  0  0  0  0
 48 71  1  0  0  0  0
 49 70  1  0  0  0  0
 50 59  1  0  0  0  0
 51 60  1  0  0  0  0
 52 63  1  0  0  0  0
 53 65  1  0  0  0  0
 54 66  1  0  0  0  0
 55 67  1  0  0  0  0
 56 67  1  0  0  0  0
 57 67  1  0  0  0  0
 58 78  1  0  0  0  0
 60 66  1  0  0  0  0
 61 62  1  0  0  0  0
 61 66  1  0  0  0  0
 62 85  1  0  0  0  0
 63 77  1  0  0  0  0
 64 67  1  0  0  0  0
 64 76  1  0  0  0  0
 65 78  1  0  0  0  0
 68 70  1  0  0  0  0
M  CHG  1  78   1
M  ISO  4  37 100  62 101  77 100  85 101
M  END
> <Batch ID>
0096

> <Smiles>
CCc1cc(C(C)(CC)C[101CH2:1][101O:1]c2ccc3c(c2)CN(C(=O)C(NC(=O)C(C)NC)C(C)(C)C)C(C(=O)NC2CCCc4ccccc42)C3)cc(C(C)[100NH:0][100C:0](=O)N2CCCC(n3nc(-c4ccc(Oc5ccc(F)cc5F)cc4)c(C(N)=O)c3N)C2)n1

> <Shape>
0.175

> <Color>
0.072

> <Negative vol penalty>
0.000

$$$$

  -OEChem-04052319243D

 90 98  0     1  0  0  0  0  0999 V2000
  -26.9583  -34.1325   26.0374 C   0  0  0  0  0  0  0  0  0  0  0  0
  -27.3529  -32.9768   25.3709 C   0  0  0  0  0  0  0  0  0  0  0  0
  -28.2053  -11.4835   21.5983 C   0  0  0  0  0  0  0  0  0  0  0  0
  -26.2183  -12.7843   21.1549 C   0  0  0  0  0  0  0  0  0  0  0  0
  -25.6254  -34.3000   26.4104 C   0  0  0  0  0  0  0  0  0  0  0  0
  -26.4148  -31.9876   25.0779 C   0  0  0  0  0  0  0  0  0  0  0  0
  -26.8560  -30.2317   20.3485 C   0  0  0  0  0  0  0  0  0  0  0  0
  -27.4170  -10.4549   22.1139 C   0  0  0  0  0  0  0  0  0  0  0  0
  -25.4298  -11.7557   21.6705 C   0  0  0  0  0  0  0  0  0  0  0  0
  -27.8826  -29.3216   20.1004 C   0  0  0  0  0  0  0  0  0  0  0  0
  -24.2466   -8.7659   20.6305 C   0  0  0  0  0  0  0  0  0  0  0  0
  -23.1072   -8.4026   19.9126 C   0  0  0  0  0  0  0  0  0  0  0  0
  -26.2980  -27.5075   20.2316 C   0  0  0  0  0  0  0  0  0  0  0  0
  -30.3414  -22.3850   19.0428 C   0  0  0  0  0  0  0  0  0  0  0  0
  -21.7294   -8.9603   21.8173 C   0  0  0  0  0  0  0  0  0  0  0  0
  -27.6060  -12.6483   21.1188 C   0  0  0  0  0  0  0  0  0  0  0  0
  -28.8291  -13.8813   19.2503 C   0  0  0  0  0  0  0  0  0  0  0  0
  -24.6687  -33.3166   26.1133 C   0  0  0  0  0  0  0  0  0  0  0  0
  -25.5423  -29.7849   20.5512 C   0  0  0  0  0  0  0  0  0  0  0  0
  -25.0681  -32.1416   25.4484 C   0  0  0  0  0  0  0  0  0  0  0  0
  -25.2560  -28.4142   20.4795 C   0  0  0  0  0  0  0  0  0  0  0  0
  -29.5062  -22.6760   20.1495 C   0  0  0  0  0  0  0  0  0  0  0  0
  -26.0292  -10.5909   22.1501 C   0  0  0  0  0  0  0  0  0  0  0  0
  -27.6042  -27.9591   20.0447 C   0  0  0  0  0  0  0  0  0  0  0  0
  -24.1275   -9.2263   21.9418 C   0  0  0  0  0  0  0  0  0  0  0  0
  -21.8486   -8.4998   20.5060 C   0  0  0  0  0  0  0  0  0  0  0  0
  -22.8689   -9.3235   22.5352 C   0  0  0  0  0  0  0  0  0  0  0  0
  -28.4199  -13.7114   20.5865 C   0  0  0  0  0  0  0  0  0  0  0  0
  -29.7481  -21.3614   18.3375 C   0  0  0  0  0  0  0  0  0  0  0  0
  -28.4279  -21.8211   20.0870 C   0  0  0  0  0  0  0  0  0  0  0  0
  -29.5784  -15.0323   19.2643 C   0  0  0  0  0  0  0  0  0  0  0  0
  -28.5561  -13.0712   18.0992 C   0  0  0  0  0  0  0  0  0  0  0  0
  -23.4692  -29.9311   22.9563 C   0  0  0  0  0  0  0  0  0  0  0  0
  -21.4490  -28.6233   20.7813 C   0  0  0  0  0  0  0  0  0  0  0  0
  -21.0536  -26.7929   17.9282 C   0  0  0  0  0  0  0  0  0  0  0  0
  -29.6493  -19.8078   22.8756 C   0  0  0  0  0  0  0  0  0  0  0  0
  -23.2487  -33.5213   26.5784 C   0  0  0  0  0  0  0  0  0  0  0  0
  -24.4416  -30.7815   20.7912 C   0  0  0  0  0  0  0  0  0  0  0  0
  -23.8589  -27.8848   20.6700 C   0  0  0  0  0  0  0  0  0  0  0  0
  -22.2453  -32.5931   25.8987 C   0  0  0  0  0  0  0  0  0  0  0  0
  -32.3774  -17.6433   22.1346 C   0  0  0  0  0  0  0  0  0  0  0  0
  -22.7678  -31.1601   25.8854 C   0  0  0  0  0  0  0  0  0  0  0  0
  -31.7095  -16.4055   21.5333 C   0  0  0  0  0  0  0  0  0  0  0  0
  -31.5369  -18.2494   23.2563 C   0  0  0  0  0  0  0  0  0  0  0  0
  -29.4726  -17.3136   22.2885 C   0  0  0  0  0  0  0  0  0  0  0  0
  -24.0753  -31.0569   25.0909 C   0  0  1  0  0  0  0  0  0  0  0  0
  -23.2300  -30.1759   21.4933 C   0  0  1  0  0  0  0  0  0  0  0  0
  -30.2561  -16.6998   21.1157 C   0  0  2  0  0  0  0  0  0  0  0  0
  -31.5416  -19.9414   17.2790 C   0  0  0  0  0  0  0  0  0  0  0  0
  -30.2844  -21.6272   15.8889 C   0  0  0  0  0  0  0  0  0  0  0  0
  -19.2815  -25.8568   16.4181 C   0  0  0  0  0  0  0  0  0  0  0  0
  -30.6521  -26.0433   21.6066 C   0  0  0  0  0  0  0  0  0  0  0  0
  -25.9080  -23.3981   19.6275 C   0  0  0  0  0  0  0  0  0  0  0  0
  -20.8721  -26.4297   22.8222 C   0  0  0  0  0  0  0  0  0  0  0  0
  -19.8855  -25.0632   20.9708 C   0  0  0  0  0  0  0  0  0  0  0  0
  -18.8634  -27.2551   21.5820 C   0  0  0  0  0  0  0  0  0  0  0  0
  -27.6659  -19.9914   18.5585 C   0  0  0  0  0  0  0  0  0  0  0  0
  -22.0345  -28.3574   15.6153 C   0  0  0  0  0  0  0  0  0  0  0  0
  -29.7585  -23.7310   21.1991 C   0  0  0  0  0  0  0  0  0  0  0  0
  -27.6779  -21.2458   22.4227 C   0  0  0  0  0  0  0  0  0  0  0  0
  -25.1559  -22.9576   21.9916 C   0  0  0  0  0  0  0  0  0  0  0  0
  -28.4680  -25.7679   20.3745 C   0  0  0  0  0  0  0  0  0  1  0  0
  -30.1937  -20.6781   17.1058 C   0  0  0  0  0  0  0  0  0  0  0  0
  -27.2607  -21.6927   20.9853 C   0  0  1  0  0  0  0  0  0  0  0  0
  -21.0832  -27.2169   20.3724 C   0  0  1  0  0  0  0  0  0  0  0  0
  -20.2108  -27.0299   16.6881 C   0  0  2  0  0  0  0  0  0  0  0  0
  -29.8547  -25.1629   20.6359 C   0  0  1  0  0  0  0  0  0  0  0  0
  -26.3675  -23.0001   21.0422 C   0  0  1  0  0  0  0  0  0  0  0  0
  -20.2028  -26.5007   21.4351 C   0  0  0  0  0  0  0  0  0  0  0  0
  -28.8720  -14.6771   21.3909 N   0  0  0  0  0  0  0  0  0  0  0  0
  -28.5857  -21.0264   18.9817 N   0  0  0  0  0  0  0  0  0  0  0  0
  -29.5730  -15.4648   20.5578 N   0  0  0  0  0  0  0  0  0  0  0  0
  -22.8180  -28.8983   20.9084 N   0  0  0  0  0  0  0  0  0  0  0  0
  -30.1705  -18.5059   22.7946 N   0  0  0  0  0  0  0  0  0  0  0  0
  -30.2348  -15.7065   18.2963 N   0  0  0  0  0  0  0  0  0  0  0  0
  -27.7691  -11.9230   18.2618 N   0  0  0  0  0  0  0  0  0  0  0  0
  -23.8048  -31.0664   23.6692 N   0  0  0  0  0  0  0  0  0  0  0  0
  -20.4632  -27.3228   19.0560 N   0  0  0  0  0  0  0  0  0  0  0  0
  -28.3493  -19.9652   22.4108 N   0  0  0  0  0  0  0  0  0  0  0  0
  -24.1322  -21.9839   21.5435 N   0  3  0  0  0  0  0  0  0  0  0  0
  -21.0850  -27.2210   15.4964 N   0  3  0  0  0  0  0  0  0  0  0  0
  -29.0107  -13.3482   16.9634 O   0  0  0  0  0  0  0  0  0  0  0  0
  -23.3563  -28.7966   23.4055 O   0  0  0  0  0  0  0  0  0  0  0  0
  -20.5534  -29.4494   20.9739 O   0  0  0  0  0  0  0  0  0  0  0  0
  -22.1265  -26.1941   17.9000 O   0  0  0  0  0  0  0  0  0  0  0  0
  -30.2965  -20.7603   23.3235 O   0  0  0  0  0  0  0  0  0  0  0  0
  -25.2596   -9.5873   22.6530 O   0  0  0  0  0  0  0  0  0  0  0  0
  -28.6045  -27.0685   19.8034 O   0  0  0  0  0  0  0  0  0  1  0  0
  -20.7544   -8.1524   19.8160 F   0  0  0  0  0  0  0  0  0  0  0  0
  -22.7480   -9.7663   23.7943 F   0  0  0  0  0  0  0  0  0  0  0  0
  1  2  1  0  0  0  0
  1  5  2  0  0  0  0
  2  6  2  0  0  0  0
  3  8  2  0  0  0  0
  3 16  1  0  0  0  0
  4  9  1  0  0  0  0
  4 16  2  0  0  0  0
  5 18  1  0  0  0  0
  6 20  1  0  0  0  0
  7 10  2  0  0  0  0
  7 19  1  0  0  0  0
  8 23  1  0  0  0  0
  9 23  2  0  0  0  0
 10 24  1  0  0  0  0
 11 12  2  0  0  0  0
 11 25  1  0  0  0  0
 12 26  1  0  0  0  0
 13 21  1  0  0  0  0
 13 24  2  0  0  0  0
 14 22  1  0  0  0  0
 14 29  2  0  0  0  0
 15 26  2  0  0  0  0
 15 27  1  0  0  0  0
 16 28  1  0  0  0  0
 17 28  1  0  0  0  0
 17 31  2  0  0  0  0
 17 32  1  0  0  0  0
 18 20  2  0  0  0  0
 18 37  1  0  0  0  0
 19 21  2  0  0  0  0
 19 38  1  0  0  0  0
 20 46  1  0  0  0  0
 21 39  1  0  0  0  0
 22 30  2  0  0  0  0
 22 59  1  0  0  0  0
 23 87  1  0  0  0  0
 24 88  1  0  0  0  0
 25 27  2  0  0  0  0
 25 87  1  0  0  0  0
 26 89  1  0  0  0  0
 27 90  1  0  0  0  0
 28 70  2  0  0  0  0
 29 63  1  0  0  0  0
 29 71  1  0  0  0  0
 30 64  1  0  0  0  0
 30 71  1  0  0  0  0
 31 72  1  0  0  0  0
 31 75  1  0  0  0  0
 32 76  1  0  0  0  0
 32 82  2  0  0  0  0
 33 47  1  0  0  0  0
 33 77  1  0  0  0  0
 33 83  2  0  0  0  0
 34 65  1  0  0  0  0
 34 73  1  0  0  0  0
 34 84  2  0  0  0  0
 35 66  1  0  0  0  0
 35 78  1  0  0  0  0
 35 85  2  0  0  0  0
 36 74  1  0  0  0  0
 36 79  1  0  0  0  0
 36 86  2  0  0  0  0
 37 40  1  0  0  0  0
 38 47  1  0  0  0  0
 39 73  1  0  0  0  0
 40 42  1  0  0  0  0
 41 43  1  0  0  0  0
 41 44  1  0  0  0  0
 42 46  1  0  0  0  0
 43 48  1  0  0  0  0
 44 74  1  0  0  0  0
 45 48  1  0  0  0  0
 45 74  1  0  0  0  0
 46 77  1  0  0  0  0
 47 73  1  0  0  0  0
 48 72  1  0  0  0  0
 49 63  1  0  0  0  0
 50 63  1  0  0  0  0
 51 66  1  0  0  0  0
 52 67  1  0  0  0  0
 53 68  1  0  0  0  0
 54 69  1  0  0  0  0
 55 69  1  0  0  0  0
 56 69  1  0  0  0  0
 57 71  1  0  0  0  0
 58 81  1  0  0  0  0
 59 67  1  0  0  0  0
 60 64  1  0  0  0  0
 60 79  1  0  0  0  0
 61 68  1  0  0  0  0
 61 80  1  0  0  0  0
 62 67  1  0  0  0  0
 62 88  1  0  0  0  0
 64 68  1  0  0  0  0
 65 69  1  0  0  0  0
 65 78  1  0  0  0  0
 66 81  1  0  0  0  0
 70 72  1  0  0  0  0
M  CHG  2  80   1  81   1
M  ISO  4  36 100  62 101  79 100  88 101
M  END
> <Batch ID>
0096

> <Smiles>
CNC(C)C(=O)NC(C(=O)N1Cc2cc([101O:1][101CH2:1]C(C)Cc3cc(C(C)C)n(C)c3C(C[100NH:0][100C:0](=O)N3CCCC(n4nc(-c5ccc(Oc6ccc(F)cc6F)cc5)c(C(N)=O)c4N)C3)C(C)CN)ccc2CC1C(=O)NC1CCCc2ccccc21)C(C)(C)C

> <Shape>
0.316

> <Color>
0.065

> <Negative vol penalty>
0.000

$$$$

  -OEChem-04052319243D

 88 96  0     1  0  0  0  0  0999 V2000
  -24.4046  -38.0195   20.6703 C   0  0  0  0  0  0  0  0  0  0  0  0
  -24.5479  -37.0333   19.6995 C   0  0  0  0  0  0  0  0  0  0  0  0
  -23.9551   -9.8794   22.0088 C   0  0  0  0  0  0  0  0  0  0  0  0
  -22.1238  -10.6271   20.6216 C   0  0  0  0  0  0  0  0  0  0  0  0
  -24.8725  -37.7953   21.9644 C   0  0  0  0  0  0  0  0  0  0  0  0
  -25.1600  -35.8226   20.0222 C   0  0  0  0  0  0  0  0  0  0  0  0
  -24.9354  -28.8476   18.4050 C   0  0  0  0  0  0  0  0  0  0  0  0
  -23.4467   -8.5809   21.9801 C   0  0  0  0  0  0  0  0  0  0  0  0
  -21.6154   -9.3286   20.5929 C   0  0  0  0  0  0  0  0  0  0  0  0
  -25.7731  -27.8069   18.0063 C   0  0  0  0  0  0  0  0  0  0  0  0
  -20.9881   -6.8347   23.5068 C   0  0  0  0  0  0  0  0  0  0  0  0
  -20.9409   -6.1313   24.7104 C   0  0  0  0  0  0  0  0  0  0  0  0
  -26.4716  -27.5006   20.2948 C   0  0  0  0  0  0  0  0  0  0  0  0
  -25.9375  -20.3479   20.1902 C   0  0  0  0  0  0  0  0  0  0  0  0
  -27.5289  -21.6637   21.4444 C   0  0  0  0  0  0  0  0  0  0  0  0
  -22.3856   -4.4353   23.7758 C   0  0  0  0  0  0  0  0  0  0  0  0
  -23.2937  -10.9026   21.3296 C   0  0  0  0  0  0  0  0  0  0  0  0
  -24.7347  -12.8189   20.4586 C   0  0  0  0  0  0  0  0  0  0  0  0
  -25.4820  -36.5776   22.3056 C   0  0  0  0  0  0  0  0  0  0  0  0
  -24.8676  -29.2305   19.7523 C   0  0  0  0  0  0  0  0  0  0  0  0
  -25.6376  -35.5825   21.3218 C   0  0  0  0  0  0  0  0  0  0  0  0
  -25.6304  -28.5448   20.7084 C   0  0  0  0  0  0  0  0  0  0  0  0
  -26.9655  -21.2901   20.2243 C   0  0  0  0  0  0  0  0  0  0  0  0
  -25.4728  -19.7794   21.3762 C   0  0  0  0  0  0  0  0  0  0  0  0
  -27.0642  -21.0952   22.6305 C   0  0  0  0  0  0  0  0  0  0  0  0
  -26.0362  -20.1530   22.5963 C   0  0  0  0  0  0  0  0  0  0  0  0
  -22.2768   -8.3054   21.2722 C   0  0  0  0  0  0  0  0  0  0  0  0
  -26.5435  -27.1351   18.9508 C   0  0  0  0  0  0  0  0  0  0  0  0
  -21.7340   -6.3384   22.4377 C   0  0  0  0  0  0  0  0  0  0  0  0
  -21.6396   -4.9316   24.8449 C   0  0  0  0  0  0  0  0  0  0  0  0
  -22.4328   -5.1387   22.5722 C   0  0  0  0  0  0  0  0  0  0  0  0
  -23.8181  -12.2443   21.3593 C   0  0  0  0  0  0  0  0  0  0  0  0
  -24.9094  -14.1015   20.9178 C   0  0  0  0  0  0  0  0  0  0  0  0
  -25.3713  -12.2447   19.3094 C   0  0  0  0  0  0  0  0  0  0  0  0
  -25.5265  -31.8894   21.3646 C   0  0  0  0  0  0  0  0  0  0  0  0
  -24.2454  -30.2384   23.8456 C   0  0  0  0  0  0  0  0  0  0  0  0
  -23.4935  -27.2116   25.2310 C   0  0  0  0  0  0  0  0  0  0  0  0
  -22.3130  -18.8023   22.7830 C   0  0  0  0  0  0  0  0  0  0  0  0
  -26.0144  -36.3995   23.7054 C   0  0  0  0  0  0  0  0  0  0  0  0
  -23.9389  -30.3375   20.1700 C   0  0  0  0  0  0  0  0  0  0  0  0
  -25.5785  -28.9037   22.1702 C   0  0  0  0  0  0  0  0  0  0  0  0
  -26.3145  -34.9459   24.0625 C   0  0  0  0  0  0  0  0  0  0  0  0
  -23.4859  -16.2929   25.2383 C   0  0  0  0  0  0  0  0  0  0  0  0
  -27.0906  -34.2691   22.9371 C   0  0  0  0  0  0  0  0  0  0  0  0
  -23.6807  -15.0477   24.3749 C   0  0  0  0  0  0  0  0  0  0  0  0
  -22.4111  -17.2147   24.6702 C   0  0  0  0  0  0  0  0  0  0  0  0
  -22.8351  -16.3599   22.3890 C   0  0  0  0  0  0  0  0  0  0  0  0
  -26.2739  -34.2467   21.6395 C   0  0  1  0  0  0  0  0  0  0  0  0
  -24.3357  -30.9824   21.4944 C   0  0  1  0  0  0  0  0  0  0  0  0
  -23.9440  -15.4326   22.9086 C   0  0  2  0  0  0  0  0  0  0  0  0
  -25.5380  -19.5430   23.8677 C   0  0  0  0  0  0  0  0  0  0  0  0
  -22.4831  -26.1813   27.2841 C   0  0  0  0  0  0  0  0  0  0  0  0
  -28.8057  -22.5713   23.6953 C   0  0  0  0  0  0  0  0  0  0  0  0
  -28.3261  -20.2959   24.6591 C   0  0  0  0  0  0  0  0  0  0  0  0
  -26.7046  -22.1567   24.9584 C   0  0  0  0  0  0  0  0  0  0  0  0
  -26.8013  -30.8372   25.4008 C   0  0  0  0  0  0  0  0  0  0  0  0
  -26.1570  -29.0365   27.0166 C   0  0  0  0  0  0  0  0  0  0  0  0
  -24.6962  -31.0390   26.7359 C   0  0  0  0  0  0  0  0  0  0  0  0
  -22.7724  -20.6476   21.2135 C   0  0  0  0  0  0  0  0  0  0  0  0
  -21.3368  -25.9246   23.6652 C   0  0  0  0  0  0  0  0  0  0  0  0
  -24.3717  -18.7719   21.3121 C   0  0  0  0  0  0  0  0  0  0  0  0
  -27.4649  -21.9021   18.9488 C   0  0  0  0  0  0  0  0  0  0  0  0
  -27.5269  -23.9556   17.5282 C   0  0  0  0  0  0  0  0  0  0  0  0
  -26.9603  -25.3580   17.4264 C   0  0  0  0  0  0  0  0  0  1  0  0
  -24.7859  -29.3031   24.9000 C   0  0  1  0  0  0  0  0  0  0  0  0
  -22.2225  -26.6856   25.8732 C   0  0  2  0  0  0  0  0  0  0  0  0
  -27.6844  -21.5122   23.9240 C   0  0  0  0  0  0  0  0  0  0  0  0
  -25.6128  -30.0482   25.9856 C   0  0  0  0  0  0  0  0  0  0  0  0
  -23.4371  -13.0923   22.3184 N   0  0  0  0  0  0  0  0  0  0  0  0
  -24.1178  -14.2127   22.0229 N   0  0  0  0  0  0  0  0  0  0  0  0
  -24.6600  -29.9972   22.5281 N   0  0  0  0  0  0  0  0  0  0  0  0
  -22.6626  -17.5296   23.2635 N   0  0  0  0  0  0  0  0  0  0  0  0
  -25.6613  -15.1337   20.4802 N   0  0  0  0  0  0  0  0  0  0  0  0
  -25.0795  -10.9143   18.9789 N   0  0  0  0  0  0  0  0  0  0  0  0
  -25.2688  -33.2068   21.6928 N   0  0  0  0  0  0  0  0  0  0  0  0
  -23.6380  -28.5694   25.4221 N   0  0  0  0  0  0  0  0  0  0  0  0
  -23.0886  -19.3266   21.7379 N   0  0  0  0  0  0  0  0  0  0  0  0
  -21.6620  -25.5631   25.0690 N   0  3  0  0  0  0  0  0  0  0  0  0
  -27.0005  -23.3020   18.7529 N   0  3  0  0  0  0  0  0  0  0  0  0
  -26.1878  -12.8870   18.6062 O   0  0  0  0  0  0  0  0  0  0  0  0
  -26.6001  -31.4280   20.9955 O   0  0  0  0  0  0  0  0  0  0  0  0
  -23.4778  -31.1451   24.1776 O   0  0  0  0  0  0  0  0  0  0  0  0
  -24.2812  -26.4894   24.6240 O   0  0  0  0  0  0  0  0  0  0  0  0
  -21.3678  -19.4378   23.2673 O   0  0  0  0  0  0  0  0  0  0  0  0
  -21.7806   -7.0384   21.2437 O   0  0  0  0  0  0  0  0  0  0  0  0
  -27.3625  -26.1194   18.5643 O   0  0  0  0  0  0  0  0  0  1  0  0
  -21.5954   -4.2570   26.0012 F   0  0  0  0  0  0  0  0  0  0  0  0
  -23.1521   -4.6575   21.5491 F   0  0  0  0  0  0  0  0  0  0  0  0
  1  2  1  0  0  0  0
  1  5  2  0  0  0  0
  2  6  2  0  0  0  0
  3  8  2  0  0  0  0
  3 17  1  0  0  0  0
  4  9  1  0  0  0  0
  4 17  2  0  0  0  0
  5 19  1  0  0  0  0
  6 21  1  0  0  0  0
  7 10  2  0  0  0  0
  7 20  1  0  0  0  0
  8 27  1  0  0  0  0
  9 27  2  0  0  0  0
 10 28  1  0  0  0  0
 11 12  2  0  0  0  0
 11 29  1  0  0  0  0
 12 30  1  0  0  0  0
 13 22  1  0  0  0  0
 13 28  2  0  0  0  0
 14 23  1  0  0  0  0
 14 24  2  0  0  0  0
 15 23  2  0  0  0  0
 15 25  1  0  0  0  0
 16 30  2  0  0  0  0
 16 31  1  0  0  0  0
 17 32  1  0  0  0  0
 18 32  1  0  0  0  0
 18 33  2  0  0  0  0
 18 34  1  0  0  0  0
 19 21  2  0  0  0  0
 19 39  1  0  0  0  0
 20 22  2  0  0  0  0
 20 40  1  0  0  0  0
 21 48  1  0  0  0  0
 22 41  1  0  0  0  0
 23 62  1  0  0  0  0
 24 26  1  0  0  0  0
 24 61  1  0  0  0  0
 25 26  2  0  0  0  0
 25 67  1  0  0  0  0
 26 51  1  0  0  0  0
 27 85  1  0  0  0  0
 28 86  1  0  0  0  0
 29 31  2  0  0  0  0
 29 85  1  0  0  0  0
 30 87  1  0  0  0  0
 31 88  1  0  0  0  0
 32 69  2  0  0  0  0
 33 70  1  0  0  0  0
 33 73  1  0  0  0  0
 34 74  1  0  0  0  0
 34 80  2  0  0  0  0
 35 49  1  0  0  0  0
 35 75  1  0  0  0  0
 35 81  2  0  0  0  0
 36 65  1  0  0  0  0
 36 71  1  0  0  0  0
 36 82  2  0  0  0  0
 37 66  1  0  0  0  0
 37 76  1  0  0  0  0
 37 83  2  0  0  0  0
 38 72  1  0  0  0  0
 38 77  1  0  0  0  0
 38 84  2  0  0  0  0
 39 42  1  0  0  0  0
 40 49  1  0  0  0  0
 41 71  1  0  0  0  0
 42 44  1  0  0  0  0
 43 45  1  0  0  0  0
 43 46  1  0  0  0  0
 44 48  1  0  0  0  0
 45 50  1  0  0  0  0
 46 72  1  0  0  0  0
 47 50  1  0  0  0  0
 47 72  1  0  0  0  0
 48 75  1  0  0  0  0
 49 71  1  0  0  0  0
 50 70  1  0  0  0  0
 52 66  1  0  0  0  0
 53 67  1  0  0  0  0
 54 67  1  0  0  0  0
 55 67  1  0  0  0  0
 56 68  1  0  0  0  0
 57 68  1  0  0  0  0
 58 68  1  0  0  0  0
 59 77  1  0  0  0  0
 60 78  1  0  0  0  0
 61 77  1  0  0  0  0
 62 79  1  0  0  0  0
 63 64  1  0  0  0  0
 63 79  1  0  0  0  0
 64 86  1  0  0  0  0
 65 68  1  0  0  0  0
 65 76  1  0  0  0  0
 66 78  1  0  0  0  0
 69 70  1  0  0  0  0
M  CHG  2  78   1  79   1
M  ISO  4  38 100  64 101  77 100  86 101
M  END
> <Batch ID>
0096

> <Smiles>
CNC(C)C(=O)NC(C(=O)N1Cc2cc([101O:1][101CH2:1]CNCc3cc(C[100N:0](C)[100C:0](=O)N4CCCC(n5nc(-c6ccc(Oc7ccc(F)cc7F)cc6)c(C(N)=O)c5N)C4)c(C)c(C(C)(C)C)c3)ccc2CC1C(=O)NC1CCCc2ccccc21)C(C)(C)C

> <Shape>
0.242

> <Color>
0.124

> <Negative vol penalty>
0.000

$$$$

  -OEChem-04052319243D

 82 90  0     1  0  0  0  0  0999 V2000
  -28.9274  -18.5461   18.6363 C   0  0  0  0  0  0  0  0  0  0  0  0
  -29.3207  -17.5016   19.4669 C   0  0  0  0  0  0  0  0  0  0  0  0
  -23.1537   -9.8652   19.9616 C   0  0  0  0  0  0  0  0  0  0  0  0
  -23.8223   -9.9651   22.2811 C   0  0  0  0  0  0  0  0  0  0  0  0
  -28.6536  -19.8011   19.1784 C   0  0  0  0  0  0  0  0  0  0  0  0
  -29.4415  -17.7120   20.8401 C   0  0  0  0  0  0  0  0  0  0  0  0
  -28.2214  -13.6971   25.3008 C   0  0  0  0  0  0  0  0  0  0  0  0
  -22.4401   -8.6945   20.2177 C   0  0  0  0  0  0  0  0  0  0  0  0
  -23.1086   -8.7943   22.5373 C   0  0  0  0  0  0  0  0  0  0  0  0
  -29.0384  -12.8563   26.0553 C   0  0  0  0  0  0  0  0  0  0  0  0
  -23.5335   -5.4698   22.0922 C   0  0  0  0  0  0  0  0  0  0  0  0
  -24.1547   -4.4879   22.8638 C   0  0  0  0  0  0  0  0  0  0  0  0
  -29.1080  -14.5094   27.8109 C   0  0  0  0  0  0  0  0  0  0  0  0
  -33.3293  -13.8184   23.7593 C   0  0  0  0  0  0  0  0  0  0  0  0
  -22.3826   -4.6511   24.4980 C   0  0  0  0  0  0  0  0  0  0  0  0
  -31.9404  -14.4569   25.4125 C   0  0  0  0  0  0  0  0  0  0  0  0
  -23.8449  -10.5005   20.9933 C   0  0  0  0  0  0  0  0  0  0  0  0
  -24.1055  -13.0316   20.8102 C   0  0  0  0  0  0  0  0  0  0  0  0
  -28.7618  -20.0244   20.5601 C   0  0  0  0  0  0  0  0  0  0  0  0
  -27.8498  -14.9570   25.7919 C   0  0  0  0  0  0  0  0  0  0  0  0
  -29.1702  -18.9715   21.4010 C   0  0  0  0  0  0  0  0  0  0  0  0
  -28.2841  -15.3632   27.0617 C   0  0  0  0  0  0  0  0  0  0  0  0
  -32.1653  -14.5686   24.0582 C   0  0  0  0  0  0  0  0  0  0  0  0
  -22.4175   -8.1590   21.5055 C   0  0  0  0  0  0  0  0  0  0  0  0
  -29.4842  -13.2636   27.3093 C   0  0  0  0  0  0  0  0  0  0  0  0
  -22.3369   -6.0425   22.5234 C   0  0  0  0  0  0  0  0  0  0  0  0
  -23.5793   -4.0785   24.0667 C   0  0  0  0  0  0  0  0  0  0  0  0
  -21.7615   -5.6331   23.7263 C   0  0  0  0  0  0  0  0  0  0  0  0
  -24.5828  -11.7097   20.7293 C   0  0  0  0  0  0  0  0  0  0  0  0
  -33.7802  -13.2708   24.9402 C   0  0  0  0  0  0  0  0  0  0  0  0
  -25.1851  -13.8080   20.4664 C   0  0  0  0  0  0  0  0  0  0  0  0
  -22.8028  -13.5145   21.1644 C   0  0  0  0  0  0  0  0  0  0  0  0
  -28.3103  -17.9572   24.8484 C   0  0  0  0  0  0  0  0  0  0  0  0
  -26.3062  -18.6274   27.3094 C   0  0  0  0  0  0  0  0  0  0  0  0
  -24.9681  -17.6698   30.2993 C   0  0  0  0  0  0  0  0  0  0  0  0
  -30.9415  -13.9727   21.0590 C   0  0  0  0  0  0  0  0  0  0  0  0
  -28.5012  -21.4106   21.0941 C   0  0  0  0  0  0  0  0  0  0  0  0
  -26.9460  -15.8411   24.9770 C   0  0  0  0  0  0  0  0  0  0  0  0
  -27.8969  -16.6976   27.6429 C   0  0  0  0  0  0  0  0  0  0  0  0
  -28.2907  -21.4516   22.6054 C   0  0  0  0  0  0  0  0  0  0  0  0
  -29.3949  -13.0242   17.9955 C   0  0  0  0  0  0  0  0  0  0  0  0
  -29.3600  -20.6277   23.3159 C   0  0  0  0  0  0  0  0  0  0  0  0
  -27.9519  -12.7114   18.3957 C   0  0  0  0  0  0  0  0  0  0  0  0
  -30.3856  -12.5961   19.0759 C   0  0  0  0  0  0  0  0  0  0  0  0
  -28.6602  -12.8168   20.8218 C   0  0  0  0  0  0  0  0  0  0  0  0
  -29.2887  -19.1538   22.8986 C   0  0  1  0  0  0  0  0  0  0  0  0
  -27.0508  -17.3149   25.3569 C   0  0  1  0  0  0  0  0  0  0  0  0
  -27.6201  -13.2812   19.7879 C   0  0  2  0  0  0  0  0  0  0  0  0
  -34.9502  -12.4062   25.1984 C   0  0  0  0  0  0  0  0  0  0  0  0
  -23.3870  -18.4432   32.0879 C   0  0  0  0  0  0  0  0  0  0  0  0
  -30.7721  -10.1245   27.6815 C   0  0  0  0  0  0  0  0  0  0  0  0
  -28.4296  -20.5561   28.3492 C   0  0  0  0  0  0  0  0  0  0  0  0
  -27.2442  -20.5625   30.5544 C   0  0  0  0  0  0  0  0  0  0  0  0
  -26.0818  -21.4021   28.5132 C   0  0  0  0  0  0  0  0  0  0  0  0
  -23.1721  -15.3562   29.8742 C   0  0  0  0  0  0  0  0  0  0  0  0
  -31.3448  -15.3300   23.0972 C   0  0  0  0  0  0  0  0  0  0  0  0
  -32.6001  -11.8600   27.7078 C   0  0  0  0  0  0  0  0  0  0  0  0
  -33.0434  -13.2966   27.3958 C   0  0  0  0  0  0  0  0  0  0  0  0
  -26.4797  -18.9197   28.7803 C   0  0  1  0  0  0  0  0  0  0  0  0
  -23.5354  -17.6472   30.8007 C   0  0  2  0  0  0  0  0  0  0  0  0
  -31.1436  -11.5601   27.3326 C   0  0  2  0  0  0  0  0  0  1  0  0
  -27.0679  -20.3357   29.0378 C   0  0  0  0  0  0  0  0  0  0  0  0
  -25.8656  -11.6461   20.3628 N   0  0  0  0  0  0  0  0  0  0  0  0
  -32.9280  -13.6655   25.9383 N   0  0  0  0  0  0  0  0  0  0  0  0
  -26.2036  -12.9378   20.2102 N   0  0  0  0  0  0  0  0  0  0  0  0
  -27.0168  -17.5290   26.8051 N   0  0  0  0  0  0  0  0  0  0  0  0
  -30.0152  -13.1715   20.3711 N   0  0  0  0  0  0  0  0  0  0  0  0
  -25.3530  -15.1434   20.3613 N   0  0  0  0  0  0  0  0  0  0  0  0
  -21.8098  -12.5806   21.4900 N   0  0  0  0  0  0  0  0  0  0  0  0
  -28.1976  -18.4885   23.5778 N   0  0  0  0  0  0  0  0  0  0  0  0
  -25.1778  -18.6920   29.3981 N   0  0  0  0  0  0  0  0  0  0  0  0
  -30.5078  -14.4836   22.2762 N   0  0  0  0  0  0  0  0  0  0  0  0
  -23.1001  -16.2460   31.0617 N   0  3  0  0  0  0  0  0  0  0  0  0
  -22.5229  -14.7372   21.1754 O   0  0  0  0  0  0  0  0  0  0  0  0
  -29.3100  -17.9712   25.5570 O   0  0  0  0  0  0  0  0  0  0  0  0
  -25.5618  -19.3428   26.6344 O   0  0  0  0  0  0  0  0  0  0  0  0
  -25.8174  -16.8637   30.6729 O   0  0  0  0  0  0  0  0  0  0  0  0
  -32.0693  -14.2190   20.6183 O   0  0  0  0  0  0  0  0  0  0  0  0
  -21.7210   -7.0167   21.7558 O   0  0  0  0  0  0  0  0  0  0  0  0
  -30.2824  -12.4452   28.0476 O   0  0  0  0  0  0  0  0  0  1  0  0
  -24.1751   -3.1344   24.8069 F   0  0  0  0  0  0  0  0  0  0  0  0
  -20.6114   -6.1788   24.1452 F   0  0  0  0  0  0  0  0  0  0  0  0
  1  2  1  0  0  0  0
  1  5  2  0  0  0  0
  2  6  2  0  0  0  0
  3  8  2  0  0  0  0
  3 17  1  0  0  0  0
  4  9  1  0  0  0  0
  4 17  2  0  0  0  0
  5 19  1  0  0  0  0
  6 21  1  0  0  0  0
  7 10  2  0  0  0  0
  7 20  1  0  0  0  0
  8 24  1  0  0  0  0
  9 24  2  0  0  0  0
 10 25  1  0  0  0  0
 11 12  2  0  0  0  0
 11 26  1  0  0  0  0
 12 27  1  0  0  0  0
 13 22  1  0  0  0  0
 13 25  2  0  0  0  0
 14 23  1  0  0  0  0
 14 30  2  0  0  0  0
 15 27  2  0  0  0  0
 15 28  1  0  0  0  0
 16 23  2  0  0  0  0
 16 64  1  0  0  0  0
 17 29  1  0  0  0  0
 18 29  1  0  0  0  0
 18 31  2  0  0  0  0
 18 32  1  0  0  0  0
 19 21  2  0  0  0  0
 19 37  1  0  0  0  0
 20 22  2  0  0  0  0
 20 38  1  0  0  0  0
 21 46  1  0  0  0  0
 22 39  1  0  0  0  0
 23 56  1  0  0  0  0
 24 79  1  0  0  0  0
 25 80  1  0  0  0  0
 26 28  2  0  0  0  0
 26 79  1  0  0  0  0
 27 81  1  0  0  0  0
 28 82  1  0  0  0  0
 29 63  2  0  0  0  0
 30 49  1  0  0  0  0
 30 64  1  0  0  0  0
 31 65  1  0  0  0  0
 31 68  1  0  0  0  0
 32 69  1  0  0  0  0
 32 74  2  0  0  0  0
 33 47  1  0  0  0  0
 33 70  1  0  0  0  0
 33 75  2  0  0  0  0
 34 59  1  0  0  0  0
 34 66  1  0  0  0  0
 34 76  2  0  0  0  0
 35 60  1  0  0  0  0
 35 71  1  0  0  0  0
 35 77  2  0  0  0  0
 36 67  1  0  0  0  0
 36 72  1  0  0  0  0
 36 78  2  0  0  0  0
 37 40  1  0  0  0  0
 38 47  1  0  0  0  0
 39 66  1  0  0  0  0
 40 42  1  0  0  0  0
 41 43  1  0  0  0  0
 41 44  1  0  0  0  0
 42 46  1  0  0  0  0
 43 48  1  0  0  0  0
 44 67  1  0  0  0  0
 45 48  1  0  0  0  0
 45 67  1  0  0  0  0
 46 70  1  0  0  0  0
 47 66  1  0  0  0  0
 48 65  1  0  0  0  0
 50 60  1  0  0  0  0
 51 61  1  0  0  0  0
 52 62  1  0  0  0  0
 53 62  1  0  0  0  0
 54 62  1  0  0  0  0
 55 73  1  0  0  0  0
 56 72  1  0  0  0  0
 57 58  1  0  0  0  0
 57 61  1  0  0  0  0
 58 64  1  0  0  0  0
 59 62  1  0  0  0  0
 59 71  1  0  0  0  0
 60 73  1  0  0  0  0
 61 80  1  0  0  0  0
 63 65  1  0  0  0  0
M  CHG  1  73   1
M  ISO  4  36 100  61 101  72 100  80 101
M  END
> <Batch ID>
0096

> <Smiles>
CNC(C)C(=O)NC(C(=O)N1Cc2cc([101O:1][101CH:1](C)CCn3cc(C[100NH:0][100C:0](=O)N4CCCC(n5nc(-c6ccc(Oc7ccc(F)cc7F)cc6)c(C(N)=O)c5N)C4)cc3C)ccc2CC1C(=O)NC1CCCc2ccccc21)C(C)(C)C

> <Shape>
0.205

> <Color>
0.196

> <Negative vol penalty>
0.000

$$$$

  -OEChem-04052319243D

 90 98  0     1  0  0  0  0  0999 V2000
  -17.3314  -22.5839   21.6769 C   0  0  0  0  0  0  0  0  0  0  0  0
  -18.5080  -22.3269   20.9805 C   0  0  0  0  0  0  0  0  0  0  0  0
  -24.1437   -8.9207   20.4749 C   0  0  0  0  0  0  0  0  0  0  0  0
  -22.7725  -10.7276   21.3068 C   0  0  0  0  0  0  0  0  0  0  0  0
  -16.9767  -23.8970   21.9834 C   0  0  0  0  0  0  0  0  0  0  0  0
  -19.3301  -23.3831   20.5892 C   0  0  0  0  0  0  0  0  0  0  0  0
  -25.4463  -23.3668   20.2763 C   0  0  0  0  0  0  0  0  0  0  0  0
  -23.1969   -7.9977   20.9190 C   0  0  0  0  0  0  0  0  0  0  0  0
  -21.8257   -9.8046   21.7510 C   0  0  0  0  0  0  0  0  0  0  0  0
  -26.3306  -23.1915   19.2128 C   0  0  0  0  0  0  0  0  0  0  0  0
  -21.3088   -5.1464   22.1555 C   0  0  0  0  0  0  0  0  0  0  0  0
  -21.7695   -4.0168   22.8317 C   0  0  0  0  0  0  0  0  0  0  0  0
  -26.5061  -25.5854   18.9720 C   0  0  0  0  0  0  0  0  0  0  0  0
  -28.4742  -21.2759   19.4233 C   0  0  0  0  0  0  0  0  0  0  0  0
  -29.4621  -23.4386   19.8519 C   0  0  0  0  0  0  0  0  0  0  0  0
  -22.7577   -5.4320   24.5222 C   0  0  0  0  0  0  0  0  0  0  0  0
  -23.9315  -10.2856   20.6688 C   0  0  0  0  0  0  0  0  0  0  0  0
  -24.9639  -11.8620   18.9492 C   0  0  0  0  0  0  0  0  0  0  0  0
  -17.7997  -24.9691   21.6042 C   0  0  0  0  0  0  0  0  0  0  0  0
  -25.0761  -24.6548   20.6893 C   0  0  0  0  0  0  0  0  0  0  0  0
  -18.9855  -24.7118   20.8898 C   0  0  0  0  0  0  0  0  0  0  0  0
  -25.6189  -25.7743   20.0426 C   0  0  0  0  0  0  0  0  0  0  0  0
  -28.8353  -22.5483   18.9801 C   0  0  0  0  0  0  0  0  0  0  0  0
  -28.7399  -20.8939   20.7383 C   0  0  0  0  0  0  0  0  0  0  0  0
  -29.7279  -23.0566   21.1669 C   0  0  0  0  0  0  0  0  0  0  0  0
  -29.3668  -21.7843   21.6100 C   0  0  0  0  0  0  0  0  0  0  0  0
  -22.0379   -8.4396   21.5571 C   0  0  0  0  0  0  0  0  0  0  0  0
  -26.8584  -24.3008   18.5586 C   0  0  0  0  0  0  0  0  0  0  0  0
  -21.5725   -6.4188   22.6625 C   0  0  0  0  0  0  0  0  0  0  0  0
  -22.4940   -4.1596   24.0151 C   0  0  0  0  0  0  0  0  0  0  0  0
  -22.2970   -6.5616   23.8459 C   0  0  0  0  0  0  0  0  0  0  0  0
  -24.9094  -11.2395   20.2107 C   0  0  0  0  0  0  0  0  0  0  0  0
  -26.0705  -12.6730   19.0140 C   0  0  0  0  0  0  0  0  0  0  0  0
  -24.0921  -11.7198   17.8199 C   0  0  0  0  0  0  0  0  0  0  0  0
  -22.3385  -26.2634   20.8351 C   0  0  0  0  0  0  0  0  0  0  0  0
  -24.1751  -28.4874   22.3193 C   0  0  0  0  0  0  0  0  0  0  0  0
  -27.2812  -29.8041   22.8346 C   0  0  0  0  0  0  0  0  0  0  0  0
  -29.2395  -16.3738   21.7355 C   0  0  0  0  0  0  0  0  0  0  0  0
  -17.3509  -26.3747   21.9166 C   0  0  0  0  0  0  0  0  0  0  0  0
  -24.1419  -24.8272   21.8554 C   0  0  0  0  0  0  0  0  0  0  0  0
  -25.2691  -27.1784   20.4605 C   0  0  0  0  0  0  0  0  0  0  0  0
  -18.4648  -27.4112   21.7938 C   0  0  0  0  0  0  0  0  0  0  0  0
  -29.7691  -12.9273   22.4552 C   0  0  0  0  0  0  0  0  0  0  0  0
  -19.2436  -27.2070   20.4982 C   0  0  0  0  0  0  0  0  0  0  0  0
  -28.5539  -12.2336   21.8371 C   0  0  0  0  0  0  0  0  0  0  0  0
  -29.4009  -14.2829   23.0542 C   0  0  0  0  0  0  0  0  0  0  0  0
  -27.4907  -14.5059   21.5131 C   0  0  0  0  0  0  0  0  0  0  0  0
  -19.9159  -25.8290   20.4700 C   0  0  1  0  0  0  0  0  0  0  0  0
  -23.4344  -26.1788   21.8594 C   0  0  1  0  0  0  0  0  0  0  0  0
  -27.8231  -13.1599   20.8466 C   0  0  2  0  0  0  0  0  0  0  0  0
  -30.6179  -20.1788   23.0969 C   0  0  0  0  0  0  0  0  0  0  0  0
  -28.3682  -21.0651   23.8100 C   0  0  0  0  0  0  0  0  0  0  0  0
  -29.0510  -31.2692   23.8439 C   0  0  0  0  0  0  0  0  0  0  0  0
  -29.8414  -23.3210   16.8029 C   0  0  0  0  0  0  0  0  0  0  0  0
  -27.7773  -21.8691   16.7909 C   0  0  0  0  0  0  0  0  0  0  0  0
  -23.1450  -30.5143   20.2844 C   0  0  0  0  0  0  0  0  0  0  0  0
  -25.0236  -32.0305   20.9477 C   0  0  0  0  0  0  0  0  0  0  0  0
  -23.2999  -31.3748   22.6274 C   0  0  0  0  0  0  0  0  0  0  0  0
  -27.8020  -27.8713   25.0145 C   0  0  0  0  0  0  0  0  0  0  0  0
  -32.4442  -25.9269   22.9310 C   0  0  0  0  0  0  0  0  0  0  0  0
  -31.0313  -27.8119   22.1238 C   0  0  0  0  0  0  0  0  0  0  0  0
  -28.3441  -19.5253   21.1876 C   0  0  0  0  0  0  0  0  0  0  0  0
  -30.4003  -24.0286   22.0806 C   0  0  0  0  0  0  0  0  0  0  0  0
  -28.9493  -18.4034   20.3371 C   0  0  0  0  0  0  0  0  0  0  0  0
  -30.4169  -25.4655   21.5602 C   0  0  0  0  0  0  0  0  0  0  0  0
  -29.6520  -21.3742   23.0198 C   0  0  0  0  0  0  0  0  0  0  0  0
  -25.0014  -29.6668   21.8661 C   0  0  1  0  0  0  0  0  0  0  0  0
  -28.0136  -30.1889   24.1074 C   0  0  2  0  0  0  0  0  0  0  0  0
  -28.5438  -22.9666   17.5411 C   0  0  0  0  0  0  0  0  0  1  0  0
  -24.1228  -30.8703   21.4220 C   0  0  0  0  0  0  0  0  0  0  0  0
  -25.9025  -11.6222   21.0178 N   0  0  0  0  0  0  0  0  0  0  0  0
  -26.5915  -12.4937   20.2616 N   0  0  0  0  0  0  0  0  0  0  0  0
  -24.3466  -27.2950   21.6019 N   0  0  0  0  0  0  0  0  0  0  0  0
  -28.7125  -15.1136   22.0633 N   0  0  0  0  0  0  0  0  0  0  0  0
  -26.6390  -13.5147   18.1248 N   0  0  0  0  0  0  0  0  0  0  0  0
  -23.0024  -10.8444   17.9230 N   0  0  0  0  0  0  0  0  0  0  0  0
  -21.1077  -25.8313   21.2910 N   0  0  0  0  0  0  0  0  0  0  0  0
  -25.9178  -29.9678   22.9606 N   0  0  0  0  0  0  0  0  0  0  0  0
  -28.5289  -17.0936   20.7828 N   0  0  0  0  0  0  0  0  0  0  0  0
  -28.7067  -29.0027   24.6850 N   0  3  0  0  0  0  0  0  0  0  0  0
  -31.0502  -26.3659   22.5551 N   0  3  0  0  0  0  0  0  0  0  0  0
  -24.2834  -12.3380   16.7452 O   0  0  0  0  0  0  0  0  0  0  0  0
  -22.5905  -26.6905   19.7145 O   0  0  0  0  0  0  0  0  0  0  0  0
  -23.4111  -28.6173   23.2790 O   0  0  0  0  0  0  0  0  0  0  0  0
  -27.8608  -29.4024   21.8281 O   0  0  0  0  0  0  0  0  0  0  0  0
  -30.2700  -16.8217   22.2497 O   0  0  0  0  0  0  0  0  0  0  0  0
  -21.1137   -7.5392   21.9904 O   0  0  0  0  0  0  0  0  0  0  0  0
  -27.7213  -24.1325   17.5198 O   0  0  0  0  0  0  0  0  0  1  0  0
  -22.9351   -3.0747   24.6652 F   0  0  0  0  0  0  0  0  0  0  0  0
  -22.5525   -7.7813   24.3386 F   0  0  0  0  0  0  0  0  0  0  0  0
  1  2  1  0  0  0  0
  1  5  2  0  0  0  0
  2  6  2  0  0  0  0
  3  8  2  0  0  0  0
  3 17  1  0  0  0  0
  4  9  1  0  0  0  0
  4 17  2  0  0  0  0
  5 19  1  0  0  0  0
  6 21  1  0  0  0  0
  7 10  2  0  0  0  0
  7 20  1  0  0  0  0
  8 27  1  0  0  0  0
  9 27  2  0  0  0  0
 10 28  1  0  0  0  0
 11 12  2  0  0  0  0
 11 29  1  0  0  0  0
 12 30  1  0  0  0  0
 13 22  1  0  0  0  0
 13 28  2  0  0  0  0
 14 23  1  0  0  0  0
 14 24  2  0  0  0  0
 15 23  2  0  0  0  0
 15 25  1  0  0  0  0
 16 30  2  0  0  0  0
 16 31  1  0  0  0  0
 17 32  1  0  0  0  0
 18 32  1  0  0  0  0
 18 33  2  0  0  0  0
 18 34  1  0  0  0  0
 19 21  2  0  0  0  0
 19 39  1  0  0  0  0
 20 22  2  0  0  0  0
 20 40  1  0  0  0  0
 21 48  1  0  0  0  0
 22 41  1  0  0  0  0
 23 69  1  0  0  0  0
 24 26  1  0  0  0  0
 24 62  1  0  0  0  0
 25 26  2  0  0  0  0
 25 63  1  0  0  0  0
 26 66  1  0  0  0  0
 27 87  1  0  0  0  0
 28 88  1  0  0  0  0
 29 31  2  0  0  0  0
 29 87  1  0  0  0  0
 30 89  1  0  0  0  0
 31 90  1  0  0  0  0
 32 71  2  0  0  0  0
 33 72  1  0  0  0  0
 33 75  1  0  0  0  0
 34 76  1  0  0  0  0
 34 82  2  0  0  0  0
 35 49  1  0  0  0  0
 35 77  1  0  0  0  0
 35 83  2  0  0  0  0
 36 67  1  0  0  0  0
 36 73  1  0  0  0  0
 36 84  2  0  0  0  0
 37 68  1  0  0  0  0
 37 78  1  0  0  0  0
 37 85  2  0  0  0  0
 38 74  1  0  0  0  0
 38 79  1  0  0  0  0
 38 86  2  0  0  0  0
 39 42  1  0  0  0  0
 40 49  1  0  0  0  0
 41 73  1  0  0  0  0
 42 44  1  0  0  0  0
 43 45  1  0  0  0  0
 43 46  1  0  0  0  0
 44 48  1  0  0  0  0
 45 50  1  0  0  0  0
 46 74  1  0  0  0  0
 47 50  1  0  0  0  0
 47 74  1  0  0  0  0
 48 77  1  0  0  0  0
 49 73  1  0  0  0  0
 50 72  1  0  0  0  0
 51 66  1  0  0  0  0
 52 66  1  0  0  0  0
 53 68  1  0  0  0  0
 54 69  1  0  0  0  0
 55 69  1  0  0  0  0
 56 70  1  0  0  0  0
 57 70  1  0  0  0  0
 58 70  1  0  0  0  0
 59 80  1  0  0  0  0
 60 81  1  0  0  0  0
 61 81  1  0  0  0  0
 62 64  1  0  0  0  0
 63 65  1  0  0  0  0
 64 79  1  0  0  0  0
 65 81  1  0  0  0  0
 67 70  1  0  0  0  0
 67 78  1  0  0  0  0
 68 80  1  0  0  0  0
 69 88  1  0  0  0  0
 71 72  1  0  0  0  0
M  CHG  2  80   1  81   1
M  ISO  4  38 100  69 101  79 100  88 101
M  END
> <Batch ID>
0096

> <Smiles>
CNC(C)C(=O)NC(C(=O)N1Cc2cc([101O:1][101C:1](C)(C)c3cc(CC[100NH:0][100C:0](=O)N4CCCC(n5nc(-c6ccc(Oc7ccc(F)cc7F)cc6)c(C(N)=O)c5N)C4)c(C(C)C)c(CCN(C)C)c3)ccc2CC1C(=O)NC1CCCc2ccccc21)C(C)(C)C

> <Shape>
0.286

> <Color>
0.078

> <Negative vol penalty>
0.000

$$$$

  -OEChem-04052319243D

 92100  0     1  0  0  0  0  0999 V2000
  -30.8019  -20.8691   17.3757 C   0  0  0  0  0  0  0  0  0  0  0  0
  -30.4992  -21.2359   18.6830 C   0  0  0  0  0  0  0  0  0  0  0  0
  -28.8593  -13.0758   20.7539 C   0  0  0  0  0  0  0  0  0  0  0  0
  -28.0434  -13.3858   18.5010 C   0  0  0  0  0  0  0  0  0  0  0  0
  -30.8270  -21.8345   16.3701 C   0  0  0  0  0  0  0  0  0  0  0  0
  -30.2225  -22.5687   18.9858 C   0  0  0  0  0  0  0  0  0  0  0  0
  -26.1892  -23.0780   22.0054 C   0  0  0  0  0  0  0  0  0  0  0  0
  -29.7312  -12.0854   20.3018 C   0  0  0  0  0  0  0  0  0  0  0  0
  -28.9154  -12.3954   18.0489 C   0  0  0  0  0  0  0  0  0  0  0  0
  -26.3725  -22.8154   23.3623 C   0  0  0  0  0  0  0  0  0  0  0  0
  -29.0464   -9.0171   18.0161 C   0  0  0  0  0  0  0  0  0  0  0  0
  -28.5416   -8.0634   17.1324 C   0  0  0  0  0  0  0  0  0  0  0  0
  -26.5314  -25.1836   23.7930 C   0  0  0  0  0  0  0  0  0  0  0  0
  -30.1631   -8.7411   15.4745 C   0  0  0  0  0  0  0  0  0  0  0  0
  -28.0153  -13.7260   19.8535 C   0  0  0  0  0  0  0  0  0  0  0  0
  -27.3716  -16.1294   20.4164 C   0  0  0  0  0  0  0  0  0  0  0  0
  -30.5410  -23.1782   16.6588 C   0  0  0  0  0  0  0  0  0  0  0  0
  -26.1865  -24.3972   21.5297 C   0  0  0  0  0  0  0  0  0  0  0  0
  -30.2451  -23.5532   17.9833 C   0  0  0  0  0  0  0  0  0  0  0  0
  -26.3454  -25.4604   22.4300 C   0  0  0  0  0  0  0  0  0  0  0  0
  -21.1274  -22.1562   21.3319 C   0  0  0  0  0  0  0  0  0  0  0  0
  -21.1012  -21.6058   22.6370 C   0  0  0  0  0  0  0  0  0  0  0  0
  -29.7593  -11.7452   18.9494 C   0  0  0  0  0  0  0  0  0  0  0  0
  -26.5465  -23.8681   24.2559 C   0  0  0  0  0  0  0  0  0  0  0  0
  -30.1096   -9.8330   17.6291 C   0  0  0  0  0  0  0  0  0  0  0  0
  -29.0999   -7.9253   15.8616 C   0  0  0  0  0  0  0  0  0  0  0  0
  -30.6679   -9.6950   16.3583 C   0  0  0  0  0  0  0  0  0  0  0  0
  -27.1140  -14.7488   20.3199 C   0  0  0  0  0  0  0  0  0  0  0  0
  -20.6851  -21.1812   20.4653 C   0  0  0  0  0  0  0  0  0  0  0  0
  -20.6438  -20.3110   22.5283 C   0  0  0  0  0  0  0  0  0  0  0  0
  -26.2064  -16.6624   20.9109 C   0  0  0  0  0  0  0  0  0  0  0  0
  -28.5582  -16.8644   20.0883 C   0  0  0  0  0  0  0  0  0  0  0  0
  -27.9874  -26.0537   19.5008 C   0  0  0  0  0  0  0  0  0  0  0  0
  -25.7474  -28.3476   19.9938 C   0  0  0  0  0  0  0  0  0  0  0  0
  -23.3314  -29.6494   22.0223 C   0  0  0  0  0  0  0  0  0  0  0  0
  -20.4323  -15.5115   20.2637 C   0  0  0  0  0  0  0  0  0  0  0  0
  -30.6269  -24.1938   15.5472 C   0  0  0  0  0  0  0  0  0  0  0  0
  -25.9609  -24.6649   20.0669 C   0  0  0  0  0  0  0  0  0  0  0  0
  -26.3302  -26.8955   21.9730 C   0  0  0  0  0  0  0  0  0  0  0  0
  -29.9546  -25.5226   15.8829 C   0  0  0  0  0  0  0  0  0  0  0  0
  -22.3209  -14.8915   23.3863 C   0  0  0  0  0  0  0  0  0  0  0  0
  -30.3609  -25.9891   17.2772 C   0  0  0  0  0  0  0  0  0  0  0  0
  -23.7678  -14.8502   22.8978 C   0  0  0  0  0  0  0  0  0  0  0  0
  -21.3428  -14.4548   22.2999 C   0  0  0  0  0  0  0  0  0  0  0  0
  -22.9230  -15.1747   20.5395 C   0  0  0  0  0  0  0  0  0  0  0  0
  -29.9151  -24.9847   18.3467 C   0  0  1  0  0  0  0  0  0  0  0  0
  -26.4899  -26.0242   19.6197 C   0  0  1  0  0  0  0  0  0  0  0  0
  -23.9304  -15.6534   21.5956 C   0  0  2  0  0  0  0  0  0  0  0  0
  -21.5493  -23.5238   20.9651 C   0  0  0  0  0  0  0  0  0  0  0  0
  -20.4253  -19.2865   23.5718 C   0  0  0  0  0  0  0  0  0  0  0  0
  -20.3080  -22.4516   24.8707 C   0  0  0  0  0  0  0  0  0  0  0  0
  -21.8419  -21.4533   18.2424 C   0  0  0  0  0  0  0  0  0  0  0  0
  -19.4733  -22.2640   18.5384 C   0  0  0  0  0  0  0  0  0  0  0  0
  -21.7005  -31.5506   22.1739 C   0  0  0  0  0  0  0  0  0  0  0  0
  -26.4758  -25.1268   27.4279 C   0  0  0  0  0  0  0  0  0  0  0  0
  -28.0275  -30.2429   20.7144 C   0  0  0  0  0  0  0  0  0  0  0  0
  -26.3363  -31.7729   21.7475 C   0  0  0  0  0  0  0  0  0  0  0  0
  -26.2282  -31.2626   19.3081 C   0  0  0  0  0  0  0  0  0  0  0  0
  -19.7611  -16.7724   18.2539 C   0  0  0  0  0  0  0  0  0  0  0  0
  -21.0149  -27.8090   22.0947 C   0  0  0  0  0  0  0  0  0  0  0  0
  -25.0954  -23.0248   27.2587 C   0  0  0  0  0  0  0  0  0  0  0  0
  -19.9012  -18.8128   20.6666 C   0  0  0  0  0  0  0  0  0  0  0  0
  -20.9969  -17.9663   20.0239 C   0  0  0  0  0  0  0  0  0  0  0  0
  -24.4331  -21.9678   26.3793 C   0  0  0  0  0  0  0  0  0  0  0  0
  -22.6718  -21.6183   24.6431 C   0  0  0  0  0  0  0  0  0  0  0  0
  -21.5069  -22.3121   23.9252 C   0  0  1  0  0  0  0  0  0  0  0  0
  -20.5141  -21.2178   18.9972 C   0  0  0  0  0  0  0  0  0  0  0  0
  -25.5751  -29.4797   20.9775 C   0  0  1  0  0  0  0  0  0  0  0  0
  -21.9144  -30.1109   21.7332 C   0  0  2  0  0  0  0  0  0  0  0  0
  -25.7671  -24.1640   26.4832 C   0  0  2  0  0  0  0  0  0  1  0  0
  -26.5440  -30.6625   20.6955 C   0  0  0  0  0  0  0  0  0  0  0  0
  -25.8818  -14.4249   20.7211 N   0  0  0  0  0  0  0  0  0  0  0  0
  -20.3944  -20.0637   21.2036 N   0  0  0  0  0  0  0  0  0  0  0  0
  -25.3549  -15.6096   21.0745 N   0  0  0  0  0  0  0  0  0  0  0  0
  -26.1125  -27.1055   20.5321 N   0  0  0  0  0  0  0  0  0  0  0  0
  -21.5478  -15.2042   21.0599 N   0  0  0  0  0  0  0  0  0  0  0  0
  -25.8373  -17.9243   21.2174 N   0  0  0  0  0  0  0  0  0  0  0  0
  -29.6640  -16.1608   19.5918 N   0  0  0  0  0  0  0  0  0  0  0  0
  -28.4998  -25.1260   18.6142 N   0  0  0  0  0  0  0  0  0  0  0  0
  -24.1625  -29.8423   20.9391 N   0  0  0  0  0  0  0  0  0  0  0  0
  -20.4893  -16.6951   19.5124 N   0  0  0  0  0  0  0  0  0  0  0  0
  -20.9325  -29.2491   22.4501 N   0  3  0  0  0  0  0  0  0  0  0  0
  -23.3407  -22.5662   25.5766 N   0  3  0  0  0  0  0  0  0  0  0  0
  -28.6411  -18.1060   20.2467 O   0  0  0  0  0  0  0  0  0  0  0  0
  -28.6303  -26.8596   20.1633 O   0  0  0  0  0  0  0  0  0  0  0  0
  -25.5580  -28.5559   18.7928 O   0  0  0  0  0  0  0  0  0  0  0  0
  -23.6683  -29.1696   23.1025 O   0  0  0  0  0  0  0  0  0  0  0  0
  -19.4380  -14.7750   20.2339 O   0  0  0  0  0  0  0  0  0  0  0  0
  -30.6102  -10.7789   18.5079 O   0  0  0  0  0  0  0  0  0  0  0  0
  -26.7262  -23.6145   25.5808 O   0  0  0  0  0  0  0  0  0  1  0  0
  -28.6160   -7.0083   15.0136 F   0  0  0  0  0  0  0  0  0  0  0  0
  -31.6902  -10.4751   15.9812 F   0  0  0  0  0  0  0  0  0  0  0  0
  1  2  1  0  0  0  0
  1  5  2  0  0  0  0
  2  6  2  0  0  0  0
  3  8  2  0  0  0  0
  3 15  1  0  0  0  0
  4  9  1  0  0  0  0
  4 15  2  0  0  0  0
  5 17  1  0  0  0  0
  6 19  1  0  0  0  0
  7 10  2  0  0  0  0
  7 18  1  0  0  0  0
  8 23  1  0  0  0  0
  9 23  2  0  0  0  0
 10 24  1  0  0  0  0
 11 12  2  0  0  0  0
 11 25  1  0  0  0  0
 12 26  1  0  0  0  0
 13 20  1  0  0  0  0
 13 24  2  0  0  0  0
 14 26  2  0  0  0  0
 14 27  1  0  0  0  0
 15 28  1  0  0  0  0
 16 28  1  0  0  0  0
 16 31  2  0  0  0  0
 16 32  1  0  0  0  0
 17 19  2  0  0  0  0
 17 37  1  0  0  0  0
 18 20  2  0  0  0  0
 18 38  1  0  0  0  0
 19 46  1  0  0  0  0
 20 39  1  0  0  0  0
 21 22  1  0  0  0  0
 21 29  2  0  0  0  0
 21 49  1  0  0  0  0
 22 30  2  0  0  0  0
 22 66  1  0  0  0  0
 23 89  1  0  0  0  0
 24 90  1  0  0  0  0
 25 27  2  0  0  0  0
 25 89  1  0  0  0  0
 26 91  1  0  0  0  0
 27 92  1  0  0  0  0
 28 72  2  0  0  0  0
 29 67  1  0  0  0  0
 29 73  1  0  0  0  0
 30 50  1  0  0  0  0
 30 73  1  0  0  0  0
 31 74  1  0  0  0  0
 31 77  1  0  0  0  0
 32 78  1  0  0  0  0
 32 84  2  0  0  0  0
 33 47  1  0  0  0  0
 33 79  1  0  0  0  0
 33 85  2  0  0  0  0
 34 68  1  0  0  0  0
 34 75  1  0  0  0  0
 34 86  2  0  0  0  0
 35 69  1  0  0  0  0
 35 80  1  0  0  0  0
 35 87  2  0  0  0  0
 36 76  1  0  0  0  0
 36 81  1  0  0  0  0
 36 88  2  0  0  0  0
 37 40  1  0  0  0  0
 38 47  1  0  0  0  0
 39 75  1  0  0  0  0
 40 42  1  0  0  0  0
 41 43  1  0  0  0  0
 41 44  1  0  0  0  0
 42 46  1  0  0  0  0
 43 48  1  0  0  0  0
 44 76  1  0  0  0  0
 45 48  1  0  0  0  0
 45 76  1  0  0  0  0
 46 79  1  0  0  0  0
 47 75  1  0  0  0  0
 48 74  1  0  0  0  0
 51 66  1  0  0  0  0
 52 67  1  0  0  0  0
 53 67  1  0  0  0  0
 54 69  1  0  0  0  0
 55 70  1  0  0  0  0
 56 71  1  0  0  0  0
 57 71  1  0  0  0  0
 58 71  1  0  0  0  0
 59 81  1  0  0  0  0
 60 82  1  0  0  0  0
 61 64  1  0  0  0  0
 61 70  1  0  0  0  0
 62 63  1  0  0  0  0
 62 73  1  0  0  0  0
 63 81  1  0  0  0  0
 64 83  1  0  0  0  0
 65 66  1  0  0  0  0
 65 83  1  0  0  0  0
 68 71  1  0  0  0  0
 68 80  1  0  0  0  0
 69 82  1  0  0  0  0
 70 90  1  0  0  0  0
 72 74  1  0  0  0  0
M  CHG  2  82   1  83   1
M  ISO  4  36 100  70 101  81 100  90 101
M  END
> <Batch ID>
0096

> <Smiles>
CNC(C)C(=O)NC(C(=O)N1Cc2cc([101O:1][101CH:1](C)CCNCC(C)c3c(C)c(C(C)C)n(CC[100N:0](C)[100C:0](=O)N4CCCC(n5nc(-c6ccc(Oc7ccc(F)cc7F)cc6)c(C(N)=O)c5N)C4)c3C)ccc2CC1C(=O)NC1CCCc2ccccc21)C(C)(C)C

> <Shape>
0.199

> <Color>
0.073

> <Negative vol penalty>
0.000

$$$$

  -OEChem-04052319243D

 86 94  0     1  0  0  0  0  0999 V2000
  -16.8751  -29.1519   24.4938 C   0  0  0  0  0  0  0  0  0  0  0  0
  -17.3055  -28.0760   23.7240 C   0  0  0  0  0  0  0  0  0  0  0  0
  -26.5791  -10.2105   21.0993 C   0  0  0  0  0  0  0  0  0  0  0  0
  -25.2075  -11.8663   19.9974 C   0  0  0  0  0  0  0  0  0  0  0  0
  -17.4762  -30.4007   24.3423 C   0  0  0  0  0  0  0  0  0  0  0  0
  -18.3368  -28.2487   22.8014 C   0  0  0  0  0  0  0  0  0  0  0  0
  -22.6375  -24.1629   21.2797 C   0  0  0  0  0  0  0  0  0  0  0  0
  -25.4311   -9.5680   21.5628 C   0  0  0  0  0  0  0  0  0  0  0  0
  -24.0595  -11.2237   20.4609 C   0  0  0  0  0  0  0  0  0  0  0  0
  -22.7548  -23.2798   20.2073 C   0  0  0  0  0  0  0  0  0  0  0  0
  -22.3024  -11.0339   23.3431 C   0  0  0  0  0  0  0  0  0  0  0  0
  -21.2893  -11.8264   23.8827 C   0  0  0  0  0  0  0  0  0  0  0  0
  -24.1267  -24.8861   19.0424 C   0  0  0  0  0  0  0  0  0  0  0  0
  -28.9042  -19.5803   18.3081 C   0  0  0  0  0  0  0  0  0  0  0  0
  -19.7597  -11.0200   22.1953 C   0  0  0  0  0  0  0  0  0  0  0  0
  -26.4673  -11.3597   20.3167 C   0  0  0  0  0  0  0  0  0  0  0  0
  -28.3330  -11.7834   18.6292 C   0  0  0  0  0  0  0  0  0  0  0  0
  -18.5219  -30.5865   23.4243 C   0  0  0  0  0  0  0  0  0  0  0  0
  -23.2560  -25.4207   21.2370 C   0  0  0  0  0  0  0  0  0  0  0  0
  -18.9516  -29.5015   22.6365 C   0  0  0  0  0  0  0  0  0  0  0  0
  -24.0178  -25.7823   20.1168 C   0  0  0  0  0  0  0  0  0  0  0  0
  -28.7047  -20.8385   17.7510 C   0  0  0  0  0  0  0  0  0  0  0  0
  -29.0960  -21.9734   18.4526 C   0  0  0  0  0  0  0  0  0  0  0  0
  -24.1713  -10.0746   21.2436 C   0  0  0  0  0  0  0  0  0  0  0  0
  -23.4971  -23.6425   19.0872 C   0  0  0  0  0  0  0  0  0  0  0  0
  -22.0442  -10.2345   22.2296 C   0  0  0  0  0  0  0  0  0  0  0  0
  -20.0180  -11.8194   23.3089 C   0  0  0  0  0  0  0  0  0  0  0  0
  -20.7729  -10.2275   21.6557 C   0  0  0  0  0  0  0  0  0  0  0  0
  -27.6529  -12.0242   19.8381 C   0  0  0  0  0  0  0  0  0  0  0  0
  -29.6775  -21.7976   19.6978 C   0  0  0  0  0  0  0  0  0  0  0  0
  -29.4945  -19.5116   19.5598 C   0  0  0  0  0  0  0  0  0  0  0  0
  -29.3848  -12.6666   18.6453 C   0  0  0  0  0  0  0  0  0  0  0  0
  -28.0402  -10.8454   17.5852 C   0  0  0  0  0  0  0  0  0  0  0  0
  -22.2303  -28.4283   21.3132 C   0  0  0  0  0  0  0  0  0  0  0  0
  -25.4023  -29.0967   21.4306 C   0  0  0  0  0  0  0  0  0  0  0  0
  -28.5987  -28.1057   20.7613 C   0  0  0  0  0  0  0  0  0  0  0  0
  -30.2635  -17.9196   21.3543 C   0  0  0  0  0  0  0  0  0  0  0  0
  -19.1089  -31.9662   23.2620 C   0  0  0  0  0  0  0  0  0  0  0  0
  -23.1420  -26.3511   22.4133 C   0  0  0  0  0  0  0  0  0  0  0  0
  -24.7181  -27.1129   20.0300 C   0  0  0  0  0  0  0  0  0  0  0  0
  -20.4482  -31.9761   22.5295 C   0  0  0  0  0  0  0  0  0  0  0  0
  -32.2720  -14.9970   21.6730 C   0  0  0  0  0  0  0  0  0  0  0  0
  -20.3798  -31.1035   21.2802 C   0  0  0  0  0  0  0  0  0  0  0  0
  -31.3796  -13.8820   21.1230 C   0  0  0  0  0  0  0  0  0  0  0  0
  -31.4660  -16.0391   22.4464 C   0  0  0  0  0  0  0  0  0  0  0  0
  -29.4325  -15.4926   21.1675 C   0  0  0  0  0  0  0  0  0  0  0  0
  -20.0840  -29.6431   21.6428 C   0  0  1  0  0  0  0  0  0  0  0  0
  -23.3878  -27.8113   22.0461 C   0  0  1  0  0  0  0  0  0  0  0  0
  -30.1908  -14.4534   20.3256 C   0  0  2  0  0  0  0  0  0  0  0  0
  -28.8957  -23.3362   17.8799 C   0  0  0  0  0  0  0  0  0  0  0  0
  -29.9881  -22.7422   21.9995 C   0  0  0  0  0  0  0  0  0  0  0  0
  -28.9358  -20.2873   15.3062 C   0  0  0  0  0  0  0  0  0  0  0  0
  -31.1070  -28.1828   20.7529 C   0  0  0  0  0  0  0  0  0  0  0  0
  -24.9762  -30.9352   19.0330 C   0  0  0  0  0  0  0  0  0  0  0  0
  -27.4535  -30.9223   18.6711 C   0  0  0  0  0  0  0  0  0  0  0  0
  -26.5087  -31.8463   20.7869 C   0  0  0  0  0  0  0  0  0  0  0  0
  -28.7664  -26.6949   23.3575 C   0  0  0  0  0  0  0  0  0  0  0  0
  -30.1167  -22.9803   20.4983 C   0  0  0  0  0  0  0  0  0  0  0  0
  -24.3457  -20.6194   17.2868 C   0  0  0  0  0  0  0  0  0  0  0  0
  -26.6408  -20.3587   16.3363 C   0  0  0  0  0  0  0  0  0  0  0  0
  -23.5644  -21.3875   18.3345 C   0  0  0  0  0  0  0  0  0  1  0  0
  -28.0571  -20.9470   16.3756 C   0  0  1  0  0  0  0  0  0  0  0  0
  -26.4808  -29.3473   20.4044 C   0  0  1  0  0  0  0  0  0  0  0  0
  -29.8550  -28.1133   21.6134 C   0  0  2  0  0  0  0  0  0  0  0  0
  -26.3401  -30.7384   19.7243 C   0  0  0  0  0  0  0  0  0  0  0  0
  -28.2246  -12.9849   20.5689 N   0  0  0  0  0  0  0  0  0  0  0  0
  -29.8876  -20.5917   20.2716 N   0  0  0  0  0  0  0  0  0  0  0  0
  -29.2752  -13.3556   19.8172 N   0  0  0  0  0  0  0  0  0  0  0  0
  -24.5715  -27.9905   21.2029 N   0  0  0  0  0  0  0  0  0  0  0  0
  -30.3596  -16.5386   21.6271 N   0  0  0  0  0  0  0  0  0  0  0  0
  -30.3835  -12.9132   17.7711 N   0  0  0  0  0  0  0  0  0  0  0  0
  -26.9215  -10.0134   17.7290 N   0  0  0  0  0  0  0  0  0  0  0  0
  -29.6932  -18.2249   20.1190 N   0  0  0  0  0  0  0  0  0  0  0  0
  -21.2782  -28.9940   22.1397 N   0  0  0  0  0  0  0  0  0  0  0  0
  -27.7522  -29.1432   21.0902 N   0  0  0  0  0  0  0  0  0  0  0  0
  -29.9242  -26.8786   22.4451 N   0  3  0  0  0  0  0  0  0  0  0  0
  -25.7617  -21.0652   17.3069 N   0  3  0  0  0  0  0  0  0  0  0  0
  -28.7589  -10.7366   16.5629 O   0  0  0  0  0  0  0  0  0  0  0  0
  -22.2037  -28.3950   20.0885 O   0  0  0  0  0  0  0  0  0  0  0  0
  -25.3054  -29.8504   22.4023 O   0  0  0  0  0  0  0  0  0  0  0  0
  -28.3909  -27.2657   19.8885 O   0  0  0  0  0  0  0  0  0  0  0  0
  -30.6829  -18.7681   22.1456 O   0  0  0  0  0  0  0  0  0  0  0  0
  -23.0509   -9.4477   21.6955 O   0  0  0  0  0  0  0  0  0  0  0  0
  -23.6126  -22.7827   18.0387 O   0  0  0  0  0  0  0  0  0  1  0  0
  -19.0448  -12.5793   23.8281 F   0  0  0  0  0  0  0  0  0  0  0  0
  -20.5185   -9.4607   20.5865 F   0  0  0  0  0  0  0  0  0  0  0  0
  1  2  1  0  0  0  0
  1  5  2  0  0  0  0
  2  6  2  0  0  0  0
  3  8  2  0  0  0  0
  3 16  1  0  0  0  0
  4  9  1  0  0  0  0
  4 16  2  0  0  0  0
  5 18  1  0  0  0  0
  6 20  1  0  0  0  0
  7 10  2  0  0  0  0
  7 19  1  0  0  0  0
  8 24  1  0  0  0  0
  9 24  2  0  0  0  0
 10 25  1  0  0  0  0
 11 12  2  0  0  0  0
 11 26  1  0  0  0  0
 12 27  1  0  0  0  0
 13 21  1  0  0  0  0
 13 25  2  0  0  0  0
 14 22  2  0  0  0  0
 14 31  1  0  0  0  0
 15 27  2  0  0  0  0
 15 28  1  0  0  0  0
 16 29  1  0  0  0  0
 17 29  1  0  0  0  0
 17 32  2  0  0  0  0
 17 33  1  0  0  0  0
 18 20  2  0  0  0  0
 18 38  1  0  0  0  0
 19 21  2  0  0  0  0
 19 39  1  0  0  0  0
 20 47  1  0  0  0  0
 21 40  1  0  0  0  0
 22 23  1  0  0  0  0
 22 62  1  0  0  0  0
 23 30  2  0  0  0  0
 23 50  1  0  0  0  0
 24 83  1  0  0  0  0
 25 84  1  0  0  0  0
 26 28  2  0  0  0  0
 26 83  1  0  0  0  0
 27 85  1  0  0  0  0
 28 86  1  0  0  0  0
 29 66  2  0  0  0  0
 30 58  1  0  0  0  0
 30 67  1  0  0  0  0
 31 67  2  0  0  0  0
 31 73  1  0  0  0  0
 32 68  1  0  0  0  0
 32 71  1  0  0  0  0
 33 72  1  0  0  0  0
 33 78  2  0  0  0  0
 34 48  1  0  0  0  0
 34 74  1  0  0  0  0
 34 79  2  0  0  0  0
 35 63  1  0  0  0  0
 35 69  1  0  0  0  0
 35 80  2  0  0  0  0
 36 64  1  0  0  0  0
 36 75  1  0  0  0  0
 36 81  2  0  0  0  0
 37 70  1  0  0  0  0
 37 73  1  0  0  0  0
 37 82  2  0  0  0  0
 38 41  1  0  0  0  0
 39 48  1  0  0  0  0
 40 69  1  0  0  0  0
 41 43  1  0  0  0  0
 42 44  1  0  0  0  0
 42 45  1  0  0  0  0
 43 47  1  0  0  0  0
 44 49  1  0  0  0  0
 45 70  1  0  0  0  0
 46 49  1  0  0  0  0
 46 70  1  0  0  0  0
 47 74  1  0  0  0  0
 48 69  1  0  0  0  0
 49 68  1  0  0  0  0
 51 58  1  0  0  0  0
 52 62  1  0  0  0  0
 53 64  1  0  0  0  0
 54 65  1  0  0  0  0
 55 65  1  0  0  0  0
 56 65  1  0  0  0  0
 57 76  1  0  0  0  0
 59 61  1  0  0  0  0
 59 77  1  0  0  0  0
 60 62  1  0  0  0  0
 60 77  1  0  0  0  0
 61 84  1  0  0  0  0
 63 65  1  0  0  0  0
 63 75  1  0  0  0  0
 64 76  1  0  0  0  0
 66 68  1  0  0  0  0
M  CHG  2  76   1  77   1
M  ISO  4  37 100  61 101  73 100  84 101
M  END
> <Batch ID>
0096

> <Smiles>
CCc1nc([100NH:0][100C:0](=O)N2CCCC(n3nc(-c4ccc(Oc5ccc(F)cc5F)cc4)c(C(N)=O)c3N)C2)cc(C(C)CNC[101CH2:1][101O:1]c2ccc3c(c2)CN(C(=O)C(NC(=O)C(C)NC)C(C)(C)C)C(C(=O)NC2CCCc4ccccc42)C3)c1C

> <Shape>
0.286

> <Color>
0.073

> <Negative vol penalty>
0.000

$$$$

  -OEChem-04052319243D

 84 92  0     1  0  0  0  0  0999 V2000
  -29.8040  -12.2156   20.1642 C   0  0  0  0  0  0  0  0  0  0  0  0
  -29.7985  -13.5840   19.9133 C   0  0  0  0  0  0  0  0  0  0  0  0
  -21.7455  -28.4282   20.3203 C   0  0  0  0  0  0  0  0  0  0  0  0
  -23.2851  -27.0141   21.5315 C   0  0  0  0  0  0  0  0  0  0  0  0
  -28.6135  -11.4924   20.1044 C   0  0  0  0  0  0  0  0  0  0  0  0
  -28.6026  -14.2297   19.6014 C   0  0  0  0  0  0  0  0  0  0  0  0
  -28.0452  -18.5994   22.0995 C   0  0  0  0  0  0  0  0  0  0  0  0
  -29.4933  -23.7766   17.8147 C   0  0  0  0  0  0  0  0  0  0  0  0
  -20.7758  -27.4276   20.3847 C   0  0  0  0  0  0  0  0  0  0  0  0
  -22.3153  -26.0135   21.5960 C   0  0  0  0  0  0  0  0  0  0  0  0
  -28.7555  -19.7003   21.6229 C   0  0  0  0  0  0  0  0  0  0  0  0
  -17.7739  -25.3837   20.5450 C   0  0  0  0  0  0  0  0  0  0  0  0
  -16.4758  -25.7599   20.8901 C   0  0  0  0  0  0  0  0  0  0  0  0
  -30.3602  -24.7874   17.4147 C   0  0  0  0  0  0  0  0  0  0  0  0
  -26.7637  -20.5019   20.5233 C   0  0  0  0  0  0  0  0  0  0  0  0
  -17.2826  -26.6033   23.0055 C   0  0  0  0  0  0  0  0  0  0  0  0
  -23.0002  -28.2214   20.8937 C   0  0  0  0  0  0  0  0  0  0  0  0
  -24.2208  -30.2883   21.7571 C   0  0  0  0  0  0  0  0  0  0  0  0
  -27.4009  -12.1313   19.8011 C   0  0  0  0  0  0  0  0  0  0  0  0
  -26.6892  -18.4355   21.7819 C   0  0  0  0  0  0  0  0  0  0  0  0
  -27.3950  -13.5141   19.5361 C   0  0  0  0  0  0  0  0  0  0  0  0
  -26.0378  -19.3993   20.9991 C   0  0  0  0  0  0  0  0  0  0  0  0
  -29.0231  -23.7489   19.1229 C   0  0  0  0  0  0  0  0  0  0  0  0
  -21.0607  -26.2203   21.0225 C   0  0  0  0  0  0  0  0  0  0  0  0
  -28.1156  -20.6503   20.8323 C   0  0  0  0  0  0  0  0  0  0  0  0
  -18.8263  -25.6172   21.4302 C   0  0  0  0  0  0  0  0  0  0  0  0
  -16.2302  -26.3697   22.1204 C   0  0  0  0  0  0  0  0  0  0  0  0
  -18.5807  -26.2270   22.6604 C   0  0  0  0  0  0  0  0  0  0  0  0
  -24.0025  -29.2543   20.8270 C   0  0  0  0  0  0  0  0  0  0  0  0
  -30.7237  -25.7393   18.3536 C   0  0  0  0  0  0  0  0  0  0  0  0
  -29.4466  -24.7472   19.9854 C   0  0  0  0  0  0  0  0  0  0  0  0
  -25.2786  -30.9965   21.2411 C   0  0  0  0  0  0  0  0  0  0  0  0
  -23.5294  -30.5823   22.9782 C   0  0  0  0  0  0  0  0  0  0  0  0
  -25.0021  -16.2477   20.2100 C   0  0  0  0  0  0  0  0  0  0  0  0
  -22.4833  -18.0091   21.2469 C   0  0  0  0  0  0  0  0  0  0  0  0
  -21.3059  -21.0243   22.3284 C   0  0  0  0  0  0  0  0  0  0  0  0
  -29.7487  -29.5299   17.5374 C   0  0  0  0  0  0  0  0  0  0  0  0
  -26.1470  -11.2991   19.7016 C   0  0  0  0  0  0  0  0  0  0  0  0
  -25.9303  -17.2562   22.3259 C   0  0  0  0  0  0  0  0  0  0  0  0
  -24.5783  -19.2802   20.6465 C   0  0  0  0  0  0  0  0  0  0  0  0
  -24.8637  -12.1253   19.7322 C   0  0  0  0  0  0  0  0  0  0  0  0
  -27.3556  -32.1264   17.0818 C   0  0  0  0  0  0  0  0  0  0  0  0
  -24.9757  -13.3205   18.7911 C   0  0  0  0  0  0  0  0  0  0  0  0
  -26.2446  -31.7780   18.0739 C   0  0  0  0  0  0  0  0  0  0  0  0
  -27.9692  -30.8743   16.4592 C   0  0  0  0  0  0  0  0  0  0  0  0
  -27.3372  -29.5232   18.4210 C   0  0  0  0  0  0  0  0  0  0  0  0
  -26.1140  -14.2547   19.2188 C   0  0  1  0  0  0  0  0  0  0  0  0
  -24.6827  -16.9224   21.5140 C   0  0  1  0  0  0  0  0  0  0  0  0
  -26.7257  -30.7513   19.1168 C   0  0  2  0  0  0  0  0  0  0  0  0
  -19.1959  -22.1660   23.0645 C   0  0  0  0  0  0  0  0  0  0  0  0
  -26.9440  -26.2436   20.9361 C   0  0  0  0  0  0  0  0  0  0  0  0
  -27.8048  -26.0012   23.2736 C   0  0  0  0  0  0  0  0  0  0  0  0
  -21.5577  -18.1652   18.3437 C   0  0  0  0  0  0  0  0  0  0  0  0
  -20.0469  -20.0507   18.9996 C   0  0  0  0  0  0  0  0  0  0  0  0
  -19.7255  -17.7901   20.0040 C   0  0  0  0  0  0  0  0  0  0  0  0
  -22.4192  -21.6083   25.0077 C   0  0  0  0  0  0  0  0  0  0  0  0
  -28.0884  -22.6599   19.5609 C   0  0  0  0  0  0  0  0  0  1  0  0
  -31.6512  -26.8394   17.9580 C   0  0  0  0  0  0  0  0  0  0  0  0
  -28.9715  -24.7698   21.4012 C   0  0  0  0  0  0  0  0  0  0  0  0
  -31.4233  -28.1423   18.7331 C   0  0  0  0  0  0  0  0  0  0  0  0
  -21.7100  -19.1888   20.7090 C   0  0  1  0  0  0  0  0  0  0  0  0
  -20.4306  -21.3985   23.5109 C   0  0  2  0  0  0  0  0  0  0  0  0
  -28.1965  -26.0504   21.7947 C   0  0  0  0  0  0  0  0  0  0  0  0
  -20.7880  -18.8002   19.5189 C   0  0  0  0  0  0  0  0  0  0  0  0
  -24.8531  -29.2982   19.7981 N   0  0  0  0  0  0  0  0  0  0  0  0
  -30.2877  -25.7453   19.6332 N   0  0  0  0  0  0  0  0  0  0  0  0
  -25.6161  -30.3684   20.0785 N   0  0  0  0  0  0  0  0  0  0  0  0
  -23.8811  -18.1062   21.1971 N   0  0  0  0  0  0  0  0  0  0  0  0
  -28.4065  -29.9425   17.5015 N   0  0  0  0  0  0  0  0  0  0  0  0
  -25.9435  -32.0891   21.6730 N   0  0  0  0  0  0  0  0  0  0  0  0
  -22.4660  -29.7531   23.3602 N   0  0  0  0  0  0  0  0  0  0  0  0
  -25.7057  -15.0661   20.3455 N   0  0  0  0  0  0  0  0  0  0  0  0
  -21.0045  -19.7677   21.8473 N   0  0  0  0  0  0  0  0  0  0  0  0
  -30.0807  -28.6510   18.5612 N   0  0  0  0  0  0  0  0  0  0  0  0
  -21.1913  -22.2486   24.4699 N   0  3  0  0  0  0  0  0  0  0  0  0
  -23.8347  -31.5613   23.7006 O   0  0  0  0  0  0  0  0  0  0  0  0
  -24.6359  -16.7603   19.1588 O   0  0  0  0  0  0  0  0  0  0  0  0
  -21.8697  -17.0403   21.7014 O   0  0  0  0  0  0  0  0  0  0  0  0
  -22.1681  -21.7733   21.8744 O   0  0  0  0  0  0  0  0  0  0  0  0
  -30.5901  -29.9203   16.7210 O   0  0  0  0  0  0  0  0  0  0  0  0
  -20.1146  -25.2439   21.0858 O   0  0  0  0  0  0  0  0  0  0  0  0
  -28.8067  -21.7255   20.3654 O   0  0  0  0  0  0  0  0  0  1  0  0
  -14.9838  -26.7323   22.4510 F   0  0  0  0  0  0  0  0  0  0  0  0
  -19.5879  -26.4550   23.5144 F   0  0  0  0  0  0  0  0  0  0  0  0
  1  2  1  0  0  0  0
  1  5  2  0  0  0  0
  2  6  2  0  0  0  0
  3  9  2  0  0  0  0
  3 17  1  0  0  0  0
  4 10  1  0  0  0  0
  4 17  2  0  0  0  0
  5 19  1  0  0  0  0
  6 21  1  0  0  0  0
  7 11  2  0  0  0  0
  7 20  1  0  0  0  0
  8 14  2  0  0  0  0
  8 23  1  0  0  0  0
  9 24  1  0  0  0  0
 10 24  2  0  0  0  0
 11 25  1  0  0  0  0
 12 13  2  0  0  0  0
 12 26  1  0  0  0  0
 13 27  1  0  0  0  0
 14 30  1  0  0  0  0
 15 22  1  0  0  0  0
 15 25  2  0  0  0  0
 16 27  2  0  0  0  0
 16 28  1  0  0  0  0
 17 29  1  0  0  0  0
 18 29  1  0  0  0  0
 18 32  2  0  0  0  0
 18 33  1  0  0  0  0
 19 21  2  0  0  0  0
 19 38  1  0  0  0  0
 20 22  2  0  0  0  0
 20 39  1  0  0  0  0
 21 47  1  0  0  0  0
 22 40  1  0  0  0  0
 23 31  2  0  0  0  0
 23 57  1  0  0  0  0
 24 81  1  0  0  0  0
 25 82  1  0  0  0  0
 26 28  2  0  0  0  0
 26 81  1  0  0  0  0
 27 83  1  0  0  0  0
 28 84  1  0  0  0  0
 29 65  2  0  0  0  0
 30 58  1  0  0  0  0
 30 66  2  0  0  0  0
 31 59  1  0  0  0  0
 31 66  1  0  0  0  0
 32 67  1  0  0  0  0
 32 70  1  0  0  0  0
 33 71  1  0  0  0  0
 33 76  2  0  0  0  0
 34 48  1  0  0  0  0
 34 72  1  0  0  0  0
 34 77  2  0  0  0  0
 35 61  1  0  0  0  0
 35 68  1  0  0  0  0
 35 78  2  0  0  0  0
 36 62  1  0  0  0  0
 36 73  1  0  0  0  0
 36 79  2  0  0  0  0
 37 69  1  0  0  0  0
 37 74  1  0  0  0  0
 37 80  2  0  0  0  0
 38 41  1  0  0  0  0
 39 48  1  0  0  0  0
 40 68  1  0  0  0  0
 41 43  1  0  0  0  0
 42 44  1  0  0  0  0
 42 45  1  0  0  0  0
 43 47  1  0  0  0  0
 44 49  1  0  0  0  0
 45 69  1  0  0  0  0
 46 49  1  0  0  0  0
 46 69  1  0  0  0  0
 47 72  1  0  0  0  0
 48 68  1  0  0  0  0
 49 67  1  0  0  0  0
 50 62  1  0  0  0  0
 51 63  1  0  0  0  0
 52 63  1  0  0  0  0
 53 64  1  0  0  0  0
 54 64  1  0  0  0  0
 55 64  1  0  0  0  0
 56 75  1  0  0  0  0
 57 82  1  0  0  0  0
 58 60  1  0  0  0  0
 59 63  1  0  0  0  0
 60 74  1  0  0  0  0
 61 64  1  0  0  0  0
 61 73  1  0  0  0  0
 62 75  1  0  0  0  0
 65 67  1  0  0  0  0
M  CHG  1  75   1
M  ISO  4  37 100  57 101  74 100  82 101
M  END
> <Batch ID>
0096

> <Smiles>
CNC(C)C(=O)NC(C(=O)N1Cc2cc([101O:1][101CH2:1]c3ccc(CC[100NH:0][100C:0](=O)N4CCCC(n5nc(-c6ccc(Oc7ccc(F)cc7F)cc6)c(C(N)=O)c5N)C4)nc3CC(C)C)ccc2CC1C(=O)NC1CCCc2ccccc21)C(C)(C)C

> <Shape>
0.226

> <Color>
0.082

> <Negative vol penalty>
0.000

$$$$

  -OEChem-04052319243D

 87 95  0     1  0  0  0  0  0999 V2000
  -22.9613  -16.6654   22.5129 C   0  0  0  0  0  0  0  0  0  0  0  0
  -23.1184  -17.7428   23.3788 C   0  0  0  0  0  0  0  0  0  0  0  0
  -26.0171  -14.3121   21.4547 C   0  0  0  0  0  0  0  0  0  0  0  0
  -25.5258  -15.0486   19.2067 C   0  0  0  0  0  0  0  0  0  0  0  0
  -22.9490  -16.8762   21.1347 C   0  0  0  0  0  0  0  0  0  0  0  0
  -23.2645  -19.0317   22.8669 C   0  0  0  0  0  0  0  0  0  0  0  0
  -21.6893  -25.8531   24.3847 C   0  0  0  0  0  0  0  0  0  0  0  0
  -24.9384  -13.4295   21.4013 C   0  0  0  0  0  0  0  0  0  0  0  0
  -24.4471  -14.1660   19.1533 C   0  0  0  0  0  0  0  0  0  0  0  0
  -22.3004  -27.1016   24.4910 C   0  0  0  0  0  0  0  0  0  0  0  0
  -22.5330  -10.7230   21.7241 C   0  0  0  0  0  0  0  0  0  0  0  0
  -22.7330   -9.4253   22.1949 C   0  0  0  0  0  0  0  0  0  0  0  0
  -22.1845  -27.3557   22.0949 C   0  0  0  0  0  0  0  0  0  0  0  0
  -24.4670   -9.0940   20.5454 C   0  0  0  0  0  0  0  0  0  0  0  0
  -28.1576  -26.8637   20.8268 C   0  0  0  0  0  0  0  0  0  0  0  0
  -29.9446  -28.1521   21.2285 C   0  0  0  0  0  0  0  0  0  0  0  0
  -26.3108  -15.1218   20.3574 C   0  0  0  0  0  0  0  0  0  0  0  0
  -28.7560  -15.7740   20.0357 C   0  0  0  0  0  0  0  0  0  0  0  0
  -23.0853  -18.1694   20.6060 C   0  0  0  0  0  0  0  0  0  0  0  0
  -21.3304  -25.3408   23.1296 C   0  0  0  0  0  0  0  0  0  0  0  0
  -23.2554  -19.2598   21.4804 C   0  0  0  0  0  0  0  0  0  0  0  0
  -21.5665  -26.1015   21.9756 C   0  0  0  0  0  0  0  0  0  0  0  0
  -29.2521  -26.2310   20.2800 C   0  0  0  0  0  0  0  0  0  0  0  0
  -30.3826  -27.0461   20.5340 C   0  0  0  0  0  0  0  0  0  0  0  0
  -24.1534  -13.3564   20.2506 C   0  0  0  0  0  0  0  0  0  0  0  0
  -22.5508  -27.8519   23.3457 C   0  0  0  0  0  0  0  0  0  0  0  0
  -23.3000  -11.2062   20.6638 C   0  0  0  0  0  0  0  0  0  0  0  0
  -23.6999   -8.6109   21.6056 C   0  0  0  0  0  0  0  0  0  0  0  0
  -24.2670  -10.3917   20.0746 C   0  0  0  0  0  0  0  0  0  0  0  0
  -27.4247  -16.0342   20.4122 C   0  0  0  0  0  0  0  0  0  0  0  0
  -29.4176  -16.9532   20.2766 C   0  0  0  0  0  0  0  0  0  0  0  0
  -29.3421  -14.5737   19.5148 C   0  0  0  0  0  0  0  0  0  0  0  0
  -22.1629  -22.7892   21.4267 C   0  0  0  0  0  0  0  0  0  0  0  0
  -19.8168  -23.8309   19.4435 C   0  0  0  0  0  0  0  0  0  0  0  0
  -17.9159  -26.4331   18.3204 C   0  0  0  0  0  0  0  0  0  0  0  0
  -28.5729  -22.5687   19.8701 C   0  0  0  0  0  0  0  0  0  0  0  0
  -23.1134  -18.3420   19.1079 C   0  0  0  0  0  0  0  0  0  0  0  0
  -20.6476  -24.0040   23.0342 C   0  0  0  0  0  0  0  0  0  0  0  0
  -21.1821  -25.6055   20.6064 C   0  0  0  0  0  0  0  0  0  0  0  0
  -22.8985  -19.7844   18.6569 C   0  0  0  0  0  0  0  0  0  0  0  0
  -28.5505  -20.9238   23.0937 C   0  0  0  0  0  0  0  0  0  0  0  0
  -23.7642  -20.7350   19.4777 C   0  0  0  0  0  0  0  0  0  0  0  0
  -28.3866  -19.4585   22.6863 C   0  0  0  0  0  0  0  0  0  0  0  0
  -27.7378  -21.8438   22.1874 C   0  0  0  0  0  0  0  0  0  0  0  0
  -27.8735  -20.2350   20.3254 C   0  0  0  0  0  0  0  0  0  0  0  0
  -23.3919  -20.6758   20.9641 C   0  0  1  0  0  0  0  0  0  0  0  0
  -20.7913  -23.3563   21.6604 C   0  0  1  0  0  0  0  0  0  0  0  0
  -28.6886  -19.2558   21.1897 C   0  0  2  0  0  0  0  0  0  0  0  0
  -16.1091  -26.9835   16.6681 C   0  0  0  0  0  0  0  0  0  0  0  0
  -25.2617  -31.7384   20.7472 C   0  0  0  0  0  0  0  0  0  0  0  0
  -32.7482  -27.9099   20.5956 C   0  0  0  0  0  0  0  0  0  0  0  0
  -31.9217  -26.6498   18.5793 C   0  0  0  0  0  0  0  0  0  0  0  0
  -32.4070  -25.4494   20.7017 C   0  0  0  0  0  0  0  0  0  0  0  0
  -21.8621  -23.7414   17.1810 C   0  0  0  0  0  0  0  0  0  0  0  0
  -20.3166  -25.1664   15.8212 C   0  0  0  0  0  0  0  0  0  0  0  0
  -19.5887  -22.8997   16.5662 C   0  0  0  0  0  0  0  0  0  0  0  0
  -16.0581  -27.2861   20.4604 C   0  0  0  0  0  0  0  0  0  0  0  0
  -29.2375  -24.9397   19.5642 C   0  0  0  0  0  0  0  0  0  0  0  0
  -26.9217  -29.8902   21.1267 C   0  0  0  0  0  0  0  0  0  0  0  0
  -25.0748  -30.3773   22.8773 C   0  0  0  0  0  0  0  0  0  0  0  0
  -27.7117  -29.0266   22.1153 C   0  0  0  0  0  0  0  0  0  0  0  0
  -23.9523  -29.4928   22.3462 C   0  0  0  0  0  0  0  0  0  1  0  0
  -19.7538  -24.7679   18.2616 C   0  0  1  0  0  0  0  0  0  0  0  0
  -16.4202  -26.5650   18.0966 C   0  0  2  0  0  0  0  0  0  0  0  0
  -26.0294  -30.9450   21.8102 C   0  0  2  0  0  0  0  0  0  0  0  0
  -31.7768  -26.7720   20.1336 C   0  0  0  0  0  0  0  0  0  0  0  0
  -20.3894  -24.1527   16.9830 C   0  0  0  0  0  0  0  0  0  0  0  0
  -27.2492  -17.2808   20.8584 N   0  0  0  0  0  0  0  0  0  0  0  0
  -28.5905  -28.0304   21.4010 N   0  0  0  0  0  0  0  0  0  0  0  0
  -28.4790  -17.8144   20.7640 N   0  0  0  0  0  0  0  0  0  0  0  0
  -20.5228  -24.2898   20.5646 N   0  0  0  0  0  0  0  0  0  0  0  0
  -28.0862  -21.6138   20.7782 N   0  0  0  0  0  0  0  0  0  0  0  0
  -30.7049  -17.3271   20.1170 N   0  0  0  0  0  0  0  0  0  0  0  0
  -28.5192  -13.4545   19.3288 N   0  0  0  0  0  0  0  0  0  0  0  0
  -22.1782  -21.4243   21.2114 N   0  0  0  0  0  0  0  0  0  0  0  0
  -18.3517  -25.1417   18.1113 N   0  0  0  0  0  0  0  0  0  0  0  0
  -28.7395  -23.8519   20.3764 N   0  0  0  0  0  0  0  0  0  0  0  0
  -15.8461  -27.5837   19.0205 N   0  3  0  0  0  0  0  0  0  0  0  0
  -30.5629  -14.4908   19.2384 O   0  0  0  0  0  0  0  0  0  0  0  0
  -23.1352  -23.5349   21.4393 O   0  0  0  0  0  0  0  0  0  0  0  0
  -19.2542  -22.7351   19.3772 O   0  0  0  0  0  0  0  0  0  0  0  0
  -18.6271  -27.3817   18.6443 O   0  0  0  0  0  0  0  0  0  0  0  0
  -28.8442  -22.2966   18.6956 O   0  0  0  0  0  0  0  0  0  0  0  0
  -23.1008  -12.4950   20.1981 O   0  0  0  0  0  0  0  0  0  0  0  0
  -23.1478  -29.0706   23.4466 O   0  0  0  0  0  0  0  0  0  1  0  0
  -23.8929   -7.3653   22.0589 F   0  0  0  0  0  0  0  0  0  0  0  0
  -25.0077  -10.8508   19.0565 F   0  0  0  0  0  0  0  0  0  0  0  0
  1  2  1  0  0  0  0
  1  5  2  0  0  0  0
  2  6  2  0  0  0  0
  3  8  2  0  0  0  0
  3 17  1  0  0  0  0
  4  9  1  0  0  0  0
  4 17  2  0  0  0  0
  5 19  1  0  0  0  0
  6 21  1  0  0  0  0
  7 10  2  0  0  0  0
  7 20  1  0  0  0  0
  8 25  1  0  0  0  0
  9 25  2  0  0  0  0
 10 26  1  0  0  0  0
 11 12  2  0  0  0  0
 11 27  1  0  0  0  0
 12 28  1  0  0  0  0
 13 22  1  0  0  0  0
 13 26  2  0  0  0  0
 14 28  2  0  0  0  0
 14 29  1  0  0  0  0
 15 23  2  0  0  0  0
 15 69  1  0  0  0  0
 16 24  2  0  0  0  0
 16 69  1  0  0  0  0
 17 30  1  0  0  0  0
 18 30  1  0  0  0  0
 18 31  2  0  0  0  0
 18 32  1  0  0  0  0
 19 21  2  0  0  0  0
 19 37  1  0  0  0  0
 20 22  2  0  0  0  0
 20 38  1  0  0  0  0
 21 46  1  0  0  0  0
 22 39  1  0  0  0  0
 23 24  1  0  0  0  0
 23 58  1  0  0  0  0
 24 66  1  0  0  0  0
 25 84  1  0  0  0  0
 26 85  1  0  0  0  0
 27 29  2  0  0  0  0
 27 84  1  0  0  0  0
 28 86  1  0  0  0  0
 29 87  1  0  0  0  0
 30 68  2  0  0  0  0
 31 70  1  0  0  0  0
 31 73  1  0  0  0  0
 32 74  1  0  0  0  0
 32 79  2  0  0  0  0
 33 47  1  0  0  0  0
 33 75  1  0  0  0  0
 33 80  2  0  0  0  0
 34 63  1  0  0  0  0
 34 71  1  0  0  0  0
 34 81  2  0  0  0  0
 35 64  1  0  0  0  0
 35 76  1  0  0  0  0
 35 82  2  0  0  0  0
 36 72  1  0  0  0  0
 36 77  1  0  0  0  0
 36 83  2  0  0  0  0
 37 40  1  0  0  0  0
 38 47  1  0  0  0  0
 39 71  1  0  0  0  0
 40 42  1  0  0  0  0
 41 43  1  0  0  0  0
 41 44  1  0  0  0  0
 42 46  1  0  0  0  0
 43 48  1  0  0  0  0
 44 72  1  0  0  0  0
 45 48  1  0  0  0  0
 45 72  1  0  0  0  0
 46 75  1  0  0  0  0
 47 71  1  0  0  0  0
 48 70  1  0  0  0  0
 49 64  1  0  0  0  0
 50 65  1  0  0  0  0
 51 66  1  0  0  0  0
 52 66  1  0  0  0  0
 53 66  1  0  0  0  0
 54 67  1  0  0  0  0
 55 67  1  0  0  0  0
 56 67  1  0  0  0  0
 57 78  1  0  0  0  0
 58 77  1  0  0  0  0
 59 61  1  0  0  0  0
 59 65  1  0  0  0  0
 60 62  1  0  0  0  0
 60 65  1  0  0  0  0
 61 69  1  0  0  0  0
 62 85  1  0  0  0  0
 63 67  1  0  0  0  0
 63 76  1  0  0  0  0
 64 78  1  0  0  0  0
 68 70  1  0  0  0  0
M  CHG  1  78   1
M  ISO  4  36 100  62 101  77 100  85 101
M  END
> <Batch ID>
0096

> <Smiles>
CNC(C)C(=O)NC(C(=O)N1Cc2cc([101O:1][101CH2:1]CC(C)CCn3cc(C[100NH:0][100C:0](=O)N4CCCC(n5nc(-c6ccc(Oc7ccc(F)cc7F)cc6)c(C(N)=O)c5N)C4)c(C(C)(C)C)c3)ccc2CC1C(=O)NC1CCCc2ccccc21)C(C)(C)C

> <Shape>
0.223

> <Color>
0.055

> <Negative vol penalty>
0.000

$$$$

  -OEChem-04052319243D

 88 96  0     1  0  0  0  0  0999 V2000
  -17.3136  -14.1846   17.4763 C   0  0  0  0  0  0  0  0  0  0  0  0
  -17.6041  -15.5378   17.6178 C   0  0  0  0  0  0  0  0  0  0  0  0
  -28.3145  -26.0600   18.2782 C   0  0  0  0  0  0  0  0  0  0  0  0
  -26.2450  -24.8541   18.5941 C   0  0  0  0  0  0  0  0  0  0  0  0
  -17.9187  -13.2513   18.3169 C   0  0  0  0  0  0  0  0  0  0  0  0
  -18.4992  -15.9585   18.6007 C   0  0  0  0  0  0  0  0  0  0  0  0
  -22.4385  -20.6334   18.2353 C   0  0  0  0  0  0  0  0  0  0  0  0
  -29.0244  -24.8617   18.3540 C   0  0  0  0  0  0  0  0  0  0  0  0
  -26.9548  -23.6557   18.6698 C   0  0  0  0  0  0  0  0  0  0  0  0
  -22.3813  -21.9466   18.6998 C   0  0  0  0  0  0  0  0  0  0  0  0
  -30.1001  -22.7527   20.7662 C   0  0  0  0  0  0  0  0  0  0  0  0
  -31.2518  -22.7311   21.5528 C   0  0  0  0  0  0  0  0  0  0  0  0
  -23.6156  -21.2977   20.6682 C   0  0  0  0  0  0  0  0  0  0  0  0
  -18.4527  -28.3870   22.7644 C   0  0  0  0  0  0  0  0  0  0  0  0
  -32.5654  -22.1393   19.6134 C   0  0  0  0  0  0  0  0  0  0  0  0
  -26.9248  -26.0562   18.3983 C   0  0  0  0  0  0  0  0  0  0  0  0
  -25.6624  -27.8976   17.1641 C   0  0  0  0  0  0  0  0  0  0  0  0
  -18.8291  -13.6598   19.3043 C   0  0  0  0  0  0  0  0  0  0  0  0
  -23.0763  -19.6385   18.9901 C   0  0  0  0  0  0  0  0  0  0  0  0
  -19.1161  -15.0299   19.4562 C   0  0  0  0  0  0  0  0  0  0  0  0
  -23.6817  -19.9731   20.2098 C   0  0  0  0  0  0  0  0  0  0  0  0
  -17.7580  -27.2685   22.3178 C   0  0  0  0  0  0  0  0  0  0  0  0
  -18.4570  -26.1257   21.9454 C   0  0  0  0  0  0  0  0  0  0  0  0
  -28.3445  -23.6596   18.5497 C   0  0  0  0  0  0  0  0  0  0  0  0
  -22.9674  -22.2784   19.9178 C   0  0  0  0  0  0  0  0  0  0  0  0
  -30.1810  -22.4675   19.4032 C   0  0  0  0  0  0  0  0  0  0  0  0
  -32.4844  -22.4245   20.9764 C   0  0  0  0  0  0  0  0  0  0  0  0
  -31.4137  -22.1608   18.8268 C   0  0  0  0  0  0  0  0  0  0  0  0
  -26.1910  -27.2938   18.3208 C   0  0  0  0  0  0  0  0  0  0  0  0
  -19.8352  -28.3125   22.8195 C   0  0  0  0  0  0  0  0  0  0  0  0
  -19.8393  -26.1525   22.0370 C   0  0  0  0  0  0  0  0  0  0  0  0
  -25.0620  -29.0457   17.6200 C   0  0  0  0  0  0  0  0  0  0  0  0
  -25.7098  -27.4598   15.7997 C   0  0  0  0  0  0  0  0  0  0  0  0
  -22.1478  -16.9320   20.3746 C   0  0  0  0  0  0  0  0  0  0  0  0
  -25.3206  -16.6002   20.9624 C   0  0  0  0  0  0  0  0  0  0  0  0
  -28.3649  -18.0906   21.3598 C   0  0  0  0  0  0  0  0  0  0  0  0
  -22.7906  -30.6277   22.9293 C   0  0  0  0  0  0  0  0  0  0  0  0
  -19.4221  -12.6188   20.2204 C   0  0  0  0  0  0  0  0  0  0  0  0
  -23.1525  -18.2320   18.4624 C   0  0  0  0  0  0  0  0  0  0  0  0
  -24.3962  -18.9462   21.0485 C   0  0  0  0  0  0  0  0  0  0  0  0
  -20.6447  -13.1107   20.9907 C   0  0  0  0  0  0  0  0  0  0  0  0
  -25.3647  -32.2939   21.1198 C   0  0  0  0  0  0  0  0  0  0  0  0
  -20.3791  -14.4877   21.5908 C   0  0  0  0  0  0  0  0  0  0  0  0
  -25.8207  -31.2559   20.0928 C   0  0  0  0  0  0  0  0  0  0  0  0
  -24.9982  -31.6457   22.4530 C   0  0  0  0  0  0  0  0  0  0  0  0
  -24.4674  -29.5154   21.3331 C   0  0  0  0  0  0  0  0  0  0  0  0
  -20.1006  -15.5229   20.4943 C   0  0  1  0  0  0  0  0  0  0  0  0
  -23.3810  -17.1946   19.5574 C   0  0  1  0  0  0  0  0  0  0  0  0
  -24.7944  -30.1153   19.9548 C   0  0  2  0  0  0  0  0  0  0  0  0
  -15.7650  -28.3908   21.2585 C   0  0  0  0  0  0  0  0  0  0  0  0
  -15.6196  -27.5358   23.6255 C   0  0  0  0  0  0  0  0  0  0  0  0
  -30.8481  -18.2657   21.6763 C   0  0  0  0  0  0  0  0  0  0  0  0
  -24.6077  -16.2124   23.9037 C   0  0  0  0  0  0  0  0  0  0  0  0
  -27.0083  -16.6420   24.4702 C   0  0  0  0  0  0  0  0  0  0  0  0
  -26.3943  -14.6832   23.0529 C   0  0  0  0  0  0  0  0  0  0  0  0
  -28.8607  -17.9871   18.4439 C   0  0  0  0  0  0  0  0  0  0  0  0
  -17.7383  -24.9100   21.4649 C   0  0  0  0  0  0  0  0  0  0  0  0
  -20.6525  -24.9434   21.6490 C   0  0  0  0  0  0  0  0  0  0  0  0
  -20.6137  -29.4935   23.2951 C   0  0  0  0  0  0  0  0  0  0  0  0
  -17.1370  -24.0404   22.5860 C   0  0  0  0  0  0  0  0  0  0  0  0
  -22.1101  -25.0077   22.1103 C   0  0  0  0  0  0  0  0  0  0  0  0
  -16.4384  -22.7681   22.1163 C   0  0  0  0  0  0  0  0  0  0  0  0
  -22.9013  -23.7451   21.7887 C   0  0  0  0  0  0  0  0  0  1  0  0
  -16.2676  -27.3209   22.2453 C   0  0  0  0  0  0  0  0  0  0  0  0
  -26.2498  -17.0117   22.0788 C   0  0  1  0  0  0  0  0  0  0  0  0
  -29.7284  -17.7677   20.7758 C   0  0  2  0  0  0  0  0  0  0  0  0
  -26.0499  -16.1565   23.3618 C   0  0  0  0  0  0  0  0  0  0  0  0
  -25.9479  -28.0000   19.4281 N   0  0  0  0  0  0  0  0  0  0  0  0
  -20.5489  -27.2202   22.4661 N   0  0  0  0  0  0  0  0  0  0  0  0
  -25.2600  -29.0595   18.9693 N   0  0  0  0  0  0  0  0  0  0  0  0
  -24.4383  -17.5835   20.4928 N   0  0  0  0  0  0  0  0  0  0  0  0
  -24.0203  -30.5735   22.2525 N   0  0  0  0  0  0  0  0  0  0  0  0
  -24.3893  -30.0348   16.9942 N   0  0  0  0  0  0  0  0  0  0  0  0
  -26.3668  -26.2570   15.5064 N   0  0  0  0  0  0  0  0  0  0  0  0
  -21.3361  -15.9368   19.8645 N   0  0  0  0  0  0  0  0  0  0  0  0
  -27.5995  -16.9560   21.5278 N   0  0  0  0  0  0  0  0  0  0  0  0
  -21.9189  -29.5752   22.6781 N   0  0  0  0  0  0  0  0  0  0  0  0
  -15.3479  -23.0893   21.1664 N   0  3  0  0  0  0  0  0  0  0  0  0
  -29.8828  -18.4052   19.4376 N   0  3  0  0  0  0  0  0  0  0  0  0
  -25.1994  -28.1240   14.8660 O   0  0  0  0  0  0  0  0  0  0  0  0
  -21.9482  -17.5831   21.3934 O   0  0  0  0  0  0  0  0  0  0  0  0
  -25.3804  -15.4509   20.5185 O   0  0  0  0  0  0  0  0  0  0  0  0
  -28.0152  -19.2345   21.6424 O   0  0  0  0  0  0  0  0  0  0  0  0
  -22.4897  -31.5486   23.6963 O   0  0  0  0  0  0  0  0  0  0  0  0
  -29.0369  -22.4900   18.6235 O   0  0  0  0  0  0  0  0  0  0  0  0
  -22.9125  -23.5594   20.3739 O   0  0  0  0  0  0  0  0  0  1  0  0
  -33.5905  -22.4053   21.7316 F   0  0  0  0  0  0  0  0  0  0  0  0
  -31.4978  -21.8871   17.5177 F   0  0  0  0  0  0  0  0  0  0  0  0
  1  2  1  0  0  0  0
  1  5  2  0  0  0  0
  2  6  2  0  0  0  0
  3  8  2  0  0  0  0
  3 16  1  0  0  0  0
  4  9  1  0  0  0  0
  4 16  2  0  0  0  0
  5 18  1  0  0  0  0
  6 20  1  0  0  0  0
  7 10  2  0  0  0  0
  7 19  1  0  0  0  0
  8 24  1  0  0  0  0
  9 24  2  0  0  0  0
 10 25  1  0  0  0  0
 11 12  2  0  0  0  0
 11 26  1  0  0  0  0
 12 27  1  0  0  0  0
 13 21  1  0  0  0  0
 13 25  2  0  0  0  0
 14 22  2  0  0  0  0
 14 30  1  0  0  0  0
 15 27  2  0  0  0  0
 15 28  1  0  0  0  0
 16 29  1  0  0  0  0
 17 29  1  0  0  0  0
 17 32  2  0  0  0  0
 17 33  1  0  0  0  0
 18 20  2  0  0  0  0
 18 38  1  0  0  0  0
 19 21  2  0  0  0  0
 19 39  1  0  0  0  0
 20 47  1  0  0  0  0
 21 40  1  0  0  0  0
 22 23  1  0  0  0  0
 22 64  1  0  0  0  0
 23 31  2  0  0  0  0
 23 57  1  0  0  0  0
 24 85  1  0  0  0  0
 25 86  1  0  0  0  0
 26 28  2  0  0  0  0
 26 85  1  0  0  0  0
 27 87  1  0  0  0  0
 28 88  1  0  0  0  0
 29 68  2  0  0  0  0
 30 59  1  0  0  0  0
 30 69  2  0  0  0  0
 31 58  1  0  0  0  0
 31 69  1  0  0  0  0
 32 70  1  0  0  0  0
 32 73  1  0  0  0  0
 33 74  1  0  0  0  0
 33 80  2  0  0  0  0
 34 48  1  0  0  0  0
 34 75  1  0  0  0  0
 34 81  2  0  0  0  0
 35 65  1  0  0  0  0
 35 71  1  0  0  0  0
 35 82  2  0  0  0  0
 36 66  1  0  0  0  0
 36 76  1  0  0  0  0
 36 83  2  0  0  0  0
 37 72  1  0  0  0  0
 37 77  1  0  0  0  0
 37 84  2  0  0  0  0
 38 41  1  0  0  0  0
 39 48  1  0  0  0  0
 40 71  1  0  0  0  0
 41 43  1  0  0  0  0
 42 44  1  0  0  0  0
 42 45  1  0  0  0  0
 43 47  1  0  0  0  0
 44 49  1  0  0  0  0
 45 72  1  0  0  0  0
 46 49  1  0  0  0  0
 46 72  1  0  0  0  0
 47 75  1  0  0  0  0
 48 71  1  0  0  0  0
 49 70  1  0  0  0  0
 50 64  1  0  0  0  0
 51 64  1  0  0  0  0
 52 66  1  0  0  0  0
 53 67  1  0  0  0  0
 54 67  1  0  0  0  0
 55 67  1  0  0  0  0
 56 79  1  0  0  0  0
 57 60  1  0  0  0  0
 58 61  1  0  0  0  0
 59 77  1  0  0  0  0
 60 62  1  0  0  0  0
 61 63  1  0  0  0  0
 62 78  1  0  0  0  0
 63 86  1  0  0  0  0
 65 67  1  0  0  0  0
 65 76  1  0  0  0  0
 66 79  1  0  0  0  0
 68 70  1  0  0  0  0
M  CHG  2  78   1  79   1
M  ISO  4  37 100  63 101  77 100  86 101
M  END
> <Batch ID>
0096

> <Smiles>
CNC(C)C(=O)NC(C(=O)N1Cc2cc([101O:1][101CH2:1]CCc3nc(C[100NH:0][100C:0](=O)N4CCCC(n5nc(-c6ccc(Oc7ccc(F)cc7F)cc6)c(C(N)=O)c5N)C4)cc(C(C)C)c3CCCN)ccc2CC1C(=O)NC1CCCc2ccccc21)C(C)(C)C

> <Shape>
0.188

> <Color>
0.072

> <Negative vol penalty>
0.000

$$$$

  -OEChem-04052319243D

 89 97  0     1  0  0  0  0  0999 V2000
  -21.9225  -22.7650   28.5923 C   0  0  0  0  0  0  0  0  0  0  0  0
  -22.2369  -23.7998   27.7172 C   0  0  0  0  0  0  0  0  0  0  0  0
  -26.5783  -13.5606   21.6980 C   0  0  0  0  0  0  0  0  0  0  0  0
  -25.6703  -14.2142   19.5567 C   0  0  0  0  0  0  0  0  0  0  0  0
  -21.9287  -21.4458   28.1410 C   0  0  0  0  0  0  0  0  0  0  0  0
  -22.5588  -23.5158   26.3905 C   0  0  0  0  0  0  0  0  0  0  0  0
  -20.2585  -26.6282   23.1244 C   0  0  0  0  0  0  0  0  0  0  0  0
  -25.6999  -12.4779   21.7400 C   0  0  0  0  0  0  0  0  0  0  0  0
  -24.7919  -13.1315   19.5986 C   0  0  0  0  0  0  0  0  0  0  0  0
  -20.7976  -27.9052   22.9744 C   0  0  0  0  0  0  0  0  0  0  0  0
  -22.4401  -11.9419   22.4548 C   0  0  0  0  0  0  0  0  0  0  0  0
  -21.7661  -11.7012   23.6520 C   0  0  0  0  0  0  0  0  0  0  0  0
  -21.9004  -27.1951   20.9498 C   0  0  0  0  0  0  0  0  0  0  0  0
  -26.4576  -29.4835   20.7507 C   0  0  0  0  0  0  0  0  0  0  0  0
  -26.6931  -28.8440   23.0685 C   0  0  0  0  0  0  0  0  0  0  0  0
  -22.7730   -9.5087   23.7781 C   0  0  0  0  0  0  0  0  0  0  0  0
  -26.5635  -14.4288   20.6064 C   0  0  0  0  0  0  0  0  0  0  0  0
  -28.7684  -15.5692   20.0186 C   0  0  0  0  0  0  0  0  0  0  0  0
  -22.2415  -21.1463   26.8056 C   0  0  0  0  0  0  0  0  0  0  0  0
  -20.5456  -25.6204   22.1926 C   0  0  0  0  0  0  0  0  0  0  0  0
  -22.5705  -22.1913   25.9212 C   0  0  0  0  0  0  0  0  0  0  0  0
  -21.3617  -25.9069   21.0889 C   0  0  0  0  0  0  0  0  0  0  0  0
  -27.1460  -28.7958   21.7500 C   0  0  0  0  0  0  0  0  0  0  0  0
  -25.3164  -30.2195   21.0697 C   0  0  0  0  0  0  0  0  0  0  0  0
  -25.5519  -29.5799   23.3875 C   0  0  0  0  0  0  0  0  0  0  0  0
  -24.8636  -30.2676   22.3881 C   0  0  0  0  0  0  0  0  0  0  0  0
  -24.8067  -12.2633   20.6903 C   0  0  0  0  0  0  0  0  0  0  0  0
  -21.6210  -28.1880   21.8885 C   0  0  0  0  0  0  0  0  0  0  0  0
  -23.2806  -10.9660   21.9191 C   0  0  0  0  0  0  0  0  0  0  0  0
  -21.9326  -10.4846   24.3137 C   0  0  0  0  0  0  0  0  0  0  0  0
  -23.4470   -9.7494   22.5808 C   0  0  0  0  0  0  0  0  0  0  0  0
  -27.4702  -15.5477   20.5627 C   0  0  0  0  0  0  0  0  0  0  0  0
  -29.2058  -16.8548   20.2246 C   0  0  0  0  0  0  0  0  0  0  0  0
  -29.5123  -14.5208   19.3836 C   0  0  0  0  0  0  0  0  0  0  0  0
  -21.9855  -22.7896   22.3222 C   0  0  0  0  0  0  0  0  0  0  0  0
  -28.2759  -22.2709   19.9438 C   0  0  0  0  0  0  0  0  0  0  0  0
  -20.9904  -22.5783   19.2421 C   0  0  0  0  0  0  0  0  0  0  0  0
  -20.0316  -24.1890   16.3902 C   0  0  0  0  0  0  0  0  0  0  0  0
  -22.2812  -19.7012   26.3759 C   0  0  0  0  0  0  0  0  0  0  0  0
  -19.9347  -24.2555   22.3543 C   0  0  0  0  0  0  0  0  0  0  0  0
  -21.6841  -24.8657   20.0495 C   0  0  0  0  0  0  0  0  0  0  0  0
  -22.2679  -19.5157   24.8607 C   0  0  0  0  0  0  0  0  0  0  0  0
  -27.2696  -20.5955   23.0110 C   0  0  0  0  0  0  0  0  0  0  0  0
  -23.2655  -20.4607   24.1985 C   0  0  0  0  0  0  0  0  0  0  0  0
  -27.3119  -19.1283   22.5858 C   0  0  0  0  0  0  0  0  0  0  0  0
  -26.8077  -21.4975   21.8695 C   0  0  0  0  0  0  0  0  0  0  0  0
  -27.6618  -19.8874   20.1954 C   0  0  0  0  0  0  0  0  0  0  0  0
  -22.9008  -21.9255   24.4685 C   0  0  1  0  0  0  0  0  0  0  0  0
  -20.7094  -23.1636   21.6228 C   0  0  1  0  0  0  0  0  0  0  0  0
  -28.1521  -18.9476   21.3095 C   0  0  2  0  0  0  0  0  0  0  0  0
  -24.5968  -30.9460   19.9807 C   0  0  0  0  0  0  0  0  0  0  0  0
  -26.4624  -31.6725   25.4690 C   0  0  0  0  0  0  0  0  0  0  0  0
  -24.6767  -28.2124   25.2992 C   0  0  0  0  0  0  0  0  0  0  0  0
  -19.3147  -23.7498   14.0258 C   0  0  0  0  0  0  0  0  0  0  0  0
  -28.1405  -24.9607   18.2740 C   0  0  0  0  0  0  0  0  0  0  0  0
  -23.8821  -21.9712   18.4808 C   0  0  0  0  0  0  0  0  0  0  0  0
  -23.2900  -22.4821   16.1024 C   0  0  0  0  0  0  0  0  0  0  0  0
  -22.1760  -20.5886   17.2841 C   0  0  0  0  0  0  0  0  0  0  0  0
  -17.4013  -25.4737   16.8263 C   0  0  0  0  0  0  0  0  0  0  0  0
  -23.6284  -31.0637   22.7329 C   0  0  0  0  0  0  0  0  0  0  0  0
  -28.3664  -28.0095   21.4091 C   0  0  0  0  0  0  0  0  0  0  0  0
  -28.1420  -23.6812   20.4606 C   0  0  0  0  0  0  0  0  0  0  0  0
  -26.1198  -30.2236   25.7942 C   0  0  0  0  0  0  0  0  0  0  0  0
  -29.2742  -25.9547   20.3172 C   0  0  0  0  0  0  0  0  0  0  0  0
  -22.4037  -30.1771   22.9310 C   0  0  0  0  0  0  0  0  0  1  0  0
  -25.0875  -29.6154   24.8070 C   0  0  1  0  0  0  0  0  0  0  0  0
  -21.5699  -22.9639   17.9025 C   0  0  1  0  0  0  0  0  0  0  0  0
  -18.8535  -23.9713   15.4579 C   0  0  2  0  0  0  0  0  0  0  0  0
  -28.9107  -24.6659   19.5667 C   0  0  2  0  0  0  0  0  0  0  0  0
  -22.7252  -22.0208   17.4629 C   0  0  0  0  0  0  0  0  0  0  0  0
  -27.1067  -16.7261   21.0760 N   0  0  0  0  0  0  0  0  0  0  0  0
  -28.1830  -17.5000   20.8553 N   0  0  0  0  0  0  0  0  0  0  0  0
  -21.0679  -23.5445   20.2551 N   0  0  0  0  0  0  0  0  0  0  0  0
  -27.6152  -21.2754   20.6640 N   0  0  0  0  0  0  0  0  0  0  0  0
  -30.3618  -17.4849   19.9260 N   0  0  0  0  0  0  0  0  0  0  0  0
  -28.9131  -13.2605   19.2538 N   0  0  0  0  0  0  0  0  0  0  0  0
  -21.8067  -22.3393   23.6164 N   0  0  0  0  0  0  0  0  0  0  0  0
  -20.4485  -23.0098   16.9705 N   0  0  0  0  0  0  0  0  0  0  0  0
  -17.9480  -25.1546   15.4823 N   0  3  0  0  0  0  0  0  0  0  0  0
  -28.0680  -26.7258   20.7160 N   0  3  0  0  0  0  0  0  0  0  0  0
  -30.6802  -14.6920   18.9591 O   0  0  0  0  0  0  0  0  0  0  0  0
  -23.0533  -22.8998   21.7310 O   0  0  0  0  0  0  0  0  0  0  0  0
  -28.9501  -22.0620   18.9320 O   0  0  0  0  0  0  0  0  0  0  0  0
  -20.4812  -21.4636   19.3824 O   0  0  0  0  0  0  0  0  0  0  0  0
  -20.5342  -25.2942   16.5815 O   0  0  0  0  0  0  0  0  0  0  0  0
  -23.9496  -11.2068   20.7309 O   0  0  0  0  0  0  0  0  0  0  0  0
  -22.1491  -29.4334   21.7401 O   0  0  0  0  0  0  0  0  0  1  0  0
  -21.2864  -10.2542   25.4641 F   0  0  0  0  0  0  0  0  0  0  0  0
  -24.2540   -8.8084   22.0717 F   0  0  0  0  0  0  0  0  0  0  0  0
  1  2  1  0  0  0  0
  1  5  2  0  0  0  0
  2  6  2  0  0  0  0
  3  8  2  0  0  0  0
  3 17  1  0  0  0  0
  4  9  1  0  0  0  0
  4 17  2  0  0  0  0
  5 19  1  0  0  0  0
  6 21  1  0  0  0  0
  7 10  2  0  0  0  0
  7 20  1  0  0  0  0
  8 27  1  0  0  0  0
  9 27  2  0  0  0  0
 10 28  1  0  0  0  0
 11 12  2  0  0  0  0
 11 29  1  0  0  0  0
 12 30  1  0  0  0  0
 13 22  1  0  0  0  0
 13 28  2  0  0  0  0
 14 23  1  0  0  0  0
 14 24  2  0  0  0  0
 15 23  2  0  0  0  0
 15 25  1  0  0  0  0
 16 30  2  0  0  0  0
 16 31  1  0  0  0  0
 17 32  1  0  0  0  0
 18 32  1  0  0  0  0
 18 33  2  0  0  0  0
 18 34  1  0  0  0  0
 19 21  2  0  0  0  0
 19 39  1  0  0  0  0
 20 22  2  0  0  0  0
 20 40  1  0  0  0  0
 21 48  1  0  0  0  0
 22 41  1  0  0  0  0
 23 61  1  0  0  0  0
 24 26  1  0  0  0  0
 24 51  1  0  0  0  0
 25 26  2  0  0  0  0
 25 66  1  0  0  0  0
 26 60  1  0  0  0  0
 27 86  1  0  0  0  0
 28 87  1  0  0  0  0
 29 31  2  0  0  0  0
 29 86  1  0  0  0  0
 30 88  1  0  0  0  0
 31 89  1  0  0  0  0
 32 71  2  0  0  0  0
 33 72  1  0  0  0  0
 33 75  1  0  0  0  0
 34 76  1  0  0  0  0
 34 81  2  0  0  0  0
 35 49  1  0  0  0  0
 35 77  1  0  0  0  0
 35 82  2  0  0  0  0
 36 62  1  0  0  0  0
 36 74  1  0  0  0  0
 36 83  2  0  0  0  0
 37 67  1  0  0  0  0
 37 73  1  0  0  0  0
 37 84  2  0  0  0  0
 38 68  1  0  0  0  0
 38 78  1  0  0  0  0
 38 85  2  0  0  0  0
 39 42  1  0  0  0  0
 40 49  1  0  0  0  0
 41 73  1  0  0  0  0
 42 44  1  0  0  0  0
 43 45  1  0  0  0  0
 43 46  1  0  0  0  0
 44 48  1  0  0  0  0
 45 50  1  0  0  0  0
 46 74  1  0  0  0  0
 47 50  1  0  0  0  0
 47 74  1  0  0  0  0
 48 77  1  0  0  0  0
 49 73  1  0  0  0  0
 50 72  1  0  0  0  0
 52 63  1  0  0  0  0
 53 66  1  0  0  0  0
 54 68  1  0  0  0  0
 55 69  1  0  0  0  0
 56 70  1  0  0  0  0
 57 70  1  0  0  0  0
 58 70  1  0  0  0  0
 59 79  1  0  0  0  0
 60 65  1  0  0  0  0
 61 80  1  0  0  0  0
 62 69  1  0  0  0  0
 63 66  1  0  0  0  0
 64 69  1  0  0  0  0
 64 80  1  0  0  0  0
 65 87  1  0  0  0  0
 67 70  1  0  0  0  0
 67 78  1  0  0  0  0
 68 79  1  0  0  0  0
 71 72  1  0  0  0  0
M  CHG  2  79   1  80   1
M  ISO  4  36 100  62 100  65 101  87 101
M  END
> <Batch ID>
0096

> <Smiles>
CCC(C)c1cc(CNCC(C)[100CH2:0][100C:0](=O)N2CCCC(n3nc(-c4ccc(Oc5ccc(F)cc5F)cc4)c(C(N)=O)c3N)C2)cc(C)c1C[101CH2:1][101O:1]c1ccc2c(c1)CN(C(=O)C(NC(=O)C(C)NC)C(C)(C)C)C(C(=O)NC1CCCc3ccccc31)C2

> <Shape>
0.227

> <Color>
0.055

> <Negative vol penalty>
0.000

$$$$

  -OEChem-04052319243D

 83 91  0     1  0  0  0  0  0999 V2000
  -27.3975  -24.4438   16.8893 C   0  0  0  0  0  0  0  0  0  0  0  0
  -26.4071  -25.3914   17.1215 C   0  0  0  0  0  0  0  0  0  0  0  0
  -25.0757  -17.4930   21.8044 C   0  0  0  0  0  0  0  0  0  0  0  0
  -22.7271  -17.8442   21.3596 C   0  0  0  0  0  0  0  0  0  0  0  0
  -28.3866  -24.2260   17.8461 C   0  0  0  0  0  0  0  0  0  0  0  0
  -26.4122  -26.1299   18.3054 C   0  0  0  0  0  0  0  0  0  0  0  0
  -23.1326  -29.7781   18.6779 C   0  0  0  0  0  0  0  0  0  0  0  0
  -24.8509  -16.1203   21.9078 C   0  0  0  0  0  0  0  0  0  0  0  0
  -22.5023  -16.4715   21.4630 C   0  0  0  0  0  0  0  0  0  0  0  0
  -21.7679  -29.5502   18.8499 C   0  0  0  0  0  0  0  0  0  0  0  0
  -24.3958  -13.5059   19.8124 C   0  0  0  0  0  0  0  0  0  0  0  0
  -25.2878  -12.6522   19.1636 C   0  0  0  0  0  0  0  0  0  0  0  0
  -21.9725  -30.1240   21.1840 C   0  0  0  0  0  0  0  0  0  0  0  0
  -25.8502  -11.6313   21.2798 C   0  0  0  0  0  0  0  0  0  0  0  0
  -18.8125  -27.1314   23.7103 C   0  0  0  0  0  0  0  0  0  0  0  0
  -24.0138  -18.3550   21.5303 C   0  0  0  0  0  0  0  0  0  0  0  0
  -24.5735  -20.4961   20.2614 C   0  0  0  0  0  0  0  0  0  0  0  0
  -28.3959  -24.9538   19.0474 C   0  0  0  0  0  0  0  0  0  0  0  0
  -23.9308  -30.1708   19.7619 C   0  0  0  0  0  0  0  0  0  0  0  0
  -27.4157  -25.9416   19.2729 C   0  0  0  0  0  0  0  0  0  0  0  0
  -23.3465  -30.3587   21.0225 C   0  0  0  0  0  0  0  0  0  0  0  0
  -23.5642  -15.6095   21.7371 C   0  0  0  0  0  0  0  0  0  0  0  0
  -21.1882  -29.7203   20.1037 C   0  0  0  0  0  0  0  0  0  0  0  0
  -24.2310  -13.4223   21.1951 C   0  0  0  0  0  0  0  0  0  0  0  0
  -26.0150  -11.7149   19.8972 C   0  0  0  0  0  0  0  0  0  0  0  0
  -24.9582  -12.4850   21.9287 C   0  0  0  0  0  0  0  0  0  0  0  0
  -24.2454  -19.7732   21.4240 C   0  0  0  0  0  0  0  0  0  0  0  0
  -19.4796  -25.9276   23.6536 C   0  0  0  0  0  0  0  0  0  0  0  0
  -18.6163  -27.1301   21.4319 C   0  0  0  0  0  0  0  0  0  0  0  0
  -19.2840  -25.9266   21.3750 C   0  0  0  0  0  0  0  0  0  0  0  0
  -24.6866  -21.7972   20.6866 C   0  0  0  0  0  0  0  0  0  0  0  0
  -24.7592  -20.0329   18.9173 C   0  0  0  0  0  0  0  0  0  0  0  0
  -26.4260  -28.9171   21.2804 C   0  0  0  0  0  0  0  0  0  0  0  0
  -26.4020  -31.7555   22.8505 C   0  0  0  0  0  0  0  0  0  0  0  0
  -24.6308  -34.4910   23.8639 C   0  0  0  0  0  0  0  0  0  0  0  0
  -22.3540  -24.7907   25.3179 C   0  0  0  0  0  0  0  0  0  0  0  0
  -29.4943  -24.6832   20.0451 C   0  0  0  0  0  0  0  0  0  0  0  0
  -25.3962  -30.4386   19.5539 C   0  0  0  0  0  0  0  0  0  0  0  0
  -24.1558  -30.7988   22.2141 C   0  0  0  0  0  0  0  0  0  0  0  0
  -29.1640  -25.1903   21.4452 C   0  0  0  0  0  0  0  0  0  0  0  0
  -25.8071  -24.3904   24.5480 C   0  0  0  0  0  0  0  0  0  0  0  0
  -28.6825  -26.6318   21.3757 C   0  0  0  0  0  0  0  0  0  0  0  0
  -25.8280  -23.2269   23.5552 C   0  0  0  0  0  0  0  0  0  0  0  0
  -24.7395  -24.1963   25.6225 C   0  0  0  0  0  0  0  0  0  0  0  0
  -23.4021  -22.7785   24.1143 C   0  0  0  0  0  0  0  0  0  0  0  0
  -27.3834  -26.7352   20.5666 C   0  0  1  0  0  0  0  0  0  0  0  0
  -26.2105  -30.3374   20.8401 C   0  0  1  0  0  0  0  0  0  0  0  0
  -24.4251  -22.9560   22.9793 C   0  0  2  0  0  0  0  0  0  0  0  0
  -18.8642  -23.8722   19.9761 C   0  0  0  0  0  0  0  0  0  0  0  0
  -21.0584  -25.0989   19.7874 C   0  0  0  0  0  0  0  0  0  0  0  0
  -24.8728  -36.6236   25.1642 C   0  0  0  0  0  0  0  0  0  0  0  0
  -26.3373  -30.1707   25.4570 C   0  0  0  0  0  0  0  0  0  0  0  0
  -25.6299  -32.2653   26.6319 C   0  0  0  0  0  0  0  0  0  0  0  0
  -27.8439  -32.1666   25.4868 C   0  0  0  0  0  0  0  0  0  0  0  0
  -23.9427  -36.1426   21.5064 C   0  0  0  0  0  0  0  0  0  0  0  0
  -18.1247  -27.8174   20.1812 C   0  0  0  0  0  0  0  0  0  0  0  0
  -19.9546  -25.2678   24.9005 C   0  0  0  0  0  0  0  0  0  0  0  0
  -19.2471  -28.5236   19.4285 C   0  0  0  0  0  0  0  0  0  1  0  0
  -19.5521  -25.2473   20.0757 C   0  0  0  0  0  0  0  0  0  0  0  0
  -25.7343  -32.2815   24.0981 C   0  0  1  0  0  0  0  0  0  0  0  0
  -24.9403  -35.9753   23.7902 C   0  0  2  0  0  0  0  0  0  0  0  0
  -26.3712  -31.7108   25.3966 C   0  0  0  0  0  0  0  0  0  0  0  0
  -18.3688  -27.7543   22.6005 N   0  0  0  0  0  0  0  0  0  0  0  0
  -24.1561  -20.5504   22.5065 N   0  0  0  0  0  0  0  0  0  0  0  0
  -19.7274  -25.3036   22.4849 N   0  0  0  0  0  0  0  0  0  0  0  0
  -24.4298  -21.7753   22.0259 N   0  0  0  0  0  0  0  0  0  0  0  0
  -25.5857  -31.0420   21.9614 N   0  0  0  0  0  0  0  0  0  0  0  0
  -23.4326  -23.9451   25.0102 N   0  0  0  0  0  0  0  0  0  0  0  0
  -24.9799  -22.9464   20.0419 N   0  0  0  0  0  0  0  0  0  0  0  0
  -24.6051  -18.6649   18.6547 N   0  0  0  0  0  0  0  0  0  0  0  0
  -27.0739  -28.1308   20.3469 N   0  0  0  0  0  0  0  0  0  0  0  0
  -25.7768  -33.7366   24.0013 N   0  0  0  0  0  0  0  0  0  0  0  0
  -21.1526  -24.4861   24.6897 N   0  0  0  0  0  0  0  0  0  0  0  0
  -23.9658  -36.6639   22.8973 N   0  3  0  0  0  0  0  0  0  0  0  0
  -25.0692  -20.8069   17.9800 O   0  0  0  0  0  0  0  0  0  0  0  0
  -26.0348  -28.5613   22.3859 O   0  0  0  0  0  0  0  0  0  0  0  0
  -27.6019  -31.9759   22.6680 O   0  0  0  0  0  0  0  0  0  0  0  0
  -23.4866  -34.0456   23.8090 O   0  0  0  0  0  0  0  0  0  0  0  0
  -22.4556  -25.7496   26.0907 O   0  0  0  0  0  0  0  0  0  0  0  0
  -23.3444  -14.2701   21.8377 O   0  0  0  0  0  0  0  0  0  0  0  0
  -19.8566  -29.4979   20.2745 O   0  0  0  0  0  0  0  0  0  1  0  0
  -26.8705  -10.8941   19.2738 F   0  0  0  0  0  0  0  0  0  0  0  0
  -24.8032  -12.3993   23.2571 F   0  0  0  0  0  0  0  0  0  0  0  0
  1  2  1  0  0  0  0
  1  5  2  0  0  0  0
  2  6  2  0  0  0  0
  3  8  2  0  0  0  0
  3 16  1  0  0  0  0
  4  9  1  0  0  0  0
  4 16  2  0  0  0  0
  5 18  1  0  0  0  0
  6 20  1  0  0  0  0
  7 10  2  0  0  0  0
  7 19  1  0  0  0  0
  8 22  1  0  0  0  0
  9 22  2  0  0  0  0
 10 23  1  0  0  0  0
 11 12  2  0  0  0  0
 11 24  1  0  0  0  0
 12 25  1  0  0  0  0
 13 21  1  0  0  0  0
 13 23  2  0  0  0  0
 14 25  2  0  0  0  0
 14 26  1  0  0  0  0
 15 28  1  0  0  0  0
 15 63  2  0  0  0  0
 16 27  1  0  0  0  0
 17 27  1  0  0  0  0
 17 31  2  0  0  0  0
 17 32  1  0  0  0  0
 18 20  2  0  0  0  0
 18 37  1  0  0  0  0
 19 21  2  0  0  0  0
 19 38  1  0  0  0  0
 20 46  1  0  0  0  0
 21 39  1  0  0  0  0
 22 80  1  0  0  0  0
 23 81  1  0  0  0  0
 24 26  2  0  0  0  0
 24 80  1  0  0  0  0
 25 82  1  0  0  0  0
 26 83  1  0  0  0  0
 27 64  2  0  0  0  0
 28 57  1  0  0  0  0
 28 65  2  0  0  0  0
 29 30  2  0  0  0  0
 29 56  1  0  0  0  0
 29 63  1  0  0  0  0
 30 59  1  0  0  0  0
 30 65  1  0  0  0  0
 31 66  1  0  0  0  0
 31 69  1  0  0  0  0
 32 70  1  0  0  0  0
 32 75  2  0  0  0  0
 33 47  1  0  0  0  0
 33 71  1  0  0  0  0
 33 76  2  0  0  0  0
 34 60  1  0  0  0  0
 34 67  1  0  0  0  0
 34 77  2  0  0  0  0
 35 61  1  0  0  0  0
 35 72  1  0  0  0  0
 35 78  2  0  0  0  0
 36 68  1  0  0  0  0
 36 73  1  0  0  0  0
 36 79  2  0  0  0  0
 37 40  1  0  0  0  0
 38 47  1  0  0  0  0
 39 67  1  0  0  0  0
 40 42  1  0  0  0  0
 41 43  1  0  0  0  0
 41 44  1  0  0  0  0
 42 46  1  0  0  0  0
 43 48  1  0  0  0  0
 44 68  1  0  0  0  0
 45 48  1  0  0  0  0
 45 68  1  0  0  0  0
 46 71  1  0  0  0  0
 47 67  1  0  0  0  0
 48 66  1  0  0  0  0
 49 59  1  0  0  0  0
 50 59  1  0  0  0  0
 51 61  1  0  0  0  0
 52 62  1  0  0  0  0
 53 62  1  0  0  0  0
 54 62  1  0  0  0  0
 55 74  1  0  0  0  0
 56 58  1  0  0  0  0
 57 73  1  0  0  0  0
 58 81  1  0  0  0  0
 60 62  1  0  0  0  0
 60 72  1  0  0  0  0
 61 74  1  0  0  0  0
 64 66  1  0  0  0  0
M  CHG  1  74   1
M  ISO  4  36 100  58 101  73 100  81 101
M  END
> <Batch ID>
0096

> <Smiles>
CNC(C)C(=O)NC(C(=O)N1Cc2cc([101O:1][101CH2:1]Cc3ncc(C[100NH:0][100C:0](=O)N4CCCC(n5nc(-c6ccc(Oc7ccc(F)cc7F)cc6)c(C(N)=O)c5N)C4)nc3C(C)C)ccc2CC1C(=O)NC1CCCc2ccccc21)C(C)(C)C

> <Shape>
0.238

> <Color>
0.074

> <Negative vol penalty>
0.000

$$$$

  -OEChem-04052319243D

 88 96  0     1  0  0  0  0  0999 V2000
  -35.3606  -30.4829   26.5709 C   0  0  0  0  0  0  0  0  0  0  0  0
  -34.7253  -29.2505   26.6848 C   0  0  0  0  0  0  0  0  0  0  0  0
  -23.3100   -9.7541   20.0723 C   0  0  0  0  0  0  0  0  0  0  0  0
  -23.7778  -10.0690   22.4216 C   0  0  0  0  0  0  0  0  0  0  0  0
  -34.8386  -31.4593   25.7235 C   0  0  0  0  0  0  0  0  0  0  0  0
  -33.5669  -28.9942   25.9522 C   0  0  0  0  0  0  0  0  0  0  0  0
  -33.6164  -24.4218   23.7761 C   0  0  0  0  0  0  0  0  0  0  0  0
  -22.5960   -8.5934   20.3701 C   0  0  0  0  0  0  0  0  0  0  0  0
  -23.0637   -8.9084   22.7194 C   0  0  0  0  0  0  0  0  0  0  0  0
  -33.3350  -23.3259   24.5907 C   0  0  0  0  0  0  0  0  0  0  0  0
  -20.9534   -5.3509   20.4787 C   0  0  0  0  0  0  0  0  0  0  0  0
  -21.1812   -4.2261   19.6859 C   0  0  0  0  0  0  0  0  0  0  0  0
  -31.0730  -23.2918   23.7532 C   0  0  0  0  0  0  0  0  0  0  0  0
  -30.6400  -15.4642   24.6131 C   0  0  0  0  0  0  0  0  0  0  0  0
  -32.7293  -15.6984   23.4228 C   0  0  0  0  0  0  0  0  0  0  0  0
  -23.5096   -4.2435   20.3304 C   0  0  0  0  0  0  0  0  0  0  0  0
  -23.9010  -10.4918   21.0981 C   0  0  0  0  0  0  0  0  0  0  0  0
  -24.1359  -13.0030   20.7155 C   0  0  0  0  0  0  0  0  0  0  0  0
  -33.6787  -31.2113   24.9727 C   0  0  0  0  0  0  0  0  0  0  0  0
  -32.6235  -24.9687   22.9506 C   0  0  0  0  0  0  0  0  0  0  0  0
  -33.0281  -29.9687   25.0949 C   0  0  0  0  0  0  0  0  0  0  0  0
  -31.3451  -24.3931   22.9272 C   0  0  0  0  0  0  0  0  0  0  0  0
  -31.6868  -14.8963   23.8870 C   0  0  0  0  0  0  0  0  0  0  0  0
  -30.6357  -16.8343   24.8750 C   0  0  0  0  0  0  0  0  0  0  0  0
  -32.7251  -17.0684   23.6848 C   0  0  0  0  0  0  0  0  0  0  0  0
  -22.4727   -8.1706   21.6936 C   0  0  0  0  0  0  0  0  0  0  0  0
  -32.0624  -22.7625   24.5815 C   0  0  0  0  0  0  0  0  0  0  0  0
  -22.0037   -5.9221   21.1973 C   0  0  0  0  0  0  0  0  0  0  0  0
  -31.6782  -17.6364   24.4109 C   0  0  0  0  0  0  0  0  0  0  0  0
  -22.4593   -3.6724   19.6117 C   0  0  0  0  0  0  0  0  0  0  0  0
  -23.2818   -5.3683   21.1231 C   0  0  0  0  0  0  0  0  0  0  0  0
  -24.6393  -11.6905   20.7911 C   0  0  0  0  0  0  0  0  0  0  0  0
  -25.2282  -13.7718   20.3958 C   0  0  0  0  0  0  0  0  0  0  0  0
  -22.8003  -13.4843   20.9165 C   0  0  0  0  0  0  0  0  0  0  0  0
  -31.1823  -27.7944   22.7458 C   0  0  0  0  0  0  0  0  0  0  0  0
  -29.8444  -26.4833   20.0975 C   0  0  0  0  0  0  0  0  0  0  0  0
  -28.9341  -23.6633   18.4048 C   0  0  0  0  0  0  0  0  0  0  0  0
  -31.1128  -13.0400   21.2250 C   0  0  0  0  0  0  0  0  0  0  0  0
  -33.1254  -32.3146   24.1059 C   0  0  0  0  0  0  0  0  0  0  0  0
  -32.9505  -26.1342   22.0580 C   0  0  0  0  0  0  0  0  0  0  0  0
  -30.2497  -24.9301   22.0439 C   0  0  0  0  0  0  0  0  0  0  0  0
  -32.1047  -31.8292   23.0798 C   0  0  0  0  0  0  0  0  0  0  0  0
  -29.4336  -13.5422   18.1258 C   0  0  0  0  0  0  0  0  0  0  0  0
  -31.0941  -30.8924   23.7340 C   0  0  0  0  0  0  0  0  0  0  0  0
  -27.9691  -13.2430   18.4507 C   0  0  0  0  0  0  0  0  0  0  0  0
  -30.3812  -12.6244   18.8951 C   0  0  0  0  0  0  0  0  0  0  0  0
  -28.7120  -12.3077   20.6804 C   0  0  0  0  0  0  0  0  0  0  0  0
  -31.7835  -29.6440   24.2977 C   0  0  1  0  0  0  0  0  0  0  0  0
  -31.7184  -26.9305   21.6395 C   0  0  1  0  0  0  0  0  0  0  0  0
  -27.7201  -13.2453   19.9709 C   0  0  2  0  0  0  0  0  0  0  0  0
  -29.5063  -17.4239   25.6542 C   0  0  0  0  0  0  0  0  0  0  0  0
  -28.0767  -22.2600   16.5092 C   0  0  0  0  0  0  0  0  0  0  0  0
  -27.1219  -27.2257   21.2580 C   0  0  0  0  0  0  0  0  0  0  0  0
  -26.0720  -25.6489   19.6211 C   0  0  0  0  0  0  0  0  0  0  0  0
  -27.3525  -27.6260   18.8001 C   0  0  0  0  0  0  0  0  0  0  0  0
  -31.6244  -23.4548   17.1891 C   0  0  0  0  0  0  0  0  0  0  0  0
  -32.5245  -17.8799   18.2804 C   0  0  0  0  0  0  0  0  0  0  0  0
  -31.8555  -19.7744   19.7514 C   0  0  0  0  0  0  0  0  0  0  0  0
  -33.8502  -17.9106   23.1799 C   0  0  0  0  0  0  0  0  0  0  0  0
  -31.6913  -13.4316   23.6064 C   0  0  0  0  0  0  0  0  0  0  0  0
  -33.5297  -18.6945   21.8933 C   0  0  0  0  0  0  0  0  0  0  0  0
  -33.1049  -17.8414   20.7019 C   0  0  0  0  0  0  0  0  0  0  0  0
  -32.8623  -20.8044   25.6686 C   0  0  0  0  0  0  0  0  0  1  0  0
  -32.3104  -19.4061   25.8683 C   0  0  0  0  0  0  0  0  0  0  0  0
  -28.6002  -25.6759   19.8162 C   0  0  1  0  0  0  0  0  0  0  0  0
  -29.1461  -23.2419   16.9619 C   0  0  2  0  0  0  0  0  0  0  0  0
  -27.3065  -26.5350   19.8920 C   0  0  0  0  0  0  0  0  0  0  0  0
  -25.9494  -11.6254   20.5395 N   0  0  0  0  0  0  0  0  0  0  0  0
  -26.2785  -12.9067   20.3026 N   0  0  0  0  0  0  0  0  0  0  0  0
  -30.6168  -26.0748   21.1940 N   0  0  0  0  0  0  0  0  0  0  0  0
  -30.0935  -12.6739   20.3306 N   0  0  0  0  0  0  0  0  0  0  0  0
  -25.3832  -15.0967   20.1881 N   0  0  0  0  0  0  0  0  0  0  0  0
  -21.7983  -12.5591   21.2393 N   0  0  0  0  0  0  0  0  0  0  0  0
  -32.0920  -28.7131   23.2334 N   0  0  0  0  0  0  0  0  0  0  0  0
  -28.8149  -25.0317   18.5250 N   0  0  0  0  0  0  0  0  0  0  0  0
  -30.7541  -13.0680   22.5671 N   0  0  0  0  0  0  0  0  0  0  0  0
  -30.4780  -22.5927   16.8022 N   0  3  0  0  0  0  0  0  0  0  0  0
  -32.8745  -18.6871   19.5076 N   0  3  0  0  0  0  0  0  0  0  0  0
  -22.5011  -14.6966   20.7967 O   0  0  0  0  0  0  0  0  0  0  0  0
  -30.0281  -27.6399   23.1277 O   0  0  0  0  0  0  0  0  0  0  0  0
  -30.1245  -27.4369   19.3668 O   0  0  0  0  0  0  0  0  0  0  0  0
  -28.8759  -22.8586   19.3320 O   0  0  0  0  0  0  0  0  0  0  0  0
  -32.2563  -13.3262   20.8544 O   0  0  0  0  0  0  0  0  0  0  0  0
  -21.7758   -7.0383   21.9845 O   0  0  0  0  0  0  0  0  0  0  0  0
  -31.7849  -21.6932   25.3761 O   0  0  0  0  0  0  0  0  0  1  0  0
  -31.6743  -18.9820   24.6689 O   0  0  0  0  0  0  0  0  0  0  0  0
  -22.6776   -2.5913   18.8516 F   0  0  0  0  0  0  0  0  0  0  0  0
  -24.2946   -5.9119   21.8121 F   0  0  0  0  0  0  0  0  0  0  0  0
  1  2  1  0  0  0  0
  1  5  2  0  0  0  0
  2  6  2  0  0  0  0
  3  8  2  0  0  0  0
  3 17  1  0  0  0  0
  4  9  1  0  0  0  0
  4 17  2  0  0  0  0
  5 19  1  0  0  0  0
  6 21  1  0  0  0  0
  7 10  2  0  0  0  0
  7 20  1  0  0  0  0
  8 26  1  0  0  0  0
  9 26  2  0  0  0  0
 10 27  1  0  0  0  0
 11 12  2  0  0  0  0
 11 28  1  0  0  0  0
 12 30  1  0  0  0  0
 13 22  1  0  0  0  0
 13 27  2  0  0  0  0
 14 23  1  0  0  0  0
 14 24  2  0  0  0  0
 15 23  2  0  0  0  0
 15 25  1  0  0  0  0
 16 30  2  0  0  0  0
 16 31  1  0  0  0  0
 17 32  1  0  0  0  0
 18 32  1  0  0  0  0
 18 33  2  0  0  0  0
 18 34  1  0  0  0  0
 19 21  2  0  0  0  0
 19 39  1  0  0  0  0
 20 22  2  0  0  0  0
 20 40  1  0  0  0  0
 21 48  1  0  0  0  0
 22 41  1  0  0  0  0
 23 60  1  0  0  0  0
 24 29  1  0  0  0  0
 24 51  1  0  0  0  0
 25 29  2  0  0  0  0
 25 59  1  0  0  0  0
 26 84  1  0  0  0  0
 27 85  1  0  0  0  0
 28 31  2  0  0  0  0
 28 84  1  0  0  0  0
 29 86  1  0  0  0  0
 30 87  1  0  0  0  0
 31 88  1  0  0  0  0
 32 68  2  0  0  0  0
 33 69  1  0  0  0  0
 33 72  1  0  0  0  0
 34 73  1  0  0  0  0
 34 79  2  0  0  0  0
 35 49  1  0  0  0  0
 35 74  1  0  0  0  0
 35 80  2  0  0  0  0
 36 65  1  0  0  0  0
 36 70  1  0  0  0  0
 36 81  2  0  0  0  0
 37 66  1  0  0  0  0
 37 75  1  0  0  0  0
 37 82  2  0  0  0  0
 38 71  1  0  0  0  0
 38 76  1  0  0  0  0
 38 83  2  0  0  0  0
 39 42  1  0  0  0  0
 40 49  1  0  0  0  0
 41 70  1  0  0  0  0
 42 44  1  0  0  0  0
 43 45  1  0  0  0  0
 43 46  1  0  0  0  0
 44 48  1  0  0  0  0
 45 50  1  0  0  0  0
 46 71  1  0  0  0  0
 47 50  1  0  0  0  0
 47 71  1  0  0  0  0
 48 74  1  0  0  0  0
 49 70  1  0  0  0  0
 50 69  1  0  0  0  0
 52 66  1  0  0  0  0
 53 67  1  0  0  0  0
 54 67  1  0  0  0  0
 55 67  1  0  0  0  0
 56 77  1  0  0  0  0
 57 78  1  0  0  0  0
 58 78  1  0  0  0  0
 59 61  1  0  0  0  0
 60 76  1  0  0  0  0
 61 62  1  0  0  0  0
 62 78  1  0  0  0  0
 63 64  1  0  0  0  0
 63 85  1  0  0  0  0
 64 86  1  0  0  0  0
 65 67  1  0  0  0  0
 65 75  1  0  0  0  0
 66 77  1  0  0  0  0
 68 69  1  0  0  0  0
M  CHG  2  77   1  78   1
M  ISO  4  38 100  63 101  76 100  85 101
M  END
> <Batch ID>
0096

> <Smiles>
CNC(C)C(=O)NC(C(=O)N1Cc2cc([101O:1][101CH2:1]COc3c(C)cc(C[100NH:0][100C:0](=O)N4CCCC(n5nc(-c6ccc(Oc7ccc(F)cc7F)cc6)c(C(N)=O)c5N)C4)cc3CCCN(C)C)ccc2CC1C(=O)NC1CCCc2ccccc21)C(C)(C)C

> <Shape>
0.198

> <Color>
0.182

> <Negative vol penalty>
0.000

$$$$

  -OEChem-04052319243D

 82 90  0     1  0  0  0  0  0999 V2000
  -20.9764  -20.1081   22.4936 C   0  0  0  0  0  0  0  0  0  0  0  0
  -22.2851  -20.2651   22.0485 C   0  0  0  0  0  0  0  0  0  0  0  0
  -27.7813  -12.2420   22.7522 C   0  0  0  0  0  0  0  0  0  0  0  0
  -27.4074  -11.6480   20.4404 C   0  0  0  0  0  0  0  0  0  0  0  0
  -20.0751  -21.1670   22.3920 C   0  0  0  0  0  0  0  0  0  0  0  0
  -22.6929  -21.4807   21.5005 C   0  0  0  0  0  0  0  0  0  0  0  0
  -28.2192  -24.0730   21.9958 C   0  0  0  0  0  0  0  0  0  0  0  0
  -26.8695  -11.2646   23.1508 C   0  0  0  0  0  0  0  0  0  0  0  0
  -26.4957  -10.6705   20.8390 C   0  0  0  0  0  0  0  0  0  0  0  0
  -29.3197  -24.1063   21.1406 C   0  0  0  0  0  0  0  0  0  0  0  0
  -23.2759  -10.5356   21.8616 C   0  0  0  0  0  0  0  0  0  0  0  0
  -22.0694  -10.4528   21.1666 C   0  0  0  0  0  0  0  0  0  0  0  0
  -28.5922  -26.2462   20.2974 C   0  0  0  0  0  0  0  0  0  0  0  0
  -22.5912   -8.1808   20.5318 C   0  0  0  0  0  0  0  0  0  0  0  0
  -30.0340  -23.4212   16.1386 C   0  0  0  0  0  0  0  0  0  0  0  0
  -28.0502  -12.4338   21.3970 C   0  0  0  0  0  0  0  0  0  0  0  0
  -30.3784  -13.2885   20.7999 C   0  0  0  0  0  0  0  0  0  0  0  0
  -20.4747  -22.3993   21.8513 C   0  0  0  0  0  0  0  0  0  0  0  0
  -27.2895  -25.1228   22.0005 C   0  0  0  0  0  0  0  0  0  0  0  0
  -21.7957  -22.5566   21.3903 C   0  0  0  0  0  0  0  0  0  0  0  0
  -27.4822  -26.2250   21.1555 C   0  0  0  0  0  0  0  0  0  0  0  0
  -30.1056  -22.0459   16.1143 C   0  0  0  0  0  0  0  0  0  0  0  0
  -31.2334  -21.6673   16.8836 C   0  0  0  0  0  0  0  0  0  0  0  0
  -26.2267  -10.4788   22.1942 C   0  0  0  0  0  0  0  0  0  0  0  0
  -29.5049  -25.1916   20.2891 C   0  0  0  0  0  0  0  0  0  0  0  0
  -24.1401   -9.4411   21.8917 C   0  0  0  0  0  0  0  0  0  0  0  0
  -21.7270   -9.2753   20.5017 C   0  0  0  0  0  0  0  0  0  0  0  0
  -23.7977   -8.2637   21.2269 C   0  0  0  0  0  0  0  0  0  0  0  0
  -28.9915  -13.4437   20.9845 C   0  0  0  0  0  0  0  0  0  0  0  0
  -31.8167  -22.8228   17.3547 C   0  0  0  0  0  0  0  0  0  0  0  0
  -30.8140  -14.5311   20.4093 C   0  0  0  0  0  0  0  0  0  0  0  0
  -31.1996  -12.1250   20.9665 C   0  0  0  0  0  0  0  0  0  0  0  0
  -24.1864  -25.3738   21.3591 C   0  0  0  0  0  0  0  0  0  0  0  0
  -24.6094  -28.4085   22.4237 C   0  0  0  0  0  0  0  0  0  0  0  0
  -26.7414  -31.0173   22.9677 C   0  0  0  0  0  0  0  0  0  0  0  0
  -28.0622  -18.9860   17.6823 C   0  0  0  0  0  0  0  0  0  0  0  0
  -19.4518  -23.4997   21.7185 C   0  0  0  0  0  0  0  0  0  0  0  0
  -26.1221  -25.0843   22.9482 C   0  0  0  0  0  0  0  0  0  0  0  0
  -26.5239  -27.3869   21.1367 C   0  0  0  0  0  0  0  0  0  0  0  0
  -20.0656  -24.8750   21.4698 C   0  0  0  0  0  0  0  0  0  0  0  0
  -29.7708  -19.1797   20.8668 C   0  0  0  0  0  0  0  0  0  0  0  0
  -21.1367  -24.7937   20.3868 C   0  0  0  0  0  0  0  0  0  0  0  0
  -29.8938  -17.7004   21.2364 C   0  0  0  0  0  0  0  0  0  0  0  0
  -28.4414  -19.4681   20.1756 C   0  0  0  0  0  0  0  0  0  0  0  0
  -28.3034  -17.1554   19.3355 C   0  0  0  0  0  0  0  0  0  0  0  0
  -22.2826  -23.8678   20.8126 C   0  0  1  0  0  0  0  0  0  0  0  0
  -24.9608  -25.9672   22.5018 C   0  0  1  0  0  0  0  0  0  0  0  0
  -29.6357  -16.7949   20.0175 C   0  0  2  0  0  0  0  0  0  0  0  0
  -31.7003  -20.2883   17.1355 C   0  0  0  0  0  0  0  0  0  0  0  0
  -33.0128  -23.0104   18.2029 C   0  0  0  0  0  0  0  0  0  0  0  0
  -26.7884  -33.3796   23.8129 C   0  0  0  0  0  0  0  0  0  0  0  0
  -23.3637  -29.3665   19.8083 C   0  0  0  0  0  0  0  0  0  0  0  0
  -24.2902  -31.6437   20.2821 C   0  0  0  0  0  0  0  0  0  0  0  0
  -22.6264  -30.6274   21.8383 C   0  0  0  0  0  0  0  0  0  0  0  0
  -28.6066  -30.3196   25.1570 C   0  0  0  0  0  0  0  0  0  0  0  0
  -29.1726  -21.1426   15.4115 C   0  0  0  0  0  0  0  0  0  0  0  0
  -31.3584  -25.3404   17.1704 C   0  0  0  0  0  0  0  0  0  0  0  0
  -27.8379  -20.9216   16.1459 C   0  0  0  0  0  0  0  0  0  0  0  0
  -30.4169  -25.9238   18.2184 C   0  0  0  0  0  0  0  0  0  1  0  0
  -24.9868  -29.7230   21.7843 C   0  0  1  0  0  0  0  0  0  0  0  0
  -26.9509  -31.9118   24.1761 C   0  0  2  0  0  0  0  0  0  0  0  0
  -23.8340  -30.3175   20.9270 C   0  0  0  0  0  0  0  0  0  0  0  0
  -28.5737  -14.6870   20.7321 N   0  0  0  0  0  0  0  0  0  0  0  0
  -31.0790  -23.8827   16.8958 N   0  0  0  0  0  0  0  0  0  0  0  0
  -29.7048  -15.3243   20.3850 N   0  0  0  0  0  0  0  0  0  0  0  0
  -25.3946  -27.2998   22.0772 N   0  0  0  0  0  0  0  0  0  0  0  0
  -28.2658  -18.5858   19.0134 N   0  0  0  0  0  0  0  0  0  0  0  0
  -32.0339  -15.0117   20.0878 N   0  0  0  0  0  0  0  0  0  0  0  0
  -30.5904  -10.9299   21.3729 N   0  0  0  0  0  0  0  0  0  0  0  0
  -23.1549  -24.5417   21.7504 N   0  0  0  0  0  0  0  0  0  0  0  0
  -25.4340  -30.5908   22.8684 N   0  0  0  0  0  0  0  0  0  0  0  0
  -28.0328  -20.3578   17.4632 N   0  0  0  0  0  0  0  0  0  0  0  0
  -28.3180  -31.7147   24.7358 N   0  3  0  0  0  0  0  0  0  0  0  0
  -32.4393  -12.1486   20.7770 O   0  0  0  0  0  0  0  0  0  0  0  0
  -24.5005  -25.6514   20.2076 O   0  0  0  0  0  0  0  0  0  0  0  0
  -23.6577  -28.3685   23.2075 O   0  0  0  0  0  0  0  0  0  0  0  0
  -27.6463  -30.7289   22.1875 O   0  0  0  0  0  0  0  0  0  0  0  0
  -27.9224  -18.1801   16.7560 O   0  0  0  0  0  0  0  0  0  0  0  0
  -25.3372   -9.5247   22.5829 O   0  0  0  0  0  0  0  0  0  0  0  0
  -30.5778  -25.2263   19.4528 O   0  0  0  0  0  0  0  0  0  1  0  0
  -20.5677   -9.1954   19.8356 F   0  0  0  0  0  0  0  0  0  0  0  0
  -24.6234   -7.2085   21.2532 F   0  0  0  0  0  0  0  0  0  0  0  0
  1  2  1  0  0  0  0
  1  5  2  0  0  0  0
  2  6  2  0  0  0  0
  3  8  2  0  0  0  0
  3 16  1  0  0  0  0
  4  9  1  0  0  0  0
  4 16  2  0  0  0  0
  5 18  1  0  0  0  0
  6 20  1  0  0  0  0
  7 10  2  0  0  0  0
  7 19  1  0  0  0  0
  8 24  1  0  0  0  0
  9 24  2  0  0  0  0
 10 25  1  0  0  0  0
 11 12  2  0  0  0  0
 11 26  1  0  0  0  0
 12 27  1  0  0  0  0
 13 21  1  0  0  0  0
 13 25  2  0  0  0  0
 14 27  2  0  0  0  0
 14 28  1  0  0  0  0
 15 22  2  0  0  0  0
 15 64  1  0  0  0  0
 16 29  1  0  0  0  0
 17 29  1  0  0  0  0
 17 31  2  0  0  0  0
 17 32  1  0  0  0  0
 18 20  2  0  0  0  0
 18 37  1  0  0  0  0
 19 21  2  0  0  0  0
 19 38  1  0  0  0  0
 20 46  1  0  0  0  0
 21 39  1  0  0  0  0
 22 23  1  0  0  0  0
 22 56  1  0  0  0  0
 23 30  2  0  0  0  0
 23 49  1  0  0  0  0
 24 79  1  0  0  0  0
 25 80  1  0  0  0  0
 26 28  2  0  0  0  0
 26 79  1  0  0  0  0
 27 81  1  0  0  0  0
 28 82  1  0  0  0  0
 29 63  2  0  0  0  0
 30 50  1  0  0  0  0
 30 64  1  0  0  0  0
 31 65  1  0  0  0  0
 31 68  1  0  0  0  0
 32 69  1  0  0  0  0
 32 74  2  0  0  0  0
 33 47  1  0  0  0  0
 33 70  1  0  0  0  0
 33 75  2  0  0  0  0
 34 60  1  0  0  0  0
 34 66  1  0  0  0  0
 34 76  2  0  0  0  0
 35 61  1  0  0  0  0
 35 71  1  0  0  0  0
 35 77  2  0  0  0  0
 36 67  1  0  0  0  0
 36 72  1  0  0  0  0
 36 78  2  0  0  0  0
 37 40  1  0  0  0  0
 38 47  1  0  0  0  0
 39 66  1  0  0  0  0
 40 42  1  0  0  0  0
 41 43  1  0  0  0  0
 41 44  1  0  0  0  0
 42 46  1  0  0  0  0
 43 48  1  0  0  0  0
 44 67  1  0  0  0  0
 45 48  1  0  0  0  0
 45 67  1  0  0  0  0
 46 70  1  0  0  0  0
 47 66  1  0  0  0  0
 48 65  1  0  0  0  0
 51 61  1  0  0  0  0
 52 62  1  0  0  0  0
 53 62  1  0  0  0  0
 54 62  1  0  0  0  0
 55 73  1  0  0  0  0
 56 58  1  0  0  0  0
 57 59  1  0  0  0  0
 57 64  1  0  0  0  0
 58 72  1  0  0  0  0
 59 80  1  0  0  0  0
 60 62  1  0  0  0  0
 60 71  1  0  0  0  0
 61 73  1  0  0  0  0
 63 65  1  0  0  0  0
M  CHG  1  73   1
M  ISO  4  36 100  59 101  72 100  80 101
M  END
> <Batch ID>
0096

> <Smiles>
CNC(C)C(=O)NC(C(=O)N1Cc2cc([101O:1][101CH2:1]Cn3cc(CC[100NH:0][100C:0](=O)N4CCCC(n5nc(-c6ccc(Oc7ccc(F)cc7F)cc6)c(C(N)=O)c5N)C4)c(C)c3C)ccc2CC1C(=O)NC1CCCc2ccccc21)C(C)(C)C

> <Shape>
0.248

> <Color>
0.070

> <Negative vol penalty>
0.000

$$$$

  -OEChem-04052319243D

 88 96  0     1  0  0  0  0  0999 V2000
  -16.6458  -30.1338   24.4863 C   0  0  0  0  0  0  0  0  0  0  0  0
  -17.5574  -29.1622   24.8866 C   0  0  0  0  0  0  0  0  0  0  0  0
  -23.8674   -9.8442   22.2322 C   0  0  0  0  0  0  0  0  0  0  0  0
  -24.3537  -11.3898   24.0243 C   0  0  0  0  0  0  0  0  0  0  0  0
  -16.8166  -30.7881   23.2670 C   0  0  0  0  0  0  0  0  0  0  0  0
  -18.6398  -28.8434   24.0673 C   0  0  0  0  0  0  0  0  0  0  0  0
  -25.4795  -26.7432   24.4189 C   0  0  0  0  0  0  0  0  0  0  0  0
  -23.3450   -8.9383   23.1552 C   0  0  0  0  0  0  0  0  0  0  0  0
  -23.8312  -10.4839   24.9474 C   0  0  0  0  0  0  0  0  0  0  0  0
  -26.3307  -25.7581   23.9200 C   0  0  0  0  0  0  0  0  0  0  0  0
  -20.4729   -8.5286   24.8918 C   0  0  0  0  0  0  0  0  0  0  0  0
  -19.2628   -7.9094   24.5788 C   0  0  0  0  0  0  0  0  0  0  0  0
  -26.5687  -27.0098   21.8716 C   0  0  0  0  0  0  0  0  0  0  0  0
  -20.3401   -5.7495   24.6870 C   0  0  0  0  0  0  0  0  0  0  0  0
  -29.1387  -17.7062   21.2734 C   0  0  0  0  0  0  0  0  0  0  0  0
  -24.3718  -11.0700   22.6667 C   0  0  0  0  0  0  0  0  0  0  0  0
  -24.2153  -13.0196   21.0290 C   0  0  0  0  0  0  0  0  0  0  0  0
  -17.9070  -30.4841   22.4368 C   0  0  0  0  0  0  0  0  0  0  0  0
  -25.1573  -27.8655   23.6423 C   0  0  0  0  0  0  0  0  0  0  0  0
  -18.8246  -29.4933   22.8352 C   0  0  0  0  0  0  0  0  0  0  0  0
  -25.7152  -28.0089   22.3639 C   0  0  0  0  0  0  0  0  0  0  0  0
  -28.0552  -18.2270   21.9376 C   0  0  0  0  0  0  0  0  0  0  0  0
  -23.3269   -9.2581   24.5128 C   0  0  0  0  0  0  0  0  0  0  0  0
  -26.8732  -25.8899   22.6450 C   0  0  0  0  0  0  0  0  0  0  0  0
  -21.6166   -7.7583   25.1023 C   0  0  0  0  0  0  0  0  0  0  0  0
  -19.1964   -6.5199   24.4764 C   0  0  0  0  0  0  0  0  0  0  0  0
  -21.5502   -6.3688   24.9999 C   0  0  0  0  0  0  0  0  0  0  0  0
  -24.9121  -12.0060   21.7138 C   0  0  0  0  0  0  0  0  0  0  0  0
  -28.5164  -18.4399   23.2505 C   0  0  0  0  0  0  0  0  0  0  0  0
  -25.1697  -13.6253   20.2487 C   0  0  0  0  0  0  0  0  0  0  0  0
  -22.8294  -13.3812   21.0925 C   0  0  0  0  0  0  0  0  0  0  0  0
  -22.4718  -29.0594   22.4315 C   0  0  0  0  0  0  0  0  0  0  0  0
  -24.4093  -31.5164   21.5761 C   0  0  0  0  0  0  0  0  0  0  0  0
  -27.5642  -32.6056   20.8640 C   0  0  0  0  0  0  0  0  0  0  0  0
  -31.1199  -14.1010   20.7184 C   0  0  0  0  0  0  0  0  0  0  0  0
  -18.0237  -31.1844   21.1061 C   0  0  0  0  0  0  0  0  0  0  0  0
  -24.2588  -28.9323   24.2053 C   0  0  0  0  0  0  0  0  0  0  0  0
  -25.4169  -29.2046   21.4981 C   0  0  0  0  0  0  0  0  0  0  0  0
  -19.4045  -31.0542   20.4683 C   0  0  0  0  0  0  0  0  0  0  0  0
  -29.2911  -12.7185   17.9942 C   0  0  0  0  0  0  0  0  0  0  0  0
  -19.8882  -29.6090   20.5328 C   0  0  0  0  0  0  0  0  0  0  0  0
  -27.8986  -12.4705   18.5768 C   0  0  0  0  0  0  0  0  0  0  0  0
  -30.3886  -12.4507   19.0218 C   0  0  0  0  0  0  0  0  0  0  0  0
  -28.8408  -12.9277   20.8794 C   0  0  0  0  0  0  0  0  0  0  0  0
  -20.0252  -29.1374   21.9854 C   0  0  1  0  0  0  0  0  0  0  0  0
  -23.5909  -29.7809   23.1278 C   0  0  1  0  0  0  0  0  0  0  0  0
  -27.6983  -13.2383   19.8973 C   0  0  2  0  0  0  0  0  0  0  0  0
  -27.7652  -18.9870   24.3940 C   0  0  0  0  0  0  0  0  0  0  0  0
  -28.8284  -34.6560   20.1605 C   0  0  0  0  0  0  0  0  0  0  0  0
  -24.8928  -20.4196   21.0199 C   0  0  0  0  0  0  0  0  0  0  0  0
  -25.6375  -17.6579   22.1751 C   0  0  0  0  0  0  0  0  0  0  0  0
  -26.4960  -18.0516   19.8865 C   0  0  0  0  0  0  0  0  0  0  0  0
  -23.3859  -31.1655   18.7231 C   0  0  0  0  0  0  0  0  0  0  0  0
  -25.3239  -32.5397   17.9331 C   0  0  0  0  0  0  0  0  0  0  0  0
  -23.6258  -33.5432   19.4603 C   0  0  0  0  0  0  0  0  0  0  0  0
  -29.1873  -32.5954   23.3388 C   0  0  0  0  0  0  0  0  0  0  0  0
  -31.4843  -17.1576   21.9640 C   0  0  0  0  0  0  0  0  0  0  0  0
  -31.7050  -15.7406   22.4871 C   0  0  0  0  0  0  0  0  0  0  0  0
  -28.0941  -23.3011   20.4297 C   0  0  0  0  0  0  0  0  0  0  0  0
  -27.3568  -20.9398   20.7753 C   0  0  0  0  0  0  0  0  0  0  0  0
  -27.7078  -24.7333   20.7420 C   0  0  0  0  0  0  0  0  0  1  0  0
  -25.2572  -31.8391   20.3695 C   0  0  1  0  0  0  0  0  0  0  0  0
  -28.3400  -33.8225   21.3350 C   0  0  2  0  0  0  0  0  0  0  0  0
  -26.3130  -20.0569   21.4947 C   0  0  2  0  0  0  0  0  0  0  0  0
  -26.6464  -18.5111   21.3592 C   0  0  0  0  0  0  0  0  0  0  0  0
  -24.4025  -32.2483   19.1368 C   0  0  0  0  0  0  0  0  0  0  0  0
  -26.2089  -11.9668   21.3964 N   0  0  0  0  0  0  0  0  0  0  0  0
  -29.7933  -18.0833   23.4128 N   0  0  0  0  0  0  0  0  0  0  0  0
  -30.1437  -17.6410   22.1931 N   0  0  0  0  0  0  0  0  0  0  0  0
  -26.3346  -12.9633   20.5035 N   0  0  0  0  0  0  0  0  0  0  0  0
  -24.5279  -30.2175   22.0907 N   0  0  0  0  0  0  0  0  0  0  0  0
  -30.1403  -13.2099   20.2498 N   0  0  0  0  0  0  0  0  0  0  0  0
  -25.1177  -14.6543   19.3764 N   0  0  0  0  0  0  0  0  0  0  0  0
  -21.9878  -12.6550   21.9461 N   0  0  0  0  0  0  0  0  0  0  0  0
  -21.2374  -29.6636   22.5755 N   0  0  0  0  0  0  0  0  0  0  0  0
  -26.2099  -32.8565   20.8003 N   0  0  0  0  0  0  0  0  0  0  0  0
  -30.8019  -14.7852   21.8852 N   0  0  0  0  0  0  0  0  0  0  0  0
  -29.5232  -33.4034   22.1383 N   0  3  0  0  0  0  0  0  0  0  0  0
  -27.1002  -22.3816   21.0387 N   0  3  0  0  0  0  0  0  0  0  0  0
  -22.3481  -14.3099   20.4001 O   0  0  0  0  0  0  0  0  0  0  0  0
  -22.7108  -28.0316   21.8085 O   0  0  0  0  0  0  0  0  0  0  0  0
  -23.6744  -32.3869   22.0490 O   0  0  0  0  0  0  0  0  0  0  0  0
  -28.1059  -31.5402   20.5775 O   0  0  0  0  0  0  0  0  0  0  0  0
  -32.1957  -14.2780   20.1368 O   0  0  0  0  0  0  0  0  0  0  0  0
  -22.8170   -8.3744   25.4137 O   0  0  0  0  0  0  0  0  0  0  0  0
  -27.7038  -24.9296   22.1554 O   0  0  0  0  0  0  0  0  0  1  0  0
  -18.0340   -5.9253   24.1774 F   0  0  0  0  0  0  0  0  0  0  0  0
  -22.6453   -5.6234   25.2022 F   0  0  0  0  0  0  0  0  0  0  0  0
  1  2  1  0  0  0  0
  1  5  2  0  0  0  0
  2  6  2  0  0  0  0
  3  8  2  0  0  0  0
  3 16  1  0  0  0  0
  4  9  1  0  0  0  0
  4 16  2  0  0  0  0
  5 18  1  0  0  0  0
  6 20  1  0  0  0  0
  7 10  2  0  0  0  0
  7 19  1  0  0  0  0
  8 23  1  0  0  0  0
  9 23  2  0  0  0  0
 10 24  1  0  0  0  0
 11 12  2  0  0  0  0
 11 25  1  0  0  0  0
 12 26  1  0  0  0  0
 13 21  1  0  0  0  0
 13 24  2  0  0  0  0
 14 26  2  0  0  0  0
 14 27  1  0  0  0  0
 15 22  2  0  0  0  0
 15 69  1  0  0  0  0
 16 28  1  0  0  0  0
 17 28  1  0  0  0  0
 17 30  2  0  0  0  0
 17 31  1  0  0  0  0
 18 20  2  0  0  0  0
 18 36  1  0  0  0  0
 19 21  2  0  0  0  0
 19 37  1  0  0  0  0
 20 45  1  0  0  0  0
 21 38  1  0  0  0  0
 22 29  1  0  0  0  0
 22 65  1  0  0  0  0
 23 85  1  0  0  0  0
 24 86  1  0  0  0  0
 25 27  2  0  0  0  0
 25 85  1  0  0  0  0
 26 87  1  0  0  0  0
 27 88  1  0  0  0  0
 28 67  2  0  0  0  0
 29 48  1  0  0  0  0
 29 68  2  0  0  0  0
 30 70  1  0  0  0  0
 30 73  1  0  0  0  0
 31 74  1  0  0  0  0
 31 80  2  0  0  0  0
 32 46  1  0  0  0  0
 32 75  1  0  0  0  0
 32 81  2  0  0  0  0
 33 62  1  0  0  0  0
 33 71  1  0  0  0  0
 33 82  2  0  0  0  0
 34 63  1  0  0  0  0
 34 76  1  0  0  0  0
 34 83  2  0  0  0  0
 35 72  1  0  0  0  0
 35 77  1  0  0  0  0
 35 84  2  0  0  0  0
 36 39  1  0  0  0  0
 37 46  1  0  0  0  0
 38 71  1  0  0  0  0
 39 41  1  0  0  0  0
 40 42  1  0  0  0  0
 40 43  1  0  0  0  0
 41 45  1  0  0  0  0
 42 47  1  0  0  0  0
 43 72  1  0  0  0  0
 44 47  1  0  0  0  0
 44 72  1  0  0  0  0
 45 75  1  0  0  0  0
 46 71  1  0  0  0  0
 47 70  1  0  0  0  0
 49 63  1  0  0  0  0
 50 64  1  0  0  0  0
 51 65  1  0  0  0  0
 52 65  1  0  0  0  0
 53 66  1  0  0  0  0
 54 66  1  0  0  0  0
 55 66  1  0  0  0  0
 56 78  1  0  0  0  0
 57 58  1  0  0  0  0
 57 69  1  0  0  0  0
 58 77  1  0  0  0  0
 59 61  1  0  0  0  0
 59 79  1  0  0  0  0
 60 64  1  0  0  0  0
 60 79  1  0  0  0  0
 61 86  1  0  0  0  0
 62 66  1  0  0  0  0
 62 76  1  0  0  0  0
 63 78  1  0  0  0  0
 64 65  1  0  0  0  0
 67 70  1  0  0  0  0
 68 69  1  0  0  0  0
M  CHG  2  78   1  79   1
M  ISO  4  35 100  61 101  77 100  86 101
M  END
> <Batch ID>
0096

> <Smiles>
CNC(C)C(=O)NC(C(=O)N1Cc2cc([101O:1][101CH2:1]CNCC(C)C(C)(C)c3cn(CC[100NH:0][100C:0](=O)N4CCCC(n5nc(-c6ccc(Oc7ccc(F)cc7F)cc6)c(C(N)=O)c5N)C4)nc3C)ccc2CC1C(=O)NC1CCCc2ccccc21)C(C)(C)C

> <Shape>
0.258

> <Color>
0.136

> <Negative vol penalty>
0.000

$$$$

  -OEChem-04052319243D

 93101  0     1  0  0  0  0  0999 V2000
  -28.4358  -30.8892   14.4096 C   0  0  0  0  0  0  0  0  0  0  0  0
  -28.0395  -29.8456   15.2398 C   0  0  0  0  0  0  0  0  0  0  0  0
  -24.5263   -8.5819   21.5256 C   0  0  0  0  0  0  0  0  0  0  0  0
  -23.0910  -10.1654   20.3989 C   0  0  0  0  0  0  0  0  0  0  0  0
  -28.8424  -32.1027   14.9629 C   0  0  0  0  0  0  0  0  0  0  0  0
  -28.0506  -30.0144   16.6239 C   0  0  0  0  0  0  0  0  0  0  0  0
  -23.8564  -28.2321   18.8322 C   0  0  0  0  0  0  0  0  0  0  0  0
  -23.4944   -8.2784   22.4137 C   0  0  0  0  0  0  0  0  0  0  0  0
  -22.0591   -9.8619   21.2869 C   0  0  0  0  0  0  0  0  0  0  0  0
  -23.7669  -26.8520   19.0085 C   0  0  0  0  0  0  0  0  0  0  0  0
  -21.1232   -6.8233   24.7535 C   0  0  0  0  0  0  0  0  0  0  0  0
  -20.8874   -5.4784   25.0386 C   0  0  0  0  0  0  0  0  0  0  0  0
  -24.4266  -27.1100   21.3145 C   0  0  0  0  0  0  0  0  0  0  0  0
  -30.0173  -18.9163   21.1188 C   0  0  0  0  0  0  0  0  0  0  0  0
  -20.4422   -5.0610   22.7009 C   0  0  0  0  0  0  0  0  0  0  0  0
  -28.4469  -17.3736   21.5915 C   0  0  0  0  0  0  0  0  0  0  0  0
  -24.3246   -9.5254   20.5182 C   0  0  0  0  0  0  0  0  0  0  0  0
  -25.6652   -9.2135   18.3703 C   0  0  0  0  0  0  0  0  0  0  0  0
  -28.8493  -32.2897   16.3542 C   0  0  0  0  0  0  0  0  0  0  0  0
  -24.2428  -29.0618   19.8946 C   0  0  0  0  0  0  0  0  0  0  0  0
  -28.4590  -31.2311   17.1964 C   0  0  0  0  0  0  0  0  0  0  0  0
  -24.5177  -28.5005   21.1497 C   0  0  0  0  0  0  0  0  0  0  0  0
  -29.6370  -17.5655   20.9251 C   0  0  0  0  0  0  0  0  0  0  0  0
  -22.2608   -8.9184   22.2944 C   0  0  0  0  0  0  0  0  0  0  0  0
  -24.0548  -26.2904   20.2490 C   0  0  0  0  0  0  0  0  0  0  0  0
  -21.0184   -7.2871   23.4421 C   0  0  0  0  0  0  0  0  0  0  0  0
  -20.5469   -4.5972   24.0123 C   0  0  0  0  0  0  0  0  0  0  0  0
  -20.6779   -6.4059   22.4158 C   0  0  0  0  0  0  0  0  0  0  0  0
  -25.3904   -9.8397   19.6009 C   0  0  0  0  0  0  0  0  0  0  0  0
  -29.0482  -19.5088   21.8980 C   0  0  0  0  0  0  0  0  0  0  0  0
  -26.7695   -9.8729   17.8886 C   0  0  0  0  0  0  0  0  0  0  0  0
  -24.9832   -8.1325   17.7208 C   0  0  0  0  0  0  0  0  0  0  0  0
  -26.6713  -31.0431   20.4247 C   0  0  0  0  0  0  0  0  0  0  0  0
  -25.0032  -31.7445   23.1168 C   0  0  0  0  0  0  0  0  0  0  0  0
  -22.6985  -30.7642   25.4351 C   0  0  0  0  0  0  0  0  0  0  0  0
  -28.8557  -15.2322   18.6186 C   0  0  0  0  0  0  0  0  0  0  0  0
  -29.3420  -33.6034   16.9076 C   0  0  0  0  0  0  0  0  0  0  0  0
  -24.3086  -30.5513   19.6953 C   0  0  0  0  0  0  0  0  0  0  0  0
  -24.9173  -29.3496   22.3278 C   0  0  0  0  0  0  0  0  0  0  0  0
  -28.9679  -33.8266   18.3707 C   0  0  0  0  0  0  0  0  0  0  0  0
  -30.6388  -12.2695   19.3363 C   0  0  0  0  0  0  0  0  0  0  0  0
  -29.2626  -32.5766   19.1937 C   0  0  0  0  0  0  0  0  0  0  0  0
  -29.5110  -11.2394   19.3748 C   0  0  0  0  0  0  0  0  0  0  0  0
  -30.2303  -13.5934   19.9849 C   0  0  0  0  0  0  0  0  0  0  0  0
  -27.8523  -13.1368   19.4757 C   0  0  0  0  0  0  0  0  0  0  0  0
  -28.4337  -31.3840   18.7018 C   0  0  1  0  0  0  0  0  0  0  0  0
  -25.2103  -31.2503   20.7080 C   0  0  1  0  0  0  0  0  0  0  0  0
  -28.2168  -11.8179   18.7770 C   0  0  2  0  0  0  0  0  0  0  0  0
  -31.8054  -16.0975   16.6393 C   0  0  0  0  0  0  0  0  0  0  0  0
  -28.8442  -21.9386   21.2592 C   0  0  0  0  0  0  0  0  0  0  0  0
  -30.1135  -21.2836   23.3365 C   0  0  0  0  0  0  0  0  0  0  0  0
  -21.5705  -31.5356   27.5398 C   0  0  0  0  0  0  0  0  0  0  0  0
  -24.4415  -17.6144   21.2630 C   0  0  0  0  0  0  0  0  0  0  0  0
  -27.5397  -31.1315   24.6980 C   0  0  0  0  0  0  0  0  0  0  0  0
  -26.1333  -30.9866   26.7642 C   0  0  0  0  0  0  0  0  0  0  0  0
  -26.2694  -33.1317   25.4981 C   0  0  0  0  0  0  0  0  0  0  0  0
  -20.0222  -30.6630   24.1757 C   0  0  0  0  0  0  0  0  0  0  0  0
  -26.5119  -19.8107   18.1374 C   0  0  0  0  0  0  0  0  0  0  0  0
  -30.3776  -16.5505   20.1519 C   0  0  0  0  0  0  0  0  0  0  0  0
  -31.3607  -17.3862   17.3167 C   0  0  0  0  0  0  0  0  0  0  0  0
  -25.7749  -19.5197   22.2160 C   0  0  0  0  0  0  0  0  0  0  0  0
  -24.8017  -22.7925   19.7659 C   0  0  0  0  0  0  0  0  0  0  0  0
  -26.8554  -18.7749   23.0065 C   0  0  0  0  0  0  0  0  0  0  0  0
  -29.9340  -17.3109   17.8473 C   0  0  0  0  0  0  0  0  0  0  0  0
  -25.1467  -21.8323   18.6376 C   0  0  0  0  0  0  0  0  0  0  0  0
  -24.7153  -19.7056   19.8588 C   0  0  0  0  0  0  0  0  0  0  0  0
  -24.2342  -24.1230   19.2867 C   0  0  0  0  0  0  0  0  0  1  0  0
  -28.9494  -20.8964   22.3960 C   0  0  0  0  0  0  0  0  0  0  0  0
  -24.9646  -31.1979   24.5235 C   0  0  1  0  0  0  0  0  0  0  0  0
  -21.4939  -31.4776   26.0221 C   0  0  2  0  0  0  0  0  0  0  0  0
  -25.3539  -18.7979   20.9192 C   0  0  2  0  0  0  0  0  0  0  0  0
  -26.2211  -31.5955   25.3485 C   0  0  0  0  0  0  0  0  0  0  0  0
  -26.2509  -10.8214   19.8834 N   0  0  0  0  0  0  0  0  0  0  0  0
  -28.0987  -18.5615   22.1795 N   0  0  0  0  0  0  0  0  0  0  0  0
  -27.0772  -10.8170   18.8236 N   0  0  0  0  0  0  0  0  0  0  0  0
  -24.9736  -30.7999   22.0811 N   0  0  0  0  0  0  0  0  0  0  0  0
  -28.9668  -14.0858   19.4191 N   0  0  0  0  0  0  0  0  0  0  0  0
  -27.4977   -9.7315   16.7607 N   0  0  0  0  0  0  0  0  0  0  0  0
  -23.8666   -7.5701   18.3544 N   0  0  0  0  0  0  0  0  0  0  0  0
  -27.0708  -31.4850   19.1779 N   0  0  0  0  0  0  0  0  0  0  0  0
  -23.7031  -31.6479   25.1019 N   0  0  0  0  0  0  0  0  0  0  0  0
  -29.7708  -16.2698   18.8522 N   0  0  0  0  0  0  0  0  0  0  0  0
  -20.2377  -30.7718   25.6415 N   0  3  0  0  0  0  0  0  0  0  0  0
  -25.7361  -20.5842   19.1764 N   0  3  1  0  0  0  0  0  0  0  0  0
  -25.3627   -7.6678   16.6192 O   0  0  0  0  0  0  0  0  0  0  0  0
  -27.3837  -30.5221   21.2749 O   0  0  0  0  0  0  0  0  0  0  0  0
  -25.0504  -32.9648   22.9433 O   0  0  0  0  0  0  0  0  0  0  0  0
  -22.7451  -29.5446   25.2903 O   0  0  0  0  0  0  0  0  0  0  0  0
  -27.9817  -15.3284   17.7475 O   0  0  0  0  0  0  0  0  0  0  0  0
  -21.2536   -8.6224   23.1606 O   0  0  0  0  0  0  0  0  0  0  0  0
  -23.9689  -24.9436   20.4237 O   0  0  0  0  0  0  0  0  0  1  0  0
  -20.3220   -3.3054   24.2859 F   0  0  0  0  0  0  0  0  0  0  0  0
  -20.5770   -6.8453   21.1539 F   0  0  0  0  0  0  0  0  0  0  0  0
  1  2  1  0  0  0  0
  1  5  2  0  0  0  0
  2  6  2  0  0  0  0
  3  8  2  0  0  0  0
  3 17  1  0  0  0  0
  4  9  1  0  0  0  0
  4 17  2  0  0  0  0
  5 19  1  0  0  0  0
  6 21  1  0  0  0  0
  7 10  2  0  0  0  0
  7 20  1  0  0  0  0
  8 24  1  0  0  0  0
  9 24  2  0  0  0  0
 10 25  1  0  0  0  0
 11 12  2  0  0  0  0
 11 26  1  0  0  0  0
 12 27  1  0  0  0  0
 13 22  1  0  0  0  0
 13 25  2  0  0  0  0
 14 23  1  0  0  0  0
 14 30  2  0  0  0  0
 15 27  2  0  0  0  0
 15 28  1  0  0  0  0
 16 23  2  0  0  0  0
 16 74  1  0  0  0  0
 17 29  1  0  0  0  0
 18 29  1  0  0  0  0
 18 31  2  0  0  0  0
 18 32  1  0  0  0  0
 19 21  2  0  0  0  0
 19 37  1  0  0  0  0
 20 22  2  0  0  0  0
 20 38  1  0  0  0  0
 21 46  1  0  0  0  0
 22 39  1  0  0  0  0
 23 59  1  0  0  0  0
 24 90  1  0  0  0  0
 25 91  1  0  0  0  0
 26 28  2  0  0  0  0
 26 90  1  0  0  0  0
 27 92  1  0  0  0  0
 28 93  1  0  0  0  0
 29 73  2  0  0  0  0
 30 68  1  0  0  0  0
 30 74  1  0  0  0  0
 31 75  1  0  0  0  0
 31 78  1  0  0  0  0
 32 79  1  0  0  0  0
 32 85  2  0  0  0  0
 33 47  1  0  0  0  0
 33 80  1  0  0  0  0
 33 86  2  0  0  0  0
 34 69  1  0  0  0  0
 34 76  1  0  0  0  0
 34 87  2  0  0  0  0
 35 70  1  0  0  0  0
 35 81  1  0  0  0  0
 35 88  2  0  0  0  0
 36 77  1  0  0  0  0
 36 82  1  0  0  0  0
 36 89  2  0  0  0  0
 37 40  1  0  0  0  0
 38 47  1  0  0  0  0
 39 76  1  0  0  0  0
 40 42  1  0  0  0  0
 41 43  1  0  0  0  0
 41 44  1  0  0  0  0
 42 46  1  0  0  0  0
 43 48  1  0  0  0  0
 44 77  1  0  0  0  0
 45 48  1  0  0  0  0
 45 77  1  0  0  0  0
 46 80  1  0  0  0  0
 47 76  1  0  0  0  0
 48 75  1  0  0  0  0
 49 60  1  0  0  0  0
 50 68  1  0  0  0  0
 51 68  1  0  0  0  0
 52 70  1  0  0  0  0
 53 71  1  0  0  0  0
 54 72  1  0  0  0  0
 55 72  1  0  0  0  0
 56 72  1  0  0  0  0
 57 83  1  0  0  0  0
 58 84  1  0  0  0  0
 59 82  1  0  0  0  0
 60 64  1  0  0  0  0
 61 63  1  0  0  0  0
 61 71  1  0  0  0  0
 62 65  1  0  0  0  0
 62 67  1  0  0  0  0
 63 74  1  0  0  0  0
 64 82  1  0  0  0  0
 65 84  1  0  0  0  0
 66 71  1  0  0  0  0
 66 84  1  0  0  0  0
 67 91  1  0  0  0  0
 69 72  1  0  0  0  0
 69 81  1  0  0  0  0
 70 83  1  0  0  0  0
 73 75  1  0  0  0  0
M  CHG  2  83   1  84   1
M  ISO  4  36 100  67 101  82 100  91 101
M  END
> <Batch ID>
0096

> <Smiles>
CCC[100N:0](Cc1cc(C(C)C)n(CCC(C)CN(C)CC[101CH2:1][101O:1]c2ccc3c(c2)CN(C(=O)C(NC(=O)C(C)NC)C(C)(C)C)C(C(=O)NC2CCCc4ccccc42)C3)c1)[100C:0](=O)N1CCCC(n2nc(-c3ccc(Oc4ccc(F)cc4F)cc3)c(C(N)=O)c2N)C1

> <Shape>
0.243

> <Color>
0.080

> <Negative vol penalty>
0.000

$$$$

  -OEChem-04052319243D

 84 92  0     1  0  0  0  0  0999 V2000
  -25.5783  -34.9415   23.8632 C   0  0  0  0  0  0  0  0  0  0  0  0
  -26.1483  -33.6932   23.6345 C   0  0  0  0  0  0  0  0  0  0  0  0
  -27.6493  -12.7862   22.9810 C   0  0  0  0  0  0  0  0  0  0  0  0
  -26.4872  -13.2361   20.9112 C   0  0  0  0  0  0  0  0  0  0  0  0
  -24.2064  -35.0496   24.0874 C   0  0  0  0  0  0  0  0  0  0  0  0
  -25.3469  -32.5521   23.6310 C   0  0  0  0  0  0  0  0  0  0  0  0
  -26.4003  -29.4502   19.7692 C   0  0  0  0  0  0  0  0  0  0  0  0
  -26.5296  -12.1078   23.4623 C   0  0  0  0  0  0  0  0  0  0  0  0
  -25.3675  -12.5576   21.3924 C   0  0  0  0  0  0  0  0  0  0  0  0
  -27.5327  -28.6458   19.8893 C   0  0  0  0  0  0  0  0  0  0  0  0
  -24.3737   -9.3502   21.7735 C   0  0  0  0  0  0  0  0  0  0  0  0
  -23.7429   -8.4517   20.9131 C   0  0  0  0  0  0  0  0  0  0  0  0
  -26.1353  -26.7835   20.5208 C   0  0  0  0  0  0  0  0  0  0  0  0
  -21.7006   -9.7326   21.0729 C   0  0  0  0  0  0  0  0  0  0  0  0
  -26.8387  -22.2383   20.4466 C   0  0  0  0  0  0  0  0  0  0  0  0
  -27.6281  -13.3504   21.7055 C   0  0  0  0  0  0  0  0  0  0  0  0
  -29.8623  -13.5078   20.4843 C   0  0  0  0  0  0  0  0  0  0  0  0
  -23.3863  -33.9103   24.0770 C   0  0  0  0  0  0  0  0  0  0  0  0
  -25.1258  -28.9294   20.0351 C   0  0  0  0  0  0  0  0  0  0  0  0
  -23.9630  -32.6449   23.8566 C   0  0  0  0  0  0  0  0  0  0  0  0
  -24.9882  -27.5828   20.4009 C   0  0  0  0  0  0  0  0  0  0  0  0
  -27.1214  -23.2168   21.3739 C   0  0  0  0  0  0  0  0  0  0  0  0
  -27.9020  -24.2037   20.7229 C   0  0  0  0  0  0  0  0  0  0  0  0
  -25.3887  -11.9935   22.6680 C   0  0  0  0  0  0  0  0  0  0  0  0
  -27.4006  -27.3130   20.2679 C   0  0  0  0  0  0  0  0  0  0  0  0
  -23.6680  -10.4398   22.2837 C   0  0  0  0  0  0  0  0  0  0  0  0
  -22.4064   -8.6429   20.5627 C   0  0  0  0  0  0  0  0  0  0  0  0
  -22.3315  -10.6310   21.9334 C   0  0  0  0  0  0  0  0  0  0  0  0
  -28.7843  -14.0518   21.2080 C   0  0  0  0  0  0  0  0  0  0  0  0
  -28.0725  -23.7983   19.4176 C   0  0  0  0  0  0  0  0  0  0  0  0
  -30.6924  -14.5766   20.2496 C   0  0  0  0  0  0  0  0  0  0  0  0
  -30.0927  -12.1572   20.0619 C   0  0  0  0  0  0  0  0  0  0  0  0
  -22.8348  -29.5720   22.1427 C   0  0  0  0  0  0  0  0  0  0  0  0
  -21.1681  -27.3949   20.4094 C   0  0  0  0  0  0  0  0  0  0  0  0
  -21.2268  -24.7158   18.2961 C   0  0  0  0  0  0  0  0  0  0  0  0
  -29.7428  -20.4784   19.9058 C   0  0  0  0  0  0  0  0  0  0  0  0
  -21.9159  -34.0717   24.3713 C   0  0  0  0  0  0  0  0  0  0  0  0
  -23.9119  -29.8031   19.8750 C   0  0  0  0  0  0  0  0  0  0  0  0
  -23.6405  -26.9699   20.6777 C   0  0  0  0  0  0  0  0  0  0  0  0
  -21.0794  -32.8563   23.9794 C   0  0  0  0  0  0  0  0  0  0  0  0
  -31.9813  -18.7946   22.1037 C   0  0  0  0  0  0  0  0  0  0  0  0
  -21.7438  -31.5719   24.4648 C   0  0  0  0  0  0  0  0  0  0  0  0
  -31.5131  -17.3391   22.0581 C   0  0  0  0  0  0  0  0  0  0  0  0
  -30.8071  -19.7679   22.0269 C   0  0  0  0  0  0  0  0  0  0  0  0
  -29.4354  -18.1036   20.8344 C   0  0  0  0  0  0  0  0  0  0  0  0
  -23.1230  -31.3867   23.8205 C   0  0  1  0  0  0  0  0  0  0  0  0
  -22.7084  -29.3052   20.6695 C   0  0  1  0  0  0  0  0  0  0  0  0
  -30.5881  -17.0851   20.8526 C   0  0  2  0  0  0  0  0  0  0  0  0
  -28.7985  -24.4460   18.3046 C   0  0  0  0  0  0  0  0  0  0  0  0
  -27.2494  -22.0359   23.5970 C   0  0  0  0  0  0  0  0  0  0  0  0
  -25.1480  -23.2645   22.9416 C   0  0  0  0  0  0  0  0  0  0  0  0
  -29.8422  -25.2684   21.9251 C   0  0  0  0  0  0  0  0  0  0  0  0
  -19.7065  -23.1311   17.0817 C   0  0  0  0  0  0  0  0  0  0  0  0
  -20.6307  -25.9123   23.0215 C   0  0  0  0  0  0  0  0  0  0  0  0
  -19.9638  -23.9138   21.6689 C   0  0  0  0  0  0  0  0  0  0  0  0
  -18.6720  -26.0386   21.4717 C   0  0  0  0  0  0  0  0  0  0  0  0
  -22.2534  -25.5715   15.6556 C   0  0  0  0  0  0  0  0  0  0  0  0
  -27.3504  -21.8292   18.0406 C   0  0  0  0  0  0  0  0  0  0  0  0
  -28.6247  -21.0364   17.7616 C   0  0  0  0  0  0  0  0  0  0  0  0
  -26.6857  -23.2245   22.7847 C   0  0  0  0  0  0  0  0  0  0  0  0
  -28.4484  -25.4690   21.3438 C   0  0  1  0  0  0  0  0  0  1  0  0
  -20.9866  -25.8972   20.4643 C   0  0  1  0  0  0  0  0  0  0  0  0
  -20.4826  -24.4365   17.0028 C   0  0  2  0  0  0  0  0  0  0  0  0
  -20.0890  -25.4522   21.6533 C   0  0  0  0  0  0  0  0  0  0  0  0
  -28.9149  -15.3641   21.4193 N   0  0  0  0  0  0  0  0  0  0  0  0
  -27.4216  -22.6025   19.2609 N   0  0  0  0  0  0  0  0  0  0  0  0
  -30.0849  -15.6537   20.8249 N   0  0  0  0  0  0  0  0  0  0  0  0
  -22.4843  -27.8665   20.5138 N   0  0  0  0  0  0  0  0  0  0  0  0
  -29.9702  -19.4740   20.8611 N   0  0  0  0  0  0  0  0  0  0  0  0
  -31.8754  -14.6907   19.6093 N   0  0  0  0  0  0  0  0  0  0  0  0
  -29.1384  -11.1835   20.3870 N   0  0  0  0  0  0  0  0  0  0  0  0
  -22.9857  -30.9081   22.4616 N   0  0  0  0  0  0  0  0  0  0  0  0
  -20.4836  -25.4986   19.1541 N   0  0  0  0  0  0  0  0  0  0  0  0
  -28.9437  -20.1145   18.8289 N   0  0  0  0  0  0  0  0  0  0  0  0
  -21.4395  -24.3463   15.8638 N   0  3  0  0  0  0  0  0  0  0  0  0
  -31.1225  -11.8206   19.4297 O   0  0  0  0  0  0  0  0  0  0  0  0
  -22.7967  -28.6353   22.9319 O   0  0  0  0  0  0  0  0  0  0  0  0
  -20.1792  -28.1192   20.2715 O   0  0  0  0  0  0  0  0  0  0  0  0
  -22.3530  -24.2797   18.5242 O   0  0  0  0  0  0  0  0  0  0  0  0
  -30.2211  -21.6136   20.0026 O   0  0  0  0  0  0  0  0  0  0  0  0
  -24.2960  -11.3314   23.1372 O   0  0  0  0  0  0  0  0  0  0  0  0
  -28.5042  -26.5258   20.3865 O   0  0  0  0  0  0  0  0  0  1  0  0
  -21.8011   -7.7808   19.7352 F   0  0  0  0  0  0  0  0  0  0  0  0
  -21.6487  -11.6767   22.4194 F   0  0  0  0  0  0  0  0  0  0  0  0
  1  2  1  0  0  0  0
  1  5  2  0  0  0  0
  2  6  2  0  0  0  0
  3  8  2  0  0  0  0
  3 16  1  0  0  0  0
  4  9  1  0  0  0  0
  4 16  2  0  0  0  0
  5 18  1  0  0  0  0
  6 20  1  0  0  0  0
  7 10  2  0  0  0  0
  7 19  1  0  0  0  0
  8 24  1  0  0  0  0
  9 24  2  0  0  0  0
 10 25  1  0  0  0  0
 11 12  2  0  0  0  0
 11 26  1  0  0  0  0
 12 27  1  0  0  0  0
 13 21  1  0  0  0  0
 13 25  2  0  0  0  0
 14 27  2  0  0  0  0
 14 28  1  0  0  0  0
 15 22  2  0  0  0  0
 15 66  1  0  0  0  0
 16 29  1  0  0  0  0
 17 29  1  0  0  0  0
 17 31  2  0  0  0  0
 17 32  1  0  0  0  0
 18 20  2  0  0  0  0
 18 37  1  0  0  0  0
 19 21  2  0  0  0  0
 19 38  1  0  0  0  0
 20 46  1  0  0  0  0
 21 39  1  0  0  0  0
 22 23  1  0  0  0  0
 22 60  1  0  0  0  0
 23 30  2  0  0  0  0
 23 61  1  0  0  0  0
 24 81  1  0  0  0  0
 25 82  1  0  0  0  0
 26 28  2  0  0  0  0
 26 81  1  0  0  0  0
 27 83  1  0  0  0  0
 28 84  1  0  0  0  0
 29 65  2  0  0  0  0
 30 49  1  0  0  0  0
 30 66  1  0  0  0  0
 31 67  1  0  0  0  0
 31 70  1  0  0  0  0
 32 71  1  0  0  0  0
 32 76  2  0  0  0  0
 33 47  1  0  0  0  0
 33 72  1  0  0  0  0
 33 77  2  0  0  0  0
 34 62  1  0  0  0  0
 34 68  1  0  0  0  0
 34 78  2  0  0  0  0
 35 63  1  0  0  0  0
 35 73  1  0  0  0  0
 35 79  2  0  0  0  0
 36 69  1  0  0  0  0
 36 74  1  0  0  0  0
 36 80  2  0  0  0  0
 37 40  1  0  0  0  0
 38 47  1  0  0  0  0
 39 68  1  0  0  0  0
 40 42  1  0  0  0  0
 41 43  1  0  0  0  0
 41 44  1  0  0  0  0
 42 46  1  0  0  0  0
 43 48  1  0  0  0  0
 44 69  1  0  0  0  0
 45 48  1  0  0  0  0
 45 69  1  0  0  0  0
 46 72  1  0  0  0  0
 47 68  1  0  0  0  0
 48 67  1  0  0  0  0
 50 60  1  0  0  0  0
 51 60  1  0  0  0  0
 52 61  1  0  0  0  0
 53 63  1  0  0  0  0
 54 64  1  0  0  0  0
 55 64  1  0  0  0  0
 56 64  1  0  0  0  0
 57 75  1  0  0  0  0
 58 59  1  0  0  0  0
 58 66  1  0  0  0  0
 59 74  1  0  0  0  0
 61 82  1  0  0  0  0
 62 64  1  0  0  0  0
 62 73  1  0  0  0  0
 63 75  1  0  0  0  0
 65 67  1  0  0  0  0
M  CHG  1  75   1
M  ISO  4  36 100  61 101  74 100  82 101
M  END
> <Batch ID>
0096

> <Smiles>
CNC(C)C(=O)NC(C(=O)N1Cc2cc([101O:1][101CH:1](C)c3c(C(C)C)cn(CC[100NH:0][100C:0](=O)N4CCCC(n5nc(-c6ccc(Oc7ccc(F)cc7F)cc6)c(C(N)=O)c5N)C4)c3C)ccc2CC1C(=O)NC1CCCc2ccccc21)C(C)(C)C

> <Shape>
0.291

> <Color>
0.082

> <Negative vol penalty>
0.000

$$$$
