
  -OEChem-04052319263D

 83 91  0     1  0  0  0  0  0999 V2000
  -34.3842  -28.3559   18.3577 C   0  0  0  0  0  0  0  0  0  0  0  0
  -33.3750  -27.5652   17.8175 C   0  0  0  0  0  0  0  0  0  0  0  0
  -24.6479   -8.9922   20.0102 C   0  0  0  0  0  0  0  0  0  0  0  0
  -24.2406   -9.8186   22.2436 C   0  0  0  0  0  0  0  0  0  0  0  0
  -34.3076  -28.7702   19.6868 C   0  0  0  0  0  0  0  0  0  0  0  0
  -32.2891  -27.1875   18.6065 C   0  0  0  0  0  0  0  0  0  0  0  0
  -25.2751  -25.8026   18.1566 C   0  0  0  0  0  0  0  0  0  0  0  0
  -24.4748   -7.6842   20.4626 C   0  0  0  0  0  0  0  0  0  0  0  0
  -24.0674   -8.5106   22.6960 C   0  0  0  0  0  0  0  0  0  0  0  0
  -24.3481  -24.8169   18.4926 C   0  0  0  0  0  0  0  0  0  0  0  0
  -23.1620   -5.4109   24.3664 C   0  0  0  0  0  0  0  0  0  0  0  0
  -22.0813   -5.1533   25.2099 C   0  0  0  0  0  0  0  0  0  0  0  0
  -24.2825  -25.6575   20.7528 C   0  0  0  0  0  0  0  0  0  0  0  0
  -25.7355  -21.8937   21.2186 C   0  0  0  0  0  0  0  0  0  0  0  0
  -25.1393  -19.5668   21.3382 C   0  0  0  0  0  0  0  0  0  0  0  0
  -20.5596   -5.8989   23.4879 C   0  0  0  0  0  0  0  0  0  0  0  0
  -24.5308  -10.0594   20.9007 C   0  0  0  0  0  0  0  0  0  0  0  0
  -23.7187  -12.2758   19.9334 C   0  0  0  0  0  0  0  0  0  0  0  0
  -33.2154  -28.4053   20.4897 C   0  0  0  0  0  0  0  0  0  0  0  0
  -25.7217  -26.7179   19.1205 C   0  0  0  0  0  0  0  0  0  0  0  0
  -32.1984  -27.5961   19.9480 C   0  0  0  0  0  0  0  0  0  0  0  0
  -25.2132  -26.6555   20.4258 C   0  0  0  0  0  0  0  0  0  0  0  0
  -24.7699  -20.9066   21.3815 C   0  0  0  0  0  0  0  0  0  0  0  0
  -24.1845   -7.4433   21.8055 C   0  0  0  0  0  0  0  0  0  0  0  0
  -23.8539  -24.7424   19.7915 C   0  0  0  0  0  0  0  0  0  0  0  0
  -22.9415   -5.9126   23.0837 C   0  0  0  0  0  0  0  0  0  0  0  0
  -20.7801   -5.3973   24.7706 C   0  0  0  0  0  0  0  0  0  0  0  0
  -21.6403   -6.1566   22.6444 C   0  0  0  0  0  0  0  0  0  0  0  0
  -24.7101  -11.4108   20.4341 C   0  0  0  0  0  0  0  0  0  0  0  0
  -27.0461  -21.4920   21.0169 C   0  0  0  0  0  0  0  0  0  0  0  0
  -26.4765  -19.2692   21.1310 C   0  0  0  0  0  0  0  0  0  0  0  0
  -24.3939  -13.4326   19.6295 C   0  0  0  0  0  0  0  0  0  0  0  0
  -22.3130  -12.0536   19.7588 C   0  0  0  0  0  0  0  0  0  0  0  0
  -28.5384  -27.4115   20.4200 C   0  0  0  0  0  0  0  0  0  0  0  0
  -26.8639  -29.8120   21.8186 C   0  0  0  0  0  0  0  0  0  0  0  0
  -23.8452  -31.0113   22.8657 C   0  0  0  0  0  0  0  0  0  0  0  0
  -28.1187  -17.3737   20.8929 C   0  0  0  0  0  0  0  0  0  0  0  0
  -33.1999  -28.8379   21.9344 C   0  0  0  0  0  0  0  0  0  0  0  0
  -26.7018  -27.7919   18.7354 C   0  0  0  0  0  0  0  0  0  0  0  0
  -25.6453  -27.6270   21.4925 C   0  0  0  0  0  0  0  0  0  0  0  0
  -31.8301  -28.7061   22.5951 C   0  0  0  0  0  0  0  0  0  0  0  0
  -29.3601  -14.3861   19.4062 C   0  0  0  0  0  0  0  0  0  0  0  0
  -31.2108  -27.3495   22.2738 C   0  0  0  0  0  0  0  0  0  0  0  0
  -28.1794  -13.4169   19.4999 C   0  0  0  0  0  0  0  0  0  0  0  0
  -29.4495  -15.2912   20.6336 C   0  0  0  0  0  0  0  0  0  0  0  0
  -27.0347  -15.0469   21.0554 C   0  0  0  0  0  0  0  0  0  0  0  0
  -30.9922  -27.1864   20.7648 C   0  0  1  0  0  0  0  0  0  0  0  0
  -27.4745  -28.3506   19.9262 C   0  0  1  0  0  0  0  0  0  0  0  0
  -26.8649  -14.1585   19.8122 C   0  0  2  0  0  0  0  0  0  0  0  0
  -28.7843  -22.4385   19.4561 C   0  0  0  0  0  0  0  0  0  0  0  0
  -29.1764  -22.4680   21.9461 C   0  0  0  0  0  0  0  0  0  0  0  0
  -22.7986  -32.9859   24.0072 C   0  0  0  0  0  0  0  0  0  0  0  0
  -27.9236  -28.8194   24.5022 C   0  0  0  0  0  0  0  0  0  0  0  0
  -26.1450  -30.1754   25.6272 C   0  0  0  0  0  0  0  0  0  0  0  0
  -27.8897  -31.3072   24.2497 C   0  0  0  0  0  0  0  0  0  0  0  0
  -22.1645  -31.6294   20.5094 C   0  0  0  0  0  0  0  0  0  0  0  0
  -23.3280  -21.2874   21.6039 C   0  0  0  0  0  0  0  0  0  0  0  0
  -22.5215  -21.4277   20.3111 C   0  0  0  0  0  0  0  0  0  0  0  0
  -23.0208  -22.5484   19.4066 C   0  0  0  0  0  0  0  0  0  1  0  0
  -28.1089  -22.5242   20.8375 C   0  0  0  0  0  0  0  0  0  0  0  0
  -26.0819  -29.9641   23.1009 C   0  0  1  0  0  0  0  0  0  0  0  0
  -23.1756  -32.3600   22.6734 C   0  0  2  0  0  0  0  0  0  0  0  0
  -27.0032  -30.0469   24.3506 C   0  0  0  0  0  0  0  0  0  0  0  0
  -25.9229  -11.9702   20.4488 N   0  0  0  0  0  0  0  0  0  0  0  0
  -27.4429  -20.2006   20.9687 N   0  0  0  0  0  0  0  0  0  0  0  0
  -25.6980  -13.1991   19.9536 N   0  0  0  0  0  0  0  0  0  0  0  0
  -26.6101  -28.6551   21.0683 N   0  0  0  0  0  0  0  0  0  0  0  0
  -28.1694  -15.9640   20.8652 N   0  0  0  0  0  0  0  0  0  0  0  0
  -23.9935  -14.6165   19.1191 N   0  0  0  0  0  0  0  0  0  0  0  0
  -21.7833  -10.8080   20.1223 N   0  0  0  0  0  0  0  0  0  0  0  0
  -26.8426  -17.9010   21.0881 N   0  0  0  0  0  0  0  0  0  0  0  0
  -29.8201  -27.9220   20.3414 N   0  0  0  0  0  0  0  0  0  0  0  0
  -25.2184  -31.1256   22.9171 N   0  0  0  0  0  0  0  0  0  0  0  0
  -21.9376  -32.2119   21.8571 N   0  3  0  0  0  0  0  0  0  0  0  0
  -21.5522  -12.9279   19.2789 O   0  0  0  0  0  0  0  0  0  0  0  0
  -28.2199  -26.3062   20.8425 O   0  0  0  0  0  0  0  0  0  0  0  0
  -27.6650  -30.6910   21.4910 O   0  0  0  0  0  0  0  0  0  0  0  0
  -23.2133  -29.9618   22.9644 O   0  0  0  0  0  0  0  0  0  0  0  0
  -29.1284  -18.0628   20.7266 O   0  0  0  0  0  0  0  0  0  0  0  0
  -24.0153   -6.1671   22.2473 O   0  0  0  0  0  0  0  0  0  0  0  0
  -22.9495  -23.7809   20.1223 O   0  0  0  0  0  0  0  0  0  1  0  0
  -19.7424   -5.1484   25.5801 F   0  0  0  0  0  0  0  0  0  0  0  0
  -21.4221   -6.6374   21.4128 F   0  0  0  0  0  0  0  0  0  0  0  0
  1  2  1  0  0  0  0
  1  5  2  0  0  0  0
  2  6  2  0  0  0  0
  3  8  2  0  0  0  0
  3 17  1  0  0  0  0
  4  9  1  0  0  0  0
  4 17  2  0  0  0  0
  5 19  1  0  0  0  0
  6 21  1  0  0  0  0
  7 10  2  0  0  0  0
  7 20  1  0  0  0  0
  8 24  1  0  0  0  0
  9 24  2  0  0  0  0
 10 25  1  0  0  0  0
 11 12  2  0  0  0  0
 11 26  1  0  0  0  0
 12 27  1  0  0  0  0
 13 22  1  0  0  0  0
 13 25  2  0  0  0  0
 14 23  2  0  0  0  0
 14 30  1  0  0  0  0
 15 23  1  0  0  0  0
 15 31  2  0  0  0  0
 16 27  2  0  0  0  0
 16 28  1  0  0  0  0
 17 29  1  0  0  0  0
 18 29  1  0  0  0  0
 18 32  2  0  0  0  0
 18 33  1  0  0  0  0
 19 21  2  0  0  0  0
 19 38  1  0  0  0  0
 20 22  2  0  0  0  0
 20 39  1  0  0  0  0
 21 47  1  0  0  0  0
 22 40  1  0  0  0  0
 23 57  1  0  0  0  0
 24 80  1  0  0  0  0
 25 81  1  0  0  0  0
 26 28  2  0  0  0  0
 26 80  1  0  0  0  0
 27 82  1  0  0  0  0
 28 83  1  0  0  0  0
 29 64  2  0  0  0  0
 30 60  1  0  0  0  0
 30 65  2  0  0  0  0
 31 65  1  0  0  0  0
 31 71  1  0  0  0  0
 32 66  1  0  0  0  0
 32 69  1  0  0  0  0
 33 70  1  0  0  0  0
 33 75  2  0  0  0  0
 34 48  1  0  0  0  0
 34 72  1  0  0  0  0
 34 76  2  0  0  0  0
 35 61  1  0  0  0  0
 35 67  1  0  0  0  0
 35 77  2  0  0  0  0
 36 62  1  0  0  0  0
 36 73  1  0  0  0  0
 36 78  2  0  0  0  0
 37 68  1  0  0  0  0
 37 71  1  0  0  0  0
 37 79  2  0  0  0  0
 38 41  1  0  0  0  0
 39 48  1  0  0  0  0
 40 67  1  0  0  0  0
 41 43  1  0  0  0  0
 42 44  1  0  0  0  0
 42 45  1  0  0  0  0
 43 47  1  0  0  0  0
 44 49  1  0  0  0  0
 45 68  1  0  0  0  0
 46 49  1  0  0  0  0
 46 68  1  0  0  0  0
 47 72  1  0  0  0  0
 48 67  1  0  0  0  0
 49 66  1  0  0  0  0
 50 60  1  0  0  0  0
 51 60  1  0  0  0  0
 52 62  1  0  0  0  0
 53 63  1  0  0  0  0
 54 63  1  0  0  0  0
 55 63  1  0  0  0  0
 56 74  1  0  0  0  0
 57 58  1  0  0  0  0
 58 59  1  0  0  0  0
 59 81  1  0  0  0  0
 61 63  1  0  0  0  0
 61 73  1  0  0  0  0
 62 74  1  0  0  0  0
 64 66  1  0  0  0  0
M  CHG  1  74   1
M  ISO  4  37 100  59 101  71 100  81 101
M  END
> <Batch ID>
0097

> <Smiles>
CNC(C)C(=O)NC(C(=O)N1Cc2cc([101O:1][101CH2:1]CCc3cc([100NH:0][100C:0](=O)N4CCCC(n5nc(-c6ccc(Oc7ccc(F)cc7F)cc6)c(C(N)=O)c5N)C4)nc(C(C)C)c3)ccc2CC1C(=O)NC1CCCc2ccccc21)C(C)(C)C

> <Shape>
0.267

> <Color>
0.076

> <Negative vol penalty>
0.000

$$$$

  -OEChem-04052319263D

 82 90  0     1  0  0  0  0  0999 V2000
  -24.9417  -30.8542   21.6985 C   0  0  0  0  0  0  0  0  0  0  0  0
  -24.6764  -29.6835   22.4017 C   0  0  0  0  0  0  0  0  0  0  0  0
  -20.4064  -22.8013   20.7100 C   0  0  0  0  0  0  0  0  0  0  0  0
  -22.6293  -22.6084   21.6367 C   0  0  0  0  0  0  0  0  0  0  0  0
  -25.4577  -30.7873   20.4050 C   0  0  0  0  0  0  0  0  0  0  0  0
  -24.9258  -28.4451   21.8113 C   0  0  0  0  0  0  0  0  0  0  0  0
  -26.9778  -21.7839   23.4647 C   0  0  0  0  0  0  0  0  0  0  0  0
  -20.4638  -24.1868   20.8608 C   0  0  0  0  0  0  0  0  0  0  0  0
  -22.6867  -23.9939   21.7874 C   0  0  0  0  0  0  0  0  0  0  0  0
  -26.5792  -20.4594   23.2898 C   0  0  0  0  0  0  0  0  0  0  0  0
  -20.1039  -26.4373   23.3569 C   0  0  0  0  0  0  0  0  0  0  0  0
  -18.9867  -27.0768   23.8940 C   0  0  0  0  0  0  0  0  0  0  0  0
  -27.5455  -20.4668   21.0795 C   0  0  0  0  0  0  0  0  0  0  0  0
  -25.6297  -13.3246   21.9496 C   0  0  0  0  0  0  0  0  0  0  0  0
  -18.7645  -28.3845   21.8747 C   0  0  0  0  0  0  0  0  0  0  0  0
  -26.1618  -12.6714   19.7363 C   0  0  0  0  0  0  0  0  0  0  0  0
  -21.4892  -22.0121   21.0980 C   0  0  0  0  0  0  0  0  0  0  0  0
  -21.8325  -19.8298   19.8223 C   0  0  0  0  0  0  0  0  0  0  0  0
  -25.7226  -29.5476   19.8020 C   0  0  0  0  0  0  0  0  0  0  0  0
  -27.6548  -22.4644   22.4424 C   0  0  0  0  0  0  0  0  0  0  0  0
  -25.4445  -28.3616   20.5079 C   0  0  0  0  0  0  0  0  0  0  0  0
  -27.9539  -21.7991   21.2449 C   0  0  0  0  0  0  0  0  0  0  0  0
  -26.5497  -13.2718   20.9172 C   0  0  0  0  0  0  0  0  0  0  0  0
  -21.6039  -24.7831   21.3995 C   0  0  0  0  0  0  0  0  0  0  0  0
  -26.8605  -19.8016   22.0960 C   0  0  0  0  0  0  0  0  0  0  0  0
  -20.5515  -26.7714   22.0787 C   0  0  0  0  0  0  0  0  0  0  0  0
  -18.3170  -28.0504   23.1529 C   0  0  0  0  0  0  0  0  0  0  0  0
  -19.8817  -27.7450   21.3376 C   0  0  0  0  0  0  0  0  0  0  0  0
  -21.4303  -20.5808   20.9430 C   0  0  0  0  0  0  0  0  0  0  0  0
  -24.3826  -12.7739   21.7325 C   0  0  0  0  0  0  0  0  0  0  0  0
  -21.5747  -18.5268   20.1716 C   0  0  0  0  0  0  0  0  0  0  0  0
  -22.3895  -20.2707   18.5768 C   0  0  0  0  0  0  0  0  0  0  0  0
  -27.0493  -25.0376   20.6773 C   0  0  0  0  0  0  0  0  0  0  0  0
  -30.0676  -24.5309   19.6025 C   0  0  0  0  0  0  0  0  0  0  0  0
  -32.6348  -22.3388   19.1011 C   0  0  0  0  0  0  0  0  0  0  0  0
  -21.7399  -14.3581   23.8784 C   0  0  0  0  0  0  0  0  0  0  0  0
  -26.2359  -29.5250   18.3840 C   0  0  0  0  0  0  0  0  0  0  0  0
  -28.1016  -23.8845   22.6570 C   0  0  0  0  0  0  0  0  0  0  0  0
  -28.6962  -22.4786   20.1243 C   0  0  0  0  0  0  0  0  0  0  0  0
  -26.8238  -28.1783   17.9705 C   0  0  0  0  0  0  0  0  0  0  0  0
  -18.9933  -16.6148   24.0789 C   0  0  0  0  0  0  0  0  0  0  0  0
  -25.8972  -27.0406   18.3876 C   0  0  0  0  0  0  0  0  0  0  0  0
  -19.4184  -17.7879   23.1939 C   0  0  0  0  0  0  0  0  0  0  0  0
  -20.1781  -16.0234   24.8396 C   0  0  0  0  0  0  0  0  0  0  0  0
  -21.7495  -16.8092   23.1113 C   0  0  0  0  0  0  0  0  0  0  0  0
  -25.7250  -26.9996   19.9108 C   0  0  1  0  0  0  0  0  0  0  0  0
  -28.3318  -24.6420   21.3529 C   0  0  1  0  0  0  0  0  0  0  0  0
  -20.5984  -17.4030   22.2814 C   0  0  2  0  0  0  0  0  0  0  0  0
  -34.9609  -22.2094   18.1684 C   0  0  0  0  0  0  0  0  0  0  0  0
  -28.9317  -24.5689   16.7708 C   0  0  0  0  0  0  0  0  0  0  0  0
  -31.0587  -23.5125   15.9782 C   0  0  0  0  0  0  0  0  0  0  0  0
  -31.1089  -25.7703   17.0377 C   0  0  0  0  0  0  0  0  0  0  0  0
  -33.7634  -21.5352   21.7163 C   0  0  0  0  0  0  0  0  0  0  0  0
  -27.9325  -13.8515   21.0772 C   0  0  0  0  0  0  0  0  0  0  0  0
  -23.3553  -12.8052   22.8115 C   0  0  0  0  0  0  0  0  0  0  0  0
  -28.0376  -15.3245   20.6670 C   0  0  0  0  0  0  0  0  0  0  0  0
  -27.1800  -16.2494   21.5318 C   0  0  0  0  0  0  0  0  0  0  0  0
  -27.2789  -17.6971   21.0702 C   0  0  0  0  0  0  0  0  0  1  0  0
  -30.6820  -23.7354   18.4761 C   0  0  1  0  0  0  0  0  0  0  0  0
  -34.1172  -22.4353   19.4133 C   0  0  2  0  0  0  0  0  0  0  0  0
  -30.4296  -24.3843   17.0859 C   0  0  0  0  0  0  0  0  0  0  0  0
  -24.9345  -12.1406   19.5517 N   0  0  0  0  0  0  0  0  0  0  0  0
  -20.9531  -19.8183   21.9304 N   0  0  0  0  0  0  0  0  0  0  0  0
  -24.0302  -12.1929   20.5662 N   0  0  0  0  0  0  0  0  0  0  0  0
  -21.0537  -18.5746   21.4312 N   0  0  0  0  0  0  0  0  0  0  0  0
  -29.1064  -23.8693   20.3796 N   0  0  0  0  0  0  0  0  0  0  0  0
  -21.2620  -15.6784   23.9166 N   0  0  0  0  0  0  0  0  0  0  0  0
  -21.7451  -17.3562   19.5212 N   0  0  0  0  0  0  0  0  0  0  0  0
  -22.5887  -21.6444   18.3830 N   0  0  0  0  0  0  0  0  0  0  0  0
  -26.8862  -26.4023   20.5348 N   0  0  0  0  0  0  0  0  0  0  0  0
  -32.0922  -23.5732   18.8127 N   0  0  0  0  0  0  0  0  0  0  0  0
  -22.7639  -14.1150   22.9711 N   0  0  0  0  0  0  0  0  0  0  0  0
  -34.4995  -21.4162   20.4314 N   0  3  0  0  0  0  0  0  0  0  0  0
  -22.6860  -19.4715   17.6566 O   0  0  0  0  0  0  0  0  0  0  0  0
  -26.2664  -24.1689   20.3110 O   0  0  0  0  0  0  0  0  0  0  0  0
  -30.4326  -25.6942   19.7904 O   0  0  0  0  0  0  0  0  0  0  0  0
  -32.0204  -21.2744   19.1083 O   0  0  0  0  0  0  0  0  0  0  0  0
  -21.2839  -13.4611   24.5957 O   0  0  0  0  0  0  0  0  0  0  0  0
  -21.6603  -26.1351   21.5465 O   0  0  0  0  0  0  0  0  0  0  0  0
  -26.4720  -18.5090   21.9224 O   0  0  0  0  0  0  0  0  0  1  0  0
  -17.2432  -28.6633   23.6683 F   0  0  0  0  0  0  0  0  0  0  0  0
  -20.3063  -28.0695   20.1087 F   0  0  0  0  0  0  0  0  0  0  0  0
  1  2  1  0  0  0  0
  1  5  2  0  0  0  0
  2  6  2  0  0  0  0
  3  8  2  0  0  0  0
  3 17  1  0  0  0  0
  4  9  1  0  0  0  0
  4 17  2  0  0  0  0
  5 19  1  0  0  0  0
  6 21  1  0  0  0  0
  7 10  2  0  0  0  0
  7 20  1  0  0  0  0
  8 24  1  0  0  0  0
  9 24  2  0  0  0  0
 10 25  1  0  0  0  0
 11 12  2  0  0  0  0
 11 26  1  0  0  0  0
 12 27  1  0  0  0  0
 13 22  1  0  0  0  0
 13 25  2  0  0  0  0
 14 23  2  0  0  0  0
 14 30  1  0  0  0  0
 15 27  2  0  0  0  0
 15 28  1  0  0  0  0
 16 23  1  0  0  0  0
 16 62  2  0  0  0  0
 17 29  1  0  0  0  0
 18 29  1  0  0  0  0
 18 31  2  0  0  0  0
 18 32  1  0  0  0  0
 19 21  2  0  0  0  0
 19 37  1  0  0  0  0
 20 22  2  0  0  0  0
 20 38  1  0  0  0  0
 21 46  1  0  0  0  0
 22 39  1  0  0  0  0
 23 54  1  0  0  0  0
 24 79  1  0  0  0  0
 25 80  1  0  0  0  0
 26 28  2  0  0  0  0
 26 79  1  0  0  0  0
 27 81  1  0  0  0  0
 28 82  1  0  0  0  0
 29 63  2  0  0  0  0
 30 55  1  0  0  0  0
 30 64  2  0  0  0  0
 31 65  1  0  0  0  0
 31 68  1  0  0  0  0
 32 69  1  0  0  0  0
 32 74  2  0  0  0  0
 33 47  1  0  0  0  0
 33 70  1  0  0  0  0
 33 75  2  0  0  0  0
 34 59  1  0  0  0  0
 34 66  1  0  0  0  0
 34 76  2  0  0  0  0
 35 60  1  0  0  0  0
 35 71  1  0  0  0  0
 35 77  2  0  0  0  0
 36 67  1  0  0  0  0
 36 72  1  0  0  0  0
 36 78  2  0  0  0  0
 37 40  1  0  0  0  0
 38 47  1  0  0  0  0
 39 66  1  0  0  0  0
 40 42  1  0  0  0  0
 41 43  1  0  0  0  0
 41 44  1  0  0  0  0
 42 46  1  0  0  0  0
 43 48  1  0  0  0  0
 44 67  1  0  0  0  0
 45 48  1  0  0  0  0
 45 67  1  0  0  0  0
 46 70  1  0  0  0  0
 47 66  1  0  0  0  0
 48 65  1  0  0  0  0
 49 60  1  0  0  0  0
 50 61  1  0  0  0  0
 51 61  1  0  0  0  0
 52 61  1  0  0  0  0
 53 73  1  0  0  0  0
 54 56  1  0  0  0  0
 55 72  1  0  0  0  0
 56 57  1  0  0  0  0
 57 58  1  0  0  0  0
 58 80  1  0  0  0  0
 59 61  1  0  0  0  0
 59 71  1  0  0  0  0
 60 73  1  0  0  0  0
 62 64  1  0  0  0  0
 63 65  1  0  0  0  0
M  CHG  1  73   1
M  ISO  4  36 100  58 101  72 100  80 101
M  END
> <Batch ID>
0097

> <Smiles>
CNC(C)C(=O)NC(C(=O)N1Cc2cc([101O:1][101CH2:1]CCCc3cnnc(C[100NH:0][100C:0](=O)N4CCCC(n5nc(-c6ccc(Oc7ccc(F)cc7F)cc6)c(C(N)=O)c5N)C4)c3)ccc2CC1C(=O)NC1CCCc2ccccc21)C(C)(C)C

> <Shape>
0.185

> <Color>
0.073

> <Negative vol penalty>
0.000

$$$$

  -OEChem-04052319263D

 87 95  0     1  0  0  0  0  0999 V2000
  -18.8261  -21.2443   18.8150 C   0  0  0  0  0  0  0  0  0  0  0  0
  -20.0803  -21.2773   18.2139 C   0  0  0  0  0  0  0  0  0  0  0  0
  -22.7108  -29.2171   21.5481 C   0  0  0  0  0  0  0  0  0  0  0  0
  -23.6822  -28.1759   23.4999 C   0  0  0  0  0  0  0  0  0  0  0  0
  -18.6551  -20.5873   20.0328 C   0  0  0  0  0  0  0  0  0  0  0  0
  -21.1645  -20.6543   18.8309 C   0  0  0  0  0  0  0  0  0  0  0  0
  -27.2219  -17.1605   17.2760 C   0  0  0  0  0  0  0  0  0  0  0  0
  -21.6582  -29.6964   22.3278 C   0  0  0  0  0  0  0  0  0  0  0  0
  -22.6296  -28.6553   24.2795 C   0  0  0  0  0  0  0  0  0  0  0  0
  -28.5846  -17.1840   17.5697 C   0  0  0  0  0  0  0  0  0  0  0  0
  -18.7963  -28.4899   23.6613 C   0  0  0  0  0  0  0  0  0  0  0  0
  -17.5035  -28.3591   23.1544 C   0  0  0  0  0  0  0  0  0  0  0  0
  -28.1539  -16.0113   19.6333 C   0  0  0  0  0  0  0  0  0  0  0  0
  -29.6762  -19.5147   21.1821 C   0  0  0  0  0  0  0  0  0  0  0  0
  -17.2314  -30.7586   23.2288 C   0  0  0  0  0  0  0  0  0  0  0  0
  -23.7228  -28.4567   22.1342 C   0  0  0  0  0  0  0  0  0  0  0  0
  -26.0336  -28.6043   21.0638 C   0  0  0  0  0  0  0  0  0  0  0  0
  -19.7357  -19.9477   20.6603 C   0  0  0  0  0  0  0  0  0  0  0  0
  -26.3122  -16.5709   18.1654 C   0  0  0  0  0  0  0  0  0  0  0  0
  -21.0081  -19.9893   20.0590 C   0  0  0  0  0  0  0  0  0  0  0  0
  -26.7805  -15.9794   19.3473 C   0  0  0  0  0  0  0  0  0  0  0  0
  -31.0540  -19.6004   21.0160 C   0  0  0  0  0  0  0  0  0  0  0  0
  -31.6645  -20.8479   20.9506 C   0  0  0  0  0  0  0  0  0  0  0  0
  -21.6176  -29.4156   23.6934 C   0  0  0  0  0  0  0  0  0  0  0  0
  -29.0505  -16.6119   18.7499 C   0  0  0  0  0  0  0  0  0  0  0  0
  -19.3067  -29.7551   23.9521 C   0  0  0  0  0  0  0  0  0  0  0  0
  -16.7210  -29.4934   22.9382 C   0  0  0  0  0  0  0  0  0  0  0  0
  -18.5243  -30.8894   23.7358 C   0  0  0  0  0  0  0  0  0  0  0  0
  -24.8101  -27.9607   21.3293 C   0  0  0  0  0  0  0  0  0  0  0  0
  -28.9596  -20.6967   21.2768 C   0  0  0  0  0  0  0  0  0  0  0  0
  -30.8589  -21.9703   21.0555 C   0  0  0  0  0  0  0  0  0  0  0  0
  -26.7155  -27.7263   20.2571 C   0  0  0  0  0  0  0  0  0  0  0  0
  -26.5113  -29.8815   21.5069 C   0  0  0  0  0  0  0  0  0  0  0  0
  -23.8321  -17.6150   19.8574 C   0  0  0  0  0  0  0  0  0  0  0  0
  -23.4828  -14.4672   20.5585 C   0  0  0  0  0  0  0  0  0  0  0  0
  -24.9198  -11.3844   20.8379 C   0  0  0  0  0  0  0  0  0  0  0  0
  -26.4219  -21.7906   19.5270 C   0  0  0  0  0  0  0  0  0  0  0  0
  -19.5122  -19.2907   21.9994 C   0  0  0  0  0  0  0  0  0  0  0  0
  -24.8485  -16.5301   17.8213 C   0  0  0  0  0  0  0  0  0  0  0  0
  -25.8473  -15.3159   20.3258 C   0  0  0  0  0  0  0  0  0  0  0  0
  -20.6317  -18.3348   22.4032 C   0  0  0  0  0  0  0  0  0  0  0  0
  -25.9892  -24.2802   17.0186 C   0  0  0  0  0  0  0  0  0  0  0  0
  -21.9944  -18.9792   22.1691 C   0  0  0  0  0  0  0  0  0  0  0  0
  -25.7483  -25.5638   17.8150 C   0  0  0  0  0  0  0  0  0  0  0  0
  -25.3513  -23.0685   17.6947 C   0  0  0  0  0  0  0  0  0  0  0  0
  -25.4946  -24.1563   19.9015 C   0  0  0  0  0  0  0  0  0  0  0  0
  -22.2033  -19.3040   20.6851 C   0  0  1  0  0  0  0  0  0  0  0  0
  -23.9519  -16.3577   19.0435 C   0  0  1  0  0  0  0  0  0  0  0  0
  -26.1668  -25.3966   19.2882 C   0  0  2  0  0  0  0  0  0  0  0  0
  -33.1409  -20.9706   20.7754 C   0  0  0  0  0  0  0  0  0  0  0  0
  -24.3899   -9.0138   21.4680 C   0  0  0  0  0  0  0  0  0  0  0  0
  -32.7353  -25.4627   17.9679 C   0  0  0  0  0  0  0  0  0  0  0  0
  -31.4732  -26.2328   19.9864 C   0  0  0  0  0  0  0  0  0  0  0  0
  -23.4925  -15.2514   23.5073 C   0  0  0  0  0  0  0  0  0  0  0  0
  -23.9185  -12.8499   24.0727 C   0  0  0  0  0  0  0  0  0  0  0  0
  -21.8150  -13.4990   22.8993 C   0  0  0  0  0  0  0  0  0  0  0  0
  -25.6327  -10.3867   18.1444 C   0  0  0  0  0  0  0  0  0  0  0  0
  -31.8596  -18.3304   20.9071 C   0  0  0  0  0  0  0  0  0  0  0  0
  -31.4572  -23.3378   20.9940 C   0  0  0  0  0  0  0  0  0  0  0  0
  -27.4792  -20.6431   21.4568 C   0  0  0  0  0  0  0  0  0  0  0  0
  -32.3014  -18.0018   19.4794 C   0  0  0  0  0  0  0  0  0  0  0  0
  -31.8192  -23.7425   19.5537 C   0  0  0  0  0  0  0  0  0  0  0  0
  -31.1366  -17.7332   18.5336 C   0  0  0  0  0  0  0  0  0  1  0  0
  -24.0045  -13.5476   21.6361 C   0  0  1  0  0  0  0  0  0  0  0  0
  -24.4848  -10.0207   20.3323 C   0  0  2  0  0  0  0  0  0  0  0  0
  -32.4110  -25.1591   19.4328 C   0  0  0  0  0  0  0  0  0  0  0  0
  -23.3252  -13.8011   23.0115 C   0  0  0  0  0  0  0  0  0  0  0  0
  -24.7170  -26.7662   20.7389 N   0  0  0  0  0  0  0  0  0  0  0  0
  -29.5174  -21.9267   21.2176 N   0  0  0  0  0  0  0  0  0  0  0  0
  -25.8908  -26.6522   20.0945 N   0  0  0  0  0  0  0  0  0  0  0  0
  -24.4245  -15.3072   19.9475 N   0  0  0  0  0  0  0  0  0  0  0  0
  -25.7904  -22.9662   19.0885 N   0  0  0  0  0  0  0  0  0  0  0  0
  -27.9339  -27.7760   19.6781 N   0  0  0  0  0  0  0  0  0  0  0  0
  -25.6829  -30.6553   22.3311 N   0  0  0  0  0  0  0  0  0  0  0  0
  -22.5435  -18.1057   19.9484 N   0  0  0  0  0  0  0  0  0  0  0  0
  -23.8390  -12.1897   21.1292 N   0  0  0  0  0  0  0  0  0  0  0  0
  -26.8121  -21.7789   20.8605 N   0  0  0  0  0  0  0  0  0  0  0  0
  -25.4581   -9.5060   19.3280 N   0  3  0  0  0  0  0  0  0  0  0  0
  -27.6325  -30.3305   21.1682 O   0  0  0  0  0  0  0  0  0  0  0  0
  -24.8343  -18.1030   20.3665 O   0  0  0  0  0  0  0  0  0  0  0  0
  -22.2851  -14.4361   20.2646 O   0  0  0  0  0  0  0  0  0  0  0  0
  -26.1001  -11.7021   20.9656 O   0  0  0  0  0  0  0  0  0  0  0  0
  -26.6279  -20.8252   18.7836 O   0  0  0  0  0  0  0  0  0  0  0  0
  -20.5907  -29.8834   24.4546 O   0  0  0  0  0  0  0  0  0  0  0  0
  -30.3800  -16.6340   19.0393 O   0  0  0  0  0  0  0  0  0  1  0  0
  -15.4800  -29.3676   22.4499 F   0  0  0  0  0  0  0  0  0  0  0  0
  -19.0096  -32.1076   24.0121 F   0  0  0  0  0  0  0  0  0  0  0  0
  1  2  1  0  0  0  0
  1  5  2  0  0  0  0
  2  6  2  0  0  0  0
  3  8  2  0  0  0  0
  3 16  1  0  0  0  0
  4  9  1  0  0  0  0
  4 16  2  0  0  0  0
  5 18  1  0  0  0  0
  6 20  1  0  0  0  0
  7 10  2  0  0  0  0
  7 19  1  0  0  0  0
  8 24  1  0  0  0  0
  9 24  2  0  0  0  0
 10 25  1  0  0  0  0
 11 12  2  0  0  0  0
 11 26  1  0  0  0  0
 12 27  1  0  0  0  0
 13 21  1  0  0  0  0
 13 25  2  0  0  0  0
 14 22  1  0  0  0  0
 14 30  2  0  0  0  0
 15 27  2  0  0  0  0
 15 28  1  0  0  0  0
 16 29  1  0  0  0  0
 17 29  1  0  0  0  0
 17 32  2  0  0  0  0
 17 33  1  0  0  0  0
 18 20  2  0  0  0  0
 18 38  1  0  0  0  0
 19 21  2  0  0  0  0
 19 39  1  0  0  0  0
 20 47  1  0  0  0  0
 21 40  1  0  0  0  0
 22 23  2  0  0  0  0
 22 58  1  0  0  0  0
 23 31  1  0  0  0  0
 23 50  1  0  0  0  0
 24 84  1  0  0  0  0
 25 85  1  0  0  0  0
 26 28  2  0  0  0  0
 26 84  1  0  0  0  0
 27 86  1  0  0  0  0
 28 87  1  0  0  0  0
 29 68  2  0  0  0  0
 30 60  1  0  0  0  0
 30 69  1  0  0  0  0
 31 59  1  0  0  0  0
 31 69  2  0  0  0  0
 32 70  1  0  0  0  0
 32 73  1  0  0  0  0
 33 74  1  0  0  0  0
 33 79  2  0  0  0  0
 34 48  1  0  0  0  0
 34 75  1  0  0  0  0
 34 80  2  0  0  0  0
 35 64  1  0  0  0  0
 35 71  1  0  0  0  0
 35 81  2  0  0  0  0
 36 65  1  0  0  0  0
 36 76  1  0  0  0  0
 36 82  2  0  0  0  0
 37 72  1  0  0  0  0
 37 77  1  0  0  0  0
 37 83  2  0  0  0  0
 38 41  1  0  0  0  0
 39 48  1  0  0  0  0
 40 71  1  0  0  0  0
 41 43  1  0  0  0  0
 42 44  1  0  0  0  0
 42 45  1  0  0  0  0
 43 47  1  0  0  0  0
 44 49  1  0  0  0  0
 45 72  1  0  0  0  0
 46 49  1  0  0  0  0
 46 72  1  0  0  0  0
 47 75  1  0  0  0  0
 48 71  1  0  0  0  0
 49 70  1  0  0  0  0
 51 65  1  0  0  0  0
 52 66  1  0  0  0  0
 53 66  1  0  0  0  0
 54 67  1  0  0  0  0
 55 67  1  0  0  0  0
 56 67  1  0  0  0  0
 57 78  1  0  0  0  0
 58 61  1  0  0  0  0
 59 62  1  0  0  0  0
 60 77  1  0  0  0  0
 61 63  1  0  0  0  0
 62 66  1  0  0  0  0
 63 85  1  0  0  0  0
 64 67  1  0  0  0  0
 64 76  1  0  0  0  0
 65 78  1  0  0  0  0
 68 70  1  0  0  0  0
M  CHG  1  78   1
M  ISO  4  37 100  63 101  77 100  85 101
M  END
> <Batch ID>
0097

> <Smiles>
CNC(C)C(=O)NC(C(=O)N1Cc2cc([101O:1][101CH2:1]CCc3cc(C[100NH:0][100C:0](=O)N4CCCC(n5nc(-c6ccc(Oc7ccc(F)cc7F)cc6)c(C(N)=O)c5N)C4)nc(CCC(C)C)c3C)ccc2CC1C(=O)NC1CCCc2ccccc21)C(C)(C)C

> <Shape>
0.215

> <Color>
0.064

> <Negative vol penalty>
0.000

$$$$

  -OEChem-04052319263D

 89 97  0     1  0  0  0  0  0999 V2000
  -18.4196  -26.7147   19.0680 C   0  0  0  0  0  0  0  0  0  0  0  0
  -19.5375  -27.5164   18.8612 C   0  0  0  0  0  0  0  0  0  0  0  0
  -27.5984  -20.3084   20.0023 C   0  0  0  0  0  0  0  0  0  0  0  0
  -29.9548  -20.3230   20.5351 C   0  0  0  0  0  0  0  0  0  0  0  0
  -18.0004  -26.4263   20.3661 C   0  0  0  0  0  0  0  0  0  0  0  0
  -20.2364  -28.0312   19.9526 C   0  0  0  0  0  0  0  0  0  0  0  0
  -25.2538  -27.5811   19.4341 C   0  0  0  0  0  0  0  0  0  0  0  0
  -27.5493  -18.9379   20.2568 C   0  0  0  0  0  0  0  0  0  0  0  0
  -29.9058  -18.9524   20.7897 C   0  0  0  0  0  0  0  0  0  0  0  0
  -25.8927  -28.4987   18.6013 C   0  0  0  0  0  0  0  0  0  0  0  0
  -29.8701  -16.0854   18.9981 C   0  0  0  0  0  0  0  0  0  0  0  0
  -30.8884  -15.2914   18.4707 C   0  0  0  0  0  0  0  0  0  0  0  0
  -26.5782  -29.7674   20.5351 C   0  0  0  0  0  0  0  0  0  0  0  0
  -31.5587  -29.0403   20.4249 C   0  0  0  0  0  0  0  0  0  0  0  0
  -31.5010  -14.5952   20.7017 C   0  0  0  0  0  0  0  0  0  0  0  0
  -28.8012  -21.0009   20.1414 C   0  0  0  0  0  0  0  0  0  0  0  0
  -28.6385  -23.4607   20.7976 C   0  0  0  0  0  0  0  0  0  0  0  0
  -18.7002  -26.9299   21.4740 C   0  0  0  0  0  0  0  0  0  0  0  0
  -25.2630  -27.7559   20.8254 C   0  0  0  0  0  0  0  0  0  0  0  0
  -19.8255  -27.7504   21.2667 C   0  0  0  0  0  0  0  0  0  0  0  0
  -25.9408  -28.8491   21.3835 C   0  0  0  0  0  0  0  0  0  0  0  0
  -32.8838  -28.9748   20.9217 C   0  0  0  0  0  0  0  0  0  0  0  0
  -28.7029  -18.2599   20.6506 C   0  0  0  0  0  0  0  0  0  0  0  0
  -26.5526  -29.5936   19.1516 C   0  0  0  0  0  0  0  0  0  0  0  0
  -29.6673  -16.1344   20.3773 C   0  0  0  0  0  0  0  0  0  0  0  0
  -31.7039  -14.5463   19.3225 C   0  0  0  0  0  0  0  0  0  0  0  0
  -30.4827  -15.3893   21.2291 C   0  0  0  0  0  0  0  0  0  0  0  0
  -28.8527  -22.4166   19.8780 C   0  0  0  0  0  0  0  0  0  0  0  0
  -31.6377  -29.1269   19.0525 C   0  0  0  0  0  0  0  0  0  0  0  0
  -33.7323  -29.0234   19.8377 C   0  0  0  0  0  0  0  0  0  0  0  0
  -28.7993  -24.6074   20.0588 C   0  0  0  0  0  0  0  0  0  0  0  0
  -28.3225  -23.3996   22.1948 C   0  0  0  0  0  0  0  0  0  0  0  0
  -23.0323  -28.2082   23.0442 C   0  0  0  0  0  0  0  0  0  0  0  0
  -25.5468  -27.9244   25.0738 C   0  0  0  0  0  0  0  0  0  0  0  0
  -28.9149  -28.1704   25.5659 C   0  0  0  0  0  0  0  0  0  0  0  0
  -31.9922  -26.7131   15.7131 C   0  0  0  0  0  0  0  0  0  0  0  0
  -18.1814  -26.6297   22.8579 C   0  0  0  0  0  0  0  0  0  0  0  0
  -24.5919  -26.7426   21.7115 C   0  0  0  0  0  0  0  0  0  0  0  0
  -25.9974  -29.0712   22.8721 C   0  0  0  0  0  0  0  0  0  0  0  0
  -19.1977  -26.9066   23.9628 C   0  0  0  0  0  0  0  0  0  0  0  0
  -28.6106  -25.7035   15.2417 C   0  0  0  0  0  0  0  0  0  0  0  0
  -19.8579  -28.2656   23.7525 C   0  0  0  0  0  0  0  0  0  0  0  0
  -28.3084  -24.8501   16.4746 C   0  0  0  0  0  0  0  0  0  0  0  0
  -30.0470  -25.5110   14.7603 C   0  0  0  0  0  0  0  0  0  0  0  0
  -30.7773  -24.8694   17.0250 C   0  0  0  0  0  0  0  0  0  0  0  0
  -20.6245  -28.3071   22.4251 C   0  0  1  0  0  0  0  0  0  0  0  0
  -24.2273  -27.2981   23.0848 C   0  0  1  0  0  0  0  0  0  0  0  0
  -29.3573  -25.0718   17.5809 C   0  0  2  0  0  0  0  0  0  0  0  0
  -35.2094  -28.9897   19.7818 C   0  0  0  0  0  0  0  0  0  0  0  0
  -30.6704  -27.9127   27.3405 C   0  0  0  0  0  0  0  0  0  0  0  0
  -35.4191  -26.2055   24.2615 C   0  0  0  0  0  0  0  0  0  0  0  0
  -35.4015  -28.6892   24.5634 C   0  0  0  0  0  0  0  0  0  0  0  0
  -28.6006  -32.2710   16.5128 C   0  0  0  0  0  0  0  0  0  0  0  0
  -24.7052  -30.5930   26.2904 C   0  0  0  0  0  0  0  0  0  0  0  0
  -26.9652  -30.7399   27.3576 C   0  0  0  0  0  0  0  0  0  0  0  0
  -25.4259  -28.8695   27.9531 C   0  0  0  0  0  0  0  0  0  0  0  0
  -30.2856  -26.0217   24.0614 C   0  0  0  0  0  0  0  0  0  0  0  0
  -33.2750  -28.8725   22.3417 C   0  0  0  0  0  0  0  0  0  0  0  0
  -30.5373  -29.2202   18.0253 C   0  0  0  0  0  0  0  0  0  0  0  0
  -34.1259  -27.6153   22.6325 C   0  0  0  0  0  0  0  0  0  0  0  0
  -30.1168  -30.6580   17.6902 C   0  0  0  0  0  0  0  0  0  0  0  0
  -33.4739  -29.1910   17.3538 C   0  0  0  0  0  0  0  0  0  0  0  0
  -33.9160  -27.8361   16.8071 C   0  0  0  0  0  0  0  0  0  0  0  0
  -27.6986  -29.9989   17.1075 C   0  0  0  0  0  0  0  0  0  1  0  0
  -26.5413  -28.8821   25.6842 C   0  0  1  0  0  0  0  0  0  0  0  0
  -29.9094  -27.2262   26.2170 C   0  0  2  0  0  0  0  0  0  0  0  0
  -34.5893  -27.4810   24.0951 C   0  0  0  0  0  0  0  0  0  0  0  0
  -28.9472  -30.7871   16.6894 C   0  0  1  0  0  0  0  0  0  0  0  0
  -25.9069  -29.7682   26.7931 C   0  0  0  0  0  0  0  0  0  0  0  0
  -29.1284  -22.8606   18.6488 N   0  0  0  0  0  0  0  0  0  0  0  0
  -32.9638  -29.1161   18.7068 N   0  0  0  0  0  0  0  0  0  0  0  0
  -29.0884  -24.1964   18.7909 N   0  0  0  0  0  0  0  0  0  0  0  0
  -25.3207  -28.0562   23.6963 N   0  0  0  0  0  0  0  0  0  0  0  0
  -30.9920  -25.7374   15.8565 N   0  0  0  0  0  0  0  0  0  0  0  0
  -28.7201  -25.9170   20.3766 N   0  0  0  0  0  0  0  0  0  0  0  0
  -28.1936  -22.1402   22.7962 N   0  0  0  0  0  0  0  0  0  0  0  0
  -21.8880  -27.6124   22.5492 N   0  0  0  0  0  0  0  0  0  0  0  0
  -27.6646  -28.0695   26.1385 N   0  0  0  0  0  0  0  0  0  0  0  0
  -32.8419  -26.8681   16.8015 N   0  0  0  0  0  0  0  0  0  0  0  0
  -30.8950  -26.7381   25.2114 N   0  3  0  0  0  0  0  0  0  0  0  0
  -28.1432  -24.4311   22.8857 O   0  0  0  0  0  0  0  0  0  0  0  0
  -23.1401  -29.3647   23.4346 O   0  0  0  0  0  0  0  0  0  0  0  0
  -24.9964  -27.0854   25.7913 O   0  0  0  0  0  0  0  0  0  0  0  0
  -29.2179  -28.9248   24.6442 O   0  0  0  0  0  0  0  0  0  0  0  0
  -32.1153  -27.3993   14.6928 O   0  0  0  0  0  0  0  0  0  0  0  0
  -28.6553  -16.9225   20.8993 O   0  0  0  0  0  0  0  0  0  0  0  0
  -27.1764  -30.4911   18.3410 O   0  0  0  0  0  0  0  0  0  1  0  0
  -32.6807  -13.7826   18.8158 F   0  0  0  0  0  0  0  0  0  0  0  0
  -30.2919  -15.4313   22.5548 F   0  0  0  0  0  0  0  0  0  0  0  0
  1  2  1  0  0  0  0
  1  5  2  0  0  0  0
  2  6  2  0  0  0  0
  3  8  2  0  0  0  0
  3 16  1  0  0  0  0
  4  9  1  0  0  0  0
  4 16  2  0  0  0  0
  5 18  1  0  0  0  0
  6 20  1  0  0  0  0
  7 10  2  0  0  0  0
  7 19  1  0  0  0  0
  8 23  1  0  0  0  0
  9 23  2  0  0  0  0
 10 24  1  0  0  0  0
 11 12  2  0  0  0  0
 11 25  1  0  0  0  0
 12 26  1  0  0  0  0
 13 21  1  0  0  0  0
 13 24  2  0  0  0  0
 14 22  1  0  0  0  0
 14 29  2  0  0  0  0
 15 26  2  0  0  0  0
 15 27  1  0  0  0  0
 16 28  1  0  0  0  0
 17 28  1  0  0  0  0
 17 31  2  0  0  0  0
 17 32  1  0  0  0  0
 18 20  2  0  0  0  0
 18 37  1  0  0  0  0
 19 21  2  0  0  0  0
 19 38  1  0  0  0  0
 20 46  1  0  0  0  0
 21 39  1  0  0  0  0
 22 30  2  0  0  0  0
 22 58  1  0  0  0  0
 23 86  1  0  0  0  0
 24 87  1  0  0  0  0
 25 27  2  0  0  0  0
 25 86  1  0  0  0  0
 26 88  1  0  0  0  0
 27 89  1  0  0  0  0
 28 70  2  0  0  0  0
 29 59  1  0  0  0  0
 29 71  1  0  0  0  0
 30 49  1  0  0  0  0
 30 71  1  0  0  0  0
 31 72  1  0  0  0  0
 31 75  1  0  0  0  0
 32 76  1  0  0  0  0
 32 81  2  0  0  0  0
 33 47  1  0  0  0  0
 33 77  1  0  0  0  0
 33 82  2  0  0  0  0
 34 65  1  0  0  0  0
 34 73  1  0  0  0  0
 34 83  2  0  0  0  0
 35 66  1  0  0  0  0
 35 78  1  0  0  0  0
 35 84  2  0  0  0  0
 36 74  1  0  0  0  0
 36 79  1  0  0  0  0
 36 85  2  0  0  0  0
 37 40  1  0  0  0  0
 38 47  1  0  0  0  0
 39 73  1  0  0  0  0
 40 42  1  0  0  0  0
 41 43  1  0  0  0  0
 41 44  1  0  0  0  0
 42 46  1  0  0  0  0
 43 48  1  0  0  0  0
 44 74  1  0  0  0  0
 45 48  1  0  0  0  0
 45 74  1  0  0  0  0
 46 77  1  0  0  0  0
 47 73  1  0  0  0  0
 48 72  1  0  0  0  0
 50 66  1  0  0  0  0
 51 67  1  0  0  0  0
 52 67  1  0  0  0  0
 53 68  1  0  0  0  0
 54 69  1  0  0  0  0
 55 69  1  0  0  0  0
 56 69  1  0  0  0  0
 57 80  1  0  0  0  0
 58 60  1  0  0  0  0
 59 61  1  0  0  0  0
 60 67  1  0  0  0  0
 61 68  1  0  0  0  0
 62 63  1  0  0  0  0
 62 71  1  0  0  0  0
 63 79  1  0  0  0  0
 64 68  1  0  0  0  0
 64 87  1  0  0  0  0
 65 69  1  0  0  0  0
 65 78  1  0  0  0  0
 66 80  1  0  0  0  0
 70 72  1  0  0  0  0
M  CHG  1  80   1
M  ISO  4  36 100  64 101  79 100  87 101
M  END
> <Batch ID>
0097

> <Smiles>
CNC(C)C(=O)NC(C(=O)N1Cc2cc([101O:1][101CH2:1]C(C)CCc3cc(CCC(C)C)c(C)n3CC[100NH:0][100C:0](=O)N3CCCC(n4nc(-c5ccc(Oc6ccc(F)cc6F)cc5)c(C(N)=O)c4N)C3)ccc2CC1C(=O)NC1CCCc2ccccc21)C(C)(C)C

> <Shape>
0.198

> <Color>
0.074

> <Negative vol penalty>
0.000

$$$$

  -OEChem-04052319263D

 88 96  0     1  0  0  0  0  0999 V2000
  -35.5608  -32.6587   15.9474 C   0  0  0  0  0  0  0  0  0  0  0  0
  -34.9831  -31.6344   16.6907 C   0  0  0  0  0  0  0  0  0  0  0  0
  -23.0912   -9.8814   19.9023 C   0  0  0  0  0  0  0  0  0  0  0  0
  -23.8357   -9.8351   22.2002 C   0  0  0  0  0  0  0  0  0  0  0  0
  -34.8997  -33.1654   14.8293 C   0  0  0  0  0  0  0  0  0  0  0  0
  -33.7433  -31.1170   16.3170 C   0  0  0  0  0  0  0  0  0  0  0  0
  -31.8689  -25.3101   16.8387 C   0  0  0  0  0  0  0  0  0  0  0  0
  -22.3446   -8.7236   20.1209 C   0  0  0  0  0  0  0  0  0  0  0  0
  -23.0891   -8.6774   22.4189 C   0  0  0  0  0  0  0  0  0  0  0  0
  -31.0812  -24.6604   17.7879 C   0  0  0  0  0  0  0  0  0  0  0  0
  -19.8563   -7.8694   22.9815 C   0  0  0  0  0  0  0  0  0  0  0  0
  -19.0915   -7.8035   24.1460 C   0  0  0  0  0  0  0  0  0  0  0  0
  -29.1447  -24.9682   16.3828 C   0  0  0  0  0  0  0  0  0  0  0  0
  -26.5533  -19.0647   18.8846 C   0  0  0  0  0  0  0  0  0  0  0  0
  -20.3262   -5.8484   24.8463 C   0  0  0  0  0  0  0  0  0  0  0  0
  -23.8368  -10.4371   20.9420 C   0  0  0  0  0  0  0  0  0  0  0  0
  -24.1817  -12.9640   20.8820 C   0  0  0  0  0  0  0  0  0  0  0  0
  -33.6557  -32.6473   14.4361 C   0  0  0  0  0  0  0  0  0  0  0  0
  -31.2975  -25.8042   15.6573 C   0  0  0  0  0  0  0  0  0  0  0  0
  -33.0643  -31.6181   15.1934 C   0  0  0  0  0  0  0  0  0  0  0  0
  -29.9278  -25.6215   15.4190 C   0  0  0  0  0  0  0  0  0  0  0  0
  -26.5179  -18.0487   17.8980 C   0  0  0  0  0  0  0  0  0  0  0  0
  -22.3436   -8.1216   21.3791 C   0  0  0  0  0  0  0  0  0  0  0  0
  -29.7183  -24.4919   17.5614 C   0  0  0  0  0  0  0  0  0  0  0  0
  -20.8560   -6.9247   22.7492 C   0  0  0  0  0  0  0  0  0  0  0  0
  -19.3265   -6.7931   25.0785 C   0  0  0  0  0  0  0  0  0  0  0  0
  -21.0910   -5.9143   23.6816 C   0  0  0  0  0  0  0  0  0  0  0  0
  -24.6087  -11.6328   20.7167 C   0  0  0  0  0  0  0  0  0  0  0  0
  -27.6504  -18.8254   19.6823 C   0  0  0  0  0  0  0  0  0  0  0  0
  -27.5944  -17.2193   18.1229 C   0  0  0  0  0  0  0  0  0  0  0  0
  -25.2769  -13.7204   20.5432 C   0  0  0  0  0  0  0  0  0  0  0  0
  -22.9089  -13.4714   21.3041 C   0  0  0  0  0  0  0  0  0  0  0  0
  -30.9787  -28.6858   14.3541 C   0  0  0  0  0  0  0  0  0  0  0  0
  -29.7945  -26.9950   11.8519 C   0  0  0  0  0  0  0  0  0  0  0  0
  -28.3069  -24.1347   10.7328 C   0  0  0  0  0  0  0  0  0  0  0  0
  -30.8793  -14.4130   21.2147 C   0  0  0  0  0  0  0  0  0  0  0  0
  -32.9572  -33.2595   13.2478 C   0  0  0  0  0  0  0  0  0  0  0  0
  -32.1658  -26.4790   14.6311 C   0  0  0  0  0  0  0  0  0  0  0  0
  -29.2695  -26.1155   14.1576 C   0  0  0  0  0  0  0  0  0  0  0  0
  -31.8204  -32.4004   12.7003 C   0  0  0  0  0  0  0  0  0  0  0  0
  -29.6363  -12.4340   18.3442 C   0  0  0  0  0  0  0  0  0  0  0  0
  -30.9364  -31.8972   13.8370 C   0  0  0  0  0  0  0  0  0  0  0  0
  -28.2045  -12.1037   18.7623 C   0  0  0  0  0  0  0  0  0  0  0  0
  -30.5511  -12.6198   19.5510 C   0  0  0  0  0  0  0  0  0  0  0  0
  -28.6268  -13.2955   20.9491 C   0  0  0  0  0  0  0  0  0  0  0  0
  -31.7324  -31.0138   14.8052 C   0  0  1  0  0  0  0  0  0  0  0  0
  -31.3834  -27.3967   13.6968 C   0  0  1  0  0  0  0  0  0  0  0  0
  -27.6689  -13.1479   19.7574 C   0  0  2  0  0  0  0  0  0  0  0  0
  -28.0329  -16.0090   17.3956 C   0  0  0  0  0  0  0  0  0  0  0  0
  -26.7467  -19.3217   15.0816 C   0  0  0  0  0  0  0  0  0  0  0  0
  -24.0913  -17.6589   17.3978 C   0  0  0  0  0  0  0  0  0  0  0  0
  -27.4276  -23.0593    8.6429 C   0  0  0  0  0  0  0  0  0  0  0  0
  -27.3256  -28.7838   11.9731 C   0  0  0  0  0  0  0  0  0  0  0  0
  -26.1255  -27.1051   10.5553 C   0  0  0  0  0  0  0  0  0  0  0  0
  -28.1364  -28.2800    9.6615 C   0  0  0  0  0  0  0  0  0  0  0  0
  -31.2929  -16.5850   22.3061 C   0  0  0  0  0  0  0  0  0  0  0  0
  -30.2194  -21.8861   10.9464 C   0  0  0  0  0  0  0  0  0  0  0  0
  -28.1620  -19.5911   20.8764 C   0  0  0  0  0  0  0  0  0  0  0  0
  -25.4418  -19.1174   15.8417 C   0  0  0  0  0  0  0  0  0  0  0  0
  -29.1599  -20.6987   20.5206 C   0  0  0  0  0  0  0  0  0  0  0  0
  -28.5492  -21.7974   19.6494 C   0  0  0  0  0  0  0  0  0  0  0  0
  -29.4724  -17.1128   19.7741 C   0  0  0  0  0  0  0  0  0  0  0  0
  -29.1988  -16.2962   21.0345 C   0  0  0  0  0  0  0  0  0  0  0  0
  -29.5789  -22.8579   19.2838 C   0  0  0  0  0  0  0  0  0  1  0  0
  -25.5095  -17.9115   16.8283 C   0  0  1  0  0  0  0  0  0  0  0  0
  -28.4252  -26.5089   11.4425 C   0  0  1  0  0  0  0  0  0  0  0  0
  -28.6283  -23.2239    9.5616 C   0  0  2  0  0  0  0  0  0  0  0  0
  -27.5149  -27.6617   10.9329 C   0  0  0  0  0  0  0  0  0  0  0  0
  -25.8762  -11.5452   20.3047 N   0  0  0  0  0  0  0  0  0  0  0  0
  -28.2756  -17.7009   19.2102 N   0  0  0  0  0  0  0  0  0  0  0  0
  -26.2551  -12.8310   20.2083 N   0  0  0  0  0  0  0  0  0  0  0  0
  -30.1596  -26.7745   13.1875 N   0  0  0  0  0  0  0  0  0  0  0  0
  -29.9972  -13.5851   20.5011 N   0  0  0  0  0  0  0  0  0  0  0  0
  -25.4890  -15.0530   20.5020 N   0  0  0  0  0  0  0  0  0  0  0  0
  -21.8939  -12.5559   21.6137 N   0  0  0  0  0  0  0  0  0  0  0  0
  -31.9195  -29.6921   14.2460 N   0  0  0  0  0  0  0  0  0  0  0  0
  -28.6441  -25.4452   10.4682 N   0  0  0  0  0  0  0  0  0  0  0  0
  -30.4113  -15.6857   21.5753 N   0  0  0  0  0  0  0  0  0  0  0  0
  -29.0347  -21.8759   10.0500 N   0  3  0  0  0  0  0  0  0  0  0  0
  -22.6734  -14.7007   21.3880 O   0  0  0  0  0  0  0  0  0  0  0  0
  -29.8926  -28.7623   14.9165 O   0  0  0  0  0  0  0  0  0  0  0  0
  -30.5165  -27.5436   11.0156 O   0  0  0  0  0  0  0  0  0  0  0  0
  -27.8035  -23.7251   11.7765 O   0  0  0  0  0  0  0  0  0  0  0  0
  -32.0233  -14.0398   21.5042 O   0  0  0  0  0  0  0  0  0  0  0  0
  -21.6150   -6.9920   21.5929 O   0  0  0  0  0  0  0  0  0  0  0  0
  -28.9470  -23.8587   18.4866 O   0  0  0  0  0  0  0  0  0  1  0  0
  -18.5930   -6.7308   26.1976 F   0  0  0  0  0  0  0  0  0  0  0  0
  -22.0508   -5.0047   23.4646 F   0  0  0  0  0  0  0  0  0  0  0  0
  1  2  1  0  0  0  0
  1  5  2  0  0  0  0
  2  6  2  0  0  0  0
  3  8  2  0  0  0  0
  3 16  1  0  0  0  0
  4  9  1  0  0  0  0
  4 16  2  0  0  0  0
  5 18  1  0  0  0  0
  6 20  1  0  0  0  0
  7 10  2  0  0  0  0
  7 19  1  0  0  0  0
  8 23  1  0  0  0  0
  9 23  2  0  0  0  0
 10 24  1  0  0  0  0
 11 12  2  0  0  0  0
 11 25  1  0  0  0  0
 12 26  1  0  0  0  0
 13 21  1  0  0  0  0
 13 24  2  0  0  0  0
 14 22  1  0  0  0  0
 14 29  2  0  0  0  0
 15 26  2  0  0  0  0
 15 27  1  0  0  0  0
 16 28  1  0  0  0  0
 17 28  1  0  0  0  0
 17 31  2  0  0  0  0
 17 32  1  0  0  0  0
 18 20  2  0  0  0  0
 18 37  1  0  0  0  0
 19 21  2  0  0  0  0
 19 38  1  0  0  0  0
 20 46  1  0  0  0  0
 21 39  1  0  0  0  0
 22 30  2  0  0  0  0
 22 65  1  0  0  0  0
 23 85  1  0  0  0  0
 24 86  1  0  0  0  0
 25 27  2  0  0  0  0
 25 85  1  0  0  0  0
 26 87  1  0  0  0  0
 27 88  1  0  0  0  0
 28 69  2  0  0  0  0
 29 58  1  0  0  0  0
 29 70  1  0  0  0  0
 30 49  1  0  0  0  0
 30 70  1  0  0  0  0
 31 71  1  0  0  0  0
 31 74  1  0  0  0  0
 32 75  1  0  0  0  0
 32 80  2  0  0  0  0
 33 47  1  0  0  0  0
 33 76  1  0  0  0  0
 33 81  2  0  0  0  0
 34 66  1  0  0  0  0
 34 72  1  0  0  0  0
 34 82  2  0  0  0  0
 35 67  1  0  0  0  0
 35 77  1  0  0  0  0
 35 83  2  0  0  0  0
 36 73  1  0  0  0  0
 36 78  1  0  0  0  0
 36 84  2  0  0  0  0
 37 40  1  0  0  0  0
 38 47  1  0  0  0  0
 39 72  1  0  0  0  0
 40 42  1  0  0  0  0
 41 43  1  0  0  0  0
 41 44  1  0  0  0  0
 42 46  1  0  0  0  0
 43 48  1  0  0  0  0
 44 73  1  0  0  0  0
 45 48  1  0  0  0  0
 45 73  1  0  0  0  0
 46 76  1  0  0  0  0
 47 72  1  0  0  0  0
 48 71  1  0  0  0  0
 50 59  1  0  0  0  0
 51 65  1  0  0  0  0
 52 67  1  0  0  0  0
 53 68  1  0  0  0  0
 54 68  1  0  0  0  0
 55 68  1  0  0  0  0
 56 78  1  0  0  0  0
 57 79  1  0  0  0  0
 58 60  1  0  0  0  0
 59 65  1  0  0  0  0
 60 61  1  0  0  0  0
 61 64  1  0  0  0  0
 62 63  1  0  0  0  0
 62 70  1  0  0  0  0
 63 78  1  0  0  0  0
 64 86  1  0  0  0  0
 66 68  1  0  0  0  0
 66 77  1  0  0  0  0
 67 79  1  0  0  0  0
 69 71  1  0  0  0  0
M  CHG  1  79   1
M  ISO  4  36 100  64 101  78 100  86 101
M  END
> <Batch ID>
0097

> <Smiles>
CCC(C)c1cc(CCC[101CH2:1][101O:1]c2ccc3c(c2)CN(C(=O)C(NC(=O)C(C)NC)C(C)(C)C)C(C(=O)NC2CCCc4ccccc42)C3)n(CC[100N:0](C)[100C:0](=O)N2CCCC(n3nc(-c4ccc(Oc5ccc(F)cc5F)cc4)c(C(N)=O)c3N)C2)c1C

> <Shape>
0.230

> <Color>
0.185

> <Negative vol penalty>
0.000

$$$$

  -OEChem-04052319263D

 89 97  0     1  0  0  0  0  0999 V2000
  -27.2633  -34.0838   23.2768 C   0  0  0  0  0  0  0  0  0  0  0  0
  -26.9369  -33.0793   24.1823 C   0  0  0  0  0  0  0  0  0  0  0  0
  -23.7481   -9.6300   21.0369 C   0  0  0  0  0  0  0  0  0  0  0  0
  -24.3381  -10.4620   23.2270 C   0  0  0  0  0  0  0  0  0  0  0  0
  -27.0792  -33.8759   21.9105 C   0  0  0  0  0  0  0  0  0  0  0  0
  -26.4252  -31.8665   23.7219 C   0  0  0  0  0  0  0  0  0  0  0  0
  -26.4213  -24.8682   25.2516 C   0  0  0  0  0  0  0  0  0  0  0  0
  -27.0753  -19.9888   25.1015 C   0  0  0  0  0  0  0  0  0  0  0  0
  -23.2191   -8.4773   21.6172 C   0  0  0  0  0  0  0  0  0  0  0  0
  -23.8090   -9.3092   23.8074 C   0  0  0  0  0  0  0  0  0  0  0  0
  -25.5359  -23.8100   25.4520 C   0  0  0  0  0  0  0  0  0  0  0  0
  -20.7552   -8.0973   24.5988 C   0  0  0  0  0  0  0  0  0  0  0  0
  -19.9427   -8.2533   25.7217 C   0  0  0  0  0  0  0  0  0  0  0  0
  -28.3681  -19.7218   24.6646 C   0  0  0  0  0  0  0  0  0  0  0  0
  -25.3348  -23.5341   23.0639 C   0  0  0  0  0  0  0  0  0  0  0  0
  -21.4738   -6.9059   27.0168 C   0  0  0  0  0  0  0  0  0  0  0  0
  -24.3077  -10.6224   21.8418 C   0  0  0  0  0  0  0  0  0  0  0  0
  -24.1764  -13.0158   20.9689 C   0  0  0  0  0  0  0  0  0  0  0  0
  -26.5741  -32.6565   21.4325 C   0  0  0  0  0  0  0  0  0  0  0  0
  -26.7622  -25.2750   23.9536 C   0  0  0  0  0  0  0  0  0  0  0  0
  -26.2330  -31.6426   22.3480 C   0  0  0  0  0  0  0  0  0  0  0  0
  -26.2267  -24.5961   22.8498 C   0  0  0  0  0  0  0  0  0  0  0  0
  -26.0644  -19.0625   24.8707 C   0  0  0  0  0  0  0  0  0  0  0  0
  -23.2495   -8.3169   23.0025 C   0  0  0  0  0  0  0  0  0  0  0  0
  -24.9903  -23.1446   24.3580 C   0  0  0  0  0  0  0  0  0  0  0  0
  -21.9271   -7.3455   24.6848 C   0  0  0  0  0  0  0  0  0  0  0  0
  -20.3020   -7.6576   26.9307 C   0  0  0  0  0  0  0  0  0  0  0  0
  -22.2864   -6.7498   25.8938 C   0  0  0  0  0  0  0  0  0  0  0  0
  -24.8549  -11.8131   21.2428 C   0  0  0  0  0  0  0  0  0  0  0  0
  -28.5961  -18.5237   24.0072 C   0  0  0  0  0  0  0  0  0  0  0  0
  -26.3954  -17.8939   24.2038 C   0  0  0  0  0  0  0  0  0  0  0  0
  -25.1302  -13.8273   20.4047 C   0  0  0  0  0  0  0  0  0  0  0  0
  -22.8066  -13.3680   21.2037 C   0  0  0  0  0  0  0  0  0  0  0  0
  -26.4106  -27.9526   22.2771 C   0  0  0  0  0  0  0  0  0  0  0  0
  -28.2074  -26.3613   20.0950 C   0  0  0  0  0  0  0  0  0  0  0  0
  -29.2808  -23.3687   18.8543 C   0  0  0  0  0  0  0  0  0  0  0  0
  -31.1042  -13.9697   20.7822 C   0  0  0  0  0  0  0  0  0  0  0  0
  -26.3481  -32.4956   19.9500 C   0  0  0  0  0  0  0  0  0  0  0  0
  -27.7394  -26.4010   23.7546 C   0  0  0  0  0  0  0  0  0  0  0  0
  -26.5763  -24.9808   21.4362 C   0  0  0  0  0  0  0  0  0  0  0  0
  -26.1527  -31.0446   19.5177 C   0  0  0  0  0  0  0  0  0  0  0  0
  -29.1533  -13.6407   17.8220 C   0  0  0  0  0  0  0  0  0  0  0  0
  -25.1702  -30.3385   20.4466 C   0  0  0  0  0  0  0  0  0  0  0  0
  -27.7693  -13.2435   18.3383 C   0  0  0  0  0  0  0  0  0  0  0  0
  -30.2682  -13.0129   18.6556 C   0  0  0  0  0  0  0  0  0  0  0  0
  -28.7899  -12.8675   20.6221 C   0  0  0  0  0  0  0  0  0  0  0  0
  -25.6987  -30.3044   21.8856 C   0  0  1  0  0  0  0  0  0  0  0  0
  -27.6170  -27.0635   22.3858 C   0  0  1  0  0  0  0  0  0  0  0  0
  -27.6328  -13.5213   19.8474 C   0  0  2  0  0  0  0  0  0  0  0  0
  -30.7135  -22.3871   17.0429 C   0  0  0  0  0  0  0  0  0  0  0  0
  -24.5798  -13.4454   25.6753 C   0  0  0  0  0  0  0  0  0  0  0  0
  -22.9649  -15.1429   24.7973 C   0  0  0  0  0  0  0  0  0  0  0  0
  -26.0225  -26.9536   18.0492 C   0  0  0  0  0  0  0  0  0  0  0  0
  -27.0186  -25.1895   16.5782 C   0  0  0  0  0  0  0  0  0  0  0  0
  -28.3561  -27.2056   17.1858 C   0  0  0  0  0  0  0  0  0  0  0  0
  -31.0843  -22.0831   20.8174 C   0  0  0  0  0  0  0  0  0  0  0  0
  -24.6602  -19.3468   25.3409 C   0  0  0  0  0  0  0  0  0  0  0  0
  -25.3511  -16.8616   23.9311 C   0  0  0  0  0  0  0  0  0  0  0  0
  -29.9722  -18.2040   23.5262 C   0  0  0  0  0  0  0  0  0  0  0  0
  -23.7096  -19.7722   24.2198 C   0  0  0  0  0  0  0  0  0  0  0  0
  -25.4603  -15.6649   24.8932 C   0  0  0  0  0  0  0  0  0  0  0  0
  -31.7957  -14.8956   22.9785 C   0  0  0  0  0  0  0  0  0  0  0  0
  -31.6107  -16.4016   22.9737 C   0  0  0  0  0  0  0  0  0  0  0  0
  -24.1062  -21.0869   23.5581 C   0  0  0  0  0  0  0  0  0  1  0  0
  -27.9139  -25.4373   18.9379 C   0  0  1  0  0  0  0  0  0  0  0  0
  -30.6661  -22.8704   18.4841 C   0  0  2  0  0  0  0  0  0  0  0  0
  -24.3837  -14.5859   24.6732 C   0  0  0  0  0  0  0  0  0  0  0  0
  -27.3195  -26.1903   17.7143 C   0  0  0  0  0  0  0  0  0  0  0  0
  -26.1404  -11.8526   20.8821 N   0  0  0  0  0  0  0  0  0  0  0  0
  -27.6397  -17.5996   23.7646 N   0  0  0  0  0  0  0  0  0  0  0  0
  -26.2772  -13.0899   20.3757 N   0  0  0  0  0  0  0  0  0  0  0  0
  -27.5313  -26.0921   21.2934 N   0  0  0  0  0  0  0  0  0  0  0  0
  -30.0810  -13.3152   20.0767 N   0  0  0  0  0  0  0  0  0  0  0  0
  -25.0912  -15.0924   19.9354 N   0  0  0  0  0  0  0  0  0  0  0  0
  -21.9632  -12.4156   21.7918 N   0  0  0  0  0  0  0  0  0  0  0  0
  -26.7096  -29.2786   22.0286 N   0  0  0  0  0  0  0  0  0  0  0  0
  -29.1572  -24.7277   18.6565 N   0  0  0  0  0  0  0  0  0  0  0  0
  -30.8428  -14.2240   22.1230 N   0  0  0  0  0  0  0  0  0  0  0  0
  -31.0649  -21.7416   19.3717 N   0  3  0  0  0  0  0  0  0  0  0  0
  -30.2650  -16.7446   23.5034 N   0  3  0  0  0  0  0  0  0  0  0  0
  -22.3401  -14.4882   20.8858 O   0  0  0  0  0  0  0  0  0  0  0  0
  -25.2914  -27.4710   22.4075 O   0  0  0  0  0  0  0  0  0  0  0  0
  -29.0126  -27.2835   19.9433 O   0  0  0  0  0  0  0  0  0  0  0  0
  -28.3957  -22.6261   19.2733 O   0  0  0  0  0  0  0  0  0  0  0  0
  -32.1694  -14.3076   20.2548 O   0  0  0  0  0  0  0  0  0  0  0  0
  -22.7331   -7.1922   23.5692 O   0  0  0  0  0  0  0  0  0  0  0  0
  -24.1254  -22.1119   24.5508 O   0  0  0  0  0  0  0  0  0  1  0  0
  -19.5224   -7.8088   28.0094 F   0  0  0  0  0  0  0  0  0  0  0  0
  -23.4115   -6.0275   25.9828 F   0  0  0  0  0  0  0  0  0  0  0  0
  1  2  1  0  0  0  0
  1  5  2  0  0  0  0
  2  6  2  0  0  0  0
  3  9  2  0  0  0  0
  3 17  1  0  0  0  0
  4 10  1  0  0  0  0
  4 17  2  0  0  0  0
  5 19  1  0  0  0  0
  6 21  1  0  0  0  0
  7 11  2  0  0  0  0
  7 20  1  0  0  0  0
  8 14  2  0  0  0  0
  8 23  1  0  0  0  0
  9 24  1  0  0  0  0
 10 24  2  0  0  0  0
 11 25  1  0  0  0  0
 12 13  2  0  0  0  0
 12 26  1  0  0  0  0
 13 27  1  0  0  0  0
 14 30  1  0  0  0  0
 15 22  1  0  0  0  0
 15 25  2  0  0  0  0
 16 27  2  0  0  0  0
 16 28  1  0  0  0  0
 17 29  1  0  0  0  0
 18 29  1  0  0  0  0
 18 32  2  0  0  0  0
 18 33  1  0  0  0  0
 19 21  2  0  0  0  0
 19 38  1  0  0  0  0
 20 22  2  0  0  0  0
 20 39  1  0  0  0  0
 21 47  1  0  0  0  0
 22 40  1  0  0  0  0
 23 31  2  0  0  0  0
 23 57  1  0  0  0  0
 24 86  1  0  0  0  0
 25 87  1  0  0  0  0
 26 28  2  0  0  0  0
 26 86  1  0  0  0  0
 27 88  1  0  0  0  0
 28 89  1  0  0  0  0
 29 69  2  0  0  0  0
 30 59  1  0  0  0  0
 30 70  2  0  0  0  0
 31 58  1  0  0  0  0
 31 70  1  0  0  0  0
 32 71  1  0  0  0  0
 32 74  1  0  0  0  0
 33 75  1  0  0  0  0
 33 81  2  0  0  0  0
 34 48  1  0  0  0  0
 34 76  1  0  0  0  0
 34 82  2  0  0  0  0
 35 65  1  0  0  0  0
 35 72  1  0  0  0  0
 35 83  2  0  0  0  0
 36 66  1  0  0  0  0
 36 77  1  0  0  0  0
 36 84  2  0  0  0  0
 37 73  1  0  0  0  0
 37 78  1  0  0  0  0
 37 85  2  0  0  0  0
 38 41  1  0  0  0  0
 39 48  1  0  0  0  0
 40 72  1  0  0  0  0
 41 43  1  0  0  0  0
 42 44  1  0  0  0  0
 42 45  1  0  0  0  0
 43 47  1  0  0  0  0
 44 49  1  0  0  0  0
 45 73  1  0  0  0  0
 46 49  1  0  0  0  0
 46 73  1  0  0  0  0
 47 76  1  0  0  0  0
 48 72  1  0  0  0  0
 49 71  1  0  0  0  0
 50 66  1  0  0  0  0
 51 67  1  0  0  0  0
 52 67  1  0  0  0  0
 53 68  1  0  0  0  0
 54 68  1  0  0  0  0
 55 68  1  0  0  0  0
 56 79  1  0  0  0  0
 57 60  1  0  0  0  0
 58 61  1  0  0  0  0
 59 80  1  0  0  0  0
 60 64  1  0  0  0  0
 61 67  1  0  0  0  0
 62 63  1  0  0  0  0
 62 78  1  0  0  0  0
 63 80  1  0  0  0  0
 64 87  1  0  0  0  0
 65 68  1  0  0  0  0
 65 77  1  0  0  0  0
 66 79  1  0  0  0  0
 69 71  1  0  0  0  0
M  CHG  2  79   1  80   1
M  ISO  4  37 100  64 101  78 100  87 101
M  END
> <Batch ID>
0097

> <Smiles>
CNC(C)C(=O)NC(C(=O)N1Cc2cc([101O:1][101CH2:1]CCc3ccc(CNCC[100NH:0][100C:0](=O)N4CCCC(n5nc(-c6ccc(Oc7ccc(F)cc7F)cc6)c(C(N)=O)c5N)C4)nc3CCC(C)C)ccc2CC1C(=O)NC1CCCc2ccccc21)C(C)(C)C

> <Shape>
0.242

> <Color>
0.151

> <Negative vol penalty>
0.000

$$$$

  -OEChem-04052319263D

 81 89  0     1  0  0  0  0  0999 V2000
  -26.6233  -20.2121   27.5358 C   0  0  0  0  0  0  0  0  0  0  0  0
  -27.0630  -20.9189   26.4211 C   0  0  0  0  0  0  0  0  0  0  0  0
  -22.1054  -14.7222   21.0336 C   0  0  0  0  0  0  0  0  0  0  0  0
  -24.3055  -13.9354   21.6484 C   0  0  0  0  0  0  0  0  0  0  0  0
  -25.2595  -20.1275   27.8127 C   0  0  0  0  0  0  0  0  0  0  0  0
  -26.1390  -21.5406   25.5820 C   0  0  0  0  0  0  0  0  0  0  0  0
  -27.5285  -26.2399   24.3051 C   0  0  0  0  0  0  0  0  0  0  0  0
  -21.5656  -13.4837   21.3805 C   0  0  0  0  0  0  0  0  0  0  0  0
  -23.7656  -12.6969   21.9953 C   0  0  0  0  0  0  0  0  0  0  0  0
  -28.5026  -26.3693   23.3162 C   0  0  0  0  0  0  0  0  0  0  0  0
  -22.7192   -9.9022   20.4062 C   0  0  0  0  0  0  0  0  0  0  0  0
  -23.3894   -8.7586   19.9719 C   0  0  0  0  0  0  0  0  0  0  0  0
  -26.7820  -26.8334   21.6904 C   0  0  0  0  0  0  0  0  0  0  0  0
  -23.6919   -8.0645   22.2663 C   0  0  0  0  0  0  0  0  0  0  0  0
  -23.4754  -14.9480   21.1676 C   0  0  0  0  0  0  0  0  0  0  0  0
  -23.7114  -17.4806   21.3625 C   0  0  0  0  0  0  0  0  0  0  0  0
  -24.3189  -20.7566   26.9820 C   0  0  0  0  0  0  0  0  0  0  0  0
  -26.1706  -26.3958   23.9914 C   0  0  0  0  0  0  0  0  0  0  0  0
  -24.7612  -21.4632   25.8474 C   0  0  0  0  0  0  0  0  0  0  0  0
  -25.7927  -26.7080   22.6777 C   0  0  0  0  0  0  0  0  0  0  0  0
  -22.3957  -12.4711   21.8613 C   0  0  0  0  0  0  0  0  0  0  0  0
  -28.1293  -26.6632   22.0080 C   0  0  0  0  0  0  0  0  0  0  0  0
  -22.5354  -10.1270   21.7705 C   0  0  0  0  0  0  0  0  0  0  0  0
  -23.8757   -7.8397   20.9019 C   0  0  0  0  0  0  0  0  0  0  0  0
  -23.0217   -9.2082   22.7005 C   0  0  0  0  0  0  0  0  0  0  0  0
  -24.0337  -16.2270   20.8089 C   0  0  0  0  0  0  0  0  0  0  0  0
  -24.5101  -18.3701   20.6861 C   0  0  0  0  0  0  0  0  0  0  0  0
  -22.7740  -17.8115   22.3957 C   0  0  0  0  0  0  0  0  0  0  0  0
  -23.6102  -24.5162   24.1132 C   0  0  0  0  0  0  0  0  0  0  0  0
  -22.0540  -27.2390   23.2844 C   0  0  0  0  0  0  0  0  0  0  0  0
  -22.1856  -30.3224   21.8277 C   0  0  0  0  0  0  0  0  0  0  0  0
  -29.4048  -19.8229   18.7169 C   0  0  0  0  0  0  0  0  0  0  0  0
  -22.8522  -20.5976   27.2956 C   0  0  0  0  0  0  0  0  0  0  0  0
  -25.1340  -26.2794   25.0750 C   0  0  0  0  0  0  0  0  0  0  0  0
  -24.3499  -26.9050   22.2932 C   0  0  0  0  0  0  0  0  0  0  0  0
  -21.9612  -21.5994   26.5658 C   0  0  0  0  0  0  0  0  0  0  0  0
  -27.3678  -17.7526   16.5578 C   0  0  0  0  0  0  0  0  0  0  0  0
  -22.3472  -21.6828   25.0924 C   0  0  0  0  0  0  0  0  0  0  0  0
  -30.5337  -24.7140   19.6588 C   0  0  0  0  0  0  0  0  0  0  0  0
  -29.5849  -25.6239   17.4986 C   0  0  0  0  0  0  0  0  0  0  0  0
  -26.2861  -17.2737   17.5277 C   0  0  0  0  0  0  0  0  0  0  0  0
  -31.7378  -24.1596   18.8960 C   0  0  0  0  0  0  0  0  0  0  0  0
  -30.7897  -25.0702   16.7367 C   0  0  0  0  0  0  0  0  0  0  0  0
  -28.7288  -17.8321   17.2430 C   0  0  0  0  0  0  0  0  0  0  0  0
  -27.6730  -18.2035   19.4387 C   0  0  0  0  0  0  0  0  0  0  0  0
  -23.7911  -22.1719   24.9272 C   0  0  1  0  0  0  0  0  0  0  0  0
  -23.7439  -25.9509   24.5392 C   0  0  1  0  0  0  0  0  0  0  0  0
  -29.9322  -25.9381   18.9584 C   0  0  0  0  0  0  0  0  0  0  0  0
  -26.2691  -18.1235   18.8121 C   0  0  2  0  0  0  0  0  0  0  0  0
  -31.4341  -23.8410   17.4151 C   0  0  0  0  0  0  0  0  0  0  0  0
  -32.7537  -23.5062   16.6944 C   0  0  0  0  0  0  0  0  0  0  0  0
  -20.7450  -32.2990   21.2665 C   0  0  0  0  0  0  0  0  0  0  0  0
  -20.8269  -25.6830   20.9643 C   0  0  0  0  0  0  0  0  0  0  0  0
  -20.1902  -27.8701   19.9254 C   0  0  0  0  0  0  0  0  0  0  0  0
  -19.2450  -27.2215   22.1409 C   0  0  0  0  0  0  0  0  0  0  0  0
  -23.8137  -32.1332   23.5097 C   0  0  0  0  0  0  0  0  0  0  0  0
  -28.7000  -26.4381   19.7103 C   0  0  0  0  0  0  0  0  0  1  0  0
  -30.5093  -22.6136   17.3031 C   0  0  0  0  0  0  0  0  0  0  0  0
  -31.1551  -21.3599   17.8618 C   0  0  0  0  0  0  0  0  0  0  0  0
  -21.6754  -27.8995   21.9808 C   0  0  1  0  0  0  0  0  0  0  0  0
  -21.6818  -31.6775   22.2906 C   0  0  2  0  0  0  0  0  0  0  0  0
  -20.5115  -27.1629   21.2594 C   0  0  0  0  0  0  0  0  0  0  0  0
  -24.9644  -16.3087   19.8544 N   0  0  0  0  0  0  0  0  0  0  0  0
  -25.2337  -17.6243   19.8028 N   0  0  0  0  0  0  0  0  0  0  0  0
  -23.3730  -26.7748   23.3869 N   0  0  0  0  0  0  0  0  0  0  0  0
  -28.6482  -18.6703   18.4475 N   0  0  0  0  0  0  0  0  0  0  0  0
  -24.6569  -19.7097   20.7668 N   0  0  0  0  0  0  0  0  0  0  0  0
  -23.2192  -17.8182   23.7246 N   0  0  0  0  0  0  0  0  0  0  0  0
  -23.8646  -23.6044   25.1199 N   0  0  0  0  0  0  0  0  0  0  0  0
  -21.3940  -29.2956   22.2971 N   0  0  0  0  0  0  0  0  0  0  0  0
  -30.3106  -20.1935   17.7305 N   0  0  0  0  0  0  0  0  0  0  0  0
  -22.8250  -32.6085   22.5079 N   0  3  0  0  0  0  0  0  0  0  0  0
  -21.5730  -18.0768   22.1492 O   0  0  0  0  0  0  0  0  0  0  0  0
  -23.2977  -24.2558   22.9573 O   0  0  0  0  0  0  0  0  0  0  0  0
  -21.2125  -27.1450   24.1815 O   0  0  0  0  0  0  0  0  0  0  0  0
  -23.1796  -30.1884   21.1173 O   0  0  0  0  0  0  0  0  0  0  0  0
  -29.2788  -20.4769   19.7578 O   0  0  0  0  0  0  0  0  0  0  0  0
  -21.8692  -11.2625   22.2001 O   0  0  0  0  0  0  0  0  0  0  0  0
  -29.0781  -26.7894   21.0407 O   0  0  0  0  0  0  0  0  0  1  0  0
  -24.5179   -6.7408   20.4847 F   0  0  0  0  0  0  0  0  0  0  0  0
  -22.8472   -9.4182   24.0125 F   0  0  0  0  0  0  0  0  0  0  0  0
  1  2  1  0  0  0  0
  1  5  2  0  0  0  0
  2  6  2  0  0  0  0
  3  8  2  0  0  0  0
  3 15  1  0  0  0  0
  4  9  1  0  0  0  0
  4 15  2  0  0  0  0
  5 17  1  0  0  0  0
  6 19  1  0  0  0  0
  7 10  2  0  0  0  0
  7 18  1  0  0  0  0
  8 21  1  0  0  0  0
  9 21  2  0  0  0  0
 10 22  1  0  0  0  0
 11 12  2  0  0  0  0
 11 23  1  0  0  0  0
 12 24  1  0  0  0  0
 13 20  1  0  0  0  0
 13 22  2  0  0  0  0
 14 24  2  0  0  0  0
 14 25  1  0  0  0  0
 15 26  1  0  0  0  0
 16 26  1  0  0  0  0
 16 27  2  0  0  0  0
 16 28  1  0  0  0  0
 17 19  2  0  0  0  0
 17 33  1  0  0  0  0
 18 20  2  0  0  0  0
 18 34  1  0  0  0  0
 19 46  1  0  0  0  0
 20 35  1  0  0  0  0
 21 78  1  0  0  0  0
 22 79  1  0  0  0  0
 23 25  2  0  0  0  0
 23 78  1  0  0  0  0
 24 80  1  0  0  0  0
 25 81  1  0  0  0  0
 26 63  2  0  0  0  0
 27 64  1  0  0  0  0
 27 67  1  0  0  0  0
 28 68  1  0  0  0  0
 28 73  2  0  0  0  0
 29 47  1  0  0  0  0
 29 69  1  0  0  0  0
 29 74  2  0  0  0  0
 30 60  1  0  0  0  0
 30 65  1  0  0  0  0
 30 75  2  0  0  0  0
 31 61  1  0  0  0  0
 31 70  1  0  0  0  0
 31 76  2  0  0  0  0
 32 66  1  0  0  0  0
 32 71  1  0  0  0  0
 32 77  2  0  0  0  0
 33 36  1  0  0  0  0
 34 47  1  0  0  0  0
 35 65  1  0  0  0  0
 36 38  1  0  0  0  0
 37 41  1  0  0  0  0
 37 44  1  0  0  0  0
 38 46  1  0  0  0  0
 39 42  1  0  0  0  0
 39 48  1  0  0  0  0
 40 43  1  0  0  0  0
 40 48  1  0  0  0  0
 41 49  1  0  0  0  0
 42 50  1  0  0  0  0
 43 50  1  0  0  0  0
 44 66  1  0  0  0  0
 45 49  1  0  0  0  0
 45 66  1  0  0  0  0
 46 69  1  0  0  0  0
 47 65  1  0  0  0  0
 48 57  1  0  0  0  0
 49 64  1  0  0  0  0
 50 51  1  0  0  0  0
 50 58  1  0  0  0  0
 52 61  1  0  0  0  0
 53 62  1  0  0  0  0
 54 62  1  0  0  0  0
 55 62  1  0  0  0  0
 56 72  1  0  0  0  0
 57 79  1  0  0  0  0
 58 59  1  0  0  0  0
 59 71  1  0  0  0  0
 60 62  1  0  0  0  0
 60 70  1  0  0  0  0
 61 72  1  0  0  0  0
 63 64  1  0  0  0  0
M  CHG  1  72   1
M  ISO  4  32 100  57 101  71 100  79 101
M  END
> <Batch ID>
0097

> <Smiles>
CNC(C)C(=O)NC(C(=O)N1Cc2cc([101O:1][101CH2:1]C3CCC(C)(CC[100NH:0][100C:0](=O)N4CCCC(n5nc(-c6ccc(Oc7ccc(F)cc7F)cc6)c(C(N)=O)c5N)C4)CC3)ccc2CC1C(=O)NC1CCCc2ccccc21)C(C)(C)C

> <Shape>
0.187

> <Color>
0.064

> <Negative vol penalty>
0.000

$$$$

  -OEChem-04052319263D

 89 97  0     1  0  0  0  0  0999 V2000
  -28.9743  -32.7794   26.0717 C   0  0  0  0  0  0  0  0  0  0  0  0
  -28.8183  -31.4548   25.6760 C   0  0  0  0  0  0  0  0  0  0  0  0
  -22.4313  -11.5279   21.8871 C   0  0  0  0  0  0  0  0  0  0  0  0
  -22.2736  -13.7798   21.0262 C   0  0  0  0  0  0  0  0  0  0  0  0
  -27.9556  -33.7012   25.8344 C   0  0  0  0  0  0  0  0  0  0  0  0
  -27.6429  -31.0511   25.0436 C   0  0  0  0  0  0  0  0  0  0  0  0
  -28.5159  -28.1084   21.0157 C   0  0  0  0  0  0  0  0  0  0  0  0
  -21.0921  -11.5819   22.2735 C   0  0  0  0  0  0  0  0  0  0  0  0
  -20.9344  -13.8337   21.4125 C   0  0  0  0  0  0  0  0  0  0  0  0
  -28.8347  -26.7733   21.2597 C   0  0  0  0  0  0  0  0  0  0  0  0
  -19.1813  -14.3207   24.2621 C   0  0  0  0  0  0  0  0  0  0  0  0
  -18.7400  -15.4737   24.9113 C   0  0  0  0  0  0  0  0  0  0  0  0
  -26.5594  -26.1453   20.7621 C   0  0  0  0  0  0  0  0  0  0  0  0
  -17.1323  -15.8513   23.1478 C   0  0  0  0  0  0  0  0  0  0  0  0
  -23.0221  -12.6270   21.2635 C   0  0  0  0  0  0  0  0  0  0  0  0
  -24.9171  -12.1353   19.6280 C   0  0  0  0  0  0  0  0  0  0  0  0
  -26.7711  -33.3107   25.1902 C   0  0  0  0  0  0  0  0  0  0  0  0
  -27.2116  -28.4740   20.6531 C   0  0  0  0  0  0  0  0  0  0  0  0
  -26.6068  -31.9683   24.7987 C   0  0  0  0  0  0  0  0  0  0  0  0
  -26.2272  -27.4855   20.5116 C   0  0  0  0  0  0  0  0  0  0  0  0
  -27.8623  -20.9740   17.8677 C   0  0  0  0  0  0  0  0  0  0  0  0
  -20.3437  -12.7347   22.0362 C   0  0  0  0  0  0  0  0  0  0  0  0
  -27.8557  -25.7919   21.1357 C   0  0  0  0  0  0  0  0  0  0  0  0
  -18.5981  -13.9330   23.0558 C   0  0  0  0  0  0  0  0  0  0  0  0
  -17.7155  -16.2390   24.3542 C   0  0  0  0  0  0  0  0  0  0  0  0
  -17.5736  -14.6983   22.4986 C   0  0  0  0  0  0  0  0  0  0  0  0
  -24.4056  -12.5721   20.8646 C   0  0  0  0  0  0  0  0  0  0  0  0
  -27.8056  -19.6644   17.4364 C   0  0  0  0  0  0  0  0  0  0  0  0
  -28.6044  -21.1948   19.0100 C   0  0  0  0  0  0  0  0  0  0  0  0
  -26.2777  -12.2780   19.7495 C   0  0  0  0  0  0  0  0  0  0  0  0
  -29.1147  -18.9853   19.1662 C   0  0  0  0  0  0  0  0  0  0  0  0
  -24.2242  -11.6446   18.4726 C   0  0  0  0  0  0  0  0  0  0  0  0
  -24.9578  -30.3111   21.9373 C   0  0  0  0  0  0  0  0  0  0  0  0
  -23.4135  -29.6912   19.1528 C   0  0  0  0  0  0  0  0  0  0  0  0
  -23.0004  -27.6278   16.4662 C   0  0  0  0  0  0  0  0  0  0  0  0
  -29.7201  -15.8043   23.1504 C   0  0  0  0  0  0  0  0  0  0  0  0
  -25.6785  -34.3325   24.9978 C   0  0  0  0  0  0  0  0  0  0  0  0
  -26.8903  -29.9153   20.3673 C   0  0  0  0  0  0  0  0  0  0  0  0
  -24.8169  -27.8233   20.1050 C   0  0  0  0  0  0  0  0  0  0  0  0
  -24.6177  -33.9067   23.9861 C   0  0  0  0  0  0  0  0  0  0  0  0
  -29.7685  -12.2465   23.0212 C   0  0  0  0  0  0  0  0  0  0  0  0
  -24.1802  -32.4685   24.2445 C   0  0  0  0  0  0  0  0  0  0  0  0
  -28.4457  -11.8871   22.3423 C   0  0  0  0  0  0  0  0  0  0  0  0
  -29.6209  -13.4581   23.9390 C   0  0  0  0  0  0  0  0  0  0  0  0
  -27.7128  -14.2921   22.6210 C   0  0  0  0  0  0  0  0  0  0  0  0
  -25.3566  -31.4974   24.0878 C   0  0  1  0  0  0  0  0  0  0  0  0
  -25.4050  -30.2351   20.5048 C   0  0  1  0  0  0  0  0  0  0  0  0
  -27.8242  -13.1106   21.6422 C   0  0  2  0  0  0  0  0  0  0  0  0
  -26.8254  -17.7989   16.0779 C   0  0  0  0  0  0  0  0  0  0  0  0
  -28.1501  -23.1390   16.6093 C   0  0  0  0  0  0  0  0  0  0  0  0
  -26.0935  -22.7637   18.0180 C   0  0  0  0  0  0  0  0  0  0  0  0
  -21.6368  -27.3641   14.3761 C   0  0  0  0  0  0  0  0  0  0  0  0
  -21.0377  -28.7568   20.8237 C   0  0  0  0  0  0  0  0  0  0  0  0
  -20.1222  -27.6469   18.7747 C   0  0  0  0  0  0  0  0  0  0  0  0
  -20.4301  -30.1220   18.8184 C   0  0  0  0  0  0  0  0  0  0  0  0
  -29.6877  -16.5782   19.3611 C   0  0  0  0  0  0  0  0  0  0  0  0
  -25.4021  -27.7687   14.7426 C   0  0  0  0  0  0  0  0  0  0  0  0
  -27.0317  -19.3048   16.2110 C   0  0  0  0  0  0  0  0  0  0  0  0
  -29.6805  -18.1276   22.2787 C   0  0  0  0  0  0  0  0  0  0  0  0
  -30.5540  -18.2181   21.0371 C   0  0  0  0  0  0  0  0  0  0  0  0
  -29.5028  -24.0767   21.1004 C   0  0  0  0  0  0  0  0  0  1  0  0
  -29.4989  -22.6157   20.6943 C   0  0  0  0  0  0  0  0  0  0  0  0
  -27.1704  -22.0791   17.1523 C   0  0  0  0  0  0  0  0  0  0  0  0
  -22.4607  -28.6228   18.6737 C   0  0  1  0  0  0  0  0  0  0  0  0
  -22.9198  -27.9157   14.9779 C   0  0  2  0  0  0  0  0  0  0  0  0
  -21.0387  -28.7807   19.2822 C   0  0  0  0  0  0  0  0  0  0  0  0
  -25.3633  -12.9628   21.7097 N   0  0  0  0  0  0  0  0  0  0  0  0
  -28.4221  -18.6413   18.0638 N   0  0  0  0  0  0  0  0  0  0  0  0
  -29.2460  -20.2201   19.6872 N   0  0  0  0  0  0  0  0  0  0  0  0
  -26.4902  -12.7719   21.0029 N   0  0  0  0  0  0  0  0  0  0  0  0
  -24.5505  -29.2473   19.8427 N   0  0  0  0  0  0  0  0  0  0  0  0
  -29.0273  -14.5840   23.2138 N   0  0  0  0  0  0  0  0  0  0  0  0
  -27.3011  -12.0277   18.9055 N   0  0  0  0  0  0  0  0  0  0  0  0
  -22.8258  -11.5627   18.5169 N   0  0  0  0  0  0  0  0  0  0  0  0
  -25.6304  -31.2571   22.6871 N   0  0  0  0  0  0  0  0  0  0  0  0
  -22.4954  -28.6690   17.2159 N   0  0  0  0  0  0  0  0  0  0  0  0
  -29.0899  -16.8174   22.4382 N   0  0  0  0  0  0  0  0  0  0  0  0
  -29.7735  -17.9395   19.8489 N   0  0  3  0  0  0  0  0  0  0  0  0
  -24.0754  -27.2984   14.2675 N   0  3  0  0  0  0  0  0  0  0  0  0
  -24.8284  -11.2737   17.4378 O   0  0  0  0  0  0  0  0  0  0  0  0
  -24.0674  -29.5677   22.3326 O   0  0  0  0  0  0  0  0  0  0  0  0
  -23.1620  -30.8757   18.9173 O   0  0  0  0  0  0  0  0  0  0  0  0
  -23.4616  -26.5821   16.9183 O   0  0  0  0  0  0  0  0  0  0  0  0
  -30.8212  -15.9764   23.6841 O   0  0  0  0  0  0  0  0  0  0  0  0
  -19.0368  -12.7876   22.4129 O   0  0  0  0  0  0  0  0  0  0  0  0
  -28.1641  -24.4880   21.3739 O   0  0  0  0  0  0  0  0  0  1  0  0
  -28.7187  -22.4634   19.5147 O   0  0  0  0  0  0  0  0  0  0  0  0
  -17.2908  -17.3453   24.9785 F   0  0  0  0  0  0  0  0  0  0  0  0
  -17.0087  -14.3302   21.3405 F   0  0  0  0  0  0  0  0  0  0  0  0
  1  2  1  0  0  0  0
  1  5  2  0  0  0  0
  2  6  2  0  0  0  0
  3  8  2  0  0  0  0
  3 15  1  0  0  0  0
  4  9  1  0  0  0  0
  4 15  2  0  0  0  0
  5 17  1  0  0  0  0
  6 19  1  0  0  0  0
  7 10  2  0  0  0  0
  7 18  1  0  0  0  0
  8 22  1  0  0  0  0
  9 22  2  0  0  0  0
 10 23  1  0  0  0  0
 11 12  2  0  0  0  0
 11 24  1  0  0  0  0
 12 25  1  0  0  0  0
 13 20  1  0  0  0  0
 13 23  2  0  0  0  0
 14 25  2  0  0  0  0
 14 26  1  0  0  0  0
 15 27  1  0  0  0  0
 16 27  1  0  0  0  0
 16 30  2  0  0  0  0
 16 32  1  0  0  0  0
 17 19  2  0  0  0  0
 17 37  1  0  0  0  0
 18 20  2  0  0  0  0
 18 38  1  0  0  0  0
 19 46  1  0  0  0  0
 20 39  1  0  0  0  0
 21 28  2  0  0  0  0
 21 29  1  0  0  0  0
 21 63  1  0  0  0  0
 22 85  1  0  0  0  0
 23 86  1  0  0  0  0
 24 26  2  0  0  0  0
 24 85  1  0  0  0  0
 25 88  1  0  0  0  0
 26 89  1  0  0  0  0
 27 67  2  0  0  0  0
 28 58  1  0  0  0  0
 28 68  1  0  0  0  0
 29 69  2  0  0  0  0
 29 87  1  0  0  0  0
 30 70  1  0  0  0  0
 30 73  1  0  0  0  0
 31 68  2  0  0  0  0
 31 69  1  0  0  0  0
 31 78  1  0  0  0  0
 32 74  1  0  0  0  0
 32 80  2  0  0  0  0
 33 47  1  0  0  0  0
 33 75  1  0  0  0  0
 33 81  2  0  0  0  0
 34 64  1  0  0  0  0
 34 71  1  0  0  0  0
 34 82  2  0  0  0  0
 35 65  1  0  0  0  0
 35 76  1  0  0  0  0
 35 83  2  0  0  0  0
 36 72  1  0  0  0  0
 36 77  1  0  0  0  0
 36 84  2  0  0  0  0
 37 40  1  0  0  0  0
 38 47  1  0  0  0  0
 39 71  1  0  0  0  0
 40 42  1  0  0  0  0
 41 43  1  0  0  0  0
 41 44  1  0  0  0  0
 42 46  1  0  0  0  0
 43 48  1  0  0  0  0
 44 72  1  0  0  0  0
 45 48  1  0  0  0  0
 45 72  1  0  0  0  0
 46 75  1  0  0  0  0
 47 71  1  0  0  0  0
 48 70  1  0  0  0  0
 49 58  1  0  0  0  0
 50 63  1  0  0  0  0
 51 63  1  0  0  0  0
 52 65  1  0  0  0  0
 53 66  1  0  0  0  0
 54 66  1  0  0  0  0
 55 66  1  0  0  0  0
 56 78  1  0  0  0  0
 57 79  1  0  0  0  0
 59 60  1  0  0  0  0
 59 77  1  0  0  0  0
 60 78  1  0  0  0  0
 61 62  1  0  0  0  0
 61 86  1  0  0  0  0
 62 87  1  0  0  0  0
 64 66  1  0  0  0  0
 64 76  1  0  0  0  0
 65 79  1  0  0  0  0
 67 70  1  0  0  0  0
M  CHG  1  79   1
M  ISO  4  36 100  61 101  77 100  86 101
M  END
> <Batch ID>
0097

> <Smiles>
CCc1nc(N(C)CC[100NH:0][100C:0](=O)N2CCCC(n3nc(-c4ccc(Oc5ccc(F)cc5F)cc4)c(C(N)=O)c3N)C2)nc(OC[101CH2:1][101O:1]c2ccc3c(c2)CN(C(=O)C(NC(=O)C(C)NC)C(C)(C)C)C(C(=O)NC2CCCc4ccccc42)C3)c1C(C)C

> <Shape>
0.272

> <Color>
0.057

> <Negative vol penalty>
0.000

$$$$

  -OEChem-04052319263D

 82 89  0     1  0  0  0  0  0999 V2000
  -28.1783  -25.4518   16.2057 C   0  0  0  0  0  0  0  0  0  0  0  0
  -27.0002  -25.5532   16.9386 C   0  0  0  0  0  0  0  0  0  0  0  0
  -31.1795  -17.3298   20.6581 C   0  0  0  0  0  0  0  0  0  0  0  0
  -29.3596  -16.2349   19.5063 C   0  0  0  0  0  0  0  0  0  0  0  0
  -29.3669  -25.9635   16.7244 C   0  0  0  0  0  0  0  0  0  0  0  0
  -27.0103  -26.1654   18.1914 C   0  0  0  0  0  0  0  0  0  0  0  0
  -23.1327  -29.3605   18.8238 C   0  0  0  0  0  0  0  0  0  0  0  0
  -31.9296  -16.1559   20.5887 C   0  0  0  0  0  0  0  0  0  0  0  0
  -30.1098  -15.0610   19.4369 C   0  0  0  0  0  0  0  0  0  0  0  0
  -21.8886  -28.8023   19.1147 C   0  0  0  0  0  0  0  0  0  0  0  0
  -31.6834  -11.8827   18.6366 C   0  0  0  0  0  0  0  0  0  0  0  0
  -31.7047  -11.1966   17.4224 C   0  0  0  0  0  0  0  0  0  0  0  0
  -22.2111  -29.3155   21.4496 C   0  0  0  0  0  0  0  0  0  0  0  0
  -32.6547  -13.1377   16.3422 C   0  0  0  0  0  0  0  0  0  0  0  0
  -29.8944  -17.3693   20.1169 C   0  0  0  0  0  0  0  0  0  0  0  0
  -29.0860  -19.6268   19.2464 C   0  0  0  0  0  0  0  0  0  0  0  0
  -29.3898  -26.5909   17.9800 C   0  0  0  0  0  0  0  0  0  0  0  0
  -23.9313  -29.8914   19.8469 C   0  0  0  0  0  0  0  0  0  0  0  0
  -28.2007  -26.6848   18.7281 C   0  0  0  0  0  0  0  0  0  0  0  0
  -23.4637  -29.8821   21.1687 C   0  0  0  0  0  0  0  0  0  0  0  0
  -31.3949  -15.0215   19.9781 C   0  0  0  0  0  0  0  0  0  0  0  0
  -21.4289  -28.7771   20.4281 C   0  0  0  0  0  0  0  0  0  0  0  0
  -32.1477  -13.1964   18.7037 C   0  0  0  0  0  0  0  0  0  0  0  0
  -32.1903  -11.8240   16.2752 C   0  0  0  0  0  0  0  0  0  0  0  0
  -32.6334  -13.8238   17.5564 C   0  0  0  0  0  0  0  0  0  0  0  0
  -29.1188  -18.5815   20.1887 C   0  0  0  0  0  0  0  0  0  0  0  0
  -28.2032  -20.5372   19.7741 C   0  0  0  0  0  0  0  0  0  0  0  0
  -29.7904  -19.7627   18.0051 C   0  0  0  0  0  0  0  0  0  0  0  0
  -26.8057  -29.2199   21.0260 C   0  0  0  0  0  0  0  0  0  0  0  0
  -26.2867  -31.9034   22.7729 C   0  0  0  0  0  0  0  0  0  0  0  0
  -24.0435  -34.0862   24.1331 C   0  0  0  0  0  0  0  0  0  0  0  0
  -23.6557  -19.9100   23.4865 C   0  0  0  0  0  0  0  0  0  0  0  0
  -30.7079  -27.0867   18.5199 C   0  0  0  0  0  0  0  0  0  0  0  0
  -25.2592  -30.5141   19.5130 C   0  0  0  0  0  0  0  0  0  0  0  0
  -24.2739  -30.4574   22.3006 C   0  0  0  0  0  0  0  0  0  0  0  0
  -30.5610  -28.0543   19.6914 C   0  0  0  0  0  0  0  0  0  0  0  0
  -26.4949  -22.1032   23.9618 C   0  0  0  0  0  0  0  0  0  0  0  0
  -29.5579  -27.5154   20.7064 C   0  0  0  0  0  0  0  0  0  0  0  0
  -27.4897  -21.5372   22.9468 C   0  0  0  0  0  0  0  0  0  0  0  0
  -25.6879  -20.9907   24.6244 C   0  0  0  0  0  0  0  0  0  0  0  0
  -25.9601  -19.5333   22.6557 C   0  0  0  0  0  0  0  0  0  0  0  0
  -28.1665  -27.3640   20.0800 C   0  0  1  0  0  0  0  0  0  0  0  0
  -26.2127  -30.5621   20.7029 C   0  0  1  0  0  0  0  0  0  0  0  0
  -26.7912  -20.6101   21.9346 C   0  0  2  0  0  0  0  0  0  0  0  0
  -23.9180  -36.1606   25.5397 C   0  0  0  0  0  0  0  0  0  0  0  0
  -26.8902  -30.2478   25.2639 C   0  0  0  0  0  0  0  0  0  0  0  0
  -25.8433  -32.0605   26.6373 C   0  0  0  0  0  0  0  0  0  0  0  0
  -27.8757  -32.5464   25.2749 C   0  0  0  0  0  0  0  0  0  0  0  0
  -18.1673  -26.7542   24.3102 C   0  0  0  0  0  0  0  0  0  0  0  0
  -17.6350  -24.7183   22.9777 C   0  0  0  0  0  0  0  0  0  0  0  0
  -22.7254  -35.6143   21.9682 C   0  0  0  0  0  0  0  0  0  0  0  0
  -21.1348  -24.0710   21.9038 C   0  0  0  0  0  0  0  0  0  0  0  0
  -20.7115  -21.4399   23.5893 C   0  0  0  0  0  0  0  0  0  0  0  0
  -19.0060  -26.5332   21.9279 C   0  0  0  0  0  0  0  0  0  0  0  0
  -21.4097  -20.3780   24.4319 C   0  0  0  0  0  0  0  0  0  0  0  0
  -21.0164  -22.8523   24.0720 C   0  0  0  0  0  0  0  0  0  0  0  0
  -19.9819  -25.1067   23.8531 C   0  0  0  0  0  0  0  0  0  0  0  0
  -20.0583  -27.6375   22.0024 C   0  0  0  0  0  0  0  0  0  1  0  0
  -25.6572  -32.2021   24.1122 C   0  0  1  0  0  0  0  0  0  0  0  0
  -23.9829  -35.6030   24.1263 C   0  0  2  0  0  0  0  0  0  0  0  0
  -26.5519  -31.7516   25.3012 C   0  0  0  0  0  0  0  0  0  0  0  0
  -18.7249  -25.7768   23.2542 C   0  0  0  0  0  0  0  0  0  0  0  0
  -28.3205  -18.8059   21.2358 N   0  0  0  0  0  0  0  0  0  0  0  0
  -27.7778  -20.0027   20.9546 N   0  0  0  0  0  0  0  0  0  0  0  0
  -25.5683  -31.0493   21.9242 N   0  0  0  0  0  0  0  0  0  0  0  0
  -25.0335  -20.1561   23.6069 N   0  0  0  0  0  0  0  0  0  0  0  0
  -27.7572  -21.7347   19.3389 N   0  0  0  0  0  0  0  0  0  0  0  0
  -30.6582  -18.7343   17.6132 N   0  0  0  0  0  0  0  0  0  0  0  0
  -27.5128  -28.6516   19.9836 N   0  0  0  0  0  0  0  0  0  0  0  0
  -25.3433  -33.6268   24.1069 N   0  0  0  0  0  0  0  0  0  0  0  0
  -22.8476  -20.5315   24.4306 N   0  0  0  0  0  0  0  0  0  0  0  0
  -22.7798  -36.0701   23.3811 N   0  3  0  0  0  0  0  0  0  0  0  0
  -20.3321  -23.8424   23.1613 N   0  3  1  0  0  0  0  0  0  0  0  0
  -29.6669  -20.7740   17.2732 O   0  0  0  0  0  0  0  0  0  0  0  0
  -26.6358  -28.7364   22.1391 O   0  0  0  0  0  0  0  0  0  0  0  0
  -27.3723  -32.4148   22.4874 O   0  0  0  0  0  0  0  0  0  0  0  0
  -23.0383  -33.3795   24.1627 O   0  0  0  0  0  0  0  0  0  0  0  0
  -23.1798  -19.1932   22.5994 O   0  0  0  0  0  0  0  0  0  0  0  0
  -32.1267  -13.8760   19.9100 O   0  0  0  0  0  0  0  0  0  0  0  0
  -20.2153  -28.2323   20.7148 O   0  0  0  0  0  0  0  0  0  1  0  0
  -32.2121  -11.1645   15.1096 F   0  0  0  0  0  0  0  0  0  0  0  0
  -33.0819  -15.0853   17.6149 F   0  0  0  0  0  0  0  0  0  0  0  0
  1  2  1  0  0  0  0
  1  5  2  0  0  0  0
  2  6  2  0  0  0  0
  3  8  2  0  0  0  0
  3 15  1  0  0  0  0
  4  9  1  0  0  0  0
  4 15  2  0  0  0  0
  5 17  1  0  0  0  0
  6 19  1  0  0  0  0
  7 10  2  0  0  0  0
  7 18  1  0  0  0  0
  8 21  1  0  0  0  0
  9 21  2  0  0  0  0
 10 22  1  0  0  0  0
 11 12  2  0  0  0  0
 11 23  1  0  0  0  0
 12 24  1  0  0  0  0
 13 20  1  0  0  0  0
 13 22  2  0  0  0  0
 14 24  2  0  0  0  0
 14 25  1  0  0  0  0
 15 26  1  0  0  0  0
 16 26  1  0  0  0  0
 16 27  2  0  0  0  0
 16 28  1  0  0  0  0
 17 19  2  0  0  0  0
 17 33  1  0  0  0  0
 18 20  2  0  0  0  0
 18 34  1  0  0  0  0
 19 42  1  0  0  0  0
 20 35  1  0  0  0  0
 21 79  1  0  0  0  0
 22 80  1  0  0  0  0
 23 25  2  0  0  0  0
 23 79  1  0  0  0  0
 24 81  1  0  0  0  0
 25 82  1  0  0  0  0
 26 63  2  0  0  0  0
 27 64  1  0  0  0  0
 27 67  1  0  0  0  0
 28 68  1  0  0  0  0
 28 74  2  0  0  0  0
 29 43  1  0  0  0  0
 29 69  1  0  0  0  0
 29 75  2  0  0  0  0
 30 59  1  0  0  0  0
 30 65  1  0  0  0  0
 30 76  2  0  0  0  0
 31 60  1  0  0  0  0
 31 70  1  0  0  0  0
 31 77  2  0  0  0  0
 32 66  1  0  0  0  0
 32 71  1  0  0  0  0
 32 78  2  0  0  0  0
 33 36  1  0  0  0  0
 34 43  1  0  0  0  0
 35 65  1  0  0  0  0
 36 38  1  0  0  0  0
 37 39  1  0  0  0  0
 37 40  1  0  0  0  0
 38 42  1  0  0  0  0
 39 44  1  0  0  0  0
 40 66  1  0  0  0  0
 41 44  1  0  0  0  0
 41 66  1  0  0  0  0
 42 69  1  0  0  0  0
 43 65  1  0  0  0  0
 44 64  1  0  0  0  0
 45 60  1  0  0  0  0
 46 61  1  0  0  0  0
 47 61  1  0  0  0  0
 48 61  1  0  0  0  0
 49 62  1  0  0  0  0
 50 62  1  0  0  0  0
 51 72  1  0  0  0  0
 52 73  1  0  0  0  0
 53 55  1  0  0  0  0
 53 56  1  0  0  0  0
 54 58  1  0  0  0  0
 54 62  1  0  0  0  0
 55 71  1  0  0  0  0
 56 73  1  0  0  0  0
 57 62  1  0  0  0  0
 57 73  1  0  0  0  0
 58 80  1  0  0  0  0
 59 61  1  0  0  0  0
 59 70  1  0  0  0  0
 60 72  1  0  0  0  0
 63 64  1  0  0  0  0
M  CHG  2  72   1  73   1
M  ISO  4  32 100  58 101  71 100  80 101
M  END
> <Batch ID>
0097

> <Smiles>
CNC(C)C(=O)NC(C(=O)N1Cc2cc([101O:1][101CH2:1]CC(C)(C)CN(C)CCC[100NH:0][100C:0](=O)N3CCCC(n4nc(-c5ccc(Oc6ccc(F)cc6F)cc5)c(C(N)=O)c4N)C3)ccc2CC1C(=O)NC1CCCc2ccccc21)C(C)(C)C

> <Shape>
0.267

> <Color>
0.063

> <Negative vol penalty>
0.000

$$$$

  -OEChem-04052319263D

 75 82  0     1  0  0  0  0  0999 V2000
  -20.5593  -18.1061   27.8988 C   0  0  0  0  0  0  0  0  0  0  0  0
  -21.9140  -18.1780   27.5901 C   0  0  0  0  0  0  0  0  0  0  0  0
  -23.1976   -9.8534   19.9553 C   0  0  0  0  0  0  0  0  0  0  0  0
  -23.9054   -9.9359   22.2638 C   0  0  0  0  0  0  0  0  0  0  0  0
  -20.0550  -16.9880   28.5616 C   0  0  0  0  0  0  0  0  0  0  0  0
  -22.7653  -17.1323   27.9452 C   0  0  0  0  0  0  0  0  0  0  0  0
  -25.9355  -15.8539   24.2088 C   0  0  0  0  0  0  0  0  0  0  0  0
  -22.5043   -8.6703   20.2101 C   0  0  0  0  0  0  0  0  0  0  0  0
  -23.2120   -8.7527   22.5186 C   0  0  0  0  0  0  0  0  0  0  0  0
  -27.0426  -16.6761   24.0039 C   0  0  0  0  0  0  0  0  0  0  0  0
  -20.2504   -5.8209   20.3370 C   0  0  0  0  0  0  0  0  0  0  0  0
  -18.9596   -5.7018   19.8220 C   0  0  0  0  0  0  0  0  0  0  0  0
  -28.4225  -15.1087   25.2116 C   0  0  0  0  0  0  0  0  0  0  0  0
  -18.2733   -7.6374   21.0947 C   0  0  0  0  0  0  0  0  0  0  0  0
  -23.8982  -10.4863   20.9821 C   0  0  0  0  0  0  0  0  0  0  0  0
  -24.1217  -13.0225   20.8239 C   0  0  0  0  0  0  0  0  0  0  0  0
  -20.8989  -15.9237   28.9165 C   0  0  0  0  0  0  0  0  0  0  0  0
  -26.0615  -14.6562   24.9272 C   0  0  0  0  0  0  0  0  0  0  0  0
  -22.2720  -15.9995   28.6147 C   0  0  0  0  0  0  0  0  0  0  0  0
  -27.3159  -14.2718   25.4220 C   0  0  0  0  0  0  0  0  0  0  0  0
  -22.5115   -8.1199   21.4917 C   0  0  0  0  0  0  0  0  0  0  0  0
  -28.2858  -16.3050   24.5078 C   0  0  0  0  0  0  0  0  0  0  0  0
  -20.5526   -6.8482   21.2310 C   0  0  0  0  0  0  0  0  0  0  0  0
  -17.9711   -6.6101   20.2008 C   0  0  0  0  0  0  0  0  0  0  0  0
  -19.5641   -7.7564   21.6097 C   0  0  0  0  0  0  0  0  0  0  0  0
  -24.6151  -11.7082   20.7194 C   0  0  0  0  0  0  0  0  0  0  0  0
  -25.1846  -13.8174   20.4705 C   0  0  0  0  0  0  0  0  0  0  0  0
  -22.8191  -13.4837   21.2063 C   0  0  0  0  0  0  0  0  0  0  0  0
  -24.8246  -13.5180   27.6250 C   0  0  0  0  0  0  0  0  0  0  0  0
  -26.3618  -10.8060   26.7281 C   0  0  0  0  0  0  0  0  0  0  0  0
  -28.8800   -9.3613   24.9342 C   0  0  0  0  0  0  0  0  0  0  0  0
  -30.9478  -14.0534   20.9647 C   0  0  0  0  0  0  0  0  0  0  0  0
  -20.3164  -14.7569   29.6741 C   0  0  0  0  0  0  0  0  0  0  0  0
  -24.8630  -13.7674   25.1166 C   0  0  0  0  0  0  0  0  0  0  0  0
  -27.5084  -12.9861   26.1825 C   0  0  0  0  0  0  0  0  0  0  0  0
  -21.2177  -13.5249   29.6822 C   0  0  0  0  0  0  0  0  0  0  0  0
  -29.3605  -13.1190   17.9177 C   0  0  0  0  0  0  0  0  0  0  0  0
  -22.6540  -13.9165   30.0149 C   0  0  0  0  0  0  0  0  0  0  0  0
  -27.9291  -12.7821   18.3393 C   0  0  0  0  0  0  0  0  0  0  0  0
  -30.3757  -12.6921   18.9757 C   0  0  0  0  0  0  0  0  0  0  0  0
  -28.6784  -12.8695   20.7538 C   0  0  0  0  0  0  0  0  0  0  0  0
  -23.2228  -14.8744   28.9613 C   0  0  1  0  0  0  0  0  0  0  0  0
  -25.0023  -12.8216   26.3055 C   0  0  1  0  0  0  0  0  0  0  0  0
  -27.6142  -13.3315   19.7437 C   0  0  2  0  0  0  0  0  0  0  0  0
  -30.2677   -7.5279   23.9290 C   0  0  0  0  0  0  0  0  0  0  0  0
  -29.6157  -18.8646   22.6992 C   0  0  0  0  0  0  0  0  0  0  0  0
  -27.6875  -10.7976   29.4763 C   0  0  0  0  0  0  0  0  0  0  0  0
  -29.3610   -9.1616   28.5869 C   0  0  0  0  0  0  0  0  0  0  0  0
  -26.9441   -8.5501   28.6698 C   0  0  0  0  0  0  0  0  0  0  0  0
  -27.1643   -9.2243   22.5266 C   0  0  0  0  0  0  0  0  0  0  0  0
  -31.1723  -16.8755   22.7016 C   0  0  0  0  0  0  0  0  0  0  0  0
  -31.3687  -15.3927   23.0112 C   0  0  0  0  0  0  0  0  0  0  0  0
  -27.7390  -10.2320   26.9577 C   0  0  1  0  0  0  0  0  0  0  0  0
  -28.8910   -8.1710   23.9920 C   0  0  2  0  0  0  0  0  0  0  0  0
  -29.7427  -17.3690   22.9582 C   0  0  1  0  0  0  0  0  0  1  0  0
  -27.9292   -9.7106   28.4100 C   0  0  0  0  0  0  0  0  0  0  0  0
  -25.8920  -11.6663   20.3299 N   0  0  0  0  0  0  0  0  0  0  0  0
  -26.2100  -12.9641   20.1865 N   0  0  0  0  0  0  0  0  0  0  0  0
  -26.3050  -12.1541   26.3470 N   0  0  0  0  0  0  0  0  0  0  0  0
  -30.0204  -13.2476   20.2838 N   0  0  0  0  0  0  0  0  0  0  0  0
  -25.3328  -15.1560   20.3780 N   0  0  0  0  0  0  0  0  0  0  0  0
  -21.8445  -12.5327   21.5383 N   0  0  0  0  0  0  0  0  0  0  0  0
  -23.6026  -14.1468   27.7693 N   0  0  0  0  0  0  0  0  0  0  0  0
  -27.9351   -9.2172   25.9280 N   0  0  0  0  0  0  0  0  0  0  0  0
  -30.5288  -14.5445   22.1951 N   0  0  0  0  0  0  0  0  0  0  0  0
  -28.5074   -8.5960   22.6161 N   0  3  0  0  0  0  0  0  0  0  0  0
  -22.5232  -14.7023   21.2364 O   0  0  0  0  0  0  0  0  0  0  0  0
  -25.7286  -13.4859   28.4517 O   0  0  0  0  0  0  0  0  0  0  0  0
  -25.3731  -10.0829   26.8744 O   0  0  0  0  0  0  0  0  0  0  0  0
  -29.6366  -10.3210   24.8039 O   0  0  0  0  0  0  0  0  0  0  0  0
  -32.0644  -14.3200   20.5073 O   0  0  0  0  0  0  0  0  0  0  0  0
  -21.8348   -6.9655   21.7408 O   0  0  0  0  0  0  0  0  0  0  0  0
  -29.3680  -17.1059   24.3098 O   0  0  0  0  0  0  0  0  0  1  0  0
  -16.7320   -6.4966   19.7049 F   0  0  0  0  0  0  0  0  0  0  0  0
  -19.8488   -8.7461   22.4672 F   0  0  0  0  0  0  0  0  0  0  0  0
  1  2  1  0  0  0  0
  1  5  2  0  0  0  0
  2  6  2  0  0  0  0
  3  8  2  0  0  0  0
  3 15  1  0  0  0  0
  4  9  1  0  0  0  0
  4 15  2  0  0  0  0
  5 17  1  0  0  0  0
  6 19  1  0  0  0  0
  7 10  2  0  0  0  0
  7 18  1  0  0  0  0
  8 21  1  0  0  0  0
  9 21  2  0  0  0  0
 10 22  1  0  0  0  0
 11 12  2  0  0  0  0
 11 23  1  0  0  0  0
 12 24  1  0  0  0  0
 13 20  1  0  0  0  0
 13 22  2  0  0  0  0
 14 24  2  0  0  0  0
 14 25  1  0  0  0  0
 15 26  1  0  0  0  0
 16 26  1  0  0  0  0
 16 27  2  0  0  0  0
 16 28  1  0  0  0  0
 17 19  2  0  0  0  0
 17 33  1  0  0  0  0
 18 20  2  0  0  0  0
 18 34  1  0  0  0  0
 19 42  1  0  0  0  0
 20 35  1  0  0  0  0
 21 72  1  0  0  0  0
 22 73  1  0  0  0  0
 23 25  2  0  0  0  0
 23 72  1  0  0  0  0
 24 74  1  0  0  0  0
 25 75  1  0  0  0  0
 26 57  2  0  0  0  0
 27 58  1  0  0  0  0
 27 61  1  0  0  0  0
 28 62  1  0  0  0  0
 28 67  2  0  0  0  0
 29 43  1  0  0  0  0
 29 63  1  0  0  0  0
 29 68  2  0  0  0  0
 30 53  1  0  0  0  0
 30 59  1  0  0  0  0
 30 69  2  0  0  0  0
 31 54  1  0  0  0  0
 31 64  1  0  0  0  0
 31 70  2  0  0  0  0
 32 60  1  0  0  0  0
 32 65  1  0  0  0  0
 32 71  2  0  0  0  0
 33 36  1  0  0  0  0
 34 43  1  0  0  0  0
 35 59  1  0  0  0  0
 36 38  1  0  0  0  0
 37 39  1  0  0  0  0
 37 40  1  0  0  0  0
 38 42  1  0  0  0  0
 39 44  1  0  0  0  0
 40 60  1  0  0  0  0
 41 44  1  0  0  0  0
 41 60  1  0  0  0  0
 42 63  1  0  0  0  0
 43 59  1  0  0  0  0
 44 58  1  0  0  0  0
 45 54  1  0  0  0  0
 46 55  1  0  0  0  0
 47 56  1  0  0  0  0
 48 56  1  0  0  0  0
 49 56  1  0  0  0  0
 50 66  1  0  0  0  0
 51 52  1  0  0  0  0
 51 55  1  0  0  0  0
 52 65  1  0  0  0  0
 53 56  1  0  0  0  0
 53 64  1  0  0  0  0
 54 66  1  0  0  0  0
 55 73  1  0  0  0  0
 57 58  1  0  0  0  0
M  CHG  1  66   1
M  ISO  4  32 100  55 101  65 100  73 101
M  END
> <Batch ID>
0097

> <Smiles>
CNC(C)C(=O)NC(C(=O)N1Cc2cc([101O:1][101CH:1](C)CC[100NH:0][100C:0](=O)N3CCCC(n4nc(-c5ccc(Oc6ccc(F)cc6F)cc5)c(C(N)=O)c4N)C3)ccc2CC1C(=O)NC1CCCc2ccccc21)C(C)(C)C

> <Shape>
0.150

> <Color>
0.197

> <Negative vol penalty>
0.000

$$$$

  -OEChem-04052319263D

 89 97  0     1  0  0  0  0  0999 V2000
  -27.3731  -31.1019   13.0387 C   0  0  0  0  0  0  0  0  0  0  0  0
  -26.6044  -30.3355   13.9088 C   0  0  0  0  0  0  0  0  0  0  0  0
  -23.0716   -9.8703   19.9391 C   0  0  0  0  0  0  0  0  0  0  0  0
  -23.8332   -9.8755   22.2319 C   0  0  0  0  0  0  0  0  0  0  0  0
  -28.7066  -30.7663   12.8084 C   0  0  0  0  0  0  0  0  0  0  0  0
  -27.1686  -29.2322   14.5483 C   0  0  0  0  0  0  0  0  0  0  0  0
  -26.8312  -25.5652   20.6929 C   0  0  0  0  0  0  0  0  0  0  0  0
  -22.3268   -8.7178   20.1890 C   0  0  0  0  0  0  0  0  0  0  0  0
  -23.0883   -8.7230   22.4819 C   0  0  0  0  0  0  0  0  0  0  0  0
  -26.6664  -24.2628   21.1623 C   0  0  0  0  0  0  0  0  0  0  0  0
  -19.8597   -7.9282   23.0864 C   0  0  0  0  0  0  0  0  0  0  0  0
  -19.1036   -7.8886   24.2578 C   0  0  0  0  0  0  0  0  0  0  0  0
  -29.0023  -23.8247   20.7490 C   0  0  0  0  0  0  0  0  0  0  0  0
  -29.7585  -17.7054   22.7180 C   0  0  0  0  0  0  0  0  0  0  0  0
  -20.3435   -5.9495   24.9925 C   0  0  0  0  0  0  0  0  0  0  0  0
  -23.8249  -10.4491   20.9605 C   0  0  0  0  0  0  0  0  0  0  0  0
  -24.1692  -12.9740   20.8413 C   0  0  0  0  0  0  0  0  0  0  0  0
  -29.2901  -29.6641   13.4528 C   0  0  0  0  0  0  0  0  0  0  0  0
  -28.0825  -26.0045   20.2371 C   0  0  0  0  0  0  0  0  0  0  0  0
  -28.5108  -28.8807   14.3254 C   0  0  0  0  0  0  0  0  0  0  0  0
  -29.1810  -25.1339   20.2767 C   0  0  0  0  0  0  0  0  0  0  0  0
  -30.2348  -18.9389   23.1483 C   0  0  0  0  0  0  0  0  0  0  0  0
  -31.4979  -19.3661   22.7541 C   0  0  0  0  0  0  0  0  0  0  0  0
  -22.3351   -8.1442   21.4605 C   0  0  0  0  0  0  0  0  0  0  0  0
  -27.7514  -23.3914   21.1877 C   0  0  0  0  0  0  0  0  0  0  0  0
  -20.8578   -6.9785   22.8680 C   0  0  0  0  0  0  0  0  0  0  0  0
  -19.3455   -6.8993   25.2109 C   0  0  0  0  0  0  0  0  0  0  0  0
  -21.0997   -5.9892   23.8211 C   0  0  0  0  0  0  0  0  0  0  0  0
  -24.5950  -11.6393   20.7027 C   0  0  0  0  0  0  0  0  0  0  0  0
  -32.2394  -18.5294   21.9356 C   0  0  0  0  0  0  0  0  0  0  0  0
  -30.5778  -16.9432   21.9010 C   0  0  0  0  0  0  0  0  0  0  0  0
  -25.2619  -13.7225   20.4776 C   0  0  0  0  0  0  0  0  0  0  0  0
  -22.8996  -13.4909   21.2613 C   0  0  0  0  0  0  0  0  0  0  0  0
  -29.2158  -27.0544   17.4591 C   0  0  0  0  0  0  0  0  0  0  0  0
  -31.8928  -27.6090   19.2051 C   0  0  0  0  0  0  0  0  0  0  0  0
  -33.7668  -26.8519   21.9549 C   0  0  0  0  0  0  0  0  0  0  0  0
  -30.7292  -14.7625   20.6488 C   0  0  0  0  0  0  0  0  0  0  0  0
  -30.7221  -29.3123   13.1359 C   0  0  0  0  0  0  0  0  0  0  0  0
  -28.2498  -27.4207   19.7588 C   0  0  0  0  0  0  0  0  0  0  0  0
  -30.5498  -25.5629   19.8176 C   0  0  0  0  0  0  0  0  0  0  0  0
  -31.3496  -28.3500   14.1410 C   0  0  0  0  0  0  0  0  0  0  0  0
  -29.6107  -12.3508   18.2803 C   0  0  0  0  0  0  0  0  0  0  0  0
  -30.4023  -27.1907   14.4333 C   0  0  0  0  0  0  0  0  0  0  0  0
  -28.1711  -12.0605   18.7108 C   0  0  0  0  0  0  0  0  0  0  0  0
  -30.5269  -12.5782   19.4814 C   0  0  0  0  0  0  0  0  0  0  0  0
  -28.6217  -13.3040   20.8643 C   0  0  0  0  0  0  0  0  0  0  0  0
  -29.0939  -27.6912   15.0570 C   0  0  1  0  0  0  0  0  0  0  0  0
  -29.4526  -27.6023   18.8381 C   0  0  1  0  0  0  0  0  0  0  0  0
  -27.6478  -13.1322   19.6871 C   0  0  2  0  0  0  0  0  0  0  0  0
  -33.6939  -19.0764   19.9509 C   0  0  0  0  0  0  0  0  0  0  0  0
  -34.6984  -17.9770   21.9850 C   0  0  0  0  0  0  0  0  0  0  0  0
  -35.9236  -27.4441   23.0929 C   0  0  0  0  0  0  0  0  0  0  0  0
  -33.4302  -25.9788   17.1341 C   0  0  0  0  0  0  0  0  0  0  0  0
  -35.3136  -25.8016   18.7741 C   0  0  0  0  0  0  0  0  0  0  0  0
  -34.6083  -28.0384   17.9244 C   0  0  0  0  0  0  0  0  0  0  0  0
  -32.3620  -27.7855   24.3868 C   0  0  0  0  0  0  0  0  0  0  0  0
  -35.1389  -23.0520   26.4436 C   0  0  0  0  0  0  0  0  0  0  0  0
  -33.9733  -20.9583   27.1208 C   0  0  0  0  0  0  0  0  0  0  0  0
  -29.3666  -19.7912   24.0390 C   0  0  0  0  0  0  0  0  0  0  0  0
  -32.0350  -20.6847   23.1991 C   0  0  0  0  0  0  0  0  0  0  0  0
  -28.2324  -20.5012   23.2966 C   0  0  0  0  0  0  0  0  0  0  0  0
  -33.0269  -20.6046   24.3756 C   0  0  0  0  0  0  0  0  0  0  0  0
  -33.5509  -21.9476   24.8750 C   0  0  0  0  0  0  0  0  0  0  0  0
  -28.7243  -21.5050   22.2605 C   0  0  0  0  0  0  0  0  0  1  0  0
  -33.6037  -18.9350   21.4812 C   0  0  0  0  0  0  0  0  0  0  0  0
  -33.1228  -26.8088   19.5596 C   0  0  1  0  0  0  0  0  0  0  0  0
  -34.4343  -27.7354   22.9934 C   0  0  2  0  0  0  0  0  0  0  0  0
  -34.0926  -26.6479   18.3550 C   0  0  0  0  0  0  0  0  0  0  0  0
  -25.8595  -11.5424   20.2835 N   0  0  0  0  0  0  0  0  0  0  0  0
  -31.8104  -17.3247   21.4973 N   0  0  0  0  0  0  0  0  0  0  0  0
  -26.2376  -12.8256   20.1554 N   0  0  0  0  0  0  0  0  0  0  0  0
  -30.6612  -26.9554   19.3528 N   0  0  0  0  0  0  0  0  0  0  0  0
  -29.9696  -13.6092   20.3596 N   0  0  0  0  0  0  0  0  0  0  0  0
  -25.4736  -15.0538   20.4050 N   0  0  0  0  0  0  0  0  0  0  0  0
  -21.8870  -12.5826   21.5989 N   0  0  0  0  0  0  0  0  0  0  0  0
  -30.0834  -15.6878   21.4681 N   0  0  0  0  0  0  0  0  0  0  0  0
  -29.2880  -28.0029   16.4568 N   0  0  0  0  0  0  0  0  0  0  0  0
  -33.7156  -27.4641   20.7205 N   0  0  0  0  0  0  0  0  0  0  0  0
  -33.8215  -27.5133   24.3335 N   0  3  0  0  0  0  0  0  0  0  0  0
  -34.5341  -21.7535   25.9661 N   0  3  0  0  0  0  0  0  0  0  0  0
  -22.6646  -14.7218   21.3194 O   0  0  0  0  0  0  0  0  0  0  0  0
  -28.9861  -25.8593   17.3150 O   0  0  0  0  0  0  0  0  0  0  0  0
  -32.0196  -28.7735   18.8184 O   0  0  0  0  0  0  0  0  0  0  0  0
  -33.3374  -25.7294   22.2122 O   0  0  0  0  0  0  0  0  0  0  0  0
  -31.8582  -14.9302   20.1805 O   0  0  0  0  0  0  0  0  0  0  0  0
  -21.6081   -7.0197   21.7048 O   0  0  0  0  0  0  0  0  0  0  0  0
  -27.5931  -22.1194   21.6447 O   0  0  0  0  0  0  0  0  0  1  0  0
  -18.6203   -6.8622   26.3365 F   0  0  0  0  0  0  0  0  0  0  0  0
  -22.0579   -5.0748   23.6174 F   0  0  0  0  0  0  0  0  0  0  0  0
  1  2  1  0  0  0  0
  1  5  2  0  0  0  0
  2  6  2  0  0  0  0
  3  8  2  0  0  0  0
  3 16  1  0  0  0  0
  4  9  1  0  0  0  0
  4 16  2  0  0  0  0
  5 18  1  0  0  0  0
  6 20  1  0  0  0  0
  7 10  2  0  0  0  0
  7 19  1  0  0  0  0
  8 24  1  0  0  0  0
  9 24  2  0  0  0  0
 10 25  1  0  0  0  0
 11 12  2  0  0  0  0
 11 26  1  0  0  0  0
 12 27  1  0  0  0  0
 13 21  1  0  0  0  0
 13 25  2  0  0  0  0
 14 22  1  0  0  0  0
 14 31  2  0  0  0  0
 15 27  2  0  0  0  0
 15 28  1  0  0  0  0
 16 29  1  0  0  0  0
 17 29  1  0  0  0  0
 17 32  2  0  0  0  0
 17 33  1  0  0  0  0
 18 20  2  0  0  0  0
 18 38  1  0  0  0  0
 19 21  2  0  0  0  0
 19 39  1  0  0  0  0
 20 47  1  0  0  0  0
 21 40  1  0  0  0  0
 22 23  2  0  0  0  0
 22 59  1  0  0  0  0
 23 30  1  0  0  0  0
 23 60  1  0  0  0  0
 24 86  1  0  0  0  0
 25 87  1  0  0  0  0
 26 28  2  0  0  0  0
 26 86  1  0  0  0  0
 27 88  1  0  0  0  0
 28 89  1  0  0  0  0
 29 69  2  0  0  0  0
 30 65  1  0  0  0  0
 30 70  2  0  0  0  0
 31 70  1  0  0  0  0
 31 76  1  0  0  0  0
 32 71  1  0  0  0  0
 32 74  1  0  0  0  0
 33 75  1  0  0  0  0
 33 81  2  0  0  0  0
 34 48  1  0  0  0  0
 34 77  1  0  0  0  0
 34 82  2  0  0  0  0
 35 66  1  0  0  0  0
 35 72  1  0  0  0  0
 35 83  2  0  0  0  0
 36 67  1  0  0  0  0
 36 78  1  0  0  0  0
 36 84  2  0  0  0  0
 37 73  1  0  0  0  0
 37 76  1  0  0  0  0
 37 85  2  0  0  0  0
 38 41  1  0  0  0  0
 39 48  1  0  0  0  0
 40 72  1  0  0  0  0
 41 43  1  0  0  0  0
 42 44  1  0  0  0  0
 42 45  1  0  0  0  0
 43 47  1  0  0  0  0
 44 49  1  0  0  0  0
 45 73  1  0  0  0  0
 46 49  1  0  0  0  0
 46 73  1  0  0  0  0
 47 77  1  0  0  0  0
 48 72  1  0  0  0  0
 49 71  1  0  0  0  0
 50 65  1  0  0  0  0
 51 65  1  0  0  0  0
 52 67  1  0  0  0  0
 53 68  1  0  0  0  0
 54 68  1  0  0  0  0
 55 68  1  0  0  0  0
 56 79  1  0  0  0  0
 57 80  1  0  0  0  0
 58 80  1  0  0  0  0
 59 61  1  0  0  0  0
 60 62  1  0  0  0  0
 61 64  1  0  0  0  0
 62 63  1  0  0  0  0
 63 80  1  0  0  0  0
 64 87  1  0  0  0  0
 66 68  1  0  0  0  0
 66 78  1  0  0  0  0
 67 79  1  0  0  0  0
 69 71  1  0  0  0  0
M  CHG  2  79   1  80   1
M  ISO  4  37 100  64 101  76 100  87 101
M  END
> <Batch ID>
0097

> <Smiles>
CNC(C)C(=O)NC(C(=O)N1Cc2cc([101O:1][101CH2:1]CCc3cc([100NH:0][100C:0](=O)N4CCCC(n5nc(-c6ccc(Oc7ccc(F)cc7F)cc6)c(C(N)=O)c5N)C4)nc(C(C)C)c3CCCN(C)C)ccc2CC1C(=O)NC1CCCc2ccccc21)C(C)(C)C

> <Shape>
0.228

> <Color>
0.184

> <Negative vol penalty>
0.000

$$$$

  -OEChem-04052319263D

 88 96  0     1  0  0  0  0  0999 V2000
  -28.5196  -18.2795   21.5143 C   0  0  0  0  0  0  0  0  0  0  0  0
  -28.9150  -16.9459   21.5369 C   0  0  0  0  0  0  0  0  0  0  0  0
  -23.2864   -9.7972   19.9092 C   0  0  0  0  0  0  0  0  0  0  0  0
  -23.7224   -9.9381   22.2814 C   0  0  0  0  0  0  0  0  0  0  0  0
  -28.9164  -19.1405   22.5366 C   0  0  0  0  0  0  0  0  0  0  0  0
  -29.7085  -16.4727   22.5814 C   0  0  0  0  0  0  0  0  0  0  0  0
  -29.5245  -10.8983   25.1108 C   0  0  0  0  0  0  0  0  0  0  0  0
  -22.5541   -8.6277   20.1132 C   0  0  0  0  0  0  0  0  0  0  0  0
  -22.9901   -8.7686   22.4854 C   0  0  0  0  0  0  0  0  0  0  0  0
  -30.3008   -9.7560   24.9207 C   0  0  0  0  0  0  0  0  0  0  0  0
  -20.9325   -6.0175   23.6753 C   0  0  0  0  0  0  0  0  0  0  0  0
  -20.0239   -5.9966   24.7335 C   0  0  0  0  0  0  0  0  0  0  0  0
  -31.6604  -10.3720   26.8157 C   0  0  0  0  0  0  0  0  0  0  0  0
  -35.0615  -11.5558   21.7619 C   0  0  0  0  0  0  0  0  0  0  0  0
  -18.8280   -7.8476   23.7431 C   0  0  0  0  0  0  0  0  0  0  0  0
  -33.9456  -11.5718   23.7174 C   0  0  0  0  0  0  0  0  0  0  0  0
  -23.8706  -10.4524   20.9933 C   0  0  0  0  0  0  0  0  0  0  0  0
  -24.1411  -12.9811   20.7942 C   0  0  0  0  0  0  0  0  0  0  0  0
  -29.7071  -18.6754   23.5992 C   0  0  0  0  0  0  0  0  0  0  0  0
  -29.8175  -11.7932   26.1498 C   0  0  0  0  0  0  0  0  0  0  0  0
  -30.1173  -17.3286   23.6182 C   0  0  0  0  0  0  0  0  0  0  0  0
  -30.8847  -11.5236   27.0184 C   0  0  0  0  0  0  0  0  0  0  0  0
  -34.0775  -12.2380   22.5191 C   0  0  0  0  0  0  0  0  0  0  0  0
  -22.4059   -8.1134   21.4013 C   0  0  0  0  0  0  0  0  0  0  0  0
  -31.3707   -9.4941   25.7714 C   0  0  0  0  0  0  0  0  0  0  0  0
  -20.7888   -6.9534   22.6511 C   0  0  0  0  0  0  0  0  0  0  0  0
  -18.9717   -6.9116   24.7674 C   0  0  0  0  0  0  0  0  0  0  0  0
  -19.7366   -7.8684   22.6850 C   0  0  0  0  0  0  0  0  0  0  0  0
  -24.6276  -11.6602   20.7831 C   0  0  0  0  0  0  0  0  0  0  0  0
  -35.5009  -10.4933   22.5205 C   0  0  0  0  0  0  0  0  0  0  0  0
  -25.2473  -13.7565   20.5457 C   0  0  0  0  0  0  0  0  0  0  0  0
  -22.8085  -13.4642   21.0100 C   0  0  0  0  0  0  0  0  0  0  0  0
  -30.6727  -14.8509   26.3024 C   0  0  0  0  0  0  0  0  0  0  0  0
  -30.3254  -14.3851   29.4938 C   0  0  0  0  0  0  0  0  0  0  0  0
  -30.2882  -12.2009   32.1158 C   0  0  0  0  0  0  0  0  0  0  0  0
  -30.9967  -12.8340   21.5195 C   0  0  0  0  0  0  0  0  0  0  0  0
  -30.1506  -19.6548   24.6569 C   0  0  0  0  0  0  0  0  0  0  0  0
  -28.9541  -13.0072   26.3579 C   0  0  0  0  0  0  0  0  0  0  0  0
  -31.2284  -12.4422   28.1614 C   0  0  0  0  0  0  0  0  0  0  0  0
  -30.6793  -18.9858   25.9231 C   0  0  0  0  0  0  0  0  0  0  0  0
  -29.4870  -13.6310   18.3284 C   0  0  0  0  0  0  0  0  0  0  0  0
  -31.6515  -17.8651   25.5686 C   0  0  0  0  0  0  0  0  0  0  0  0
  -28.0120  -13.3368   18.6078 C   0  0  0  0  0  0  0  0  0  0  0  0
  -30.3941  -12.6261   19.0323 C   0  0  0  0  0  0  0  0  0  0  0  0
  -28.7068  -12.2342   20.7853 C   0  0  0  0  0  0  0  0  0  0  0  0
  -30.9575  -16.7720   24.7471 C   0  0  1  0  0  0  0  0  0  0  0  0
  -29.6589  -14.1160   27.1331 C   0  0  1  0  0  0  0  0  0  0  0  0
  -27.7388  -13.2292   20.1198 C   0  0  2  0  0  0  0  0  0  0  0  0
  -30.0177  -12.1210   34.6093 C   0  0  0  0  0  0  0  0  0  0  0  0
  -42.8620   -8.5498   22.7159 C   0  0  0  0  0  0  0  0  0  0  0  0
  -41.5231   -7.8683   20.7138 C   0  0  0  0  0  0  0  0  0  0  0  0
  -32.2931   -7.0005   23.6308 C   0  0  0  0  0  0  0  0  0  0  0  0
  -33.1579  -15.4675   29.8333 C   0  0  0  0  0  0  0  0  0  0  0  0
  -33.1787  -14.4939   32.1398 C   0  0  0  0  0  0  0  0  0  0  0  0
  -31.5237  -16.2647   31.5503 C   0  0  0  0  0  0  0  0  0  0  0  0
  -27.8954  -10.4705   31.9171 C   0  0  0  0  0  0  0  0  0  0  0  0
  -33.3312  -13.4404   22.1024 C   0  0  0  0  0  0  0  0  0  0  0  0
  -36.5152   -9.4640   22.2127 C   0  0  0  0  0  0  0  0  0  0  0  0
  -37.9561   -9.8271   22.6404 C   0  0  0  0  0  0  0  0  0  0  0  0
  -38.9734   -8.7530   22.2412 C   0  0  0  0  0  0  0  0  0  0  0  0
  -40.4100   -9.0897   22.6592 C   0  0  0  0  0  0  0  0  0  0  0  0
  -34.3144   -8.1705   24.5795 C   0  0  0  0  0  0  0  0  0  0  0  0
  -34.9799   -9.5299   24.8386 C   0  0  0  0  0  0  0  0  0  0  0  0
  -31.2323  -13.9346   30.6134 C   0  0  1  0  0  0  0  0  0  0  0  0
  -29.3127  -12.0237   33.2654 C   0  0  2  0  0  0  0  0  0  0  0  0
  -41.4891   -8.0783   22.2281 C   0  0  0  0  0  0  0  0  0  0  0  0
  -32.8024   -8.2515   24.3354 C   0  0  2  0  0  0  0  0  0  1  0  0
  -32.2681  -15.0237   31.0116 C   0  0  0  0  0  0  0  0  0  0  0  0
  -25.9405  -11.5962   20.5461 N   0  0  0  0  0  0  0  0  0  0  0  0
  -34.8155  -10.5128   23.7071 N   0  0  0  0  0  0  0  0  0  0  0  0
  -26.2884  -12.8867   20.4059 N   0  0  0  0  0  0  0  0  0  0  0  0
  -30.3585  -13.6193   28.3198 N   0  0  0  0  0  0  0  0  0  0  0  0
  -30.0956  -12.5857   20.4708 N   0  0  0  0  0  0  0  0  0  0  0  0
  -25.4212  -15.0907   20.4353 N   0  0  0  0  0  0  0  0  0  0  0  0
  -21.7907  -12.5314   21.2517 N   0  0  0  0  0  0  0  0  0  0  0  0
  -30.1559  -15.9266   25.6058 N   0  0  0  0  0  0  0  0  0  0  0  0
  -30.3580  -13.5147   31.7032 N   0  0  0  0  0  0  0  0  0  0  0  0
  -32.2938  -13.1533   21.1368 N   0  0  0  0  0  0  0  0  0  0  0  0
  -28.6468  -10.6932   33.1792 N   0  3  0  0  0  0  0  0  0  0  0  0
  -22.5257  -14.6857   20.9728 O   0  0  0  0  0  0  0  0  0  0  0  0
  -31.8377  -14.4710   26.2953 O   0  0  0  0  0  0  0  0  0  0  0  0
  -29.6086  -15.3756   29.6576 O   0  0  0  0  0  0  0  0  0  0  0  0
  -30.9273  -11.2679   31.6346 O   0  0  0  0  0  0  0  0  0  0  0  0
  -30.6683  -12.7804   22.7096 O   0  0  0  0  0  0  0  0  0  0  0  0
  -21.6912   -6.9723   21.6008 O   0  0  0  0  0  0  0  0  0  0  0  0
  -32.1304   -8.3802   25.5878 O   0  0  0  0  0  0  0  0  0  1  0  0
  -18.0984   -6.8905   25.7828 F   0  0  0  0  0  0  0  0  0  0  0  0
  -19.5928   -8.7692   21.7032 F   0  0  0  0  0  0  0  0  0  0  0  0
  1  2  1  0  0  0  0
  1  5  2  0  0  0  0
  2  6  2  0  0  0  0
  3  8  2  0  0  0  0
  3 17  1  0  0  0  0
  4  9  1  0  0  0  0
  4 17  2  0  0  0  0
  5 19  1  0  0  0  0
  6 21  1  0  0  0  0
  7 10  2  0  0  0  0
  7 20  1  0  0  0  0
  8 24  1  0  0  0  0
  9 24  2  0  0  0  0
 10 25  1  0  0  0  0
 11 12  2  0  0  0  0
 11 26  1  0  0  0  0
 12 27  1  0  0  0  0
 13 22  1  0  0  0  0
 13 25  2  0  0  0  0
 14 23  1  0  0  0  0
 14 30  2  0  0  0  0
 15 27  2  0  0  0  0
 15 28  1  0  0  0  0
 16 23  2  0  0  0  0
 16 70  1  0  0  0  0
 17 29  1  0  0  0  0
 18 29  1  0  0  0  0
 18 31  2  0  0  0  0
 18 32  1  0  0  0  0
 19 21  2  0  0  0  0
 19 37  1  0  0  0  0
 20 22  2  0  0  0  0
 20 38  1  0  0  0  0
 21 46  1  0  0  0  0
 22 39  1  0  0  0  0
 23 57  1  0  0  0  0
 24 85  1  0  0  0  0
 25 86  1  0  0  0  0
 26 28  2  0  0  0  0
 26 85  1  0  0  0  0
 27 87  1  0  0  0  0
 28 88  1  0  0  0  0
 29 69  2  0  0  0  0
 30 58  1  0  0  0  0
 30 70  1  0  0  0  0
 31 71  1  0  0  0  0
 31 74  1  0  0  0  0
 32 75  1  0  0  0  0
 32 80  2  0  0  0  0
 33 47  1  0  0  0  0
 33 76  1  0  0  0  0
 33 81  2  0  0  0  0
 34 64  1  0  0  0  0
 34 72  1  0  0  0  0
 34 82  2  0  0  0  0
 35 65  1  0  0  0  0
 35 77  1  0  0  0  0
 35 83  2  0  0  0  0
 36 73  1  0  0  0  0
 36 78  1  0  0  0  0
 36 84  2  0  0  0  0
 37 40  1  0  0  0  0
 38 47  1  0  0  0  0
 39 72  1  0  0  0  0
 40 42  1  0  0  0  0
 41 43  1  0  0  0  0
 41 44  1  0  0  0  0
 42 46  1  0  0  0  0
 43 48  1  0  0  0  0
 44 73  1  0  0  0  0
 45 48  1  0  0  0  0
 45 73  1  0  0  0  0
 46 76  1  0  0  0  0
 47 72  1  0  0  0  0
 48 71  1  0  0  0  0
 49 65  1  0  0  0  0
 50 66  1  0  0  0  0
 51 66  1  0  0  0  0
 52 67  1  0  0  0  0
 53 68  1  0  0  0  0
 54 68  1  0  0  0  0
 55 68  1  0  0  0  0
 56 79  1  0  0  0  0
 57 78  1  0  0  0  0
 58 59  1  0  0  0  0
 59 60  1  0  0  0  0
 60 61  1  0  0  0  0
 61 66  1  0  0  0  0
 62 63  1  0  0  0  0
 62 67  1  0  0  0  0
 63 70  1  0  0  0  0
 64 68  1  0  0  0  0
 64 77  1  0  0  0  0
 65 79  1  0  0  0  0
 67 86  1  0  0  0  0
 69 71  1  0  0  0  0
M  CHG  1  79   1
M  ISO  4  36 100  67 101  78 100  86 101
M  END
> <Batch ID>
0097

> <Smiles>
CNC(C)C(=O)NC(C(=O)N1Cc2cc([101O:1][101CH:1](C)CCn3cc(C[100NH:0][100C:0](=O)N4CCCC(n5nc(-c6ccc(Oc7ccc(F)cc7F)cc6)c(C(N)=O)c5N)C4)cc3CCCCC(C)C)ccc2CC1C(=O)NC1CCCc2ccccc21)C(C)(C)C

> <Shape>
0.145

> <Color>
0.173

> <Negative vol penalty>
0.000

$$$$

  -OEChem-04052319263D

 88 96  0     1  0  0  0  0  0999 V2000
  -17.4856  -26.1593   22.5561 C   0  0  0  0  0  0  0  0  0  0  0  0
  -18.7405  -25.6553   22.8828 C   0  0  0  0  0  0  0  0  0  0  0  0
  -26.7110  -13.2252   21.5235 C   0  0  0  0  0  0  0  0  0  0  0  0
  -25.3225  -14.3853   19.9224 C   0  0  0  0  0  0  0  0  0  0  0  0
  -17.3780  -27.3717   21.8761 C   0  0  0  0  0  0  0  0  0  0  0  0
  -19.8886  -26.3630   22.5287 C   0  0  0  0  0  0  0  0  0  0  0  0
  -25.1182  -26.7172   25.6961 C   0  0  0  0  0  0  0  0  0  0  0  0
  -25.8447  -12.1327   21.4831 C   0  0  0  0  0  0  0  0  0  0  0  0
  -24.4563  -13.2928   19.8820 C   0  0  0  0  0  0  0  0  0  0  0  0
  -26.3326  -26.0424   25.5800 C   0  0  0  0  0  0  0  0  0  0  0  0
  -21.6854  -10.9545   19.6282 C   0  0  0  0  0  0  0  0  0  0  0  0
  -20.3154  -11.2110   19.6823 C   0  0  0  0  0  0  0  0  0  0  0  0
  -27.2142  -27.8667   24.2707 C   0  0  0  0  0  0  0  0  0  0  0  0
  -20.5985  -12.2691   21.8357 C   0  0  0  0  0  0  0  0  0  0  0  0
  -27.7444  -24.6952   20.5657 C   0  0  0  0  0  0  0  0  0  0  0  0
  -26.4499  -14.3515   20.7432 C   0  0  0  0  0  0  0  0  0  0  0  0
  -28.4700  -15.7039   19.9700 C   0  0  0  0  0  0  0  0  0  0  0  0
  -18.5251  -28.0994   21.5221 C   0  0  0  0  0  0  0  0  0  0  0  0
  -24.9387  -27.9691   25.0901 C   0  0  0  0  0  0  0  0  0  0  0  0
  -19.7963  -27.5856   21.8422 C   0  0  0  0  0  0  0  0  0  0  0  0
  -25.9973  -28.5565   24.3827 C   0  0  0  0  0  0  0  0  0  0  0  0
  -27.0822  -23.5776   20.1076 C   0  0  0  0  0  0  0  0  0  0  0  0
  -28.0552  -22.7018   19.5659 C   0  0  0  0  0  0  0  0  0  0  0  0
  -24.7174  -12.1665   20.6624 C   0  0  0  0  0  0  0  0  0  0  0  0
  -27.3799  -26.6158   24.8648 C   0  0  0  0  0  0  0  0  0  0  0  0
  -22.5120  -11.3552   20.6780 C   0  0  0  0  0  0  0  0  0  0  0  0
  -19.7720  -11.8683   20.7860 C   0  0  0  0  0  0  0  0  0  0  0  0
  -21.9685  -12.0126   21.7817 C   0  0  0  0  0  0  0  0  0  0  0  0
  -27.3440  -15.4806   20.7849 C   0  0  0  0  0  0  0  0  0  0  0  0
  -29.2823  -23.3108   19.7096 C   0  0  0  0  0  0  0  0  0  0  0  0
  -28.9741  -16.9060   20.4027 C   0  0  0  0  0  0  0  0  0  0  0  0
  -29.0118  -14.8968   18.9161 C   0  0  0  0  0  0  0  0  0  0  0  0
  -23.0077  -29.1162   22.8409 C   0  0  0  0  0  0  0  0  0  0  0  0
  -24.3730  -31.9427   23.6589 C   0  0  0  0  0  0  0  0  0  0  0  0
  -27.0372  -33.5879   25.0162 C   0  0  0  0  0  0  0  0  0  0  0  0
  -26.5004  -21.6083   23.1633 C   0  0  0  0  0  0  0  0  0  0  0  0
  -18.3603  -29.3820   20.7460 C   0  0  0  0  0  0  0  0  0  0  0  0
  -23.6313  -28.6960   25.2472 C   0  0  0  0  0  0  0  0  0  0  0  0
  -25.8623  -29.9074   23.7306 C   0  0  0  0  0  0  0  0  0  0  0  0
  -19.6131  -30.2542   20.7376 C   0  0  0  0  0  0  0  0  0  0  0  0
  -29.2554  -19.6623   24.3033 C   0  0  0  0  0  0  0  0  0  0  0  0
  -20.8471  -29.4130   20.4272 C   0  0  0  0  0  0  0  0  0  0  0  0
  -29.1795  -18.3900   23.4574 C   0  0  0  0  0  0  0  0  0  0  0  0
  -27.8661  -20.1852   24.6619 C   0  0  0  0  0  0  0  0  0  0  0  0
  -26.8901  -19.1189   22.6659 C   0  0  0  0  0  0  0  0  0  0  0  0
  -21.0643  -28.3362   21.4972 C   0  0  1  0  0  0  0  0  0  0  0  0
  -23.3901  -29.7344   24.1559 C   0  0  1  0  0  0  0  0  0  0  0  0
  -28.2661  -18.5849   22.2322 C   0  0  2  0  0  0  0  0  0  0  0  0
  -27.8622  -21.4065   17.4278 C   0  0  0  0  0  0  0  0  0  0  0  0
  -32.5628  -21.2813   19.8669 C   0  0  0  0  0  0  0  0  0  0  0  0
  -27.8806  -35.8986   25.5130 C   0  0  0  0  0  0  0  0  0  0  0  0
  -31.1557  -24.6604   24.3581 C   0  0  0  0  0  0  0  0  0  0  0  0
  -25.0450  -32.3292   20.7078 C   0  0  0  0  0  0  0  0  0  0  0  0
  -26.6682  -34.1119   21.3827 C   0  0  0  0  0  0  0  0  0  0  0  0
  -24.2381  -34.3899   21.8726 C   0  0  0  0  0  0  0  0  0  0  0  0
  -27.1450  -33.0489   27.9243 C   0  0  0  0  0  0  0  0  0  0  0  0
  -25.6254  -23.3463   20.1739 C   0  0  0  0  0  0  0  0  0  0  0  0
  -27.8030  -21.3788   18.9582 C   0  0  0  0  0  0  0  0  0  0  0  0
  -30.6300  -22.8447   19.3202 C   0  0  0  0  0  0  0  0  0  0  0  0
  -31.1926  -21.7869   20.2898 C   0  0  0  0  0  0  0  0  0  0  0  0
  -30.9840  -25.1402   21.9031 C   0  0  0  0  0  0  0  0  0  0  0  0
  -30.1526  -25.5233   20.6710 C   0  0  0  0  0  0  0  0  0  0  0  0
  -25.1207  -22.9066   21.5601 C   0  0  0  0  0  0  0  0  0  0  0  0
  -29.3264  -26.1946   23.5649 C   0  0  0  0  0  0  0  0  0  1  0  0
  -25.5869  -32.7154   23.2025 C   0  0  1  0  0  0  0  0  0  0  0  0
  -27.1160  -34.6980   26.0486 C   0  0  2  0  0  0  0  0  0  0  0  0
  -30.1833  -24.9710   23.2131 C   0  0  2  0  0  0  0  0  0  0  0  0
  -25.3868  -33.3603   21.8019 C   0  0  0  0  0  0  0  0  0  0  0  0
  -27.1443  -16.4621   21.6686 N   0  0  0  0  0  0  0  0  0  0  0  0
  -29.0812  -24.5218   20.3188 N   0  0  0  0  0  0  0  0  0  0  0  0
  -28.1516  -17.3137   21.4114 N   0  0  0  0  0  0  0  0  0  0  0  0
  -24.5625  -30.5758   23.9072 N   0  0  0  0  0  0  0  0  0  0  0  0
  -27.0508  -20.3496   23.4560 N   0  0  0  0  0  0  0  0  0  0  0  0
  -30.0362  -17.6435   20.0149 N   0  0  0  0  0  0  0  0  0  0  0  0
  -28.3701  -13.6915   18.6003 N   0  0  0  0  0  0  0  0  0  0  0  0
  -21.6491  -28.9167   22.6869 N   0  0  0  0  0  0  0  0  0  0  0  0
  -25.8850  -33.6713   24.2634 N   0  0  0  0  0  0  0  0  0  0  0  0
  -25.7462  -21.6788   21.9984 N   0  0  0  0  0  0  0  0  0  0  0  0
  -27.8037  -34.2136   27.2788 N   0  3  0  0  0  0  0  0  0  0  0  0
  -30.0441  -15.2265   18.2844 O   0  0  0  0  0  0  0  0  0  0  0  0
  -23.8805  -28.8420   22.0256 O   0  0  0  0  0  0  0  0  0  0  0  0
  -23.2981  -32.5317   23.7972 O   0  0  0  0  0  0  0  0  0  0  0  0
  -27.9122  -32.7343   24.8878 O   0  0  0  0  0  0  0  0  0  0  0  0
  -26.6729  -22.5973   23.8837 O   0  0  0  0  0  0  0  0  0  0  0  0
  -23.8720  -11.1005   20.6225 O   0  0  0  0  0  0  0  0  0  0  0  0
  -28.5662  -25.9591   24.7493 O   0  0  0  0  0  0  0  0  0  1  0  0
  -18.4566  -12.1160   20.8370 F   0  0  0  0  0  0  0  0  0  0  0  0
  -22.7577  -12.4010   22.7927 F   0  0  0  0  0  0  0  0  0  0  0  0
  1  2  1  0  0  0  0
  1  5  2  0  0  0  0
  2  6  2  0  0  0  0
  3  8  2  0  0  0  0
  3 16  1  0  0  0  0
  4  9  1  0  0  0  0
  4 16  2  0  0  0  0
  5 18  1  0  0  0  0
  6 20  1  0  0  0  0
  7 10  2  0  0  0  0
  7 19  1  0  0  0  0
  8 24  1  0  0  0  0
  9 24  2  0  0  0  0
 10 25  1  0  0  0  0
 11 12  2  0  0  0  0
 11 26  1  0  0  0  0
 12 27  1  0  0  0  0
 13 21  1  0  0  0  0
 13 25  2  0  0  0  0
 14 27  2  0  0  0  0
 14 28  1  0  0  0  0
 15 22  2  0  0  0  0
 15 70  1  0  0  0  0
 16 29  1  0  0  0  0
 17 29  1  0  0  0  0
 17 31  2  0  0  0  0
 17 32  1  0  0  0  0
 18 20  2  0  0  0  0
 18 37  1  0  0  0  0
 19 21  2  0  0  0  0
 19 38  1  0  0  0  0
 20 46  1  0  0  0  0
 21 39  1  0  0  0  0
 22 23  1  0  0  0  0
 22 57  1  0  0  0  0
 23 30  2  0  0  0  0
 23 58  1  0  0  0  0
 24 85  1  0  0  0  0
 25 86  1  0  0  0  0
 26 28  2  0  0  0  0
 26 85  1  0  0  0  0
 27 87  1  0  0  0  0
 28 88  1  0  0  0  0
 29 69  2  0  0  0  0
 30 59  1  0  0  0  0
 30 70  1  0  0  0  0
 31 71  1  0  0  0  0
 31 74  1  0  0  0  0
 32 75  1  0  0  0  0
 32 80  2  0  0  0  0
 33 47  1  0  0  0  0
 33 76  1  0  0  0  0
 33 81  2  0  0  0  0
 34 65  1  0  0  0  0
 34 72  1  0  0  0  0
 34 82  2  0  0  0  0
 35 66  1  0  0  0  0
 35 77  1  0  0  0  0
 35 83  2  0  0  0  0
 36 73  1  0  0  0  0
 36 78  1  0  0  0  0
 36 84  2  0  0  0  0
 37 40  1  0  0  0  0
 38 47  1  0  0  0  0
 39 72  1  0  0  0  0
 40 42  1  0  0  0  0
 41 43  1  0  0  0  0
 41 44  1  0  0  0  0
 42 46  1  0  0  0  0
 43 48  1  0  0  0  0
 44 73  1  0  0  0  0
 45 48  1  0  0  0  0
 45 73  1  0  0  0  0
 46 76  1  0  0  0  0
 47 72  1  0  0  0  0
 48 71  1  0  0  0  0
 49 58  1  0  0  0  0
 50 60  1  0  0  0  0
 51 66  1  0  0  0  0
 52 67  1  0  0  0  0
 53 68  1  0  0  0  0
 54 68  1  0  0  0  0
 55 68  1  0  0  0  0
 56 79  1  0  0  0  0
 57 63  1  0  0  0  0
 59 60  1  0  0  0  0
 61 62  1  0  0  0  0
 61 67  1  0  0  0  0
 62 70  1  0  0  0  0
 63 78  1  0  0  0  0
 64 67  1  0  0  0  0
 64 86  1  0  0  0  0
 65 68  1  0  0  0  0
 65 77  1  0  0  0  0
 66 79  1  0  0  0  0
 69 71  1  0  0  0  0
M  CHG  1  79   1
M  ISO  4  36 100  64 101  78 100  86 101
M  END
> <Batch ID>
0097

> <Smiles>
CCCc1c(CC)c(CC[100NH:0][100C:0](=O)N2CCCC(n3nc(-c4ccc(Oc5ccc(F)cc5F)cc4)c(C(N)=O)c3N)C2)cn1CCC(C)[101CH2:1][101O:1]c1ccc2c(c1)CN(C(=O)C(NC(=O)C(C)NC)C(C)(C)C)C(C(=O)NC1CCCc3ccccc31)C2

> <Shape>
0.240

> <Color>
0.083

> <Negative vol penalty>
0.000

$$$$

  -OEChem-04052319263D

 86 94  0     1  0  0  0  0  0999 V2000
  -18.2298  -26.5404   25.8919 C   0  0  0  0  0  0  0  0  0  0  0  0
  -18.9627  -25.4316   25.4810 C   0  0  0  0  0  0  0  0  0  0  0  0
  -29.0377  -16.8202   19.4615 C   0  0  0  0  0  0  0  0  0  0  0  0
  -27.9935  -17.4191   21.5562 C   0  0  0  0  0  0  0  0  0  0  0  0
  -18.1353  -27.6581   25.0638 C   0  0  0  0  0  0  0  0  0  0  0  0
  -19.6007  -25.4395   24.2411 C   0  0  0  0  0  0  0  0  0  0  0  0
  -24.3314  -23.6483   24.4789 C   0  0  0  0  0  0  0  0  0  0  0  0
  -29.3742  -18.1568   19.2471 C   0  0  0  0  0  0  0  0  0  0  0  0
  -28.3300  -18.7557   21.3419 C   0  0  0  0  0  0  0  0  0  0  0  0
  -24.4857  -22.2641   24.5415 C   0  0  0  0  0  0  0  0  0  0  0  0
  -30.1923  -21.4645   17.9768 C   0  0  0  0  0  0  0  0  0  0  0  0
  -29.9690  -21.9953   16.7064 C   0  0  0  0  0  0  0  0  0  0  0  0
  -24.9817  -22.2187   22.1811 C   0  0  0  0  0  0  0  0  0  0  0  0
  -22.6371  -15.9933   25.0248 C   0  0  0  0  0  0  0  0  0  0  0  0
  -27.6122  -21.5068   16.9165 C   0  0  0  0  0  0  0  0  0  0  0  0
  -21.3782  -16.0690   23.1596 C   0  0  0  0  0  0  0  0  0  0  0  0
  -28.3473  -16.4514   20.6160 C   0  0  0  0  0  0  0  0  0  0  0  0
  -28.7684  -14.0959   21.5003 C   0  0  0  0  0  0  0  0  0  0  0  0
  -18.7804  -27.6834   23.8172 C   0  0  0  0  0  0  0  0  0  0  0  0
  -24.4906  -24.3280   23.2627 C   0  0  0  0  0  0  0  0  0  0  0  0
  -19.5136  -26.5580   23.3949 C   0  0  0  0  0  0  0  0  0  0  0  0
  -24.8313  -23.6119   22.1063 C   0  0  0  0  0  0  0  0  0  0  0  0
  -22.3061  -16.7764   23.8916 C   0  0  0  0  0  0  0  0  0  0  0  0
  -29.0204  -19.1245   20.1872 C   0  0  0  0  0  0  0  0  0  0  0  0
  -24.8081  -21.5487   23.3919 C   0  0  0  0  0  0  0  0  0  0  0  0
  -29.1256  -20.9547   18.7170 C   0  0  0  0  0  0  0  0  0  0  0  0
  -28.6790  -22.0165   16.1762 C   0  0  0  0  0  0  0  0  0  0  0  0
  -27.8356  -20.9759   18.1869 C   0  0  0  0  0  0  0  0  0  0  0  0
  -27.9990  -15.0709   20.8378 C   0  0  0  0  0  0  0  0  0  0  0  0
  -21.9015  -14.8311   24.9508 C   0  0  0  0  0  0  0  0  0  0  0  0
  -28.0020  -12.9575   21.4447 C   0  0  0  0  0  0  0  0  0  0  0  0
  -30.0605  -14.2091   22.1115 C   0  0  0  0  0  0  0  0  0  0  0  0
  -22.6018  -26.0988   21.4188 C   0  0  0  0  0  0  0  0  0  0  0  0
  -25.3383  -26.5768   19.7439 C   0  0  0  0  0  0  0  0  0  0  0  0
  -28.4542  -25.4647   18.9063 C   0  0  0  0  0  0  0  0  0  0  0  0
  -22.1111  -12.0306   20.9071 C   0  0  0  0  0  0  0  0  0  0  0  0
  -18.6103  -28.8957   22.9363 C   0  0  0  0  0  0  0  0  0  0  0  0
  -24.3470  -25.8245   23.2174 C   0  0  0  0  0  0  0  0  0  0  0  0
  -25.0331  -24.2967   20.7802 C   0  0  0  0  0  0  0  0  0  0  0  0
  -19.6259  -28.9695   21.7990 C   0  0  0  0  0  0  0  0  0  0  0  0
  -24.6750  -10.8111   18.7586 C   0  0  0  0  0  0  0  0  0  0  0  0
  -19.7436  -27.6190   21.0998 C   0  0  0  0  0  0  0  0  0  0  0  0
  -25.8870  -11.6766   19.1076 C   0  0  0  0  0  0  0  0  0  0  0  0
  -23.3750  -11.6101   18.8185 C   0  0  0  0  0  0  0  0  0  0  0  0
  -24.3556  -13.1875   20.4383 C   0  0  0  0  0  0  0  0  0  0  0  0
  -20.2402  -26.5381   22.0676 C   0  0  1  0  0  0  0  0  0  0  0  0
  -24.0268  -26.3520   21.8221 C   0  0  1  0  0  0  0  0  0  0  0  0
  -25.6841  -12.4121   20.4460 C   0  0  2  0  0  0  0  0  0  0  0  0
  -21.3608  -14.0441   27.2836 C   0  0  0  0  0  0  0  0  0  0  0  0
  -23.2220  -12.9485   25.9834 C   0  0  0  0  0  0  0  0  0  0  0  0
  -30.4391  -26.0499   17.4868 C   0  0  0  0  0  0  0  0  0  0  0  0
  -23.8317  -25.6478   17.2585 C   0  0  0  0  0  0  0  0  0  0  0  0
  -26.0400  -25.3440   16.1187 C   0  0  0  0  0  0  0  0  0  0  0  0
  -25.3390  -27.6096   16.8923 C   0  0  0  0  0  0  0  0  0  0  0  0
  -19.0784  -13.5629   24.3554 C   0  0  0  0  0  0  0  0  0  0  0  0
  -19.5460  -14.3558   22.0513 C   0  0  0  0  0  0  0  0  0  0  0  0
  -30.2310  -25.6560   21.2653 C   0  0  0  0  0  0  0  0  0  0  0  0
  -22.8653  -18.1341   23.5489 C   0  0  0  0  0  0  0  0  0  0  0  0
  -24.1278  -18.0804   22.6859 C   0  0  0  0  0  0  0  0  0  0  0  0
  -20.9704  -12.5430   23.0508 C   0  0  0  0  0  0  0  0  0  0  0  0
  -24.6364  -19.4569   22.2736 C   0  0  0  0  0  0  0  0  0  1  0  0
  -21.8619  -13.6740   25.8689 C   0  0  0  0  0  0  0  0  0  0  0  0
  -26.0270  -25.8751   18.5983 C   0  0  1  0  0  0  0  0  0  0  0  0
  -29.7971  -26.1709   18.8601 C   0  0  2  0  0  0  0  0  0  0  0  0
  -25.3038  -26.1057   17.2414 C   0  0  0  0  0  0  0  0  0  0  0  0
  -20.2209  -13.8686   23.3561 C   0  0  0  0  0  0  0  0  0  0  0  0
  -26.8332  -14.5937   20.3937 N   0  0  0  0  0  0  0  0  0  0  0  0
  -21.1400  -14.8880   23.8127 N   0  0  0  0  0  0  0  0  0  0  0  0
  -26.8645  -13.3062   20.7779 N   0  0  0  0  0  0  0  0  0  0  0  0
  -24.8755  -25.7605   20.7858 N   0  0  0  0  0  0  0  0  0  0  0  0
  -23.2426  -12.2816   20.1136 N   0  0  0  0  0  0  0  0  0  0  0  0
  -28.1968  -11.7022   21.9015 N   0  0  0  0  0  0  0  0  0  0  0  0
  -30.7086  -15.4513   22.0786 N   0  0  0  0  0  0  0  0  0  0  0  0
  -21.6682  -26.6585   22.2700 N   0  0  0  0  0  0  0  0  0  0  0  0
  -27.4149  -26.3243   18.6196 N   0  0  0  0  0  0  0  0  0  0  0  0
  -22.0673  -12.7029   22.1223 N   0  0  0  0  0  0  0  0  0  0  0  0
  -30.7261  -25.5837   19.8665 N   0  3  0  0  0  0  0  0  0  0  0  0
  -30.6306  -13.2333   22.6559 O   0  0  0  0  0  0  0  0  0  0  0  0
  -22.3666  -25.4453   20.4091 O   0  0  0  0  0  0  0  0  0  0  0  0
  -25.2219  -27.8045   19.7188 O   0  0  0  0  0  0  0  0  0  0  0  0
  -28.3390  -24.2691   19.1667 O   0  0  0  0  0  0  0  0  0  0  0  0
  -21.2093  -11.2599   20.5607 O   0  0  0  0  0  0  0  0  0  0  0  0
  -29.3488  -20.4288   19.9785 O   0  0  0  0  0  0  0  0  0  0  0  0
  -24.9586  -20.1975   23.4501 O   0  0  0  0  0  0  0  0  0  1  0  0
  -28.4645  -22.5276   14.9568 F   0  0  0  0  0  0  0  0  0  0  0  0
  -26.8066  -20.4888   18.8938 F   0  0  0  0  0  0  0  0  0  0  0  0
  1  2  1  0  0  0  0
  1  5  2  0  0  0  0
  2  6  2  0  0  0  0
  3  8  2  0  0  0  0
  3 17  1  0  0  0  0
  4  9  1  0  0  0  0
  4 17  2  0  0  0  0
  5 19  1  0  0  0  0
  6 21  1  0  0  0  0
  7 10  2  0  0  0  0
  7 20  1  0  0  0  0
  8 24  1  0  0  0  0
  9 24  2  0  0  0  0
 10 25  1  0  0  0  0
 11 12  2  0  0  0  0
 11 26  1  0  0  0  0
 12 27  1  0  0  0  0
 13 22  1  0  0  0  0
 13 25  2  0  0  0  0
 14 23  1  0  0  0  0
 14 30  2  0  0  0  0
 15 27  2  0  0  0  0
 15 28  1  0  0  0  0
 16 23  2  0  0  0  0
 16 68  1  0  0  0  0
 17 29  1  0  0  0  0
 18 29  1  0  0  0  0
 18 31  2  0  0  0  0
 18 32  1  0  0  0  0
 19 21  2  0  0  0  0
 19 37  1  0  0  0  0
 20 22  2  0  0  0  0
 20 38  1  0  0  0  0
 21 46  1  0  0  0  0
 22 39  1  0  0  0  0
 23 58  1  0  0  0  0
 24 83  1  0  0  0  0
 25 84  1  0  0  0  0
 26 28  2  0  0  0  0
 26 83  1  0  0  0  0
 27 85  1  0  0  0  0
 28 86  1  0  0  0  0
 29 67  2  0  0  0  0
 30 62  1  0  0  0  0
 30 68  1  0  0  0  0
 31 69  1  0  0  0  0
 31 72  1  0  0  0  0
 32 73  1  0  0  0  0
 32 78  2  0  0  0  0
 33 47  1  0  0  0  0
 33 74  1  0  0  0  0
 33 79  2  0  0  0  0
 34 63  1  0  0  0  0
 34 70  1  0  0  0  0
 34 80  2  0  0  0  0
 35 64  1  0  0  0  0
 35 75  1  0  0  0  0
 35 81  2  0  0  0  0
 36 71  1  0  0  0  0
 36 76  1  0  0  0  0
 36 82  2  0  0  0  0
 37 40  1  0  0  0  0
 38 47  1  0  0  0  0
 39 70  1  0  0  0  0
 40 42  1  0  0  0  0
 41 43  1  0  0  0  0
 41 44  1  0  0  0  0
 42 46  1  0  0  0  0
 43 48  1  0  0  0  0
 44 71  1  0  0  0  0
 45 48  1  0  0  0  0
 45 71  1  0  0  0  0
 46 74  1  0  0  0  0
 47 70  1  0  0  0  0
 48 69  1  0  0  0  0
 49 62  1  0  0  0  0
 50 62  1  0  0  0  0
 51 64  1  0  0  0  0
 52 65  1  0  0  0  0
 53 65  1  0  0  0  0
 54 65  1  0  0  0  0
 55 66  1  0  0  0  0
 56 66  1  0  0  0  0
 57 77  1  0  0  0  0
 58 59  1  0  0  0  0
 59 61  1  0  0  0  0
 60 66  1  0  0  0  0
 60 76  1  0  0  0  0
 61 84  1  0  0  0  0
 63 65  1  0  0  0  0
 63 75  1  0  0  0  0
 64 77  1  0  0  0  0
 66 68  1  0  0  0  0
 67 69  1  0  0  0  0
M  CHG  1  77   1
M  ISO  4  36 100  61 101  76 100  84 101
M  END
> <Batch ID>
0097

> <Smiles>
CNC(C)C(=O)NC(C(=O)N1Cc2cc([101O:1][101CH2:1]CCc3cc(C(C)C)n(C(C)(C)C[100NH:0][100C:0](=O)N4CCCC(n5nc(-c6ccc(Oc7ccc(F)cc7F)cc6)c(C(N)=O)c5N)C4)c3)ccc2CC1C(=O)NC1CCCc2ccccc21)C(C)(C)C

> <Shape>
0.198

> <Color>
0.063

> <Negative vol penalty>
0.000

$$$$

  -OEChem-04052319263D

 88 96  0     1  0  0  0  0  0999 V2000
  -26.7090  -23.4158   25.7654 C   0  0  0  0  0  0  0  0  0  0  0  0
  -27.5631  -22.9750   24.7596 C   0  0  0  0  0  0  0  0  0  0  0  0
  -23.0566   -9.8573   19.9497 C   0  0  0  0  0  0  0  0  0  0  0  0
  -23.8251   -9.8689   22.2401 C   0  0  0  0  0  0  0  0  0  0  0  0
  -25.6486  -24.2661   25.4550 C   0  0  0  0  0  0  0  0  0  0  0  0
  -27.3565  -23.3835   23.4424 C   0  0  0  0  0  0  0  0  0  0  0  0
  -31.6476  -24.7851   21.1475 C   0  0  0  0  0  0  0  0  0  0  0  0
  -22.3166   -8.7026   20.2037 C   0  0  0  0  0  0  0  0  0  0  0  0
  -23.0851   -8.7141   22.4943 C   0  0  0  0  0  0  0  0  0  0  0  0
  -32.4878  -23.7695   20.6931 C   0  0  0  0  0  0  0  0  0  0  0  0
  -19.3760   -7.9001   21.6671 C   0  0  0  0  0  0  0  0  0  0  0  0
  -18.0674   -7.8499   21.1868 C   0  0  0  0  0  0  0  0  0  0  0  0
  -31.6299  -24.0680   18.4583 C   0  0  0  0  0  0  0  0  0  0  0  0
  -30.2265  -20.0170   19.0791 C   0  0  0  0  0  0  0  0  0  0  0  0
  -18.6271   -5.9068   19.8647 C   0  0  0  0  0  0  0  0  0  0  0  0
  -23.8109  -10.4405   20.9679 C   0  0  0  0  0  0  0  0  0  0  0  0
  -24.1458  -12.9664   20.8437 C   0  0  0  0  0  0  0  0  0  0  0  0
  -25.4347  -24.6930   24.1349 C   0  0  0  0  0  0  0  0  0  0  0  0
  -30.7830  -25.4435   20.2612 C   0  0  0  0  0  0  0  0  0  0  0  0
  -26.2914  -24.2393   23.1138 C   0  0  0  0  0  0  0  0  0  0  0  0
  -30.7817  -25.0933   18.9035 C   0  0  0  0  0  0  0  0  0  0  0  0
  -29.1761  -19.6904   19.9295 C   0  0  0  0  0  0  0  0  0  0  0  0
  -29.3337  -18.6685   20.8592 C   0  0  0  0  0  0  0  0  0  0  0  0
  -22.3309   -8.1310   21.4760 C   0  0  0  0  0  0  0  0  0  0  0  0
  -32.4769  -23.4088   19.3489 C   0  0  0  0  0  0  0  0  0  0  0  0
  -20.3102   -6.9536   21.2461 C   0  0  0  0  0  0  0  0  0  0  0  0
  -17.6929   -6.8533   20.2857 C   0  0  0  0  0  0  0  0  0  0  0  0
  -19.9357   -5.9570   20.3449 C   0  0  0  0  0  0  0  0  0  0  0  0
  -24.5759  -11.6330   20.7059 C   0  0  0  0  0  0  0  0  0  0  0  0
  -31.4046  -19.2973   19.1975 C   0  0  0  0  0  0  0  0  0  0  0  0
  -30.5517  -18.0091   20.8978 C   0  0  0  0  0  0  0  0  0  0  0  0
  -25.2346  -13.7182   20.4754 C   0  0  0  0  0  0  0  0  0  0  0  0
  -22.8755  -13.4794   21.2668 C   0  0  0  0  0  0  0  0  0  0  0  0
  -27.6289  -25.7558   20.0212 C   0  0  0  0  0  0  0  0  0  0  0  0
  -28.4051  -27.8063   17.6305 C   0  0  0  0  0  0  0  0  0  0  0  0
  -30.6821  -28.7992   15.2903 C   0  0  0  0  0  0  0  0  0  0  0  0
  -30.7164  -14.7516   20.6419 C   0  0  0  0  0  0  0  0  0  0  0  0
  -24.2469  -25.5745   23.8405 C   0  0  0  0  0  0  0  0  0  0  0  0
  -29.9022  -26.5551   20.7621 C   0  0  0  0  0  0  0  0  0  0  0  0
  -29.8868  -25.7831   17.9075 C   0  0  0  0  0  0  0  0  0  0  0  0
  -24.3203  -26.2608   22.4789 C   0  0  0  0  0  0  0  0  0  0  0  0
  -29.5759  -12.3614   18.2621 C   0  0  0  0  0  0  0  0  0  0  0  0
  -24.7236  -25.2621   21.3987 C   0  0  0  0  0  0  0  0  0  0  0  0
  -28.1409  -12.0645   18.7008 C   0  0  0  0  0  0  0  0  0  0  0  0
  -30.4970  -12.5860   19.4593 C   0  0  0  0  0  0  0  0  0  0  0  0
  -28.5986  -13.3138   20.8522 C   0  0  0  0  0  0  0  0  0  0  0  0
  -26.1148  -24.6803   21.6770 C   0  0  1  0  0  0  0  0  0  0  0  0
  -28.6916  -26.8070   19.8685 C   0  0  1  0  0  0  0  0  0  0  0  0
  -27.6205  -13.1353   19.6785 C   0  0  2  0  0  0  0  0  0  0  0  0
  -28.2251  -18.2979   21.7861 C   0  0  0  0  0  0  0  0  0  0  0  0
  -32.9058  -18.4320   17.3842 C   0  0  0  0  0  0  0  0  0  0  0  0
  -31.0182  -30.4805   13.4580 C   0  0  0  0  0  0  0  0  0  0  0  0
  -24.9618  -20.2094   17.2424 C   0  0  0  0  0  0  0  0  0  0  0  0
  -24.8316  -20.5670   19.7154 C   0  0  0  0  0  0  0  0  0  0  0  0
  -26.5501  -26.1985   15.8183 C   0  0  0  0  0  0  0  0  0  0  0  0
  -27.6355  -27.2982   13.8484 C   0  0  0  0  0  0  0  0  0  0  0  0
  -26.4052  -28.6777   15.5235 C   0  0  0  0  0  0  0  0  0  0  0  0
  -33.0317  -29.9811   16.6474 C   0  0  0  0  0  0  0  0  0  0  0  0
  -27.8936  -20.4472   19.8227 C   0  0  0  0  0  0  0  0  0  0  0  0
  -30.7814  -16.9037   21.8761 C   0  0  0  0  0  0  0  0  0  0  0  0
  -27.0591  -19.9975   18.6096 C   0  0  0  0  0  0  0  0  0  0  0  0
  -33.8298  -20.0823   19.0547 C   0  0  0  0  0  0  0  0  0  0  0  0
  -33.6248  -21.3817   19.8277 C   0  0  0  0  0  0  0  0  0  1  0  0
  -32.5742  -19.6271   18.2861 C   0  0  2  0  0  0  0  0  0  0  0  0
  -28.6419  -27.6762   16.1452 C   0  0  1  0  0  0  0  0  0  0  0  0
  -31.2258  -30.1705   14.9323 C   0  0  2  0  0  0  0  0  0  0  0  0
  -25.7097  -20.7271   18.4735 C   0  0  0  0  0  0  0  0  0  0  0  0
  -27.3238  -27.4481   15.3527 C   0  0  0  0  0  0  0  0  0  0  0  0
  -25.8394  -11.5400   20.2829 N   0  0  0  0  0  0  0  0  0  0  0  0
  -31.5950  -18.2983   20.0881 N   0  0  0  0  0  0  0  0  0  0  0  0
  -26.2125  -12.8244   20.1517 N   0  0  0  0  0  0  0  0  0  0  0  0
  -29.0394  -26.8593   18.4471 N   0  0  0  0  0  0  0  0  0  0  0  0
  -29.9471  -13.6141   20.3462 N   0  0  0  0  0  0  0  0  0  0  0  0
  -25.4413  -15.0502   20.4001 N   0  0  0  0  0  0  0  0  0  0  0  0
  -21.8673  -12.5680   21.6090 N   0  0  0  0  0  0  0  0  0  0  0  0
  -27.1428  -25.6300   21.3086 N   0  0  0  0  0  0  0  0  0  0  0  0
  -29.3818  -28.8678   15.7439 N   0  0  0  0  0  0  0  0  0  0  0  0
  -30.1180  -15.6798   21.4851 N   0  0  0  0  0  0  0  0  0  0  0  0
  -32.6850  -30.2423   15.2267 N   0  3  0  0  0  0  0  0  0  0  0  0
  -22.6363  -14.7095   21.3237 O   0  0  0  0  0  0  0  0  0  0  0  0
  -27.2750  -25.1079   19.0431 O   0  0  0  0  0  0  0  0  0  0  0  0
  -27.6897  -28.7189   18.0512 O   0  0  0  0  0  0  0  0  0  0  0  0
  -31.3434  -27.7696   15.1754 O   0  0  0  0  0  0  0  0  0  0  0  0
  -31.8501  -14.9295   20.1838 O   0  0  0  0  0  0  0  0  0  0  0  0
  -21.6088   -7.0043   21.7244 O   0  0  0  0  0  0  0  0  0  0  0  0
  -33.2955  -22.4174   18.9029 O   0  0  0  0  0  0  0  0  0  1  0  0
  -16.4358   -6.8043   19.8258 F   0  0  0  0  0  0  0  0  0  0  0  0
  -20.8285   -5.0443   19.9378 F   0  0  0  0  0  0  0  0  0  0  0  0
  1  2  1  0  0  0  0
  1  5  2  0  0  0  0
  2  6  2  0  0  0  0
  3  8  2  0  0  0  0
  3 16  1  0  0  0  0
  4  9  1  0  0  0  0
  4 16  2  0  0  0  0
  5 18  1  0  0  0  0
  6 20  1  0  0  0  0
  7 10  2  0  0  0  0
  7 19  1  0  0  0  0
  8 24  1  0  0  0  0
  9 24  2  0  0  0  0
 10 25  1  0  0  0  0
 11 12  2  0  0  0  0
 11 26  1  0  0  0  0
 12 27  1  0  0  0  0
 13 21  1  0  0  0  0
 13 25  2  0  0  0  0
 14 22  2  0  0  0  0
 14 30  1  0  0  0  0
 15 27  2  0  0  0  0
 15 28  1  0  0  0  0
 16 29  1  0  0  0  0
 17 29  1  0  0  0  0
 17 32  2  0  0  0  0
 17 33  1  0  0  0  0
 18 20  2  0  0  0  0
 18 38  1  0  0  0  0
 19 21  2  0  0  0  0
 19 39  1  0  0  0  0
 20 47  1  0  0  0  0
 21 40  1  0  0  0  0
 22 23  1  0  0  0  0
 22 59  1  0  0  0  0
 23 31  2  0  0  0  0
 23 50  1  0  0  0  0
 24 85  1  0  0  0  0
 25 86  1  0  0  0  0
 26 28  2  0  0  0  0
 26 85  1  0  0  0  0
 27 87  1  0  0  0  0
 28 88  1  0  0  0  0
 29 69  2  0  0  0  0
 30 64  1  0  0  0  0
 30 70  2  0  0  0  0
 31 60  1  0  0  0  0
 31 70  1  0  0  0  0
 32 71  1  0  0  0  0
 32 74  1  0  0  0  0
 33 75  1  0  0  0  0
 33 80  2  0  0  0  0
 34 48  1  0  0  0  0
 34 76  1  0  0  0  0
 34 81  2  0  0  0  0
 35 65  1  0  0  0  0
 35 72  1  0  0  0  0
 35 82  2  0  0  0  0
 36 66  1  0  0  0  0
 36 77  1  0  0  0  0
 36 83  2  0  0  0  0
 37 73  1  0  0  0  0
 37 78  1  0  0  0  0
 37 84  2  0  0  0  0
 38 41  1  0  0  0  0
 39 48  1  0  0  0  0
 40 72  1  0  0  0  0
 41 43  1  0  0  0  0
 42 44  1  0  0  0  0
 42 45  1  0  0  0  0
 43 47  1  0  0  0  0
 44 49  1  0  0  0  0
 45 73  1  0  0  0  0
 46 49  1  0  0  0  0
 46 73  1  0  0  0  0
 47 76  1  0  0  0  0
 48 72  1  0  0  0  0
 49 71  1  0  0  0  0
 51 64  1  0  0  0  0
 52 66  1  0  0  0  0
 53 67  1  0  0  0  0
 54 67  1  0  0  0  0
 55 68  1  0  0  0  0
 56 68  1  0  0  0  0
 57 68  1  0  0  0  0
 58 79  1  0  0  0  0
 59 61  1  0  0  0  0
 60 78  1  0  0  0  0
 61 67  1  0  0  0  0
 62 63  1  0  0  0  0
 62 64  1  0  0  0  0
 63 86  1  0  0  0  0
 65 68  1  0  0  0  0
 65 77  1  0  0  0  0
 66 79  1  0  0  0  0
 69 71  1  0  0  0  0
M  CHG  1  79   1
M  ISO  4  37 100  63 101  78 100  86 101
M  END
> <Batch ID>
0097

> <Smiles>
CNC(C)C(=O)NC(C(=O)N1Cc2cc([101O:1][101CH2:1]CC(C)c3cc(CCC(C)C)c(C)c(C[100NH:0][100C:0](=O)N4CCCC(n5nc(-c6ccc(Oc7ccc(F)cc7F)cc6)c(C(N)=O)c5N)C4)n3)ccc2CC1C(=O)NC1CCCc2ccccc21)C(C)(C)C

> <Shape>
0.226

> <Color>
0.191

> <Negative vol penalty>
0.000

$$$$

  -OEChem-04052319263D

 79 86  0     1  0  0  0  0  0999 V2000
  -22.2243  -28.6979   21.8726 C   0  0  0  0  0  0  0  0  0  0  0  0
  -22.8827  -27.4999   22.1312 C   0  0  0  0  0  0  0  0  0  0  0  0
  -23.1842   -9.7400   19.9937 C   0  0  0  0  0  0  0  0  0  0  0  0
  -23.8578   -9.9129   22.3074 C   0  0  0  0  0  0  0  0  0  0  0  0
  -22.9355  -29.7902   21.3778 C   0  0  0  0  0  0  0  0  0  0  0  0
  -24.2527  -27.3933   21.8940 C   0  0  0  0  0  0  0  0  0  0  0  0
  -28.3038  -24.1233   25.1191 C   0  0  0  0  0  0  0  0  0  0  0  0
  -22.4832   -8.5699   20.2851 C   0  0  0  0  0  0  0  0  0  0  0  0
  -23.1567   -8.7428   22.5989 C   0  0  0  0  0  0  0  0  0  0  0  0
  -28.8698  -22.8657   24.9143 C   0  0  0  0  0  0  0  0  0  0  0  0
  -19.5213   -7.7222   21.6786 C   0  0  0  0  0  0  0  0  0  0  0  0
  -18.2366   -7.5881   21.1523 C   0  0  0  0  0  0  0  0  0  0  0  0
  -30.7936  -23.9042   23.8946 C   0  0  0  0  0  0  0  0  0  0  0  0
  -18.9299   -5.6006   19.9663 C   0  0  0  0  0  0  0  0  0  0  0  0
  -23.8716  -10.4115   21.0048 C   0  0  0  0  0  0  0  0  0  0  0  0
  -24.1059  -12.9388   20.7486 C   0  0  0  0  0  0  0  0  0  0  0  0
  -24.3167  -29.6999   21.1435 C   0  0  0  0  0  0  0  0  0  0  0  0
  -28.9748  -25.2822   24.7027 C   0  0  0  0  0  0  0  0  0  0  0  0
  -24.9828  -28.4850   21.3943 C   0  0  0  0  0  0  0  0  0  0  0  0
  -30.2352  -25.1755   24.0976 C   0  0  0  0  0  0  0  0  0  0  0  0
  -22.4694   -8.0713   21.5878 C   0  0  0  0  0  0  0  0  0  0  0  0
  -30.1135  -22.7559   24.2994 C   0  0  0  0  0  0  0  0  0  0  0  0
  -20.5104   -6.7956   21.3487 C   0  0  0  0  0  0  0  0  0  0  0  0
  -17.9408   -6.5273   20.2962 C   0  0  0  0  0  0  0  0  0  0  0  0
  -20.2147   -5.7348   20.4926 C   0  0  0  0  0  0  0  0  0  0  0  0
  -24.5964  -11.6200   20.7042 C   0  0  0  0  0  0  0  0  0  0  0  0
  -25.1766  -13.7160   20.3797 C   0  0  0  0  0  0  0  0  0  0  0  0
  -22.7993  -13.4185   21.0927 C   0  0  0  0  0  0  0  0  0  0  0  0
  -28.3532  -27.6123   22.6320 C   0  0  0  0  0  0  0  0  0  0  0  0
  -31.0605  -28.9030   23.8677 C   0  0  0  0  0  0  0  0  0  0  0  0
  -34.0322  -28.4141   25.4729 C   0  0  0  0  0  0  0  0  0  0  0  0
  -30.5994  -14.9961   20.6962 C   0  0  0  0  0  0  0  0  0  0  0  0
  -25.0341  -30.8929   20.5634 C   0  0  0  0  0  0  0  0  0  0  0  0
  -28.3628  -26.6328   24.9550 C   0  0  0  0  0  0  0  0  0  0  0  0
  -31.0055  -26.3900   23.6505 C   0  0  0  0  0  0  0  0  0  0  0  0
  -26.5530  -30.8126   20.6932 C   0  0  0  0  0  0  0  0  0  0  0  0
  -29.6570  -12.4294   18.4158 C   0  0  0  0  0  0  0  0  0  0  0  0
  -27.0527  -29.4344   20.2717 C   0  0  0  0  0  0  0  0  0  0  0  0
  -28.2189  -12.0948   18.8155 C   0  0  0  0  0  0  0  0  0  0  0  0
  -30.5185  -12.7605   19.6324 C   0  0  0  0  0  0  0  0  0  0  0  0
  -28.5364  -13.4809   20.9076 C   0  0  0  0  0  0  0  0  0  0  0  0
  -26.4727  -28.3379   21.1732 C   0  0  1  0  0  0  0  0  0  0  0  0
  -28.9027  -27.7163   24.0266 C   0  0  1  0  0  0  0  0  0  0  0  0
  -27.6151  -13.1946   19.7095 C   0  0  2  0  0  0  0  0  0  0  0  0
  -28.4556  -19.1982   20.5690 C   0  0  0  0  0  0  0  0  0  0  0  0
  -30.3082  -16.9639   24.9106 C   0  0  0  0  0  0  0  0  0  0  0  0
  -36.0460  -29.6551   26.3108 C   0  0  0  0  0  0  0  0  0  0  0  0
  -32.1087  -29.1261   21.0109 C   0  0  0  0  0  0  0  0  0  0  0  0
  -34.4045  -29.4570   21.9533 C   0  0  0  0  0  0  0  0  0  0  0  0
  -32.6008  -31.1040   22.4601 C   0  0  0  0  0  0  0  0  0  0  0  0
  -33.5137  -27.6003   28.2707 C   0  0  0  0  0  0  0  0  0  0  0  0
  -28.2918  -18.4740   21.9002 C   0  0  0  0  0  0  0  0  0  0  0  0
  -29.1806  -17.4021   23.9832 C   0  0  0  0  0  0  0  0  0  0  0  0
  -30.4344  -19.4177   22.9787 C   0  0  0  0  0  0  0  0  0  0  0  0
  -30.5246  -17.2145   21.8063 C   0  0  0  0  0  0  0  0  0  0  0  0
  -29.7707  -20.4364   23.9013 C   0  0  0  0  0  0  0  0  0  1  0  0
  -32.5315  -28.8187   23.5393 C   0  0  1  0  0  0  0  0  0  0  0  0
  -34.6651  -29.1208   26.6580 C   0  0  2  0  0  0  0  0  0  0  0  0
  -32.8963  -29.6032   22.2475 C   0  0  0  0  0  0  0  0  0  0  0  0
  -29.6099  -18.1316   22.6685 C   0  0  0  0  0  0  0  0  0  0  0  0
  -25.8788  -11.5589   20.3359 N   0  0  0  0  0  0  0  0  0  0  0  0
  -26.2032  -12.8491   20.1455 N   0  0  0  0  0  0  0  0  0  0  0  0
  -30.3624  -27.6879   23.9136 N   0  0  0  0  0  0  0  0  0  0  0  0
  -29.8908  -13.8113   20.4371 N   0  0  0  0  0  0  0  0  0  0  0  0
  -25.3307  -15.0494   20.2360 N   0  0  0  0  0  0  0  0  0  0  0  0
  -21.8167  -12.4843   21.4478 N   0  0  0  0  0  0  0  0  0  0  0  0
  -27.1717  -28.3027   22.4400 N   0  0  0  0  0  0  0  0  0  0  0  0
  -33.2424  -29.2674   24.7317 N   0  0  0  0  0  0  0  0  0  0  0  0
  -29.9292  -15.9428   21.4612 N   0  0  0  0  0  0  0  0  0  0  0  0
  -34.7996  -28.1834   27.8087 N   0  3  0  0  0  0  0  0  0  0  0  0
  -22.5071  -14.6381   21.0696 O   0  0  0  0  0  0  0  0  0  0  0  0
  -28.9572  -26.9556   21.7920 O   0  0  0  0  0  0  0  0  0  0  0  0
  -30.5511  -30.0057   24.0829 O   0  0  0  0  0  0  0  0  0  0  0  0
  -34.2227  -27.2251   25.2270 O   0  0  0  0  0  0  0  0  0  0  0  0
  -31.7425  -15.1977   20.2723 O   0  0  0  0  0  0  0  0  0  0  0  0
  -21.7852   -6.9297   21.8726 O   0  0  0  0  0  0  0  0  0  0  0  0
  -30.6714  -21.5217   24.0964 O   0  0  0  0  0  0  0  0  0  1  0  0
  -16.7066   -6.3977   19.7921 F   0  0  0  0  0  0  0  0  0  0  0  0
  -21.1604   -4.8408   20.1730 F   0  0  0  0  0  0  0  0  0  0  0  0
  1  2  1  0  0  0  0
  1  5  2  0  0  0  0
  2  6  2  0  0  0  0
  3  8  2  0  0  0  0
  3 15  1  0  0  0  0
  4  9  1  0  0  0  0
  4 15  2  0  0  0  0
  5 17  1  0  0  0  0
  6 19  1  0  0  0  0
  7 10  2  0  0  0  0
  7 18  1  0  0  0  0
  8 21  1  0  0  0  0
  9 21  2  0  0  0  0
 10 22  1  0  0  0  0
 11 12  2  0  0  0  0
 11 23  1  0  0  0  0
 12 24  1  0  0  0  0
 13 20  1  0  0  0  0
 13 22  2  0  0  0  0
 14 24  2  0  0  0  0
 14 25  1  0  0  0  0
 15 26  1  0  0  0  0
 16 26  1  0  0  0  0
 16 27  2  0  0  0  0
 16 28  1  0  0  0  0
 17 19  2  0  0  0  0
 17 33  1  0  0  0  0
 18 20  2  0  0  0  0
 18 34  1  0  0  0  0
 19 42  1  0  0  0  0
 20 35  1  0  0  0  0
 21 76  1  0  0  0  0
 22 77  1  0  0  0  0
 23 25  2  0  0  0  0
 23 76  1  0  0  0  0
 24 78  1  0  0  0  0
 25 79  1  0  0  0  0
 26 61  2  0  0  0  0
 27 62  1  0  0  0  0
 27 65  1  0  0  0  0
 28 66  1  0  0  0  0
 28 71  2  0  0  0  0
 29 43  1  0  0  0  0
 29 67  1  0  0  0  0
 29 72  2  0  0  0  0
 30 57  1  0  0  0  0
 30 63  1  0  0  0  0
 30 73  2  0  0  0  0
 31 58  1  0  0  0  0
 31 68  1  0  0  0  0
 31 74  2  0  0  0  0
 32 64  1  0  0  0  0
 32 69  1  0  0  0  0
 32 75  2  0  0  0  0
 33 36  1  0  0  0  0
 34 43  1  0  0  0  0
 35 63  1  0  0  0  0
 36 38  1  0  0  0  0
 37 39  1  0  0  0  0
 37 40  1  0  0  0  0
 38 42  1  0  0  0  0
 39 44  1  0  0  0  0
 40 64  1  0  0  0  0
 41 44  1  0  0  0  0
 41 64  1  0  0  0  0
 42 67  1  0  0  0  0
 43 63  1  0  0  0  0
 44 62  1  0  0  0  0
 45 52  1  0  0  0  0
 46 53  1  0  0  0  0
 47 58  1  0  0  0  0
 48 59  1  0  0  0  0
 49 59  1  0  0  0  0
 50 59  1  0  0  0  0
 51 70  1  0  0  0  0
 52 60  1  0  0  0  0
 53 60  1  0  0  0  0
 54 56  1  0  0  0  0
 54 60  1  0  0  0  0
 55 60  1  0  0  0  0
 55 69  1  0  0  0  0
 56 77  1  0  0  0  0
 57 59  1  0  0  0  0
 57 68  1  0  0  0  0
 58 70  1  0  0  0  0
 61 62  1  0  0  0  0
M  CHG  1  70   1
M  ISO  4  32 100  56 101  69 100  77 101
M  END
> <Batch ID>
0097

> <Smiles>
CCC(CC)(C[100NH:0][100C:0](=O)N1CCCC(n2nc(-c3ccc(Oc4ccc(F)cc4F)cc3)c(C(N)=O)c2N)C1)C[101CH2:1][101O:1]c1ccc2c(c1)CN(C(=O)C(NC(=O)C(C)NC)C(C)(C)C)C(C(=O)NC1CCCc3ccccc31)C2

> <Shape>
0.222

> <Color>
0.194

> <Negative vol penalty>
0.000

$$$$

  -OEChem-04052319263D

 85 92  0     1  0  0  0  0  0999 V2000
  -24.0215  -26.7400   26.4603 C   0  0  0  0  0  0  0  0  0  0  0  0
  -23.3924  -25.5639   26.0648 C   0  0  0  0  0  0  0  0  0  0  0  0
  -29.9908  -23.5634   19.4535 C   0  0  0  0  0  0  0  0  0  0  0  0
  -28.5438  -23.5682   21.3882 C   0  0  0  0  0  0  0  0  0  0  0  0
  -23.5957  -27.9640   25.9459 C   0  0  0  0  0  0  0  0  0  0  0  0
  -22.3363  -25.6112   25.1555 C   0  0  0  0  0  0  0  0  0  0  0  0
  -22.7105  -22.0674   21.5574 C   0  0  0  0  0  0  0  0  0  0  0  0
  -29.7377  -24.9214   19.2607 C   0  0  0  0  0  0  0  0  0  0  0  0
  -28.2907  -24.9264   21.1955 C   0  0  0  0  0  0  0  0  0  0  0  0
  -22.3447  -20.7674   21.9036 C   0  0  0  0  0  0  0  0  0  0  0  0
  -26.3582  -26.8399   19.1869 C   0  0  0  0  0  0  0  0  0  0  0  0
  -25.0360  -27.2732   19.2861 C   0  0  0  0  0  0  0  0  0  0  0  0
  -20.2036  -21.0934   20.8413 C   0  0  0  0  0  0  0  0  0  0  0  0
  -25.6543  -28.7445   21.1000 C   0  0  0  0  0  0  0  0  0  0  0  0
  -29.3938  -22.8867   20.5172 C   0  0  0  0  0  0  0  0  0  0  0  0
  -30.6835  -20.9114   21.4879 C   0  0  0  0  0  0  0  0  0  0  0  0
  -22.5402  -28.0254   25.0225 C   0  0  0  0  0  0  0  0  0  0  0  0
  -21.8200  -22.8953   20.8588 C   0  0  0  0  0  0  0  0  0  0  0  0
  -21.8951  -26.8373   24.6293 C   0  0  0  0  0  0  0  0  0  0  0  0
  -20.5615  -22.4027   20.4851 C   0  0  0  0  0  0  0  0  0  0  0  0
  -28.8877  -25.6029   20.1317 C   0  0  0  0  0  0  0  0  0  0  0  0
  -21.0900  -20.2812   21.5481 C   0  0  0  0  0  0  0  0  0  0  0  0
  -27.3284  -27.3588   20.0444 C   0  0  0  0  0  0  0  0  0  0  0  0
  -24.6841  -28.2255   20.2427 C   0  0  0  0  0  0  0  0  0  0  0  0
  -26.9765  -28.3111   21.0009 C   0  0  0  0  0  0  0  0  0  0  0  0
  -29.6544  -21.4837   20.7165 C   0  0  0  0  0  0  0  0  0  0  0  0
  -30.4997  -19.5568   21.3549 C   0  0  0  0  0  0  0  0  0  0  0  0
  -31.7136  -21.5474   22.2561 C   0  0  0  0  0  0  0  0  0  0  0  0
  -20.3798  -25.6620   21.4709 C   0  0  0  0  0  0  0  0  0  0  0  0
  -19.3947  -25.3841   18.3928 C   0  0  0  0  0  0  0  0  0  0  0  0
  -18.7350  -23.3481   15.7346 C   0  0  0  0  0  0  0  0  0  0  0  0
  -25.9952  -15.9045   20.8970 C   0  0  0  0  0  0  0  0  0  0  0  0
  -22.0841  -29.3761   24.5302 C   0  0  0  0  0  0  0  0  0  0  0  0
  -22.2399  -24.2861   20.4695 C   0  0  0  0  0  0  0  0  0  0  0  0
  -19.5766  -23.2443   19.7171 C   0  0  0  0  0  0  0  0  0  0  0  0
  -21.2037  -29.3050   23.2851 C   0  0  0  0  0  0  0  0  0  0  0  0
  -27.4796  -17.8076   17.9047 C   0  0  0  0  0  0  0  0  0  0  0  0
  -20.1320  -28.2321   23.4497 C   0  0  0  0  0  0  0  0  0  0  0  0
  -28.8587  -17.9297   18.5459 C   0  0  0  0  0  0  0  0  0  0  0  0
  -26.6550  -16.7198   18.5861 C   0  0  0  0  0  0  0  0  0  0  0  0
  -27.3583  -17.9619   20.6318 C   0  0  0  0  0  0  0  0  0  0  0  0
  -20.7622  -26.8453   23.6260 C   0  0  1  0  0  0  0  0  0  0  0  0
  -21.0588  -25.2154   20.2071 C   0  0  1  0  0  0  0  0  0  0  0  0
  -28.7876  -18.1020   20.0789 C   0  0  2  0  0  0  0  0  0  0  0  0
  -21.6333   -8.2870   22.0328 C   0  0  0  0  0  0  0  0  0  0  0  0
  -17.9066  -23.4064   13.3665 C   0  0  0  0  0  0  0  0  0  0  0  0
  -16.5410  -25.7656   19.4030 C   0  0  0  0  0  0  0  0  0  0  0  0
  -15.7204  -24.8815   17.2092 C   0  0  0  0  0  0  0  0  0  0  0  0
  -17.0675  -26.9798   17.2810 C   0  0  0  0  0  0  0  0  0  0  0  0
  -20.3425  -14.5775   24.8735 C   0  0  0  0  0  0  0  0  0  0  0  0
  -22.7072  -13.8076   24.7443 C   0  0  0  0  0  0  0  0  0  0  0  0
  -21.2738  -22.2364   14.6966 C   0  0  0  0  0  0  0  0  0  0  0  0
  -21.7130   -9.5327   21.1648 C   0  0  0  0  0  0  0  0  0  0  0  0
  -21.9829  -10.7826   22.0016 C   0  0  0  0  0  0  0  0  0  0  0  0
  -21.0875  -16.8658   22.8998 C   0  0  0  0  0  0  0  0  0  0  0  0
  -22.0774  -15.9766   23.6577 C   0  0  0  0  0  0  0  0  0  0  0  0
  -24.5584  -13.8787   20.9500 C   0  0  0  0  0  0  0  0  0  0  0  0
  -22.0966  -12.0166   21.1190 C   0  0  0  0  0  0  0  0  0  0  0  0
  -23.1170  -14.2869   21.1907 C   0  0  0  0  0  0  0  0  0  0  0  0
  -21.2150  -13.7288   22.6979 C   0  0  0  0  0  0  0  0  0  0  0  0
  -21.6873  -18.2353   22.6035 C   0  0  0  0  0  0  0  0  0  1  0  0
  -18.2048  -24.7616   17.7032 C   0  0  1  0  0  0  0  0  0  0  0  0
  -19.1283  -23.4426   14.2714 C   0  0  2  0  0  0  0  0  0  0  0  0
  -16.9010  -25.5817   17.9152 C   0  0  0  0  0  0  0  0  0  0  0  0
  -21.5883  -14.5323   23.9639 C   0  0  0  0  0  0  0  0  0  0  0  0
  -28.8746  -20.5676   20.1362 N   0  0  0  0  0  0  0  0  0  0  0  0
  -29.4140  -19.4059   20.5432 N   0  0  0  0  0  0  0  0  0  0  0  0
  -20.0313  -24.5996   19.3650 N   0  0  0  0  0  0  0  0  0  0  0  0
  -26.6647  -16.8106   20.0517 N   0  0  0  0  0  0  0  0  0  0  0  0
  -31.1624  -18.4919   21.8541 N   0  0  0  0  0  0  0  0  0  0  0  0
  -31.7576  -22.9480   22.2846 N   0  0  0  0  0  0  0  0  0  0  0  0
  -21.2111  -26.3283   22.3510 N   0  0  0  0  0  0  0  0  0  0  0  0
  -18.5849  -24.5946   16.3046 N   0  0  0  0  0  0  0  0  0  0  0  0
  -25.3027  -14.8921   20.2376 N   0  0  0  0  0  0  0  0  0  0  0  0
  -20.0214  -22.3085   13.9009 N   0  3  0  0  0  0  0  0  0  0  0  0
  -22.4080  -13.2150   21.9821 N   0  3  1  0  0  0  0  0  0  0  0  0
  -32.5795  -20.8931   22.8850 O   0  0  0  0  0  0  0  0  0  0  0  0
  -19.1895  -25.4213   21.6347 O   0  0  0  0  0  0  0  0  0  0  0  0
  -19.7507  -26.5217   18.0754 O   0  0  0  0  0  0  0  0  0  0  0  0
  -18.5732  -22.2758   16.3129 O   0  0  0  0  0  0  0  0  0  0  0  0
  -26.0114  -15.9923   22.1284 O   0  0  0  0  0  0  0  0  0  0  0  0
  -28.6407  -26.9282   19.9441 O   0  0  0  0  0  0  0  0  0  0  0  0
  -20.7301  -19.0128   21.8854 O   0  0  0  0  0  0  0  0  0  1  0  0
  -23.4148  -28.6427   20.3368 F   0  0  0  0  0  0  0  0  0  0  0  0
  -27.9044  -28.8142   21.8266 F   0  0  0  0  0  0  0  0  0  0  0  0
  1  2  1  0  0  0  0
  1  5  2  0  0  0  0
  2  6  2  0  0  0  0
  3  8  2  0  0  0  0
  3 15  1  0  0  0  0
  4  9  1  0  0  0  0
  4 15  2  0  0  0  0
  5 17  1  0  0  0  0
  6 19  1  0  0  0  0
  7 10  2  0  0  0  0
  7 18  1  0  0  0  0
  8 21  1  0  0  0  0
  9 21  2  0  0  0  0
 10 22  1  0  0  0  0
 11 12  2  0  0  0  0
 11 23  1  0  0  0  0
 12 24  1  0  0  0  0
 13 20  1  0  0  0  0
 13 22  2  0  0  0  0
 14 24  2  0  0  0  0
 14 25  1  0  0  0  0
 15 26  1  0  0  0  0
 16 26  1  0  0  0  0
 16 27  2  0  0  0  0
 16 28  1  0  0  0  0
 17 19  2  0  0  0  0
 17 33  1  0  0  0  0
 18 20  2  0  0  0  0
 18 34  1  0  0  0  0
 19 42  1  0  0  0  0
 20 35  1  0  0  0  0
 21 82  1  0  0  0  0
 22 83  1  0  0  0  0
 23 25  2  0  0  0  0
 23 82  1  0  0  0  0
 24 84  1  0  0  0  0
 25 85  1  0  0  0  0
 26 66  2  0  0  0  0
 27 67  1  0  0  0  0
 27 70  1  0  0  0  0
 28 71  1  0  0  0  0
 28 77  2  0  0  0  0
 29 43  1  0  0  0  0
 29 72  1  0  0  0  0
 29 78  2  0  0  0  0
 30 62  1  0  0  0  0
 30 68  1  0  0  0  0
 30 79  2  0  0  0  0
 31 63  1  0  0  0  0
 31 73  1  0  0  0  0
 31 80  2  0  0  0  0
 32 69  1  0  0  0  0
 32 74  1  0  0  0  0
 32 81  2  0  0  0  0
 33 36  1  0  0  0  0
 34 43  1  0  0  0  0
 35 68  1  0  0  0  0
 36 38  1  0  0  0  0
 37 39  1  0  0  0  0
 37 40  1  0  0  0  0
 38 42  1  0  0  0  0
 39 44  1  0  0  0  0
 40 69  1  0  0  0  0
 41 44  1  0  0  0  0
 41 69  1  0  0  0  0
 42 72  1  0  0  0  0
 43 68  1  0  0  0  0
 44 67  1  0  0  0  0
 45 53  1  0  0  0  0
 46 63  1  0  0  0  0
 47 64  1  0  0  0  0
 48 64  1  0  0  0  0
 49 64  1  0  0  0  0
 50 65  1  0  0  0  0
 51 65  1  0  0  0  0
 52 75  1  0  0  0  0
 53 54  1  0  0  0  0
 54 58  1  0  0  0  0
 55 56  1  0  0  0  0
 55 61  1  0  0  0  0
 56 65  1  0  0  0  0
 57 59  1  0  0  0  0
 57 74  1  0  0  0  0
 58 76  1  0  0  0  0
 59 76  1  0  0  0  0
 60 65  1  0  0  0  0
 60 76  1  0  0  0  0
 61 83  1  0  0  0  0
 62 64  1  0  0  0  0
 62 73  1  0  0  0  0
 63 75  1  0  0  0  0
 66 67  1  0  0  0  0
M  CHG  2  75   1  76   1
M  ISO  4  32 100  61 101  74 100  83 101
M  END
> <Batch ID>
0097

> <Smiles>
CCCCN(CC[100NH:0][100C:0](=O)N1CCCC(n2nc(-c3ccc(Oc4ccc(F)cc4F)cc3)c(C(N)=O)c2N)C1)CC(C)(C)CC[101CH2:1][101O:1]c1ccc2c(c1)CN(C(=O)C(NC(=O)C(C)NC)C(C)(C)C)C(C(=O)NC1CCCc3ccccc31)C2

> <Shape>
0.197

> <Color>
0.078

> <Negative vol penalty>
0.000

$$$$

  -OEChem-04052319263D

 83 91  0     1  0  0  0  0  0999 V2000
  -27.3077  -23.3064   18.1568 C   0  0  0  0  0  0  0  0  0  0  0  0
  -26.1468  -23.7471   18.7841 C   0  0  0  0  0  0  0  0  0  0  0  0
  -26.6419  -18.1427   17.7511 C   0  0  0  0  0  0  0  0  0  0  0  0
  -27.0904  -18.7388   20.0490 C   0  0  0  0  0  0  0  0  0  0  0  0
  -28.5508  -23.7632   18.5928 C   0  0  0  0  0  0  0  0  0  0  0  0
  -26.2284  -24.6441   19.8486 C   0  0  0  0  0  0  0  0  0  0  0  0
  -22.8462  -28.3961   19.4909 C   0  0  0  0  0  0  0  0  0  0  0  0
  -27.8792  -18.6647   17.3741 C   0  0  0  0  0  0  0  0  0  0  0  0
  -28.3278  -19.2608   19.6721 C   0  0  0  0  0  0  0  0  0  0  0  0
  -21.5306  -28.1036   19.8477 C   0  0  0  0  0  0  0  0  0  0  0  0
  -31.7588  -20.4248   19.3696 C   0  0  0  0  0  0  0  0  0  0  0  0
  -32.8655  -20.1038   20.1555 C   0  0  0  0  0  0  0  0  0  0  0  0
  -21.1518  -23.4210   23.6878 C   0  0  0  0  0  0  0  0  0  0  0  0
  -21.8919  -29.1317   21.9998 C   0  0  0  0  0  0  0  0  0  0  0  0
  -32.5105  -17.7583   19.6975 C   0  0  0  0  0  0  0  0  0  0  0  0
  -20.9685  -24.7440   24.0245 C   0  0  0  0  0  0  0  0  0  0  0  0
  -19.2364  -23.5956   24.8586 C   0  0  0  0  0  0  0  0  0  0  0  0
  -26.2474  -18.1798   19.0886 C   0  0  0  0  0  0  0  0  0  0  0  0
  -24.6888  -16.3202   19.8762 C   0  0  0  0  0  0  0  0  0  0  0  0
  -28.6471  -24.6737   19.6569 C   0  0  0  0  0  0  0  0  0  0  0  0
  -23.6993  -29.0501   20.3915 C   0  0  0  0  0  0  0  0  0  0  0  0
  -27.4740  -25.1125   20.3001 C   0  0  0  0  0  0  0  0  0  0  0  0
  -23.2172  -29.4338   21.6510 C   0  0  0  0  0  0  0  0  0  0  0  0
  -20.0561  -22.6944   24.2156 C   0  0  0  0  0  0  0  0  0  0  0  0
  -28.7222  -19.2237   18.3346 C   0  0  0  0  0  0  0  0  0  0  0  0
  -21.0541  -28.4688   21.1034 C   0  0  0  0  0  0  0  0  0  0  0  0
  -31.0278  -19.4126   18.7477 C   0  0  0  0  0  0  0  0  0  0  0  0
  -33.2414  -18.7706   20.3194 C   0  0  0  0  0  0  0  0  0  0  0  0
  -31.4037  -18.0793   18.9116 C   0  0  0  0  0  0  0  0  0  0  0  0
  -24.9692  -17.6412   19.4785 C   0  0  0  0  0  0  0  0  0  0  0  0
  -23.3409  -16.3199   20.1402 C   0  0  0  0  0  0  0  0  0  0  0  0
  -25.5681  -15.1941   19.9962 C   0  0  0  0  0  0  0  0  0  0  0  0
  -26.4297  -28.3055   21.8386 C   0  0  0  0  0  0  0  0  0  0  0  0
  -26.2810  -31.3840   22.8502 C   0  0  0  0  0  0  0  0  0  0  0  0
  -24.3592  -34.1223   23.5247 C   0  0  0  0  0  0  0  0  0  0  0  0
  -19.4942  -20.6282   21.7187 C   0  0  0  0  0  0  0  0  0  0  0  0
  -30.0156  -25.1028   20.1235 C   0  0  0  0  0  0  0  0  0  0  0  0
  -25.1078  -29.3823   19.9814 C   0  0  0  0  0  0  0  0  0  0  0  0
  -24.0866  -30.1557   22.6467 C   0  0  0  0  0  0  0  0  0  0  0  0
  -29.9944  -26.3419   21.0149 C   0  0  0  0  0  0  0  0  0  0  0  0
  -19.2762  -18.5015   18.8716 C   0  0  0  0  0  0  0  0  0  0  0  0
  -28.9101  -26.2147   22.0801 C   0  0  0  0  0  0  0  0  0  0  0  0
  -20.6852  -17.9206   18.7402 C   0  0  0  0  0  0  0  0  0  0  0  0
  -19.3061  -19.9538   19.3425 C   0  0  0  0  0  0  0  0  0  0  0  0
  -21.4801  -19.6066   20.4503 C   0  0  0  0  0  0  0  0  0  0  0  0
  -27.5201  -26.1045   21.4420 C   0  0  1  0  0  0  0  0  0  0  0  0
  -26.0418  -29.5935   21.1690 C   0  0  1  0  0  0  0  0  0  0  0  0
  -21.4993  -18.1265   20.0318 C   0  0  2  0  0  0  0  0  0  0  0  0
  -20.4469  -20.4324   25.2607 C   0  0  0  0  0  0  0  0  0  0  0  0
  -24.5163  -36.4782   24.3748 C   0  0  0  0  0  0  0  0  0  0  0  0
  -17.0624  -27.5989   22.3865 C   0  0  0  0  0  0  0  0  0  0  0  0
  -26.6042  -30.3329   25.6964 C   0  0  0  0  0  0  0  0  0  0  0  0
  -25.8122  -32.5558   26.5328 C   0  0  0  0  0  0  0  0  0  0  0  0
  -27.9120  -32.4047   25.1946 C   0  0  0  0  0  0  0  0  0  0  0  0
  -23.3062  -35.2301   20.9904 C   0  0  0  0  0  0  0  0  0  0  0  0
  -18.0319  -26.6628   24.5009 C   0  0  0  0  0  0  0  0  0  0  0  0
  -19.2248  -26.1146   25.2963 C   0  0  0  0  0  0  0  0  0  0  0  0
  -19.5114  -27.9550   22.8389 C   0  0  0  0  0  0  0  0  0  1  0  0
  -19.8332  -21.2405   24.0998 C   0  0  2  0  0  0  0  0  0  0  0  0
  -25.6832  -32.0895   24.0435 C   0  0  1  0  0  0  0  0  0  0  0  0
  -24.5191  -35.5834   23.1451 C   0  0  2  0  0  0  0  0  0  0  0  0
  -18.3238  -27.0005   23.0222 C   0  0  2  0  0  0  0  0  0  0  0  0
  -26.4868  -31.8304   25.3490 C   0  0  0  0  0  0  0  0  0  0  0  0
  -23.8864  -18.4232   19.4876 N   0  0  0  0  0  0  0  0  0  0  0  0
  -19.8008  -24.8384   24.7357 N   0  0  0  0  0  0  0  0  0  0  0  0
  -22.9125  -17.5911   19.8940 N   0  0  0  0  0  0  0  0  0  0  0  0
  -25.4581  -30.4525   22.2013 N   0  0  0  0  0  0  0  0  0  0  0  0
  -20.0924  -20.0802   20.5720 N   0  0  0  0  0  0  0  0  0  0  0  0
  -22.4922  -15.3562   20.5567 N   0  0  0  0  0  0  0  0  0  0  0  0
  -26.9236  -15.3688   19.6855 N   0  0  0  0  0  0  0  0  0  0  0  0
  -27.0612  -27.4047   21.0024 N   0  0  0  0  0  0  0  0  0  0  0  0
  -25.5790  -33.4973   23.6753 N   0  0  0  0  0  0  0  0  0  0  0  0
  -20.3075  -20.7062   22.8426 N   0  0  0  0  0  0  0  0  0  0  0  0
  -23.4066  -36.0108   22.2503 N   0  3  0  0  0  0  0  0  0  0  0  0
  -25.1608  -14.0624   20.3521 O   0  0  0  0  0  0  0  0  0  0  0  0
  -26.1762  -28.1418   23.0263 O   0  0  0  0  0  0  0  0  0  0  0  0
  -27.4331  -31.6547   22.5022 O   0  0  0  0  0  0  0  0  0  0  0  0
  -23.2620  -33.5898   23.6764 O   0  0  0  0  0  0  0  0  0  0  0  0
  -18.3205  -21.0142   21.7409 O   0  0  0  0  0  0  0  0  0  0  0  0
  -29.9297  -19.7329   17.9671 O   0  0  0  0  0  0  0  0  0  0  0  0
  -19.7706  -28.1838   21.4544 O   0  0  0  0  0  0  0  0  0  1  0  0
  -34.3052  -18.4626   21.0729 F   0  0  0  0  0  0  0  0  0  0  0  0
  -30.7060  -17.1026   18.3157 F   0  0  0  0  0  0  0  0  0  0  0  0
  1  2  1  0  0  0  0
  1  5  2  0  0  0  0
  2  6  2  0  0  0  0
  3  8  2  0  0  0  0
  3 18  1  0  0  0  0
  4  9  1  0  0  0  0
  4 18  2  0  0  0  0
  5 20  1  0  0  0  0
  6 22  1  0  0  0  0
  7 10  2  0  0  0  0
  7 21  1  0  0  0  0
  8 25  1  0  0  0  0
  9 25  2  0  0  0  0
 10 26  1  0  0  0  0
 11 12  2  0  0  0  0
 11 27  1  0  0  0  0
 12 28  1  0  0  0  0
 13 16  2  0  0  0  0
 13 24  1  0  0  0  0
 14 23  1  0  0  0  0
 14 26  2  0  0  0  0
 15 28  2  0  0  0  0
 15 29  1  0  0  0  0
 16 65  1  0  0  0  0
 17 24  2  0  0  0  0
 17 65  1  0  0  0  0
 18 30  1  0  0  0  0
 19 30  1  0  0  0  0
 19 31  2  0  0  0  0
 19 32  1  0  0  0  0
 20 22  2  0  0  0  0
 20 37  1  0  0  0  0
 21 23  2  0  0  0  0
 21 38  1  0  0  0  0
 22 46  1  0  0  0  0
 23 39  1  0  0  0  0
 24 59  1  0  0  0  0
 25 80  1  0  0  0  0
 26 81  1  0  0  0  0
 27 29  2  0  0  0  0
 27 80  1  0  0  0  0
 28 82  1  0  0  0  0
 29 83  1  0  0  0  0
 30 64  2  0  0  0  0
 31 66  1  0  0  0  0
 31 69  1  0  0  0  0
 32 70  1  0  0  0  0
 32 75  2  0  0  0  0
 33 47  1  0  0  0  0
 33 71  1  0  0  0  0
 33 76  2  0  0  0  0
 34 60  1  0  0  0  0
 34 67  1  0  0  0  0
 34 77  2  0  0  0  0
 35 61  1  0  0  0  0
 35 72  1  0  0  0  0
 35 78  2  0  0  0  0
 36 68  1  0  0  0  0
 36 73  1  0  0  0  0
 36 79  2  0  0  0  0
 37 40  1  0  0  0  0
 38 47  1  0  0  0  0
 39 67  1  0  0  0  0
 40 42  1  0  0  0  0
 41 43  1  0  0  0  0
 41 44  1  0  0  0  0
 42 46  1  0  0  0  0
 43 48  1  0  0  0  0
 44 68  1  0  0  0  0
 45 48  1  0  0  0  0
 45 68  1  0  0  0  0
 46 71  1  0  0  0  0
 47 67  1  0  0  0  0
 48 66  1  0  0  0  0
 49 59  1  0  0  0  0
 50 61  1  0  0  0  0
 51 62  1  0  0  0  0
 52 63  1  0  0  0  0
 53 63  1  0  0  0  0
 54 63  1  0  0  0  0
 55 74  1  0  0  0  0
 56 57  1  0  0  0  0
 56 62  1  0  0  0  0
 57 65  1  0  0  0  0
 58 62  1  0  0  0  0
 58 81  1  0  0  0  0
 59 73  1  0  0  0  0
 60 63  1  0  0  0  0
 60 72  1  0  0  0  0
 61 74  1  0  0  0  0
 64 66  1  0  0  0  0
M  CHG  1  74   1
M  ISO  4  36 100  58 101  73 100  81 101
M  END
> <Batch ID>
0097

> <Smiles>
CNC(C)C(=O)NC(C(=O)N1Cc2cc([101O:1][101CH2:1]C(C)CCn3ccc(C(C)[100NH:0][100C:0](=O)N4CCCC(n5nc(-c6ccc(Oc7ccc(F)cc7F)cc6)c(C(N)=O)c5N)C4)c3)ccc2CC1C(=O)NC1CCCc2ccccc21)C(C)(C)C

> <Shape>
0.225

> <Color>
0.060

> <Negative vol penalty>
0.000

$$$$

  -OEChem-04052319263D

 90 98  0     1  0  0  0  0  0999 V2000
  -23.9791  -17.5675   25.4481 C   0  0  0  0  0  0  0  0  0  0  0  0
  -25.0745  -18.1634   26.0649 C   0  0  0  0  0  0  0  0  0  0  0  0
  -23.1945   -9.8151   19.9333 C   0  0  0  0  0  0  0  0  0  0  0  0
  -23.5668  -10.0030   22.3130 C   0  0  0  0  0  0  0  0  0  0  0  0
  -23.4126  -18.1545   24.3174 C   0  0  0  0  0  0  0  0  0  0  0  0
  -25.6047  -19.3461   25.5507 C   0  0  0  0  0  0  0  0  0  0  0  0
  -26.6079  -22.7554   29.1584 C   0  0  0  0  0  0  0  0  0  0  0  0
  -22.4291   -8.6682   20.1435 C   0  0  0  0  0  0  0  0  0  0  0  0
  -22.8014   -8.8560   22.5233 C   0  0  0  0  0  0  0  0  0  0  0  0
  -27.7696  -22.5681   29.9060 C   0  0  0  0  0  0  0  0  0  0  0  0
  -23.2071   -5.5091   22.2700 C   0  0  0  0  0  0  0  0  0  0  0  0
  -23.7045   -4.5509   23.1533 C   0  0  0  0  0  0  0  0  0  0  0  0
  -28.8988  -24.2152   28.5528 C   0  0  0  0  0  0  0  0  0  0  0  0
  -30.7334  -16.5105   25.2343 C   0  0  0  0  0  0  0  0  0  0  0  0
  -21.7443   -4.8127   24.5411 C   0  0  0  0  0  0  0  0  0  0  0  0
  -32.7315  -15.2018   23.9152 C   0  0  0  0  0  0  0  0  0  0  0  0
  -23.7634  -10.4825   21.0180 C   0  0  0  0  0  0  0  0  0  0  0  0
  -24.0997  -12.9989   20.7677 C   0  0  0  0  0  0  0  0  0  0  0  0
  -23.9301  -19.3502   23.7948 C   0  0  0  0  0  0  0  0  0  0  0  0
  -26.5861  -23.6675   28.0935 C   0  0  0  0  0  0  0  0  0  0  0  0
  -25.0454  -19.9489   24.4112 C   0  0  0  0  0  0  0  0  0  0  0  0
  -27.7348  -24.4140   27.7948 C   0  0  0  0  0  0  0  0  0  0  0  0
  -30.6029  -15.1508   24.9749 C   0  0  0  0  0  0  0  0  0  0  0  0
  -31.6166  -14.4765   24.3033 C   0  0  0  0  0  0  0  0  0  0  0  0
  -22.2325   -8.1886   21.4385 C   0  0  0  0  0  0  0  0  0  0  0  0
  -28.9162  -23.2959   29.6015 C   0  0  0  0  0  0  0  0  0  0  0  0
  -21.9783   -6.1191   22.5224 C   0  0  0  0  0  0  0  0  0  0  0  0
  -22.9731   -4.2027   24.2888 C   0  0  0  0  0  0  0  0  0  0  0  0
  -21.2469   -5.7709   23.6579 C   0  0  0  0  0  0  0  0  0  0  0  0
  -24.5546  -11.6671   20.8014 C   0  0  0  0  0  0  0  0  0  0  0  0
  -31.8879  -17.1448   24.8048 C   0  0  0  0  0  0  0  0  0  0  0  0
  -25.2305  -13.7422   20.5329 C   0  0  0  0  0  0  0  0  0  0  0  0
  -22.7734  -13.5177   20.9338 C   0  0  0  0  0  0  0  0  0  0  0  0
  -26.1074  -23.4454   24.9590 C   0  0  0  0  0  0  0  0  0  0  0  0
  -26.2406  -26.6832   25.1029 C   0  0  0  0  0  0  0  0  0  0  0  0
  -27.3209  -29.4680   26.7536 C   0  0  0  0  0  0  0  0  0  0  0  0
  -31.0440  -12.7623   21.5790 C   0  0  0  0  0  0  0  0  0  0  0  0
  -23.3135  -19.9220   22.5428 C   0  0  0  0  0  0  0  0  0  0  0  0
  -25.3171  -23.8774   27.3137 C   0  0  0  0  0  0  0  0  0  0  0  0
  -27.7574  -25.4205   26.6745 C   0  0  0  0  0  0  0  0  0  0  0  0
  -23.7014  -21.3752   22.2818 C   0  0  0  0  0  0  0  0  0  0  0  0
  -29.5233  -13.4686   18.4381 C   0  0  0  0  0  0  0  0  0  0  0  0
  -25.2040  -21.5672   22.4613 C   0  0  0  0  0  0  0  0  0  0  0  0
  -28.0364  -13.2072   18.6846 C   0  0  0  0  0  0  0  0  0  0  0  0
  -30.4040  -12.4825   19.2023 C   0  0  0  0  0  0  0  0  0  0  0  0
  -28.6468  -12.1426   20.8966 C   0  0  0  0  0  0  0  0  0  0  0  0
  -25.6335  -21.2453   23.8978 C   0  0  1  0  0  0  0  0  0  0  0  0
  -25.5590  -24.4582   25.9239 C   0  0  1  0  0  0  0  0  0  0  0  0
  -27.7198  -13.1472   20.1910 C   0  0  2  0  0  0  0  0  0  0  0  0
  -28.0974  -14.9852   24.7544 C   0  0  0  0  0  0  0  0  0  0  0  0
  -29.2066  -14.4584   26.9561 C   0  0  0  0  0  0  0  0  0  0  0  0
  -27.3081  -31.9732   26.6084 C   0  0  0  0  0  0  0  0  0  0  0  0
  -28.3877  -26.5663   22.9381 C   0  0  0  0  0  0  0  0  0  0  0  0
  -28.9942  -28.9271   23.5100 C   0  0  0  0  0  0  0  0  0  0  0  0
  -26.7131  -28.4010   22.6484 C   0  0  0  0  0  0  0  0  0  0  0  0
  -25.8521  -29.7245   29.3101 C   0  0  0  0  0  0  0  0  0  0  0  0
  -34.8524  -22.7526   27.4450 C   0  0  0  0  0  0  0  0  0  0  0  0
  -31.5280  -13.0212   23.9993 C   0  0  0  0  0  0  0  0  0  0  0  0
  -32.0637  -18.6190   25.0683 C   0  0  0  0  0  0  0  0  0  0  0  0
  -32.7529  -18.9322   26.4012 C   0  0  0  0  0  0  0  0  0  0  0  0
  -32.8532  -20.4338   26.6863 C   0  0  0  0  0  0  0  0  0  0  0  0
  -32.3421  -22.4044   30.2766 C   0  0  0  0  0  0  0  0  0  0  0  0
  -33.5732  -20.6902   28.0025 C   0  0  0  0  0  0  0  0  0  0  0  0
  -33.7233  -22.5469   29.6551 C   0  0  0  0  0  0  0  0  0  0  0  0
  -31.2936  -23.3203   29.6572 C   0  0  0  0  0  0  0  0  0  1  0  0
  -29.3710  -14.4379   25.4251 C   0  0  0  0  0  0  0  0  0  0  0  0
  -27.3390  -27.7137   24.9996 C   0  0  1  0  0  0  0  0  0  0  0  0
  -26.6018  -30.7428   27.1561 C   0  0  2  0  0  0  0  0  0  0  0  0
  -27.8590  -27.8817   23.5440 C   0  0  0  0  0  0  0  0  0  0  0  0
  -32.8939  -16.5233   24.1494 N   0  0  0  0  0  0  0  0  0  0  0  0
  -25.8718  -11.5670   20.6037 N   0  0  0  0  0  0  0  0  0  0  0  0
  -26.2542  -12.8453   20.4434 N   0  0  0  0  0  0  0  0  0  0  0  0
  -26.4938  -25.5852   25.9372 N   0  0  0  0  0  0  0  0  0  0  0  0
  -30.0540  -12.4752   20.6248 N   0  0  0  0  0  0  0  0  0  0  0  0
  -25.4392  -15.0689   20.3962 N   0  0  0  0  0  0  0  0  0  0  0  0
  -21.7273  -12.6149   21.1679 N   0  0  0  0  0  0  0  0  0  0  0  0
  -25.2974  -22.3397   24.7831 N   0  0  0  0  0  0  0  0  0  0  0  0
  -26.8072  -28.9377   25.5891 N   0  0  0  0  0  0  0  0  0  0  0  0
  -30.6266  -12.7403   22.9041 N   0  0  0  0  0  0  0  0  0  0  0  0
  -26.5421  -30.8572   28.6408 N   0  3  0  0  0  0  0  0  0  0  0  0
  -33.6902  -22.1798   28.2200 N   0  3  1  0  0  0  0  0  0  0  0  0
  -22.5209  -14.7442   20.8599 O   0  0  0  0  0  0  0  0  0  0  0  0
  -27.1850  -23.6523   24.4134 O   0  0  0  0  0  0  0  0  0  0  0  0
  -25.1936  -26.8501   24.4724 O   0  0  0  0  0  0  0  0  0  0  0  0
  -28.2483  -28.9923   27.4049 O   0  0  0  0  0  0  0  0  0  0  0  0
  -32.2120  -13.0244   21.2724 O   0  0  0  0  0  0  0  0  0  0  0  0
  -21.4855   -7.0696   21.6441 O   0  0  0  0  0  0  0  0  0  0  0  0
  -30.0517  -23.1146   30.3292 O   0  0  0  0  0  0  0  0  0  1  0  0
  -23.4502   -3.2815   25.1361 F   0  0  0  0  0  0  0  0  0  0  0  0
  -20.0653   -6.3526   23.9050 F   0  0  0  0  0  0  0  0  0  0  0  0
  1  2  1  0  0  0  0
  1  5  2  0  0  0  0
  2  6  2  0  0  0  0
  3  8  2  0  0  0  0
  3 17  1  0  0  0  0
  4  9  1  0  0  0  0
  4 17  2  0  0  0  0
  5 19  1  0  0  0  0
  6 21  1  0  0  0  0
  7 10  2  0  0  0  0
  7 20  1  0  0  0  0
  8 25  1  0  0  0  0
  9 25  2  0  0  0  0
 10 26  1  0  0  0  0
 11 12  2  0  0  0  0
 11 27  1  0  0  0  0
 12 28  1  0  0  0  0
 13 22  1  0  0  0  0
 13 26  2  0  0  0  0
 14 23  2  0  0  0  0
 14 31  1  0  0  0  0
 15 28  2  0  0  0  0
 15 29  1  0  0  0  0
 16 24  2  0  0  0  0
 16 70  1  0  0  0  0
 17 30  1  0  0  0  0
 18 30  1  0  0  0  0
 18 32  2  0  0  0  0
 18 33  1  0  0  0  0
 19 21  2  0  0  0  0
 19 38  1  0  0  0  0
 20 22  2  0  0  0  0
 20 39  1  0  0  0  0
 21 47  1  0  0  0  0
 22 40  1  0  0  0  0
 23 24  1  0  0  0  0
 23 66  1  0  0  0  0
 24 58  1  0  0  0  0
 25 87  1  0  0  0  0
 26 88  1  0  0  0  0
 27 29  2  0  0  0  0
 27 87  1  0  0  0  0
 28 89  1  0  0  0  0
 29 90  1  0  0  0  0
 30 71  2  0  0  0  0
 31 59  1  0  0  0  0
 31 70  2  0  0  0  0
 32 72  1  0  0  0  0
 32 75  1  0  0  0  0
 33 76  1  0  0  0  0
 33 82  2  0  0  0  0
 34 48  1  0  0  0  0
 34 77  1  0  0  0  0
 34 83  2  0  0  0  0
 35 67  1  0  0  0  0
 35 73  1  0  0  0  0
 35 84  2  0  0  0  0
 36 68  1  0  0  0  0
 36 78  1  0  0  0  0
 36 85  2  0  0  0  0
 37 74  1  0  0  0  0
 37 79  1  0  0  0  0
 37 86  2  0  0  0  0
 38 41  1  0  0  0  0
 39 48  1  0  0  0  0
 40 73  1  0  0  0  0
 41 43  1  0  0  0  0
 42 44  1  0  0  0  0
 42 45  1  0  0  0  0
 43 47  1  0  0  0  0
 44 49  1  0  0  0  0
 45 74  1  0  0  0  0
 46 49  1  0  0  0  0
 46 74  1  0  0  0  0
 47 77  1  0  0  0  0
 48 73  1  0  0  0  0
 49 72  1  0  0  0  0
 50 66  1  0  0  0  0
 51 66  1  0  0  0  0
 52 68  1  0  0  0  0
 53 69  1  0  0  0  0
 54 69  1  0  0  0  0
 55 69  1  0  0  0  0
 56 80  1  0  0  0  0
 57 81  1  0  0  0  0
 58 79  1  0  0  0  0
 59 60  1  0  0  0  0
 60 61  1  0  0  0  0
 61 63  1  0  0  0  0
 62 64  1  0  0  0  0
 62 65  1  0  0  0  0
 63 81  1  0  0  0  0
 64 81  1  0  0  0  0
 65 88  1  0  0  0  0
 67 69  1  0  0  0  0
 67 78  1  0  0  0  0
 68 80  1  0  0  0  0
 71 72  1  0  0  0  0
M  CHG  2  80   1  81   1
M  ISO  4  37 100  65 101  79 100  88 101
M  END
> <Batch ID>
0097

> <Smiles>
CNC(C)C(=O)NC(C(=O)N1Cc2cc([101O:1][101CH2:1]CCN(C)CCCCc3cc(C(C)C)c(C[100NH:0][100C:0](=O)N4CCCC(n5nc(-c6ccc(Oc7ccc(F)cc7F)cc6)c(C(N)=O)c5N)C4)cn3)ccc2CC1C(=O)NC1CCCc2ccccc21)C(C)(C)C

> <Shape>
0.161

> <Color>
0.175

> <Negative vol penalty>
0.000

$$$$

  -OEChem-04052319263D

 83 91  0     1  0  0  0  0  0999 V2000
  -31.2253  -25.1792   17.5277 C   0  0  0  0  0  0  0  0  0  0  0  0
  -30.3758  -24.6190   18.4764 C   0  0  0  0  0  0  0  0  0  0  0  0
  -24.5347  -12.0022   19.5041 C   0  0  0  0  0  0  0  0  0  0  0  0
  -25.6542  -12.0984   21.6429 C   0  0  0  0  0  0  0  0  0  0  0  0
  -31.3708  -26.5639   17.4552 C   0  0  0  0  0  0  0  0  0  0  0  0
  -29.6721  -25.4432   19.3539 C   0  0  0  0  0  0  0  0  0  0  0  0
  -24.8233  -24.0676   19.8450 C   0  0  0  0  0  0  0  0  0  0  0  0
  -24.8644  -10.6515   19.3922 C   0  0  0  0  0  0  0  0  0  0  0  0
  -25.9838  -10.7476   21.5311 C   0  0  0  0  0  0  0  0  0  0  0  0
  -24.5517  -22.9740   20.6660 C   0  0  0  0  0  0  0  0  0  0  0  0
  -24.4508   -7.7672   21.9640 C   0  0  0  0  0  0  0  0  0  0  0  0
  -24.2613   -6.9604   23.0859 C   0  0  0  0  0  0  0  0  0  0  0  0
  -23.9215  -24.4747   22.4464 C   0  0  0  0  0  0  0  0  0  0  0  0
  -29.4416  -21.9071   24.0433 C   0  0  0  0  0  0  0  0  0  0  0  0
  -26.6178   -6.4276   23.1009 C   0  0  0  0  0  0  0  0  0  0  0  0
  -24.9297  -12.7257   20.6294 C   0  0  0  0  0  0  0  0  0  0  0  0
  -23.4309  -14.6684   21.3275 C   0  0  0  0  0  0  0  0  0  0  0  0
  -30.6612  -27.4060   18.3259 C   0  0  0  0  0  0  0  0  0  0  0  0
  -24.6562  -25.3753   20.3230 C   0  0  0  0  0  0  0  0  0  0  0  0
  -29.8094  -26.8404   19.2938 C   0  0  0  0  0  0  0  0  0  0  0  0
  -24.1892  -25.5832   21.6287 C   0  0  0  0  0  0  0  0  0  0  0  0
  -28.7135  -22.8045   24.8165 C   0  0  0  0  0  0  0  0  0  0  0  0
  -27.3886  -22.5256   25.1328 C   0  0  0  0  0  0  0  0  0  0  0  0
  -25.5889  -10.0242   20.4058 C   0  0  0  0  0  0  0  0  0  0  0  0
  -24.1035  -23.1774   21.9678 C   0  0  0  0  0  0  0  0  0  0  0  0
  -25.7239   -7.9042   21.4104 C   0  0  0  0  0  0  0  0  0  0  0  0
  -25.3447   -6.2906   23.6544 C   0  0  0  0  0  0  0  0  0  0  0  0
  -26.8073   -7.2344   21.9789 C   0  0  0  0  0  0  0  0  0  0  0  0
  -24.5899  -14.1211   20.7453 C   0  0  0  0  0  0  0  0  0  0  0  0
  -28.8037  -20.7542   23.6145 C   0  0  0  0  0  0  0  0  0  0  0  0
  -26.8426  -21.3452   24.6551 C   0  0  0  0  0  0  0  0  0  0  0  0
  -23.5843  -16.0260   21.1871 C   0  0  0  0  0  0  0  0  0  0  0  0
  -22.3153  -14.0085   21.9405 C   0  0  0  0  0  0  0  0  0  0  0  0
  -26.5864  -27.8578   20.7872 C   0  0  0  0  0  0  0  0  0  0  0  0
  -23.8124  -29.3866   21.4871 C   0  0  0  0  0  0  0  0  0  0  0  0
  -20.5687  -29.1726   22.5261 C   0  0  0  0  0  0  0  0  0  0  0  0
  -28.3917  -19.5472   20.6026 C   0  0  0  0  0  0  0  0  0  0  0  0
  -30.8873  -28.8947   18.2407 C   0  0  0  0  0  0  0  0  0  0  0  0
  -24.9279  -26.5441   19.4161 C   0  0  0  0  0  0  0  0  0  0  0  0
  -23.9740  -26.9669   22.1831 C   0  0  0  0  0  0  0  0  0  0  0  0
  -29.8196  -29.7150   18.9600 C   0  0  0  0  0  0  0  0  0  0  0  0
  -25.6414  -19.2889   18.3563 C   0  0  0  0  0  0  0  0  0  0  0  0
  -29.5445  -29.1365   20.3444 C   0  0  0  0  0  0  0  0  0  0  0  0
  -24.9555  -17.9845   18.7664 C   0  0  0  0  0  0  0  0  0  0  0  0
  -27.1602  -19.1918   18.4828 C   0  0  0  0  0  0  0  0  0  0  0  0
  -26.9589  -17.4511   20.2157 C   0  0  0  0  0  0  0  0  0  0  0  0
  -29.0101  -27.7025   20.2468 C   0  0  1  0  0  0  0  0  0  0  0  0
  -25.2140  -27.8359   20.1757 C   0  0  1  0  0  0  0  0  0  0  0  0
  -25.4231  -17.5186   20.1583 C   0  0  2  0  0  0  0  0  0  0  0  0
  -29.3742  -24.0567   25.2904 C   0  0  0  0  0  0  0  0  0  0  0  0
  -26.5838  -23.4686   25.9625 C   0  0  0  0  0  0  0  0  0  0  0  0
  -18.5661  -30.5958   23.0376 C   0  0  0  0  0  0  0  0  0  0  0  0
  -25.0892  -30.2302   24.1269 C   0  0  0  0  0  0  0  0  0  0  0  0
  -22.8020  -30.8005   24.9706 C   0  0  0  0  0  0  0  0  0  0  0  0
  -23.7418  -32.0124   23.0032 C   0  0  0  0  0  0  0  0  0  0  0  0
  -18.9512  -27.8549   20.4269 C   0  0  0  0  0  0  0  0  0  0  0  0
  -25.4113  -20.9867   24.9660 C   0  0  0  0  0  0  0  0  0  0  0  0
  -29.5546  -19.7677   22.7839 C   0  0  0  0  0  0  0  0  0  0  0  0
  -24.7279  -20.1710   23.8663 C   0  0  0  0  0  0  0  0  0  0  0  0
  -24.5981  -20.9246   22.5478 C   0  0  0  0  0  0  0  0  0  1  0  0
  -23.0013  -29.6093   22.7407 C   0  0  1  0  0  0  0  0  0  0  0  0
  -19.2925  -29.7840   21.9764 C   0  0  2  0  0  0  0  0  0  0  0  0
  -23.6644  -30.6369   23.7009 C   0  0  0  0  0  0  0  0  0  0  0  0
  -25.4184  -15.0549   20.2702 N   0  0  0  0  0  0  0  0  0  0  0  0
  -27.5184  -20.4491   23.9015 N   0  0  0  0  0  0  0  0  0  0  0  0
  -24.7792  -16.2025   20.5536 N   0  0  0  0  0  0  0  0  0  0  0  0
  -24.2597  -28.0774   21.2596 N   0  0  0  0  0  0  0  0  0  0  0  0
  -27.5374  -18.7466   19.8265 N   0  0  0  0  0  0  0  0  0  0  0  0
  -22.8123  -17.0741   21.5448 N   0  0  0  0  0  0  0  0  0  0  0  0
  -22.3182  -12.6083   22.0011 N   0  0  0  0  0  0  0  0  0  0  0  0
  -27.6120  -27.7085   19.8732 N   0  0  0  0  0  0  0  0  0  0  0  0
  -21.6617  -29.9821   22.2993 N   0  0  0  0  0  0  0  0  0  0  0  0
  -28.6941  -19.0548   21.8663 N   0  0  0  0  0  0  0  0  0  0  0  0
  -18.3737  -28.7158   21.4910 N   0  3  0  0  0  0  0  0  0  0  0  0
  -21.3371  -14.6411   22.4056 O   0  0  0  0  0  0  0  0  0  0  0  0
  -26.7059  -28.0010   21.9983 O   0  0  0  0  0  0  0  0  0  0  0  0
  -24.0347  -30.3377   20.7337 O   0  0  0  0  0  0  0  0  0  0  0  0
  -20.5929  -28.0874   23.1024 O   0  0  0  0  0  0  0  0  0  0  0  0
  -28.8468  -20.6236   20.2013 O   0  0  0  0  0  0  0  0  0  0  0  0
  -25.9106   -8.7062   20.2971 O   0  0  0  0  0  0  0  0  0  0  0  0
  -23.8384  -22.1117   22.7715 O   0  0  0  0  0  0  0  0  0  1  0  0
  -25.1628   -5.5171   24.7327 F   0  0  0  0  0  0  0  0  0  0  0  0
  -28.0329   -7.3631   21.4523 F   0  0  0  0  0  0  0  0  0  0  0  0
  1  2  1  0  0  0  0
  1  5  2  0  0  0  0
  2  6  2  0  0  0  0
  3  8  2  0  0  0  0
  3 16  1  0  0  0  0
  4  9  1  0  0  0  0
  4 16  2  0  0  0  0
  5 18  1  0  0  0  0
  6 20  1  0  0  0  0
  7 10  2  0  0  0  0
  7 19  1  0  0  0  0
  8 24  1  0  0  0  0
  9 24  2  0  0  0  0
 10 25  1  0  0  0  0
 11 12  2  0  0  0  0
 11 26  1  0  0  0  0
 12 27  1  0  0  0  0
 13 21  1  0  0  0  0
 13 25  2  0  0  0  0
 14 22  2  0  0  0  0
 14 30  1  0  0  0  0
 15 27  2  0  0  0  0
 15 28  1  0  0  0  0
 16 29  1  0  0  0  0
 17 29  1  0  0  0  0
 17 32  2  0  0  0  0
 17 33  1  0  0  0  0
 18 20  2  0  0  0  0
 18 38  1  0  0  0  0
 19 21  2  0  0  0  0
 19 39  1  0  0  0  0
 20 47  1  0  0  0  0
 21 40  1  0  0  0  0
 22 23  1  0  0  0  0
 22 50  1  0  0  0  0
 23 31  2  0  0  0  0
 23 51  1  0  0  0  0
 24 80  1  0  0  0  0
 25 81  1  0  0  0  0
 26 28  2  0  0  0  0
 26 80  1  0  0  0  0
 27 82  1  0  0  0  0
 28 83  1  0  0  0  0
 29 64  2  0  0  0  0
 30 58  1  0  0  0  0
 30 65  2  0  0  0  0
 31 57  1  0  0  0  0
 31 65  1  0  0  0  0
 32 66  1  0  0  0  0
 32 69  1  0  0  0  0
 33 70  1  0  0  0  0
 33 75  2  0  0  0  0
 34 48  1  0  0  0  0
 34 71  1  0  0  0  0
 34 76  2  0  0  0  0
 35 61  1  0  0  0  0
 35 67  1  0  0  0  0
 35 77  2  0  0  0  0
 36 62  1  0  0  0  0
 36 72  1  0  0  0  0
 36 78  2  0  0  0  0
 37 68  1  0  0  0  0
 37 73  1  0  0  0  0
 37 79  2  0  0  0  0
 38 41  1  0  0  0  0
 39 48  1  0  0  0  0
 40 67  1  0  0  0  0
 41 43  1  0  0  0  0
 42 44  1  0  0  0  0
 42 45  1  0  0  0  0
 43 47  1  0  0  0  0
 44 49  1  0  0  0  0
 45 68  1  0  0  0  0
 46 49  1  0  0  0  0
 46 68  1  0  0  0  0
 47 71  1  0  0  0  0
 48 67  1  0  0  0  0
 49 66  1  0  0  0  0
 52 62  1  0  0  0  0
 53 63  1  0  0  0  0
 54 63  1  0  0  0  0
 55 63  1  0  0  0  0
 56 74  1  0  0  0  0
 57 59  1  0  0  0  0
 58 73  1  0  0  0  0
 59 60  1  0  0  0  0
 60 81  1  0  0  0  0
 61 63  1  0  0  0  0
 61 72  1  0  0  0  0
 62 74  1  0  0  0  0
 64 66  1  0  0  0  0
M  CHG  1  74   1
M  ISO  4  37 100  60 101  73 100  81 101
M  END
> <Batch ID>
0097

> <Smiles>
CNC(C)C(=O)NC(C(=O)N1Cc2cc([101O:1][101CH2:1]CCc3nc(C[100NH:0][100C:0](=O)N4CCCC(n5nc(-c6ccc(Oc7ccc(F)cc7F)cc6)c(C(N)=O)c5N)C4)cc(C)c3C)ccc2CC1C(=O)NC1CCCc2ccccc21)C(C)(C)C

> <Shape>
0.216

> <Color>
0.066

> <Negative vol penalty>
0.000

$$$$

  -OEChem-04052319263D

 87 95  0     1  0  0  0  0  0999 V2000
  -24.1163   -8.1713   21.1736 C   0  0  0  0  0  0  0  0  0  0  0  0
  -24.5809   -9.3181   20.5377 C   0  0  0  0  0  0  0  0  0  0  0  0
  -22.8331  -27.7809   20.5653 C   0  0  0  0  0  0  0  0  0  0  0  0
  -24.0346  -26.9043   22.4693 C   0  0  0  0  0  0  0  0  0  0  0  0
  -22.8623   -8.1729   21.7828 C   0  0  0  0  0  0  0  0  0  0  0  0
  -23.7912  -10.4670   20.5097 C   0  0  0  0  0  0  0  0  0  0  0  0
  -26.4235  -14.6604   21.5734 C   0  0  0  0  0  0  0  0  0  0  0  0
  -21.6252  -27.4135   21.1583 C   0  0  0  0  0  0  0  0  0  0  0  0
  -22.8267  -26.5369   23.0623 C   0  0  0  0  0  0  0  0  0  0  0  0
  -27.2165  -15.1895   20.5561 C   0  0  0  0  0  0  0  0  0  0  0  0
  -19.5715  -28.5989   23.5687 C   0  0  0  0  0  0  0  0  0  0  0  0
  -18.5300  -29.5265   23.5468 C   0  0  0  0  0  0  0  0  0  0  0  0
  -25.5085  -16.8264   20.0843 C   0  0  0  0  0  0  0  0  0  0  0  0
  -17.1632  -27.9625   22.3128 C   0  0  0  0  0  0  0  0  0  0  0  0
  -31.8644  -20.8072   19.7121 C   0  0  0  0  0  0  0  0  0  0  0  0
  -24.0378  -27.5263   21.2208 C   0  0  0  0  0  0  0  0  0  0  0  0
  -25.9627  -29.1317   20.7464 C   0  0  0  0  0  0  0  0  0  0  0  0
  -22.0608   -9.3254   21.7707 C   0  0  0  0  0  0  0  0  0  0  0  0
  -25.1602  -15.2042   21.8470 C   0  0  0  0  0  0  0  0  0  0  0  0
  -22.5246  -10.4836   21.1182 C   0  0  0  0  0  0  0  0  0  0  0  0
  -24.7024  -16.3039   21.1072 C   0  0  0  0  0  0  0  0  0  0  0  0
  -31.2363  -21.8891   20.2887 C   0  0  0  0  0  0  0  0  0  0  0  0
  -30.2423  -21.3847   21.1631 C   0  0  0  0  0  0  0  0  0  0  0  0
  -21.6220  -26.7915   22.4069 C   0  0  0  0  0  0  0  0  0  0  0  0
  -26.7579  -16.2708   19.8095 C   0  0  0  0  0  0  0  0  0  0  0  0
  -19.4089  -27.3532   22.9626 C   0  0  0  0  0  0  0  0  0  0  0  0
  -17.3258  -29.2083   22.9189 C   0  0  0  0  0  0  0  0  0  0  0  0
  -18.2047  -27.0349   22.3347 C   0  0  0  0  0  0  0  0  0  0  0  0
  -25.2859  -27.9051   20.6084 C   0  0  0  0  0  0  0  0  0  0  0  0
  -30.2934  -20.0099   21.0944 C   0  0  0  0  0  0  0  0  0  0  0  0
  -27.0886  -28.9916   19.9724 C   0  0  0  0  0  0  0  0  0  0  0  0
  -25.6056  -30.2939   21.5063 C   0  0  0  0  0  0  0  0  0  0  0  0
  -22.1786  -14.1058   21.7608 C   0  0  0  0  0  0  0  0  0  0  0  0
  -21.4905  -16.9949   23.0654 C   0  0  0  0  0  0  0  0  0  0  0  0
  -22.3931  -20.2533   23.5295 C   0  0  0  0  0  0  0  0  0  0  0  0
  -30.2162  -24.2220   18.1503 C   0  0  0  0  0  0  0  0  0  0  0  0
  -20.6924   -9.2646   22.4019 C   0  0  0  0  0  0  0  0  0  0  0  0
  -24.3283  -14.6390   22.9654 C   0  0  0  0  0  0  0  0  0  0  0  0
  -23.3623  -16.9371   21.3747 C   0  0  0  0  0  0  0  0  0  0  0  0
  -20.0753  -10.6383   22.6517 C   0  0  0  0  0  0  0  0  0  0  0  0
  -28.7050  -26.7043   16.0934 C   0  0  0  0  0  0  0  0  0  0  0  0
  -20.2286  -11.5245   21.4197 C   0  0  0  0  0  0  0  0  0  0  0  0
  -27.7185  -27.4042   17.0297 C   0  0  0  0  0  0  0  0  0  0  0  0
  -28.7901  -25.2069   16.3803 C   0  0  0  0  0  0  0  0  0  0  0  0
  -28.0997  -25.5609   18.7195 C   0  0  0  0  0  0  0  0  0  0  0  0
  -21.7076  -11.7571   21.0881 C   0  0  1  0  0  0  0  0  0  0  0  0
  -22.8410  -14.9445   22.8170 C   0  0  1  0  0  0  0  0  0  0  0  0
  -28.0212  -27.0822   18.5055 C   0  0  2  0  0  0  0  0  0  0  0  0
  -29.4857  -18.9891   21.7951 C   0  0  0  0  0  0  0  0  0  0  0  0
  -21.6105  -22.3797   24.6080 C   0  0  0  0  0  0  0  0  0  0  0  0
  -27.1841  -21.3082   20.9080 C   0  0  0  0  0  0  0  0  0  0  0  0
  -27.1202  -23.4323   22.2299 C   0  0  0  0  0  0  0  0  0  0  0  0
  -29.3337  -17.8143   16.7567 C   0  0  0  0  0  0  0  0  0  0  0  0
  -19.4700  -17.3906   20.8135 C   0  0  0  0  0  0  0  0  0  0  0  0
  -19.4294  -19.8306   21.3727 C   0  0  0  0  0  0  0  0  0  0  0  0
  -18.6874  -18.1529   23.0632 C   0  0  0  0  0  0  0  0  0  0  0  0
  -24.7696  -20.3717   25.2894 C   0  0  0  0  0  0  0  0  0  0  0  0
  -29.3198  -22.1835   21.9960 C   0  0  0  0  0  0  0  0  0  0  0  0
  -31.5498  -23.3093   20.0338 C   0  0  0  0  0  0  0  0  0  0  0  0
  -31.1892  -17.8308   18.4429 C   0  0  0  0  0  0  0  0  0  0  0  0
  -31.6854  -18.2673   19.8284 C   0  0  0  0  0  0  0  0  0  0  0  0
  -28.9444  -16.6907   18.9737 C   0  0  0  0  0  0  0  0  0  1  0  0
  -21.1479  -18.3601   22.5197 C   0  0  1  0  0  0  0  0  0  0  0  0
  -22.4414  -21.1172   24.7768 C   0  0  2  0  0  0  0  0  0  0  0  0
  -27.9748  -22.5554   21.3113 C   0  0  0  0  0  0  0  0  0  0  0  0
  -29.6560  -17.8456   18.2561 C   0  0  2  0  0  0  0  0  0  0  0  0
  -19.7082  -18.4206   21.9357 C   0  0  0  0  0  0  0  0  0  0  0  0
  -25.9281  -27.0488   19.8095 N   0  0  0  0  0  0  0  0  0  0  0  0
  -31.2833  -19.6701   20.2096 N   0  0  0  0  0  0  0  0  0  0  0  0
  -27.0203  -27.7384   19.4384 N   0  0  0  0  0  0  0  0  0  0  0  0
  -22.5831  -16.3446   22.4744 N   0  0  0  0  0  0  0  0  0  0  0  0
  -29.0811  -24.9698   17.7963 N   0  0  0  0  0  0  0  0  0  0  0  0
  -28.1205  -29.8193   19.7032 N   0  0  0  0  0  0  0  0  0  0  0  0
  -24.4149  -30.2691   22.2453 N   0  0  0  0  0  0  0  0  0  0  0  0
  -22.2762  -12.7450   21.9799 N   0  0  0  0  0  0  0  0  0  0  0  0
  -21.3937  -19.3061   23.6027 N   0  0  0  0  0  0  0  0  0  0  0  0
  -30.4220  -24.0496   19.5136 N   0  0  0  0  0  0  0  0  0  0  0  0
  -23.8458  -21.5156   25.0768 N   0  3  0  0  0  0  0  0  0  0  0  0
  -26.3128  -31.3299   21.5162 O   0  0  0  0  0  0  0  0  0  0  0  0
  -21.6191  -14.6529   20.8177 O   0  0  0  0  0  0  0  0  0  0  0  0
  -20.8181  -16.5259   23.9871 O   0  0  0  0  0  0  0  0  0  0  0  0
  -23.1624  -20.4059   22.5832 O   0  0  0  0  0  0  0  0  0  0  0  0
  -30.9920  -23.7478   17.3134 O   0  0  0  0  0  0  0  0  0  0  0  0
  -20.4436  -26.4331   22.9859 O   0  0  0  0  0  0  0  0  0  0  0  0
  -27.5296  -16.7889   18.8155 O   0  0  0  0  0  0  0  0  0  1  0  0
  -16.3252  -30.0985   22.8992 F   0  0  0  0  0  0  0  0  0  0  0  0
  -18.0422  -25.8393   21.7518 F   0  0  0  0  0  0  0  0  0  0  0  0
  1  2  1  0  0  0  0
  1  5  2  0  0  0  0
  2  6  2  0  0  0  0
  3  8  2  0  0  0  0
  3 16  1  0  0  0  0
  4  9  1  0  0  0  0
  4 16  2  0  0  0  0
  5 18  1  0  0  0  0
  6 20  1  0  0  0  0
  7 10  2  0  0  0  0
  7 19  1  0  0  0  0
  8 24  1  0  0  0  0
  9 24  2  0  0  0  0
 10 25  1  0  0  0  0
 11 12  2  0  0  0  0
 11 26  1  0  0  0  0
 12 27  1  0  0  0  0
 13 21  1  0  0  0  0
 13 25  2  0  0  0  0
 14 27  2  0  0  0  0
 14 28  1  0  0  0  0
 15 22  2  0  0  0  0
 15 69  1  0  0  0  0
 16 29  1  0  0  0  0
 17 29  1  0  0  0  0
 17 31  2  0  0  0  0
 17 32  1  0  0  0  0
 18 20  2  0  0  0  0
 18 37  1  0  0  0  0
 19 21  2  0  0  0  0
 19 38  1  0  0  0  0
 20 46  1  0  0  0  0
 21 39  1  0  0  0  0
 22 23  1  0  0  0  0
 22 59  1  0  0  0  0
 23 30  2  0  0  0  0
 23 58  1  0  0  0  0
 24 84  1  0  0  0  0
 25 85  1  0  0  0  0
 26 28  2  0  0  0  0
 26 84  1  0  0  0  0
 27 86  1  0  0  0  0
 28 87  1  0  0  0  0
 29 68  2  0  0  0  0
 30 49  1  0  0  0  0
 30 69  1  0  0  0  0
 31 70  1  0  0  0  0
 31 73  1  0  0  0  0
 32 74  1  0  0  0  0
 32 79  2  0  0  0  0
 33 47  1  0  0  0  0
 33 75  1  0  0  0  0
 33 80  2  0  0  0  0
 34 63  1  0  0  0  0
 34 71  1  0  0  0  0
 34 81  2  0  0  0  0
 35 64  1  0  0  0  0
 35 76  1  0  0  0  0
 35 82  2  0  0  0  0
 36 72  1  0  0  0  0
 36 77  1  0  0  0  0
 36 83  2  0  0  0  0
 37 40  1  0  0  0  0
 38 47  1  0  0  0  0
 39 71  1  0  0  0  0
 40 42  1  0  0  0  0
 41 43  1  0  0  0  0
 41 44  1  0  0  0  0
 42 46  1  0  0  0  0
 43 48  1  0  0  0  0
 44 72  1  0  0  0  0
 45 48  1  0  0  0  0
 45 72  1  0  0  0  0
 46 75  1  0  0  0  0
 47 71  1  0  0  0  0
 48 70  1  0  0  0  0
 50 64  1  0  0  0  0
 51 65  1  0  0  0  0
 52 65  1  0  0  0  0
 53 66  1  0  0  0  0
 54 67  1  0  0  0  0
 55 67  1  0  0  0  0
 56 67  1  0  0  0  0
 57 78  1  0  0  0  0
 58 65  1  0  0  0  0
 59 77  1  0  0  0  0
 60 61  1  0  0  0  0
 60 66  1  0  0  0  0
 61 69  1  0  0  0  0
 62 66  1  0  0  0  0
 62 85  1  0  0  0  0
 63 67  1  0  0  0  0
 63 76  1  0  0  0  0
 64 78  1  0  0  0  0
 68 70  1  0  0  0  0
M  CHG  1  78   1
M  ISO  4  36 100  62 101  77 100  85 101
M  END
> <Batch ID>
0097

> <Smiles>
CNC(C)C(=O)NC(C(=O)N1Cc2cc([101O:1][101CH2:1]C(C)CCn3cc(C[100NH:0][100C:0](=O)N4CCCC(n5nc(-c6ccc(Oc7ccc(F)cc7F)cc6)c(C(N)=O)c5N)C4)c(CC(C)C)c3C)ccc2CC1C(=O)NC1CCCc2ccccc21)C(C)(C)C

> <Shape>
0.248

> <Color>
0.073

> <Negative vol penalty>
0.000

$$$$

  -OEChem-04052319263D

 84 92  0     1  0  0  0  0  0999 V2000
  -25.7129  -35.5766   22.5172 C   0  0  0  0  0  0  0  0  0  0  0  0
  -26.3027  -34.3223   22.3981 C   0  0  0  0  0  0  0  0  0  0  0  0
  -27.3464  -13.4701   22.4585 C   0  0  0  0  0  0  0  0  0  0  0  0
  -26.9606  -12.8368   20.1591 C   0  0  0  0  0  0  0  0  0  0  0  0
  -24.4213  -35.6926   23.0293 C   0  0  0  0  0  0  0  0  0  0  0  0
  -25.6016  -33.1832   22.7921 C   0  0  0  0  0  0  0  0  0  0  0  0
  -25.9809  -29.4105   19.4353 C   0  0  0  0  0  0  0  0  0  0  0  0
  -26.7339  -12.2920   22.8858 C   0  0  0  0  0  0  0  0  0  0  0  0
  -26.3480  -11.6587   20.5864 C   0  0  0  0  0  0  0  0  0  0  0  0
  -27.1645  -28.6737   19.4366 C   0  0  0  0  0  0  0  0  0  0  0  0
  -23.3437  -10.7183   21.8193 C   0  0  0  0  0  0  0  0  0  0  0  0
  -22.1465  -10.3507   21.2051 C   0  0  0  0  0  0  0  0  0  0  0  0
  -26.0752  -26.9376   20.7088 C   0  0  0  0  0  0  0  0  0  0  0  0
  -23.1610   -8.2874   20.4628 C   0  0  0  0  0  0  0  0  0  0  0  0
  -27.9085  -23.5257   16.6577 C   0  0  0  0  0  0  0  0  0  0  0  0
  -27.2790  -25.6705   16.7921 C   0  0  0  0  0  0  0  0  0  0  0  0
  -27.4597  -13.7425   21.0952 C   0  0  0  0  0  0  0  0  0  0  0  0
  -29.4572  -15.1541   20.3703 C   0  0  0  0  0  0  0  0  0  0  0  0
  -23.7004  -34.5534   23.4207 C   0  0  0  0  0  0  0  0  0  0  0  0
  -24.8368  -28.9206   20.0812 C   0  0  0  0  0  0  0  0  0  0  0  0
  -24.2997  -33.2841   23.3111 C   0  0  0  0  0  0  0  0  0  0  0  0
  -24.8776  -27.6690   20.7120 C   0  0  0  0  0  0  0  0  0  0  0  0
  -26.7030  -23.6424   16.0016 C   0  0  0  0  0  0  0  0  0  0  0  0
  -26.3046  -24.9993   16.0868 C   0  0  0  0  0  0  0  0  0  0  0  0
  -26.2347  -11.3863   21.9497 C   0  0  0  0  0  0  0  0  0  0  0  0
  -27.2126  -27.4384   20.0758 C   0  0  0  0  0  0  0  0  0  0  0  0
  -24.4495   -9.8705   21.7553 C   0  0  0  0  0  0  0  0  0  0  0  0
  -22.0552   -9.1352   20.5268 C   0  0  0  0  0  0  0  0  0  0  0  0
  -24.3582   -8.6551   21.0770 C   0  0  0  0  0  0  0  0  0  0  0  0
  -28.0919  -14.9595   20.6532 C   0  0  0  0  0  0  0  0  0  0  0  0
  -29.5450  -16.4715   19.9919 C   0  0  0  0  0  0  0  0  0  0  0  0
  -30.5483  -14.2269   20.4431 C   0  0  0  0  0  0  0  0  0  0  0  0
  -23.0337  -29.9074   22.5058 C   0  0  0  0  0  0  0  0  0  0  0  0
  -21.1777  -27.3917   21.6406 C   0  0  0  0  0  0  0  0  0  0  0  0
  -20.9497  -24.3521   20.1057 C   0  0  0  0  0  0  0  0  0  0  0  0
  -25.5927  -20.1499   17.6037 C   0  0  0  0  0  0  0  0  0  0  0  0
  -22.3248  -34.7328   24.0127 C   0  0  0  0  0  0  0  0  0  0  0  0
  -23.5602  -29.7154   20.0478 C   0  0  0  0  0  0  0  0  0  0  0  0
  -23.6712  -27.0892   21.4025 C   0  0  0  0  0  0  0  0  0  0  0  0
  -21.5083  -33.4439   24.0577 C   0  0  0  0  0  0  0  0  0  0  0  0
  -27.4310  -20.7116   20.6700 C   0  0  0  0  0  0  0  0  0  0  0  0
  -22.3514  -32.2966   24.6054 C   0  0  0  0  0  0  0  0  0  0  0  0
  -27.9396  -19.3030   20.9821 C   0  0  0  0  0  0  0  0  0  0  0  0
  -26.0244  -20.6733   20.0801 C   0  0  0  0  0  0  0  0  0  0  0  0
  -26.3960  -18.4109   19.1763 C   0  0  0  0  0  0  0  0  0  0  0  0
  -23.5618  -32.0228   23.7047 C   0  0  1  0  0  0  0  0  0  0  0  0
  -22.6013  -29.3535   21.1777 C   0  0  1  0  0  0  0  0  0  0  0  0
  -27.8224  -18.3802   19.7546 C   0  0  2  0  0  0  0  0  0  0  0  0
  -25.3604  -26.6772   14.4599 C   0  0  0  0  0  0  0  0  0  0  0  0
  -24.1424  -26.1840   16.6113 C   0  0  0  0  0  0  0  0  0  0  0  0
  -19.8655  -22.2900   19.1732 C   0  0  0  0  0  0  0  0  0  0  0  0
  -21.3394  -26.4379   24.5344 C   0  0  0  0  0  0  0  0  0  0  0  0
  -20.5281  -24.1968   23.7679 C   0  0  0  0  0  0  0  0  0  0  0  0
  -19.0809  -26.2089   23.4851 C   0  0  0  0  0  0  0  0  0  0  0  0
  -20.4746  -25.6457   17.4866 C   0  0  0  0  0  0  0  0  0  0  0  0
  -25.9708  -22.5475   15.3346 C   0  0  0  0  0  0  0  0  0  0  0  0
  -29.4279  -24.6800   19.3868 C   0  0  0  0  0  0  0  0  0  0  0  0
  -29.5005  -25.0833   17.9124 C   0  0  0  0  0  0  0  0  0  0  0  0
  -24.7885  -21.9930   16.1499 C   0  0  0  0  0  0  0  0  0  0  0  0
  -28.2447  -25.2963   20.1241 C   0  0  0  0  0  0  0  0  0  1  0  0
  -25.0754  -25.5955   15.5276 C   0  0  0  0  0  0  0  0  0  0  0  0
  -21.1171  -25.9299   22.0128 C   0  0  1  0  0  0  0  0  0  0  0  0
  -19.9575  -23.8060   19.0950 C   0  0  2  0  0  0  0  0  0  0  0  0
  -20.5398  -25.7049   23.4388 C   0  0  0  0  0  0  0  0  0  0  0  0
  -27.3648  -16.0649   20.4703 N   0  0  0  0  0  0  0  0  0  0  0  0
  -28.2491  -24.7648   17.1338 N   0  0  0  0  0  0  0  0  0  0  0  0
  -28.2766  -16.9667   20.0684 N   0  0  0  0  0  0  0  0  0  0  0  0
  -22.4483  -27.9072   21.3477 N   0  0  0  0  0  0  0  0  0  0  0  0
  -25.9854  -19.7924   18.9042 N   0  0  0  0  0  0  0  0  0  0  0  0
  -30.5829  -17.2430   19.6045 N   0  0  0  0  0  0  0  0  0  0  0  0
  -30.2822  -12.9125   20.8505 N   0  0  0  0  0  0  0  0  0  0  0  0
  -23.1590  -31.2834   22.5276 N   0  0  0  0  0  0  0  0  0  0  0  0
  -20.3639  -25.2695   20.9522 N   0  0  0  0  0  0  0  0  0  0  0  0
  -25.2119  -21.4751   17.4319 N   0  0  0  0  0  0  0  0  0  0  0  0
  -20.3672  -24.1812   17.7121 N   0  3  0  0  0  0  0  0  0  0  0  0
  -31.7271  -14.5585   20.1711 O   0  0  0  0  0  0  0  0  0  0  0  0
  -23.2372  -29.1432   23.4419 O   0  0  0  0  0  0  0  0  0  0  0  0
  -20.1352  -28.0501   21.6039 O   0  0  0  0  0  0  0  0  0  0  0  0
  -22.1259  -23.9974   20.1432 O   0  0  0  0  0  0  0  0  0  0  0  0
  -25.5869  -19.3483   16.6632 O   0  0  0  0  0  0  0  0  0  0  0  0
  -25.6371  -10.2366   22.3663 O   0  0  0  0  0  0  0  0  0  0  0  0
  -28.3668  -26.7174   20.0792 O   0  0  0  0  0  0  0  0  0  1  0  0
  -20.9051   -8.7816   19.9383 F   0  0  0  0  0  0  0  0  0  0  0  0
  -25.4168   -7.8360   21.0131 F   0  0  0  0  0  0  0  0  0  0  0  0
  1  2  1  0  0  0  0
  1  5  2  0  0  0  0
  2  6  2  0  0  0  0
  3  8  2  0  0  0  0
  3 17  1  0  0  0  0
  4  9  1  0  0  0  0
  4 17  2  0  0  0  0
  5 19  1  0  0  0  0
  6 21  1  0  0  0  0
  7 10  2  0  0  0  0
  7 20  1  0  0  0  0
  8 25  1  0  0  0  0
  9 25  2  0  0  0  0
 10 26  1  0  0  0  0
 11 12  2  0  0  0  0
 11 27  1  0  0  0  0
 12 28  1  0  0  0  0
 13 22  1  0  0  0  0
 13 26  2  0  0  0  0
 14 28  2  0  0  0  0
 14 29  1  0  0  0  0
 15 23  2  0  0  0  0
 15 66  1  0  0  0  0
 16 24  2  0  0  0  0
 16 66  1  0  0  0  0
 17 30  1  0  0  0  0
 18 30  1  0  0  0  0
 18 31  2  0  0  0  0
 18 32  1  0  0  0  0
 19 21  2  0  0  0  0
 19 37  1  0  0  0  0
 20 22  2  0  0  0  0
 20 38  1  0  0  0  0
 21 46  1  0  0  0  0
 22 39  1  0  0  0  0
 23 24  1  0  0  0  0
 23 56  1  0  0  0  0
 24 61  1  0  0  0  0
 25 81  1  0  0  0  0
 26 82  1  0  0  0  0
 27 29  2  0  0  0  0
 27 81  1  0  0  0  0
 28 83  1  0  0  0  0
 29 84  1  0  0  0  0
 30 65  2  0  0  0  0
 31 67  1  0  0  0  0
 31 70  1  0  0  0  0
 32 71  1  0  0  0  0
 32 76  2  0  0  0  0
 33 47  1  0  0  0  0
 33 72  1  0  0  0  0
 33 77  2  0  0  0  0
 34 62  1  0  0  0  0
 34 68  1  0  0  0  0
 34 78  2  0  0  0  0
 35 63  1  0  0  0  0
 35 73  1  0  0  0  0
 35 79  2  0  0  0  0
 36 69  1  0  0  0  0
 36 74  1  0  0  0  0
 36 80  2  0  0  0  0
 37 40  1  0  0  0  0
 38 47  1  0  0  0  0
 39 68  1  0  0  0  0
 40 42  1  0  0  0  0
 41 43  1  0  0  0  0
 41 44  1  0  0  0  0
 42 46  1  0  0  0  0
 43 48  1  0  0  0  0
 44 69  1  0  0  0  0
 45 48  1  0  0  0  0
 45 69  1  0  0  0  0
 46 72  1  0  0  0  0
 47 68  1  0  0  0  0
 48 67  1  0  0  0  0
 49 61  1  0  0  0  0
 50 61  1  0  0  0  0
 51 63  1  0  0  0  0
 52 64  1  0  0  0  0
 53 64  1  0  0  0  0
 54 64  1  0  0  0  0
 55 75  1  0  0  0  0
 56 59  1  0  0  0  0
 57 58  1  0  0  0  0
 57 60  1  0  0  0  0
 58 66  1  0  0  0  0
 59 74  1  0  0  0  0
 60 82  1  0  0  0  0
 62 64  1  0  0  0  0
 62 73  1  0  0  0  0
 63 75  1  0  0  0  0
 65 67  1  0  0  0  0
M  CHG  1  75   1
M  ISO  4  36 100  60 101  74 100  82 101
M  END
> <Batch ID>
0097

> <Smiles>
CNC(C)C(=O)NC(C(=O)N1Cc2cc([101O:1][101CH2:1]CCn3cc(CC[100NH:0][100C:0](=O)N4CCCC(n5nc(-c6ccc(Oc7ccc(F)cc7F)cc6)c(C(N)=O)c5N)C4)c(C(C)C)c3)ccc2CC1C(=O)NC1CCCc2ccccc21)C(C)(C)C

> <Shape>
0.253

> <Color>
0.111

> <Negative vol penalty>
0.000

$$$$

  -OEChem-04052319263D

 88 96  0     1  0  0  0  0  0999 V2000
  -29.3072  -12.0442   19.9026 C   0  0  0  0  0  0  0  0  0  0  0  0
  -29.6559  -13.3040   19.4265 C   0  0  0  0  0  0  0  0  0  0  0  0
  -20.1776  -28.0625   22.6771 C   0  0  0  0  0  0  0  0  0  0  0  0
  -21.3705  -26.0210   22.1809 C   0  0  0  0  0  0  0  0  0  0  0  0
  -28.0438  -11.8335   20.4535 C   0  0  0  0  0  0  0  0  0  0  0  0
  -28.7409  -14.3537   19.5000 C   0  0  0  0  0  0  0  0  0  0  0  0
  -29.9935  -20.2672   20.4834 C   0  0  0  0  0  0  0  0  0  0  0  0
  -19.2006  -27.7188   21.7429 C   0  0  0  0  0  0  0  0  0  0  0  0
  -20.3934  -25.6772   21.2467 C   0  0  0  0  0  0  0  0  0  0  0  0
  -30.1245  -21.3544   19.6204 C   0  0  0  0  0  0  0  0  0  0  0  0
  -17.2745  -24.3764   21.2709 C   0  0  0  0  0  0  0  0  0  0  0  0
  -16.8020  -23.0640   21.2826 C   0  0  0  0  0  0  0  0  0  0  0  0
  -27.8274  -21.9583   20.0425 C   0  0  0  0  0  0  0  0  0  0  0  0
  -31.5414  -26.7872   20.6849 C   0  0  0  0  0  0  0  0  0  0  0  0
  -17.5526  -22.7735   19.0045 C   0  0  0  0  0  0  0  0  0  0  0  0
  -29.7661  -25.7825   21.6383 C   0  0  0  0  0  0  0  0  0  0  0  0
  -21.2626  -27.2137   22.8961 C   0  0  0  0  0  0  0  0  0  0  0  0
  -22.2903  -27.2457   25.2307 C   0  0  0  0  0  0  0  0  0  0  0  0
  -27.1164  -12.8835   20.5425 C   0  0  0  0  0  0  0  0  0  0  0  0
  -28.7733  -20.0107   21.1250 C   0  0  0  0  0  0  0  0  0  0  0  0
  -27.4635  -14.1565   20.0513 C   0  0  0  0  0  0  0  0  0  0  0  0
  -27.6843  -20.8687   20.9151 C   0  0  0  0  0  0  0  0  0  0  0  0
  -30.2554  -26.2468   20.4373 C   0  0  0  0  0  0  0  0  0  0  0  0
  -19.3085  -26.5261   21.0277 C   0  0  0  0  0  0  0  0  0  0  0  0
  -29.0405  -22.1985   19.3976 C   0  0  0  0  0  0  0  0  0  0  0  0
  -17.8859  -24.8873   20.1259 C   0  0  0  0  0  0  0  0  0  0  0  0
  -16.9411  -22.2626   20.1495 C   0  0  0  0  0  0  0  0  0  0  0  0
  -18.0250  -24.0859   18.9928 C   0  0  0  0  0  0  0  0  0  0  0  0
  -22.2725  -27.5685   23.8606 C   0  0  0  0  0  0  0  0  0  0  0  0
  -31.7989  -26.6366   22.0297 C   0  0  0  0  0  0  0  0  0  0  0  0
  -23.4514  -27.8087   25.7011 C   0  0  0  0  0  0  0  0  0  0  0  0
  -21.3421  -26.5031   26.0086 C   0  0  0  0  0  0  0  0  0  0  0  0
  -26.6863  -17.6133   21.0999 C   0  0  0  0  0  0  0  0  0  0  0  0
  -25.2697  -19.3367   23.4548 C   0  0  0  0  0  0  0  0  0  0  0  0
  -24.7843  -22.3758   24.9296 C   0  0  0  0  0  0  0  0  0  0  0  0
  -28.9082  -28.8298   24.0596 C   0  0  0  0  0  0  0  0  0  0  0  0
  -25.7459  -12.5960   21.1029 C   0  0  0  0  0  0  0  0  0  0  0  0
  -28.6561  -18.8493   22.0736 C   0  0  0  0  0  0  0  0  0  0  0  0
  -26.3587  -20.6487   21.5953 C   0  0  0  0  0  0  0  0  0  0  0  0
  -24.9685  -13.8527   21.4858 C   0  0  0  0  0  0  0  0  0  0  0  0
  -26.4574  -31.4111   24.1425 C   0  0  0  0  0  0  0  0  0  0  0  0
  -25.0556  -14.8937   20.3743 C   0  0  0  0  0  0  0  0  0  0  0  0
  -25.1301  -30.6533   24.2056 C   0  0  0  0  0  0  0  0  0  0  0  0
  -27.4779  -30.6896   23.2650 C   0  0  0  0  0  0  0  0  0  0  0  0
  -26.3863  -28.5204   23.6849 C   0  0  0  0  0  0  0  0  0  0  0  0
  -26.5073  -15.3264   20.1361 C   0  0  1  0  0  0  0  0  0  0  0  0
  -27.2169  -18.3851   22.2749 C   0  0  1  0  0  0  0  0  0  0  0  0
  -25.3436  -29.1804   24.6033 C   0  0  2  0  0  0  0  0  0  0  0  0
  -33.2392  -28.5501   22.8156 C   0  0  0  0  0  0  0  0  0  0  0  0
  -34.2738  -26.2958   22.3653 C   0  0  0  0  0  0  0  0  0  0  0  0
  -23.5440  -23.4755   26.8136 C   0  0  0  0  0  0  0  0  0  0  0  0
  -28.2203  -29.8690   18.6288 C   0  0  0  0  0  0  0  0  0  0  0  0
  -26.9885  -27.9006   19.5566 C   0  0  0  0  0  0  0  0  0  0  0  0
  -22.6868  -19.1895   21.8371 C   0  0  0  0  0  0  0  0  0  0  0  0
  -21.7809  -21.0510   23.2451 C   0  0  0  0  0  0  0  0  0  0  0  0
  -22.3939  -18.8756   24.3008 C   0  0  0  0  0  0  0  0  0  0  0  0
  -27.2965  -23.2484   26.2282 C   0  0  0  0  0  0  0  0  0  0  0  0
  -30.3249  -25.3299   18.0664 C   0  0  0  0  0  0  0  0  0  0  0  0
  -29.2970  -27.6012   18.5039 C   0  0  0  0  0  0  0  0  0  0  0  0
  -30.5704  -25.6800   23.9967 C   0  0  0  0  0  0  0  0  0  0  0  0
  -30.2058  -26.8763   24.8718 C   0  0  0  0  0  0  0  0  0  0  0  0
  -30.4574  -23.8567   18.4496 C   0  0  0  0  0  0  0  0  0  1  0  0
  -29.5449  -26.1895   19.0941 C   0  0  2  0  0  0  0  0  0  0  0  0
  -32.9876  -27.0250   22.8166 C   0  0  0  0  0  0  0  0  0  0  0  0
  -24.2249  -20.4254   23.5023 C   0  0  1  0  0  0  0  0  0  0  0  0
  -24.8423  -22.8110   26.3828 C   0  0  2  0  0  0  0  0  0  0  0  0
  -28.3700  -28.5169   19.3328 C   0  0  0  0  0  0  0  0  0  0  0  0
  -22.7959  -19.8887   23.2068 C   0  0  0  0  0  0  0  0  0  0  0  0
  -23.3377  -28.2816   23.4850 N   0  0  0  0  0  0  0  0  0  0  0  0
  -30.7130  -26.0245   22.5991 N   0  0  0  0  0  0  0  0  0  0  0  0
  -24.0356  -28.4115   24.6261 N   0  0  0  0  0  0  0  0  0  0  0  0
  -26.2921  -19.4961   22.5088 N   0  0  0  0  0  0  0  0  0  0  0  0
  -27.6351  -29.2983   23.6957 N   0  0  0  0  0  0  0  0  0  0  0  0
  -24.0194  -27.8422   26.9253 N   0  0  0  0  0  0  0  0  0  0  0  0
  -20.2040  -25.9948   25.3677 N   0  0  0  0  0  0  0  0  0  0  0  0
  -26.9326  -16.2550   21.1615 N   0  0  0  0  0  0  0  0  0  0  0  0
  -24.3643  -21.0684   24.8044 N   0  0  0  0  0  0  0  0  0  0  0  0
  -28.9679  -27.5010   24.4616 N   0  0  0  0  0  0  0  0  0  0  0  0
  -25.9567  -23.7786   26.5897 N   0  3  0  0  0  0  0  0  0  0  0  0
  -21.4912  -26.3104   27.2391 O   0  0  0  0  0  0  0  0  0  0  0  0
  -26.0958  -18.2061   20.2046 O   0  0  0  0  0  0  0  0  0  0  0  0
  -25.1857  -18.3836   24.2335 O   0  0  0  0  0  0  0  0  0  0  0  0
  -25.0784  -23.1222   23.9985 O   0  0  0  0  0  0  0  0  0  0  0  0
  -29.9161  -29.5442   24.0337 O   0  0  0  0  0  0  0  0  0  0  0  0
  -18.3551  -26.1902   20.1161 O   0  0  0  0  0  0  0  0  0  0  0  0
  -29.1654  -23.2600   18.5553 O   0  0  0  0  0  0  0  0  0  1  0  0
  -16.4887  -21.0018   20.1614 F   0  0  0  0  0  0  0  0  0  0  0  0
  -18.6125  -24.5708   17.8904 F   0  0  0  0  0  0  0  0  0  0  0  0
  1  2  1  0  0  0  0
  1  5  2  0  0  0  0
  2  6  2  0  0  0  0
  3  8  2  0  0  0  0
  3 17  1  0  0  0  0
  4  9  1  0  0  0  0
  4 17  2  0  0  0  0
  5 19  1  0  0  0  0
  6 21  1  0  0  0  0
  7 10  2  0  0  0  0
  7 20  1  0  0  0  0
  8 24  1  0  0  0  0
  9 24  2  0  0  0  0
 10 25  1  0  0  0  0
 11 12  2  0  0  0  0
 11 26  1  0  0  0  0
 12 27  1  0  0  0  0
 13 22  1  0  0  0  0
 13 25  2  0  0  0  0
 14 23  1  0  0  0  0
 14 30  2  0  0  0  0
 15 27  2  0  0  0  0
 15 28  1  0  0  0  0
 16 23  2  0  0  0  0
 16 70  1  0  0  0  0
 17 29  1  0  0  0  0
 18 29  1  0  0  0  0
 18 31  2  0  0  0  0
 18 32  1  0  0  0  0
 19 21  2  0  0  0  0
 19 37  1  0  0  0  0
 20 22  2  0  0  0  0
 20 38  1  0  0  0  0
 21 46  1  0  0  0  0
 22 39  1  0  0  0  0
 23 63  1  0  0  0  0
 24 85  1  0  0  0  0
 25 86  1  0  0  0  0
 26 28  2  0  0  0  0
 26 85  1  0  0  0  0
 27 87  1  0  0  0  0
 28 88  1  0  0  0  0
 29 69  2  0  0  0  0
 30 64  1  0  0  0  0
 30 70  1  0  0  0  0
 31 71  1  0  0  0  0
 31 74  1  0  0  0  0
 32 75  1  0  0  0  0
 32 80  2  0  0  0  0
 33 47  1  0  0  0  0
 33 76  1  0  0  0  0
 33 81  2  0  0  0  0
 34 65  1  0  0  0  0
 34 72  1  0  0  0  0
 34 82  2  0  0  0  0
 35 66  1  0  0  0  0
 35 77  1  0  0  0  0
 35 83  2  0  0  0  0
 36 73  1  0  0  0  0
 36 78  1  0  0  0  0
 36 84  2  0  0  0  0
 37 40  1  0  0  0  0
 38 47  1  0  0  0  0
 39 72  1  0  0  0  0
 40 42  1  0  0  0  0
 41 43  1  0  0  0  0
 41 44  1  0  0  0  0
 42 46  1  0  0  0  0
 43 48  1  0  0  0  0
 44 73  1  0  0  0  0
 45 48  1  0  0  0  0
 45 73  1  0  0  0  0
 46 76  1  0  0  0  0
 47 72  1  0  0  0  0
 48 71  1  0  0  0  0
 49 64  1  0  0  0  0
 50 64  1  0  0  0  0
 51 66  1  0  0  0  0
 52 67  1  0  0  0  0
 53 67  1  0  0  0  0
 54 68  1  0  0  0  0
 55 68  1  0  0  0  0
 56 68  1  0  0  0  0
 57 79  1  0  0  0  0
 58 62  1  0  0  0  0
 58 63  1  0  0  0  0
 59 63  1  0  0  0  0
 59 67  1  0  0  0  0
 60 61  1  0  0  0  0
 60 70  1  0  0  0  0
 61 78  1  0  0  0  0
 62 86  1  0  0  0  0
 65 68  1  0  0  0  0
 65 77  1  0  0  0  0
 66 79  1  0  0  0  0
 69 71  1  0  0  0  0
M  CHG  1  79   1
M  ISO  4  36 100  62 101  78 100  86 101
M  END
> <Batch ID>
0097

> <Smiles>
CNC(C)C(=O)NC(C(=O)N1Cc2cc([101O:1][101CH2:1]CC(CC(C)C)c3cc(C(C)C)n(CC[100NH:0][100C:0](=O)N4CCCC(n5nc(-c6ccc(Oc7ccc(F)cc7F)cc6)c(C(N)=O)c5N)C4)c3)ccc2CC1C(=O)NC1CCCc2ccccc21)C(C)(C)C

> <Shape>
0.208

> <Color>
0.042

> <Negative vol penalty>
0.000

$$$$

  -OEChem-04052319263D

 86 94  0     1  0  0  0  0  0999 V2000
  -27.9618  -22.8418   17.8010 C   0  0  0  0  0  0  0  0  0  0  0  0
  -26.7860  -23.1854   18.4604 C   0  0  0  0  0  0  0  0  0  0  0  0
  -28.1094  -14.9690   21.2819 C   0  0  0  0  0  0  0  0  0  0  0  0
  -26.0515  -15.6725   20.2296 C   0  0  0  0  0  0  0  0  0  0  0  0
  -29.1774  -23.3819   18.2188 C   0  0  0  0  0  0  0  0  0  0  0  0
  -26.8252  -24.0685   19.5388 C   0  0  0  0  0  0  0  0  0  0  0  0
  -23.1695  -27.5660   19.3197 C   0  0  0  0  0  0  0  0  0  0  0  0
  -27.7016  -13.6383   21.1897 C   0  0  0  0  0  0  0  0  0  0  0  0
  -25.6438  -14.3418   20.1373 C   0  0  0  0  0  0  0  0  0  0  0  0
  -21.8872  -27.1713   19.6989 C   0  0  0  0  0  0  0  0  0  0  0  0
  -27.3611  -10.0303   20.9041 C   0  0  0  0  0  0  0  0  0  0  0  0
  -28.2954   -9.0951   20.4591 C   0  0  0  0  0  0  0  0  0  0  0  0
  -22.2200  -28.1881   21.8609 C   0  0  0  0  0  0  0  0  0  0  0  0
  -20.3452  -23.9913   23.0766 C   0  0  0  0  0  0  0  0  0  0  0  0
  -28.5035  -10.2957   18.3728 C   0  0  0  0  0  0  0  0  0  0  0  0
  -18.7721  -25.3543   24.2274 C   0  0  0  0  0  0  0  0  0  0  0  0
  -27.2843  -15.9862   20.8019 C   0  0  0  0  0  0  0  0  0  0  0  0
  -28.4409  -18.0929   19.9466 C   0  0  0  0  0  0  0  0  0  0  0  0
  -29.2303  -24.2796   19.2968 C   0  0  0  0  0  0  0  0  0  0  0  0
  -23.9921  -28.2663   20.2137 C   0  0  0  0  0  0  0  0  0  0  0  0
  -28.0428  -24.6201   19.9723 C   0  0  0  0  0  0  0  0  0  0  0  0
  -23.5114  -28.5927   21.4898 C   0  0  0  0  0  0  0  0  0  0  0  0
  -19.2543  -24.8522   23.0294 C   0  0  0  0  0  0  0  0  0  0  0  0
  -20.9124  -23.6634   24.3029 C   0  0  0  0  0  0  0  0  0  0  0  0
  -26.4688  -13.3247   20.6174 C   0  0  0  0  0  0  0  0  0  0  0  0
  -21.4133  -27.4798   20.9706 C   0  0  0  0  0  0  0  0  0  0  0  0
  -26.9979  -11.0982   20.0834 C   0  0  0  0  0  0  0  0  0  0  0  0
  -28.8666   -9.2278   19.1935 C   0  0  0  0  0  0  0  0  0  0  0  0
  -27.5691  -11.2309   18.8178 C   0  0  0  0  0  0  0  0  0  0  0  0
  -27.7047  -17.3610   20.8975 C   0  0  0  0  0  0  0  0  0  0  0  0
  -20.3561  -24.2188   25.4439 C   0  0  0  0  0  0  0  0  0  0  0  0
  -28.5803  -19.3396   20.5057 C   0  0  0  0  0  0  0  0  0  0  0  0
  -28.9530  -17.6824   18.6718 C   0  0  0  0  0  0  0  0  0  0  0  0
  -26.8015  -27.7018   21.5894 C   0  0  0  0  0  0  0  0  0  0  0  0
  -26.4497  -30.7439   22.6590 C   0  0  0  0  0  0  0  0  0  0  0  0
  -24.3476  -33.3216   23.4228 C   0  0  0  0  0  0  0  0  0  0  0  0
  -25.3765  -22.3747   24.5524 C   0  0  0  0  0  0  0  0  0  0  0  0
  -30.5737  -24.8008   19.7422 C   0  0  0  0  0  0  0  0  0  0  0  0
  -25.3629  -28.7082   19.7801 C   0  0  0  0  0  0  0  0  0  0  0  0
  -24.3475  -29.3606   22.4797 C   0  0  0  0  0  0  0  0  0  0  0  0
  -30.4815  -26.0203   20.6558 C   0  0  0  0  0  0  0  0  0  0  0  0
  -28.8304  -21.5331   24.7504 C   0  0  0  0  0  0  0  0  0  0  0  0
  -29.4334  -25.7961   21.7412 C   0  0  0  0  0  0  0  0  0  0  0  0
  -29.0000  -20.4344   23.6996 C   0  0  0  0  0  0  0  0  0  0  0  0
  -27.4811  -21.4333   25.4585 C   0  0  0  0  0  0  0  0  0  0  0  0
  -26.4809  -20.3035   23.5099 C   0  0  0  0  0  0  0  0  0  0  0  0
  -28.0414  -25.5939   21.1307 C   0  0  1  0  0  0  0  0  0  0  0  0
  -26.3052  -28.9684   20.9514 C   0  0  1  0  0  0  0  0  0  0  0  0
  -27.8035  -20.3965   22.7299 C   0  0  2  0  0  0  0  0  0  0  0  0
  -21.1134  -22.1753   28.6307 C   0  0  0  0  0  0  0  0  0  0  0  0
  -24.3502  -35.6685   24.3114 C   0  0  0  0  0  0  0  0  0  0  0  0
  -17.4032  -26.2031   21.8348 C   0  0  0  0  0  0  0  0  0  0  0  0
  -18.0692  -23.9586   21.0005 C   0  0  0  0  0  0  0  0  0  0  0  0
  -26.9127  -29.6733   25.4785 C   0  0  0  0  0  0  0  0  0  0  0  0
  -25.9784  -31.8177   26.3711 C   0  0  0  0  0  0  0  0  0  0  0  0
  -28.0532  -31.8439   24.9865 C   0  0  0  0  0  0  0  0  0  0  0  0
  -23.1598  -34.3899   20.9314 C   0  0  0  0  0  0  0  0  0  0  0  0
  -22.0802  -22.7401   24.3607 C   0  0  0  0  0  0  0  0  0  0  0  0
  -20.9246  -23.9028   26.7887 C   0  0  0  0  0  0  0  0  0  0  0  0
  -20.5066  -22.5085   27.2770 C   0  0  0  0  0  0  0  0  0  0  0  0
  -23.2775  -23.2083   23.5237 C   0  0  0  0  0  0  0  0  0  0  0  0
  -19.6471  -25.9020   20.7544 C   0  0  0  0  0  0  0  0  0  1  0  0
  -25.8285  -31.3838   23.8770 C   0  0  1  0  0  0  0  0  0  0  0  0
  -24.3913  -34.7965   23.0661 C   0  0  2  0  0  0  0  0  0  0  0  0
  -18.6029  -25.2366   21.6877 C   0  0  0  0  0  0  0  0  0  0  0  0
  -26.6779  -31.1635   25.1605 C   0  0  0  0  0  0  0  0  0  0  0  0
  -19.2968  -25.0587   25.4378 N   0  0  0  0  0  0  0  0  0  0  0  0
  -27.3979  -18.0826   21.9787 N   0  0  0  0  0  0  0  0  0  0  0  0
  -27.9441  -19.2809   21.7107 N   0  0  0  0  0  0  0  0  0  0  0  0
  -25.6832  -29.7650   22.0110 N   0  0  0  0  0  0  0  0  0  0  0  0
  -26.3887  -21.4033   24.4830 N   0  0  0  0  0  0  0  0  0  0  0  0
  -29.1837  -20.4694   20.0793 N   0  0  0  0  0  0  0  0  0  0  0  0
  -28.7194  -16.3663   18.2503 N   0  0  0  0  0  0  0  0  0  0  0  0
  -27.4786  -26.8638   20.7241 N   0  0  0  0  0  0  0  0  0  0  0  0
  -25.6131  -32.7860   23.5364 N   0  0  0  0  0  0  0  0  0  0  0  0
  -24.3825  -22.2779   23.5863 N   0  0  0  0  0  0  0  0  0  0  0  0
  -23.2307  -35.1552   22.2027 N   0  3  0  0  0  0  0  0  0  0  0  0
  -29.6126  -18.4549   17.9358 O   0  0  0  0  0  0  0  0  0  0  0  0
  -26.5873  -27.5004   22.7791 O   0  0  0  0  0  0  0  0  0  0  0  0
  -27.5707  -31.1046   22.2917 O   0  0  0  0  0  0  0  0  0  0  0  0
  -23.2961  -32.7071   23.5880 O   0  0  0  0  0  0  0  0  0  0  0  0
  -25.3628  -23.2658   25.4084 O   0  0  0  0  0  0  0  0  0  0  0  0
  -26.0707  -12.0262   20.5270 O   0  0  0  0  0  0  0  0  0  0  0  0
  -20.1624  -27.0952   21.3434 O   0  0  0  0  0  0  0  0  0  1  0  0
  -29.7650   -8.3305   18.7669 F   0  0  0  0  0  0  0  0  0  0  0  0
  -27.2250  -12.2553   18.0254 F   0  0  0  0  0  0  0  0  0  0  0  0
  1  2  1  0  0  0  0
  1  5  2  0  0  0  0
  2  6  2  0  0  0  0
  3  8  2  0  0  0  0
  3 17  1  0  0  0  0
  4  9  1  0  0  0  0
  4 17  2  0  0  0  0
  5 19  1  0  0  0  0
  6 21  1  0  0  0  0
  7 10  2  0  0  0  0
  7 20  1  0  0  0  0
  8 25  1  0  0  0  0
  9 25  2  0  0  0  0
 10 26  1  0  0  0  0
 11 12  2  0  0  0  0
 11 27  1  0  0  0  0
 12 28  1  0  0  0  0
 13 22  1  0  0  0  0
 13 26  2  0  0  0  0
 14 23  2  0  0  0  0
 14 24  1  0  0  0  0
 15 28  2  0  0  0  0
 15 29  1  0  0  0  0
 16 23  1  0  0  0  0
 16 67  2  0  0  0  0
 17 30  1  0  0  0  0
 18 30  1  0  0  0  0
 18 32  2  0  0  0  0
 18 33  1  0  0  0  0
 19 21  2  0  0  0  0
 19 38  1  0  0  0  0
 20 22  2  0  0  0  0
 20 39  1  0  0  0  0
 21 47  1  0  0  0  0
 22 40  1  0  0  0  0
 23 65  1  0  0  0  0
 24 31  2  0  0  0  0
 24 58  1  0  0  0  0
 25 83  1  0  0  0  0
 26 84  1  0  0  0  0
 27 29  2  0  0  0  0
 27 83  1  0  0  0  0
 28 85  1  0  0  0  0
 29 86  1  0  0  0  0
 30 68  2  0  0  0  0
 31 59  1  0  0  0  0
 31 67  1  0  0  0  0
 32 69  1  0  0  0  0
 32 72  1  0  0  0  0
 33 73  1  0  0  0  0
 33 78  2  0  0  0  0
 34 48  1  0  0  0  0
 34 74  1  0  0  0  0
 34 79  2  0  0  0  0
 35 63  1  0  0  0  0
 35 70  1  0  0  0  0
 35 80  2  0  0  0  0
 36 64  1  0  0  0  0
 36 75  1  0  0  0  0
 36 81  2  0  0  0  0
 37 71  1  0  0  0  0
 37 76  1  0  0  0  0
 37 82  2  0  0  0  0
 38 41  1  0  0  0  0
 39 48  1  0  0  0  0
 40 70  1  0  0  0  0
 41 43  1  0  0  0  0
 42 44  1  0  0  0  0
 42 45  1  0  0  0  0
 43 47  1  0  0  0  0
 44 49  1  0  0  0  0
 45 71  1  0  0  0  0
 46 49  1  0  0  0  0
 46 71  1  0  0  0  0
 47 74  1  0  0  0  0
 48 70  1  0  0  0  0
 49 69  1  0  0  0  0
 50 60  1  0  0  0  0
 51 64  1  0  0  0  0
 52 65  1  0  0  0  0
 53 65  1  0  0  0  0
 54 66  1  0  0  0  0
 55 66  1  0  0  0  0
 56 66  1  0  0  0  0
 57 77  1  0  0  0  0
 58 61  1  0  0  0  0
 59 60  1  0  0  0  0
 61 76  1  0  0  0  0
 62 65  1  0  0  0  0
 62 84  1  0  0  0  0
 63 66  1  0  0  0  0
 63 75  1  0  0  0  0
 64 77  1  0  0  0  0
 68 69  1  0  0  0  0
M  CHG  1  77   1
M  ISO  4  37 100  62 101  76 100  84 101
M  END
> <Batch ID>
0097

> <Smiles>
CCCc1ncc(C(C)(C)[101CH2:1][101O:1]c2ccc3c(c2)CN(C(=O)C(NC(=O)C(C)NC)C(C)(C)C)C(C(=O)NC2CCCc4ccccc42)C3)cc1CC[100NH:0][100C:0](=O)N1CCCC(n2nc(-c3ccc(Oc4ccc(F)cc4F)cc3)c(C(N)=O)c2N)C1

> <Shape>
0.257

> <Color>
0.071

> <Negative vol penalty>
0.000

$$$$

  -OEChem-04052319263D

 86 94  0     1  0  0  0  0  0999 V2000
  -30.6371  -25.8750   29.2160 C   0  0  0  0  0  0  0  0  0  0  0  0
  -29.8467  -25.0294   28.4443 C   0  0  0  0  0  0  0  0  0  0  0  0
  -23.1910   -9.8194   19.9317 C   0  0  0  0  0  0  0  0  0  0  0  0
  -23.5683  -10.0001   22.3112 C   0  0  0  0  0  0  0  0  0  0  0  0
  -31.2013  -25.4095   30.4030 C   0  0  0  0  0  0  0  0  0  0  0  0
  -29.6208  -23.7172   28.8587 C   0  0  0  0  0  0  0  0  0  0  0  0
  -24.5083  -20.4377   28.0759 C   0  0  0  0  0  0  0  0  0  0  0  0
  -22.4248   -8.6727   20.1402 C   0  0  0  0  0  0  0  0  0  0  0  0
  -22.8020   -8.8534   22.5198 C   0  0  0  0  0  0  0  0  0  0  0  0
  -24.1474  -19.4731   27.1362 C   0  0  0  0  0  0  0  0  0  0  0  0
  -23.2036   -5.5067   22.2562 C   0  0  0  0  0  0  0  0  0  0  0  0
  -23.7018   -4.5455   23.1357 C   0  0  0  0  0  0  0  0  0  0  0  0
  -24.8090  -17.7363   28.6741 C   0  0  0  0  0  0  0  0  0  0  0  0
  -21.7446   -4.8054   24.5282 C   0  0  0  0  0  0  0  0  0  0  0  0
  -29.2542  -15.6249   24.0581 C   0  0  0  0  0  0  0  0  0  0  0  0
  -23.7629  -10.4831   21.0172 C   0  0  0  0  0  0  0  0  0  0  0  0
  -24.1014  -12.9998   20.7734 C   0  0  0  0  0  0  0  0  0  0  0  0
  -30.9743  -24.0939   30.8370 C   0  0  0  0  0  0  0  0  0  0  0  0
  -25.0334  -20.0585   29.3196 C   0  0  0  0  0  0  0  0  0  0  0  0
  -30.1836  -23.2332   30.0519 C   0  0  0  0  0  0  0  0  0  0  0  0
  -25.1734  -18.6980   29.6287 C   0  0  0  0  0  0  0  0  0  0  0  0
  -22.2303   -8.1897   21.4343 C   0  0  0  0  0  0  0  0  0  0  0  0
  -24.3004  -18.1222   27.4342 C   0  0  0  0  0  0  0  0  0  0  0  0
  -21.9760   -6.1173   22.5127 C   0  0  0  0  0  0  0  0  0  0  0  0
  -22.9722   -4.1948   24.2717 C   0  0  0  0  0  0  0  0  0  0  0  0
  -21.2465   -5.7666   23.6487 C   0  0  0  0  0  0  0  0  0  0  0  0
  -24.5550  -11.6674   20.8024 C   0  0  0  0  0  0  0  0  0  0  0  0
  -30.2704  -15.0533   24.7706 C   0  0  0  0  0  0  0  0  0  0  0  0
  -25.2326  -13.7425   20.5385 C   0  0  0  0  0  0  0  0  0  0  0  0
  -28.6675  -15.6096   26.1925 C   0  0  0  0  0  0  0  0  0  0  0  0
  -22.7760  -13.5196   20.9436 C   0  0  0  0  0  0  0  0  0  0  0  0
  -27.7945  -20.5224   30.8245 C   0  0  0  0  0  0  0  0  0  0  0  0
  -26.2547  -19.0643   33.2791 C   0  0  0  0  0  0  0  0  0  0  0  0
  -23.7670  -16.9622   34.2985 C   0  0  0  0  0  0  0  0  0  0  0  0
  -31.0470  -12.7534   21.5702 C   0  0  0  0  0  0  0  0  0  0  0  0
  -31.6440  -23.6214   32.1031 C   0  0  0  0  0  0  0  0  0  0  0  0
  -25.3929  -21.1108   30.3325 C   0  0  0  0  0  0  0  0  0  0  0  0
  -25.7134  -18.2382   30.9575 C   0  0  0  0  0  0  0  0  0  0  0  0
  -31.0492  -22.3315   32.6619 C   0  0  0  0  0  0  0  0  0  0  0  0
  -29.5209  -13.4703   18.4344 C   0  0  0  0  0  0  0  0  0  0  0  0
  -30.8680  -21.3020   31.5510 C   0  0  0  0  0  0  0  0  0  0  0  0
  -28.0342  -13.2097   18.6830 C   0  0  0  0  0  0  0  0  0  0  0  0
  -30.4020  -12.4811   19.1940 C   0  0  0  0  0  0  0  0  0  0  0  0
  -28.6478  -12.1382   20.8908 C   0  0  0  0  0  0  0  0  0  0  0  0
  -29.8951  -21.8109   30.4805 C   0  0  1  0  0  0  0  0  0  0  0  0
  -26.3983  -20.6220   31.3706 C   0  0  1  0  0  0  0  0  0  0  0  0
  -27.7205  -13.1459   20.1900 C   0  0  2  0  0  0  0  0  0  0  0  0
  -28.6311  -16.7218   28.4542 C   0  0  0  0  0  0  0  0  0  0  0  0
  -27.5726  -14.4545   28.1472 C   0  0  0  0  0  0  0  0  0  0  0  0
  -22.7797  -15.9342   36.3639 C   0  0  0  0  0  0  0  0  0  0  0  0
  -23.2980  -15.2492   24.4229 C   0  0  0  0  0  0  0  0  0  0  0  0
  -28.5972  -17.1145   33.4255 C   0  0  0  0  0  0  0  0  0  0  0  0
  -27.1578  -15.5972   34.8018 C   0  0  0  0  0  0  0  0  0  0  0  0
  -27.7313  -17.8736   35.6456 C   0  0  0  0  0  0  0  0  0  0  0  0
  -21.1426  -18.2447   33.8227 C   0  0  0  0  0  0  0  0  0  0  0  0
  -31.5620  -14.5070   24.3466 C   0  0  0  0  0  0  0  0  0  0  0  0
  -25.7611  -15.6638   24.6422 C   0  0  0  0  0  0  0  0  0  0  0  0
  -26.9634  -16.6177   24.6175 C   0  0  0  0  0  0  0  0  0  0  0  0
  -31.5362  -13.0048   23.9902 C   0  0  0  0  0  0  0  0  0  0  0  0
  -24.0664  -17.5345   25.1416 C   0  0  0  0  0  0  0  0  0  1  0  0
  -27.9098  -15.7922   27.4556 C   0  0  0  0  0  0  0  0  0  0  0  0
  -26.0880  -17.6361   33.7389 C   0  0  1  0  0  0  0  0  0  0  0  0
  -22.7167  -17.0973   35.3862 C   0  0  2  0  0  0  0  0  0  0  0  0
  -24.4020  -16.3055   24.2860 C   0  0  2  0  0  0  0  0  0  0  0  0
  -27.3852  -17.0637   34.3771 C   0  0  0  0  0  0  0  0  0  0  0  0
  -25.8716  -11.5665   20.6018 N   0  0  0  0  0  0  0  0  0  0  0  0
  -28.2756  -15.9590   24.9629 N   0  0  0  0  0  0  0  0  0  0  0  0
  -26.2551  -12.8448   20.4444 N   0  0  0  0  0  0  0  0  0  0  0  0
  -29.8804  -15.0572   26.0882 N   0  3  0  0  0  0  0  0  0  0  0  0
  -26.0567  -19.3051   31.9121 N   0  0  0  0  0  0  0  0  0  0  0  0
  -30.0548  -12.4700   20.6171 N   0  0  0  0  0  0  0  0  0  0  0  0
  -25.4424  -15.0694   20.4052 N   0  0  0  0  0  0  0  0  0  0  0  0
  -21.7294  -12.6172   21.1773 N   0  0  0  0  0  0  0  0  0  0  0  0
  -28.5284  -21.6876   30.9401 N   0  0  0  0  0  0  0  0  0  0  0  0
  -24.9304  -17.6256   34.6267 N   0  0  0  0  0  0  0  0  0  0  0  0
  -30.6323  -12.7281   22.8961 N   0  0  0  0  0  0  0  0  0  0  0  0
  -21.3526  -17.1345   34.7872 N   0  3  0  0  0  0  0  0  0  0  0  0
  -22.5247  -14.7465   20.8737 O   0  0  0  0  0  0  0  0  0  0  0  0
  -28.1782  -19.4662   30.3357 O   0  0  0  0  0  0  0  0  0  0  0  0
  -26.5429  -19.9353   34.1036 O   0  0  0  0  0  0  0  0  0  0  0  0
  -23.5760  -16.3282   33.2631 O   0  0  0  0  0  0  0  0  0  0  0  0
  -32.2147  -13.0151   21.2620 O   0  0  0  0  0  0  0  0  0  0  0  0
  -21.4825   -7.0709   21.6381 O   0  0  0  0  0  0  0  0  0  0  0  0
  -23.9495  -17.1785   26.5186 O   0  0  0  0  0  0  0  0  0  1  0  0
  -23.4500   -3.2706   25.1153 F   0  0  0  0  0  0  0  0  0  0  0  0
  -20.0659   -6.3490   23.8998 F   0  0  0  0  0  0  0  0  0  0  0  0
  1  2  1  0  0  0  0
  1  5  2  0  0  0  0
  2  6  2  0  0  0  0
  3  8  2  0  0  0  0
  3 16  1  0  0  0  0
  4  9  1  0  0  0  0
  4 16  2  0  0  0  0
  5 18  1  0  0  0  0
  6 20  1  0  0  0  0
  7 10  2  0  0  0  0
  7 19  1  0  0  0  0
  8 22  1  0  0  0  0
  9 22  2  0  0  0  0
 10 23  1  0  0  0  0
 11 12  2  0  0  0  0
 11 24  1  0  0  0  0
 12 25  1  0  0  0  0
 13 21  1  0  0  0  0
 13 23  2  0  0  0  0
 14 25  2  0  0  0  0
 14 26  1  0  0  0  0
 15 28  2  0  0  0  0
 15 67  1  0  0  0  0
 16 27  1  0  0  0  0
 17 27  1  0  0  0  0
 17 29  2  0  0  0  0
 17 31  1  0  0  0  0
 18 20  2  0  0  0  0
 18 36  1  0  0  0  0
 19 21  2  0  0  0  0
 19 37  1  0  0  0  0
 20 45  1  0  0  0  0
 21 38  1  0  0  0  0
 22 83  1  0  0  0  0
 23 84  1  0  0  0  0
 24 26  2  0  0  0  0
 24 83  1  0  0  0  0
 25 85  1  0  0  0  0
 26 86  1  0  0  0  0
 27 66  2  0  0  0  0
 28 56  1  0  0  0  0
 28 69  1  0  0  0  0
 29 68  1  0  0  0  0
 29 72  1  0  0  0  0
 30 61  1  0  0  0  0
 30 67  1  0  0  0  0
 30 69  2  0  0  0  0
 31 73  1  0  0  0  0
 31 78  2  0  0  0  0
 32 46  1  0  0  0  0
 32 74  1  0  0  0  0
 32 79  2  0  0  0  0
 33 62  1  0  0  0  0
 33 70  1  0  0  0  0
 33 80  2  0  0  0  0
 34 63  1  0  0  0  0
 34 75  1  0  0  0  0
 34 81  2  0  0  0  0
 35 71  1  0  0  0  0
 35 76  1  0  0  0  0
 35 82  2  0  0  0  0
 36 39  1  0  0  0  0
 37 46  1  0  0  0  0
 38 70  1  0  0  0  0
 39 41  1  0  0  0  0
 40 42  1  0  0  0  0
 40 43  1  0  0  0  0
 41 45  1  0  0  0  0
 42 47  1  0  0  0  0
 43 71  1  0  0  0  0
 44 47  1  0  0  0  0
 44 71  1  0  0  0  0
 45 74  1  0  0  0  0
 46 70  1  0  0  0  0
 47 68  1  0  0  0  0
 48 61  1  0  0  0  0
 49 61  1  0  0  0  0
 50 63  1  0  0  0  0
 51 64  1  0  0  0  0
 52 65  1  0  0  0  0
 53 65  1  0  0  0  0
 54 65  1  0  0  0  0
 55 77  1  0  0  0  0
 56 59  1  0  0  0  0
 57 58  1  0  0  0  0
 57 64  1  0  0  0  0
 58 67  1  0  0  0  0
 59 76  1  0  0  0  0
 60 64  1  0  0  0  0
 60 84  1  0  0  0  0
 62 65  1  0  0  0  0
 62 75  1  0  0  0  0
 63 77  1  0  0  0  0
 66 68  1  0  0  0  0
M  CHG  2  69   1  77   1
M  ISO  4  35 100  60 101  76 100  84 101
M  END
> <Batch ID>
0097

> <Smiles>
CNC(C)C(=O)NC(C(=O)N1Cc2cc([101O:1][101CH2:1]C(C)CCn3cc(CC[100NH:0][100C:0](=O)N4CCCC(n5nc(-c6ccc(Oc7ccc(F)cc7F)cc6)c(C(N)=O)c5N)C4)nc3C(C)C)ccc2CC1C(=O)NC1CCCc2ccccc21)C(C)(C)C

> <Shape>
0.140

> <Color>
0.175

> <Negative vol penalty>
0.000

$$$$

  -OEChem-04052319263D

 87 95  0     1  0  0  0  0  0999 V2000
  -32.4093  -14.2327   20.3928 C   0  0  0  0  0  0  0  0  0  0  0  0
  -31.6477  -15.3951   20.3273 C   0  0  0  0  0  0  0  0  0  0  0  0
  -28.5030  -27.5281   21.1836 C   0  0  0  0  0  0  0  0  0  0  0  0
  -27.4367  -26.9073   19.1064 C   0  0  0  0  0  0  0  0  0  0  0  0
  -31.7945  -12.9891   20.2533 C   0  0  0  0  0  0  0  0  0  0  0  0
  -30.2710  -15.3146   20.1211 C   0  0  0  0  0  0  0  0  0  0  0  0
  -25.9783  -19.0151   22.4415 C   0  0  0  0  0  0  0  0  0  0  0  0
  -29.5979  -26.7263   20.8611 C   0  0  0  0  0  0  0  0  0  0  0  0
  -28.5316  -26.1056   18.7839 C   0  0  0  0  0  0  0  0  0  0  0  0
  -25.2978  -20.1105   21.9114 C   0  0  0  0  0  0  0  0  0  0  0  0
  -30.8864  -23.6135   17.5781 C   0  0  0  0  0  0  0  0  0  0  0  0
  -30.6302  -22.3387   17.0732 C   0  0  0  0  0  0  0  0  0  0  0  0
  -21.1894  -22.3298   23.2495 C   0  0  0  0  0  0  0  0  0  0  0  0
  -23.4643  -18.6674   21.2991 C   0  0  0  0  0  0  0  0  0  0  0  0
  -29.4534  -21.7704   19.1052 C   0  0  0  0  0  0  0  0  0  0  0  0
  -20.0407  -21.8103   23.8243 C   0  0  0  0  0  0  0  0  0  0  0  0
  -27.4223  -27.6185   20.3063 C   0  0  0  0  0  0  0  0  0  0  0  0
  -26.1107  -29.8064   20.3248 C   0  0  0  0  0  0  0  0  0  0  0  0
  -30.4081  -12.8929   20.0550 C   0  0  0  0  0  0  0  0  0  0  0  0
  -25.4106  -17.7337   22.3945 C   0  0  0  0  0  0  0  0  0  0  0  0
  -29.6372  -14.0686   19.9775 C   0  0  0  0  0  0  0  0  0  0  0  0
  -24.1385  -17.5579   21.8315 C   0  0  0  0  0  0  0  0  0  0  0  0
  -21.1671  -22.6081   21.8874 C   0  0  0  0  0  0  0  0  0  0  0  0
  -20.0130  -22.3618   21.1521 C   0  0  0  0  0  0  0  0  0  0  0  0
  -29.6122  -26.0152   19.6613 C   0  0  0  0  0  0  0  0  0  0  0  0
  -24.0419  -19.9362   21.3375 C   0  0  0  0  0  0  0  0  0  0  0  0
  -30.4261  -23.9667   18.8466 C   0  0  0  0  0  0  0  0  0  0  0  0
  -29.9137  -21.4172   17.8367 C   0  0  0  0  0  0  0  0  0  0  0  0
  -29.7096  -23.0452   19.6101 C   0  0  0  0  0  0  0  0  0  0  0  0
  -26.2908  -28.4461   20.6391 C   0  0  0  0  0  0  0  0  0  0  0  0
  -18.9170  -21.8406   21.8207 C   0  0  0  0  0  0  0  0  0  0  0  0
  -24.8853  -30.1229   20.8584 C   0  0  0  0  0  0  0  0  0  0  0  0
  -26.9740  -30.7038   19.6140 C   0  0  0  0  0  0  0  0  0  0  0  0
  -26.2167  -14.9715   21.0438 C   0  0  0  0  0  0  0  0  0  0  0  0
  -23.6532  -13.8634   22.6940 C   0  0  0  0  0  0  0  0  0  0  0  0
  -20.6689  -14.5377   24.2060 C   0  0  0  0  0  0  0  0  0  0  0  0
  -20.0422  -26.8553   22.1692 C   0  0  0  0  0  0  0  0  0  0  0  0
  -29.7953  -11.5284   19.8624 C   0  0  0  0  0  0  0  0  0  0  0  0
  -26.1460  -16.5669   22.9947 C   0  0  0  0  0  0  0  0  0  0  0  0
  -23.4766  -16.2062   21.7745 C   0  0  0  0  0  0  0  0  0  0  0  0
  -28.2771  -11.5146   20.0210 C   0  0  0  0  0  0  0  0  0  0  0  0
  -21.9159  -28.8976   24.4041 C   0  0  0  0  0  0  0  0  0  0  0  0
  -27.6490  -12.6691   19.2468 C   0  0  0  0  0  0  0  0  0  0  0  0
  -23.2334  -29.1362   23.6643 C   0  0  0  0  0  0  0  0  0  0  0  0
  -21.3768  -27.4903   24.1572 C   0  0  0  0  0  0  0  0  0  0  0  0
  -22.5546  -27.3598   21.9962 C   0  0  0  0  0  0  0  0  0  0  0  0
  -28.1376  -14.0213   19.7798 C   0  0  1  0  0  0  0  0  0  0  0  0
  -25.6958  -15.2228   22.4306 C   0  0  1  0  0  0  0  0  0  0  0  0
  -23.1088  -28.7842   22.1697 C   0  0  2  0  0  0  0  0  0  0  0  0
  -17.6496  -21.5551   21.0834 C   0  0  0  0  0  0  0  0  0  0  0  0
  -21.4066  -24.6236   15.9215 C   0  0  0  0  0  0  0  0  0  0  0  0
  -18.7867  -13.4220   25.4349 C   0  0  0  0  0  0  0  0  0  0  0  0
  -22.5952  -12.7499   20.0576 C   0  0  0  0  0  0  0  0  0  0  0  0
  -20.3506  -12.5094   21.1403 C   0  0  0  0  0  0  0  0  0  0  0  0
  -22.3027  -11.2319   22.0235 C   0  0  0  0  0  0  0  0  0  0  0  0
  -21.1450  -16.1542   26.6389 C   0  0  0  0  0  0  0  0  0  0  0  0
  -22.4036  -23.1750   21.2332 C   0  0  0  0  0  0  0  0  0  0  0  0
  -19.9601  -22.6506   19.6895 C   0  0  0  0  0  0  0  0  0  0  0  0
  -21.3164  -24.3085   17.4059 C   0  0  0  0  0  0  0  0  0  0  0  0
  -18.8380  -26.2462   20.0864 C   0  0  0  0  0  0  0  0  0  0  0  0
  -19.8788  -24.3763   17.8961 C   0  0  0  0  0  0  0  0  0  0  0  0
  -18.6511  -24.7414   20.0315 C   0  0  0  0  0  0  0  0  0  0  0  0
  -23.6211  -22.2756   21.4172 C   0  0  0  0  0  0  0  0  0  1  0  0
  -22.1767  -13.7272   22.4105 C   0  0  1  0  0  0  0  0  0  0  0  0
  -20.1173  -14.1468   25.5652 C   0  0  2  0  0  0  0  0  0  0  0  0
  -21.8693  -12.5799   21.4072 C   0  0  0  0  0  0  0  0  0  0  0  0
  -18.9010  -21.5576   23.1425 N   0  0  0  0  0  0  0  0  0  0  0  0
  -25.2621  -27.9336   21.3198 N   0  0  0  0  0  0  0  0  0  0  0  0
  -24.4240  -28.9775   21.4376 N   0  0  0  0  0  0  0  0  0  0  0  0
  -24.2383  -15.0954   22.3689 N   0  0  0  0  0  0  0  0  0  0  0  0
  -21.2815  -27.2203   22.7205 N   0  0  0  0  0  0  0  0  0  0  0  0
  -24.1682  -31.2663   20.8840 N   0  0  0  0  0  0  0  0  0  0  0  0
  -28.1964  -30.2148   19.1335 N   0  0  0  0  0  0  0  0  0  0  0  0
  -27.4537  -14.3566   21.0103 N   0  0  0  0  0  0  0  0  0  0  0  0
  -21.5241  -13.5782   23.7067 N   0  0  0  0  0  0  0  0  0  0  0  0
  -20.0382  -26.6234   20.7992 N   0  0  0  0  0  0  0  0  0  0  0  0
  -19.9121  -15.3581   26.4088 N   0  3  0  0  0  0  0  0  0  0  0  0
  -19.8492  -24.1023   19.3778 N   0  3  1  0  0  0  0  0  0  0  0  0
  -26.6776  -31.9080   19.4253 O   0  0  0  0  0  0  0  0  0  0  0  0
  -25.5453  -15.3091   20.0759 O   0  0  0  0  0  0  0  0  0  0  0  0
  -24.2634  -12.9142   23.1924 O   0  0  0  0  0  0  0  0  0  0  0  0
  -20.3681  -15.5873   23.6418 O   0  0  0  0  0  0  0  0  0  0  0  0
  -19.0143  -26.7494   22.8468 O   0  0  0  0  0  0  0  0  0  0  0  0
  -30.6806  -25.2329   19.3461 O   0  0  0  0  0  0  0  0  0  0  0  0
  -23.3758  -21.0035   20.8188 O   0  0  0  0  0  0  0  0  0  1  0  0
  -29.6664  -20.1936   17.3511 F   0  0  0  0  0  0  0  0  0  0  0  0
  -29.2638  -23.3791   20.8290 F   0  0  0  0  0  0  0  0  0  0  0  0
  1  2  1  0  0  0  0
  1  5  2  0  0  0  0
  2  6  2  0  0  0  0
  3  8  2  0  0  0  0
  3 17  1  0  0  0  0
  4  9  1  0  0  0  0
  4 17  2  0  0  0  0
  5 19  1  0  0  0  0
  6 21  1  0  0  0  0
  7 10  2  0  0  0  0
  7 20  1  0  0  0  0
  8 25  1  0  0  0  0
  9 25  2  0  0  0  0
 10 26  1  0  0  0  0
 11 12  2  0  0  0  0
 11 27  1  0  0  0  0
 12 28  1  0  0  0  0
 13 16  1  0  0  0  0
 13 23  2  0  0  0  0
 14 22  1  0  0  0  0
 14 26  2  0  0  0  0
 15 28  2  0  0  0  0
 15 29  1  0  0  0  0
 16 67  2  0  0  0  0
 17 30  1  0  0  0  0
 18 30  1  0  0  0  0
 18 32  2  0  0  0  0
 18 33  1  0  0  0  0
 19 21  2  0  0  0  0
 19 38  1  0  0  0  0
 20 22  2  0  0  0  0
 20 39  1  0  0  0  0
 21 47  1  0  0  0  0
 22 40  1  0  0  0  0
 23 24  1  0  0  0  0
 23 57  1  0  0  0  0
 24 31  2  0  0  0  0
 24 58  1  0  0  0  0
 25 84  1  0  0  0  0
 26 85  1  0  0  0  0
 27 29  2  0  0  0  0
 27 84  1  0  0  0  0
 28 86  1  0  0  0  0
 29 87  1  0  0  0  0
 30 68  2  0  0  0  0
 31 50  1  0  0  0  0
 31 67  1  0  0  0  0
 32 69  1  0  0  0  0
 32 72  1  0  0  0  0
 33 73  1  0  0  0  0
 33 79  2  0  0  0  0
 34 48  1  0  0  0  0
 34 74  1  0  0  0  0
 34 80  2  0  0  0  0
 35 64  1  0  0  0  0
 35 70  1  0  0  0  0
 35 81  2  0  0  0  0
 36 65  1  0  0  0  0
 36 75  1  0  0  0  0
 36 82  2  0  0  0  0
 37 71  1  0  0  0  0
 37 76  1  0  0  0  0
 37 83  2  0  0  0  0
 38 41  1  0  0  0  0
 39 48  1  0  0  0  0
 40 70  1  0  0  0  0
 41 43  1  0  0  0  0
 42 44  1  0  0  0  0
 42 45  1  0  0  0  0
 43 47  1  0  0  0  0
 44 49  1  0  0  0  0
 45 71  1  0  0  0  0
 46 49  1  0  0  0  0
 46 71  1  0  0  0  0
 47 74  1  0  0  0  0
 48 70  1  0  0  0  0
 49 69  1  0  0  0  0
 51 59  1  0  0  0  0
 52 65  1  0  0  0  0
 53 66  1  0  0  0  0
 54 66  1  0  0  0  0
 55 66  1  0  0  0  0
 56 77  1  0  0  0  0
 57 63  1  0  0  0  0
 58 78  1  0  0  0  0
 59 61  1  0  0  0  0
 60 62  1  0  0  0  0
 60 76  1  0  0  0  0
 61 78  1  0  0  0  0
 62 78  1  0  0  0  0
 63 85  1  0  0  0  0
 64 66  1  0  0  0  0
 64 75  1  0  0  0  0
 65 77  1  0  0  0  0
 68 69  1  0  0  0  0
M  CHG  2  77   1  78   1
M  ISO  4  37 100  63 101  76 100  85 101
M  END
> <Batch ID>
0097

> <Smiles>
CCCN(CC[100NH:0][100C:0](=O)N1CCCC(n2nc(-c3ccc(Oc4ccc(F)cc4F)cc3)c(C(N)=O)c2N)C1)Cc1c(C[101CH2:1][101O:1]c2ccc3c(c2)CN(C(=O)C(NC(=O)C(C)NC)C(C)(C)C)C(C(=O)NC2CCCc4ccccc42)C3)ccnc1C

> <Shape>
0.239

> <Color>
0.058

> <Negative vol penalty>
0.000

$$$$

  -OEChem-04052319263D

 88 96  0     1  0  0  0  0  0999 V2000
  -32.5969  -14.3359   20.5258 C   0  0  0  0  0  0  0  0  0  0  0  0
  -31.7471  -15.4193   20.3270 C   0  0  0  0  0  0  0  0  0  0  0  0
  -28.8722  -26.6670   20.4929 C   0  0  0  0  0  0  0  0  0  0  0  0
  -26.9114  -25.2557   20.4643 C   0  0  0  0  0  0  0  0  0  0  0  0
  -32.1248  -13.0375   20.3387 C   0  0  0  0  0  0  0  0  0  0  0  0
  -30.4247  -15.2047   19.9399 C   0  0  0  0  0  0  0  0  0  0  0  0
  -25.5315  -18.5114   21.5613 C   0  0  0  0  0  0  0  0  0  0  0  0
  -29.6796  -25.5418   20.6588 C   0  0  0  0  0  0  0  0  0  0  0  0
  -27.7189  -24.1305   20.6302 C   0  0  0  0  0  0  0  0  0  0  0  0
  -24.8312  -19.5291   20.9151 C   0  0  0  0  0  0  0  0  0  0  0  0
  -29.2925  -20.8535   20.6846 C   0  0  0  0  0  0  0  0  0  0  0  0
  -29.0281  -19.7411   19.8857 C   0  0  0  0  0  0  0  0  0  0  0  0
  -23.2400  -17.9089   20.1012 C   0  0  0  0  0  0  0  0  0  0  0  0
  -29.4345  -21.0660   17.9066 C   0  0  0  0  0  0  0  0  0  0  0  0
  -27.4880  -26.5240   20.3957 C   0  0  0  0  0  0  0  0  0  0  0  0
  -26.2494  -28.2713   19.0099 C   0  0  0  0  0  0  0  0  0  0  0  0
  -30.7933  -12.8066   19.9585 C   0  0  0  0  0  0  0  0  0  0  0  0
  -25.0968  -17.1811   21.4731 C   0  0  0  0  0  0  0  0  0  0  0  0
  -29.9347  -13.9020   19.7463 C   0  0  0  0  0  0  0  0  0  0  0  0
  -23.9351  -16.8766   20.7493 C   0  0  0  0  0  0  0  0  0  0  0  0
  -29.1030  -24.2736   20.7275 C   0  0  0  0  0  0  0  0  0  0  0  0
  -23.6868  -19.2275   20.1825 C   0  0  0  0  0  0  0  0  0  0  0  0
  -29.6278  -22.0721   20.0945 C   0  0  0  0  0  0  0  0  0  0  0  0
  -29.0991  -19.8473   18.4967 C   0  0  0  0  0  0  0  0  0  0  0  0
  -29.6988  -22.1784   18.7056 C   0  0  0  0  0  0  0  0  0  0  0  0
  -26.6533  -27.6859   20.2248 C   0  0  0  0  0  0  0  0  0  0  0  0
  -25.4733  -29.3405   19.3853 C   0  0  0  0  0  0  0  0  0  0  0  0
  -26.5489  -27.8832   17.6626 C   0  0  0  0  0  0  0  0  0  0  0  0
  -26.3318  -14.4894   20.3184 C   0  0  0  0  0  0  0  0  0  0  0  0
  -23.6811  -13.1654   21.6386 C   0  0  0  0  0  0  0  0  0  0  0  0
  -20.4690  -13.5732   22.7170 C   0  0  0  0  0  0  0  0  0  0  0  0
  -22.5197  -30.2291   24.6791 C   0  0  0  0  0  0  0  0  0  0  0  0
  -30.3416  -11.3871   19.7224 C   0  0  0  0  0  0  0  0  0  0  0  0
  -25.8483  -16.0985   22.1981 C   0  0  0  0  0  0  0  0  0  0  0  0
  -23.4152  -15.4672   20.6405 C   0  0  0  0  0  0  0  0  0  0  0  0
  -28.8238  -11.2307   19.6759 C   0  0  0  0  0  0  0  0  0  0  0  0
  -24.8757  -32.4870   22.9318 C   0  0  0  0  0  0  0  0  0  0  0  0
  -28.2029  -12.3088   18.7932 C   0  0  0  0  0  0  0  0  0  0  0  0
  -25.6101  -31.5363   21.9880 C   0  0  0  0  0  0  0  0  0  0  0  0
  -22.5409  -24.6010   19.5619 C   0  0  0  0  0  0  0  0  0  0  0  0
  -20.2836  -24.1512   20.5592 C   0  0  0  0  0  0  0  0  0  0  0  0
  -24.3819  -31.7720   24.1859 C   0  0  0  0  0  0  0  0  0  0  0  0
  -24.2751  -29.6260   22.9622 C   0  0  0  0  0  0  0  0  0  0  0  0
  -22.4986  -26.0156   20.1162 C   0  0  0  0  0  0  0  0  0  0  0  0
  -28.4869  -13.7090   19.3502 C   0  0  1  0  0  0  0  0  0  0  0  0
  -25.6057  -14.7097   21.6153 C   0  0  1  0  0  0  0  0  0  0  0  0
  -21.7204  -23.6394   20.4225 C   0  0  1  0  0  0  0  0  0  0  0  0
  -24.7451  -30.3051   21.6670 C   0  0  2  0  0  0  0  0  0  0  0  0
  -20.2243  -25.5817   21.1126 C   0  0  2  0  0  0  0  0  0  0  0  0
  -15.8252  -25.3270   23.5583 C   0  0  0  0  0  0  0  0  0  0  0  0
  -19.2475  -30.2968   24.9266 C   0  0  0  0  0  0  0  0  0  0  0  0
  -18.5484  -12.3006   23.7115 C   0  0  0  0  0  0  0  0  0  0  0  0
  -23.1002  -11.9184   18.9151 C   0  0  0  0  0  0  0  0  0  0  0  0
  -20.7609  -11.4802   19.6924 C   0  0  0  0  0  0  0  0  0  0  0  0
  -22.6843  -10.4076   20.8642 C   0  0  0  0  0  0  0  0  0  0  0  0
  -20.4571  -15.2624   25.1471 C   0  0  0  0  0  0  0  0  0  0  0  0
  -21.7412  -22.2395   19.8356 C   0  0  0  0  0  0  0  0  0  0  0  0
  -18.7738  -26.0586   21.1571 C   0  0  0  0  0  0  0  0  0  0  0  0
  -16.5775  -25.9295   22.3824 C   0  0  0  0  0  0  0  0  0  0  0  0
  -18.0368  -25.4757   22.3594 C   0  0  0  0  0  0  0  0  0  0  0  0
  -21.2114  -28.0362   22.1382 C   0  0  0  0  0  0  0  0  0  0  0  0
  -20.2898  -29.1977   24.8868 C   0  0  0  0  0  0  0  0  0  0  0  0
  -21.2410  -29.4799   22.6282 C   0  0  0  0  0  0  0  0  0  0  0  0
  -21.0324  -27.9427   20.6283 C   0  0  0  0  0  0  0  0  0  0  0  0
  -23.0442  -21.5169   20.1416 C   0  0  0  0  0  0  0  0  0  1  0  0
  -22.2761  -12.8848   21.1630 C   0  0  1  0  0  0  0  0  0  0  0  0
  -19.7759  -13.1509   23.9998 C   0  0  2  0  0  0  0  0  0  0  0  0
  -22.2160  -11.6991   20.1589 C   0  0  0  0  0  0  0  0  0  0  0  0
  -26.1736  -28.3300   21.2921 N   0  0  0  0  0  0  0  0  0  0  0  0
  -25.4603  -29.3312   20.7491 N   0  0  0  0  0  0  0  0  0  0  0  0
  -24.1884  -14.4428   21.3618 N   0  0  0  0  0  0  0  0  0  0  0  0
  -23.5990  -30.5817   23.8522 N   0  0  0  0  0  0  0  0  0  0  0  0
  -24.8076  -30.2785   18.6785 N   0  0  0  0  0  0  0  0  0  0  0  0
  -27.3613  -26.7600   17.4557 N   0  0  0  0  0  0  0  0  0  0  0  0
  -27.6135  -13.9950   20.4682 N   0  0  0  0  0  0  0  0  0  0  0  0
  -21.4695  -12.6927   22.3633 N   0  0  0  0  0  0  0  0  0  0  0  0
  -21.4374  -29.5732   24.0733 N   0  0  0  0  0  0  0  0  0  0  0  0
  -21.0628  -26.4902   20.2176 N   0  3  1  0  0  0  0  0  0  0  0  0
  -19.3462  -14.3490   24.7750 N   0  3  0  0  0  0  0  0  0  0  0  0
  -26.1227  -28.5234   16.6717 O   0  0  0  0  0  0  0  0  0  0  0  0
  -25.7704  -14.7475   19.2602 O   0  0  0  0  0  0  0  0  0  0  0  0
  -24.3029  -12.2860   22.2400 O   0  0  0  0  0  0  0  0  0  0  0  0
  -20.1520  -14.5811   22.0892 O   0  0  0  0  0  0  0  0  0  0  0  0
  -22.5192  -30.4946   25.8881 O   0  0  0  0  0  0  0  0  0  0  0  0
  -29.8907  -23.1754   20.8891 O   0  0  0  0  0  0  0  0  0  0  0  0
  -23.0017  -20.2189   19.5503 O   0  0  0  0  0  0  0  0  0  1  0  0
  -28.8468  -18.7786   17.7296 F   0  0  0  0  0  0  0  0  0  0  0  0
  -30.0215  -23.3462   18.1330 F   0  0  0  0  0  0  0  0  0  0  0  0
  1  2  1  0  0  0  0
  1  5  2  0  0  0  0
  2  6  2  0  0  0  0
  3  8  2  0  0  0  0
  3 15  1  0  0  0  0
  4  9  1  0  0  0  0
  4 15  2  0  0  0  0
  5 17  1  0  0  0  0
  6 19  1  0  0  0  0
  7 10  2  0  0  0  0
  7 18  1  0  0  0  0
  8 21  1  0  0  0  0
  9 21  2  0  0  0  0
 10 22  1  0  0  0  0
 11 12  2  0  0  0  0
 11 23  1  0  0  0  0
 12 24  1  0  0  0  0
 13 20  1  0  0  0  0
 13 22  2  0  0  0  0
 14 24  2  0  0  0  0
 14 25  1  0  0  0  0
 15 26  1  0  0  0  0
 16 26  1  0  0  0  0
 16 27  2  0  0  0  0
 16 28  1  0  0  0  0
 17 19  2  0  0  0  0
 17 33  1  0  0  0  0
 18 20  2  0  0  0  0
 18 34  1  0  0  0  0
 19 45  1  0  0  0  0
 20 35  1  0  0  0  0
 21 85  1  0  0  0  0
 22 86  1  0  0  0  0
 23 25  2  0  0  0  0
 23 85  1  0  0  0  0
 24 87  1  0  0  0  0
 25 88  1  0  0  0  0
 26 69  2  0  0  0  0
 27 70  1  0  0  0  0
 27 73  1  0  0  0  0
 28 74  1  0  0  0  0
 28 80  2  0  0  0  0
 29 46  1  0  0  0  0
 29 75  1  0  0  0  0
 29 81  2  0  0  0  0
 30 66  1  0  0  0  0
 30 71  1  0  0  0  0
 30 82  2  0  0  0  0
 31 67  1  0  0  0  0
 31 76  1  0  0  0  0
 31 83  2  0  0  0  0
 32 72  1  0  0  0  0
 32 77  1  0  0  0  0
 32 84  2  0  0  0  0
 33 36  1  0  0  0  0
 34 46  1  0  0  0  0
 35 71  1  0  0  0  0
 36 38  1  0  0  0  0
 37 39  1  0  0  0  0
 37 42  1  0  0  0  0
 38 45  1  0  0  0  0
 39 48  1  0  0  0  0
 40 44  1  0  0  0  0
 40 47  1  0  0  0  0
 41 47  1  0  0  0  0
 41 49  1  0  0  0  0
 42 72  1  0  0  0  0
 43 48  1  0  0  0  0
 43 72  1  0  0  0  0
 44 78  1  0  0  0  0
 45 75  1  0  0  0  0
 46 71  1  0  0  0  0
 47 57  1  0  0  0  0
 48 70  1  0  0  0  0
 49 58  1  0  0  0  0
 49 78  1  0  0  0  0
 50 59  1  0  0  0  0
 51 62  1  0  0  0  0
 52 67  1  0  0  0  0
 53 68  1  0  0  0  0
 54 68  1  0  0  0  0
 55 68  1  0  0  0  0
 56 79  1  0  0  0  0
 57 65  1  0  0  0  0
 58 60  1  0  0  0  0
 59 60  1  0  0  0  0
 61 63  1  0  0  0  0
 61 64  1  0  0  0  0
 62 77  1  0  0  0  0
 63 77  1  0  0  0  0
 64 78  1  0  0  0  0
 65 86  1  0  0  0  0
 66 68  1  0  0  0  0
 66 76  1  0  0  0  0
 67 79  1  0  0  0  0
 69 70  1  0  0  0  0
M  CHG  2  78   1  79   1
M  ISO  4  32 100  65 101  77 100  86 101
M  END
> <Batch ID>
0097

> <Smiles>
CCCCC1CC(C[101CH2:1][101O:1]c2ccc3c(c2)CN(C(=O)C(NC(=O)C(C)NC)C(C)(C)C)C(C(=O)NC2CCCc4ccccc42)C3)CCN1CCC[100N:0](CC)[100C:0](=O)N1CCCC(n2nc(-c3ccc(Oc4ccc(F)cc4F)cc3)c(C(N)=O)c2N)C1

> <Shape>
0.289

> <Color>
0.048

> <Negative vol penalty>
0.000

$$$$

  -OEChem-04052319263D

 92100  0     1  0  0  0  0  0999 V2000
  -27.6167  -32.6473   26.5385 C   0  0  0  0  0  0  0  0  0  0  0  0
  -27.9796  -31.5438   25.7730 C   0  0  0  0  0  0  0  0  0  0  0  0
  -22.3534  -10.4037   20.2013 C   0  0  0  0  0  0  0  0  0  0  0  0
  -24.3541   -9.6329   21.3148 C   0  0  0  0  0  0  0  0  0  0  0  0
  -26.2697  -32.9132   26.7813 C   0  0  0  0  0  0  0  0  0  0  0  0
  -26.9958  -30.7048   25.2509 C   0  0  0  0  0  0  0  0  0  0  0  0
  -27.1434  -27.7502   19.8885 C   0  0  0  0  0  0  0  0  0  0  0  0
  -21.7671   -9.1519   20.3880 C   0  0  0  0  0  0  0  0  0  0  0  0
  -23.7679   -8.3811   21.5016 C   0  0  0  0  0  0  0  0  0  0  0  0
  -27.4689  -26.4377   19.5495 C   0  0  0  0  0  0  0  0  0  0  0  0
  -21.5211   -6.9722   23.5963 C   0  0  0  0  0  0  0  0  0  0  0  0
  -21.6482   -6.3798   24.8526 C   0  0  0  0  0  0  0  0  0  0  0  0
  -25.1298  -25.8504   19.6018 C   0  0  0  0  0  0  0  0  0  0  0  0
  -30.9506  -16.0784   18.6797 C   0  0  0  0  0  0  0  0  0  0  0  0
  -22.7906   -4.5012   23.8512 C   0  0  0  0  0  0  0  0  0  0  0  0
  -23.6469  -10.6442   20.6646 C   0  0  0  0  0  0  0  0  0  0  0  0
  -24.1948  -13.0419   21.3418 C   0  0  0  0  0  0  0  0  0  0  0  0
  -25.2685  -32.0826   26.2538 C   0  0  0  0  0  0  0  0  0  0  0  0
  -25.8073  -28.1208   20.0978 C   0  0  0  0  0  0  0  0  0  0  0  0
  -25.6343  -30.9591   25.4880 C   0  0  0  0  0  0  0  0  0  0  0  0
  -24.7897  -27.1689   19.9409 C   0  0  0  0  0  0  0  0  0  0  0  0
  -31.9407  -16.9659   19.0862 C   0  0  0  0  0  0  0  0  0  0  0  0
  -32.8912  -16.5600   20.0164 C   0  0  0  0  0  0  0  0  0  0  0  0
  -22.4743   -8.1406   21.0382 C   0  0  0  0  0  0  0  0  0  0  0  0
  -26.4623  -25.4868   19.4089 C   0  0  0  0  0  0  0  0  0  0  0  0
  -22.0287   -6.3292   22.4673 C   0  0  0  0  0  0  0  0  0  0  0  0
  -22.2829   -5.1443   24.9801 C   0  0  0  0  0  0  0  0  0  0  0  0
  -22.6635   -5.0937   22.5948 C   0  0  0  0  0  0  0  0  0  0  0  0
  -24.2533  -11.9369   20.4715 C   0  0  0  0  0  0  0  0  0  0  0  0
  -30.9545  -14.8064   19.2289 C   0  0  0  0  0  0  0  0  0  0  0  0
  -32.8081  -15.2665   20.5059 C   0  0  0  0  0  0  0  0  0  0  0  0
  -24.9246  -14.0174   20.7077 C   0  0  0  0  0  0  0  0  0  0  0  0
  -23.5395  -13.1745   22.6102 C   0  0  0  0  0  0  0  0  0  0  0  0
  -24.1530  -29.2504   22.5658 C   0  0  0  0  0  0  0  0  0  0  0  0
  -21.7819  -29.4929   20.3655 C   0  0  0  0  0  0  0  0  0  0  0  0
  -20.4554  -28.4291   17.4065 C   0  0  0  0  0  0  0  0  0  0  0  0
  -29.2487  -13.3546   16.4180 C   0  0  0  0  0  0  0  0  0  0  0  0
  -23.8277  -32.3835   26.5827 C   0  0  0  0  0  0  0  0  0  0  0  0
  -25.4704  -29.5470   20.4369 C   0  0  0  0  0  0  0  0  0  0  0  0
  -23.3381  -27.5205   20.1348 C   0  0  0  0  0  0  0  0  0  0  0  0
  -22.8327  -31.6583   25.6805 C   0  0  0  0  0  0  0  0  0  0  0  0
  -26.2325  -15.4994   16.3570 C   0  0  0  0  0  0  0  0  0  0  0  0
  -23.2156  -30.1888   25.5362 C   0  0  0  0  0  0  0  0  0  0  0  0
  -25.3535  -14.8688   17.4358 C   0  0  0  0  0  0  0  0  0  0  0  0
  -27.1654  -14.4765   15.7160 C   0  0  0  0  0  0  0  0  0  0  0  0
  -27.1281  -13.1028   17.7717 C   0  0  0  0  0  0  0  0  0  0  0  0
  -24.5952  -30.0397   24.8837 C   0  0  1  0  0  0  0  0  0  0  0  0
  -24.1195  -29.6932   21.1304 C   0  0  1  0  0  0  0  0  0  0  0  0
  -26.2089  -14.1164   18.4699 C   0  0  2  0  0  0  0  0  0  0  0  0
  -33.9664  -17.4896   20.4692 C   0  0  0  0  0  0  0  0  0  0  0  0
  -32.2179  -18.3174   16.9914 C   0  0  0  0  0  0  0  0  0  0  0  0
  -34.6303  -13.5889   20.9743 C   0  0  0  0  0  0  0  0  0  0  0  0
  -33.1456  -14.3930   22.8463 C   0  0  0  0  0  0  0  0  0  0  0  0
  -18.4901  -28.7856   15.8874 C   0  0  0  0  0  0  0  0  0  0  0  0
  -20.0226  -27.8813   22.2674 C   0  0  0  0  0  0  0  0  0  0  0  0
  -18.4608  -27.4619   20.3560 C   0  0  0  0  0  0  0  0  0  0  0  0
  -18.8663  -29.7935   21.1446 C   0  0  0  0  0  0  0  0  0  0  0  0
  -31.5343  -12.8870   17.2162 C   0  0  0  0  0  0  0  0  0  0  0  0
  -22.1905  -29.3154   15.1787 C   0  0  0  0  0  0  0  0  0  0  0  0
  -28.3903  -19.8220   21.7672 C   0  0  0  0  0  0  0  0  0  0  0  0
  -29.9076  -13.8269   18.8150 C   0  0  0  0  0  0  0  0  0  0  0  0
  -27.9433  -22.2106   19.7243 C   0  0  0  0  0  0  0  0  0  0  0  0
  -30.6688  -19.1651   18.7962 C   0  0  0  0  0  0  0  0  0  0  0  0
  -29.2356  -21.5712   20.2094 C   0  0  0  0  0  0  0  0  0  0  0  0
  -30.3225  -19.3318   20.2744 C   0  0  0  0  0  0  0  0  0  0  0  0
  -28.0463  -23.7158   19.5111 C   0  0  0  0  0  0  0  0  0  1  0  0
  -31.9599  -18.3682   18.5032 C   0  0  1  0  0  0  0  0  0  0  0  0
  -33.8016  -14.7723   21.5062 C   0  0  0  0  0  0  0  0  0  0  0  0
  -20.6840  -28.5818   19.8720 C   0  0  1  0  0  0  0  0  0  0  0  0
  -19.9189  -29.1943   16.2102 C   0  0  2  0  0  0  0  0  0  0  0  0
  -19.5358  -28.4222   20.9082 C   0  0  0  0  0  0  0  0  0  0  0  0
  -24.9639  -12.1864   19.3684 N   0  0  0  0  0  0  0  0  0  0  0  0
  -31.8610  -14.3760   20.1348 N   0  0  0  0  0  0  0  0  0  0  0  0
  -25.3586  -13.4594   19.5413 N   0  0  0  0  0  0  0  0  0  0  0  0
  -23.0601  -28.9265   20.4716 N   0  0  0  0  0  0  0  0  0  0  0  0
  -27.9348  -13.7458   16.7236 N   0  0  0  0  0  0  0  0  0  0  0  0
  -25.2310  -15.2896   21.0395 N   0  0  0  0  0  0  0  0  0  0  0  0
  -22.8335  -12.0744   23.1157 N   0  0  0  0  0  0  0  0  0  0  0  0
  -24.5037  -30.2487   23.4545 N   0  0  0  0  0  0  0  0  0  0  0  0
  -20.2566  -29.1180   18.5843 N   0  0  0  0  0  0  0  0  0  0  0  0
  -30.1574  -13.2770   17.4843 N   0  0  0  0  0  0  0  0  0  0  0  0
  -20.7638  -28.9374   15.0097 N   0  3  0  0  0  0  0  0  0  0  0  0
  -29.0454  -20.1199   20.4399 N   0  3  1  0  0  0  0  0  0  0  0  0
  -23.5652  -14.2424   23.2678 O   0  0  0  0  0  0  0  0  0  0  0  0
  -23.8793  -28.0894   22.8465 O   0  0  0  0  0  0  0  0  0  0  0  0
  -21.5167  -30.6660   20.6396 O   0  0  0  0  0  0  0  0  0  0  0  0
  -20.9935  -27.3287   17.3066 O   0  0  0  0  0  0  0  0  0  0  0  0
  -29.5925  -13.0990   15.2568 O   0  0  0  0  0  0  0  0  0  0  0  0
  -21.9025   -6.9190   21.2208 O   0  0  0  0  0  0  0  0  0  0  0  0
  -26.7774  -24.2048   19.0786 O   0  0  0  0  0  0  0  0  0  1  0  0
  -22.4063   -4.5761   26.1868 F   0  0  0  0  0  0  0  0  0  0  0  0
  -23.1542   -4.4716   21.5140 F   0  0  0  0  0  0  0  0  0  0  0  0
  1  2  1  0  0  0  0
  1  5  2  0  0  0  0
  2  6  2  0  0  0  0
  3  8  2  0  0  0  0
  3 16  1  0  0  0  0
  4  9  1  0  0  0  0
  4 16  2  0  0  0  0
  5 18  1  0  0  0  0
  6 20  1  0  0  0  0
  7 10  2  0  0  0  0
  7 19  1  0  0  0  0
  8 24  1  0  0  0  0
  9 24  2  0  0  0  0
 10 25  1  0  0  0  0
 11 12  2  0  0  0  0
 11 26  1  0  0  0  0
 12 27  1  0  0  0  0
 13 21  1  0  0  0  0
 13 25  2  0  0  0  0
 14 22  1  0  0  0  0
 14 30  2  0  0  0  0
 15 27  2  0  0  0  0
 15 28  1  0  0  0  0
 16 29  1  0  0  0  0
 17 29  1  0  0  0  0
 17 32  2  0  0  0  0
 17 33  1  0  0  0  0
 18 20  2  0  0  0  0
 18 38  1  0  0  0  0
 19 21  2  0  0  0  0
 19 39  1  0  0  0  0
 20 47  1  0  0  0  0
 21 40  1  0  0  0  0
 22 23  2  0  0  0  0
 22 67  1  0  0  0  0
 23 31  1  0  0  0  0
 23 50  1  0  0  0  0
 24 89  1  0  0  0  0
 25 90  1  0  0  0  0
 26 28  2  0  0  0  0
 26 89  1  0  0  0  0
 27 91  1  0  0  0  0
 28 92  1  0  0  0  0
 29 72  2  0  0  0  0
 30 61  1  0  0  0  0
 30 73  1  0  0  0  0
 31 68  1  0  0  0  0
 31 73  2  0  0  0  0
 32 74  1  0  0  0  0
 32 77  1  0  0  0  0
 33 78  1  0  0  0  0
 33 84  2  0  0  0  0
 34 48  1  0  0  0  0
 34 79  1  0  0  0  0
 34 85  2  0  0  0  0
 35 69  1  0  0  0  0
 35 75  1  0  0  0  0
 35 86  2  0  0  0  0
 36 70  1  0  0  0  0
 36 80  1  0  0  0  0
 36 87  2  0  0  0  0
 37 76  1  0  0  0  0
 37 81  1  0  0  0  0
 37 88  2  0  0  0  0
 38 41  1  0  0  0  0
 39 48  1  0  0  0  0
 40 75  1  0  0  0  0
 41 43  1  0  0  0  0
 42 44  1  0  0  0  0
 42 45  1  0  0  0  0
 43 47  1  0  0  0  0
 44 49  1  0  0  0  0
 45 76  1  0  0  0  0
 46 49  1  0  0  0  0
 46 76  1  0  0  0  0
 47 79  1  0  0  0  0
 48 75  1  0  0  0  0
 49 74  1  0  0  0  0
 51 67  1  0  0  0  0
 52 68  1  0  0  0  0
 53 68  1  0  0  0  0
 54 70  1  0  0  0  0
 55 71  1  0  0  0  0
 56 71  1  0  0  0  0
 57 71  1  0  0  0  0
 58 81  1  0  0  0  0
 59 82  1  0  0  0  0
 60 83  1  0  0  0  0
 61 81  1  0  0  0  0
 62 64  1  0  0  0  0
 62 66  1  0  0  0  0
 63 65  1  0  0  0  0
 63 67  1  0  0  0  0
 64 83  1  0  0  0  0
 65 83  1  0  0  0  0
 66 90  1  0  0  0  0
 69 71  1  0  0  0  0
 69 80  1  0  0  0  0
 70 82  1  0  0  0  0
 72 74  1  0  0  0  0
M  CHG  2  82   1  83   1
M  ISO  4  37 100  66 101  81 100  90 101
M  END
> <Batch ID>
0097

> <Smiles>
CNC(C)C(=O)NC(C(=O)N1Cc2cc([101O:1][101CH2:1]CCN(C)CCC(C)c3cc(C[100N:0](C)[100C:0](=O)N4CCCC(n5nc(-c6ccc(Oc7ccc(F)cc7F)cc6)c(C(N)=O)c5N)C4)nc(C(C)C)c3C)ccc2CC1C(=O)NC1CCCc2ccccc21)C(C)(C)C

> <Shape>
0.298

> <Color>
0.113

> <Negative vol penalty>
0.000

$$$$

  -OEChem-04052319263D

 85 93  0     1  0  0  0  0  0999 V2000
  -18.3463  -24.9145   24.2788 C   0  0  0  0  0  0  0  0  0  0  0  0
  -19.6971  -24.6512   24.0752 C   0  0  0  0  0  0  0  0  0  0  0  0
  -24.7302  -14.0007   23.5256 C   0  0  0  0  0  0  0  0  0  0  0  0
  -23.5416  -13.9435   21.4230 C   0  0  0  0  0  0  0  0  0  0  0  0
  -17.8033  -26.1287   23.8607 C   0  0  0  0  0  0  0  0  0  0  0  0
  -20.5054  -25.6015   23.4524 C   0  0  0  0  0  0  0  0  0  0  0  0
  -26.4016  -26.7620   24.6331 C   0  0  0  0  0  0  0  0  0  0  0  0
  -26.0385  -25.1647   19.2788 C   0  0  0  0  0  0  0  0  0  0  0  0
  -27.2537  -25.7555   19.6246 C   0  0  0  0  0  0  0  0  0  0  0  0
  -24.2354  -12.7349   23.8398 C   0  0  0  0  0  0  0  0  0  0  0  0
  -23.0468  -12.6777   21.7371 C   0  0  0  0  0  0  0  0  0  0  0  0
  -27.5806  -26.3578   24.0083 C   0  0  0  0  0  0  0  0  0  0  0  0
  -24.1656   -9.4890   21.7035 C   0  0  0  0  0  0  0  0  0  0  0  0
  -24.2020   -8.5148   20.7060 C   0  0  0  0  0  0  0  0  0  0  0  0
  -27.6146  -28.4177   22.7533 C   0  0  0  0  0  0  0  0  0  0  0  0
  -27.2177  -23.2294   18.4413 C   0  0  0  0  0  0  0  0  0  0  0  0
  -21.7982   -8.3030   20.8251 C   0  0  0  0  0  0  0  0  0  0  0  0
  -24.3832  -14.6050   22.3172 C   0  0  0  0  0  0  0  0  0  0  0  0
  -26.0871  -16.2139   21.3094 C   0  0  0  0  0  0  0  0  0  0  0  0
  -18.6074  -27.0983   23.2411 C   0  0  0  0  0  0  0  0  0  0  0  0
  -25.8134  -27.9944   24.3142 C   0  0  0  0  0  0  0  0  0  0  0  0
  -19.9723  -26.8292   23.0244 C   0  0  0  0  0  0  0  0  0  0  0  0
  -26.4295  -28.8363   23.3773 C   0  0  0  0  0  0  0  0  0  0  0  0
  -26.0204  -23.9016   18.6872 C   0  0  0  0  0  0  0  0  0  0  0  0
  -28.4510  -25.0834   19.3788 C   0  0  0  0  0  0  0  0  0  0  0  0
  -23.3937  -12.0734   22.9455 C   0  0  0  0  0  0  0  0  0  0  0  0
  -28.1857  -27.1843   23.0661 C   0  0  0  0  0  0  0  0  0  0  0  0
  -22.9455   -9.8703   22.2619 C   0  0  0  0  0  0  0  0  0  0  0  0
  -28.4330  -23.8203   18.7871 C   0  0  0  0  0  0  0  0  0  0  0  0
  -23.0183   -7.9218   20.2667 C   0  0  0  0  0  0  0  0  0  0  0  0
  -21.7618   -9.2773   21.8226 C   0  0  0  0  0  0  0  0  0  0  0  0
  -24.8936  -15.9127   21.9924 C   0  0  0  0  0  0  0  0  0  0  0  0
  -26.1149  -17.5861   21.2554 C   0  0  0  0  0  0  0  0  0  0  0  0
  -27.0816  -15.3322   20.7716 C   0  0  0  0  0  0  0  0  0  0  0  0
  -23.0347  -28.8965   23.0617 C   0  0  0  0  0  0  0  0  0  0  0  0
  -24.1306  -31.8694   23.7568 C   0  0  0  0  0  0  0  0  0  0  0  0
  -26.8046  -33.9103   24.3324 C   0  0  0  0  0  0  0  0  0  0  0  0
  -23.5720  -22.4742   20.3693 C   0  0  0  0  0  0  0  0  0  0  0  0
  -17.9653  -28.3768   22.7638 C   0  0  0  0  0  0  0  0  0  0  0  0
  -24.5560  -28.4277   25.0167 C   0  0  0  0  0  0  0  0  0  0  0  0
  -25.8493  -30.1780   23.0146 C   0  0  0  0  0  0  0  0  0  0  0  0
  -18.9698  -29.4823   22.4492 C   0  0  0  0  0  0  0  0  0  0  0  0
  -23.2564  -21.0321   23.6092 C   0  0  0  0  0  0  0  0  0  0  0  0
  -20.1222  -28.9345   21.6133 C   0  0  0  0  0  0  0  0  0  0  0  0
  -23.7465  -19.5955   23.4195 C   0  0  0  0  0  0  0  0  0  0  0  0
  -22.4882  -21.5322   22.3878 C   0  0  0  0  0  0  0  0  0  0  0  0
  -23.6997  -19.9684   20.9180 C   0  0  0  0  0  0  0  0  0  0  0  0
  -20.8868  -27.8450   22.3748 C   0  0  1  0  0  0  0  0  0  0  0  0
  -23.7677  -29.4764   24.2382 C   0  0  1  0  0  0  0  0  0  0  0  0
  -24.5281  -19.4392   22.1012 C   0  0  2  0  0  0  0  0  0  0  0  0
  -30.9041  -19.6743   19.0887 C   0  0  0  0  0  0  0  0  0  0  0  0
  -27.3875  -36.2987   24.8354 C   0  0  0  0  0  0  0  0  0  0  0  0
  -23.6021  -32.6092   20.8442 C   0  0  0  0  0  0  0  0  0  0  0  0
  -25.0499  -34.6262   21.1666 C   0  0  0  0  0  0  0  0  0  0  0  0
  -22.9580  -34.3685   22.5008 C   0  0  0  0  0  0  0  0  0  0  0  0
  -28.0563  -33.1827   26.9136 C   0  0  0  0  0  0  0  0  0  0  0  0
  -29.7552  -25.7383   19.7579 C   0  0  0  0  0  0  0  0  0  0  0  0
  -24.7207  -23.2699   18.3183 C   0  0  0  0  0  0  0  0  0  0  0  0
  -30.8834  -21.1915   19.0419 C   0  0  0  0  0  0  0  0  0  0  0  0
  -30.3832  -25.1683   21.0316 C   0  0  0  0  0  0  0  0  0  0  0  0
  -29.5377  -21.7250   18.5751 C   0  0  0  0  0  0  0  0  0  0  0  0
  -29.5313  -25.3896   22.2761 C   0  0  0  0  0  0  0  0  0  1  0  0
  -24.9512  -32.9043   23.0257 C   0  0  1  0  0  0  0  0  0  0  0  0
  -27.0765  -34.9309   25.4228 C   0  0  2  0  0  0  0  0  0  0  0  0
  -24.1504  -33.6010   21.8895 C   0  0  0  0  0  0  0  0  0  0  0  0
  -24.2125  -17.0056   22.3471 N   0  0  0  0  0  0  0  0  0  0  0  0
  -24.9807  -18.0069   21.8852 N   0  0  0  0  0  0  0  0  0  0  0  0
  -24.6153  -30.5541   23.7241 N   0  0  0  0  0  0  0  0  0  0  0  0
  -23.2852  -21.3572   21.1713 N   0  0  0  0  0  0  0  0  0  0  0  0
  -26.9987  -18.4616   20.7312 N   0  0  0  0  0  0  0  0  0  0  0  0
  -26.8969  -13.9503   20.9145 N   0  0  0  0  0  0  0  0  0  0  0  0
  -21.7654  -28.4386   23.3597 N   0  0  0  0  0  0  0  0  0  0  0  0
  -25.4593  -33.8165   24.0446 N   0  0  0  0  0  0  0  0  0  0  0  0
  -24.3383  -22.2217   19.2380 N   0  0  0  0  0  0  0  0  0  0  0  0
  -28.2357  -34.5025   26.2557 N   0  3  0  0  0  0  0  0  0  0  0  0
  -28.1120  -15.7577   20.1964 O   0  0  0  0  0  0  0  0  0  0  0  0
  -23.5798  -28.8679   21.9646 O   0  0  0  0  0  0  0  0  0  0  0  0
  -23.1014  -32.2164   24.3416 O   0  0  0  0  0  0  0  0  0  0  0  0
  -27.6967  -33.2638   23.7876 O   0  0  0  0  0  0  0  0  0  0  0  0
  -23.1790  -23.6131   20.6441 O   0  0  0  0  0  0  0  0  0  0  0  0
  -22.9109  -10.8382   23.2516 O   0  0  0  0  0  0  0  0  0  0  0  0
  -29.3361  -26.7919   22.4542 O   0  0  0  0  0  0  0  0  0  1  0  0
  -29.5931  -23.1496   18.5411 O   0  0  0  0  0  0  0  0  0  0  0  0
  -23.0533   -6.9873   19.3077 F   0  0  0  0  0  0  0  0  0  0  0  0
  -20.5865   -9.6403   22.3545 F   0  0  0  0  0  0  0  0  0  0  0  0
  1  2  1  0  0  0  0
  1  5  2  0  0  0  0
  2  6  2  0  0  0  0
  3 10  2  0  0  0  0
  3 18  1  0  0  0  0
  4 11  1  0  0  0  0
  4 18  2  0  0  0  0
  5 20  1  0  0  0  0
  6 22  1  0  0  0  0
  7 12  2  0  0  0  0
  7 21  1  0  0  0  0
  8  9  2  0  0  0  0
  8 24  1  0  0  0  0
  9 25  1  0  0  0  0
 10 26  1  0  0  0  0
 11 26  2  0  0  0  0
 12 27  1  0  0  0  0
 13 14  2  0  0  0  0
 13 28  1  0  0  0  0
 14 30  1  0  0  0  0
 15 23  1  0  0  0  0
 15 27  2  0  0  0  0
 16 24  2  0  0  0  0
 16 29  1  0  0  0  0
 17 30  2  0  0  0  0
 17 31  1  0  0  0  0
 18 32  1  0  0  0  0
 19 32  1  0  0  0  0
 19 33  2  0  0  0  0
 19 34  1  0  0  0  0
 20 22  2  0  0  0  0
 20 39  1  0  0  0  0
 21 23  2  0  0  0  0
 21 40  1  0  0  0  0
 22 48  1  0  0  0  0
 23 41  1  0  0  0  0
 24 58  1  0  0  0  0
 25 29  2  0  0  0  0
 25 57  1  0  0  0  0
 26 81  1  0  0  0  0
 27 82  1  0  0  0  0
 28 31  2  0  0  0  0
 28 81  1  0  0  0  0
 29 83  1  0  0  0  0
 30 84  1  0  0  0  0
 31 85  1  0  0  0  0
 32 66  2  0  0  0  0
 33 67  1  0  0  0  0
 33 70  1  0  0  0  0
 34 71  1  0  0  0  0
 34 76  2  0  0  0  0
 35 49  1  0  0  0  0
 35 72  1  0  0  0  0
 35 77  2  0  0  0  0
 36 63  1  0  0  0  0
 36 68  1  0  0  0  0
 36 78  2  0  0  0  0
 37 64  1  0  0  0  0
 37 73  1  0  0  0  0
 37 79  2  0  0  0  0
 38 69  1  0  0  0  0
 38 74  1  0  0  0  0
 38 80  2  0  0  0  0
 39 42  1  0  0  0  0
 40 49  1  0  0  0  0
 41 68  1  0  0  0  0
 42 44  1  0  0  0  0
 43 45  1  0  0  0  0
 43 46  1  0  0  0  0
 44 48  1  0  0  0  0
 45 50  1  0  0  0  0
 46 69  1  0  0  0  0
 47 50  1  0  0  0  0
 47 69  1  0  0  0  0
 48 72  1  0  0  0  0
 49 68  1  0  0  0  0
 50 67  1  0  0  0  0
 51 59  1  0  0  0  0
 52 64  1  0  0  0  0
 53 65  1  0  0  0  0
 54 65  1  0  0  0  0
 55 65  1  0  0  0  0
 56 75  1  0  0  0  0
 57 60  1  0  0  0  0
 58 74  1  0  0  0  0
 59 61  1  0  0  0  0
 60 62  1  0  0  0  0
 61 83  1  0  0  0  0
 62 82  1  0  0  0  0
 63 65  1  0  0  0  0
 63 73  1  0  0  0  0
 64 75  1  0  0  0  0
 66 67  1  0  0  0  0
M  CHG  1  75   1
M  ISO  4  38 100  62 101  74 100  82 101
M  END
> <Batch ID>
0097

> <Smiles>
CCCOc1cc(C[100NH:0][100C:0](=O)N2CCCC(n3nc(-c4ccc(Oc5ccc(F)cc5F)cc4)c(C(N)=O)c3N)C2)ccc1CC[101CH2:1][101O:1]c1ccc2c(c1)CN(C(=O)C(NC(=O)C(C)NC)C(C)(C)C)C(C(=O)NC1CCCc3ccccc31)C2

> <Shape>
0.215

> <Color>
0.081

> <Negative vol penalty>
0.000

$$$$

  -OEChem-04052319263D

 87 95  0     1  0  0  0  0  0999 V2000
  -22.6441   -7.5299   24.8063 C   0  0  0  0  0  0  0  0  0  0  0  0
  -23.7561   -8.3423   25.0039 C   0  0  0  0  0  0  0  0  0  0  0  0
  -24.3996  -30.8210   20.8186 C   0  0  0  0  0  0  0  0  0  0  0  0
  -25.5560  -29.7416   22.6447 C   0  0  0  0  0  0  0  0  0  0  0  0
  -22.0848   -7.4132   23.5345 C   0  0  0  0  0  0  0  0  0  0  0  0
  -24.3101   -9.0375   23.9296 C   0  0  0  0  0  0  0  0  0  0  0  0
  -27.6716  -15.1723   22.3866 C   0  0  0  0  0  0  0  0  0  0  0  0
  -23.7548  -31.6631   21.7246 C   0  0  0  0  0  0  0  0  0  0  0  0
  -24.9112  -30.5836   23.5507 C   0  0  0  0  0  0  0  0  0  0  0  0
  -28.8214  -15.6403   21.7521 C   0  0  0  0  0  0  0  0  0  0  0  0
  -24.4916  -34.4470   23.4965 C   0  0  0  0  0  0  0  0  0  0  0  0
  -24.4278  -35.8055   23.1865 C   0  0  0  0  0  0  0  0  0  0  0  0
  -27.7228  -15.4244   19.6154 C   0  0  0  0  0  0  0  0  0  0  0  0
  -28.2351  -19.8345   19.7092 C   0  0  0  0  0  0  0  0  0  0  0  0
  -22.0143  -35.6989   23.2167 C   0  0  0  0  0  0  0  0  0  0  0  0
  -30.1340  -20.8787   20.3204 C   0  0  0  0  0  0  0  0  0  0  0  0
  -25.3001  -29.8602   21.2786 C   0  0  0  0  0  0  0  0  0  0  0  0
  -27.1967  -29.2169   19.6985 C   0  0  0  0  0  0  0  0  0  0  0  0
  -22.6263   -8.1148   22.4459 C   0  0  0  0  0  0  0  0  0  0  0  0
  -26.5406  -14.8158   21.6382 C   0  0  0  0  0  0  0  0  0  0  0  0
  -23.7583   -8.9289   22.6418 C   0  0  0  0  0  0  0  0  0  0  0  0
  -26.5591  -14.9545   20.2430 C   0  0  0  0  0  0  0  0  0  0  0  0
  -29.6415  -19.8559   19.5402 C   0  0  0  0  0  0  0  0  0  0  0  0
  -24.0106  -31.5444   23.0907 C   0  0  0  0  0  0  0  0  0  0  0  0
  -28.8482  -15.7637   20.3660 C   0  0  0  0  0  0  0  0  0  0  0  0
  -23.3168  -33.7144   23.6665 C   0  0  0  0  0  0  0  0  0  0  0  0
  -23.1891  -36.4314   23.0467 C   0  0  0  0  0  0  0  0  0  0  0  0
  -22.0782  -34.3404   23.5267 C   0  0  0  0  0  0  0  0  0  0  0  0
  -25.9661  -28.9898   20.3433 C   0  0  0  0  0  0  0  0  0  0  0  0
  -27.9109  -20.8451   20.5873 C   0  0  0  0  0  0  0  0  0  0  0  0
  -27.3873  -28.1017   18.9197 C   0  0  0  0  0  0  0  0  0  0  0  0
  -28.0879  -30.3359   19.7950 C   0  0  0  0  0  0  0  0  0  0  0  0
  -24.9020  -12.1290   21.1912 C   0  0  0  0  0  0  0  0  0  0  0  0
  -22.9006  -14.0824   19.5477 C   0  0  0  0  0  0  0  0  0  0  0  0
  -22.4687  -16.9843   17.8045 C   0  0  0  0  0  0  0  0  0  0  0  0
  -25.3895  -22.4703   19.3037 C   0  0  0  0  0  0  0  0  0  0  0  0
  -22.0160   -7.9200   21.0806 C   0  0  0  0  0  0  0  0  0  0  0  0
  -25.2990  -14.3379   22.3398 C   0  0  0  0  0  0  0  0  0  0  0  0
  -25.3643  -14.6045   19.3954 C   0  0  0  0  0  0  0  0  0  0  0  0
  -22.4351   -8.9833   20.0686 C   0  0  0  0  0  0  0  0  0  0  0  0
  -24.9574  -24.7137   16.5728 C   0  0  0  0  0  0  0  0  0  0  0  0
  -23.9426   -9.2092   20.1252 C   0  0  0  0  0  0  0  0  0  0  0  0
  -25.2780  -26.0845   17.1713 C   0  0  0  0  0  0  0  0  0  0  0  0
  -24.2341  -23.8159   17.5742 C   0  0  0  0  0  0  0  0  0  0  0  0
  -25.2387  -25.0289   19.4698 C   0  0  0  0  0  0  0  0  0  0  0  0
  -24.3727   -9.7183   21.5062 C   0  0  1  0  0  0  0  0  0  0  0  0
  -24.3819  -13.5168   21.4386 C   0  0  1  0  0  0  0  0  0  0  0  0
  -26.0180  -25.9502   18.5158 C   0  0  2  0  0  0  0  0  0  0  0  0
  -30.2758  -20.4604   16.6172 C   0  0  0  0  0  0  0  0  0  0  0  0
  -20.7301  -18.2887   16.5502 C   0  0  0  0  0  0  0  0  0  0  0  0
  -28.2566  -25.3235   22.9129 C   0  0  0  0  0  0  0  0  0  0  0  0
  -29.7843  -26.3920   21.2439 C   0  0  0  0  0  0  0  0  0  0  0  0
  -23.1629  -12.1617   17.1915 C   0  0  0  0  0  0  0  0  0  0  0  0
  -22.2205  -13.9522   15.7169 C   0  0  0  0  0  0  0  0  0  0  0  0
  -20.8481  -13.0240   17.5818 C   0  0  0  0  0  0  0  0  0  0  0  0
  -22.6910  -19.2829   19.6554 C   0  0  0  0  0  0  0  0  0  0  0  0
  -26.5923  -21.2624   21.1073 C   0  0  0  0  0  0  0  0  0  0  0  0
  -31.2057  -19.6834   17.5420 C   0  0  0  0  0  0  0  0  0  0  0  0
  -29.3968  -23.9130   21.1207 C   0  0  0  0  0  0  0  0  0  0  0  0
  -31.4607  -18.0823   19.4820 C   0  0  0  0  0  0  0  0  0  0  0  0
  -29.1820  -22.5921   21.8624 C   0  0  0  0  0  0  0  0  0  0  0  0
  -30.7894  -17.1336   20.4712 C   0  0  0  0  0  0  0  0  0  1  0  0
  -30.4582  -18.9222   18.6606 C   0  0  1  0  0  0  0  0  0  0  0  0
  -22.7962  -14.5449   18.1145 C   0  0  1  0  0  0  0  0  0  0  0  0
  -21.4058  -18.0645   17.8940 C   0  0  2  0  0  0  0  0  0  0  0  0
  -29.5110  -25.1267   22.0605 C   0  0  0  0  0  0  0  0  0  0  0  0
  -22.2802  -13.4255   17.1667 C   0  0  0  0  0  0  0  0  0  0  0  0
  -25.4137  -27.8221   20.0034 N   0  0  0  0  0  0  0  0  0  0  0  0
  -29.0730  -21.4732   20.9520 N   0  0  0  0  0  0  0  0  0  0  0  0
  -26.3013  -27.3056   19.1366 N   0  0  0  0  0  0  0  0  0  0  0  0
  -24.1761  -14.1357   20.1275 N   0  0  0  0  0  0  0  0  0  0  0  0
  -24.9887  -23.7293   18.8268 N   0  0  0  0  0  0  0  0  0  0  0  0
  -28.3761  -27.7343   18.0773 N   0  0  0  0  0  0  0  0  0  0  0  0
  -27.7392  -31.3967   20.6420 N   0  0  0  0  0  0  0  0  0  0  0  0
  -24.0662  -11.1260   21.6440 N   0  0  0  0  0  0  0  0  0  0  0  0
  -21.9645  -15.7434   18.1319 N   0  0  0  0  0  0  0  0  0  0  0  0
  -26.1060  -22.4782   20.4942 N   0  0  0  0  0  0  0  0  0  0  0  0
  -22.0120  -19.3523   18.3359 N   0  3  0  0  0  0  0  0  0  0  0  0
  -29.1538  -30.4007   19.1368 O   0  0  0  0  0  0  0  0  0  0  0  0
  -25.9809  -11.9793   20.6298 O   0  0  0  0  0  0  0  0  0  0  0  0
  -21.8865  -13.6951   20.1336 O   0  0  0  0  0  0  0  0  0  0  0  0
  -23.6291  -17.2174   17.4734 O   0  0  0  0  0  0  0  0  0  0  0  0
  -25.1328  -21.4177   18.7095 O   0  0  0  0  0  0  0  0  0  0  0  0
  -23.3819  -32.3660   23.9750 O   0  0  0  0  0  0  0  0  0  0  0  0
  -29.9694  -16.2197   19.7441 O   0  0  0  0  0  0  0  0  0  1  0  0
  -23.1280  -37.7363   22.7505 F   0  0  0  0  0  0  0  0  0  0  0  0
  -20.9461  -33.6422   23.6900 F   0  0  0  0  0  0  0  0  0  0  0  0
  1  2  1  0  0  0  0
  1  5  2  0  0  0  0
  2  6  2  0  0  0  0
  3  8  2  0  0  0  0
  3 17  1  0  0  0  0
  4  9  1  0  0  0  0
  4 17  2  0  0  0  0
  5 19  1  0  0  0  0
  6 21  1  0  0  0  0
  7 10  2  0  0  0  0
  7 20  1  0  0  0  0
  8 24  1  0  0  0  0
  9 24  2  0  0  0  0
 10 25  1  0  0  0  0
 11 12  2  0  0  0  0
 11 26  1  0  0  0  0
 12 27  1  0  0  0  0
 13 22  1  0  0  0  0
 13 25  2  0  0  0  0
 14 23  1  0  0  0  0
 14 30  2  0  0  0  0
 15 27  2  0  0  0  0
 15 28  1  0  0  0  0
 16 23  2  0  0  0  0
 16 69  1  0  0  0  0
 17 29  1  0  0  0  0
 18 29  1  0  0  0  0
 18 31  2  0  0  0  0
 18 32  1  0  0  0  0
 19 21  2  0  0  0  0
 19 37  1  0  0  0  0
 20 22  2  0  0  0  0
 20 38  1  0  0  0  0
 21 46  1  0  0  0  0
 22 39  1  0  0  0  0
 23 63  1  0  0  0  0
 24 84  1  0  0  0  0
 25 85  1  0  0  0  0
 26 28  2  0  0  0  0
 26 84  1  0  0  0  0
 27 86  1  0  0  0  0
 28 87  1  0  0  0  0
 29 68  2  0  0  0  0
 30 57  1  0  0  0  0
 30 69  1  0  0  0  0
 31 70  1  0  0  0  0
 31 73  1  0  0  0  0
 32 74  1  0  0  0  0
 32 79  2  0  0  0  0
 33 47  1  0  0  0  0
 33 75  1  0  0  0  0
 33 80  2  0  0  0  0
 34 64  1  0  0  0  0
 34 71  1  0  0  0  0
 34 81  2  0  0  0  0
 35 65  1  0  0  0  0
 35 76  1  0  0  0  0
 35 82  2  0  0  0  0
 36 72  1  0  0  0  0
 36 77  1  0  0  0  0
 36 83  2  0  0  0  0
 37 40  1  0  0  0  0
 38 47  1  0  0  0  0
 39 71  1  0  0  0  0
 40 42  1  0  0  0  0
 41 43  1  0  0  0  0
 41 44  1  0  0  0  0
 42 46  1  0  0  0  0
 43 48  1  0  0  0  0
 44 72  1  0  0  0  0
 45 48  1  0  0  0  0
 45 72  1  0  0  0  0
 46 75  1  0  0  0  0
 47 71  1  0  0  0  0
 48 70  1  0  0  0  0
 49 58  1  0  0  0  0
 50 65  1  0  0  0  0
 51 66  1  0  0  0  0
 52 66  1  0  0  0  0
 53 67  1  0  0  0  0
 54 67  1  0  0  0  0
 55 67  1  0  0  0  0
 56 78  1  0  0  0  0
 57 77  1  0  0  0  0
 58 63  1  0  0  0  0
 59 61  1  0  0  0  0
 59 66  1  0  0  0  0
 60 62  1  0  0  0  0
 60 63  1  0  0  0  0
 61 69  1  0  0  0  0
 62 85  1  0  0  0  0
 64 67  1  0  0  0  0
 64 76  1  0  0  0  0
 65 78  1  0  0  0  0
 68 70  1  0  0  0  0
M  CHG  1  78   1
M  ISO  4  36 100  62 101  77 100  85 101
M  END
> <Batch ID>
0097

> <Smiles>
CCC(C[101CH2:1][101O:1]c1ccc2c(c1)CN(C(=O)C(NC(=O)C(C)NC)C(C)(C)C)C(C(=O)NC1CCCc3ccccc31)C2)c1cc(C[100NH:0][100C:0](=O)N2CCCC(n3nc(-c4ccc(Oc5ccc(F)cc5F)cc4)c(C(N)=O)c3N)C2)n(CCC(C)C)c1

> <Shape>
0.237

> <Color>
0.075

> <Negative vol penalty>
0.000

$$$$

  -OEChem-04052319263D

 86 94  0     1  0  0  0  0  0999 V2000
  -16.5461  -30.0236   23.9260 C   0  0  0  0  0  0  0  0  0  0  0  0
  -17.6704  -30.6168   24.4912 C   0  0  0  0  0  0  0  0  0  0  0  0
  -29.7057  -16.8082   20.2780 C   0  0  0  0  0  0  0  0  0  0  0  0
  -31.9385  -17.6269   20.7038 C   0  0  0  0  0  0  0  0  0  0  0  0
  -16.6875  -28.9059   23.1046 C   0  0  0  0  0  0  0  0  0  0  0  0
  -18.9369  -30.0920   24.2360 C   0  0  0  0  0  0  0  0  0  0  0  0
  -25.7603  -32.1176   23.4273 C   0  0  0  0  0  0  0  0  0  0  0  0
  -30.2084  -15.5159   20.1268 C   0  0  0  0  0  0  0  0  0  0  0  0
  -32.4412  -16.3346   20.5527 C   0  0  0  0  0  0  0  0  0  0  0  0
  -27.0350  -31.8258   23.9108 C   0  0  0  0  0  0  0  0  0  0  0  0
  -33.2095  -14.2418   18.0109 C   0  0  0  0  0  0  0  0  0  0  0  0
  -34.3598  -14.0801   17.2387 C   0  0  0  0  0  0  0  0  0  0  0  0
  -27.1650  -29.9397   22.4124 C   0  0  0  0  0  0  0  0  0  0  0  0
  -32.0663  -32.0104   21.9423 C   0  0  0  0  0  0  0  0  0  0  0  0
  -31.5676  -29.6635   22.2254 C   0  0  0  0  0  0  0  0  0  0  0  0
  -35.5110  -13.1500   19.1484 C   0  0  0  0  0  0  0  0  0  0  0  0
  -30.5707  -17.8637   20.5664 C   0  0  0  0  0  0  0  0  0  0  0  0
  -29.6038  -19.8035   21.9118 C   0  0  0  0  0  0  0  0  0  0  0  0
  -17.9571  -28.3730   22.8314 C   0  0  0  0  0  0  0  0  0  0  0  0
  -25.1730  -31.3148   22.4388 C   0  0  0  0  0  0  0  0  0  0  0  0
  -19.0953  -28.9653   23.4112 C   0  0  0  0  0  0  0  0  0  0  0  0
  -25.8838  -30.2250   21.9162 C   0  0  0  0  0  0  0  0  0  0  0  0
  -31.6383  -30.9551   22.7476 C   0  0  0  0  0  0  0  0  0  0  0  0
  -32.4236  -31.7744   20.6147 C   0  0  0  0  0  0  0  0  0  0  0  0
  -31.9249  -29.4274   20.8979 C   0  0  0  0  0  0  0  0  0  0  0  0
  -32.3529  -30.4829   20.0926 C   0  0  0  0  0  0  0  0  0  0  0  0
  -31.5761  -15.2791   20.2642 C   0  0  0  0  0  0  0  0  0  0  0  0
  -27.7364  -30.7350   23.4055 C   0  0  0  0  0  0  0  0  0  0  0  0
  -33.2100  -13.8577   19.3519 C   0  0  0  0  0  0  0  0  0  0  0  0
  -35.5106  -13.5342   17.8074 C   0  0  0  0  0  0  0  0  0  0  0  0
  -34.3607  -13.3118   19.9206 C   0  0  0  0  0  0  0  0  0  0  0  0
  -30.0521  -19.1990   20.7221 C   0  0  0  0  0  0  0  0  0  0  0  0
  -29.2149  -21.0645   21.5308 C   0  0  0  0  0  0  0  0  0  0  0  0
  -29.5442  -19.2726   23.2423 C   0  0  0  0  0  0  0  0  0  0  0  0
  -22.5735  -29.4924   22.2810 C   0  0  0  0  0  0  0  0  0  0  0  0
  -23.4252  -29.2246   19.1625 C   0  0  0  0  0  0  0  0  0  0  0  0
  -25.8942  -29.3689   16.8108 C   0  0  0  0  0  0  0  0  0  0  0  0
  -30.0976  -25.7723   18.6668 C   0  0  0  0  0  0  0  0  0  0  0  0
  -18.0560  -27.1351   21.9755 C   0  0  0  0  0  0  0  0  0  0  0  0
  -23.8080  -31.6588   21.9087 C   0  0  0  0  0  0  0  0  0  0  0  0
  -25.3061  -29.3440   20.8398 C   0  0  0  0  0  0  0  0  0  0  0  0
  -19.4650  -26.8668   21.4531 C   0  0  0  0  0  0  0  0  0  0  0  0
  -28.5766  -23.0630   16.9281 C   0  0  0  0  0  0  0  0  0  0  0  0
  -20.4875  -27.0137   22.5755 C   0  0  0  0  0  0  0  0  0  0  0  0
  -28.7934  -21.8657   17.8551 C   0  0  0  0  0  0  0  0  0  0  0  0
  -29.7689  -24.0170   16.9501 C   0  0  0  0  0  0  0  0  0  0  0  0
  -30.3853  -23.2807   19.2198 C   0  0  0  0  0  0  0  0  0  0  0  0
  -20.4880  -28.4402   23.1381 C   0  0  1  0  0  0  0  0  0  0  0  0
  -23.0989  -30.4697   21.2679 C   0  0  1  0  0  0  0  0  0  0  0  0
  -29.1859  -22.3191   19.2742 C   0  0  2  0  0  0  0  0  0  0  0  0
  -34.3944  -32.9390   19.5919 C   0  0  0  0  0  0  0  0  0  0  0  0
  -31.5597  -29.6984   17.8322 C   0  0  0  0  0  0  0  0  0  0  0  0
  -33.9401  -29.2788   18.5482 C   0  0  0  0  0  0  0  0  0  0  0  0
  -26.2926  -29.0656   14.3518 C   0  0  0  0  0  0  0  0  0  0  0  0
  -23.3015  -26.1967   19.5184 C   0  0  0  0  0  0  0  0  0  0  0  0
  -24.5972  -25.9634   17.3889 C   0  0  0  0  0  0  0  0  0  0  0  0
  -22.3442  -27.0340   17.3650 C   0  0  0  0  0  0  0  0  0  0  0  0
  -26.7810  -32.1742   16.4905 C   0  0  0  0  0  0  0  0  0  0  0  0
  -31.2510  -31.2106   24.1839 C   0  0  0  0  0  0  0  0  0  0  0  0
  -32.8798  -32.9217   19.7738 C   0  0  0  0  0  0  0  0  0  0  0  0
  -31.8404  -28.0352   20.3628 C   0  0  0  0  0  0  0  0  0  0  0  0
  -30.4470  -27.4118   20.4969 C   0  0  0  0  0  0  0  0  0  0  0  0
  -29.7707  -31.5438   24.3348 C   0  0  0  0  0  0  0  0  0  1  0  0
  -32.7365  -30.2300   18.6693 C   0  0  0  0  0  0  0  0  0  0  0  0
  -24.2993  -28.2828   18.3701 C   0  0  1  0  0  0  0  0  0  0  0  0
  -25.9577  -30.0543   15.4578 C   0  0  2  0  0  0  0  0  0  0  0  0
  -23.6459  -26.8845   18.1822 C   0  0  0  0  0  0  0  0  0  0  0  0
  -29.9572  -20.0092   19.6645 N   0  0  0  0  0  0  0  0  0  0  0  0
  -29.4447  -21.1357   20.1883 N   0  0  0  0  0  0  0  0  0  0  0  0
  -23.9658  -29.7175   20.3586 N   0  0  0  0  0  0  0  0  0  0  0  0
  -30.0885  -24.4100   18.3246 N   0  0  0  0  0  0  0  0  0  0  0  0
  -28.7022  -22.1082   22.2166 N   0  0  0  0  0  0  0  0  0  0  0  0
  -29.9838  -17.9594   23.4580 N   0  0  0  0  0  0  0  0  0  0  0  0
  -21.2012  -29.3333   22.2503 N   0  0  0  0  0  0  0  0  0  0  0  0
  -24.6115  -28.9691   17.1211 N   0  0  0  0  0  0  0  0  0  0  0  0
  -30.4042  -26.0576   19.9917 N   0  0  0  0  0  0  0  0  0  0  0  0
  -26.9984  -31.1209   15.4658 N   0  3  0  0  0  0  0  0  0  0  0  0
  -29.0986  -19.9373   24.2083 O   0  0  0  0  0  0  0  0  0  0  0  0
  -23.3554  -28.9235   23.0338 O   0  0  0  0  0  0  0  0  0  0  0  0
  -22.3069  -29.5179   18.7324 O   0  0  0  0  0  0  0  0  0  0  0  0
  -26.8840  -29.2014   17.5198 O   0  0  0  0  0  0  0  0  0  0  0  0
  -29.8457  -26.6676   17.8533 O   0  0  0  0  0  0  0  0  0  0  0  0
  -32.0670  -14.0181   20.1170 O   0  0  0  0  0  0  0  0  0  0  0  0
  -28.9805  -30.4476   23.8761 O   0  0  0  0  0  0  0  0  0  1  0  0
  -36.6146  -13.3775   17.0654 F   0  0  0  0  0  0  0  0  0  0  0  0
  -34.3669  -12.9398   21.2080 F   0  0  0  0  0  0  0  0  0  0  0  0
  1  2  1  0  0  0  0
  1  5  2  0  0  0  0
  2  6  2  0  0  0  0
  3  8  2  0  0  0  0
  3 17  1  0  0  0  0
  4  9  1  0  0  0  0
  4 17  2  0  0  0  0
  5 19  1  0  0  0  0
  6 21  1  0  0  0  0
  7 10  2  0  0  0  0
  7 20  1  0  0  0  0
  8 27  1  0  0  0  0
  9 27  2  0  0  0  0
 10 28  1  0  0  0  0
 11 12  2  0  0  0  0
 11 29  1  0  0  0  0
 12 30  1  0  0  0  0
 13 22  1  0  0  0  0
 13 28  2  0  0  0  0
 14 23  2  0  0  0  0
 14 24  1  0  0  0  0
 15 23  1  0  0  0  0
 15 25  2  0  0  0  0
 16 30  2  0  0  0  0
 16 31  1  0  0  0  0
 17 32  1  0  0  0  0
 18 32  1  0  0  0  0
 18 33  2  0  0  0  0
 18 34  1  0  0  0  0
 19 21  2  0  0  0  0
 19 39  1  0  0  0  0
 20 22  2  0  0  0  0
 20 40  1  0  0  0  0
 21 48  1  0  0  0  0
 22 41  1  0  0  0  0
 23 59  1  0  0  0  0
 24 26  2  0  0  0  0
 24 60  1  0  0  0  0
 25 26  1  0  0  0  0
 25 61  1  0  0  0  0
 26 64  1  0  0  0  0
 27 83  1  0  0  0  0
 28 84  1  0  0  0  0
 29 31  2  0  0  0  0
 29 83  1  0  0  0  0
 30 85  1  0  0  0  0
 31 86  1  0  0  0  0
 32 68  2  0  0  0  0
 33 69  1  0  0  0  0
 33 72  1  0  0  0  0
 34 73  1  0  0  0  0
 34 78  2  0  0  0  0
 35 49  1  0  0  0  0
 35 74  1  0  0  0  0
 35 79  2  0  0  0  0
 36 65  1  0  0  0  0
 36 70  1  0  0  0  0
 36 80  2  0  0  0  0
 37 66  1  0  0  0  0
 37 75  1  0  0  0  0
 37 81  2  0  0  0  0
 38 71  1  0  0  0  0
 38 76  1  0  0  0  0
 38 82  2  0  0  0  0
 39 42  1  0  0  0  0
 40 49  1  0  0  0  0
 41 70  1  0  0  0  0
 42 44  1  0  0  0  0
 43 45  1  0  0  0  0
 43 46  1  0  0  0  0
 44 48  1  0  0  0  0
 45 50  1  0  0  0  0
 46 71  1  0  0  0  0
 47 50  1  0  0  0  0
 47 71  1  0  0  0  0
 48 74  1  0  0  0  0
 49 70  1  0  0  0  0
 50 69  1  0  0  0  0
 51 60  1  0  0  0  0
 52 64  1  0  0  0  0
 53 64  1  0  0  0  0
 54 66  1  0  0  0  0
 55 67  1  0  0  0  0
 56 67  1  0  0  0  0
 57 67  1  0  0  0  0
 58 77  1  0  0  0  0
 59 63  1  0  0  0  0
 61 62  1  0  0  0  0
 62 76  1  0  0  0  0
 63 84  1  0  0  0  0
 65 67  1  0  0  0  0
 65 75  1  0  0  0  0
 66 77  1  0  0  0  0
 68 69  1  0  0  0  0
M  CHG  1  77   1
M  ISO  4  38 100  63 101  76 100  84 101
M  END
> <Batch ID>
0097

> <Smiles>
CCc1cc(C[101CH2:1][101O:1]c2ccc3c(c2)CN(C(=O)C(NC(=O)C(C)NC)C(C)(C)C)C(C(=O)NC2CCCc4ccccc42)C3)cc(CC[100NH:0][100C:0](=O)N2CCCC(n3nc(-c4ccc(Oc5ccc(F)cc5F)cc4)c(C(N)=O)c3N)C2)c1C(C)C

> <Shape>
0.267

> <Color>
0.112

> <Negative vol penalty>
0.000

$$$$

  -OEChem-04052319263D

 90 98  0     1  0  0  0  0  0999 V2000
  -20.5840  -33.3724   24.7740 C   0  0  0  0  0  0  0  0  0  0  0  0
  -21.8457  -32.9688   24.3488 C   0  0  0  0  0  0  0  0  0  0  0  0
  -24.1623  -13.0458   21.4419 C   0  0  0  0  0  0  0  0  0  0  0  0
  -26.2514  -12.8363   20.2467 C   0  0  0  0  0  0  0  0  0  0  0  0
  -19.5696  -32.4297   24.9359 C   0  0  0  0  0  0  0  0  0  0  0  0
  -22.0939  -31.6220   24.0864 C   0  0  0  0  0  0  0  0  0  0  0  0
  -25.7871  -29.3322   19.7710 C   0  0  0  0  0  0  0  0  0  0  0  0
  -23.9766  -11.6658   21.3592 C   0  0  0  0  0  0  0  0  0  0  0  0
  -26.0657  -11.4563   20.1640 C   0  0  0  0  0  0  0  0  0  0  0  0
  -27.0960  -28.8538   19.8138 C   0  0  0  0  0  0  0  0  0  0  0  0
  -25.1183   -8.9000   22.9339 C   0  0  0  0  0  0  0  0  0  0  0  0
  -24.7018   -8.2318   24.0853 C   0  0  0  0  0  0  0  0  0  0  0  0
  -26.2594  -26.6021   20.0355 C   0  0  0  0  0  0  0  0  0  0  0  0
  -31.6304  -22.9937   20.2578 C   0  0  0  0  0  0  0  0  0  0  0  0
  -22.7135   -7.4859   22.9332 C   0  0  0  0  0  0  0  0  0  0  0  0
  -25.2997  -13.6310   20.8856 C   0  0  0  0  0  0  0  0  0  0  0  0
  -26.1485  -15.7666   21.9931 C   0  0  0  0  0  0  0  0  0  0  0  0
  -19.8028  -31.0720   24.6660 C   0  0  0  0  0  0  0  0  0  0  0  0
  -24.7028  -28.4487   19.8712 C   0  0  0  0  0  0  0  0  0  0  0  0
  -21.0820  -30.6601   24.2461 C   0  0  0  0  0  0  0  0  0  0  0  0
  -24.9377  -27.0715   19.9911 C   0  0  0  0  0  0  0  0  0  0  0  0
  -31.6031  -21.9568   21.1838 C   0  0  0  0  0  0  0  0  0  0  0  0
  -30.5832  -23.1396   19.3548 C   0  0  0  0  0  0  0  0  0  0  0  0
  -24.9283  -10.8711   20.7203 C   0  0  0  0  0  0  0  0  0  0  0  0
  -27.3323  -27.4889   19.9490 C   0  0  0  0  0  0  0  0  0  0  0  0
  -24.3323   -8.8612   21.7822 C   0  0  0  0  0  0  0  0  0  0  0  0
  -23.4994   -7.5248   24.0849 C   0  0  0  0  0  0  0  0  0  0  0  0
  -23.1299   -8.1542   21.7818 C   0  0  0  0  0  0  0  0  0  0  0  0
  -25.4918  -15.0565   20.9702 C   0  0  0  0  0  0  0  0  0  0  0  0
  -30.5146  -21.0996   21.1657 C   0  0  0  0  0  0  0  0  0  0  0  0
  -29.5405  -22.2294   19.4185 C   0  0  0  0  0  0  0  0  0  0  0  0
  -26.0612  -17.0822   21.6084 C   0  0  0  0  0  0  0  0  0  0  0  0
  -26.7808  -15.2804   23.1845 C   0  0  0  0  0  0  0  0  0  0  0  0
  -22.3095  -28.0590   21.9264 C   0  0  0  0  0  0  0  0  0  0  0  0
  -21.3160  -25.8654   19.7531 C   0  0  0  0  0  0  0  0  0  0  0  0
  -22.1218  -23.7295   17.2163 C   0  0  0  0  0  0  0  0  0  0  0  0
  -26.4225  -21.0418   17.6922 C   0  0  0  0  0  0  0  0  0  0  0  0
  -18.6884  -30.0833   24.9010 C   0  0  0  0  0  0  0  0  0  0  0  0
  -23.2968  -28.9779   19.7965 C   0  0  0  0  0  0  0  0  0  0  0  0
  -23.8082  -26.0793   20.0822 C   0  0  0  0  0  0  0  0  0  0  0  0
  -18.9280  -28.7274   24.2418 C   0  0  0  0  0  0  0  0  0  0  0  0
  -23.3459  -19.2673   17.9425 C   0  0  0  0  0  0  0  0  0  0  0  0
  -20.3488  -28.2444   24.5156 C   0  0  0  0  0  0  0  0  0  0  0  0
  -23.6857  -18.0696   18.8313 C   0  0  0  0  0  0  0  0  0  0  0  0
  -24.5041  -19.6284   17.0150 C   0  0  0  0  0  0  0  0  0  0  0  0
  -26.1352  -18.6496   18.5819 C   0  0  0  0  0  0  0  0  0  0  0  0
  -21.3833  -29.2116   23.9276 C   0  0  1  0  0  0  0  0  0  0  0  0
  -22.2710  -28.0395   20.4245 C   0  0  1  0  0  0  0  0  0  0  0  0
  -25.0184  -18.2827   19.5741 C   0  0  2  0  0  0  0  0  0  0  0  0
  -30.4314  -19.9672   22.1361 C   0  0  0  0  0  0  0  0  0  0  0  0
  -21.1030  -22.0417   15.6636 C   0  0  0  0  0  0  0  0  0  0  0  0
  -35.3145  -26.7559   23.0749 C   0  0  0  0  0  0  0  0  0  0  0  0
  -34.1482  -26.5756   20.8577 C   0  0  0  0  0  0  0  0  0  0  0  0
  -21.1888  -23.8452   22.0363 C   0  0  0  0  0  0  0  0  0  0  0  0
  -21.1052  -22.0204   20.3242 C   0  0  0  0  0  0  0  0  0  0  0  0
  -19.2810  -23.7190   20.4242 C   0  0  0  0  0  0  0  0  0  0  0  0
  -22.8916  -25.2933   14.8245 C   0  0  0  0  0  0  0  0  0  0  0  0
  -32.7218  -21.7951   22.1540 C   0  0  0  0  0  0  0  0  0  0  0  0
  -30.6068  -24.2617   18.3479 C   0  0  0  0  0  0  0  0  0  0  0  0
  -28.3886  -22.3389   18.4738 C   0  0  0  0  0  0  0  0  0  0  0  0
  -32.4285  -22.3429   23.5651 C   0  0  0  0  0  0  0  0  0  0  0  0
  -30.2571  -25.6285   18.9405 C   0  0  0  0  0  0  0  0  0  0  0  0
  -32.0655  -23.8236   23.6229 C   0  0  0  0  0  0  0  0  0  0  0  0
  -32.8525  -26.1107   22.9995 C   0  0  0  0  0  0  0  0  0  0  0  0
  -28.8349  -25.7052   19.4835 C   0  0  0  0  0  0  0  0  0  1  0  0
  -21.5522  -24.3898   19.5388 C   0  0  1  0  0  0  0  0  0  0  0  0
  -21.4916  -23.4996   15.8546 C   0  0  2  0  0  0  0  0  0  0  0  0
  -33.9817  -26.9111   22.3407 C   0  0  0  0  0  0  0  0  0  0  0  0
  -20.8033  -23.5122   20.5811 C   0  0  0  0  0  0  0  0  0  0  0  0
  -25.0219  -15.8549   20.0080 N   0  0  0  0  0  0  0  0  0  0  0  0
  -29.4789  -21.2096   20.3039 N   0  0  0  0  0  0  0  0  0  0  0  0
  -25.3837  -17.0803   20.4247 N   0  0  0  0  0  0  0  0  0  0  0  0
  -22.4515  -26.6465   20.0108 N   0  0  0  0  0  0  0  0  0  0  0  0
  -25.7376  -19.8187   17.7819 N   0  0  0  0  0  0  0  0  0  0  0  0
  -26.4987  -18.2289   22.1706 N   0  0  0  0  0  0  0  0  0  0  0  0
  -26.7796  -13.8998   23.4258 N   0  0  0  0  0  0  0  0  0  0  0  0
  -21.4981  -29.0208   22.4976 N   0  0  0  0  0  0  0  0  0  0  0  0
  -21.1867  -24.1149   18.1534 N   0  0  0  0  0  0  0  0  0  0  0  0
  -27.5789  -21.1411   18.4561 N   0  0  0  0  0  0  0  0  0  0  0  0
  -22.4440  -23.8778   14.7725 N   0  3  0  0  0  0  0  0  0  0  0  0
  -33.1459  -24.6512   23.0374 N   0  3  0  0  0  0  0  0  0  0  0  0
  -27.3164  -16.0489   24.0188 O   0  0  0  0  0  0  0  0  0  0  0  0
  -23.0214  -27.2596   22.5230 O   0  0  0  0  0  0  0  0  0  0  0  0
  -20.1671  -26.3098   19.6870 O   0  0  0  0  0  0  0  0  0  0  0  0
  -23.3230  -23.5784   17.4285 O   0  0  0  0  0  0  0  0  0  0  0  0
  -26.0293  -21.9780   16.9881 O   0  0  0  0  0  0  0  0  0  0  0  0
  -24.7475   -9.5245   20.6396 O   0  0  0  0  0  0  0  0  0  0  0  0
  -28.6088  -27.0194   19.9918 O   0  0  0  0  0  0  0  0  0  1  0  0
  -23.1004   -6.8819   25.1902 F   0  0  0  0  0  0  0  0  0  0  0  0
  -22.3712   -8.1123   20.6780 F   0  0  0  0  0  0  0  0  0  0  0  0
  1  2  1  0  0  0  0
  1  5  2  0  0  0  0
  2  6  2  0  0  0  0
  3  8  2  0  0  0  0
  3 16  1  0  0  0  0
  4  9  1  0  0  0  0
  4 16  2  0  0  0  0
  5 18  1  0  0  0  0
  6 20  1  0  0  0  0
  7 10  2  0  0  0  0
  7 19  1  0  0  0  0
  8 24  1  0  0  0  0
  9 24  2  0  0  0  0
 10 25  1  0  0  0  0
 11 12  2  0  0  0  0
 11 26  1  0  0  0  0
 12 27  1  0  0  0  0
 13 21  1  0  0  0  0
 13 25  2  0  0  0  0
 14 22  2  0  0  0  0
 14 23  1  0  0  0  0
 15 27  2  0  0  0  0
 15 28  1  0  0  0  0
 16 29  1  0  0  0  0
 17 29  1  0  0  0  0
 17 32  2  0  0  0  0
 17 33  1  0  0  0  0
 18 20  2  0  0  0  0
 18 38  1  0  0  0  0
 19 21  2  0  0  0  0
 19 39  1  0  0  0  0
 20 47  1  0  0  0  0
 21 40  1  0  0  0  0
 22 30  1  0  0  0  0
 22 58  1  0  0  0  0
 23 31  2  0  0  0  0
 23 59  1  0  0  0  0
 24 87  1  0  0  0  0
 25 88  1  0  0  0  0
 26 28  2  0  0  0  0
 26 87  1  0  0  0  0
 27 89  1  0  0  0  0
 28 90  1  0  0  0  0
 29 70  2  0  0  0  0
 30 50  1  0  0  0  0
 30 71  2  0  0  0  0
 31 60  1  0  0  0  0
 31 71  1  0  0  0  0
 32 72  1  0  0  0  0
 32 75  1  0  0  0  0
 33 76  1  0  0  0  0
 33 82  2  0  0  0  0
 34 48  1  0  0  0  0
 34 77  1  0  0  0  0
 34 83  2  0  0  0  0
 35 66  1  0  0  0  0
 35 73  1  0  0  0  0
 35 84  2  0  0  0  0
 36 67  1  0  0  0  0
 36 78  1  0  0  0  0
 36 85  2  0  0  0  0
 37 74  1  0  0  0  0
 37 79  1  0  0  0  0
 37 86  2  0  0  0  0
 38 41  1  0  0  0  0
 39 48  1  0  0  0  0
 40 73  1  0  0  0  0
 41 43  1  0  0  0  0
 42 44  1  0  0  0  0
 42 45  1  0  0  0  0
 43 47  1  0  0  0  0
 44 49  1  0  0  0  0
 45 74  1  0  0  0  0
 46 49  1  0  0  0  0
 46 74  1  0  0  0  0
 47 77  1  0  0  0  0
 48 73  1  0  0  0  0
 49 72  1  0  0  0  0
 51 67  1  0  0  0  0
 52 68  1  0  0  0  0
 53 68  1  0  0  0  0
 54 69  1  0  0  0  0
 55 69  1  0  0  0  0
 56 69  1  0  0  0  0
 57 80  1  0  0  0  0
 58 61  1  0  0  0  0
 59 62  1  0  0  0  0
 60 79  1  0  0  0  0
 61 63  1  0  0  0  0
 62 65  1  0  0  0  0
 63 81  1  0  0  0  0
 64 68  1  0  0  0  0
 64 81  1  0  0  0  0
 65 88  1  0  0  0  0
 66 69  1  0  0  0  0
 66 78  1  0  0  0  0
 67 80  1  0  0  0  0
 70 72  1  0  0  0  0
M  CHG  2  80   1  81   1
M  ISO  4  37 100  65 101  79 100  88 101
M  END
> <Batch ID>
0097

> <Smiles>
CNC(C)C(=O)NC(C(=O)N1Cc2cc([101O:1][101CH2:1]CCc3cc(CCCNCC(C)C)c(C)nc3C[100NH:0][100C:0](=O)N3CCCC(n4nc(-c5ccc(Oc6ccc(F)cc6F)cc5)c(C(N)=O)c4N)C3)ccc2CC1C(=O)NC1CCCc2ccccc21)C(C)(C)C

> <Shape>
0.206

> <Color>
0.083

> <Negative vol penalty>
0.000

$$$$

  -OEChem-04052319263D

 88 96  0     1  0  0  0  0  0999 V2000
  -17.1645  -26.8499   23.1994 C   0  0  0  0  0  0  0  0  0  0  0  0
  -18.1784  -26.9018   24.1506 C   0  0  0  0  0  0  0  0  0  0  0  0
  -27.2256  -15.9053   19.8957 C   0  0  0  0  0  0  0  0  0  0  0  0
  -29.1043  -16.0111   21.4110 C   0  0  0  0  0  0  0  0  0  0  0  0
  -17.4289  -27.2144   21.8799 C   0  0  0  0  0  0  0  0  0  0  0  0
  -19.4576  -27.3172   23.7825 C   0  0  0  0  0  0  0  0  0  0  0  0
  -23.4126  -30.5175   27.1916 C   0  0  0  0  0  0  0  0  0  0  0  0
  -27.3828  -14.5228   19.7972 C   0  0  0  0  0  0  0  0  0  0  0  0
  -29.2615  -14.6286   21.3126 C   0  0  0  0  0  0  0  0  0  0  0  0
  -24.5080  -30.1353   27.9647 C   0  0  0  0  0  0  0  0  0  0  0  0
  -30.3834  -11.1741   21.1795 C   0  0  0  0  0  0  0  0  0  0  0  0
  -31.6759  -10.6793   21.0060 C   0  0  0  0  0  0  0  0  0  0  0  0
  -25.9776  -30.6333   26.1177 C   0  0  0  0  0  0  0  0  0  0  0  0
  -29.6414  -26.2380   24.4243 C   0  0  0  0  0  0  0  0  0  0  0  0
  -31.8765  -11.9253   18.9458 C   0  0  0  0  0  0  0  0  0  0  0  0
  -28.0864  -16.6494   20.7025 C   0  0  0  0  0  0  0  0  0  0  0  0
  -27.1352  -18.7797   21.7344 C   0  0  0  0  0  0  0  0  0  0  0  0
  -18.7096  -27.6437   21.4975 C   0  0  0  0  0  0  0  0  0  0  0  0
  -23.5906  -30.9510   25.8699 C   0  0  0  0  0  0  0  0  0  0  0  0
  -19.7397  -27.6864   22.4563 C   0  0  0  0  0  0  0  0  0  0  0  0
  -24.8830  -31.0230   25.3308 C   0  0  0  0  0  0  0  0  0  0  0  0
  -28.3476  -26.3839   24.9827 C   0  0  0  0  0  0  0  0  0  0  0  0
  -28.4007  -13.8845   20.5057 C   0  0  0  0  0  0  0  0  0  0  0  0
  -25.7905  -30.1903   27.4268 C   0  0  0  0  0  0  0  0  0  0  0  0
  -29.8374  -12.0445   20.2360 C   0  0  0  0  0  0  0  0  0  0  0  0
  -32.4225  -11.0549   19.8893 C   0  0  0  0  0  0  0  0  0  0  0  0
  -30.5839  -12.4201   19.1193 C   0  0  0  0  0  0  0  0  0  0  0  0
  -27.9248  -18.0776   20.8041 C   0  0  0  0  0  0  0  0  0  0  0  0
  -29.4839  -26.0116   23.0748 C   0  0  0  0  0  0  0  0  0  0  0  0
  -27.4387  -26.2421   23.9574 C   0  0  0  0  0  0  0  0  0  0  0  0
  -27.3208  -20.1022   21.4133 C   0  0  0  0  0  0  0  0  0  0  0  0
  -26.3081  -18.2811   22.7940 C   0  0  0  0  0  0  0  0  0  0  0  0
  -22.6308  -29.9169   23.0216 C   0  0  0  0  0  0  0  0  0  0  0  0
  -24.0035  -32.6700   21.9928 C   0  0  0  0  0  0  0  0  0  0  0  0
  -26.2804  -35.1526   22.5395 C   0  0  0  0  0  0  0  0  0  0  0  0
  -30.6614  -24.3484   20.0148 C   0  0  0  0  0  0  0  0  0  0  0  0
  -18.9593  -27.9824   20.0492 C   0  0  0  0  0  0  0  0  0  0  0  0
  -22.4013  -31.3853   25.0580 C   0  0  0  0  0  0  0  0  0  0  0  0
  -25.1298  -31.5003   23.9238 C   0  0  0  0  0  0  0  0  0  0  0  0
  -20.2474  -28.7691   19.8210 C   0  0  0  0  0  0  0  0  0  0  0  0
  -29.5172  -22.2358   17.3871 C   0  0  0  0  0  0  0  0  0  0  0  0
  -21.4024  -28.1372   20.5914 C   0  0  0  0  0  0  0  0  0  0  0  0
  -28.9419  -21.0215   18.1183 C   0  0  0  0  0  0  0  0  0  0  0  0
  -30.7536  -22.7866   18.0941 C   0  0  0  0  0  0  0  0  0  0  0  0
  -29.9881  -21.8815   20.2548 C   0  0  0  0  0  0  0  0  0  0  0  0
  -21.1340  -28.1553   22.1011 C   0  0  1  0  0  0  0  0  0  0  0  0
  -22.6491  -31.3218   23.5541 C   0  0  1  0  0  0  0  0  0  0  0  0
  -28.7070  -21.3248   19.6103 C   0  0  2  0  0  0  0  0  0  0  0  0
  -27.2008  -37.2446   21.5033 C   0  0  0  0  0  0  0  0  0  0  0  0
  -23.2449  -23.4752   23.8699 C   0  0  0  0  0  0  0  0  0  0  0  0
  -23.2363  -25.5831   25.2179 C   0  0  0  0  0  0  0  0  0  0  0  0
  -25.6199  -30.9836   20.0298 C   0  0  0  0  0  0  0  0  0  0  0  0
  -27.1518  -32.9394   19.7189 C   0  0  0  0  0  0  0  0  0  0  0  0
  -24.7458  -33.1293   19.0882 C   0  0  0  0  0  0  0  0  0  0  0  0
  -26.0746  -27.5884   28.5992 C   0  0  0  0  0  0  0  0  0  0  0  0
  -28.4487  -28.2554   29.0556 C   0  0  0  0  0  0  0  0  0  0  0  0
  -27.5542  -25.8126   21.4943 C   0  0  0  0  0  0  0  0  0  0  0  0
  -25.3920  -36.8130   24.8227 C   0  0  0  0  0  0  0  0  0  0  0  0
  -28.0319  -26.6469   26.4346 C   0  0  0  0  0  0  0  0  0  0  0  0
  -25.9616  -26.3025   23.9785 C   0  0  0  0  0  0  0  0  0  0  0  0
  -30.5018  -25.7926   22.0267 C   0  0  0  0  0  0  0  0  0  0  0  0
  -27.6648  -28.1186   26.6726 C   0  0  0  0  0  0  0  0  0  0  0  0
  -25.3125  -24.9026   23.9007 C   0  0  0  0  0  0  0  0  0  0  0  0
  -25.3851  -33.0692   21.5336 C   0  0  1  0  0  0  0  0  0  0  0  0
  -26.1637  -36.6636   22.4518 C   0  0  2  0  0  0  0  0  0  0  0  0
  -23.7734  -24.9094   23.9544 C   0  0  0  0  0  0  0  0  0  0  0  0
  -25.7211  -32.5195   20.1185 C   0  0  0  0  0  0  0  0  0  0  0  0
  -27.2491  -28.4450   28.1213 C   0  0  0  0  0  0  0  0  0  1  0  0
  -28.5643  -18.8870   19.9556 N   0  0  0  0  0  0  0  0  0  0  0  0
  -28.1408  -26.0158   22.8023 N   0  0  0  0  0  0  0  0  0  0  0  0
  -28.1766  -20.1114   20.3514 N   0  0  0  0  0  0  0  0  0  0  0  0
  -23.9341  -31.9081   23.1678 N   0  0  0  0  0  0  0  0  0  0  0  0
  -30.4634  -23.0546   19.5048 N   0  0  0  0  0  0  0  0  0  0  0  0
  -26.8337  -21.2465   21.9385 N   0  0  0  0  0  0  0  0  0  0  0  0
  -26.2308  -16.8948   22.9854 N   0  0  0  0  0  0  0  0  0  0  0  0
  -21.3777  -29.4754   22.6419 N   0  0  0  0  0  0  0  0  0  0  0  0
  -25.4465  -34.5229   21.6400 N   0  0  0  0  0  0  0  0  0  0  0  0
  -30.3561  -24.5180   21.3597 N   0  0  0  0  0  0  0  0  0  0  0  0
  -26.3599  -37.2772   23.7957 N   0  3  0  0  0  0  0  0  0  0  0  0
  -25.6439  -19.0416   23.5384 O   0  0  0  0  0  0  0  0  0  0  0  0
  -23.6765  -29.2810   22.9585 O   0  0  0  0  0  0  0  0  0  0  0  0
  -23.0216  -33.0272   21.3372 O   0  0  0  0  0  0  0  0  0  0  0  0
  -27.0385  -34.5875   23.3247 O   0  0  0  0  0  0  0  0  0  0  0  0
  -31.0742  -25.2843   19.3215 O   0  0  0  0  0  0  0  0  0  0  0  0
  -28.5543  -12.5355   20.4101 O   0  0  0  0  0  0  0  0  0  0  0  0
  -26.8614  -29.8172   28.1790 O   0  0  0  0  0  0  0  0  0  1  0  0
  -33.6643  -10.5809   19.7236 F   0  0  0  0  0  0  0  0  0  0  0  0
  -30.0651  -13.2568   18.2102 F   0  0  0  0  0  0  0  0  0  0  0  0
  1  2  1  0  0  0  0
  1  5  2  0  0  0  0
  2  6  2  0  0  0  0
  3  8  2  0  0  0  0
  3 16  1  0  0  0  0
  4  9  1  0  0  0  0
  4 16  2  0  0  0  0
  5 18  1  0  0  0  0
  6 20  1  0  0  0  0
  7 10  2  0  0  0  0
  7 19  1  0  0  0  0
  8 23  1  0  0  0  0
  9 23  2  0  0  0  0
 10 24  1  0  0  0  0
 11 12  2  0  0  0  0
 11 25  1  0  0  0  0
 12 26  1  0  0  0  0
 13 21  1  0  0  0  0
 13 24  2  0  0  0  0
 14 22  1  0  0  0  0
 14 29  2  0  0  0  0
 15 26  2  0  0  0  0
 15 27  1  0  0  0  0
 16 28  1  0  0  0  0
 17 28  1  0  0  0  0
 17 31  2  0  0  0  0
 17 32  1  0  0  0  0
 18 20  2  0  0  0  0
 18 37  1  0  0  0  0
 19 21  2  0  0  0  0
 19 38  1  0  0  0  0
 20 46  1  0  0  0  0
 21 39  1  0  0  0  0
 22 30  2  0  0  0  0
 22 59  1  0  0  0  0
 23 85  1  0  0  0  0
 24 86  1  0  0  0  0
 25 27  2  0  0  0  0
 25 85  1  0  0  0  0
 26 87  1  0  0  0  0
 27 88  1  0  0  0  0
 28 69  2  0  0  0  0
 29 61  1  0  0  0  0
 29 70  1  0  0  0  0
 30 60  1  0  0  0  0
 30 70  1  0  0  0  0
 31 71  1  0  0  0  0
 31 74  1  0  0  0  0
 32 75  1  0  0  0  0
 32 80  2  0  0  0  0
 33 47  1  0  0  0  0
 33 76  1  0  0  0  0
 33 81  2  0  0  0  0
 34 64  1  0  0  0  0
 34 72  1  0  0  0  0
 34 82  2  0  0  0  0
 35 65  1  0  0  0  0
 35 77  1  0  0  0  0
 35 83  2  0  0  0  0
 36 73  1  0  0  0  0
 36 78  1  0  0  0  0
 36 84  2  0  0  0  0
 37 40  1  0  0  0  0
 38 47  1  0  0  0  0
 39 72  1  0  0  0  0
 40 42  1  0  0  0  0
 41 43  1  0  0  0  0
 41 44  1  0  0  0  0
 42 46  1  0  0  0  0
 43 48  1  0  0  0  0
 44 73  1  0  0  0  0
 45 48  1  0  0  0  0
 45 73  1  0  0  0  0
 46 76  1  0  0  0  0
 47 72  1  0  0  0  0
 48 71  1  0  0  0  0
 49 65  1  0  0  0  0
 50 66  1  0  0  0  0
 51 66  1  0  0  0  0
 52 67  1  0  0  0  0
 53 67  1  0  0  0  0
 54 67  1  0  0  0  0
 55 68  1  0  0  0  0
 56 68  1  0  0  0  0
 57 70  1  0  0  0  0
 58 79  1  0  0  0  0
 59 62  1  0  0  0  0
 60 63  1  0  0  0  0
 61 78  1  0  0  0  0
 62 68  1  0  0  0  0
 63 66  1  0  0  0  0
 64 67  1  0  0  0  0
 64 77  1  0  0  0  0
 65 79  1  0  0  0  0
 68 86  1  0  0  0  0
 69 71  1  0  0  0  0
M  CHG  1  79   1
M  ISO  4  36 100  68 101  78 100  86 101
M  END
> <Batch ID>
0097

> <Smiles>
CNC(C)C(=O)NC(C(=O)N1Cc2cc([101O:1][101C:1](C)(C)CCc3cc(C[100NH:0][100C:0](=O)N4CCCC(n5nc(-c6ccc(Oc7ccc(F)cc7F)cc6)c(C(N)=O)c5N)C4)n(C)c3CCC(C)C)ccc2CC1C(=O)NC1CCCc2ccccc21)C(C)(C)C

> <Shape>
0.254

> <Color>
0.104

> <Negative vol penalty>
0.000

$$$$

  -OEChem-04052319263D

 90 98  0     1  0  0  0  0  0999 V2000
  -29.8356  -33.3973   25.0652 C   0  0  0  0  0  0  0  0  0  0  0  0
  -29.4348  -32.0654   25.0380 C   0  0  0  0  0  0  0  0  0  0  0  0
  -24.4183   -9.0806   22.0135 C   0  0  0  0  0  0  0  0  0  0  0  0
  -22.9659   -9.9739   20.3020 C   0  0  0  0  0  0  0  0  0  0  0  0
  -29.0152  -34.3823   24.5168 C   0  0  0  0  0  0  0  0  0  0  0  0
  -28.2129  -31.7177   24.4633 C   0  0  0  0  0  0  0  0  0  0  0  0
  -28.5633  -27.6527   21.4638 C   0  0  0  0  0  0  0  0  0  0  0  0
  -23.6682   -7.9049   22.0365 C   0  0  0  0  0  0  0  0  0  0  0  0
  -22.2158   -8.7981   20.3249 C   0  0  0  0  0  0  0  0  0  0  0  0
  -28.6177  -26.4057   22.0850 C   0  0  0  0  0  0  0  0  0  0  0  0
  -20.7358   -6.8468   23.3424 C   0  0  0  0  0  0  0  0  0  0  0  0
  -20.3956   -6.3201   24.5884 C   0  0  0  0  0  0  0  0  0  0  0  0
  -26.2714  -26.0822   21.6274 C   0  0  0  0  0  0  0  0  0  0  0  0
  -27.9028  -21.0102   18.1477 C   0  0  0  0  0  0  0  0  0  0  0  0
  -21.5789   -4.2835   24.0506 C   0  0  0  0  0  0  0  0  0  0  0  0
  -28.8781  -23.0903   19.6200 C   0  0  0  0  0  0  0  0  0  0  0  0
  -24.0671  -10.1152   21.1463 C   0  0  0  0  0  0  0  0  0  0  0  0
  -25.9616  -11.6088   20.3169 C   0  0  0  0  0  0  0  0  0  0  0  0
  -27.7869  -34.0454   23.9264 C   0  0  0  0  0  0  0  0  0  0  0  0
  -27.3580  -28.1292   20.9284 C   0  0  0  0  0  0  0  0  0  0  0  0
  -27.3746  -32.6992   23.9076 C   0  0  0  0  0  0  0  0  0  0  0  0
  -26.2050  -27.3344   20.9976 C   0  0  0  0  0  0  0  0  0  0  0  0
  -27.9831  -20.8886   19.5305 C   0  0  0  0  0  0  0  0  0  0  0  0
  -28.4788  -21.9439   20.2880 C   0  0  0  0  0  0  0  0  0  0  0  0
  -22.5670   -7.7636   21.1922 C   0  0  0  0  0  0  0  0  0  0  0  0
  -27.4709  -25.6215   22.1695 C   0  0  0  0  0  0  0  0  0  0  0  0
  -21.4974   -6.0918   22.4504 C   0  0  0  0  0  0  0  0  0  0  0  0
  -20.8172   -5.0385   24.9425 C   0  0  0  0  0  0  0  0  0  0  0  0
  -21.9190   -4.8102   22.8046 C   0  0  0  0  0  0  0  0  0  0  0  0
  -24.8412  -11.3302   21.1226 C   0  0  0  0  0  0  0  0  0  0  0  0
  -28.3276  -22.1984   17.5755 C   0  0  0  0  0  0  0  0  0  0  0  0
  -26.3293  -12.8843   20.6694 C   0  0  0  0  0  0  0  0  0  0  0  0
  -26.6117  -10.7879   19.3375 C   0  0  0  0  0  0  0  0  0  0  0  0
  -25.4793  -30.6272   21.5061 C   0  0  0  0  0  0  0  0  0  0  0  0
  -23.8838  -29.5358   18.9012 C   0  0  0  0  0  0  0  0  0  0  0  0
  -23.1214  -26.9081   16.8614 C   0  0  0  0  0  0  0  0  0  0  0  0
  -25.0131  -18.1760   21.8570 C   0  0  0  0  0  0  0  0  0  0  0  0
  -26.9126  -35.1504   23.3887 C   0  0  0  0  0  0  0  0  0  0  0  0
  -27.3221  -29.4649   20.2377 C   0  0  0  0  0  0  0  0  0  0  0  0
  -24.8909  -27.7914   20.4206 C   0  0  0  0  0  0  0  0  0  0  0  0
  -25.8041  -34.6546   22.4637 C   0  0  0  0  0  0  0  0  0  0  0  0
  -24.8085  -15.8073   24.5073 C   0  0  0  0  0  0  0  0  0  0  0  0
  -25.0963  -33.4503   23.0765 C   0  0  0  0  0  0  0  0  0  0  0  0
  -24.8848  -14.4552   23.7961 C   0  0  0  0  0  0  0  0  0  0  0  0
  -24.0260  -16.8321   23.6889 C   0  0  0  0  0  0  0  0  0  0  0  0
  -24.5767  -15.6589   21.5927 C   0  0  0  0  0  0  0  0  0  0  0  0
  -26.0675  -32.2796   23.2709 C   0  0  1  0  0  0  0  0  0  0  0  0
  -25.9235  -30.0717   20.1826 C   0  0  1  0  0  0  0  0  0  0  0  0
  -25.4039  -14.6088   22.3538 C   0  0  2  0  0  0  0  0  0  0  0  0
  -28.2563  -22.3640   16.0942 C   0  0  0  0  0  0  0  0  0  0  0  0
  -30.2094  -16.5063   23.3756 C   0  0  0  0  0  0  0  0  0  0  0  0
  -21.7617  -26.3155   14.8372 C   0  0  0  0  0  0  0  0  0  0  0  0
  -31.2848  -19.0245   21.9733 C   0  0  0  0  0  0  0  0  0  0  0  0
  -21.3502  -29.5523   20.6013 C   0  0  0  0  0  0  0  0  0  0  0  0
  -20.2681  -28.0933   18.8783 C   0  0  0  0  0  0  0  0  0  0  0  0
  -21.0427  -30.3832   18.2626 C   0  0  0  0  0  0  0  0  0  0  0  0
  -25.5295  -26.1241   15.3300 C   0  0  0  0  0  0  0  0  0  0  0  0
  -30.6862  -17.6706   19.2877 C   0  0  0  0  0  0  0  0  0  0  0  0
  -28.5883  -21.8658   21.7898 C   0  0  0  0  0  0  0  0  0  0  0  0
  -30.0515  -16.8205   21.8939 C   0  0  0  0  0  0  0  0  0  0  0  0
  -27.2512  -22.0347   22.5145 C   0  0  0  0  0  0  0  0  0  0  0  0
  -26.0204  -19.3839   19.9372 C   0  0  0  0  0  0  0  0  0  0  0  0
  -28.3390  -18.3768   19.7263 C   0  0  0  0  0  0  0  0  0  0  0  0
  -26.6186  -23.4053   22.3028 C   0  0  0  0  0  0  0  0  0  1  0  0
  -27.5329  -19.6211   20.1780 C   0  0  1  0  0  0  0  0  0  0  0  0
  -22.7512  -28.5648   18.6705 C   0  0  1  0  0  0  0  0  0  0  0  0
  -23.1181  -26.7746   15.3493 C   0  0  2  0  0  0  0  0  0  0  0  0
  -29.9905  -18.3199   21.5891 C   0  0  2  0  0  0  0  0  0  0  0  0
  -21.3772  -29.1403   19.1158 C   0  0  0  0  0  0  0  0  0  0  0  0
  -28.8150  -23.2453   18.2785 N   0  0  0  0  0  0  0  0  0  0  0  0
  -24.5185  -12.3469   21.9264 N   0  0  0  0  0  0  0  0  0  0  0  0
  -25.4417  -13.2768   21.6276 N   0  0  0  0  0  0  0  0  0  0  0  0
  -24.9053  -29.1075   19.7608 N   0  0  0  0  0  0  0  0  0  0  0  0
  -24.5697  -16.9308   22.3322 N   0  0  0  0  0  0  0  0  0  0  0  0
  -27.3222  -13.6972   20.2501 N   0  0  0  0  0  0  0  0  0  0  0  0
  -26.1041   -9.5035   19.0989 N   0  0  0  0  0  0  0  0  0  0  0  0
  -26.3098  -31.6093   22.0114 N   0  0  0  0  0  0  0  0  0  0  0  0
  -22.8142  -28.1913   17.2616 N   0  0  0  0  0  0  0  0  0  0  0  0
  -25.5198  -18.1804   20.5632 N   0  0  0  0  0  0  0  0  0  0  0  0
  -24.1441  -25.7852   14.9143 N   0  3  0  0  0  0  0  0  0  0  0  0
  -29.7654  -18.5336   20.1133 N   0  3  1  0  0  0  0  0  0  0  0  0
  -27.6230  -11.1757   18.7047 O   0  0  0  0  0  0  0  0  0  0  0  0
  -24.4578  -30.1978   22.0295 O   0  0  0  0  0  0  0  0  0  0  0  0
  -23.8666  -30.6309   18.3338 O   0  0  0  0  0  0  0  0  0  0  0  0
  -23.3679  -25.9671   17.6126 O   0  0  0  0  0  0  0  0  0  0  0  0
  -24.9662  -19.2065   22.5374 O   0  0  0  0  0  0  0  0  0  0  0  0
  -21.8349   -6.6163   21.2141 O   0  0  0  0  0  0  0  0  0  0  0  0
  -27.5211  -24.4043   22.7760 O   0  0  0  0  0  0  0  0  0  1  0  0
  -20.4918   -4.5335   26.1397 F   0  0  0  0  0  0  0  0  0  0  0  0
  -22.6519   -4.0805   21.9524 F   0  0  0  0  0  0  0  0  0  0  0  0
  1  2  1  0  0  0  0
  1  5  2  0  0  0  0
  2  6  2  0  0  0  0
  3  8  2  0  0  0  0
  3 17  1  0  0  0  0
  4  9  1  0  0  0  0
  4 17  2  0  0  0  0
  5 19  1  0  0  0  0
  6 21  1  0  0  0  0
  7 10  2  0  0  0  0
  7 20  1  0  0  0  0
  8 25  1  0  0  0  0
  9 25  2  0  0  0  0
 10 26  1  0  0  0  0
 11 12  2  0  0  0  0
 11 27  1  0  0  0  0
 12 28  1  0  0  0  0
 13 22  1  0  0  0  0
 13 26  2  0  0  0  0
 14 23  1  0  0  0  0
 14 31  2  0  0  0  0
 15 28  2  0  0  0  0
 15 29  1  0  0  0  0
 16 24  1  0  0  0  0
 16 70  2  0  0  0  0
 17 30  1  0  0  0  0
 18 30  1  0  0  0  0
 18 32  2  0  0  0  0
 18 33  1  0  0  0  0
 19 21  2  0  0  0  0
 19 38  1  0  0  0  0
 20 22  2  0  0  0  0
 20 39  1  0  0  0  0
 21 47  1  0  0  0  0
 22 40  1  0  0  0  0
 23 24  2  0  0  0  0
 23 65  1  0  0  0  0
 24 59  1  0  0  0  0
 25 87  1  0  0  0  0
 26 88  1  0  0  0  0
 27 29  2  0  0  0  0
 27 87  1  0  0  0  0
 28 89  1  0  0  0  0
 29 90  1  0  0  0  0
 30 71  2  0  0  0  0
 31 50  1  0  0  0  0
 31 70  1  0  0  0  0
 32 72  1  0  0  0  0
 32 75  1  0  0  0  0
 33 76  1  0  0  0  0
 33 82  2  0  0  0  0
 34 48  1  0  0  0  0
 34 77  1  0  0  0  0
 34 83  2  0  0  0  0
 35 66  1  0  0  0  0
 35 73  1  0  0  0  0
 35 84  2  0  0  0  0
 36 67  1  0  0  0  0
 36 78  1  0  0  0  0
 36 85  2  0  0  0  0
 37 74  1  0  0  0  0
 37 79  1  0  0  0  0
 37 86  2  0  0  0  0
 38 41  1  0  0  0  0
 39 48  1  0  0  0  0
 40 73  1  0  0  0  0
 41 43  1  0  0  0  0
 42 44  1  0  0  0  0
 42 45  1  0  0  0  0
 43 47  1  0  0  0  0
 44 49  1  0  0  0  0
 45 74  1  0  0  0  0
 46 49  1  0  0  0  0
 46 74  1  0  0  0  0
 47 77  1  0  0  0  0
 48 73  1  0  0  0  0
 49 72  1  0  0  0  0
 51 60  1  0  0  0  0
 52 67  1  0  0  0  0
 53 68  1  0  0  0  0
 54 69  1  0  0  0  0
 55 69  1  0  0  0  0
 56 69  1  0  0  0  0
 57 80  1  0  0  0  0
 58 81  1  0  0  0  0
 59 61  1  0  0  0  0
 60 68  1  0  0  0  0
 61 64  1  0  0  0  0
 62 65  1  0  0  0  0
 62 79  1  0  0  0  0
 63 65  1  0  0  0  0
 63 81  1  0  0  0  0
 64 88  1  0  0  0  0
 66 69  1  0  0  0  0
 66 78  1  0  0  0  0
 67 80  1  0  0  0  0
 68 81  1  0  0  0  0
 71 72  1  0  0  0  0
M  CHG  2  80   1  81   1
M  ISO  4  37 100  64 101  79 100  88 101
M  END
> <Batch ID>
0097

> <Smiles>
CCC(C)N(C)CC(C[100NH:0][100C:0](=O)N1CCCC(n2nc(-c3ccc(Oc4ccc(F)cc4F)cc3)c(C(N)=O)c2N)C1)c1cc(C)ncc1CC[101CH2:1][101O:1]c1ccc2c(c1)CN(C(=O)C(NC(=O)C(C)NC)C(C)(C)C)C(C(=O)NC1CCCc3ccccc31)C2

> <Shape>
0.303

> <Color>
0.086

> <Negative vol penalty>
0.000

$$$$

  -OEChem-04052319263D

 87 95  0     1  0  0  0  0  0999 V2000
  -17.4237  -17.4361   24.6139 C   0  0  0  0  0  0  0  0  0  0  0  0
  -17.3959  -18.7902   24.9315 C   0  0  0  0  0  0  0  0  0  0  0  0
  -29.3888  -18.1080   19.5191 C   0  0  0  0  0  0  0  0  0  0  0  0
  -30.9861  -18.3711   21.3126 C   0  0  0  0  0  0  0  0  0  0  0  0
  -18.5538  -16.8859   24.0104 C   0  0  0  0  0  0  0  0  0  0  0  0
  -18.4986  -19.5948   24.6469 C   0  0  0  0  0  0  0  0  0  0  0  0
  -20.1795  -26.2921   22.7397 C   0  0  0  0  0  0  0  0  0  0  0  0
  -29.7754  -16.7761   19.3702 C   0  0  0  0  0  0  0  0  0  0  0  0
  -31.3726  -17.0392   21.1637 C   0  0  0  0  0  0  0  0  0  0  0  0
  -20.9997  -27.3496   23.1306 C   0  0  0  0  0  0  0  0  0  0  0  0
  -30.0874  -13.2062   18.7590 C   0  0  0  0  0  0  0  0  0  0  0  0
  -29.0810  -12.2508   18.6177 C   0  0  0  0  0  0  0  0  0  0  0  0
  -22.8665  -26.3063   22.0144 C   0  0  0  0  0  0  0  0  0  0  0  0
  -28.9708  -29.8494   23.2486 C   0  0  0  0  0  0  0  0  0  0  0  0
  -28.1902  -12.8697   20.7765 C   0  0  0  0  0  0  0  0  0  0  0  0
  -29.9942  -18.9056   20.4903 C   0  0  0  0  0  0  0  0  0  0  0  0
  -28.5781  -20.7839   21.4771 C   0  0  0  0  0  0  0  0  0  0  0  0
  -19.6672  -17.6861   23.7095 C   0  0  0  0  0  0  0  0  0  0  0  0
  -20.7000  -25.2266   21.9913 C   0  0  0  0  0  0  0  0  0  0  0  0
  -19.6452  -19.0545   24.0401 C   0  0  0  0  0  0  0  0  0  0  0  0
  -22.0502  -25.2377   21.6132 C   0  0  0  0  0  0  0  0  0  0  0  0
  -27.7502  -30.4519   22.9648 C   0  0  0  0  0  0  0  0  0  0  0  0
  -27.0159  -30.0353   21.8600 C   0  0  0  0  0  0  0  0  0  0  0  0
  -30.7672  -16.2417   20.1925 C   0  0  0  0  0  0  0  0  0  0  0  0
  -22.3440  -27.3554   22.7704 C   0  0  0  0  0  0  0  0  0  0  0  0
  -30.1452  -13.9933   19.9092 C   0  0  0  0  0  0  0  0  0  0  0  0
  -28.1324  -12.0825   19.6264 C   0  0  0  0  0  0  0  0  0  0  0  0
  -29.1966  -13.8251   20.9179 C   0  0  0  0  0  0  0  0  0  0  0  0
  -29.5958  -20.2817   20.6441 C   0  0  0  0  0  0  0  0  0  0  0  0
  -29.4093  -28.8429   22.4034 C   0  0  0  0  0  0  0  0  0  0  0  0
  -27.5420  -29.0206   21.0768 C   0  0  0  0  0  0  0  0  0  0  0  0
  -28.5969  -22.1404   21.2624 C   0  0  0  0  0  0  0  0  0  0  0  0
  -27.6947  -20.0867   22.3655 C   0  0  0  0  0  0  0  0  0  0  0  0
  -21.0217  -22.0998   22.4639 C   0  0  0  0  0  0  0  0  0  0  0  0
  -22.0295  -22.1322   19.3808 C   0  0  0  0  0  0  0  0  0  0  0  0
  -23.3839  -23.8987   16.7939 C   0  0  0  0  0  0  0  0  0  0  0  0
  -31.3915  -26.9307   20.6390 C   0  0  0  0  0  0  0  0  0  0  0  0
  -20.8844  -17.0368   23.0999 C   0  0  0  0  0  0  0  0  0  0  0  0
  -19.7960  -24.1065   21.5548 C   0  0  0  0  0  0  0  0  0  0  0  0
  -22.6532  -24.1278   20.7929 C   0  0  0  0  0  0  0  0  0  0  0  0
  -21.8660  -18.0343   22.4903 C   0  0  0  0  0  0  0  0  0  0  0  0
  -30.9911  -24.8853   17.7524 C   0  0  0  0  0  0  0  0  0  0  0  0
  -22.1099  -19.1964   23.4478 C   0  0  0  0  0  0  0  0  0  0  0  0
  -30.5147  -23.5456   18.3166 C   0  0  0  0  0  0  0  0  0  0  0  0
  -32.0084  -25.5557   18.6731 C   0  0  0  0  0  0  0  0  0  0  0  0
  -31.0891  -24.3802   20.6344 C   0  0  0  0  0  0  0  0  0  0  0  0
  -20.8121  -19.9649   23.7246 C   0  0  1  0  0  0  0  0  0  0  0  0
  -20.5507  -22.8205   21.2325 C   0  0  1  0  0  0  0  0  0  0  0  0
  -30.0200  -23.6926   19.7682 C   0  0  2  0  0  0  0  0  0  0  0  0
  -27.3691  -27.2208   19.3398 C   0  0  0  0  0  0  0  0  0  0  0  0
  -28.3675  -33.4524   22.5652 C   0  0  0  0  0  0  0  0  0  0  0  0
  -26.9952  -31.0240   25.2871 C   0  0  0  0  0  0  0  0  0  0  0  0
  -24.1246  -23.6450   14.4096 C   0  0  0  0  0  0  0  0  0  0  0  0
  -24.5454  -20.6831   20.3190 C   0  0  0  0  0  0  0  0  0  0  0  0
  -25.6267  -21.2999   18.1468 C   0  0  0  0  0  0  0  0  0  0  0  0
  -23.6015  -19.8434   18.1607 C   0  0  0  0  0  0  0  0  0  0  0  0
  -21.4297  -25.9113   15.8509 C   0  0  0  0  0  0  0  0  0  0  0  0
  -25.6881  -30.6684   21.5288 C   0  0  0  0  0  0  0  0  0  0  0  0
  -26.7986  -28.5294   19.8778 C   0  0  0  0  0  0  0  0  0  0  0  0
  -30.7141  -28.1728   22.6780 C   0  0  0  0  0  0  0  0  0  0  0  0
  -28.1871  -32.7807   23.9211 C   0  0  0  0  0  0  0  0  0  0  0  0
  -24.5410  -30.1992   22.4264 C   0  0  0  0  0  0  0  0  0  0  0  0
  -24.2378  -28.7116   22.2907 C   0  0  0  0  0  0  0  0  0  1  0  0
  -27.2538  -31.5414   23.8568 C   0  0  1  0  0  0  0  0  0  0  0  0
  -23.3627  -22.3033   18.6935 C   0  0  1  0  0  0  0  0  0  0  0  0
  -22.9785  -24.0206   15.3360 C   0  0  2  0  0  0  0  0  0  0  0  0
  -24.2735  -21.0526   18.8471 C   0  0  0  0  0  0  0  0  0  0  0  0
  -30.2158  -21.2409   19.9518 N   0  0  0  0  0  0  0  0  0  0  0  0
  -28.7239  -28.4114   21.3210 N   0  0  0  0  0  0  0  0  0  0  0  0
  -29.5860  -22.3596   20.3493 N   0  0  0  0  0  0  0  0  0  0  0  0
  -21.7300  -23.0519   20.3958 N   0  0  0  0  0  0  0  0  0  0  0  0
  -31.4771  -25.6661   20.0337 N   0  0  0  0  0  0  0  0  0  0  0  0
  -27.8637  -23.1551   21.7675 N   0  0  0  0  0  0  0  0  0  0  0  0
  -27.8107  -18.6935   22.4656 N   0  0  0  0  0  0  0  0  0  0  0  0
  -20.4913  -20.8324   22.6114 N   0  0  0  0  0  0  0  0  0  0  0  0
  -23.0662  -22.6603   17.3104 N   0  0  0  0  0  0  0  0  0  0  0  0
  -30.8705  -26.9471   21.9271 N   0  0  0  0  0  0  0  0  0  0  0  0
  -22.5648  -25.4190   15.0287 N   0  3  0  0  0  0  0  0  0  0  0  0
  -26.8174  -20.6796   23.0379 O   0  0  0  0  0  0  0  0  0  0  0  0
  -21.8093  -22.6520   23.2231 O   0  0  0  0  0  0  0  0  0  0  0  0
  -21.2784  -21.2207   19.0250 O   0  0  0  0  0  0  0  0  0  0  0  0
  -23.9313  -24.8094   17.4115 O   0  0  0  0  0  0  0  0  0  0  0  0
  -31.7476  -27.9690   20.0715 O   0  0  0  0  0  0  0  0  0  0  0  0
  -31.1445  -14.9419   20.0477 O   0  0  0  0  0  0  0  0  0  0  0  0
  -23.1470  -28.3860   23.1511 O   0  0  0  0  0  0  0  0  0  1  0  0
  -27.1651  -11.1661   19.4898 F   0  0  0  0  0  0  0  0  0  0  0  0
  -29.2464  -14.5791   22.0246 F   0  0  0  0  0  0  0  0  0  0  0  0
  1  2  1  0  0  0  0
  1  5  2  0  0  0  0
  2  6  2  0  0  0  0
  3  8  2  0  0  0  0
  3 16  1  0  0  0  0
  4  9  1  0  0  0  0
  4 16  2  0  0  0  0
  5 18  1  0  0  0  0
  6 20  1  0  0  0  0
  7 10  2  0  0  0  0
  7 19  1  0  0  0  0
  8 24  1  0  0  0  0
  9 24  2  0  0  0  0
 10 25  1  0  0  0  0
 11 12  2  0  0  0  0
 11 26  1  0  0  0  0
 12 27  1  0  0  0  0
 13 21  1  0  0  0  0
 13 25  2  0  0  0  0
 14 22  2  0  0  0  0
 14 30  1  0  0  0  0
 15 27  2  0  0  0  0
 15 28  1  0  0  0  0
 16 29  1  0  0  0  0
 17 29  1  0  0  0  0
 17 32  2  0  0  0  0
 17 33  1  0  0  0  0
 18 20  2  0  0  0  0
 18 38  1  0  0  0  0
 19 21  2  0  0  0  0
 19 39  1  0  0  0  0
 20 47  1  0  0  0  0
 21 40  1  0  0  0  0
 22 23  1  0  0  0  0
 22 64  1  0  0  0  0
 23 31  2  0  0  0  0
 23 58  1  0  0  0  0
 24 84  1  0  0  0  0
 25 85  1  0  0  0  0
 26 28  2  0  0  0  0
 26 84  1  0  0  0  0
 27 86  1  0  0  0  0
 28 87  1  0  0  0  0
 29 68  2  0  0  0  0
 30 60  1  0  0  0  0
 30 69  2  0  0  0  0
 31 59  1  0  0  0  0
 31 69  1  0  0  0  0
 32 70  1  0  0  0  0
 32 73  1  0  0  0  0
 33 74  1  0  0  0  0
 33 79  2  0  0  0  0
 34 48  1  0  0  0  0
 34 75  1  0  0  0  0
 34 80  2  0  0  0  0
 35 65  1  0  0  0  0
 35 71  1  0  0  0  0
 35 81  2  0  0  0  0
 36 66  1  0  0  0  0
 36 76  1  0  0  0  0
 36 82  2  0  0  0  0
 37 72  1  0  0  0  0
 37 77  1  0  0  0  0
 37 83  2  0  0  0  0
 38 41  1  0  0  0  0
 39 48  1  0  0  0  0
 40 71  1  0  0  0  0
 41 43  1  0  0  0  0
 42 44  1  0  0  0  0
 42 45  1  0  0  0  0
 43 47  1  0  0  0  0
 44 49  1  0  0  0  0
 45 72  1  0  0  0  0
 46 49  1  0  0  0  0
 46 72  1  0  0  0  0
 47 75  1  0  0  0  0
 48 71  1  0  0  0  0
 49 70  1  0  0  0  0
 50 59  1  0  0  0  0
 51 61  1  0  0  0  0
 52 64  1  0  0  0  0
 53 66  1  0  0  0  0
 54 67  1  0  0  0  0
 55 67  1  0  0  0  0
 56 67  1  0  0  0  0
 57 78  1  0  0  0  0
 58 62  1  0  0  0  0
 60 77  1  0  0  0  0
 61 64  1  0  0  0  0
 62 63  1  0  0  0  0
 63 85  1  0  0  0  0
 65 67  1  0  0  0  0
 65 76  1  0  0  0  0
 66 78  1  0  0  0  0
 68 70  1  0  0  0  0
M  CHG  1  78   1
M  ISO  4  37 100  63 101  77 100  85 101
M  END
> <Batch ID>
0097

> <Smiles>
CCc1nc(C[100NH:0][100C:0](=O)N2CCCC(n3nc(-c4ccc(Oc5ccc(F)cc5F)cc4)c(C(N)=O)c3N)C2)cc(C(C)CC)c1CC[101CH2:1][101O:1]c1ccc2c(c1)CN(C(=O)C(NC(=O)C(C)NC)C(C)(C)C)C(C(=O)NC1CCCc3ccccc31)C2

> <Shape>
0.237

> <Color>
0.059

> <Negative vol penalty>
0.000

$$$$

  -OEChem-04052319263D

 89 97  0     1  0  0  0  0  0999 V2000
  -19.2532  -27.1470   23.6286 C   0  0  0  0  0  0  0  0  0  0  0  0
  -20.0648  -26.0418   23.3936 C   0  0  0  0  0  0  0  0  0  0  0  0
  -24.1629   -9.6154   21.5634 C   0  0  0  0  0  0  0  0  0  0  0  0
  -24.6398  -10.7828   23.6241 C   0  0  0  0  0  0  0  0  0  0  0  0
  -19.3675  -28.2785   22.8219 C   0  0  0  0  0  0  0  0  0  0  0  0
  -20.9906  -26.0670   22.3511 C   0  0  0  0  0  0  0  0  0  0  0  0
  -25.5137  -24.2507   23.7250 C   0  0  0  0  0  0  0  0  0  0  0  0
  -23.7571   -8.4967   22.2909 C   0  0  0  0  0  0  0  0  0  0  0  0
  -24.2340   -9.6641   24.3518 C   0  0  0  0  0  0  0  0  0  0  0  0
  -25.6472  -22.8650   23.8004 C   0  0  0  0  0  0  0  0  0  0  0  0
  -21.0219   -7.5025   24.0123 C   0  0  0  0  0  0  0  0  0  0  0  0
  -19.8423   -6.8685   23.6224 C   0  0  0  0  0  0  0  0  0  0  0  0
  -26.7134  -22.8560   21.6366 C   0  0  0  0  0  0  0  0  0  0  0  0
  -21.0715   -4.8274   23.2225 C   0  0  0  0  0  0  0  0  0  0  0  0
  -30.5423  -18.4393   19.1217 C   0  0  0  0  0  0  0  0  0  0  0  0
  -24.6043  -10.7585   22.2299 C   0  0  0  0  0  0  0  0  0  0  0  0
  -24.2213  -12.9903   21.0553 C   0  0  0  0  0  0  0  0  0  0  0  0
  -20.3018  -28.3212   21.7751 C   0  0  0  0  0  0  0  0  0  0  0  0
  -25.9699  -24.9495   22.5981 C   0  0  0  0  0  0  0  0  0  0  0  0
  -21.1165  -27.1996   21.5289 C   0  0  0  0  0  0  0  0  0  0  0  0
  -26.5868  -24.2509   21.5504 C   0  0  0  0  0  0  0  0  0  0  0  0
  -31.9143  -18.5600   19.1010 C   0  0  0  0  0  0  0  0  0  0  0  0
  -32.3905  -18.1961   20.3847 C   0  0  0  0  0  0  0  0  0  0  0  0
  -23.7927   -8.5210   23.6851 C   0  0  0  0  0  0  0  0  0  0  0  0
  -26.2445  -22.1671   22.7549 C   0  0  0  0  0  0  0  0  0  0  0  0
  -22.2264   -6.7990   24.0073 C   0  0  0  0  0  0  0  0  0  0  0  0
  -19.8671   -5.5310   23.2275 C   0  0  0  0  0  0  0  0  0  0  0  0
  -22.2512   -5.4614   23.6124 C   0  0  0  0  0  0  0  0  0  0  0  0
  -25.0241  -11.9142   21.4789 C   0  0  0  0  0  0  0  0  0  0  0  0
  -31.2950  -17.8638   21.1507 C   0  0  0  0  0  0  0  0  0  0  0  0
  -25.0862  -13.8210   20.3856 C   0  0  0  0  0  0  0  0  0  0  0  0
  -22.8193  -13.2187   21.2499 C   0  0  0  0  0  0  0  0  0  0  0  0
  -24.5984  -26.7588   20.3734 C   0  0  0  0  0  0  0  0  0  0  0  0
  -27.6652  -27.2517   19.4384 C   0  0  0  0  0  0  0  0  0  0  0  0
  -30.8911  -26.1393   19.3814 C   0  0  0  0  0  0  0  0  0  0  0  0
  -31.0058  -14.6607   20.7091 C   0  0  0  0  0  0  0  0  0  0  0  0
  -20.3561  -29.5485   20.9002 C   0  0  0  0  0  0  0  0  0  0  0  0
  -25.8426  -26.4472   22.5439 C   0  0  0  0  0  0  0  0  0  0  0  0
  -27.1116  -24.9564   20.3276 C   0  0  0  0  0  0  0  0  0  0  0  0
  -21.6222  -29.6364   20.0520 C   0  0  0  0  0  0  0  0  0  0  0  0
  -29.1282  -13.7412   17.8270 C   0  0  0  0  0  0  0  0  0  0  0  0
  -21.9093  -28.2969   19.3810 C   0  0  0  0  0  0  0  0  0  0  0  0
  -27.7911  -13.2658   18.3979 C   0  0  0  0  0  0  0  0  0  0  0  0
  -30.2974  -13.3517   18.7289 C   0  0  0  0  0  0  0  0  0  0  0  0
  -28.8264  -13.3017   20.7056 C   0  0  0  0  0  0  0  0  0  0  0  0
  -22.1499  -27.1981   20.4233 C   0  0  1  0  0  0  0  0  0  0  0  0
  -25.8789  -26.9989   21.1220 C   0  0  1  0  0  0  0  0  0  0  0  0
  -27.6120  -13.7199   19.8591 C   0  0  2  0  0  0  0  0  0  0  0  0
  -33.8012  -18.1759   20.8235 C   0  0  0  0  0  0  0  0  0  0  0  0
  -33.3622  -26.1842   18.9468 C   0  0  0  0  0  0  0  0  0  0  0  0
  -33.4005  -22.5439   16.4230 C   0  0  0  0  0  0  0  0  0  0  0  0
  -35.0087  -20.6477   16.7033 C   0  0  0  0  0  0  0  0  0  0  0  0
  -24.3056  -19.7533   22.2433 C   0  0  0  0  0  0  0  0  0  0  0  0
  -26.8222  -26.3704   16.6415 C   0  0  0  0  0  0  0  0  0  0  0  0
  -29.2442  -26.0752   16.0802 C   0  0  0  0  0  0  0  0  0  0  0  0
  -28.3739  -28.3309   16.6941 C   0  0  0  0  0  0  0  0  0  0  0  0
  -31.4432  -27.4304   21.9866 C   0  0  0  0  0  0  0  0  0  0  0  0
  -32.7282  -18.9912   17.9469 C   0  0  0  0  0  0  0  0  0  0  0  0
  -31.2151  -17.4146   22.5568 C   0  0  0  0  0  0  0  0  0  0  0  0
  -32.6729  -20.5194   17.7212 C   0  0  0  0  0  0  0  0  0  0  0  0
  -27.9566  -19.0370   21.0920 C   0  0  0  0  0  0  0  0  0  0  0  0
  -26.5199  -18.7543   21.5518 C   0  0  0  0  0  0  0  0  0  0  0  0
  -28.7559  -17.7599   20.8076 C   0  0  0  0  0  0  0  0  0  0  0  0
  -31.5733  -15.9325   22.7632 C   0  0  0  0  0  0  0  0  0  0  0  0
  -28.6164  -26.5657   18.4878 C   0  0  1  0  0  0  0  0  0  0  0  0
  -32.2037  -26.8402   19.6818 C   0  0  2  0  0  0  0  0  0  0  0  0
  -33.5345  -21.0242   16.5488 C   0  0  0  0  0  0  0  0  0  0  0  0
  -25.7352  -20.0458   21.8080 C   0  0  2  0  0  0  0  0  0  1  0  0
  -28.2527  -26.8218   16.9979 C   0  0  0  0  0  0  0  0  0  0  0  0
  -26.3007  -12.0465   21.1091 N   0  0  0  0  0  0  0  0  0  0  0  0
  -30.1770  -18.0151   20.3726 N   0  0  0  0  0  0  0  0  0  0  0  0
  -26.3067  -13.2154   20.4461 N   0  0  0  0  0  0  0  0  0  0  0  0
  -26.9580  -26.4206   20.3188 N   0  0  0  0  0  0  0  0  0  0  0  0
  -30.0659  -13.8130   20.0999 N   0  0  0  0  0  0  0  0  0  0  0  0
  -24.9140  -15.0031   19.7567 N   0  0  0  0  0  0  0  0  0  0  0  0
  -22.0793  -12.2642   21.9610 N   0  0  0  0  0  0  0  0  0  0  0  0
  -23.4830  -27.3087   20.9757 N   0  0  0  0  0  0  0  0  0  0  0  0
  -29.9557  -27.0082   18.8604 N   0  0  0  0  0  0  0  0  0  0  0  0
  -30.7066  -15.0562   22.0071 N   0  0  0  0  0  0  0  0  0  0  0  0
  -32.4905  -26.7983   21.1437 N   0  3  0  0  0  0  0  0  0  0  0  0
  -22.2367  -14.2309   20.7922 O   0  0  0  0  0  0  0  0  0  0  0  0
  -24.6210  -26.1230   19.3261 O   0  0  0  0  0  0  0  0  0  0  0  0
  -27.5590  -28.4802   19.4060 O   0  0  0  0  0  0  0  0  0  0  0  0
  -30.7144  -24.9402   19.5847 O   0  0  0  0  0  0  0  0  0  0  0  0
  -32.0325  -15.0415   20.1366 O   0  0  0  0  0  0  0  0  0  0  0  0
  -23.3966   -7.4296   24.3955 O   0  0  0  0  0  0  0  0  0  0  0  0
  -26.3755  -20.8144   22.8256 O   0  0  0  0  0  0  0  0  0  1  0  0
  -18.7339   -4.9218   22.8546 F   0  0  0  0  0  0  0  0  0  0  0  0
  -23.4051   -4.7800   23.6067 F   0  0  0  0  0  0  0  0  0  0  0  0
  1  2  1  0  0  0  0
  1  5  2  0  0  0  0
  2  6  2  0  0  0  0
  3  8  2  0  0  0  0
  3 16  1  0  0  0  0
  4  9  1  0  0  0  0
  4 16  2  0  0  0  0
  5 18  1  0  0  0  0
  6 20  1  0  0  0  0
  7 10  2  0  0  0  0
  7 19  1  0  0  0  0
  8 24  1  0  0  0  0
  9 24  2  0  0  0  0
 10 25  1  0  0  0  0
 11 12  2  0  0  0  0
 11 26  1  0  0  0  0
 12 27  1  0  0  0  0
 13 21  1  0  0  0  0
 13 25  2  0  0  0  0
 14 27  2  0  0  0  0
 14 28  1  0  0  0  0
 15 22  2  0  0  0  0
 15 71  1  0  0  0  0
 16 29  1  0  0  0  0
 17 29  1  0  0  0  0
 17 31  2  0  0  0  0
 17 32  1  0  0  0  0
 18 20  2  0  0  0  0
 18 37  1  0  0  0  0
 19 21  2  0  0  0  0
 19 38  1  0  0  0  0
 20 46  1  0  0  0  0
 21 39  1  0  0  0  0
 22 23  1  0  0  0  0
 22 58  1  0  0  0  0
 23 30  2  0  0  0  0
 23 49  1  0  0  0  0
 24 86  1  0  0  0  0
 25 87  1  0  0  0  0
 26 28  2  0  0  0  0
 26 86  1  0  0  0  0
 27 88  1  0  0  0  0
 28 89  1  0  0  0  0
 29 70  2  0  0  0  0
 30 59  1  0  0  0  0
 30 71  1  0  0  0  0
 31 72  1  0  0  0  0
 31 75  1  0  0  0  0
 32 76  1  0  0  0  0
 32 81  2  0  0  0  0
 33 47  1  0  0  0  0
 33 77  1  0  0  0  0
 33 82  2  0  0  0  0
 34 65  1  0  0  0  0
 34 73  1  0  0  0  0
 34 83  2  0  0  0  0
 35 66  1  0  0  0  0
 35 78  1  0  0  0  0
 35 84  2  0  0  0  0
 36 74  1  0  0  0  0
 36 79  1  0  0  0  0
 36 85  2  0  0  0  0
 37 40  1  0  0  0  0
 38 47  1  0  0  0  0
 39 73  1  0  0  0  0
 40 42  1  0  0  0  0
 41 43  1  0  0  0  0
 41 44  1  0  0  0  0
 42 46  1  0  0  0  0
 43 48  1  0  0  0  0
 44 74  1  0  0  0  0
 45 48  1  0  0  0  0
 45 74  1  0  0  0  0
 46 77  1  0  0  0  0
 47 73  1  0  0  0  0
 48 72  1  0  0  0  0
 50 66  1  0  0  0  0
 51 67  1  0  0  0  0
 52 67  1  0  0  0  0
 53 68  1  0  0  0  0
 54 69  1  0  0  0  0
 55 69  1  0  0  0  0
 56 69  1  0  0  0  0
 57 80  1  0  0  0  0
 58 60  1  0  0  0  0
 59 64  1  0  0  0  0
 60 67  1  0  0  0  0
 61 62  1  0  0  0  0
 61 63  1  0  0  0  0
 62 68  1  0  0  0  0
 63 71  1  0  0  0  0
 64 79  1  0  0  0  0
 65 69  1  0  0  0  0
 65 78  1  0  0  0  0
 66 80  1  0  0  0  0
 68 87  1  0  0  0  0
 70 72  1  0  0  0  0
M  CHG  1  80   1
M  ISO  4  36 100  68 101  79 100  87 101
M  END
> <Batch ID>
0097

> <Smiles>
CNC(C)C(=O)NC(C(=O)N1Cc2cc([101O:1][101CH:1](C)CCCn3cc(CCC(C)C)c(C)c3CC[100NH:0][100C:0](=O)N3CCCC(n4nc(-c5ccc(Oc6ccc(F)cc6F)cc5)c(C(N)=O)c4N)C3)ccc2CC1C(=O)NC1CCCc2ccccc21)C(C)(C)C

> <Shape>
0.273

> <Color>
0.145

> <Negative vol penalty>
0.000

$$$$

  -OEChem-04052319263D

 85 93  0     1  0  0  0  0  0999 V2000
  -21.0413  -28.7625   25.4741 C   0  0  0  0  0  0  0  0  0  0  0  0
  -21.3201  -27.4040   25.5839 C   0  0  0  0  0  0  0  0  0  0  0  0
  -28.0961  -25.5324   21.4994 C   0  0  0  0  0  0  0  0  0  0  0  0
  -25.9650  -25.4608   20.3634 C   0  0  0  0  0  0  0  0  0  0  0  0
  -20.2628  -29.2299   24.4161 C   0  0  0  0  0  0  0  0  0  0  0  0
  -20.8196  -26.5119   24.6363 C   0  0  0  0  0  0  0  0  0  0  0  0
  -22.4787  -20.3883   21.3098 C   0  0  0  0  0  0  0  0  0  0  0  0
  -27.6843  -26.6657   22.2006 C   0  0  0  0  0  0  0  0  0  0  0  0
  -25.5532  -26.5942   21.0646 C   0  0  0  0  0  0  0  0  0  0  0  0
  -21.9445  -19.1284   21.0431 C   0  0  0  0  0  0  0  0  0  0  0  0
  -26.0351  -29.9366   20.9012 C   0  0  0  0  0  0  0  0  0  0  0  0
  -25.3956  -30.9466   20.1825 C   0  0  0  0  0  0  0  0  0  0  0  0
  -20.6771  -20.0597   19.2140 C   0  0  0  0  0  0  0  0  0  0  0  0
  -24.3808  -13.7208   21.2911 C   0  0  0  0  0  0  0  0  0  0  0  0
  -23.4341  -30.6920   21.5700 C   0  0  0  0  0  0  0  0  0  0  0  0
  -27.2365  -24.9300   20.5807 C   0  0  0  0  0  0  0  0  0  0  0  0
  -28.7637  -23.6516   18.9867 C   0  0  0  0  0  0  0  0  0  0  0  0
  -19.7605  -28.3443   23.4496 C   0  0  0  0  0  0  0  0  0  0  0  0
  -22.1072  -21.4973   20.5361 C   0  0  0  0  0  0  0  0  0  0  0  0
  -20.0325  -26.9677   23.5651 C   0  0  0  0  0  0  0  0  0  0  0  0
  -21.2100  -21.3321   19.4713 C   0  0  0  0  0  0  0  0  0  0  0  0
  -23.7581  -12.5401   20.9264 C   0  0  0  0  0  0  0  0  0  0  0  0
  -26.4129  -27.1965   21.9832 C   0  0  0  0  0  0  0  0  0  0  0  0
  -21.0414  -18.9645   19.9969 C   0  0  0  0  0  0  0  0  0  0  0  0
  -25.3741  -29.3042   21.9543 C   0  0  0  0  0  0  0  0  0  0  0  0
  -24.0951  -31.3243   20.5169 C   0  0  0  0  0  0  0  0  0  0  0  0
  -24.0737  -29.6819   22.2887 C   0  0  0  0  0  0  0  0  0  0  0  0
  -27.6614  -23.7596   19.8557 C   0  0  0  0  0  0  0  0  0  0  0  0
  -25.7573  -13.7786   21.2054 C   0  0  0  0  0  0  0  0  0  0  0  0
  -24.5531  -11.4953   20.4998 C   0  0  0  0  0  0  0  0  0  0  0  0
  -28.7359  -22.3473   18.5572 C   0  0  0  0  0  0  0  0  0  0  0  0
  -29.7267  -24.6418   18.6022 C   0  0  0  0  0  0  0  0  0  0  0  0
  -20.6489  -24.2587   21.1290 C   0  0  0  0  0  0  0  0  0  0  0  0
  -21.3952  -24.8708   18.0322 C   0  0  0  0  0  0  0  0  0  0  0  0
  -22.1448  -23.6464   14.9361 C   0  0  0  0  0  0  0  0  0  0  0  0
  -26.5634  -17.4409   21.0196 C   0  0  0  0  0  0  0  0  0  0  0  0
  -18.8842  -28.8903   22.3503 C   0  0  0  0  0  0  0  0  0  0  0  0
  -22.7129  -22.8445   20.8198 C   0  0  0  0  0  0  0  0  0  0  0  0
  -20.7943  -22.4867   18.5981 C   0  0  0  0  0  0  0  0  0  0  0  0
  -18.7043  -27.9272   21.1797 C   0  0  0  0  0  0  0  0  0  0  0  0
  -25.7024  -18.7341   17.7510 C   0  0  0  0  0  0  0  0  0  0  0  0
  -18.3828  -26.5249   21.6867 C   0  0  0  0  0  0  0  0  0  0  0  0
  -26.2195  -20.1706   17.8463 C   0  0  0  0  0  0  0  0  0  0  0  0
  -25.1049  -18.2725   19.0769 C   0  0  0  0  0  0  0  0  0  0  0  0
  -26.5448  -19.8240   20.3391 C   0  0  0  0  0  0  0  0  0  0  0  0
  -19.5282  -25.9719   22.5432 C   0  0  1  0  0  0  0  0  0  0  0  0
  -21.8701  -24.0016   20.2923 C   0  0  1  0  0  0  0  0  0  0  0  0
  -27.1817  -20.3419   19.0368 C   0  0  2  0  0  0  0  0  0  0  0  0
  -23.9526  -10.1926   20.0917 C   0  0  0  0  0  0  0  0  0  0  0  0
  -21.7671  -11.9424   22.3658 C   0  0  0  0  0  0  0  0  0  0  0  0
  -22.6676  -24.3902   12.5971 C   0  0  0  0  0  0  0  0  0  0  0  0
  -18.4456  -25.5053   17.5773 C   0  0  0  0  0  0  0  0  0  0  0  0
  -18.8541  -25.3054   15.1153 C   0  0  0  0  0  0  0  0  0  0  0  0
  -20.0355  -27.0617   16.4353 C   0  0  0  0  0  0  0  0  0  0  0  0
  -24.8162  -22.3745   15.0047 C   0  0  0  0  0  0  0  0  0  0  0  0
  -26.4766  -15.0269   21.5868 C   0  0  0  0  0  0  0  0  0  0  0  0
  -20.9989  -15.4823   19.0696 C   0  0  0  0  0  0  0  0  0  0  0  0
  -21.7898  -14.2058   19.3134 C   0  0  0  0  0  0  0  0  0  0  0  0
  -21.3296  -16.6043   20.0461 C   0  0  0  0  0  0  0  0  0  1  0  0
  -22.2531  -12.4237   21.0010 C   0  0  1  0  0  0  0  0  0  0  0  0
  -20.7163  -24.6416   16.7034 C   0  0  1  0  0  0  0  0  0  0  0  0
  -23.2430  -24.0031   13.9506 C   0  0  2  0  0  0  0  0  0  0  0  0
  -19.5190  -25.6069   16.4753 C   0  0  0  0  0  0  0  0  0  0  0  0
  -26.9828  -22.6151   19.9723 N   0  0  0  0  0  0  0  0  0  0  0  0
  -26.5103  -12.7404   20.7844 N   0  0  0  0  0  0  0  0  0  0  0  0
  -25.8982  -11.5800   20.4256 N   0  0  0  0  0  0  0  0  0  0  0  0
  -27.6603  -21.7757   19.1709 N   0  0  0  0  0  0  0  0  0  0  0  0
  -21.4093  -23.7853   18.9194 N   0  0  0  0  0  0  0  0  0  0  0  0
  -26.0776  -18.4446   20.1652 N   0  0  0  0  0  0  0  0  0  0  0  0
  -29.5267  -21.6451   17.7182 N   0  0  0  0  0  0  0  0  0  0  0  0
  -29.4601  -25.4308   17.4749 N   0  0  0  0  0  0  0  0  0  0  0  0
  -20.6137  -25.5157   21.7018 N   0  0  0  0  0  0  0  0  0  0  0  0
  -21.7612  -24.7356   15.6896 N   0  0  0  0  0  0  0  0  0  0  0  0
  -26.0659  -16.1635   20.7928 N   0  0  0  0  0  0  0  0  0  0  0  0
  -24.1615  -22.8456   13.7572 N   0  3  0  0  0  0  0  0  0  0  0  0
  -21.5615  -13.7051   20.6891 N   0  3  0  0  0  0  0  0  0  0  0  0
  -30.7997  -24.8105   19.2297 O   0  0  0  0  0  0  0  0  0  0  0  0
  -19.8005  -23.3821   21.2451 O   0  0  0  0  0  0  0  0  0  0  0  0
  -21.9009  -25.9703   18.2712 O   0  0  0  0  0  0  0  0  0  0  0  0
  -21.6718  -22.5156   15.0258 O   0  0  0  0  0  0  0  0  0  0  0  0
  -27.3844  -17.6656   21.9155 O   0  0  0  0  0  0  0  0  0  0  0  0
  -26.0106  -28.3023   22.6674 O   0  0  0  0  0  0  0  0  0  0  0  0
  -20.5179  -17.7360   19.7349 O   0  0  0  0  0  0  0  0  0  1  0  0
  -23.4817  -32.2952   19.8276 F   0  0  0  0  0  0  0  0  0  0  0  0
  -23.4340  -29.0789   23.3001 F   0  0  0  0  0  0  0  0  0  0  0  0
  1  2  1  0  0  0  0
  1  5  2  0  0  0  0
  2  6  2  0  0  0  0
  3  8  2  0  0  0  0
  3 16  1  0  0  0  0
  4  9  1  0  0  0  0
  4 16  2  0  0  0  0
  5 18  1  0  0  0  0
  6 20  1  0  0  0  0
  7 10  2  0  0  0  0
  7 19  1  0  0  0  0
  8 23  1  0  0  0  0
  9 23  2  0  0  0  0
 10 24  1  0  0  0  0
 11 12  2  0  0  0  0
 11 25  1  0  0  0  0
 12 26  1  0  0  0  0
 13 21  1  0  0  0  0
 13 24  2  0  0  0  0
 14 22  1  0  0  0  0
 14 29  2  0  0  0  0
 15 26  2  0  0  0  0
 15 27  1  0  0  0  0
 16 28  1  0  0  0  0
 17 28  1  0  0  0  0
 17 31  2  0  0  0  0
 17 32  1  0  0  0  0
 18 20  2  0  0  0  0
 18 37  1  0  0  0  0
 19 21  2  0  0  0  0
 19 38  1  0  0  0  0
 20 46  1  0  0  0  0
 21 39  1  0  0  0  0
 22 30  2  0  0  0  0
 22 60  1  0  0  0  0
 23 82  1  0  0  0  0
 24 83  1  0  0  0  0
 25 27  2  0  0  0  0
 25 82  1  0  0  0  0
 26 84  1  0  0  0  0
 27 85  1  0  0  0  0
 28 64  2  0  0  0  0
 29 56  1  0  0  0  0
 29 65  1  0  0  0  0
 30 49  1  0  0  0  0
 30 66  1  0  0  0  0
 31 67  1  0  0  0  0
 31 70  1  0  0  0  0
 32 71  1  0  0  0  0
 32 77  2  0  0  0  0
 33 47  1  0  0  0  0
 33 72  1  0  0  0  0
 33 78  2  0  0  0  0
 34 61  1  0  0  0  0
 34 68  1  0  0  0  0
 34 79  2  0  0  0  0
 35 62  1  0  0  0  0
 35 73  1  0  0  0  0
 35 80  2  0  0  0  0
 36 69  1  0  0  0  0
 36 74  1  0  0  0  0
 36 81  2  0  0  0  0
 37 40  1  0  0  0  0
 38 47  1  0  0  0  0
 39 68  1  0  0  0  0
 40 42  1  0  0  0  0
 41 43  1  0  0  0  0
 41 44  1  0  0  0  0
 42 46  1  0  0  0  0
 43 48  1  0  0  0  0
 44 69  1  0  0  0  0
 45 48  1  0  0  0  0
 45 69  1  0  0  0  0
 46 72  1  0  0  0  0
 47 68  1  0  0  0  0
 48 67  1  0  0  0  0
 50 60  1  0  0  0  0
 51 62  1  0  0  0  0
 52 63  1  0  0  0  0
 53 63  1  0  0  0  0
 54 63  1  0  0  0  0
 55 75  1  0  0  0  0
 56 74  1  0  0  0  0
 57 58  1  0  0  0  0
 57 59  1  0  0  0  0
 58 76  1  0  0  0  0
 59 83  1  0  0  0  0
 60 76  1  0  0  0  0
 61 63  1  0  0  0  0
 61 73  1  0  0  0  0
 62 75  1  0  0  0  0
 64 67  1  0  0  0  0
 65 66  2  0  0  0  0
M  CHG  2  75   1  76   1
M  ISO  4  36 100  59 101  74 100  83 101
M  END
> <Batch ID>
0097

> <Smiles>
CNC(C)C(=O)NC(C(=O)N1Cc2cc([101O:1][101CH2:1]CCNC(C)c3cc(C[100NH:0][100C:0](=O)N4CCCC(n5nc(-c6ccc(Oc7ccc(F)cc7F)cc6)c(C(N)=O)c5N)C4)nnc3C)ccc2CC1C(=O)NC1CCCc2ccccc21)C(C)(C)C

> <Shape>
0.186

> <Color>
0.095

> <Negative vol penalty>
0.000

$$$$

  -OEChem-04052319263D

 89 97  0     1  0  0  0  0  0999 V2000
  -28.9648  -33.7233   25.0920 C   0  0  0  0  0  0  0  0  0  0  0  0
  -29.3074  -33.3007   23.8116 C   0  0  0  0  0  0  0  0  0  0  0  0
  -22.9798  -10.0828   19.9053 C   0  0  0  0  0  0  0  0  0  0  0  0
  -23.9000   -9.8118   22.1227 C   0  0  0  0  0  0  0  0  0  0  0  0
  -28.4086  -32.8205   25.9973 C   0  0  0  0  0  0  0  0  0  0  0  0
  -29.0950  -31.9747   23.4361 C   0  0  0  0  0  0  0  0  0  0  0  0
  -27.4083  -27.9910   17.7263 C   0  0  0  0  0  0  0  0  0  0  0  0
  -22.2351   -8.9152   20.0716 C   0  0  0  0  0  0  0  0  0  0  0  0
  -23.1552   -8.6442   22.2891 C   0  0  0  0  0  0  0  0  0  0  0  0
  -27.8610  -26.8795   17.0168 C   0  0  0  0  0  0  0  0  0  0  0  0
  -23.3470   -5.4087   21.3269 C   0  0  0  0  0  0  0  0  0  0  0  0
  -23.9934   -4.3001   21.8735 C   0  0  0  0  0  0  0  0  0  0  0  0
  -26.8205  -25.4280   18.6383 C   0  0  0  0  0  0  0  0  0  0  0  0
  -29.4180  -18.6342   21.5294 C   0  0  0  0  0  0  0  0  0  0  0  0
  -31.5544  -18.4849   20.4112 C   0  0  0  0  0  0  0  0  0  0  0  0
  -22.4203   -4.2868   23.7071 C   0  0  0  0  0  0  0  0  0  0  0  0
  -23.8123  -10.5311   20.9308 C   0  0  0  0  0  0  0  0  0  0  0  0
  -24.1896  -13.0495   21.0830 C   0  0  0  0  0  0  0  0  0  0  0  0
  -28.1803  -31.4851   25.6295 C   0  0  0  0  0  0  0  0  0  0  0  0
  -26.6663  -27.8290   18.9051 C   0  0  0  0  0  0  0  0  0  0  0  0
  -28.5364  -31.0529   24.3378 C   0  0  0  0  0  0  0  0  0  0  0  0
  -26.3573  -26.5390   19.3596 C   0  0  0  0  0  0  0  0  0  0  0  0
  -30.6367  -17.9843   21.3347 C   0  0  0  0  0  0  0  0  0  0  0  0
  -29.1169  -19.7848   20.8006 C   0  0  0  0  0  0  0  0  0  0  0  0
  -31.2533  -19.6355   19.6824 C   0  0  0  0  0  0  0  0  0  0  0  0
  -30.0345  -20.2854   19.8771 C   0  0  0  0  0  0  0  0  0  0  0  0
  -22.3228   -8.1959   21.2635 C   0  0  0  0  0  0  0  0  0  0  0  0
  -27.5696  -25.5978   17.4743 C   0  0  0  0  0  0  0  0  0  0  0  0
  -22.2372   -5.9565   21.9705 C   0  0  0  0  0  0  0  0  0  0  0  0
  -23.5301   -3.7392   23.0635 C   0  0  0  0  0  0  0  0  0  0  0  0
  -21.7739   -5.3955   23.1606 C   0  0  0  0  0  0  0  0  0  0  0  0
  -24.5822  -11.7369   20.7594 C   0  0  0  0  0  0  0  0  0  0  0  0
  -25.2664  -13.8264   20.7319 C   0  0  0  0  0  0  0  0  0  0  0  0
  -22.9612  -13.5240   21.6502 C   0  0  0  0  0  0  0  0  0  0  0  0
  -27.0925  -28.6290   21.9518 C   0  0  0  0  0  0  0  0  0  0  0  0
  -24.0657  -27.5055   22.2652 C   0  0  0  0  0  0  0  0  0  0  0  0
  -21.5862  -25.4875   21.0709 C   0  0  0  0  0  0  0  0  0  0  0  0
  -30.7670  -14.7650   20.6412 C   0  0  0  0  0  0  0  0  0  0  0  0
  -27.6205  -30.5345   26.6579 C   0  0  0  0  0  0  0  0  0  0  0  0
  -26.1624  -29.0381   19.6445 C   0  0  0  0  0  0  0  0  0  0  0  0
  -25.5469  -26.3111   20.6085 C   0  0  0  0  0  0  0  0  0  0  0  0
  -27.0812  -29.2380   26.0592 C   0  0  0  0  0  0  0  0  0  0  0  0
  -29.4213  -12.6897   18.0802 C   0  0  0  0  0  0  0  0  0  0  0  0
  -28.0727  -28.6615   25.0534 C   0  0  0  0  0  0  0  0  0  0  0  0
  -28.0130  -12.3603   18.5786 C   0  0  0  0  0  0  0  0  0  0  0  0
  -30.4248  -12.7587   19.2292 C   0  0  0  0  0  0  0  0  0  0  0  0
  -28.6392  -13.3385   20.8258 C   0  0  0  0  0  0  0  0  0  0  0  0
  -28.2985  -29.6286   23.8850 C   0  0  1  0  0  0  0  0  0  0  0  0
  -25.8533  -28.7556   21.1115 C   0  0  1  0  0  0  0  0  0  0  0  0
  -27.5812  -13.3133   19.7093 C   0  0  2  0  0  0  0  0  0  0  0  0
  -27.8053  -20.4626   21.0287 C   0  0  0  0  0  0  0  0  0  0  0  0
  -32.6057  -19.1161   17.6360 C   0  0  0  0  0  0  0  0  0  0  0  0
  -30.7252  -22.6497   19.3062 C   0  0  0  0  0  0  0  0  0  0  0  0
  -19.2380  -24.7509   21.5616 C   0  0  0  0  0  0  0  0  0  0  0  0
  -28.9836  -19.5392   15.9785 C   0  0  0  0  0  0  0  0  0  0  0  0
  -27.2199  -20.7824   17.2894 C   0  0  0  0  0  0  0  0  0  0  0  0
  -25.1013  -25.6969   24.4937 C   0  0  0  0  0  0  0  0  0  0  0  0
  -22.9992  -24.3530   24.2849 C   0  0  0  0  0  0  0  0  0  0  0  0
  -22.8817  -26.7532   24.9542 C   0  0  0  0  0  0  0  0  0  0  0  0
  -20.5855  -26.5755   18.5069 C   0  0  0  0  0  0  0  0  0  0  0  0
  -32.2531  -20.1514   18.6995 C   0  0  0  0  0  0  0  0  0  0  0  0
  -30.9583  -16.7538   22.1135 C   0  0  0  0  0  0  0  0  0  0  0  0
  -29.3426  -22.5095   16.8269 C   0  0  0  0  0  0  0  0  0  0  0  0
  -28.2844  -23.3304   17.5370 C   0  0  0  0  0  0  0  0  0  1  0  0
  -29.7082  -21.5323   19.0879 C   0  0  1  0  0  0  0  0  0  0  0  0
  -23.4504  -26.1596   22.5633 C   0  0  1  0  0  0  0  0  0  0  0  0
  -20.1124  -25.7463   20.8150 C   0  0  2  0  0  0  0  0  0  0  0  0
  -28.6144  -20.1771   17.3081 C   0  0  0  0  0  0  0  0  0  0  0  0
  -23.6251  -25.7446   24.0515 C   0  0  0  0  0  0  0  0  0  0  0  0
  -25.8124  -11.6794   20.2424 N   0  0  0  0  0  0  0  0  0  0  0  0
  -26.2021  -12.9655   20.2384 N   0  0  0  0  0  0  0  0  0  0  0  0
  -25.0822  -27.5251   21.2998 N   0  0  0  0  0  0  0  0  0  0  0  0
  -29.9566  -13.6804   20.2670 N   0  0  0  0  0  0  0  0  0  0  0  0
  -25.4947  -15.1552   20.8003 N   0  0  0  0  0  0  0  0  0  0  0  0
  -21.9597  -12.5909   21.9510 N   0  0  0  0  0  0  0  0  0  0  0  0
  -27.1879  -29.5704   22.9589 N   0  0  0  0  0  0  0  0  0  0  0  0
  -22.0614  -26.2395   22.1244 N   0  0  0  0  0  0  0  0  0  0  0  0
  -30.2455  -15.5934   21.6274 N   0  0  0  0  0  0  0  0  0  0  0  0
  -19.8122  -25.6362   19.3594 N   0  3  0  0  0  0  0  0  0  0  0  0
  -29.6077  -21.2731   17.6050 N   0  3  1  0  0  0  0  0  0  0  0  0
  -22.7515  -14.7414   21.8682 O   0  0  0  0  0  0  0  0  0  0  0  0
  -27.9015  -27.7421   21.7056 O   0  0  0  0  0  0  0  0  0  0  0  0
  -23.6544  -28.5039   22.8616 O   0  0  0  0  0  0  0  0  0  0  0  0
  -22.2486  -24.6946   20.4053 O   0  0  0  0  0  0  0  0  0  0  0  0
  -31.8709  -14.9823   20.1303 O   0  0  0  0  0  0  0  0  0  0  0  0
  -21.5961   -7.0566   21.4263 O   0  0  0  0  0  0  0  0  0  0  0  0
  -28.0108  -24.5112   16.7839 O   0  0  0  0  0  0  0  0  0  1  0  0
  -24.1500   -2.6736   23.5874 F   0  0  0  0  0  0  0  0  0  0  0  0
  -20.7075   -5.9166   23.7828 F   0  0  0  0  0  0  0  0  0  0  0  0
  1  2  1  0  0  0  0
  1  5  2  0  0  0  0
  2  6  2  0  0  0  0
  3  8  2  0  0  0  0
  3 17  1  0  0  0  0
  4  9  1  0  0  0  0
  4 17  2  0  0  0  0
  5 19  1  0  0  0  0
  6 21  1  0  0  0  0
  7 10  2  0  0  0  0
  7 20  1  0  0  0  0
  8 27  1  0  0  0  0
  9 27  2  0  0  0  0
 10 28  1  0  0  0  0
 11 12  2  0  0  0  0
 11 29  1  0  0  0  0
 12 30  1  0  0  0  0
 13 22  1  0  0  0  0
 13 28  2  0  0  0  0
 14 23  1  0  0  0  0
 14 24  2  0  0  0  0
 15 23  2  0  0  0  0
 15 25  1  0  0  0  0
 16 30  2  0  0  0  0
 16 31  1  0  0  0  0
 17 32  1  0  0  0  0
 18 32  1  0  0  0  0
 18 33  2  0  0  0  0
 18 34  1  0  0  0  0
 19 21  2  0  0  0  0
 19 39  1  0  0  0  0
 20 22  2  0  0  0  0
 20 40  1  0  0  0  0
 21 48  1  0  0  0  0
 22 41  1  0  0  0  0
 23 62  1  0  0  0  0
 24 26  1  0  0  0  0
 24 51  1  0  0  0  0
 25 26  2  0  0  0  0
 25 61  1  0  0  0  0
 26 65  1  0  0  0  0
 27 86  1  0  0  0  0
 28 87  1  0  0  0  0
 29 31  2  0  0  0  0
 29 86  1  0  0  0  0
 30 88  1  0  0  0  0
 31 89  1  0  0  0  0
 32 70  2  0  0  0  0
 33 71  1  0  0  0  0
 33 74  1  0  0  0  0
 34 75  1  0  0  0  0
 34 81  2  0  0  0  0
 35 49  1  0  0  0  0
 35 76  1  0  0  0  0
 35 82  2  0  0  0  0
 36 66  1  0  0  0  0
 36 72  1  0  0  0  0
 36 83  2  0  0  0  0
 37 67  1  0  0  0  0
 37 77  1  0  0  0  0
 37 84  2  0  0  0  0
 38 73  1  0  0  0  0
 38 78  1  0  0  0  0
 38 85  2  0  0  0  0
 39 42  1  0  0  0  0
 40 49  1  0  0  0  0
 41 72  1  0  0  0  0
 42 44  1  0  0  0  0
 43 45  1  0  0  0  0
 43 46  1  0  0  0  0
 44 48  1  0  0  0  0
 45 50  1  0  0  0  0
 46 73  1  0  0  0  0
 47 50  1  0  0  0  0
 47 73  1  0  0  0  0
 48 76  1  0  0  0  0
 49 72  1  0  0  0  0
 50 71  1  0  0  0  0
 52 61  1  0  0  0  0
 53 65  1  0  0  0  0
 54 67  1  0  0  0  0
 55 68  1  0  0  0  0
 56 68  1  0  0  0  0
 57 69  1  0  0  0  0
 58 69  1  0  0  0  0
 59 69  1  0  0  0  0
 60 79  1  0  0  0  0
 62 78  1  0  0  0  0
 63 64  1  0  0  0  0
 63 80  1  0  0  0  0
 64 87  1  0  0  0  0
 65 80  1  0  0  0  0
 66 69  1  0  0  0  0
 66 77  1  0  0  0  0
 67 79  1  0  0  0  0
 68 80  1  0  0  0  0
 70 71  1  0  0  0  0
M  CHG  2  79   1  80   1
M  ISO  4  38 100  64 101  78 100  87 101
M  END
> <Batch ID>
0097

> <Smiles>
CCc1cc(C[100NH:0][100C:0](=O)N2CCCC(n3nc(-c4ccc(Oc5ccc(F)cc5F)cc4)c(C(N)=O)c3N)C2)cc(C)c1C(C)N(C[101CH2:1][101O:1]c1ccc2c(c1)CN(C(=O)C(NC(=O)C(C)NC)C(C)(C)C)C(C(=O)NC1CCCc3ccccc31)C2)C(C)C

> <Shape>
0.318

> <Color>
0.207

> <Negative vol penalty>
0.000

$$$$

  -OEChem-04052319263D

 81 88  0     1  0  0  0  0  0999 V2000
  -22.6396  -20.6028   16.4468 C   0  0  0  0  0  0  0  0  0  0  0  0
  -23.6324  -20.1245   17.2960 C   0  0  0  0  0  0  0  0  0  0  0  0
  -23.7036   -9.7401   21.6327 C   0  0  0  0  0  0  0  0  0  0  0  0
  -24.2887  -10.8676   23.6878 C   0  0  0  0  0  0  0  0  0  0  0  0
  -22.8346  -21.7944   15.7498 C   0  0  0  0  0  0  0  0  0  0  0  0
  -24.8213  -20.8372   17.4479 C   0  0  0  0  0  0  0  0  0  0  0  0
  -26.2555  -21.2140   22.2900 C   0  0  0  0  0  0  0  0  0  0  0  0
  -23.1464   -8.6926   22.3660 C   0  0  0  0  0  0  0  0  0  0  0  0
  -23.7314   -9.8201   24.4211 C   0  0  0  0  0  0  0  0  0  0  0  0
  -26.8605  -20.0966   22.8636 C   0  0  0  0  0  0  0  0  0  0  0  0
  -22.1408   -7.6131   26.8331 C   0  0  0  0  0  0  0  0  0  0  0  0
  -21.3220   -7.9407   27.9137 C   0  0  0  0  0  0  0  0  0  0  0  0
  -29.0263  -21.1049   22.5290 C   0  0  0  0  0  0  0  0  0  0  0  0
  -19.8268   -9.1167   26.4242 C   0  0  0  0  0  0  0  0  0  0  0  0
  -24.2749  -10.8276   22.2936 C   0  0  0  0  0  0  0  0  0  0  0  0
  -24.1992  -13.0727   21.0845 C   0  0  0  0  0  0  0  0  0  0  0  0
  -24.0226  -22.5271   15.9006 C   0  0  0  0  0  0  0  0  0  0  0  0
  -27.0333  -22.2823   21.8208 C   0  0  0  0  0  0  0  0  0  0  0  0
  -25.0329  -22.0391   16.7512 C   0  0  0  0  0  0  0  0  0  0  0  0
  -28.4286  -22.2359   21.9521 C   0  0  0  0  0  0  0  0  0  0  0  0
  -23.1602   -8.7326   23.7602 C   0  0  0  0  0  0  0  0  0  0  0  0
  -28.2463  -20.0406   22.9806 C   0  0  0  0  0  0  0  0  0  0  0  0
  -21.8028   -8.0374   25.5480 C   0  0  0  0  0  0  0  0  0  0  0  0
  -20.1650   -8.6925   27.7093 C   0  0  0  0  0  0  0  0  0  0  0  0
  -20.6457   -8.7892   25.3436 C   0  0  0  0  0  0  0  0  0  0  0  0
  -24.8512  -11.9098   21.5367 C   0  0  0  0  0  0  0  0  0  0  0  0
  -25.1741  -13.7771   20.4215 C   0  0  0  0  0  0  0  0  0  0  0  0
  -22.8343  -13.4797   21.2493 C   0  0  0  0  0  0  0  0  0  0  0  0
  -27.5037  -23.6388   18.9849 C   0  0  0  0  0  0  0  0  0  0  0  0
  -29.2221  -25.7702   20.7245 C   0  0  0  0  0  0  0  0  0  0  0  0
  -31.0030  -26.4292   23.5601 C   0  0  0  0  0  0  0  0  0  0  0  0
  -31.1458  -13.8643   20.8486 C   0  0  0  0  0  0  0  0  0  0  0  0
  -24.2072  -23.7855   15.0901 C   0  0  0  0  0  0  0  0  0  0  0  0
  -26.3638  -23.4922   21.2288 C   0  0  0  0  0  0  0  0  0  0  0  0
  -29.3073  -23.3653   21.4825 C   0  0  0  0  0  0  0  0  0  0  0  0
  -25.3420  -24.6735   15.5939 C   0  0  0  0  0  0  0  0  0  0  0  0
  -29.2176  -13.1483   17.9424 C   0  0  0  0  0  0  0  0  0  0  0  0
  -26.5898  -23.8403   15.8694 C   0  0  0  0  0  0  0  0  0  0  0  0
  -27.8211  -12.8546   18.4932 C   0  0  0  0  0  0  0  0  0  0  0  0
  -30.3118  -12.6268   18.8713 C   0  0  0  0  0  0  0  0  0  0  0  0
  -28.8119  -12.7926   20.8198 C   0  0  0  0  0  0  0  0  0  0  0  0
  -26.3261  -22.7965   16.9613 C   0  0  1  0  0  0  0  0  0  0  0  0
  -27.2840  -24.2981   20.3171 C   0  0  1  0  0  0  0  0  0  0  0  0
  -27.6755  -13.3490   19.9450 C   0  0  2  0  0  0  0  0  0  0  0  0
  -32.3190  -28.2479   24.6818 C   0  0  0  0  0  0  0  0  0  0  0  0
  -33.1283  -17.3591   24.7735 C   0  0  0  0  0  0  0  0  0  0  0  0
  -31.5524  -25.2529   18.8241 C   0  0  0  0  0  0  0  0  0  0  0  0
  -33.0697  -26.3200   20.5055 C   0  0  0  0  0  0  0  0  0  0  0  0
  -31.2374  -27.6510   19.4598 C   0  0  0  0  0  0  0  0  0  0  0  0
  -29.1671  -26.4859   25.8807 C   0  0  0  0  0  0  0  0  0  0  0  0
  -33.5745  -18.5031   20.6275 C   0  0  0  0  0  0  0  0  0  0  0  0
  -35.4676  -16.9016   20.3992 C   0  0  0  0  0  0  0  0  0  0  0  0
  -30.3455  -17.1089   23.2046 C   0  0  0  0  0  0  0  0  0  0  0  0
  -31.8342  -15.0837   22.8976 C   0  0  0  0  0  0  0  0  0  0  0  0
  -34.2797  -17.1225   22.5765 C   0  0  0  0  0  0  0  0  0  0  0  0
  -30.1477  -18.6156   23.0799 C   0  0  0  0  0  0  0  0  0  1  0  0
  -30.6618  -25.8762   21.1659 C   0  0  1  0  0  0  0  0  0  0  0  0
  -30.9541  -27.5939   24.5325 C   0  0  2  0  0  0  0  0  0  0  0  0
  -32.9354  -17.4400   23.2535 C   0  0  1  0  0  0  0  0  0  0  0  0
  -31.7250  -16.6116   22.7110 C   0  0  2  0  0  0  0  0  0  0  0  0
  -31.6142  -26.2527   19.9960 C   0  0  0  0  0  0  0  0  0  0  0  0
  -26.1406  -11.8737   21.1900 N   0  0  0  0  0  0  0  0  0  0  0  0
  -26.3066  -13.0226   20.5129 N   0  0  0  0  0  0  0  0  0  0  0  0
  -28.6059  -24.5238   20.9050 N   0  0  0  0  0  0  0  0  0  0  0  0
  -30.1168  -13.1337   20.2318 N   0  0  0  0  0  0  0  0  0  0  0  0
  -25.1646  -14.9622   19.7749 N   0  0  0  0  0  0  0  0  0  0  0  0
  -21.9667  -12.6372   21.9576 N   0  0  0  0  0  0  0  0  0  0  0  0
  -26.3429  -23.4172   18.2686 N   0  0  0  0  0  0  0  0  0  0  0  0
  -30.6794  -26.8202   22.2781 N   0  0  0  0  0  0  0  0  0  0  0  0
  -30.8766  -14.3134   22.1357 N   0  0  0  0  0  0  0  0  0  0  0  0
  -30.5063  -27.1289   25.8757 N   0  3  0  0  0  0  0  0  0  0  0  0
  -34.1637  -17.1962   21.1003 N   0  3  0  0  0  0  0  0  0  0  0  0
  -22.3931  -14.5508   20.7681 O   0  0  0  0  0  0  0  0  0  0  0  0
  -28.6421  -23.3537   18.6323 O   0  0  0  0  0  0  0  0  0  0  0  0
  -28.6625  -26.7590   20.2441 O   0  0  0  0  0  0  0  0  0  0  0  0
  -31.3024  -25.2875   23.9028 O   0  0  0  0  0  0  0  0  0  0  0  0
  -32.2225  -14.1034   20.2914 O   0  0  0  0  0  0  0  0  0  0  0  0
  -22.6163   -7.7107   24.4761 O   0  0  0  0  0  0  0  0  0  0  0  0
  -28.8435  -18.9434   23.5434 O   0  0  0  0  0  0  0  0  0  1  0  0
  -19.3779   -9.0056   28.7469 F   0  0  0  0  0  0  0  0  0  0  0  0
  -20.3151   -9.1986   24.1111 F   0  0  0  0  0  0  0  0  0  0  0  0
  1  2  1  0  0  0  0
  1  5  2  0  0  0  0
  2  6  2  0  0  0  0
  3  8  2  0  0  0  0
  3 15  1  0  0  0  0
  4  9  1  0  0  0  0
  4 15  2  0  0  0  0
  5 17  1  0  0  0  0
  6 19  1  0  0  0  0
  7 10  2  0  0  0  0
  7 18  1  0  0  0  0
  8 21  1  0  0  0  0
  9 21  2  0  0  0  0
 10 22  1  0  0  0  0
 11 12  2  0  0  0  0
 11 23  1  0  0  0  0
 12 24  1  0  0  0  0
 13 20  1  0  0  0  0
 13 22  2  0  0  0  0
 14 24  2  0  0  0  0
 14 25  1  0  0  0  0
 15 26  1  0  0  0  0
 16 26  1  0  0  0  0
 16 27  2  0  0  0  0
 16 28  1  0  0  0  0
 17 19  2  0  0  0  0
 17 33  1  0  0  0  0
 18 20  2  0  0  0  0
 18 34  1  0  0  0  0
 19 42  1  0  0  0  0
 20 35  1  0  0  0  0
 21 78  1  0  0  0  0
 22 79  1  0  0  0  0
 23 25  2  0  0  0  0
 23 78  1  0  0  0  0
 24 80  1  0  0  0  0
 25 81  1  0  0  0  0
 26 62  2  0  0  0  0
 27 63  1  0  0  0  0
 27 66  1  0  0  0  0
 28 67  1  0  0  0  0
 28 73  2  0  0  0  0
 29 43  1  0  0  0  0
 29 68  1  0  0  0  0
 29 74  2  0  0  0  0
 30 57  1  0  0  0  0
 30 64  1  0  0  0  0
 30 75  2  0  0  0  0
 31 58  1  0  0  0  0
 31 69  1  0  0  0  0
 31 76  2  0  0  0  0
 32 65  1  0  0  0  0
 32 70  1  0  0  0  0
 32 77  2  0  0  0  0
 33 36  1  0  0  0  0
 34 43  1  0  0  0  0
 35 64  1  0  0  0  0
 36 38  1  0  0  0  0
 37 39  1  0  0  0  0
 37 40  1  0  0  0  0
 38 42  1  0  0  0  0
 39 44  1  0  0  0  0
 40 65  1  0  0  0  0
 41 44  1  0  0  0  0
 41 65  1  0  0  0  0
 42 68  1  0  0  0  0
 43 64  1  0  0  0  0
 44 63  1  0  0  0  0
 45 58  1  0  0  0  0
 46 59  1  0  0  0  0
 47 61  1  0  0  0  0
 48 61  1  0  0  0  0
 49 61  1  0  0  0  0
 50 71  1  0  0  0  0
 51 72  1  0  0  0  0
 52 72  1  0  0  0  0
 53 56  1  0  0  0  0
 53 60  1  0  0  0  0
 54 60  1  0  0  0  0
 54 70  1  0  0  0  0
 55 59  1  0  0  0  0
 55 72  1  0  0  0  0
 56 79  1  0  0  0  0
 57 61  1  0  0  0  0
 57 69  1  0  0  0  0
 58 71  1  0  0  0  0
 59 60  1  0  0  0  0
 62 63  1  0  0  0  0
M  CHG  2  71   1  72   1
M  ISO  4  32 100  56 101  70 100  79 101
M  END
> <Batch ID>
0097

> <Smiles>
CNC(C)C(=O)NC(C(=O)N1Cc2cc([101O:1][101CH2:1]CC(C[100NH:0][100C:0](=O)N3CCCC(n4nc(-c5ccc(Oc6ccc(F)cc6F)cc5)c(C(N)=O)c4N)C3)C(C)CN(C)C)ccc2CC1C(=O)NC1CCCc2ccccc21)C(C)(C)C

> <Shape>
0.182

> <Color>
0.162

> <Negative vol penalty>
0.000

$$$$

  -OEChem-04052319263D

 82 89  0     1  0  0  0  0  0999 V2000
  -31.3460  -23.7019   19.7858 C   0  0  0  0  0  0  0  0  0  0  0  0
  -29.9625  -23.7032   19.6391 C   0  0  0  0  0  0  0  0  0  0  0  0
  -23.8715  -13.3869   19.4912 C   0  0  0  0  0  0  0  0  0  0  0  0
  -25.2913  -13.8702   21.3853 C   0  0  0  0  0  0  0  0  0  0  0  0
  -31.9361  -24.4181   20.8264 C   0  0  0  0  0  0  0  0  0  0  0  0
  -29.1684  -24.4199   20.5335 C   0  0  0  0  0  0  0  0  0  0  0  0
  -23.9416  -27.3552   19.2800 C   0  0  0  0  0  0  0  0  0  0  0  0
  -24.6946  -12.3145   19.1478 C   0  0  0  0  0  0  0  0  0  0  0  0
  -26.1144  -12.7977   21.0420 C   0  0  0  0  0  0  0  0  0  0  0  0
  -22.6036  -27.0009   19.4469 C   0  0  0  0  0  0  0  0  0  0  0  0
  -28.7909  -10.4091   20.4585 C   0  0  0  0  0  0  0  0  0  0  0  0
  -30.1702  -10.6151   20.4878 C   0  0  0  0  0  0  0  0  0  0  0  0
  -22.5564  -28.1906   21.5448 C   0  0  0  0  0  0  0  0  0  0  0  0
  -29.9447  -12.3599   18.8319 C   0  0  0  0  0  0  0  0  0  0  0  0
  -24.1698  -14.1648   20.6099 C   0  0  0  0  0  0  0  0  0  0  0  0
  -22.1975  -15.2458   21.8136 C   0  0  0  0  0  0  0  0  0  0  0  0
  -31.1494  -25.1518   21.7282 C   0  0  0  0  0  0  0  0  0  0  0  0
  -24.6013  -28.1220   20.2512 C   0  0  0  0  0  0  0  0  0  0  0  0
  -29.7484  -25.1455   21.5879 C   0  0  0  0  0  0  0  0  0  0  0  0
  -23.9021  -28.5555   21.3867 C   0  0  0  0  0  0  0  0  0  0  0  0
  -25.8160  -12.0198   19.9232 C   0  0  0  0  0  0  0  0  0  0  0  0
  -21.9116  -27.4161   20.5808 C   0  0  0  0  0  0  0  0  0  0  0  0
  -27.9886  -11.1785   19.6159 C   0  0  0  0  0  0  0  0  0  0  0  0
  -30.7471  -11.5905   19.6745 C   0  0  0  0  0  0  0  0  0  0  0  0
  -28.5655  -12.1539   18.8026 C   0  0  0  0  0  0  0  0  0  0  0  0
  -23.3202  -15.2731   20.9648 C   0  0  0  0  0  0  0  0  0  0  0  0
  -21.7435  -16.5421   21.8243 C   0  0  0  0  0  0  0  0  0  0  0  0
  -21.6169  -14.1470   22.5286 C   0  0  0  0  0  0  0  0  0  0  0  0
  -27.0988  -27.6561   22.1615 C   0  0  0  0  0  0  0  0  0  0  0  0
  -26.6214  -30.7782   22.9010 C   0  0  0  0  0  0  0  0  0  0  0  0
  -24.4698  -33.4227   23.0558 C   0  0  0  0  0  0  0  0  0  0  0  0
  -24.8326  -21.6690   20.5163 C   0  0  0  0  0  0  0  0  0  0  0  0
  -31.8295  -25.8721   22.8654 C   0  0  0  0  0  0  0  0  0  0  0  0
  -26.0373  -28.5184   20.0435 C   0  0  0  0  0  0  0  0  0  0  0  0
  -24.5588  -29.3974   22.4489 C   0  0  0  0  0  0  0  0  0  0  0  0
  -30.9416  -26.9102   23.5467 C   0  0  0  0  0  0  0  0  0  0  0  0
  -21.6022  -20.4947   19.1425 C   0  0  0  0  0  0  0  0  0  0  0  0
  -29.5589  -26.3295   23.8258 C   0  0  0  0  0  0  0  0  0  0  0  0
  -21.6241  -19.0025   19.4692 C   0  0  0  0  0  0  0  0  0  0  0  0
  -23.0094  -21.0580   18.9689 C   0  0  0  0  0  0  0  0  0  0  0  0
  -23.9304  -19.3078   20.4532 C   0  0  0  0  0  0  0  0  0  0  0  0
  -28.8548  -25.9309   22.5231 C   0  0  1  0  0  0  0  0  0  0  0  0
  -26.7545  -28.8687   21.3436 C   0  0  1  0  0  0  0  0  0  0  0  0
  -22.5298  -18.7192   20.6802 C   0  0  2  0  0  0  0  0  0  0  0  0
  -24.3591  -35.8349   23.7390 C   0  0  0  0  0  0  0  0  0  0  0  0
  -23.8790  -24.1313   23.0552 C   0  0  0  0  0  0  0  0  0  0  0  0
  -21.3388  -21.2551   23.9087 C   0  0  0  0  0  0  0  0  0  0  0  0
  -26.5378  -29.9412   25.8340 C   0  0  0  0  0  0  0  0  0  0  0  0
  -25.5013  -32.1576   26.3647 C   0  0  0  0  0  0  0  0  0  0  0  0
  -27.7946  -32.0569   25.3883 C   0  0  0  0  0  0  0  0  0  0  0  0
  -26.5014  -22.1068   22.2778 C   0  0  0  0  0  0  0  0  0  0  0  0
  -23.7809  -34.2888   20.3109 C   0  0  0  0  0  0  0  0  0  0  0  0
  -19.0372  -25.2749   21.0042 C   0  0  0  0  0  0  0  0  0  0  0  0
  -24.1779  -21.6364   22.9602 C   0  0  0  0  0  0  0  0  0  0  0  0
  -19.4054  -25.0244   22.4589 C   0  0  0  0  0  0  0  0  0  0  0  0
  -20.9527  -23.7461   23.9456 C   0  0  0  0  0  0  0  0  0  0  0  0
  -20.1819  -25.8364   20.1699 C   0  0  0  0  0  0  0  0  0  1  0  0
  -25.8014  -31.5202   23.9286 C   0  0  1  0  0  0  0  0  0  0  0  0
  -24.6091  -34.8629   22.5964 C   0  0  2  0  0  0  0  0  0  0  0  0
  -23.1498  -22.7854   22.9303 C   0  0  1  0  0  0  0  0  0  0  0  0
  -22.0155  -22.6322   23.9917 C   0  0  2  0  0  0  0  0  0  0  0  0
  -26.3967  -31.4015   25.3600 C   0  0  0  0  0  0  0  0  0  0  0  0
  -23.5645  -16.4902   20.4719 N   0  0  0  0  0  0  0  0  0  0  0  0
  -22.5888  -17.2397   21.0125 N   0  0  0  0  0  0  0  0  0  0  0  0
  -25.9660  -29.7538   22.2034 N   0  0  0  0  0  0  0  0  0  0  0  0
  -23.8613  -20.7373   20.1146 N   0  0  0  0  0  0  0  0  0  0  0  0
  -20.7076  -17.1418   22.4486 N   0  0  0  0  0  0  0  0  0  0  0  0
  -22.2092  -12.8827   22.4063 N   0  0  0  0  0  0  0  0  0  0  0  0
  -28.3268  -27.1013   21.8554 N   0  0  0  0  0  0  0  0  0  0  0  0
  -25.6815  -32.8907   23.4431 N   0  0  0  0  0  0  0  0  0  0  0  0
  -25.1599  -21.7039   21.8802 N   0  0  0  0  0  0  0  0  0  0  0  0
  -23.6340  -35.1560   21.5082 N   0  3  0  0  0  0  0  0  0  0  0  0
  -20.4856  -24.0150   22.5574 N   0  3  0  0  0  0  0  0  0  0  0  0
  -20.5932  -14.2790   23.2414 O   0  0  0  0  0  0  0  0  0  0  0  0
  -26.3095  -27.2546   23.0085 O   0  0  0  0  0  0  0  0  0  0  0  0
  -27.7981  -31.1007   22.7188 O   0  0  0  0  0  0  0  0  0  0  0  0
  -23.3931  -32.8302   23.0732 O   0  0  0  0  0  0  0  0  0  0  0  0
  -25.3693  -22.4329   19.7037 O   0  0  0  0  0  0  0  0  0  0  0  0
  -26.6193  -10.9733   19.5885 O   0  0  0  0  0  0  0  0  0  0  0  0
  -20.6056  -27.0711   20.7464 O   0  0  0  0  0  0  0  0  0  1  0  0
  -32.0714  -11.7892   19.7039 F   0  0  0  0  0  0  0  0  0  0  0  0
  -27.7997  -12.8969   17.9920 F   0  0  0  0  0  0  0  0  0  0  0  0
  1  2  1  0  0  0  0
  1  5  2  0  0  0  0
  2  6  2  0  0  0  0
  3  8  2  0  0  0  0
  3 15  1  0  0  0  0
  4  9  1  0  0  0  0
  4 15  2  0  0  0  0
  5 17  1  0  0  0  0
  6 19  1  0  0  0  0
  7 10  2  0  0  0  0
  7 18  1  0  0  0  0
  8 21  1  0  0  0  0
  9 21  2  0  0  0  0
 10 22  1  0  0  0  0
 11 12  2  0  0  0  0
 11 23  1  0  0  0  0
 12 24  1  0  0  0  0
 13 20  1  0  0  0  0
 13 22  2  0  0  0  0
 14 24  2  0  0  0  0
 14 25  1  0  0  0  0
 15 26  1  0  0  0  0
 16 26  1  0  0  0  0
 16 27  2  0  0  0  0
 16 28  1  0  0  0  0
 17 19  2  0  0  0  0
 17 33  1  0  0  0  0
 18 20  2  0  0  0  0
 18 34  1  0  0  0  0
 19 42  1  0  0  0  0
 20 35  1  0  0  0  0
 21 79  1  0  0  0  0
 22 80  1  0  0  0  0
 23 25  2  0  0  0  0
 23 79  1  0  0  0  0
 24 81  1  0  0  0  0
 25 82  1  0  0  0  0
 26 63  2  0  0  0  0
 27 64  1  0  0  0  0
 27 67  1  0  0  0  0
 28 68  1  0  0  0  0
 28 74  2  0  0  0  0
 29 43  1  0  0  0  0
 29 69  1  0  0  0  0
 29 75  2  0  0  0  0
 30 58  1  0  0  0  0
 30 65  1  0  0  0  0
 30 76  2  0  0  0  0
 31 59  1  0  0  0  0
 31 70  1  0  0  0  0
 31 77  2  0  0  0  0
 32 66  1  0  0  0  0
 32 71  1  0  0  0  0
 32 78  2  0  0  0  0
 33 36  1  0  0  0  0
 34 43  1  0  0  0  0
 35 65  1  0  0  0  0
 36 38  1  0  0  0  0
 37 39  1  0  0  0  0
 37 40  1  0  0  0  0
 38 42  1  0  0  0  0
 39 44  1  0  0  0  0
 40 66  1  0  0  0  0
 41 44  1  0  0  0  0
 41 66  1  0  0  0  0
 42 69  1  0  0  0  0
 43 65  1  0  0  0  0
 44 64  1  0  0  0  0
 45 59  1  0  0  0  0
 46 60  1  0  0  0  0
 47 61  1  0  0  0  0
 48 62  1  0  0  0  0
 49 62  1  0  0  0  0
 50 62  1  0  0  0  0
 51 71  1  0  0  0  0
 52 72  1  0  0  0  0
 53 55  1  0  0  0  0
 53 57  1  0  0  0  0
 54 60  1  0  0  0  0
 54 71  1  0  0  0  0
 55 73  1  0  0  0  0
 56 61  1  0  0  0  0
 56 73  1  0  0  0  0
 57 80  1  0  0  0  0
 58 62  1  0  0  0  0
 58 70  1  0  0  0  0
 59 72  1  0  0  0  0
 60 61  1  0  0  0  0
 63 64  1  0  0  0  0
M  CHG  2  72   1  73   1
M  ISO  4  32 100  57 101  71 100  80 101
M  END
> <Batch ID>
0097

> <Smiles>
CNC(C)C(=O)NC(C(=O)N1Cc2cc([101O:1][101CH2:1]CCNCC(C)C(C)C[100N:0](C)[100C:0](=O)N3CCCC(n4nc(-c5ccc(Oc6ccc(F)cc6F)cc5)c(C(N)=O)c4N)C3)ccc2CC1C(=O)NC1CCCc2ccccc21)C(C)(C)C

> <Shape>
0.221

> <Color>
0.066

> <Negative vol penalty>
0.000

$$$$

  -OEChem-04052319263D

 81 89  0     1  0  0  0  0  0999 V2000
  -20.2309  -23.8098   21.2764 C   0  0  0  0  0  0  0  0  0  0  0  0
  -21.5702  -23.4440   21.3657 C   0  0  0  0  0  0  0  0  0  0  0  0
  -22.8910  -30.8469   20.6297 C   0  0  0  0  0  0  0  0  0  0  0  0
  -23.0187  -29.2543   22.4421 C   0  0  0  0  0  0  0  0  0  0  0  0
  -19.2361  -22.9034   21.6406 C   0  0  0  0  0  0  0  0  0  0  0  0
  -21.9154  -22.1718   21.8204 C   0  0  0  0  0  0  0  0  0  0  0  0
  -25.5117  -20.0063   18.9881 C   0  0  0  0  0  0  0  0  0  0  0  0
  -21.6297  -31.2473   21.0705 C   0  0  0  0  0  0  0  0  0  0  0  0
  -21.7574  -29.6548   22.8828 C   0  0  0  0  0  0  0  0  0  0  0  0
  -26.8245  -20.4282   19.1939 C   0  0  0  0  0  0  0  0  0  0  0  0
  -18.4182  -30.0038   24.2749 C   0  0  0  0  0  0  0  0  0  0  0  0
  -17.5088  -29.0074   24.6294 C   0  0  0  0  0  0  0  0  0  0  0  0
  -27.2337  -18.4745   20.5485 C   0  0  0  0  0  0  0  0  0  0  0  0
  -32.4316  -24.9324   21.9687 C   0  0  0  0  0  0  0  0  0  0  0  0
  -17.6206  -28.1084   22.3897 C   0  0  0  0  0  0  0  0  0  0  0  0
  -31.5996  -23.4586   23.4538 C   0  0  0  0  0  0  0  0  0  0  0  0
  -23.5855  -29.8503   21.3155 C   0  0  0  0  0  0  0  0  0  0  0  0
  -26.1326  -29.9712   21.2434 C   0  0  0  0  0  0  0  0  0  0  0  0
  -19.5690  -21.6161   22.0907 C   0  0  0  0  0  0  0  0  0  0  0  0
  -25.0461  -18.8188   19.5708 C   0  0  0  0  0  0  0  0  0  0  0  0
  -20.9242  -21.2478   22.1922 C   0  0  0  0  0  0  0  0  0  0  0  0
  -25.9153  -18.0384   20.3464 C   0  0  0  0  0  0  0  0  0  0  0  0
  -32.4776  -24.5116   23.3207 C   0  0  0  0  0  0  0  0  0  0  0  0
  -21.0628  -30.6513   22.1970 C   0  0  0  0  0  0  0  0  0  0  0  0
  -27.6849  -19.6638   19.9766 C   0  0  0  0  0  0  0  0  0  0  0  0
  -18.9288  -30.0526   22.9777 C   0  0  0  0  0  0  0  0  0  0  0  0
  -17.1100  -28.0597   23.6869 C   0  0  0  0  0  0  0  0  0  0  0  0
  -18.5300  -29.1049   22.0352 C   0  0  0  0  0  0  0  0  0  0  0  0
  -24.8883  -29.4359   20.8604 C   0  0  0  0  0  0  0  0  0  0  0  0
  -31.5268  -24.1239   21.3168 C   0  0  0  0  0  0  0  0  0  0  0  0
  -27.0541  -29.2386   20.5358 C   0  0  0  0  0  0  0  0  0  0  0  0
  -26.4291  -31.0356   22.1572 C   0  0  0  0  0  0  0  0  0  0  0  0
  -22.7734  -18.0916   21.6708 C   0  0  0  0  0  0  0  0  0  0  0  0
  -23.6066  -15.0454   20.9299 C   0  0  0  0  0  0  0  0  0  0  0  0
  -25.9812  -12.8965   19.7507 C   0  0  0  0  0  0  0  0  0  0  0  0
  -28.9699  -24.3495   18.6460 C   0  0  0  0  0  0  0  0  0  0  0  0
  -18.4603  -20.6872   22.5180 C   0  0  0  0  0  0  0  0  0  0  0  0
  -23.6351  -18.3638   19.3172 C   0  0  0  0  0  0  0  0  0  0  0  0
  -25.4703  -16.7453   20.9776 C   0  0  0  0  0  0  0  0  0  0  0  0
  -18.8980  -19.2293   22.6342 C   0  0  0  0  0  0  0  0  0  0  0  0
  -26.4352  -25.9603   16.7337 C   0  0  0  0  0  0  0  0  0  0  0  0
  -20.2163  -19.1267   23.3947 C   0  0  0  0  0  0  0  0  0  0  0  0
  -25.9056  -27.0475   17.6704 C   0  0  0  0  0  0  0  0  0  0  0  0
  -26.8025  -24.6888   17.4955 C   0  0  0  0  0  0  0  0  0  0  0  0
  -27.2041  -25.9760   19.5584 C   0  0  0  0  0  0  0  0  0  0  0  0
  -21.3378  -19.8683   22.6572 C   0  0  1  0  0  0  0  0  0  0  0  0
  -23.1173  -17.4011   20.3814 C   0  0  1  0  0  0  0  0  0  0  0  0
  -26.8728  -27.2970   18.8433 C   0  0  2  0  0  0  0  0  0  0  0  0
  -33.3118  -25.0928   24.3897 C   0  0  0  0  0  0  0  0  0  0  0  0
  -26.3835  -10.4613   19.2975 C   0  0  0  0  0  0  0  0  0  0  0  0
  -23.9800  -14.5535   23.9179 C   0  0  0  0  0  0  0  0  0  0  0  0
  -25.2618  -12.4804   23.3456 C   0  0  0  0  0  0  0  0  0  0  0  0
  -22.8652  -12.6853   22.6845 C   0  0  0  0  0  0  0  0  0  0  0  0
  -26.3972  -13.3838   16.8614 C   0  0  0  0  0  0  0  0  0  0  0  0
  -31.0986  -24.1282   19.9026 C   0  0  0  0  0  0  0  0  0  0  0  0
  -30.6076  -20.7616   21.7890 C   0  0  0  0  0  0  0  0  0  0  0  0
  -30.0053  -22.1593   21.9484 C   0  0  0  0  0  0  0  0  0  0  0  0
  -29.5801  -19.7004   21.4128 C   0  0  0  0  0  0  0  0  0  1  0  0
  -24.6086  -14.0509   21.4647 C   0  0  1  0  0  0  0  0  0  0  0  0
  -25.9110  -11.7858   18.7184 C   0  0  2  0  0  0  0  0  0  0  0  0
  -24.1870  -13.4679   22.8430 C   0  0  0  0  0  0  0  0  0  0  0  0
  -25.0050  -28.4401   19.9778 N   0  0  0  0  0  0  0  0  0  0  0  0
  -31.0271  -23.2319   22.2294 N   0  0  0  0  0  0  0  0  0  0  0  0
  -26.3337  -28.3440   19.8003 N   0  0  0  0  0  0  0  0  0  0  0  0
  -24.0796  -16.3461   20.7054 N   0  0  0  0  0  0  0  0  0  0  0  0
  -27.7231  -24.9942   18.5933 N   0  0  0  0  0  0  0  0  0  0  0  0
  -28.4022  -29.2789   20.4771 N   0  0  0  0  0  0  0  0  0  0  0  0
  -25.3636  -31.6815   22.7989 N   0  0  0  0  0  0  0  0  0  0  0  0
  -21.8166  -19.0802   21.5418 N   0  0  0  0  0  0  0  0  0  0  0  0
  -24.7853  -13.0477   20.4203 N   0  0  0  0  0  0  0  0  0  0  0  0
  -29.7843  -24.7012   19.7156 N   0  0  0  0  0  0  0  0  0  0  0  0
  -26.7655  -12.1163   17.5430 N   0  3  0  0  0  0  0  0  0  0  0  0
  -27.6032  -31.4138   22.3850 O   0  0  0  0  0  0  0  0  0  0  0  0
  -23.3336  -17.7516   22.7063 O   0  0  0  0  0  0  0  0  0  0  0  0
  -22.4487  -14.6798   20.7123 O   0  0  0  0  0  0  0  0  0  0  0  0
  -26.9965  -13.5609   19.9464 O   0  0  0  0  0  0  0  0  0  0  0  0
  -29.3329  -23.5257   17.7995 O   0  0  0  0  0  0  0  0  0  0  0  0
  -19.8322  -31.0420   22.6275 O   0  0  0  0  0  0  0  0  0  0  0  0
  -28.9665  -20.0737   20.1797 O   0  0  0  0  0  0  0  0  0  1  0  0
  -16.2379  -27.1019   24.0279 F   0  0  0  0  0  0  0  0  0  0  0  0
  -19.0180  -29.1459   20.7878 F   0  0  0  0  0  0  0  0  0  0  0  0
  1  2  1  0  0  0  0
  1  5  2  0  0  0  0
  2  6  2  0  0  0  0
  3  8  2  0  0  0  0
  3 17  1  0  0  0  0
  4  9  1  0  0  0  0
  4 17  2  0  0  0  0
  5 19  1  0  0  0  0
  6 21  1  0  0  0  0
  7 10  2  0  0  0  0
  7 20  1  0  0  0  0
  8 24  1  0  0  0  0
  9 24  2  0  0  0  0
 10 25  1  0  0  0  0
 11 12  2  0  0  0  0
 11 26  1  0  0  0  0
 12 27  1  0  0  0  0
 13 22  1  0  0  0  0
 13 25  2  0  0  0  0
 14 23  1  0  0  0  0
 14 30  2  0  0  0  0
 15 27  2  0  0  0  0
 15 28  1  0  0  0  0
 16 23  2  0  0  0  0
 16 63  1  0  0  0  0
 17 29  1  0  0  0  0
 18 29  1  0  0  0  0
 18 31  2  0  0  0  0
 18 32  1  0  0  0  0
 19 21  2  0  0  0  0
 19 37  1  0  0  0  0
 20 22  2  0  0  0  0
 20 38  1  0  0  0  0
 21 46  1  0  0  0  0
 22 39  1  0  0  0  0
 23 49  1  0  0  0  0
 24 78  1  0  0  0  0
 25 79  1  0  0  0  0
 26 28  2  0  0  0  0
 26 78  1  0  0  0  0
 27 80  1  0  0  0  0
 28 81  1  0  0  0  0
 29 62  2  0  0  0  0
 30 55  1  0  0  0  0
 30 63  1  0  0  0  0
 31 64  1  0  0  0  0
 31 67  1  0  0  0  0
 32 68  1  0  0  0  0
 32 73  2  0  0  0  0
 33 47  1  0  0  0  0
 33 69  1  0  0  0  0
 33 74  2  0  0  0  0
 34 59  1  0  0  0  0
 34 65  1  0  0  0  0
 34 75  2  0  0  0  0
 35 60  1  0  0  0  0
 35 70  1  0  0  0  0
 35 76  2  0  0  0  0
 36 66  1  0  0  0  0
 36 71  1  0  0  0  0
 36 77  2  0  0  0  0
 37 40  1  0  0  0  0
 38 47  1  0  0  0  0
 39 65  1  0  0  0  0
 40 42  1  0  0  0  0
 41 43  1  0  0  0  0
 41 44  1  0  0  0  0
 42 46  1  0  0  0  0
 43 48  1  0  0  0  0
 44 66  1  0  0  0  0
 45 48  1  0  0  0  0
 45 66  1  0  0  0  0
 46 69  1  0  0  0  0
 47 65  1  0  0  0  0
 48 64  1  0  0  0  0
 50 60  1  0  0  0  0
 51 61  1  0  0  0  0
 52 61  1  0  0  0  0
 53 61  1  0  0  0  0
 54 72  1  0  0  0  0
 55 71  1  0  0  0  0
 56 57  1  0  0  0  0
 56 58  1  0  0  0  0
 57 63  1  0  0  0  0
 58 79  1  0  0  0  0
 59 61  1  0  0  0  0
 59 70  1  0  0  0  0
 60 72  1  0  0  0  0
 62 64  1  0  0  0  0
M  CHG  1  72   1
M  ISO  4  36 100  58 101  71 100  79 101
M  END
> <Batch ID>
0097

> <Smiles>
CNC(C)C(=O)NC(C(=O)N1Cc2cc([101O:1][101CH2:1]CCn3cc(C)cc3C[100NH:0][100C:0](=O)N3CCCC(n4nc(-c5ccc(Oc6ccc(F)cc6F)cc5)c(C(N)=O)c4N)C3)ccc2CC1C(=O)NC1CCCc2ccccc21)C(C)(C)C

> <Shape>
0.217

> <Color>
0.065

> <Negative vol penalty>
0.000

$$$$

  -OEChem-04052319263D

 87 95  0     1  0  0  0  0  0999 V2000
  -26.0914  -23.0842   16.0069 C   0  0  0  0  0  0  0  0  0  0  0  0
  -26.2455  -21.8888   16.7017 C   0  0  0  0  0  0  0  0  0  0  0  0
  -27.0724  -29.3211   20.0087 C   0  0  0  0  0  0  0  0  0  0  0  0
  -26.1324  -27.5810   21.3963 C   0  0  0  0  0  0  0  0  0  0  0  0
  -25.3738  -24.1340   16.5787 C   0  0  0  0  0  0  0  0  0  0  0  0
  -25.6830  -21.7429   17.9692 C   0  0  0  0  0  0  0  0  0  0  0  0
  -23.3293  -17.2968   18.5499 C   0  0  0  0  0  0  0  0  0  0  0  0
  -25.8962  -30.0596   20.1380 C   0  0  0  0  0  0  0  0  0  0  0  0
  -24.9562  -28.3195   21.5256 C   0  0  0  0  0  0  0  0  0  0  0  0
  -24.1288  -16.1789   18.7840 C   0  0  0  0  0  0  0  0  0  0  0  0
  -22.1980  -28.9559   19.6767 C   0  0  0  0  0  0  0  0  0  0  0  0
  -20.9879  -28.2788   19.5263 C   0  0  0  0  0  0  0  0  0  0  0  0
  -23.6364  -16.3277   21.1408 C   0  0  0  0  0  0  0  0  0  0  0  0
  -20.3589  -28.9038   21.7737 C   0  0  0  0  0  0  0  0  0  0  0  0
  -31.0602  -12.9513   21.0170 C   0  0  0  0  0  0  0  0  0  0  0  0
  -27.1905  -28.0818   20.6378 C   0  0  0  0  0  0  0  0  0  0  0  0
  -29.5382  -27.3705   21.3378 C   0  0  0  0  0  0  0  0  0  0  0  0
  -24.7940  -23.9974   17.8498 C   0  0  0  0  0  0  0  0  0  0  0  0
  -22.6850  -17.9462   19.6128 C   0  0  0  0  0  0  0  0  0  0  0  0
  -24.9581  -22.7923   18.5591 C   0  0  0  0  0  0  0  0  0  0  0  0
  -22.8272  -17.4521   20.9173 C   0  0  0  0  0  0  0  0  0  0  0  0
  -24.8381  -29.5588   20.8965 C   0  0  0  0  0  0  0  0  0  0  0  0
  -24.2848  -15.6959   20.0800 C   0  0  0  0  0  0  0  0  0  0  0  0
  -22.4887  -29.6069   20.8756 C   0  0  0  0  0  0  0  0  0  0  0  0
  -20.0683  -28.2528   20.5748 C   0  0  0  0  0  0  0  0  0  0  0  0
  -21.5691  -29.5809   21.9241 C   0  0  0  0  0  0  0  0  0  0  0  0
  -28.4051  -27.3182   20.5041 C   0  0  0  0  0  0  0  0  0  0  0  0
  -31.9251  -13.6996   20.2448 C   0  0  0  0  0  0  0  0  0  0  0  0
  -30.1210  -13.6699   21.7283 C   0  0  0  0  0  0  0  0  0  0  0  0
  -30.4099  -26.4615   20.7898 C   0  0  0  0  0  0  0  0  0  0  0  0
  -30.9243  -15.6307   20.9055 C   0  0  0  0  0  0  0  0  0  0  0  0
  -29.7811  -28.1694   22.5033 C   0  0  0  0  0  0  0  0  0  0  0  0
  -22.8184  -20.8618   20.8717 C   0  0  0  0  0  0  0  0  0  0  0  0
  -20.3446  -19.7764   22.6674 C   0  0  0  0  0  0  0  0  0  0  0  0
  -18.6865  -17.1104   24.0053 C   0  0  0  0  0  0  0  0  0  0  0  0
  -29.6241  -21.6008   17.3829 C   0  0  0  0  0  0  0  0  0  0  0  0
  -24.0673  -25.1766   18.4467 C   0  0  0  0  0  0  0  0  0  0  0  0
  -21.8045  -19.1349   19.3402 C   0  0  0  0  0  0  0  0  0  0  0  0
  -22.1406  -18.1010   22.0903 C   0  0  0  0  0  0  0  0  0  0  0  0
  -23.1846  -24.8093   19.6367 C   0  0  0  0  0  0  0  0  0  0  0  0
  -31.5961  -24.4622   16.6081 C   0  0  0  0  0  0  0  0  0  0  0  0
  -23.9410  -23.9032   20.6030 C   0  0  0  0  0  0  0  0  0  0  0  0
  -31.1041  -25.5233   17.5939 C   0  0  0  0  0  0  0  0  0  0  0  0
  -30.4561  -23.5672   16.1269 C   0  0  0  0  0  0  0  0  0  0  0  0
  -29.1755  -23.9981   18.1880 C   0  0  0  0  0  0  0  0  0  0  0  0
  -24.3416  -22.5869   19.9259 C   0  0  1  0  0  0  0  0  0  0  0  0
  -21.6085  -20.0261   20.5628 C   0  0  1  0  0  0  0  0  0  0  0  0
  -30.2989  -24.8896   18.7443 C   0  0  2  0  0  0  0  0  0  0  0  0
  -32.9750  -13.0106   19.4392 C   0  0  0  0  0  0  0  0  0  0  0  0
  -16.7221  -16.5399   25.4590 C   0  0  0  0  0  0  0  0  0  0  0  0
  -21.9279  -20.6223   25.1347 C   0  0  0  0  0  0  0  0  0  0  0  0
  -20.3992  -19.2010   26.5172 C   0  0  0  0  0  0  0  0  0  0  0  0
  -19.4826  -21.1363   25.2376 C   0  0  0  0  0  0  0  0  0  0  0  0
  -17.3781  -15.5800   21.8362 C   0  0  0  0  0  0  0  0  0  0  0  0
  -29.1306  -12.9394   22.5997 C   0  0  0  0  0  0  0  0  0  0  0  0
  -30.8460  -17.1185   20.8411 C   0  0  0  0  0  0  0  0  0  0  0  0
  -27.7816  -13.6539   22.7369 C   0  0  0  0  0  0  0  0  0  0  0  0
  -27.0345  -13.7827   21.4087 C   0  0  0  0  0  0  0  0  0  0  0  0
  -29.8629  -19.1390   19.6025 C   0  0  0  0  0  0  0  0  0  0  0  0
  -28.7376  -19.7337   18.7567 C   0  0  0  0  0  0  0  0  0  0  0  0
  -25.7195  -14.5316   21.5773 C   0  0  0  0  0  0  0  0  0  1  0  0
  -20.2171  -19.0627   23.9916 C   0  0  1  0  0  0  0  0  0  0  0  0
  -17.2114  -16.7533   24.0349 C   0  0  2  0  0  0  0  0  0  0  0  0
  -29.6965  -17.6509   19.9572 C   0  0  2  0  0  0  0  0  0  0  0  0
  -20.5213  -19.9943   25.1986 C   0  0  0  0  0  0  0  0  0  0  0  0
  -28.5417  -26.4451   19.5026 N   0  0  0  0  0  0  0  0  0  0  0  0
  -31.8853  -15.0459   20.1653 N   0  0  0  0  0  0  0  0  0  0  0  0
  -30.0243  -15.0153   21.6959 N   0  0  0  0  0  0  0  0  0  0  0  0
  -29.7710  -25.9405   19.7033 N   0  0  0  0  0  0  0  0  0  0  0  0
  -21.2954  -19.2641   21.7734 N   0  0  0  0  0  0  0  0  0  0  0  0
  -29.7338  -22.9963   17.2663 N   0  0  0  0  0  0  0  0  0  0  0  0
  -31.6531  -26.0652   21.1360 N   0  0  0  0  0  0  0  0  0  0  0  0
  -28.7789  -29.0516   22.9294 N   0  0  0  0  0  0  0  0  0  0  0  0
  -23.2043  -21.6961   19.8400 N   0  0  0  0  0  0  0  0  0  0  0  0
  -18.8818  -18.4753   24.0118 N   0  0  0  0  0  0  0  0  0  0  0  0
  -28.9290  -21.1429   18.4955 N   0  0  0  0  0  0  0  0  0  0  0  0
  -28.4176  -17.4655   20.7082 N   0  3  0  0  0  0  0  0  0  0  0  0
  -16.9653  -15.5035   23.2613 N   0  3  0  0  0  0  0  0  0  0  0  0
  -30.8615  -28.1148   23.1384 O   0  0  0  0  0  0  0  0  0  0  0  0
  -23.3607  -20.7586   21.9658 O   0  0  0  0  0  0  0  0  0  0  0  0
  -19.6221  -20.7481   22.4321 O   0  0  0  0  0  0  0  0  0  0  0  0
  -19.5766  -16.2632   23.9827 O   0  0  0  0  0  0  0  0  0  0  0  0
  -30.1142  -20.8206   16.5595 O   0  0  0  0  0  0  0  0  0  0  0  0
  -23.6903  -30.2793   21.0231 O   0  0  0  0  0  0  0  0  0  0  0  0
  -25.0651  -14.6053   20.3113 O   0  0  0  0  0  0  0  0  0  1  0  0
  -18.9055  -27.6038   20.4297 F   0  0  0  0  0  0  0  0  0  0  0  0
  -21.8423  -30.2054   23.0779 F   0  0  0  0  0  0  0  0  0  0  0  0
  1  2  1  0  0  0  0
  1  5  2  0  0  0  0
  2  6  2  0  0  0  0
  3  8  2  0  0  0  0
  3 16  1  0  0  0  0
  4  9  1  0  0  0  0
  4 16  2  0  0  0  0
  5 18  1  0  0  0  0
  6 20  1  0  0  0  0
  7 10  2  0  0  0  0
  7 19  1  0  0  0  0
  8 22  1  0  0  0  0
  9 22  2  0  0  0  0
 10 23  1  0  0  0  0
 11 12  2  0  0  0  0
 11 24  1  0  0  0  0
 12 25  1  0  0  0  0
 13 21  1  0  0  0  0
 13 23  2  0  0  0  0
 14 25  2  0  0  0  0
 14 26  1  0  0  0  0
 15 28  2  0  0  0  0
 15 29  1  0  0  0  0
 16 27  1  0  0  0  0
 17 27  1  0  0  0  0
 17 30  2  0  0  0  0
 17 32  1  0  0  0  0
 18 20  2  0  0  0  0
 18 37  1  0  0  0  0
 19 21  2  0  0  0  0
 19 38  1  0  0  0  0
 20 46  1  0  0  0  0
 21 39  1  0  0  0  0
 22 84  1  0  0  0  0
 23 85  1  0  0  0  0
 24 26  2  0  0  0  0
 24 84  1  0  0  0  0
 25 86  1  0  0  0  0
 26 87  1  0  0  0  0
 27 66  2  0  0  0  0
 28 49  1  0  0  0  0
 28 67  1  0  0  0  0
 29 55  1  0  0  0  0
 29 68  2  0  0  0  0
 30 69  1  0  0  0  0
 30 72  1  0  0  0  0
 31 56  1  0  0  0  0
 31 67  2  0  0  0  0
 31 68  1  0  0  0  0
 32 73  1  0  0  0  0
 32 79  2  0  0  0  0
 33 47  1  0  0  0  0
 33 74  1  0  0  0  0
 33 80  2  0  0  0  0
 34 62  1  0  0  0  0
 34 70  1  0  0  0  0
 34 81  2  0  0  0  0
 35 63  1  0  0  0  0
 35 75  1  0  0  0  0
 35 82  2  0  0  0  0
 36 71  1  0  0  0  0
 36 76  1  0  0  0  0
 36 83  2  0  0  0  0
 37 40  1  0  0  0  0
 38 47  1  0  0  0  0
 39 70  1  0  0  0  0
 40 42  1  0  0  0  0
 41 43  1  0  0  0  0
 41 44  1  0  0  0  0
 42 46  1  0  0  0  0
 43 48  1  0  0  0  0
 44 71  1  0  0  0  0
 45 48  1  0  0  0  0
 45 71  1  0  0  0  0
 46 74  1  0  0  0  0
 47 70  1  0  0  0  0
 48 69  1  0  0  0  0
 50 63  1  0  0  0  0
 51 65  1  0  0  0  0
 52 65  1  0  0  0  0
 53 65  1  0  0  0  0
 54 78  1  0  0  0  0
 55 57  1  0  0  0  0
 56 64  1  0  0  0  0
 57 58  1  0  0  0  0
 58 61  1  0  0  0  0
 59 60  1  0  0  0  0
 59 64  1  0  0  0  0
 60 76  1  0  0  0  0
 61 85  1  0  0  0  0
 62 65  1  0  0  0  0
 62 75  1  0  0  0  0
 63 78  1  0  0  0  0
 64 77  1  0  0  0  0
 66 69  1  0  0  0  0
M  CHG  2  77   1  78   1
M  ISO  4  36 100  61 101  76 100  85 101
M  END
> <Batch ID>
0097

> <Smiles>
CNC(C)C(=O)NC(C(=O)N1Cc2cc([101O:1][101CH2:1]CCCc3cc(C)nc(CC(N)CC[100NH:0][100C:0](=O)N4CCCC(n5nc(-c6ccc(Oc7ccc(F)cc7F)cc6)c(C(N)=O)c5N)C4)n3)ccc2CC1C(=O)NC1CCCc2ccccc21)C(C)(C)C

> <Shape>
0.202

> <Color>
0.049

> <Negative vol penalty>
0.000

$$$$

  -OEChem-04052319263D

 85 93  0     1  0  0  0  0  0999 V2000
  -18.9992  -22.3670   22.2798 C   0  0  0  0  0  0  0  0  0  0  0  0
  -20.3249  -21.9897   22.4685 C   0  0  0  0  0  0  0  0  0  0  0  0
  -27.2418  -12.8378   21.2648 C   0  0  0  0  0  0  0  0  0  0  0  0
  -26.9005  -13.6338   19.0094 C   0  0  0  0  0  0  0  0  0  0  0  0
  -18.7011  -23.5372   21.5831 C   0  0  0  0  0  0  0  0  0  0  0  0
  -21.3533  -22.7819   21.9595 C   0  0  0  0  0  0  0  0  0  0  0  0
  -28.0738  -24.8054   23.3934 C   0  0  0  0  0  0  0  0  0  0  0  0
  -26.4357  -11.7315   20.9963 C   0  0  0  0  0  0  0  0  0  0  0  0
  -26.0945  -12.5275   18.7409 C   0  0  0  0  0  0  0  0  0  0  0  0
  -29.3320  -24.8633   22.7956 C   0  0  0  0  0  0  0  0  0  0  0  0
  -24.1751   -8.8832   21.0134 C   0  0  0  0  0  0  0  0  0  0  0  0
  -23.2220   -8.5265   21.9673 C   0  0  0  0  0  0  0  0  0  0  0  0
  -28.6999  -26.9049   21.6769 C   0  0  0  0  0  0  0  0  0  0  0  0
  -28.6393  -22.4501   17.3570 C   0  0  0  0  0  0  0  0  0  0  0  0
  -22.1771  -10.6922   21.7332 C   0  0  0  0  0  0  0  0  0  0  0  0
  -28.2266  -24.1656   18.7557 C   0  0  0  0  0  0  0  0  0  0  0  0
  -27.4741  -13.7890   20.2713 C   0  0  0  0  0  0  0  0  0  0  0  0
  -29.6993  -15.0323   20.3725 C   0  0  0  0  0  0  0  0  0  0  0  0
  -19.7266  -24.3493   21.0736 C   0  0  0  0  0  0  0  0  0  0  0  0
  -27.1138  -25.7927   23.1285 C   0  0  0  0  0  0  0  0  0  0  0  0
  -21.0686  -23.9635   21.2541 C   0  0  0  0  0  0  0  0  0  0  0  0
  -27.4312  -26.8587   22.2746 C   0  0  0  0  0  0  0  0  0  0  0  0
  -27.7349  -22.9535   18.3243 C   0  0  0  0  0  0  0  0  0  0  0  0
  -25.8621  -11.5764   19.7344 C   0  0  0  0  0  0  0  0  0  0  0  0
  -29.6443  -25.9116   21.9350 C   0  0  0  0  0  0  0  0  0  0  0  0
  -24.1293  -10.1445   20.4194 C   0  0  0  0  0  0  0  0  0  0  0  0
  -22.2230   -9.4310   22.3272 C   0  0  0  0  0  0  0  0  0  0  0  0
  -23.1303  -11.0490   20.7793 C   0  0  0  0  0  0  0  0  0  0  0  0
  -28.3061  -14.9323   20.5482 C   0  0  0  0  0  0  0  0  0  0  0  0
  -29.6564  -23.3700   17.2269 C   0  0  0  0  0  0  0  0  0  0  0  0
  -30.0055  -16.3090   20.7759 C   0  0  0  0  0  0  0  0  0  0  0  0
  -30.6332  -14.0582   19.8879 C   0  0  0  0  0  0  0  0  0  0  0  0
  -24.2184  -25.8114   21.8172 C   0  0  0  0  0  0  0  0  0  0  0  0
  -24.2437  -28.9191   22.7468 C   0  0  0  0  0  0  0  0  0  0  0  0
  -26.0698  -31.6833   23.5660 C   0  0  0  0  0  0  0  0  0  0  0  0
  -26.8179  -21.3694   21.0625 C   0  0  0  0  0  0  0  0  0  0  0  0
  -19.3542  -25.5805   20.2862 C   0  0  0  0  0  0  0  0  0  0  0  0
  -25.7705  -25.7303   23.8022 C   0  0  0  0  0  0  0  0  0  0  0  0
  -26.4430  -27.9546   21.9733 C   0  0  0  0  0  0  0  0  0  0  0  0
  -20.5111  -26.5595   20.1031 C   0  0  0  0  0  0  0  0  0  0  0  0
  -28.5195  -19.7564   23.7420 C   0  0  0  0  0  0  0  0  0  0  0  0
  -21.7733  -25.8195   19.6716 C   0  0  0  0  0  0  0  0  0  0  0  0
  -28.7835  -18.3462   23.2115 C   0  0  0  0  0  0  0  0  0  0  0  0
  -27.1721  -20.2953   23.2664 C   0  0  0  0  0  0  0  0  0  0  0  0
  -27.2330  -18.8438   21.2757 C   0  0  0  0  0  0  0  0  0  0  0  0
  -22.2126  -24.8094   20.7385 C   0  0  1  0  0  0  0  0  0  0  0  0
  -24.6923  -26.5126   23.0587 C   0  0  1  0  0  0  0  0  0  0  0  0
  -28.6050  -18.2797   21.6827 C   0  0  2  0  0  0  0  0  0  0  0  0
  -29.7795  -24.5277   14.3554 C   0  0  0  0  0  0  0  0  0  0  0  0
  -31.7957  -22.1671   16.7100 C   0  0  0  0  0  0  0  0  0  0  0  0
  -25.8108  -34.0853   24.2447 C   0  0  0  0  0  0  0  0  0  0  0  0
  -32.4838  -24.2097   21.1029 C   0  0  0  0  0  0  0  0  0  0  0  0
  -23.5551  -29.6560   19.8671 C   0  0  0  0  0  0  0  0  0  0  0  0
  -24.2388  -32.0093   20.3793 C   0  0  0  0  0  0  0  0  0  0  0  0
  -22.3278  -30.9731   21.6029 C   0  0  0  0  0  0  0  0  0  0  0  0
  -27.4423  -31.2227   26.1473 C   0  0  0  0  0  0  0  0  0  0  0  0
  -26.4945  -22.3010   18.7851 C   0  0  0  0  0  0  0  0  0  0  0  0
  -30.5446  -23.2991   14.8322 C   0  0  0  0  0  0  0  0  0  0  0  0
  -31.5176  -25.3908   19.0964 C   0  0  0  0  0  0  0  0  0  0  0  0
  -30.2493  -25.6373   18.2667 C   0  0  0  0  0  0  0  0  0  0  0  0
  -30.8526  -23.3445   16.3599 C   0  0  1  0  0  0  0  0  0  0  0  0
  -24.6851  -30.2191   22.1191 C   0  0  1  0  0  0  0  0  0  0  0  0
  -25.9637  -32.6521   24.7298 C   0  0  2  0  0  0  0  0  0  0  0  0
  -31.2457  -24.8749   20.5150 C   0  0  2  0  0  0  0  0  0  1  0  0
  -23.7199  -30.6929   20.9961 C   0  0  0  0  0  0  0  0  0  0  0  0
  -27.7648  -16.0558   21.0262 N   0  0  0  0  0  0  0  0  0  0  0  0
  -29.3951  -24.4085   18.0821 N   0  0  0  0  0  0  0  0  0  0  0  0
  -28.8232  -16.8740   21.1543 N   0  0  0  0  0  0  0  0  0  0  0  0
  -25.1407  -27.8457   22.6513 N   0  0  0  0  0  0  0  0  0  0  0  0
  -27.0674  -20.2054   21.8081 N   0  0  0  0  0  0  0  0  0  0  0  0
  -31.1680  -16.9922   20.8404 N   0  0  0  0  0  0  0  0  0  0  0  0
  -30.1498  -12.7962   19.5164 N   0  0  0  0  0  0  0  0  0  0  0  0
  -22.8755  -25.4861   21.8326 N   0  0  0  0  0  0  0  0  0  0  0  0
  -24.8392  -31.1698   23.2150 N   0  0  0  0  0  0  0  0  0  0  0  0
  -26.7398  -21.1969   19.6860 N   0  0  0  0  0  0  0  0  0  0  0  0
  -27.1829  -32.5723   25.5831 N   0  3  0  0  0  0  0  0  0  0  0  0
  -31.8622  -14.2944   19.8028 O   0  0  0  0  0  0  0  0  0  0  0  0
  -25.0120  -25.5837   20.9116 O   0  0  0  0  0  0  0  0  0  0  0  0
  -23.1465  -28.8601   23.3075 O   0  0  0  0  0  0  0  0  0  0  0  0
  -27.1371  -31.4121   23.0202 O   0  0  0  0  0  0  0  0  0  0  0  0
  -26.6805  -22.4810   21.5845 O   0  0  0  0  0  0  0  0  0  0  0  0
  -25.0757  -10.4969   19.4719 O   0  0  0  0  0  0  0  0  0  0  0  0
  -30.8714  -25.9701   21.3496 O   0  0  0  0  0  0  0  0  0  1  0  0
  -21.3069   -9.0877   23.2421 F   0  0  0  0  0  0  0  0  0  0  0  0
  -23.0804  -12.2617   20.2113 F   0  0  0  0  0  0  0  0  0  0  0  0
  1  2  1  0  0  0  0
  1  5  2  0  0  0  0
  2  6  2  0  0  0  0
  3  8  2  0  0  0  0
  3 17  1  0  0  0  0
  4  9  1  0  0  0  0
  4 17  2  0  0  0  0
  5 19  1  0  0  0  0
  6 21  1  0  0  0  0
  7 10  2  0  0  0  0
  7 20  1  0  0  0  0
  8 24  1  0  0  0  0
  9 24  2  0  0  0  0
 10 25  1  0  0  0  0
 11 12  2  0  0  0  0
 11 26  1  0  0  0  0
 12 27  1  0  0  0  0
 13 22  1  0  0  0  0
 13 25  2  0  0  0  0
 14 23  1  0  0  0  0
 14 30  2  0  0  0  0
 15 27  2  0  0  0  0
 15 28  1  0  0  0  0
 16 23  2  0  0  0  0
 16 67  1  0  0  0  0
 17 29  1  0  0  0  0
 18 29  1  0  0  0  0
 18 31  2  0  0  0  0
 18 32  1  0  0  0  0
 19 21  2  0  0  0  0
 19 37  1  0  0  0  0
 20 22  2  0  0  0  0
 20 38  1  0  0  0  0
 21 46  1  0  0  0  0
 22 39  1  0  0  0  0
 23 57  1  0  0  0  0
 24 82  1  0  0  0  0
 25 83  1  0  0  0  0
 26 28  2  0  0  0  0
 26 82  1  0  0  0  0
 27 84  1  0  0  0  0
 28 85  1  0  0  0  0
 29 66  2  0  0  0  0
 30 61  1  0  0  0  0
 30 67  1  0  0  0  0
 31 68  1  0  0  0  0
 31 71  1  0  0  0  0
 32 72  1  0  0  0  0
 32 77  2  0  0  0  0
 33 47  1  0  0  0  0
 33 73  1  0  0  0  0
 33 78  2  0  0  0  0
 34 62  1  0  0  0  0
 34 69  1  0  0  0  0
 34 79  2  0  0  0  0
 35 63  1  0  0  0  0
 35 74  1  0  0  0  0
 35 80  2  0  0  0  0
 36 70  1  0  0  0  0
 36 75  1  0  0  0  0
 36 81  2  0  0  0  0
 37 40  1  0  0  0  0
 38 47  1  0  0  0  0
 39 69  1  0  0  0  0
 40 42  1  0  0  0  0
 41 43  1  0  0  0  0
 41 44  1  0  0  0  0
 42 46  1  0  0  0  0
 43 48  1  0  0  0  0
 44 70  1  0  0  0  0
 45 48  1  0  0  0  0
 45 70  1  0  0  0  0
 46 73  1  0  0  0  0
 47 69  1  0  0  0  0
 48 68  1  0  0  0  0
 49 58  1  0  0  0  0
 50 61  1  0  0  0  0
 51 63  1  0  0  0  0
 52 64  1  0  0  0  0
 53 65  1  0  0  0  0
 54 65  1  0  0  0  0
 55 65  1  0  0  0  0
 56 76  1  0  0  0  0
 57 75  1  0  0  0  0
 58 61  1  0  0  0  0
 59 60  1  0  0  0  0
 59 64  1  0  0  0  0
 60 67  1  0  0  0  0
 62 65  1  0  0  0  0
 62 74  1  0  0  0  0
 63 76  1  0  0  0  0
 64 83  1  0  0  0  0
 66 68  1  0  0  0  0
M  CHG  1  76   1
M  ISO  4  36 100  64 101  75 100  83 101
M  END
> <Batch ID>
0097

> <Smiles>
CCC(C)c1cc(C[100NH:0][100C:0](=O)N2CCCC(n3nc(-c4ccc(Oc5ccc(F)cc5F)cc4)c(C(N)=O)c3N)C2)cn1CC[101CH:1](C)[101O:1]c1ccc2c(c1)CN(C(=O)C(NC(=O)C(C)NC)C(C)(C)C)C(C(=O)NC1CCCc3ccccc31)C2

> <Shape>
0.259

> <Color>
0.051

> <Negative vol penalty>
0.000

$$$$

  -OEChem-04052319263D

 85 93  0     1  0  0  0  0  0999 V2000
  -25.1512  -11.3612   20.4678 C   0  0  0  0  0  0  0  0  0  0  0  0
  -24.0708  -12.2241   20.3145 C   0  0  0  0  0  0  0  0  0  0  0  0
  -31.0810  -25.1786   19.1777 C   0  0  0  0  0  0  0  0  0  0  0  0
  -31.5368  -26.9702   20.7331 C   0  0  0  0  0  0  0  0  0  0  0  0
  -26.3847  -11.8579   20.8869 C   0  0  0  0  0  0  0  0  0  0  0  0
  -24.2230  -13.5842   20.5814 C   0  0  0  0  0  0  0  0  0  0  0  0
  -21.8582  -19.9945   18.4291 C   0  0  0  0  0  0  0  0  0  0  0  0
  -32.3743  -25.2922   18.6677 C   0  0  0  0  0  0  0  0  0  0  0  0
  -32.8302  -27.0838   20.2232 C   0  0  0  0  0  0  0  0  0  0  0  0
  -21.3009  -21.1649   18.9424 C   0  0  0  0  0  0  0  0  0  0  0  0
  -35.6735  -24.8678   17.2015 C   0  0  0  0  0  0  0  0  0  0  0  0
  -36.3920  -23.6915   16.9878 C   0  0  0  0  0  0  0  0  0  0  0  0
  -23.4992  -21.9229   19.5843 C   0  0  0  0  0  0  0  0  0  0  0  0
  -36.2131  -23.1554   19.3368 C   0  0  0  0  0  0  0  0  0  0  0  0
  -20.1679  -27.3054   23.2604 C   0  0  0  0  0  0  0  0  0  0  0  0
  -30.6622  -26.0176   20.2103 C   0  0  0  0  0  0  0  0  0  0  0  0
  -28.9005  -25.0850   21.8022 C   0  0  0  0  0  0  0  0  0  0  0  0
  -26.5546  -13.2264   21.1497 C   0  0  0  0  0  0  0  0  0  0  0  0
  -23.2413  -19.7743   18.4995 C   0  0  0  0  0  0  0  0  0  0  0  0
  -25.4596  -14.0996   21.0057 C   0  0  0  0  0  0  0  0  0  0  0  0
  -24.0718  -20.7501   19.0688 C   0  0  0  0  0  0  0  0  0  0  0  0
  -33.2489  -26.2448   19.1905 C   0  0  0  0  0  0  0  0  0  0  0  0
  -22.1211  -22.1280   19.5227 C   0  0  0  0  0  0  0  0  0  0  0  0
  -35.2249  -25.1880   18.4829 C   0  0  0  0  0  0  0  0  0  0  0  0
  -36.6618  -22.8353   18.0554 C   0  0  0  0  0  0  0  0  0  0  0  0
  -35.4947  -24.3318   19.5505 C   0  0  0  0  0  0  0  0  0  0  0  0
  -29.3261  -25.9011   20.7371 C   0  0  0  0  0  0  0  0  0  0  0  0
  -20.1085  -28.5480   22.6953 C   0  0  0  0  0  0  0  0  0  0  0  0
  -27.5543  -25.3352   21.9098 C   0  0  0  0  0  0  0  0  0  0  0  0
  -18.1993  -27.5119   22.2692 C   0  0  0  0  0  0  0  0  0  0  0  0
  -29.6546  -24.1815   22.6212 C   0  0  0  0  0  0  0  0  0  0  0  0
  -25.0992  -17.6051   19.8946 C   0  0  0  0  0  0  0  0  0  0  0  0
  -27.4491  -19.1422   18.2706 C   0  0  0  0  0  0  0  0  0  0  0  0
  -28.5303  -22.0028   16.7556 C   0  0  0  0  0  0  0  0  0  0  0  0
  -23.3755  -28.8607   22.1467 C   0  0  0  0  0  0  0  0  0  0  0  0
  -27.8944  -13.7094   21.6460 C   0  0  0  0  0  0  0  0  0  0  0  0
  -23.8298  -18.5185   17.9172 C   0  0  0  0  0  0  0  0  0  0  0  0
  -25.5650  -20.5709   19.1507 C   0  0  0  0  0  0  0  0  0  0  0  0
  -28.0712  -15.2224   21.5474 C   0  0  0  0  0  0  0  0  0  0  0  0
  -24.4121  -27.8367   18.8340 C   0  0  0  0  0  0  0  0  0  0  0  0
  -26.8366  -15.9402   22.0836 C   0  0  0  0  0  0  0  0  0  0  0  0
  -25.7572  -27.1703   19.1286 C   0  0  0  0  0  0  0  0  0  0  0  0
  -24.1945  -29.0588   19.7213 C   0  0  0  0  0  0  0  0  0  0  0  0
  -25.6445  -28.1201   21.4791 C   0  0  0  0  0  0  0  0  0  0  0  0
  -25.5917  -15.5853   21.2616 C   0  0  1  0  0  0  0  0  0  0  0  0
  -25.1935  -18.1693   18.5052 C   0  0  1  0  0  0  0  0  0  0  0  0
  -25.9142  -26.8646   20.6299 C   0  0  2  0  0  0  0  0  0  0  0  0
  -16.7501  -27.2670   20.2214 C   0  0  0  0  0  0  0  0  0  0  0  0
  -15.7733  -28.1913   22.3537 C   0  0  0  0  0  0  0  0  0  0  0  0
  -30.5094  -22.9670   15.5511 C   0  0  0  0  0  0  0  0  0  0  0  0
  -18.2971  -22.8646   22.8637 C   0  0  0  0  0  0  0  0  0  0  0  0
  -28.9173  -19.4428   20.9285 C   0  0  0  0  0  0  0  0  0  0  0  0
  -30.3569  -21.1881   19.8562 C   0  0  0  0  0  0  0  0  0  0  0  0
  -30.3809  -18.8491   18.9895 C   0  0  0  0  0  0  0  0  0  0  0  0
  -26.9534  -22.4655   14.2943 C   0  0  0  0  0  0  0  0  0  0  0  0
  -21.0792  -29.6451   22.6651 C   0  0  0  0  0  0  0  0  0  0  0  0
  -20.0968  -24.2033   21.6641 C   0  0  0  0  0  0  0  0  0  0  0  0
  -18.5969  -25.2903   23.4153 C   0  0  0  0  0  0  0  0  0  0  0  0
  -20.2494  -23.1900   20.5350 C   0  0  0  0  0  0  0  0  0  1  0  0
  -16.8318  -27.2367   21.7621 C   0  0  0  0  0  0  0  0  0  0  0  0
  -28.3619  -20.3091   18.5605 C   0  0  1  0  0  0  0  0  0  0  0  0
  -29.1797  -22.2436   15.4048 C   0  0  2  0  0  0  0  0  0  0  0  0
  -18.6888  -24.2321   22.2920 C   0  0  2  0  0  0  0  0  0  0  0  0
  -29.4759  -19.9501   19.5840 C   0  0  0  0  0  0  0  0  0  0  0  0
  -28.3310  -26.6163   20.2059 N   0  0  0  0  0  0  0  0  0  0  0  0
  -18.9732  -26.6865   22.9816 N   0  0  0  0  0  0  0  0  0  0  0  0
  -27.2666  -26.2502   20.9401 N   0  0  0  0  0  0  0  0  0  0  0  0
  -18.8797  -28.6484   22.0886 N   0  3  0  0  0  0  0  0  0  0  0  0
  -26.0921  -19.3234   18.5731 N   0  0  0  0  0  0  0  0  0  0  0  0
  -24.3394  -28.6960   21.1381 N   0  0  0  0  0  0  0  0  0  0  0  0
  -26.6004  -24.8596   22.7383 N   0  0  0  0  0  0  0  0  0  0  0  0
  -31.0276  -24.0444   22.3755 N   0  0  0  0  0  0  0  0  0  0  0  0
  -25.5850  -16.3169   20.0129 N   0  0  0  0  0  0  0  0  0  0  0  0
  -28.8623  -20.7667   17.2688 N   0  0  0  0  0  0  0  0  0  0  0  0
  -22.1693  -29.4193   21.7422 N   0  0  0  0  0  0  0  0  0  0  0  0
  -28.2883  -23.0688   14.5414 N   0  3  0  0  0  0  0  0  0  0  0  0
  -29.1233  -23.5031   23.5329 O   0  0  0  0  0  0  0  0  0  0  0  0
  -24.6224  -18.2885   20.7931 O   0  0  0  0  0  0  0  0  0  0  0  0
  -27.9215  -18.1106   17.7867 O   0  0  0  0  0  0  0  0  0  0  0  0
  -27.8044  -22.8299   17.3027 O   0  0  0  0  0  0  0  0  0  0  0  0
  -23.5732  -28.5293   23.3207 O   0  0  0  0  0  0  0  0  0  0  0  0
  -34.5110  -26.3558   18.6934 O   0  0  0  0  0  0  0  0  0  0  0  0
  -21.5797  -23.2710   20.0250 O   0  0  0  0  0  0  0  0  0  1  0  0
  -37.3504  -21.7050   17.8497 F   0  0  0  0  0  0  0  0  0  0  0  0
  -35.0653  -24.6334   20.7836 F   0  0  0  0  0  0  0  0  0  0  0  0
  1  2  1  0  0  0  0
  1  5  2  0  0  0  0
  2  6  2  0  0  0  0
  3  8  2  0  0  0  0
  3 16  1  0  0  0  0
  4  9  1  0  0  0  0
  4 16  2  0  0  0  0
  5 18  1  0  0  0  0
  6 20  1  0  0  0  0
  7 10  2  0  0  0  0
  7 19  1  0  0  0  0
  8 22  1  0  0  0  0
  9 22  2  0  0  0  0
 10 23  1  0  0  0  0
 11 12  2  0  0  0  0
 11 24  1  0  0  0  0
 12 25  1  0  0  0  0
 13 21  1  0  0  0  0
 13 23  2  0  0  0  0
 14 25  2  0  0  0  0
 14 26  1  0  0  0  0
 15 28  2  0  0  0  0
 15 66  1  0  0  0  0
 16 27  1  0  0  0  0
 17 27  1  0  0  0  0
 17 29  2  0  0  0  0
 17 31  1  0  0  0  0
 18 20  2  0  0  0  0
 18 36  1  0  0  0  0
 19 21  2  0  0  0  0
 19 37  1  0  0  0  0
 20 45  1  0  0  0  0
 21 38  1  0  0  0  0
 22 82  1  0  0  0  0
 23 83  1  0  0  0  0
 24 26  2  0  0  0  0
 24 82  1  0  0  0  0
 25 84  1  0  0  0  0
 26 85  1  0  0  0  0
 27 65  2  0  0  0  0
 28 56  1  0  0  0  0
 28 68  1  0  0  0  0
 29 67  1  0  0  0  0
 29 71  1  0  0  0  0
 30 60  1  0  0  0  0
 30 66  1  0  0  0  0
 30 68  2  0  0  0  0
 31 72  1  0  0  0  0
 31 77  2  0  0  0  0
 32 46  1  0  0  0  0
 32 73  1  0  0  0  0
 32 78  2  0  0  0  0
 33 61  1  0  0  0  0
 33 69  1  0  0  0  0
 33 79  2  0  0  0  0
 34 62  1  0  0  0  0
 34 74  1  0  0  0  0
 34 80  2  0  0  0  0
 35 70  1  0  0  0  0
 35 75  1  0  0  0  0
 35 81  2  0  0  0  0
 36 39  1  0  0  0  0
 37 46  1  0  0  0  0
 38 69  1  0  0  0  0
 39 41  1  0  0  0  0
 40 42  1  0  0  0  0
 40 43  1  0  0  0  0
 41 45  1  0  0  0  0
 42 47  1  0  0  0  0
 43 70  1  0  0  0  0
 44 47  1  0  0  0  0
 44 70  1  0  0  0  0
 45 73  1  0  0  0  0
 46 69  1  0  0  0  0
 47 67  1  0  0  0  0
 48 60  1  0  0  0  0
 49 60  1  0  0  0  0
 50 62  1  0  0  0  0
 51 63  1  0  0  0  0
 52 64  1  0  0  0  0
 53 64  1  0  0  0  0
 54 64  1  0  0  0  0
 55 76  1  0  0  0  0
 56 75  1  0  0  0  0
 57 59  1  0  0  0  0
 57 63  1  0  0  0  0
 58 63  1  0  0  0  0
 58 66  1  0  0  0  0
 59 83  1  0  0  0  0
 61 64  1  0  0  0  0
 61 74  1  0  0  0  0
 62 76  1  0  0  0  0
 65 67  1  0  0  0  0
M  CHG  2  68   1  76   1
M  ISO  4  35 100  59 101  75 100  83 101
M  END
> <Batch ID>
0097

> <Smiles>
CNC(C)C(=O)NC(C(=O)N1Cc2cc([101O:1][101CH2:1]CC(C)Cn3cc(C[100NH:0][100C:0](=O)N4CCCC(n5nc(-c6ccc(Oc7ccc(F)cc7F)cc6)c(C(N)=O)c5N)C4)nc3C(C)C)ccc2CC1C(=O)NC1CCCc2ccccc21)C(C)(C)C

> <Shape>
0.199

> <Color>
0.090

> <Negative vol penalty>
0.000

$$$$

  -OEChem-04052319263D

 86 94  0     1  0  0  0  0  0999 V2000
  -17.5840  -25.6328   21.1639 C   0  0  0  0  0  0  0  0  0  0  0  0
  -18.8960  -25.5058   20.7189 C   0  0  0  0  0  0  0  0  0  0  0  0
  -26.4578  -11.6735   20.5554 C   0  0  0  0  0  0  0  0  0  0  0  0
  -25.4561  -13.8717   20.5199 C   0  0  0  0  0  0  0  0  0  0  0  0
  -17.2495  -26.6425   22.0652 C   0  0  0  0  0  0  0  0  0  0  0  0
  -19.8741  -26.3892   21.1743 C   0  0  0  0  0  0  0  0  0  0  0  0
  -24.1672  -24.0357   22.4684 C   0  0  0  0  0  0  0  0  0  0  0  0
  -25.2333  -11.1215   20.9316 C   0  0  0  0  0  0  0  0  0  0  0  0
  -24.2316  -13.3198   20.8962 C   0  0  0  0  0  0  0  0  0  0  0  0
  -25.0146  -23.6423   21.4335 C   0  0  0  0  0  0  0  0  0  0  0  0
  -23.3990  -10.8220   23.7547 C   0  0  0  0  0  0  0  0  0  0  0  0
  -23.4022   -9.8806   24.7840 C   0  0  0  0  0  0  0  0  0  0  0  0
  -26.3922  -25.5820   21.8324 C   0  0  0  0  0  0  0  0  0  0  0  0
  -22.4614   -8.2370   23.2838 C   0  0  0  0  0  0  0  0  0  0  0  0
  -28.7078  -18.5333   15.4576 C   0  0  0  0  0  0  0  0  0  0  0  0
  -26.5692  -13.0486   20.3496 C   0  0  0  0  0  0  0  0  0  0  0  0
  -28.5806  -13.3246   18.8050 C   0  0  0  0  0  0  0  0  0  0  0  0
  -18.2259  -27.5328   22.5393 C   0  0  0  0  0  0  0  0  0  0  0  0
  -24.4203  -25.2129   23.1871 C   0  0  0  0  0  0  0  0  0  0  0  0
  -19.5520  -27.4127   22.0818 C   0  0  0  0  0  0  0  0  0  0  0  0
  -25.5480  -25.9867   22.8776 C   0  0  0  0  0  0  0  0  0  0  0  0
  -24.1202  -11.9447   21.1020 C   0  0  0  0  0  0  0  0  0  0  0  0
  -26.1257  -24.4170   21.1134 C   0  0  0  0  0  0  0  0  0  0  0  0
  -22.9269  -10.4709   22.4900 C   0  0  0  0  0  0  0  0  0  0  0  0
  -22.9335   -8.5882   24.5486 C   0  0  0  0  0  0  0  0  0  0  0  0
  -22.4582   -9.1784   22.2545 C   0  0  0  0  0  0  0  0  0  0  0  0
  -27.8340  -13.6194   19.9614 C   0  0  0  0  0  0  0  0  0  0  0  0
  -28.8872  -17.3009   16.1139 C   0  0  0  0  0  0  0  0  0  0  0  0
  -28.5890  -19.4495   16.4740 C   0  0  0  0  0  0  0  0  0  0  0  0
  -29.6928  -14.1248   18.9010 C   0  0  0  0  0  0  0  0  0  0  0  0
  -28.2943  -12.4094   17.7391 C   0  0  0  0  0  0  0  0  0  0  0  0
  -22.8623  -27.9473   23.6338 C   0  0  0  0  0  0  0  0  0  0  0  0
  -25.2760  -28.5303   25.7210 C   0  0  0  0  0  0  0  0  0  0  0  0
  -28.4858  -27.8932   26.6898 C   0  0  0  0  0  0  0  0  0  0  0  0
  -30.4018  -19.2878   22.1227 C   0  0  0  0  0  0  0  0  0  0  0  0
  -17.8070  -28.6377   23.4765 C   0  0  0  0  0  0  0  0  0  0  0  0
  -23.5115  -25.6093   24.3182 C   0  0  0  0  0  0  0  0  0  0  0  0
  -25.8753  -27.2484   23.6322 C   0  0  0  0  0  0  0  0  0  0  0  0
  -18.9774  -29.2997   24.1993 C   0  0  0  0  0  0  0  0  0  0  0  0
  -32.5225  -16.2540   22.1095 C   0  0  0  0  0  0  0  0  0  0  0  0
  -20.1011  -29.6160   23.2174 C   0  0  0  0  0  0  0  0  0  0  0  0
  -31.5885  -15.1972   21.5221 C   0  0  0  0  0  0  0  0  0  0  0  0
  -31.7516  -17.3497   22.8393 C   0  0  0  0  0  0  0  0  0  0  0  0
  -29.7652  -16.9426   21.4241 C   0  0  0  0  0  0  0  0  0  0  0  0
  -20.6461  -28.3362   22.5718 C   0  0  1  0  0  0  0  0  0  0  0  0
  -23.5789  -27.0979   24.6451 C   0  0  1  0  0  0  0  0  0  0  0  0
  -30.5076  -15.8487   20.6421 C   0  0  2  0  0  0  0  0  0  0  0  0
  -29.0648  -15.9745   15.4993 C   0  0  0  0  0  0  0  0  0  0  0  0
  -30.1914  -28.5493   28.4096 C   0  0  0  0  0  0  0  0  0  0  0  0
  -27.2406  -23.5398   15.2269 C   0  0  0  0  0  0  0  0  0  0  0  0
  -25.7512  -31.1575   24.2439 C   0  0  0  0  0  0  0  0  0  0  0  0
  -27.9896  -31.2976   25.3566 C   0  0  0  0  0  0  0  0  0  0  0  0
  -25.9103  -31.3175   26.7346 C   0  0  0  0  0  0  0  0  0  0  0  0
  -29.6295  -21.3715   21.0545 C   0  0  0  0  0  0  0  0  0  0  0  0
  -28.6649  -25.1301   27.7349 C   0  0  0  0  0  0  0  0  0  0  0  0
  -28.3788  -20.9429   16.4424 C   0  0  0  0  0  0  0  0  0  0  0  0
  -26.9035  -21.3667   16.4430 C   0  0  0  0  0  0  0  0  0  0  0  0
  -27.1661  -23.5855   17.7590 C   0  0  0  0  0  0  0  0  0  0  0  0
  -28.6414  -19.2568   18.9789 C   0  0  0  0  0  0  0  0  0  0  0  0
  -30.0174  -19.3993   19.6242 C   0  0  0  0  0  0  0  0  0  0  0  0
  -26.3714  -23.3000   19.0283 C   0  0  0  0  0  0  0  0  0  1  0  0
  -26.6417  -29.1665   25.6255 C   0  0  1  0  0  0  0  0  0  0  0  0
  -29.0832  -27.5726   28.0480 C   0  0  2  0  0  0  0  0  0  0  0  0
  -26.6525  -22.8892   16.4846 C   0  0  1  0  0  0  0  0  0  0  0  0
  -26.5663  -30.7121   25.4745 C   0  0  0  0  0  0  0  0  0  0  0  0
  -28.4223  -14.5353   20.7355 N   0  0  0  0  0  0  0  0  0  0  0  0
  -28.8835  -17.4198   17.4442 N   0  0  0  0  0  0  0  0  0  0  0  0
  -28.7005  -18.7378   17.6322 N   0  0  0  0  0  0  0  0  0  0  0  0
  -29.5505  -14.8228   20.0641 N   0  0  0  0  0  0  0  0  0  0  0  0
  -24.9530  -27.5974   24.7254 N   0  0  0  0  0  0  0  0  0  0  0  0
  -30.7024  -17.9217   21.9948 N   0  0  0  0  0  0  0  0  0  0  0  0
  -30.7689  -14.2923   18.1033 N   0  0  0  0  0  0  0  0  0  0  0  0
  -28.7512  -11.0892   17.8513 N   0  0  0  0  0  0  0  0  0  0  0  0
  -21.5226  -27.6408   23.4897 N   0  0  0  0  0  0  0  0  0  0  0  0
  -27.3847  -28.7162   26.7975 N   0  0  0  0  0  0  0  0  0  0  0  0
  -29.9433  -19.9520   20.9750 N   0  0  0  0  0  0  0  0  0  0  0  0
  -29.6512  -26.1948   28.0519 N   0  3  0  0  0  0  0  0  0  0  0  0
  -27.6666  -12.7564   16.7100 O   0  0  0  0  0  0  0  0  0  0  0  0
  -23.4789  -28.8173   23.0299 O   0  0  0  0  0  0  0  0  0  0  0  0
  -24.5263  -28.8440   26.6489 O   0  0  0  0  0  0  0  0  0  0  0  0
  -28.9517  -27.4601   25.6381 O   0  0  0  0  0  0  0  0  0  0  0  0
  -30.5447  -19.8822   23.1989 O   0  0  0  0  0  0  0  0  0  0  0  0
  -22.9251  -11.4064   21.4689 O   0  0  0  0  0  0  0  0  0  0  0  0
  -26.9540  -24.0357   20.1033 O   0  0  0  0  0  0  0  0  0  1  0  0
  -22.9380   -7.6838   25.5367 F   0  0  0  0  0  0  0  0  0  0  0  0
  -22.0046   -8.8350   21.0412 F   0  0  0  0  0  0  0  0  0  0  0  0
  1  2  1  0  0  0  0
  1  5  2  0  0  0  0
  2  6  2  0  0  0  0
  3  8  2  0  0  0  0
  3 16  1  0  0  0  0
  4  9  1  0  0  0  0
  4 16  2  0  0  0  0
  5 18  1  0  0  0  0
  6 20  1  0  0  0  0
  7 10  2  0  0  0  0
  7 19  1  0  0  0  0
  8 22  1  0  0  0  0
  9 22  2  0  0  0  0
 10 23  1  0  0  0  0
 11 12  2  0  0  0  0
 11 24  1  0  0  0  0
 12 25  1  0  0  0  0
 13 21  1  0  0  0  0
 13 23  2  0  0  0  0
 14 25  2  0  0  0  0
 14 26  1  0  0  0  0
 15 28  1  0  0  0  0
 15 29  2  0  0  0  0
 16 27  1  0  0  0  0
 17 27  1  0  0  0  0
 17 30  2  0  0  0  0
 17 31  1  0  0  0  0
 18 20  2  0  0  0  0
 18 36  1  0  0  0  0
 19 21  2  0  0  0  0
 19 37  1  0  0  0  0
 20 45  1  0  0  0  0
 21 38  1  0  0  0  0
 22 83  1  0  0  0  0
 23 84  1  0  0  0  0
 24 26  2  0  0  0  0
 24 83  1  0  0  0  0
 25 85  1  0  0  0  0
 26 86  1  0  0  0  0
 27 66  2  0  0  0  0
 28 48  1  0  0  0  0
 28 67  2  0  0  0  0
 29 56  1  0  0  0  0
 29 68  1  0  0  0  0
 30 69  1  0  0  0  0
 30 72  1  0  0  0  0
 31 73  1  0  0  0  0
 31 78  2  0  0  0  0
 32 46  1  0  0  0  0
 32 74  1  0  0  0  0
 32 79  2  0  0  0  0
 33 62  1  0  0  0  0
 33 70  1  0  0  0  0
 33 80  2  0  0  0  0
 34 63  1  0  0  0  0
 34 75  1  0  0  0  0
 34 81  2  0  0  0  0
 35 71  1  0  0  0  0
 35 76  1  0  0  0  0
 35 82  2  0  0  0  0
 36 39  1  0  0  0  0
 37 46  1  0  0  0  0
 38 70  1  0  0  0  0
 39 41  1  0  0  0  0
 40 42  1  0  0  0  0
 40 43  1  0  0  0  0
 41 45  1  0  0  0  0
 42 47  1  0  0  0  0
 43 71  1  0  0  0  0
 44 47  1  0  0  0  0
 44 71  1  0  0  0  0
 45 74  1  0  0  0  0
 46 70  1  0  0  0  0
 47 69  1  0  0  0  0
 49 63  1  0  0  0  0
 50 64  1  0  0  0  0
 51 65  1  0  0  0  0
 52 65  1  0  0  0  0
 53 65  1  0  0  0  0
 54 76  1  0  0  0  0
 55 77  1  0  0  0  0
 56 57  1  0  0  0  0
 57 64  1  0  0  0  0
 58 61  1  0  0  0  0
 58 64  1  0  0  0  0
 59 60  1  0  0  0  0
 59 68  1  0  0  0  0
 60 76  1  0  0  0  0
 61 84  1  0  0  0  0
 62 65  1  0  0  0  0
 62 75  1  0  0  0  0
 63 77  1  0  0  0  0
 66 69  1  0  0  0  0
 67 68  1  0  0  0  0
M  CHG  1  77   1
M  ISO  4  35 100  61 101  76 100  84 101
M  END
> <Batch ID>
0097

> <Smiles>
CNC(C)C(=O)NC(C(=O)N1Cc2cc([101O:1][101CH2:1]CC(C)CCc3cc(C)nn3CC[100N:0](C)[100C:0](=O)N3CCCC(n4nc(-c5ccc(Oc6ccc(F)cc6F)cc5)c(C(N)=O)c4N)C3)ccc2CC1C(=O)NC1CCCc2ccccc21)C(C)(C)C

> <Shape>
0.254

> <Color>
0.067

> <Negative vol penalty>
0.000

$$$$

  -OEChem-04052319263D

 85 93  0     1  0  0  0  0  0999 V2000
  -28.6071  -35.5260   27.5449 C   0  0  0  0  0  0  0  0  0  0  0  0
  -29.2494  -34.4698   26.9067 C   0  0  0  0  0  0  0  0  0  0  0  0
  -22.6043  -10.4068   20.3011 C   0  0  0  0  0  0  0  0  0  0  0  0
  -24.2120   -9.7069   21.9632 C   0  0  0  0  0  0  0  0  0  0  0  0
  -27.3246  -35.3497   28.0628 C   0  0  0  0  0  0  0  0  0  0  0  0
  -28.6100  -33.2364   26.7868 C   0  0  0  0  0  0  0  0  0  0  0  0
  -28.0914  -27.6231   22.3666 C   0  0  0  0  0  0  0  0  0  0  0  0
  -21.8325   -9.2769   20.5718 C   0  0  0  0  0  0  0  0  0  0  0  0
  -23.4402   -8.5770   22.2339 C   0  0  0  0  0  0  0  0  0  0  0  0
  -28.2000  -26.2332   22.3735 C   0  0  0  0  0  0  0  0  0  0  0  0
  -20.6430   -7.8327   23.9782 C   0  0  0  0  0  0  0  0  0  0  0  0
  -20.4282   -7.5018   25.3160 C   0  0  0  0  0  0  0  0  0  0  0  0
  -25.9533  -26.0679   23.2363 C   0  0  0  0  0  0  0  0  0  0  0  0
  -21.4957   -5.3641   24.9588 C   0  0  0  0  0  0  0  0  0  0  0  0
  -23.7941  -10.6218   20.9968 C   0  0  0  0  0  0  0  0  0  0  0  0
  -24.2029  -13.1353   20.8456 C   0  0  0  0  0  0  0  0  0  0  0  0
  -26.6654  -34.1164   27.9407 C   0  0  0  0  0  0  0  0  0  0  0  0
  -26.9149  -28.2473   22.8056 C   0  0  0  0  0  0  0  0  0  0  0  0
  -27.3181  -33.0432   27.3047 C   0  0  0  0  0  0  0  0  0  0  0  0
  -25.8314  -27.4659   23.2316 C   0  0  0  0  0  0  0  0  0  0  0  0
  -22.2504   -8.3620   21.5382 C   0  0  0  0  0  0  0  0  0  0  0  0
  -27.1319  -25.4555   22.8111 C   0  0  0  0  0  0  0  0  0  0  0  0
  -21.2842   -6.9292   23.1305 C   0  0  0  0  0  0  0  0  0  0  0  0
  -20.8545   -6.2675   25.8064 C   0  0  0  0  0  0  0  0  0  0  0  0
  -21.7105   -5.6950   23.6209 C   0  0  0  0  0  0  0  0  0  0  0  0
  -24.5921  -11.7885   20.7172 C   0  0  0  0  0  0  0  0  0  0  0  0
  -25.3105  -13.8509   20.4614 C   0  0  0  0  0  0  0  0  0  0  0  0
  -22.9520  -13.6899   21.2738 C   0  0  0  0  0  0  0  0  0  0  0  0
  -26.1853  -30.2581   25.1568 C   0  0  0  0  0  0  0  0  0  0  0  0
  -30.8420  -14.6559   20.6717 C   0  0  0  0  0  0  0  0  0  0  0  0
  -23.2779  -30.2714   23.7184 C   0  0  0  0  0  0  0  0  0  0  0  0
  -21.0777  -27.8455   22.2048 C   0  0  0  0  0  0  0  0  0  0  0  0
  -25.2982  -33.9598   28.5580 C   0  0  0  0  0  0  0  0  0  0  0  0
  -26.8039  -29.7468   22.7668 C   0  0  0  0  0  0  0  0  0  0  0  0
  -24.5392  -28.0865   23.6937 C   0  0  0  0  0  0  0  0  0  0  0  0
  -24.5416  -32.7315   28.0590 C   0  0  0  0  0  0  0  0  0  0  0  0
  -29.5853  -12.3660   18.2187 C   0  0  0  0  0  0  0  0  0  0  0  0
  -25.4486  -31.5051   28.0696 C   0  0  0  0  0  0  0  0  0  0  0  0
  -28.1524  -12.0990   18.6777 C   0  0  0  0  0  0  0  0  0  0  0  0
  -30.8970  -17.5629   23.1570 C   0  0  0  0  0  0  0  0  0  0  0  0
  -30.5254  -12.5560   19.4050 C   0  0  0  0  0  0  0  0  0  0  0  0
  -33.4986  -18.9201   21.0665 C   0  0  0  0  0  0  0  0  0  0  0  0
  -33.1512  -18.8163   23.4938 C   0  0  0  0  0  0  0  0  0  0  0  0
  -28.6597  -13.3570   20.8190 C   0  0  0  0  0  0  0  0  0  0  0  0
  -32.6996  -17.9930   20.1564 C   0  0  0  0  0  0  0  0  0  0  0  0
  -26.6475  -31.6974   27.1331 C   0  0  1  0  0  0  0  0  0  0  0  0
  -25.7455  -30.2925   23.7205 C   0  0  1  0  0  0  0  0  0  0  0  0
  -31.6139  -18.9036   23.4170 C   0  0  2  0  0  0  0  0  0  0  0  0
  -27.6715  -13.1896   19.6512 C   0  0  2  0  0  0  0  0  0  0  0  0
  -31.2763  -16.7764   21.8931 C   0  0  1  0  0  0  0  0  0  0  0  0
  -19.3351  -28.1137   20.4190 C   0  0  0  0  0  0  0  0  0  0  0  0
  -29.0333  -20.1744   25.9723 C   0  0  0  0  0  0  0  0  0  0  0  0
  -21.3471  -30.6021   26.0578 C   0  0  0  0  0  0  0  0  0  0  0  0
  -19.6561  -29.2922   24.7567 C   0  0  0  0  0  0  0  0  0  0  0  0
  -20.4954  -31.4682   23.8717 C   0  0  0  0  0  0  0  0  0  0  0  0
  -22.3173  -25.7530   20.5184 C   0  0  0  0  0  0  0  0  0  0  0  0
  -30.2526  -15.6765   21.6125 C   0  0  0  0  0  0  0  0  0  0  0  0
  -31.0846  -19.5065   24.7280 C   0  0  0  0  0  0  0  0  0  0  0  0
  -28.4013  -22.1907   23.7029 C   0  0  0  0  0  0  0  0  0  0  0  0
  -29.7696  -21.5565   23.9626 C   0  0  0  0  0  0  0  0  0  0  0  0
  -28.5342  -23.5460   23.0200 C   0  0  0  0  0  0  0  0  0  1  0  0
  -22.0179  -29.4500   23.8468 C   0  0  1  0  0  0  0  0  0  0  0  0
  -20.7657  -27.6993   20.7263 C   0  0  2  0  0  0  0  0  0  0  0  0
  -29.6943  -20.1482   24.5890 C   0  0  2  0  0  0  0  0  0  0  0  0
  -20.9047  -30.1921   24.6389 C   0  0  0  0  0  0  0  0  0  0  0  0
  -25.8487  -11.6538   20.2851 N   0  0  0  0  0  0  0  0  0  0  0  0
  -26.2588  -12.9252   20.1386 N   0  0  0  0  0  0  0  0  0  0  0  0
  -33.8464  -18.2737   22.3278 N   0  0  0  0  0  0  0  0  0  0  0  0
  -24.4818  -29.5568   23.6432 N   0  0  0  0  0  0  0  0  0  0  0  0
  -30.0222  -13.5843   20.3175 N   0  0  0  0  0  0  0  0  0  0  0  0
  -25.5561  -15.1753   20.3716 N   0  0  0  0  0  0  0  0  0  0  0  0
  -22.7701  -13.9532   22.6383 N   0  0  0  0  0  0  0  0  0  0  0  0
  -26.2493  -31.5019   25.7555 N   0  0  0  0  0  0  0  0  0  0  0  0
  -21.6360  -29.0736   22.4900 N   0  0  0  0  0  0  0  0  0  0  0  0
  -31.3358  -17.6831   20.6912 N   0  3  0  0  0  0  0  0  0  0  0  0
  -20.9479  -26.2842   20.2960 N   0  3  0  0  0  0  0  0  0  0  0  0
  -22.0171  -13.9292   20.4724 O   0  0  0  0  0  0  0  0  0  0  0  0
  -26.4459  -29.1827   25.6833 O   0  0  0  0  0  0  0  0  0  0  0  0
  -31.9958  -14.8097   20.2627 O   0  0  0  0  0  0  0  0  0  0  0  0
  -23.1964  -31.5016   23.6789 O   0  0  0  0  0  0  0  0  0  0  0  0
  -20.8456  -26.9603   23.0252 O   0  0  0  0  0  0  0  0  0  0  0  0
  -21.4974   -7.2595   21.8027 O   0  0  0  0  0  0  0  0  0  0  0  0
  -27.2363  -24.0887   22.8195 O   0  0  0  0  0  0  0  0  0  1  0  0
  -20.6495   -5.9506   27.0916 F   0  0  0  0  0  0  0  0  0  0  0  0
  -22.3281   -4.8234   22.8117 F   0  0  0  0  0  0  0  0  0  0  0  0
  1  2  1  0  0  0  0
  1  5  2  0  0  0  0
  2  6  2  0  0  0  0
  3  8  2  0  0  0  0
  3 15  1  0  0  0  0
  4  9  1  0  0  0  0
  4 15  2  0  0  0  0
  5 17  1  0  0  0  0
  6 19  1  0  0  0  0
  7 10  2  0  0  0  0
  7 18  1  0  0  0  0
  8 21  1  0  0  0  0
  9 21  2  0  0  0  0
 10 22  1  0  0  0  0
 11 12  2  0  0  0  0
 11 23  1  0  0  0  0
 12 24  1  0  0  0  0
 13 20  1  0  0  0  0
 13 22  2  0  0  0  0
 14 24  2  0  0  0  0
 14 25  1  0  0  0  0
 15 26  1  0  0  0  0
 16 26  1  0  0  0  0
 16 27  2  0  0  0  0
 16 28  1  0  0  0  0
 17 19  2  0  0  0  0
 17 33  1  0  0  0  0
 18 20  2  0  0  0  0
 18 34  1  0  0  0  0
 19 46  1  0  0  0  0
 20 35  1  0  0  0  0
 21 82  1  0  0  0  0
 22 83  1  0  0  0  0
 23 25  2  0  0  0  0
 23 82  1  0  0  0  0
 24 84  1  0  0  0  0
 25 85  1  0  0  0  0
 26 66  2  0  0  0  0
 27 67  1  0  0  0  0
 27 71  1  0  0  0  0
 28 72  1  0  0  0  0
 28 77  2  0  0  0  0
 29 47  1  0  0  0  0
 29 73  1  0  0  0  0
 29 78  2  0  0  0  0
 30 57  1  0  0  0  0
 30 70  1  0  0  0  0
 30 79  2  0  0  0  0
 31 62  1  0  0  0  0
 31 69  1  0  0  0  0
 31 80  2  0  0  0  0
 32 63  1  0  0  0  0
 32 74  1  0  0  0  0
 32 81  2  0  0  0  0
 33 36  1  0  0  0  0
 34 47  1  0  0  0  0
 35 69  1  0  0  0  0
 36 38  1  0  0  0  0
 37 39  1  0  0  0  0
 37 41  1  0  0  0  0
 38 46  1  0  0  0  0
 39 49  1  0  0  0  0
 40 48  1  0  0  0  0
 40 50  1  0  0  0  0
 41 70  1  0  0  0  0
 42 45  1  0  0  0  0
 42 68  1  0  0  0  0
 43 48  1  0  0  0  0
 43 68  1  0  0  0  0
 44 49  1  0  0  0  0
 44 70  1  0  0  0  0
 45 75  1  0  0  0  0
 46 73  1  0  0  0  0
 47 69  1  0  0  0  0
 48 58  1  0  0  0  0
 49 67  1  0  0  0  0
 50 57  1  0  0  0  0
 50 75  1  0  0  0  0
 51 63  1  0  0  0  0
 52 64  1  0  0  0  0
 53 65  1  0  0  0  0
 54 65  1  0  0  0  0
 55 65  1  0  0  0  0
 56 76  1  0  0  0  0
 58 64  1  0  0  0  0
 59 60  1  0  0  0  0
 59 61  1  0  0  0  0
 60 64  1  0  0  0  0
 61 83  1  0  0  0  0
 62 65  1  0  0  0  0
 62 74  1  0  0  0  0
 63 76  1  0  0  0  0
 66 67  1  0  0  0  0
M  CHG  2  75   1  76   1
M  ISO  4  30 100  57 100  61 101  83 101
M  END
> <Batch ID>
0097

> <Smiles>
CNC(C)C(=O)NC(C(=O)N1Cc2cc([101O:1][101CH2:1]CCC(C)CC3CNCCNC([100CH2:0][100C:0](=O)N4CCCC(n5nc(-c6ccc(Oc7ccc(F)cc7F)cc6)c(C(N)=O)c5N)C4)C3)ccc2CC1C(=O)NC1CCCc2ccccc21)C(C)(C)C

> <Shape>
0.297

> <Color>
0.197

> <Negative vol penalty>
0.000

$$$$

  -OEChem-04052319263D

 88 96  0     1  0  0  0  0  0999 V2000
  -18.2280  -26.3048   19.6279 C   0  0  0  0  0  0  0  0  0  0  0  0
  -19.2598  -27.0904   19.1242 C   0  0  0  0  0  0  0  0  0  0  0  0
  -27.8534  -20.6891   20.8038 C   0  0  0  0  0  0  0  0  0  0  0  0
  -30.2400  -20.9380   21.0853 C   0  0  0  0  0  0  0  0  0  0  0  0
  -17.9647  -26.2960   20.9970 C   0  0  0  0  0  0  0  0  0  0  0  0
  -20.0283  -27.8685   19.9893 C   0  0  0  0  0  0  0  0  0  0  0  0
  -24.9858  -27.5451   19.0078 C   0  0  0  0  0  0  0  0  0  0  0  0
  -27.9217  -19.4099   21.3557 C   0  0  0  0  0  0  0  0  0  0  0  0
  -30.3083  -19.6589   21.6373 C   0  0  0  0  0  0  0  0  0  0  0  0
  -25.4702  -28.2810   17.9272 C   0  0  0  0  0  0  0  0  0  0  0  0
  -29.6590  -18.1938   24.6126 C   0  0  0  0  0  0  0  0  0  0  0  0
  -30.4242  -18.0277   25.7669 C   0  0  0  0  0  0  0  0  0  0  0  0
  -26.2582  -29.9813   19.4462 C   0  0  0  0  0  0  0  0  0  0  0  0
  -31.8241  -16.4346   24.6097 C   0  0  0  0  0  0  0  0  0  0  0  0
  -31.2534  -29.4777   18.9130 C   0  0  0  0  0  0  0  0  0  0  0  0
  -29.0126  -21.4532   20.6685 C   0  0  0  0  0  0  0  0  0  0  0  0
  -28.7357  -23.9865   20.7833 C   0  0  0  0  0  0  0  0  0  0  0  0
  -18.7366  -27.0669   21.8805 C   0  0  0  0  0  0  0  0  0  0  0  0
  -25.1245  -28.0278   20.3170 C   0  0  0  0  0  0  0  0  0  0  0  0
  -19.7742  -27.8709   21.3714 C   0  0  0  0  0  0  0  0  0  0  0  0
  -25.7769  -29.2484   20.5418 C   0  0  0  0  0  0  0  0  0  0  0  0
  -29.1491  -18.8948   21.7725 C   0  0  0  0  0  0  0  0  0  0  0  0
  -26.1040  -29.5007   18.1461 C   0  0  0  0  0  0  0  0  0  0  0  0
  -29.9763  -17.4802   23.4568 C   0  0  0  0  0  0  0  0  0  0  0  0
  -31.5068  -17.1481   25.7655 C   0  0  0  0  0  0  0  0  0  0  0  0
  -31.0589  -16.6006   23.4554 C   0  0  0  0  0  0  0  0  0  0  0  0
  -28.9428  -22.7744   20.0979 C   0  0  0  0  0  0  0  0  0  0  0  0
  -31.1727  -29.2583   17.5668 C   0  0  0  0  0  0  0  0  0  0  0  0
  -28.7527  -24.9446   19.7992 C   0  0  0  0  0  0  0  0  0  0  0  0
  -33.3134  -29.4289   18.1040 C   0  0  0  0  0  0  0  0  0  0  0  0
  -28.5451  -24.2251   22.1841 C   0  0  0  0  0  0  0  0  0  0  0  0
  -23.1053  -28.8630   22.6255 C   0  0  0  0  0  0  0  0  0  0  0  0
  -25.8273  -29.1578   24.3651 C   0  0  0  0  0  0  0  0  0  0  0  0
  -29.2022  -29.6628   24.4010 C   0  0  0  0  0  0  0  0  0  0  0  0
  -31.4088  -26.1749   14.8047 C   0  0  0  0  0  0  0  0  0  0  0  0
  -18.3839  -27.0613   23.3469 C   0  0  0  0  0  0  0  0  0  0  0  0
  -24.6202  -27.2093   21.4738 C   0  0  0  0  0  0  0  0  0  0  0  0
  -25.9692  -29.8011   21.9296 C   0  0  0  0  0  0  0  0  0  0  0  0
  -19.4856  -27.6254   24.2404 C   0  0  0  0  0  0  0  0  0  0  0  0
  -28.0778  -24.9212   14.9016 C   0  0  0  0  0  0  0  0  0  0  0  0
  -20.0235  -28.9316   23.6646 C   0  0  0  0  0  0  0  0  0  0  0  0
  -27.9421  -24.3525   16.3152 C   0  0  0  0  0  0  0  0  0  0  0  0
  -29.4778  -24.6960   14.3348 C   0  0  0  0  0  0  0  0  0  0  0  0
  -30.4416  -24.6154   16.6016 C   0  0  0  0  0  0  0  0  0  0  0  0
  -20.6459  -28.7095   22.2809 C   0  0  1  0  0  0  0  0  0  0  0  0
  -24.3593  -28.0413   22.7257 C   0  0  1  0  0  0  0  0  0  0  0  0
  -29.0636  -24.8678   17.2371 C   0  0  2  0  0  0  0  0  0  0  0  0
  -31.1433  -29.8910   25.9751 C   0  0  0  0  0  0  0  0  0  0  0  0
  -35.8447  -26.5502   20.4145 C   0  0  0  0  0  0  0  0  0  0  0  0
  -35.5905  -28.9801   20.9546 C   0  0  0  0  0  0  0  0  0  0  0  0
  -27.6786  -31.6094   14.7697 C   0  0  0  0  0  0  0  0  0  0  0  0
  -24.9281  -31.9896   25.0596 C   0  0  0  0  0  0  0  0  0  0  0  0
  -27.2692  -32.4761   25.8019 C   0  0  0  0  0  0  0  0  0  0  0  0
  -25.9342  -30.7181   26.9637 C   0  0  0  0  0  0  0  0  0  0  0  0
  -30.5604  -27.2970   23.2534 C   0  0  0  0  0  0  0  0  0  0  0  0
  -29.9695  -29.0681   16.6775 C   0  0  0  0  0  0  0  0  0  0  0  0
  -34.7948  -29.4747   18.0267 C   0  0  0  0  0  0  0  0  0  0  0  0
  -29.4168  -30.3731   16.0878 C   0  0  0  0  0  0  0  0  0  0  0  0
  -35.4474  -28.1736   18.5384 C   0  0  0  0  0  0  0  0  0  0  0  0
  -32.8490  -29.0271   15.7089 C   0  0  0  0  0  0  0  0  0  0  0  0
  -33.3362  -27.6074   15.4311 C   0  0  0  0  0  0  0  0  0  0  0  0
  -27.0043  -29.4895   15.9449 C   0  0  0  0  0  0  0  0  0  1  0  0
  -26.8089  -30.2728   24.6337 C   0  0  1  0  0  0  0  0  0  0  0  0
  -30.3219  -28.9356   25.1234 C   0  0  2  0  0  0  0  0  0  0  0  0
  -35.1514  -27.8554   20.0158 C   0  0  0  0  0  0  0  0  0  0  0  0
  -28.1451  -30.2205   15.2243 C   0  0  1  0  0  0  0  0  0  0  0  0
  -26.2299  -31.3550   25.5883 C   0  0  0  0  0  0  0  0  0  0  0  0
  -29.0810  -22.9441   18.7803 N   0  0  0  0  0  0  0  0  0  0  0  0
  -32.4619  -29.2334   17.0920 N   0  0  0  0  0  0  0  0  0  0  0  0
  -28.9605  -24.2741   18.6298 N   0  0  0  0  0  0  0  0  0  0  0  0
  -32.5894  -29.5790   19.2178 N   0  3  0  0  0  0  0  0  0  0  0  0
  -25.4532  -28.9667   23.0274 N   0  0  0  0  0  0  0  0  0  0  0  0
  -30.4948  -25.2085   15.2562 N   0  0  0  0  0  0  0  0  0  0  0  0
  -28.6099  -26.2866   19.8288 N   0  0  0  0  0  0  0  0  0  0  0  0
  -28.5559  -23.1280   23.0563 N   0  0  0  0  0  0  0  0  0  0  0  0
  -21.9613  -28.1193   22.4072 N   0  0  0  0  0  0  0  0  0  0  0  0
  -28.0271  -29.6355   25.1218 N   0  0  0  0  0  0  0  0  0  0  0  0
  -32.3355  -26.6115   15.7435 N   0  0  0  0  0  0  0  0  0  0  0  0
  -31.2319  -28.2803   24.1418 N   0  3  0  0  0  0  0  0  0  0  0  0
  -28.3540  -25.3753   22.6468 O   0  0  0  0  0  0  0  0  0  0  0  0
  -23.1706  -30.0814   22.7394 O   0  0  0  0  0  0  0  0  0  0  0  0
  -25.4133  -28.4767   25.3066 O   0  0  0  0  0  0  0  0  0  0  0  0
  -29.3558  -30.2045   23.3085 O   0  0  0  0  0  0  0  0  0  0  0  0
  -31.3964  -26.6197   13.6519 O   0  0  0  0  0  0  0  0  0  0  0  0
  -29.2161  -17.6467   22.3114 O   0  0  0  0  0  0  0  0  0  0  0  0
  -26.5772  -30.2212   17.0931 O   0  0  0  0  0  0  0  0  0  1  0  0
  -32.2424  -16.9899   26.8736 F   0  0  0  0  0  0  0  0  0  0  0  0
  -31.3693  -15.9132   22.3477 F   0  0  0  0  0  0  0  0  0  0  0  0
  1  2  1  0  0  0  0
  1  5  2  0  0  0  0
  2  6  2  0  0  0  0
  3  8  2  0  0  0  0
  3 16  1  0  0  0  0
  4  9  1  0  0  0  0
  4 16  2  0  0  0  0
  5 18  1  0  0  0  0
  6 20  1  0  0  0  0
  7 10  2  0  0  0  0
  7 19  1  0  0  0  0
  8 22  1  0  0  0  0
  9 22  2  0  0  0  0
 10 23  1  0  0  0  0
 11 12  2  0  0  0  0
 11 24  1  0  0  0  0
 12 25  1  0  0  0  0
 13 21  1  0  0  0  0
 13 23  2  0  0  0  0
 14 25  2  0  0  0  0
 14 26  1  0  0  0  0
 15 28  2  0  0  0  0
 15 71  1  0  0  0  0
 16 27  1  0  0  0  0
 17 27  1  0  0  0  0
 17 29  2  0  0  0  0
 17 31  1  0  0  0  0
 18 20  2  0  0  0  0
 18 36  1  0  0  0  0
 19 21  2  0  0  0  0
 19 37  1  0  0  0  0
 20 45  1  0  0  0  0
 21 38  1  0  0  0  0
 22 85  1  0  0  0  0
 23 86  1  0  0  0  0
 24 26  2  0  0  0  0
 24 85  1  0  0  0  0
 25 87  1  0  0  0  0
 26 88  1  0  0  0  0
 27 68  2  0  0  0  0
 28 56  1  0  0  0  0
 28 69  1  0  0  0  0
 29 70  1  0  0  0  0
 29 74  1  0  0  0  0
 30 57  1  0  0  0  0
 30 69  1  0  0  0  0
 30 71  2  0  0  0  0
 31 75  1  0  0  0  0
 31 80  2  0  0  0  0
 32 46  1  0  0  0  0
 32 76  1  0  0  0  0
 32 81  2  0  0  0  0
 33 63  1  0  0  0  0
 33 72  1  0  0  0  0
 33 82  2  0  0  0  0
 34 64  1  0  0  0  0
 34 77  1  0  0  0  0
 34 83  2  0  0  0  0
 35 73  1  0  0  0  0
 35 78  1  0  0  0  0
 35 84  2  0  0  0  0
 36 39  1  0  0  0  0
 37 46  1  0  0  0  0
 38 72  1  0  0  0  0
 39 41  1  0  0  0  0
 40 42  1  0  0  0  0
 40 43  1  0  0  0  0
 41 45  1  0  0  0  0
 42 47  1  0  0  0  0
 43 73  1  0  0  0  0
 44 47  1  0  0  0  0
 44 73  1  0  0  0  0
 45 76  1  0  0  0  0
 46 72  1  0  0  0  0
 47 70  1  0  0  0  0
 48 64  1  0  0  0  0
 49 65  1  0  0  0  0
 50 65  1  0  0  0  0
 51 66  1  0  0  0  0
 52 67  1  0  0  0  0
 53 67  1  0  0  0  0
 54 67  1  0  0  0  0
 55 79  1  0  0  0  0
 56 58  1  0  0  0  0
 57 59  1  0  0  0  0
 58 66  1  0  0  0  0
 59 65  1  0  0  0  0
 60 61  1  0  0  0  0
 60 69  1  0  0  0  0
 61 78  1  0  0  0  0
 62 66  1  0  0  0  0
 62 86  1  0  0  0  0
 63 67  1  0  0  0  0
 63 77  1  0  0  0  0
 64 79  1  0  0  0  0
 68 70  1  0  0  0  0
M  CHG  2  71   1  79   1
M  ISO  4  35 100  62 101  78 100  86 101
M  END
> <Batch ID>
0097

> <Smiles>
CNC(C)C(=O)NC(C(=O)N1Cc2cc([101O:1][101CH2:1]C(C)CCc3cnc(CCC(C)C)n3CC[100NH:0][100C:0](=O)N3CCCC(n4nc(-c5ccc(Oc6ccc(F)cc6F)cc5)c(C(N)=O)c4N)C3)ccc2CC1C(=O)NC1CCCc2ccccc21)C(C)(C)C

> <Shape>
0.207

> <Color>
0.072

> <Negative vol penalty>
0.000

$$$$

  -OEChem-04052319263D

 90 98  0     1  0  0  0  0  0999 V2000
  -26.1818  -11.7986   20.2138 C   0  0  0  0  0  0  0  0  0  0  0  0
  -26.3405  -13.1448   19.9008 C   0  0  0  0  0  0  0  0  0  0  0  0
  -29.4932  -20.3825   18.0256 C   0  0  0  0  0  0  0  0  0  0  0  0
  -28.8587  -20.6813   20.3375 C   0  0  0  0  0  0  0  0  0  0  0  0
  -25.1320  -11.3948   21.0377 C   0  0  0  0  0  0  0  0  0  0  0  0
  -25.4488  -14.0879   20.4106 C   0  0  0  0  0  0  0  0  0  0  0  0
  -25.1885  -20.8897   22.6430 C   0  0  0  0  0  0  0  0  0  0  0  0
  -29.8813  -19.0715   18.3015 C   0  0  0  0  0  0  0  0  0  0  0  0
  -29.2467  -19.3702   20.6135 C   0  0  0  0  0  0  0  0  0  0  0  0
  -24.4684  -22.0651   22.4340 C   0  0  0  0  0  0  0  0  0  0  0  0
  -32.1282  -17.6864   21.1546 C   0  0  0  0  0  0  0  0  0  0  0  0
  -32.8876  -17.4634   22.3032 C   0  0  0  0  0  0  0  0  0  0  0  0
  -22.7391  -21.2610   23.9113 C   0  0  0  0  0  0  0  0  0  0  0  0
  -24.8365  -29.5972   19.9237 C   0  0  0  0  0  0  0  0  0  0  0  0
  -31.1679  -15.9956   23.1550 C   0  0  0  0  0  0  0  0  0  0  0  0
  -28.9820  -21.1874   19.0436 C   0  0  0  0  0  0  0  0  0  0  0  0
  -27.3083  -22.9846   18.3530 C   0  0  0  0  0  0  0  0  0  0  0  0
  -24.2327  -12.3345   21.5657 C   0  0  0  0  0  0  0  0  0  0  0  0
  -24.6834  -19.8848   23.4805 C   0  0  0  0  0  0  0  0  0  0  0  0
  -24.3852  -13.6960   21.2413 C   0  0  0  0  0  0  0  0  0  0  0  0
  -23.4560  -20.0750   24.1313 C   0  0  0  0  0  0  0  0  0  0  0  0
  -23.5807  -29.5818   20.5792 C   0  0  0  0  0  0  0  0  0  0  0  0
  -29.7580  -18.5653   19.5954 C   0  0  0  0  0  0  0  0  0  0  0  0
  -23.2421  -22.2497   23.0659 C   0  0  0  0  0  0  0  0  0  0  0  0
  -30.8887  -17.0641   21.0062 C   0  0  0  0  0  0  0  0  0  0  0  0
  -32.4074  -16.6180   23.3034 C   0  0  0  0  0  0  0  0  0  0  0  0
  -30.4086  -16.2187   22.0064 C   0  0  0  0  0  0  0  0  0  0  0  0
  -28.5814  -22.5420   18.7594 C   0  0  0  0  0  0  0  0  0  0  0  0
  -25.7431  -30.1750   20.7848 C   0  0  0  0  0  0  0  0  0  0  0  0
  -23.7581  -30.1509   21.8211 C   0  0  0  0  0  0  0  0  0  0  0  0
  -27.4451  -24.3443   18.2157 C   0  0  0  0  0  0  0  0  0  0  0  0
  -26.1093  -22.2337   18.1205 C   0  0  0  0  0  0  0  0  0  0  0  0
  -23.8200  -16.8524   23.0772 C   0  0  0  0  0  0  0  0  0  0  0  0
  -23.4827  -16.9265   26.3026 C   0  0  0  0  0  0  0  0  0  0  0  0
  -22.9604  -18.7814   29.1192 C   0  0  0  0  0  0  0  0  0  0  0  0
  -29.3098  -29.2613   20.0843 C   0  0  0  0  0  0  0  0  0  0  0  0
  -23.0855  -11.8447   22.4135 C   0  0  0  0  0  0  0  0  0  0  0  0
  -25.4851  -18.6342   23.7166 C   0  0  0  0  0  0  0  0  0  0  0  0
  -22.8794  -19.0354   25.0561 C   0  0  0  0  0  0  0  0  0  0  0  0
  -22.4059  -12.9508   23.2165 C   0  0  0  0  0  0  0  0  0  0  0  0
  -31.5829  -27.2538   18.2189 C   0  0  0  0  0  0  0  0  0  0  0  0
  -22.1422  -14.1665   22.3336 C   0  0  0  0  0  0  0  0  0  0  0  0
  -30.9027  -25.8847   18.1653 C   0  0  0  0  0  0  0  0  0  0  0  0
  -31.3445  -27.9504   19.5568 C   0  0  0  0  0  0  0  0  0  0  0  0
  -29.2475  -26.7006   19.8954 C   0  0  0  0  0  0  0  0  0  0  0  0
  -23.4532  -14.7519   21.7950 C   0  0  1  0  0  0  0  0  0  0  0  0
  -24.6337  -17.4584   24.1855 C   0  0  1  0  0  0  0  0  0  0  0  0
  -29.4129  -25.9836   18.5446 C   0  0  2  0  0  0  0  0  0  0  0  0
  -22.7849  -30.3854   22.9092 C   0  0  0  0  0  0  0  0  0  0  0  0
  -26.2575  -28.8864   24.1621 C   0  0  0  0  0  0  0  0  0  0  0  0
  -25.1801  -33.4912   22.2045 C   0  0  0  0  0  0  0  0  0  0  0  0
  -22.6964  -18.5574   31.6046 C   0  0  0  0  0  0  0  0  0  0  0  0
  -21.1361  -30.0820   19.8973 C   0  0  0  0  0  0  0  0  0  0  0  0
  -22.5356  -28.5354   18.5587 C   0  0  0  0  0  0  0  0  0  0  0  0
  -20.6442  -15.8803   25.9044 C   0  0  0  0  0  0  0  0  0  0  0  0
  -20.1338  -16.5727   28.2556 C   0  0  0  0  0  0  0  0  0  0  0  0
  -21.8789  -14.8450   27.8170 C   0  0  0  0  0  0  0  0  0  0  0  0
  -25.3383  -20.4646   29.6401 C   0  0  0  0  0  0  0  0  0  0  0  0
  -27.1862  -30.4353   20.6049 C   0  0  0  0  0  0  0  0  0  0  0  0
  -26.7639  -30.2621   23.7463 C   0  0  0  0  0  0  0  0  0  0  0  0
  -26.2296  -32.5456   22.7755 C   0  0  0  0  0  0  0  0  0  0  0  0
  -22.7298  -26.6444   20.9709 C   0  0  0  0  0  0  0  0  0  0  0  0
  -22.1659  -25.5541   21.8826 C   0  0  0  0  0  0  0  0  0  0  0  0
  -21.7448  -27.8153   20.8376 C   0  0  0  0  0  0  0  0  0  0  0  0
  -23.1126  -24.3669   21.9905 C   0  0  0  0  0  0  0  0  0  1  0  0
  -22.3585  -17.2623   27.2525 C   0  0  1  0  0  0  0  0  0  0  0  0
  -23.6699  -18.7968   30.4611 C   0  0  2  0  0  0  0  0  0  0  0  0
  -25.6738  -31.1398   23.0926 C   0  0  0  0  0  0  0  0  0  0  0  0
  -22.2648  -29.0283   20.0027 C   0  0  0  0  0  0  0  0  0  0  0  0
  -21.2635  -16.1590   27.2885 C   0  0  0  0  0  0  0  0  0  0  0  0
  -29.4622  -23.5397   18.8727 N   0  0  0  0  0  0  0  0  0  0  0  0
  -25.0763  -30.5079   21.9350 N   0  0  0  0  0  0  0  0  0  0  0  0
  -28.7415  -24.6227   18.5354 N   0  0  0  0  0  0  0  0  0  0  0  0
  -23.6979  -17.8271   25.2498 N   0  0  0  0  0  0  0  0  0  0  0  0
  -29.9119  -28.0128   19.8566 N   0  0  0  0  0  0  0  0  0  0  0  0
  -26.5819  -25.3170   17.8538 N   0  0  0  0  0  0  0  0  0  0  0  0
  -26.1434  -20.8452   18.3085 N   0  0  0  0  0  0  0  0  0  0  0  0
  -24.1186  -15.5281   22.8193 N   0  0  0  0  0  0  0  0  0  0  0  0
  -22.9816  -17.5281   28.5446 N   0  0  0  0  0  0  0  0  0  0  0  0
  -27.9473  -29.2315   20.3554 N   0  0  0  0  0  0  0  0  0  0  0  0
  -24.3370  -20.1115   30.6792 N   0  3  0  0  0  0  0  0  0  0  0  0
  -25.0436  -22.7758   17.7409 O   0  0  0  0  0  0  0  0  0  0  0  0
  -22.9822  -17.5354   22.4998 O   0  0  0  0  0  0  0  0  0  0  0  0
  -24.1501  -15.9065   26.4919 O   0  0  0  0  0  0  0  0  0  0  0  0
  -22.4363  -19.7803   28.6313 O   0  0  0  0  0  0  0  0  0  0  0  0
  -29.9387  -30.3242   20.0435 O   0  0  0  0  0  0  0  0  0  0  0  0
  -30.1364  -17.2859   19.8649 O   0  0  0  0  0  0  0  0  0  0  0  0
  -22.5368  -23.3957   22.8632 O   0  0  0  0  0  0  0  0  0  1  0  0
  -33.1374  -16.4027   24.4056 F   0  0  0  0  0  0  0  0  0  0  0  0
  -29.2190  -15.6171   21.8690 F   0  0  0  0  0  0  0  0  0  0  0  0
  1  2  1  0  0  0  0
  1  5  2  0  0  0  0
  2  6  2  0  0  0  0
  3  8  2  0  0  0  0
  3 16  1  0  0  0  0
  4  9  1  0  0  0  0
  4 16  2  0  0  0  0
  5 18  1  0  0  0  0
  6 20  1  0  0  0  0
  7 10  2  0  0  0  0
  7 19  1  0  0  0  0
  8 23  1  0  0  0  0
  9 23  2  0  0  0  0
 10 24  1  0  0  0  0
 11 12  2  0  0  0  0
 11 25  1  0  0  0  0
 12 26  1  0  0  0  0
 13 21  1  0  0  0  0
 13 24  2  0  0  0  0
 14 22  1  0  0  0  0
 14 29  2  0  0  0  0
 15 26  2  0  0  0  0
 15 27  1  0  0  0  0
 16 28  1  0  0  0  0
 17 28  1  0  0  0  0
 17 31  2  0  0  0  0
 17 32  1  0  0  0  0
 18 20  2  0  0  0  0
 18 37  1  0  0  0  0
 19 21  2  0  0  0  0
 19 38  1  0  0  0  0
 20 46  1  0  0  0  0
 21 39  1  0  0  0  0
 22 30  2  0  0  0  0
 22 69  1  0  0  0  0
 23 87  1  0  0  0  0
 24 88  1  0  0  0  0
 25 27  2  0  0  0  0
 25 87  1  0  0  0  0
 26 89  1  0  0  0  0
 27 90  1  0  0  0  0
 28 71  2  0  0  0  0
 29 59  1  0  0  0  0
 29 72  1  0  0  0  0
 30 49  1  0  0  0  0
 30 72  1  0  0  0  0
 31 73  1  0  0  0  0
 31 76  1  0  0  0  0
 32 77  1  0  0  0  0
 32 82  2  0  0  0  0
 33 47  1  0  0  0  0
 33 78  1  0  0  0  0
 33 83  2  0  0  0  0
 34 66  1  0  0  0  0
 34 74  1  0  0  0  0
 34 84  2  0  0  0  0
 35 67  1  0  0  0  0
 35 79  1  0  0  0  0
 35 85  2  0  0  0  0
 36 75  1  0  0  0  0
 36 80  1  0  0  0  0
 36 86  2  0  0  0  0
 37 40  1  0  0  0  0
 38 47  1  0  0  0  0
 39 74  1  0  0  0  0
 40 42  1  0  0  0  0
 41 43  1  0  0  0  0
 41 44  1  0  0  0  0
 42 46  1  0  0  0  0
 43 48  1  0  0  0  0
 44 75  1  0  0  0  0
 45 48  1  0  0  0  0
 45 75  1  0  0  0  0
 46 78  1  0  0  0  0
 47 74  1  0  0  0  0
 48 73  1  0  0  0  0
 50 60  1  0  0  0  0
 51 61  1  0  0  0  0
 52 67  1  0  0  0  0
 53 69  1  0  0  0  0
 54 69  1  0  0  0  0
 55 70  1  0  0  0  0
 56 70  1  0  0  0  0
 57 70  1  0  0  0  0
 58 81  1  0  0  0  0
 59 80  1  0  0  0  0
 60 68  1  0  0  0  0
 61 68  1  0  0  0  0
 62 63  1  0  0  0  0
 62 64  1  0  0  0  0
 63 65  1  0  0  0  0
 64 69  1  0  0  0  0
 65 88  1  0  0  0  0
 66 70  1  0  0  0  0
 66 79  1  0  0  0  0
 67 81  1  0  0  0  0
 68 72  1  0  0  0  0
 71 73  1  0  0  0  0
M  CHG  1  81   1
M  ISO  4  36 100  65 101  80 100  88 101
M  END
> <Batch ID>
0097

> <Smiles>
CCC(CC)n1c(C[100NH:0][100C:0](=O)N2CCCC(n3nc(-c4ccc(Oc5ccc(F)cc5F)cc4)c(C(N)=O)c3N)C2)cc(C(C)(C)CCC[101CH2:1][101O:1]c2ccc3c(c2)CN(C(=O)C(NC(=O)C(C)NC)C(C)(C)C)C(C(=O)NC2CCCc4ccccc42)C3)c1C

> <Shape>
0.229

> <Color>
0.062

> <Negative vol penalty>
0.000

$$$$

  -OEChem-04052319263D

 85 93  0     1  0  0  0  0  0999 V2000
  -25.8119  -35.4954   22.1559 C   0  0  0  0  0  0  0  0  0  0  0  0
  -26.3909  -34.2317   22.0980 C   0  0  0  0  0  0  0  0  0  0  0  0
  -24.8648  -13.9184   21.3063 C   0  0  0  0  0  0  0  0  0  0  0  0
  -25.6484  -13.8911   19.0211 C   0  0  0  0  0  0  0  0  0  0  0  0
  -24.5122  -35.6440   22.6380 C   0  0  0  0  0  0  0  0  0  0  0  0
  -25.6707  -33.1159   22.5232 C   0  0  0  0  0  0  0  0  0  0  0  0
  -26.0742  -29.2093   19.3263 C   0  0  0  0  0  0  0  0  0  0  0  0
  -24.1171  -12.7661   21.0637 C   0  0  0  0  0  0  0  0  0  0  0  0
  -24.9007  -12.7388   18.7784 C   0  0  0  0  0  0  0  0  0  0  0  0
  -27.2498  -28.4618   19.3796 C   0  0  0  0  0  0  0  0  0  0  0  0
  -24.6746   -9.4400   20.8208 C   0  0  0  0  0  0  0  0  0  0  0  0
  -24.7262   -8.4214   21.7724 C   0  0  0  0  0  0  0  0  0  0  0  0
  -26.1188  -26.7882   20.6983 C   0  0  0  0  0  0  0  0  0  0  0  0
  -22.3394   -8.6052   22.0985 C   0  0  0  0  0  0  0  0  0  0  0  0
  -28.2254  -23.8393   16.1380 C   0  0  0  0  0  0  0  0  0  0  0  0
  -30.1406  -22.7163   15.8455 C   0  0  0  0  0  0  0  0  0  0  0  0
  -25.6304  -14.4809   20.2850 C   0  0  0  0  0  0  0  0  0  0  0  0
  -27.7329  -15.7420   20.9900 C   0  0  0  0  0  0  0  0  0  0  0  0
  -23.7722  -34.5283   23.0603 C   0  0  0  0  0  0  0  0  0  0  0  0
  -24.9130  -28.7564   19.9689 C   0  0  0  0  0  0  0  0  0  0  0  0
  -24.3603  -33.2499   23.0127 C   0  0  0  0  0  0  0  0  0  0  0  0
  -24.9290  -27.5306   20.6496 C   0  0  0  0  0  0  0  0  0  0  0  0
  -27.8999  -22.5156   15.9405 C   0  0  0  0  0  0  0  0  0  0  0  0
  -29.1116  -21.8051   15.7553 C   0  0  0  0  0  0  0  0  0  0  0  0
  -24.1350  -12.1764   19.7998 C   0  0  0  0  0  0  0  0  0  0  0  0
  -27.2730  -27.2524   20.0681 C   0  0  0  0  0  0  0  0  0  0  0  0
  -23.4554  -10.0413   20.5082 C   0  0  0  0  0  0  0  0  0  0  0  0
  -23.5586   -8.0040   22.4112 C   0  0  0  0  0  0  0  0  0  0  0  0
  -22.2878   -9.6238   21.1470 C   0  0  0  0  0  0  0  0  0  0  0  0
  -26.4026  -15.6715   20.5349 C   0  0  0  0  0  0  0  0  0  0  0  0
  -27.9994  -17.0873   21.0645 C   0  0  0  0  0  0  0  0  0  0  0  0
  -28.6460  -14.6859   21.3162 C   0  0  0  0  0  0  0  0  0  0  0  0
  -23.0748  -29.8562   22.3174 C   0  0  0  0  0  0  0  0  0  0  0  0
  -21.2096  -27.3259   21.5169 C   0  0  0  0  0  0  0  0  0  0  0  0
  -20.9791  -24.2300   20.0995 C   0  0  0  0  0  0  0  0  0  0  0  0
  -25.7081  -21.8590   18.2659 C   0  0  0  0  0  0  0  0  0  0  0  0
  -22.3877  -34.7443   23.6181 C   0  0  0  0  0  0  0  0  0  0  0  0
  -23.6456  -29.5615   19.8795 C   0  0  0  0  0  0  0  0  0  0  0  0
  -23.7038  -26.9903   21.3390 C   0  0  0  0  0  0  0  0  0  0  0  0
  -21.5571  -33.4661   23.6984 C   0  0  0  0  0  0  0  0  0  0  0  0
  -25.8427  -21.2979   21.7792 C   0  0  0  0  0  0  0  0  0  0  0  0
  -22.3778  -32.3335   24.3072 C   0  0  0  0  0  0  0  0  0  0  0  0
  -26.1215  -19.7986   21.8998 C   0  0  0  0  0  0  0  0  0  0  0  0
  -24.9215  -21.6077   20.6014 C   0  0  0  0  0  0  0  0  0  0  0  0
  -25.6497  -19.5680   19.4253 C   0  0  0  0  0  0  0  0  0  0  0  0
  -23.6021  -32.0124   23.4415 C   0  0  1  0  0  0  0  0  0  0  0  0
  -22.6618  -29.2541   21.0042 C   0  0  1  0  0  0  0  0  0  0  0  0
  -26.6193  -19.2118   20.5652 C   0  0  2  0  0  0  0  0  0  0  0  0
  -30.0453  -19.6316   16.6257 C   0  0  0  0  0  0  0  0  0  0  0  0
  -29.9030  -20.0376   14.1417 C   0  0  0  0  0  0  0  0  0  0  0  0
  -19.3311  -22.3974   19.6274 C   0  0  0  0  0  0  0  0  0  0  0  0
  -30.9451  -25.0496   20.0937 C   0  0  0  0  0  0  0  0  0  0  0  0
  -21.3067  -26.4866   24.4488 C   0  0  0  0  0  0  0  0  0  0  0  0
  -20.4868  -24.2247   23.7562 C   0  0  0  0  0  0  0  0  0  0  0  0
  -19.0661  -26.2376   23.3661 C   0  0  0  0  0  0  0  0  0  0  0  0
  -21.3888  -24.4561   17.1772 C   0  0  0  0  0  0  0  0  0  0  0  0
  -26.5353  -21.9521   15.9279 C   0  0  0  0  0  0  0  0  0  0  0  0
  -31.0597  -25.3674   17.6092 C   0  0  0  0  0  0  0  0  0  0  0  0
  -30.3673  -25.2313   16.2460 C   0  0  0  0  0  0  0  0  0  0  0  0
  -29.3117  -26.6293   19.0138 C   0  0  0  0  0  0  0  0  0  1  0  0
  -29.2574  -20.3567   15.5101 C   0  0  0  0  0  0  0  0  0  0  0  0
  -21.1268  -25.8808   21.9455 C   0  0  1  0  0  0  0  0  0  0  0  0
  -20.0005  -23.6537   19.0922 C   0  0  2  0  0  0  0  0  0  0  0  0
  -30.1186  -25.3364   18.8336 C   0  0  2  0  0  0  0  0  0  0  0  0
  -20.5204  -25.7183   23.3679 C   0  0  0  0  0  0  0  0  0  0  0  0
  -25.8616  -16.8761   20.3345 N   0  0  0  0  0  0  0  0  0  0  0  0
  -29.5901  -23.9496   16.0785 N   0  0  0  0  0  0  0  0  0  0  0  0
  -26.8569  -17.7163   20.6653 N   0  0  0  0  0  0  0  0  0  0  0  0
  -22.4907  -27.8172   21.2284 N   0  0  0  0  0  0  0  0  0  0  0  0
  -25.4512  -21.0247   19.3663 N   0  0  0  0  0  0  0  0  0  0  0  0
  -29.0972  -17.7818   21.4319 N   0  0  0  0  0  0  0  0  0  0  0  0
  -28.2098  -13.3606   21.1832 N   0  0  0  0  0  0  0  0  0  0  0  0
  -23.2139  -31.2307   22.2871 N   0  0  0  0  0  0  0  0  0  0  0  0
  -20.3870  -25.1860   20.8975 N   0  0  0  0  0  0  0  0  0  0  0  0
  -26.2150  -21.2268   17.1371 N   0  0  0  0  0  0  0  0  0  0  0  0
  -20.7049  -23.3076   17.8253 N   0  3  0  0  0  0  0  0  0  0  0  0
  -29.8088  -14.9109   21.7295 O   0  0  0  0  0  0  0  0  0  0  0  0
  -23.2527  -29.1279   23.2868 O   0  0  0  0  0  0  0  0  0  0  0  0
  -20.1748  -27.9923   21.4341 O   0  0  0  0  0  0  0  0  0  0  0  0
  -22.1506  -23.8658   20.1737 O   0  0  0  0  0  0  0  0  0  0  0  0
  -25.5061  -23.0779   18.2895 O   0  0  0  0  0  0  0  0  0  0  0  0
  -23.4057  -11.0519   19.5627 O   0  0  0  0  0  0  0  0  0  0  0  0
  -28.4194  -26.5211   20.1222 O   0  0  0  0  0  0  0  0  0  1  0  0
  -23.6081   -7.0248   23.3238 F   0  0  0  0  0  0  0  0  0  0  0  0
  -21.1134  -10.1969   20.8499 F   0  0  0  0  0  0  0  0  0  0  0  0
  1  2  1  0  0  0  0
  1  5  2  0  0  0  0
  2  6  2  0  0  0  0
  3  8  2  0  0  0  0
  3 17  1  0  0  0  0
  4  9  1  0  0  0  0
  4 17  2  0  0  0  0
  5 19  1  0  0  0  0
  6 21  1  0  0  0  0
  7 10  2  0  0  0  0
  7 20  1  0  0  0  0
  8 25  1  0  0  0  0
  9 25  2  0  0  0  0
 10 26  1  0  0  0  0
 11 12  2  0  0  0  0
 11 27  1  0  0  0  0
 12 28  1  0  0  0  0
 13 22  1  0  0  0  0
 13 26  2  0  0  0  0
 14 28  2  0  0  0  0
 14 29  1  0  0  0  0
 15 23  2  0  0  0  0
 15 67  1  0  0  0  0
 16 24  2  0  0  0  0
 16 67  1  0  0  0  0
 17 30  1  0  0  0  0
 18 30  1  0  0  0  0
 18 31  2  0  0  0  0
 18 32  1  0  0  0  0
 19 21  2  0  0  0  0
 19 37  1  0  0  0  0
 20 22  2  0  0  0  0
 20 38  1  0  0  0  0
 21 46  1  0  0  0  0
 22 39  1  0  0  0  0
 23 24  1  0  0  0  0
 23 57  1  0  0  0  0
 24 61  1  0  0  0  0
 25 82  1  0  0  0  0
 26 83  1  0  0  0  0
 27 29  2  0  0  0  0
 27 82  1  0  0  0  0
 28 84  1  0  0  0  0
 29 85  1  0  0  0  0
 30 66  2  0  0  0  0
 31 68  1  0  0  0  0
 31 71  1  0  0  0  0
 32 72  1  0  0  0  0
 32 77  2  0  0  0  0
 33 47  1  0  0  0  0
 33 73  1  0  0  0  0
 33 78  2  0  0  0  0
 34 62  1  0  0  0  0
 34 69  1  0  0  0  0
 34 79  2  0  0  0  0
 35 63  1  0  0  0  0
 35 74  1  0  0  0  0
 35 80  2  0  0  0  0
 36 70  1  0  0  0  0
 36 75  1  0  0  0  0
 36 81  2  0  0  0  0
 37 40  1  0  0  0  0
 38 47  1  0  0  0  0
 39 69  1  0  0  0  0
 40 42  1  0  0  0  0
 41 43  1  0  0  0  0
 41 44  1  0  0  0  0
 42 46  1  0  0  0  0
 43 48  1  0  0  0  0
 44 70  1  0  0  0  0
 45 48  1  0  0  0  0
 45 70  1  0  0  0  0
 46 73  1  0  0  0  0
 47 69  1  0  0  0  0
 48 68  1  0  0  0  0
 49 61  1  0  0  0  0
 50 61  1  0  0  0  0
 51 63  1  0  0  0  0
 52 64  1  0  0  0  0
 53 65  1  0  0  0  0
 54 65  1  0  0  0  0
 55 65  1  0  0  0  0
 56 76  1  0  0  0  0
 57 75  1  0  0  0  0
 58 59  1  0  0  0  0
 58 64  1  0  0  0  0
 59 67  1  0  0  0  0
 60 64  1  0  0  0  0
 60 83  1  0  0  0  0
 62 65  1  0  0  0  0
 62 74  1  0  0  0  0
 63 76  1  0  0  0  0
 66 68  1  0  0  0  0
M  CHG  1  76   1
M  ISO  4  36 100  60 101  75 100  83 101
M  END
> <Batch ID>
0097

> <Smiles>
CNC(C)C(=O)NC(C(=O)N1Cc2cc([101O:1][101CH2:1]C(C)CCn3cc(C[100NH:0][100C:0](=O)N4CCCC(n5nc(-c6ccc(Oc7ccc(F)cc7F)cc6)c(C(N)=O)c5N)C4)c(C(C)C)c3)ccc2CC1C(=O)NC1CCCc2ccccc21)C(C)(C)C

> <Shape>
0.249

> <Color>
0.077

> <Negative vol penalty>
0.000

$$$$

  -OEChem-04052319263D

 88 96  0     1  0  0  0  0  0999 V2000
  -23.6283  -22.9377   24.1409 C   0  0  0  0  0  0  0  0  0  0  0  0
  -24.5060  -22.5598   23.1299 C   0  0  0  0  0  0  0  0  0  0  0  0
  -26.3969  -28.2662   18.9011 C   0  0  0  0  0  0  0  0  0  0  0  0
  -26.3764  -27.6254   21.2305 C   0  0  0  0  0  0  0  0  0  0  0  0
  -23.2647  -22.0203   25.1259 C   0  0  0  0  0  0  0  0  0  0  0  0
  -25.0216  -21.2644   23.1039 C   0  0  0  0  0  0  0  0  0  0  0  0
  -27.1365  -16.1885   18.5128 C   0  0  0  0  0  0  0  0  0  0  0  0
  -25.2860  -29.0818   19.1157 C   0  0  0  0  0  0  0  0  0  0  0  0
  -25.2654  -28.4411   21.4451 C   0  0  0  0  0  0  0  0  0  0  0  0
  -28.2256  -15.3580   18.2522 C   0  0  0  0  0  0  0  0  0  0  0  0
  -22.6441  -30.6339   22.6854 C   0  0  0  0  0  0  0  0  0  0  0  0
  -22.6468  -31.4503   23.8163 C   0  0  0  0  0  0  0  0  0  0  0  0
  -27.4652  -13.8345   19.9610 C   0  0  0  0  0  0  0  0  0  0  0  0
  -31.0837  -14.9156   21.6162 C   0  0  0  0  0  0  0  0  0  0  0  0
  -24.6429  -32.5516   23.0164 C   0  0  0  0  0  0  0  0  0  0  0  0
  -26.9421  -27.5379   19.9585 C   0  0  0  0  0  0  0  0  0  0  0  0
  -29.4450  -27.0572   19.8493 C   0  0  0  0  0  0  0  0  0  0  0  0
  -23.7686  -20.7102   25.1065 C   0  0  0  0  0  0  0  0  0  0  0  0
  -26.2080  -15.8531   19.5087 C   0  0  0  0  0  0  0  0  0  0  0  0
  -24.6655  -20.3290   24.0903 C   0  0  0  0  0  0  0  0  0  0  0  0
  -26.3638  -14.6612   20.2306 C   0  0  0  0  0  0  0  0  0  0  0  0
  -32.1532  -14.3207   20.9563 C   0  0  0  0  0  0  0  0  0  0  0  0
  -33.4008  -14.9342   20.9720 C   0  0  0  0  0  0  0  0  0  0  0  0
  -24.7202  -29.1693   20.3876 C   0  0  0  0  0  0  0  0  0  0  0  0
  -28.3917  -14.1823   18.9783 C   0  0  0  0  0  0  0  0  0  0  0  0
  -23.6408  -30.7762   21.7200 C   0  0  0  0  0  0  0  0  0  0  0  0
  -23.6462  -32.4092   23.9818 C   0  0  0  0  0  0  0  0  0  0  0  0
  -24.6402  -31.7350   21.8855 C   0  0  0  0  0  0  0  0  0  0  0  0
  -28.0894  -26.6947   19.7374 C   0  0  0  0  0  0  0  0  0  0  0  0
  -33.5257  -16.1324   21.6565 C   0  0  0  0  0  0  0  0  0  0  0  0
  -31.3124  -16.1145   22.2721 C   0  0  0  0  0  0  0  0  0  0  0  0
  -30.1339  -25.9098   19.5406 C   0  0  0  0  0  0  0  0  0  0  0  0
  -30.0294  -28.3184   20.2009 C   0  0  0  0  0  0  0  0  0  0  0  0
  -25.2557  -17.1916   22.2300 C   0  0  0  0  0  0  0  0  0  0  0  0
  -23.0917  -14.7752   22.2077 C   0  0  0  0  0  0  0  0  0  0  0  0
  -22.2551  -11.6450   21.1357 C   0  0  0  0  0  0  0  0  0  0  0  0
  -28.7228  -20.0990   19.8486 C   0  0  0  0  0  0  0  0  0  0  0  0
  -23.3838  -19.7679   26.2194 C   0  0  0  0  0  0  0  0  0  0  0  0
  -25.0240  -16.7463   19.7593 C   0  0  0  0  0  0  0  0  0  0  0  0
  -25.3840  -14.2457   21.2963 C   0  0  0  0  0  0  0  0  0  0  0  0
  -23.6816  -18.3035   25.9079 C   0  0  0  0  0  0  0  0  0  0  0  0
  -29.7623  -21.8993   16.9581 C   0  0  0  0  0  0  0  0  0  0  0  0
  -25.0864  -18.1551   25.3324 C   0  0  0  0  0  0  0  0  0  0  0  0
  -29.5737  -23.3652   17.3527 C   0  0  0  0  0  0  0  0  0  0  0  0
  -28.6679  -21.0113   17.5462 C   0  0  0  0  0  0  0  0  0  0  0  0
  -28.3054  -22.5934   19.4008 C   0  0  0  0  0  0  0  0  0  0  0  0
  -25.2266  -18.9257   24.0140 C   0  0  1  0  0  0  0  0  0  0  0  0
  -24.4217  -16.5640   21.1491 C   0  0  1  0  0  0  0  0  0  0  0  0
  -29.4165  -23.5196   18.8774 C   0  0  2  0  0  0  0  0  0  0  0  0
  -34.5648  -14.3203   20.2691 C   0  0  0  0  0  0  0  0  0  0  0  0
  -34.6831  -18.3539   21.7655 C   0  0  0  0  0  0  0  0  0  0  0  0
  -20.4393   -9.9219   21.3128 C   0  0  0  0  0  0  0  0  0  0  0  0
  -30.7652  -20.4196   23.3217 C   0  0  0  0  0  0  0  0  0  0  0  0
  -24.0452  -14.0627   25.0172 C   0  0  0  0  0  0  0  0  0  0  0  0
  -22.9222  -11.8400   24.7593 C   0  0  0  0  0  0  0  0  0  0  0  0
  -21.5689  -13.9344   24.6921 C   0  0  0  0  0  0  0  0  0  0  0  0
  -21.7502  -11.7090   18.2202 C   0  0  0  0  0  0  0  0  0  0  0  0
  -31.9360  -13.0155   20.2330 C   0  0  0  0  0  0  0  0  0  0  0  0
  -34.8416  -16.8377   21.7073 C   0  0  0  0  0  0  0  0  0  0  0  0
  -31.8443  -13.1618   18.7126 C   0  0  0  0  0  0  0  0  0  0  0  0
  -30.3196  -17.9423   23.6502 C   0  0  0  0  0  0  0  0  0  0  0  0
  -28.7630  -19.3382   22.2105 C   0  0  0  0  0  0  0  0  0  0  0  0
  -30.6498  -13.9918   18.2568 C   0  0  0  0  0  0  0  0  0  1  0  0
  -23.0630  -13.3609   22.7349 C   0  0  1  0  0  0  0  0  0  0  0  0
  -20.9808  -11.0993   20.5169 C   0  0  2  0  0  0  0  0  0  0  0  0
  -30.2089  -19.1381   22.6907 C   0  0  1  0  0  0  0  0  0  0  0  0
  -22.9195  -13.3080   24.2822 C   0  0  0  0  0  0  0  0  0  0  0  0
  -27.9247  -25.4169   19.3850 N   0  0  0  0  0  0  0  0  0  0  0  0
  -32.5101  -16.7405   22.3092 N   0  0  0  0  0  0  0  0  0  0  0  0
  -29.1859  -24.9665   19.2726 N   0  0  0  0  0  0  0  0  0  0  0  0
  -24.2461  -15.1555   21.5088 N   0  0  0  0  0  0  0  0  0  0  0  0
  -28.5715  -21.2043   18.9951 N   0  0  0  0  0  0  0  0  0  0  0  0
  -31.4520  -25.6258   19.4748 N   0  0  0  0  0  0  0  0  0  0  0  0
  -29.1766  -29.3930   20.4882 N   0  0  0  0  0  0  0  0  0  0  0  0
  -30.2134  -16.7098   22.9396 N   0  0  0  0  0  0  0  0  0  0  0  0
  -24.6085  -18.1911   22.9311 N   0  0  0  0  0  0  0  0  0  0  0  0
  -21.9958  -12.6774   22.0122 N   0  0  0  0  0  0  0  0  0  0  0  0
  -28.6235  -20.3705   21.2077 N   0  0  0  0  0  0  0  0  0  0  0  0
  -21.2362  -10.6451   19.1207 N   0  3  0  0  0  0  0  0  0  0  0  0
  -31.2710  -28.4918   20.2426 O   0  0  0  0  0  0  0  0  0  0  0  0
  -26.4010  -16.7971   22.4152 O   0  0  0  0  0  0  0  0  0  0  0  0
  -22.1225  -15.5129   22.4024 O   0  0  0  0  0  0  0  0  0  0  0  0
  -23.3688  -11.1976   20.8710 O   0  0  0  0  0  0  0  0  0  0  0  0
  -28.9361  -18.9559   19.4306 O   0  0  0  0  0  0  0  0  0  0  0  0
  -23.6363  -29.9653   20.5974 O   0  0  0  0  0  0  0  0  0  0  0  0
  -29.4542  -13.3702   18.7263 O   0  0  0  0  0  0  0  0  0  1  0  0
  -23.6478  -33.1943   25.0671 F   0  0  0  0  0  0  0  0  0  0  0  0
  -25.5997  -31.8772   20.9609 F   0  0  0  0  0  0  0  0  0  0  0  0
  1  2  1  0  0  0  0
  1  5  2  0  0  0  0
  2  6  2  0  0  0  0
  3  8  2  0  0  0  0
  3 16  1  0  0  0  0
  4  9  1  0  0  0  0
  4 16  2  0  0  0  0
  5 18  1  0  0  0  0
  6 20  1  0  0  0  0
  7 10  2  0  0  0  0
  7 19  1  0  0  0  0
  8 24  1  0  0  0  0
  9 24  2  0  0  0  0
 10 25  1  0  0  0  0
 11 12  2  0  0  0  0
 11 26  1  0  0  0  0
 12 27  1  0  0  0  0
 13 21  1  0  0  0  0
 13 25  2  0  0  0  0
 14 22  2  0  0  0  0
 14 31  1  0  0  0  0
 15 27  2  0  0  0  0
 15 28  1  0  0  0  0
 16 29  1  0  0  0  0
 17 29  1  0  0  0  0
 17 32  2  0  0  0  0
 17 33  1  0  0  0  0
 18 20  2  0  0  0  0
 18 38  1  0  0  0  0
 19 21  2  0  0  0  0
 19 39  1  0  0  0  0
 20 47  1  0  0  0  0
 21 40  1  0  0  0  0
 22 23  1  0  0  0  0
 22 58  1  0  0  0  0
 23 30  2  0  0  0  0
 23 50  1  0  0  0  0
 24 85  1  0  0  0  0
 25 86  1  0  0  0  0
 26 28  2  0  0  0  0
 26 85  1  0  0  0  0
 27 87  1  0  0  0  0
 28 88  1  0  0  0  0
 29 68  2  0  0  0  0
 30 59  1  0  0  0  0
 30 69  1  0  0  0  0
 31 69  2  0  0  0  0
 31 75  1  0  0  0  0
 32 70  1  0  0  0  0
 32 73  1  0  0  0  0
 33 74  1  0  0  0  0
 33 80  2  0  0  0  0
 34 48  1  0  0  0  0
 34 76  1  0  0  0  0
 34 81  2  0  0  0  0
 35 64  1  0  0  0  0
 35 71  1  0  0  0  0
 35 82  2  0  0  0  0
 36 65  1  0  0  0  0
 36 77  1  0  0  0  0
 36 83  2  0  0  0  0
 37 72  1  0  0  0  0
 37 78  1  0  0  0  0
 37 84  2  0  0  0  0
 38 41  1  0  0  0  0
 39 48  1  0  0  0  0
 40 71  1  0  0  0  0
 41 43  1  0  0  0  0
 42 44  1  0  0  0  0
 42 45  1  0  0  0  0
 43 47  1  0  0  0  0
 44 49  1  0  0  0  0
 45 72  1  0  0  0  0
 46 49  1  0  0  0  0
 46 72  1  0  0  0  0
 47 76  1  0  0  0  0
 48 71  1  0  0  0  0
 49 70  1  0  0  0  0
 51 59  1  0  0  0  0
 52 65  1  0  0  0  0
 53 66  1  0  0  0  0
 54 67  1  0  0  0  0
 55 67  1  0  0  0  0
 56 67  1  0  0  0  0
 57 79  1  0  0  0  0
 58 60  1  0  0  0  0
 60 63  1  0  0  0  0
 61 66  1  0  0  0  0
 61 75  1  0  0  0  0
 62 66  1  0  0  0  0
 62 78  1  0  0  0  0
 63 86  1  0  0  0  0
 64 67  1  0  0  0  0
 64 77  1  0  0  0  0
 65 79  1  0  0  0  0
 68 70  1  0  0  0  0
M  CHG  1  79   1
M  ISO  4  37 100  63 101  78 100  86 101
M  END
> <Batch ID>
0097

> <Smiles>
CCc1nc(NCC(C)C[100NH:0][100C:0](=O)N2CCCC(n3nc(-c4ccc(Oc5ccc(F)cc5F)cc4)c(C(N)=O)c3N)C2)cc(CC[101CH2:1][101O:1]c2ccc3c(c2)CN(C(=O)C(NC(=O)C(C)NC)C(C)(C)C)C(C(=O)NC2CCCc4ccccc42)C3)c1C

> <Shape>
0.256

> <Color>
0.049

> <Negative vol penalty>
0.000

$$$$

  -OEChem-04052319263D

 88 96  0     1  0  0  0  0  0999 V2000
  -32.4673  -14.9745   20.9781 C   0  0  0  0  0  0  0  0  0  0  0  0
  -31.5655  -16.0300   20.8896 C   0  0  0  0  0  0  0  0  0  0  0  0
  -28.9378  -27.8111   20.2949 C   0  0  0  0  0  0  0  0  0  0  0  0
  -27.3477  -26.1497   19.5545 C   0  0  0  0  0  0  0  0  0  0  0  0
  -32.0634  -13.6837   20.6395 C   0  0  0  0  0  0  0  0  0  0  0  0
  -30.2593  -15.7956   20.4614 C   0  0  0  0  0  0  0  0  0  0  0  0
  -25.1902  -18.6527   22.3710 C   0  0  0  0  0  0  0  0  0  0  0  0
  -29.9818  -26.9159   20.0618 C   0  0  0  0  0  0  0  0  0  0  0  0
  -28.3917  -25.2544   19.3214 C   0  0  0  0  0  0  0  0  0  0  0  0
  -24.4450  -19.7009   21.8327 C   0  0  0  0  0  0  0  0  0  0  0  0
  -30.3672  -23.2023   21.1426 C   0  0  0  0  0  0  0  0  0  0  0  0
  -30.2067  -21.8898   21.5866 C   0  0  0  0  0  0  0  0  0  0  0  0
  -18.7657  -26.0073   22.0225 C   0  0  0  0  0  0  0  0  0  0  0  0
  -22.9455  -18.1064   20.8188 C   0  0  0  0  0  0  0  0  0  0  0  0
  -30.4463  -21.0931   19.3183 C   0  0  0  0  0  0  0  0  0  0  0  0
  -18.5187  -25.0839   21.0194 C   0  0  0  0  0  0  0  0  0  0  0  0
  -27.6208  -27.4280   20.0413 C   0  0  0  0  0  0  0  0  0  0  0  0
  -25.9970  -29.2785   19.3732 C   0  0  0  0  0  0  0  0  0  0  0  0
  -30.7489  -13.4317   20.2162 C   0  0  0  0  0  0  0  0  0  0  0  0
  -24.8242  -17.3210   22.1277 C   0  0  0  0  0  0  0  0  0  0  0  0
  -29.8377  -14.5004   20.1156 C   0  0  0  0  0  0  0  0  0  0  0  0
  -23.6862  -17.0431   21.3572 C   0  0  0  0  0  0  0  0  0  0  0  0
  -19.6848  -25.6667   23.0087 C   0  0  0  0  0  0  0  0  0  0  0  0
  -20.3198  -24.4306   22.9623 C   0  0  0  0  0  0  0  0  0  0  0  0
  -29.7087  -25.6375   19.5751 C   0  0  0  0  0  0  0  0  0  0  0  0
  -23.3242  -19.4279   21.0541 C   0  0  0  0  0  0  0  0  0  0  0  0
  -30.5672  -23.4602   19.7864 C   0  0  0  0  0  0  0  0  0  0  0  0
  -30.2463  -20.8352   20.6745 C   0  0  0  0  0  0  0  0  0  0  0  0
  -30.6068  -22.4057   18.8743 C   0  0  0  0  0  0  0  0  0  0  0  0
  -26.5419  -28.3521   20.2823 C   0  0  0  0  0  0  0  0  0  0  0  0
  -20.0031  -23.5778   21.9173 C   0  0  0  0  0  0  0  0  0  0  0  0
  -25.0047  -29.9115   20.0812 C   0  0  0  0  0  0  0  0  0  0  0  0
  -26.3556  -29.5433   18.0105 C   0  0  0  0  0  0  0  0  0  0  0  0
  -26.2047  -14.8410   20.6966 C   0  0  0  0  0  0  0  0  0  0  0  0
  -23.6125  -13.2473   21.8205 C   0  0  0  0  0  0  0  0  0  0  0  0
  -20.3742  -13.3719   22.8902 C   0  0  0  0  0  0  0  0  0  0  0  0
  -21.6919  -28.2897   24.7978 C   0  0  0  0  0  0  0  0  0  0  0  0
  -30.3718  -12.0274   19.8157 C   0  0  0  0  0  0  0  0  0  0  0  0
  -25.6230  -16.2020   22.7376 C   0  0  0  0  0  0  0  0  0  0  0  0
  -23.2394  -15.6311   21.0832 C   0  0  0  0  0  0  0  0  0  0  0  0
  -28.8644  -11.8026   19.7294 C   0  0  0  0  0  0  0  0  0  0  0  0
  -23.7948  -31.1513   24.5410 C   0  0  0  0  0  0  0  0  0  0  0  0
  -28.1977  -12.9414   18.9642 C   0  0  0  0  0  0  0  0  0  0  0  0
  -24.6881  -30.8420   23.3384 C   0  0  0  0  0  0  0  0  0  0  0  0
  -23.4925  -29.8964   25.3571 C   0  0  0  0  0  0  0  0  0  0  0  0
  -23.8259  -28.4643   23.3793 C   0  0  0  0  0  0  0  0  0  0  0  0
  -28.4053  -14.2821   19.6790 C   0  0  1  0  0  0  0  0  0  0  0  0
  -25.4565  -14.8774   21.9992 C   0  0  1  0  0  0  0  0  0  0  0  0
  -24.1125  -29.6892   22.4940 C   0  0  2  0  0  0  0  0  0  0  0  0
  -23.6515  -22.3734   27.4794 C   0  0  0  0  0  0  0  0  0  0  0  0
  -18.5115  -11.9020   23.7072 C   0  0  0  0  0  0  0  0  0  0  0  0
  -21.2673  -20.9507   26.1544 C   0  0  0  0  0  0  0  0  0  0  0  0
  -23.1205  -12.2884   18.9660 C   0  0  0  0  0  0  0  0  0  0  0  0
  -20.7995  -11.6504   19.6546 C   0  0  0  0  0  0  0  0  0  0  0  0
  -22.7639  -10.5487   20.7269 C   0  0  0  0  0  0  0  0  0  0  0  0
  -20.2544  -14.7735   25.4941 C   0  0  0  0  0  0  0  0  0  0  0  0
  -19.8571  -23.6727   25.9952 C   0  0  0  0  0  0  0  0  0  0  0  0
  -19.9715  -26.6417   24.1024 C   0  0  0  0  0  0  0  0  0  0  0  0
  -21.3103  -24.0384   24.0065 C   0  0  0  0  0  0  0  0  0  0  0  0
  -20.6592  -22.2241   21.8139 C   0  0  0  0  0  0  0  0  0  0  0  0
  -22.4875  -23.0707   26.7881 C   0  0  0  0  0  0  0  0  0  0  0  0
  -20.4632  -21.5467   20.4559 C   0  0  0  0  0  0  0  0  0  0  0  0
  -21.2009  -20.2186   20.3315 C   0  0  0  0  0  0  0  0  0  1  0  0
  -22.2280  -12.9532   21.2957 C   0  0  1  0  0  0  0  0  0  0  0  0
  -19.6916  -12.7739   24.1072 C   0  0  2  0  0  0  0  0  0  0  0  0
  -21.8735  -22.2529   25.6484 C   0  0  2  0  0  0  0  0  0  0  0  0
  -22.2372  -11.8869   20.1641 C   0  0  0  0  0  0  0  0  0  0  0  0
  -19.1158  -23.8736   20.9411 N   0  0  0  0  0  0  0  0  0  0  0  0
  -25.9454  -28.3899   21.4768 N   0  0  0  0  0  0  0  0  0  0  0  0
  -25.0154  -29.3479   21.3232 N   0  0  0  0  0  0  0  0  0  0  0  0
  -24.0569  -14.5713   21.6963 N   0  0  0  0  0  0  0  0  0  0  0  0
  -22.9479  -28.8424   24.4978 N   0  0  0  0  0  0  0  0  0  0  0  0
  -24.1329  -30.8896   19.7564 N   0  0  0  0  0  0  0  0  0  0  0  0
  -27.3980  -28.8018   17.4378 N   0  0  0  0  0  0  0  0  0  0  0  0
  -27.5083  -14.3967   20.8089 N   0  0  0  0  0  0  0  0  0  0  0  0
  -21.4212  -12.5874   22.4549 N   0  0  0  0  0  0  0  0  0  0  0  0
  -21.2469  -27.3007   23.9292 N   0  0  0  0  0  0  0  0  0  0  0  0
  -19.1947  -13.8542   25.0054 N   0  3  0  0  0  0  0  0  0  0  0  0
  -20.7793  -23.0461   24.9813 N   0  3  1  0  0  0  0  0  0  0  0  0
  -25.7799  -30.4229   17.3261 O   0  0  0  0  0  0  0  0  0  0  0  0
  -25.6405  -15.1888   19.6659 O   0  0  0  0  0  0  0  0  0  0  0  0
  -24.2726  -12.3374   22.3286 O   0  0  0  0  0  0  0  0  0  0  0  0
  -20.0122  -14.4273   22.3749 O   0  0  0  0  0  0  0  0  0  0  0  0
  -21.0147  -28.6547   25.7648 O   0  0  0  0  0  0  0  0  0  0  0  0
  -30.7272  -24.7638   19.3473 O   0  0  0  0  0  0  0  0  0  0  0  0
  -22.5955  -20.4492   20.5270 O   0  0  0  0  0  0  0  0  0  1  0  0
  -30.0936  -19.5747   21.1013 F   0  0  0  0  0  0  0  0  0  0  0  0
  -30.7998  -22.6472   17.5704 F   0  0  0  0  0  0  0  0  0  0  0  0
  1  2  1  0  0  0  0
  1  5  2  0  0  0  0
  2  6  2  0  0  0  0
  3  8  2  0  0  0  0
  3 17  1  0  0  0  0
  4  9  1  0  0  0  0
  4 17  2  0  0  0  0
  5 19  1  0  0  0  0
  6 21  1  0  0  0  0
  7 10  2  0  0  0  0
  7 20  1  0  0  0  0
  8 25  1  0  0  0  0
  9 25  2  0  0  0  0
 10 26  1  0  0  0  0
 11 12  2  0  0  0  0
 11 27  1  0  0  0  0
 12 28  1  0  0  0  0
 13 16  1  0  0  0  0
 13 23  2  0  0  0  0
 14 22  1  0  0  0  0
 14 26  2  0  0  0  0
 15 28  2  0  0  0  0
 15 29  1  0  0  0  0
 16 68  2  0  0  0  0
 17 30  1  0  0  0  0
 18 30  1  0  0  0  0
 18 32  2  0  0  0  0
 18 33  1  0  0  0  0
 19 21  2  0  0  0  0
 19 38  1  0  0  0  0
 20 22  2  0  0  0  0
 20 39  1  0  0  0  0
 21 47  1  0  0  0  0
 22 40  1  0  0  0  0
 23 24  1  0  0  0  0
 23 58  1  0  0  0  0
 24 31  2  0  0  0  0
 24 59  1  0  0  0  0
 25 85  1  0  0  0  0
 26 86  1  0  0  0  0
 27 29  2  0  0  0  0
 27 85  1  0  0  0  0
 28 87  1  0  0  0  0
 29 88  1  0  0  0  0
 30 69  2  0  0  0  0
 31 60  1  0  0  0  0
 31 68  1  0  0  0  0
 32 70  1  0  0  0  0
 32 73  1  0  0  0  0
 33 74  1  0  0  0  0
 33 80  2  0  0  0  0
 34 48  1  0  0  0  0
 34 75  1  0  0  0  0
 34 81  2  0  0  0  0
 35 64  1  0  0  0  0
 35 71  1  0  0  0  0
 35 82  2  0  0  0  0
 36 65  1  0  0  0  0
 36 76  1  0  0  0  0
 36 83  2  0  0  0  0
 37 72  1  0  0  0  0
 37 77  1  0  0  0  0
 37 84  2  0  0  0  0
 38 41  1  0  0  0  0
 39 48  1  0  0  0  0
 40 71  1  0  0  0  0
 41 43  1  0  0  0  0
 42 44  1  0  0  0  0
 42 45  1  0  0  0  0
 43 47  1  0  0  0  0
 44 49  1  0  0  0  0
 45 72  1  0  0  0  0
 46 49  1  0  0  0  0
 46 72  1  0  0  0  0
 47 75  1  0  0  0  0
 48 71  1  0  0  0  0
 49 70  1  0  0  0  0
 50 61  1  0  0  0  0
 51 65  1  0  0  0  0
 52 66  1  0  0  0  0
 53 67  1  0  0  0  0
 54 67  1  0  0  0  0
 55 67  1  0  0  0  0
 56 78  1  0  0  0  0
 57 79  1  0  0  0  0
 58 77  1  0  0  0  0
 59 79  1  0  0  0  0
 60 62  1  0  0  0  0
 61 66  1  0  0  0  0
 62 63  1  0  0  0  0
 63 86  1  0  0  0  0
 64 67  1  0  0  0  0
 64 76  1  0  0  0  0
 65 78  1  0  0  0  0
 66 79  1  0  0  0  0
 69 70  1  0  0  0  0
M  CHG  2  78   1  79   1
M  ISO  4  37 100  63 101  77 100  86 101
M  END
> <Batch ID>
0097

> <Smiles>
CCC(C)N(C)Cc1c(C[100NH:0][100C:0](=O)N2CCCC(n3nc(-c4ccc(Oc5ccc(F)cc5F)cc4)c(C(N)=O)c3N)C2)ccnc1CC[101CH2:1][101O:1]c1ccc2c(c1)CN(C(=O)C(NC(=O)C(C)NC)C(C)(C)C)C(C(=O)NC1CCCc3ccccc31)C2

> <Shape>
0.243

> <Color>
0.055

> <Negative vol penalty>
0.000

$$$$

  -OEChem-04052319263D

 94102  0     1  0  0  0  0  0999 V2000
  -17.2897  -31.0654   21.5520 C   0  0  0  0  0  0  0  0  0  0  0  0
  -18.1107  -30.1917   20.8465 C   0  0  0  0  0  0  0  0  0  0  0  0
  -24.4496   -8.9343   21.4898 C   0  0  0  0  0  0  0  0  0  0  0  0
  -23.7977  -10.7987   22.8812 C   0  0  0  0  0  0  0  0  0  0  0  0
  -17.7436  -32.3454   21.8674 C   0  0  0  0  0  0  0  0  0  0  0  0
  -19.3860  -30.5978   20.4550 C   0  0  0  0  0  0  0  0  0  0  0  0
  -22.9059  -27.0652   21.3356 C   0  0  0  0  0  0  0  0  0  0  0  0
  -23.9604   -8.0475   22.4489 C   0  0  0  0  0  0  0  0  0  0  0  0
  -23.3085   -9.9119   23.8403 C   0  0  0  0  0  0  0  0  0  0  0  0
  -22.9776  -26.0003   20.4387 C   0  0  0  0  0  0  0  0  0  0  0  0
  -20.9551   -6.8465   23.4282 C   0  0  0  0  0  0  0  0  0  0  0  0
  -20.1785   -5.7760   22.9850 C   0  0  0  0  0  0  0  0  0  0  0  0
  -24.8456  -27.0595   19.3397 C   0  0  0  0  0  0  0  0  0  0  0  0
  -27.2760  -21.5848   19.9945 C   0  0  0  0  0  0  0  0  0  0  0  0
  -25.9913  -23.3561   21.0186 C   0  0  0  0  0  0  0  0  0  0  0  0
  -21.7765   -4.2272   23.9256 C   0  0  0  0  0  0  0  0  0  0  0  0
  -24.3683  -10.3099   21.7060 C   0  0  0  0  0  0  0  0  0  0  0  0
  -24.1663  -11.7859   19.6352 C   0  0  0  0  0  0  0  0  0  0  0  0
  -19.0286  -32.7641   21.4880 C   0  0  0  0  0  0  0  0  0  0  0  0
  -23.7981  -28.1423   21.2344 C   0  0  0  0  0  0  0  0  0  0  0  0
  -19.8570  -31.8851   20.7644 C   0  0  0  0  0  0  0  0  0  0  0  0
  -24.7848  -28.1356   20.2382 C   0  0  0  0  0  0  0  0  0  0  0  0
  -26.1494  -22.4071   20.0086 C   0  0  0  0  0  0  0  0  0  0  0  0
  -28.2444  -21.7114   20.9905 C   0  0  0  0  0  0  0  0  0  0  0  0
  -26.9597  -23.4827   22.0145 C   0  0  0  0  0  0  0  0  0  0  0  0
  -28.0862  -22.6603   22.0004 C   0  0  0  0  0  0  0  0  0  0  0  0
  -23.3898   -8.5363   23.6241 C   0  0  0  0  0  0  0  0  0  0  0  0
  -23.9457  -25.9987   19.4387 C   0  0  0  0  0  0  0  0  0  0  0  0
  -22.1425   -6.6074   24.1201 C   0  0  0  0  0  0  0  0  0  0  0  0
  -20.5891   -4.4664   23.2337 C   0  0  0  0  0  0  0  0  0  0  0  0
  -22.5532   -5.2977   24.3688 C   0  0  0  0  0  0  0  0  0  0  0  0
  -24.8740  -11.2265   20.7159 C   0  0  0  0  0  0  0  0  0  0  0  0
  -25.0857  -12.5834   18.9987 C   0  0  0  0  0  0  0  0  0  0  0  0
  -22.7999  -11.6012   19.2418 C   0  0  0  0  0  0  0  0  0  0  0  0
  -23.4981  -31.2604   20.6948 C   0  0  0  0  0  0  0  0  0  0  0  0
  -26.6826  -31.2778   21.3122 C   0  0  0  0  0  0  0  0  0  0  0  0
  -29.6259  -29.5527   21.4016 C   0  0  0  0  0  0  0  0  0  0  0  0
  -30.1439  -15.0173   21.3244 C   0  0  0  0  0  0  0  0  0  0  0  0
  -19.4576  -34.1737   21.8103 C   0  0  0  0  0  0  0  0  0  0  0  0
  -23.7247  -29.2707   22.2263 C   0  0  0  0  0  0  0  0  0  0  0  0
  -25.7792  -29.2583   20.0994 C   0  0  0  0  0  0  0  0  0  0  0  0
  -20.9626  -34.3960   21.6851 C   0  0  0  0  0  0  0  0  0  0  0  0
  -29.7729  -13.0052   18.1930 C   0  0  0  0  0  0  0  0  0  0  0  0
  -21.4844  -33.7962   20.3833 C   0  0  0  0  0  0  0  0  0  0  0  0
  -28.4309  -12.3194   18.4445 C   0  0  0  0  0  0  0  0  0  0  0  0
  -30.4939  -13.3035   19.5020 C   0  0  0  0  0  0  0  0  0  0  0  0
  -28.3457  -13.4366   20.7202 C   0  0  0  0  0  0  0  0  0  0  0  0
  -21.2559  -32.2803   20.3438 C   0  0  1  0  0  0  0  0  0  0  0  0
  -24.3554  -30.5608   21.7114 C   0  0  1  0  0  0  0  0  0  0  0  0
  -27.5719  -13.1344   19.4262 C   0  0  2  0  0  0  0  0  0  0  0  0
  -30.0230  -24.0087   22.8475 C   0  0  0  0  0  0  0  0  0  0  0  0
  -25.4888  -22.9637   24.6805 C   0  0  0  0  0  0  0  0  0  0  0  0
  -26.7599  -25.9349   22.5019 C   0  0  0  0  0  0  0  0  0  0  0  0
  -32.0548  -29.1139   21.8546 C   0  0  0  0  0  0  0  0  0  0  0  0
  -27.0651  -32.7078   18.6441 C   0  0  0  0  0  0  0  0  0  0  0  0
  -29.4974  -32.1257   18.7602 C   0  0  0  0  0  0  0  0  0  0  0  0
  -28.4810  -33.5844   20.5099 C   0  0  0  0  0  0  0  0  0  0  0  0
  -32.4575  -14.5605   20.4090 C   0  0  0  0  0  0  0  0  0  0  0  0
  -29.0638  -28.6226   24.1544 C   0  0  0  0  0  0  0  0  0  0  0  0
  -31.3752  -18.9223   18.2774 C   0  0  0  0  0  0  0  0  0  0  0  0
  -25.1022  -22.2698   18.9324 C   0  0  0  0  0  0  0  0  0  0  0  0
  -29.4421  -20.8193   20.9519 C   0  0  0  0  0  0  0  0  0  0  0  0
  -29.1249  -22.7961   23.0679 C   0  0  0  0  0  0  0  0  0  0  0  0
  -25.4876  -24.2949   23.9387 C   0  0  0  0  0  0  0  0  0  0  0  0
  -25.3533  -23.1580   17.7119 C   0  0  0  0  0  0  0  0  0  0  0  0
  -32.1163  -17.6471   21.0349 C   0  0  0  0  0  0  0  0  0  0  0  0
  -32.0572  -16.4365   21.9603 C   0  0  0  0  0  0  0  0  0  0  0  0
  -29.6357  -20.0917   19.6218 C   0  0  0  0  0  0  0  0  0  0  0  0
  -30.7395  -18.0488   20.5212 C   0  0  0  0  0  0  0  0  0  0  0  0
  -25.3039  -24.6481   18.0291 C   0  0  0  0  0  0  0  0  0  1  0  0
  -26.7668  -24.5068   23.0850 C   0  0  1  0  0  0  0  0  0  0  0  0
  -27.9334  -31.1164   20.4824 C   0  0  1  0  0  0  0  0  0  0  0  0
  -30.7046  -29.4555   22.4653 C   0  0  2  0  0  0  0  0  0  0  0  0
  -28.2244  -32.3632   19.6003 C   0  0  0  0  0  0  0  0  0  0  0  0
  -26.1450  -11.6340   20.7662 N   0  0  0  0  0  0  0  0  0  0  0  0
  -26.2432  -12.4579   19.7090 N   0  0  0  0  0  0  0  0  0  0  0  0
  -25.6628  -30.3418   21.0893 N   0  0  0  0  0  0  0  0  0  0  0  0
  -29.6413  -14.0562   20.4317 N   0  0  0  0  0  0  0  0  0  0  0  0
  -25.0088  -13.3728   17.9062 N   0  0  0  0  0  0  0  0  0  0  0  0
  -21.9940  -10.7473   20.0071 N   0  0  0  0  0  0  0  0  0  0  0  0
  -22.2407  -31.5994   21.1568 N   0  0  0  0  0  0  0  0  0  0  0  0
  -29.0029  -30.7827   21.4169 N   0  0  0  0  0  0  0  0  0  0  0  0
  -31.5262  -15.2553   21.2949 N   0  0  0  0  0  0  0  0  0  0  0  0
  -30.3580  -28.4008   23.4595 N   0  3  0  0  0  0  0  0  0  0  0  0
  -30.8760  -19.2778   19.6564 N   0  3  1  0  0  0  0  0  0  0  0  0
  -22.3128  -12.1634   18.2318 O   0  0  0  0  0  0  0  0  0  0  0  0
  -23.9450  -31.4779   19.5747 O   0  0  0  0  0  0  0  0  0  0  0  0
  -26.6158  -32.1961   22.1331 O   0  0  0  0  0  0  0  0  0  0  0  0
  -29.3648  -28.6311   20.6315 O   0  0  0  0  0  0  0  0  0  0  0  0
  -29.3982  -15.6348   22.0956 O   0  0  0  0  0  0  0  0  0  0  0  0
  -22.9121   -7.6712   24.5601 O   0  0  0  0  0  0  0  0  0  0  0  0
  -24.0174  -24.9608   18.5615 O   0  0  0  0  0  0  0  0  0  1  0  0
  -19.8424   -3.4385   22.8094 F   0  0  0  0  0  0  0  0  0  0  0  0
  -23.6923   -5.0617   25.0339 F   0  0  0  0  0  0  0  0  0  0  0  0
  1  2  1  0  0  0  0
  1  5  2  0  0  0  0
  2  6  2  0  0  0  0
  3  8  2  0  0  0  0
  3 17  1  0  0  0  0
  4  9  1  0  0  0  0
  4 17  2  0  0  0  0
  5 19  1  0  0  0  0
  6 21  1  0  0  0  0
  7 10  2  0  0  0  0
  7 20  1  0  0  0  0
  8 27  1  0  0  0  0
  9 27  2  0  0  0  0
 10 28  1  0  0  0  0
 11 12  2  0  0  0  0
 11 29  1  0  0  0  0
 12 30  1  0  0  0  0
 13 22  1  0  0  0  0
 13 28  2  0  0  0  0
 14 23  1  0  0  0  0
 14 24  2  0  0  0  0
 15 23  2  0  0  0  0
 15 25  1  0  0  0  0
 16 30  2  0  0  0  0
 16 31  1  0  0  0  0
 17 32  1  0  0  0  0
 18 32  1  0  0  0  0
 18 33  2  0  0  0  0
 18 34  1  0  0  0  0
 19 21  2  0  0  0  0
 19 39  1  0  0  0  0
 20 22  2  0  0  0  0
 20 40  1  0  0  0  0
 21 48  1  0  0  0  0
 22 41  1  0  0  0  0
 23 61  1  0  0  0  0
 24 26  1  0  0  0  0
 24 62  1  0  0  0  0
 25 26  2  0  0  0  0
 25 71  1  0  0  0  0
 26 63  1  0  0  0  0
 27 91  1  0  0  0  0
 28 92  1  0  0  0  0
 29 31  2  0  0  0  0
 29 91  1  0  0  0  0
 30 93  1  0  0  0  0
 31 94  1  0  0  0  0
 32 75  2  0  0  0  0
 33 76  1  0  0  0  0
 33 79  1  0  0  0  0
 34 80  1  0  0  0  0
 34 86  2  0  0  0  0
 35 49  1  0  0  0  0
 35 81  1  0  0  0  0
 35 87  2  0  0  0  0
 36 72  1  0  0  0  0
 36 77  1  0  0  0  0
 36 88  2  0  0  0  0
 37 73  1  0  0  0  0
 37 82  1  0  0  0  0
 37 89  2  0  0  0  0
 38 78  1  0  0  0  0
 38 83  1  0  0  0  0
 38 90  2  0  0  0  0
 39 42  1  0  0  0  0
 40 49  1  0  0  0  0
 41 77  1  0  0  0  0
 42 44  1  0  0  0  0
 43 45  1  0  0  0  0
 43 46  1  0  0  0  0
 44 48  1  0  0  0  0
 45 50  1  0  0  0  0
 46 78  1  0  0  0  0
 47 50  1  0  0  0  0
 47 78  1  0  0  0  0
 48 81  1  0  0  0  0
 49 77  1  0  0  0  0
 50 76  1  0  0  0  0
 51 63  1  0  0  0  0
 52 64  1  0  0  0  0
 53 71  1  0  0  0  0
 54 73  1  0  0  0  0
 55 74  1  0  0  0  0
 56 74  1  0  0  0  0
 57 74  1  0  0  0  0
 58 83  1  0  0  0  0
 59 84  1  0  0  0  0
 60 85  1  0  0  0  0
 61 65  1  0  0  0  0
 62 68  1  0  0  0  0
 64 71  1  0  0  0  0
 65 70  1  0  0  0  0
 66 67  1  0  0  0  0
 66 69  1  0  0  0  0
 67 83  1  0  0  0  0
 68 85  1  0  0  0  0
 69 85  1  0  0  0  0
 70 92  1  0  0  0  0
 72 74  1  0  0  0  0
 72 82  1  0  0  0  0
 73 84  1  0  0  0  0
 75 76  1  0  0  0  0
M  CHG  2  84   1  85   1
M  ISO  4  38 100  70 101  83 100  92 101
M  END
> <Batch ID>
0097

> <Smiles>
CCc1c(CCN(C)CCC[100N:0](C)[100C:0](=O)N2CCCC(n3nc(-c4ccc(Oc5ccc(F)cc5F)cc4)c(C(N)=O)c3N)C2)cc(CC[101CH2:1][101O:1]c2ccc3c(c2)CN(C(=O)C(NC(=O)C(C)NC)C(C)(C)C)C(C(=O)NC2CCCc4ccccc42)C3)cc1C(C)CC

> <Shape>
0.244

> <Color>
0.064

> <Negative vol penalty>
0.000

$$$$

  -OEChem-04052319263D

 83 91  0     1  0  0  0  0  0999 V2000
  -21.0187  -28.0102   17.6153 C   0  0  0  0  0  0  0  0  0  0  0  0
  -21.2774  -27.1974   18.7143 C   0  0  0  0  0  0  0  0  0  0  0  0
  -23.0722   -9.8709   19.9426 C   0  0  0  0  0  0  0  0  0  0  0  0
  -23.8352   -9.8778   22.2350 C   0  0  0  0  0  0  0  0  0  0  0  0
  -20.7165  -27.4363   16.3811 C   0  0  0  0  0  0  0  0  0  0  0  0
  -21.2330  -25.8102   18.5800 C   0  0  0  0  0  0  0  0  0  0  0  0
  -24.7499  -21.7167   21.4749 C   0  0  0  0  0  0  0  0  0  0  0  0
  -22.3287   -8.7177   20.1935 C   0  0  0  0  0  0  0  0  0  0  0  0
  -23.0917   -8.7246   22.4859 C   0  0  0  0  0  0  0  0  0  0  0  0
  -24.5335  -20.9240   22.6012 C   0  0  0  0  0  0  0  0  0  0  0  0
  -19.3825   -7.9209   21.6488 C   0  0  0  0  0  0  0  0  0  0  0  0
  -18.0749   -7.8747   21.1653 C   0  0  0  0  0  0  0  0  0  0  0  0
  -23.8845  -19.0883   21.1772 C   0  0  0  0  0  0  0  0  0  0  0  0
  -18.6329   -5.9317   19.8422 C   0  0  0  0  0  0  0  0  0  0  0  0
  -28.1203  -17.4457   25.1364 C   0  0  0  0  0  0  0  0  0  0  0  0
  -27.5725  -17.3422   23.0094 C   0  0  0  0  0  0  0  0  0  0  0  0
  -23.8255  -10.4509   20.9633 C   0  0  0  0  0  0  0  0  0  0  0  0
  -24.1670  -12.9761   20.8430 C   0  0  0  0  0  0  0  0  0  0  0  0
  -20.6778  -26.0413   16.2293 C   0  0  0  0  0  0  0  0  0  0  0  0
  -24.5244  -21.2037   20.1895 C   0  0  0  0  0  0  0  0  0  0  0  0
  -20.9286  -25.2171   17.3430 C   0  0  0  0  0  0  0  0  0  0  0  0
  -24.1012  -19.8757   20.0360 C   0  0  0  0  0  0  0  0  0  0  0  0
  -27.0526  -17.1536   24.2667 C   0  0  0  0  0  0  0  0  0  0  0  0
  -22.3384   -8.1446   21.4651 C   0  0  0  0  0  0  0  0  0  0  0  0
  -24.0980  -19.6105   22.4526 C   0  0  0  0  0  0  0  0  0  0  0  0
  -20.3153   -6.9726   21.2289 C   0  0  0  0  0  0  0  0  0  0  0  0
  -17.7001   -6.8801   20.2620 C   0  0  0  0  0  0  0  0  0  0  0  0
  -19.9405   -5.9780   20.3256 C   0  0  0  0  0  0  0  0  0  0  0  0
  -24.5942  -11.6419   20.7046 C   0  0  0  0  0  0  0  0  0  0  0  0
  -25.2587  -13.7256   20.4783 C   0  0  0  0  0  0  0  0  0  0  0  0
  -22.8971  -13.4918   21.2637 C   0  0  0  0  0  0  0  0  0  0  0  0
  -22.5696  -21.9372   17.7927 C   0  0  0  0  0  0  0  0  0  0  0  0
  -24.2780  -19.6716   16.2209 C   0  0  0  0  0  0  0  0  0  0  0  0
  -26.2532  -16.8938   16.3926 C   0  0  0  0  0  0  0  0  0  0  0  0
  -30.7426  -14.7449   20.6592 C   0  0  0  0  0  0  0  0  0  0  0  0
  -20.3001  -25.4674   14.8867 C   0  0  0  0  0  0  0  0  0  0  0  0
  -24.7881  -22.0633   18.9837 C   0  0  0  0  0  0  0  0  0  0  0  0
  -23.8639  -19.2710   18.6772 C   0  0  0  0  0  0  0  0  0  0  0  0
  -20.6412  -23.9868   14.7394 C   0  0  0  0  0  0  0  0  0  0  0  0
  -29.6019  -12.3605   18.2738 C   0  0  0  0  0  0  0  0  0  0  0  0
  -20.1924  -23.2102   15.9733 C   0  0  0  0  0  0  0  0  0  0  0  0
  -28.1650  -12.0667   18.7087 C   0  0  0  0  0  0  0  0  0  0  0  0
  -30.5206  -12.5813   19.4735 C   0  0  0  0  0  0  0  0  0  0  0  0
  -28.6207  -13.3122   20.8627 C   0  0  0  0  0  0  0  0  0  0  0  0
  -20.9143  -23.7080   17.2312 C   0  0  1  0  0  0  0  0  0  0  0  0
  -24.0327  -21.5990   17.7422 C   0  0  1  0  0  0  0  0  0  0  0  0
  -27.6450  -13.1376   19.6864 C   0  0  2  0  0  0  0  0  0  0  0  0
  -26.2422  -14.2304   24.5993 C   0  0  0  0  0  0  0  0  0  0  0  0
  -27.4652  -15.2457   14.9393 C   0  0  0  0  0  0  0  0  0  0  0  0
  -21.6278  -18.3145   15.5538 C   0  0  0  0  0  0  0  0  0  0  0  0
  -22.9142  -16.2501   14.9607 C   0  0  0  0  0  0  0  0  0  0  0  0
  -23.2796  -18.3572   13.6765 C   0  0  0  0  0  0  0  0  0  0  0  0
  -28.8765  -17.6256   17.5509 C   0  0  0  0  0  0  0  0  0  0  0  0
  -25.6232  -15.3759   25.3919 C   0  0  0  0  0  0  0  0  0  0  0  0
  -24.9042  -17.7989   25.4610 C   0  0  0  0  0  0  0  0  0  0  0  0
  -29.8270  -18.0326   22.1614 C   0  0  0  0  0  0  0  0  0  0  0  0
  -30.8101  -16.8954   21.8962 C   0  0  0  0  0  0  0  0  0  0  0  0
  -24.6857  -19.1040   24.7007 C   0  0  0  0  0  0  0  0  0  1  0  0
  -25.6411  -16.7229   24.6337 C   0  0  1  0  0  0  0  0  0  0  0  0
  -24.1599  -18.1775   16.0397 C   0  0  1  0  0  0  0  0  0  0  0  0
  -27.5677  -16.5491   15.7160 C   0  0  2  0  0  0  0  0  0  0  0  0
  -22.9979  -17.7865   15.0835 C   0  0  0  0  0  0  0  0  0  0  0  0
  -29.2343  -17.7934   24.4867 N   0  0  0  0  0  0  0  0  0  0  0  0
  -25.8584  -11.5461   20.2846 N   0  0  0  0  0  0  0  0  0  0  0  0
  -28.8695  -17.7208   23.1953 N   0  0  0  0  0  0  0  0  0  0  0  0
  -26.2351  -12.8297   20.1558 N   0  0  0  0  0  0  0  0  0  0  0  0
  -24.1297  -20.1535   17.5292 N   0  0  0  0  0  0  0  0  0  0  0  0
  -29.9712  -13.6097   20.3603 N   0  0  0  0  0  0  0  0  0  0  0  0
  -25.4689  -15.0571   20.4051 N   0  0  0  0  0  0  0  0  0  0  0  0
  -21.8857  -12.5826   21.6023 N   0  0  0  0  0  0  0  0  0  0  0  0
  -22.2623  -23.1836   17.2812 N   0  0  0  0  0  0  0  0  0  0  0  0
  -25.4731  -17.7139   15.6051 N   0  0  0  0  0  0  0  0  0  0  0  0
  -30.1446  -15.6736   21.5021 N   0  0  0  0  0  0  0  0  0  0  0  0
  -28.6508  -16.4083   16.7298 N   0  3  0  0  0  0  0  0  0  0  0  0
  -22.6609  -14.7224   21.3215 O   0  0  0  0  0  0  0  0  0  0  0  0
  -21.7779  -21.1268   18.2597 O   0  0  0  0  0  0  0  0  0  0  0  0
  -24.5009  -20.3840   15.2389 O   0  0  0  0  0  0  0  0  0  0  0  0
  -25.9473  -16.4742   17.5065 O   0  0  0  0  0  0  0  0  0  0  0  0
  -31.8780  -14.9204   20.2041 O   0  0  0  0  0  0  0  0  0  0  0  0
  -21.6128   -7.0194   21.7104 O   0  0  0  0  0  0  0  0  0  0  0  0
  -23.8854  -18.8349   23.5503 O   0  0  0  0  0  0  0  0  0  1  0  0
  -16.4440   -6.8349   19.7990 F   0  0  0  0  0  0  0  0  0  0  0  0
  -20.8319   -5.0635   19.9195 F   0  0  0  0  0  0  0  0  0  0  0  0
  1  2  1  0  0  0  0
  1  5  2  0  0  0  0
  2  6  2  0  0  0  0
  3  8  2  0  0  0  0
  3 17  1  0  0  0  0
  4  9  1  0  0  0  0
  4 17  2  0  0  0  0
  5 19  1  0  0  0  0
  6 21  1  0  0  0  0
  7 10  2  0  0  0  0
  7 20  1  0  0  0  0
  8 24  1  0  0  0  0
  9 24  2  0  0  0  0
 10 25  1  0  0  0  0
 11 12  2  0  0  0  0
 11 26  1  0  0  0  0
 12 27  1  0  0  0  0
 13 22  1  0  0  0  0
 13 25  2  0  0  0  0
 14 27  2  0  0  0  0
 14 28  1  0  0  0  0
 15 23  1  0  0  0  0
 15 63  2  0  0  0  0
 16 23  2  0  0  0  0
 16 65  1  0  0  0  0
 17 29  1  0  0  0  0
 18 29  1  0  0  0  0
 18 30  2  0  0  0  0
 18 31  1  0  0  0  0
 19 21  2  0  0  0  0
 19 36  1  0  0  0  0
 20 22  2  0  0  0  0
 20 37  1  0  0  0  0
 21 45  1  0  0  0  0
 22 38  1  0  0  0  0
 23 59  1  0  0  0  0
 24 80  1  0  0  0  0
 25 81  1  0  0  0  0
 26 28  2  0  0  0  0
 26 80  1  0  0  0  0
 27 82  1  0  0  0  0
 28 83  1  0  0  0  0
 29 64  2  0  0  0  0
 30 66  1  0  0  0  0
 30 69  1  0  0  0  0
 31 70  1  0  0  0  0
 31 75  2  0  0  0  0
 32 46  1  0  0  0  0
 32 71  1  0  0  0  0
 32 76  2  0  0  0  0
 33 60  1  0  0  0  0
 33 67  1  0  0  0  0
 33 77  2  0  0  0  0
 34 61  1  0  0  0  0
 34 72  1  0  0  0  0
 34 78  2  0  0  0  0
 35 68  1  0  0  0  0
 35 73  1  0  0  0  0
 35 79  2  0  0  0  0
 36 39  1  0  0  0  0
 37 46  1  0  0  0  0
 38 67  1  0  0  0  0
 39 41  1  0  0  0  0
 40 42  1  0  0  0  0
 40 43  1  0  0  0  0
 41 45  1  0  0  0  0
 42 47  1  0  0  0  0
 43 68  1  0  0  0  0
 44 47  1  0  0  0  0
 44 68  1  0  0  0  0
 45 71  1  0  0  0  0
 46 67  1  0  0  0  0
 47 66  1  0  0  0  0
 48 54  1  0  0  0  0
 49 61  1  0  0  0  0
 50 62  1  0  0  0  0
 51 62  1  0  0  0  0
 52 62  1  0  0  0  0
 53 74  1  0  0  0  0
 54 59  1  0  0  0  0
 55 58  1  0  0  0  0
 55 59  1  0  0  0  0
 56 57  1  0  0  0  0
 56 65  1  0  0  0  0
 57 73  1  0  0  0  0
 58 81  1  0  0  0  0
 60 62  1  0  0  0  0
 60 72  1  0  0  0  0
 61 74  1  0  0  0  0
 63 65  1  0  0  0  0
 64 66  1  0  0  0  0
M  CHG  1  74   1
M  ISO  4  35 100  58 101  73 100  81 101
M  END
> <Batch ID>
0097

> <Smiles>
CCC(C[101CH2:1][101O:1]c1ccc2c(c1)CN(C(=O)C(NC(=O)C(C)NC)C(C)(C)C)C(C(=O)NC1CCCc3ccccc31)C2)c1cnn(CC[100NH:0][100C:0](=O)N2CCCC(n3nc(-c4ccc(Oc5ccc(F)cc5F)cc4)c(C(N)=O)c3N)C2)c1

> <Shape>
0.151

> <Color>
0.191

> <Negative vol penalty>
0.000

$$$$

  -OEChem-04052319263D

 82 90  0     1  0  0  0  0  0999 V2000
  -18.5695  -24.7707   24.8903 C   0  0  0  0  0  0  0  0  0  0  0  0
  -19.7106  -24.2505   24.2882 C   0  0  0  0  0  0  0  0  0  0  0  0
  -23.1207   -9.8426   21.4171 C   0  0  0  0  0  0  0  0  0  0  0  0
  -23.8567  -10.7132   23.5472 C   0  0  0  0  0  0  0  0  0  0  0  0
  -18.1076  -26.0359   24.5299 C   0  0  0  0  0  0  0  0  0  0  0  0
  -20.3900  -24.9948   23.3244 C   0  0  0  0  0  0  0  0  0  0  0  0
  -25.4085  -24.9274   23.9992 C   0  0  0  0  0  0  0  0  0  0  0  0
  -22.4101   -8.8376   22.0733 C   0  0  0  0  0  0  0  0  0  0  0  0
  -23.1461   -9.7082   24.2035 C   0  0  0  0  0  0  0  0  0  0  0  0
  -26.0911  -23.7838   23.5869 C   0  0  0  0  0  0  0  0  0  0  0  0
  -23.0811   -5.8764   23.5583 C   0  0  0  0  0  0  0  0  0  0  0  0
  -23.1891   -4.5774   23.0618 C   0  0  0  0  0  0  0  0  0  0  0  0
  -26.7505  -24.9152   21.5610 C   0  0  0  0  0  0  0  0  0  0  0  0
  -28.4935  -18.6749   20.6463 C   0  0  0  0  0  0  0  0  0  0  0  0
  -20.8043   -4.5258   22.6782 C   0  0  0  0  0  0  0  0  0  0  0  0
  -30.1607  -19.2151   22.2541 C   0  0  0  0  0  0  0  0  0  0  0  0
  -23.8441  -10.7804   22.1540 C   0  0  0  0  0  0  0  0  0  0  0  0
  -24.1094  -13.0959   21.1170 C   0  0  0  0  0  0  0  0  0  0  0  0
  -18.7872  -26.8001   23.5682 C   0  0  0  0  0  0  0  0  0  0  0  0
  -25.3826  -26.0718   23.1892 C   0  0  0  0  0  0  0  0  0  0  0  0
  -19.9361  -26.2708   22.9498 C   0  0  0  0  0  0  0  0  0  0  0  0
  -26.0690  -26.0729   21.9665 C   0  0  0  0  0  0  0  0  0  0  0  0
  -29.7471  -18.4253   21.1935 C   0  0  0  0  0  0  0  0  0  0  0  0
  -27.7029  -19.6923   21.1691 C   0  0  0  0  0  0  0  0  0  0  0  0
  -22.4228   -8.7705   23.4665 C   0  0  0  0  0  0  0  0  0  0  0  0
  -26.7598  -23.7766   22.3663 C   0  0  0  0  0  0  0  0  0  0  0  0
  -21.8347   -6.5001   23.6148 C   0  0  0  0  0  0  0  0  0  0  0  0
  -22.0507   -3.9021   22.6217 C   0  0  0  0  0  0  0  0  0  0  0  0
  -20.6963   -5.8248   23.1747 C   0  0  0  0  0  0  0  0  0  0  0  0
  -24.5788  -11.8184   21.4767 C   0  0  0  0  0  0  0  0  0  0  0  0
  -28.2080  -20.4253   22.2310 C   0  0  0  0  0  0  0  0  0  0  0  0
  -25.1816  -13.6952   20.5025 C   0  0  0  0  0  0  0  0  0  0  0  0
  -22.8195  -13.6880   21.3202 C   0  0  0  0  0  0  0  0  0  0  0  0
  -23.1012  -27.7356   21.7295 C   0  0  0  0  0  0  0  0  0  0  0  0
  -25.5506  -29.7472   21.0396 C   0  0  0  0  0  0  0  0  0  0  0  0
  -28.9083  -30.1844   20.6131 C   0  0  0  0  0  0  0  0  0  0  0  0
  -30.6293  -14.8890   20.2947 C   0  0  0  0  0  0  0  0  0  0  0  0
  -18.2231  -28.1429   23.1769 C   0  0  0  0  0  0  0  0  0  0  0  0
  -24.6641  -27.3063   23.6605 C   0  0  0  0  0  0  0  0  0  0  0  0
  -26.0887  -27.2825   21.0693 C   0  0  0  0  0  0  0  0  0  0  0  0
  -19.2139  -29.0224   22.4186 C   0  0  0  0  0  0  0  0  0  0  0  0
  -29.5898  -11.7609   18.9490 C   0  0  0  0  0  0  0  0  0  0  0  0
  -19.9102  -28.2204   21.3237 C   0  0  0  0  0  0  0  0  0  0  0  0
  -28.1577  -11.5998   19.4620 C   0  0  0  0  0  0  0  0  0  0  0  0
  -30.4874  -12.4355   19.9839 C   0  0  0  0  0  0  0  0  0  0  0  0
  -28.5501  -13.5616   21.0099 C   0  0  0  0  0  0  0  0  0  0  0  0
  -20.7146  -27.0580   21.9181 C   0  0  1  0  0  0  0  0  0  0  0  0
  -24.2737  -28.2422   22.5208 C   0  0  1  0  0  0  0  0  0  0  0  0
  -27.5938  -12.9367   19.9798 C   0  0  2  0  0  0  0  0  0  0  0  0
  -25.3996  -18.7689   20.7270 C   0  0  0  0  0  0  0  0  0  0  0  0
  -26.4339  -20.4037   19.1105 C   0  0  0  0  0  0  0  0  0  0  0  0
  -30.6070  -31.9321   20.0154 C   0  0  0  0  0  0  0  0  0  0  0  0
  -24.7356  -29.5331   18.1071 C   0  0  0  0  0  0  0  0  0  0  0  0
  -26.9675  -30.4845   17.4895 C   0  0  0  0  0  0  0  0  0  0  0  0
  -25.3703  -31.8358   18.8480 C   0  0  0  0  0  0  0  0  0  0  0  0
  -30.2719  -29.9188   23.2264 C   0  0  0  0  0  0  0  0  0  0  0  0
  -30.6165  -17.3440   20.6579 C   0  0  0  0  0  0  0  0  0  0  0  0
  -27.3991  -21.5347   22.8362 C   0  0  0  0  0  0  0  0  0  1  0  0
  -26.3595  -19.9663   20.5864 C   0  0  0  0  0  0  0  0  0  0  0  0
  -26.5490  -29.8695   19.9139 C   0  0  1  0  0  0  0  0  0  0  0  0
  -29.8625  -31.2382   21.1455 C   0  0  2  0  0  0  0  0  0  0  0  0
  -25.9038  -30.4071   18.6054 C   0  0  0  0  0  0  0  0  0  0  0  0
  -29.4208  -20.2122   22.7889 N   0  0  0  0  0  0  0  0  0  0  0  0
  -25.8502  -11.6170   21.1203 N   0  0  0  0  0  0  0  0  0  0  0  0
  -26.1888  -12.7759   20.5301 N   0  0  0  0  0  0  0  0  0  0  0  0
  -25.3664  -28.4630   21.5713 N   0  0  0  0  0  0  0  0  0  0  0  0
  -29.8966  -13.6986   20.4327 N   0  0  0  0  0  0  0  0  0  0  0  0
  -25.3518  -14.9136   19.9465 N   0  0  0  0  0  0  0  0  0  0  0  0
  -21.8326  -12.9332   21.9688 N   0  0  0  0  0  0  0  0  0  0  0  0
  -21.9581  -27.5393   22.4806 N   0  0  0  0  0  0  0  0  0  0  0  0
  -27.6405  -30.6924   20.4238 N   0  0  0  0  0  0  0  0  0  0  0  0
  -29.9934  -16.0418   20.7391 N   0  0  0  0  0  0  0  0  0  0  0  0
  -30.8647  -30.6167   22.0566 N   0  3  0  0  0  0  0  0  0  0  0  0
  -22.5450  -14.8458   20.9233 O   0  0  0  0  0  0  0  0  0  0  0  0
  -23.2241  -27.5388   20.5262 O   0  0  0  0  0  0  0  0  0  0  0  0
  -24.9615  -30.7553   21.4376 O   0  0  0  0  0  0  0  0  0  0  0  0
  -29.2540  -29.0274   20.3843 O   0  0  0  0  0  0  0  0  0  0  0  0
  -31.7639  -14.9228   19.8062 O   0  0  0  0  0  0  0  0  0  0  0  0
  -21.7293   -7.7901   24.1072 O   0  0  0  0  0  0  0  0  0  0  0  0
  -27.4263  -22.6615   21.9611 O   0  0  0  0  0  0  0  0  0  1  0  0
  -22.1547   -2.6552   22.1436 F   0  0  0  0  0  0  0  0  0  0  0  0
  -19.4964   -6.4193   23.2254 F   0  0  0  0  0  0  0  0  0  0  0  0
  1  2  1  0  0  0  0
  1  5  2  0  0  0  0
  2  6  2  0  0  0  0
  3  8  2  0  0  0  0
  3 17  1  0  0  0  0
  4  9  1  0  0  0  0
  4 17  2  0  0  0  0
  5 19  1  0  0  0  0
  6 21  1  0  0  0  0
  7 10  2  0  0  0  0
  7 20  1  0  0  0  0
  8 25  1  0  0  0  0
  9 25  2  0  0  0  0
 10 26  1  0  0  0  0
 11 12  2  0  0  0  0
 11 27  1  0  0  0  0
 12 28  1  0  0  0  0
 13 22  1  0  0  0  0
 13 26  2  0  0  0  0
 14 23  2  0  0  0  0
 14 24  1  0  0  0  0
 15 28  2  0  0  0  0
 15 29  1  0  0  0  0
 16 23  1  0  0  0  0
 16 63  2  0  0  0  0
 17 30  1  0  0  0  0
 18 30  1  0  0  0  0
 18 32  2  0  0  0  0
 18 33  1  0  0  0  0
 19 21  2  0  0  0  0
 19 38  1  0  0  0  0
 20 22  2  0  0  0  0
 20 39  1  0  0  0  0
 21 47  1  0  0  0  0
 22 40  1  0  0  0  0
 23 57  1  0  0  0  0
 24 31  2  0  0  0  0
 24 59  1  0  0  0  0
 25 79  1  0  0  0  0
 26 80  1  0  0  0  0
 27 29  2  0  0  0  0
 27 79  1  0  0  0  0
 28 81  1  0  0  0  0
 29 82  1  0  0  0  0
 30 64  2  0  0  0  0
 31 58  1  0  0  0  0
 31 63  1  0  0  0  0
 32 65  1  0  0  0  0
 32 68  1  0  0  0  0
 33 69  1  0  0  0  0
 33 74  2  0  0  0  0
 34 48  1  0  0  0  0
 34 70  1  0  0  0  0
 34 75  2  0  0  0  0
 35 60  1  0  0  0  0
 35 66  1  0  0  0  0
 35 76  2  0  0  0  0
 36 61  1  0  0  0  0
 36 71  1  0  0  0  0
 36 77  2  0  0  0  0
 37 67  1  0  0  0  0
 37 72  1  0  0  0  0
 37 78  2  0  0  0  0
 38 41  1  0  0  0  0
 39 48  1  0  0  0  0
 40 66  1  0  0  0  0
 41 43  1  0  0  0  0
 42 44  1  0  0  0  0
 42 45  1  0  0  0  0
 43 47  1  0  0  0  0
 44 49  1  0  0  0  0
 45 67  1  0  0  0  0
 46 49  1  0  0  0  0
 46 67  1  0  0  0  0
 47 70  1  0  0  0  0
 48 66  1  0  0  0  0
 49 65  1  0  0  0  0
 50 59  1  0  0  0  0
 51 59  1  0  0  0  0
 52 61  1  0  0  0  0
 53 62  1  0  0  0  0
 54 62  1  0  0  0  0
 55 62  1  0  0  0  0
 56 73  1  0  0  0  0
 57 72  1  0  0  0  0
 58 80  1  0  0  0  0
 60 62  1  0  0  0  0
 60 71  1  0  0  0  0
 61 73  1  0  0  0  0
 64 65  1  0  0  0  0
M  CHG  1  73   1
M  ISO  4  37 100  58 101  72 100  80 101
M  END
> <Batch ID>
0097

> <Smiles>
CNC(C)C(=O)NC(C(=O)N1Cc2cc([101O:1][101CH2:1]c3ncc(C[100NH:0][100C:0](=O)N4CCCC(n5nc(-c6ccc(Oc7ccc(F)cc7F)cc6)c(C(N)=O)c5N)C4)cc3C(C)C)ccc2CC1C(=O)NC1CCCc2ccccc21)C(C)(C)C

> <Shape>
0.272

> <Color>
0.178

> <Negative vol penalty>
0.000

$$$$

  -OEChem-04052319263D

 84 92  0     1  0  0  0  0  0999 V2000
  -24.5410  -20.9125   15.0615 C   0  0  0  0  0  0  0  0  0  0  0  0
  -24.4728  -22.2571   15.4085 C   0  0  0  0  0  0  0  0  0  0  0  0
  -25.4761  -16.1772   19.6285 C   0  0  0  0  0  0  0  0  0  0  0  0
  -25.6351  -16.6422   21.9940 C   0  0  0  0  0  0  0  0  0  0  0  0
  -25.2359  -20.0208   15.8759 C   0  0  0  0  0  0  0  0  0  0  0  0
  -25.1094  -22.7125   16.5636 C   0  0  0  0  0  0  0  0  0  0  0  0
  -25.1632  -28.2330   19.1422 C   0  0  0  0  0  0  0  0  0  0  0  0
  -26.7638  -15.6415   19.6472 C   0  0  0  0  0  0  0  0  0  0  0  0
  -26.9229  -16.1065   22.0127 C   0  0  0  0  0  0  0  0  0  0  0  0
  -24.4307  -28.9264   20.1047 C   0  0  0  0  0  0  0  0  0  0  0  0
  -29.8711  -13.8226   19.1460 C   0  0  0  0  0  0  0  0  0  0  0  0
  -30.0821  -12.6177   18.4757 C   0  0  0  0  0  0  0  0  0  0  0  0
  -26.0688  -28.3301   21.7722 C   0  0  0  0  0  0  0  0  0  0  0  0
  -20.0663  -27.3138   23.4700 C   0  0  0  0  0  0  0  0  0  0  0  0
  -28.4560  -11.5400   19.9011 C   0  0  0  0  0  0  0  0  0  0  0  0
  -24.9117  -16.6776   20.8019 C   0  0  0  0  0  0  0  0  0  0  0  0
  -22.3718  -16.5453   20.9996 C   0  0  0  0  0  0  0  0  0  0  0  0
  -25.8705  -20.4642   17.0479 C   0  0  0  0  0  0  0  0  0  0  0  0
  -26.3503  -27.5726   19.4904 C   0  0  0  0  0  0  0  0  0  0  0  0
  -25.8359  -21.8324   17.3859 C   0  0  0  0  0  0  0  0  0  0  0  0
  -26.8158  -27.6311   20.8117 C   0  0  0  0  0  0  0  0  0  0  0  0
  -19.9544  -28.6100   22.9090 C   0  0  0  0  0  0  0  0  0  0  0  0
  -27.4872  -15.6062   20.8393 C   0  0  0  0  0  0  0  0  0  0  0  0
  -24.8819  -28.9726   21.4205 C   0  0  0  0  0  0  0  0  0  0  0  0
  -28.9526  -13.8862   20.1939 C   0  0  0  0  0  0  0  0  0  0  0  0
  -29.3745  -11.4764   18.8532 C   0  0  0  0  0  0  0  0  0  0  0  0
  -28.2451  -12.7449   20.5714 C   0  0  0  0  0  0  0  0  0  0  0  0
  -23.5817  -17.2316   20.7831 C   0  0  0  0  0  0  0  0  0  0  0  0
  -19.3884  -26.4471   22.6414 C   0  0  0  0  0  0  0  0  0  0  0  0
  -19.2113  -28.4958   21.7548 C   0  0  0  0  0  0  0  0  0  0  0  0
  -21.4026  -17.5106   20.8759 C   0  0  0  0  0  0  0  0  0  0  0  0
  -22.1444  -15.1592   21.2870 C   0  0  0  0  0  0  0  0  0  0  0  0
  -27.3316  -24.5496   19.4456 C   0  0  0  0  0  0  0  0  0  0  0  0
  -30.1703  -25.8667   20.2997 C   0  0  0  0  0  0  0  0  0  0  0  0
  -31.8391  -28.4744   21.7355 C   0  0  0  0  0  0  0  0  0  0  0  0
  -20.5376  -22.9874   22.1676 C   0  0  0  0  0  0  0  0  0  0  0  0
  -26.6155  -19.4575   17.8887 C   0  0  0  0  0  0  0  0  0  0  0  0
  -27.1428  -26.8515   18.4348 C   0  0  0  0  0  0  0  0  0  0  0  0
  -28.0947  -26.9560   21.2326 C   0  0  0  0  0  0  0  0  0  0  0  0
  -26.8766  -19.9466   19.3095 C   0  0  0  0  0  0  0  0  0  0  0  0
  -21.1770  -21.9713   18.7535 C   0  0  0  0  0  0  0  0  0  0  0  0
  -27.4765  -21.3443   19.2760 C   0  0  0  0  0  0  0  0  0  0  0  0
  -21.7485  -20.5668   18.9561 C   0  0  0  0  0  0  0  0  0  0  0  0
  -21.6444  -22.9220   19.8516 C   0  0  0  0  0  0  0  0  0  0  0  0
  -21.9118  -21.0572   21.4406 C   0  0  0  0  0  0  0  0  0  0  0  0
  -26.4948  -22.3452   18.6537 C   0  0  1  0  0  0  0  0  0  0  0  0
  -28.0691  -25.7836   19.0084 C   0  0  1  0  0  0  0  0  0  0  0  0
  -21.4579  -20.0430   20.3750 C   0  0  2  0  0  0  0  0  0  0  0  0
  -18.7948  -29.5302   20.7839 C   0  0  0  0  0  0  0  0  0  0  0  0
  -18.4610  -30.3982   24.8799 C   0  0  0  0  0  0  0  0  0  0  0  0
  -34.1528  -29.2482   22.3231 C   0  0  0  0  0  0  0  0  0  0  0  0
  -30.2150  -23.9330   22.6595 C   0  0  0  0  0  0  0  0  0  0  0  0
  -31.9910  -25.3565   23.7025 C   0  0  0  0  0  0  0  0  0  0  0  0
  -32.4186  -24.2345   21.5160 C   0  0  0  0  0  0  0  0  0  0  0  0
  -18.0898  -26.6359   20.5109 C   0  0  0  0  0  0  0  0  0  0  0  0
  -31.6064  -30.8617   20.0017 C   0  0  0  0  0  0  0  0  0  0  0  0
  -19.1918  -24.9873   22.7558 C   0  0  0  0  0  0  0  0  0  0  0  0
  -19.9749  -30.2199   24.8780 C   0  0  0  0  0  0  0  0  0  0  0  0
  -22.0907  -29.8278   23.5506 C   0  0  0  0  0  0  0  0  0  0  0  0
  -22.7547  -29.7159   22.1810 C   0  0  0  0  0  0  0  0  0  1  0  0
  -20.5490  -29.8870   23.4819 C   0  0  1  0  0  0  0  0  0  0  0  0
  -30.8400  -26.2072   21.6090 C   0  0  1  0  0  0  0  0  0  0  0  0
  -33.0480  -29.2708   21.2784 C   0  0  2  0  0  0  0  0  0  0  0  0
  -31.3410  -24.9440   22.3646 C   0  0  0  0  0  0  0  0  0  0  0  0
  -23.4003  -18.5324   20.5401 N   0  0  0  0  0  0  0  0  0  0  0  0
  -18.8725  -27.1767   21.6023 N   0  0  0  0  0  0  0  0  0  0  0  0
  -22.0651  -18.6712   20.6031 N   0  0  0  0  0  0  0  0  0  0  0  0
  -28.8307  -26.2582   20.1654 N   0  0  0  0  0  0  0  0  0  0  0  0
  -21.3212  -22.3735   21.1763 N   0  0  0  0  0  0  0  0  0  0  0  0
  -20.0569  -17.4714   20.9748 N   0  0  0  0  0  0  0  0  0  0  0  0
  -23.2521  -14.3055   21.3795 N   0  0  0  0  0  0  0  0  0  0  0  0
  -27.1728  -23.6062   18.4485 N   0  0  0  0  0  0  0  0  0  0  0  0
  -31.8897  -27.1696   21.2925 N   0  0  0  0  0  0  0  0  0  0  0  0
  -20.0214  -24.2354   21.8408 N   0  0  0  0  0  0  0  0  0  0  0  0
  -32.6684  -30.6897   21.0263 N   0  3  0  0  0  0  0  0  0  0  0  0
  -20.9919  -14.6883   21.4404 O   0  0  0  0  0  0  0  0  0  0  0  0
  -26.9372  -24.4594   20.6023 O   0  0  0  0  0  0  0  0  0  0  0  0
  -30.8142  -25.2813   19.4253 O   0  0  0  0  0  0  0  0  0  0  0  0
  -30.9416  -28.9602   22.4204 O   0  0  0  0  0  0  0  0  0  0  0  0
  -20.3102  -22.4598   23.2617 O   0  0  0  0  0  0  0  0  0  0  0  0
  -28.7437  -15.0833   20.8580 O   0  0  0  0  0  0  0  0  0  0  0  0
  -24.1685  -29.6481   22.3621 O   0  0  0  0  0  0  0  0  0  1  0  0
  -29.5761  -10.3198   18.2084 F   0  0  0  0  0  0  0  0  0  0  0  0
  -27.3605  -12.8001   21.5766 F   0  0  0  0  0  0  0  0  0  0  0  0
  1  2  1  0  0  0  0
  1  5  2  0  0  0  0
  2  6  2  0  0  0  0
  3  8  2  0  0  0  0
  3 16  1  0  0  0  0
  4  9  1  0  0  0  0
  4 16  2  0  0  0  0
  5 18  1  0  0  0  0
  6 20  1  0  0  0  0
  7 10  2  0  0  0  0
  7 19  1  0  0  0  0
  8 23  1  0  0  0  0
  9 23  2  0  0  0  0
 10 24  1  0  0  0  0
 11 12  2  0  0  0  0
 11 25  1  0  0  0  0
 12 26  1  0  0  0  0
 13 21  1  0  0  0  0
 13 24  2  0  0  0  0
 14 22  1  0  0  0  0
 14 29  2  0  0  0  0
 15 26  2  0  0  0  0
 15 27  1  0  0  0  0
 16 28  1  0  0  0  0
 17 28  1  0  0  0  0
 17 31  2  0  0  0  0
 17 32  1  0  0  0  0
 18 20  2  0  0  0  0
 18 37  1  0  0  0  0
 19 21  2  0  0  0  0
 19 38  1  0  0  0  0
 20 46  1  0  0  0  0
 21 39  1  0  0  0  0
 22 30  2  0  0  0  0
 22 61  1  0  0  0  0
 23 81  1  0  0  0  0
 24 82  1  0  0  0  0
 25 27  2  0  0  0  0
 25 81  1  0  0  0  0
 26 83  1  0  0  0  0
 27 84  1  0  0  0  0
 28 65  2  0  0  0  0
 29 57  1  0  0  0  0
 29 66  1  0  0  0  0
 30 49  1  0  0  0  0
 30 66  1  0  0  0  0
 31 67  1  0  0  0  0
 31 70  1  0  0  0  0
 32 71  1  0  0  0  0
 32 76  2  0  0  0  0
 33 47  1  0  0  0  0
 33 72  1  0  0  0  0
 33 77  2  0  0  0  0
 34 62  1  0  0  0  0
 34 68  1  0  0  0  0
 34 78  2  0  0  0  0
 35 63  1  0  0  0  0
 35 73  1  0  0  0  0
 35 79  2  0  0  0  0
 36 69  1  0  0  0  0
 36 74  1  0  0  0  0
 36 80  2  0  0  0  0
 37 40  1  0  0  0  0
 38 47  1  0  0  0  0
 39 68  1  0  0  0  0
 40 42  1  0  0  0  0
 41 43  1  0  0  0  0
 41 44  1  0  0  0  0
 42 46  1  0  0  0  0
 43 48  1  0  0  0  0
 44 69  1  0  0  0  0
 45 48  1  0  0  0  0
 45 69  1  0  0  0  0
 46 72  1  0  0  0  0
 47 68  1  0  0  0  0
 48 67  1  0  0  0  0
 50 58  1  0  0  0  0
 51 63  1  0  0  0  0
 52 64  1  0  0  0  0
 53 64  1  0  0  0  0
 54 64  1  0  0  0  0
 55 66  1  0  0  0  0
 56 75  1  0  0  0  0
 57 74  1  0  0  0  0
 58 61  1  0  0  0  0
 59 60  1  0  0  0  0
 59 61  1  0  0  0  0
 60 82  1  0  0  0  0
 62 64  1  0  0  0  0
 62 73  1  0  0  0  0
 63 75  1  0  0  0  0
 65 67  1  0  0  0  0
M  CHG  1  75   1
M  ISO  4  36 100  60 101  74 100  82 101
M  END
> <Batch ID>
0097

> <Smiles>
CCC(C[101CH2:1][101O:1]c1ccc2c(c1)CN(C(=O)C(NC(=O)C(C)NC)C(C)(C)C)C(C(=O)NC1CCCc3ccccc31)C2)c1cc(C[100NH:0][100C:0](=O)N2CCCC(n3nc(-c4ccc(Oc5ccc(F)cc5F)cc4)c(C(N)=O)c3N)C2)n(C)c1C

> <Shape>
0.201

> <Color>
0.077

> <Negative vol penalty>
0.000

$$$$

  -OEChem-04052319263D

 81 89  0     1  0  0  0  0  0999 V2000
  -18.5331  -31.0528   23.4891 C   0  0  0  0  0  0  0  0  0  0  0  0
  -19.9130  -30.9805   23.3272 C   0  0  0  0  0  0  0  0  0  0  0  0
  -25.2874  -14.6425   20.1908 C   0  0  0  0  0  0  0  0  0  0  0  0
  -27.2469  -14.2613   21.5517 C   0  0  0  0  0  0  0  0  0  0  0  0
  -17.7563  -29.9020   23.3623 C   0  0  0  0  0  0  0  0  0  0  0  0
  -20.5169  -29.7571   23.0395 C   0  0  0  0  0  0  0  0  0  0  0  0
  -25.4295  -28.8173   19.5055 C   0  0  0  0  0  0  0  0  0  0  0  0
  -25.0814  -13.2658   20.1017 C   0  0  0  0  0  0  0  0  0  0  0  0
  -27.0410  -12.8846   21.4626 C   0  0  0  0  0  0  0  0  0  0  0  0
  -26.7782  -28.6298   19.8047 C   0  0  0  0  0  0  0  0  0  0  0  0
  -23.8079  -10.8069   22.0421 C   0  0  0  0  0  0  0  0  0  0  0  0
  -22.5100  -10.3321   22.2303 C   0  0  0  0  0  0  0  0  0  0  0  0
  -34.1640  -25.3934   17.1257 C   0  0  0  0  0  0  0  0  0  0  0  0
  -33.0684  -26.2894   17.0644 C   0  0  0  0  0  0  0  0  0  0  0  0
  -26.4650  -26.2406   19.6908 C   0  0  0  0  0  0  0  0  0  0  0  0
  -22.5331   -9.3875   20.0067 C   0  0  0  0  0  0  0  0  0  0  0  0
  -26.3702  -15.1402   20.9158 C   0  0  0  0  0  0  0  0  0  0  0  0
  -26.0746  -17.4368   21.9863 C   0  0  0  0  0  0  0  0  0  0  0  0
  -18.3500  -28.6656   23.0634 C   0  0  0  0  0  0  0  0  0  0  0  0
  -24.5846  -27.7159   19.3071 C   0  0  0  0  0  0  0  0  0  0  0  0
  -19.7475  -28.5884   22.9099 C   0  0  0  0  0  0  0  0  0  0  0  0
  -25.1066  -26.4169   19.3866 C   0  0  0  0  0  0  0  0  0  0  0  0
  -25.9582  -12.3869   20.7376 C   0  0  0  0  0  0  0  0  0  0  0  0
  -27.2956  -27.3413   19.9003 C   0  0  0  0  0  0  0  0  0  0  0  0
  -24.4685  -10.5721   20.8361 C   0  0  0  0  0  0  0  0  0  0  0  0
  -21.8725   -9.6224   21.2127 C   0  0  0  0  0  0  0  0  0  0  0  0
  -23.8310   -9.8624   19.8185 C   0  0  0  0  0  0  0  0  0  0  0  0
  -26.5838  -16.5622   21.0077 C   0  0  0  0  0  0  0  0  0  0  0  0
  -33.8788  -24.4607   18.0983 C   0  0  0  0  0  0  0  0  0  0  0  0
  -32.1470  -25.8771   18.0017 C   0  0  0  0  0  0  0  0  0  0  0  0
  -26.5623  -18.6707   21.6312 C   0  0  0  0  0  0  0  0  0  0  0  0
  -25.2358  -17.1587   23.1154 C   0  0  0  0  0  0  0  0  0  0  0  0
  -21.9879  -26.5912   20.7548 C   0  0  0  0  0  0  0  0  0  0  0  0
  -21.9906  -24.4953   18.2790 C   0  0  0  0  0  0  0  0  0  0  0  0
  -23.7645  -22.8832   15.8497 C   0  0  0  0  0  0  0  0  0  0  0  0
  -30.7118  -21.8741   20.0614 C   0  0  0  0  0  0  0  0  0  0  0  0
  -17.4742  -27.4403   22.9827 C   0  0  0  0  0  0  0  0  0  0  0  0
  -23.1379  -27.9355   18.9586 C   0  0  0  0  0  0  0  0  0  0  0  0
  -24.2460  -25.2014   19.1624 C   0  0  0  0  0  0  0  0  0  0  0  0
  -18.1514  -26.2511   22.3063 C   0  0  0  0  0  0  0  0  0  0  0  0
  -28.9035  -20.2003   17.4146 C   0  0  0  0  0  0  0  0  0  0  0  0
  -19.5615  -26.0570   22.8547 C   0  0  0  0  0  0  0  0  0  0  0  0
  -28.0915  -19.1713   18.2038 C   0  0  0  0  0  0  0  0  0  0  0  0
  -30.2941  -20.3835   18.0148 C   0  0  0  0  0  0  0  0  0  0  0  0
  -29.4877  -19.7268   20.2493 C   0  0  0  0  0  0  0  0  0  0  0  0
  -20.4368  -27.2841   22.5728 C   0  0  1  0  0  0  0  0  0  0  0  0
  -22.2561  -26.7337   19.2833 C   0  0  1  0  0  0  0  0  0  0  0  0
  -28.0635  -19.5111   19.7060 C   0  0  2  0  0  0  0  0  0  0  0  0
  -34.6753  -23.3081   18.5672 C   0  0  0  0  0  0  0  0  0  0  0  0
  -23.5006  -21.2025   14.0051 C   0  0  0  0  0  0  0  0  0  0  0  0
  -21.8863  -22.2503   20.3428 C   0  0  0  0  0  0  0  0  0  0  0  0
  -22.5761  -20.6555   18.5402 C   0  0  0  0  0  0  0  0  0  0  0  0
  -20.4229  -21.8999   18.3452 C   0  0  0  0  0  0  0  0  0  0  0  0
  -24.6089  -24.8360   13.7924 C   0  0  0  0  0  0  0  0  0  0  0  0
  -30.8049  -26.4637   18.3599 C   0  0  0  0  0  0  0  0  0  0  0  0
  -30.8693  -27.5183   19.4668 C   0  0  0  0  0  0  0  0  0  0  0  0
  -29.5217  -28.1665   19.7623 C   0  0  0  0  0  0  0  0  0  1  0  0
  -31.9611  -23.9967   19.7157 C   0  0  0  0  0  0  0  0  0  0  0  0
  -22.6037  -23.1389   18.0272 C   0  0  1  0  0  0  0  0  0  0  0  0
  -23.4909  -22.6786   14.3706 C   0  0  2  0  0  0  0  0  0  0  0  0
  -21.8883  -22.0088   18.8201 C   0  0  0  0  0  0  0  0  0  0  0  0
  -27.3370  -17.1875   20.0991 N   0  0  0  0  0  0  0  0  0  0  0  0
  -32.6503  -24.7648   18.6243 N   0  0  0  0  0  0  0  0  0  0  0  0
  -27.3047  -18.4681   20.5052 N   0  0  0  0  0  0  0  0  0  0  0  0
  -22.8366  -25.4679   18.8305 N   0  0  0  0  0  0  0  0  0  0  0  0
  -30.1949  -20.7249   19.4407 N   0  0  0  0  0  0  0  0  0  0  0  0
  -26.4241  -19.8984   22.1753 N   0  0  0  0  0  0  0  0  0  0  0  0
  -24.8260  -15.8363   23.3337 N   0  0  0  0  0  0  0  0  0  0  0  0
  -20.8766  -27.2852   21.1940 N   0  0  0  0  0  0  0  0  0  0  0  0
  -22.5972  -22.9502   16.5806 N   0  0  0  0  0  0  0  0  0  0  0  0
  -31.3751  -22.7617   19.2221 N   0  0  0  0  0  0  0  0  0  0  0  0
  -24.5248  -23.3725   13.5518 N   0  3  0  0  0  0  0  0  0  0  0  0
  -24.8474  -18.0589   23.8979 O   0  0  0  0  0  0  0  0  0  0  0  0
  -22.7331  -25.9014   21.4407 O   0  0  0  0  0  0  0  0  0  0  0  0
  -20.8068  -24.6869   17.9902 O   0  0  0  0  0  0  0  0  0  0  0  0
  -24.9003  -22.9708   16.3111 O   0  0  0  0  0  0  0  0  0  0  0  0
  -30.5889  -22.0943   21.2709 O   0  0  0  0  0  0  0  0  0  0  0  0
  -25.7574  -11.0434   20.6511 O   0  0  0  0  0  0  0  0  0  0  0  0
  -28.6115  -27.1554   20.1929 O   0  0  0  0  0  0  0  0  0  1  0  0
  -20.6267   -9.1652   21.3941 F   0  0  0  0  0  0  0  0  0  0  0  0
  -24.4609   -9.6326   18.6582 F   0  0  0  0  0  0  0  0  0  0  0  0
  1  2  1  0  0  0  0
  1  5  2  0  0  0  0
  2  6  2  0  0  0  0
  3  8  2  0  0  0  0
  3 17  1  0  0  0  0
  4  9  1  0  0  0  0
  4 17  2  0  0  0  0
  5 19  1  0  0  0  0
  6 21  1  0  0  0  0
  7 10  2  0  0  0  0
  7 20  1  0  0  0  0
  8 23  1  0  0  0  0
  9 23  2  0  0  0  0
 10 24  1  0  0  0  0
 11 12  2  0  0  0  0
 11 25  1  0  0  0  0
 12 26  1  0  0  0  0
 13 14  1  0  0  0  0
 13 29  2  0  0  0  0
 14 30  2  0  0  0  0
 15 22  1  0  0  0  0
 15 24  2  0  0  0  0
 16 26  2  0  0  0  0
 16 27  1  0  0  0  0
 17 28  1  0  0  0  0
 18 28  1  0  0  0  0
 18 31  2  0  0  0  0
 18 32  1  0  0  0  0
 19 21  2  0  0  0  0
 19 37  1  0  0  0  0
 20 22  2  0  0  0  0
 20 38  1  0  0  0  0
 21 46  1  0  0  0  0
 22 39  1  0  0  0  0
 23 78  1  0  0  0  0
 24 79  1  0  0  0  0
 25 27  2  0  0  0  0
 25 78  1  0  0  0  0
 26 80  1  0  0  0  0
 27 81  1  0  0  0  0
 28 62  2  0  0  0  0
 29 49  1  0  0  0  0
 29 63  1  0  0  0  0
 30 55  1  0  0  0  0
 30 63  1  0  0  0  0
 31 64  1  0  0  0  0
 31 67  1  0  0  0  0
 32 68  1  0  0  0  0
 32 73  2  0  0  0  0
 33 47  1  0  0  0  0
 33 69  1  0  0  0  0
 33 74  2  0  0  0  0
 34 59  1  0  0  0  0
 34 65  1  0  0  0  0
 34 75  2  0  0  0  0
 35 60  1  0  0  0  0
 35 70  1  0  0  0  0
 35 76  2  0  0  0  0
 36 66  1  0  0  0  0
 36 71  1  0  0  0  0
 36 77  2  0  0  0  0
 37 40  1  0  0  0  0
 38 47  1  0  0  0  0
 39 65  1  0  0  0  0
 40 42  1  0  0  0  0
 41 43  1  0  0  0  0
 41 44  1  0  0  0  0
 42 46  1  0  0  0  0
 43 48  1  0  0  0  0
 44 66  1  0  0  0  0
 45 48  1  0  0  0  0
 45 66  1  0  0  0  0
 46 69  1  0  0  0  0
 47 65  1  0  0  0  0
 48 64  1  0  0  0  0
 50 60  1  0  0  0  0
 51 61  1  0  0  0  0
 52 61  1  0  0  0  0
 53 61  1  0  0  0  0
 54 72  1  0  0  0  0
 55 56  1  0  0  0  0
 56 57  1  0  0  0  0
 57 79  1  0  0  0  0
 58 63  1  0  0  0  0
 58 71  1  0  0  0  0
 59 61  1  0  0  0  0
 59 70  1  0  0  0  0
 60 72  1  0  0  0  0
 62 64  1  0  0  0  0
M  CHG  1  72   1
M  ISO  4  36 100  57 101  71 100  79 101
M  END
> <Batch ID>
0097

> <Smiles>
CNC(C)C(=O)NC(C(=O)N1Cc2cc([101O:1][101CH2:1]CCc3ccc(C)n3C[100NH:0][100C:0](=O)N3CCCC(n4nc(-c5ccc(Oc6ccc(F)cc6F)cc5)c(C(N)=O)c4N)C3)ccc2CC1C(=O)NC1CCCc2ccccc21)C(C)(C)C

> <Shape>
0.225

> <Color>
0.067

> <Negative vol penalty>
0.000

$$$$

  -OEChem-04052319263D

 87 95  0     1  0  0  0  0  0999 V2000
  -35.6333  -27.3021   15.8371 C   0  0  0  0  0  0  0  0  0  0  0  0
  -34.6721  -26.3224   15.6097 C   0  0  0  0  0  0  0  0  0  0  0  0
  -23.0262   -9.9630   19.9717 C   0  0  0  0  0  0  0  0  0  0  0  0
  -23.7986   -9.9588   22.2608 C   0  0  0  0  0  0  0  0  0  0  0  0
  -35.6791  -27.9604   17.0653 C   0  0  0  0  0  0  0  0  0  0  0  0
  -33.7567  -25.9997   16.6109 C   0  0  0  0  0  0  0  0  0  0  0  0
  -27.9106  -24.3380   15.8575 C   0  0  0  0  0  0  0  0  0  0  0  0
  -22.2439   -8.8382   20.2335 C   0  0  0  0  0  0  0  0  0  0  0  0
  -23.0163   -8.8340   22.5227 C   0  0  0  0  0  0  0  0  0  0  0  0
  -27.2842  -23.0926   15.8402 C   0  0  0  0  0  0  0  0  0  0  0  0
  -19.7657   -8.1534   23.1479 C   0  0  0  0  0  0  0  0  0  0  0  0
  -19.0144   -8.1477   24.3231 C   0  0  0  0  0  0  0  0  0  0  0  0
  -26.7207  -23.3503   18.1715 C   0  0  0  0  0  0  0  0  0  0  0  0
  -20.1916   -6.1731   25.0662 C   0  0  0  0  0  0  0  0  0  0  0  0
  -23.8036  -10.5232   20.9853 C   0  0  0  0  0  0  0  0  0  0  0  0
  -24.2325  -13.0341   20.8461 C   0  0  0  0  0  0  0  0  0  0  0  0
  -34.7576  -27.6525   18.0786 C   0  0  0  0  0  0  0  0  0  0  0  0
  -27.9563  -25.0954   17.0367 C   0  0  0  0  0  0  0  0  0  0  0  0
  -33.7910  -26.6536   17.8543 C   0  0  0  0  0  0  0  0  0  0  0  0
  -27.3461  -24.6062   18.2005 C   0  0  0  0  0  0  0  0  0  0  0  0
  -27.2937  -18.3997   19.9826 C   0  0  0  0  0  0  0  0  0  0  0  0
  -27.3704  -19.0989   21.2124 C   0  0  0  0  0  0  0  0  0  0  0  0
  -22.2390   -8.2737   21.5090 C   0  0  0  0  0  0  0  0  0  0  0  0
  -26.6917  -22.5973   16.9980 C   0  0  0  0  0  0  0  0  0  0  0  0
  -20.7300   -7.1689   22.9318 C   0  0  0  0  0  0  0  0  0  0  0  0
  -19.2273   -7.1576   25.2822 C   0  0  0  0  0  0  0  0  0  0  0  0
  -20.9429   -6.1788   23.8910 C   0  0  0  0  0  0  0  0  0  0  0  0
  -24.6122  -11.6848   20.7153 C   0  0  0  0  0  0  0  0  0  0  0  0
  -28.5415  -17.8741   19.7297 C   0  0  0  0  0  0  0  0  0  0  0  0
  -28.6629  -18.9795   21.6735 C   0  0  0  0  0  0  0  0  0  0  0  0
  -25.3481  -13.7425   20.4719 C   0  0  0  0  0  0  0  0  0  0  0  0
  -22.9832  -13.5967   21.2682 C   0  0  0  0  0  0  0  0  0  0  0  0
  -30.2788  -26.1962   18.9070 C   0  0  0  0  0  0  0  0  0  0  0  0
  -27.8249  -27.6856   20.4178 C   0  0  0  0  0  0  0  0  0  0  0  0
  -24.4894  -27.7732   21.1344 C   0  0  0  0  0  0  0  0  0  0  0  0
  -30.8650  -14.5708   20.6240 C   0  0  0  0  0  0  0  0  0  0  0  0
  -34.8762  -28.3577   19.4065 C   0  0  0  0  0  0  0  0  0  0  0  0
  -28.6126  -26.4489   17.0320 C   0  0  0  0  0  0  0  0  0  0  0  0
  -27.3499  -25.3892   19.4871 C   0  0  0  0  0  0  0  0  0  0  0  0
  -33.6333  -28.2207   20.2820 C   0  0  0  0  0  0  0  0  0  0  0  0
  -29.6317  -12.2115   18.2597 C   0  0  0  0  0  0  0  0  0  0  0  0
  -33.1568  -26.7719   20.3098 C   0  0  0  0  0  0  0  0  0  0  0  0
  -28.1873  -11.9710   18.7023 C   0  0  0  0  0  0  0  0  0  0  0  0
  -30.5627  -12.4082   19.4542 C   0  0  0  0  0  0  0  0  0  0  0  0
  -28.6953  -13.2145   20.8458 C   0  0  0  0  0  0  0  0  0  0  0  0
  -32.7651  -26.2930   18.9067 C   0  0  1  0  0  0  0  0  0  0  0  0
  -29.0475  -26.9068   18.4207 C   0  0  1  0  0  0  0  0  0  0  0  0
  -27.7091  -13.0661   19.6746 C   0  0  2  0  0  0  0  0  0  0  0  0
  -29.0198  -17.0603   18.5918 C   0  0  0  0  0  0  0  0  0  0  0  0
  -29.6127  -21.0079   22.8004 C   0  0  0  0  0  0  0  0  0  0  0  0
  -24.5685  -19.8077   23.7721 C   0  0  0  0  0  0  0  0  0  0  0  0
  -22.7858  -29.0879   22.4253 C   0  0  0  0  0  0  0  0  0  0  0  0
  -28.8228  -26.4269   23.0120 C   0  0  0  0  0  0  0  0  0  0  0  0
  -26.6089  -26.9719   24.0463 C   0  0  0  0  0  0  0  0  0  0  0  0
  -28.0848  -28.8070   23.2237 C   0  0  0  0  0  0  0  0  0  0  0  0
  -22.9762  -28.4423   18.6806 C   0  0  0  0  0  0  0  0  0  0  0  0
  -26.0725  -18.2546   19.1101 C   0  0  0  0  0  0  0  0  0  0  0  0
  -26.2698  -19.8258   21.8781 C   0  0  0  0  0  0  0  0  0  0  0  0
  -29.2902  -19.5142   22.9011 C   0  0  0  0  0  0  0  0  0  0  0  0
  -25.6755  -19.0419   23.0649 C   0  0  0  0  0  0  0  0  0  0  0  0
  -26.0906  -19.1524   17.8711 C   0  0  0  0  0  0  0  0  0  0  0  0
  -30.7654  -17.8802   20.8779 C   0  0  0  0  0  0  0  0  0  0  0  0
  -31.0127  -16.7259   21.8457 C   0  0  0  0  0  0  0  0  0  0  0  0
  -26.0813  -20.6400   18.2033 C   0  0  0  0  0  0  0  0  0  1  0  0
  -26.8944  -27.3303   21.5521 C   0  0  1  0  0  0  0  0  0  0  0  0
  -23.4776  -28.9037   21.0836 C   0  0  2  0  0  0  0  0  0  0  0  0
  -27.6042  -27.3682   22.9349 C   0  0  0  0  0  0  0  0  0  0  0  0
  -25.8706  -11.5421   20.2909 N   0  0  0  0  0  0  0  0  0  0  0  0
  -29.3658  -18.2332   20.7641 N   0  0  0  0  0  0  0  0  0  0  0  0
  -26.2914  -12.8108   20.1518 N   0  0  0  0  0  0  0  0  0  0  0  0
  -28.0095  -26.7043   19.4335 N   0  0  0  0  0  0  0  0  0  0  0  0
  -30.0532  -13.4612   20.3360 N   0  0  0  0  0  0  0  0  0  0  0  0
  -25.6044  -15.0653   20.3886 N   0  0  0  0  0  0  0  0  0  0  0  0
  -21.9421  -12.7257   21.6171 N   0  0  0  0  0  0  0  0  0  0  0  0
  -31.4627  -26.8083   18.5421 N   0  0  0  0  0  0  0  0  0  0  0  0
  -25.7529  -28.2321   21.4415 N   0  0  0  0  0  0  0  0  0  0  0  0
  -30.3033  -15.5255   21.4628 N   0  0  0  0  0  0  0  0  0  0  0  0
  -22.4380  -28.6224   20.0535 N   0  3  0  0  0  0  0  0  0  0  0  0
  -22.7903  -14.8352   21.3184 O   0  0  0  0  0  0  0  0  0  0  0  0
  -30.1633  -25.1695   19.5659 O   0  0  0  0  0  0  0  0  0  0  0  0
  -28.3625  -28.7958   20.4017 O   0  0  0  0  0  0  0  0  0  0  0  0
  -24.1883  -26.5999   20.9264 O   0  0  0  0  0  0  0  0  0  0  0  0
  -32.0039  -14.7034   20.1631 O   0  0  0  0  0  0  0  0  0  0  0  0
  -21.4756   -7.1763   21.7650 O   0  0  0  0  0  0  0  0  0  0  0  0
  -26.0802  -21.3816   16.9841 O   0  0  0  0  0  0  0  0  0  1  0  0
  -18.5068   -7.1532   26.4114 F   0  0  0  0  0  0  0  0  0  0  0  0
  -21.8686   -5.2310   23.6896 F   0  0  0  0  0  0  0  0  0  0  0  0
  1  2  1  0  0  0  0
  1  5  2  0  0  0  0
  2  6  2  0  0  0  0
  3  8  2  0  0  0  0
  3 15  1  0  0  0  0
  4  9  1  0  0  0  0
  4 15  2  0  0  0  0
  5 17  1  0  0  0  0
  6 19  1  0  0  0  0
  7 10  2  0  0  0  0
  7 18  1  0  0  0  0
  8 23  1  0  0  0  0
  9 23  2  0  0  0  0
 10 24  1  0  0  0  0
 11 12  2  0  0  0  0
 11 25  1  0  0  0  0
 12 26  1  0  0  0  0
 13 20  1  0  0  0  0
 13 24  2  0  0  0  0
 14 26  2  0  0  0  0
 14 27  1  0  0  0  0
 15 28  1  0  0  0  0
 16 28  1  0  0  0  0
 16 31  2  0  0  0  0
 16 32  1  0  0  0  0
 17 19  2  0  0  0  0
 17 37  1  0  0  0  0
 18 20  2  0  0  0  0
 18 38  1  0  0  0  0
 19 46  1  0  0  0  0
 20 39  1  0  0  0  0
 21 22  1  0  0  0  0
 21 29  2  0  0  0  0
 21 57  1  0  0  0  0
 22 30  2  0  0  0  0
 22 58  1  0  0  0  0
 23 84  1  0  0  0  0
 24 85  1  0  0  0  0
 25 27  2  0  0  0  0
 25 84  1  0  0  0  0
 26 86  1  0  0  0  0
 27 87  1  0  0  0  0
 28 68  2  0  0  0  0
 29 49  1  0  0  0  0
 29 69  1  0  0  0  0
 30 59  1  0  0  0  0
 30 69  1  0  0  0  0
 31 70  1  0  0  0  0
 31 73  1  0  0  0  0
 32 74  1  0  0  0  0
 32 79  2  0  0  0  0
 33 47  1  0  0  0  0
 33 75  1  0  0  0  0
 33 80  2  0  0  0  0
 34 65  1  0  0  0  0
 34 71  1  0  0  0  0
 34 81  2  0  0  0  0
 35 66  1  0  0  0  0
 35 76  1  0  0  0  0
 35 82  2  0  0  0  0
 36 72  1  0  0  0  0
 36 77  1  0  0  0  0
 36 83  2  0  0  0  0
 37 40  1  0  0  0  0
 38 47  1  0  0  0  0
 39 71  1  0  0  0  0
 40 42  1  0  0  0  0
 41 43  1  0  0  0  0
 41 44  1  0  0  0  0
 42 46  1  0  0  0  0
 43 48  1  0  0  0  0
 44 72  1  0  0  0  0
 45 48  1  0  0  0  0
 45 72  1  0  0  0  0
 46 75  1  0  0  0  0
 47 71  1  0  0  0  0
 48 70  1  0  0  0  0
 50 59  1  0  0  0  0
 51 60  1  0  0  0  0
 52 66  1  0  0  0  0
 53 67  1  0  0  0  0
 54 67  1  0  0  0  0
 55 67  1  0  0  0  0
 56 78  1  0  0  0  0
 57 61  1  0  0  0  0
 58 60  1  0  0  0  0
 61 64  1  0  0  0  0
 62 63  1  0  0  0  0
 62 69  1  0  0  0  0
 63 77  1  0  0  0  0
 64 85  1  0  0  0  0
 65 67  1  0  0  0  0
 65 76  1  0  0  0  0
 66 78  1  0  0  0  0
 68 70  1  0  0  0  0
M  CHG  1  78   1
M  ISO  4  36 100  64 101  77 100  85 101
M  END
> <Batch ID>
0097

> <Smiles>
CCCc1c(CC[101CH2:1][101O:1]c2ccc3c(c2)CN(C(=O)C(NC(=O)C(C)NC)C(C)(C)C)C(C(=O)NC2CCCc4ccccc42)C3)c(C)n(CC[100NH:0][100C:0](=O)N2CCCC(n3nc(-c4ccc(Oc5ccc(F)cc5F)cc4)c(C(N)=O)c3N)C2)c1CC

> <Shape>
0.283

> <Color>
0.204

> <Negative vol penalty>
0.000

$$$$

  -OEChem-04052319263D

 84 91  0     1  0  0  0  0  0999 V2000
  -25.3193  -19.0113   16.5900 C   0  0  0  0  0  0  0  0  0  0  0  0
  -26.1312  -17.9137   16.8531 C   0  0  0  0  0  0  0  0  0  0  0  0
  -22.8686  -28.5502   19.5324 C   0  0  0  0  0  0  0  0  0  0  0  0
  -22.5180  -26.8086   21.1698 C   0  0  0  0  0  0  0  0  0  0  0  0
  -24.3364  -19.3817   17.5053 C   0  0  0  0  0  0  0  0  0  0  0  0
  -25.9526  -17.1791   18.0258 C   0  0  0  0  0  0  0  0  0  0  0  0
  -28.5761  -13.0438   18.4942 C   0  0  0  0  0  0  0  0  0  0  0  0
  -21.5482  -28.9691   19.6952 C   0  0  0  0  0  0  0  0  0  0  0  0
  -21.1976  -27.2275   21.3327 C   0  0  0  0  0  0  0  0  0  0  0  0
  -29.9504  -13.0456   18.7289 C   0  0  0  0  0  0  0  0  0  0  0  0
  -19.5509  -29.6967   22.9488 C   0  0  0  0  0  0  0  0  0  0  0  0
  -19.0637  -29.8077   24.2511 C   0  0  0  0  0  0  0  0  0  0  0  0
  -29.5497  -12.4994   21.0441 C   0  0  0  0  0  0  0  0  0  0  0  0
  -17.3526  -28.1773   23.7499 C   0  0  0  0  0  0  0  0  0  0  0  0
  -23.3535  -27.4699   20.2696 C   0  0  0  0  0  0  0  0  0  0  0  0
  -25.8835  -27.7918   20.3272 C   0  0  0  0  0  0  0  0  0  0  0  0
  -24.1545  -18.6582   18.6954 C   0  0  0  0  0  0  0  0  0  0  0  0
  -27.6763  -12.7801   19.5369 C   0  0  0  0  0  0  0  0  0  0  0  0
  -24.9501  -17.5228   18.9508 C   0  0  0  0  0  0  0  0  0  0  0  0
  -28.1645  -12.4923   20.8195 C   0  0  0  0  0  0  0  0  0  0  0  0
  -20.7126  -28.3078   20.5954 C   0  0  0  0  0  0  0  0  0  0  0  0
  -30.4373  -12.7762   20.0046 C   0  0  0  0  0  0  0  0  0  0  0  0
  -18.9389  -28.8261   22.0470 C   0  0  0  0  0  0  0  0  0  0  0  0
  -17.9646  -29.0480   24.6517 C   0  0  0  0  0  0  0  0  0  0  0  0
  -17.8398  -28.0664   22.4476 C   0  0  0  0  0  0  0  0  0  0  0  0
  -24.7173  -27.0363   20.1015 C   0  0  0  0  0  0  0  0  0  0  0  0
  -26.9124  -26.9333   20.0261 C   0  0  0  0  0  0  0  0  0  0  0  0
  -26.0241  -29.1484   20.7697 C   0  0  0  0  0  0  0  0  0  0  0  0
  -25.3514  -14.4144   20.9608 C   0  0  0  0  0  0  0  0  0  0  0  0
  -24.8430  -11.6010   22.4933 C   0  0  0  0  0  0  0  0  0  0  0  0
  -26.0988   -8.6080   23.5476 C   0  0  0  0  0  0  0  0  0  0  0  0
  -27.2761  -21.0415   20.1257 C   0  0  0  0  0  0  0  0  0  0  0  0
  -23.0704  -19.0983   19.6474 C   0  0  0  0  0  0  0  0  0  0  0  0
  -26.1978  -12.7556   19.2615 C   0  0  0  0  0  0  0  0  0  0  0  0
  -27.2412  -12.1830   21.9685 C   0  0  0  0  0  0  0  0  0  0  0  0
  -23.2501  -18.5362   21.0539 C   0  0  0  0  0  0  0  0  0  0  0  0
  -27.9576  -23.1608   17.2724 C   0  0  0  0  0  0  0  0  0  0  0  0
  -23.4939  -17.0360   20.9868 C   0  0  0  0  0  0  0  0  0  0  0  0
  -27.3067  -24.4751   17.7073 C   0  0  0  0  0  0  0  0  0  0  0  0
  -27.1372  -21.9590   17.7317 C   0  0  0  0  0  0  0  0  0  0  0  0
  -26.2221  -23.2302   19.6344 C   0  0  0  0  0  0  0  0  0  0  0  0
  -24.7943  -16.7271   20.2342 C   0  0  1  0  0  0  0  0  0  0  0  0
  -25.3533  -12.9805   20.5119 C   0  0  1  0  0  0  0  0  0  0  0  0
  -27.0156  -24.4826   19.2197 C   0  0  2  0  0  0  0  0  0  0  0  0
  -25.4550   -6.5358   24.8082 C   0  0  0  0  0  0  0  0  0  0  0  0
  -25.0457  -13.1392   25.1206 C   0  0  0  0  0  0  0  0  0  0  0  0
  -25.3496  -10.9507   26.2979 C   0  0  0  0  0  0  0  0  0  0  0  0
  -23.2353  -11.4150   25.0582 C   0  0  0  0  0  0  0  0  0  0  0  0
  -26.6160   -6.8799   21.2013 C   0  0  0  0  0  0  0  0  0  0  0  0
  -31.7480  -19.1190   23.4021 C   0  0  0  0  0  0  0  0  0  0  0  0
  -36.7964  -12.1376   21.3191 C   0  0  0  0  0  0  0  0  0  0  0  0
  -32.7371  -16.1294   21.2624 C   0  0  0  0  0  0  0  0  0  0  0  0
  -33.5454  -14.8454   21.4878 C   0  0  0  0  0  0  0  0  0  0  0  0
  -29.7826  -19.0362   20.9715 C   0  0  0  0  0  0  0  0  0  0  0  0
  -28.3592  -18.8347   20.4630 C   0  0  0  0  0  0  0  0  0  0  0  0
  -32.4196  -16.8765   22.5529 C   0  0  0  0  0  0  0  0  0  0  0  0
  -30.2534  -17.8789   21.8431 C   0  0  0  0  0  0  0  0  0  0  0  0
  -32.5756  -13.6448   19.4309 C   0  0  0  0  0  0  0  0  0  1  0  0
  -34.7147  -12.8408   20.4858 C   0  0  0  0  0  0  0  0  0  0  0  0
  -25.3591  -10.9662   23.7620 C   0  0  1  0  0  0  0  0  0  0  0  0
  -25.5562   -7.1942   23.4411 C   0  0  2  0  0  0  0  0  0  0  0  0
  -33.8443  -14.0717   20.1818 C   0  0  2  0  0  0  0  0  0  0  0  0
  -24.7650  -11.6255   25.0387 C   0  0  0  0  0  0  0  0  0  0  0  0
  -24.9799  -25.7935   19.6886 N   0  0  0  0  0  0  0  0  0  0  0  0
  -26.3230  -25.7615   19.6525 N   0  0  0  0  0  0  0  0  0  0  0  0
  -25.8038  -12.1772   21.6503 N   0  0  0  0  0  0  0  0  0  0  0  0
  -26.9114  -22.0168   19.1828 N   0  0  0  0  0  0  0  0  0  0  0  0
  -28.2549  -27.0740   20.0470 N   0  0  0  0  0  0  0  0  0  0  0  0
  -26.1118  -29.3965   22.1463 N   0  0  0  0  0  0  0  0  0  0  0  0
  -24.8828  -15.3010   20.0101 N   0  0  0  0  0  0  0  0  0  0  0  0
  -25.0855   -9.5380   23.6445 N   0  0  0  0  0  0  0  0  0  0  0  0
  -27.9184  -19.9201   19.6153 N   0  0  0  0  0  0  0  0  0  0  0  0
  -26.4455   -6.3614   22.5829 N   0  3  0  0  0  0  0  0  0  0  0  0
  -31.6816  -18.1287   22.2643 N   0  3  1  0  0  0  0  0  0  0  0  0
  -26.0541  -30.1134   19.9688 O   0  0  0  0  0  0  0  0  0  0  0  0
  -25.7446  -14.6955   22.0869 O   0  0  0  0  0  0  0  0  0  0  0  0
  -23.6328  -11.5799   22.2554 O   0  0  0  0  0  0  0  0  0  0  0  0
  -27.3014   -8.8615   23.5488 O   0  0  0  0  0  0  0  0  0  0  0  0
  -27.0507  -21.1634   21.3347 O   0  0  0  0  0  0  0  0  0  0  0  0
  -19.4242  -28.7165   20.7547 O   0  0  0  0  0  0  0  0  0  0  0  0
  -31.7782  -12.7780   20.2366 O   0  0  0  0  0  0  0  0  0  1  0  0
  -35.9470  -13.2483   21.0667 O   0  0  0  0  0  0  0  0  0  0  0  0
  -17.4979  -29.1535   25.9028 F   0  0  0  0  0  0  0  0  0  0  0  0
  -17.2484  -27.2274   21.5861 F   0  0  0  0  0  0  0  0  0  0  0  0
  1  2  1  0  0  0  0
  1  5  2  0  0  0  0
  2  6  2  0  0  0  0
  3  8  2  0  0  0  0
  3 15  1  0  0  0  0
  4  9  1  0  0  0  0
  4 15  2  0  0  0  0
  5 17  1  0  0  0  0
  6 19  1  0  0  0  0
  7 10  2  0  0  0  0
  7 18  1  0  0  0  0
  8 21  1  0  0  0  0
  9 21  2  0  0  0  0
 10 22  1  0  0  0  0
 11 12  2  0  0  0  0
 11 23  1  0  0  0  0
 12 24  1  0  0  0  0
 13 20  1  0  0  0  0
 13 22  2  0  0  0  0
 14 24  2  0  0  0  0
 14 25  1  0  0  0  0
 15 26  1  0  0  0  0
 16 26  1  0  0  0  0
 16 27  2  0  0  0  0
 16 28  1  0  0  0  0
 17 19  2  0  0  0  0
 17 33  1  0  0  0  0
 18 20  2  0  0  0  0
 18 34  1  0  0  0  0
 19 42  1  0  0  0  0
 20 35  1  0  0  0  0
 21 80  1  0  0  0  0
 22 81  1  0  0  0  0
 23 25  2  0  0  0  0
 23 80  1  0  0  0  0
 24 83  1  0  0  0  0
 25 84  1  0  0  0  0
 26 64  2  0  0  0  0
 27 65  1  0  0  0  0
 27 68  1  0  0  0  0
 28 69  1  0  0  0  0
 28 75  2  0  0  0  0
 29 43  1  0  0  0  0
 29 70  1  0  0  0  0
 29 76  2  0  0  0  0
 30 60  1  0  0  0  0
 30 66  1  0  0  0  0
 30 77  2  0  0  0  0
 31 61  1  0  0  0  0
 31 71  1  0  0  0  0
 31 78  2  0  0  0  0
 32 67  1  0  0  0  0
 32 72  1  0  0  0  0
 32 79  2  0  0  0  0
 33 36  1  0  0  0  0
 34 43  1  0  0  0  0
 35 66  1  0  0  0  0
 36 38  1  0  0  0  0
 37 39  1  0  0  0  0
 37 40  1  0  0  0  0
 38 42  1  0  0  0  0
 39 44  1  0  0  0  0
 40 67  1  0  0  0  0
 41 44  1  0  0  0  0
 41 67  1  0  0  0  0
 42 70  1  0  0  0  0
 43 66  1  0  0  0  0
 44 65  1  0  0  0  0
 45 61  1  0  0  0  0
 46 63  1  0  0  0  0
 47 63  1  0  0  0  0
 48 63  1  0  0  0  0
 49 73  1  0  0  0  0
 50 74  1  0  0  0  0
 51 82  1  0  0  0  0
 52 53  1  0  0  0  0
 52 56  1  0  0  0  0
 53 62  1  0  0  0  0
 54 55  1  0  0  0  0
 54 57  1  0  0  0  0
 55 72  1  0  0  0  0
 56 74  1  0  0  0  0
 57 74  1  0  0  0  0
 58 62  1  0  0  0  0
 58 81  1  0  0  0  0
 59 62  1  0  0  0  0
 59 82  1  0  0  0  0
 60 63  1  0  0  0  0
 60 71  1  0  0  0  0
 61 73  1  0  0  0  0
 64 65  1  0  0  0  0
M  CHG  2  73   1  74   1
M  ISO  4  32 100  58 101  72 100  81 101
M  END
> <Batch ID>
0097

> <Smiles>
CNC(C)C(=O)NC(C(=O)N1Cc2cc([101O:1][101CH2:1]C(CCCN(C)CCC[100NH:0][100C:0](=O)N3CCCC(n4nc(-c5ccc(Oc6ccc(F)cc6F)cc5)c(C(N)=O)c4N)C3)COC)ccc2CC1C(=O)NC1CCCc2ccccc21)C(C)(C)C

> <Shape>
0.226

> <Color>
0.063

> <Negative vol penalty>
0.000

$$$$

  -OEChem-04052319262D

  0  0  0     0  0  0  0  0  0999 V2000
M  END
$$$$

  -OEChem-04052319263D

 86 93  0     1  0  0  0  0  0999 V2000
  -17.2472  -29.8758   24.4432 C   0  0  0  0  0  0  0  0  0  0  0  0
  -18.6199  -29.9561   24.6545 C   0  0  0  0  0  0  0  0  0  0  0  0
  -23.6746  -14.4614   21.2380 C   0  0  0  0  0  0  0  0  0  0  0  0
  -25.6094  -14.5082   19.7917 C   0  0  0  0  0  0  0  0  0  0  0  0
  -16.7424  -29.0198   23.4653 C   0  0  0  0  0  0  0  0  0  0  0  0
  -19.4886  -29.1794   23.8887 C   0  0  0  0  0  0  0  0  0  0  0  0
  -26.0525  -29.3237   21.0232 C   0  0  0  0  0  0  0  0  0  0  0  0
  -23.3665  -13.1789   20.7843 C   0  0  0  0  0  0  0  0  0  0  0  0
  -25.3013  -13.2256   19.3381 C   0  0  0  0  0  0  0  0  0  0  0  0
  -27.2218  -28.5662   20.9710 C   0  0  0  0  0  0  0  0  0  0  0  0
  -22.2734   -9.7496   20.2738 C   0  0  0  0  0  0  0  0  0  0  0  0
  -21.9155   -8.7940   21.2247 C   0  0  0  0  0  0  0  0  0  0  0  0
  -26.2414  -27.1819   19.2559 C   0  0  0  0  0  0  0  0  0  0  0  0
  -24.0627   -9.0595   22.2999 C   0  0  0  0  0  0  0  0  0  0  0  0
  -24.7961  -15.1261   20.7416 C   0  0  0  0  0  0  0  0  0  0  0  0
  -25.9271  -16.7926   22.3072 C   0  0  0  0  0  0  0  0  0  0  0  0
  -17.6060  -28.2394   22.6805 C   0  0  0  0  0  0  0  0  0  0  0  0
  -24.9630  -29.0086   20.1985 C   0  0  0  0  0  0  0  0  0  0  0  0
  -18.9949  -28.3111   22.9002 C   0  0  0  0  0  0  0  0  0  0  0  0
  -25.0603  -27.9384   19.2977 C   0  0  0  0  0  0  0  0  0  0  0  0
  -24.1798  -12.5610   19.8344 C   0  0  0  0  0  0  0  0  0  0  0  0
  -27.3154  -27.4934   20.0893 C   0  0  0  0  0  0  0  0  0  0  0  0
  -23.5260  -10.3602   20.3359 C   0  0  0  0  0  0  0  0  0  0  0  0
  -22.8101   -8.4489   22.2377 C   0  0  0  0  0  0  0  0  0  0  0  0
  -24.4206  -10.0152   21.3490 C   0  0  0  0  0  0  0  0  0  0  0  0
  -25.1146  -16.4511   21.2095 C   0  0  0  0  0  0  0  0  0  0  0  0
  -25.9127  -18.1659   22.3310 C   0  0  0  0  0  0  0  0  0  0  0  0
  -26.6319  -15.9444   23.2234 C   0  0  0  0  0  0  0  0  0  0  0  0
  -21.9568  -28.1064   20.7006 C   0  0  0  0  0  0  0  0  0  0  0  0
  -21.7312  -28.4342   17.4813 C   0  0  0  0  0  0  0  0  0  0  0  0
  -23.3103  -28.4825   14.4563 C   0  0  0  0  0  0  0  0  0  0  0  0
  -24.9684  -22.3072   18.1109 C   0  0  0  0  0  0  0  0  0  0  0  0
  -17.0109  -27.2936   21.6677 C   0  0  0  0  0  0  0  0  0  0  0  0
  -23.7185  -29.8520   20.2478 C   0  0  0  0  0  0  0  0  0  0  0  0
  -23.9265  -27.5715   18.3767 C   0  0  0  0  0  0  0  0  0  0  0  0
  -18.0214  -26.7831   20.6437 C   0  0  0  0  0  0  0  0  0  0  0  0
  -23.1660  -21.9026   21.1546 C   0  0  0  0  0  0  0  0  0  0  0  0
  -19.3039  -26.3346   21.3371 C   0  0  0  0  0  0  0  0  0  0  0  0
  -23.5343  -20.4904   21.6129 C   0  0  0  0  0  0  0  0  0  0  0  0
  -23.0418  -21.9884   19.6350 C   0  0  0  0  0  0  0  0  0  0  0  0
  -24.5854  -20.0889   19.3473 C   0  0  0  0  0  0  0  0  0  0  0  0
  -19.9708  -27.5030   22.0728 C   0  0  1  0  0  0  0  0  0  0  0  0
  -22.4825  -29.1241   19.7283 C   0  0  1  0  0  0  0  0  0  0  0  0
  -24.7769  -19.9656   20.8687 C   0  0  2  0  0  0  0  0  0  0  0  0
  -32.4967  -19.4731   24.0235 C   0  0  0  0  0  0  0  0  0  0  0  0
  -22.8565  -28.7335   12.0010 C   0  0  0  0  0  0  0  0  0  0  0  0
  -20.6481  -25.5830   17.3925 C   0  0  0  0  0  0  0  0  0  0  0  0
  -21.1121  -25.5577   14.9324 C   0  0  0  0  0  0  0  0  0  0  0  0
  -19.4790  -27.1908   15.8751 C   0  0  0  0  0  0  0  0  0  0  0  0
  -28.5154  -21.6565   21.1027 C   0  0  0  0  0  0  0  0  0  0  0  0
  -25.0040  -30.9025   14.2725 C   0  0  0  0  0  0  0  0  0  0  0  0
  -31.1769  -23.4691   17.7560 C   0  0  0  0  0  0  0  0  0  0  0  0
  -31.8906  -20.8621   23.8994 C   0  0  0  0  0  0  0  0  0  0  0  0
  -31.1384  -21.0302   22.5765 C   0  0  0  0  0  0  0  0  0  0  0  0
  -29.9508  -25.3048   21.2772 C   0  0  0  0  0  0  0  0  0  0  0  0
  -30.4971  -22.4210   22.4823 C   0  0  0  0  0  0  0  0  0  0  0  0
  -28.9794  -24.1158   21.2435 C   0  0  0  0  0  0  0  0  0  0  0  0
  -28.0589  -23.2462   17.3429 C   0  0  0  0  0  0  0  0  0  0  0  0
  -26.9516  -22.4786   16.6288 C   0  0  0  0  0  0  0  0  0  0  0  0
  -28.9947  -22.3248   18.1149 C   0  0  0  0  0  0  0  0  0  0  0  0
  -30.6098  -22.5438   19.9975 C   0  0  0  0  0  0  0  0  0  0  0  0
  -29.2169  -26.6420   21.2361 C   0  0  0  0  0  0  0  0  0  1  0  0
  -21.9494  -27.5248   16.2962 C   0  0  1  0  0  0  0  0  0  0  0  0
  -23.2243  -29.4510   13.2905 C   0  0  2  0  0  0  0  0  0  0  0  0
  -20.8180  -26.4695   16.1426 C   0  0  0  0  0  0  0  0  0  0  0  0
  -29.6455  -22.7081   21.2043 C   0  0  2  0  0  0  0  0  0  0  0  0
  -24.6199  -17.5211   20.5815 N   0  0  0  0  0  0  0  0  0  0  0  0
  -25.1229  -18.5485   21.2869 N   0  0  0  0  0  0  0  0  0  0  0  0
  -22.7284  -28.4223   18.4668 N   0  0  0  0  0  0  0  0  0  0  0  0
  -24.2534  -21.4769   18.9898 N   0  0  0  0  0  0  0  0  0  0  0  0
  -26.4986  -19.0713   23.1429 N   0  0  0  0  0  0  0  0  0  0  0  0
  -26.5388  -14.5561   23.0553 N   0  0  0  0  0  0  0  0  0  0  0  0
  -20.6696  -28.3570   21.1365 N   0  0  0  0  0  0  0  0  0  0  0  0
  -22.1149  -28.3964   15.1380 N   0  0  0  0  0  0  0  0  0  0  0  0
  -26.1081  -21.7467   17.5473 N   0  0  0  0  0  0  0  0  0  0  0  0
  -24.5317  -30.1375   13.0899 N   0  3  0  0  0  0  0  0  0  0  0  0
  -30.0864  -23.1513   18.7499 N   0  3  1  0  0  0  0  0  0  0  0  0
  -27.3104  -16.4037   24.1733 O   0  0  0  0  0  0  0  0  0  0  0  0
  -22.6658  -27.1627   21.0299 O   0  0  0  0  0  0  0  0  0  0  0  0
  -20.7168  -29.1346   17.5274 O   0  0  0  0  0  0  0  0  0  0  0  0
  -24.3344  -27.8615   14.7322 O   0  0  0  0  0  0  0  0  0  0  0  0
  -24.6201  -23.4642   17.8521 O   0  0  0  0  0  0  0  0  0  0  0  0
  -23.8796  -11.3094   19.3916 O   0  0  0  0  0  0  0  0  0  0  0  0
  -28.4639  -26.7464   20.0364 O   0  0  0  0  0  0  0  0  0  1  0  0
  -22.4656   -7.5323   23.1517 F   0  0  0  0  0  0  0  0  0  0  0  0
  -25.6250  -10.5993   21.4145 F   0  0  0  0  0  0  0  0  0  0  0  0
  1  2  1  0  0  0  0
  1  5  2  0  0  0  0
  2  6  2  0  0  0  0
  3  8  2  0  0  0  0
  3 15  1  0  0  0  0
  4  9  1  0  0  0  0
  4 15  2  0  0  0  0
  5 17  1  0  0  0  0
  6 19  1  0  0  0  0
  7 10  2  0  0  0  0
  7 18  1  0  0  0  0
  8 21  1  0  0  0  0
  9 21  2  0  0  0  0
 10 22  1  0  0  0  0
 11 12  2  0  0  0  0
 11 23  1  0  0  0  0
 12 24  1  0  0  0  0
 13 20  1  0  0  0  0
 13 22  2  0  0  0  0
 14 24  2  0  0  0  0
 14 25  1  0  0  0  0
 15 26  1  0  0  0  0
 16 26  1  0  0  0  0
 16 27  2  0  0  0  0
 16 28  1  0  0  0  0
 17 19  2  0  0  0  0
 17 33  1  0  0  0  0
 18 20  2  0  0  0  0
 18 34  1  0  0  0  0
 19 42  1  0  0  0  0
 20 35  1  0  0  0  0
 21 83  1  0  0  0  0
 22 84  1  0  0  0  0
 23 25  2  0  0  0  0
 23 83  1  0  0  0  0
 24 85  1  0  0  0  0
 25 86  1  0  0  0  0
 26 67  2  0  0  0  0
 27 68  1  0  0  0  0
 27 71  1  0  0  0  0
 28 72  1  0  0  0  0
 28 78  2  0  0  0  0
 29 43  1  0  0  0  0
 29 73  1  0  0  0  0
 29 79  2  0  0  0  0
 30 63  1  0  0  0  0
 30 69  1  0  0  0  0
 30 80  2  0  0  0  0
 31 64  1  0  0  0  0
 31 74  1  0  0  0  0
 31 81  2  0  0  0  0
 32 70  1  0  0  0  0
 32 75  1  0  0  0  0
 32 82  2  0  0  0  0
 33 36  1  0  0  0  0
 34 43  1  0  0  0  0
 35 69  1  0  0  0  0
 36 38  1  0  0  0  0
 37 39  1  0  0  0  0
 37 40  1  0  0  0  0
 38 42  1  0  0  0  0
 39 44  1  0  0  0  0
 40 70  1  0  0  0  0
 41 44  1  0  0  0  0
 41 70  1  0  0  0  0
 42 73  1  0  0  0  0
 43 69  1  0  0  0  0
 44 68  1  0  0  0  0
 45 53  1  0  0  0  0
 46 64  1  0  0  0  0
 47 65  1  0  0  0  0
 48 65  1  0  0  0  0
 49 65  1  0  0  0  0
 50 66  1  0  0  0  0
 51 76  1  0  0  0  0
 52 77  1  0  0  0  0
 53 54  1  0  0  0  0
 54 56  1  0  0  0  0
 55 57  1  0  0  0  0
 55 62  1  0  0  0  0
 56 66  1  0  0  0  0
 57 66  1  0  0  0  0
 58 59  1  0  0  0  0
 58 60  1  0  0  0  0
 59 75  1  0  0  0  0
 60 77  1  0  0  0  0
 61 66  1  0  0  0  0
 61 77  1  0  0  0  0
 62 84  1  0  0  0  0
 63 65  1  0  0  0  0
 63 74  1  0  0  0  0
 64 76  1  0  0  0  0
 67 68  1  0  0  0  0
M  CHG  2  76   1  77   1
M  ISO  4  32 100  62 101  75 100  84 101
M  END
> <Batch ID>
0097

> <Smiles>
CCCCC(C)(CC[101CH2:1][101O:1]c1ccc2c(c1)CN(C(=O)C(NC(=O)C(C)NC)C(C)(C)C)C(C(=O)NC1CCCc3ccccc31)C2)CN(C)CCC[100NH:0][100C:0](=O)N1CCCC(n2nc(-c3ccc(Oc4ccc(F)cc4F)cc3)c(C(N)=O)c2N)C1

> <Shape>
0.238

> <Color>
0.077

> <Negative vol penalty>
0.000

$$$$

  -OEChem-04052319263D

 80 88  0     1  0  0  0  0  0999 V2000
  -25.8376  -35.2978   31.0585 C   0  0  0  0  0  0  0  0  0  0  0  0
  -26.4128  -34.0520   30.8294 C   0  0  0  0  0  0  0  0  0  0  0  0
  -26.4908  -13.3702   19.2521 C   0  0  0  0  0  0  0  0  0  0  0  0
  -26.5804  -12.7875   21.5950 C   0  0  0  0  0  0  0  0  0  0  0  0
  -24.6102  -35.6151   30.4781 C   0  0  0  0  0  0  0  0  0  0  0  0
  -25.7603  -33.1223   30.0205 C   0  0  0  0  0  0  0  0  0  0  0  0
  -28.9187  -30.4907   24.1051 C   0  0  0  0  0  0  0  0  0  0  0  0
  -25.1945  -12.8611   19.1750 C   0  0  0  0  0  0  0  0  0  0  0  0
  -25.2840  -12.2784   21.5180 C   0  0  0  0  0  0  0  0  0  0  0  0
  -29.5377  -29.7828   23.0747 C   0  0  0  0  0  0  0  0  0  0  0  0
  -23.7754   -9.4613   20.4140 C   0  0  0  0  0  0  0  0  0  0  0  0
  -23.5267   -8.2280   21.0161 C   0  0  0  0  0  0  0  0  0  0  0  0
  -27.4849  -28.5745   22.6573 C   0  0  0  0  0  0  0  0  0  0  0  0
  -21.8841   -9.2618   22.4551 C   0  0  0  0  0  0  0  0  0  0  0  0
  -27.1838  -13.3334   20.4621 C   0  0  0  0  0  0  0  0  0  0  0  0
  -29.6494  -13.4298   19.8146 C   0  0  0  0  0  0  0  0  0  0  0  0
  -23.9470  -34.6924   29.6539 C   0  0  0  0  0  0  0  0  0  0  0  0
  -27.5745  -30.2539   24.4058 C   0  0  0  0  0  0  0  0  0  0  0  0
  -24.5223  -33.4270   29.4296 C   0  0  0  0  0  0  0  0  0  0  0  0
  -26.8561  -29.2894   23.6802 C   0  0  0  0  0  0  0  0  0  0  0  0
  -24.5911  -12.3152   20.3079 C   0  0  0  0  0  0  0  0  0  0  0  0
  -28.8226  -28.8269   22.3527 C   0  0  0  0  0  0  0  0  0  0  0  0
  -23.0786  -10.5950   20.8325 C   0  0  0  0  0  0  0  0  0  0  0  0
  -22.5810   -8.1282   22.0366 C   0  0  0  0  0  0  0  0  0  0  0  0
  -22.1329  -10.4951   21.8530 C   0  0  0  0  0  0  0  0  0  0  0  0
  -28.5231  -13.8586   20.5422 C   0  0  0  0  0  0  0  0  0  0  0  0
  -30.6689  -14.2404   20.2505 C   0  0  0  0  0  0  0  0  0  0  0  0
  -29.7638  -12.3916   18.8324 C   0  0  0  0  0  0  0  0  0  0  0  0
  -24.6153  -31.1238   26.5417 C   0  0  0  0  0  0  0  0  0  0  0  0
  -23.5695  -30.7422   23.6832 C   0  0  0  0  0  0  0  0  0  0  0  0
  -21.8317  -30.8820   20.7510 C   0  0  0  0  0  0  0  0  0  0  0  0
  -30.7742  -19.7204   22.6609 C   0  0  0  0  0  0  0  0  0  0  0  0
  -22.5996  -35.0630   29.0868 C   0  0  0  0  0  0  0  0  0  0  0  0
  -26.8843  -30.9490   25.5478 C   0  0  0  0  0  0  0  0  0  0  0  0
  -25.4219  -29.0433   24.0615 C   0  0  0  0  0  0  0  0  0  0  0  0
  -22.1526  -34.1608   27.9394 C   0  0  0  0  0  0  0  0  0  0  0  0
  -30.1577  -22.6411   18.6138 C   0  0  0  0  0  0  0  0  0  0  0  0
  -32.0954  -16.7329   24.0772 C   0  0  0  0  0  0  0  0  0  0  0  0
  -22.3714  -32.6942   28.2971 C   0  0  0  0  0  0  0  0  0  0  0  0
  -30.6899  -23.9204   19.2528 C   0  0  0  0  0  0  0  0  0  0  0  0
  -29.5616  -23.7656   21.5671 C   0  0  0  0  0  0  0  0  0  0  0  0
  -31.4313  -15.6188   23.2662 C   0  0  0  0  0  0  0  0  0  0  0  0
  -30.4352  -21.3554   19.3881 C   0  0  0  0  0  0  0  0  0  0  0  0
  -29.1794  -22.2897   21.4318 C   0  0  0  0  0  0  0  0  0  0  0  0
  -31.1459  -17.9067   24.3067 C   0  0  0  0  0  0  0  0  0  0  0  0
  -29.8746  -17.3465   22.2711 C   0  0  0  0  0  0  0  0  0  0  0  0
  -23.8572  -32.4009   28.5380 C   0  0  1  0  0  0  0  0  0  0  0  0
  -25.3991  -31.2408   25.2677 C   0  0  1  0  0  0  0  0  0  0  0  0
  -29.7028  -24.5443   20.2524 C   0  0  1  0  0  0  0  0  0  0  0  0
  -30.8112  -16.1650   21.9661 C   0  0  2  0  0  0  0  0  0  0  0  0
  -30.3331  -21.4266   20.9135 C   0  0  1  0  0  0  0  0  0  0  0  0
  -19.5167  -30.6191   19.8189 C   0  0  0  0  0  0  0  0  0  0  0  0
  -23.8167  -27.7123   23.9336 C   0  0  0  0  0  0  0  0  0  0  0  0
  -22.0244  -27.4939   22.1993 C   0  0  0  0  0  0  0  0  0  0  0  0
  -21.5250  -28.6122   24.3725 C   0  0  0  0  0  0  0  0  0  0  0  0
  -21.7845  -33.6737   19.7697 C   0  0  0  0  0  0  0  0  0  0  0  0
  -30.1297  -25.9841   20.5660 C   0  0  0  0  0  0  0  0  0  0  0  0
  -28.9695  -26.8170   21.0893 C   0  0  0  0  0  0  0  0  0  1  0  0
  -22.9700  -29.7991   22.6710 C   0  0  1  0  0  0  0  0  0  0  0  0
  -20.5437  -31.5925   20.3761 C   0  0  2  0  0  0  0  0  0  0  0  0
  -22.6078  -28.4190   23.2885 C   0  0  0  0  0  0  0  0  0  0  0  0
  -28.8007  -14.8635   21.3772 N   0  0  0  0  0  0  0  0  0  0  0  0
  -30.1130  -15.0728   21.1770 N   0  0  0  0  0  0  0  0  0  0  0  0
  -24.7441  -30.3233   24.3200 N   0  0  0  0  0  0  0  0  0  0  0  0
  -30.5936  -18.3784   23.0346 N   0  0  0  0  0  0  0  0  0  0  0  0
  -31.9776  -14.3151   19.9280 N   0  0  0  0  0  0  0  0  0  0  0  0
  -30.0821  -11.0964   19.2631 N   0  0  0  0  0  0  0  0  0  0  0  0
  -24.5615  -32.2916   27.2785 N   0  0  0  0  0  0  0  0  0  0  0  0
  -21.8389  -30.5033   22.0769 N   0  0  0  0  0  0  0  0  0  0  0  0
  -30.2248  -20.0832   21.4373 N   0  0  0  0  0  0  0  0  0  0  0  0
  -20.8089  -32.6365   19.3462 N   0  3  0  0  0  0  0  0  0  0  0  0
  -29.6050  -12.6095   17.6073 O   0  0  0  0  0  0  0  0  0  0  0  0
  -24.0956  -30.0535   26.8352 O   0  0  0  0  0  0  0  0  0  0  0  0
  -23.0106  -31.8191   23.9093 O   0  0  0  0  0  0  0  0  0  0  0  0
  -22.7391  -30.6795   19.9472 O   0  0  0  0  0  0  0  0  0  0  0  0
  -31.3848  -20.5335   23.3631 O   0  0  0  0  0  0  0  0  0  0  0  0
  -23.3261  -11.8186   20.2331 O   0  0  0  0  0  0  0  0  0  0  0  0
  -29.4317  -28.1426   21.3450 O   0  0  0  0  0  0  0  0  0  1  0  0
  -22.3411   -6.9434   22.6137 F   0  0  0  0  0  0  0  0  0  0  0  0
  -21.4595  -11.5805   22.2584 F   0  0  0  0  0  0  0  0  0  0  0  0
  1  2  1  0  0  0  0
  1  5  2  0  0  0  0
  2  6  2  0  0  0  0
  3  8  2  0  0  0  0
  3 15  1  0  0  0  0
  4  9  1  0  0  0  0
  4 15  2  0  0  0  0
  5 17  1  0  0  0  0
  6 19  1  0  0  0  0
  7 10  2  0  0  0  0
  7 18  1  0  0  0  0
  8 21  1  0  0  0  0
  9 21  2  0  0  0  0
 10 22  1  0  0  0  0
 11 12  2  0  0  0  0
 11 23  1  0  0  0  0
 12 24  1  0  0  0  0
 13 20  1  0  0  0  0
 13 22  2  0  0  0  0
 14 24  2  0  0  0  0
 14 25  1  0  0  0  0
 15 26  1  0  0  0  0
 16 26  1  0  0  0  0
 16 27  2  0  0  0  0
 16 28  1  0  0  0  0
 17 19  2  0  0  0  0
 17 33  1  0  0  0  0
 18 20  2  0  0  0  0
 18 34  1  0  0  0  0
 19 47  1  0  0  0  0
 20 35  1  0  0  0  0
 21 77  1  0  0  0  0
 22 78  1  0  0  0  0
 23 25  2  0  0  0  0
 23 77  1  0  0  0  0
 24 79  1  0  0  0  0
 25 80  1  0  0  0  0
 26 62  2  0  0  0  0
 27 63  1  0  0  0  0
 27 66  1  0  0  0  0
 28 67  1  0  0  0  0
 28 72  2  0  0  0  0
 29 48  1  0  0  0  0
 29 68  1  0  0  0  0
 29 73  2  0  0  0  0
 30 59  1  0  0  0  0
 30 64  1  0  0  0  0
 30 74  2  0  0  0  0
 31 60  1  0  0  0  0
 31 69  1  0  0  0  0
 31 75  2  0  0  0  0
 32 65  1  0  0  0  0
 32 70  1  0  0  0  0
 32 76  2  0  0  0  0
 33 36  1  0  0  0  0
 34 48  1  0  0  0  0
 35 64  1  0  0  0  0
 36 39  1  0  0  0  0
 37 40  1  0  0  0  0
 37 43  1  0  0  0  0
 38 42  1  0  0  0  0
 38 45  1  0  0  0  0
 39 47  1  0  0  0  0
 40 49  1  0  0  0  0
 41 44  1  0  0  0  0
 41 49  1  0  0  0  0
 42 50  1  0  0  0  0
 43 51  1  0  0  0  0
 44 51  1  0  0  0  0
 45 65  1  0  0  0  0
 46 50  1  0  0  0  0
 46 65  1  0  0  0  0
 47 68  1  0  0  0  0
 48 64  1  0  0  0  0
 49 57  1  0  0  0  0
 50 63  1  0  0  0  0
 51 70  1  0  0  0  0
 52 60  1  0  0  0  0
 53 61  1  0  0  0  0
 54 61  1  0  0  0  0
 55 61  1  0  0  0  0
 56 71  1  0  0  0  0
 57 58  1  0  0  0  0
 58 78  1  0  0  0  0
 59 61  1  0  0  0  0
 59 69  1  0  0  0  0
 60 71  1  0  0  0  0
 62 63  1  0  0  0  0
M  CHG  1  71   1
M  ISO  4  32 100  58 101  70 100  78 101
M  END
> <Batch ID>
0097

> <Smiles>
CNC(C)C(=O)NC(C(=O)N1Cc2cc([101O:1][101CH2:1]CC3CCCC([100NH:0][100C:0](=O)N4CCCC(n5nc(-c6ccc(Oc7ccc(F)cc7F)cc6)c(C(N)=O)c5N)C4)CC3)ccc2CC1C(=O)NC1CCCc2ccccc21)C(C)(C)C

> <Shape>
0.284

> <Color>
0.062

> <Negative vol penalty>
0.000

$$$$

  -OEChem-04052319263D

 89 97  0     1  0  0  0  0  0999 V2000
  -22.8010  -17.5745   22.0204 C   0  0  0  0  0  0  0  0  0  0  0  0
  -23.6802  -18.5213   22.5361 C   0  0  0  0  0  0  0  0  0  0  0  0
  -26.5329  -14.3817   21.0972 C   0  0  0  0  0  0  0  0  0  0  0  0
  -26.5011  -14.9616   18.7521 C   0  0  0  0  0  0  0  0  0  0  0  0
  -21.9296  -17.9228   20.9892 C   0  0  0  0  0  0  0  0  0  0  0  0
  -23.6894  -19.8167   22.0201 C   0  0  0  0  0  0  0  0  0  0  0  0
  -23.8500  -23.3503   25.6440 C   0  0  0  0  0  0  0  0  0  0  0  0
  -25.5772  -13.3924   20.8655 C   0  0  0  0  0  0  0  0  0  0  0  0
  -25.5455  -13.9723   18.5204 C   0  0  0  0  0  0  0  0  0  0  0  0
  -25.0845  -23.5892   26.2461 C   0  0  0  0  0  0  0  0  0  0  0  0
  -22.2329  -13.2189   20.4078 C   0  0  0  0  0  0  0  0  0  0  0  0
  -21.1640  -13.1299   21.2996 C   0  0  0  0  0  0  0  0  0  0  0  0
  -25.3818  -25.5345   24.8509 C   0  0  0  0  0  0  0  0  0  0  0  0
  -27.9885  -27.4877   19.5052 C   0  0  0  0  0  0  0  0  0  0  0  0
  -21.8096  -10.8671   21.8474 C   0  0  0  0  0  0  0  0  0  0  0  0
  -29.1058  -28.1870   21.3308 C   0  0  0  0  0  0  0  0  0  0  0  0
  -26.9948  -15.1663   20.0405 C   0  0  0  0  0  0  0  0  0  0  0  0
  -29.3813  -16.0485   20.2254 C   0  0  0  0  0  0  0  0  0  0  0  0
  -21.9214  -19.2257   20.4669 C   0  0  0  0  0  0  0  0  0  0  0  0
  -23.3762  -24.1970   24.6314 C   0  0  0  0  0  0  0  0  0  0  0  0
  -22.8181  -20.1823   20.9800 C   0  0  0  0  0  0  0  0  0  0  0  0
  -24.1398  -25.3057   24.2393 C   0  0  0  0  0  0  0  0  0  0  0  0
  -28.1325  -28.5534   20.4276 C   0  0  0  0  0  0  0  0  0  0  0  0
  -25.0836  -13.1877   19.5771 C   0  0  0  0  0  0  0  0  0  0  0  0
  -25.8520  -24.6797   25.8476 C   0  0  0  0  0  0  0  0  0  0  0  0
  -23.0901  -12.1320   20.2358 C   0  0  0  0  0  0  0  0  0  0  0  0
  -20.9524  -11.9540   22.0194 C   0  0  0  0  0  0  0  0  0  0  0  0
  -22.8785  -10.9561   20.9556 C   0  0  0  0  0  0  0  0  0  0  0  0
  -27.9815  -16.1888   20.2793 C   0  0  0  0  0  0  0  0  0  0  0  0
  -28.8781  -26.5024   19.8730 C   0  0  0  0  0  0  0  0  0  0  0  0
  -29.8635  -17.2987   20.5272 C   0  0  0  0  0  0  0  0  0  0  0  0
  -30.1746  -14.8916   19.9291 C   0  0  0  0  0  0  0  0  0  0  0  0
  -22.6289  -23.8259   21.5642 C   0  0  0  0  0  0  0  0  0  0  0  0
  -21.6213  -26.8968   21.8406 C   0  0  0  0  0  0  0  0  0  0  0  0
  -21.8362  -29.8797   23.4847 C   0  0  0  0  0  0  0  0  0  0  0  0
  -28.6375  -22.7748   19.5677 C   0  0  0  0  0  0  0  0  0  0  0  0
  -20.9943  -19.5423   19.3202 C   0  0  0  0  0  0  0  0  0  0  0  0
  -22.0303  -23.9409   24.0105 C   0  0  0  0  0  0  0  0  0  0  0  0
  -23.6670  -26.2564   23.1710 C   0  0  0  0  0  0  0  0  0  0  0  0
  -20.8064  -21.0387   19.0840 C   0  0  0  0  0  0  0  0  0  0  0  0
  -28.0303  -21.2843   22.8091 C   0  0  0  0  0  0  0  0  0  0  0  0
  -22.1531  -21.7550   19.1011 C   0  0  0  0  0  0  0  0  0  0  0  0
  -28.0940  -19.7929   22.4749 C   0  0  0  0  0  0  0  0  0  0  0  0
  -27.3660  -22.0748   21.6857 C   0  0  0  0  0  0  0  0  0  0  0  0
  -28.0632  -20.4052   20.0123 C   0  0  0  0  0  0  0  0  0  0  0  0
  -22.8407  -21.6046   20.4635 C   0  0  1  0  0  0  0  0  0  0  0  0
  -21.8790  -24.5732   22.6304 C   0  0  1  0  0  0  0  0  0  0  0  0
  -28.7446  -19.5542   21.0994 C   0  0  2  0  0  0  0  0  0  0  0  0
  -29.0068  -31.1209   18.9268 C   0  0  0  0  0  0  0  0  0  0  0  0
  -26.5099  -29.9864   21.6942 C   0  0  0  0  0  0  0  0  0  0  0  0
  -20.9179  -32.2150   23.4570 C   0  0  0  0  0  0  0  0  0  0  0  0
  -30.0862  -22.8770   27.4101 C   0  0  0  0  0  0  0  0  0  0  0  0
  -23.3890  -27.5609   19.4439 C   0  0  0  0  0  0  0  0  0  0  0  0
  -23.1834  -29.9811   20.0513 C   0  0  0  0  0  0  0  0  0  0  0  0
  -21.1504  -28.6759   19.4299 C   0  0  0  0  0  0  0  0  0  0  0  0
  -20.6955  -29.5876   26.2000 C   0  0  0  0  0  0  0  0  0  0  0  0
  -29.1408  -25.1848   19.2582 C   0  0  0  0  0  0  0  0  0  0  0  0
  -28.2598  -31.0995   20.2548 C   0  0  0  0  0  0  0  0  0  0  0  0
  -30.2309  -25.9927   23.1714 C   0  0  0  0  0  0  0  0  0  0  0  0
  -31.3333  -25.2285   23.9047 C   0  0  0  0  0  0  0  0  0  0  0  0
  -30.5871  -26.2007   21.7002 C   0  0  0  0  0  0  0  0  0  0  0  0
  -30.9909  -25.0547   25.3769 C   0  0  0  0  0  0  0  0  0  0  0  0
  -27.7798  -23.7805   26.9110 C   0  0  0  0  0  0  0  0  0  1  0  0
  -27.3798  -29.8222   20.4226 C   0  0  1  0  0  0  0  0  0  0  0  0
  -22.2612  -28.2523   21.6612 C   0  0  1  0  0  0  0  0  0  0  0  0
  -20.7664  -30.8120   24.0240 C   0  0  2  0  0  0  0  0  0  0  0  0
  -29.2786  -24.0589   26.8985 C   0  0  2  0  0  0  0  0  0  0  0  0
  -22.5061  -28.5987   20.1654 C   0  0  0  0  0  0  0  0  0  0  0  0
  -27.5993  -17.4301   20.5909 N   0  0  0  0  0  0  0  0  0  0  0  0
  -29.5516  -26.9383   20.9841 N   0  0  0  0  0  0  0  0  0  0  0  0
  -28.7660  -18.0812   20.7356 N   0  0  0  0  0  0  0  0  0  0  0  0
  -22.3473  -25.9600   22.5896 N   0  0  0  0  0  0  0  0  0  0  0  0
  -28.0442  -21.8176   20.4074 N   0  0  0  0  0  0  0  0  0  0  0  0
  -31.1150  -17.7939   20.6320 N   0  0  0  0  0  0  0  0  0  0  0  0
  -29.5182  -13.6873   19.6409 N   0  0  0  0  0  0  0  0  0  0  0  0
  -22.2488  -22.5042   21.4304 N   0  0  0  0  0  0  0  0  0  0  0  0
  -21.4060  -29.2036   22.3627 N   0  0  0  0  0  0  0  0  0  0  0  0
  -28.5701  -24.0900   20.0110 N   0  0  0  0  0  0  0  0  0  0  0  0
  -20.8516  -30.8938   25.5096 N   0  3  0  0  0  0  0  0  0  0  0  0
  -29.6972  -24.3349   25.4937 N   0  3  0  0  0  0  0  0  0  0  0  0
  -31.4287  -14.9209   19.9362 O   0  0  0  0  0  0  0  0  0  0  0  0
  -23.4878  -24.4060   20.9103 O   0  0  0  0  0  0  0  0  0  0  0  0
  -20.5146  -26.6797   21.3409 O   0  0  0  0  0  0  0  0  0  0  0  0
  -22.9441  -29.7657   24.0045 O   0  0  0  0  0  0  0  0  0  0  0  0
  -29.1914  -22.4787   18.5034 O   0  0  0  0  0  0  0  0  0  0  0  0
  -24.1512  -12.2223   19.3506 O   0  0  0  0  0  0  0  0  0  0  0  0
  -27.0576  -24.9148   26.4332 O   0  0  0  0  0  0  0  0  0  1  0  0
  -19.9269  -11.8691   22.8768 F   0  0  0  0  0  0  0  0  0  0  0  0
  -23.6993   -9.9090   20.7954 F   0  0  0  0  0  0  0  0  0  0  0  0
  1  2  1  0  0  0  0
  1  5  2  0  0  0  0
  2  6  2  0  0  0  0
  3  8  2  0  0  0  0
  3 17  1  0  0  0  0
  4  9  1  0  0  0  0
  4 17  2  0  0  0  0
  5 19  1  0  0  0  0
  6 21  1  0  0  0  0
  7 10  2  0  0  0  0
  7 20  1  0  0  0  0
  8 24  1  0  0  0  0
  9 24  2  0  0  0  0
 10 25  1  0  0  0  0
 11 12  2  0  0  0  0
 11 26  1  0  0  0  0
 12 27  1  0  0  0  0
 13 22  1  0  0  0  0
 13 25  2  0  0  0  0
 14 23  1  0  0  0  0
 14 30  2  0  0  0  0
 15 27  2  0  0  0  0
 15 28  1  0  0  0  0
 16 23  2  0  0  0  0
 16 70  1  0  0  0  0
 17 29  1  0  0  0  0
 18 29  1  0  0  0  0
 18 31  2  0  0  0  0
 18 32  1  0  0  0  0
 19 21  2  0  0  0  0
 19 37  1  0  0  0  0
 20 22  2  0  0  0  0
 20 38  1  0  0  0  0
 21 46  1  0  0  0  0
 22 39  1  0  0  0  0
 23 64  1  0  0  0  0
 24 86  1  0  0  0  0
 25 87  1  0  0  0  0
 26 28  2  0  0  0  0
 26 86  1  0  0  0  0
 27 88  1  0  0  0  0
 28 89  1  0  0  0  0
 29 69  2  0  0  0  0
 30 57  1  0  0  0  0
 30 70  1  0  0  0  0
 31 71  1  0  0  0  0
 31 74  1  0  0  0  0
 32 75  1  0  0  0  0
 32 81  2  0  0  0  0
 33 47  1  0  0  0  0
 33 76  1  0  0  0  0
 33 82  2  0  0  0  0
 34 65  1  0  0  0  0
 34 72  1  0  0  0  0
 34 83  2  0  0  0  0
 35 66  1  0  0  0  0
 35 77  1  0  0  0  0
 35 84  2  0  0  0  0
 36 73  1  0  0  0  0
 36 78  1  0  0  0  0
 36 85  2  0  0  0  0
 37 40  1  0  0  0  0
 38 47  1  0  0  0  0
 39 72  1  0  0  0  0
 40 42  1  0  0  0  0
 41 43  1  0  0  0  0
 41 44  1  0  0  0  0
 42 46  1  0  0  0  0
 43 48  1  0  0  0  0
 44 73  1  0  0  0  0
 45 48  1  0  0  0  0
 45 73  1  0  0  0  0
 46 76  1  0  0  0  0
 47 72  1  0  0  0  0
 48 71  1  0  0  0  0
 49 58  1  0  0  0  0
 50 64  1  0  0  0  0
 51 66  1  0  0  0  0
 52 67  1  0  0  0  0
 53 68  1  0  0  0  0
 54 68  1  0  0  0  0
 55 68  1  0  0  0  0
 56 79  1  0  0  0  0
 57 78  1  0  0  0  0
 58 64  1  0  0  0  0
 59 60  1  0  0  0  0
 59 61  1  0  0  0  0
 60 62  1  0  0  0  0
 61 70  1  0  0  0  0
 62 80  1  0  0  0  0
 63 67  1  0  0  0  0
 63 87  1  0  0  0  0
 65 68  1  0  0  0  0
 65 77  1  0  0  0  0
 66 79  1  0  0  0  0
 67 80  1  0  0  0  0
 69 71  1  0  0  0  0
M  CHG  2  79   1  80   1
M  ISO  4  36 100  63 101  78 100  87 101
M  END
> <Batch ID>
0097

> <Smiles>
CCC(C)c1cc(C[100NH:0][100C:0](=O)N2CCCC(n3nc(-c4ccc(Oc5ccc(F)cc5F)cc4)c(C(N)=O)c3N)C2)n(CCCCNC(C)[101CH2:1][101O:1]c2ccc3c(c2)CN(C(=O)C(NC(=O)C(C)NC)C(C)(C)C)C(C(=O)NC2CCCc4ccccc42)C3)c1

> <Shape>
0.217

> <Color>
0.055

> <Negative vol penalty>
0.000

$$$$

  -OEChem-04052319263D

 87 95  0     1  0  0  0  0  0999 V2000
  -29.8102  -20.8786   24.3235 C   0  0  0  0  0  0  0  0  0  0  0  0
  -30.1510  -21.9402   23.4915 C   0  0  0  0  0  0  0  0  0  0  0  0
  -24.2026  -13.2949   21.1635 C   0  0  0  0  0  0  0  0  0  0  0  0
  -26.2635  -12.8166   19.9969 C   0  0  0  0  0  0  0  0  0  0  0  0
  -28.4719  -20.6374   24.6311 C   0  0  0  0  0  0  0  0  0  0  0  0
  -29.1536  -22.7605   22.9656 C   0  0  0  0  0  0  0  0  0  0  0  0
  -30.3167  -27.6792   23.2809 C   0  0  0  0  0  0  0  0  0  0  0  0
  -23.7003  -12.0493   20.7869 C   0  0  0  0  0  0  0  0  0  0  0  0
  -25.7612  -11.5709   19.6203 C   0  0  0  0  0  0  0  0  0  0  0  0
  -31.2157  -28.1823   22.3415 C   0  0  0  0  0  0  0  0  0  0  0  0
  -24.0326   -8.8300   21.7660 C   0  0  0  0  0  0  0  0  0  0  0  0
  -23.3860   -8.0701   22.7407 C   0  0  0  0  0  0  0  0  0  0  0  0
  -29.3736  -29.0789   21.0678 C   0  0  0  0  0  0  0  0  0  0  0  0
  -33.0310  -25.8047   18.2233 C   0  0  0  0  0  0  0  0  0  0  0  0
  -21.3670   -8.0861   21.4139 C   0  0  0  0  0  0  0  0  0  0  0  0
  -30.9055  -26.0609   17.5257 C   0  0  0  0  0  0  0  0  0  0  0  0
  -25.4841  -13.6786   20.7684 C   0  0  0  0  0  0  0  0  0  0  0  0
  -26.7335  -15.2715   22.3205 C   0  0  0  0  0  0  0  0  0  0  0  0
  -27.4582  -21.4610   24.1165 C   0  0  0  0  0  0  0  0  0  0  0  0
  -28.9364  -27.8630   23.1148 C   0  0  0  0  0  0  0  0  0  0  0  0
  -27.8003  -22.5293   23.2655 C   0  0  0  0  0  0  0  0  0  0  0  0
  -28.4594  -28.5793   22.0078 C   0  0  0  0  0  0  0  0  0  0  0  0
  -32.0659  -26.7510   17.7986 C   0  0  0  0  0  0  0  0  0  0  0  0
  -24.4796  -11.1873   20.0154 C   0  0  0  0  0  0  0  0  0  0  0  0
  -30.7441  -28.8798   21.2333 C   0  0  0  0  0  0  0  0  0  0  0  0
  -23.3464   -9.2179   20.6152 C   0  0  0  0  0  0  0  0  0  0  0  0
  -22.0533   -7.6981   22.5647 C   0  0  0  0  0  0  0  0  0  0  0  0
  -22.0136   -8.8459   20.4392 C   0  0  0  0  0  0  0  0  0  0  0  0
  -26.0033  -14.9654   21.1565 C   0  0  0  0  0  0  0  0  0  0  0  0
  -32.4309  -24.5651   18.1969 C   0  0  0  0  0  0  0  0  0  0  0  0
  -26.9903  -16.6171   22.2208 C   0  0  0  0  0  0  0  0  0  0  0  0
  -27.1431  -14.4161   23.3958 C   0  0  0  0  0  0  0  0  0  0  0  0
  -26.4451  -25.9256   22.7354 C   0  0  0  0  0  0  0  0  0  0  0  0
  -24.7583  -28.6867   22.9662 C   0  0  0  0  0  0  0  0  0  0  0  0
  -24.7005  -32.0829   22.6353 C   0  0  0  0  0  0  0  0  0  0  0  0
  -28.6633  -20.9372   19.3079 C   0  0  0  0  0  0  0  0  0  0  0  0
  -26.0220  -21.1323   24.4390 C   0  0  0  0  0  0  0  0  0  0  0  0
  -27.9813  -27.3371   24.1510 C   0  0  0  0  0  0  0  0  0  0  0  0
  -26.9883  -28.8213   21.7940 C   0  0  0  0  0  0  0  0  0  0  0  0
  -25.0543  -22.2751   24.1427 C   0  0  0  0  0  0  0  0  0  0  0  0
  -25.1540  -20.0946   19.0385 C   0  0  0  0  0  0  0  0  0  0  0  0
  -25.3344  -22.8683   22.7656 C   0  0  0  0  0  0  0  0  0  0  0  0
  -25.1269  -18.7003   19.6672 C   0  0  0  0  0  0  0  0  0  0  0  0
  -26.4242  -20.3075   18.2204 C   0  0  0  0  0  0  0  0  0  0  0  0
  -27.6638  -18.6888   19.6050 C   0  0  0  0  0  0  0  0  0  0  0  0
  -26.7488  -23.4564   22.6955 C   0  0  1  0  0  0  0  0  0  0  0  0
  -26.5673  -27.1384   23.6140 C   0  0  1  0  0  0  0  0  0  0  0  0
  -26.4148  -18.4197   20.4639 C   0  0  2  0  0  0  0  0  0  0  0  0
  -35.0670  -22.3433   15.3470 C   0  0  0  0  0  0  0  0  0  0  0  0
  -32.6904  -28.6124   16.2381 C   0  0  0  0  0  0  0  0  0  0  0  0
  -33.3822  -23.1490   20.0350 C   0  0  0  0  0  0  0  0  0  0  0  0
  -23.1688  -34.0581   22.8583 C   0  0  0  0  0  0  0  0  0  0  0  0
  -23.4177  -27.9418   20.3284 C   0  0  0  0  0  0  0  0  0  0  0  0
  -22.6483  -30.3159   20.1293 C   0  0  0  0  0  0  0  0  0  0  0  0
  -21.8782  -28.9135   22.0431 C   0  0  0  0  0  0  0  0  0  0  0  0
  -26.3894  -33.3022   24.7376 C   0  0  0  0  0  0  0  0  0  0  0  0
  -33.8546  -22.7329   16.1791 C   0  0  0  0  0  0  0  0  0  0  0  0
  -34.1976  -22.7934   17.6713 C   0  0  0  0  0  0  0  0  0  0  0  0
  -33.2872  -28.8115   18.6818 C   0  0  0  0  0  0  0  0  0  0  0  0
  -30.1593  -23.6824   17.6016 C   0  0  0  0  0  0  0  0  0  0  0  0
  -29.5401  -23.2259   18.9200 C   0  0  0  0  0  0  0  0  0  0  0  0
  -32.8400  -28.6552   20.1322 C   0  0  0  0  0  0  0  0  0  1  0  0
  -32.2715  -28.2503   17.6680 C   0  0  2  0  0  0  0  0  0  0  0  0
  -32.9812  -23.2379   18.5418 C   0  0  2  0  0  0  0  0  0  0  0  0
  -24.2713  -29.7271   21.9867 C   0  0  1  0  0  0  0  0  0  0  0  0
  -24.1918  -33.1763   23.5573 C   0  0  2  0  0  0  0  0  0  0  0  0
  -23.0815  -29.2185   21.1246 C   0  0  0  0  0  0  0  0  0  0  0  0
  -25.8086  -16.0308   20.3748 N   0  0  0  0  0  0  0  0  0  0  0  0
  -31.1391  -24.7329   17.7711 N   0  0  0  0  0  0  0  0  0  0  0  0
  -26.4202  -17.0195   21.0489 N   0  0  0  0  0  0  0  0  0  0  0  0
  -26.0939  -28.2820   22.8316 N   0  0  0  0  0  0  0  0  0  0  0  0
  -27.6137  -20.0422   19.0419 N   0  0  0  0  0  0  0  0  0  0  0  0
  -27.6458  -17.4835   23.0221 N   0  0  0  0  0  0  0  0  0  0  0  0
  -26.7956  -13.0595   23.3397 N   0  0  0  0  0  0  0  0  0  0  0  0
  -26.7948  -24.7425   23.3577 N   0  0  0  0  0  0  0  0  0  0  0  0
  -23.9731  -30.9196   22.7725 N   0  0  0  0  0  0  0  0  0  0  0  0
  -28.5427  -22.1959   18.7318 N   0  0  0  0  0  0  0  0  0  0  0  0
  -25.3203  -34.0363   24.0130 N   0  3  0  0  0  0  0  0  0  0  0  0
  -27.7836  -14.8454   24.3852 O   0  0  0  0  0  0  0  0  0  0  0  0
  -26.0606  -26.0537   21.5789 O   0  0  0  0  0  0  0  0  0  0  0  0
  -23.9842  -28.2544   23.8239 O   0  0  0  0  0  0  0  0  0  0  0  0
  -25.6461  -32.2457   21.8673 O   0  0  0  0  0  0  0  0  0  0  0  0
  -29.6341  -20.6385   20.0118 O   0  0  0  0  0  0  0  0  0  0  0  0
  -23.9900   -9.9716   19.6480 O   0  0  0  0  0  0  0  0  0  0  0  0
  -31.6193  -29.3714   20.3146 O   0  0  0  0  0  0  0  0  0  1  0  0
  -21.4329   -6.9672   23.5001 F   0  0  0  0  0  0  0  0  0  0  0  0
  -21.3495   -9.2147   19.3351 F   0  0  0  0  0  0  0  0  0  0  0  0
  1  2  1  0  0  0  0
  1  5  2  0  0  0  0
  2  6  2  0  0  0  0
  3  8  2  0  0  0  0
  3 17  1  0  0  0  0
  4  9  1  0  0  0  0
  4 17  2  0  0  0  0
  5 19  1  0  0  0  0
  6 21  1  0  0  0  0
  7 10  2  0  0  0  0
  7 20  1  0  0  0  0
  8 24  1  0  0  0  0
  9 24  2  0  0  0  0
 10 25  1  0  0  0  0
 11 12  2  0  0  0  0
 11 26  1  0  0  0  0
 12 27  1  0  0  0  0
 13 22  1  0  0  0  0
 13 25  2  0  0  0  0
 14 23  1  0  0  0  0
 14 30  2  0  0  0  0
 15 27  2  0  0  0  0
 15 28  1  0  0  0  0
 16 23  2  0  0  0  0
 16 69  1  0  0  0  0
 17 29  1  0  0  0  0
 18 29  1  0  0  0  0
 18 31  2  0  0  0  0
 18 32  1  0  0  0  0
 19 21  2  0  0  0  0
 19 37  1  0  0  0  0
 20 22  2  0  0  0  0
 20 38  1  0  0  0  0
 21 46  1  0  0  0  0
 22 39  1  0  0  0  0
 23 63  1  0  0  0  0
 24 84  1  0  0  0  0
 25 85  1  0  0  0  0
 26 28  2  0  0  0  0
 26 84  1  0  0  0  0
 27 86  1  0  0  0  0
 28 87  1  0  0  0  0
 29 68  2  0  0  0  0
 30 64  1  0  0  0  0
 30 69  1  0  0  0  0
 31 70  1  0  0  0  0
 31 73  1  0  0  0  0
 32 74  1  0  0  0  0
 32 79  2  0  0  0  0
 33 47  1  0  0  0  0
 33 75  1  0  0  0  0
 33 80  2  0  0  0  0
 34 65  1  0  0  0  0
 34 71  1  0  0  0  0
 34 81  2  0  0  0  0
 35 66  1  0  0  0  0
 35 76  1  0  0  0  0
 35 82  2  0  0  0  0
 36 72  1  0  0  0  0
 36 77  1  0  0  0  0
 36 83  2  0  0  0  0
 37 40  1  0  0  0  0
 38 47  1  0  0  0  0
 39 71  1  0  0  0  0
 40 42  1  0  0  0  0
 41 43  1  0  0  0  0
 41 44  1  0  0  0  0
 42 46  1  0  0  0  0
 43 48  1  0  0  0  0
 44 72  1  0  0  0  0
 45 48  1  0  0  0  0
 45 72  1  0  0  0  0
 46 75  1  0  0  0  0
 47 71  1  0  0  0  0
 48 70  1  0  0  0  0
 49 57  1  0  0  0  0
 50 63  1  0  0  0  0
 51 64  1  0  0  0  0
 52 66  1  0  0  0  0
 53 67  1  0  0  0  0
 54 67  1  0  0  0  0
 55 67  1  0  0  0  0
 56 78  1  0  0  0  0
 57 58  1  0  0  0  0
 58 64  1  0  0  0  0
 59 62  1  0  0  0  0
 59 63  1  0  0  0  0
 60 61  1  0  0  0  0
 60 69  1  0  0  0  0
 61 77  1  0  0  0  0
 62 85  1  0  0  0  0
 65 67  1  0  0  0  0
 65 76  1  0  0  0  0
 66 78  1  0  0  0  0
 68 70  1  0  0  0  0
M  CHG  1  78   1
M  ISO  4  36 100  62 101  77 100  85 101
M  END
> <Batch ID>
0097

> <Smiles>
CCCC(C)c1cc(C(C)C[101CH2:1][101O:1]c2ccc3c(c2)CN(C(=O)C(NC(=O)C(C)NC)C(C)(C)C)C(C(=O)NC2CCCc4ccccc42)C3)cn1CC[100NH:0][100C:0](=O)N1CCCC(n2nc(-c3ccc(Oc4ccc(F)cc4F)cc3)c(C(N)=O)c2N)C1

> <Shape>
0.218

> <Color>
0.071

> <Negative vol penalty>
0.000

$$$$

  -OEChem-04052319263D

 90 98  0     1  0  0  0  0  0999 V2000
  -16.3358  -26.6075   25.1522 C   0  0  0  0  0  0  0  0  0  0  0  0
  -17.6569  -26.2350   24.9254 C   0  0  0  0  0  0  0  0  0  0  0  0
  -28.2659  -15.9761   18.7797 C   0  0  0  0  0  0  0  0  0  0  0  0
  -28.5464  -16.1947   21.1693 C   0  0  0  0  0  0  0  0  0  0  0  0
  -15.8844  -27.8593   24.7360 C   0  0  0  0  0  0  0  0  0  0  0  0
  -18.5271  -27.1138   24.2814 C   0  0  0  0  0  0  0  0  0  0  0  0
  -23.0465  -27.3836   26.5502 C   0  0  0  0  0  0  0  0  0  0  0  0
  -29.2070  -16.9855   18.5768 C   0  0  0  0  0  0  0  0  0  0  0  0
  -29.4876  -17.2041   20.9665 C   0  0  0  0  0  0  0  0  0  0  0  0
  -23.9397  -26.3390   26.3163 C   0  0  0  0  0  0  0  0  0  0  0  0
  -31.6984  -20.0863   21.0880 C   0  0  0  0  0  0  0  0  0  0  0  0
  -31.6019  -21.2312   21.8789 C   0  0  0  0  0  0  0  0  0  0  0  0
  -25.0898  -27.6954   24.6864 C   0  0  0  0  0  0  0  0  0  0  0  0
  -29.3872  -21.6465   21.0074 C   0  0  0  0  0  0  0  0  0  0  0  0
  -23.7263  -21.1405   25.3406 C   0  0  0  0  0  0  0  0  0  0  0  0
  -27.9356  -15.5808   20.0759 C   0  0  0  0  0  0  0  0  0  0  0  0
  -27.2069  -13.1555   20.3842 C   0  0  0  0  0  0  0  0  0  0  0  0
  -16.7522  -28.7577   24.0951 C   0  0  0  0  0  0  0  0  0  0  0  0
  -23.1618  -28.5901   25.8448 C   0  0  0  0  0  0  0  0  0  0  0  0
  -18.0866  -28.3783   23.8550 C   0  0  0  0  0  0  0  0  0  0  0  0
  -24.1984  -28.7547   24.9150 C   0  0  0  0  0  0  0  0  0  0  0  0
  -29.8178  -17.5994   19.6702 C   0  0  0  0  0  0  0  0  0  0  0  0
  -24.9598  -26.4938   25.3822 C   0  0  0  0  0  0  0  0  0  0  0  0
  -30.6393  -19.7216   20.2567 C   0  0  0  0  0  0  0  0  0  0  0  0
  -30.4463  -22.0113   21.8387 C   0  0  0  0  0  0  0  0  0  0  0  0
  -29.4837  -20.5017   20.2164 C   0  0  0  0  0  0  0  0  0  0  0  0
  -26.9631  -14.5386   20.2861 C   0  0  0  0  0  0  0  0  0  0  0  0
  -23.5597  -19.8603   25.7882 C   0  0  0  0  0  0  0  0  0  0  0  0
  -25.9658  -12.6012   20.5815 C   0  0  0  0  0  0  0  0  0  0  0  0
  -25.1092  -19.8352   24.2074 C   0  0  0  0  0  0  0  0  0  0  0  0
  -28.4446  -12.4362   20.3042 C   0  0  0  0  0  0  0  0  0  0  0  0
  -21.3057  -30.1919   23.8217 C   0  0  0  0  0  0  0  0  0  0  0  0
  -23.6246  -32.4446   24.0878 C   0  0  0  0  0  0  0  0  0  0  0  0
  -26.8783  -33.1823   24.8057 C   0  0  0  0  0  0  0  0  0  0  0  0
  -20.8581  -14.7435   22.8557 C   0  0  0  0  0  0  0  0  0  0  0  0
  -16.2062  -30.0813   23.6211 C   0  0  0  0  0  0  0  0  0  0  0  0
  -22.2065  -29.7169   26.1280 C   0  0  0  0  0  0  0  0  0  0  0  0
  -24.3777  -30.0373   24.1461 C   0  0  0  0  0  0  0  0  0  0  0  0
  -17.2903  -31.1005   23.2804 C   0  0  0  0  0  0  0  0  0  0  0  0
  -21.3382  -13.3416   19.6183 C   0  0  0  0  0  0  0  0  0  0  0  0
  -18.3788  -30.4571   22.4271 C   0  0  0  0  0  0  0  0  0  0  0  0
  -22.8562  -13.3646   19.4312 C   0  0  0  0  0  0  0  0  0  0  0  0
  -20.8454  -14.5670   20.3848 C   0  0  0  0  0  0  0  0  0  0  0  0
  -23.0327  -14.8216   21.4914 C   0  0  0  0  0  0  0  0  0  0  0  0
  -19.0675  -29.3135   23.1817 C   0  0  1  0  0  0  0  0  0  0  0  0
  -22.1052  -30.7170   24.9804 C   0  0  1  0  0  0  0  0  0  0  0  0
  -23.5833  -13.5782   20.7725 C   0  0  2  0  0  0  0  0  0  0  0  0
  -24.5277  -18.8779   21.3226 C   0  0  0  0  0  0  0  0  0  0  0  0
  -27.3612  -18.7516   23.9948 C   0  0  0  0  0  0  0  0  0  0  0  0
  -28.4880  -35.1053   24.8985 C   0  0  0  0  0  0  0  0  0  0  0  0
  -28.1004  -23.7431   25.7799 C   0  0  0  0  0  0  0  0  0  0  0  0
  -23.8145  -32.4293   21.0425 C   0  0  0  0  0  0  0  0  0  0  0  0
  -26.0154  -33.6056   21.2435 C   0  0  0  0  0  0  0  0  0  0  0  0
  -23.9371  -34.6997   22.0840 C   0  0  0  0  0  0  0  0  0  0  0  0
  -27.3568  -32.7931   27.7003 C   0  0  0  0  0  0  0  0  0  0  0  0
  -22.6759  -19.3008   26.8141 C   0  0  0  0  0  0  0  0  0  0  0  0
  -25.6193  -18.3102   22.2216 C   0  0  0  0  0  0  0  0  0  0  0  0
  -26.5828  -22.7766   24.0335 C   0  0  0  0  0  0  0  0  0  0  0  0
  -20.6903  -16.3388   25.7642 C   0  0  0  0  0  0  0  0  0  0  0  0
  -25.1976  -22.2868   23.5891 C   0  0  0  0  0  0  0  0  0  0  0  0
  -21.0340  -14.9186   25.3250 C   0  0  0  0  0  0  0  0  0  0  0  0
  -21.9224  -17.2423   25.8366 C   0  0  0  0  0  0  0  0  0  0  0  0
  -25.6448  -24.2764   25.9020 C   0  0  0  0  0  0  0  0  0  1  0  0
  -26.1404  -19.3486   23.2573 C   0  0  1  0  0  0  0  0  0  0  0  0
  -24.9115  -32.7454   23.3583 C   0  0  1  0  0  0  0  0  0  0  0  0
  -27.4981  -34.2566   25.6811 C   0  0  2  0  0  0  0  0  0  0  0  0
  -26.6845  -23.2179   25.5103 C   0  0  2  0  0  0  0  0  0  0  0  0
  -24.6654  -33.3450   21.9450 C   0  0  0  0  0  0  0  0  0  0  0  0
  -25.6688  -14.8440   20.4106 N   0  0  0  0  0  0  0  0  0  0  0  0
  -24.6912  -21.0955   24.3633 N   0  0  0  0  0  0  0  0  0  0  0  0
  -25.0882  -13.6452   20.5889 N   0  0  0  0  0  0  0  0  0  0  0  0
  -24.4275  -19.0739   25.0695 N   0  3  0  0  0  0  0  0  0  0  0  0
  -23.4146  -31.1075   24.4537 N   0  0  0  0  0  0  0  0  0  0  0  0
  -21.5738  -14.7116   21.6475 N   0  0  0  0  0  0  0  0  0  0  0  0
  -25.5505  -11.3275   20.7474 N   0  0  0  0  0  0  0  0  0  0  0  0
  -29.6265  -13.1610   20.0984 N   0  0  0  0  0  0  0  0  0  0  0  0
  -20.0096  -29.8395   24.1462 N   0  0  0  0  0  0  0  0  0  0  0  0
  -25.6917  -33.6032   24.2437 N   0  0  0  0  0  0  0  0  0  0  0  0
  -21.6256  -14.8766   24.0063 N   0  0  0  0  0  0  0  0  0  0  0  0
  -21.5405  -18.5834   26.2646 N   0  0  0  0  0  0  0  0  0  0  0  0
  -28.2161  -33.6373   26.8309 N   0  3  0  0  0  0  0  0  0  0  0  0
  -28.4989  -11.1864   20.3957 O   0  0  0  0  0  0  0  0  0  0  0  0
  -21.8258  -30.1137   22.7149 O   0  0  0  0  0  0  0  0  0  0  0  0
  -22.8380  -33.3633   24.3305 O   0  0  0  0  0  0  0  0  0  0  0  0
  -27.3970  -32.0813   24.6344 O   0  0  0  0  0  0  0  0  0  0  0  0
  -19.6266  -14.6543   22.9057 O   0  0  0  0  0  0  0  0  0  0  0  0
  -30.7364  -18.5842   19.4727 O   0  0  0  0  0  0  0  0  0  0  0  0
  -25.8327  -25.4755   25.1515 O   0  0  0  0  0  0  0  0  0  1  0  0
  -30.3532  -23.1098   22.5994 F   0  0  0  0  0  0  0  0  0  0  0  0
  -28.4625  -20.1557   19.4207 F   0  0  0  0  0  0  0  0  0  0  0  0
  1  2  1  0  0  0  0
  1  5  2  0  0  0  0
  2  6  2  0  0  0  0
  3  8  2  0  0  0  0
  3 16  1  0  0  0  0
  4  9  1  0  0  0  0
  4 16  2  0  0  0  0
  5 18  1  0  0  0  0
  6 20  1  0  0  0  0
  7 10  2  0  0  0  0
  7 19  1  0  0  0  0
  8 22  1  0  0  0  0
  9 22  2  0  0  0  0
 10 23  1  0  0  0  0
 11 12  2  0  0  0  0
 11 24  1  0  0  0  0
 12 25  1  0  0  0  0
 13 21  1  0  0  0  0
 13 23  2  0  0  0  0
 14 25  2  0  0  0  0
 14 26  1  0  0  0  0
 15 28  2  0  0  0  0
 15 70  1  0  0  0  0
 16 27  1  0  0  0  0
 17 27  1  0  0  0  0
 17 29  2  0  0  0  0
 17 31  1  0  0  0  0
 18 20  2  0  0  0  0
 18 36  1  0  0  0  0
 19 21  2  0  0  0  0
 19 37  1  0  0  0  0
 20 45  1  0  0  0  0
 21 38  1  0  0  0  0
 22 87  1  0  0  0  0
 23 88  1  0  0  0  0
 24 26  2  0  0  0  0
 24 87  1  0  0  0  0
 25 89  1  0  0  0  0
 26 90  1  0  0  0  0
 27 69  2  0  0  0  0
 28 56  1  0  0  0  0
 28 72  1  0  0  0  0
 29 71  1  0  0  0  0
 29 75  1  0  0  0  0
 30 64  1  0  0  0  0
 30 70  1  0  0  0  0
 30 72  2  0  0  0  0
 31 76  1  0  0  0  0
 31 82  2  0  0  0  0
 32 46  1  0  0  0  0
 32 77  1  0  0  0  0
 32 83  2  0  0  0  0
 33 65  1  0  0  0  0
 33 73  1  0  0  0  0
 33 84  2  0  0  0  0
 34 66  1  0  0  0  0
 34 78  1  0  0  0  0
 34 85  2  0  0  0  0
 35 74  1  0  0  0  0
 35 79  1  0  0  0  0
 35 86  2  0  0  0  0
 36 39  1  0  0  0  0
 37 46  1  0  0  0  0
 38 73  1  0  0  0  0
 39 41  1  0  0  0  0
 40 42  1  0  0  0  0
 40 43  1  0  0  0  0
 41 45  1  0  0  0  0
 42 47  1  0  0  0  0
 43 74  1  0  0  0  0
 44 47  1  0  0  0  0
 44 74  1  0  0  0  0
 45 77  1  0  0  0  0
 46 73  1  0  0  0  0
 47 71  1  0  0  0  0
 48 57  1  0  0  0  0
 49 64  1  0  0  0  0
 50 66  1  0  0  0  0
 51 67  1  0  0  0  0
 52 68  1  0  0  0  0
 53 68  1  0  0  0  0
 54 68  1  0  0  0  0
 55 81  1  0  0  0  0
 56 80  1  0  0  0  0
 57 64  1  0  0  0  0
 58 60  1  0  0  0  0
 58 67  1  0  0  0  0
 59 61  1  0  0  0  0
 59 62  1  0  0  0  0
 60 70  1  0  0  0  0
 61 79  1  0  0  0  0
 62 80  1  0  0  0  0
 63 67  1  0  0  0  0
 63 88  1  0  0  0  0
 65 68  1  0  0  0  0
 65 78  1  0  0  0  0
 66 81  1  0  0  0  0
 69 71  1  0  0  0  0
M  CHG  2  72   1  81   1
M  ISO  4  35 100  63 101  79 100  88 101
M  END
> <Batch ID>
0097

> <Smiles>
CCC(C)c1nc(CNCCC[100NH:0][100C:0](=O)N2CCCC(n3nc(-c4ccc(Oc5ccc(F)cc5F)cc4)c(C(N)=O)c3N)C2)cn1CCC(C)[101CH2:1][101O:1]c1ccc2c(c1)CN(C(=O)C(NC(=O)C(C)NC)C(C)(C)C)C(C(=O)NC1CCCc3ccccc31)C2

> <Shape>
0.210

> <Color>
0.069

> <Negative vol penalty>
0.000

$$$$

  -OEChem-04052319263D

 88 96  0     1  0  0  0  0  0999 V2000
  -27.5405  -34.5145   24.6174 C   0  0  0  0  0  0  0  0  0  0  0  0
  -27.8009  -33.2202   24.1788 C   0  0  0  0  0  0  0  0  0  0  0  0
  -24.2397  -10.4550   23.1472 C   0  0  0  0  0  0  0  0  0  0  0  0
  -22.3338  -11.5429   22.1366 C   0  0  0  0  0  0  0  0  0  0  0  0
  -26.2580  -34.8613   25.0402 C   0  0  0  0  0  0  0  0  0  0  0  0
  -26.7790  -32.2715   24.1639 C   0  0  0  0  0  0  0  0  0  0  0  0
  -26.6999  -29.5685   19.8823 C   0  0  0  0  0  0  0  0  0  0  0  0
  -23.3923   -9.8014   24.0417 C   0  0  0  0  0  0  0  0  0  0  0  0
  -21.4864  -10.8892   23.0312 C   0  0  0  0  0  0  0  0  0  0  0  0
  -27.6403  -28.5469   19.7567 C   0  0  0  0  0  0  0  0  0  0  0  0
  -21.6972   -7.5695   26.3570 C   0  0  0  0  0  0  0  0  0  0  0  0
  -21.9120   -6.2091   26.5777 C   0  0  0  0  0  0  0  0  0  0  0  0
  -25.9582  -26.9310   20.3722 C   0  0  0  0  0  0  0  0  0  0  0  0
  -21.5339   -5.7689   24.2324 C   0  0  0  0  0  0  0  0  0  0  0  0
  -30.3872  -24.3479   17.1945 C   0  0  0  0  0  0  0  0  0  0  0  0
  -23.7105  -11.3258   22.1946 C   0  0  0  0  0  0  0  0  0  0  0  0
  -24.9979  -11.5477   20.0035 C   0  0  0  0  0  0  0  0  0  0  0  0
  -25.2176  -33.9190   25.0214 C   0  0  0  0  0  0  0  0  0  0  0  0
  -25.3821  -29.2797   20.2650 C   0  0  0  0  0  0  0  0  0  0  0  0
  -25.4817  -32.6056   24.5882 C   0  0  0  0  0  0  0  0  0  0  0  0
  -25.0024  -27.9505   20.4994 C   0  0  0  0  0  0  0  0  0  0  0  0
  -22.0157  -10.0185   23.9838 C   0  0  0  0  0  0  0  0  0  0  0  0
  -27.2703  -27.2283   20.0045 C   0  0  0  0  0  0  0  0  0  0  0  0
  -21.4007   -8.0296   25.0740 C   0  0  0  0  0  0  0  0  0  0  0  0
  -21.8304   -5.3088   25.5154 C   0  0  0  0  0  0  0  0  0  0  0  0
  -21.3191   -7.1294   24.0117 C   0  0  0  0  0  0  0  0  0  0  0  0
  -24.5854  -12.0017   21.2706 C   0  0  0  0  0  0  0  0  0  0  0  0
  -29.9383  -24.3311   18.4966 C   0  0  0  0  0  0  0  0  0  0  0  0
  -29.1202  -22.5008   16.7338 C   0  0  0  0  0  0  0  0  0  0  0  0
  -28.6718  -22.4835   18.0362 C   0  0  0  0  0  0  0  0  0  0  0  0
  -25.8162  -12.5446   19.5312 C   0  0  0  0  0  0  0  0  0  0  0  0
  -24.6705  -10.3335   19.3148 C   0  0  0  0  0  0  0  0  0  0  0  0
  -23.5358  -30.0752   22.7271 C   0  0  0  0  0  0  0  0  0  0  0  0
  -26.0152  -18.3442   20.7964 C   0  0  0  0  0  0  0  0  0  0  0  0
  -21.2566  -28.5239   21.0180 C   0  0  0  0  0  0  0  0  0  0  0  0
  -20.5011  -26.1942   18.6414 C   0  0  0  0  0  0  0  0  0  0  0  0
  -23.8588  -34.3276   25.5326 C   0  0  0  0  0  0  0  0  0  0  0  0
  -24.3728  -30.3901   20.3699 C   0  0  0  0  0  0  0  0  0  0  0  0
  -23.5952  -27.5854   20.8931 C   0  0  0  0  0  0  0  0  0  0  0  0
  -22.7429  -33.3659   25.1323 C   0  0  0  0  0  0  0  0  0  0  0  0
  -28.7766  -15.9877   21.0162 C   0  0  0  0  0  0  0  0  0  0  0  0
  -23.1683  -31.9220   25.3797 C   0  0  0  0  0  0  0  0  0  0  0  0
  -28.0376  -14.6502   21.0187 C   0  0  0  0  0  0  0  0  0  0  0  0
  -27.9901  -17.0650   21.7583 C   0  0  0  0  0  0  0  0  0  0  0  0
  -25.8572  -15.9172   21.2504 C   0  0  0  0  0  0  0  0  0  0  0  0
  -24.3936  -31.5552   24.5339 C   0  0  1  0  0  0  0  0  0  0  0  0
  -23.1889  -30.0386   21.2656 C   0  0  1  0  0  0  0  0  0  0  0  0
  -26.6033  -14.8112   20.4854 C   0  0  2  0  0  0  0  0  0  0  0  0
  -27.6189  -22.0332   14.7809 C   0  0  0  0  0  0  0  0  0  0  0  0
  -18.5495  -25.1196   17.4864 C   0  0  0  0  0  0  0  0  0  0  0  0
  -23.3477  -22.2007   19.6739 C   0  0  0  0  0  0  0  0  0  0  0  0
  -23.4644  -23.1942   21.9676 C   0  0  0  0  0  0  0  0  0  0  0  0
  -20.7149  -26.8408   23.5047 C   0  0  0  0  0  0  0  0  0  0  0  0
  -19.4872  -25.2137   22.0508 C   0  0  0  0  0  0  0  0  0  0  0  0
  -18.6655  -27.5593   22.2646 C   0  0  0  0  0  0  0  0  0  0  0  0
  -21.3803  -27.1756   15.9913 C   0  0  0  0  0  0  0  0  0  0  0  0
  -30.4086  -25.3730   19.4824 C   0  0  0  0  0  0  0  0  0  0  0  0
  -28.6690  -21.4828   15.7428 C   0  0  0  0  0  0  0  0  0  0  0  0
  -27.7146  -21.4459   18.5148 C   0  0  0  0  0  0  0  0  0  0  0  0
  -26.8483  -19.5995   20.8600 C   0  0  0  0  0  0  0  0  0  0  0  0
  -25.1493  -21.4451   21.3198 C   0  0  0  0  0  0  0  0  0  0  0  0
  -29.5086  -26.6038   19.4987 C   0  0  0  0  0  0  0  0  0  1  0  0
  -20.7667  -27.0983   20.9362 C   0  0  1  0  0  0  0  0  0  0  0  0
  -19.5726  -26.2439   17.4414 C   0  0  2  0  0  0  0  0  0  0  0  0
  -24.2836  -22.6166   20.8091 C   0  0  0  0  0  0  0  0  0  0  0  0
  -26.0777  -20.7885   20.2831 C   0  0  1  0  0  0  0  0  0  0  0  0
  -19.9357  -26.6848   22.1835 C   0  0  0  0  0  0  0  0  0  0  0  0
  -29.9862  -23.4330   16.2896 N   0  0  0  0  0  0  0  0  0  0  0  0
  -25.0994  -13.1941   21.5836 N   0  0  0  0  0  0  0  0  0  0  0  0
  -29.0725  -23.3986   18.9409 N   0  0  0  0  0  0  0  0  0  0  0  0
  -25.8434  -13.4978   20.5064 N   0  0  0  0  0  0  0  0  0  0  0  0
  -22.6464  -28.7070   20.9887 N   0  0  0  0  0  0  0  0  0  0  0  0
  -26.6210  -17.1681   21.2392 N   0  0  0  0  0  0  0  0  0  0  0  0
  -26.5081  -12.6900   18.3812 N   0  0  0  0  0  0  0  0  0  0  0  0
  -23.8155   -9.4183   19.9439 N   0  0  0  0  0  0  0  0  0  0  0  0
  -24.0040  -31.2998   23.1638 N   0  0  0  0  0  0  0  0  0  0  0  0
  -20.0448  -26.9866   19.6734 N   0  0  0  0  0  0  0  0  0  0  0  0
  -20.3524  -26.1193   16.1775 N   0  3  0  0  0  0  0  0  0  0  0  0
  -27.0775  -21.7844   19.8178 N   0  3  0  0  0  0  0  0  0  0  0  0
  -25.1358  -10.0605   18.1824 O   0  0  0  0  0  0  0  0  0  0  0  0
  -23.3882  -29.0675   23.4085 O   0  0  0  0  0  0  0  0  0  0  0  0
  -24.8617  -18.4085   20.3633 O   0  0  0  0  0  0  0  0  0  0  0  0
  -20.4362  -29.4417   21.0975 O   0  0  0  0  0  0  0  0  0  0  0  0
  -21.5266  -25.5170   18.6625 O   0  0  0  0  0  0  0  0  0  0  0  0
  -21.1885   -9.3807   24.8564 O   0  0  0  0  0  0  0  0  0  0  0  0
  -28.1864  -26.2293   19.8833 O   0  0  0  0  0  0  0  0  0  1  0  0
  -22.0382   -4.0026   25.7272 F   0  0  0  0  0  0  0  0  0  0  0  0
  -21.0357   -7.5657   22.7767 F   0  0  0  0  0  0  0  0  0  0  0  0
  1  2  1  0  0  0  0
  1  5  2  0  0  0  0
  2  6  2  0  0  0  0
  3  8  2  0  0  0  0
  3 16  1  0  0  0  0
  4  9  1  0  0  0  0
  4 16  2  0  0  0  0
  5 18  1  0  0  0  0
  6 20  1  0  0  0  0
  7 10  2  0  0  0  0
  7 19  1  0  0  0  0
  8 22  1  0  0  0  0
  9 22  2  0  0  0  0
 10 23  1  0  0  0  0
 11 12  2  0  0  0  0
 11 24  1  0  0  0  0
 12 25  1  0  0  0  0
 13 21  1  0  0  0  0
 13 23  2  0  0  0  0
 14 25  2  0  0  0  0
 14 26  1  0  0  0  0
 15 28  1  0  0  0  0
 15 68  2  0  0  0  0
 16 27  1  0  0  0  0
 17 27  1  0  0  0  0
 17 31  2  0  0  0  0
 17 32  1  0  0  0  0
 18 20  2  0  0  0  0
 18 37  1  0  0  0  0
 19 21  2  0  0  0  0
 19 38  1  0  0  0  0
 20 46  1  0  0  0  0
 21 39  1  0  0  0  0
 22 85  1  0  0  0  0
 23 86  1  0  0  0  0
 24 26  2  0  0  0  0
 24 85  1  0  0  0  0
 25 87  1  0  0  0  0
 26 88  1  0  0  0  0
 27 69  2  0  0  0  0
 28 57  1  0  0  0  0
 28 70  2  0  0  0  0
 29 30  2  0  0  0  0
 29 58  1  0  0  0  0
 29 68  1  0  0  0  0
 30 59  1  0  0  0  0
 30 70  1  0  0  0  0
 31 71  1  0  0  0  0
 31 74  1  0  0  0  0
 32 75  1  0  0  0  0
 32 80  2  0  0  0  0
 33 47  1  0  0  0  0
 33 76  1  0  0  0  0
 33 81  2  0  0  0  0
 34 60  1  0  0  0  0
 34 73  1  0  0  0  0
 34 82  2  0  0  0  0
 35 63  1  0  0  0  0
 35 72  1  0  0  0  0
 35 83  2  0  0  0  0
 36 64  1  0  0  0  0
 36 77  1  0  0  0  0
 36 84  2  0  0  0  0
 37 40  1  0  0  0  0
 38 47  1  0  0  0  0
 39 72  1  0  0  0  0
 40 42  1  0  0  0  0
 41 43  1  0  0  0  0
 41 44  1  0  0  0  0
 42 46  1  0  0  0  0
 43 48  1  0  0  0  0
 44 73  1  0  0  0  0
 45 48  1  0  0  0  0
 45 73  1  0  0  0  0
 46 76  1  0  0  0  0
 47 72  1  0  0  0  0
 48 71  1  0  0  0  0
 49 58  1  0  0  0  0
 50 64  1  0  0  0  0
 51 65  1  0  0  0  0
 52 65  1  0  0  0  0
 53 67  1  0  0  0  0
 54 67  1  0  0  0  0
 55 67  1  0  0  0  0
 56 78  1  0  0  0  0
 57 62  1  0  0  0  0
 59 79  1  0  0  0  0
 60 66  1  0  0  0  0
 61 65  1  0  0  0  0
 61 66  1  0  0  0  0
 62 86  1  0  0  0  0
 63 67  1  0  0  0  0
 63 77  1  0  0  0  0
 64 78  1  0  0  0  0
 66 79  1  0  0  0  0
 69 71  1  0  0  0  0
M  CHG  2  78   1  79   1
M  ISO  4  34 100  60 100  62 101  86 101
M  END
> <Batch ID>
0097

> <Smiles>
CCc1ncc(C[101CH2:1][101O:1]c2ccc3c(c2)CN(C(=O)C(NC(=O)C(C)NC)C(C)(C)C)C(C(=O)NC2CCCc4ccccc42)C3)nc1CNC(CC(C)C)[100CH2:0][100C:0](=O)N1CCCC(n2nc(-c3ccc(Oc4ccc(F)cc4F)cc3)c(C(N)=O)c2N)C1

> <Shape>
0.294

> <Color>
0.085

> <Negative vol penalty>
0.000

$$$$

  -OEChem-04052319263D

 83 91  0     1  0  0  0  0  0999 V2000
  -21.7033  -11.7679   20.8309 C   0  0  0  0  0  0  0  0  0  0  0  0
  -21.7168  -13.0261   21.4242 C   0  0  0  0  0  0  0  0  0  0  0  0
  -25.0061  -28.2498   19.1511 C   0  0  0  0  0  0  0  0  0  0  0  0
  -25.8594  -27.6564   21.3321 C   0  0  0  0  0  0  0  0  0  0  0  0
  -22.8933  -11.1984   20.3797 C   0  0  0  0  0  0  0  0  0  0  0  0
  -22.9205  -13.7153   21.5675 C   0  0  0  0  0  0  0  0  0  0  0  0
  -22.5344  -18.5923   20.2596 C   0  0  0  0  0  0  0  0  0  0  0  0
  -26.1879  -28.9377   18.8759 C   0  0  0  0  0  0  0  0  0  0  0  0
  -27.0412  -28.3442   21.0569 C   0  0  0  0  0  0  0  0  0  0  0  0
  -21.9400  -19.4535   21.1810 C   0  0  0  0  0  0  0  0  0  0  0  0
  -30.4277  -29.6398   20.7897 C   0  0  0  0  0  0  0  0  0  0  0  0
  -31.6324  -29.0175   21.1170 C   0  0  0  0  0  0  0  0  0  0  0  0
  -24.1239  -20.1978   21.8851 C   0  0  0  0  0  0  0  0  0  0  0  0
  -31.0902  -27.1883   19.6347 C   0  0  0  0  0  0  0  0  0  0  0  0
  -19.4416  -22.1608   24.0551 C   0  0  0  0  0  0  0  0  0  0  0  0
  -19.7080  -22.3250   26.2316 C   0  0  0  0  0  0  0  0  0  0  0  0
  -24.8418  -27.6092   20.3792 C   0  0  0  0  0  0  0  0  0  0  0  0
  -23.3454  -25.5433   20.4034 C   0  0  0  0  0  0  0  0  0  0  0  0
  -24.1108  -11.8851   20.5088 C   0  0  0  0  0  0  0  0  0  0  0  0
  -23.9306  -18.5194   20.1515 C   0  0  0  0  0  0  0  0  0  0  0  0
  -24.1280  -13.1540   21.1187 C   0  0  0  0  0  0  0  0  0  0  0  0
  -24.7335  -19.3368   20.9598 C   0  0  0  0  0  0  0  0  0  0  0  0
  -20.1682  -21.6321   25.1387 C   0  0  0  0  0  0  0  0  0  0  0  0
  -27.2055  -28.9849   19.8287 C   0  0  0  0  0  0  0  0  0  0  0  0
  -22.7348  -20.2543   21.9959 C   0  0  0  0  0  0  0  0  0  0  0  0
  -29.5542  -29.0363   19.8850 C   0  0  0  0  0  0  0  0  0  0  0  0
  -31.9637  -27.7918   20.5395 C   0  0  0  0  0  0  0  0  0  0  0  0
  -29.8855  -27.8106   19.3074 C   0  0  0  0  0  0  0  0  0  0  0  0
  -23.6210  -26.8990   20.6643 C   0  0  0  0  0  0  0  0  0  0  0  0
  -22.0618  -25.3605   20.8568 C   0  0  0  0  0  0  0  0  0  0  0  0
  -24.1755  -24.5391   19.8049 C   0  0  0  0  0  0  0  0  0  0  0  0
  -26.0975  -16.2342   20.5834 C   0  0  0  0  0  0  0  0  0  0  0  0
  -28.1285  -18.4804   19.4207 C   0  0  0  0  0  0  0  0  0  0  0  0
  -28.8047  -21.7853   18.9038 C   0  0  0  0  0  0  0  0  0  0  0  0
  -18.5349  -27.0898   25.1093 C   0  0  0  0  0  0  0  0  0  0  0  0
  -25.3780  -11.2089   20.0487 C   0  0  0  0  0  0  0  0  0  0  0  0
  -24.5557  -17.6048   19.1341 C   0  0  0  0  0  0  0  0  0  0  0  0
  -26.2366  -19.3108   20.8687 C   0  0  0  0  0  0  0  0  0  0  0  0
  -26.5587  -12.1647   19.8989 C   0  0  0  0  0  0  0  0  0  0  0  0
  -18.2382  -28.3513   21.7931 C   0  0  0  0  0  0  0  0  0  0  0  0
  -26.6657  -13.0760   21.1175 C   0  0  0  0  0  0  0  0  0  0  0  0
  -19.5704  -27.9794   21.1397 C   0  0  0  0  0  0  0  0  0  0  0  0
  -18.4168  -28.7343   23.2606 C   0  0  0  0  0  0  0  0  0  0  0  0
  -20.4565  -27.3610   23.4269 C   0  0  0  0  0  0  0  0  0  0  0  0
  -25.4103  -13.9434   21.2696 C   0  0  1  0  0  0  0  0  0  0  0  0
  -25.9979  -17.2362   19.4682 C   0  0  1  0  0  0  0  0  0  0  0  0
  -20.3197  -26.9134   21.9616 C   0  0  2  0  0  0  0  0  0  0  0  0
  -23.6893  -21.9675   26.2302 C   0  0  0  0  0  0  0  0  0  0  0  0
  -20.6149  -19.1943   24.6806 C   0  0  0  0  0  0  0  0  0  0  0  0
  -30.0256  -23.8074   18.0565 C   0  0  0  0  0  0  0  0  0  0  0  0
  -29.8391  -18.0416   21.9089 C   0  0  0  0  0  0  0  0  0  0  0  0
  -31.0090  -20.1957   21.3994 C   0  0  0  0  0  0  0  0  0  0  0  0
  -31.1339  -18.2983   19.7848 C   0  0  0  0  0  0  0  0  0  0  0  0
  -27.3279  -21.7459   16.3394 C   0  0  0  0  0  0  0  0  0  0  0  0
  -23.2129  -22.1407   24.7928 C   0  0  0  0  0  0  0  0  0  0  0  0
  -18.0032  -24.1368   26.5320 C   0  0  0  0  0  0  0  0  0  0  0  0
  -18.7945  -25.3896   26.8985 C   0  0  0  0  0  0  0  0  0  0  0  0
  -21.2245  -20.5369   25.1091 C   0  0  1  0  0  0  0  0  0  0  0  0
  -28.9677  -19.5792   20.0268 C   0  0  1  0  0  0  0  0  0  0  0  0
  -29.2859  -22.5347   17.6745 C   0  0  2  0  0  0  0  0  0  0  0  0
  -22.4806  -20.8955   24.2719 C   0  0  1  0  0  0  0  0  0  1  0  0
  -30.2092  -19.0280   20.7833 C   0  0  0  0  0  0  0  0  0  0  0  0
  -18.5847  -23.1159   24.4260 N   0  0  0  0  0  0  0  0  0  0  0  0
  -22.5949  -27.5325   21.2386 N   0  0  0  0  0  0  0  0  0  0  0  0
  -18.7699  -23.1927   25.7548 N   0  0  0  0  0  0  0  0  0  0  0  0
  -21.6621  -26.5707   21.3423 N   0  0  0  0  0  0  0  0  0  0  0  0
  -26.8007  -18.3956   19.8629 N   0  0  0  0  0  0  0  0  0  0  0  0
  -19.1328  -27.6809   23.9841 N   0  0  0  0  0  0  0  0  0  0  0  0
  -21.2474  -24.2842   20.8833 N   0  0  0  0  0  0  0  0  0  0  0  0
  -25.4675  -24.8968   19.3960 N   0  0  0  0  0  0  0  0  0  0  0  0
  -25.4403  -15.0450   20.3315 N   0  0  0  0  0  0  0  0  0  0  0  0
  -29.2896  -20.4950   18.9376 N   0  0  0  0  0  0  0  0  0  0  0  0
  -19.2784  -26.0952   25.7328 N   0  0  0  0  0  0  0  0  0  0  0  0
  -28.1311  -22.9044   16.8081 N   0  3  0  0  0  0  0  0  0  0  0  0
  -23.7773  -23.3636   19.6228 O   0  0  0  0  0  0  0  0  0  0  0  0
  -26.7253  -16.5183   21.5967 O   0  0  0  0  0  0  0  0  0  0  0  0
  -28.6305  -17.7297   18.5804 O   0  0  0  0  0  0  0  0  0  0  0  0
  -28.0750  -22.2949   19.7513 O   0  0  0  0  0  0  0  0  0  0  0  0
  -17.4187  -27.4200   25.5242 O   0  0  0  0  0  0  0  0  0  0  0  0
  -28.3590  -29.6558   19.5604 O   0  0  0  0  0  0  0  0  0  0  0  0
  -22.1572  -21.0952   22.8965 O   0  0  0  0  0  0  0  0  0  1  0  0
  -33.1212  -27.1951   20.8527 F   0  0  0  0  0  0  0  0  0  0  0  0
  -29.0509  -27.2266   18.4367 F   0  0  0  0  0  0  0  0  0  0  0  0
  1  2  1  0  0  0  0
  1  5  2  0  0  0  0
  2  6  2  0  0  0  0
  3  8  2  0  0  0  0
  3 17  1  0  0  0  0
  4  9  1  0  0  0  0
  4 17  2  0  0  0  0
  5 19  1  0  0  0  0
  6 21  1  0  0  0  0
  7 10  2  0  0  0  0
  7 20  1  0  0  0  0
  8 24  1  0  0  0  0
  9 24  2  0  0  0  0
 10 25  1  0  0  0  0
 11 12  2  0  0  0  0
 11 26  1  0  0  0  0
 12 27  1  0  0  0  0
 13 22  1  0  0  0  0
 13 25  2  0  0  0  0
 14 27  2  0  0  0  0
 14 28  1  0  0  0  0
 15 23  1  0  0  0  0
 15 63  2  0  0  0  0
 16 23  2  0  0  0  0
 16 65  1  0  0  0  0
 17 29  1  0  0  0  0
 18 29  1  0  0  0  0
 18 30  2  0  0  0  0
 18 31  1  0  0  0  0
 19 21  2  0  0  0  0
 19 36  1  0  0  0  0
 20 22  2  0  0  0  0
 20 37  1  0  0  0  0
 21 45  1  0  0  0  0
 22 38  1  0  0  0  0
 23 58  1  0  0  0  0
 24 80  1  0  0  0  0
 25 81  1  0  0  0  0
 26 28  2  0  0  0  0
 26 80  1  0  0  0  0
 27 82  1  0  0  0  0
 28 83  1  0  0  0  0
 29 64  2  0  0  0  0
 30 66  1  0  0  0  0
 30 69  1  0  0  0  0
 31 70  1  0  0  0  0
 31 75  2  0  0  0  0
 32 46  1  0  0  0  0
 32 71  1  0  0  0  0
 32 76  2  0  0  0  0
 33 59  1  0  0  0  0
 33 67  1  0  0  0  0
 33 77  2  0  0  0  0
 34 60  1  0  0  0  0
 34 72  1  0  0  0  0
 34 78  2  0  0  0  0
 35 68  1  0  0  0  0
 35 73  1  0  0  0  0
 35 79  2  0  0  0  0
 36 39  1  0  0  0  0
 37 46  1  0  0  0  0
 38 67  1  0  0  0  0
 39 41  1  0  0  0  0
 40 42  1  0  0  0  0
 40 43  1  0  0  0  0
 41 45  1  0  0  0  0
 42 47  1  0  0  0  0
 43 68  1  0  0  0  0
 44 47  1  0  0  0  0
 44 68  1  0  0  0  0
 45 71  1  0  0  0  0
 46 67  1  0  0  0  0
 47 66  1  0  0  0  0
 48 55  1  0  0  0  0
 49 58  1  0  0  0  0
 50 60  1  0  0  0  0
 51 62  1  0  0  0  0
 52 62  1  0  0  0  0
 53 62  1  0  0  0  0
 54 74  1  0  0  0  0
 55 61  1  0  0  0  0
 56 57  1  0  0  0  0
 56 65  1  0  0  0  0
 57 73  1  0  0  0  0
 58 61  1  0  0  0  0
 59 62  1  0  0  0  0
 59 72  1  0  0  0  0
 60 74  1  0  0  0  0
 61 81  1  0  0  0  0
 63 65  1  0  0  0  0
 64 66  1  0  0  0  0
M  CHG  1  74   1
M  ISO  4  35 100  61 101  73 100  81 101
M  END
> <Batch ID>
0097

> <Smiles>
CC[101CH:1](C(C)c1cnn(CC[100NH:0][100C:0](=O)N2CCCC(n3nc(-c4ccc(Oc5ccc(F)cc5F)cc4)c(C(N)=O)c3N)C2)c1)[101O:1]c1ccc2c(c1)CN(C(=O)C(NC(=O)C(C)NC)C(C)(C)C)C(C(=O)NC1CCCc3ccccc31)C2

> <Shape>
0.208

> <Color>
0.077

> <Negative vol penalty>
0.000

$$$$

  -OEChem-04052319263D

 86 94  0     1  0  0  0  0  0999 V2000
  -17.5184  -24.7935   23.0289 C   0  0  0  0  0  0  0  0  0  0  0  0
  -18.8540  -24.4543   22.8377 C   0  0  0  0  0  0  0  0  0  0  0  0
  -23.0703   -9.8827   19.9178 C   0  0  0  0  0  0  0  0  0  0  0  0
  -23.7433   -9.9589   22.2369 C   0  0  0  0  0  0  0  0  0  0  0  0
  -17.1624  -26.1241   23.2451 C   0  0  0  0  0  0  0  0  0  0  0  0
  -19.8343  -25.4458   22.8616 C   0  0  0  0  0  0  0  0  0  0  0  0
  -23.8915  -24.1012   25.5775 C   0  0  0  0  0  0  0  0  0  0  0  0
  -22.2956   -8.7527   20.1797 C   0  0  0  0  0  0  0  0  0  0  0  0
  -22.9686   -8.8289   22.4988 C   0  0  0  0  0  0  0  0  0  0  0  0
  -24.7987  -23.2288   24.9777 C   0  0  0  0  0  0  0  0  0  0  0  0
  -19.7054   -8.1108   23.0051 C   0  0  0  0  0  0  0  0  0  0  0  0
  -18.9043   -8.1265   24.1468 C   0  0  0  0  0  0  0  0  0  0  0  0
  -26.2325  -25.0946   24.4464 C   0  0  0  0  0  0  0  0  0  0  0  0
  -28.7977  -18.3426   22.3312 C   0  0  0  0  0  0  0  0  0  0  0  0
  -20.0798   -6.1952   24.9983 C   0  0  0  0  0  0  0  0  0  0  0  0
  -23.7942  -10.4858   20.9464 C   0  0  0  0  0  0  0  0  0  0  0  0
  -24.1885  -12.9985   20.7504 C   0  0  0  0  0  0  0  0  0  0  0  0
  -18.1398  -27.1310   23.2813 C   0  0  0  0  0  0  0  0  0  0  0  0
  -24.1433  -25.4804   25.6067 C   0  0  0  0  0  0  0  0  0  0  0  0
  -19.4909  -26.7912   23.0772 C   0  0  0  0  0  0  0  0  0  0  0  0
  -25.3281  -25.9821   25.0495 C   0  0  0  0  0  0  0  0  0  0  0  0
  -28.3740  -19.1396   23.4232 C   0  0  0  0  0  0  0  0  0  0  0  0
  -22.2447   -8.2258   21.4702 C   0  0  0  0  0  0  0  0  0  0  0  0
  -25.9680  -23.7258   24.4095 C   0  0  0  0  0  0  0  0  0  0  0  0
  -20.6937   -7.1371   22.8599 C   0  0  0  0  0  0  0  0  0  0  0  0
  -19.0915   -7.1688   25.1434 C   0  0  0  0  0  0  0  0  0  0  0  0
  -20.8809   -6.1794   23.8565 C   0  0  0  0  0  0  0  0  0  0  0  0
  -24.5951  -11.6527   20.6764 C   0  0  0  0  0  0  0  0  0  0  0  0
  -29.9915  -17.7559   22.6890 C   0  0  0  0  0  0  0  0  0  0  0  0
  -29.3218  -19.0157   24.4150 C   0  0  0  0  0  0  0  0  0  0  0  0
  -25.3077  -13.7148   20.4029 C   0  0  0  0  0  0  0  0  0  0  0  0
  -22.9133  -13.5515   21.1018 C   0  0  0  0  0  0  0  0  0  0  0  0
  -22.6889  -28.0514   24.4326 C   0  0  0  0  0  0  0  0  0  0  0  0
  -24.9539  -29.6302   26.1355 C   0  0  0  0  0  0  0  0  0  0  0  0
  -28.0415  -29.5861   27.5886 C   0  0  0  0  0  0  0  0  0  0  0  0
  -30.7989  -14.6425   20.7651 C   0  0  0  0  0  0  0  0  0  0  0  0
  -17.7016  -28.5616   23.4712 C   0  0  0  0  0  0  0  0  0  0  0  0
  -23.1674  -26.4052   26.2811 C   0  0  0  0  0  0  0  0  0  0  0  0
  -25.6550  -27.4522   25.0725 C   0  0  0  0  0  0  0  0  0  0  0  0
  -18.8413  -29.5019   23.8549 C   0  0  0  0  0  0  0  0  0  0  0  0
  -29.7066  -12.1940   18.4223 C   0  0  0  0  0  0  0  0  0  0  0  0
  -20.0538  -29.2641   22.9604 C   0  0  0  0  0  0  0  0  0  0  0  0
  -28.2486  -11.9417   18.8099 C   0  0  0  0  0  0  0  0  0  0  0  0
  -30.5820  -12.4417   19.6489 C   0  0  0  0  0  0  0  0  0  0  0  0
  -28.6437  -13.2559   20.9349 C   0  0  0  0  0  0  0  0  0  0  0  0
  -20.5858  -27.8349   23.1208 C   0  0  1  0  0  0  0  0  0  0  0  0
  -23.2805  -27.8481   25.7988 C   0  0  1  0  0  0  0  0  0  0  0  0
  -27.7114  -13.0563   19.7277 C   0  0  2  0  0  0  0  0  0  0  0  0
  -29.3795  -19.6284   25.7594 C   0  0  0  0  0  0  0  0  0  0  0  0
  -32.8800  -19.7205   23.7968 C   0  0  0  0  0  0  0  0  0  0  0  0
  -25.8586  -19.0834   23.3909 C   0  0  0  0  0  0  0  0  0  0  0  0
  -29.6343  -31.0374   28.8747 C   0  0  0  0  0  0  0  0  0  0  0  0
  -31.4798  -16.2753   24.9846 C   0  0  0  0  0  0  0  0  0  0  0  0
  -25.6720  -31.1135   23.5675 C   0  0  0  0  0  0  0  0  0  0  0  0
  -27.8187  -31.8090   24.6521 C   0  0  0  0  0  0  0  0  0  0  0  0
  -25.6396  -32.5396   25.6217 C   0  0  0  0  0  0  0  0  0  0  0  0
  -28.0026  -27.7630   29.9196 C   0  0  0  0  0  0  0  0  0  0  0  0
  -30.8593  -16.8347   21.9268 C   0  0  0  0  0  0  0  0  0  0  0  0
  -32.7960  -18.2166   24.0252 C   0  0  0  0  0  0  0  0  0  0  0  0
  -27.1222  -21.0715   22.3987 C   0  0  0  0  0  0  0  0  0  0  0  0
  -27.1041  -19.9747   23.4817 C   0  0  2  0  0  0  0  0  0  0  0  0
  -26.3520  -30.1249   25.8536 C   0  0  1  0  0  0  0  0  0  0  0  0
  -28.5124  -30.0147   28.9666 C   0  0  2  0  0  0  0  0  0  0  0  0
  -31.4803  -17.7811   24.7001 C   0  0  1  0  0  0  0  0  0  0  0  0
  -26.3638  -31.3692   24.9214 C   0  0  0  0  0  0  0  0  0  0  0  0
  -25.8727  -11.5194   20.3105 N   0  0  0  0  0  0  0  0  0  0  0  0
  -30.3005  -18.1725   23.9576 N   0  0  0  0  0  0  0  0  0  0  0  0
  -26.2786  -12.7906   20.1514 N   0  0  0  0  0  0  0  0  0  0  0  0
  -24.6665  -28.3168   25.7379 N   0  0  0  0  0  0  0  0  0  0  0  0
  -30.0182  -13.5111   20.4762 N   0  0  0  0  0  0  0  0  0  0  0  0
  -25.5461  -15.0389   20.2910 N   0  0  0  0  0  0  0  0  0  0  0  0
  -21.8722  -12.6732   21.4320 N   0  0  0  0  0  0  0  0  0  0  0  0
  -21.3517  -27.7149   24.3428 N   0  0  0  0  0  0  0  0  0  0  0  0
  -26.9765  -30.3462   27.1535 N   0  0  0  0  0  0  0  0  0  0  0  0
  -30.1864  -15.6115   21.5502 N   0  0  0  0  0  0  0  0  0  0  0  0
  -26.2138  -22.1634   22.7184 N   0  0  0  0  0  0  0  0  0  1  0  0
  -29.0109  -28.8378   29.7329 N   0  3  0  0  0  0  0  0  0  0  0  0
  -22.6986  -14.7874   21.1065 O   0  0  0  0  0  0  0  0  0  0  0  0
  -23.3931  -28.4832   23.5274 O   0  0  0  0  0  0  0  0  0  0  0  0
  -24.1486  -30.3792   26.6943 O   0  0  0  0  0  0  0  0  0  0  0  0
  -28.5682  -28.6711   26.9593 O   0  0  0  0  0  0  0  0  0  0  0  0
  -31.9543  -14.7813   20.3494 O   0  0  0  0  0  0  0  0  0  0  0  0
  -21.4887   -7.1233   21.7262 O   0  0  0  0  0  0  0  0  0  0  0  0
  -26.8548  -22.8765   23.8228 O   0  0  0  0  0  0  0  0  0  1  0  0
  -18.3231   -7.1850   26.2405 F   0  0  0  0  0  0  0  0  0  0  0  0
  -21.8295   -5.2423   23.7232 F   0  0  0  0  0  0  0  0  0  0  0  0
  1  2  1  0  0  0  0
  1  5  2  0  0  0  0
  2  6  2  0  0  0  0
  3  8  2  0  0  0  0
  3 16  1  0  0  0  0
  4  9  1  0  0  0  0
  4 16  2  0  0  0  0
  5 18  1  0  0  0  0
  6 20  1  0  0  0  0
  7 10  2  0  0  0  0
  7 19  1  0  0  0  0
  8 23  1  0  0  0  0
  9 23  2  0  0  0  0
 10 24  1  0  0  0  0
 11 12  2  0  0  0  0
 11 25  1  0  0  0  0
 12 26  1  0  0  0  0
 13 21  1  0  0  0  0
 13 24  2  0  0  0  0
 14 22  1  0  0  0  0
 14 29  2  0  0  0  0
 15 26  2  0  0  0  0
 15 27  1  0  0  0  0
 16 28  1  0  0  0  0
 17 28  1  0  0  0  0
 17 31  2  0  0  0  0
 17 32  1  0  0  0  0
 18 20  2  0  0  0  0
 18 37  1  0  0  0  0
 19 21  2  0  0  0  0
 19 38  1  0  0  0  0
 20 46  1  0  0  0  0
 21 39  1  0  0  0  0
 22 30  2  0  0  0  0
 22 61  1  0  0  0  0
 23 83  1  0  0  0  0
 24 84  1  0  0  0  0
 25 27  2  0  0  0  0
 25 83  1  0  0  0  0
 26 85  1  0  0  0  0
 27 86  1  0  0  0  0
 28 66  2  0  0  0  0
 29 58  1  0  0  0  0
 29 67  1  0  0  0  0
 30 49  1  0  0  0  0
 30 67  1  0  0  0  0
 31 68  1  0  0  0  0
 31 71  1  0  0  0  0
 32 72  1  0  0  0  0
 32 78  2  0  0  0  0
 33 47  1  0  0  0  0
 33 73  1  0  0  0  0
 33 79  2  0  0  0  0
 34 62  1  0  0  0  0
 34 69  1  0  0  0  0
 34 80  2  0  0  0  0
 35 63  1  0  0  0  0
 35 74  1  0  0  0  0
 35 81  2  0  0  0  0
 36 70  1  0  0  0  0
 36 75  1  0  0  0  0
 36 82  2  0  0  0  0
 37 40  1  0  0  0  0
 38 47  1  0  0  0  0
 39 69  1  0  0  0  0
 40 42  1  0  0  0  0
 41 43  1  0  0  0  0
 41 44  1  0  0  0  0
 42 46  1  0  0  0  0
 43 48  1  0  0  0  0
 44 70  1  0  0  0  0
 45 48  1  0  0  0  0
 45 70  1  0  0  0  0
 46 73  1  0  0  0  0
 47 69  1  0  0  0  0
 48 68  1  0  0  0  0
 50 59  1  0  0  0  0
 51 61  1  0  0  0  0
 52 63  1  0  0  0  0
 53 64  1  0  0  0  0
 54 65  1  0  0  0  0
 55 65  1  0  0  0  0
 56 65  1  0  0  0  0
 57 77  1  0  0  0  0
 58 75  1  0  0  0  0
 59 64  1  0  0  0  0
 60 61  1  0  0  0  0
 60 76  1  0  0  0  0
 62 65  1  0  0  0  0
 62 74  1  0  0  0  0
 63 77  1  0  0  0  0
 64 67  1  0  0  0  0
 66 68  1  0  0  0  0
 76 84  1  0  0  0  0
M  CHG  1  77   1
M  ISO  4  36 100  75 100  76 101  84 101
M  END
> <Batch ID>
0097

> <Smiles>
CCC(C)n1c(C[100NH:0][100C:0](=O)N2CCCC(n3nc(-c4ccc(Oc5ccc(F)cc5F)cc4)c(C(N)=O)c3N)C2)cc(C(C)C[101NH:1][101O:1]c2ccc3c(c2)CN(C(=O)C(NC(=O)C(C)NC)C(C)(C)C)C(C(=O)NC2CCCc4ccccc42)C3)c1C

> <Shape>
0.276

> <Color>
0.241

> <Negative vol penalty>
0.000

$$$$

  -OEChem-04052319263D

 88 96  0     1  0  0  0  0  0999 V2000
  -27.3715  -24.2697   16.9890 C   0  0  0  0  0  0  0  0  0  0  0  0
  -26.2038  -24.6223   17.6578 C   0  0  0  0  0  0  0  0  0  0  0  0
  -24.6695  -13.9835   19.1839 C   0  0  0  0  0  0  0  0  0  0  0  0
  -24.5872  -14.1760   21.5908 C   0  0  0  0  0  0  0  0  0  0  0  0
  -28.6103  -24.6493   17.5040 C   0  0  0  0  0  0  0  0  0  0  0  0
  -26.2742  -25.3538   18.8429 C   0  0  0  0  0  0  0  0  0  0  0  0
  -22.9161  -29.1416   18.9902 C   0  0  0  0  0  0  0  0  0  0  0  0
  -25.3061  -12.7483   19.3044 C   0  0  0  0  0  0  0  0  0  0  0  0
  -25.2238  -12.9408   21.7114 C   0  0  0  0  0  0  0  0  0  0  0  0
  -21.5940  -28.8093   19.2824 C   0  0  0  0  0  0  0  0  0  0  0  0
  -24.3819   -9.6750   21.4964 C   0  0  0  0  0  0  0  0  0  0  0  0
  -23.8697   -8.7717   22.4277 C   0  0  0  0  0  0  0  0  0  0  0  0
  -21.9289  -29.5100   21.5663 C   0  0  0  0  0  0  0  0  0  0  0  0
  -25.9886   -8.7670   23.5886 C   0  0  0  0  0  0  0  0  0  0  0  0
  -19.4284  -26.9370   25.5816 C   0  0  0  0  0  0  0  0  0  0  0  0
  -24.3100  -14.6974   20.3271 C   0  0  0  0  0  0  0  0  0  0  0  0
  -22.2672  -16.2135   20.1369 C   0  0  0  0  0  0  0  0  0  0  0  0
  -28.6955  -25.3941   18.6909 C   0  0  0  0  0  0  0  0  0  0  0  0
  -23.7591  -29.6511   19.9883 C   0  0  0  0  0  0  0  0  0  0  0  0
  -27.5153  -25.7426   19.3750 C   0  0  0  0  0  0  0  0  0  0  0  0
  -23.2606  -29.8503   21.2836 C   0  0  0  0  0  0  0  0  0  0  0  0
  -25.5833  -12.2269   20.5682 C   0  0  0  0  0  0  0  0  0  0  0  0
  -21.1010  -28.9908   20.5712 C   0  0  0  0  0  0  0  0  0  0  0  0
  -25.6975  -10.1242   21.6111 C   0  0  0  0  0  0  0  0  0  0  0  0
  -24.6730   -8.3178   23.4738 C   0  0  0  0  0  0  0  0  0  0  0  0
  -26.5008   -9.6702   22.6572 C   0  0  0  0  0  0  0  0  0  0  0  0
  -23.6528  -15.9737   20.2033 C   0  0  0  0  0  0  0  0  0  0  0  0
  -19.1599  -26.3255   24.3769 C   0  0  0  0  0  0  0  0  0  0  0  0
  -21.0007  -24.9947   24.6420 C   0  0  0  0  0  0  0  0  0  0  0  0
  -21.2696  -25.6068   25.8464 C   0  0  0  0  0  0  0  0  0  0  0  0
  -22.1599  -17.5782   20.0249 C   0  0  0  0  0  0  0  0  0  0  0  0
  -21.1748  -15.2856   20.1734 C   0  0  0  0  0  0  0  0  0  0  0  0
  -26.4644  -28.6843   21.3486 C   0  0  0  0  0  0  0  0  0  0  0  0
  -26.3161  -31.5831   22.7967 C   0  0  0  0  0  0  0  0  0  0  0  0
  -24.3982  -34.2072   23.8372 C   0  0  0  0  0  0  0  0  0  0  0  0
  -23.6667  -22.7222   21.5787 C   0  0  0  0  0  0  0  0  0  0  0  0
  -30.0591  -25.7409   19.2340 C   0  0  0  0  0  0  0  0  0  0  0  0
  -25.1751  -30.0297   19.6505 C   0  0  0  0  0  0  0  0  0  0  0  0
  -24.1189  -30.4132   22.3859 C   0  0  0  0  0  0  0  0  0  0  0  0
  -30.0310  -26.8368   20.2963 C   0  0  0  0  0  0  0  0  0  0  0  0
  -25.6847  -21.0959   19.1375 C   0  0  0  0  0  0  0  0  0  0  0  0
  -28.9306  -26.5632   21.3165 C   0  0  0  0  0  0  0  0  0  0  0  0
  -25.2262  -19.6378   19.1963 C   0  0  0  0  0  0  0  0  0  0  0  0
  -25.6816  -21.7447   20.5199 C   0  0  0  0  0  0  0  0  0  0  0  0
  -23.9455  -20.1833   21.3084 C   0  0  0  0  0  0  0  0  0  0  0  0
  -27.5495  -26.5570   20.6501 C   0  0  1  0  0  0  0  0  0  0  0  0
  -26.0927  -30.0588   20.8690 C   0  0  1  0  0  0  0  0  0  0  0  0
  -23.8785  -19.5030   19.9304 C   0  0  2  0  0  0  0  0  0  0  0  0
  -24.0576  -26.8732   25.5646 C   0  0  0  0  0  0  0  0  0  0  0  0
  -21.1905  -23.3894   27.9755 C   0  0  0  0  0  0  0  0  0  0  0  0
  -16.9662  -25.5824   23.4148 C   0  0  0  0  0  0  0  0  0  0  0  0
  -24.5544  -36.4127   25.0241 C   0  0  0  0  0  0  0  0  0  0  0  0
  -26.5924  -30.1258   25.4631 C   0  0  0  0  0  0  0  0  0  0  0  0
  -25.7992  -32.2084   26.6041 C   0  0  0  0  0  0  0  0  0  0  0  0
  -27.9176  -32.2394   25.2872 C   0  0  0  0  0  0  0  0  0  0  0  0
  -23.3879  -35.6802   21.4775 C   0  0  0  0  0  0  0  0  0  0  0  0
  -21.8727  -23.9091   24.1102 C   0  0  0  0  0  0  0  0  0  0  0  0
  -23.4688  -26.3692   26.8771 C   0  0  0  0  0  0  0  0  0  0  0  0
  -22.0496  -24.6448   28.0705 C   0  0  0  0  0  0  0  0  0  0  0  0
  -18.3377  -27.2892   22.1604 C   0  0  0  0  0  0  0  0  0  0  0  0
  -21.5854  -23.5507   22.6469 C   0  0  0  0  0  0  0  0  0  0  0  0
  -19.5306  -28.2401   22.1918 C   0  0  0  0  0  0  0  0  0  1  0  0
  -17.9563  -26.7454   23.5508 C   0  0  2  0  0  0  0  0  0  0  0  0
  -22.4450  -25.2119   26.6737 C   0  0  0  0  0  0  0  0  0  0  0  0
  -25.7044  -32.1112   24.0718 C   0  0  1  0  0  0  0  0  0  0  0  0
  -24.5708  -35.7069   23.6772 C   0  0  2  0  0  0  0  0  0  0  0  0
  -26.4875  -31.6588   25.3365 C   0  0  0  0  0  0  0  0  0  0  0  0
  -20.4882  -26.5887   26.3380 N   0  0  0  0  0  0  0  0  0  0  0  0
  -24.3741  -17.0960   20.1386 N   0  0  0  0  0  0  0  0  0  0  0  0
  -19.9412  -25.3433   23.8855 N   0  0  0  0  0  0  0  0  0  0  0  0
  -23.4380  -18.0543   20.0304 N   0  0  0  0  0  0  0  0  0  0  0  0
  -25.4982  -30.7621   22.0075 N   0  0  0  0  0  0  0  0  0  0  0  0
  -24.3747  -21.5830   21.1616 N   0  0  0  0  0  0  0  0  0  0  0  0
  -21.0980  -18.4054   19.9232 N   0  0  0  0  0  0  0  0  0  0  0  0
  -21.4626  -13.9190   20.2917 N   0  0  0  0  0  0  0  0  0  0  0  0
  -27.1036  -27.9106   20.3987 N   0  0  0  0  0  0  0  0  0  0  0  0
  -25.6126  -33.5584   23.9117 N   0  0  0  0  0  0  0  0  0  0  0  0
  -22.4336  -22.4804   22.1718 N   0  0  0  0  0  0  0  0  0  0  0  0
  -23.4737  -36.2681   22.8391 N   0  3  0  0  0  0  0  0  0  0  0  0
  -19.9795  -15.6560   20.0865 O   0  0  0  0  0  0  0  0  0  0  0  0
  -26.1928  -28.3508   22.4961 O   0  0  0  0  0  0  0  0  0  0  0  0
  -27.4744  -31.8937   22.5079 O   0  0  0  0  0  0  0  0  0  0  0  0
  -23.2963  -33.6659   23.8944 O   0  0  0  0  0  0  0  0  0  0  0  0
  -24.0989  -23.8700   21.4286 O   0  0  0  0  0  0  0  0  0  0  0  0
  -26.2043  -11.0215   20.6862 O   0  0  0  0  0  0  0  0  0  0  0  0
  -19.8111  -28.6667   20.8592 O   0  0  0  0  0  0  0  0  0  1  0  0
  -24.1805   -7.4516   24.3690 F   0  0  0  0  0  0  0  0  0  0  0  0
  -27.7651  -10.0992   22.7733 F   0  0  0  0  0  0  0  0  0  0  0  0
  1  2  1  0  0  0  0
  1  5  2  0  0  0  0
  2  6  2  0  0  0  0
  3  8  2  0  0  0  0
  3 16  1  0  0  0  0
  4  9  1  0  0  0  0
  4 16  2  0  0  0  0
  5 18  1  0  0  0  0
  6 20  1  0  0  0  0
  7 10  2  0  0  0  0
  7 19  1  0  0  0  0
  8 22  1  0  0  0  0
  9 22  2  0  0  0  0
 10 23  1  0  0  0  0
 11 12  2  0  0  0  0
 11 24  1  0  0  0  0
 12 25  1  0  0  0  0
 13 21  1  0  0  0  0
 13 23  2  0  0  0  0
 14 25  2  0  0  0  0
 14 26  1  0  0  0  0
 15 28  1  0  0  0  0
 15 68  2  0  0  0  0
 16 27  1  0  0  0  0
 17 27  1  0  0  0  0
 17 31  2  0  0  0  0
 17 32  1  0  0  0  0
 18 20  2  0  0  0  0
 18 37  1  0  0  0  0
 19 21  2  0  0  0  0
 19 38  1  0  0  0  0
 20 46  1  0  0  0  0
 21 39  1  0  0  0  0
 22 85  1  0  0  0  0
 23 86  1  0  0  0  0
 24 26  2  0  0  0  0
 24 85  1  0  0  0  0
 25 87  1  0  0  0  0
 26 88  1  0  0  0  0
 27 69  2  0  0  0  0
 28 63  1  0  0  0  0
 28 70  2  0  0  0  0
 29 30  2  0  0  0  0
 29 57  1  0  0  0  0
 29 70  1  0  0  0  0
 30 64  1  0  0  0  0
 30 68  1  0  0  0  0
 31 71  1  0  0  0  0
 31 74  1  0  0  0  0
 32 75  1  0  0  0  0
 32 80  2  0  0  0  0
 33 47  1  0  0  0  0
 33 76  1  0  0  0  0
 33 81  2  0  0  0  0
 34 65  1  0  0  0  0
 34 72  1  0  0  0  0
 34 82  2  0  0  0  0
 35 66  1  0  0  0  0
 35 77  1  0  0  0  0
 35 83  2  0  0  0  0
 36 73  1  0  0  0  0
 36 78  1  0  0  0  0
 36 84  2  0  0  0  0
 37 40  1  0  0  0  0
 38 47  1  0  0  0  0
 39 72  1  0  0  0  0
 40 42  1  0  0  0  0
 41 43  1  0  0  0  0
 41 44  1  0  0  0  0
 42 46  1  0  0  0  0
 43 48  1  0  0  0  0
 44 73  1  0  0  0  0
 45 48  1  0  0  0  0
 45 73  1  0  0  0  0
 46 76  1  0  0  0  0
 47 72  1  0  0  0  0
 48 71  1  0  0  0  0
 49 58  1  0  0  0  0
 50 59  1  0  0  0  0
 51 63  1  0  0  0  0
 52 66  1  0  0  0  0
 53 67  1  0  0  0  0
 54 67  1  0  0  0  0
 55 67  1  0  0  0  0
 56 79  1  0  0  0  0
 57 61  1  0  0  0  0
 58 64  1  0  0  0  0
 59 64  1  0  0  0  0
 60 62  1  0  0  0  0
 60 63  1  0  0  0  0
 61 78  1  0  0  0  0
 62 86  1  0  0  0  0
 65 67  1  0  0  0  0
 65 77  1  0  0  0  0
 66 79  1  0  0  0  0
 69 71  1  0  0  0  0
M  CHG  1  79   1
M  ISO  4  36 100  62 101  78 100  86 101
M  END
> <Batch ID>
0097

> <Smiles>
CCC(CC)c1ncc(C(C)C[101CH2:1][101O:1]c2ccc3c(c2)CN(C(=O)C(NC(=O)C(C)NC)C(C)(C)C)C(C(=O)NC2CCCc4ccccc42)C3)nc1CC[100NH:0][100C:0](=O)N1CCCC(n2nc(-c3ccc(Oc4ccc(F)cc4F)cc3)c(C(N)=O)c2N)C1

> <Shape>
0.253

> <Color>
0.070

> <Negative vol penalty>
0.000

$$$$

  -OEChem-04052319263D

 84 92  0     1  0  0  0  0  0999 V2000
  -21.5926  -31.3230   23.2211 C   0  0  0  0  0  0  0  0  0  0  0  0
  -21.1936  -30.1334   22.6202 C   0  0  0  0  0  0  0  0  0  0  0  0
  -23.9983  -14.3829   21.9360 C   0  0  0  0  0  0  0  0  0  0  0  0
  -24.4950  -14.8895   19.6266 C   0  0  0  0  0  0  0  0  0  0  0  0
  -22.7858  -31.9318   22.8348 C   0  0  0  0  0  0  0  0  0  0  0  0
  -21.9872  -29.5525   21.6318 C   0  0  0  0  0  0  0  0  0  0  0  0
  -22.7889  -23.5696   20.5981 C   0  0  0  0  0  0  0  0  0  0  0  0
  -24.8769  -13.3006   21.8876 C   0  0  0  0  0  0  0  0  0  0  0  0
  -25.3737  -13.8073   19.5781 C   0  0  0  0  0  0  0  0  0  0  0  0
  -22.2122  -22.6904   19.6826 C   0  0  0  0  0  0  0  0  0  0  0  0
  -28.5291  -13.1164   20.5715 C   0  0  0  0  0  0  0  0  0  0  0  0
  -29.7709  -13.3183   19.9694 C   0  0  0  0  0  0  0  0  0  0  0  0
  -24.0882  -23.0124   18.2007 C   0  0  0  0  0  0  0  0  0  0  0  0
  -19.3397  -17.1541   13.8687 C   0  0  0  0  0  0  0  0  0  0  0  0
  -29.2649  -11.5988   18.3494 C   0  0  0  0  0  0  0  0  0  0  0  0
  -20.0145  -19.2169   13.2693 C   0  0  0  0  0  0  0  0  0  0  0  0
  -23.8073  -15.1773   20.8055 C   0  0  0  0  0  0  0  0  0  0  0  0
  -23.2038  -17.6225   21.2112 C   0  0  0  0  0  0  0  0  0  0  0  0
  -23.5993  -31.3530   21.8479 C   0  0  0  0  0  0  0  0  0  0  0  0
  -24.0165  -24.1863   20.3165 C   0  0  0  0  0  0  0  0  0  0  0  0
  -23.1919  -30.1549   21.2309 C   0  0  0  0  0  0  0  0  0  0  0  0
  -24.6796  -23.8971   19.1154 C   0  0  0  0  0  0  0  0  0  0  0  0
  -20.2565  -17.8763   13.0656 C   0  0  0  0  0  0  0  0  0  0  0  0
  -25.5646  -13.0128   20.7087 C   0  0  0  0  0  0  0  0  0  0  0  0
  -22.8604  -22.4139   18.4824 C   0  0  0  0  0  0  0  0  0  0  0  0
  -27.6551  -12.1557   20.0627 C   0  0  0  0  0  0  0  0  0  0  0  0
  -30.1389  -12.5595   18.8583 C   0  0  0  0  0  0  0  0  0  0  0  0
  -28.0231  -11.3969   18.9516 C   0  0  0  0  0  0  0  0  0  0  0  0
  -22.8994  -16.2951   20.8547 C   0  0  0  0  0  0  0  0  0  0  0  0
  -18.5652  -18.0754   14.5386 C   0  0  0  0  0  0  0  0  0  0  0  0
  -22.0090  -18.2906   21.0999 C   0  0  0  0  0  0  0  0  0  0  0  0
  -24.4549  -18.2000   21.6075 C   0  0  0  0  0  0  0  0  0  0  0  0
  -24.9837  -27.1911   19.9432 C   0  0  0  0  0  0  0  0  0  0  0  0
  -27.9181  -25.8168   19.7904 C   0  0  0  0  0  0  0  0  0  0  0  0
  -29.7840  -23.0350   19.1372 C   0  0  0  0  0  0  0  0  0  0  0  0
  -17.0614  -17.2877   17.8801 C   0  0  0  0  0  0  0  0  0  0  0  0
  -24.8571  -32.0728   21.4300 C   0  0  0  0  0  0  0  0  0  0  0  0
  -24.6382  -25.1117   21.3262 C   0  0  0  0  0  0  0  0  0  0  0  0
  -26.0090  -24.5174   18.7743 C   0  0  0  0  0  0  0  0  0  0  0  0
  -25.8264  -31.1968   20.6405 C   0  0  0  0  0  0  0  0  0  0  0  0
  -17.2862  -17.5951   21.4201 C   0  0  0  0  0  0  0  0  0  0  0  0
  -25.0835  -30.4197   19.5583 C   0  0  0  0  0  0  0  0  0  0  0  0
  -18.7777  -17.4166   21.7088 C   0  0  0  0  0  0  0  0  0  0  0  0
  -16.8218  -16.6987   20.2743 C   0  0  0  0  0  0  0  0  0  0  0  0
  -19.0927  -16.6530   19.3179 C   0  0  0  0  0  0  0  0  0  0  0  0
  -24.0379  -29.4810   20.1725 C   0  0  1  0  0  0  0  0  0  0  0  0
  -25.6433  -26.0799   20.7100 C   0  0  1  0  0  0  0  0  0  0  0  0
  -19.6198  -17.5773   20.4288 C   0  0  2  0  0  0  0  0  0  0  0  0
  -20.6814  -16.4494   11.0316 C   0  0  0  0  0  0  0  0  0  0  0  0
  -22.3378  -16.4606   12.9319 C   0  0  0  0  0  0  0  0  0  0  0  0
  -32.1594  -22.2293   19.0619 C   0  0  0  0  0  0  0  0  0  0  0  0
  -28.3283  -27.2809   17.1450 C   0  0  0  0  0  0  0  0  0  0  0  0
  -30.2414  -25.7381   16.6678 C   0  0  0  0  0  0  0  0  0  0  0  0
  -30.3292  -27.2565   18.6451 C   0  0  0  0  0  0  0  0  0  0  0  0
  -29.2837  -21.0043   21.2312 C   0  0  0  0  0  0  0  0  0  0  0  0
  -17.4633  -17.8669   15.5006 C   0  0  0  0  0  0  0  0  0  0  0  0
  -18.9013  -21.0367   16.0530 C   0  0  0  0  0  0  0  0  0  0  0  0
  -20.4255  -21.1152   16.1539 C   0  0  0  0  0  0  0  0  0  0  0  0
  -18.4124  -20.6321   14.6576 C   0  0  0  0  0  0  0  0  0  0  0  0
  -20.8744  -21.4848   17.5612 C   0  0  0  0  0  0  0  0  0  1  0  0
  -21.2820  -17.3001   12.1752 C   0  0  0  0  0  0  0  0  0  0  0  0
  -28.7808  -25.2583   18.6846 C   0  0  1  0  0  0  0  0  0  0  0  0
  -30.9069  -22.3703   19.9129 C   0  0  2  0  0  0  0  0  0  0  0  0
  -29.3940  -26.3731   17.7909 C   0  0  0  0  0  0  0  0  0  0  0  0
  -21.6120  -16.1279   20.5406 N   0  0  0  0  0  0  0  0  0  0  0  0
  -18.9841  -19.3260   14.1663 N   0  0  0  0  0  0  0  0  0  0  0  0
  -21.0969  -17.3589   20.6994 N   0  0  0  0  0  0  0  0  0  0  0  0
  -26.5732  -25.4204   19.7910 N   0  0  0  0  0  0  0  0  0  0  0  0
  -17.6604  -16.9008   19.0903 N   0  0  0  0  0  0  0  0  0  0  0  0
  -21.6600  -19.5782   21.3065 N   0  0  0  0  0  0  0  0  0  0  0  0
  -25.5836  -17.3714   21.6692 N   0  0  0  0  0  0  0  0  0  0  0  0
  -24.6748  -28.2980   20.7104 N   0  0  0  0  0  0  0  0  0  0  0  0
  -29.7678  -24.4001   19.3308 N   0  0  0  0  0  0  0  0  0  0  0  0
  -17.9287  -17.4638   16.8089 N   0  0  0  0  0  0  0  0  0  0  0  0
  -30.4909  -21.0127   20.3654 N   0  3  0  0  0  0  0  0  0  0  0  0
  -24.5651  -19.4114   21.9140 O   0  0  0  0  0  0  0  0  0  0  0  0
  -24.7722  -27.0549   18.7438 O   0  0  0  0  0  0  0  0  0  0  0  0
  -28.4206  -26.5711   20.6271 O   0  0  0  0  0  0  0  0  0  0  0  0
  -29.0018  -22.4066   18.4273 O   0  0  0  0  0  0  0  0  0  0  0  0
  -15.8444  -17.4684   17.7643 O   0  0  0  0  0  0  0  0  0  0  0  0
  -26.4222  -11.9570   20.6612 O   0  0  0  0  0  0  0  0  0  0  0  0
  -22.2994  -21.5565   17.5868 O   0  0  0  0  0  0  0  0  0  1  0  0
  -31.3308  -12.7545   18.2792 F   0  0  0  0  0  0  0  0  0  0  0  0
  -27.1872  -10.4733   18.4575 F   0  0  0  0  0  0  0  0  0  0  0  0
  1  2  1  0  0  0  0
  1  5  2  0  0  0  0
  2  6  2  0  0  0  0
  3  8  2  0  0  0  0
  3 17  1  0  0  0  0
  4  9  1  0  0  0  0
  4 17  2  0  0  0  0
  5 19  1  0  0  0  0
  6 21  1  0  0  0  0
  7 10  2  0  0  0  0
  7 20  1  0  0  0  0
  8 24  1  0  0  0  0
  9 24  2  0  0  0  0
 10 25  1  0  0  0  0
 11 12  2  0  0  0  0
 11 26  1  0  0  0  0
 12 27  1  0  0  0  0
 13 22  1  0  0  0  0
 13 25  2  0  0  0  0
 14 23  1  0  0  0  0
 14 30  2  0  0  0  0
 15 27  2  0  0  0  0
 15 28  1  0  0  0  0
 16 23  2  0  0  0  0
 16 66  1  0  0  0  0
 17 29  1  0  0  0  0
 18 29  1  0  0  0  0
 18 31  2  0  0  0  0
 18 32  1  0  0  0  0
 19 21  2  0  0  0  0
 19 37  1  0  0  0  0
 20 22  2  0  0  0  0
 20 38  1  0  0  0  0
 21 46  1  0  0  0  0
 22 39  1  0  0  0  0
 23 61  1  0  0  0  0
 24 81  1  0  0  0  0
 25 82  1  0  0  0  0
 26 28  2  0  0  0  0
 26 81  1  0  0  0  0
 27 83  1  0  0  0  0
 28 84  1  0  0  0  0
 29 65  2  0  0  0  0
 30 56  1  0  0  0  0
 30 66  1  0  0  0  0
 31 67  1  0  0  0  0
 31 70  1  0  0  0  0
 32 71  1  0  0  0  0
 32 76  2  0  0  0  0
 33 47  1  0  0  0  0
 33 72  1  0  0  0  0
 33 77  2  0  0  0  0
 34 62  1  0  0  0  0
 34 68  1  0  0  0  0
 34 78  2  0  0  0  0
 35 63  1  0  0  0  0
 35 73  1  0  0  0  0
 35 79  2  0  0  0  0
 36 69  1  0  0  0  0
 36 74  1  0  0  0  0
 36 80  2  0  0  0  0
 37 40  1  0  0  0  0
 38 47  1  0  0  0  0
 39 68  1  0  0  0  0
 40 42  1  0  0  0  0
 41 43  1  0  0  0  0
 41 44  1  0  0  0  0
 42 46  1  0  0  0  0
 43 48  1  0  0  0  0
 44 69  1  0  0  0  0
 45 48  1  0  0  0  0
 45 69  1  0  0  0  0
 46 72  1  0  0  0  0
 47 68  1  0  0  0  0
 48 67  1  0  0  0  0
 49 61  1  0  0  0  0
 50 61  1  0  0  0  0
 51 63  1  0  0  0  0
 52 64  1  0  0  0  0
 53 64  1  0  0  0  0
 54 64  1  0  0  0  0
 55 75  1  0  0  0  0
 56 74  1  0  0  0  0
 57 58  1  0  0  0  0
 57 59  1  0  0  0  0
 58 60  1  0  0  0  0
 59 66  1  0  0  0  0
 60 82  1  0  0  0  0
 62 64  1  0  0  0  0
 62 73  1  0  0  0  0
 63 75  1  0  0  0  0
 65 67  1  0  0  0  0
M  CHG  1  75   1
M  ISO  4  36 100  60 101  74 100  82 101
M  END
> <Batch ID>
0097

> <Smiles>
CNC(C)C(=O)NC(C(=O)N1Cc2cc([101O:1][101CH2:1]CCCn3cc(C(C)C)cc3C[100NH:0][100C:0](=O)N3CCCC(n4nc(-c5ccc(Oc6ccc(F)cc6F)cc5)c(C(N)=O)c4N)C3)ccc2CC1C(=O)NC1CCCc2ccccc21)C(C)(C)C

> <Shape>
0.190

> <Color>
0.068

> <Negative vol penalty>
0.000

$$$$

  -OEChem-04052319263D

 89 97  0     1  0  0  0  0  0999 V2000
  -29.6202  -11.9665   20.1562 C   0  0  0  0  0  0  0  0  0  0  0  0
  -29.6594  -13.1569   20.8753 C   0  0  0  0  0  0  0  0  0  0  0  0
  -28.8618  -23.7056   18.7080 C   0  0  0  0  0  0  0  0  0  0  0  0
  -26.5898  -23.7185   19.5295 C   0  0  0  0  0  0  0  0  0  0  0  0
  -28.7188  -11.8190   19.1029 C   0  0  0  0  0  0  0  0  0  0  0  0
  -28.7977  -14.2009   20.5406 C   0  0  0  0  0  0  0  0  0  0  0  0
  -25.1407  -19.5934   23.5176 C   0  0  0  0  0  0  0  0  0  0  0  0
  -28.8753  -22.3121   18.7671 C   0  0  0  0  0  0  0  0  0  0  0  0
  -26.6032  -22.3250   19.5885 C   0  0  0  0  0  0  0  0  0  0  0  0
  -24.9498  -20.9681   23.3848 C   0  0  0  0  0  0  0  0  0  0  0  0
  -29.2410  -19.9230   21.1299 C   0  0  0  0  0  0  0  0  0  0  0  0
  -30.3653  -19.3093   21.6820 C   0  0  0  0  0  0  0  0  0  0  0  0
  -23.3798  -20.5713   21.5969 C   0  0  0  0  0  0  0  0  0  0  0  0
  -30.7572  -18.1521   19.5976 C   0  0  0  0  0  0  0  0  0  0  0  0
  -27.7191  -24.4088   19.0893 C   0  0  0  0  0  0  0  0  0  0  0  0
  -27.3151  -26.6498   17.9392 C   0  0  0  0  0  0  0  0  0  0  0  0
  -27.8390  -12.8582   18.7614 C   0  0  0  0  0  0  0  0  0  0  0  0
  -24.4596  -18.6963   22.6823 C   0  0  0  0  0  0  0  0  0  0  0  0
  -27.8845  -14.0676   19.4808 C   0  0  0  0  0  0  0  0  0  0  0  0
  -23.5618  -19.1856   21.7228 C   0  0  0  0  0  0  0  0  0  0  0  0
  -23.0187  -27.0588   22.4851 C   0  0  0  0  0  0  0  0  0  0  0  0
  -23.3951  -28.8930   24.0008 C   0  0  0  0  0  0  0  0  0  0  0  0
  -23.7113  -27.6123   23.5577 C   0  0  0  0  0  0  0  0  0  0  0  0
  -27.7459  -21.6217   19.2073 C   0  0  0  0  0  0  0  0  0  0  0  0
  -24.0714  -21.4574   22.4224 C   0  0  0  0  0  0  0  0  0  0  0  0
  -28.8747  -19.6512   19.8117 C   0  0  0  0  0  0  0  0  0  0  0  0
  -31.1234  -18.4239   20.9159 C   0  0  0  0  0  0  0  0  0  0  0  0
  -29.6328  -18.7658   19.0456 C   0  0  0  0  0  0  0  0  0  0  0  0
  -27.7048  -25.8484   19.0291 C   0  0  0  0  0  0  0  0  0  0  0  0
  -22.0195  -27.8059   21.8778 C   0  0  0  0  0  0  0  0  0  0  0  0
  -22.3864  -29.5937   23.3550 C   0  0  0  0  0  0  0  0  0  0  0  0
  -27.4823  -27.9386   18.3837 C   0  0  0  0  0  0  0  0  0  0  0  0
  -26.8441  -26.2637   16.6412 C   0  0  0  0  0  0  0  0  0  0  0  0
  -25.3368  -16.5308   20.5272 C   0  0  0  0  0  0  0  0  0  0  0  0
  -22.1678  -15.8384   20.5057 C   0  0  0  0  0  0  0  0  0  0  0  0
  -18.9703  -16.8818   21.0837 C   0  0  0  0  0  0  0  0  0  0  0  0
  -27.5024  -30.3988   23.8424 C   0  0  0  0  0  0  0  0  0  0  0  0
  -26.9147  -12.6696   17.5846 C   0  0  0  0  0  0  0  0  0  0  0  0
  -24.6563  -17.2153   22.8562 C   0  0  0  0  0  0  0  0  0  0  0  0
  -22.7910  -18.2636   20.8150 C   0  0  0  0  0  0  0  0  0  0  0  0
  -25.7774  -13.6865   17.5342 C   0  0  0  0  0  0  0  0  0  0  0  0
  -30.1082  -30.5413   21.4204 C   0  0  0  0  0  0  0  0  0  0  0  0
  -26.3100  -15.0955   17.7749 C   0  0  0  0  0  0  0  0  0  0  0  0
  -29.7525  -29.4270   20.4345 C   0  0  0  0  0  0  0  0  0  0  0  0
  -29.7620  -30.1556   22.8568 C   0  0  0  0  0  0  0  0  0  0  0  0
  -28.0126  -28.6051   22.0764 C   0  0  0  0  0  0  0  0  0  0  0  0
  -26.9488  -15.2140   19.1640 C   0  0  1  0  0  0  0  0  0  0  0  0
  -24.2992  -16.4145   21.6078 C   0  0  1  0  0  0  0  0  0  0  0  0
  -28.2917  -28.9698   20.6083 C   0  0  2  0  0  0  0  0  0  0  0  0
  -21.2236  -27.3053   20.7259 C   0  0  0  0  0  0  0  0  0  0  0  0
  -21.9735  -30.9659   23.7513 C   0  0  0  0  0  0  0  0  0  0  0  0
  -16.5883  -16.1059   20.9379 C   0  0  0  0  0  0  0  0  0  0  0  0
  -26.4942  -24.5399   24.7735 C   0  0  0  0  0  0  0  0  0  0  0  0
  -26.7273  -26.4209   26.4263 C   0  0  0  0  0  0  0  0  0  0  0  0
  -22.2351  -16.2083   17.4777 C   0  0  0  0  0  0  0  0  0  0  0  0
  -19.7367  -16.3667   17.5114 C   0  0  0  0  0  0  0  0  0  0  0  0
  -20.8621  -14.2707   18.2617 C   0  0  0  0  0  0  0  0  0  0  0  0
  -18.5601  -17.2204   23.9950 C   0  0  0  0  0  0  0  0  0  0  0  0
  -23.3389  -25.6726   21.9855 C   0  0  0  0  0  0  0  0  0  0  0  0
  -24.1221  -29.5105   25.1504 C   0  0  0  0  0  0  0  0  0  0  0  0
  -22.3194  -24.6138   22.4112 C   0  0  0  0  0  0  0  0  0  0  0  0
  -25.1867  -30.5276   24.7258 C   0  0  0  0  0  0  0  0  0  0  0  0
  -24.4859  -26.0083   25.3050 C   0  0  0  0  0  0  0  0  0  0  0  0
  -22.6046  -23.2334   21.8309 C   0  0  0  0  0  0  0  0  0  1  0  0
  -20.9716  -16.3287   19.7261 C   0  0  1  0  0  0  0  0  0  0  0  0
  -17.8169  -16.2308   21.8254 C   0  0  2  0  0  0  0  0  0  0  0  0
  -25.7790  -25.3769   25.8350 C   0  0  0  0  0  0  0  0  0  0  0  0
  -20.9672  -15.8113   18.2599 C   0  0  0  0  0  0  0  0  0  0  0  0
  -28.0906  -26.5678   20.0862 N   0  0  0  0  0  0  0  0  0  0  0  0
  -27.9442  -27.8348   19.6628 N   0  0  0  0  0  0  0  0  0  0  0  0
  -21.7354  -29.0368   22.3246 N   0  3  0  0  0  0  0  0  0  0  0  0
  -23.0224  -16.8241   21.0195 N   0  0  0  0  0  0  0  0  0  0  0  0
  -28.3627  -29.7333   22.9536 N   0  0  0  0  0  0  0  0  0  0  0  0
  -27.2778  -29.1391   17.8012 N   0  0  0  0  0  0  0  0  0  0  0  0
  -26.7320  -24.8973   16.3503 N   0  0  0  0  0  0  0  0  0  0  0  0
  -24.7342  -26.8737   24.1963 N   0  0  0  0  0  0  0  0  0  0  0  0
  -25.9267  -15.3298   20.1820 N   0  0  0  0  0  0  0  0  0  0  0  0
  -19.7953  -15.9445   20.4988 N   0  0  0  0  0  0  0  0  0  0  0  0
  -26.1911  -29.9399   23.8675 N   0  0  0  0  0  0  0  0  0  0  0  0
  -17.4508  -17.0372   23.0240 N   0  3  0  0  0  0  0  0  0  0  0  0
  -26.5476  -27.1055   15.7597 O   0  0  0  0  0  0  0  0  0  0  0  0
  -25.5828  -17.6286   20.0414 O   0  0  0  0  0  0  0  0  0  0  0  0
  -22.3338  -14.6258   20.6593 O   0  0  0  0  0  0  0  0  0  0  0  0
  -19.1220  -18.1001   21.0255 O   0  0  0  0  0  0  0  0  0  0  0  0
  -27.8741  -31.3362   24.5567 O   0  0  0  0  0  0  0  0  0  0  0  0
  -27.7586  -20.2619   19.2648 O   0  0  0  0  0  0  0  0  0  0  0  0
  -23.8838  -22.7987   22.2902 O   0  0  0  0  0  0  0  0  0  1  0  0
  -32.2040  -17.8358   21.4457 F   0  0  0  0  0  0  0  0  0  0  0  0
  -29.2865  -18.5017   17.7782 F   0  0  0  0  0  0  0  0  0  0  0  0
  1  2  1  0  0  0  0
  1  5  2  0  0  0  0
  2  6  2  0  0  0  0
  3  8  2  0  0  0  0
  3 15  1  0  0  0  0
  4  9  1  0  0  0  0
  4 15  2  0  0  0  0
  5 17  1  0  0  0  0
  6 19  1  0  0  0  0
  7 10  2  0  0  0  0
  7 18  1  0  0  0  0
  8 24  1  0  0  0  0
  9 24  2  0  0  0  0
 10 25  1  0  0  0  0
 11 12  2  0  0  0  0
 11 26  1  0  0  0  0
 12 27  1  0  0  0  0
 13 20  1  0  0  0  0
 13 25  2  0  0  0  0
 14 27  2  0  0  0  0
 14 28  1  0  0  0  0
 15 29  1  0  0  0  0
 16 29  1  0  0  0  0
 16 32  2  0  0  0  0
 16 33  1  0  0  0  0
 17 19  2  0  0  0  0
 17 38  1  0  0  0  0
 18 20  2  0  0  0  0
 18 39  1  0  0  0  0
 19 47  1  0  0  0  0
 20 40  1  0  0  0  0
 21 23  2  0  0  0  0
 21 30  1  0  0  0  0
 21 59  1  0  0  0  0
 22 23  1  0  0  0  0
 22 31  2  0  0  0  0
 22 60  1  0  0  0  0
 23 76  1  0  0  0  0
 24 86  1  0  0  0  0
 25 87  1  0  0  0  0
 26 28  2  0  0  0  0
 26 86  1  0  0  0  0
 27 88  1  0  0  0  0
 28 89  1  0  0  0  0
 29 69  2  0  0  0  0
 30 50  1  0  0  0  0
 30 71  2  0  0  0  0
 31 51  1  0  0  0  0
 31 71  1  0  0  0  0
 32 70  1  0  0  0  0
 32 74  1  0  0  0  0
 33 75  1  0  0  0  0
 33 81  2  0  0  0  0
 34 48  1  0  0  0  0
 34 77  1  0  0  0  0
 34 82  2  0  0  0  0
 35 65  1  0  0  0  0
 35 72  1  0  0  0  0
 35 83  2  0  0  0  0
 36 66  1  0  0  0  0
 36 78  1  0  0  0  0
 36 84  2  0  0  0  0
 37 73  1  0  0  0  0
 37 79  1  0  0  0  0
 37 85  2  0  0  0  0
 38 41  1  0  0  0  0
 39 48  1  0  0  0  0
 40 72  1  0  0  0  0
 41 43  1  0  0  0  0
 42 44  1  0  0  0  0
 42 45  1  0  0  0  0
 43 47  1  0  0  0  0
 44 49  1  0  0  0  0
 45 73  1  0  0  0  0
 46 49  1  0  0  0  0
 46 73  1  0  0  0  0
 47 77  1  0  0  0  0
 48 72  1  0  0  0  0
 49 70  1  0  0  0  0
 52 66  1  0  0  0  0
 53 67  1  0  0  0  0
 54 67  1  0  0  0  0
 55 68  1  0  0  0  0
 56 68  1  0  0  0  0
 57 68  1  0  0  0  0
 58 80  1  0  0  0  0
 59 61  1  0  0  0  0
 60 62  1  0  0  0  0
 61 64  1  0  0  0  0
 62 79  1  0  0  0  0
 63 67  1  0  0  0  0
 63 76  1  0  0  0  0
 64 87  1  0  0  0  0
 65 68  1  0  0  0  0
 65 78  1  0  0  0  0
 66 80  1  0  0  0  0
 69 70  1  0  0  0  0
M  CHG  2  71   1  80   1
M  ISO  4  37 100  64 101  79 100  87 101
M  END
> <Batch ID>
0097

> <Smiles>
CNC(C)C(=O)NC(C(=O)N1Cc2cc([101O:1][101CH2:1]CCc3c(C)nc(C)c(CC[100NH:0][100C:0](=O)N4CCCC(n5nc(-c6ccc(Oc7ccc(F)cc7F)cc6)c(C(N)=O)c5N)C4)c3NCC(C)C)ccc2CC1C(=O)NC1CCCc2ccccc21)C(C)(C)C

> <Shape>
0.185

> <Color>
0.081

> <Negative vol penalty>
0.000

$$$$

  -OEChem-04052319263D

 89 97  0     1  0  0  0  0  0999 V2000
  -31.0665  -28.7880   13.9282 C   0  0  0  0  0  0  0  0  0  0  0  0
  -30.5901  -27.5650   14.3892 C   0  0  0  0  0  0  0  0  0  0  0  0
  -23.0390   -9.9108   19.9363 C   0  0  0  0  0  0  0  0  0  0  0  0
  -23.8226   -9.8724   22.2214 C   0  0  0  0  0  0  0  0  0  0  0  0
  -31.1632  -29.8710   14.8010 C   0  0  0  0  0  0  0  0  0  0  0  0
  -30.2110  -27.4239   15.7237 C   0  0  0  0  0  0  0  0  0  0  0  0
  -25.8224  -24.9515   16.2457 C   0  0  0  0  0  0  0  0  0  0  0  0
  -22.2784   -8.7668   20.1779 C   0  0  0  0  0  0  0  0  0  0  0  0
  -23.0620   -8.7284   22.4630 C   0  0  0  0  0  0  0  0  0  0  0  0
  -25.8540  -23.5637   16.1154 C   0  0  0  0  0  0  0  0  0  0  0  0
  -19.8273   -7.9761   23.0884 C   0  0  0  0  0  0  0  0  0  0  0  0
  -19.0820   -7.9321   24.2666 C   0  0  0  0  0  0  0  0  0  0  0  0
  -25.8384  -23.3440   18.5177 C   0  0  0  0  0  0  0  0  0  0  0  0
  -20.2982   -5.9640   24.9626 C   0  0  0  0  0  0  0  0  0  0  0  0
  -28.4240  -17.9158   19.8291 C   0  0  0  0  0  0  0  0  0  0  0  0
  -23.8111  -10.4636   20.9580 C   0  0  0  0  0  0  0  0  0  0  0  0
  -24.1941  -12.9842   20.8699 C   0  0  0  0  0  0  0  0  0  0  0  0
  -30.7760  -29.7458   16.1445 C   0  0  0  0  0  0  0  0  0  0  0  0
  -25.8096  -25.5471   17.5151 C   0  0  0  0  0  0  0  0  0  0  0  0
  -30.3038  -28.5058   16.6156 C   0  0  0  0  0  0  0  0  0  0  0  0
  -25.8041  -24.7395   18.6613 C   0  0  0  0  0  0  0  0  0  0  0  0
  -27.1620  -18.4045   20.0855 C   0  0  0  0  0  0  0  0  0  0  0  0
  -27.2149  -19.0814   21.3288 C   0  0  0  0  0  0  0  0  0  0  0  0
  -22.2899   -8.1756   21.4412 C   0  0  0  0  0  0  0  0  0  0  0  0
  -25.8650  -22.7598   17.2515 C   0  0  0  0  0  0  0  0  0  0  0  0
  -20.8080   -7.0139   22.8473 C   0  0  0  0  0  0  0  0  0  0  0  0
  -19.3174   -6.9261   25.2037 C   0  0  0  0  0  0  0  0  0  0  0  0
  -21.0435   -6.0079   23.7843 C   0  0  0  0  0  0  0  0  0  0  0  0
  -24.5974  -11.6450   20.7089 C   0  0  0  0  0  0  0  0  0  0  0  0
  -28.5078  -18.9860   21.7944 C   0  0  0  0  0  0  0  0  0  0  0  0
  -25.2949  -13.7204   20.5057 C   0  0  0  0  0  0  0  0  0  0  0  0
  -22.9369  -13.5151   21.3095 C   0  0  0  0  0  0  0  0  0  0  0  0
  -27.7546  -27.5027   19.0951 C   0  0  0  0  0  0  0  0  0  0  0  0
  -25.3570  -27.4910   21.2800 C   0  0  0  0  0  0  0  0  0  0  0  0
  -22.6507  -25.8872   22.6029 C   0  0  0  0  0  0  0  0  0  0  0  0
  -30.7967  -14.6450   20.6502 C   0  0  0  0  0  0  0  0  0  0  0  0
  -30.9431  -30.9314   17.0616 C   0  0  0  0  0  0  0  0  0  0  0  0
  -25.7485  -27.0450   17.6384 C   0  0  0  0  0  0  0  0  0  0  0  0
  -25.7706  -25.3291   20.0468 C   0  0  0  0  0  0  0  0  0  0  0  0
  -30.1681  -30.8029   18.3705 C   0  0  0  0  0  0  0  0  0  0  0  0
  -29.5944  -12.3141   18.2423 C   0  0  0  0  0  0  0  0  0  0  0  0
  -30.3789  -29.4216   18.9823 C   0  0  0  0  0  0  0  0  0  0  0  0
  -28.1568  -12.0382   18.6863 C   0  0  0  0  0  0  0  0  0  0  0  0
  -30.5276  -12.5024   19.4364 C   0  0  0  0  0  0  0  0  0  0  0  0
  -28.6529  -13.2453   20.8532 C   0  0  0  0  0  0  0  0  0  0  0  0
  -29.8595  -28.3203   18.0502 C   0  0  1  0  0  0  0  0  0  0  0  0
  -26.2571  -27.5550   18.9832 C   0  0  1  0  0  0  0  0  0  0  0  0
  -27.6637  -13.1038   19.6836 C   0  0  2  0  0  0  0  0  0  0  0  0
  -26.0921  -19.7645   22.0040 C   0  0  0  0  0  0  0  0  0  0  0  0
  -20.9181  -26.1056   24.4051 C   0  0  0  0  0  0  0  0  0  0  0  0
  -32.5500  -22.9088   23.3391 C   0  0  0  0  0  0  0  0  0  0  0  0
  -31.2237  -25.0153   23.0817 C   0  0  0  0  0  0  0  0  0  0  0  0
  -27.4335  -26.6953   23.3693 C   0  0  0  0  0  0  0  0  0  0  0  0
  -25.5540  -26.0138   24.8763 C   0  0  0  0  0  0  0  0  0  0  0  0
  -25.7670  -28.3899   24.1474 C   0  0  0  0  0  0  0  0  0  0  0  0
  -20.4396  -25.9083   20.6358 C   0  0  0  0  0  0  0  0  0  0  0  0
  -25.9537  -18.2418   19.1982 C   0  0  0  0  0  0  0  0  0  0  0  0
  -29.1158  -19.5101   23.0357 C   0  0  0  0  0  0  0  0  0  0  0  0
  -25.9592  -19.1616   17.9753 C   0  0  0  0  0  0  0  0  0  0  0  0
  -30.1412  -23.0281   24.1730 C   0  0  0  0  0  0  0  0  0  0  0  0
  -30.6388  -17.9461   20.9743 C   0  0  0  0  0  0  0  0  0  0  0  0
  -30.9115  -16.7764   21.9164 C   0  0  0  0  0  0  0  0  0  0  0  0
  -29.9175  -21.5230   24.2785 C   0  0  0  0  0  0  0  0  0  0  0  0
  -25.9060  -20.6423   18.3332 C   0  0  0  0  0  0  0  0  0  1  0  0
  -25.0096  -26.6455   22.4814 C   0  0  1  0  0  0  0  0  0  0  0  0
  -21.2571  -26.3803   22.9483 C   0  0  2  0  0  0  0  0  0  0  0  0
  -31.1536  -23.4856   23.1044 C   0  0  0  0  0  0  0  0  0  0  0  0
  -25.9436  -26.9247   23.6926 C   0  0  0  0  0  0  0  0  0  0  0  0
  -25.8561  -11.5341   20.2760 N   0  0  0  0  0  0  0  0  0  0  0  0
  -29.2339  -18.2756   20.8744 N   0  0  0  0  0  0  0  0  0  0  0  0
  -26.2532  -12.8129   20.1617 N   0  0  0  0  0  0  0  0  0  0  0  0
  -25.7177  -26.7988   20.1152 N   0  0  0  0  0  0  0  0  0  0  0  0
  -30.0036  -13.5273   20.3425 N   0  0  0  0  0  0  0  0  0  0  0  0
  -25.5269  -15.0491   20.4491 N   0  0  0  0  0  0  0  0  0  0  0  0
  -21.9134  -12.6182   21.6447 N   0  0  0  0  0  0  0  0  0  0  0  0
  -28.4170  -28.2324   18.1265 N   0  0  0  0  0  0  0  0  0  0  0  0
  -23.5952  -26.8807   22.7509 N   0  0  0  0  0  0  0  0  0  0  0  0
  -30.2220  -15.5717   21.5115 N   0  0  0  0  0  0  0  0  0  0  0  0
  -20.2414  -25.7028   22.0937 N   0  3  0  0  0  0  0  0  0  0  0  0
  -29.3599  -20.9842   23.0132 N   0  3  0  0  0  0  0  0  0  0  0  0
  -22.7220  -14.7485   21.3866 O   0  0  0  0  0  0  0  0  0  0  0  0
  -28.2708  -26.8499   19.9945 O   0  0  0  0  0  0  0  0  0  0  0  0
  -25.3032  -28.7201   21.3695 O   0  0  0  0  0  0  0  0  0  0  0  0
  -22.8790  -24.7348   22.2419 O   0  0  0  0  0  0  0  0  0  0  0  0
  -31.9307  -14.8080   20.1870 O   0  0  0  0  0  0  0  0  0  0  0  0
  -21.5477   -7.0594   21.6774 O   0  0  0  0  0  0  0  0  0  0  0  0
  -25.8965  -21.4050   17.1273 O   0  0  0  0  0  0  0  0  0  1  0  0
  -18.6026   -6.8849   26.3358 F   0  0  0  0  0  0  0  0  0  0  0  0
  -21.9851   -5.0815   23.5587 F   0  0  0  0  0  0  0  0  0  0  0  0
  1  2  1  0  0  0  0
  1  5  2  0  0  0  0
  2  6  2  0  0  0  0
  3  8  2  0  0  0  0
  3 16  1  0  0  0  0
  4  9  1  0  0  0  0
  4 16  2  0  0  0  0
  5 18  1  0  0  0  0
  6 20  1  0  0  0  0
  7 10  2  0  0  0  0
  7 19  1  0  0  0  0
  8 24  1  0  0  0  0
  9 24  2  0  0  0  0
 10 25  1  0  0  0  0
 11 12  2  0  0  0  0
 11 26  1  0  0  0  0
 12 27  1  0  0  0  0
 13 21  1  0  0  0  0
 13 25  2  0  0  0  0
 14 27  2  0  0  0  0
 14 28  1  0  0  0  0
 15 22  2  0  0  0  0
 15 70  1  0  0  0  0
 16 29  1  0  0  0  0
 17 29  1  0  0  0  0
 17 31  2  0  0  0  0
 17 32  1  0  0  0  0
 18 20  2  0  0  0  0
 18 37  1  0  0  0  0
 19 21  2  0  0  0  0
 19 38  1  0  0  0  0
 20 46  1  0  0  0  0
 21 39  1  0  0  0  0
 22 23  1  0  0  0  0
 22 57  1  0  0  0  0
 23 30  2  0  0  0  0
 23 49  1  0  0  0  0
 24 86  1  0  0  0  0
 25 87  1  0  0  0  0
 26 28  2  0  0  0  0
 26 86  1  0  0  0  0
 27 88  1  0  0  0  0
 28 89  1  0  0  0  0
 29 69  2  0  0  0  0
 30 58  1  0  0  0  0
 30 70  1  0  0  0  0
 31 71  1  0  0  0  0
 31 74  1  0  0  0  0
 32 75  1  0  0  0  0
 32 81  2  0  0  0  0
 33 47  1  0  0  0  0
 33 76  1  0  0  0  0
 33 82  2  0  0  0  0
 34 65  1  0  0  0  0
 34 72  1  0  0  0  0
 34 83  2  0  0  0  0
 35 66  1  0  0  0  0
 35 77  1  0  0  0  0
 35 84  2  0  0  0  0
 36 73  1  0  0  0  0
 36 78  1  0  0  0  0
 36 85  2  0  0  0  0
 37 40  1  0  0  0  0
 38 47  1  0  0  0  0
 39 72  1  0  0  0  0
 40 42  1  0  0  0  0
 41 43  1  0  0  0  0
 41 44  1  0  0  0  0
 42 46  1  0  0  0  0
 43 48  1  0  0  0  0
 44 73  1  0  0  0  0
 45 48  1  0  0  0  0
 45 73  1  0  0  0  0
 46 76  1  0  0  0  0
 47 72  1  0  0  0  0
 48 71  1  0  0  0  0
 50 66  1  0  0  0  0
 51 67  1  0  0  0  0
 52 67  1  0  0  0  0
 53 68  1  0  0  0  0
 54 68  1  0  0  0  0
 55 68  1  0  0  0  0
 56 79  1  0  0  0  0
 57 59  1  0  0  0  0
 58 80  1  0  0  0  0
 59 64  1  0  0  0  0
 60 63  1  0  0  0  0
 60 67  1  0  0  0  0
 61 62  1  0  0  0  0
 61 70  1  0  0  0  0
 62 78  1  0  0  0  0
 63 80  1  0  0  0  0
 64 87  1  0  0  0  0
 65 68  1  0  0  0  0
 65 77  1  0  0  0  0
 66 79  1  0  0  0  0
 69 71  1  0  0  0  0
M  CHG  2  79   1  80   1
M  ISO  4  36 100  64 101  78 100  87 101
M  END
> <Batch ID>
0097

> <Smiles>
CNC(C)C(=O)NC(C(=O)N1Cc2cc([101O:1][101CH2:1]CCc3cn(CC[100NH:0][100C:0](=O)N4CCCC(n5nc(-c6ccc(Oc7ccc(F)cc7F)cc6)c(C(N)=O)c5N)C4)c(CNCCC(C)C)c3C)ccc2CC1C(=O)NC1CCCc2ccccc21)C(C)(C)C

> <Shape>
0.251

> <Color>
0.211

> <Negative vol penalty>
0.000

$$$$

  -OEChem-04052319263D

 85 92  0     1  0  0  0  0  0999 V2000
  -25.5160  -27.8703   18.7749 C   0  0  0  0  0  0  0  0  0  0  0  0
  -26.3768  -26.8338   19.1215 C   0  0  0  0  0  0  0  0  0  0  0  0
  -23.0484   -9.9106   19.9271 C   0  0  0  0  0  0  0  0  0  0  0  0
  -23.8348   -9.8633   22.2110 C   0  0  0  0  0  0  0  0  0  0  0  0
  -25.3727  -28.9686   19.6218 C   0  0  0  0  0  0  0  0  0  0  0  0
  -27.0957  -26.8956   20.3147 C   0  0  0  0  0  0  0  0  0  0  0  0
  -27.0208  -22.5164   22.8569 C   0  0  0  0  0  0  0  0  0  0  0  0
  -22.3161   -8.7456   20.1551 C   0  0  0  0  0  0  0  0  0  0  0  0
  -23.1024   -8.6983   22.4390 C   0  0  0  0  0  0  0  0  0  0  0  0
  -27.8680  -21.5046   22.4072 C   0  0  0  0  0  0  0  0  0  0  0  0
  -23.4116   -5.3944   21.7912 C   0  0  0  0  0  0  0  0  0  0  0  0
  -24.0430   -4.3554   22.4749 C   0  0  0  0  0  0  0  0  0  0  0  0
  -29.4451  -22.0608   24.1458 C   0  0  0  0  0  0  0  0  0  0  0  0
  -22.3602   -4.4710   24.2047 C   0  0  0  0  0  0  0  0  0  0  0  0
  -23.8078  -10.4695   20.9550 C   0  0  0  0  0  0  0  0  0  0  0  0
  -24.1294  -12.9995   20.8976 C   0  0  0  0  0  0  0  0  0  0  0  0
  -26.0830  -29.0394   20.8306 C   0  0  0  0  0  0  0  0  0  0  0  0
  -27.3850  -23.3165   23.9494 C   0  0  0  0  0  0  0  0  0  0  0  0
  -26.9628  -27.9965   21.1779 C   0  0  0  0  0  0  0  0  0  0  0  0
  -28.5996  -23.0805   24.6089 C   0  0  0  0  0  0  0  0  0  0  0  0
  -22.3431   -8.1394   21.4110 C   0  0  0  0  0  0  0  0  0  0  0  0
  -29.0817  -21.2785   23.0499 C   0  0  0  0  0  0  0  0  0  0  0  0
  -22.2545   -5.9718   22.3143 C   0  0  0  0  0  0  0  0  0  0  0  0
  -23.5173   -3.8937   23.6816 C   0  0  0  0  0  0  0  0  0  0  0  0
  -21.7289   -5.5101   23.5210 C   0  0  0  0  0  0  0  0  0  0  0  0
  -24.5650  -11.6726   20.7199 C   0  0  0  0  0  0  0  0  0  0  0  0
  -25.2117  -13.7666   20.5417 C   0  0  0  0  0  0  0  0  0  0  0  0
  -22.8601  -13.4943   21.3444 C   0  0  0  0  0  0  0  0  0  0  0  0
  -27.9398  -26.4177   24.3725 C   0  0  0  0  0  0  0  0  0  0  0  0
  -28.1589  -25.5549   27.4918 C   0  0  0  0  0  0  0  0  0  0  0  0
  -28.7647  -23.0992   29.7829 C   0  0  0  0  0  0  0  0  0  0  0  0
  -30.6895  -14.8228   20.6942 C   0  0  0  0  0  0  0  0  0  0  0  0
  -25.9312  -30.2688   21.6908 C   0  0  0  0  0  0  0  0  0  0  0  0
  -26.4479  -24.3864   24.4389 C   0  0  0  0  0  0  0  0  0  0  0  0
  -29.0279  -23.8982   25.7990 C   0  0  0  0  0  0  0  0  0  0  0  0
  -26.4451  -30.0822   23.1161 C   0  0  0  0  0  0  0  0  0  0  0  0
  -29.5421  -12.4930   18.2587 C   0  0  0  0  0  0  0  0  0  0  0  0
  -27.8150  -29.4114   23.1060 C   0  0  0  0  0  0  0  0  0  0  0  0
  -28.1120  -12.1769   18.7001 C   0  0  0  0  0  0  0  0  0  0  0  0
  -30.4714  -12.6893   19.4544 C   0  0  0  0  0  0  0  0  0  0  0  0
  -28.5805  -13.3690   20.8814 C   0  0  0  0  0  0  0  0  0  0  0  0
  -27.7411  -28.0154   22.4756 C   0  0  1  0  0  0  0  0  0  0  0  0
  -27.1523  -25.4769   25.2401 C   0  0  1  0  0  0  0  0  0  0  0  0
  -27.5941  -13.2179   19.7107 C   0  0  2  0  0  0  0  0  0  0  0  0
  -28.9080  -22.7053   32.2571 C   0  0  0  0  0  0  0  0  0  0  0  0
  -30.8849  -26.9244   27.5495 C   0  0  0  0  0  0  0  0  0  0  0  0
  -31.3746  -25.7053   29.6808 C   0  0  0  0  0  0  0  0  0  0  0  0
  -29.4757  -27.3197   29.5774 C   0  0  0  0  0  0  0  0  0  0  0  0
  -34.7534  -18.2367   25.5928 C   0  0  0  0  0  0  0  0  0  0  0  0
  -34.3320  -15.9521   24.6961 C   0  0  0  0  0  0  0  0  0  0  0  0
  -30.9994  -21.3573   20.8591 C   0  0  0  0  0  0  0  0  0  0  0  0
  -26.5586  -21.1275   29.7141 C   0  0  0  0  0  0  0  0  0  0  0  0
  -30.8560  -15.5835   26.8182 C   0  0  0  0  0  0  0  0  0  0  0  0
  -32.3469  -19.1265   23.5704 C   0  0  0  0  0  0  0  0  0  0  0  0
  -33.2924  -17.9182   23.5406 C   0  0  0  0  0  0  0  0  0  0  0  0
  -31.5855  -16.7441   23.2493 C   0  0  0  0  0  0  0  0  0  0  0  0
  -32.0991  -19.6597   22.1580 C   0  0  0  0  0  0  0  0  0  0  0  0
  -30.7537  -16.9406   21.9864 C   0  0  0  0  0  0  0  0  0  0  0  0
  -30.7460  -16.2569   24.4234 C   0  0  0  0  0  0  0  0  0  0  0  0
  -32.5005  -17.2167   25.9071 C   0  0  0  0  0  0  0  0  0  0  0  0
  -29.2748  -25.0928   28.3974 C   0  0  1  0  0  0  0  0  0  0  0  0
  -28.0097  -22.6769   31.0304 C   0  0  2  0  0  0  0  0  0  0  0  0
  -30.2456  -26.2462   28.7777 C   0  0  0  0  0  0  0  0  0  0  0  0
  -33.6897  -17.3378   24.9280 C   0  0  0  0  0  0  0  0  0  0  0  0
  -25.8256  -11.5976   20.2849 N   0  0  0  0  0  0  0  0  0  0  0  0
  -26.1914  -12.8869   20.1861 N   0  0  0  0  0  0  0  0  0  0  0  0
  -28.0801  -24.9367   26.2359 N   0  0  0  0  0  0  0  0  0  0  0  0
  -29.9235  -13.6900   20.3734 N   0  0  0  0  0  0  0  0  0  0  0  0
  -25.4113  -15.1011   20.5014 N   0  0  0  0  0  0  0  0  0  0  0  0
  -21.8590  -12.5688   21.6692 N   0  0  0  0  0  0  0  0  0  0  0  0
  -27.1836  -27.0657   23.4146 N   0  0  0  0  0  0  0  0  0  0  0  0
  -28.6340  -24.4501   29.5396 N   0  0  0  0  0  0  0  0  0  0  0  0
  -30.0933  -15.7246   21.5672 N   0  0  0  0  0  0  0  0  0  0  0  0
  -31.2142  -20.8219   22.2017 N   0  0  2  0  0  0  0  0  0  1  0  0
  -27.4766  -21.2944   30.8701 N   0  3  0  0  0  0  0  0  0  0  0  0
  -31.6456  -16.0403   25.6158 N   0  3  1  0  0  0  0  0  0  0  0  0
  -22.6154  -14.7211   21.4368 O   0  0  0  0  0  0  0  0  0  0  0  0
  -29.1439  -26.5471   24.5595 O   0  0  0  0  0  0  0  0  0  0  0  0
  -27.3812  -26.4271   27.8871 O   0  0  0  0  0  0  0  0  0  0  0  0
  -29.4092  -22.3103   29.0954 O   0  0  0  0  0  0  0  0  0  0  0  0
  -31.8188  -15.0189   20.2324 O   0  0  0  0  0  0  0  0  0  0  0  0
  -21.6284   -7.0027   21.6340 O   0  0  0  0  0  0  0  0  0  0  0  0
  -29.9108  -20.2920   22.6126 O   0  0  0  0  0  0  0  0  0  1  0  0
  -24.1229   -2.8949   24.3372 F   0  0  0  0  0  0  0  0  0  0  0  0
  -20.6169   -6.0600   24.0279 F   0  0  0  0  0  0  0  0  0  0  0  0
  1  2  1  0  0  0  0
  1  5  2  0  0  0  0
  2  6  2  0  0  0  0
  3  8  2  0  0  0  0
  3 15  1  0  0  0  0
  4  9  1  0  0  0  0
  4 15  2  0  0  0  0
  5 17  1  0  0  0  0
  6 19  1  0  0  0  0
  7 10  2  0  0  0  0
  7 18  1  0  0  0  0
  8 21  1  0  0  0  0
  9 21  2  0  0  0  0
 10 22  1  0  0  0  0
 11 12  2  0  0  0  0
 11 23  1  0  0  0  0
 12 24  1  0  0  0  0
 13 20  1  0  0  0  0
 13 22  2  0  0  0  0
 14 24  2  0  0  0  0
 14 25  1  0  0  0  0
 15 26  1  0  0  0  0
 16 26  1  0  0  0  0
 16 27  2  0  0  0  0
 16 28  1  0  0  0  0
 17 19  2  0  0  0  0
 17 33  1  0  0  0  0
 18 20  2  0  0  0  0
 18 34  1  0  0  0  0
 19 42  1  0  0  0  0
 20 35  1  0  0  0  0
 21 82  1  0  0  0  0
 22 83  1  0  0  0  0
 23 25  2  0  0  0  0
 23 82  1  0  0  0  0
 24 84  1  0  0  0  0
 25 85  1  0  0  0  0
 26 65  2  0  0  0  0
 27 66  1  0  0  0  0
 27 69  1  0  0  0  0
 28 70  1  0  0  0  0
 28 77  2  0  0  0  0
 29 43  1  0  0  0  0
 29 71  1  0  0  0  0
 29 78  2  0  0  0  0
 30 61  1  0  0  0  0
 30 67  1  0  0  0  0
 30 79  2  0  0  0  0
 31 62  1  0  0  0  0
 31 72  1  0  0  0  0
 31 80  2  0  0  0  0
 32 68  1  0  0  0  0
 32 73  1  0  0  0  0
 32 81  2  0  0  0  0
 33 36  1  0  0  0  0
 34 43  1  0  0  0  0
 35 67  1  0  0  0  0
 36 38  1  0  0  0  0
 37 39  1  0  0  0  0
 37 40  1  0  0  0  0
 38 42  1  0  0  0  0
 39 44  1  0  0  0  0
 40 68  1  0  0  0  0
 41 44  1  0  0  0  0
 41 68  1  0  0  0  0
 42 71  1  0  0  0  0
 43 67  1  0  0  0  0
 44 66  1  0  0  0  0
 45 62  1  0  0  0  0
 46 63  1  0  0  0  0
 47 63  1  0  0  0  0
 48 63  1  0  0  0  0
 49 64  1  0  0  0  0
 50 64  1  0  0  0  0
 51 74  1  0  0  0  0
 52 75  1  0  0  0  0
 53 76  1  0  0  0  0
 54 55  1  0  0  0  0
 54 57  1  0  0  0  0
 55 64  1  0  0  0  0
 56 58  1  0  0  0  0
 56 59  1  0  0  0  0
 57 74  1  0  0  0  0
 58 73  1  0  0  0  0
 59 76  1  0  0  0  0
 60 64  1  0  0  0  0
 60 76  1  0  0  0  0
 61 63  1  0  0  0  0
 61 72  1  0  0  0  0
 62 75  1  0  0  0  0
 65 66  1  0  0  0  0
 74 83  1  0  0  0  0
M  CHG  2  75   1  76   1
M  ISO  4  32 100  73 100  74 101  83 101
M  END
> <Batch ID>
0097

> <Smiles>
CNC(C)C(=O)NC(C(=O)N1Cc2cc([101O:1][101N:1](C)CCCC(C)(C)CN(C)CCC[100NH:0][100C:0](=O)N3CCCC(n4nc(-c5ccc(Oc6ccc(F)cc6F)cc5)c(C(N)=O)c4N)C3)ccc2CC1C(=O)NC1CCCc2ccccc21)C(C)(C)C

> <Shape>
0.229

> <Color>
0.220

> <Negative vol penalty>
0.000

$$$$

  -OEChem-04052319263D

 84 92  0     1  0  0  0  0  0999 V2000
  -20.7637  -13.6476   25.1641 C   0  0  0  0  0  0  0  0  0  0  0  0
  -21.9449  -12.9133   25.1308 C   0  0  0  0  0  0  0  0  0  0  0  0
  -23.2857   -9.8003   19.9135 C   0  0  0  0  0  0  0  0  0  0  0  0
  -23.7337   -9.9421   22.2834 C   0  0  0  0  0  0  0  0  0  0  0  0
  -20.5076  -14.5058   26.2327 C   0  0  0  0  0  0  0  0  0  0  0  0
  -22.8712  -13.0377   26.1656 C   0  0  0  0  0  0  0  0  0  0  0  0
  -26.4788   -8.6351   28.4259 C   0  0  0  0  0  0  0  0  0  0  0  0
  -22.5581   -8.6286   20.1211 C   0  0  0  0  0  0  0  0  0  0  0  0
  -23.0060   -8.7703   22.4910 C   0  0  0  0  0  0  0  0  0  0  0  0
  -27.8140   -8.3064   28.1959 C   0  0  0  0  0  0  0  0  0  0  0  0
  -20.8845   -5.4031   19.9829 C   0  0  0  0  0  0  0  0  0  0  0  0
  -21.1095   -4.3356   19.1138 C   0  0  0  0  0  0  0  0  0  0  0  0
  -30.3368  -11.6698   26.9104 C   0  0  0  0  0  0  0  0  0  0  0  0
  -30.1715  -12.5339   25.8000 C   0  0  0  0  0  0  0  0  0  0  0  0
  -28.4563   -9.5796   30.1416 C   0  0  0  0  0  0  0  0  0  0  0  0
  -23.4317   -4.2837   19.7787 C   0  0  0  0  0  0  0  0  0  0  0  0
  -23.8736  -10.4571   20.9947 C   0  0  0  0  0  0  0  0  0  0  0  0
  -24.1355  -12.9867   20.7948 C   0  0  0  0  0  0  0  0  0  0  0  0
  -21.4268  -14.6334   27.2859 C   0  0  0  0  0  0  0  0  0  0  0  0
  -26.1228   -9.4490   29.5110 C   0  0  0  0  0  0  0  0  0  0  0  0
  -22.6277  -13.8993   27.2487 C   0  0  0  0  0  0  0  0  0  0  0  0
  -27.1156   -9.9151   30.3846 C   0  0  0  0  0  0  0  0  0  0  0  0
  -22.4182   -8.1136   21.4099 C   0  0  0  0  0  0  0  0  0  0  0  0
  -28.8033   -8.7810   29.0521 C   0  0  0  0  0  0  0  0  0  0  0  0
  -21.9331   -5.9110   20.7499 C   0  0  0  0  0  0  0  0  0  0  0  0
  -22.3831   -3.7759   19.0117 C   0  0  0  0  0  0  0  0  0  0  0  0
  -23.2067   -5.3513   20.6478 C   0  0  0  0  0  0  0  0  0  0  0  0
  -24.6259  -11.6672   20.7808 C   0  0  0  0  0  0  0  0  0  0  0  0
  -31.5757  -11.0796   26.7914 C   0  0  0  0  0  0  0  0  0  0  0  0
  -31.3143  -12.4454   25.0361 C   0  0  0  0  0  0  0  0  0  0  0  0
  -25.2379  -13.7655   20.5407 C   0  0  0  0  0  0  0  0  0  0  0  0
  -22.8025  -13.4656   21.0176 C   0  0  0  0  0  0  0  0  0  0  0  0
  -24.7360  -12.2921   29.8226 C   0  0  0  0  0  0  0  0  0  0  0  0
  -24.8432  -11.5641   32.9818 C   0  0  0  0  0  0  0  0  0  0  0  0
  -26.3123   -9.7857   35.4969 C   0  0  0  0  0  0  0  0  0  0  0  0
  -31.1072  -12.9178   21.3681 C   0  0  0  0  0  0  0  0  0  0  0  0
  -21.1277  -15.6092   28.3963 C   0  0  0  0  0  0  0  0  0  0  0  0
  -24.6753   -9.7724   29.7608 C   0  0  0  0  0  0  0  0  0  0  0  0
  -26.7837  -10.7754   31.5755 C   0  0  0  0  0  0  0  0  0  0  0  0
  -21.9900  -15.4013   29.6387 C   0  0  0  0  0  0  0  0  0  0  0  0
  -29.4627  -13.6567   18.2978 C   0  0  0  0  0  0  0  0  0  0  0  0
  -23.4543  -15.2264   29.2490 C   0  0  0  0  0  0  0  0  0  0  0  0
  -27.9924  -13.3497   18.5873 C   0  0  0  0  0  0  0  0  0  0  0  0
  -30.3942  -12.6769   19.0079 C   0  0  0  0  0  0  0  0  0  0  0  0
  -28.7051  -12.2502   20.7510 C   0  0  0  0  0  0  0  0  0  0  0  0
  -23.6458  -13.9883   28.3648 C   0  0  1  0  0  0  0  0  0  0  0  0
  -24.4806  -11.0317   30.5997 C   0  0  1  0  0  0  0  0  0  0  0  0
  -27.7288  -13.2458   20.1015 C   0  0  2  0  0  0  0  0  0  0  0  0
  -34.6476  -13.0711   26.4247 C   0  0  0  0  0  0  0  0  0  0  0  0
  -26.2083   -9.4295   37.9788 C   0  0  0  0  0  0  0  0  0  0  0  0
  -33.3761  -10.4621   23.8137 C   0  0  0  0  0  0  0  0  0  0  0  0
  -26.2493  -14.2360   33.4218 C   0  0  0  0  0  0  0  0  0  0  0  0
  -26.9528  -13.4147   35.6798 C   0  0  0  0  0  0  0  0  0  0  0  0
  -24.5292  -13.6661   35.1454 C   0  0  0  0  0  0  0  0  0  0  0  0
  -25.6677   -6.9152   35.1748 C   0  0  0  0  0  0  0  0  0  0  0  0
  -32.2606  -10.0812   27.6902 C   0  0  0  0  0  0  0  0  0  0  0  0
  -31.6663  -13.1326   23.7765 C   0  0  0  0  0  0  0  0  0  0  0  0
  -34.4538  -12.3704   25.0859 C   0  0  0  0  0  0  0  0  0  0  0  0
  -31.9700   -8.6237   27.3259 C   0  0  0  0  0  0  0  0  0  0  0  0
  -30.5010   -8.2454   27.4752 C   0  0  0  0  0  0  0  0  0  1  0  0
  -25.8407  -11.7771   34.0948 C   0  0  1  0  0  0  0  0  0  0  0  0
  -25.7213   -8.9520   36.6195 C   0  0  2  0  0  0  0  0  0  0  0  0
  -33.4721  -11.1843   25.1618 C   0  0  1  0  0  0  0  0  0  0  0  0
  -25.8998  -13.2589   34.5620 C   0  0  0  0  0  0  0  0  0  0  0  0
  -25.9377  -11.6072   20.5369 N   0  0  0  0  0  0  0  0  0  0  0  0
  -32.1607  -11.5583   25.6482 N   0  0  0  0  0  0  0  0  0  0  0  0
  -26.2810  -12.8988   20.3952 N   0  0  0  0  0  0  0  0  0  0  0  0
  -25.3548  -11.0694   31.7738 N   0  0  0  0  0  0  0  0  0  0  0  0
  -30.0931  -12.6267   20.4407 N   0  0  0  0  0  0  0  0  0  0  0  0
  -25.4072  -15.1002   20.4296 N   0  0  0  0  0  0  0  0  0  0  0  0
  -21.7889  -12.5298   21.2645 N   0  0  0  0  0  0  0  0  0  0  0  0
  -23.6231  -12.7849   29.1684 N   0  0  0  0  0  0  0  0  0  0  0  0
  -25.4852  -10.8322   35.1479 N   0  0  0  0  0  0  0  0  0  0  0  0
  -30.7358  -12.8534   22.7055 N   0  0  0  0  0  0  0  0  0  0  0  0
  -26.1047   -7.5209   36.4590 N   0  3  0  0  0  0  0  0  0  0  0  0
  -22.5158  -14.6863   20.9822 O   0  0  0  0  0  0  0  0  0  0  0  0
  -25.8592  -12.7820   29.8181 O   0  0  0  0  0  0  0  0  0  0  0  0
  -23.6528  -11.8201   33.1794 O   0  0  0  0  0  0  0  0  0  0  0  0
  -27.4008   -9.5358   34.9837 O   0  0  0  0  0  0  0  0  0  0  0  0
  -32.2568  -13.2184   21.0291 O   0  0  0  0  0  0  0  0  0  0  0  0
  -21.7080   -6.9704   21.6129 O   0  0  0  0  0  0  0  0  0  0  0  0
  -30.1074   -8.4622   28.8296 O   0  0  0  0  0  0  0  0  0  1  0  0
  -22.5986   -2.7497   18.1782 F   0  0  0  0  0  0  0  0  0  0  0  0
  -24.2177   -5.8341   21.3829 F   0  0  0  0  0  0  0  0  0  0  0  0
  1  2  1  0  0  0  0
  1  5  2  0  0  0  0
  2  6  2  0  0  0  0
  3  8  2  0  0  0  0
  3 17  1  0  0  0  0
  4  9  1  0  0  0  0
  4 17  2  0  0  0  0
  5 19  1  0  0  0  0
  6 21  1  0  0  0  0
  7 10  2  0  0  0  0
  7 20  1  0  0  0  0
  8 23  1  0  0  0  0
  9 23  2  0  0  0  0
 10 24  1  0  0  0  0
 11 12  2  0  0  0  0
 11 25  1  0  0  0  0
 12 26  1  0  0  0  0
 13 14  1  0  0  0  0
 13 29  2  0  0  0  0
 14 30  2  0  0  0  0
 15 22  1  0  0  0  0
 15 24  2  0  0  0  0
 16 26  2  0  0  0  0
 16 27  1  0  0  0  0
 17 28  1  0  0  0  0
 18 28  1  0  0  0  0
 18 31  2  0  0  0  0
 18 32  1  0  0  0  0
 19 21  2  0  0  0  0
 19 37  1  0  0  0  0
 20 22  2  0  0  0  0
 20 38  1  0  0  0  0
 21 46  1  0  0  0  0
 22 39  1  0  0  0  0
 23 81  1  0  0  0  0
 24 82  1  0  0  0  0
 25 27  2  0  0  0  0
 25 81  1  0  0  0  0
 26 83  1  0  0  0  0
 27 84  1  0  0  0  0
 28 65  2  0  0  0  0
 29 56  1  0  0  0  0
 29 66  1  0  0  0  0
 30 57  1  0  0  0  0
 30 66  1  0  0  0  0
 31 67  1  0  0  0  0
 31 70  1  0  0  0  0
 32 71  1  0  0  0  0
 32 76  2  0  0  0  0
 33 47  1  0  0  0  0
 33 72  1  0  0  0  0
 33 77  2  0  0  0  0
 34 61  1  0  0  0  0
 34 68  1  0  0  0  0
 34 78  2  0  0  0  0
 35 62  1  0  0  0  0
 35 73  1  0  0  0  0
 35 79  2  0  0  0  0
 36 69  1  0  0  0  0
 36 74  1  0  0  0  0
 36 80  2  0  0  0  0
 37 40  1  0  0  0  0
 38 47  1  0  0  0  0
 39 68  1  0  0  0  0
 40 42  1  0  0  0  0
 41 43  1  0  0  0  0
 41 44  1  0  0  0  0
 42 46  1  0  0  0  0
 43 48  1  0  0  0  0
 44 69  1  0  0  0  0
 45 48  1  0  0  0  0
 45 69  1  0  0  0  0
 46 72  1  0  0  0  0
 47 68  1  0  0  0  0
 48 67  1  0  0  0  0
 49 58  1  0  0  0  0
 50 62  1  0  0  0  0
 51 63  1  0  0  0  0
 52 64  1  0  0  0  0
 53 64  1  0  0  0  0
 54 64  1  0  0  0  0
 55 75  1  0  0  0  0
 56 59  1  0  0  0  0
 57 74  1  0  0  0  0
 58 63  1  0  0  0  0
 59 60  1  0  0  0  0
 60 82  1  0  0  0  0
 61 64  1  0  0  0  0
 61 73  1  0  0  0  0
 62 75  1  0  0  0  0
 63 66  1  0  0  0  0
 65 67  1  0  0  0  0
M  CHG  1  75   1
M  ISO  4  36 100  60 101  74 100  82 101
M  END
> <Batch ID>
0097

> <Smiles>
CCC(C)n1c(CC[101CH2:1][101O:1]c2ccc3c(c2)CN(C(=O)C(NC(=O)C(C)NC)C(C)(C)C)C(C(=O)NC2CCCc4ccccc42)C3)ccc1C[100NH:0][100C:0](=O)N1CCCC(n2nc(-c3ccc(Oc4ccc(F)cc4F)cc3)c(C(N)=O)c2N)C1

> <Shape>
0.120

> <Color>
0.178

> <Negative vol penalty>
0.000

$$$$

  -OEChem-04052319263D

 85 93  0     1  0  0  0  0  0999 V2000
  -31.1179  -21.2130   17.1326 C   0  0  0  0  0  0  0  0  0  0  0  0
  -30.8307  -21.5493   18.4516 C   0  0  0  0  0  0  0  0  0  0  0  0
  -32.7693  -17.3808   21.1776 C   0  0  0  0  0  0  0  0  0  0  0  0
  -31.3509  -16.3542   22.8423 C   0  0  0  0  0  0  0  0  0  0  0  0
  -31.0439  -22.1841   16.1349 C   0  0  0  0  0  0  0  0  0  0  0  0
  -30.4704  -22.8573   18.7739 C   0  0  0  0  0  0  0  0  0  0  0  0
  -26.5067  -23.0616   21.9191 C   0  0  0  0  0  0  0  0  0  0  0  0
  -32.6064  -16.2680   20.3526 C   0  0  0  0  0  0  0  0  0  0  0  0
  -31.1879  -15.2414   22.0173 C   0  0  0  0  0  0  0  0  0  0  0  0
  -26.7499  -22.8040   23.2675 C   0  0  0  0  0  0  0  0  0  0  0  0
  -29.3630  -14.4040   19.2990 C   0  0  0  0  0  0  0  0  0  0  0  0
  -28.0742  -13.8912   19.1521 C   0  0  0  0  0  0  0  0  0  0  0  0
  -26.7550  -25.1748   23.7131 C   0  0  0  0  0  0  0  0  0  0  0  0
  -28.8142  -11.7738   20.0500 C   0  0  0  0  0  0  0  0  0  0  0  0
  -31.5835  -20.4853   29.9016 C   0  0  0  0  0  0  0  0  0  0  0  0
  -29.8177  -19.3862   30.6298 C   0  0  0  0  0  0  0  0  0  0  0  0
  -32.1416  -17.4239   22.4226 C   0  0  0  0  0  0  0  0  0  0  0  0
  -31.5106  -19.7312   23.3090 C   0  0  0  0  0  0  0  0  0  0  0  0
  -30.6730  -23.5024   16.4436 C   0  0  0  0  0  0  0  0  0  0  0  0
  -26.3964  -24.3802   21.4549 C   0  0  0  0  0  0  0  0  0  0  0  0
  -30.3926  -23.8472   17.7795 C   0  0  0  0  0  0  0  0  0  0  0  0
  -26.5078  -25.4463   22.3588 C   0  0  0  0  0  0  0  0  0  0  0  0
  -31.8157  -15.1983   20.7724 C   0  0  0  0  0  0  0  0  0  0  0  0
  -26.8770  -23.8608   24.1643 C   0  0  0  0  0  0  0  0  0  0  0  0
  -30.3775  -13.6016   19.8214 C   0  0  0  0  0  0  0  0  0  0  0  0
  -27.7998  -12.5762   19.5276 C   0  0  0  0  0  0  0  0  0  0  0  0
  -30.1031  -12.2866   20.1969 C   0  0  0  0  0  0  0  0  0  0  0  0
  -32.3100  -18.5729   23.2755 C   0  0  0  0  0  0  0  0  0  0  0  0
  -31.9112  -19.6301   30.9272 C   0  0  0  0  0  0  0  0  0  0  0  0
  -32.0826  -20.5151   24.2810 C   0  0  0  0  0  0  0  0  0  0  0  0
  -30.3544  -20.0684   22.5311 C   0  0  0  0  0  0  0  0  0  0  0  0
  -28.0125  -26.1725   19.3861 C   0  0  0  0  0  0  0  0  0  0  0  0
  -25.6329  -28.2993   19.9664 C   0  0  0  0  0  0  0  0  0  0  0  0
  -23.1952  -29.4145   22.0784 C   0  0  0  0  0  0  0  0  0  0  0  0
  -35.4549  -19.2635   29.0677 C   0  0  0  0  0  0  0  0  0  0  0  0
  -30.6527  -24.5284   15.3384 C   0  0  0  0  0  0  0  0  0  0  0  0
  -26.1073  -24.6404   20.0019 C   0  0  0  0  0  0  0  0  0  0  0  0
  -26.3774  -26.8795   21.9146 C   0  0  0  0  0  0  0  0  0  0  0  0
  -29.8993  -25.8043   15.7056 C   0  0  0  0  0  0  0  0  0  0  0  0
  -36.2939  -21.4215   26.3630 C   0  0  0  0  0  0  0  0  0  0  0  0
  -30.3146  -26.2896   17.0908 C   0  0  0  0  0  0  0  0  0  0  0  0
  -35.2959  -21.0407   25.2680 C   0  0  0  0  0  0  0  0  0  0  0  0
  -36.7390  -20.2035   27.1693 C   0  0  0  0  0  0  0  0  0  0  0  0
  -34.6415  -19.0212   26.6436 C   0  0  0  0  0  0  0  0  0  0  0  0
  -29.9740  -25.2495   18.1649 C   0  0  1  0  0  0  0  0  0  0  0  0
  -26.5252  -26.0364   19.5503 C   0  0  1  0  0  0  0  0  0  0  0  0
  -34.1207  -20.2248   25.8395 C   0  0  2  0  0  0  0  0  0  0  0  0
  -21.4399  -31.1947   22.2955 C   0  0  0  0  0  0  0  0  0  0  0  0
  -26.7160  -23.8638   29.0343 C   0  0  0  0  0  0  0  0  0  0  0  0
  -29.4700  -24.9928   28.0765 C   0  0  0  0  0  0  0  0  0  0  0  0
  -27.7950  -30.3464   20.6331 C   0  0  0  0  0  0  0  0  0  0  0  0
  -26.0331  -31.7465   21.7301 C   0  0  0  0  0  0  0  0  0  0  0  0
  -25.8858  -31.2451   19.2909 C   0  0  0  0  0  0  0  0  0  0  0  0
  -21.0174  -27.4145   22.2058 C   0  0  0  0  0  0  0  0  0  0  0  0
  -33.2311  -19.3999   31.5339 C   0  0  0  0  0  0  0  0  0  0  0  0
  -28.5763  -22.2078   29.2948 C   0  0  0  0  0  0  0  0  0  0  0  0
  -29.3765  -21.0337   28.7130 C   0  0  0  0  0  0  0  0  0  0  0  0
  -34.0516  -18.2802   30.8630 C   0  0  0  0  0  0  0  0  0  0  0  0
  -27.8589  -24.5930   26.2028 C   0  0  0  0  0  0  0  0  0  1  0  0
  -25.4118  -29.4102   20.9643 C   0  0  1  0  0  0  0  0  0  0  0  0
  -21.7410  -29.7765   21.8364 C   0  0  2  0  0  0  0  0  0  0  0  0
  -27.7712  -23.0482   28.2718 C   0  0  2  0  0  0  0  0  0  0  0  0
  -28.6579  -23.9264   27.3357 C   0  0  2  0  0  0  0  0  0  0  0  0
  -26.2859  -30.6602   20.6630 C   0  0  0  0  0  0  0  0  0  0  0  0
  -30.8076  -18.9487   31.3760 N   0  0  0  0  0  0  0  0  0  0  0  0
  -33.3134  -18.6133   24.1562 N   0  0  0  0  0  0  0  0  0  0  0  0
  -30.2394  -20.3176   29.7221 N   0  0  0  0  0  0  0  0  0  0  0  0
  -33.1485  -19.8065   24.7520 N   0  0  0  0  0  0  0  0  0  0  0  0
  -26.1011  -27.0827   20.4828 N   0  0  0  0  0  0  0  0  0  0  0  0
  -35.5774  -19.4745   27.6844 N   0  0  0  0  0  0  0  0  0  0  0  0
  -31.7728  -21.7347   24.7701 N   0  0  0  0  0  0  0  0  0  0  0  0
  -29.9003  -19.1487   21.5759 N   0  0  0  0  0  0  0  0  0  0  0  0
  -28.5613  -25.2888   18.4765 N   0  0  0  0  0  0  0  0  0  0  0  0
  -23.9767  -29.6723   20.9720 N   0  0  0  0  0  0  0  0  0  0  0  0
  -34.3211  -18.5695   29.4721 N   0  0  0  0  0  0  0  0  0  0  0  0
  -20.8448  -28.8430   22.5757 N   0  3  0  0  0  0  0  0  0  0  0  0
  -29.7518  -21.1601   22.6672 O   0  0  0  0  0  0  0  0  0  0  0  0
  -28.6173  -27.0176   20.0355 O   0  0  0  0  0  0  0  0  0  0  0  0
  -25.3921  -28.5011   18.7735 O   0  0  0  0  0  0  0  0  0  0  0  0
  -23.5983  -28.9528   23.1437 O   0  0  0  0  0  0  0  0  0  0  0  0
  -36.2910  -19.6685   29.8824 O   0  0  0  0  0  0  0  0  0  0  0  0
  -31.6563  -14.1124   19.9674 O   0  0  0  0  0  0  0  0  0  0  0  0
  -27.1151  -23.6123   25.4809 O   0  0  0  0  0  0  0  0  0  1  0  0
  -26.5617  -12.0844   19.3878 F   0  0  0  0  0  0  0  0  0  0  0  0
  -31.0732  -11.5114   20.7005 F   0  0  0  0  0  0  0  0  0  0  0  0
  1  2  1  0  0  0  0
  1  5  2  0  0  0  0
  2  6  2  0  0  0  0
  3  8  2  0  0  0  0
  3 17  1  0  0  0  0
  4  9  1  0  0  0  0
  4 17  2  0  0  0  0
  5 19  1  0  0  0  0
  6 21  1  0  0  0  0
  7 10  2  0  0  0  0
  7 20  1  0  0  0  0
  8 23  1  0  0  0  0
  9 23  2  0  0  0  0
 10 24  1  0  0  0  0
 11 12  2  0  0  0  0
 11 25  1  0  0  0  0
 12 26  1  0  0  0  0
 13 22  1  0  0  0  0
 13 24  2  0  0  0  0
 14 26  2  0  0  0  0
 14 27  1  0  0  0  0
 15 29  2  0  0  0  0
 15 67  1  0  0  0  0
 16 65  2  0  0  0  0
 16 67  1  0  0  0  0
 17 28  1  0  0  0  0
 18 28  1  0  0  0  0
 18 30  2  0  0  0  0
 18 31  1  0  0  0  0
 19 21  2  0  0  0  0
 19 36  1  0  0  0  0
 20 22  2  0  0  0  0
 20 37  1  0  0  0  0
 21 45  1  0  0  0  0
 22 38  1  0  0  0  0
 23 82  1  0  0  0  0
 24 83  1  0  0  0  0
 25 27  2  0  0  0  0
 25 82  1  0  0  0  0
 26 84  1  0  0  0  0
 27 85  1  0  0  0  0
 28 66  2  0  0  0  0
 29 55  1  0  0  0  0
 29 65  1  0  0  0  0
 30 68  1  0  0  0  0
 30 71  1  0  0  0  0
 31 72  1  0  0  0  0
 31 77  2  0  0  0  0
 32 46  1  0  0  0  0
 32 73  1  0  0  0  0
 32 78  2  0  0  0  0
 33 60  1  0  0  0  0
 33 69  1  0  0  0  0
 33 79  2  0  0  0  0
 34 61  1  0  0  0  0
 34 74  1  0  0  0  0
 34 80  2  0  0  0  0
 35 70  1  0  0  0  0
 35 75  1  0  0  0  0
 35 81  2  0  0  0  0
 36 39  1  0  0  0  0
 37 46  1  0  0  0  0
 38 69  1  0  0  0  0
 39 41  1  0  0  0  0
 40 42  1  0  0  0  0
 40 43  1  0  0  0  0
 41 45  1  0  0  0  0
 42 47  1  0  0  0  0
 43 70  1  0  0  0  0
 44 47  1  0  0  0  0
 44 70  1  0  0  0  0
 45 73  1  0  0  0  0
 46 69  1  0  0  0  0
 47 68  1  0  0  0  0
 48 61  1  0  0  0  0
 49 62  1  0  0  0  0
 50 63  1  0  0  0  0
 51 64  1  0  0  0  0
 52 64  1  0  0  0  0
 53 64  1  0  0  0  0
 54 76  1  0  0  0  0
 55 58  1  0  0  0  0
 56 57  1  0  0  0  0
 56 62  1  0  0  0  0
 57 67  1  0  0  0  0
 58 75  1  0  0  0  0
 59 63  1  0  0  0  0
 59 83  1  0  0  0  0
 60 64  1  0  0  0  0
 60 74  1  0  0  0  0
 61 76  1  0  0  0  0
 62 63  1  0  0  0  0
 66 68  1  0  0  0  0
M  CHG  1  76   1
M  ISO  4  35 100  59 101  75 100  83 101
M  END
> <Batch ID>
0097

> <Smiles>
CNC(C)C(=O)NC(C(=O)N1Cc2cc([101O:1][101CH2:1]C(C)C(C)CCn3cnc(CC[100NH:0][100C:0](=O)N4CCCC(n5nc(-c6ccc(Oc7ccc(F)cc7F)cc6)c(C(N)=O)c5N)C4)c3)ccc2CC1C(=O)NC1CCCc2ccccc21)C(C)(C)C

> <Shape>
0.187

> <Color>
0.073

> <Negative vol penalty>
0.000

$$$$

  -OEChem-04052319263D

 89 97  0     1  0  0  0  0  0999 V2000
  -22.1225  -30.9217   19.0994 C   0  0  0  0  0  0  0  0  0  0  0  0
  -21.7907  -29.5720   19.0405 C   0  0  0  0  0  0  0  0  0  0  0  0
  -30.1507  -19.6849   19.8740 C   0  0  0  0  0  0  0  0  0  0  0  0
  -27.9417  -19.8600   20.8368 C   0  0  0  0  0  0  0  0  0  0  0  0
  -23.3333  -31.3166   19.6670 C   0  0  0  0  0  0  0  0  0  0  0  0
  -22.6700  -28.6162   19.5482 C   0  0  0  0  0  0  0  0  0  0  0  0
  -21.1928  -23.3618   22.3259 C   0  0  0  0  0  0  0  0  0  0  0  0
  -30.0221  -20.9692   19.3454 C   0  0  0  0  0  0  0  0  0  0  0  0
  -27.8131  -21.1444   20.3082 C   0  0  0  0  0  0  0  0  0  0  0  0
  -21.1180  -22.0473   21.8676 C   0  0  0  0  0  0  0  0  0  0  0  0
  -30.2671  -24.1547   20.4524 C   0  0  0  0  0  0  0  0  0  0  0  0
  -31.3495  -25.0237   20.5900 C   0  0  0  0  0  0  0  0  0  0  0  0
  -23.3506  -21.6412   22.6860 C   0  0  0  0  0  0  0  0  0  0  0  0
  -22.1620  -16.8476   21.8984 C   0  0  0  0  0  0  0  0  0  0  0  0
  -31.5032  -25.2127   18.1863 C   0  0  0  0  0  0  0  0  0  0  0  0
  -29.1104  -19.1302   20.6197 C   0  0  0  0  0  0  0  0  0  0  0  0
  -29.7631  -17.4501   22.4250 C   0  0  0  0  0  0  0  0  0  0  0  0
  -24.2235  -30.3658   20.1906 C   0  0  0  0  0  0  0  0  0  0  0  0
  -22.3532  -23.8299   22.9591 C   0  0  0  0  0  0  0  0  0  0  0  0
  -23.8943  -28.9986   20.1220 C   0  0  0  0  0  0  0  0  0  0  0  0
  -23.4367  -22.9614   23.1538 C   0  0  0  0  0  0  0  0  0  0  0  0
  -23.0117  -17.7208   21.2285 C   0  0  0  0  0  0  0  0  0  0  0  0
  -23.6064  -17.3250   20.0356 C   0  0  0  0  0  0  0  0  0  0  0  0
  -28.8533  -21.6990   19.5624 C   0  0  0  0  0  0  0  0  0  0  0  0
  -22.1981  -21.1876   22.0450 C   0  0  0  0  0  0  0  0  0  0  0  0
  -29.8028  -23.8146   19.1818 C   0  0  0  0  0  0  0  0  0  0  0  0
  -31.9675  -25.5527   19.4569 C   0  0  0  0  0  0  0  0  0  0  0  0
  -30.4208  -24.3436   18.0487 C   0  0  0  0  0  0  0  0  0  0  0  0
  -29.2424  -17.8033   21.1656 C   0  0  0  0  0  0  0  0  0  0  0  0
  -21.9413  -15.5997   21.3382 C   0  0  0  0  0  0  0  0  0  0  0  0
  -23.3213  -16.0557   19.5589 C   0  0  0  0  0  0  0  0  0  0  0  0
  -29.6702  -16.0803   22.4630 C   0  0  0  0  0  0  0  0  0  0  0  0
  -30.2841  -18.2855   23.4672 C   0  0  0  0  0  0  0  0  0  0  0  0
  -24.4888  -26.1000   22.3352 C   0  0  0  0  0  0  0  0  0  0  0  0
  -25.6377  -25.2782   25.2553 C   0  0  0  0  0  0  0  0  0  0  0  0
  -25.9114  -22.9131   27.7003 C   0  0  0  0  0  0  0  0  0  0  0  0
  -26.1995  -11.7860   20.7229 C   0  0  0  0  0  0  0  0  0  0  0  0
  -25.5417  -30.8373   20.7516 C   0  0  0  0  0  0  0  0  0  0  0  0
  -22.4080  -25.2429   23.4717 C   0  0  0  0  0  0  0  0  0  0  0  0
  -24.6975  -23.4090   23.8455 C   0  0  0  0  0  0  0  0  0  0  0  0
  -26.2502  -29.7888   21.6054 C   0  0  0  0  0  0  0  0  0  0  0  0
  -29.2596  -12.5200   19.0574 C   0  0  0  0  0  0  0  0  0  0  0  0
  -26.2435  -28.4349   20.9028 C   0  0  0  0  0  0  0  0  0  0  0  0
  -29.6155  -13.9244   19.5483 C   0  0  0  0  0  0  0  0  0  0  0  0
  -27.7527  -12.3501   18.8774 C   0  0  0  0  0  0  0  0  0  0  0  0
  -27.3005  -14.1002   20.5527 C   0  0  0  0  0  0  0  0  0  0  0  0
  -24.8108  -27.9337   20.6845 C   0  0  1  0  0  0  0  0  0  0  0  0
  -23.8325  -25.7613   23.6437 C   0  0  1  0  0  0  0  0  0  0  0  0
  -28.8049  -14.3021   20.8027 C   0  0  2  0  0  0  0  0  0  0  0  0
  -23.2607  -14.3038   17.7661 C   0  0  0  0  0  0  0  0  0  0  0  0
  -24.6858  -20.2811   17.7992 C   0  0  0  0  0  0  0  0  0  0  0  0
  -19.5572  -14.8474   21.6276 C   0  0  0  0  0  0  0  0  0  0  0  0
  -26.9436  -22.5195   29.9535 C   0  0  0  0  0  0  0  0  0  0  0  0
  -28.3636  -24.8995   23.9377 C   0  0  0  0  0  0  0  0  0  0  0  0
  -29.0898  -23.6256   25.9670 C   0  0  0  0  0  0  0  0  0  0  0  0
  -28.4314  -26.0230   26.1710 C   0  0  0  0  0  0  0  0  0  0  0  0
  -23.2688  -22.5021   28.9678 C   0  0  0  0  0  0  0  0  0  0  0  0
  -24.5204  -18.2414   19.2938 C   0  0  0  0  0  0  0  0  0  0  0  0
  -23.2714  -19.0780   21.8131 C   0  0  0  0  0  0  0  0  0  1  0  0
  -23.9291  -15.5745   18.2818 C   0  0  0  0  0  0  0  0  0  0  0  0
  -23.7513  -19.3277   18.5269 C   0  0  0  0  0  0  0  0  0  0  0  0
  -24.6771  -11.3667   22.6375 C   0  0  0  0  0  0  0  0  0  0  0  0
  -23.2371  -11.4910   22.1757 C   0  0  0  0  0  0  0  0  0  0  0  0
  -21.4091  -13.1527   21.8075 C   0  0  0  0  0  0  0  0  0  0  0  0
  -21.0341  -14.6370   22.0288 C   0  0  1  0  0  0  0  0  0  0  0  0
  -26.6476  -24.2782   25.7641 C   0  0  1  0  0  0  0  0  0  0  0  0
  -25.7073  -22.9891   29.2026 C   0  0  2  0  0  0  0  0  0  0  0  0
  -28.1102  -24.6984   25.4452 C   0  0  0  0  0  0  0  0  0  0  0  0
  -28.8481  -16.7433   20.4550 N   0  0  0  0  0  0  0  0  0  0  0  0
  -22.5011  -15.1797   20.1815 N   0  0  0  0  0  0  0  0  0  0  0  0
  -29.1212  -15.7106   21.2705 N   0  0  0  0  0  0  0  0  0  0  0  0
  -24.7050  -24.8016   24.3232 N   0  0  0  0  0  0  0  0  0  0  0  0
  -27.0425  -12.7232   20.1031 N   0  0  0  0  0  0  0  0  0  0  0  0
  -30.0054  -15.1679   23.3999 N   0  0  0  0  0  0  0  0  0  0  0  0
  -30.3062  -19.6721   23.2639 N   0  0  0  0  0  0  0  0  0  0  0  0
  -24.2696  -27.3981   21.9152 N   0  0  0  0  0  0  0  0  0  0  0  0
  -26.3717  -24.1069   27.1864 N   0  0  0  0  0  0  0  0  0  0  0  0
  -25.5696  -12.2186   21.8835 N   0  0  0  0  0  0  0  0  0  0  0  0
  -24.5561  -22.1363   29.6128 N   0  3  0  0  0  0  0  0  0  0  0  0
  -22.7921  -12.9057   22.2905 N   0  3  0  0  0  0  0  0  0  0  0  0
  -30.7324  -17.8152   24.5403 O   0  0  0  0  0  0  0  0  0  0  0  0
  -25.1466  -25.2473   21.7506 O   0  0  0  0  0  0  0  0  0  0  0  0
  -25.6705  -26.4377   25.6749 O   0  0  0  0  0  0  0  0  0  0  0  0
  -25.6886  -21.8953   27.0485 O   0  0  0  0  0  0  0  0  0  0  0  0
  -26.0255  -10.6464   20.2781 O   0  0  0  0  0  0  0  0  0  0  0  0
  -28.7276  -22.9524   19.0469 O   0  0  0  0  0  0  0  0  0  0  0  0
  -22.1279  -19.9042   21.5979 O   0  0  0  0  0  0  0  0  0  1  0  0
  -33.0059  -26.3884   19.5892 F   0  0  0  0  0  0  0  0  0  0  0  0
  -29.9784  -24.0216   16.8255 F   0  0  0  0  0  0  0  0  0  0  0  0
  1  2  1  0  0  0  0
  1  5  2  0  0  0  0
  2  6  2  0  0  0  0
  3  8  2  0  0  0  0
  3 16  1  0  0  0  0
  4  9  1  0  0  0  0
  4 16  2  0  0  0  0
  5 18  1  0  0  0  0
  6 20  1  0  0  0  0
  7 10  2  0  0  0  0
  7 19  1  0  0  0  0
  8 24  1  0  0  0  0
  9 24  2  0  0  0  0
 10 25  1  0  0  0  0
 11 12  2  0  0  0  0
 11 26  1  0  0  0  0
 12 27  1  0  0  0  0
 13 21  1  0  0  0  0
 13 25  2  0  0  0  0
 14 22  2  0  0  0  0
 14 30  1  0  0  0  0
 15 27  2  0  0  0  0
 15 28  1  0  0  0  0
 16 29  1  0  0  0  0
 17 29  1  0  0  0  0
 17 32  2  0  0  0  0
 17 33  1  0  0  0  0
 18 20  2  0  0  0  0
 18 38  1  0  0  0  0
 19 21  2  0  0  0  0
 19 39  1  0  0  0  0
 20 47  1  0  0  0  0
 21 40  1  0  0  0  0
 22 23  1  0  0  0  0
 22 59  1  0  0  0  0
 23 31  2  0  0  0  0
 23 58  1  0  0  0  0
 24 86  1  0  0  0  0
 25 87  1  0  0  0  0
 26 28  2  0  0  0  0
 26 86  1  0  0  0  0
 27 88  1  0  0  0  0
 28 89  1  0  0  0  0
 29 69  2  0  0  0  0
 30 65  1  0  0  0  0
 30 70  2  0  0  0  0
 31 60  1  0  0  0  0
 31 70  1  0  0  0  0
 32 71  1  0  0  0  0
 32 74  1  0  0  0  0
 33 75  1  0  0  0  0
 33 81  2  0  0  0  0
 34 48  1  0  0  0  0
 34 76  1  0  0  0  0
 34 82  2  0  0  0  0
 35 66  1  0  0  0  0
 35 72  1  0  0  0  0
 35 83  2  0  0  0  0
 36 67  1  0  0  0  0
 36 77  1  0  0  0  0
 36 84  2  0  0  0  0
 37 73  1  0  0  0  0
 37 78  1  0  0  0  0
 37 85  2  0  0  0  0
 38 41  1  0  0  0  0
 39 48  1  0  0  0  0
 40 72  1  0  0  0  0
 41 43  1  0  0  0  0
 42 44  1  0  0  0  0
 42 45  1  0  0  0  0
 43 47  1  0  0  0  0
 44 49  1  0  0  0  0
 45 73  1  0  0  0  0
 46 49  1  0  0  0  0
 46 73  1  0  0  0  0
 47 76  1  0  0  0  0
 48 72  1  0  0  0  0
 49 71  1  0  0  0  0
 50 60  1  0  0  0  0
 51 61  1  0  0  0  0
 52 65  1  0  0  0  0
 53 67  1  0  0  0  0
 54 68  1  0  0  0  0
 55 68  1  0  0  0  0
 56 68  1  0  0  0  0
 57 79  1  0  0  0  0
 58 61  1  0  0  0  0
 59 87  1  0  0  0  0
 62 63  1  0  0  0  0
 62 78  1  0  0  0  0
 63 80  1  0  0  0  0
 64 65  1  0  0  0  0
 64 80  1  0  0  0  0
 66 68  1  0  0  0  0
 66 77  1  0  0  0  0
 67 79  1  0  0  0  0
 69 71  1  0  0  0  0
M  CHG  2  79   1  80   1
M  ISO  4  37 100  59 101  78 100  87 101
M  END
> <Batch ID>
0097

> <Smiles>
CCCc1c([101CH2:1][101O:1]c2ccc3c(c2)CN(C(=O)C(NC(=O)C(C)NC)C(C)(C)C)C(C(=O)NC2CCCc4ccccc42)C3)cc(C(C)CNCC[100NH:0][100C:0](=O)N2CCCC(n3nc(-c4ccc(Oc5ccc(F)cc5F)cc4)c(C(N)=O)c3N)C2)nc1CC

> <Shape>
0.205

> <Color>
0.058

> <Negative vol penalty>
0.000

$$$$

  -OEChem-04052319263D

 89 98  0     1  0  0  0  0  0999 V2000
  -24.2372  -37.9455   23.6183 C   0  0  0  0  0  0  0  0  0  0  0  0
  -23.6625  -36.6928   23.4292 C   0  0  0  0  0  0  0  0  0  0  0  0
  -28.1011  -23.6569   20.1013 C   0  0  0  0  0  0  0  0  0  0  0  0
  -24.5586   -9.8830   21.6804 C   0  0  0  0  0  0  0  0  0  0  0  0
  -24.7729  -11.1042   23.7540 C   0  0  0  0  0  0  0  0  0  0  0  0
  -25.2595  -38.3768   22.7739 C   0  0  0  0  0  0  0  0  0  0  0  0
  -24.1089  -35.8710   22.3949 C   0  0  0  0  0  0  0  0  0  0  0  0
  -24.5014  -29.7597   22.4564 C   0  0  0  0  0  0  0  0  0  0  0  0
  -24.2420   -8.7271   22.3938 C   0  0  0  0  0  0  0  0  0  0  0  0
  -24.4562   -9.9482   24.4675 C   0  0  0  0  0  0  0  0  0  0  0  0
  -23.6636  -28.7610   21.9621 C   0  0  0  0  0  0  0  0  0  0  0  0
  -21.5417   -7.4277   23.9601 C   0  0  0  0  0  0  0  0  0  0  0  0
  -20.4688   -6.6600   23.5074 C   0  0  0  0  0  0  0  0  0  0  0  0
  -26.9227  -24.2926   20.4630 C   0  0  0  0  0  0  0  0  0  0  0  0
  -24.9965  -28.6448   19.9548 C   0  0  0  0  0  0  0  0  0  0  0  0
  -27.2536  -20.1746   20.8902 C   0  0  0  0  0  0  0  0  0  0  0  0
  -21.9474   -4.7739   23.2014 C   0  0  0  0  0  0  0  0  0  0  0  0
  -28.2153  -22.2672   20.2443 C   0  0  0  0  0  0  0  0  0  0  0  0
  -24.8241  -11.0716   22.3605 C   0  0  0  0  0  0  0  0  0  0  0  0
  -24.2569  -13.2404   21.1429 C   0  0  0  0  0  0  0  0  0  0  0  0
  -25.7253  -37.5560   21.7348 C   0  0  0  0  0  0  0  0  0  0  0  0
  -25.5885  -30.2170   21.6977 C   0  0  0  0  0  0  0  0  0  0  0  0
  -25.1375  -36.2923   21.5350 C   0  0  0  0  0  0  0  0  0  0  0  0
  -25.8480  -29.6477   20.4428 C   0  0  0  0  0  0  0  0  0  0  0  0
  -27.1196  -21.5498   20.7562 C   0  0  0  0  0  0  0  0  0  0  0  0
  -24.1907   -8.7596   23.7874 C   0  0  0  0  0  0  0  0  0  0  0  0
  -23.9094  -28.2054   20.7099 C   0  0  0  0  0  0  0  0  0  0  0  0
  -22.8175   -6.8686   24.0334 C   0  0  0  0  0  0  0  0  0  0  0  0
  -20.6716   -5.3331   23.1280 C   0  0  0  0  0  0  0  0  0  0  0  0
  -23.0204   -5.5417   23.6541 C   0  0  0  0  0  0  0  0  0  0  0  0
  -25.1518  -12.2660   21.6241 C   0  0  0  0  0  0  0  0  0  0  0  0
  -25.8988  -23.5077   20.9565 C   0  0  0  0  0  0  0  0  0  0  0  0
  -29.3717  -21.5633   19.8997 C   0  0  0  0  0  0  0  0  0  0  0  0
  -28.4454  -19.5662   20.5201 C   0  0  0  0  0  0  0  0  0  0  0  0
  -25.0585  -14.1637   20.5173 C   0  0  0  0  0  0  0  0  0  0  0  0
  -22.8287  -13.3052   21.2519 C   0  0  0  0  0  0  0  0  0  0  0  0
  -26.4208  -33.0092   20.4272 C   0  0  0  0  0  0  0  0  0  0  0  0
  -29.1541  -31.4212   19.6992 C   0  0  0  0  0  0  0  0  0  0  0  0
  -30.7044  -28.4364   19.1215 C   0  0  0  0  0  0  0  0  0  0  0  0
  -29.6256  -17.3455   20.3715 C   0  0  0  0  0  0  0  0  0  0  0  0
  -26.8001  -38.0847   20.8183 C   0  0  0  0  0  0  0  0  0  0  0  0
  -26.4985  -31.2762   22.2566 C   0  0  0  0  0  0  0  0  0  0  0  0
  -27.0138  -30.0892   19.5976 C   0  0  0  0  0  0  0  0  0  0  0  0
  -27.4723  -37.0011   19.9791 C   0  0  0  0  0  0  0  0  0  0  0  0
  -29.9650  -13.9709   19.2879 C   0  0  0  0  0  0  0  0  0  0  0  0
  -26.4260  -36.0814   19.3576 C   0  0  0  0  0  0  0  0  0  0  0  0
  -28.6694  -13.3067   19.7595 C   0  0  0  0  0  0  0  0  0  0  0  0
  -30.4674  -15.0089   20.2898 C   0  0  0  0  0  0  0  0  0  0  0  0
  -28.1857  -15.3613   21.1494 C   0  0  0  0  0  0  0  0  0  0  0  0
  -25.6115  -35.3620   20.4396 C   0  0  1  0  0  0  0  0  0  0  0  0
  -27.2742  -32.0270   21.1786 C   0  0  1  0  0  0  0  0  0  0  0  0
  -27.6059  -14.3545   20.1425 C   0  0  2  0  0  0  0  0  0  0  0  0
  -31.6001  -23.3823   17.3246 C   0  0  0  0  0  0  0  0  0  0  0  0
  -32.9347  -27.4604   18.5125 C   0  0  0  0  0  0  0  0  0  0  0  0
  -21.3591  -25.0474   19.3499 C   0  0  0  0  0  0  0  0  0  0  0  0
  -28.7448  -32.2979   16.8055 C   0  0  0  0  0  0  0  0  0  0  0  0
  -30.4051  -30.5555   16.1159 C   0  0  0  0  0  0  0  0  0  0  0  0
  -31.1095  -32.4252   17.6095 C   0  0  0  0  0  0  0  0  0  0  0  0
  -30.8537  -26.9032   21.6486 C   0  0  0  0  0  0  0  0  0  0  0  0
  -24.5999  -24.1578   21.3629 C   0  0  0  0  0  0  0  0  0  0  0  0
  -30.5732  -22.2632   19.3493 C   0  0  0  0  0  0  0  0  0  0  0  0
  -30.3909  -22.6414   17.8731 C   0  0  0  0  0  0  0  0  0  0  0  0
  -23.5683  -24.2524   20.2301 C   0  0  0  0  0  0  0  0  0  0  0  0
  -22.4651  -26.3750   21.1786 C   0  0  0  0  0  0  0  0  0  1  0  0
  -29.6304  -30.5931   18.5303 C   0  0  1  0  0  0  0  0  0  0  0  0
  -32.0054  -27.8584   19.6486 C   0  0  2  0  0  0  0  0  0  0  0  0
  -22.2509  -24.9715   20.5958 C   0  0  1  0  0  0  0  0  0  0  0  0
  -29.9493  -31.4607   17.2802 C   0  0  0  0  0  0  0  0  0  0  0  0
  -25.9742  -22.1647   21.1078 N   0  0  0  0  0  0  0  0  0  0  0  0
  -26.4244  -12.5442   21.3293 N   0  0  0  0  0  0  0  0  0  0  0  0
  -29.5116  -20.2273   20.0268 N   0  0  0  0  0  0  0  0  0  0  0  0
  -26.3350  -13.7039   20.6561 N   0  0  0  0  0  0  0  0  0  0  0  0
  -27.8710  -31.1322   20.1849 N   0  0  0  0  0  0  0  0  0  0  0  0
  -29.4079  -15.9706   20.6020 N   0  0  0  0  0  0  0  0  0  0  0  0
  -24.7889  -15.3159   19.8675 N   0  0  0  0  0  0  0  0  0  0  0  0
  -22.1627  -12.2735   21.9274 N   0  0  0  0  0  0  0  0  0  0  0  0
  -28.5356  -18.1606   20.6751 N   0  0  0  0  0  0  0  0  0  0  0  0
  -26.3723  -34.2658   20.9999 N   0  0  0  0  0  0  0  0  0  0  0  0
  -30.7606  -29.8102   19.0184 N   0  0  0  0  0  0  0  0  0  0  0  0
  -31.7366  -26.6516   20.4806 N   0  3  0  0  0  0  0  0  0  0  0  0
  -22.1615  -14.2416   20.7504 O   0  0  0  0  0  0  0  0  0  0  0  0
  -25.8499  -32.6538   19.4028 O   0  0  0  0  0  0  0  0  0  0  0  0
  -29.8960  -32.2877   20.1687 O   0  0  0  0  0  0  0  0  0  0  0  0
  -29.7366  -27.7385   18.8269 O   0  0  0  0  0  0  0  0  0  0  0  0
  -30.6902  -17.7658   19.9111 O   0  0  0  0  0  0  0  0  0  0  0  0
  -23.8816   -7.6319   24.4839 O   0  0  0  0  0  0  0  0  0  0  0  0
  -23.0928  -27.2309   20.2247 O   0  0  0  0  0  0  0  0  0  1  0  0
  -19.6409   -4.5955   22.6947 F   0  0  0  0  0  0  0  0  0  0  0  0
  -24.2436   -4.9987   23.7235 F   0  0  0  0  0  0  0  0  0  0  0  0
  1  2  1  0  0  0  0
  1  6  2  0  0  0  0
  2  7  2  0  0  0  0
  3 14  2  0  0  0  0
  3 18  1  0  0  0  0
  4  9  2  0  0  0  0
  4 19  1  0  0  0  0
  5 10  1  0  0  0  0
  5 19  2  0  0  0  0
  6 21  1  0  0  0  0
  7 23  1  0  0  0  0
  8 11  2  0  0  0  0
  8 22  1  0  0  0  0
  9 26  1  0  0  0  0
 10 26  2  0  0  0  0
 11 27  1  0  0  0  0
 12 13  2  0  0  0  0
 12 28  1  0  0  0  0
 13 29  1  0  0  0  0
 14 32  1  0  0  0  0
 15 24  1  0  0  0  0
 15 27  2  0  0  0  0
 16 25  2  0  0  0  0
 16 34  1  0  0  0  0
 17 29  2  0  0  0  0
 17 30  1  0  0  0  0
 18 25  1  0  0  0  0
 18 33  2  0  0  0  0
 19 31  1  0  0  0  0
 20 31  1  0  0  0  0
 20 35  2  0  0  0  0
 20 36  1  0  0  0  0
 21 23  2  0  0  0  0
 21 41  1  0  0  0  0
 22 24  2  0  0  0  0
 22 42  1  0  0  0  0
 23 50  1  0  0  0  0
 24 43  1  0  0  0  0
 25 69  1  0  0  0  0
 26 86  1  0  0  0  0
 27 87  1  0  0  0  0
 28 30  2  0  0  0  0
 28 86  1  0  0  0  0
 29 88  1  0  0  0  0
 30 89  1  0  0  0  0
 31 70  2  0  0  0  0
 32 60  1  0  0  0  0
 32 69  2  0  0  0  0
 33 61  1  0  0  0  0
 33 71  1  0  0  0  0
 34 71  2  0  0  0  0
 34 77  1  0  0  0  0
 35 72  1  0  0  0  0
 35 75  1  0  0  0  0
 36 76  1  0  0  0  0
 36 81  2  0  0  0  0
 37 51  1  0  0  0  0
 37 78  1  0  0  0  0
 37 82  2  0  0  0  0
 38 65  1  0  0  0  0
 38 73  1  0  0  0  0
 38 83  2  0  0  0  0
 39 66  1  0  0  0  0
 39 79  1  0  0  0  0
 39 84  2  0  0  0  0
 40 74  1  0  0  0  0
 40 77  1  0  0  0  0
 40 85  2  0  0  0  0
 41 44  1  0  0  0  0
 42 51  1  0  0  0  0
 43 73  1  0  0  0  0
 44 46  1  0  0  0  0
 45 47  1  0  0  0  0
 45 48  1  0  0  0  0
 46 50  1  0  0  0  0
 47 52  1  0  0  0  0
 48 74  1  0  0  0  0
 49 52  1  0  0  0  0
 49 74  1  0  0  0  0
 50 78  1  0  0  0  0
 51 73  1  0  0  0  0
 52 72  1  0  0  0  0
 53 62  1  0  0  0  0
 54 66  1  0  0  0  0
 55 67  1  0  0  0  0
 56 68  1  0  0  0  0
 57 68  1  0  0  0  0
 58 68  1  0  0  0  0
 59 80  1  0  0  0  0
 60 63  1  0  0  0  0
 61 62  1  0  0  0  0
 63 67  1  0  0  0  0
 64 67  1  0  0  0  0
 64 87  1  0  0  0  0
 65 68  1  0  0  0  0
 65 79  1  0  0  0  0
 66 80  1  0  0  0  0
 70 72  1  0  0  0  0
M  CHG  1  80   1
M  ISO  4  40 100  64 101  77 100  87 101
M  END
> <Batch ID>
0097

> <Smiles>
CCCc1nc([100NH:0][100C:0](=O)N2CCCC(n3nc(-c4ccc(Oc5ccc(F)cc5F)cc4)c(C(N)=O)c3N)C2)cc2nc(CCC(C)[101CH2:1][101O:1]c3ccc4c(c3)CN(C(=O)C(NC(=O)C(C)NC)C(C)(C)C)C(C(=O)NC3CCCc5ccccc53)C4)ccc12

> <Shape>
0.272

> <Color>
0.117

> <Negative vol penalty>
0.000

$$$$

  -OEChem-04052319263D

 86 94  0     1  0  0  0  0  0999 V2000
  -28.5942  -25.2022   16.5734 C   0  0  0  0  0  0  0  0  0  0  0  0
  -27.4108  -25.2708   17.3016 C   0  0  0  0  0  0  0  0  0  0  0  0
  -30.6477  -15.9246   22.9398 C   0  0  0  0  0  0  0  0  0  0  0  0
  -29.9336  -17.1564   20.9879 C   0  0  0  0  0  0  0  0  0  0  0  0
  -29.7485  -25.8126   17.0621 C   0  0  0  0  0  0  0  0  0  0  0  0
  -27.3814  -25.9489   18.5197 C   0  0  0  0  0  0  0  0  0  0  0  0
  -23.3151  -28.9311   18.9852 C   0  0  0  0  0  0  0  0  0  0  0  0
  -31.2895  -14.9969   22.1195 C   0  0  0  0  0  0  0  0  0  0  0  0
  -30.5755  -16.2286   20.1676 C   0  0  0  0  0  0  0  0  0  0  0  0
  -22.1068  -28.3146   19.3075 C   0  0  0  0  0  0  0  0  0  0  0  0
  -31.7207  -13.9878   17.5452 C   0  0  0  0  0  0  0  0  0  0  0  0
  -31.0306  -13.5268   16.4242 C   0  0  0  0  0  0  0  0  0  0  0  0
  -22.3932  -28.9711   21.6110 C   0  0  0  0  0  0  0  0  0  0  0  0
  -29.2866  -12.6602   17.8541 C   0  0  0  0  0  0  0  0  0  0  0  0
  -22.4735  -24.1862   22.7529 C   0  0  0  0  0  0  0  0  0  0  0  0
  -21.0541  -22.5730   23.3835 C   0  0  0  0  0  0  0  0  0  0  0  0
  -29.9697  -17.0044   22.3740 C   0  0  0  0  0  0  0  0  0  0  0  0
  -29.8538  -19.1407   23.7635 C   0  0  0  0  0  0  0  0  0  0  0  0
  -29.7308  -26.5068   18.2822 C   0  0  0  0  0  0  0  0  0  0  0  0
  -24.0780  -29.5639   19.9771 C   0  0  0  0  0  0  0  0  0  0  0  0
  -28.5369  -26.5680   19.0259 C   0  0  0  0  0  0  0  0  0  0  0  0
  -23.6095  -29.5971   21.2983 C   0  0  0  0  0  0  0  0  0  0  0  0
  -22.8901  -23.0160   22.1576 C   0  0  0  0  0  0  0  0  0  0  0  0
  -21.9922  -21.9954   22.5566 C   0  0  0  0  0  0  0  0  0  0  0  0
  -31.2535  -15.1488   20.7334 C   0  0  0  0  0  0  0  0  0  0  0  0
  -21.6471  -28.3320   20.6211 C   0  0  0  0  0  0  0  0  0  0  0  0
  -31.1939  -13.7849   18.8208 C   0  0  0  0  0  0  0  0  0  0  0  0
  -29.8136  -12.8631   16.5785 C   0  0  0  0  0  0  0  0  0  0  0  0
  -29.9768  -13.1212   18.9752 C   0  0  0  0  0  0  0  0  0  0  0  0
  -29.3060  -17.9628   23.2208 C   0  0  0  0  0  0  0  0  0  0  0  0
  -28.8268  -19.6949   24.4878 C   0  0  0  0  0  0  0  0  0  0  0  0
  -31.1729  -19.6852   23.6251 C   0  0  0  0  0  0  0  0  0  0  0  0
  -26.9859  -29.1331   21.1863 C   0  0  0  0  0  0  0  0  0  0  0  0
  -26.3012  -31.8700   22.7873 C   0  0  0  0  0  0  0  0  0  0  0  0
  -23.9267  -33.9819   24.0316 C   0  0  0  0  0  0  0  0  0  0  0  0
  -22.8675  -19.2598   24.1033 C   0  0  0  0  0  0  0  0  0  0  0  0
  -31.0153  -27.1102   18.7927 C   0  0  0  0  0  0  0  0  0  0  0  0
  -25.3661  -30.2475   19.6083 C   0  0  0  0  0  0  0  0  0  0  0  0
  -24.3811  -30.2807   22.3963 C   0  0  0  0  0  0  0  0  0  0  0  0
  -30.8076  -28.1286   19.9107 C   0  0  0  0  0  0  0  0  0  0  0  0
  -24.8921  -18.4921   26.9296 C   0  0  0  0  0  0  0  0  0  0  0  0
  -29.8375  -27.5849   20.9547 C   0  0  0  0  0  0  0  0  0  0  0  0
  -26.3024  -18.3757   26.3486 C   0  0  0  0  0  0  0  0  0  0  0  0
  -23.8385  -17.9485   25.9672 C   0  0  0  0  0  0  0  0  0  0  0  0
  -25.2906  -18.4114   24.0304 C   0  0  0  0  0  0  0  0  0  0  0  0
  -28.4589  -27.3155   20.3394 C   0  0  1  0  0  0  0  0  0  0  0  0
  -26.3127  -30.4174   20.7925 C   0  0  1  0  0  0  0  0  0  0  0  0
  -26.3822  -18.9981   24.9416 C   0  0  2  0  0  0  0  0  0  0  0  0
  -23.6725  -36.1173   25.3249 C   0  0  0  0  0  0  0  0  0  0  0  0
  -25.7301  -22.3778   23.1329 C   0  0  0  0  0  0  0  0  0  0  0  0
  -26.5589  -23.1145   20.8892 C   0  0  0  0  0  0  0  0  0  0  0  0
  -17.9903  -26.4407   21.7990 C   0  0  0  0  0  0  0  0  0  0  0  0
  -27.0000  -30.3905   25.3627 C   0  0  0  0  0  0  0  0  0  0  0  0
  -25.8421  -32.2072   26.6383 C   0  0  0  0  0  0  0  0  0  0  0  0
  -27.8435  -32.7421   25.2488 C   0  0  0  0  0  0  0  0  0  0  0  0
  -22.5218  -35.3083   21.7897 C   0  0  0  0  0  0  0  0  0  0  0  0
  -24.0585  -22.8657   21.2676 C   0  0  0  0  0  0  0  0  0  0  0  0
  -22.0422  -20.5728   22.1657 C   0  0  0  0  0  0  0  0  0  0  0  0
  -19.2537  -25.3412   23.6650 C   0  0  0  0  0  0  0  0  0  0  0  0
  -20.5779  -24.9082   24.3094 C   0  0  0  0  0  0  0  0  0  0  0  0
  -20.3457  -27.1971   22.2564 C   0  0  0  0  0  0  0  0  0  1  0  0
  -25.6523  -32.2013   24.1095 C   0  0  1  0  0  0  0  0  0  0  0  0
  -23.7738  -35.4897   23.9434 C   0  0  2  0  0  0  0  0  0  0  0  0
  -25.4239  -23.2436   21.9082 C   0  0  0  0  0  0  0  0  0  0  0  0
  -19.3814  -26.0035   22.2754 C   0  0  2  0  0  0  0  0  0  0  0  0
  -26.5707  -31.8706   25.3197 C   0  0  0  0  0  0  0  0  0  0  0  0
  -28.0302  -17.7787   23.5706 N   0  0  0  0  0  0  0  0  0  0  0  0
  -21.3564  -23.9050   23.4955 N   0  0  0  0  0  0  0  0  0  0  0  0
  -27.7678  -18.8481   24.3410 N   0  0  0  0  0  0  0  0  0  0  0  0
  -25.6377  -30.9294   21.9868 N   0  0  0  0  0  0  0  0  0  0  0  0
  -23.9677  -18.5805   24.6519 N   0  0  0  0  0  0  0  0  0  0  0  0
  -28.7355  -20.8190   25.2298 N   0  0  0  0  0  0  0  0  0  0  0  0
  -32.1051  -18.9877   22.8448 N   0  0  0  0  0  0  0  0  0  0  0  0
  -27.7282  -28.5538   20.1749 N   0  0  0  0  0  0  0  0  0  0  0  0
  -25.2521  -33.6019   24.0282 N   0  0  0  0  0  0  0  0  0  0  0  0
  -23.0768  -19.8355   22.8561 N   0  0  0  0  0  0  0  0  0  0  0  0
  -22.5458  -35.8418   23.1760 N   0  3  0  0  0  0  0  0  0  0  0  0
  -31.5196  -20.7499   24.1903 O   0  0  0  0  0  0  0  0  0  0  0  0
  -26.8437  -28.7006   22.3241 O   0  0  0  0  0  0  0  0  0  0  0  0
  -27.3541  -32.4305   22.4732 O   0  0  0  0  0  0  0  0  0  0  0  0
  -22.9664  -33.2179   24.1006 O   0  0  0  0  0  0  0  0  0  0  0  0
  -21.7808  -19.3514   24.6845 O   0  0  0  0  0  0  0  0  0  0  0  0
  -31.8798  -14.2438   19.9327 O   0  0  0  0  0  0  0  0  0  0  0  0
  -20.4685  -27.7304   20.9385 O   0  0  0  0  0  0  0  0  0  1  0  0
  -29.1502  -12.4218   15.5018 F   0  0  0  0  0  0  0  0  0  0  0  0
  -29.4650  -12.9244   20.1979 F   0  0  0  0  0  0  0  0  0  0  0  0
  1  2  1  0  0  0  0
  1  5  2  0  0  0  0
  2  6  2  0  0  0  0
  3  8  2  0  0  0  0
  3 17  1  0  0  0  0
  4  9  1  0  0  0  0
  4 17  2  0  0  0  0
  5 19  1  0  0  0  0
  6 21  1  0  0  0  0
  7 10  2  0  0  0  0
  7 20  1  0  0  0  0
  8 25  1  0  0  0  0
  9 25  2  0  0  0  0
 10 26  1  0  0  0  0
 11 12  2  0  0  0  0
 11 27  1  0  0  0  0
 12 28  1  0  0  0  0
 13 22  1  0  0  0  0
 13 26  2  0  0  0  0
 14 28  2  0  0  0  0
 14 29  1  0  0  0  0
 15 23  2  0  0  0  0
 15 68  1  0  0  0  0
 16 24  2  0  0  0  0
 16 68  1  0  0  0  0
 17 30  1  0  0  0  0
 18 30  1  0  0  0  0
 18 31  2  0  0  0  0
 18 32  1  0  0  0  0
 19 21  2  0  0  0  0
 19 37  1  0  0  0  0
 20 22  2  0  0  0  0
 20 38  1  0  0  0  0
 21 46  1  0  0  0  0
 22 39  1  0  0  0  0
 23 24  1  0  0  0  0
 23 57  1  0  0  0  0
 24 58  1  0  0  0  0
 25 83  1  0  0  0  0
 26 84  1  0  0  0  0
 27 29  2  0  0  0  0
 27 83  1  0  0  0  0
 28 85  1  0  0  0  0
 29 86  1  0  0  0  0
 30 67  2  0  0  0  0
 31 69  1  0  0  0  0
 31 72  1  0  0  0  0
 32 73  1  0  0  0  0
 32 78  2  0  0  0  0
 33 47  1  0  0  0  0
 33 74  1  0  0  0  0
 33 79  2  0  0  0  0
 34 62  1  0  0  0  0
 34 70  1  0  0  0  0
 34 80  2  0  0  0  0
 35 63  1  0  0  0  0
 35 75  1  0  0  0  0
 35 81  2  0  0  0  0
 36 71  1  0  0  0  0
 36 76  1  0  0  0  0
 36 82  2  0  0  0  0
 37 40  1  0  0  0  0
 38 47  1  0  0  0  0
 39 70  1  0  0  0  0
 40 42  1  0  0  0  0
 41 43  1  0  0  0  0
 41 44  1  0  0  0  0
 42 46  1  0  0  0  0
 43 48  1  0  0  0  0
 44 71  1  0  0  0  0
 45 48  1  0  0  0  0
 45 71  1  0  0  0  0
 46 74  1  0  0  0  0
 47 70  1  0  0  0  0
 48 69  1  0  0  0  0
 49 63  1  0  0  0  0
 50 64  1  0  0  0  0
 51 64  1  0  0  0  0
 52 65  1  0  0  0  0
 53 66  1  0  0  0  0
 54 66  1  0  0  0  0
 55 66  1  0  0  0  0
 56 77  1  0  0  0  0
 57 64  1  0  0  0  0
 58 76  1  0  0  0  0
 59 60  1  0  0  0  0
 59 65  1  0  0  0  0
 60 68  1  0  0  0  0
 61 65  1  0  0  0  0
 61 84  1  0  0  0  0
 62 66  1  0  0  0  0
 62 75  1  0  0  0  0
 63 77  1  0  0  0  0
 67 69  1  0  0  0  0
M  CHG  1  77   1
M  ISO  4  36 100  61 101  76 100  84 101
M  END
> <Batch ID>
0097

> <Smiles>
CNC(C)C(=O)NC(C(=O)N1Cc2cc([101O:1][101CH2:1]C(C)CCn3cc(C[100NH:0][100C:0](=O)N4CCCC(n5nc(-c6ccc(Oc7ccc(F)cc7F)cc6)c(C(N)=O)c5N)C4)c(CC(C)C)c3)ccc2CC1C(=O)NC1CCCc2ccccc21)C(C)(C)C

> <Shape>
0.259

> <Color>
0.068

> <Negative vol penalty>
0.000

$$$$

  -OEChem-04052319263D

 86 94  0     1  0  0  0  0  0999 V2000
  -17.8590  -25.6808   22.6946 C   0  0  0  0  0  0  0  0  0  0  0  0
  -19.1924  -25.2847   22.6703 C   0  0  0  0  0  0  0  0  0  0  0  0
  -24.8774  -14.5099   21.5011 C   0  0  0  0  0  0  0  0  0  0  0  0
  -23.6595  -15.3144   19.5758 C   0  0  0  0  0  0  0  0  0  0  0  0
  -17.5079  -26.9680   22.2898 C   0  0  0  0  0  0  0  0  0  0  0  0
  -20.1754  -26.1752   22.2401 C   0  0  0  0  0  0  0  0  0  0  0  0
  -25.9106  -26.6236   24.3405 C   0  0  0  0  0  0  0  0  0  0  0  0
  -23.9942  -13.4359   21.6111 C   0  0  0  0  0  0  0  0  0  0  0  0
  -22.7763  -14.2403   19.6857 C   0  0  0  0  0  0  0  0  0  0  0  0
  -27.1248  -26.1296   23.8655 C   0  0  0  0  0  0  0  0  0  0  0  0
  -23.5081  -10.4467   20.1073 C   0  0  0  0  0  0  0  0  0  0  0  0
  -24.0510   -9.1811   20.3292 C   0  0  0  0  0  0  0  0  0  0  0  0
  -27.5513  -28.2404   22.7783 C   0  0  0  0  0  0  0  0  0  0  0  0
  -22.8187   -9.0156   22.4007 C   0  0  0  0  0  0  0  0  0  0  0  0
  -27.5449  -25.8219   18.5101 C   0  0  0  0  0  0  0  0  0  0  0  0
  -24.7100  -15.4492   20.4835 C   0  0  0  0  0  0  0  0  0  0  0  0
  -26.8190  -16.6036   19.6307 C   0  0  0  0  0  0  0  0  0  0  0  0
  -18.4882  -27.8780   21.8636 C   0  0  0  0  0  0  0  0  0  0  0  0
  -25.5020  -27.9282   24.0283 C   0  0  0  0  0  0  0  0  0  0  0  0
  -19.8369  -27.4753   21.8280 C   0  0  0  0  0  0  0  0  0  0  0  0
  -26.3327  -28.7494   23.2527 C   0  0  0  0  0  0  0  0  0  0  0  0
  -26.8966  -24.7251   17.9867 C   0  0  0  0  0  0  0  0  0  0  0  0
  -27.8019  -24.0765   17.1110 C   0  0  0  0  0  0  0  0  0  0  0  0
  -22.9437  -13.3011   20.7034 C   0  0  0  0  0  0  0  0  0  0  0  0
  -27.9440  -26.9371   23.0819 C   0  0  0  0  0  0  0  0  0  0  0  0
  -22.6206  -10.9968   21.0322 C   0  0  0  0  0  0  0  0  0  0  0  0
  -23.7062   -8.4656   21.4758 C   0  0  0  0  0  0  0  0  0  0  0  0
  -22.2759  -10.2813   22.1789 C   0  0  0  0  0  0  0  0  0  0  0  0
  -25.6217  -16.5592   20.3698 C   0  0  0  0  0  0  0  0  0  0  0  0
  -28.9760  -24.7967   17.1261 C   0  0  0  0  0  0  0  0  0  0  0  0
  -27.3097  -17.8680   19.8475 C   0  0  0  0  0  0  0  0  0  0  0  0
  -27.4327  -15.5923   18.8205 C   0  0  0  0  0  0  0  0  0  0  0  0
  -23.0473  -29.1939   22.4546 C   0  0  0  0  0  0  0  0  0  0  0  0
  -24.3136  -31.9874   23.5106 C   0  0  0  0  0  0  0  0  0  0  0  0
  -27.0580  -33.6919   24.6104 C   0  0  0  0  0  0  0  0  0  0  0  0
  -25.4756  -23.3123   20.5612 C   0  0  0  0  0  0  0  0  0  0  0  0
  -18.0550  -29.2430   21.3906 C   0  0  0  0  0  0  0  0  0  0  0  0
  -24.2018  -28.4552   24.5707 C   0  0  0  0  0  0  0  0  0  0  0  0
  -25.9493  -30.1641   22.9062 C   0  0  0  0  0  0  0  0  0  0  0  0
  -19.1997  -30.2492   21.3040 C   0  0  0  0  0  0  0  0  0  0  0  0
  -26.6018  -21.3354   23.2998 C   0  0  0  0  0  0  0  0  0  0  0  0
  -20.4055  -29.6273   20.6067 C   0  0  0  0  0  0  0  0  0  0  0  0
  -26.5752  -19.9064   22.7547 C   0  0  0  0  0  0  0  0  0  0  0  0
  -25.4419  -22.1678   22.7579 C   0  0  0  0  0  0  0  0  0  0  0  0
  -25.2995  -20.7565   20.7426 C   0  0  0  0  0  0  0  0  0  0  0  0
  -20.9349  -28.4208   21.3913 C   0  0  1  0  0  0  0  0  0  0  0  0
  -23.6476  -29.6247   23.7629 C   0  0  1  0  0  0  0  0  0  0  0  0
  -26.4819  -19.8944   21.2171 C   0  0  2  0  0  0  0  0  0  0  0  0
  -30.2442  -24.5688   16.4015 C   0  0  0  0  0  0  0  0  0  0  0  0
  -28.4629  -21.6769   16.7127 C   0  0  0  0  0  0  0  0  0  0  0  0
  -27.6222  -23.0870   14.7996 C   0  0  0  0  0  0  0  0  0  0  0  0
  -27.7910  -35.9716   25.3610 C   0  0  0  0  0  0  0  0  0  0  0  0
  -31.6759  -25.5651   21.4919 C   0  0  0  0  0  0  0  0  0  0  0  0
  -24.3072  -32.9411   20.6122 C   0  0  0  0  0  0  0  0  0  0  0  0
  -25.8815  -34.7686   21.2832 C   0  0  0  0  0  0  0  0  0  0  0  0
  -23.5968  -34.6648   22.2792 C   0  0  0  0  0  0  0  0  0  0  0  0
  -27.8270  -32.6906   27.2871 C   0  0  0  0  0  0  0  0  0  0  0  0
  -25.5119  -24.3116   18.2898 C   0  0  0  0  0  0  0  0  0  0  0  0
  -30.9460  -26.4250   19.2525 C   0  0  0  0  0  0  0  0  0  0  0  0
  -29.8423  -26.9057   18.3002 C   0  0  0  0  0  0  0  0  0  0  0  0
  -29.5976  -26.9779   21.3731 C   0  0  0  0  0  0  0  0  0  1  0  0
  -27.5380  -22.8534   16.3253 C   0  0  0  0  0  0  0  0  0  0  0  0
  -25.3333  -32.9667   22.9813 C   0  0  1  0  0  0  0  0  0  0  0  0
  -27.2613  -34.6148   25.7984 C   0  0  2  0  0  0  0  0  0  0  0  0
  -30.4594  -25.9433   20.6371 C   0  0  2  0  0  0  0  0  0  0  0  0
  -24.7863  -33.8080   21.7937 C   0  0  0  0  0  0  0  0  0  0  0  0
  -25.3673  -17.7043   21.0085 N   0  0  0  0  0  0  0  0  0  0  0  0
  -28.8084  -25.8552   17.9802 N   0  0  0  0  0  0  0  0  0  0  0  0
  -26.4116  -18.4801   20.6715 N   0  0  0  0  0  0  0  0  0  0  0  0
  -24.6654  -30.6314   23.4548 N   0  0  0  0  0  0  0  0  0  0  0  0
  -25.4107  -22.1159   21.2943 N   0  0  0  0  0  0  0  0  0  0  0  0
  -28.4175  -18.5047   19.4119 N   0  0  0  0  0  0  0  0  0  0  0  0
  -26.7947  -14.3497   18.7058 N   0  0  0  0  0  0  0  0  0  0  0  0
  -21.7087  -28.8602   22.5326 N   0  0  0  0  0  0  0  0  0  0  0  0
  -25.7691  -33.7604   24.1252 N   0  0  0  0  0  0  0  0  0  0  0  0
  -25.4467  -23.1732   19.1790 N   0  0  0  0  0  0  0  0  0  0  0  0
  -28.2332  -34.0178   26.7577 N   0  3  0  0  0  0  0  0  0  0  0  0
  -28.5232  -15.7794   18.2294 O   0  0  0  0  0  0  0  0  0  0  0  0
  -23.7465  -29.1676   21.4486 O   0  0  0  0  0  0  0  0  0  0  0  0
  -23.2471  -32.4106   23.9636 O   0  0  0  0  0  0  0  0  0  0  0  0
  -27.9540  -32.9841   24.1558 O   0  0  0  0  0  0  0  0  0  0  0  0
  -25.5589  -24.4219   21.0986 O   0  0  0  0  0  0  0  0  0  0  0  0
  -22.0819  -12.2531   20.8102 O   0  0  0  0  0  0  0  0  0  0  0  0
  -29.1293  -26.4572   22.6164 O   0  0  0  0  0  0  0  0  0  1  0  0
  -24.2264   -7.2496   21.6879 F   0  0  0  0  0  0  0  0  0  0  0  0
  -21.4228  -10.8040   23.0704 F   0  0  0  0  0  0  0  0  0  0  0  0
  1  2  1  0  0  0  0
  1  5  2  0  0  0  0
  2  6  2  0  0  0  0
  3  8  2  0  0  0  0
  3 16  1  0  0  0  0
  4  9  1  0  0  0  0
  4 16  2  0  0  0  0
  5 18  1  0  0  0  0
  6 20  1  0  0  0  0
  7 10  2  0  0  0  0
  7 19  1  0  0  0  0
  8 24  1  0  0  0  0
  9 24  2  0  0  0  0
 10 25  1  0  0  0  0
 11 12  2  0  0  0  0
 11 26  1  0  0  0  0
 12 27  1  0  0  0  0
 13 21  1  0  0  0  0
 13 25  2  0  0  0  0
 14 27  2  0  0  0  0
 14 28  1  0  0  0  0
 15 22  2  0  0  0  0
 15 68  1  0  0  0  0
 16 29  1  0  0  0  0
 17 29  1  0  0  0  0
 17 31  2  0  0  0  0
 17 32  1  0  0  0  0
 18 20  2  0  0  0  0
 18 37  1  0  0  0  0
 19 21  2  0  0  0  0
 19 38  1  0  0  0  0
 20 46  1  0  0  0  0
 21 39  1  0  0  0  0
 22 23  1  0  0  0  0
 22 58  1  0  0  0  0
 23 30  2  0  0  0  0
 23 62  1  0  0  0  0
 24 83  1  0  0  0  0
 25 84  1  0  0  0  0
 26 28  2  0  0  0  0
 26 83  1  0  0  0  0
 27 85  1  0  0  0  0
 28 86  1  0  0  0  0
 29 67  2  0  0  0  0
 30 49  1  0  0  0  0
 30 68  1  0  0  0  0
 31 69  1  0  0  0  0
 31 72  1  0  0  0  0
 32 73  1  0  0  0  0
 32 78  2  0  0  0  0
 33 47  1  0  0  0  0
 33 74  1  0  0  0  0
 33 79  2  0  0  0  0
 34 63  1  0  0  0  0
 34 70  1  0  0  0  0
 34 80  2  0  0  0  0
 35 64  1  0  0  0  0
 35 75  1  0  0  0  0
 35 81  2  0  0  0  0
 36 71  1  0  0  0  0
 36 76  1  0  0  0  0
 36 82  2  0  0  0  0
 37 40  1  0  0  0  0
 38 47  1  0  0  0  0
 39 70  1  0  0  0  0
 40 42  1  0  0  0  0
 41 43  1  0  0  0  0
 41 44  1  0  0  0  0
 42 46  1  0  0  0  0
 43 48  1  0  0  0  0
 44 71  1  0  0  0  0
 45 48  1  0  0  0  0
 45 71  1  0  0  0  0
 46 74  1  0  0  0  0
 47 70  1  0  0  0  0
 48 69  1  0  0  0  0
 50 62  1  0  0  0  0
 51 62  1  0  0  0  0
 52 64  1  0  0  0  0
 53 65  1  0  0  0  0
 54 66  1  0  0  0  0
 55 66  1  0  0  0  0
 56 66  1  0  0  0  0
 57 77  1  0  0  0  0
 58 76  1  0  0  0  0
 59 60  1  0  0  0  0
 59 65  1  0  0  0  0
 60 68  1  0  0  0  0
 61 65  1  0  0  0  0
 61 84  1  0  0  0  0
 63 66  1  0  0  0  0
 63 75  1  0  0  0  0
 64 77  1  0  0  0  0
 67 69  1  0  0  0  0
M  CHG  1  77   1
M  ISO  4  36 100  61 101  76 100  84 101
M  END
> <Batch ID>
0097

> <Smiles>
CNC(C)C(=O)NC(C(=O)N1Cc2cc([101O:1][101CH2:1]C(C)CCn3cc(C[100NH:0][100C:0](=O)N4CCCC(n5nc(-c6ccc(Oc7ccc(F)cc7F)cc6)c(C(N)=O)c5N)C4)c(C(C)C)c3C)ccc2CC1C(=O)NC1CCCc2ccccc21)C(C)(C)C

> <Shape>
0.246

> <Color>
0.068

> <Negative vol penalty>
0.000

$$$$

  -OEChem-04052319263D

 83 91  0     1  0  0  0  0  0999 V2000
  -29.5016  -11.5925   19.6559 C   0  0  0  0  0  0  0  0  0  0  0  0
  -29.5247  -12.3833   20.8002 C   0  0  0  0  0  0  0  0  0  0  0  0
  -26.4283  -24.9225   19.9854 C   0  0  0  0  0  0  0  0  0  0  0  0
  -28.2412  -26.1431   18.9555 C   0  0  0  0  0  0  0  0  0  0  0  0
  -28.7630  -11.9975   18.5449 C   0  0  0  0  0  0  0  0  0  0  0  0
  -28.8100  -13.5801   20.8339 C   0  0  0  0  0  0  0  0  0  0  0  0
  -25.1805  -17.7899   25.3529 C   0  0  0  0  0  0  0  0  0  0  0  0
  -27.0459  -23.7188   19.6459 C   0  0  0  0  0  0  0  0  0  0  0  0
  -28.8588  -24.9394   18.6160 C   0  0  0  0  0  0  0  0  0  0  0  0
  -25.1219  -19.1167   25.7772 C   0  0  0  0  0  0  0  0  0  0  0  0
  -29.5855  -21.8091   20.8020 C   0  0  0  0  0  0  0  0  0  0  0  0
  -29.6477  -20.8146   21.7780 C   0  0  0  0  0  0  0  0  0  0  0  0
  -23.8172  -19.6765   23.8269 C   0  0  0  0  0  0  0  0  0  0  0  0
  -28.3878  -19.3310   20.3466 C   0  0  0  0  0  0  0  0  0  0  0  0
  -27.0260  -26.1347   19.6402 C   0  0  0  0  0  0  0  0  0  0  0  0
  -25.1142  -27.8229   19.5889 C   0  0  0  0  0  0  0  0  0  0  0  0
  -28.0310  -13.1952   18.5684 C   0  0  0  0  0  0  0  0  0  0  0  0
  -24.5661  -17.3980   24.1548 C   0  0  0  0  0  0  0  0  0  0  0  0
  -28.0619  -14.0022   19.7217 C   0  0  0  0  0  0  0  0  0  0  0  0
  -23.8672  -18.3436   23.3909 C   0  0  0  0  0  0  0  0  0  0  0  0
  -28.2611  -23.7272   18.9612 C   0  0  0  0  0  0  0  0  0  0  0  0
  -24.4426  -20.0608   25.0127 C   0  0  0  0  0  0  0  0  0  0  0  0
  -28.9243  -21.5647   19.5983 C   0  0  0  0  0  0  0  0  0  0  0  0
  -29.0489  -19.5756   21.5503 C   0  0  0  0  0  0  0  0  0  0  0  0
  -28.3255  -20.3256   19.3706 C   0  0  0  0  0  0  0  0  0  0  0  0
  -26.3883  -27.3785   19.9901 C   0  0  0  0  0  0  0  0  0  0  0  0
  -24.9768  -29.0534   20.1835 C   0  0  0  0  0  0  0  0  0  0  0  0
  -24.1418  -27.1809   18.7536 C   0  0  0  0  0  0  0  0  0  0  0  0
  -25.5878  -16.1675   21.4079 C   0  0  0  0  0  0  0  0  0  0  0  0
  -22.4145  -15.9741   20.7635 C   0  0  0  0  0  0  0  0  0  0  0  0
  -19.4999  -18.0472   21.2379 C   0  0  0  0  0  0  0  0  0  0  0  0
  -27.9018  -31.2561   25.0959 C   0  0  0  0  0  0  0  0  0  0  0  0
  -27.2855  -13.6148   17.3263 C   0  0  0  0  0  0  0  0  0  0  0  0
  -24.6157  -15.9576   23.7245 C   0  0  0  0  0  0  0  0  0  0  0  0
  -23.1736  -17.9699   22.1073 C   0  0  0  0  0  0  0  0  0  0  0  0
  -26.2535  -14.7115   17.5766 C   0  0  0  0  0  0  0  0  0  0  0  0
  -27.5322  -32.7784   21.7421 C   0  0  0  0  0  0  0  0  0  0  0  0
  -26.8533  -15.8239   18.4309 C   0  0  0  0  0  0  0  0  0  0  0  0
  -26.2942  -25.6628   24.1150 C   0  0  0  0  0  0  0  0  0  0  0  0
  -25.3340  -24.5391   23.7299 C   0  0  0  0  0  0  0  0  0  0  0  0
  -27.1578  -31.5800   20.8718 C   0  0  0  0  0  0  0  0  0  0  0  0
  -24.4127  -26.7934   25.5058 C   0  0  0  0  0  0  0  0  0  0  0  0
  -24.0270  -24.3131   25.9412 C   0  0  0  0  0  0  0  0  0  0  0  0
  -28.3777  -32.3652   22.9430 C   0  0  0  0  0  0  0  0  0  0  0  0
  -27.3845  -30.1011   22.9070 C   0  0  0  0  0  0  0  0  0  0  0  0
  -27.2795  -15.2948   19.8056 C   0  0  1  0  0  0  0  0  0  0  0  0
  -24.3913  -15.7733   22.2269 C   0  0  1  0  0  0  0  0  0  0  0  0
  -25.6219  -26.9622   24.5767 C   0  0  1  0  0  0  0  0  0  0  0  0
  -24.9559  -23.6445   24.9212 C   0  0  1  0  0  0  0  0  0  0  0  0
  -26.4933  -30.4768   21.7136 C   0  0  2  0  0  0  0  0  0  0  0  0
  -24.5017  -25.6481   26.5079 C   0  0  2  0  0  0  0  0  0  0  0  0
  -17.0804  -17.4287   21.4845 C   0  0  0  0  0  0  0  0  0  0  0  0
  -22.2878  -16.4396   17.7507 C   0  0  0  0  0  0  0  0  0  0  0  0
  -20.0261  -17.4634   18.0743 C   0  0  0  0  0  0  0  0  0  0  0  0
  -20.4085  -15.0727   18.6750 C   0  0  0  0  0  0  0  0  0  0  0  0
  -27.3951  -30.1456   27.2382 C   0  0  0  0  0  0  0  0  0  0  0  0
  -19.2702  -19.5007   23.8057 C   0  0  0  0  0  0  0  0  0  0  0  0
  -26.6729  -27.8747   25.2210 C   0  0  0  0  0  0  0  0  0  0  0  0
  -24.2979  -22.3568   24.4102 C   0  0  0  0  0  0  0  0  0  1  0  0
  -26.2571  -29.3363   25.2046 C   0  0  0  0  0  0  0  0  0  0  0  0
  -21.3943  -16.8895   20.1309 C   0  0  1  0  0  0  0  0  0  0  0  0
  -18.3615  -17.8052   22.2125 C   0  0  2  0  0  0  0  0  0  0  0  0
  -21.0518  -16.4766   18.6716 C   0  0  0  0  0  0  0  0  0  0  0  0
  -27.0157  -28.2554   20.7785 N   0  0  0  0  0  0  0  0  0  0  0  0
  -26.1321  -29.2632   20.8774 N   0  0  0  0  0  0  0  0  0  0  0  0
  -23.2559  -16.5504   21.7256 N   0  0  0  0  0  0  0  0  0  0  0  0
  -27.7433  -31.2860   23.7006 N   0  0  0  0  0  0  0  0  0  0  0  0
  -23.9817  -29.9656   20.1752 N   0  0  0  0  0  0  0  0  0  0  0  0
  -24.4442  -25.9186   18.2249 N   0  0  0  0  0  0  0  0  0  0  0  0
  -26.1263  -15.1342   20.6651 N   0  0  0  0  0  0  0  0  0  0  0  0
  -20.2470  -16.9067   21.0319 N   0  0  0  0  0  0  0  0  0  0  0  0
  -27.2696  -30.2128   25.7892 N   0  0  0  0  0  0  0  0  0  0  0  0
  -18.1007  -19.0309   23.0191 N   0  3  0  0  0  0  0  0  0  0  0  0
  -23.0441  -27.7180   18.4705 O   0  0  0  0  0  0  0  0  0  0  0  0
  -25.9915  -17.3239   21.4458 O   0  0  0  0  0  0  0  0  0  0  0  0
  -22.4583  -14.7896   20.4220 O   0  0  0  0  0  0  0  0  0  0  0  0
  -19.7038  -19.1378   20.7093 O   0  0  0  0  0  0  0  0  0  0  0  0
  -28.5624  -32.1185   25.6891 O   0  0  0  0  0  0  0  0  0  0  0  0
  -28.8641  -22.5528   18.6299 O   0  0  0  0  0  0  0  0  0  0  0  0
  -24.3844  -21.3566   25.4243 O   0  0  0  0  0  0  0  0  0  1  0  0
  -29.1101  -18.6201   22.4870 F   0  0  0  0  0  0  0  0  0  0  0  0
  -27.6900  -20.0845   18.2157 F   0  0  0  0  0  0  0  0  0  0  0  0
  -23.6439  -25.9556   27.5319 F   0  0  0  0  0  0  0  0  0  0  0  0
  1  2  1  0  0  0  0
  1  5  2  0  0  0  0
  2  6  2  0  0  0  0
  3  8  2  0  0  0  0
  3 15  1  0  0  0  0
  4  9  1  0  0  0  0
  4 15  2  0  0  0  0
  5 17  1  0  0  0  0
  6 19  1  0  0  0  0
  7 10  2  0  0  0  0
  7 18  1  0  0  0  0
  8 21  1  0  0  0  0
  9 21  2  0  0  0  0
 10 22  1  0  0  0  0
 11 12  2  0  0  0  0
 11 23  1  0  0  0  0
 12 24  1  0  0  0  0
 13 20  1  0  0  0  0
 13 22  2  0  0  0  0
 14 24  2  0  0  0  0
 14 25  1  0  0  0  0
 15 26  1  0  0  0  0
 16 26  1  0  0  0  0
 16 27  2  0  0  0  0
 16 28  1  0  0  0  0
 17 19  2  0  0  0  0
 17 33  1  0  0  0  0
 18 20  2  0  0  0  0
 18 34  1  0  0  0  0
 19 46  1  0  0  0  0
 20 35  1  0  0  0  0
 21 79  1  0  0  0  0
 22 80  1  0  0  0  0
 23 25  2  0  0  0  0
 23 79  1  0  0  0  0
 24 81  1  0  0  0  0
 25 82  1  0  0  0  0
 26 64  2  0  0  0  0
 27 65  1  0  0  0  0
 27 68  1  0  0  0  0
 28 69  1  0  0  0  0
 28 74  2  0  0  0  0
 29 47  1  0  0  0  0
 29 70  1  0  0  0  0
 29 75  2  0  0  0  0
 30 61  1  0  0  0  0
 30 66  1  0  0  0  0
 30 76  2  0  0  0  0
 31 62  1  0  0  0  0
 31 71  1  0  0  0  0
 31 77  2  0  0  0  0
 32 67  1  0  0  0  0
 32 72  1  0  0  0  0
 32 78  2  0  0  0  0
 33 36  1  0  0  0  0
 34 47  1  0  0  0  0
 35 66  1  0  0  0  0
 36 38  1  0  0  0  0
 37 41  1  0  0  0  0
 37 44  1  0  0  0  0
 38 46  1  0  0  0  0
 39 40  1  0  0  0  0
 39 48  1  0  0  0  0
 40 49  1  0  0  0  0
 41 50  1  0  0  0  0
 42 48  1  0  0  0  0
 42 51  1  0  0  0  0
 43 49  1  0  0  0  0
 43 51  1  0  0  0  0
 44 67  1  0  0  0  0
 45 50  1  0  0  0  0
 45 67  1  0  0  0  0
 46 70  1  0  0  0  0
 47 66  1  0  0  0  0
 48 58  1  0  0  0  0
 49 59  1  0  0  0  0
 50 65  1  0  0  0  0
 51 83  1  0  0  0  0
 52 62  1  0  0  0  0
 53 63  1  0  0  0  0
 54 63  1  0  0  0  0
 55 63  1  0  0  0  0
 56 72  1  0  0  0  0
 57 73  1  0  0  0  0
 58 60  1  0  0  0  0
 59 80  1  0  0  0  0
 60 72  1  0  0  0  0
 61 63  1  0  0  0  0
 61 71  1  0  0  0  0
 62 73  1  0  0  0  0
 64 65  1  0  0  0  0
M  CHG  1  73   1
M  ISO  4  32 100  59 101  72 100  80 101
M  END
> <Batch ID>
0097

> <Smiles>
CNC(C)C(=O)NC(C(=O)N1Cc2cc([101O:1][101CH2:1]C3CCC(CC[100N:0](C)[100C:0](=O)N4CCCC(n5nc(-c6ccc(Oc7ccc(F)cc7F)cc6)c(C(N)=O)c5N)C4)CC(F)C3)ccc2CC1C(=O)NC1CCCc2ccccc21)C(C)(C)C

> <Shape>
0.202

> <Color>
0.084

> <Negative vol penalty>
0.000

$$$$

  -OEChem-04052319263D

 86 94  0     1  0  0  0  0  0999 V2000
  -30.5703  -24.3027   20.1975 C   0  0  0  0  0  0  0  0  0  0  0  0
  -29.3908  -23.8315   20.7652 C   0  0  0  0  0  0  0  0  0  0  0  0
  -24.7034  -29.1170   22.2071 C   0  0  0  0  0  0  0  0  0  0  0  0
  -23.6991  -29.2498   20.0138 C   0  0  0  0  0  0  0  0  0  0  0  0
  -31.1401  -23.6299   19.1174 C   0  0  0  0  0  0  0  0  0  0  0  0
  -28.7798  -22.6878   20.2522 C   0  0  0  0  0  0  0  0  0  0  0  0
  -24.8945  -17.0329   22.3120 C   0  0  0  0  0  0  0  0  0  0  0  0
  -25.4177  -30.2874   21.9509 C   0  0  0  0  0  0  0  0  0  0  0  0
  -24.4133  -30.4203   19.7576 C   0  0  0  0  0  0  0  0  0  0  0  0
  -23.7092  -16.3689   21.9991 C   0  0  0  0  0  0  0  0  0  0  0  0
  -27.2315  -33.4372   22.0120 C   0  0  0  0  0  0  0  0  0  0  0  0
  -27.2715  -34.4053   23.0154 C   0  0  0  0  0  0  0  0  0  0  0  0
  -24.8265  -15.2435   20.1813 C   0  0  0  0  0  0  0  0  0  0  0  0
  -22.0176  -17.3445   18.0167 C   0  0  0  0  0  0  0  0  0  0  0  0
  -24.8634  -34.5849   22.9382 C   0  0  0  0  0  0  0  0  0  0  0  0
  -23.8442  -28.5982   21.2385 C   0  0  0  0  0  0  0  0  0  0  0  0
  -21.8277  -27.2824   22.0812 C   0  0  0  0  0  0  0  0  0  0  0  0
  -30.5410  -22.4719   18.5971 C   0  0  0  0  0  0  0  0  0  0  0  0
  -26.0539  -16.8149   21.5538 C   0  0  0  0  0  0  0  0  0  0  0  0
  -29.3414  -21.9997   19.1633 C   0  0  0  0  0  0  0  0  0  0  0  0
  -26.0259  -15.9040   20.4882 C   0  0  0  0  0  0  0  0  0  0  0  0
  -20.7464  -16.7962   18.1451 C   0  0  0  0  0  0  0  0  0  0  0  0
  -19.6269  -17.6042   17.9804 C   0  0  0  0  0  0  0  0  0  0  0  0
  -25.2727  -30.9390   20.7262 C   0  0  0  0  0  0  0  0  0  0  0  0
  -23.6742  -15.4762   20.9319 C   0  0  0  0  0  0  0  0  0  0  0  0
  -26.0074  -33.0430   21.4716 C   0  0  0  0  0  0  0  0  0  0  0  0
  -26.0875  -34.9791   23.4785 C   0  0  0  0  0  0  0  0  0  0  0  0
  -24.8234  -33.6168   21.9347 C   0  0  0  0  0  0  0  0  0  0  0  0
  -23.1065  -27.3889   21.5023 C   0  0  0  0  0  0  0  0  0  0  0  0
  -22.1148  -18.6956   17.7251 C   0  0  0  0  0  0  0  0  0  0  0  0
  -19.8310  -18.9437   17.6907 C   0  0  0  0  0  0  0  0  0  0  0  0
  -21.5768  -25.9324   22.1134 C   0  0  0  0  0  0  0  0  0  0  0  0
  -20.9455  -28.3117   22.5480 C   0  0  0  0  0  0  0  0  0  0  0  0
  -27.9233  -18.6368   19.7400 C   0  0  0  0  0  0  0  0  0  0  0  0
  -29.7482  -15.9581   19.6107 C   0  0  0  0  0  0  0  0  0  0  0  0
  -29.9264  -12.5590   19.8592 C   0  0  0  0  0  0  0  0  0  0  0  0
  -23.5756  -21.4798   18.7916 C   0  0  0  0  0  0  0  0  0  0  0  0
  -31.1686  -21.8057   17.3984 C   0  0  0  0  0  0  0  0  0  0  0  0
  -27.3315  -17.5188   21.9208 C   0  0  0  0  0  0  0  0  0  0  0  0
  -27.2484  -15.6195   19.6558 C   0  0  0  0  0  0  0  0  0  0  0  0
  -30.6594  -20.3876   17.1536 C   0  0  0  0  0  0  0  0  0  0  0  0
  -23.8176  -21.7126   22.3950 C   0  0  0  0  0  0  0  0  0  0  0  0
  -29.1378  -20.3426   17.2506 C   0  0  0  0  0  0  0  0  0  0  0  0
  -23.5375  -23.1991   22.6233 C   0  0  0  0  0  0  0  0  0  0  0  0
  -24.6396  -21.4931   21.1283 C   0  0  0  0  0  0  0  0  0  0  0  0
  -23.7589  -23.5630   20.1216 C   0  0  0  0  0  0  0  0  0  0  0  0
  -28.6620  -20.7483   18.6508 C   0  0  1  0  0  0  0  0  0  0  0  0
  -28.3189  -17.6081   20.7613 C   0  0  1  0  0  0  0  0  0  0  0  0
  -22.9122  -23.8495   21.3750 C   0  0  2  0  0  0  0  0  0  0  0  0
  -17.6022  -17.3991   19.4450 C   0  0  0  0  0  0  0  0  0  0  0  0
  -18.6171  -20.4593   16.0835 C   0  0  0  0  0  0  0  0  0  0  0  0
  -18.6337  -20.9896   18.5480 C   0  0  0  0  0  0  0  0  0  0  0  0
  -31.5458  -10.6519   19.6652 C   0  0  0  0  0  0  0  0  0  0  0  0
  -29.6602  -16.1958   16.5700 C   0  0  0  0  0  0  0  0  0  0  0  0
  -30.4442  -13.8222   16.4314 C   0  0  0  0  0  0  0  0  0  0  0  0
  -31.8895  -15.5507   17.5019 C   0  0  0  0  0  0  0  0  0  0  0  0
  -29.4992  -11.7577   22.6760 C   0  0  0  0  0  0  0  0  0  0  0  0
  -20.6099  -15.3290   18.4648 C   0  0  0  0  0  0  0  0  0  0  0  0
  -18.2508  -17.0431   18.1099 C   0  0  0  0  0  0  0  0  0  0  0  0
  -23.4631  -19.3180   17.5787 C   0  0  0  0  0  0  0  0  0  0  0  0
  -20.2349  -15.0483   19.9216 C   0  0  0  0  0  0  0  0  0  0  0  0
  -21.2962  -15.5033   20.9166 C   0  0  0  0  0  0  0  0  0  1  0  0
  -18.6674  -19.8612   17.5012 C   0  0  0  0  0  0  0  0  0  0  0  0
  -29.8142  -14.7521   18.7050 C   0  0  1  0  0  0  0  0  0  0  0  0
  -30.8899  -11.6526   20.6038 C   0  0  2  0  0  0  0  0  0  0  0  0
  -30.4283  -15.0868   17.3163 C   0  0  0  0  0  0  0  0  0  0  0  0
  -23.6314  -26.2012   21.1894 N   0  0  0  0  0  0  0  0  0  0  0  0
  -21.0504  -19.5122   17.5582 N   0  0  0  0  0  0  0  0  0  0  0  0
  -22.6778  -25.3356   21.5732 N   0  0  0  0  0  0  0  0  0  0  0  0
  -28.4719  -16.3372   20.0502 N   0  0  0  0  0  0  0  0  0  0  0  0
  -23.9804  -22.1206   19.9743 N   0  0  0  0  0  0  0  0  0  0  0  0
  -20.5240  -25.2094   22.5509 N   0  0  0  0  0  0  0  0  0  0  0  0
  -21.3596  -29.6463   22.4400 N   0  0  0  0  0  0  0  0  0  0  0  0
  -28.8432  -19.6558   19.5824 N   0  0  0  0  0  0  0  0  0  0  0  0
  -30.5371  -13.7242   19.4460 N   0  0  0  0  0  0  0  0  0  0  0  0
  -23.8278  -20.1148   18.7290 N   0  0  0  0  0  0  0  0  0  0  0  0
  -30.1720  -10.8971   21.6691 N   0  3  0  0  0  0  0  0  0  0  0  0
  -19.8301  -28.0546   23.0612 O   0  0  0  0  0  0  0  0  0  0  0  0
  -26.8628  -18.5142   19.1384 O   0  0  0  0  0  0  0  0  0  0  0  0
  -30.7913  -16.5378   19.9227 O   0  0  0  0  0  0  0  0  0  0  0  0
  -28.7506  -12.2615   19.6605 O   0  0  0  0  0  0  0  0  0  0  0  0
  -23.0247  -22.0789   17.8617 O   0  0  0  0  0  0  0  0  0  0  0  0
  -25.9693  -32.0812   20.4760 O   0  0  0  0  0  0  0  0  0  0  0  0
  -22.5184  -14.8273   20.6239 O   0  0  0  0  0  0  0  0  0  1  0  0
  -26.1260  -35.9076   24.4432 F   0  0  0  0  0  0  0  0  0  0  0  0
  -23.6444  -33.2413   21.4202 F   0  0  0  0  0  0  0  0  0  0  0  0
  1  2  1  0  0  0  0
  1  5  2  0  0  0  0
  2  6  2  0  0  0  0
  3  8  2  0  0  0  0
  3 16  1  0  0  0  0
  4  9  1  0  0  0  0
  4 16  2  0  0  0  0
  5 18  1  0  0  0  0
  6 20  1  0  0  0  0
  7 10  2  0  0  0  0
  7 19  1  0  0  0  0
  8 24  1  0  0  0  0
  9 24  2  0  0  0  0
 10 25  1  0  0  0  0
 11 12  2  0  0  0  0
 11 26  1  0  0  0  0
 12 27  1  0  0  0  0
 13 21  1  0  0  0  0
 13 25  2  0  0  0  0
 14 22  2  0  0  0  0
 14 30  1  0  0  0  0
 15 27  2  0  0  0  0
 15 28  1  0  0  0  0
 16 29  1  0  0  0  0
 17 29  1  0  0  0  0
 17 32  2  0  0  0  0
 17 33  1  0  0  0  0
 18 20  2  0  0  0  0
 18 38  1  0  0  0  0
 19 21  2  0  0  0  0
 19 39  1  0  0  0  0
 20 47  1  0  0  0  0
 21 40  1  0  0  0  0
 22 23  1  0  0  0  0
 22 58  1  0  0  0  0
 23 31  2  0  0  0  0
 23 59  1  0  0  0  0
 24 83  1  0  0  0  0
 25 84  1  0  0  0  0
 26 28  2  0  0  0  0
 26 83  1  0  0  0  0
 27 85  1  0  0  0  0
 28 86  1  0  0  0  0
 29 67  2  0  0  0  0
 30 60  1  0  0  0  0
 30 68  2  0  0  0  0
 31 63  1  0  0  0  0
 31 68  1  0  0  0  0
 32 69  1  0  0  0  0
 32 72  1  0  0  0  0
 33 73  1  0  0  0  0
 33 78  2  0  0  0  0
 34 48  1  0  0  0  0
 34 74  1  0  0  0  0
 34 79  2  0  0  0  0
 35 64  1  0  0  0  0
 35 70  1  0  0  0  0
 35 80  2  0  0  0  0
 36 65  1  0  0  0  0
 36 75  1  0  0  0  0
 36 81  2  0  0  0  0
 37 71  1  0  0  0  0
 37 76  1  0  0  0  0
 37 82  2  0  0  0  0
 38 41  1  0  0  0  0
 39 48  1  0  0  0  0
 40 70  1  0  0  0  0
 41 43  1  0  0  0  0
 42 44  1  0  0  0  0
 42 45  1  0  0  0  0
 43 47  1  0  0  0  0
 44 49  1  0  0  0  0
 45 71  1  0  0  0  0
 46 49  1  0  0  0  0
 46 71  1  0  0  0  0
 47 74  1  0  0  0  0
 48 70  1  0  0  0  0
 49 69  1  0  0  0  0
 50 59  1  0  0  0  0
 51 63  1  0  0  0  0
 52 63  1  0  0  0  0
 53 65  1  0  0  0  0
 54 66  1  0  0  0  0
 55 66  1  0  0  0  0
 56 66  1  0  0  0  0
 57 77  1  0  0  0  0
 58 61  1  0  0  0  0
 60 76  1  0  0  0  0
 61 62  1  0  0  0  0
 62 84  1  0  0  0  0
 64 66  1  0  0  0  0
 64 75  1  0  0  0  0
 65 77  1  0  0  0  0
 67 69  1  0  0  0  0
M  CHG  1  77   1
M  ISO  4  37 100  62 101  76 100  84 101
M  END
> <Batch ID>
0097

> <Smiles>
CCc1c(CC[101CH2:1][101O:1]c2ccc3c(c2)CN(C(=O)C(NC(=O)C(C)NC)C(C)(C)C)C(C(=O)NC2CCCc4ccccc42)C3)cc(C[100NH:0][100C:0](=O)N2CCCC(n3nc(-c4ccc(Oc5ccc(F)cc5F)cc4)c(C(N)=O)c3N)C2)nc1C(C)C

> <Shape>
0.207

> <Color>
0.054

> <Negative vol penalty>
0.000

$$$$

  -OEChem-04052319263D

 99107  0     1  0  0  0  0  0999 V2000
  -25.4771  -28.7402   23.9153 C   0  0  0  0  0  0  0  0  0  0  0  0
  -25.4016  -27.6926   23.0030 C   0  0  0  0  0  0  0  0  0  0  0  0
  -23.0782   -9.8491   19.8826 C   0  0  0  0  0  0  0  0  0  0  0  0
  -23.9284   -9.7071   22.1396 C   0  0  0  0  0  0  0  0  0  0  0  0
  -25.3847  -30.0584   23.4707 C   0  0  0  0  0  0  0  0  0  0  0  0
  -25.2325  -27.9627   21.6455 C   0  0  0  0  0  0  0  0  0  0  0  0
  -28.2866  -25.1811   18.7163 C   0  0  0  0  0  0  0  0  0  0  0  0
  -22.3644   -8.6666   20.0771 C   0  0  0  0  0  0  0  0  0  0  0  0
  -23.2145   -8.5247   22.3341 C   0  0  0  0  0  0  0  0  0  0  0  0
  -27.9188  -23.8553   18.4909 C   0  0  0  0  0  0  0  0  0  0  0  0
  -21.3306   -5.6607   23.5451 C   0  0  0  0  0  0  0  0  0  0  0  0
  -20.6223   -5.5187   24.7383 C   0  0  0  0  0  0  0  0  0  0  0  0
  -27.0278  -24.4750   16.3366 C   0  0  0  0  0  0  0  0  0  0  0  0
  -26.9043  -18.4742   20.4393 C   0  0  0  0  0  0  0  0  0  0  0  0
  -19.3173   -7.4785   24.1968 C   0  0  0  0  0  0  0  0  0  0  0  0
  -23.8603  -10.3693   20.9138 C   0  0  0  0  0  0  0  0  0  0  0  0
  -24.1546  -12.9028   20.9632 C   0  0  0  0  0  0  0  0  0  0  0  0
  -25.2241  -30.3450   22.1059 C   0  0  0  0  0  0  0  0  0  0  0  0
  -28.0175  -26.1674   17.7564 C   0  0  0  0  0  0  0  0  0  0  0  0
  -25.1365  -29.2859   21.1823 C   0  0  0  0  0  0  0  0  0  0  0  0
  -27.3955  -25.8121   16.5510 C   0  0  0  0  0  0  0  0  0  0  0  0
  -26.9860  -19.0769   21.7188 C   0  0  0  0  0  0  0  0  0  0  0  0
  -22.4325   -8.0044   21.3029 C   0  0  0  0  0  0  0  0  0  0  0  0
  -27.2867  -23.5026   17.3022 C   0  0  0  0  0  0  0  0  0  0  0  0
  -21.0323   -6.7116   22.6777 C   0  0  0  0  0  0  0  0  0  0  0  0
  -19.6157   -6.4276   25.0642 C   0  0  0  0  0  0  0  0  0  0  0  0
  -20.0256   -7.6205   23.0036 C   0  0  0  0  0  0  0  0  0  0  0  0
  -24.5984  -11.5904   20.7133 C   0  0  0  0  0  0  0  0  0  0  0  0
  -28.1688  -18.0405   20.1074 C   0  0  0  0  0  0  0  0  0  0  0  0
  -28.2980  -18.9935   22.1297 C   0  0  0  0  0  0  0  0  0  0  0  0
  -25.2187  -13.6976   20.6133 C   0  0  0  0  0  0  0  0  0  0  0  0
  -22.8933  -13.3623   21.4668 C   0  0  0  0  0  0  0  0  0  0  0  0
  -26.2662  -28.8194   17.6953 C   0  0  0  0  0  0  0  0  0  0  0  0
  -27.6391  -29.1934   14.7802 C   0  0  0  0  0  0  0  0  0  0  0  0
  -29.1489  -27.7489   12.0820 C   0  0  0  0  0  0  0  0  0  0  0  0
  -30.6877  -14.8080   20.6637 C   0  0  0  0  0  0  0  0  0  0  0  0
  -25.0817  -31.7843   21.6782 C   0  0  0  0  0  0  0  0  0  0  0  0
  -28.4447  -27.5883   18.0033 C   0  0  0  0  0  0  0  0  0  0  0  0
  -27.1024  -26.8296   15.4799 C   0  0  0  0  0  0  0  0  0  0  0  0
  -25.2791  -31.9968   20.1795 C   0  0  0  0  0  0  0  0  0  0  0  0
  -29.4963  -12.5782   18.1566 C   0  0  0  0  0  0  0  0  0  0  0  0
  -24.4921  -30.9593   19.3850 C   0  0  0  0  0  0  0  0  0  0  0  0
  -28.0824  -12.2261   18.6222 C   0  0  0  0  0  0  0  0  0  0  0  0
  -30.4566  -12.7306   19.3342 C   0  0  0  0  0  0  0  0  0  0  0  0
  -28.5995  -13.3233   20.8420 C   0  0  0  0  0  0  0  0  0  0  0  0
  -24.9782  -29.5392   19.6987 C   0  0  1  0  0  0  0  0  0  0  0  0
  -27.6590  -28.6008   17.1756 C   0  0  1  0  0  0  0  0  0  0  0  0
  -27.5824  -13.2142   19.6931 C   0  0  2  0  0  0  0  0  0  0  0  0
  -25.1657  -17.5500   23.7088 C   0  0  0  0  0  0  0  0  0  0  0  0
  -25.2684  -20.9047   21.7297 C   0  0  0  0  0  0  0  0  0  0  0  0
  -30.1254  -28.3062    9.8385 C   0  0  0  0  0  0  0  0  0  0  0  0
  -31.3586  -23.3031   21.1187 C   0  0  0  0  0  0  0  0  0  0  0  0
  -31.1462  -23.3495   23.6114 C   0  0  0  0  0  0  0  0  0  0  0  0
  -25.8282  -15.2459   16.0785 C   0  0  0  0  0  0  0  0  0  0  0  0
  -24.8275  -29.4912   13.6330 C   0  0  0  0  0  0  0  0  0  0  0  0
  -25.7893  -29.0907   11.3564 C   0  0  0  0  0  0  0  0  0  0  0  0
  -26.5146  -31.0744   12.6836 C   0  0  0  0  0  0  0  0  0  0  0  0
  -31.8228  -26.7547   12.8697 C   0  0  0  0  0  0  0  0  0  0  0  0
  -28.0949  -17.7122   13.0242 C   0  0  0  0  0  0  0  0  0  0  0  0
  -28.6530  -17.3336   18.8664 C   0  0  0  0  0  0  0  0  0  0  0  0
  -28.9368  -19.4612   23.3784 C   0  0  0  0  0  0  0  0  0  0  0  0
  -24.7082  -18.6936   22.8114 C   0  0  0  0  0  0  0  0  0  0  0  0
  -27.5528  -17.0682   17.8307 C   0  0  0  0  0  0  0  0  0  0  0  0
  -29.2364  -20.9772   23.4240 C   0  0  0  0  0  0  0  0  0  0  0  0
  -28.0551  -16.2811   16.6137 C   0  0  0  0  0  0  0  0  0  0  0  0
  -30.1326  -21.4336   22.2657 C   0  0  0  0  0  0  0  0  0  0  0  0
  -27.2147  -20.2702   15.6982 C   0  0  0  0  0  0  0  0  0  0  0  0
  -30.4269  -18.0771   21.1849 C   0  0  0  0  0  0  0  0  0  0  0  0
  -30.7665  -16.8656   22.0491 C   0  0  0  0  0  0  0  0  0  0  0  0
  -27.2472  -19.6770   14.2977 C   0  0  0  0  0  0  0  0  0  0  0  0
  -26.4697  -17.3848   14.8826 C   0  0  0  0  0  0  0  0  0  0  0  0
  -26.9106  -21.7631   15.7247 C   0  0  0  0  0  0  0  0  0  1  0  0
  -25.8657  -19.6806   22.4675 C   0  0  1  0  0  0  0  0  0  0  0  0
  -27.2929  -28.7699   13.3732 C   0  0  1  0  0  0  0  0  0  0  0  0
  -30.4105  -28.1117   11.3196 C   0  0  2  0  0  0  0  0  0  0  0  0
  -30.4642  -22.9374   22.3060 C   0  0  0  0  0  0  0  0  0  0  0  0
  -26.9832  -16.0866   15.5204 C   0  0  2  0  0  0  0  0  0  0  0  0
  -26.1097  -29.5875   12.7824 C   0  0  0  0  0  0  0  0  0  0  0  0
  -25.8471  -11.5495   20.2409 N   0  0  0  0  0  0  0  0  0  0  0  0
  -29.0079  -18.3619   21.1422 N   0  0  0  0  0  0  0  0  0  0  0  0
  -26.1969  -12.8461   20.1911 N   0  0  0  0  0  0  0  0  0  0  0  0
  -27.5336  -28.2068   15.7709 N   0  0  0  0  0  0  0  0  0  0  0  0
  -29.9245  -13.6822   20.3125 N   0  0  0  0  0  0  0  0  0  0  0  0
  -25.4036  -15.0347   20.6285 N   0  0  0  0  0  0  0  0  0  0  0  0
  -21.9110  -12.4117   21.7763 N   0  0  0  0  0  0  0  0  0  0  0  0
  -26.2169  -29.2637   19.0028 N   0  0  0  0  0  0  0  0  0  0  0  0
  -28.5282  -28.8645   12.6028 N   0  0  0  0  0  0  0  0  0  0  0  0
  -30.1069  -15.6623   21.5930 N   0  0  0  0  0  0  0  0  0  0  0  0
  -31.4308  -27.0352   11.4644 N   0  3  0  0  0  0  0  0  0  0  0  0
  -27.5954  -18.2376   14.3486 N   0  3  1  0  0  0  0  0  0  0  0  0
  -22.6388  -14.5808   21.6218 O   0  0  0  0  0  0  0  0  0  0  0  0
  -25.3074  -28.6024   16.9637 O   0  0  0  0  0  0  0  0  0  0  0  0
  -27.9970  -30.3549   14.9914 O   0  0  0  0  0  0  0  0  0  0  0  0
  -28.7515  -26.5918   12.2002 O   0  0  0  0  0  0  0  0  0  0  0  0
  -31.8016  -15.0377   20.1806 O   0  0  0  0  0  0  0  0  0  0  0  0
  -21.7358   -6.8507   21.4931 O   0  0  0  0  0  0  0  0  0  0  0  0
  -26.9261  -22.2094   17.0800 O   0  0  0  0  0  0  0  0  0  1  0  0
  -18.9345   -6.2902   26.2093 F   0  0  0  0  0  0  0  0  0  0  0  0
  -19.7337   -8.6314   22.1738 F   0  0  0  0  0  0  0  0  0  0  0  0
  1  2  1  0  0  0  0
  1  5  2  0  0  0  0
  2  6  2  0  0  0  0
  3  8  2  0  0  0  0
  3 16  1  0  0  0  0
  4  9  1  0  0  0  0
  4 16  2  0  0  0  0
  5 18  1  0  0  0  0
  6 20  1  0  0  0  0
  7 10  2  0  0  0  0
  7 19  1  0  0  0  0
  8 23  1  0  0  0  0
  9 23  2  0  0  0  0
 10 24  1  0  0  0  0
 11 12  2  0  0  0  0
 11 25  1  0  0  0  0
 12 26  1  0  0  0  0
 13 21  1  0  0  0  0
 13 24  2  0  0  0  0
 14 22  1  0  0  0  0
 14 29  2  0  0  0  0
 15 26  2  0  0  0  0
 15 27  1  0  0  0  0
 16 28  1  0  0  0  0
 17 28  1  0  0  0  0
 17 31  2  0  0  0  0
 17 32  1  0  0  0  0
 18 20  2  0  0  0  0
 18 37  1  0  0  0  0
 19 21  2  0  0  0  0
 19 38  1  0  0  0  0
 20 46  1  0  0  0  0
 21 39  1  0  0  0  0
 22 30  2  0  0  0  0
 22 73  1  0  0  0  0
 23 96  1  0  0  0  0
 24 97  1  0  0  0  0
 25 27  2  0  0  0  0
 25 96  1  0  0  0  0
 26 98  1  0  0  0  0
 27 99  1  0  0  0  0
 28 79  2  0  0  0  0
 29 60  1  0  0  0  0
 29 80  1  0  0  0  0
 30 61  1  0  0  0  0
 30 80  1  0  0  0  0
 31 81  1  0  0  0  0
 31 84  1  0  0  0  0
 32 85  1  0  0  0  0
 32 91  2  0  0  0  0
 33 47  1  0  0  0  0
 33 86  1  0  0  0  0
 33 92  2  0  0  0  0
 34 74  1  0  0  0  0
 34 82  1  0  0  0  0
 34 93  2  0  0  0  0
 35 75  1  0  0  0  0
 35 87  1  0  0  0  0
 35 94  2  0  0  0  0
 36 83  1  0  0  0  0
 36 88  1  0  0  0  0
 36 95  2  0  0  0  0
 37 40  1  0  0  0  0
 38 47  1  0  0  0  0
 39 82  1  0  0  0  0
 40 42  1  0  0  0  0
 41 43  1  0  0  0  0
 41 44  1  0  0  0  0
 42 46  1  0  0  0  0
 43 48  1  0  0  0  0
 44 83  1  0  0  0  0
 45 48  1  0  0  0  0
 45 83  1  0  0  0  0
 46 86  1  0  0  0  0
 47 82  1  0  0  0  0
 48 81  1  0  0  0  0
 49 62  1  0  0  0  0
 50 73  1  0  0  0  0
 51 75  1  0  0  0  0
 52 76  1  0  0  0  0
 53 76  1  0  0  0  0
 54 77  1  0  0  0  0
 55 78  1  0  0  0  0
 56 78  1  0  0  0  0
 57 78  1  0  0  0  0
 58 89  1  0  0  0  0
 59 90  1  0  0  0  0
 60 63  1  0  0  0  0
 61 64  1  0  0  0  0
 62 73  1  0  0  0  0
 63 65  1  0  0  0  0
 64 66  1  0  0  0  0
 65 77  1  0  0  0  0
 66 76  1  0  0  0  0
 67 70  1  0  0  0  0
 67 72  1  0  0  0  0
 68 69  1  0  0  0  0
 68 80  1  0  0  0  0
 69 88  1  0  0  0  0
 70 90  1  0  0  0  0
 71 77  1  0  0  0  0
 71 90  1  0  0  0  0
 72 97  1  0  0  0  0
 74 78  1  0  0  0  0
 74 87  1  0  0  0  0
 75 89  1  0  0  0  0
 79 81  1  0  0  0  0
M  CHG  2  89   1  90   1
M  ISO  4  36 100  72 101  88 100  97 101
M  END
> <Batch ID>
0097

> <Smiles>
CCC(C)c1cc(CCCC(C)CN(C)CC[101CH2:1][101O:1]c2ccc3c(c2)CN(C(=O)C(NC(=O)C(C)NC)C(C)(C)C)C(C(=O)NC2CCCc4ccccc42)C3)n(CC[100NH:0][100C:0](=O)N2CCCC(n3nc(-c4ccc(Oc5ccc(F)cc5F)cc4)c(C(N)=O)c3N)C2)c1CCCC(C)C

> <Shape>
0.241

> <Color>
0.177

> <Negative vol penalty>
0.000

$$$$

  -OEChem-04052319263D

 87 95  0     1  0  0  0  0  0999 V2000
  -24.1658  -10.6190   20.7197 C   0  0  0  0  0  0  0  0  0  0  0  0
  -23.6965  -11.6302   21.5518 C   0  0  0  0  0  0  0  0  0  0  0  0
  -26.1436  -28.5238   18.9499 C   0  0  0  0  0  0  0  0  0  0  0  0
  -26.5803  -28.8139   21.3083 C   0  0  0  0  0  0  0  0  0  0  0  0
  -25.3360  -10.8086   19.9858 C   0  0  0  0  0  0  0  0  0  0  0  0
  -24.3978  -12.8314   21.6515 C   0  0  0  0  0  0  0  0  0  0  0  0
  -23.3420  -19.8467   22.6450 C   0  0  0  0  0  0  0  0  0  0  0  0
  -24.8777  -29.0858   19.1151 C   0  0  0  0  0  0  0  0  0  0  0  0
  -25.3144  -29.3760   21.4736 C   0  0  0  0  0  0  0  0  0  0  0  0
  -23.7730  -20.8967   23.4547 C   0  0  0  0  0  0  0  0  0  0  0  0
  -22.0614  -30.5571   22.5839 C   0  0  0  0  0  0  0  0  0  0  0  0
  -21.3006  -30.1323   23.6730 C   0  0  0  0  0  0  0  0  0  0  0  0
  -25.7395  -21.1421   22.0793 C   0  0  0  0  0  0  0  0  0  0  0  0
  -30.3769  -20.0620   25.1989 C   0  0  0  0  0  0  0  0  0  0  0  0
  -21.3612  -27.8681   22.8323 C   0  0  0  0  0  0  0  0  0  0  0  0
  -28.9423  -18.1809   25.4447 C   0  0  0  0  0  0  0  0  0  0  0  0
  -26.9949  -28.3878   20.0465 C   0  0  0  0  0  0  0  0  0  0  0  0
  -29.4996  -28.4819   19.5720 C   0  0  0  0  0  0  0  0  0  0  0  0
  -26.0468  -12.0163   20.0691 C   0  0  0  0  0  0  0  0  0  0  0  0
  -24.1133  -19.4286   21.5510 C   0  0  0  0  0  0  0  0  0  0  0  0
  -25.5793  -13.0368   20.9191 C   0  0  0  0  0  0  0  0  0  0  0  0
  -25.3149  -20.0882   21.2558 C   0  0  0  0  0  0  0  0  0  0  0  0
  -29.4190  -19.3825   25.9433 C   0  0  0  0  0  0  0  0  0  0  0  0
  -30.8225  -19.5265   23.9955 C   0  0  0  0  0  0  0  0  0  0  0  0
  -24.4631  -29.5119   20.3769 C   0  0  0  0  0  0  0  0  0  0  0  0
  -24.9733  -21.5427   23.1736 C   0  0  0  0  0  0  0  0  0  0  0  0
  -22.4721  -29.6374   21.6188 C   0  0  0  0  0  0  0  0  0  0  0  0
  -20.9505  -28.7878   23.7973 C   0  0  0  0  0  0  0  0  0  0  0  0
  -22.1220  -28.2929   21.7431 C   0  0  0  0  0  0  0  0  0  0  0  0
  -28.3024  -27.8068   19.8765 C   0  0  0  0  0  0  0  0  0  0  0  0
  -30.2831  -18.3184   23.5842 C   0  0  0  0  0  0  0  0  0  0  0  0
  -30.4488  -27.4907   19.5190 C   0  0  0  0  0  0  0  0  0  0  0  0
  -29.7327  -29.8801   19.3564 C   0  0  0  0  0  0  0  0  0  0  0  0
  -25.5811  -16.7275   20.7427 C   0  0  0  0  0  0  0  0  0  0  0  0
  -26.1315  -18.3140   17.9674 C   0  0  0  0  0  0  0  0  0  0  0  0
  -26.4458  -21.3042   16.3527 C   0  0  0  0  0  0  0  0  0  0  0  0
  -30.7498  -22.1907   22.1025 C   0  0  0  0  0  0  0  0  0  0  0  0
  -27.3323  -12.1571   19.2930 C   0  0  0  0  0  0  0  0  0  0  0  0
  -23.6214  -18.3119   20.6716 C   0  0  0  0  0  0  0  0  0  0  0  0
  -26.1697  -19.6910   20.0811 C   0  0  0  0  0  0  0  0  0  0  0  0
  -27.8134  -13.6004   19.1681 C   0  0  0  0  0  0  0  0  0  0  0  0
  -30.9472  -22.8310   18.5461 C   0  0  0  0  0  0  0  0  0  0  0  0
  -27.7415  -14.3058   20.5186 C   0  0  0  0  0  0  0  0  0  0  0  0
  -30.3993  -24.2569   18.4629 C   0  0  0  0  0  0  0  0  0  0  0  0
  -30.2049  -22.0142   19.5996 C   0  0  0  0  0  0  0  0  0  0  0  0
  -29.6538  -24.0469   20.8795 C   0  0  0  0  0  0  0  0  0  0  0  0
  -26.2987  -14.3631   21.0350 C   0  0  1  0  0  0  0  0  0  0  0  0
  -24.7395  -17.6320   19.8875 C   0  0  1  0  0  0  0  0  0  0  0  0
  -30.3780  -24.9306   19.8477 C   0  0  2  0  0  0  0  0  0  0  0  0
  -31.6938  -16.5381   22.5223 C   0  0  0  0  0  0  0  0  0  0  0  0
  -30.0306  -20.1393   28.2770 C   0  0  0  0  0  0  0  0  0  0  0  0
  -26.9348  -22.2811   14.0936 C   0  0  0  0  0  0  0  0  0  0  0  0
  -24.1576  -23.7593   25.6377 C   0  0  0  0  0  0  0  0  0  0  0  0
  -29.0919  -17.6721   18.3331 C   0  0  0  0  0  0  0  0  0  0  0  0
  -29.6122  -19.4303   16.6284 C   0  0  0  0  0  0  0  0  0  0  0  0
  -28.2555  -17.4373   15.9880 C   0  0  0  0  0  0  0  0  0  0  0  0
  -23.8048  -22.6340   16.2278 C   0  0  0  0  0  0  0  0  0  0  0  0
  -31.8473  -20.2502   23.1921 C   0  0  0  0  0  0  0  0  0  0  0  0
  -30.7248  -17.6954   22.3003 C   0  0  0  0  0  0  0  0  0  0  0  0
  -26.2666  -22.5049   26.2126 C   0  0  0  0  0  0  0  0  0  0  0  0
  -26.9649  -21.1491   26.2712 C   0  0  0  0  0  0  0  0  0  0  0  0
  -28.9142  -19.9366   27.2556 C   0  0  1  0  0  0  0  0  0  0  0  0
  -27.2232  -19.2208   17.4527 C   0  0  1  0  0  0  0  0  0  0  0  0
  -25.8508  -21.8144   15.0527 C   0  0  2  0  0  0  0  0  0  0  0  0
  -25.0093  -22.5326   25.3357 C   0  0  2  0  0  0  0  0  0  1  0  0
  -28.5308  -18.4466   17.1239 C   0  0  0  0  0  0  0  0  0  0  0  0
  -29.3512  -17.6293   24.2801 N   0  0  0  0  0  0  0  0  0  0  0  0
  -28.4728  -26.4886   20.0076 N   0  0  0  0  0  0  0  0  0  0  0  0
  -29.7882  -26.3274   19.7844 N   0  0  0  0  0  0  0  0  0  0  0  0
  -25.6491  -18.5894   19.2548 N   0  0  0  0  0  0  0  0  0  0  0  0
  -30.2378  -22.7016   20.8983 N   0  0  0  0  0  0  0  0  0  0  0  0
  -31.7758  -27.5094   19.2717 N   0  0  0  0  0  0  0  0  0  0  0  0
  -28.6462  -30.7606   19.4485 N   0  0  0  0  0  0  0  0  0  0  0  0
  -25.5584  -15.4023   20.3520 N   0  0  0  0  0  0  0  0  0  0  0  0
  -26.6544  -19.9416   16.3189 N   0  0  0  0  0  0  0  0  0  0  0  0
  -31.2784  -20.9074   22.0364 N   0  0  0  0  0  0  0  0  0  0  0  0
  -24.9327  -22.9582   15.3169 N   0  3  0  0  0  0  0  0  0  0  0  0
  -28.1944  -21.2302   27.0943 N   0  3  0  0  0  0  0  0  0  0  0  0
  -30.8678  -30.3331   19.0737 O   0  0  0  0  0  0  0  0  0  0  0  0
  -26.2061  -17.1975   21.6863 O   0  0  0  0  0  0  0  0  0  0  0  0
  -25.7168  -17.3997   17.2507 O   0  0  0  0  0  0  0  0  0  0  0  0
  -26.7036  -22.0413   17.3018 O   0  0  0  0  0  0  0  0  0  0  0  0
  -30.7415  -22.8330   23.1582 O   0  0  0  0  0  0  0  0  0  0  0  0
  -23.2280  -30.0606   20.5385 O   0  0  0  0  0  0  0  0  0  0  0  0
  -25.3966  -22.5674   23.9627 O   0  0  0  0  0  0  0  0  0  1  0  0
  -20.2212  -28.3797   24.8441 F   0  0  0  0  0  0  0  0  0  0  0  0
  -22.5147  -27.4045   20.8198 F   0  0  0  0  0  0  0  0  0  0  0  0
  1  2  1  0  0  0  0
  1  5  2  0  0  0  0
  2  6  2  0  0  0  0
  3  8  2  0  0  0  0
  3 17  1  0  0  0  0
  4  9  1  0  0  0  0
  4 17  2  0  0  0  0
  5 19  1  0  0  0  0
  6 21  1  0  0  0  0
  7 10  2  0  0  0  0
  7 20  1  0  0  0  0
  8 25  1  0  0  0  0
  9 25  2  0  0  0  0
 10 26  1  0  0  0  0
 11 12  2  0  0  0  0
 11 27  1  0  0  0  0
 12 28  1  0  0  0  0
 13 22  1  0  0  0  0
 13 26  2  0  0  0  0
 14 23  2  0  0  0  0
 14 24  1  0  0  0  0
 15 28  2  0  0  0  0
 15 29  1  0  0  0  0
 16 23  1  0  0  0  0
 16 67  2  0  0  0  0
 17 30  1  0  0  0  0
 18 30  1  0  0  0  0
 18 32  2  0  0  0  0
 18 33  1  0  0  0  0
 19 21  2  0  0  0  0
 19 38  1  0  0  0  0
 20 22  2  0  0  0  0
 20 39  1  0  0  0  0
 21 47  1  0  0  0  0
 22 40  1  0  0  0  0
 23 62  1  0  0  0  0
 24 31  2  0  0  0  0
 24 58  1  0  0  0  0
 25 84  1  0  0  0  0
 26 85  1  0  0  0  0
 27 29  2  0  0  0  0
 27 84  1  0  0  0  0
 28 86  1  0  0  0  0
 29 87  1  0  0  0  0
 30 68  2  0  0  0  0
 31 59  1  0  0  0  0
 31 67  1  0  0  0  0
 32 69  1  0  0  0  0
 32 72  1  0  0  0  0
 33 73  1  0  0  0  0
 33 79  2  0  0  0  0
 34 48  1  0  0  0  0
 34 74  1  0  0  0  0
 34 80  2  0  0  0  0
 35 63  1  0  0  0  0
 35 70  1  0  0  0  0
 35 81  2  0  0  0  0
 36 64  1  0  0  0  0
 36 75  1  0  0  0  0
 36 82  2  0  0  0  0
 37 71  1  0  0  0  0
 37 76  1  0  0  0  0
 37 83  2  0  0  0  0
 38 41  1  0  0  0  0
 39 48  1  0  0  0  0
 40 70  1  0  0  0  0
 41 43  1  0  0  0  0
 42 44  1  0  0  0  0
 42 45  1  0  0  0  0
 43 47  1  0  0  0  0
 44 49  1  0  0  0  0
 45 71  1  0  0  0  0
 46 49  1  0  0  0  0
 46 71  1  0  0  0  0
 47 74  1  0  0  0  0
 48 70  1  0  0  0  0
 49 69  1  0  0  0  0
 50 59  1  0  0  0  0
 51 62  1  0  0  0  0
 52 64  1  0  0  0  0
 53 65  1  0  0  0  0
 54 66  1  0  0  0  0
 55 66  1  0  0  0  0
 56 66  1  0  0  0  0
 57 77  1  0  0  0  0
 58 76  1  0  0  0  0
 60 61  1  0  0  0  0
 60 65  1  0  0  0  0
 61 78  1  0  0  0  0
 62 78  1  0  0  0  0
 63 66  1  0  0  0  0
 63 75  1  0  0  0  0
 64 77  1  0  0  0  0
 65 85  1  0  0  0  0
 68 69  1  0  0  0  0
M  CHG  2  77   1  78   1
M  ISO  4  37 100  65 101  76 100  85 101
M  END
> <Batch ID>
0097

> <Smiles>
CCc1ncc(C(C)NCC[101CH:1](C)[101O:1]c2ccc3c(c2)CN(C(=O)C(NC(=O)C(C)NC)C(C)(C)C)C(C(=O)NC2CCCc4ccccc42)C3)cc1C[100NH:0][100C:0](=O)N1CCCC(n2nc(-c3ccc(Oc4ccc(F)cc4F)cc3)c(C(N)=O)c2N)C1

> <Shape>
0.211

> <Color>
0.054

> <Negative vol penalty>
0.000

$$$$

  -OEChem-04052319263D

 85 93  0     1  0  0  0  0  0999 V2000
  -26.2866  -29.3247   20.6064 C   0  0  0  0  0  0  0  0  0  0  0  0
  -25.7316  -28.3011   19.8450 C   0  0  0  0  0  0  0  0  0  0  0  0
  -20.5316  -22.8740   22.5029 C   0  0  0  0  0  0  0  0  0  0  0  0
  -20.7972  -22.7780   20.1035 C   0  0  0  0  0  0  0  0  0  0  0  0
  -27.6291  -29.2663   20.9779 C   0  0  0  0  0  0  0  0  0  0  0  0
  -26.5192  -27.2190   19.4538 C   0  0  0  0  0  0  0  0  0  0  0  0
  -24.7309  -21.3934   18.8456 C   0  0  0  0  0  0  0  0  0  0  0  0
  -20.6191  -24.2654   22.4569 C   0  0  0  0  0  0  0  0  0  0  0  0
  -20.8846  -24.1694   20.0575 C   0  0  0  0  0  0  0  0  0  0  0  0
  -24.3575  -20.6379   17.7349 C   0  0  0  0  0  0  0  0  0  0  0  0
  -18.6003  -26.8637   21.6783 C   0  0  0  0  0  0  0  0  0  0  0  0
  -17.6773  -27.5962   22.4247 C   0  0  0  0  0  0  0  0  0  0  0  0
  -24.4397  -11.3868   18.6727 C   0  0  0  0  0  0  0  0  0  0  0  0
  -24.7826  -12.4896   19.4933 C   0  0  0  0  0  0  0  0  0  0  0  0
  -26.6042  -19.7745   17.5743 C   0  0  0  0  0  0  0  0  0  0  0  0
  -19.4846  -28.5977   23.6768 C   0  0  0  0  0  0  0  0  0  0  0  0
  -20.6208  -22.1303   21.3262 C   0  0  0  0  0  0  0  0  0  0  0  0
  -19.3651  -19.9104   21.2752 C   0  0  0  0  0  0  0  0  0  0  0  0
  -28.4311  -28.1782   20.5992 C   0  0  0  0  0  0  0  0  0  0  0  0
  -26.0487  -21.3534   19.3231 C   0  0  0  0  0  0  0  0  0  0  0  0
  -27.8741  -27.1466   19.8194 C   0  0  0  0  0  0  0  0  0  0  0  0
  -26.9912  -20.5285   18.6928 C   0  0  0  0  0  0  0  0  0  0  0  0
  -20.7955  -24.9130   21.2342 C   0  0  0  0  0  0  0  0  0  0  0  0
  -25.2949  -19.8305   17.0973 C   0  0  0  0  0  0  0  0  0  0  0  0
  -19.9655  -26.9981   21.9313 C   0  0  0  0  0  0  0  0  0  0  0  0
  -18.1194  -28.4633   23.4239 C   0  0  0  0  0  0  0  0  0  0  0  0
  -20.4076  -27.8651   22.9305 C   0  0  0  0  0  0  0  0  0  0  0  0
  -20.5311  -20.6930   21.3731 C   0  0  0  0  0  0  0  0  0  0  0  0
  -25.2799  -11.4091   17.5815 C   0  0  0  0  0  0  0  0  0  0  0  0
  -25.8219  -13.1524   18.8784 C   0  0  0  0  0  0  0  0  0  0  0  0
  -19.8114  -18.6153   21.3756 C   0  0  0  0  0  0  0  0  0  0  0  0
  -18.0005  -20.3176   21.1083 C   0  0  0  0  0  0  0  0  0  0  0  0
  -28.3782  -23.4896   19.6602 C   0  0  0  0  0  0  0  0  0  0  0  0
  -29.8918  -21.0287   21.1350 C   0  0  0  0  0  0  0  0  0  0  0  0
  -30.2157  -17.6566   21.5481 C   0  0  0  0  0  0  0  0  0  0  0  0
  -25.0158  -16.1382   20.0975 C   0  0  0  0  0  0  0  0  0  0  0  0
  -29.8893  -28.1822   20.9845 C   0  0  0  0  0  0  0  0  0  0  0  0
  -26.4289  -22.1538   20.5386 C   0  0  0  0  0  0  0  0  0  0  0  0
  -28.4138  -20.4346   19.1786 C   0  0  0  0  0  0  0  0  0  0  0  0
  -30.5596  -26.8177   20.8464 C   0  0  0  0  0  0  0  0  0  0  0  0
  -23.3331  -16.0065   23.2989 C   0  0  0  0  0  0  0  0  0  0  0  0
  -30.2009  -26.1798   19.5081 C   0  0  0  0  0  0  0  0  0  0  0  0
  -22.3064  -17.1306   23.1493 C   0  0  0  0  0  0  0  0  0  0  0  0
  -24.6543  -16.3718   22.6288 C   0  0  0  0  0  0  0  0  0  0  0  0
  -23.5084  -17.8657   21.0387 C   0  0  0  0  0  0  0  0  0  0  0  0
  -28.6898  -25.9441   19.3966 C   0  0  1  0  0  0  0  0  0  0  0  0
  -27.9264  -22.4316   20.6266 C   0  0  1  0  0  0  0  0  0  0  0  0
  -22.1433  -17.5481   21.6758 C   0  0  2  0  0  0  0  0  0  0  0  0
  -25.3535  -10.4933   16.4244 C   0  0  0  0  0  0  0  0  0  0  0  0
  -31.0475  -15.4995   22.5241 C   0  0  0  0  0  0  0  0  0  0  0  0
  -23.4746  -16.5541   15.9811 C   0  0  0  0  0  0  0  0  0  0  0  0
  -32.2293  -21.4881   19.2284 C   0  0  0  0  0  0  0  0  0  0  0  0
  -33.0953  -19.2243   19.8558 C   0  0  0  0  0  0  0  0  0  0  0  0
  -32.8901  -21.0042   21.5914 C   0  0  0  0  0  0  0  0  0  0  0  0
  -28.1098  -17.6508   23.6275 C   0  0  0  0  0  0  0  0  0  0  0  0
  -26.5559  -14.3623   19.3031 C   0  0  0  0  0  0  0  0  0  0  0  0
  -27.1584  -12.8673   16.7701 C   0  0  0  0  0  0  0  0  0  0  0  0
  -26.6260  -13.5406   15.5119 C   0  0  0  0  0  0  0  0  0  0  0  0
  -25.4396  -15.5802   14.6926 C   0  0  0  0  0  0  0  0  0  0  0  0
  -25.6290  -17.8648   15.8011 C   0  0  0  0  0  0  0  0  0  1  0  0
  -30.7990  -19.9086   20.6863 C   0  0  1  0  0  0  0  0  0  0  0  0
  -30.3061  -16.7989   22.7973 C   0  0  2  0  0  0  0  0  0  0  0  0
  -24.7010  -16.8562   15.1125 C   0  0  2  0  0  0  0  0  0  0  0  0
  -32.2272  -20.4093   20.3299 C   0  0  0  0  0  0  0  0  0  0  0  0
  -21.6352  -19.9567   21.5243 N   0  0  0  0  0  0  0  0  0  0  0  0
  -26.1156  -12.4869   17.7170 N   0  0  0  0  0  0  0  0  0  0  0  0
  -21.1648  -18.6978   21.5222 N   0  0  0  0  0  0  0  0  0  0  0  0
  -28.7384  -21.2411   20.3667 N   0  0  0  0  0  0  0  0  0  0  0  0
  -24.4318  -16.7413   21.2238 N   0  0  0  0  0  0  0  0  0  0  0  0
  -19.1742  -17.4254   21.3520 N   0  0  0  0  0  0  0  0  0  0  0  0
  -17.7178  -21.6877   21.0229 N   0  0  0  0  0  0  0  0  0  0  0  0
  -28.3028  -24.7762   20.1587 N   0  0  0  0  0  0  0  0  0  0  0  0
  -30.7644  -18.9061   21.7456 N   0  0  0  0  0  0  0  0  0  0  0  0
  -25.8836  -15.0852   20.3597 N   0  0  0  0  0  0  0  0  0  0  0  0
  -28.9421  -16.4656   23.2966 N   0  3  0  0  0  0  0  0  0  0  0  0
  -25.9400  -14.8155   15.8596 N   0  3  0  0  0  0  0  0  0  0  0  0
  -17.0580  -19.4917   21.0535 O   0  0  0  0  0  0  0  0  0  0  0  0
  -28.7679  -23.1628   18.5452 O   0  0  0  0  0  0  0  0  0  0  0  0
  -30.1918  -21.6863   22.1346 O   0  0  0  0  0  0  0  0  0  0  0  0
  -29.7123  -17.2568   20.5006 O   0  0  0  0  0  0  0  0  0  0  0  0
  -24.7773  -16.5074   18.9426 O   0  0  0  0  0  0  0  0  0  0  0  0
  -20.8806  -26.2707   21.1889 O   0  0  0  0  0  0  0  0  0  0  0  0
  -24.9333  -19.0926   16.0126 O   0  0  0  0  0  0  0  0  0  1  0  0
  -17.2330  -29.1678   24.1395 F   0  0  0  0  0  0  0  0  0  0  0  0
  -21.7179  -27.9993   23.1773 F   0  0  0  0  0  0  0  0  0  0  0  0
  1  2  1  0  0  0  0
  1  5  2  0  0  0  0
  2  6  2  0  0  0  0
  3  8  2  0  0  0  0
  3 17  1  0  0  0  0
  4  9  1  0  0  0  0
  4 17  2  0  0  0  0
  5 19  1  0  0  0  0
  6 21  1  0  0  0  0
  7 10  2  0  0  0  0
  7 20  1  0  0  0  0
  8 23  1  0  0  0  0
  9 23  2  0  0  0  0
 10 24  1  0  0  0  0
 11 12  2  0  0  0  0
 11 25  1  0  0  0  0
 12 26  1  0  0  0  0
 13 14  1  0  0  0  0
 13 29  2  0  0  0  0
 14 30  2  0  0  0  0
 15 22  1  0  0  0  0
 15 24  2  0  0  0  0
 16 26  2  0  0  0  0
 16 27  1  0  0  0  0
 17 28  1  0  0  0  0
 18 28  1  0  0  0  0
 18 31  2  0  0  0  0
 18 32  1  0  0  0  0
 19 21  2  0  0  0  0
 19 37  1  0  0  0  0
 20 22  2  0  0  0  0
 20 38  1  0  0  0  0
 21 46  1  0  0  0  0
 22 39  1  0  0  0  0
 23 82  1  0  0  0  0
 24 83  1  0  0  0  0
 25 27  2  0  0  0  0
 25 82  1  0  0  0  0
 26 84  1  0  0  0  0
 27 85  1  0  0  0  0
 28 65  2  0  0  0  0
 29 49  1  0  0  0  0
 29 66  1  0  0  0  0
 30 56  1  0  0  0  0
 30 66  1  0  0  0  0
 31 67  1  0  0  0  0
 31 70  1  0  0  0  0
 32 71  1  0  0  0  0
 32 77  2  0  0  0  0
 33 47  1  0  0  0  0
 33 72  1  0  0  0  0
 33 78  2  0  0  0  0
 34 61  1  0  0  0  0
 34 68  1  0  0  0  0
 34 79  2  0  0  0  0
 35 62  1  0  0  0  0
 35 73  1  0  0  0  0
 35 80  2  0  0  0  0
 36 69  1  0  0  0  0
 36 74  1  0  0  0  0
 36 81  2  0  0  0  0
 37 40  1  0  0  0  0
 38 47  1  0  0  0  0
 39 68  1  0  0  0  0
 40 42  1  0  0  0  0
 41 43  1  0  0  0  0
 41 44  1  0  0  0  0
 42 46  1  0  0  0  0
 43 48  1  0  0  0  0
 44 69  1  0  0  0  0
 45 48  1  0  0  0  0
 45 69  1  0  0  0  0
 46 72  1  0  0  0  0
 47 68  1  0  0  0  0
 48 67  1  0  0  0  0
 50 62  1  0  0  0  0
 51 63  1  0  0  0  0
 52 64  1  0  0  0  0
 53 64  1  0  0  0  0
 54 64  1  0  0  0  0
 55 75  1  0  0  0  0
 56 74  1  0  0  0  0
 57 58  1  0  0  0  0
 57 66  1  0  0  0  0
 58 76  1  0  0  0  0
 59 63  1  0  0  0  0
 59 76  1  0  0  0  0
 60 63  1  0  0  0  0
 60 83  1  0  0  0  0
 61 64  1  0  0  0  0
 61 73  1  0  0  0  0
 62 75  1  0  0  0  0
 65 67  1  0  0  0  0
M  CHG  2  75   1  76   1
M  ISO  4  36 100  60 101  74 100  83 101
M  END
> <Batch ID>
0097

> <Smiles>
CNC(C)C(=O)NC(C(=O)N1Cc2cc([101O:1][101CH2:1]C(C)CNCCn3c(C)ccc3C[100NH:0][100C:0](=O)N3CCCC(n4nc(-c5ccc(Oc6ccc(F)cc6F)cc5)c(C(N)=O)c4N)C3)ccc2CC1C(=O)NC1CCCc2ccccc21)C(C)(C)C

> <Shape>
0.203

> <Color>
0.062

> <Negative vol penalty>
0.000

$$$$

  -OEChem-04052319263D

 85 93  0     1  0  0  0  0  0999 V2000
  -18.7062  -33.4055   20.6918 C   0  0  0  0  0  0  0  0  0  0  0  0
  -20.0382  -33.1764   20.3623 C   0  0  0  0  0  0  0  0  0  0  0  0
  -24.6494  -13.0122   19.1791 C   0  0  0  0  0  0  0  0  0  0  0  0
  -25.8527  -13.8730   21.0891 C   0  0  0  0  0  0  0  0  0  0  0  0
  -18.1477  -32.7811   21.8063 C   0  0  0  0  0  0  0  0  0  0  0  0
  -20.8129  -32.3234   21.1477 C   0  0  0  0  0  0  0  0  0  0  0  0
  -25.2634  -28.5796   19.2287 C   0  0  0  0  0  0  0  0  0  0  0  0
  -24.7331  -11.7239   19.7069 C   0  0  0  0  0  0  0  0  0  0  0  0
  -25.9364  -12.5846   21.6170 C   0  0  0  0  0  0  0  0  0  0  0  0
  -26.6519  -28.7036   19.2136 C   0  0  0  0  0  0  0  0  0  0  0  0
  -24.3146   -8.2598   20.7268 C   0  0  0  0  0  0  0  0  0  0  0  0
  -23.1636   -7.4723   20.7009 C   0  0  0  0  0  0  0  0  0  0  0  0
  -26.7769  -27.4894   21.2943 C   0  0  0  0  0  0  0  0  0  0  0  0
  -22.0132   -9.1091   22.0555 C   0  0  0  0  0  0  0  0  0  0  0  0
  -30.7764  -22.9362   18.3359 C   0  0  0  0  0  0  0  0  0  0  0  0
  -25.2093  -14.0868   19.8701 C   0  0  0  0  0  0  0  0  0  0  0  0
  -24.1023  -16.3618   19.5434 C   0  0  0  0  0  0  0  0  0  0  0  0
  -18.9131  -31.9125   22.6002 C   0  0  0  0  0  0  0  0  0  0  0  0
  -24.6193  -27.9179   20.2840 C   0  0  0  0  0  0  0  0  0  0  0  0
  -20.2644  -31.6878   22.2746 C   0  0  0  0  0  0  0  0  0  0  0  0
  -25.3803  -27.3561   21.3191 C   0  0  0  0  0  0  0  0  0  0  0  0
  -25.3766  -11.5100   20.9259 C   0  0  0  0  0  0  0  0  0  0  0  0
  -27.4088  -28.1610   20.2480 C   0  0  0  0  0  0  0  0  0  0  0  0
  -24.3149   -9.4719   21.4172 C   0  0  0  0  0  0  0  0  0  0  0  0
  -22.0129   -7.8970   21.3651 C   0  0  0  0  0  0  0  0  0  0  0  0
  -23.1642   -9.8965   22.0814 C   0  0  0  0  0  0  0  0  0  0  0  0
  -25.1237  -15.4179   19.3251 C   0  0  0  0  0  0  0  0  0  0  0  0
  -30.5843  -21.7759   19.0314 C   0  0  0  0  0  0  0  0  0  0  0  0
  -24.4851  -17.4578   18.8094 C   0  0  0  0  0  0  0  0  0  0  0  0
  -29.4773  -23.3868   20.0707 C   0  0  0  0  0  0  0  0  0  0  0  0
  -22.9139  -16.2573   20.3386 C   0  0  0  0  0  0  0  0  0  0  0  0
  -22.5097  -28.7624   22.5066 C   0  0  0  0  0  0  0  0  0  0  0  0
  -22.5525  -25.5931   23.1963 C   0  0  0  0  0  0  0  0  0  0  0  0
  -24.2335  -22.6253   23.0806 C   0  0  0  0  0  0  0  0  0  0  0  0
  -29.8070  -19.4343   16.9063 C   0  0  0  0  0  0  0  0  0  0  0  0
  -18.2788  -31.2973   23.8224 C   0  0  0  0  0  0  0  0  0  0  0  0
  -23.1226  -27.7693   20.2719 C   0  0  0  0  0  0  0  0  0  0  0  0
  -24.7386  -26.6184   22.4648 C   0  0  0  0  0  0  0  0  0  0  0  0
  -19.0631  -30.1153   24.3862 C   0  0  0  0  0  0  0  0  0  0  0  0
  -26.9666  -18.6665   14.9015 C   0  0  0  0  0  0  0  0  0  0  0  0
  -20.5479  -30.4534   24.4749 C   0  0  0  0  0  0  0  0  0  0  0  0
  -26.0800  -17.8320   15.8275 C   0  0  0  0  0  0  0  0  0  0  0  0
  -28.4488  -18.3752   15.1258 C   0  0  0  0  0  0  0  0  0  0  0  0
  -28.0154  -17.6759   17.4489 C   0  0  0  0  0  0  0  0  0  0  0  0
  -21.1301  -30.7499   23.0876 C   0  0  1  0  0  0  0  0  0  0  0  0
  -22.5353  -27.5226   21.6582 C   0  0  1  0  0  0  0  0  0  0  0  0
  -26.5141  -17.9756   17.2987 C   0  0  2  0  0  0  0  0  0  0  0  0
  -29.1584  -23.9770   22.4866 C   0  0  0  0  0  0  0  0  0  0  0  0
  -31.8123  -30.0763   19.7248 C   0  0  0  0  0  0  0  0  0  0  0  0
  -24.0291  -20.2179   23.7586 C   0  0  0  0  0  0  0  0  0  0  0  0
  -23.1621  -26.3578   26.0866 C   0  0  0  0  0  0  0  0  0  0  0  0
  -23.8748  -23.9918   26.4890 C   0  0  0  0  0  0  0  0  0  0  0  0
  -21.5218  -24.4881   25.8260 C   0  0  0  0  0  0  0  0  0  0  0  0
  -24.3988  -21.7004   20.2741 C   0  0  0  0  0  0  0  0  0  0  0  0
  -31.0765  -20.4155   18.7996 C   0  0  0  0  0  0  0  0  0  0  0  0
  -28.6265  -24.0972   21.0578 C   0  0  0  0  0  0  0  0  0  0  0  0
  -31.7060  -28.5910   20.0414 C   0  0  0  0  0  0  0  0  0  0  0  0
  -30.8748  -26.3018   19.4375 C   0  0  0  0  0  0  0  0  0  0  0  0
  -30.0086  -25.3639   18.5847 C   0  0  0  0  0  0  0  0  0  0  0  0
  -29.3995  -28.3436   18.9598 C   0  0  0  0  0  0  0  0  0  1  0  0
  -23.3658  -24.7088   24.1104 C   0  0  1  0  0  0  0  0  0  0  0  0
  -23.7961  -21.2359   22.6531 C   0  0  2  0  0  0  0  0  0  0  0  0
  -30.8344  -27.7986   19.0389 C   0  0  1  0  0  0  0  0  0  0  0  0
  -22.9934  -24.9021   25.6075 C   0  0  0  0  0  0  0  0  0  0  0  0
  -26.0831  -15.8742   18.5156 N   0  0  0  0  0  0  0  0  0  0  0  0
  -30.0798  -23.9162   19.0010 N   0  0  0  0  0  0  0  0  0  0  0  0
  -25.6663  -17.1169   18.2188 N   0  0  0  0  0  0  0  0  0  0  0  0
  -29.7770  -22.0842   20.0997 N   0  3  0  0  0  0  0  0  0  0  0  0
  -23.2717  -26.5052   22.4110 N   0  0  0  0  0  0  0  0  0  0  0  0
  -28.7956  -18.5308   16.5405 N   0  0  0  0  0  0  0  0  0  0  0  0
  -23.9232  -18.6702   18.6180 N   0  0  0  0  0  0  0  0  0  0  0  0
  -22.6743  -15.0607   21.0279 N   0  0  0  0  0  0  0  0  0  0  0  0
  -21.3621  -29.5187   22.3632 N   0  0  0  0  0  0  0  0  0  0  0  0
  -23.1897  -23.3453   23.6222 N   0  0  0  0  0  0  0  0  0  0  0  0
  -30.0687  -19.5254   18.2679 N   0  0  0  0  0  0  0  0  0  0  0  0
  -24.5558  -20.8019   21.4467 N   0  3  0  0  0  0  0  0  0  0  0  0
  -22.0807  -17.1912   20.4220 O   0  0  0  0  0  0  0  0  0  0  0  0
  -23.4600  -29.0135   23.2384 O   0  0  0  0  0  0  0  0  0  0  0  0
  -21.3249  -25.4739   23.1745 O   0  0  0  0  0  0  0  0  0  0  0  0
  -25.3867  -23.0300   22.9506 O   0  0  0  0  0  0  0  0  0  0  0  0
  -30.4269  -20.1138   16.0810 O   0  0  0  0  0  0  0  0  0  0  0  0
  -25.4582  -10.2530   21.4414 O   0  0  0  0  0  0  0  0  0  0  0  0
  -28.7642  -28.2812   20.2361 O   0  0  0  0  0  0  0  0  0  1  0  0
  -20.9072   -7.1414   21.3388 F   0  0  0  0  0  0  0  0  0  0  0  0
  -23.1582  -11.0606   22.7453 F   0  0  0  0  0  0  0  0  0  0  0  0
  1  2  1  0  0  0  0
  1  5  2  0  0  0  0
  2  6  2  0  0  0  0
  3  8  2  0  0  0  0
  3 16  1  0  0  0  0
  4  9  1  0  0  0  0
  4 16  2  0  0  0  0
  5 18  1  0  0  0  0
  6 20  1  0  0  0  0
  7 10  2  0  0  0  0
  7 19  1  0  0  0  0
  8 22  1  0  0  0  0
  9 22  2  0  0  0  0
 10 23  1  0  0  0  0
 11 12  2  0  0  0  0
 11 24  1  0  0  0  0
 12 25  1  0  0  0  0
 13 21  1  0  0  0  0
 13 23  2  0  0  0  0
 14 25  2  0  0  0  0
 14 26  1  0  0  0  0
 15 28  2  0  0  0  0
 15 66  1  0  0  0  0
 16 27  1  0  0  0  0
 17 27  1  0  0  0  0
 17 29  2  0  0  0  0
 17 31  1  0  0  0  0
 18 20  2  0  0  0  0
 18 36  1  0  0  0  0
 19 21  2  0  0  0  0
 19 37  1  0  0  0  0
 20 45  1  0  0  0  0
 21 38  1  0  0  0  0
 22 82  1  0  0  0  0
 23 83  1  0  0  0  0
 24 26  2  0  0  0  0
 24 82  1  0  0  0  0
 25 84  1  0  0  0  0
 26 85  1  0  0  0  0
 27 65  2  0  0  0  0
 28 55  1  0  0  0  0
 28 68  1  0  0  0  0
 29 67  1  0  0  0  0
 29 71  1  0  0  0  0
 30 56  1  0  0  0  0
 30 66  1  0  0  0  0
 30 68  2  0  0  0  0
 31 72  1  0  0  0  0
 31 77  2  0  0  0  0
 32 46  1  0  0  0  0
 32 73  1  0  0  0  0
 32 78  2  0  0  0  0
 33 61  1  0  0  0  0
 33 69  1  0  0  0  0
 33 79  2  0  0  0  0
 34 62  1  0  0  0  0
 34 74  1  0  0  0  0
 34 80  2  0  0  0  0
 35 70  1  0  0  0  0
 35 75  1  0  0  0  0
 35 81  2  0  0  0  0
 36 39  1  0  0  0  0
 37 46  1  0  0  0  0
 38 69  1  0  0  0  0
 39 41  1  0  0  0  0
 40 42  1  0  0  0  0
 40 43  1  0  0  0  0
 41 45  1  0  0  0  0
 42 47  1  0  0  0  0
 43 70  1  0  0  0  0
 44 47  1  0  0  0  0
 44 70  1  0  0  0  0
 45 73  1  0  0  0  0
 46 69  1  0  0  0  0
 47 67  1  0  0  0  0
 48 56  1  0  0  0  0
 49 57  1  0  0  0  0
 50 62  1  0  0  0  0
 51 64  1  0  0  0  0
 52 64  1  0  0  0  0
 53 64  1  0  0  0  0
 54 76  1  0  0  0  0
 55 75  1  0  0  0  0
 57 63  1  0  0  0  0
 58 59  1  0  0  0  0
 58 63  1  0  0  0  0
 59 66  1  0  0  0  0
 60 63  1  0  0  0  0
 60 83  1  0  0  0  0
 61 64  1  0  0  0  0
 61 74  1  0  0  0  0
 62 76  1  0  0  0  0
 65 67  1  0  0  0  0
M  CHG  2  68   1  76   1
M  ISO  4  35 100  60 101  75 100  83 101
M  END
> <Batch ID>
0097

> <Smiles>
CCc1nc(C[100NH:0][100C:0](=O)N2CCCC(n3nc(-c4ccc(Oc5ccc(F)cc5F)cc4)c(C(N)=O)c3N)C2)cn1CCC(CC)[101CH2:1][101O:1]c1ccc2c(c1)CN(C(=O)C(NC(=O)C(C)NC)C(C)(C)C)C(C(=O)NC1CCCc3ccccc31)C2

> <Shape>
0.198

> <Color>
0.087

> <Negative vol penalty>
0.000

$$$$

  -OEChem-04052319263D

 90 98  0     1  0  0  0  0  0999 V2000
  -27.1708  -33.3730   26.1114 C   0  0  0  0  0  0  0  0  0  0  0  0
  -28.0139  -32.3685   25.6469 C   0  0  0  0  0  0  0  0  0  0  0  0
  -21.3192  -18.1439   21.7483 C   0  0  0  0  0  0  0  0  0  0  0  0
  -23.2030  -18.5382   23.2088 C   0  0  0  0  0  0  0  0  0  0  0  0
  -25.7888  -33.2314   25.9935 C   0  0  0  0  0  0  0  0  0  0  0  0
  -27.4753  -31.2214   25.0653 C   0  0  0  0  0  0  0  0  0  0  0  0
  -28.8653  -26.3518   19.9985 C   0  0  0  0  0  0  0  0  0  0  0  0
  -20.4921  -18.8449   22.6258 C   0  0  0  0  0  0  0  0  0  0  0  0
  -22.3759  -19.2393   24.0863 C   0  0  0  0  0  0  0  0  0  0  0  0
  -28.9426  -24.9707   19.8243 C   0  0  0  0  0  0  0  0  0  0  0  0
  -21.0033  -22.3209   24.2872 C   0  0  0  0  0  0  0  0  0  0  0  0
  -21.4768  -23.5309   24.7944 C   0  0  0  0  0  0  0  0  0  0  0  0
  -26.5427  -24.8705   19.6018 C   0  0  0  0  0  0  0  0  0  0  0  0
  -32.9948  -16.2240   21.5336 C   0  0  0  0  0  0  0  0  0  0  0  0
  -21.3094  -22.6551   27.0399 C   0  0  0  0  0  0  0  0  0  0  0  0
  -22.6747  -17.9904   22.0398 C   0  0  0  0  0  0  0  0  0  0  0  0
  -24.2596  -17.7907   20.0509 C   0  0  0  0  0  0  0  0  0  0  0  0
  -25.2333  -32.0863   25.4013 C   0  0  0  0  0  0  0  0  0  0  0  0
  -27.6231  -27.0023   19.9866 C   0  0  0  0  0  0  0  0  0  0  0  0
  -26.0845  -31.0638   24.9405 C   0  0  0  0  0  0  0  0  0  0  0  0
  -26.4526  -26.2603   19.7736 C   0  0  0  0  0  0  0  0  0  0  0  0
  -31.2701  -17.1745   20.1529 C   0  0  0  0  0  0  0  0  0  0  0  0
  -21.0204  -19.3927   23.7947 C   0  0  0  0  0  0  0  0  0  0  0  0
  -27.7810  -24.2295   19.6288 C   0  0  0  0  0  0  0  0  0  0  0  0
  -20.6828  -21.2780   25.1563 C   0  0  0  0  0  0  0  0  0  0  0  0
  -32.0059  -16.0703   20.5683 C   0  0  0  0  0  0  0  0  0  0  0  0
  -21.6298  -23.6981   26.1707 C   0  0  0  0  0  0  0  0  0  0  0  0
  -20.8359  -21.4451   26.5326 C   0  0  0  0  0  0  0  0  0  0  0  0
  -23.5295  -17.2659   21.1341 C   0  0  0  0  0  0  0  0  0  0  0  0
  -33.2072  -17.4928   22.0482 C   0  0  0  0  0  0  0  0  0  0  0  0
  -31.5595  -18.4007   20.7295 C   0  0  0  0  0  0  0  0  0  0  0  0
  -24.9051  -16.7041   19.5132 C   0  0  0  0  0  0  0  0  0  0  0  0
  -24.3467  -19.1399   19.5736 C   0  0  0  0  0  0  0  0  0  0  0  0
  -25.9667  -28.7134   22.0919 C   0  0  0  0  0  0  0  0  0  0  0  0
  -23.9778  -29.1693   19.5703 C   0  0  0  0  0  0  0  0  0  0  0  0
  -22.8145  -28.0592   16.5601 C   0  0  0  0  0  0  0  0  0  0  0  0
  -27.8642  -12.0112   20.1176 C   0  0  0  0  0  0  0  0  0  0  0  0
  -23.7320  -31.9570   25.3388 C   0  0  0  0  0  0  0  0  0  0  0  0
  -27.5590  -28.4962   20.1493 C   0  0  0  0  0  0  0  0  0  0  0  0
  -25.0961  -26.9135   19.7320 C   0  0  0  0  0  0  0  0  0  0  0  0
  -23.2533  -30.8781   24.3707 C   0  0  0  0  0  0  0  0  0  0  0  0
  -24.3240  -11.7583   20.4008 C   0  0  0  0  0  0  0  0  0  0  0  0
  -24.0494  -29.5921   24.5686 C   0  0  0  0  0  0  0  0  0  0  0  0
  -23.8630  -13.2108   20.5337 C   0  0  0  0  0  0  0  0  0  0  0  0
  -25.6515  -11.5197   21.1170 C   0  0  0  0  0  0  0  0  0  0  0  0
  -26.2779  -13.8895   20.8606 C   0  0  0  0  0  0  0  0  0  0  0  0
  -25.5390  -29.8156   24.2812 C   0  0  1  0  0  0  0  0  0  0  0  0
  -26.1976  -28.9867   20.6325 C   0  0  1  0  0  0  0  0  0  0  0  0
  -24.9714  -14.1921   20.1071 C   0  0  2  0  0  0  0  0  0  0  0  0
  -34.2603  -17.6946   23.0859 C   0  0  0  0  0  0  0  0  0  0  0  0
  -30.7798  -16.9158   17.7077 C   0  0  0  0  0  0  0  0  0  0  0  0
  -28.6595  -20.7593   23.4208 C   0  0  0  0  0  0  0  0  0  0  0  0
  -21.1628  -28.6233   14.7570 C   0  0  0  0  0  0  0  0  0  0  0  0
  -21.7047  -28.1684   21.3426 C   0  0  0  0  0  0  0  0  0  0  0  0
  -20.3262  -27.8523   19.2767 C   0  0  0  0  0  0  0  0  0  0  0  0
  -21.1212  -30.1312   19.9068 C   0  0  0  0  0  0  0  0  0  0  0  0
  -24.9486  -28.3215   14.5265 C   0  0  0  0  0  0  0  0  0  0  0  0
  -30.2061  -17.0346   19.1174 C   0  0  0  0  0  0  0  0  0  0  0  0
  -30.7926  -19.6360   20.3192 C   0  0  0  0  0  0  0  0  0  0  0  0
  -29.8736  -20.5157   22.5336 C   0  0  0  0  0  0  0  0  0  0  0  0
  -31.1421  -12.5243   20.1636 C   0  0  0  0  0  0  0  0  0  0  0  0
  -28.4824  -20.7802   20.4254 C   0  0  0  0  0  0  0  0  0  0  0  0
  -30.0415  -12.6621   19.1203 C   0  0  0  0  0  0  0  0  0  0  0  0
  -31.3780  -13.8084   20.9495 C   0  0  0  0  0  0  0  0  0  0  0  0
  -28.9297  -22.2023   20.1051 C   0  0  0  0  0  0  0  0  0  1  0  0
  -22.7776  -28.4445   19.0106 C   0  0  1  0  0  0  0  0  0  0  0  0
  -22.5975  -28.7737   15.2384 C   0  0  2  0  0  0  0  0  0  0  0  0
  -29.5219  -19.9022   21.1600 C   0  0  1  0  0  0  0  0  0  0  0  0
  -21.5077  -28.6362   19.8868 C   0  0  0  0  0  0  0  0  0  0  0  0
  -23.6949  -15.9482   21.2773 N   0  0  0  0  0  0  0  0  0  0  0  0
  -32.5125  -18.5890   21.6697 N   0  0  0  0  0  0  0  0  0  0  0  0
  -24.5364  -15.6360   20.2770 N   0  0  0  0  0  0  0  0  0  0  0  0
  -25.0850  -28.3759   19.9025 N   0  0  0  0  0  0  0  0  0  0  0  0
  -26.6599  -12.4819   20.6663 N   0  0  0  0  0  0  0  0  0  0  0  0
  -25.7463  -16.5677   18.4662 N   0  0  0  0  0  0  0  0  0  0  0  0
  -23.6191  -20.1336   20.2425 N   0  0  0  0  0  0  0  0  0  0  0  0
  -25.7788  -29.8504   22.8544 N   0  0  0  0  0  0  0  0  0  0  0  0
  -22.6287  -28.9040   17.6339 N   0  0  0  0  0  0  0  0  0  0  0  0
  -28.7624  -12.9897   19.7097 N   0  0  0  0  0  0  0  0  0  0  0  0
  -23.5043  -28.2181   14.1943 N   0  3  0  0  0  0  0  0  0  0  0  0
  -25.0360  -19.4522   18.5732 O   0  0  0  0  0  0  0  0  0  0  0  0
  -25.9582  -27.5565   22.4959 O   0  0  0  0  0  0  0  0  0  0  0  0
  -23.9370  -30.3953   19.7011 O   0  0  0  0  0  0  0  0  0  0  0  0
  -23.1147  -26.8696   16.6328 O   0  0  0  0  0  0  0  0  0  0  0  0
  -28.1177  -10.8080   19.9951 O   0  0  0  0  0  0  0  0  0  0  0  0
  -20.2137  -20.0770   24.6511 O   0  0  0  0  0  0  0  0  0  0  0  0
  -27.8535  -22.8812   19.4591 O   0  0  0  0  0  0  0  0  0  1  0  0
  -31.7725  -14.8361   20.0423 O   0  0  0  0  0  0  0  0  0  0  0  0
  -22.0859  -24.8596   26.6576 F   0  0  0  0  0  0  0  0  0  0  0  0
  -20.5308  -20.4464   27.3724 F   0  0  0  0  0  0  0  0  0  0  0  0
  1  2  1  0  0  0  0
  1  5  2  0  0  0  0
  2  6  2  0  0  0  0
  3  8  2  0  0  0  0
  3 16  1  0  0  0  0
  4  9  1  0  0  0  0
  4 16  2  0  0  0  0
  5 18  1  0  0  0  0
  6 20  1  0  0  0  0
  7 10  2  0  0  0  0
  7 19  1  0  0  0  0
  8 23  1  0  0  0  0
  9 23  2  0  0  0  0
 10 24  1  0  0  0  0
 11 12  2  0  0  0  0
 11 25  1  0  0  0  0
 12 27  1  0  0  0  0
 13 21  1  0  0  0  0
 13 24  2  0  0  0  0
 14 26  2  0  0  0  0
 14 30  1  0  0  0  0
 15 27  2  0  0  0  0
 15 28  1  0  0  0  0
 16 29  1  0  0  0  0
 17 29  1  0  0  0  0
 17 32  2  0  0  0  0
 17 33  1  0  0  0  0
 18 20  2  0  0  0  0
 18 38  1  0  0  0  0
 19 21  2  0  0  0  0
 19 39  1  0  0  0  0
 20 47  1  0  0  0  0
 21 40  1  0  0  0  0
 22 26  1  0  0  0  0
 22 31  2  0  0  0  0
 22 58  1  0  0  0  0
 23 86  1  0  0  0  0
 24 87  1  0  0  0  0
 25 28  2  0  0  0  0
 25 86  1  0  0  0  0
 26 88  1  0  0  0  0
 27 89  1  0  0  0  0
 28 90  1  0  0  0  0
 29 70  2  0  0  0  0
 30 50  1  0  0  0  0
 30 71  2  0  0  0  0
 31 59  1  0  0  0  0
 31 71  1  0  0  0  0
 32 72  1  0  0  0  0
 32 75  1  0  0  0  0
 33 76  1  0  0  0  0
 33 81  2  0  0  0  0
 34 48  1  0  0  0  0
 34 77  1  0  0  0  0
 34 82  2  0  0  0  0
 35 66  1  0  0  0  0
 35 73  1  0  0  0  0
 35 83  2  0  0  0  0
 36 67  1  0  0  0  0
 36 78  1  0  0  0  0
 36 84  2  0  0  0  0
 37 74  1  0  0  0  0
 37 79  1  0  0  0  0
 37 85  2  0  0  0  0
 38 41  1  0  0  0  0
 39 48  1  0  0  0  0
 40 73  1  0  0  0  0
 41 43  1  0  0  0  0
 42 44  1  0  0  0  0
 42 45  1  0  0  0  0
 43 47  1  0  0  0  0
 44 49  1  0  0  0  0
 45 74  1  0  0  0  0
 46 49  1  0  0  0  0
 46 74  1  0  0  0  0
 47 77  1  0  0  0  0
 48 73  1  0  0  0  0
 49 72  1  0  0  0  0
 51 58  1  0  0  0  0
 52 60  1  0  0  0  0
 53 67  1  0  0  0  0
 54 69  1  0  0  0  0
 55 69  1  0  0  0  0
 56 69  1  0  0  0  0
 57 80  1  0  0  0  0
 59 68  1  0  0  0  0
 60 68  1  0  0  0  0
 61 63  1  0  0  0  0
 61 64  1  0  0  0  0
 62 65  1  0  0  0  0
 62 68  1  0  0  0  0
 63 79  1  0  0  0  0
 64 88  1  0  0  0  0
 65 87  1  0  0  0  0
 66 69  1  0  0  0  0
 66 78  1  0  0  0  0
 67 80  1  0  0  0  0
 70 72  1  0  0  0  0
M  CHG  1  80   1
M  ISO  4  37 100  65 101  79 100  87 101
M  END
> <Batch ID>
0097

> <Smiles>
CCc1c(OCCC[100NH:0][100C:0](=O)N2CCCC(n3nc(-c4ccc(Oc5ccc(F)cc5F)cc4)c(C(N)=O)c3N)C2)cc(C)nc1CC(CC)C[101CH2:1][101O:1]c1ccc2c(c1)CN(C(=O)C(NC(=O)C(C)NC)C(C)(C)C)C(C(=O)NC1CCCc3ccccc31)C2

> <Shape>
0.239

> <Color>
0.050

> <Negative vol penalty>
0.000

$$$$

  -OEChem-04052319263D

 86 94  0     1  0  0  0  0  0999 V2000
  -35.7193  -31.1016   24.3610 C   0  0  0  0  0  0  0  0  0  0  0  0
  -34.8738  -30.0617   24.7339 C   0  0  0  0  0  0  0  0  0  0  0  0
  -23.0526   -9.9183   19.9358 C   0  0  0  0  0  0  0  0  0  0  0  0
  -23.8141   -9.9058   22.2286 C   0  0  0  0  0  0  0  0  0  0  0  0
  -35.4976  -31.7844   23.1658 C   0  0  0  0  0  0  0  0  0  0  0  0
  -33.8052  -29.7047   23.9122 C   0  0  0  0  0  0  0  0  0  0  0  0
  -33.3855  -24.6906   23.3398 C   0  0  0  0  0  0  0  0  0  0  0  0
  -22.3142   -8.7594   20.1747 C   0  0  0  0  0  0  0  0  0  0  0  0
  -23.0756   -8.7468   22.4675 C   0  0  0  0  0  0  0  0  0  0  0  0
  -32.8083  -23.9761   24.3887 C   0  0  0  0  0  0  0  0  0  0  0  0
  -23.3811   -5.4319   21.8768 C   0  0  0  0  0  0  0  0  0  0  0  0
  -24.0017   -4.4023   22.5841 C   0  0  0  0  0  0  0  0  0  0  0  0
  -30.7165  -23.9161   23.1887 C   0  0  0  0  0  0  0  0  0  0  0  0
  -30.0955  -18.2816   24.0845 C   0  0  0  0  0  0  0  0  0  0  0  0
  -22.3007   -4.5512   24.2934 C   0  0  0  0  0  0  0  0  0  0  0  0
  -23.8027  -10.4915   20.9627 C   0  0  0  0  0  0  0  0  0  0  0  0
  -24.1331  -13.0192   20.8677 C   0  0  0  0  0  0  0  0  0  0  0  0
  -34.4315  -31.4292   22.3243 C   0  0  0  0  0  0  0  0  0  0  0  0
  -32.6282  -25.0332   22.2104 C   0  0  0  0  0  0  0  0  0  0  0  0
  -33.5682  -30.3842   22.7053 C   0  0  0  0  0  0  0  0  0  0  0  0
  -31.2871  -24.6327   22.1257 C   0  0  0  0  0  0  0  0  0  0  0  0
  -28.9740  -19.0778   24.4240 C   0  0  0  0  0  0  0  0  0  0  0  0
  -22.3256   -8.1736   21.4405 C   0  0  0  0  0  0  0  0  0  0  0  0
  -31.4728  -23.5912   24.3145 C   0  0  0  0  0  0  0  0  0  0  0  0
  -22.2203   -6.0213   22.3779 C   0  0  0  0  0  0  0  0  0  0  0  0
  -23.4615   -3.9619   23.7923 C   0  0  0  0  0  0  0  0  0  0  0  0
  -21.6801   -5.5809   23.5861 C   0  0  0  0  0  0  0  0  0  0  0  0
  -24.5662  -11.6883   20.7164 C   0  0  0  0  0  0  0  0  0  0  0  0
  -29.9003  -17.8221   22.8007 C   0  0  0  0  0  0  0  0  0  0  0  0
  -28.1274  -19.0804   23.3374 C   0  0  0  0  0  0  0  0  0  0  0  0
  -25.2216  -13.7772   20.5112 C   0  0  0  0  0  0  0  0  0  0  0  0
  -22.8606  -13.5251   21.2926 C   0  0  0  0  0  0  0  0  0  0  0  0
  -31.7334  -27.7651   20.8540 C   0  0  0  0  0  0  0  0  0  0  0  0
  -30.5837  -25.7927   18.5497 C   0  0  0  0  0  0  0  0  0  0  0  0
  -29.4574  -22.6877   17.6910 C   0  0  0  0  0  0  0  0  0  0  0  0
  -30.7008  -14.8190   20.7061 C   0  0  0  0  0  0  0  0  0  0  0  0
  -34.2036  -32.2274   21.0651 C   0  0  0  0  0  0  0  0  0  0  0  0
  -33.2730  -25.7810   21.0757 C   0  0  0  0  0  0  0  0  0  0  0  0
  -30.4366  -24.9581   20.9261 C   0  0  0  0  0  0  0  0  0  0  0  0
  -33.2721  -31.5411   20.0692 C   0  0  0  0  0  0  0  0  0  0  0  0
  -29.5723  -12.4534   18.2963 C   0  0  0  0  0  0  0  0  0  0  0  0
  -32.0340  -31.0034   20.7795 C   0  0  0  0  0  0  0  0  0  0  0  0
  -28.1365  -12.1489   18.7273 C   0  0  0  0  0  0  0  0  0  0  0  0
  -30.4892  -12.6663   19.4988 C   0  0  0  0  0  0  0  0  0  0  0  0
  -28.5852  -13.3749   20.8939 C   0  0  0  0  0  0  0  0  0  0  0  0
  -32.4131  -29.9512   21.8287 C   0  0  1  0  0  0  0  0  0  0  0  0
  -32.2669  -26.5219   20.2003 C   0  0  1  0  0  0  0  0  0  0  0  0
  -27.6110  -13.2077   19.7152 C   0  0  2  0  0  0  0  0  0  0  0  0
  -27.5464  -17.7889   26.7933 C   0  0  0  0  0  0  0  0  0  0  0  0
  -26.9153  -21.2878   23.2294 C   0  0  0  0  0  0  0  0  0  0  0  0
  -25.7429  -19.2492   24.1374 C   0  0  0  0  0  0  0  0  0  0  0  0
  -28.5523  -21.3895   15.7435 C   0  0  0  0  0  0  0  0  0  0  0  0
  -27.8900  -27.1887   18.8743 C   0  0  0  0  0  0  0  0  0  0  0  0
  -26.8314  -25.2792   17.6489 C   0  0  0  0  0  0  0  0  0  0  0  0
  -28.5338  -26.7010   16.5074 C   0  0  0  0  0  0  0  0  0  0  0  0
  -28.1273  -18.0613   21.0514 C   0  0  0  0  0  0  0  0  0  0  0  0
  -31.7098  -20.7697   17.7736 C   0  0  0  0  0  0  0  0  0  0  0  0
  -30.7579  -16.9574   21.9643 C   0  0  0  0  0  0  0  0  0  0  0  0
  -28.6699  -18.8094   26.9350 C   0  0  0  0  0  0  0  0  0  0  0  0
  -29.8442  -20.8532   26.0205 C   0  0  0  0  0  0  0  0  0  0  0  0
  -29.8541  -21.9907   25.0030 C   0  0  0  0  0  0  0  0  0  1  0  0
  -28.7534  -19.7947   25.7469 C   0  0  1  0  0  0  0  0  0  0  0  0
  -26.8214  -19.7474   23.1490 C   0  0  0  0  0  0  0  0  0  0  0  0
  -29.2733  -25.0843   18.3050 C   0  0  1  0  0  0  0  0  0  0  0  0
  -29.7983  -21.7800   16.5229 C   0  0  2  0  0  0  0  0  0  0  0  0
  -28.1473  -26.0587   17.8575 C   0  0  0  0  0  0  0  0  0  0  0  0
  -25.8312  -11.6024   20.2963 N   0  0  0  0  0  0  0  0  0  0  0  0
  -28.7006  -18.3137   22.3567 N   0  0  0  0  0  0  0  0  0  0  0  0
  -26.2022  -12.8889   20.1805 N   0  0  0  0  0  0  0  0  0  0  0  0
  -31.1108  -25.6964   19.8453 N   0  0  0  0  0  0  0  0  0  0  0  0
  -29.9347  -13.6834   20.3953 N   0  0  0  0  0  0  0  0  0  0  0  0
  -25.4259  -15.1103   20.4513 N   0  0  0  0  0  0  0  0  0  0  0  0
  -21.8530  -12.6080   21.6214 N   0  0  0  0  0  0  0  0  0  0  0  0
  -32.7073  -28.6855   21.1917 N   0  0  0  0  0  0  0  0  0  0  0  0
  -29.5571  -24.0197   17.3487 N   0  0  0  0  0  0  0  0  0  0  0  0
  -30.0981  -15.7367   21.5577 N   0  0  0  0  0  0  0  0  0  0  0  0
  -30.4576  -20.5352   17.0096 N   0  3  0  0  0  0  0  0  0  0  0  0
  -22.6188  -14.7540   21.3624 O   0  0  0  0  0  0  0  0  0  0  0  0
  -30.5274  -27.8815   21.0372 O   0  0  0  0  0  0  0  0  0  0  0  0
  -31.1234  -26.4030   17.6235 O   0  0  0  0  0  0  0  0  0  0  0  0
  -29.1314  -22.2582   18.7954 O   0  0  0  0  0  0  0  0  0  0  0  0
  -31.8356  -15.0041   20.2535 O   0  0  0  0  0  0  0  0  0  0  0  0
  -21.6049   -7.0429   21.6741 O   0  0  0  0  0  0  0  0  0  0  0  0
  -30.9067  -22.8944   25.3372 O   0  0  0  0  0  0  0  0  0  1  0  0
  -24.0567   -2.9720   24.4707 F   0  0  0  0  0  0  0  0  0  0  0  0
  -20.5645   -6.1424   24.0719 F   0  0  0  0  0  0  0  0  0  0  0  0
  1  2  1  0  0  0  0
  1  5  2  0  0  0  0
  2  6  2  0  0  0  0
  3  8  2  0  0  0  0
  3 16  1  0  0  0  0
  4  9  1  0  0  0  0
  4 16  2  0  0  0  0
  5 18  1  0  0  0  0
  6 20  1  0  0  0  0
  7 10  2  0  0  0  0
  7 19  1  0  0  0  0
  8 23  1  0  0  0  0
  9 23  2  0  0  0  0
 10 24  1  0  0  0  0
 11 12  2  0  0  0  0
 11 25  1  0  0  0  0
 12 26  1  0  0  0  0
 13 21  1  0  0  0  0
 13 24  2  0  0  0  0
 14 22  1  0  0  0  0
 14 29  2  0  0  0  0
 15 26  2  0  0  0  0
 15 27  1  0  0  0  0
 16 28  1  0  0  0  0
 17 28  1  0  0  0  0
 17 31  2  0  0  0  0
 17 32  1  0  0  0  0
 18 20  2  0  0  0  0
 18 37  1  0  0  0  0
 19 21  2  0  0  0  0
 19 38  1  0  0  0  0
 20 46  1  0  0  0  0
 21 39  1  0  0  0  0
 22 30  2  0  0  0  0
 22 62  1  0  0  0  0
 23 83  1  0  0  0  0
 24 84  1  0  0  0  0
 25 27  2  0  0  0  0
 25 83  1  0  0  0  0
 26 85  1  0  0  0  0
 27 86  1  0  0  0  0
 28 67  2  0  0  0  0
 29 58  1  0  0  0  0
 29 68  1  0  0  0  0
 30 63  1  0  0  0  0
 30 68  1  0  0  0  0
 31 69  1  0  0  0  0
 31 72  1  0  0  0  0
 32 73  1  0  0  0  0
 32 78  2  0  0  0  0
 33 47  1  0  0  0  0
 33 74  1  0  0  0  0
 33 79  2  0  0  0  0
 34 64  1  0  0  0  0
 34 70  1  0  0  0  0
 34 80  2  0  0  0  0
 35 65  1  0  0  0  0
 35 75  1  0  0  0  0
 35 81  2  0  0  0  0
 36 71  1  0  0  0  0
 36 76  1  0  0  0  0
 36 82  2  0  0  0  0
 37 40  1  0  0  0  0
 38 47  1  0  0  0  0
 39 70  1  0  0  0  0
 40 42  1  0  0  0  0
 41 43  1  0  0  0  0
 41 44  1  0  0  0  0
 42 46  1  0  0  0  0
 43 48  1  0  0  0  0
 44 71  1  0  0  0  0
 45 48  1  0  0  0  0
 45 71  1  0  0  0  0
 46 74  1  0  0  0  0
 47 70  1  0  0  0  0
 48 69  1  0  0  0  0
 49 59  1  0  0  0  0
 50 63  1  0  0  0  0
 51 63  1  0  0  0  0
 52 65  1  0  0  0  0
 53 66  1  0  0  0  0
 54 66  1  0  0  0  0
 55 66  1  0  0  0  0
 56 68  1  0  0  0  0
 57 77  1  0  0  0  0
 58 76  1  0  0  0  0
 59 62  1  0  0  0  0
 60 61  1  0  0  0  0
 60 62  1  0  0  0  0
 61 84  1  0  0  0  0
 64 66  1  0  0  0  0
 64 75  1  0  0  0  0
 65 77  1  0  0  0  0
 67 69  1  0  0  0  0
M  CHG  1  77   1
M  ISO  4  36 100  61 101  76 100  84 101
M  END
> <Batch ID>
0097

> <Smiles>
CCC(C[101CH2:1][101O:1]c1ccc2c(c1)CN(C(=O)C(NC(=O)C(C)NC)C(C)(C)C)C(C(=O)NC1CCCc3ccccc31)C2)c1cc(C[100NH:0][100C:0](=O)N2CCCC(n3nc(-c4ccc(Oc5ccc(F)cc5F)cc4)c(C(N)=O)c3N)C2)n(C)c1C(C)C

> <Shape>
0.243

> <Color>
0.210

> <Negative vol penalty>
0.000

$$$$

  -OEChem-04052319263D

 85 93  0     1  0  0  0  0  0999 V2000
  -16.8189  -27.9353   23.6469 C   0  0  0  0  0  0  0  0  0  0  0  0
  -17.5692  -27.3287   22.6447 C   0  0  0  0  0  0  0  0  0  0  0  0
  -27.2076  -12.4363   21.6801 C   0  0  0  0  0  0  0  0  0  0  0  0
  -26.5576  -13.9858   19.9442 C   0  0  0  0  0  0  0  0  0  0  0  0
  -17.1865  -29.1913   24.1279 C   0  0  0  0  0  0  0  0  0  0  0  0
  -18.6870  -27.9782   22.1221 C   0  0  0  0  0  0  0  0  0  0  0  0
  -22.6728  -24.8935   21.6294 C   0  0  0  0  0  0  0  0  0  0  0  0
  -26.3267  -11.4868   21.1625 C   0  0  0  0  0  0  0  0  0  0  0  0
  -25.6767  -13.0363   19.4265 C   0  0  0  0  0  0  0  0  0  0  0  0
  -22.6755  -24.0260   20.5379 C   0  0  0  0  0  0  0  0  0  0  0  0
  -23.0040  -10.8713   21.2356 C   0  0  0  0  0  0  0  0  0  0  0  0
  -22.1943  -10.1802   22.1369 C   0  0  0  0  0  0  0  0  0  0  0  0
  -24.1562  -25.5225   19.3600 C   0  0  0  0  0  0  0  0  0  0  0  0
  -26.0361  -21.7771   20.0262 C   0  0  0  0  0  0  0  0  0  0  0  0
  -23.1723   -8.0924   21.4148 C   0  0  0  0  0  0  0  0  0  0  0  0
  -27.2488  -20.4425   18.4755 C   0  0  0  0  0  0  0  0  0  0  0  0
  -27.3231  -13.6859   21.0710 C   0  0  0  0  0  0  0  0  0  0  0  0
  -29.5853  -14.8494   21.2613 C   0  0  0  0  0  0  0  0  0  0  0  0
  -18.3149  -29.8523   23.6177 C   0  0  0  0  0  0  0  0  0  0  0  0
  -23.4043  -26.0892   21.5901 C   0  0  0  0  0  0  0  0  0  0  0  0
  -19.0692  -29.2448   22.5958 C   0  0  0  0  0  0  0  0  0  0  0  0
  -24.1631  -26.4021   20.4533 C   0  0  0  0  0  0  0  0  0  0  0  0
  -26.0631  -21.0641   18.8329 C   0  0  0  0  0  0  0  0  0  0  0  0
  -27.1794  -21.8459   20.8146 C   0  0  0  0  0  0  0  0  0  0  0  0
  -25.5612  -11.7868   20.0356 C   0  0  0  0  0  0  0  0  0  0  0  0
  -23.4150  -24.3419   19.4019 C   0  0  0  0  0  0  0  0  0  0  0  0
  -23.8979  -10.1728   20.4239 C   0  0  0  0  0  0  0  0  0  0  0  0
  -22.2784   -8.7908   22.2266 C   0  0  0  0  0  0  0  0  0  0  0  0
  -23.9820   -8.7834   20.5135 C   0  0  0  0  0  0  0  0  0  0  0  0
  -28.2325  -14.6673   21.6056 C   0  0  0  0  0  0  0  0  0  0  0  0
  -28.3150  -21.1891   20.3686 C   0  0  0  0  0  0  0  0  0  0  0  0
  -30.0001  -15.9000   22.0426 C   0  0  0  0  0  0  0  0  0  0  0  0
  -30.3946  -14.1329   20.3193 C   0  0  0  0  0  0  0  0  0  0  0  0
  -22.6662  -29.1767   21.7531 C   0  0  0  0  0  0  0  0  0  0  0  0
  -25.8888  -29.5457   21.7831 C   0  0  0  0  0  0  0  0  0  0  0  0
  -28.9577  -28.2771   20.9960 C   0  0  0  0  0  0  0  0  0  0  0  0
  -26.9655  -20.4229   24.6573 C   0  0  0  0  0  0  0  0  0  0  0  0
  -18.6456  -31.2295   24.1360 C   0  0  0  0  0  0  0  0  0  0  0  0
  -23.4123  -27.0013   22.7861 C   0  0  0  0  0  0  0  0  0  0  0  0
  -24.9816  -27.6637   20.3688 C   0  0  0  0  0  0  0  0  0  0  0  0
  -20.0609  -31.6862   23.7918 C   0  0  0  0  0  0  0  0  0  0  0  0
  -29.1419  -18.0334   26.2243 C   0  0  0  0  0  0  0  0  0  0  0  0
  -20.3694  -31.4084   22.3240 C   0  0  0  0  0  0  0  0  0  0  0  0
  -29.2519  -16.9033   25.2033 C   0  0  0  0  0  0  0  0  0  0  0  0
  -27.7520  -18.6598   26.2096 C   0  0  0  0  0  0  0  0  0  0  0  0
  -27.4393  -18.0386   23.8348 C   0  0  0  0  0  0  0  0  0  0  0  0
  -20.3027  -29.9067   22.0209 C   0  0  1  0  0  0  0  0  0  0  0  0
  -23.7823  -28.4398   22.4380 C   0  0  1  0  0  0  0  0  0  0  0  0
  -28.8341  -17.3855   23.8042 C   0  0  2  0  0  0  0  0  0  0  0  0
  -30.3070  -22.5576   21.0362 C   0  0  0  0  0  0  0  0  0  0  0  0
  -26.7961  -24.0906   21.9133 C   0  0  0  0  0  0  0  0  0  0  0  0
  -31.4609  -28.1217   20.9105 C   0  0  0  0  0  0  0  0  0  0  0  0
  -25.5653  -31.4657   19.4339 C   0  0  0  0  0  0  0  0  0  0  0  0
  -28.0189  -31.2310   18.9943 C   0  0  0  0  0  0  0  0  0  0  0  0
  -27.2272  -32.1939   21.1550 C   0  0  0  0  0  0  0  0  0  0  0  0
  -29.0697  -26.8026   23.5597 C   0  0  0  0  0  0  0  0  0  0  0  0
  -24.8405  -20.9693   17.9556 C   0  0  0  0  0  0  0  0  0  0  0  0
  -29.5721  -21.2278   21.1746 C   0  0  0  0  0  0  0  0  0  0  0  0
  -24.7412  -22.0864   16.9146 C   0  0  0  0  0  0  0  0  0  0  0  0
  -24.5967  -23.4736   17.5295 C   0  0  0  0  0  0  0  0  0  1  0  0
  -27.1579  -22.6097   22.0935 C   0  0  1  0  0  0  0  0  0  0  0  0
  -26.9552  -29.7168   20.7283 C   0  0  1  0  0  0  0  0  0  0  0  0
  -30.2338  -28.1504   21.8084 C   0  0  2  0  0  0  0  0  0  0  0  0
  -26.9248  -31.1289   20.0784 C   0  0  0  0  0  0  0  0  0  0  0  0
  -28.3794  -20.4868   19.2152 N   0  0  0  0  0  0  0  0  0  0  0  0
  -27.8156  -15.5328   22.5336 N   0  0  0  0  0  0  0  0  0  0  0  0
  -28.9130  -16.2688   22.7790 N   0  0  0  0  0  0  0  0  0  0  0  0
  -24.9521  -28.5263   21.5615 N   0  0  0  0  0  0  0  0  0  0  0  0
  -27.3754  -19.0925   24.8609 N   0  0  0  0  0  0  0  0  0  0  0  0
  -31.1851  -16.5351   22.1648 N   0  0  0  0  0  0  0  0  0  0  0  0
  -29.8104  -13.0812   19.6003 N   0  0  0  0  0  0  0  0  0  0  0  0
  -21.4996  -29.2426   22.4908 N   0  0  0  0  0  0  0  0  0  0  0  0
  -28.2217  -29.3815   21.3701 N   0  0  0  0  0  0  0  0  0  0  0  0
  -26.6309  -20.7505   23.3517 N   0  0  0  0  0  0  0  0  0  0  0  0
  -30.2122  -26.8974   22.6149 N   0  3  0  0  0  0  0  0  0  0  0  0
  -26.2251  -22.0492   23.0998 N   0  3  0  0  0  0  0  0  0  0  0  0
  -31.6046  -14.4062   20.1329 O   0  0  0  0  0  0  0  0  0  0  0  0
  -22.8503  -29.6515   20.6385 O   0  0  0  0  0  0  0  0  0  0  0  0
  -25.8912  -30.2846   22.7709 O   0  0  0  0  0  0  0  0  0  0  0  0
  -28.6468  -27.4785   20.1150 O   0  0  0  0  0  0  0  0  0  0  0  0
  -26.9083  -21.2503   25.5738 O   0  0  0  0  0  0  0  0  0  0  0  0
  -24.7017  -10.8604   19.5301 O   0  0  0  0  0  0  0  0  0  0  0  0
  -23.4188  -23.4973   18.3349 O   0  0  0  0  0  0  0  0  0  1  0  0
  -21.5018   -8.1275   23.0932 F   0  0  0  0  0  0  0  0  0  0  0  0
  -24.8397   -8.1071   19.7371 F   0  0  0  0  0  0  0  0  0  0  0  0
  1  2  1  0  0  0  0
  1  5  2  0  0  0  0
  2  6  2  0  0  0  0
  3  8  2  0  0  0  0
  3 17  1  0  0  0  0
  4  9  1  0  0  0  0
  4 17  2  0  0  0  0
  5 19  1  0  0  0  0
  6 21  1  0  0  0  0
  7 10  2  0  0  0  0
  7 20  1  0  0  0  0
  8 25  1  0  0  0  0
  9 25  2  0  0  0  0
 10 26  1  0  0  0  0
 11 12  2  0  0  0  0
 11 27  1  0  0  0  0
 12 28  1  0  0  0  0
 13 22  1  0  0  0  0
 13 26  2  0  0  0  0
 14 23  2  0  0  0  0
 14 24  1  0  0  0  0
 15 28  2  0  0  0  0
 15 29  1  0  0  0  0
 16 23  1  0  0  0  0
 16 65  2  0  0  0  0
 17 30  1  0  0  0  0
 18 30  1  0  0  0  0
 18 32  2  0  0  0  0
 18 33  1  0  0  0  0
 19 21  2  0  0  0  0
 19 38  1  0  0  0  0
 20 22  2  0  0  0  0
 20 39  1  0  0  0  0
 21 47  1  0  0  0  0
 22 40  1  0  0  0  0
 23 57  1  0  0  0  0
 24 31  2  0  0  0  0
 24 61  1  0  0  0  0
 25 82  1  0  0  0  0
 26 83  1  0  0  0  0
 27 29  2  0  0  0  0
 27 82  1  0  0  0  0
 28 84  1  0  0  0  0
 29 85  1  0  0  0  0
 30 66  2  0  0  0  0
 31 58  1  0  0  0  0
 31 65  1  0  0  0  0
 32 67  1  0  0  0  0
 32 70  1  0  0  0  0
 33 71  1  0  0  0  0
 33 77  2  0  0  0  0
 34 48  1  0  0  0  0
 34 72  1  0  0  0  0
 34 78  2  0  0  0  0
 35 62  1  0  0  0  0
 35 68  1  0  0  0  0
 35 79  2  0  0  0  0
 36 63  1  0  0  0  0
 36 73  1  0  0  0  0
 36 80  2  0  0  0  0
 37 69  1  0  0  0  0
 37 74  1  0  0  0  0
 37 81  2  0  0  0  0
 38 41  1  0  0  0  0
 39 48  1  0  0  0  0
 40 68  1  0  0  0  0
 41 43  1  0  0  0  0
 42 44  1  0  0  0  0
 42 45  1  0  0  0  0
 43 47  1  0  0  0  0
 44 49  1  0  0  0  0
 45 69  1  0  0  0  0
 46 49  1  0  0  0  0
 46 69  1  0  0  0  0
 47 72  1  0  0  0  0
 48 68  1  0  0  0  0
 49 67  1  0  0  0  0
 50 58  1  0  0  0  0
 51 61  1  0  0  0  0
 52 63  1  0  0  0  0
 53 64  1  0  0  0  0
 54 64  1  0  0  0  0
 55 64  1  0  0  0  0
 56 75  1  0  0  0  0
 57 59  1  0  0  0  0
 59 60  1  0  0  0  0
 60 83  1  0  0  0  0
 61 76  1  0  0  0  0
 62 64  1  0  0  0  0
 62 73  1  0  0  0  0
 63 75  1  0  0  0  0
 66 67  1  0  0  0  0
 74 76  1  0  0  0  0
M  CHG  2  75   1  76   1
M  ISO  4  37 100  60 101  74 100  83 101
M  END
> <Batch ID>
0097

> <Smiles>
CCc1ncc(CC[101CH2:1][101O:1]c2ccc3c(c2)CN(C(=O)C(NC(=O)C(C)NC)C(C)(C)C)C(C(=O)NC2CCCc4ccccc42)C3)cc1C(C)N[100NH:0][100C:0](=O)N1CCCC(n2nc(-c3ccc(Oc4ccc(F)cc4F)cc3)c(C(N)=O)c2N)C1

> <Shape>
0.257

> <Color>
0.082

> <Negative vol penalty>
0.000

$$$$

  -OEChem-04052319263D

 84 92  0     1  0  0  0  0  0999 V2000
  -24.8577  -12.4497   19.3506 C   0  0  0  0  0  0  0  0  0  0  0  0
  -24.3789  -13.7464   19.5085 C   0  0  0  0  0  0  0  0  0  0  0  0
  -29.6223  -17.6173   20.4434 C   0  0  0  0  0  0  0  0  0  0  0  0
  -27.8495  -18.2322   18.9215 C   0  0  0  0  0  0  0  0  0  0  0  0
  -25.3484  -11.7500   20.4522 C   0  0  0  0  0  0  0  0  0  0  0  0
  -24.3896  -14.3437   20.7685 C   0  0  0  0  0  0  0  0  0  0  0  0
  -25.3370  -20.2613   22.0294 C   0  0  0  0  0  0  0  0  0  0  0  0
  -29.1442  -16.3073   20.4712 C   0  0  0  0  0  0  0  0  0  0  0  0
  -27.3714  -16.9221   18.9492 C   0  0  0  0  0  0  0  0  0  0  0  0
  -24.4639  -21.3147   22.2977 C   0  0  0  0  0  0  0  0  0  0  0  0
  -28.6042  -12.7173   20.6598 C   0  0  0  0  0  0  0  0  0  0  0  0
  -29.5350  -11.6847   20.5463 C   0  0  0  0  0  0  0  0  0  0  0  0
  -24.7613  -20.9504   24.6637 C   0  0  0  0  0  0  0  0  0  0  0  0
  -30.2096  -12.5301   18.3859 C   0  0  0  0  0  0  0  0  0  0  0  0
  -24.9225  -29.3582   22.4902 C   0  0  0  0  0  0  0  0  0  0  0  0
  -28.9750  -18.5798   19.6686 C   0  0  0  0  0  0  0  0  0  0  0  0
  -30.4175  -20.4736   18.7520 C   0  0  0  0  0  0  0  0  0  0  0  0
  -25.3740  -12.3426   21.7245 C   0  0  0  0  0  0  0  0  0  0  0  0
  -25.9213  -19.5364   23.0779 C   0  0  0  0  0  0  0  0  0  0  0  0
  -24.8799  -13.6508   21.8884 C   0  0  0  0  0  0  0  0  0  0  0  0
  -25.6434  -19.8899   24.4060 C   0  0  0  0  0  0  0  0  0  0  0  0
  -23.7329  -29.0869   21.8596 C   0  0  0  0  0  0  0  0  0  0  0  0
  -28.0187  -15.9597   19.7241 C   0  0  0  0  0  0  0  0  0  0  0  0
  -24.1737  -21.6575   23.6150 C   0  0  0  0  0  0  0  0  0  0  0  0
  -28.4760  -13.6563   19.6362 C   0  0  0  0  0  0  0  0  0  0  0  0
  -30.3377  -11.5911   19.4094 C   0  0  0  0  0  0  0  0  0  0  0  0
  -29.2787  -13.5627   18.4993 C   0  0  0  0  0  0  0  0  0  0  0  0
  -29.4681  -19.9334   19.6400 C   0  0  0  0  0  0  0  0  0  0  0  0
  -24.0253  -29.2108   20.4881 C   0  0  0  0  0  0  0  0  0  0  0  0
  -30.5405  -21.7861   19.1377 C   0  0  0  0  0  0  0  0  0  0  0  0
  -31.1249  -19.8453   17.6748 C   0  0  0  0  0  0  0  0  0  0  0  0
  -25.8318  -16.5057   24.0323 C   0  0  0  0  0  0  0  0  0  0  0  0
  -28.0847  -17.5098   26.1390 C   0  0  0  0  0  0  0  0  0  0  0  0
  -29.4835  -20.0961   27.8714 C   0  0  0  0  0  0  0  0  0  0  0  0
  -28.2716  -26.5564   20.5672 C   0  0  0  0  0  0  0  0  0  0  0  0
  -25.8701  -11.5297   22.8940 C   0  0  0  0  0  0  0  0  0  0  0  0
  -26.8818  -18.4201   22.7719 C   0  0  0  0  0  0  0  0  0  0  0  0
  -26.2604  -19.1562   25.5677 C   0  0  0  0  0  0  0  0  0  0  0  0
  -26.1933  -12.3702   24.1266 C   0  0  0  0  0  0  0  0  0  0  0  0
  -28.8247  -24.1872   23.2465 C   0  0  0  0  0  0  0  0  0  0  0  0
  -25.0706  -13.3649   24.4039 C   0  0  0  0  0  0  0  0  0  0  0  0
  -29.1216  -22.9068   22.4638 C   0  0  0  0  0  0  0  0  0  0  0  0
  -27.7481  -25.0198   22.5565 C   0  0  0  0  0  0  0  0  0  0  0  0
  -28.3482  -24.0883   20.3552 C   0  0  0  0  0  0  0  0  0  0  0  0
  -24.8978  -14.3419   23.2346 C   0  0  1  0  0  0  0  0  0  0  0  0
  -27.0188  -17.4194   23.9152 C   0  0  1  0  0  0  0  0  0  0  0  0
  -29.4449  -23.2135   20.9895 C   0  0  2  0  0  0  0  0  0  0  0  0
  -23.1091  -29.0264   19.3490 C   0  0  0  0  0  0  0  0  0  0  0  0
  -31.2853  -20.6008   29.5436 C   0  0  0  0  0  0  0  0  0  0  0  0
  -26.3432  -16.3525   28.3611 C   0  0  0  0  0  0  0  0  0  0  0  0
  -27.6737  -17.6915   30.0058 C   0  0  0  0  0  0  0  0  0  0  0  0
  -28.7941  -15.9360   28.6326 C   0  0  0  0  0  0  0  0  0  0  0  0
  -30.8910  -21.8919   25.9864 C   0  0  0  0  0  0  0  0  0  0  0  0
  -22.4153  -28.7363   22.5041 C   0  0  0  0  0  0  0  0  0  0  0  0
  -22.4836  -27.5161   23.4294 C   0  0  0  0  0  0  0  0  0  0  0  0
  -22.8559  -26.2255   22.6929 C   0  0  0  0  0  0  0  0  0  0  0  0
  -22.9420  -25.0435   23.6570 C   0  0  0  0  0  0  0  0  0  0  0  0
  -27.2125  -29.9577   21.6681 C   0  0  0  0  0  0  0  0  0  0  0  0
  -28.1529  -29.0081   20.9305 C   0  0  0  0  0  0  0  0  0  0  0  0
  -23.2702  -23.7477   22.9290 C   0  0  0  0  0  0  0  0  0  1  0  0
  -28.0623  -18.0912   27.5320 C   0  0  1  0  0  0  0  0  0  0  0  0
  -30.9305  -20.5113   28.0675 C   0  0  2  0  0  0  0  0  0  0  0  0
  -27.7050  -17.0306   28.6112 C   0  0  0  0  0  0  0  0  0  0  0  0
  -29.0198  -20.8294   20.5233 N   0  0  0  0  0  0  0  0  0  0  0  0
  -25.3006  -29.5358   20.2601 N   0  0  0  0  0  0  0  0  0  0  0  0
  -25.8201  -29.6184   21.4968 N   0  0  0  0  0  0  0  0  0  0  0  0
  -29.6906  -21.9459   20.1924 N   0  0  0  0  0  0  0  0  0  0  0  0
  -27.1882  -18.0683   25.2169 N   0  0  0  0  0  0  0  0  0  0  0  0
  -28.1256  -25.2924   21.1625 N   0  0  0  0  0  0  0  0  0  0  0  0
  -31.2916  -22.8076   18.6742 N   0  0  0  0  0  0  0  0  0  0  0  0
  -30.8793  -18.4902   17.4146 N   0  0  0  0  0  0  0  0  0  0  0  0
  -25.9277  -15.3580   23.2686 N   0  0  0  0  0  0  0  0  0  0  0  0
  -29.3590  -18.7303   27.7284 N   0  0  0  0  0  0  0  0  0  0  0  0
  -28.0362  -27.6449   21.3982 N   0  0  0  0  0  0  0  0  0  0  0  0
  -31.1767  -21.8420   27.4434 N   0  3  0  0  0  0  0  0  0  0  0  0
  -31.9626  -20.4629   16.9745 O   0  0  0  0  0  0  0  0  0  0  0  0
  -24.8986  -16.8181   24.7625 O   0  0  0  0  0  0  0  0  0  0  0  0
  -28.8738  -16.5986   25.8766 O   0  0  0  0  0  0  0  0  0  0  0  0
  -28.5561  -20.9023   27.8510 O   0  0  0  0  0  0  0  0  0  0  0  0
  -28.5933  -26.7044   19.3833 O   0  0  0  0  0  0  0  0  0  0  0  0
  -27.5520  -14.6814   19.7507 O   0  0  0  0  0  0  0  0  0  0  0  0
  -23.3213  -22.6848   23.8797 O   0  0  0  0  0  0  0  0  0  1  0  0
  -31.2326  -10.6003   19.3013 F   0  0  0  0  0  0  0  0  0  0  0  0
  -29.1610  -14.4626   17.5133 F   0  0  0  0  0  0  0  0  0  0  0  0
  1  2  1  0  0  0  0
  1  5  2  0  0  0  0
  2  6  2  0  0  0  0
  3  8  2  0  0  0  0
  3 16  1  0  0  0  0
  4  9  1  0  0  0  0
  4 16  2  0  0  0  0
  5 18  1  0  0  0  0
  6 20  1  0  0  0  0
  7 10  2  0  0  0  0
  7 19  1  0  0  0  0
  8 23  1  0  0  0  0
  9 23  2  0  0  0  0
 10 24  1  0  0  0  0
 11 12  2  0  0  0  0
 11 25  1  0  0  0  0
 12 26  1  0  0  0  0
 13 21  1  0  0  0  0
 13 24  2  0  0  0  0
 14 26  2  0  0  0  0
 14 27  1  0  0  0  0
 15 22  2  0  0  0  0
 15 66  1  0  0  0  0
 16 28  1  0  0  0  0
 17 28  1  0  0  0  0
 17 30  2  0  0  0  0
 17 31  1  0  0  0  0
 18 20  2  0  0  0  0
 18 36  1  0  0  0  0
 19 21  2  0  0  0  0
 19 37  1  0  0  0  0
 20 45  1  0  0  0  0
 21 38  1  0  0  0  0
 22 29  1  0  0  0  0
 22 54  1  0  0  0  0
 23 81  1  0  0  0  0
 24 82  1  0  0  0  0
 25 27  2  0  0  0  0
 25 81  1  0  0  0  0
 26 83  1  0  0  0  0
 27 84  1  0  0  0  0
 28 64  2  0  0  0  0
 29 48  1  0  0  0  0
 29 65  2  0  0  0  0
 30 67  1  0  0  0  0
 30 70  1  0  0  0  0
 31 71  1  0  0  0  0
 31 76  2  0  0  0  0
 32 46  1  0  0  0  0
 32 72  1  0  0  0  0
 32 77  2  0  0  0  0
 33 61  1  0  0  0  0
 33 68  1  0  0  0  0
 33 78  2  0  0  0  0
 34 62  1  0  0  0  0
 34 73  1  0  0  0  0
 34 79  2  0  0  0  0
 35 69  1  0  0  0  0
 35 74  1  0  0  0  0
 35 80  2  0  0  0  0
 36 39  1  0  0  0  0
 37 46  1  0  0  0  0
 38 68  1  0  0  0  0
 39 41  1  0  0  0  0
 40 42  1  0  0  0  0
 40 43  1  0  0  0  0
 41 45  1  0  0  0  0
 42 47  1  0  0  0  0
 43 69  1  0  0  0  0
 44 47  1  0  0  0  0
 44 69  1  0  0  0  0
 45 72  1  0  0  0  0
 46 68  1  0  0  0  0
 47 67  1  0  0  0  0
 49 62  1  0  0  0  0
 50 63  1  0  0  0  0
 51 63  1  0  0  0  0
 52 63  1  0  0  0  0
 53 75  1  0  0  0  0
 54 55  1  0  0  0  0
 55 56  1  0  0  0  0
 56 57  1  0  0  0  0
 57 60  1  0  0  0  0
 58 59  1  0  0  0  0
 58 66  1  0  0  0  0
 59 74  1  0  0  0  0
 60 82  1  0  0  0  0
 61 63  1  0  0  0  0
 61 73  1  0  0  0  0
 62 75  1  0  0  0  0
 64 67  1  0  0  0  0
 65 66  1  0  0  0  0
M  CHG  1  75   1
M  ISO  4  35 100  60 101  74 100  82 101
M  END
> <Batch ID>
0097

> <Smiles>
CNC(C)C(=O)NC(C(=O)N1Cc2cc([101O:1][101CH2:1]CCCCc3cn(CC[100NH:0][100C:0](=O)N4CCCC(n5nc(-c6ccc(Oc7ccc(F)cc7F)cc6)c(C(N)=O)c5N)C4)nc3C)ccc2CC1C(=O)NC1CCCc2ccccc21)C(C)(C)C

> <Shape>
0.195

> <Color>
0.063

> <Negative vol penalty>
0.000

$$$$

  -OEChem-04052319263D

 84 92  0     1  0  0  0  0  0999 V2000
  -19.0451  -22.7848   23.7273 C   0  0  0  0  0  0  0  0  0  0  0  0
  -20.3562  -22.3328   23.6175 C   0  0  0  0  0  0  0  0  0  0  0  0
  -26.1315  -12.6737   21.6024 C   0  0  0  0  0  0  0  0  0  0  0  0
  -25.2048  -13.3363   19.4718 C   0  0  0  0  0  0  0  0  0  0  0  0
  -18.6409  -23.9237   23.0319 C   0  0  0  0  0  0  0  0  0  0  0  0
  -21.2637  -23.0189   22.8112 C   0  0  0  0  0  0  0  0  0  0  0  0
  -28.2203  -24.6781   22.3981 C   0  0  0  0  0  0  0  0  0  0  0  0
  -25.1974  -11.6414   21.6876 C   0  0  0  0  0  0  0  0  0  0  0  0
  -24.2708  -12.3039   19.5570 C   0  0  0  0  0  0  0  0  0  0  0  0
  -29.2924  -24.6117   21.5093 C   0  0  0  0  0  0  0  0  0  0  0  0
  -23.2888   -8.6078   22.2957 C   0  0  0  0  0  0  0  0  0  0  0  0
  -23.7445   -7.3526   22.6987 C   0  0  0  0  0  0  0  0  0  0  0  0
  -28.5030  -26.6125   20.4171 C   0  0  0  0  0  0  0  0  0  0  0  0
  -25.2396   -7.2865   20.8020 C   0  0  0  0  0  0  0  0  0  0  0  0
  -27.1840  -23.7097   17.9240 C   0  0  0  0  0  0  0  0  0  0  0  0
  -28.1677  -22.7392   16.1618 C   0  0  0  0  0  0  0  0  0  0  0  0
  -26.1352  -13.5213   20.4945 C   0  0  0  0  0  0  0  0  0  0  0  0
  -28.3824  -14.5291   19.8296 C   0  0  0  0  0  0  0  0  0  0  0  0
  -19.5465  -24.6296   22.2243 C   0  0  0  0  0  0  0  0  0  0  0  0
  -27.2738  -25.7077   22.2960 C   0  0  0  0  0  0  0  0  0  0  0  0
  -20.8710  -24.1676   22.1033 C   0  0  0  0  0  0  0  0  0  0  0  0
  -27.4212  -26.6911   21.3073 C   0  0  0  0  0  0  0  0  0  0  0  0
  -26.5536  -22.5031   17.7139 C   0  0  0  0  0  0  0  0  0  0  0  0
  -27.1758  -21.8892   16.5990 C   0  0  0  0  0  0  0  0  0  0  0  0
  -24.2671  -11.4564   20.6649 C   0  0  0  0  0  0  0  0  0  0  0  0
  -29.4323  -25.5774   20.5168 C   0  0  0  0  0  0  0  0  0  0  0  0
  -23.8085   -9.2024   21.1459 C   0  0  0  0  0  0  0  0  0  0  0  0
  -24.7199   -6.6919   21.9518 C   0  0  0  0  0  0  0  0  0  0  0  0
  -24.7839   -8.5417   20.3990 C   0  0  0  0  0  0  0  0  0  0  0  0
  -27.0995  -14.5882   20.4061 C   0  0  0  0  0  0  0  0  0  0  0  0
  -28.8936  -15.7925   19.9992 C   0  0  0  0  0  0  0  0  0  0  0  0
  -29.0520  -13.4303   19.1971 C   0  0  0  0  0  0  0  0  0  0  0  0
  -24.1481  -25.8335   21.7317 C   0  0  0  0  0  0  0  0  0  0  0  0
  -24.5541  -28.9872   22.3732 C   0  0  0  0  0  0  0  0  0  0  0  0
  -26.6585  -31.6710   22.4974 C   0  0  0  0  0  0  0  0  0  0  0  0
  -26.3420  -21.1659   20.6820 C   0  0  0  0  0  0  0  0  0  0  0  0
  -19.0510  -25.8282   21.4545 C   0  0  0  0  0  0  0  0  0  0  0  0
  -26.1378  -25.7803   23.2791 C   0  0  0  0  0  0  0  0  0  0  0  0
  -26.4436  -27.8284   21.1681 C   0  0  0  0  0  0  0  0  0  0  0  0
  -20.1727  -26.7131   20.9169 C   0  0  0  0  0  0  0  0  0  0  0  0
  -28.6245  -19.5815   22.9082 C   0  0  0  0  0  0  0  0  0  0  0  0
  -21.2511  -25.8632   20.2523 C   0  0  0  0  0  0  0  0  0  0  0  0
  -28.6083  -18.1168   22.4673 C   0  0  0  0  0  0  0  0  0  0  0  0
  -27.2438  -20.2225   22.7875 C   0  0  0  0  0  0  0  0  0  0  0  0
  -26.6007  -18.6328   21.0175 C   0  0  0  0  0  0  0  0  0  0  0  0
  -21.8913  -24.8989   21.2582 C   0  0  1  0  0  0  0  0  0  0  0  0
  -24.9483  -26.5821   22.7598 C   0  0  1  0  0  0  0  0  0  0  0  0
  -27.9827  -17.9591   21.0684 C   0  0  2  0  0  0  0  0  0  0  0  0
  -27.9936  -19.5616   16.0818 C   0  0  0  0  0  0  0  0  0  0  0  0
  -26.3472  -20.6904   14.5422 C   0  0  0  0  0  0  0  0  0  0  0  0
  -26.6928  -34.1247   23.0226 C   0  0  0  0  0  0  0  0  0  0  0  0
  -31.8909  -23.6377   19.1588 C   0  0  0  0  0  0  0  0  0  0  0  0
  -23.2103  -29.5761   19.6979 C   0  0  0  0  0  0  0  0  0  0  0  0
  -24.1132  -31.9072   19.8367 C   0  0  0  0  0  0  0  0  0  0  0  0
  -22.5168  -31.0847   21.5681 C   0  0  0  0  0  0  0  0  0  0  0  0
  -28.6035  -31.2915   24.6955 C   0  0  0  0  0  0  0  0  0  0  0  0
  -25.4366  -21.9595   18.5117 C   0  0  0  0  0  0  0  0  0  0  0  0
  -30.5164  -24.7453   17.3593 C   0  0  0  0  0  0  0  0  0  0  0  0
  -29.0957  -25.0207   16.8461 C   0  0  0  0  0  0  0  0  0  0  0  0
  -26.8336  -20.5813   16.0060 C   0  0  0  0  0  0  0  0  0  0  0  0
  -24.8890  -30.2103   21.5542 C   0  0  1  0  0  0  0  0  0  0  0  0
  -26.8912  -32.7198   23.5700 C   0  0  2  0  0  0  0  0  0  0  0  0
  -30.5797  -24.3439   18.8382 C   0  0  2  0  0  0  0  0  0  1  0  0
  -23.6998  -30.6722   20.6654 C   0  0  0  0  0  0  0  0  0  0  0  0
  -26.8134  -15.7938   20.9049 N   0  0  0  0  0  0  0  0  0  0  0  0
  -28.1637  -23.8424   16.9748 N   0  0  0  0  0  0  0  0  0  0  0  0
  -27.9238  -16.5039   20.6423 N   0  0  0  0  0  0  0  0  0  0  0  0
  -25.3462  -27.8522   22.1493 N   0  0  0  0  0  0  0  0  0  0  0  0
  -26.7073  -20.0391   21.4367 N   0  0  0  0  0  0  0  0  0  0  0  0
  -30.0737  -16.3533   19.6595 N   0  0  0  0  0  0  0  0  0  0  0  0
  -28.3826  -12.2022   19.1072 N   0  0  0  0  0  0  0  0  0  0  0  0
  -22.8367  -25.6006   22.0998 N   0  0  0  0  0  0  0  0  0  0  0  0
  -25.3558  -31.2191   22.4991 N   0  0  0  0  0  0  0  0  0  0  0  0
  -25.8485  -20.9037   19.4098 N   0  0  0  0  0  0  0  0  0  0  0  0
  -28.2784  -32.6151   24.1044 N   0  3  0  0  0  0  0  0  0  0  0  0
  -30.2160  -13.5298   18.7404 O   0  0  0  0  0  0  0  0  0  0  0  0
  -24.6806  -25.4936   20.6817 O   0  0  0  0  0  0  0  0  0  0  0  0
  -23.6285  -29.0392   23.1870 O   0  0  0  0  0  0  0  0  0  0  0  0
  -27.5428  -31.2934   21.7320 O   0  0  0  0  0  0  0  0  0  0  0  0
  -26.4527  -22.3205   21.1081 O   0  0  0  0  0  0  0  0  0  0  0  0
  -23.3556  -10.4489   20.7476 O   0  0  0  0  0  0  0  0  0  0  0  0
  -30.4775  -25.5146   19.6477 O   0  0  0  0  0  0  0  0  0  1  0  0
  -25.1585   -5.4872   22.3397 F   0  0  0  0  0  0  0  0  0  0  0  0
  -25.2877   -9.1084   19.2941 F   0  0  0  0  0  0  0  0  0  0  0  0
  1  2  1  0  0  0  0
  1  5  2  0  0  0  0
  2  6  2  0  0  0  0
  3  8  2  0  0  0  0
  3 17  1  0  0  0  0
  4  9  1  0  0  0  0
  4 17  2  0  0  0  0
  5 19  1  0  0  0  0
  6 21  1  0  0  0  0
  7 10  2  0  0  0  0
  7 20  1  0  0  0  0
  8 25  1  0  0  0  0
  9 25  2  0  0  0  0
 10 26  1  0  0  0  0
 11 12  2  0  0  0  0
 11 27  1  0  0  0  0
 12 28  1  0  0  0  0
 13 22  1  0  0  0  0
 13 26  2  0  0  0  0
 14 28  2  0  0  0  0
 14 29  1  0  0  0  0
 15 23  2  0  0  0  0
 15 66  1  0  0  0  0
 16 24  2  0  0  0  0
 16 66  1  0  0  0  0
 17 30  1  0  0  0  0
 18 30  1  0  0  0  0
 18 31  2  0  0  0  0
 18 32  1  0  0  0  0
 19 21  2  0  0  0  0
 19 37  1  0  0  0  0
 20 22  2  0  0  0  0
 20 38  1  0  0  0  0
 21 46  1  0  0  0  0
 22 39  1  0  0  0  0
 23 24  1  0  0  0  0
 23 57  1  0  0  0  0
 24 60  1  0  0  0  0
 25 81  1  0  0  0  0
 26 82  1  0  0  0  0
 27 29  2  0  0  0  0
 27 81  1  0  0  0  0
 28 83  1  0  0  0  0
 29 84  1  0  0  0  0
 30 65  2  0  0  0  0
 31 67  1  0  0  0  0
 31 70  1  0  0  0  0
 32 71  1  0  0  0  0
 32 76  2  0  0  0  0
 33 47  1  0  0  0  0
 33 72  1  0  0  0  0
 33 77  2  0  0  0  0
 34 61  1  0  0  0  0
 34 68  1  0  0  0  0
 34 78  2  0  0  0  0
 35 62  1  0  0  0  0
 35 73  1  0  0  0  0
 35 79  2  0  0  0  0
 36 69  1  0  0  0  0
 36 74  1  0  0  0  0
 36 80  2  0  0  0  0
 37 40  1  0  0  0  0
 38 47  1  0  0  0  0
 39 68  1  0  0  0  0
 40 42  1  0  0  0  0
 41 43  1  0  0  0  0
 41 44  1  0  0  0  0
 42 46  1  0  0  0  0
 43 48  1  0  0  0  0
 44 69  1  0  0  0  0
 45 48  1  0  0  0  0
 45 69  1  0  0  0  0
 46 72  1  0  0  0  0
 47 68  1  0  0  0  0
 48 67  1  0  0  0  0
 49 60  1  0  0  0  0
 50 60  1  0  0  0  0
 51 62  1  0  0  0  0
 52 63  1  0  0  0  0
 53 64  1  0  0  0  0
 54 64  1  0  0  0  0
 55 64  1  0  0  0  0
 56 75  1  0  0  0  0
 57 74  1  0  0  0  0
 58 59  1  0  0  0  0
 58 63  1  0  0  0  0
 59 66  1  0  0  0  0
 61 64  1  0  0  0  0
 61 73  1  0  0  0  0
 62 75  1  0  0  0  0
 63 82  1  0  0  0  0
 65 67  1  0  0  0  0
M  CHG  1  75   1
M  ISO  4  36 100  63 101  74 100  82 101
M  END
> <Batch ID>
0097

> <Smiles>
CNC(C)C(=O)NC(C(=O)N1Cc2cc([101O:1][101CH:1](C)CCn3cc(C[100NH:0][100C:0](=O)N4CCCC(n5nc(-c6ccc(Oc7ccc(F)cc7F)cc6)c(C(N)=O)c5N)C4)c(C(C)C)c3)ccc2CC1C(=O)NC1CCCc2ccccc21)C(C)(C)C

> <Shape>
0.236

> <Color>
0.058

> <Negative vol penalty>
0.000

$$$$

  -OEChem-04052319263D

 86 94  0     1  0  0  0  0  0999 V2000
  -17.1347  -29.9905   24.3680 C   0  0  0  0  0  0  0  0  0  0  0  0
  -18.4048  -30.3084   24.8384 C   0  0  0  0  0  0  0  0  0  0  0  0
  -24.3357  -15.0508   22.1724 C   0  0  0  0  0  0  0  0  0  0  0  0
  -26.6543  -14.8032   22.8051 C   0  0  0  0  0  0  0  0  0  0  0  0
  -16.9800  -29.0066   23.3923 C   0  0  0  0  0  0  0  0  0  0  0  0
  -19.5209  -29.6418   24.3340 C   0  0  0  0  0  0  0  0  0  0  0  0
  -25.1099  -31.9786   23.4349 C   0  0  0  0  0  0  0  0  0  0  0  0
  -24.3997  -13.8488   21.4675 C   0  0  0  0  0  0  0  0  0  0  0  0
  -26.7183  -13.6013   22.1002 C   0  0  0  0  0  0  0  0  0  0  0  0
  -26.2802  -31.9287   24.1911 C   0  0  0  0  0  0  0  0  0  0  0  0
  -23.8515  -10.6648   19.8013 C   0  0  0  0  0  0  0  0  0  0  0  0
  -22.8003   -9.7621   19.9617 C   0  0  0  0  0  0  0  0  0  0  0  0
  -27.0469  -30.0614   22.8703 C   0  0  0  0  0  0  0  0  0  0  0  0
  -31.1307  -25.7866   25.5574 C   0  0  0  0  0  0  0  0  0  0  0  0
  -23.2676   -9.6385   22.3289 C   0  0  0  0  0  0  0  0  0  0  0  0
  -28.7000  -25.5935   24.3326 C   0  0  0  0  0  0  0  0  0  0  0  0
  -25.4630  -15.5280   22.8411 C   0  0  0  0  0  0  0  0  0  0  0  0
  -25.0476  -16.9453   24.9212 C   0  0  0  0  0  0  0  0  0  0  0  0
  -18.0956  -28.3344   22.8688 C   0  0  0  0  0  0  0  0  0  0  0  0
  -24.8941  -31.0617   22.3961 C   0  0  0  0  0  0  0  0  0  0  0  0
  -19.3808  -28.6471   23.3513 C   0  0  0  0  0  0  0  0  0  0  0  0
  -25.8742  -30.1034   22.1008 C   0  0  0  0  0  0  0  0  0  0  0  0
  -31.0515  -25.2406   24.2810 C   0  0  0  0  0  0  0  0  0  0  0  0
  -29.8167  -25.1387   23.6500 C   0  0  0  0  0  0  0  0  0  0  0  0
  -25.5910  -13.1241   21.4315 C   0  0  0  0  0  0  0  0  0  0  0  0
  -27.2476  -30.9683   23.9107 C   0  0  0  0  0  0  0  0  0  0  0  0
  -24.6109  -11.0542   20.9047 C   0  0  0  0  0  0  0  0  0  0  0  0
  -22.5083   -9.2490   21.2255 C   0  0  0  0  0  0  0  0  0  0  0  0
  -24.3189  -10.5411   22.1685 C   0  0  0  0  0  0  0  0  0  0  0  0
  -25.3977  -16.7698   23.5689 C   0  0  0  0  0  0  0  0  0  0  0  0
  -29.9552  -26.2125   26.1545 C   0  0  0  0  0  0  0  0  0  0  0  0
  -25.1373  -18.3004   25.1260 C   0  0  0  0  0  0  0  0  0  0  0  0
  -24.6748  -15.9704   25.9042 C   0  0  0  0  0  0  0  0  0  0  0  0
  -22.7350  -28.8040   21.8092 C   0  0  0  0  0  0  0  0  0  0  0  0
  -24.2741  -28.6192   18.9598 C   0  0  0  0  0  0  0  0  0  0  0  0
  -27.1332  -29.1445   17.1720 C   0  0  0  0  0  0  0  0  0  0  0  0
  -28.3352  -22.4799   22.4501 C   0  0  0  0  0  0  0  0  0  0  0  0
  -17.8743  -27.2452   21.8494 C   0  0  0  0  0  0  0  0  0  0  0  0
  -23.6383  -31.1457   21.5725 C   0  0  0  0  0  0  0  0  0  0  0  0
  -25.6998  -29.1092   20.9829 C   0  0  0  0  0  0  0  0  0  0  0  0
  -19.1418  -26.8487   21.0967 C   0  0  0  0  0  0  0  0  0  0  0  0
  -24.7345  -22.4720   22.8144 C   0  0  0  0  0  0  0  0  0  0  0  0
  -20.3025  -26.6596   22.0682 C   0  0  0  0  0  0  0  0  0  0  0  0
  -24.4691  -21.0106   23.1808 C   0  0  0  0  0  0  0  0  0  0  0  0
  -25.8569  -22.5893   21.7875 C   0  0  0  0  0  0  0  0  0  0  0  0
  -26.8729  -20.4820   22.5626 C   0  0  0  0  0  0  0  0  0  0  0  0
  -20.6181  -27.9635   22.8110 C   0  0  1  0  0  0  0  0  0  0  0  0
  -23.2951  -29.8352   20.8709 C   0  0  1  0  0  0  0  0  0  0  0  0
  -25.7637  -20.2976   23.6141 C   0  0  2  0  0  0  0  0  0  0  0  0
  -32.3000  -24.7725   23.6099 C   0  0  0  0  0  0  0  0  0  0  0  0
  -28.7821  -26.7531   21.2863 C   0  0  0  0  0  0  0  0  0  0  0  0
  -28.0997  -28.8598   14.8736 C   0  0  0  0  0  0  0  0  0  0  0  0
  -24.5875  -25.6265   19.4650 C   0  0  0  0  0  0  0  0  0  0  0  0
  -26.3338  -25.5773   17.6717 C   0  0  0  0  0  0  0  0  0  0  0  0
  -23.9922  -26.2306   17.1124 C   0  0  0  0  0  0  0  0  0  0  0  0
  -27.5835  -32.0545   16.8745 C   0  0  0  0  0  0  0  0  0  0  0  0
  -30.0028  -26.8095   27.5386 C   0  0  0  0  0  0  0  0  0  0  0  0
  -29.8063  -25.6306   21.1721 C   0  0  0  0  0  0  0  0  0  0  0  0
  -30.2012  -28.3295   27.5511 C   0  0  0  0  0  0  0  0  0  0  0  0
  -29.1262  -29.0808   26.7594 C   0  0  0  0  0  0  0  0  0  0  0  0
  -29.3456  -30.5913   26.8245 C   0  0  0  0  0  0  0  0  0  0  0  0
  -28.3070  -31.3454   26.0062 C   0  0  0  0  0  0  0  0  0  1  0  0
  -29.6749  -24.5619   22.2843 C   0  0  2  0  0  0  0  0  0  0  0  0
  -25.4447  -27.8292   18.4263 C   0  0  1  0  0  0  0  0  0  0  0  0
  -27.3719  -29.7987   15.8230 C   0  0  2  0  0  0  0  0  0  0  0  0
  -25.0923  -26.3333   18.1912 C   0  0  0  0  0  0  0  0  0  0  0  0
  -28.7376  -26.1297   25.5730 N   0  0  0  0  0  0  0  0  0  0  0  0
  -25.6879  -17.9215   22.9579 N   0  0  0  0  0  0  0  0  0  0  0  0
  -25.5203  -18.8336   23.9305 N   0  0  0  0  0  0  0  0  0  0  0  0
  -24.4522  -29.2278   20.2103 N   0  0  0  0  0  0  0  0  0  0  0  0
  -27.0658  -21.9060   22.2689 N   0  0  0  0  0  0  0  0  0  0  0  0
  -24.9249  -19.0761   26.2103 N   0  0  0  0  0  0  0  0  0  0  0  0
  -24.6334  -14.6216   25.5254 N   0  0  0  0  0  0  0  0  0  0  0  0
  -21.3624  -28.8643   21.9571 N   0  0  0  0  0  0  0  0  0  0  0  0
  -25.8998  -28.5309   17.2309 N   0  0  0  0  0  0  0  0  0  0  0  0
  -28.4351  -23.8313   22.1428 N   0  0  0  0  0  0  0  0  0  0  0  0
  -28.1916  -31.0329   15.9837 N   0  3  0  0  0  0  0  0  0  0  0  0
  -24.3711  -16.2877   27.0792 O   0  0  0  0  0  0  0  0  0  0  0  0
  -23.4919  -28.0113   22.3574 O   0  0  0  0  0  0  0  0  0  0  0  0
  -23.2424  -28.6995   18.2885 O   0  0  0  0  0  0  0  0  0  0  0  0
  -27.9599  -29.1717   18.0810 O   0  0  0  0  0  0  0  0  0  0  0  0
  -29.3071  -21.8366   22.8608 O   0  0  0  0  0  0  0  0  0  0  0  0
  -25.6537  -11.9511   20.7440 O   0  0  0  0  0  0  0  0  0  0  0  0
  -28.3905  -30.9170   24.6476 O   0  0  0  0  0  0  0  0  0  1  0  0
  -21.4978   -8.3834   21.3797 F   0  0  0  0  0  0  0  0  0  0  0  0
  -25.0441  -10.9125   23.2324 F   0  0  0  0  0  0  0  0  0  0  0  0
  1  2  1  0  0  0  0
  1  5  2  0  0  0  0
  2  6  2  0  0  0  0
  3  8  2  0  0  0  0
  3 17  1  0  0  0  0
  4  9  1  0  0  0  0
  4 17  2  0  0  0  0
  5 19  1  0  0  0  0
  6 21  1  0  0  0  0
  7 10  2  0  0  0  0
  7 20  1  0  0  0  0
  8 25  1  0  0  0  0
  9 25  2  0  0  0  0
 10 26  1  0  0  0  0
 11 12  2  0  0  0  0
 11 27  1  0  0  0  0
 12 28  1  0  0  0  0
 13 22  1  0  0  0  0
 13 26  2  0  0  0  0
 14 23  1  0  0  0  0
 14 31  2  0  0  0  0
 15 28  2  0  0  0  0
 15 29  1  0  0  0  0
 16 24  1  0  0  0  0
 16 67  2  0  0  0  0
 17 30  1  0  0  0  0
 18 30  1  0  0  0  0
 18 32  2  0  0  0  0
 18 33  1  0  0  0  0
 19 21  2  0  0  0  0
 19 38  1  0  0  0  0
 20 22  2  0  0  0  0
 20 39  1  0  0  0  0
 21 47  1  0  0  0  0
 22 40  1  0  0  0  0
 23 24  2  0  0  0  0
 23 50  1  0  0  0  0
 24 63  1  0  0  0  0
 25 83  1  0  0  0  0
 26 84  1  0  0  0  0
 27 29  2  0  0  0  0
 27 83  1  0  0  0  0
 28 85  1  0  0  0  0
 29 86  1  0  0  0  0
 30 68  2  0  0  0  0
 31 57  1  0  0  0  0
 31 67  1  0  0  0  0
 32 69  1  0  0  0  0
 32 72  1  0  0  0  0
 33 73  1  0  0  0  0
 33 78  2  0  0  0  0
 34 48  1  0  0  0  0
 34 74  1  0  0  0  0
 34 79  2  0  0  0  0
 35 64  1  0  0  0  0
 35 70  1  0  0  0  0
 35 80  2  0  0  0  0
 36 65  1  0  0  0  0
 36 75  1  0  0  0  0
 36 81  2  0  0  0  0
 37 71  1  0  0  0  0
 37 76  1  0  0  0  0
 37 82  2  0  0  0  0
 38 41  1  0  0  0  0
 39 48  1  0  0  0  0
 40 70  1  0  0  0  0
 41 43  1  0  0  0  0
 42 44  1  0  0  0  0
 42 45  1  0  0  0  0
 43 47  1  0  0  0  0
 44 49  1  0  0  0  0
 45 71  1  0  0  0  0
 46 49  1  0  0  0  0
 46 71  1  0  0  0  0
 47 74  1  0  0  0  0
 48 70  1  0  0  0  0
 49 69  1  0  0  0  0
 51 58  1  0  0  0  0
 52 65  1  0  0  0  0
 53 66  1  0  0  0  0
 54 66  1  0  0  0  0
 55 66  1  0  0  0  0
 56 77  1  0  0  0  0
 57 59  1  0  0  0  0
 58 63  1  0  0  0  0
 59 60  1  0  0  0  0
 60 61  1  0  0  0  0
 61 62  1  0  0  0  0
 62 84  1  0  0  0  0
 63 76  1  0  0  0  0
 64 66  1  0  0  0  0
 64 75  1  0  0  0  0
 65 77  1  0  0  0  0
 68 69  1  0  0  0  0
M  CHG  1  77   1
M  ISO  4  37 100  62 101  76 100  84 101
M  END
> <Batch ID>
0097

> <Smiles>
CCC([100NH:0][100C:0](=O)N1CCCC(n2nc(-c3ccc(Oc4ccc(F)cc4F)cc3)c(C(N)=O)c2N)C1)c1cnc(CCCC[101CH2:1][101O:1]c2ccc3c(c2)CN(C(=O)C(NC(=O)C(C)NC)C(C)(C)C)C(C(=O)NC2CCCc4ccccc42)C3)cc1C

> <Shape>
0.227

> <Color>
0.088

> <Negative vol penalty>
0.000

$$$$

  -OEChem-04052319263D

 90 98  0     1  0  0  0  0  0999 V2000
  -24.0964  -31.8460   26.5637 C   0  0  0  0  0  0  0  0  0  0  0  0
  -24.9144  -30.9944   25.8282 C   0  0  0  0  0  0  0  0  0  0  0  0
  -24.2917   -9.5860   20.1298 C   0  0  0  0  0  0  0  0  0  0  0  0
  -24.7343  -10.0894   22.4509 C   0  0  0  0  0  0  0  0  0  0  0  0
  -22.7423  -31.5508   26.7159 C   0  0  0  0  0  0  0  0  0  0  0  0
  -24.3789  -29.8463   25.2453 C   0  0  0  0  0  0  0  0  0  0  0  0
  -25.9423  -29.1793   20.4751 C   0  0  0  0  0  0  0  0  0  0  0  0
  -24.0097   -8.2631   20.4704 C   0  0  0  0  0  0  0  0  0  0  0  0
  -24.4523   -8.7666   22.7916 C   0  0  0  0  0  0  0  0  0  0  0  0
  -27.2253  -28.6653   20.2915 C   0  0  0  0  0  0  0  0  0  0  0  0
  -21.7105   -6.8488   23.2664 C   0  0  0  0  0  0  0  0  0  0  0  0
  -20.8983   -6.6266   24.3784 C   0  0  0  0  0  0  0  0  0  0  0  0
  -26.2863  -26.4783   19.8984 C   0  0  0  0  0  0  0  0  0  0  0  0
  -22.6836   -5.3881   25.4349 C   0  0  0  0  0  0  0  0  0  0  0  0
  -29.0964  -22.8284   21.7793 C   0  0  0  0  0  0  0  0  0  0  0  0
  -24.6541  -10.4992   21.1200 C   0  0  0  0  0  0  0  0  0  0  0  0
  -24.0389  -12.9405   20.7087 C   0  0  0  0  0  0  0  0  0  0  0  0
  -22.1879  -30.4037   26.1265 C   0  0  0  0  0  0  0  0  0  0  0  0
  -24.8205  -28.3430   20.3823 C   0  0  0  0  0  0  0  0  0  0  0  0
  -23.0163  -29.5348   25.3909 C   0  0  0  0  0  0  0  0  0  0  0  0
  -24.9901  -26.9846   20.0787 C   0  0  0  0  0  0  0  0  0  0  0  0
  -29.8268  -21.8058   22.3431 C   0  0  0  0  0  0  0  0  0  0  0  0
  -31.0580  -21.7312   21.6463 C   0  0  0  0  0  0  0  0  0  0  0  0
  -24.0900   -7.8534   21.8014 C   0  0  0  0  0  0  0  0  0  0  0  0
  -27.3976  -27.3141   20.0060 C   0  0  0  0  0  0  0  0  0  0  0  0
  -23.0092   -6.3406   23.2386 C   0  0  0  0  0  0  0  0  0  0  0  0
  -21.3848   -5.8963   25.4627 C   0  0  0  0  0  0  0  0  0  0  0  0
  -23.4958   -5.6103   24.3228 C   0  0  0  0  0  0  0  0  0  0  0  0
  -24.9461  -11.8657   20.7686 C   0  0  0  0  0  0  0  0  0  0  0  0
  -31.0426  -22.7107   20.6779 C   0  0  0  0  0  0  0  0  0  0  0  0
  -24.8050  -14.0158   20.3303 C   0  0  0  0  0  0  0  0  0  0  0  0
  -22.6297  -12.9647   20.9717 C   0  0  0  0  0  0  0  0  0  0  0  0
  -22.5198  -27.4459   22.3838 C   0  0  0  0  0  0  0  0  0  0  0  0
  -21.3036  -26.0263   19.7328 C   0  0  0  0  0  0  0  0  0  0  0  0
  -21.8661  -24.7079   16.6357 C   0  0  0  0  0  0  0  0  0  0  0  0
  -29.4536  -17.0731   20.7652 C   0  0  0  0  0  0  0  0  0  0  0  0
  -20.7286  -30.1015   26.3583 C   0  0  0  0  0  0  0  0  0  0  0  0
  -23.4417  -28.9182   20.5566 C   0  0  0  0  0  0  0  0  0  0  0  0
  -23.8172  -26.0487   19.9484 C   0  0  0  0  0  0  0  0  0  0  0  0
  -20.1613  -29.0620   25.3950 C   0  0  0  0  0  0  0  0  0  0  0  0
  -29.5617  -14.2311   18.6232 C   0  0  0  0  0  0  0  0  0  0  0  0
  -21.1041  -27.8683   25.2820 C   0  0  0  0  0  0  0  0  0  0  0  0
  -28.2996  -13.4485   18.9899 C   0  0  0  0  0  0  0  0  0  0  0  0
  -30.1905  -14.8936   19.8471 C   0  0  0  0  0  0  0  0  0  0  0  0
  -28.0121  -14.9602   20.9976 C   0  0  0  0  0  0  0  0  0  0  0  0
  -22.4674  -28.2929   24.7227 C   0  0  1  0  0  0  0  0  0  0  0  0
  -22.4027  -27.8717   20.9476 C   0  0  1  0  0  0  0  0  0  0  0  0
  -27.3109  -14.3204   19.7870 C   0  0  2  0  0  0  0  0  0  0  0  0
  -32.1575  -20.7794   21.9079 C   0  0  0  0  0  0  0  0  0  0  0  0
  -20.6827  -23.5890   14.7264 C   0  0  0  0  0  0  0  0  0  0  0  0
  -30.2816  -26.2622   21.4915 C   0  0  0  0  0  0  0  0  0  0  0  0
  -30.3034  -20.9921   24.7519 C   0  0  0  0  0  0  0  0  0  0  0  0
  -27.9810  -21.3955   23.9852 C   0  0  0  0  0  0  0  0  0  0  0  0
  -21.1908  -23.4280   21.3284 C   0  0  0  0  0  0  0  0  0  0  0  0
  -20.9248  -22.1935   19.1666 C   0  0  0  0  0  0  0  0  0  0  0  0
  -19.1982  -23.8480   19.8767 C   0  0  0  0  0  0  0  0  0  0  0  0
  -22.5907  -26.8806   14.7614 C   0  0  0  0  0  0  0  0  0  0  0  0
  -32.0644  -23.0757   19.6740 C   0  0  0  0  0  0  0  0  0  0  0  0
  -31.7919  -22.5462   18.2482 C   0  0  0  0  0  0  0  0  0  0  0  0
  -31.6530  -21.0215   18.2013 C   0  0  0  0  0  0  0  0  0  0  0  0
  -29.2517  -19.4222   23.0754 C   0  0  0  0  0  0  0  0  0  0  0  0
  -29.4013  -24.5227   19.8969 C   0  0  0  0  0  0  0  0  0  0  0  0
  -28.5735  -19.1858   21.7249 C   0  0  0  0  0  0  0  0  0  0  0  0
  -31.4187  -20.5407   16.7762 C   0  0  0  0  0  0  0  0  0  0  0  0
  -21.4520  -24.6726   19.0814 C   0  0  1  0  0  0  0  0  0  0  0  0
  -21.1552  -24.9116   15.3099 C   0  0  2  0  0  0  0  0  0  0  0  0
  -29.0647  -25.7736   20.7157 C   0  0  2  0  0  0  0  0  0  1  0  0
  -29.3950  -20.9507   23.4668 C   0  0  0  0  0  0  0  0  0  0  0  0
  -20.7139  -23.5525   19.8676 C   0  0  0  0  0  0  0  0  0  0  0  0
  -26.1932  -12.2254   20.4534 N   0  0  0  0  0  0  0  0  0  0  0  0
  -29.8454  -23.3716   20.7683 N   0  0  0  0  0  0  0  0  0  0  0  0
  -26.0750  -13.5382   20.1916 N   0  0  0  0  0  0  0  0  0  0  0  0
  -22.4896  -26.6575   20.1338 N   0  0  0  0  0  0  0  0  0  0  0  0
  -29.2009  -15.7071   20.5575 N   0  0  0  0  0  0  0  0  0  0  0  0
  -24.5095  -15.3137   20.1058 N   0  0  0  0  0  0  0  0  0  0  0  0
  -21.9999  -11.7710   21.3499 N   0  0  0  0  0  0  0  0  0  0  0  0
  -22.3895  -28.4810   23.2899 N   0  0  0  0  0  0  0  0  0  0  0  0
  -21.0017  -24.8312   17.7029 N   0  0  0  0  0  0  0  0  0  0  0  0
  -28.4613  -17.7724   21.4413 N   0  0  0  0  0  0  0  0  0  0  0  0
  -31.3361  -19.0603   16.7708 N   0  3  0  0  0  0  0  0  0  0  0  0
  -22.0686  -25.5595   14.3266 N   0  3  0  0  0  0  0  0  0  0  0  0
  -21.9460  -14.0103   20.8582 O   0  0  0  0  0  0  0  0  0  0  0  0
  -22.7126  -26.2654   22.6502 O   0  0  0  0  0  0  0  0  0  0  0  0
  -20.1773  -26.5093   19.8739 O   0  0  0  0  0  0  0  0  0  0  0  0
  -23.0672  -24.4601   16.7163 O   0  0  0  0  0  0  0  0  0  0  0  0
  -30.4845  -17.6295   20.3722 O   0  0  0  0  0  0  0  0  0  0  0  0
  -23.8146   -6.5627   22.1342 O   0  0  0  0  0  0  0  0  0  0  0  0
  -28.6488  -26.8097   19.8270 O   0  0  0  0  0  0  0  0  0  1  0  0
  -20.6053   -5.6844   26.5311 F   0  0  0  0  0  0  0  0  0  0  0  0
  -24.7430   -5.1206   24.3024 F   0  0  0  0  0  0  0  0  0  0  0  0
  1  2  1  0  0  0  0
  1  5  2  0  0  0  0
  2  6  2  0  0  0  0
  3  8  2  0  0  0  0
  3 16  1  0  0  0  0
  4  9  1  0  0  0  0
  4 16  2  0  0  0  0
  5 18  1  0  0  0  0
  6 20  1  0  0  0  0
  7 10  2  0  0  0  0
  7 19  1  0  0  0  0
  8 24  1  0  0  0  0
  9 24  2  0  0  0  0
 10 25  1  0  0  0  0
 11 12  2  0  0  0  0
 11 26  1  0  0  0  0
 12 27  1  0  0  0  0
 13 21  1  0  0  0  0
 13 25  2  0  0  0  0
 14 27  2  0  0  0  0
 14 28  1  0  0  0  0
 15 22  2  0  0  0  0
 15 71  1  0  0  0  0
 16 29  1  0  0  0  0
 17 29  1  0  0  0  0
 17 31  2  0  0  0  0
 17 32  1  0  0  0  0
 18 20  2  0  0  0  0
 18 37  1  0  0  0  0
 19 21  2  0  0  0  0
 19 38  1  0  0  0  0
 20 46  1  0  0  0  0
 21 39  1  0  0  0  0
 22 23  1  0  0  0  0
 22 68  1  0  0  0  0
 23 30  2  0  0  0  0
 23 49  1  0  0  0  0
 24 87  1  0  0  0  0
 25 88  1  0  0  0  0
 26 28  2  0  0  0  0
 26 87  1  0  0  0  0
 27 89  1  0  0  0  0
 28 90  1  0  0  0  0
 29 70  2  0  0  0  0
 30 58  1  0  0  0  0
 30 71  1  0  0  0  0
 31 72  1  0  0  0  0
 31 75  1  0  0  0  0
 32 76  1  0  0  0  0
 32 82  2  0  0  0  0
 33 47  1  0  0  0  0
 33 77  1  0  0  0  0
 33 83  2  0  0  0  0
 34 65  1  0  0  0  0
 34 73  1  0  0  0  0
 34 84  2  0  0  0  0
 35 66  1  0  0  0  0
 35 78  1  0  0  0  0
 35 85  2  0  0  0  0
 36 74  1  0  0  0  0
 36 79  1  0  0  0  0
 36 86  2  0  0  0  0
 37 40  1  0  0  0  0
 38 47  1  0  0  0  0
 39 73  1  0  0  0  0
 40 42  1  0  0  0  0
 41 43  1  0  0  0  0
 41 44  1  0  0  0  0
 42 46  1  0  0  0  0
 43 48  1  0  0  0  0
 44 74  1  0  0  0  0
 45 48  1  0  0  0  0
 45 74  1  0  0  0  0
 46 77  1  0  0  0  0
 47 73  1  0  0  0  0
 48 72  1  0  0  0  0
 50 66  1  0  0  0  0
 51 67  1  0  0  0  0
 52 68  1  0  0  0  0
 53 68  1  0  0  0  0
 54 69  1  0  0  0  0
 55 69  1  0  0  0  0
 56 69  1  0  0  0  0
 57 81  1  0  0  0  0
 58 59  1  0  0  0  0
 59 60  1  0  0  0  0
 60 64  1  0  0  0  0
 61 63  1  0  0  0  0
 61 68  1  0  0  0  0
 62 67  1  0  0  0  0
 62 71  1  0  0  0  0
 63 79  1  0  0  0  0
 64 80  1  0  0  0  0
 65 69  1  0  0  0  0
 65 78  1  0  0  0  0
 66 81  1  0  0  0  0
 67 88  1  0  0  0  0
 70 72  1  0  0  0  0
M  CHG  2  80   1  81   1
M  ISO  4  36 100  67 101  79 100  88 101
M  END
> <Batch ID>
0097

> <Smiles>
CNC(C)C(=O)NC(C(=O)N1Cc2cc([101O:1][101CH:1](C)Cn3cc(C(C)(C)CC[100NH:0][100C:0](=O)N4CCCC(n5nc(-c6ccc(Oc7ccc(F)cc7F)cc6)c(C(N)=O)c5N)C4)c(C)c3CCCCN)ccc2CC1C(=O)NC1CCCc2ccccc21)C(C)(C)C

> <Shape>
0.257

> <Color>
0.123

> <Negative vol penalty>
0.000

$$$$

  -OEChem-04052319263D

 82 89  0     1  0  0  0  0  0999 V2000
  -27.9267  -20.7315   25.8022 C   0  0  0  0  0  0  0  0  0  0  0  0
  -28.4598  -22.0139   25.7375 C   0  0  0  0  0  0  0  0  0  0  0  0
  -26.6690  -12.0501   21.3744 C   0  0  0  0  0  0  0  0  0  0  0  0
  -26.0548  -13.2598   19.3753 C   0  0  0  0  0  0  0  0  0  0  0  0
  -26.7953  -20.4126   25.0544 C   0  0  0  0  0  0  0  0  0  0  0  0
  -27.8546  -22.9811   24.9343 C   0  0  0  0  0  0  0  0  0  0  0  0
  -29.5951  -27.5706   25.2671 C   0  0  0  0  0  0  0  0  0  0  0  0
  -25.4623  -11.3524   21.3229 C   0  0  0  0  0  0  0  0  0  0  0  0
  -24.8481  -12.5621   19.3238 C   0  0  0  0  0  0  0  0  0  0  0  0
  -30.8343  -27.9461   24.7502 C   0  0  0  0  0  0  0  0  0  0  0  0
  -23.7774   -9.5100   18.3445 C   0  0  0  0  0  0  0  0  0  0  0  0
  -23.3742   -9.0060   17.1080 C   0  0  0  0  0  0  0  0  0  0  0  0
  -29.7294  -29.0000   22.8827 C   0  0  0  0  0  0  0  0  0  0  0  0
  -21.3611  -10.3369   17.2219 C   0  0  0  0  0  0  0  0  0  0  0  0
  -26.9653  -13.0039   20.4006 C   0  0  0  0  0  0  0  0  0  0  0  0
  -29.4322  -13.3585   19.8562 C   0  0  0  0  0  0  0  0  0  0  0  0
  -26.1839  -21.3734   24.2322 C   0  0  0  0  0  0  0  0  0  0  0  0
  -28.4122  -27.8981   24.5888 C   0  0  0  0  0  0  0  0  0  0  0  0
  -26.6980  -22.6855   24.1905 C   0  0  0  0  0  0  0  0  0  0  0  0
  -28.4763  -28.6297   23.3943 C   0  0  0  0  0  0  0  0  0  0  0  0
  -24.5519  -11.6084   20.2976 C   0  0  0  0  0  0  0  0  0  0  0  0
  -30.9018  -28.6584   23.5564 C   0  0  0  0  0  0  0  0  0  0  0  0
  -22.9724  -10.4275   19.0198 C   0  0  0  0  0  0  0  0  0  0  0  0
  -22.1661   -9.4195   16.5467 C   0  0  0  0  0  0  0  0  0  0  0  0
  -21.7642  -10.8409   18.4585 C   0  0  0  0  0  0  0  0  0  0  0  0
  -28.2114  -13.7254   20.4535 C   0  0  0  0  0  0  0  0  0  0  0  0
  -30.2991  -14.3671   20.1992 C   0  0  0  0  0  0  0  0  0  0  0  0
  -29.7538  -12.2087   19.0622 C   0  0  0  0  0  0  0  0  0  0  0  0
  -26.0553  -26.2321   23.2572 C   0  0  0  0  0  0  0  0  0  0  0  0
  -24.7262  -29.1653   22.8669 C   0  0  0  0  0  0  0  0  0  0  0  0
  -25.1770  -32.5367   22.5896 C   0  0  0  0  0  0  0  0  0  0  0  0
  -29.3918  -20.0386   21.5654 C   0  0  0  0  0  0  0  0  0  0  0  0
  -24.9567  -20.9764   23.4502 C   0  0  0  0  0  0  0  0  0  0  0  0
  -27.0821  -27.5089   25.1733 C   0  0  0  0  0  0  0  0  0  0  0  0
  -27.2347  -29.0235   22.6381 C   0  0  0  0  0  0  0  0  0  0  0  0
  -24.6525  -21.9281   22.2978 C   0  0  0  0  0  0  0  0  0  0  0  0
  -31.1052  -17.6078   23.6277 C   0  0  0  0  0  0  0  0  0  0  0  0
  -24.6779  -23.3669   22.7913 C   0  0  0  0  0  0  0  0  0  0  0  0
  -30.6650  -16.2942   22.9790 C   0  0  0  0  0  0  0  0  0  0  0  0
  -29.9718  -18.6294   23.6319 C   0  0  0  0  0  0  0  0  0  0  0  0
  -28.9516  -17.6007   21.6383 C   0  0  0  0  0  0  0  0  0  0  0  0
  -26.0747  -23.7452   23.3001 C   0  0  1  0  0  0  0  0  0  0  0  0
  -25.9671  -27.4493   24.1338 C   0  0  1  0  0  0  0  0  0  0  0  0
  -30.0602  -16.5339   21.5829 C   0  0  2  0  0  0  0  0  0  0  0  0
  -23.9058  -34.6719   22.2396 C   0  0  0  0  0  0  0  0  0  0  0  0
  -34.7797  -29.7115   22.0929 C   0  0  0  0  0  0  0  0  0  0  0  0
  -24.4192  -28.4943   19.9062 C   0  0  0  0  0  0  0  0  0  0  0  0
  -24.0531  -30.9312   19.4635 C   0  0  0  0  0  0  0  0  0  0  0  0
  -22.4605  -29.6763   20.9166 C   0  0  0  0  0  0  0  0  0  0  0  0
  -26.0606  -33.6258   25.1958 C   0  0  0  0  0  0  0  0  0  0  0  0
  -32.5410  -23.6894   18.2213 C   0  0  0  0  0  0  0  0  0  0  0  0
  -33.3239  -26.3078   20.8718 C   0  0  0  0  0  0  0  0  0  0  0  0
  -33.7767  -27.7727   20.8580 C   0  0  0  0  0  0  0  0  0  0  0  0
  -31.1783  -22.7497   20.8741 C   0  0  0  0  0  0  0  0  0  0  0  0
  -29.8896  -22.4683   21.6392 C   0  0  0  0  0  0  0  0  0  0  0  0
  -32.8969  -25.7958   19.5007 C   0  0  0  0  0  0  0  0  0  0  0  0
  -31.1956  -24.1466   20.2666 C   0  0  0  0  0  0  0  0  0  0  0  0
  -33.2202  -28.1762   23.3368 C   0  0  0  0  0  0  0  0  0  1  0  0
  -24.7686  -30.2237   21.7913 C   0  0  1  0  0  0  0  0  0  0  0  0
  -24.4800  -33.7050   23.2633 C   0  0  2  0  0  0  0  0  0  0  0  0
  -34.2792  -28.2688   22.2301 C   0  0  2  0  0  0  0  0  0  0  0  0
  -23.9490  -29.8224   20.5324 C   0  0  0  0  0  0  0  0  0  0  0  0
  -28.2916  -14.8771   21.1252 N   0  0  0  0  0  0  0  0  0  0  0  0
  -29.5732  -15.2425   20.9520 N   0  0  0  0  0  0  0  0  0  0  0  0
  -25.9582  -28.6145   23.2469 N   0  0  0  0  0  0  0  0  0  0  0  0
  -29.4531  -18.8253   22.2708 N   0  0  0  0  0  0  0  0  0  0  0  0
  -31.6039  -14.5816   19.9272 N   0  0  0  0  0  0  0  0  0  0  0  0
  -28.7447  -11.2706   18.8054 N   0  0  0  0  0  0  0  0  0  0  0  0
  -26.0073  -25.0364   23.9482 N   0  0  0  0  0  0  0  0  0  0  0  0
  -24.3277  -31.4636   22.4210 N   0  0  0  0  0  0  0  0  0  0  0  0
  -29.8807  -21.1520   22.2377 N   0  0  0  0  0  0  0  0  0  0  0  0
  -25.4375  -34.4503   24.1285 N   0  3  0  0  0  0  0  0  0  0  0  0
  -32.5179  -24.3650   19.5713 N   0  3  1  0  0  0  0  0  0  0  0  0
  -30.9062  -12.0106   18.6080 O   0  0  0  0  0  0  0  0  0  0  0  0
  -26.1578  -26.3677   22.0436 O   0  0  0  0  0  0  0  0  0  0  0  0
  -23.6406  -28.8443   23.3570 O   0  0  0  0  0  0  0  0  0  0  0  0
  -26.3558  -32.5739   22.2438 O   0  0  0  0  0  0  0  0  0  0  0  0
  -28.9396  -20.1227   20.4184 O   0  0  0  0  0  0  0  0  0  0  0  0
  -23.3744  -10.9275   20.2470 O   0  0  0  0  0  0  0  0  0  0  0  0
  -32.1101  -29.0255   23.0494 O   0  0  0  0  0  0  0  0  0  1  0  0
  -21.7798   -8.9365   15.3585 F   0  0  0  0  0  0  0  0  0  0  0  0
  -20.9872  -11.7230   19.1019 F   0  0  0  0  0  0  0  0  0  0  0  0
  1  2  1  0  0  0  0
  1  5  2  0  0  0  0
  2  6  2  0  0  0  0
  3  8  2  0  0  0  0
  3 15  1  0  0  0  0
  4  9  1  0  0  0  0
  4 15  2  0  0  0  0
  5 17  1  0  0  0  0
  6 19  1  0  0  0  0
  7 10  2  0  0  0  0
  7 18  1  0  0  0  0
  8 21  1  0  0  0  0
  9 21  2  0  0  0  0
 10 22  1  0  0  0  0
 11 12  2  0  0  0  0
 11 23  1  0  0  0  0
 12 24  1  0  0  0  0
 13 20  1  0  0  0  0
 13 22  2  0  0  0  0
 14 24  2  0  0  0  0
 14 25  1  0  0  0  0
 15 26  1  0  0  0  0
 16 26  1  0  0  0  0
 16 27  2  0  0  0  0
 16 28  1  0  0  0  0
 17 19  2  0  0  0  0
 17 33  1  0  0  0  0
 18 20  2  0  0  0  0
 18 34  1  0  0  0  0
 19 42  1  0  0  0  0
 20 35  1  0  0  0  0
 21 79  1  0  0  0  0
 22 80  1  0  0  0  0
 23 25  2  0  0  0  0
 23 79  1  0  0  0  0
 24 81  1  0  0  0  0
 25 82  1  0  0  0  0
 26 63  2  0  0  0  0
 27 64  1  0  0  0  0
 27 67  1  0  0  0  0
 28 68  1  0  0  0  0
 28 74  2  0  0  0  0
 29 43  1  0  0  0  0
 29 69  1  0  0  0  0
 29 75  2  0  0  0  0
 30 59  1  0  0  0  0
 30 65  1  0  0  0  0
 30 76  2  0  0  0  0
 31 60  1  0  0  0  0
 31 70  1  0  0  0  0
 31 77  2  0  0  0  0
 32 66  1  0  0  0  0
 32 71  1  0  0  0  0
 32 78  2  0  0  0  0
 33 36  1  0  0  0  0
 34 43  1  0  0  0  0
 35 65  1  0  0  0  0
 36 38  1  0  0  0  0
 37 39  1  0  0  0  0
 37 40  1  0  0  0  0
 38 42  1  0  0  0  0
 39 44  1  0  0  0  0
 40 66  1  0  0  0  0
 41 44  1  0  0  0  0
 41 66  1  0  0  0  0
 42 69  1  0  0  0  0
 43 65  1  0  0  0  0
 44 64  1  0  0  0  0
 45 60  1  0  0  0  0
 46 61  1  0  0  0  0
 47 62  1  0  0  0  0
 48 62  1  0  0  0  0
 49 62  1  0  0  0  0
 50 72  1  0  0  0  0
 51 73  1  0  0  0  0
 52 53  1  0  0  0  0
 52 56  1  0  0  0  0
 53 61  1  0  0  0  0
 54 55  1  0  0  0  0
 54 57  1  0  0  0  0
 55 71  1  0  0  0  0
 56 73  1  0  0  0  0
 57 73  1  0  0  0  0
 58 61  1  0  0  0  0
 58 80  1  0  0  0  0
 59 62  1  0  0  0  0
 59 70  1  0  0  0  0
 60 72  1  0  0  0  0
 63 64  1  0  0  0  0
M  CHG  2  72   1  73   1
M  ISO  4  32 100  58 101  71 100  80 101
M  END
> <Batch ID>
0097

> <Smiles>
CNC(C)C(=O)NC(C(=O)N1Cc2cc([101O:1][101CH2:1]C(C)CCCN(C)CCC[100NH:0][100C:0](=O)N3CCCC(n4nc(-c5ccc(Oc6ccc(F)cc6F)cc5)c(C(N)=O)c4N)C3)ccc2CC1C(=O)NC1CCCc2ccccc21)C(C)(C)C

> <Shape>
0.206

> <Color>
0.074

> <Negative vol penalty>
0.000

$$$$

  -OEChem-04052319263D

 80 88  0     1  0  0  0  0  0999 V2000
  -26.6530  -14.5714   15.5418 C   0  0  0  0  0  0  0  0  0  0  0  0
  -26.5191  -15.6010   16.4665 C   0  0  0  0  0  0  0  0  0  0  0  0
  -23.0736   -9.8680   19.9427 C   0  0  0  0  0  0  0  0  0  0  0  0
  -23.8350   -9.8760   22.2355 C   0  0  0  0  0  0  0  0  0  0  0  0
  -26.9270  -14.8685   14.2085 C   0  0  0  0  0  0  0  0  0  0  0  0
  -26.6474  -16.9283   16.0560 C   0  0  0  0  0  0  0  0  0  0  0  0
  -25.6174  -20.4054   19.3805 C   0  0  0  0  0  0  0  0  0  0  0  0
  -22.3294   -8.7153   20.1938 C   0  0  0  0  0  0  0  0  0  0  0  0
  -23.0907   -8.7233   22.4867 C   0  0  0  0  0  0  0  0  0  0  0  0
  -26.4494  -20.6817   20.4646 C   0  0  0  0  0  0  0  0  0  0  0  0
  -19.8625   -7.9274   23.0918 C   0  0  0  0  0  0  0  0  0  0  0  0
  -19.1063   -7.8885   24.2632 C   0  0  0  0  0  0  0  0  0  0  0  0
  -27.2528  -22.6571   19.3369 C   0  0  0  0  0  0  0  0  0  0  0  0
  -20.3473   -5.9509   25.0000 C   0  0  0  0  0  0  0  0  0  0  0  0
  -29.8660  -17.8362   22.7272 C   0  0  0  0  0  0  0  0  0  0  0  0
  -23.8265  -10.4483   20.9635 C   0  0  0  0  0  0  0  0  0  0  0  0
  -24.1694  -12.9732   20.8418 C   0  0  0  0  0  0  0  0  0  0  0  0
  -27.0709  -16.1999   13.7846 C   0  0  0  0  0  0  0  0  0  0  0  0
  -25.6049  -21.2484   18.2599 C   0  0  0  0  0  0  0  0  0  0  0  0
  -26.9002  -17.2496   14.7101 C   0  0  0  0  0  0  0  0  0  0  0  0
  -26.4179  -22.3907   18.2410 C   0  0  0  0  0  0  0  0  0  0  0  0
  -22.3379   -8.1430   21.4658 C   0  0  0  0  0  0  0  0  0  0  0  0
  -27.2693  -21.8061   20.4417 C   0  0  0  0  0  0  0  0  0  0  0  0
  -20.8611   -6.9780   22.8744 C   0  0  0  0  0  0  0  0  0  0  0  0
  -19.3487   -6.9003   25.2173 C   0  0  0  0  0  0  0  0  0  0  0  0
  -21.1035   -5.9898   23.8285 C   0  0  0  0  0  0  0  0  0  0  0  0
  -24.5959  -11.6386   20.7046 C   0  0  0  0  0  0  0  0  0  0  0  0
  -30.7113  -18.9072   22.8852 C   0  0  0  0  0  0  0  0  0  0  0  0
  -30.5756  -16.9473   21.8976 C   0  0  0  0  0  0  0  0  0  0  0  0
  -25.2617  -13.7219   20.4774 C   0  0  0  0  0  0  0  0  0  0  0  0
  -22.8994  -13.4899   21.2612 C   0  0  0  0  0  0  0  0  0  0  0  0
  -26.3020  -20.8945   15.1789 C   0  0  0  0  0  0  0  0  0  0  0  0
  -25.1530  -23.9209   14.9719 C   0  0  0  0  0  0  0  0  0  0  0  0
  -24.5009  -26.8854   16.5320 C   0  0  0  0  0  0  0  0  0  0  0  0
  -30.7284  -14.7652   20.6479 C   0  0  0  0  0  0  0  0  0  0  0  0
  -27.3597  -16.4650   12.3280 C   0  0  0  0  0  0  0  0  0  0  0  0
  -24.6821  -20.9510   17.1099 C   0  0  0  0  0  0  0  0  0  0  0  0
  -26.4267  -23.3384   17.0704 C   0  0  0  0  0  0  0  0  0  0  0  0
  -27.9150  -17.8631   12.0769 C   0  0  0  0  0  0  0  0  0  0  0  0
  -29.6115  -12.3503   18.2820 C   0  0  0  0  0  0  0  0  0  0  0  0
  -27.0455  -18.9003   12.7718 C   0  0  0  0  0  0  0  0  0  0  0  0
  -28.1720  -12.0597   18.7126 C   0  0  0  0  0  0  0  0  0  0  0  0
  -30.5274  -12.5795   19.4829 C   0  0  0  0  0  0  0  0  0  0  0  0
  -28.6216  -13.3058   20.8648 C   0  0  0  0  0  0  0  0  0  0  0  0
  -27.0659  -18.6996   14.2924 C   0  0  1  0  0  0  0  0  0  0  0  0
  -25.1294  -21.5973   15.8024 C   0  0  1  0  0  0  0  0  0  0  0  0
  -27.6480  -13.1321   19.6877 C   0  0  2  0  0  0  0  0  0  0  0  0
  -23.5958  -29.1845   16.0940 C   0  0  0  0  0  0  0  0  0  0  0  0
  -27.7679  -24.6861   13.5984 C   0  0  0  0  0  0  0  0  0  0  0  0
  -27.2185  -27.0877   14.0445 C   0  0  0  0  0  0  0  0  0  0  0  0
  -25.7220  -25.7162   12.5946 C   0  0  0  0  0  0  0  0  0  0  0  0
  -33.0144  -19.4234   22.0226 C   0  0  0  0  0  0  0  0  0  0  0  0
  -22.2929  -26.5108   18.4667 C   0  0  0  0  0  0  0  0  0  0  0  0
  -30.5487  -20.1920   23.6574 C   0  0  0  0  0  0  0  0  0  0  0  0
  -29.9224  -21.3255   22.8423 C   0  0  0  0  0  0  0  0  0  0  0  0
  -28.5654  -20.9645   22.2495 C   0  0  0  0  0  0  0  0  0  1  0  0
  -25.7514  -25.3020   15.0885 C   0  0  1  0  0  0  0  0  0  0  0  0
  -23.2664  -27.7687   16.5409 C   0  0  2  0  0  0  0  0  0  0  0  0
  -26.6165  -25.6793   13.8529 C   0  0  0  0  0  0  0  0  0  0  0  0
  -25.8605  -11.5420   20.2856 N   0  0  0  0  0  0  0  0  0  0  0  0
  -31.7789  -17.4131   21.5526 N   0  0  0  0  0  0  0  0  0  0  0  0
  -31.8320  -18.6065   22.1683 N   0  0  0  0  0  0  0  0  0  0  0  0
  -26.2379  -12.8253   20.1562 N   0  0  0  0  0  0  0  0  0  0  0  0
  -25.5115  -23.0012   15.9676 N   0  0  0  0  0  0  0  0  0  0  0  0
  -29.9694  -13.6112   20.3599 N   0  0  0  0  0  0  0  0  0  0  0  0
  -25.4727  -15.0533   20.4034 N   0  0  0  0  0  0  0  0  0  0  0  0
  -21.8873  -12.5814   21.5997 N   0  0  0  0  0  0  0  0  0  0  0  0
  -30.0819  -15.6911   21.4661 N   0  0  0  0  0  0  0  0  0  0  0  0
  -26.0733  -19.5615   14.8957 N   0  0  0  0  0  0  0  0  0  0  0  0
  -24.6371  -26.2100   15.3375 N   0  0  0  0  0  0  0  0  0  0  0  0
  -22.6846  -27.8319   17.9115 N   0  3  0  0  0  0  0  0  0  0  0  0
  -22.6638  -14.7206   21.3180 O   0  0  0  0  0  0  0  0  0  0  0  0
  -27.3370  -21.5160   14.9689 O   0  0  0  0  0  0  0  0  0  0  0  0
  -24.3898  -23.6697   14.0360 O   0  0  0  0  0  0  0  0  0  0  0  0
  -25.2698  -26.8055   17.4875 O   0  0  0  0  0  0  0  0  0  0  0  0
  -31.8573  -14.9332   20.1795 O   0  0  0  0  0  0  0  0  0  0  0  0
  -21.6115   -7.0184   21.7113 O   0  0  0  0  0  0  0  0  0  0  0  0
  -28.0828  -22.0777   21.4983 O   0  0  0  0  0  0  0  0  0  1  0  0
  -18.6235   -6.8640   26.3428 F   0  0  0  0  0  0  0  0  0  0  0  0
  -22.0622   -5.0757   23.6258 F   0  0  0  0  0  0  0  0  0  0  0  0
  1  2  1  0  0  0  0
  1  5  2  0  0  0  0
  2  6  2  0  0  0  0
  3  8  2  0  0  0  0
  3 16  1  0  0  0  0
  4  9  1  0  0  0  0
  4 16  2  0  0  0  0
  5 18  1  0  0  0  0
  6 20  1  0  0  0  0
  7 10  2  0  0  0  0
  7 19  1  0  0  0  0
  8 22  1  0  0  0  0
  9 22  2  0  0  0  0
 10 23  1  0  0  0  0
 11 12  2  0  0  0  0
 11 24  1  0  0  0  0
 12 25  1  0  0  0  0
 13 21  1  0  0  0  0
 13 23  2  0  0  0  0
 14 25  2  0  0  0  0
 14 26  1  0  0  0  0
 15 28  2  0  0  0  0
 15 29  1  0  0  0  0
 16 27  1  0  0  0  0
 17 27  1  0  0  0  0
 17 30  2  0  0  0  0
 17 31  1  0  0  0  0
 18 20  2  0  0  0  0
 18 36  1  0  0  0  0
 19 21  2  0  0  0  0
 19 37  1  0  0  0  0
 20 45  1  0  0  0  0
 21 38  1  0  0  0  0
 22 77  1  0  0  0  0
 23 78  1  0  0  0  0
 24 26  2  0  0  0  0
 24 77  1  0  0  0  0
 25 79  1  0  0  0  0
 26 80  1  0  0  0  0
 27 60  2  0  0  0  0
 28 54  1  0  0  0  0
 28 62  1  0  0  0  0
 29 61  2  0  0  0  0
 29 68  1  0  0  0  0
 30 63  1  0  0  0  0
 30 66  1  0  0  0  0
 31 67  1  0  0  0  0
 31 72  2  0  0  0  0
 32 46  1  0  0  0  0
 32 69  1  0  0  0  0
 32 73  2  0  0  0  0
 33 57  1  0  0  0  0
 33 64  1  0  0  0  0
 33 74  2  0  0  0  0
 34 58  1  0  0  0  0
 34 70  1  0  0  0  0
 34 75  2  0  0  0  0
 35 65  1  0  0  0  0
 35 68  1  0  0  0  0
 35 76  2  0  0  0  0
 36 39  1  0  0  0  0
 37 46  1  0  0  0  0
 38 64  1  0  0  0  0
 39 41  1  0  0  0  0
 40 42  1  0  0  0  0
 40 43  1  0  0  0  0
 41 45  1  0  0  0  0
 42 47  1  0  0  0  0
 43 65  1  0  0  0  0
 44 47  1  0  0  0  0
 44 65  1  0  0  0  0
 45 69  1  0  0  0  0
 46 64  1  0  0  0  0
 47 63  1  0  0  0  0
 48 58  1  0  0  0  0
 49 59  1  0  0  0  0
 50 59  1  0  0  0  0
 51 59  1  0  0  0  0
 52 62  1  0  0  0  0
 53 71  1  0  0  0  0
 54 55  1  0  0  0  0
 55 56  1  0  0  0  0
 56 78  1  0  0  0  0
 57 59  1  0  0  0  0
 57 70  1  0  0  0  0
 58 71  1  0  0  0  0
 60 63  1  0  0  0  0
 61 62  1  0  0  0  0
M  CHG  1  71   1
M  ISO  4  35 100  56 101  68 100  78 101
M  END
> <Batch ID>
0097

> <Smiles>
CNC(C)C(=O)NC(C(=O)N1Cc2cc([101O:1][101CH2:1]CCc3cc([100NH:0][100C:0](=O)N4CCCC(n5nc(-c6ccc(Oc7ccc(F)cc7F)cc6)c(C(N)=O)c5N)C4)nn3C)ccc2CC1C(=O)NC1CCCc2ccccc21)C(C)(C)C

> <Shape>
0.194

> <Color>
0.196

> <Negative vol penalty>
0.000

$$$$

  -OEChem-04052319263D

 87 95  0     1  0  0  0  0  0999 V2000
  -32.8407  -21.6732   22.7282 C   0  0  0  0  0  0  0  0  0  0  0  0
  -31.4857  -21.9063   22.5155 C   0  0  0  0  0  0  0  0  0  0  0  0
  -28.5974  -25.7841   20.3159 C   0  0  0  0  0  0  0  0  0  0  0  0
  -26.7300  -25.5294   18.8044 C   0  0  0  0  0  0  0  0  0  0  0  0
  -33.4751  -20.6150   22.0788 C   0  0  0  0  0  0  0  0  0  0  0  0
  -30.7646  -21.0819   21.6525 C   0  0  0  0  0  0  0  0  0  0  0  0
  -26.2776  -19.7195   23.5644 C   0  0  0  0  0  0  0  0  0  0  0  0
  -29.0692  -24.5249   19.9453 C   0  0  0  0  0  0  0  0  0  0  0  0
  -27.2018  -24.2701   18.4337 C   0  0  0  0  0  0  0  0  0  0  0  0
  -25.2506  -20.6609   23.5115 C   0  0  0  0  0  0  0  0  0  0  0  0
  -29.5916  -23.0048   16.4069 C   0  0  0  0  0  0  0  0  0  0  0  0
  -29.6047  -22.6937   15.0473 C   0  0  0  0  0  0  0  0  0  0  0  0
  -24.3436  -19.5537   21.5697 C   0  0  0  0  0  0  0  0  0  0  0  0
  -19.9615  -25.7765   22.3710 C   0  0  0  0  0  0  0  0  0  0  0  0
  -28.1231  -20.8303   15.4593 C   0  0  0  0  0  0  0  0  0  0  0  0
  -19.9208  -24.4563   20.3932 C   0  0  0  0  0  0  0  0  0  0  0  0
  -27.4278  -26.2864   19.7455 C   0  0  0  0  0  0  0  0  0  0  0  0
  -27.2540  -28.8224   19.5314 C   0  0  0  0  0  0  0  0  0  0  0  0
  -32.7592  -19.7713   21.2149 C   0  0  0  0  0  0  0  0  0  0  0  0
  -26.3516  -18.6927   22.6121 C   0  0  0  0  0  0  0  0  0  0  0  0
  -31.3903  -20.0122   20.9900 C   0  0  0  0  0  0  0  0  0  0  0  0
  -25.3710  -18.5990   21.6142 C   0  0  0  0  0  0  0  0  0  0  0  0
  -20.3492  -24.6219   21.7004 C   0  0  0  0  0  0  0  0  0  0  0  0
  -19.1685  -26.7171   21.7231 C   0  0  0  0  0  0  0  0  0  0  0  0
  -28.3714  -23.7679   19.0043 C   0  0  0  0  0  0  0  0  0  0  0  0
  -24.2850  -20.5798   22.5124 C   0  0  0  0  0  0  0  0  0  0  0  0
  -28.8443  -22.2286   17.2928 C   0  0  0  0  0  0  0  0  0  0  0  0
  -28.8705  -21.6065   14.5734 C   0  0  0  0  0  0  0  0  0  0  0  0
  -28.1100  -21.1414   16.8189 C   0  0  0  0  0  0  0  0  0  0  0  0
  -26.9396  -27.5869   20.1283 C   0  0  0  0  0  0  0  0  0  0  0  0
  -18.7931  -26.4578   20.4148 C   0  0  0  0  0  0  0  0  0  0  0  0
  -26.5403  -29.7454   20.2562 C   0  0  0  0  0  0  0  0  0  0  0  0
  -28.1141  -29.1102   18.4209 C   0  0  0  0  0  0  0  0  0  0  0  0
  -28.4635  -17.8364   20.3962 C   0  0  0  0  0  0  0  0  0  0  0  0
  -26.4829  -15.2910   20.0492 C   0  0  0  0  0  0  0  0  0  0  0  0
  -23.3512  -13.9856   20.4164 C   0  0  0  0  0  0  0  0  0  0  0  0
  -21.5437  -29.3750   23.5345 C   0  0  0  0  0  0  0  0  0  0  0  0
  -33.4988  -18.6690   20.4989 C   0  0  0  0  0  0  0  0  0  0  0  0
  -27.4505  -17.6693   22.6988 C   0  0  0  0  0  0  0  0  0  0  0  0
  -25.3940  -17.5040   20.5803 C   0  0  0  0  0  0  0  0  0  0  0  0
  -32.5789  -17.6137   19.8902 C   0  0  0  0  0  0  0  0  0  0  0  0
  -24.7421  -30.4956   24.6259 C   0  0  0  0  0  0  0  0  0  0  0  0
  -31.4303  -18.2772   19.1369 C   0  0  0  0  0  0  0  0  0  0  0  0
  -25.6963  -29.9887   23.5431 C   0  0  0  0  0  0  0  0  0  0  0  0
  -23.6120  -29.5035   24.8917 C   0  0  0  0  0  0  0  0  0  0  0  0
  -23.8075  -28.5870   22.6124 C   0  0  0  0  0  0  0  0  0  0  0  0
  -30.5685  -19.1249   20.0804 C   0  0  1  0  0  0  0  0  0  0  0  0
  -27.7198  -16.9679   21.3711 C   0  0  1  0  0  0  0  0  0  0  0  0
  -24.9324  -29.5787   22.2697 C   0  0  2  0  0  0  0  0  0  0  0  0
  -22.0296  -11.8916   20.0089 C   0  0  0  0  0  0  0  0  0  0  0  0
  -14.1269  -27.3970   18.8037 C   0  0  0  0  0  0  0  0  0  0  0  0
  -15.5483  -29.3391   19.4882 C   0  0  0  0  0  0  0  0  0  0  0  0
  -26.3642  -15.9482   17.0719 C   0  0  0  0  0  0  0  0  0  0  0  0
  -24.3489  -14.4730   16.8978 C   0  0  0  0  0  0  0  0  0  0  0  0
  -26.5413  -13.5091   17.5956 C   0  0  0  0  0  0  0  0  0  0  0  0
  -22.7545  -13.6630   23.2972 C   0  0  0  0  0  0  0  0  0  0  0  0
  -21.2095  -23.5828   22.3741 C   0  0  0  0  0  0  0  0  0  0  0  0
  -18.7481  -27.9555   22.4364 C   0  0  0  0  0  0  0  0  0  0  0  0
  -17.9423  -27.4329   19.6687 C   0  0  0  0  0  0  0  0  0  0  0  0
  -22.7111  -23.8126   22.1895 C   0  0  0  0  0  0  0  0  0  0  0  0
  -16.4788  -26.9652   19.5754 C   0  0  0  0  0  0  0  0  0  0  0  0
  -19.5634  -29.1960   22.0494 C   0  0  0  0  0  0  0  0  0  0  0  0
  -23.5731  -22.8075   22.9445 C   0  0  0  0  0  0  0  0  0  1  0  0
  -25.2693  -14.9881   19.2039 C   0  0  1  0  0  0  0  0  0  0  0  0
  -22.8701  -12.6726   21.0071 C   0  0  2  0  0  0  0  0  0  0  0  0
  -15.5526  -27.9530   18.8419 C   0  0  0  0  0  0  0  0  0  0  0  0
  -25.6313  -14.7515   17.7105 C   0  0  0  0  0  0  0  0  0  0  0  0
  -19.1500  -25.3476   19.7307 N   0  0  0  0  0  0  0  0  0  0  0  0
  -26.0924  -27.7102   21.1535 N   0  0  0  0  0  0  0  0  0  0  0  0
  -25.8683  -29.0342   21.2064 N   0  0  0  0  0  0  0  0  0  0  0  0
  -26.4920  -16.5311   20.7034 N   0  0  0  0  0  0  0  0  0  0  0  0
  -22.9270  -29.1571   23.6440 N   0  0  0  0  0  0  0  0  0  0  0  0
  -26.4283  -31.0877   20.1671 N   0  0  0  0  0  0  0  0  0  0  0  0
  -28.7706  -28.0443   17.7906 N   0  0  0  0  0  0  0  0  0  0  0  0
  -29.6884  -18.2791   20.8579 N   0  0  0  0  0  0  0  0  0  0  0  0
  -24.5985  -13.8607   19.8421 N   0  0  0  0  0  0  0  0  0  0  0  0
  -20.9742  -29.0252   22.3163 N   0  0  0  0  0  0  0  0  0  0  0  0
  -22.0446  -12.9229   22.2224 N   0  3  0  0  0  0  0  0  0  0  0  0
  -28.3079  -30.2796   18.0105 O   0  0  0  0  0  0  0  0  0  0  0  0
  -27.9637  -18.0852   19.3054 O   0  0  0  0  0  0  0  0  0  0  0  0
  -27.3862  -14.4550   20.1318 O   0  0  0  0  0  0  0  0  0  0  0  0
  -22.6854  -15.0178   20.4569 O   0  0  0  0  0  0  0  0  0  0  0  0
  -20.8672  -29.8514   24.4524 O   0  0  0  0  0  0  0  0  0  0  0  0
  -28.8316  -22.5392   18.6422 O   0  0  0  0  0  0  0  0  0  0  0  0
  -23.2820  -21.4978   22.4582 O   0  0  0  0  0  0  0  0  0  1  0  0
  -28.8820  -21.3088   13.2675 F   0  0  0  0  0  0  0  0  0  0  0  0
  -27.3892  -20.3927   17.6650 F   0  0  0  0  0  0  0  0  0  0  0  0
  1  2  1  0  0  0  0
  1  5  2  0  0  0  0
  2  6  2  0  0  0  0
  3  8  2  0  0  0  0
  3 17  1  0  0  0  0
  4  9  1  0  0  0  0
  4 17  2  0  0  0  0
  5 19  1  0  0  0  0
  6 21  1  0  0  0  0
  7 10  2  0  0  0  0
  7 20  1  0  0  0  0
  8 25  1  0  0  0  0
  9 25  2  0  0  0  0
 10 26  1  0  0  0  0
 11 12  2  0  0  0  0
 11 27  1  0  0  0  0
 12 28  1  0  0  0  0
 13 22  1  0  0  0  0
 13 26  2  0  0  0  0
 14 23  2  0  0  0  0
 14 24  1  0  0  0  0
 15 28  2  0  0  0  0
 15 29  1  0  0  0  0
 16 23  1  0  0  0  0
 16 68  2  0  0  0  0
 17 30  1  0  0  0  0
 18 30  1  0  0  0  0
 18 32  2  0  0  0  0
 18 33  1  0  0  0  0
 19 21  2  0  0  0  0
 19 38  1  0  0  0  0
 20 22  2  0  0  0  0
 20 39  1  0  0  0  0
 21 47  1  0  0  0  0
 22 40  1  0  0  0  0
 23 57  1  0  0  0  0
 24 31  2  0  0  0  0
 24 58  1  0  0  0  0
 25 84  1  0  0  0  0
 26 85  1  0  0  0  0
 27 29  2  0  0  0  0
 27 84  1  0  0  0  0
 28 86  1  0  0  0  0
 29 87  1  0  0  0  0
 30 69  2  0  0  0  0
 31 59  1  0  0  0  0
 31 68  1  0  0  0  0
 32 70  1  0  0  0  0
 32 73  1  0  0  0  0
 33 74  1  0  0  0  0
 33 79  2  0  0  0  0
 34 48  1  0  0  0  0
 34 75  1  0  0  0  0
 34 80  2  0  0  0  0
 35 64  1  0  0  0  0
 35 71  1  0  0  0  0
 35 81  2  0  0  0  0
 36 65  1  0  0  0  0
 36 76  1  0  0  0  0
 36 82  2  0  0  0  0
 37 72  1  0  0  0  0
 37 77  1  0  0  0  0
 37 83  2  0  0  0  0
 38 41  1  0  0  0  0
 39 48  1  0  0  0  0
 40 71  1  0  0  0  0
 41 43  1  0  0  0  0
 42 44  1  0  0  0  0
 42 45  1  0  0  0  0
 43 47  1  0  0  0  0
 44 49  1  0  0  0  0
 45 72  1  0  0  0  0
 46 49  1  0  0  0  0
 46 72  1  0  0  0  0
 47 75  1  0  0  0  0
 48 71  1  0  0  0  0
 49 70  1  0  0  0  0
 50 65  1  0  0  0  0
 51 66  1  0  0  0  0
 52 66  1  0  0  0  0
 53 67  1  0  0  0  0
 54 67  1  0  0  0  0
 55 67  1  0  0  0  0
 56 78  1  0  0  0  0
 57 60  1  0  0  0  0
 58 62  1  0  0  0  0
 59 61  1  0  0  0  0
 60 63  1  0  0  0  0
 61 66  1  0  0  0  0
 62 77  1  0  0  0  0
 63 85  1  0  0  0  0
 64 67  1  0  0  0  0
 64 76  1  0  0  0  0
 65 78  1  0  0  0  0
 69 70  1  0  0  0  0
M  CHG  1  78   1
M  ISO  4  37 100  63 101  77 100  85 101
M  END
> <Batch ID>
0097

> <Smiles>
CNC(C)C(=O)NC(C(=O)N1Cc2cc([101O:1][101CH2:1]CCc3cnc(CCC(C)C)c(CC[100NH:0][100C:0](=O)N4CCCC(n5nc(-c6ccc(Oc7ccc(F)cc7F)cc6)c(C(N)=O)c5N)C4)c3)ccc2CC1C(=O)NC1CCCc2ccccc21)C(C)(C)C

> <Shape>
0.193

> <Color>
0.074

> <Negative vol penalty>
0.000

$$$$

  -OEChem-04052319263D

 83 91  0     1  0  0  0  0  0999 V2000
  -19.2620  -24.2737   24.3185 C   0  0  0  0  0  0  0  0  0  0  0  0
  -20.6407  -24.1506   24.1785 C   0  0  0  0  0  0  0  0  0  0  0  0
  -25.3496  -13.8916   20.7100 C   0  0  0  0  0  0  0  0  0  0  0  0
  -23.3159  -15.1904   20.5919 C   0  0  0  0  0  0  0  0  0  0  0  0
  -18.6107  -25.4042   23.8270 C   0  0  0  0  0  0  0  0  0  0  0  0
  -21.3687  -25.1577   23.5459 C   0  0  0  0  0  0  0  0  0  0  0  0
  -27.0513  -26.9970   24.8991 C   0  0  0  0  0  0  0  0  0  0  0  0
  -24.6476  -12.8468   21.3109 C   0  0  0  0  0  0  0  0  0  0  0  0
  -22.6137  -14.1456   21.1927 C   0  0  0  0  0  0  0  0  0  0  0  0
  -28.2923  -26.6987   24.3382 C   0  0  0  0  0  0  0  0  0  0  0  0
  -22.5795  -10.3536   20.3415 C   0  0  0  0  0  0  0  0  0  0  0  0
  -22.8165   -9.0606   19.8751 C   0  0  0  0  0  0  0  0  0  0  0  0
  -28.1597  -28.6989   22.9962 C   0  0  0  0  0  0  0  0  0  0  0  0
  -27.0928  -23.9410   19.1576 C   0  0  0  0  0  0  0  0  0  0  0  0
  -23.5560   -8.4012   22.0786 C   0  0  0  0  0  0  0  0  0  0  0  0
  -27.0813  -25.8453   20.3589 C   0  0  0  0  0  0  0  0  0  0  0  0
  -24.6838  -15.0635   20.3506 C   0  0  0  0  0  0  0  0  0  0  0  0
  -25.6179  -16.3461   18.3531 C   0  0  0  0  0  0  0  0  0  0  0  0
  -19.3324  -26.4301   23.1967 C   0  0  0  0  0  0  0  0  0  0  0  0
  -26.3490  -28.1447   24.5042 C   0  0  0  0  0  0  0  0  0  0  0  0
  -20.7263  -26.3025   23.0444 C   0  0  0  0  0  0  0  0  0  0  0  0
  -26.9111  -29.0108   23.5555 C   0  0  0  0  0  0  0  0  0  0  0  0
  -26.3239  -24.7401   20.0392 C   0  0  0  0  0  0  0  0  0  0  0  0
  -23.2796  -12.9738   21.5522 C   0  0  0  0  0  0  0  0  0  0  0  0
  -28.8454  -27.5482   23.3844 C   0  0  0  0  0  0  0  0  0  0  0  0
  -22.8308  -10.6704   21.6765 C   0  0  0  0  0  0  0  0  0  0  0  0
  -23.3047   -8.0844   20.7436 C   0  0  0  0  0  0  0  0  0  0  0  0
  -23.3190   -9.6942   22.5450 C   0  0  0  0  0  0  0  0  0  0  0  0
  -25.4086  -16.1433   19.7304 C   0  0  0  0  0  0  0  0  0  0  0  0
  -28.2968  -24.5821   18.9655 C   0  0  0  0  0  0  0  0  0  0  0  0
  -26.3583  -17.5009   18.2847 C   0  0  0  0  0  0  0  0  0  0  0  0
  -25.1819  -15.5609   17.2355 C   0  0  0  0  0  0  0  0  0  0  0  0
  -23.5459  -28.6897   23.1080 C   0  0  0  0  0  0  0  0  0  0  0  0
  -24.2872  -31.7891   23.7133 C   0  0  0  0  0  0  0  0  0  0  0  0
  -26.7008  -34.1293   24.3005 C   0  0  0  0  0  0  0  0  0  0  0  0
  -26.9434  -22.1929   21.9581 C   0  0  0  0  0  0  0  0  0  0  0  0
  -18.5784  -27.6115   22.6395 C   0  0  0  0  0  0  0  0  0  0  0  0
  -25.0236  -28.4664   25.1384 C   0  0  0  0  0  0  0  0  0  0  0  0
  -26.2069  -30.2662   23.1122 C   0  0  0  0  0  0  0  0  0  0  0  0
  -19.4716  -28.8063   22.3153 C   0  0  0  0  0  0  0  0  0  0  0  0
  -29.5397  -20.0622   20.7765 C   0  0  0  0  0  0  0  0  0  0  0  0
  -20.7106  -28.3541   21.5489 C   0  0  0  0  0  0  0  0  0  0  0  0
  -28.7943  -18.8346   20.2501 C   0  0  0  0  0  0  0  0  0  0  0  0
  -28.8704  -20.6376   22.0227 C   0  0  0  0  0  0  0  0  0  0  0  0
  -26.6893  -19.7119   21.3447 C   0  0  0  0  0  0  0  0  0  0  0  0
  -21.5540  -27.3850   22.3862 C   0  0  1  0  0  0  0  0  0  0  0  0
  -24.1618  -29.3918   24.2850 C   0  0  1  0  0  0  0  0  0  0  0  0
  -27.2948  -19.1296   20.0560 C   0  0  2  0  0  0  0  0  0  0  0  0
  -29.4598  -24.1886   18.1435 C   0  0  0  0  0  0  0  0  0  0  0  0
  -27.0032  -36.5849   24.7201 C   0  0  0  0  0  0  0  0  0  0  0  0
  -31.2165  -25.1583   22.8210 C   0  0  0  0  0  0  0  0  0  0  0  0
  -23.8077  -32.3515   20.7529 C   0  0  0  0  0  0  0  0  0  0  0  0
  -25.0166  -34.5248   21.0416 C   0  0  0  0  0  0  0  0  0  0  0  0
  -22.9091  -34.0946   22.3049 C   0  0  0  0  0  0  0  0  0  0  0  0
  -27.9116  -33.6444   26.9571 C   0  0  0  0  0  0  0  0  0  0  0  0
  -24.9629  -24.4445   20.5257 C   0  0  0  0  0  0  0  0  0  0  0  0
  -30.5647  -26.3080   20.6745 C   0  0  0  0  0  0  0  0  0  0  0  0
  -29.3939  -26.7498   19.7846 C   0  0  0  0  0  0  0  0  0  0  0  0
  -24.9235  -23.6292   21.8315 C   0  0  0  0  0  0  0  0  0  0  0  0
  -25.0230  -32.8773   22.9694 C   0  0  1  0  0  0  0  0  0  0  0  0
  -26.8153  -35.2156   25.3546 C   0  0  2  0  0  0  0  0  0  0  0  0
  -30.1710  -26.0239   22.1294 C   0  0  2  0  0  0  0  0  0  1  0  0
  -24.2018  -33.4375   21.7739 C   0  0  0  0  0  0  0  0  0  0  0  0
  -25.9708  -17.0930   20.4827 N   0  0  0  0  0  0  0  0  0  0  0  0
  -28.2786  -25.7385   19.7007 N   0  0  0  0  0  0  0  0  0  0  0  0
  -26.5407  -17.9037   19.5749 N   0  0  0  0  0  0  0  0  0  0  0  0
  -24.9106  -30.5340   23.7569 N   0  0  0  0  0  0  0  0  0  0  0  0
  -27.4506  -20.8964   21.7714 N   0  0  0  0  0  0  0  0  0  0  0  0
  -26.8647  -18.2009   17.2474 N   0  0  0  0  0  0  0  0  0  0  0  0
  -24.4299  -14.4046   17.4841 N   0  0  0  0  0  0  0  0  0  0  0  0
  -22.3212  -28.1089   23.3770 N   0  0  0  0  0  0  0  0  0  0  0  0
  -25.3868  -33.8788   23.9659 N   0  0  0  0  0  0  0  0  0  0  0  0
  -25.5891  -22.3532   21.6917 N   0  0  0  0  0  0  0  0  0  0  0  0
  -27.9769  -34.9489   26.2493 N   0  3  0  0  0  0  0  0  0  0  0  0
  -25.4651  -15.8664   16.0523 O   0  0  0  0  0  0  0  0  0  0  0  0
  -24.1373  -28.6770   22.0348 O   0  0  0  0  0  0  0  0  0  0  0  0
  -23.2028  -32.0452   24.2425 O   0  0  0  0  0  0  0  0  0  0  0  0
  -27.6793  -33.5624   23.8192 O   0  0  0  0  0  0  0  0  0  0  0  0
  -27.6467  -23.1388   22.3291 O   0  0  0  0  0  0  0  0  0  0  0  0
  -22.5942  -11.9544   22.1383 O   0  0  0  0  0  0  0  0  0  0  0  0
  -30.0562  -27.2590   22.8348 O   0  0  0  0  0  0  0  0  0  1  0  0
  -23.5309   -6.8424   20.2958 F   0  0  0  0  0  0  0  0  0  0  0  0
  -23.5612   -9.9923   23.8289 F   0  0  0  0  0  0  0  0  0  0  0  0
  1  2  1  0  0  0  0
  1  5  2  0  0  0  0
  2  6  2  0  0  0  0
  3  8  2  0  0  0  0
  3 17  1  0  0  0  0
  4  9  1  0  0  0  0
  4 17  2  0  0  0  0
  5 19  1  0  0  0  0
  6 21  1  0  0  0  0
  7 10  2  0  0  0  0
  7 20  1  0  0  0  0
  8 24  1  0  0  0  0
  9 24  2  0  0  0  0
 10 25  1  0  0  0  0
 11 12  2  0  0  0  0
 11 26  1  0  0  0  0
 12 27  1  0  0  0  0
 13 22  1  0  0  0  0
 13 25  2  0  0  0  0
 14 23  1  0  0  0  0
 14 30  2  0  0  0  0
 15 27  2  0  0  0  0
 15 28  1  0  0  0  0
 16 23  2  0  0  0  0
 16 65  1  0  0  0  0
 17 29  1  0  0  0  0
 18 29  1  0  0  0  0
 18 31  2  0  0  0  0
 18 32  1  0  0  0  0
 19 21  2  0  0  0  0
 19 37  1  0  0  0  0
 20 22  2  0  0  0  0
 20 38  1  0  0  0  0
 21 46  1  0  0  0  0
 22 39  1  0  0  0  0
 23 56  1  0  0  0  0
 24 80  1  0  0  0  0
 25 81  1  0  0  0  0
 26 28  2  0  0  0  0
 26 80  1  0  0  0  0
 27 82  1  0  0  0  0
 28 83  1  0  0  0  0
 29 64  2  0  0  0  0
 30 49  1  0  0  0  0
 30 65  1  0  0  0  0
 31 66  1  0  0  0  0
 31 69  1  0  0  0  0
 32 70  1  0  0  0  0
 32 75  2  0  0  0  0
 33 47  1  0  0  0  0
 33 71  1  0  0  0  0
 33 76  2  0  0  0  0
 34 60  1  0  0  0  0
 34 67  1  0  0  0  0
 34 77  2  0  0  0  0
 35 61  1  0  0  0  0
 35 72  1  0  0  0  0
 35 78  2  0  0  0  0
 36 68  1  0  0  0  0
 36 73  1  0  0  0  0
 36 79  2  0  0  0  0
 37 40  1  0  0  0  0
 38 47  1  0  0  0  0
 39 67  1  0  0  0  0
 40 42  1  0  0  0  0
 41 43  1  0  0  0  0
 41 44  1  0  0  0  0
 42 46  1  0  0  0  0
 43 48  1  0  0  0  0
 44 68  1  0  0  0  0
 45 48  1  0  0  0  0
 45 68  1  0  0  0  0
 46 71  1  0  0  0  0
 47 67  1  0  0  0  0
 48 66  1  0  0  0  0
 50 61  1  0  0  0  0
 51 62  1  0  0  0  0
 52 63  1  0  0  0  0
 53 63  1  0  0  0  0
 54 63  1  0  0  0  0
 55 74  1  0  0  0  0
 56 59  1  0  0  0  0
 57 58  1  0  0  0  0
 57 62  1  0  0  0  0
 58 65  1  0  0  0  0
 59 73  1  0  0  0  0
 60 63  1  0  0  0  0
 60 72  1  0  0  0  0
 61 74  1  0  0  0  0
 62 81  1  0  0  0  0
 64 66  1  0  0  0  0
M  CHG  1  74   1
M  ISO  4  36 100  62 101  73 100  81 101
M  END
> <Batch ID>
0097

> <Smiles>
CNC(C)C(=O)NC(C(=O)N1Cc2cc([101O:1][101CH:1](C)CCn3cc(CC[100NH:0][100C:0](=O)N4CCCC(n5nc(-c6ccc(Oc7ccc(F)cc7F)cc6)c(C(N)=O)c5N)C4)cc3C)ccc2CC1C(=O)NC1CCCc2ccccc21)C(C)(C)C

> <Shape>
0.250

> <Color>
0.067

> <Negative vol penalty>
0.000

$$$$

  -OEChem-04052319263D

 87 95  0     1  0  0  0  0  0999 V2000
  -20.1009  -29.9183   25.0287 C   0  0  0  0  0  0  0  0  0  0  0  0
  -21.3927  -29.5166   24.7040 C   0  0  0  0  0  0  0  0  0  0  0  0
  -24.6443  -13.9369   19.9665 C   0  0  0  0  0  0  0  0  0  0  0  0
  -26.5552  -13.8831   21.4439 C   0  0  0  0  0  0  0  0  0  0  0  0
  -19.0065  -29.2779   24.4490 C   0  0  0  0  0  0  0  0  0  0  0  0
  -21.5908  -28.4734   23.8002 C   0  0  0  0  0  0  0  0  0  0  0  0
  -25.2040  -29.5044   20.4051 C   0  0  0  0  0  0  0  0  0  0  0  0
  -24.5664  -12.5452   20.0164 C   0  0  0  0  0  0  0  0  0  0  0  0
  -26.4773  -12.4913   21.4938 C   0  0  0  0  0  0  0  0  0  0  0  0
  -26.5273  -29.3811   20.8263 C   0  0  0  0  0  0  0  0  0  0  0  0
  -23.4155  -10.1897   22.1519 C   0  0  0  0  0  0  0  0  0  0  0  0
  -22.1567   -9.6170   22.3335 C   0  0  0  0  0  0  0  0  0  0  0  0
  -26.6588  -27.2209   19.7607 C   0  0  0  0  0  0  0  0  0  0  0  0
  -29.2656  -24.6301   24.4870 C   0  0  0  0  0  0  0  0  0  0  0  0
  -22.3812   -8.4556   20.2269 C   0  0  0  0  0  0  0  0  0  0  0  0
  -25.6387  -14.6059   20.6802 C   0  0  0  0  0  0  0  0  0  0  0  0
  -25.0841  -16.9623   21.4849 C   0  0  0  0  0  0  0  0  0  0  0  0
  -19.1914  -28.2328   23.5302 C   0  0  0  0  0  0  0  0  0  0  0  0
  -24.5937  -28.4803   19.6666 C   0  0  0  0  0  0  0  0  0  0  0  0
  -20.4978  -27.8176   23.2086 C   0  0  0  0  0  0  0  0  0  0  0  0
  -25.3285  -27.3348   19.3292 C   0  0  0  0  0  0  0  0  0  0  0  0
  -28.3461  -23.7234   25.0025 C   0  0  0  0  0  0  0  0  0  0  0  0
  -29.6866  -24.5106   23.1672 C   0  0  0  0  0  0  0  0  0  0  0  0
  -25.4829  -11.8223   20.7801 C   0  0  0  0  0  0  0  0  0  0  0  0
  -27.2540  -28.2380   20.5066 C   0  0  0  0  0  0  0  0  0  0  0  0
  -24.1572   -9.8955   21.0077 C   0  0  0  0  0  0  0  0  0  0  0  0
  -21.6396   -8.7499   21.3710 C   0  0  0  0  0  0  0  0  0  0  0  0
  -23.6400   -9.0284   20.0453 C   0  0  0  0  0  0  0  0  0  0  0  0
  -25.7200  -16.0436   20.6285 C   0  0  0  0  0  0  0  0  0  0  0  0
  -27.8817  -22.7231   24.1637 C   0  0  0  0  0  0  0  0  0  0  0  0
  -29.1623  -23.4749   22.4107 C   0  0  0  0  0  0  0  0  0  0  0  0
  -25.4784  -18.1935   21.0212 C   0  0  0  0  0  0  0  0  0  0  0  0
  -24.2148  -16.7240   22.5999 C   0  0  0  0  0  0  0  0  0  0  0  0
  -22.1069  -26.5559   20.1310 C   0  0  0  0  0  0  0  0  0  0  0  0
  -22.7337  -25.6509   17.0797 C   0  0  0  0  0  0  0  0  0  0  0  0
  -25.0030  -25.3857   14.5445 C   0  0  0  0  0  0  0  0  0  0  0  0
  -29.4396  -21.6459   19.1411 C   0  0  0  0  0  0  0  0  0  0  0  0
  -17.9770  -27.5393   22.9655 C   0  0  0  0  0  0  0  0  0  0  0  0
  -23.1738  -28.6404   19.1969 C   0  0  0  0  0  0  0  0  0  0  0  0
  -24.7259  -26.2157   18.5211 C   0  0  0  0  0  0  0  0  0  0  0  0
  -18.2780  -26.6919   21.7320 C   0  0  0  0  0  0  0  0  0  0  0  0
  -27.8883  -19.4925   16.7678 C   0  0  0  0  0  0  0  0  0  0  0  0
  -19.5178  -25.8339   21.9634 C   0  0  0  0  0  0  0  0  0  0  0  0
  -27.1390  -18.4760   17.6311 C   0  0  0  0  0  0  0  0  0  0  0  0
  -29.2180  -19.8983   17.3995 C   0  0  0  0  0  0  0  0  0  0  0  0
  -28.3719  -19.3667   19.6524 C   0  0  0  0  0  0  0  0  0  0  0  0
  -20.7538  -26.7065   22.2136 C   0  0  1  0  0  0  0  0  0  0  0  0
  -22.4925  -27.3103   18.8901 C   0  0  1  0  0  0  0  0  0  0  0  0
  -26.9989  -18.9693   19.0838 C   0  0  2  0  0  0  0  0  0  0  0  0
  -26.8939  -21.7199   24.6627 C   0  0  0  0  0  0  0  0  0  0  0  0
  -25.2310  -24.5704   12.1822 C   0  0  0  0  0  0  0  0  0  0  0  0
  -22.8240  -22.7714   18.0847 C   0  0  0  0  0  0  0  0  0  0  0  0
  -23.9659  -22.1354   15.9493 C   0  0  0  0  0  0  0  0  0  0  0  0
  -21.6560  -23.0757   15.8944 C   0  0  0  0  0  0  0  0  0  0  0  0
  -24.8608  -27.8728   25.7464 C   0  0  0  0  0  0  0  0  0  0  0  0
  -25.6885  -28.0893   13.5548 C   0  0  0  0  0  0  0  0  0  0  0  0
  -27.8911  -23.8461   26.4156 C   0  0  0  0  0  0  0  0  0  0  0  0
  -30.6837  -25.4904   22.6022 C   0  0  0  0  0  0  0  0  0  0  0  0
  -29.5778  -23.2993   20.9867 C   0  0  0  0  0  0  0  0  0  0  0  0
  -26.5136  -24.5172   26.5876 C   0  0  0  0  0  0  0  0  0  0  0  0
  -30.0814  -26.8557   22.2633 C   0  0  0  0  0  0  0  0  0  0  0  0
  -26.4027  -25.9259   26.0124 C   0  0  0  0  0  0  0  0  0  0  0  0
  -29.0247  -26.7940   21.1664 C   0  0  0  0  0  0  0  0  0  1  0  0
  -23.6013  -24.5978   16.4337 C   0  0  1  0  0  0  0  0  0  0  0  0
  -24.9210  -25.7612   13.0759 C   0  0  2  0  0  0  0  0  0  0  0  0
  -23.0228  -23.1651   16.6074 C   0  0  0  0  0  0  0  0  0  0  0  0
  -26.4618  -16.6402   19.6916 N   0  0  0  0  0  0  0  0  0  0  0  0
  -28.2674  -22.5749   22.8766 N   0  0  0  0  0  0  0  0  0  0  0  0
  -26.2944  -17.9471   19.9565 N   0  0  0  0  0  0  0  0  0  0  0  0
  -23.3324  -26.4162   18.0905 N   0  0  0  0  0  0  0  0  0  0  0  0
  -29.0152  -20.3578   18.7756 N   0  0  0  0  0  0  0  0  0  0  0  0
  -25.2031  -19.4522   21.4243 N   0  0  0  0  0  0  0  0  0  0  0  0
  -23.9131  -15.3984   22.9405 N   0  0  0  0  0  0  0  0  0  0  0  0
  -21.2512  -27.2476   20.9669 N   0  0  0  0  0  0  0  0  0  0  0  0
  -23.7747  -25.0078   15.0443 N   0  0  0  0  0  0  0  0  0  0  0  0
  -29.2038  -22.0047   20.4626 N   0  0  0  0  0  0  0  0  0  0  0  0
  -25.0617  -26.4965   26.2786 N   0  3  0  0  0  0  0  0  0  0  0  0
  -25.8917  -26.8481   12.7642 N   0  3  0  0  0  0  0  0  0  0  0  0
  -23.7071  -17.6593   23.2640 O   0  0  0  0  0  0  0  0  0  0  0  0
  -22.5515  -25.4290   20.3156 O   0  0  0  0  0  0  0  0  0  0  0  0
  -21.5700  -25.7941   16.6964 O   0  0  0  0  0  0  0  0  0  0  0  0
  -26.0523  -25.4204   15.1833 O   0  0  0  0  0  0  0  0  0  0  0  0
  -29.9833  -22.4210   18.3470 O   0  0  0  0  0  0  0  0  0  0  0  0
  -25.4071  -10.4643   20.8293 O   0  0  0  0  0  0  0  0  0  0  0  0
  -28.5457  -28.1148   20.9170 O   0  0  0  0  0  0  0  0  0  1  0  0
  -20.4314   -8.1988   21.5463 F   0  0  0  0  0  0  0  0  0  0  0  0
  -24.3484   -8.7409   18.9446 F   0  0  0  0  0  0  0  0  0  0  0  0
  1  2  1  0  0  0  0
  1  5  2  0  0  0  0
  2  6  2  0  0  0  0
  3  8  2  0  0  0  0
  3 16  1  0  0  0  0
  4  9  1  0  0  0  0
  4 16  2  0  0  0  0
  5 18  1  0  0  0  0
  6 20  1  0  0  0  0
  7 10  2  0  0  0  0
  7 19  1  0  0  0  0
  8 24  1  0  0  0  0
  9 24  2  0  0  0  0
 10 25  1  0  0  0  0
 11 12  2  0  0  0  0
 11 26  1  0  0  0  0
 12 27  1  0  0  0  0
 13 21  1  0  0  0  0
 13 25  2  0  0  0  0
 14 22  1  0  0  0  0
 14 23  2  0  0  0  0
 15 27  2  0  0  0  0
 15 28  1  0  0  0  0
 16 29  1  0  0  0  0
 17 29  1  0  0  0  0
 17 32  2  0  0  0  0
 17 33  1  0  0  0  0
 18 20  2  0  0  0  0
 18 38  1  0  0  0  0
 19 21  2  0  0  0  0
 19 39  1  0  0  0  0
 20 47  1  0  0  0  0
 21 40  1  0  0  0  0
 22 30  2  0  0  0  0
 22 57  1  0  0  0  0
 23 31  1  0  0  0  0
 23 58  1  0  0  0  0
 24 84  1  0  0  0  0
 25 85  1  0  0  0  0
 26 28  2  0  0  0  0
 26 84  1  0  0  0  0
 27 86  1  0  0  0  0
 28 87  1  0  0  0  0
 29 67  2  0  0  0  0
 30 50  1  0  0  0  0
 30 68  1  0  0  0  0
 31 59  1  0  0  0  0
 31 68  2  0  0  0  0
 32 69  1  0  0  0  0
 32 72  1  0  0  0  0
 33 73  1  0  0  0  0
 33 79  2  0  0  0  0
 34 48  1  0  0  0  0
 34 74  1  0  0  0  0
 34 80  2  0  0  0  0
 35 64  1  0  0  0  0
 35 70  1  0  0  0  0
 35 81  2  0  0  0  0
 36 65  1  0  0  0  0
 36 75  1  0  0  0  0
 36 82  2  0  0  0  0
 37 71  1  0  0  0  0
 37 76  1  0  0  0  0
 37 83  2  0  0  0  0
 38 41  1  0  0  0  0
 39 48  1  0  0  0  0
 40 70  1  0  0  0  0
 41 43  1  0  0  0  0
 42 44  1  0  0  0  0
 42 45  1  0  0  0  0
 43 47  1  0  0  0  0
 44 49  1  0  0  0  0
 45 71  1  0  0  0  0
 46 49  1  0  0  0  0
 46 71  1  0  0  0  0
 47 74  1  0  0  0  0
 48 70  1  0  0  0  0
 49 69  1  0  0  0  0
 51 65  1  0  0  0  0
 52 66  1  0  0  0  0
 53 66  1  0  0  0  0
 54 66  1  0  0  0  0
 55 77  1  0  0  0  0
 56 78  1  0  0  0  0
 57 60  1  0  0  0  0
 58 61  1  0  0  0  0
 59 76  1  0  0  0  0
 60 62  1  0  0  0  0
 61 63  1  0  0  0  0
 62 77  1  0  0  0  0
 63 85  1  0  0  0  0
 64 66  1  0  0  0  0
 64 75  1  0  0  0  0
 65 78  1  0  0  0  0
 67 69  1  0  0  0  0
M  CHG  2  77   1  78   1
M  ISO  4  37 100  63 101  76 100  85 101
M  END
> <Batch ID>
0097

> <Smiles>
CNCCCc1cc(CC[101CH2:1][101O:1]c2ccc3c(c2)CN(C(=O)C(NC(=O)C(C)NC)C(C)(C)C)C(C(=O)NC2CCCc4ccccc42)C3)c(C[100NH:0][100C:0](=O)N2CCCC(n3nc(-c4ccc(Oc5ccc(F)cc5F)cc4)c(C(N)=O)c3N)C2)nc1C

> <Shape>
0.220

> <Color>
0.071

> <Negative vol penalty>
0.000

$$$$

  -OEChem-04052319263D

 84 92  0     1  0  0  0  0  0999 V2000
  -24.7756  -32.7576   23.5159 C   0  0  0  0  0  0  0  0  0  0  0  0
  -24.5722  -31.3851   23.6168 C   0  0  0  0  0  0  0  0  0  0  0  0
  -23.0657   -9.8828   19.9283 C   0  0  0  0  0  0  0  0  0  0  0  0
  -23.8432   -9.8560   22.2156 C   0  0  0  0  0  0  0  0  0  0  0  0
  -25.3221  -33.2965   22.3519 C   0  0  0  0  0  0  0  0  0  0  0  0
  -24.9142  -30.5507   22.5532 C   0  0  0  0  0  0  0  0  0  0  0  0
  -27.1130  -24.8459   22.9093 C   0  0  0  0  0  0  0  0  0  0  0  0
  -22.3209   -8.7281   20.1679 C   0  0  0  0  0  0  0  0  0  0  0  0
  -23.0984   -8.7012   22.4552 C   0  0  0  0  0  0  0  0  0  0  0  0
  -26.5043  -23.5971   22.7927 C   0  0  0  0  0  0  0  0  0  0  0  0
  -19.8731   -7.9027   23.0715 C   0  0  0  0  0  0  0  0  0  0  0  0
  -19.1251   -7.8482   24.2476 C   0  0  0  0  0  0  0  0  0  0  0  0
  -27.1493  -23.5063   20.4700 C   0  0  0  0  0  0  0  0  0  0  0  0
  -20.3673   -5.8977   24.9473 C   0  0  0  0  0  0  0  0  0  0  0  0
  -27.0768  -18.8178   20.0528 C   0  0  0  0  0  0  0  0  0  0  0  0
  -28.3023  -18.7581   21.9261 C   0  0  0  0  0  0  0  0  0  0  0  0
  -23.8269  -10.4468   20.9521 C   0  0  0  0  0  0  0  0  0  0  0  0
  -24.1740  -12.9725   20.8647 C   0  0  0  0  0  0  0  0  0  0  0  0
  -25.6799  -32.4672   21.2772 C   0  0  0  0  0  0  0  0  0  0  0  0
  -27.7360  -25.4402   21.8025 C   0  0  0  0  0  0  0  0  0  0  0  0
  -25.4647  -31.0790   21.3732 C   0  0  0  0  0  0  0  0  0  0  0  0
  -27.7674  -24.7616   20.5758 C   0  0  0  0  0  0  0  0  0  0  0  0
  -28.3541  -18.4449   19.6970 C   0  0  0  0  0  0  0  0  0  0  0  0
  -29.1295  -18.4072   20.8821 C   0  0  0  0  0  0  0  0  0  0  0  0
  -22.3373   -8.1372   21.4313 C   0  0  0  0  0  0  0  0  0  0  0  0
  -26.5198  -22.9283   21.5722 C   0  0  0  0  0  0  0  0  0  0  0  0
  -20.8682   -6.9546   22.8333 C   0  0  0  0  0  0  0  0  0  0  0  0
  -19.3722   -6.8457   25.1855 C   0  0  0  0  0  0  0  0  0  0  0  0
  -21.1153   -5.9522   23.7712 C   0  0  0  0  0  0  0  0  0  0  0  0
  -24.5969  -11.6393   20.7051 C   0  0  0  0  0  0  0  0  0  0  0  0
  -25.2652  -13.7244   20.5034 C   0  0  0  0  0  0  0  0  0  0  0  0
  -22.9081  -13.4854   21.3006 C   0  0  0  0  0  0  0  0  0  0  0  0
  -27.2785  -28.1075   20.1351 C   0  0  0  0  0  0  0  0  0  0  0  0
  -30.0139  -27.1880   18.6538 C   0  0  0  0  0  0  0  0  0  0  0  0
  -32.1386  -24.6559   17.8047 C   0  0  0  0  0  0  0  0  0  0  0  0
  -30.7527  -14.7278   20.6635 C   0  0  0  0  0  0  0  0  0  0  0  0
  -26.2236  -33.1006   20.0211 C   0  0  0  0  0  0  0  0  0  0  0  0
  -28.4114  -26.7759   21.9516 C   0  0  0  0  0  0  0  0  0  0  0  0
  -28.4408  -25.3473   19.3626 C   0  0  0  0  0  0  0  0  0  0  0  0
  -26.9065  -32.1074   19.0844 C   0  0  0  0  0  0  0  0  0  0  0  0
  -29.5909  -12.3796   18.2526 C   0  0  0  0  0  0  0  0  0  0  0  0
  -26.0473  -30.8588   18.9120 C   0  0  0  0  0  0  0  0  0  0  0  0
  -28.1561  -12.0832   18.6925 C   0  0  0  0  0  0  0  0  0  0  0  0
  -30.5178  -12.5814   19.4493 C   0  0  0  0  0  0  0  0  0  0  0  0
  -28.6286  -13.2976   20.8607 C   0  0  0  0  0  0  0  0  0  0  0  0
  -25.8459  -30.1385   20.2506 C   0  0  1  0  0  0  0  0  0  0  0  0
  -28.5694  -27.5167   20.6273 C   0  0  1  0  0  0  0  0  0  0  0  0
  -27.6449  -13.1417   19.6883 C   0  0  2  0  0  0  0  0  0  0  0  0
  -28.7083  -19.3508   17.3716 C   0  0  0  0  0  0  0  0  0  0  0  0
  -28.0931  -16.9283   17.7005 C   0  0  0  0  0  0  0  0  0  0  0  0
  -34.2707  -24.2075   16.5594 C   0  0  0  0  0  0  0  0  0  0  0  0
  -28.5188  -27.4450   16.0064 C   0  0  0  0  0  0  0  0  0  0  0  0
  -30.3390  -26.1059   14.9284 C   0  0  0  0  0  0  0  0  0  0  0  0
  -30.8644  -28.3117   15.9682 C   0  0  0  0  0  0  0  0  0  0  0  0
  -33.4846  -23.6468   20.2396 C   0  0  0  0  0  0  0  0  0  0  0  0
  -25.8481  -19.4183   22.2143 C   0  0  0  0  0  0  0  0  0  0  0  0
  -30.8334  -16.8607   21.9298 C   0  0  0  0  0  0  0  0  0  0  0  0
  -25.8965  -20.8870   22.6212 C   0  0  0  0  0  0  0  0  0  1  0  0
  -28.8178  -18.1412   18.3285 C   0  0  0  0  0  0  0  0  0  0  0  0
  -30.5597  -18.0584   20.9910 C   0  0  2  0  0  0  0  0  0  0  0  0
  -30.3448  -26.3333   17.4542 C   0  0  1  0  0  0  0  0  0  0  0  0
  -33.6478  -24.5298   17.9088 C   0  0  2  0  0  0  0  0  0  0  0  0
  -30.0023  -27.0385   16.1115 C   0  0  0  0  0  0  0  0  0  0  0  0
  -25.8583  -11.5463   20.2757 N   0  0  0  0  0  0  0  0  0  0  0  0
  -27.0569  -19.0052   21.4103 N   0  0  0  0  0  0  0  0  0  0  0  0
  -26.2373  -12.8307   20.1624 N   0  0  0  0  0  0  0  0  0  0  0  0
  -29.0816  -26.6584   19.5572 N   0  0  0  0  0  0  0  0  0  0  0  0
  -29.9766  -13.5988   20.3538 N   0  0  0  0  0  0  0  0  0  0  0  0
  -25.4783  -15.0563   20.4474 N   0  0  0  0  0  0  0  0  0  0  0  0
  -21.8965  -12.5740   21.6330 N   0  0  0  0  0  0  0  0  0  0  0  0
  -27.0300  -29.3841   20.6018 N   0  0  0  0  0  0  0  0  0  0  0  0
  -31.7486  -25.9614   17.5927 N   0  0  0  0  0  0  0  0  0  0  0  0
  -30.1623  -15.6462   21.5231 N   0  0  0  0  0  0  0  0  0  0  0  0
  -31.4254  -19.2040   21.4641 N   0  3  0  0  0  0  0  0  0  0  0  0
  -34.0123  -23.4466   18.8653 N   0  3  0  0  0  0  0  0  0  0  0  0
  -22.6753  -14.7157   21.3769 O   0  0  0  0  0  0  0  0  0  0  0  0
  -26.5617  -27.4540   19.3862 O   0  0  0  0  0  0  0  0  0  0  0  0
  -30.5678  -28.2820   18.7882 O   0  0  0  0  0  0  0  0  0  0  0  0
  -31.3816  -23.6922   17.8980 O   0  0  0  0  0  0  0  0  0  0  0  0
  -31.8856  -14.9069   20.2036 O   0  0  0  0  0  0  0  0  0  0  0  0
  -21.6104   -7.0106   21.6656 O   0  0  0  0  0  0  0  0  0  0  0  0
  -25.9259  -21.7095   21.4555 O   0  0  0  0  0  0  0  0  0  1  0  0
  -18.6549   -6.7944   26.3155 F   0  0  0  0  0  0  0  0  0  0  0  0
  -22.0708   -5.0394   23.5484 F   0  0  0  0  0  0  0  0  0  0  0  0
  1  2  1  0  0  0  0
  1  5  2  0  0  0  0
  2  6  2  0  0  0  0
  3  8  2  0  0  0  0
  3 17  1  0  0  0  0
  4  9  1  0  0  0  0
  4 17  2  0  0  0  0
  5 19  1  0  0  0  0
  6 21  1  0  0  0  0
  7 10  2  0  0  0  0
  7 20  1  0  0  0  0
  8 25  1  0  0  0  0
  9 25  2  0  0  0  0
 10 26  1  0  0  0  0
 11 12  2  0  0  0  0
 11 27  1  0  0  0  0
 12 28  1  0  0  0  0
 13 22  1  0  0  0  0
 13 26  2  0  0  0  0
 14 28  2  0  0  0  0
 14 29  1  0  0  0  0
 15 23  2  0  0  0  0
 15 65  1  0  0  0  0
 16 24  2  0  0  0  0
 16 65  1  0  0  0  0
 17 30  1  0  0  0  0
 18 30  1  0  0  0  0
 18 31  2  0  0  0  0
 18 32  1  0  0  0  0
 19 21  2  0  0  0  0
 19 37  1  0  0  0  0
 20 22  2  0  0  0  0
 20 38  1  0  0  0  0
 21 46  1  0  0  0  0
 22 39  1  0  0  0  0
 23 24  1  0  0  0  0
 23 59  1  0  0  0  0
 24 60  1  0  0  0  0
 25 81  1  0  0  0  0
 26 82  1  0  0  0  0
 27 29  2  0  0  0  0
 27 81  1  0  0  0  0
 28 83  1  0  0  0  0
 29 84  1  0  0  0  0
 30 64  2  0  0  0  0
 31 66  1  0  0  0  0
 31 69  1  0  0  0  0
 32 70  1  0  0  0  0
 32 76  2  0  0  0  0
 33 47  1  0  0  0  0
 33 71  1  0  0  0  0
 33 77  2  0  0  0  0
 34 61  1  0  0  0  0
 34 67  1  0  0  0  0
 34 78  2  0  0  0  0
 35 62  1  0  0  0  0
 35 72  1  0  0  0  0
 35 79  2  0  0  0  0
 36 68  1  0  0  0  0
 36 73  1  0  0  0  0
 36 80  2  0  0  0  0
 37 40  1  0  0  0  0
 38 47  1  0  0  0  0
 39 67  1  0  0  0  0
 40 42  1  0  0  0  0
 41 43  1  0  0  0  0
 41 44  1  0  0  0  0
 42 46  1  0  0  0  0
 43 48  1  0  0  0  0
 44 68  1  0  0  0  0
 45 48  1  0  0  0  0
 45 68  1  0  0  0  0
 46 71  1  0  0  0  0
 47 67  1  0  0  0  0
 48 66  1  0  0  0  0
 49 59  1  0  0  0  0
 50 59  1  0  0  0  0
 51 62  1  0  0  0  0
 52 63  1  0  0  0  0
 53 63  1  0  0  0  0
 54 63  1  0  0  0  0
 55 75  1  0  0  0  0
 56 58  1  0  0  0  0
 56 65  1  0  0  0  0
 57 60  1  0  0  0  0
 57 73  1  0  0  0  0
 58 82  1  0  0  0  0
 60 74  1  0  0  0  0
 61 63  1  0  0  0  0
 61 72  1  0  0  0  0
 62 75  1  0  0  0  0
 64 66  1  0  0  0  0
M  CHG  2  74   1  75   1
M  ISO  4  36 100  58 101  73 100  82 101
M  END
> <Batch ID>
0097

> <Smiles>
CNC(C)C(=O)NC(C(=O)N1Cc2cc([101O:1][101CH2:1]Cn3cc(C(C)C)c(C(N)C[100NH:0][100C:0](=O)N4CCCC(n5nc(-c6ccc(Oc7ccc(F)cc7F)cc6)c(C(N)=O)c5N)C4)c3)ccc2CC1C(=O)NC1CCCc2ccccc21)C(C)(C)C

> <Shape>
0.323

> <Color>
0.188

> <Negative vol penalty>
0.000

$$$$
