
  -OEChem-04052319293D

 84 92  0     1  0  0  0  0  0999 V2000
  -22.8297  -36.0447   22.9404 C   0  0  0  0  0  0  0  0  0  0  0  0
  -23.8662  -35.2051   22.5454 C   0  0  0  0  0  0  0  0  0  0  0  0
  -24.7409  -13.9415   21.2082 C   0  0  0  0  0  0  0  0  0  0  0  0
  -25.5294  -13.9455   18.9246 C   0  0  0  0  0  0  0  0  0  0  0  0
  -21.7431  -35.5257   23.6433 C   0  0  0  0  0  0  0  0  0  0  0  0
  -23.8174  -33.8461   22.8541 C   0  0  0  0  0  0  0  0  0  0  0  0
  -25.9252  -29.2177   19.4423 C   0  0  0  0  0  0  0  0  0  0  0  0
  -23.9911  -12.7947   20.9474 C   0  0  0  0  0  0  0  0  0  0  0  0
  -24.7796  -12.7986   18.6637 C   0  0  0  0  0  0  0  0  0  0  0  0
  -27.1078  -28.4808   19.4889 C   0  0  0  0  0  0  0  0  0  0  0  0
  -24.5416   -9.4711   20.6577 C   0  0  0  0  0  0  0  0  0  0  0  0
  -24.5888   -8.4388   21.5946 C   0  0  0  0  0  0  0  0  0  0  0  0
  -25.9893  -26.7788   20.7817 C   0  0  0  0  0  0  0  0  0  0  0  0
  -22.2017   -8.6233   21.9182 C   0  0  0  0  0  0  0  0  0  0  0  0
  -28.1356  -23.9281   16.1911 C   0  0  0  0  0  0  0  0  0  0  0  0
  -25.5100  -14.5170   20.1968 C   0  0  0  0  0  0  0  0  0  0  0  0
  -27.6138  -15.7630   20.9244 C   0  0  0  0  0  0  0  0  0  0  0  0
  -21.6763  -34.1580   23.9524 C   0  0  0  0  0  0  0  0  0  0  0  0
  -24.7667  -28.7450   20.0754 C   0  0  0  0  0  0  0  0  0  0  0  0
  -22.7296  -33.3086   23.5630 C   0  0  0  0  0  0  0  0  0  0  0  0
  -24.7926  -27.5103   20.7395 C   0  0  0  0  0  0  0  0  0  0  0  0
  -27.8074  -22.6082   15.9737 C   0  0  0  0  0  0  0  0  0  0  0  0
  -29.0175  -21.8979   15.7787 C   0  0  0  0  0  0  0  0  0  0  0  0
  -24.0105  -12.2231   19.6751 C   0  0  0  0  0  0  0  0  0  0  0  0
  -27.1408  -27.2626   20.1611 C   0  0  0  0  0  0  0  0  0  0  0  0
  -23.3245  -10.0796   20.3512 C   0  0  0  0  0  0  0  0  0  0  0  0
  -23.4189   -8.0149   22.2248 C   0  0  0  0  0  0  0  0  0  0  0  0
  -22.1545   -9.6557   20.9814 C   0  0  0  0  0  0  0  0  0  0  0  0
  -26.2843  -15.7021   20.4655 C   0  0  0  0  0  0  0  0  0  0  0  0
  -30.0485  -22.8054   15.8831 C   0  0  0  0  0  0  0  0  0  0  0  0
  -27.8832  -17.1064   21.0189 C   0  0  0  0  0  0  0  0  0  0  0  0
  -28.5238  -14.7001   21.2373 C   0  0  0  0  0  0  0  0  0  0  0  0
  -22.9115  -29.7953   22.4332 C   0  0  0  0  0  0  0  0  0  0  0  0
  -21.0729  -27.2583   21.5933 C   0  0  0  0  0  0  0  0  0  0  0  0
  -20.8762  -24.1798   20.1336 C   0  0  0  0  0  0  0  0  0  0  0  0
  -25.6088  -21.9233   18.2846 C   0  0  0  0  0  0  0  0  0  0  0  0
  -20.5043  -33.6516   24.7552 C   0  0  0  0  0  0  0  0  0  0  0  0
  -23.4919  -29.5391   19.9932 C   0  0  0  0  0  0  0  0  0  0  0  0
  -23.5707  -26.9491   21.4181 C   0  0  0  0  0  0  0  0  0  0  0  0
  -20.3496  -32.1335   24.7161 C   0  0  0  0  0  0  0  0  0  0  0  0
  -25.7345  -21.3112   21.7898 C   0  0  0  0  0  0  0  0  0  0  0  0
  -21.6944  -31.4536   24.9533 C   0  0  0  0  0  0  0  0  0  0  0  0
  -26.0096  -19.8097   21.8893 C   0  0  0  0  0  0  0  0  0  0  0  0
  -24.8165  -21.6401   20.6146 C   0  0  0  0  0  0  0  0  0  0  0  0
  -25.5427  -19.6159   19.4107 C   0  0  0  0  0  0  0  0  0  0  0  0
  -22.7010  -31.8245   23.8576 C   0  0  1  0  0  0  0  0  0  0  0  0
  -22.5080  -29.2070   21.1108 C   0  0  1  0  0  0  0  0  0  0  0  0
  -26.5090  -19.2410   20.5474 C   0  0  2  0  0  0  0  0  0  0  0  0
  -29.1519  -20.4508   15.5124 C   0  0  0  0  0  0  0  0  0  0  0  0
  -31.5088  -22.6078   15.7661 C   0  0  0  0  0  0  0  0  0  0  0  0
  -19.2473  -22.3380   19.6320 C   0  0  0  0  0  0  0  0  0  0  0  0
  -30.8338  -25.0949   20.1676 C   0  0  0  0  0  0  0  0  0  0  0  0
  -21.1700  -26.3804   24.5139 C   0  0  0  0  0  0  0  0  0  0  0  0
  -20.3739  -24.1203   23.7884 C   0  0  0  0  0  0  0  0  0  0  0  0
  -18.9350  -26.1247   23.4214 C   0  0  0  0  0  0  0  0  0  0  0  0
  -21.2918  -24.4493   17.2158 C   0  0  0  0  0  0  0  0  0  0  0  0
  -26.4413  -22.0482   15.9500 C   0  0  0  0  0  0  0  0  0  0  0  0
  -30.9522  -25.4473   17.6880 C   0  0  0  0  0  0  0  0  0  0  0  0
  -30.2649  -25.3230   16.3211 C   0  0  0  0  0  0  0  0  0  0  0  0
  -29.1883  -26.6733   19.1045 C   0  0  0  0  0  0  0  0  0  1  0  0
  -21.0029  -25.8068   22.0021 C   0  0  1  0  0  0  0  0  0  0  0  0
  -19.9060  -23.6077   19.1158 C   0  0  2  0  0  0  0  0  0  0  0  0
  -30.0080  -25.3907   18.9091 C   0  0  2  0  0  0  0  0  0  0  0  0
  -20.3942  -25.6193   23.4204 C   0  0  0  0  0  0  0  0  0  0  0  0
  -25.7465  -16.9107   20.2814 N   0  0  0  0  0  0  0  0  0  0  0  0
  -29.5006  -24.0362   16.1341 N   0  0  0  0  0  0  0  0  0  0  0  0
  -26.7430  -17.7438   20.6264 N   0  0  0  0  0  0  0  0  0  0  0  0
  -22.3501  -27.7657   21.3151 N   0  0  0  0  0  0  0  0  0  0  0  0
  -25.3476  -21.0737   19.3723 N   0  0  0  0  0  0  0  0  0  0  0  0
  -28.9818  -17.7930   21.3987 N   0  0  0  0  0  0  0  0  0  0  0  0
  -28.0849  -13.3779   21.0842 N   0  0  0  0  0  0  0  0  0  0  0  0
  -22.4331  -31.0735   22.6499 N   0  0  0  0  0  0  0  0  0  0  0  0
  -20.2727  -25.1191   20.9427 N   0  0  0  0  0  0  0  0  0  0  0  0
  -26.1167  -21.3063   17.1479 N   0  0  0  0  0  0  0  0  0  0  0  0
  -20.6171  -23.2856   17.8464 N   0  3  0  0  0  0  0  0  0  0  0  0
  -29.6862  -14.9165   21.6563 O   0  0  0  0  0  0  0  0  0  0  0  0
  -23.6044  -29.1378   23.2008 O   0  0  0  0  0  0  0  0  0  0  0  0
  -20.0321  -27.9158   21.5165 O   0  0  0  0  0  0  0  0  0  0  0  0
  -22.0509  -23.8259   20.2062 O   0  0  0  0  0  0  0  0  0  0  0  0
  -25.4095  -23.1421   18.3255 O   0  0  0  0  0  0  0  0  0  0  0  0
  -23.2791  -11.1039   19.4203 O   0  0  0  0  0  0  0  0  0  0  0  0
  -28.2940  -26.5416   20.2087 O   0  0  0  0  0  0  0  0  0  1  0  0
  -23.4642   -7.0225   23.1232 F   0  0  0  0  0  0  0  0  0  0  0  0
  -20.9821  -10.2357   20.6901 F   0  0  0  0  0  0  0  0  0  0  0  0
  1  2  1  0  0  0  0
  1  5  2  0  0  0  0
  2  6  2  0  0  0  0
  3  8  2  0  0  0  0
  3 16  1  0  0  0  0
  4  9  1  0  0  0  0
  4 16  2  0  0  0  0
  5 18  1  0  0  0  0
  6 20  1  0  0  0  0
  7 10  2  0  0  0  0
  7 19  1  0  0  0  0
  8 24  1  0  0  0  0
  9 24  2  0  0  0  0
 10 25  1  0  0  0  0
 11 12  2  0  0  0  0
 11 26  1  0  0  0  0
 12 27  1  0  0  0  0
 13 21  1  0  0  0  0
 13 25  2  0  0  0  0
 14 27  2  0  0  0  0
 14 28  1  0  0  0  0
 15 22  2  0  0  0  0
 15 66  1  0  0  0  0
 16 29  1  0  0  0  0
 17 29  1  0  0  0  0
 17 31  2  0  0  0  0
 17 32  1  0  0  0  0
 18 20  2  0  0  0  0
 18 37  1  0  0  0  0
 19 21  2  0  0  0  0
 19 38  1  0  0  0  0
 20 46  1  0  0  0  0
 21 39  1  0  0  0  0
 22 23  1  0  0  0  0
 22 57  1  0  0  0  0
 23 30  2  0  0  0  0
 23 49  1  0  0  0  0
 24 81  1  0  0  0  0
 25 82  1  0  0  0  0
 26 28  2  0  0  0  0
 26 81  1  0  0  0  0
 27 83  1  0  0  0  0
 28 84  1  0  0  0  0
 29 65  2  0  0  0  0
 30 50  1  0  0  0  0
 30 66  1  0  0  0  0
 31 67  1  0  0  0  0
 31 70  1  0  0  0  0
 32 71  1  0  0  0  0
 32 76  2  0  0  0  0
 33 47  1  0  0  0  0
 33 72  1  0  0  0  0
 33 77  2  0  0  0  0
 34 61  1  0  0  0  0
 34 68  1  0  0  0  0
 34 78  2  0  0  0  0
 35 62  1  0  0  0  0
 35 73  1  0  0  0  0
 35 79  2  0  0  0  0
 36 69  1  0  0  0  0
 36 74  1  0  0  0  0
 36 80  2  0  0  0  0
 37 40  1  0  0  0  0
 38 47  1  0  0  0  0
 39 68  1  0  0  0  0
 40 42  1  0  0  0  0
 41 43  1  0  0  0  0
 41 44  1  0  0  0  0
 42 46  1  0  0  0  0
 43 48  1  0  0  0  0
 44 69  1  0  0  0  0
 45 48  1  0  0  0  0
 45 69  1  0  0  0  0
 46 72  1  0  0  0  0
 47 68  1  0  0  0  0
 48 67  1  0  0  0  0
 51 62  1  0  0  0  0
 52 63  1  0  0  0  0
 53 64  1  0  0  0  0
 54 64  1  0  0  0  0
 55 64  1  0  0  0  0
 56 75  1  0  0  0  0
 57 74  1  0  0  0  0
 58 59  1  0  0  0  0
 58 63  1  0  0  0  0
 59 66  1  0  0  0  0
 60 63  1  0  0  0  0
 60 82  1  0  0  0  0
 61 64  1  0  0  0  0
 61 73  1  0  0  0  0
 62 75  1  0  0  0  0
 65 67  1  0  0  0  0
M  CHG  1  75   1
M  ISO  4  36 100  60 101  74 100  82 101
M  END
> <Batch ID>
0098

> <Smiles>
CNC(C)C(=O)NC(C(=O)N1Cc2cc([101O:1][101CH2:1]C(C)CCn3cc(C[100NH:0][100C:0](=O)N4CCCC(n5nc(-c6ccc(Oc7ccc(F)cc7F)cc6)c(C(N)=O)c5N)C4)c(C)c3C)ccc2CC1C(=O)NC1CCCc2ccccc21)C(C)(C)C

> <Shape>
0.229

> <Color>
0.079

> <Negative vol penalty>
0.000

$$$$

  -OEChem-04052319293D

 85 93  0     1  0  0  0  0  0999 V2000
  -26.0649  -11.7130   17.0994 C   0  0  0  0  0  0  0  0  0  0  0  0
  -25.3332  -12.8684   16.8444 C   0  0  0  0  0  0  0  0  0  0  0  0
  -27.4932  -24.9304   17.7122 C   0  0  0  0  0  0  0  0  0  0  0  0
  -27.1432  -24.0101   19.9185 C   0  0  0  0  0  0  0  0  0  0  0  0
  -26.2866  -11.3056   18.4142 C   0  0  0  0  0  0  0  0  0  0  0  0
  -24.8218  -13.6166   17.9042 C   0  0  0  0  0  0  0  0  0  0  0  0
  -23.3416  -20.3740   19.7650 C   0  0  0  0  0  0  0  0  0  0  0  0
  -28.5368  -24.0293   17.5019 C   0  0  0  0  0  0  0  0  0  0  0  0
  -28.1869  -23.1089   19.7081 C   0  0  0  0  0  0  0  0  0  0  0  0
  -22.2959  -21.1492   20.2645 C   0  0  0  0  0  0  0  0  0  0  0  0
  -28.6624  -20.1877   18.0770 C   0  0  0  0  0  0  0  0  0  0  0  0
  -28.4534  -18.8588   18.4458 C   0  0  0  0  0  0  0  0  0  0  0  0
  -22.8093  -20.3923   22.4967 C   0  0  0  0  0  0  0  0  0  0  0  0
  -20.4102  -27.1104   23.4776 C   0  0  0  0  0  0  0  0  0  0  0  0
  -30.3119  -18.9934   19.9837 C   0  0  0  0  0  0  0  0  0  0  0  0
  -18.9518  -26.2408   21.8123 C   0  0  0  0  0  0  0  0  0  0  0  0
  -26.7963  -24.9209   18.9206 C   0  0  0  0  0  0  0  0  0  0  0  0
  -24.3558  -25.6593   18.8424 C   0  0  0  0  0  0  0  0  0  0  0  0
  -25.7859  -12.0544   19.4909 C   0  0  0  0  0  0  0  0  0  0  0  0
  -24.1233  -19.5924   20.6277 C   0  0  0  0  0  0  0  0  0  0  0  0
  -25.0359  -13.2181   19.2347 C   0  0  0  0  0  0  0  0  0  0  0  0
  -23.8658  -19.6101   22.0059 C   0  0  0  0  0  0  0  0  0  0  0  0
  -20.0624  -26.0702   22.6230 C   0  0  0  0  0  0  0  0  0  0  0  0
  -19.6476  -28.2729   23.4952 C   0  0  0  0  0  0  0  0  0  0  0  0
  -28.8837  -23.1185   18.4998 C   0  0  0  0  0  0  0  0  0  0  0  0
  -22.0278  -21.1562   21.6302 C   0  0  0  0  0  0  0  0  0  0  0  0
  -29.6962  -20.9194   18.6615 C   0  0  0  0  0  0  0  0  0  0  0  0
  -29.2782  -18.2617   19.3992 C   0  0  0  0  0  0  0  0  0  0  0  0
  -30.5209  -20.3223   19.6148 C   0  0  0  0  0  0  0  0  0  0  0  0
  -25.7185  -25.8519   19.1387 C   0  0  0  0  0  0  0  0  0  0  0  0
  -18.5557  -28.3449   22.6453 C   0  0  0  0  0  0  0  0  0  0  0  0
  -23.7506  -26.8282   19.2349 C   0  0  0  0  0  0  0  0  0  0  0  0
  -23.6960  -24.5253   18.2642 C   0  0  0  0  0  0  0  0  0  0  0  0
  -24.6969  -16.4811   20.9350 C   0  0  0  0  0  0  0  0  0  0  0  0
  -26.8354  -17.4913   23.1550 C   0  0  0  0  0  0  0  0  0  0  0  0
  -27.8013  -19.9147   25.3552 C   0  0  0  0  0  0  0  0  0  0  0  0
  -23.0664  -30.9507   22.9337 C   0  0  0  0  0  0  0  0  0  0  0  0
  -26.0110  -11.5486   20.8938 C   0  0  0  0  0  0  0  0  0  0  0  0
  -25.2645  -18.7825   20.0763 C   0  0  0  0  0  0  0  0  0  0  0  0
  -24.6885  -18.8044   22.9768 C   0  0  0  0  0  0  0  0  0  0  0  0
  -25.7541  -12.6011   21.9693 C   0  0  0  0  0  0  0  0  0  0  0  0
  -25.7459  -31.2680   20.6108 C   0  0  0  0  0  0  0  0  0  0  0  0
  -24.4412  -13.3297   21.7004 C   0  0  0  0  0  0  0  0  0  0  0  0
  -25.8691  -29.8704   20.0013 C   0  0  0  0  0  0  0  0  0  0  0  0
  -25.3823  -31.2074   22.0927 C   0  0  0  0  0  0  0  0  0  0  0  0
  -24.3053  -29.0109   21.7943 C   0  0  0  0  0  0  0  0  0  0  0  0
  -24.4860  -14.0699   20.3581 C   0  0  1  0  0  0  0  0  0  0  0  0
  -25.6695  -17.6253   20.9843 C   0  0  1  0  0  0  0  0  0  0  0  0
  -24.6159  -29.0214   20.2877 C   0  0  2  0  0  0  0  0  0  0  0  0
  -16.2499  -29.2807   23.0470 C   0  0  0  0  0  0  0  0  0  0  0  0
  -17.7151  -30.2676   21.2485 C   0  0  0  0  0  0  0  0  0  0  0  0
  -29.2525  -21.0997   27.0246 C   0  0  0  0  0  0  0  0  0  0  0  0
  -25.5025  -15.5813   25.1261 C   0  0  0  0  0  0  0  0  0  0  0  0
  -26.6430  -16.8130   26.9835 C   0  0  0  0  0  0  0  0  0  0  0  0
  -27.9996  -15.6356   25.2526 C   0  0  0  0  0  0  0  0  0  0  0  0
  -29.2897  -21.3344   23.2273 C   0  0  0  0  0  0  0  0  0  0  0  0
  -20.8689  -24.7970   22.5790 C   0  0  0  0  0  0  0  0  0  0  0  0
  -20.0137  -29.3904   24.4098 C   0  0  0  0  0  0  0  0  0  0  0  0
  -20.3847  -23.7270   23.5599 C   0  0  0  0  0  0  0  0  0  0  0  0
  -20.7449  -30.5438   23.7110 C   0  0  0  0  0  0  0  0  0  0  0  0
  -21.1511  -22.4141   23.4481 C   0  0  0  0  0  0  0  0  0  1  0  0
  -17.7008  -29.5697   22.6207 C   0  0  0  0  0  0  0  0  0  0  0  0
  -26.7868  -17.7673   24.6384 C   0  0  1  0  0  0  0  0  0  0  0  0
  -29.1467  -20.5730   25.6019 C   0  0  2  0  0  0  0  0  0  0  0  0
  -26.7161  -16.4631   25.4819 C   0  0  0  0  0  0  0  0  0  0  0  0
  -18.1868  -27.3553   21.8014 N   0  0  0  0  0  0  0  0  0  0  0  0
  -25.9649  -27.0489   19.6776 N   0  0  0  0  0  0  0  0  0  0  0  0
  -24.7488  -27.6191   19.7230 N   0  0  0  0  0  0  0  0  0  0  0  0
  -25.7893  -18.0237   22.3883 N   0  0  0  0  0  0  0  0  0  0  0  0
  -24.1846  -30.3888   22.2958 N   0  0  0  0  0  0  0  0  0  0  0  0
  -22.4673  -27.2463   19.2065 N   0  0  0  0  0  0  0  0  0  0  0  0
  -24.4678  -23.4073   17.9195 N   0  0  0  0  0  0  0  0  0  0  0  0
  -25.2447  -15.2961   20.4822 N   0  0  0  0  0  0  0  0  0  0  0  0
  -27.9410  -18.6089   24.9351 N   0  0  0  0  0  0  0  0  0  0  0  0
  -21.9711  -30.1084   23.0805 N   0  0  0  0  0  0  0  0  0  0  0  0
  -29.3456  -21.7130   24.6628 N   0  3  0  0  0  0  0  0  0  0  0  0
  -22.4612  -24.5103   18.0442 O   0  0  0  0  0  0  0  0  0  0  0  0
  -23.5357  -16.6597   21.2835 O   0  0  0  0  0  0  0  0  0  0  0  0
  -27.7711  -16.8337   22.6926 O   0  0  0  0  0  0  0  0  0  0  0  0
  -26.7331  -20.4992   25.5223 O   0  0  0  0  0  0  0  0  0  0  0  0
  -23.0438  -32.1184   23.3375 O   0  0  0  0  0  0  0  0  0  0  0  0
  -29.9019  -22.2388   18.2948 O   0  0  0  0  0  0  0  0  0  0  0  0
  -21.0074  -21.9114   22.1204 O   0  0  0  0  0  0  0  0  0  1  0  0
  -29.0764  -16.9860   19.7545 F   0  0  0  0  0  0  0  0  0  0  0  0
  -31.5149  -21.0206   20.1807 F   0  0  0  0  0  0  0  0  0  0  0  0
  1  2  1  0  0  0  0
  1  5  2  0  0  0  0
  2  6  2  0  0  0  0
  3  8  2  0  0  0  0
  3 17  1  0  0  0  0
  4  9  1  0  0  0  0
  4 17  2  0  0  0  0
  5 19  1  0  0  0  0
  6 21  1  0  0  0  0
  7 10  2  0  0  0  0
  7 20  1  0  0  0  0
  8 25  1  0  0  0  0
  9 25  2  0  0  0  0
 10 26  1  0  0  0  0
 11 12  2  0  0  0  0
 11 27  1  0  0  0  0
 12 28  1  0  0  0  0
 13 22  1  0  0  0  0
 13 26  2  0  0  0  0
 14 23  2  0  0  0  0
 14 24  1  0  0  0  0
 15 28  2  0  0  0  0
 15 29  1  0  0  0  0
 16 23  1  0  0  0  0
 16 66  2  0  0  0  0
 17 30  1  0  0  0  0
 18 30  1  0  0  0  0
 18 32  2  0  0  0  0
 18 33  1  0  0  0  0
 19 21  2  0  0  0  0
 19 38  1  0  0  0  0
 20 22  2  0  0  0  0
 20 39  1  0  0  0  0
 21 47  1  0  0  0  0
 22 40  1  0  0  0  0
 23 57  1  0  0  0  0
 24 31  2  0  0  0  0
 24 58  1  0  0  0  0
 25 82  1  0  0  0  0
 26 83  1  0  0  0  0
 27 29  2  0  0  0  0
 27 82  1  0  0  0  0
 28 84  1  0  0  0  0
 29 85  1  0  0  0  0
 30 67  2  0  0  0  0
 31 62  1  0  0  0  0
 31 66  1  0  0  0  0
 32 68  1  0  0  0  0
 32 71  1  0  0  0  0
 33 72  1  0  0  0  0
 33 77  2  0  0  0  0
 34 48  1  0  0  0  0
 34 73  1  0  0  0  0
 34 78  2  0  0  0  0
 35 63  1  0  0  0  0
 35 69  1  0  0  0  0
 35 79  2  0  0  0  0
 36 64  1  0  0  0  0
 36 74  1  0  0  0  0
 36 80  2  0  0  0  0
 37 70  1  0  0  0  0
 37 75  1  0  0  0  0
 37 81  2  0  0  0  0
 38 41  1  0  0  0  0
 39 48  1  0  0  0  0
 40 69  1  0  0  0  0
 41 43  1  0  0  0  0
 42 44  1  0  0  0  0
 42 45  1  0  0  0  0
 43 47  1  0  0  0  0
 44 49  1  0  0  0  0
 45 70  1  0  0  0  0
 46 49  1  0  0  0  0
 46 70  1  0  0  0  0
 47 73  1  0  0  0  0
 48 69  1  0  0  0  0
 49 68  1  0  0  0  0
 50 62  1  0  0  0  0
 51 62  1  0  0  0  0
 52 64  1  0  0  0  0
 53 65  1  0  0  0  0
 54 65  1  0  0  0  0
 55 65  1  0  0  0  0
 56 76  1  0  0  0  0
 57 59  1  0  0  0  0
 58 60  1  0  0  0  0
 59 61  1  0  0  0  0
 60 75  1  0  0  0  0
 61 83  1  0  0  0  0
 63 65  1  0  0  0  0
 63 74  1  0  0  0  0
 64 76  1  0  0  0  0
 67 68  1  0  0  0  0
M  CHG  1  76   1
M  ISO  4  37 100  61 101  75 100  83 101
M  END
> <Batch ID>
0098

> <Smiles>
CNC(C)C(=O)NC(C(=O)N1Cc2cc([101O:1][101CH2:1]CCc3cnc(C(C)C)c(CC[100NH:0][100C:0](=O)N4CCCC(n5nc(-c6ccc(Oc7ccc(F)cc7F)cc6)c(C(N)=O)c5N)C4)c3)ccc2CC1C(=O)NC1CCCc2ccccc21)C(C)(C)C

> <Shape>
0.207

> <Color>
0.093

> <Negative vol penalty>
0.000

$$$$

  -OEChem-04052319293D

 84 92  0     1  0  0  0  0  0999 V2000
  -25.8367  -35.2719   23.9099 C   0  0  0  0  0  0  0  0  0  0  0  0
  -26.4145  -34.0551   23.5623 C   0  0  0  0  0  0  0  0  0  0  0  0
  -21.8423  -13.9155   22.7342 C   0  0  0  0  0  0  0  0  0  0  0  0
  -21.6662  -14.7080   20.4587 C   0  0  0  0  0  0  0  0  0  0  0  0
  -24.5300  -35.3086   24.3947 C   0  0  0  0  0  0  0  0  0  0  0  0
  -25.6861  -32.8740   23.7003 C   0  0  0  0  0  0  0  0  0  0  0  0
  -26.1321  -29.8348   19.6742 C   0  0  0  0  0  0  0  0  0  0  0  0
  -20.5643  -14.4052   23.0036 C   0  0  0  0  0  0  0  0  0  0  0  0
  -20.3882  -15.1977   20.7280 C   0  0  0  0  0  0  0  0  0  0  0  0
  -27.3056  -29.0899   19.5656 C   0  0  0  0  0  0  0  0  0  0  0  0
  -19.0214  -17.8915   22.2466 C   0  0  0  0  0  0  0  0  0  0  0  0
  -18.7087  -19.1721   21.7908 C   0  0  0  0  0  0  0  0  0  0  0  0
  -26.1521  -27.1572   20.4334 C   0  0  0  0  0  0  0  0  0  0  0  0
  -16.9109  -18.2593   20.4598 C   0  0  0  0  0  0  0  0  0  0  0  0
  -22.3933  -14.0670   21.4617 C   0  0  0  0  0  0  0  0  0  0  0  0
  -24.0508  -12.2795   20.7101 C   0  0  0  0  0  0  0  0  0  0  0  0
  -23.7819  -34.1284   24.5297 C   0  0  0  0  0  0  0  0  0  0  0  0
  -24.9606  -29.2484   20.1743 C   0  0  0  0  0  0  0  0  0  0  0  0
  -24.3686  -32.8948   24.1887 C   0  0  0  0  0  0  0  0  0  0  0  0
  -24.9643  -27.8961   20.5450 C   0  0  0  0  0  0  0  0  0  0  0  0
  -19.8373  -15.0463   22.0006 C   0  0  0  0  0  0  0  0  0  0  0  0
  -27.3165  -27.7517   19.9479 C   0  0  0  0  0  0  0  0  0  0  0  0
  -18.2789  -16.7947   21.8090 C   0  0  0  0  0  0  0  0  0  0  0  0
  -17.6534  -19.3561   20.8974 C   0  0  0  0  0  0  0  0  0  0  0  0
  -17.2236  -16.9787   20.9156 C   0  0  0  0  0  0  0  0  0  0  0  0
  -23.7136  -13.5618   21.1829 C   0  0  0  0  0  0  0  0  0  0  0  0
  -25.4205  -12.2996   20.6102 C   0  0  0  0  0  0  0  0  0  0  0  0
  -23.2019  -11.1694   20.3896 C   0  0  0  0  0  0  0  0  0  0  0  0
  -23.0886  -29.7694   22.6899 C   0  0  0  0  0  0  0  0  0  0  0  0
  -21.2318  -27.5107   21.2854 C   0  0  0  0  0  0  0  0  0  0  0  0
  -21.0181  -24.8403   19.1710 C   0  0  0  0  0  0  0  0  0  0  0  0
  -29.3910  -16.7213   19.8786 C   0  0  0  0  0  0  0  0  0  0  0  0
  -22.3894  -34.2131   25.1028 C   0  0  0  0  0  0  0  0  0  0  0  0
  -23.6960  -30.0582   20.2602 C   0  0  0  0  0  0  0  0  0  0  0  0
  -23.7279  -27.2140   21.0689 C   0  0  0  0  0  0  0  0  0  0  0  0
  -21.5557  -32.9565   24.8657 C   0  0  0  0  0  0  0  0  0  0  0  0
  -29.2857  -14.3570   22.5386 C   0  0  0  0  0  0  0  0  0  0  0  0
  -22.3653  -31.7077   25.2002 C   0  0  0  0  0  0  0  0  0  0  0  0
  -28.4970  -23.3879   17.3369 C   0  0  0  0  0  0  0  0  0  0  0  0
  -30.8367  -23.0635   18.2299 C   0  0  0  0  0  0  0  0  0  0  0  0
  -28.4303  -21.9056   16.9733 C   0  0  0  0  0  0  0  0  0  0  0  0
  -30.7698  -21.5812   17.8666 C   0  0  0  0  0  0  0  0  0  0  0  0
  -27.8761  -13.7694   22.4502 C   0  0  0  0  0  0  0  0  0  0  0  0
  -29.2997  -15.8445   22.1937 C   0  0  0  0  0  0  0  0  0  0  0  0
  -27.2767  -15.5976   20.8079 C   0  0  0  0  0  0  0  0  0  0  0  0
  -23.6022  -31.5948   24.3008 C   0  0  1  0  0  0  0  0  0  0  0  0
  -22.6947  -29.4979   21.2656 C   0  0  1  0  0  0  0  0  0  0  0  0
  -29.4447  -23.6404   18.5164 C   0  0  0  0  0  0  0  0  0  0  0  0
  -29.8225  -21.3290   16.6868 C   0  0  0  0  0  0  0  0  0  0  0  0
  -27.2204  -14.0870   21.0928 C   0  0  2  0  0  0  0  0  0  0  0  0
  -19.3746  -23.1804   18.2540 C   0  0  0  0  0  0  0  0  0  0  0  0
  -31.1397  -19.2924   16.0521 C   0  0  0  0  0  0  0  0  0  0  0  0
  -28.8437  -19.6381   15.1292 C   0  0  0  0  0  0  0  0  0  0  0  0
  -21.2831  -25.9995   23.9357 C   0  0  0  0  0  0  0  0  0  0  0  0
  -20.4703  -23.9706   22.7146 C   0  0  0  0  0  0  0  0  0  0  0  0
  -19.0588  -26.0259   22.7927 C   0  0  0  0  0  0  0  0  0  0  0  0
  -21.4726  -25.7508   16.3919 C   0  0  0  0  0  0  0  0  0  0  0  0
  -29.5335  -25.1333   18.8270 C   0  0  0  0  0  0  0  0  0  0  0  0
  -29.0935  -19.0456   17.5500 C   0  0  0  0  0  0  0  0  0  0  0  0
  -29.3335  -17.5368   17.5354 C   0  0  0  0  0  0  0  0  0  0  0  0
  -28.3195  -25.6234   19.6014 C   0  0  0  0  0  0  0  0  0  1  0  0
  -21.1403  -26.0055   21.3577 C   0  0  1  0  0  0  0  0  0  0  0  0
  -20.0540  -24.5243   18.0418 C   0  0  2  0  0  0  0  0  0  0  0  0
  -29.7346  -19.8363   16.3750 C   0  0  0  0  0  0  0  0  0  0  0  0
  -20.5121  -25.5135   22.6922 C   0  0  0  0  0  0  0  0  0  0  0  0
  -24.7829  -14.3399   21.3707 N   0  0  0  0  0  0  0  0  0  0  0  0
  -25.8055  -13.5441   21.0140 N   0  0  0  0  0  0  0  0  0  0  0  0
  -22.5179  -28.0497   21.1401 N   0  0  0  0  0  0  0  0  0  0  0  0
  -28.6648  -16.0777   20.8942 N   0  0  0  0  0  0  0  0  0  0  0  0
  -26.3212  -11.3739   20.2174 N   0  0  0  0  0  0  0  0  0  0  0  0
  -21.8175  -11.3189   20.5496 N   0  0  0  0  0  0  0  0  0  0  0  0
  -23.2303  -31.1111   22.9885 N   0  0  0  0  0  0  0  0  0  0  0  0
  -20.4154  -25.5828   20.1644 N   0  0  0  0  0  0  0  0  0  0  0  0
  -28.7171  -16.8971   18.6762 N   0  0  0  0  0  0  0  0  0  0  0  0
  -20.7770  -24.4849   16.7392 N   0  3  0  0  0  0  0  0  0  0  0  0
  -23.6586  -10.0718   19.9894 O   0  0  0  0  0  0  0  0  0  0  0  0
  -23.2506  -28.8311   23.4613 O   0  0  0  0  0  0  0  0  0  0  0  0
  -20.1995  -28.1830   21.3481 O   0  0  0  0  0  0  0  0  0  0  0  0
  -22.1877  -24.4629   19.1735 O   0  0  0  0  0  0  0  0  0  0  0  0
  -30.5555  -17.1057   20.0303 O   0  0  0  0  0  0  0  0  0  0  0  0
  -18.5901  -15.5240   22.2630 O   0  0  0  0  0  0  0  0  0  0  0  0
  -28.4608  -27.0226   19.8436 O   0  0  0  0  0  0  0  0  0  1  0  0
  -17.3523  -20.5861   20.4610 F   0  0  0  0  0  0  0  0  0  0  0  0
  -16.5059  -15.9290   20.4925 F   0  0  0  0  0  0  0  0  0  0  0  0
  1  2  1  0  0  0  0
  1  5  2  0  0  0  0
  2  6  2  0  0  0  0
  3  8  2  0  0  0  0
  3 15  1  0  0  0  0
  4  9  1  0  0  0  0
  4 15  2  0  0  0  0
  5 17  1  0  0  0  0
  6 19  1  0  0  0  0
  7 10  2  0  0  0  0
  7 18  1  0  0  0  0
  8 21  1  0  0  0  0
  9 21  2  0  0  0  0
 10 22  1  0  0  0  0
 11 12  2  0  0  0  0
 11 23  1  0  0  0  0
 12 24  1  0  0  0  0
 13 20  1  0  0  0  0
 13 22  2  0  0  0  0
 14 24  2  0  0  0  0
 14 25  1  0  0  0  0
 15 26  1  0  0  0  0
 16 26  1  0  0  0  0
 16 27  2  0  0  0  0
 16 28  1  0  0  0  0
 17 19  2  0  0  0  0
 17 33  1  0  0  0  0
 18 20  2  0  0  0  0
 18 34  1  0  0  0  0
 19 46  1  0  0  0  0
 20 35  1  0  0  0  0
 21 81  1  0  0  0  0
 22 82  1  0  0  0  0
 23 25  2  0  0  0  0
 23 81  1  0  0  0  0
 24 83  1  0  0  0  0
 25 84  1  0  0  0  0
 26 66  2  0  0  0  0
 27 67  1  0  0  0  0
 27 70  1  0  0  0  0
 28 71  1  0  0  0  0
 28 76  2  0  0  0  0
 29 47  1  0  0  0  0
 29 72  1  0  0  0  0
 29 77  2  0  0  0  0
 30 62  1  0  0  0  0
 30 68  1  0  0  0  0
 30 78  2  0  0  0  0
 31 63  1  0  0  0  0
 31 73  1  0  0  0  0
 31 79  2  0  0  0  0
 32 69  1  0  0  0  0
 32 74  1  0  0  0  0
 32 80  2  0  0  0  0
 33 36  1  0  0  0  0
 34 47  1  0  0  0  0
 35 68  1  0  0  0  0
 36 38  1  0  0  0  0
 37 43  1  0  0  0  0
 37 44  1  0  0  0  0
 38 46  1  0  0  0  0
 39 41  1  0  0  0  0
 39 48  1  0  0  0  0
 40 42  1  0  0  0  0
 40 48  1  0  0  0  0
 41 49  1  0  0  0  0
 42 49  1  0  0  0  0
 43 50  1  0  0  0  0
 44 69  1  0  0  0  0
 45 50  1  0  0  0  0
 45 69  1  0  0  0  0
 46 72  1  0  0  0  0
 47 68  1  0  0  0  0
 48 58  1  0  0  0  0
 49 64  1  0  0  0  0
 50 67  1  0  0  0  0
 51 63  1  0  0  0  0
 52 64  1  0  0  0  0
 53 64  1  0  0  0  0
 54 65  1  0  0  0  0
 55 65  1  0  0  0  0
 56 65  1  0  0  0  0
 57 75  1  0  0  0  0
 58 61  1  0  0  0  0
 59 60  1  0  0  0  0
 59 64  1  0  0  0  0
 60 74  1  0  0  0  0
 61 82  1  0  0  0  0
 62 65  1  0  0  0  0
 62 73  1  0  0  0  0
 63 75  1  0  0  0  0
 66 67  1  0  0  0  0
M  CHG  1  75   1
M  ISO  4  32 100  61 101  74 100  82 101
M  END
> <Batch ID>
0098

> <Smiles>
CNC(C)C(=O)NC(C(=O)N1Cc2cc([101O:1][101CH2:1]CC3CCC(C(C)(C)CC[100NH:0][100C:0](=O)N4CCCC(n5nc(-c6ccc(Oc7ccc(F)cc7F)cc6)c(C(N)=O)c5N)C4)CC3)ccc2CC1C(=O)NC1CCCc2ccccc21)C(C)(C)C

> <Shape>
0.253

> <Color>
0.096

> <Negative vol penalty>
0.000

$$$$

  -OEChem-04052319293D

 89 97  0     1  0  0  0  0  0999 V2000
  -24.3038  -11.3564   20.2634 C   0  0  0  0  0  0  0  0  0  0  0  0
  -23.6120  -12.5511   20.4353 C   0  0  0  0  0  0  0  0  0  0  0  0
  -29.3460  -29.0860   19.8630 C   0  0  0  0  0  0  0  0  0  0  0  0
  -28.1190  -30.9125   18.8653 C   0  0  0  0  0  0  0  0  0  0  0  0
  -25.6715  -11.2998   20.5284 C   0  0  0  0  0  0  0  0  0  0  0  0
  -24.2874  -13.6897   20.8734 C   0  0  0  0  0  0  0  0  0  0  0  0
  -23.1709  -19.4870   19.2453 C   0  0  0  0  0  0  0  0  0  0  0  0
  -30.5475  -29.7026   19.5143 C   0  0  0  0  0  0  0  0  0  0  0  0
  -29.3205  -31.5292   18.5166 C   0  0  0  0  0  0  0  0  0  0  0  0
  -22.4578  -20.5139   19.8625 C   0  0  0  0  0  0  0  0  0  0  0  0
  -32.4801  -32.2249   20.6702 C   0  0  0  0  0  0  0  0  0  0  0  0
  -33.4869  -32.2747   21.6343 C   0  0  0  0  0  0  0  0  0  0  0  0
  -24.5095  -21.3647   20.8037 C   0  0  0  0  0  0  0  0  0  0  0  0
  -20.7483  -26.8856   23.1156 C   0  0  0  0  0  0  0  0  0  0  0  0
  -34.9482  -31.0233   20.1729 C   0  0  0  0  0  0  0  0  0  0  0  0
  -28.1317  -29.6909   19.5384 C   0  0  0  0  0  0  0  0  0  0  0  0
  -26.1646  -29.2196   21.0928 C   0  0  0  0  0  0  0  0  0  0  0  0
  -26.3658  -12.4407   20.9607 C   0  0  0  0  0  0  0  0  0  0  0  0
  -24.5595  -19.3848   19.4119 C   0  0  0  0  0  0  0  0  0  0  0  0
  -25.6654  -13.6480   21.1457 C   0  0  0  0  0  0  0  0  0  0  0  0
  -25.2382  -20.3371   20.1856 C   0  0  0  0  0  0  0  0  0  0  0  0
  -19.8265  -27.9440   23.3086 C   0  0  0  0  0  0  0  0  0  0  0  0
  -30.5348  -30.9242   18.8411 C   0  0  0  0  0  0  0  0  0  0  0  0
  -23.1267  -21.4512   20.6442 C   0  0  0  0  0  0  0  0  0  0  0  0
  -32.7074  -31.5742   19.4574 C   0  0  0  0  0  0  0  0  0  0  0  0
  -34.7209  -31.6739   21.3856 C   0  0  0  0  0  0  0  0  0  0  0  0
  -33.9414  -30.9735   19.2088 C   0  0  0  0  0  0  0  0  0  0  0  0
  -26.8901  -29.0541   19.8979 C   0  0  0  0  0  0  0  0  0  0  0  0
  -20.3776  -26.2215   21.9672 C   0  0  0  0  0  0  0  0  0  0  0  0
  -18.9204  -27.8943   22.2723 C   0  0  0  0  0  0  0  0  0  0  0  0
  -25.0692  -28.4043   20.9452 C   0  0  0  0  0  0  0  0  0  0  0  0
  -26.4548  -30.0374   22.2342 C   0  0  0  0  0  0  0  0  0  0  0  0
  -26.5151  -17.2107   20.6579 C   0  0  0  0  0  0  0  0  0  0  0  0
  -28.8149  -19.1761   19.4872 C   0  0  0  0  0  0  0  0  0  0  0  0
  -29.7120  -22.3144   18.4907 C   0  0  0  0  0  0  0  0  0  0  0  0
  -20.8614  -26.4168   17.8646 C   0  0  0  0  0  0  0  0  0  0  0  0
  -27.8348  -12.3189   21.2799 C   0  0  0  0  0  0  0  0  0  0  0  0
  -25.3177  -18.2868   18.7177 C   0  0  0  0  0  0  0  0  0  0  0  0
  -26.7308  -20.2835   20.3793 C   0  0  0  0  0  0  0  0  0  0  0  0
  -28.5496  -13.6639   21.3812 C   0  0  0  0  0  0  0  0  0  0  0  0
  -24.0427  -24.8648   17.4805 C   0  0  0  0  0  0  0  0  0  0  0  0
  -27.7373  -14.6377   22.2290 C   0  0  0  0  0  0  0  0  0  0  0  0
  -25.0073  -25.8327   18.1679 C   0  0  0  0  0  0  0  0  0  0  0  0
  -22.9219  -25.6055   16.7544 C   0  0  0  0  0  0  0  0  0  0  0  0
  -23.1378  -27.5334   18.2744 C   0  0  0  0  0  0  0  0  0  0  0  0
  -26.3677  -14.9107   21.5956 C   0  0  1  0  0  0  0  0  0  0  0  0
  -26.6597  -17.9795   19.3750 C   0  0  1  0  0  0  0  0  0  0  0  0
  -24.2537  -26.8313   19.0669 C   0  0  2  0  0  0  0  0  0  0  0  0
  -16.5476  -28.4415   22.8695 C   0  0  0  0  0  0  0  0  0  0  0  0
  -19.6066  -28.2352   25.7902 C   0  0  0  0  0  0  0  0  0  0  0  0
  -31.6700  -23.6203   17.6198 C   0  0  0  0  0  0  0  0  0  0  0  0
  -30.0313  -19.2136   22.2852 C   0  0  0  0  0  0  0  0  0  0  0  0
  -31.3637  -21.2206   21.6034 C   0  0  0  0  0  0  0  0  0  0  0  0
  -31.6958  -19.0466   20.4262 C   0  0  0  0  0  0  0  0  0  0  0  0
  -23.1591  -32.1001   22.2195 C   0  0  0  0  0  0  0  0  0  0  0  0
  -28.2939  -22.9900   15.9824 C   0  0  0  0  0  0  0  0  0  0  0  0
  -21.0048  -25.0245   21.2983 C   0  0  0  0  0  0  0  0  0  0  0  0
  -17.7557  -28.7579   21.9831 C   0  0  0  0  0  0  0  0  0  0  0  0
  -20.4436  -23.6851   21.7804 C   0  0  0  0  0  0  0  0  0  0  0  0
  -21.1431  -29.7770   24.5106 C   0  0  0  0  0  0  0  0  0  0  0  0
  -18.5621  -26.4493   20.2603 C   0  0  0  0  0  0  0  0  0  0  0  0
  -18.8902  -27.3346   19.0608 C   0  0  0  0  0  0  0  0  0  0  0  0
  -21.4705  -30.5754   23.2503 C   0  0  0  0  0  0  0  0  0  0  0  0
  -21.0219  -22.4859   21.0383 C   0  0  0  0  0  0  0  0  0  1  0  0
  -19.8417  -28.9174   24.4186 C   0  0  1  0  0  0  0  0  0  0  0  0
  -29.5775  -20.3653   20.0195 C   0  0  1  0  0  0  0  0  0  0  0  0
  -30.4372  -22.8092   17.2522 C   0  0  2  0  0  0  0  0  0  0  0  0
  -30.6387  -19.9617   21.0817 C   0  0  0  0  0  0  0  0  0  0  0  0
  -26.3051  -28.2004   19.0535 N   0  0  0  0  0  0  0  0  0  0  0  0
  -19.2650  -26.8432   21.4633 N   0  0  0  0  0  0  0  0  0  0  0  0
  -25.2003  -27.8223   19.7187 N   0  0  0  0  0  0  0  0  0  0  0  0
  -27.4269  -19.1875   19.6853 N   0  0  0  0  0  0  0  0  0  0  0  0
  -22.2464  -26.5352   17.6628 N   0  0  0  0  0  0  0  0  0  0  0  0
  -24.0163  -28.1355   21.7462 N   0  0  0  0  0  0  0  0  0  0  0  0
  -27.6219  -30.8132   22.2209 N   0  0  0  0  0  0  0  0  0  0  0  0
  -26.4969  -15.8389   20.4927 N   0  0  0  0  0  0  0  0  0  0  0  0
  -30.1280  -21.0515   18.8556 N   0  0  0  0  0  0  0  0  0  0  0  0
  -20.3014  -27.3335   18.7459 N   0  0  0  0  0  0  0  0  0  0  0  0
  -22.7183  -31.3533   23.4302 N   0  3  0  0  0  0  0  0  0  0  0  0
  -29.5363  -23.6685   16.4331 N   0  3  0  0  0  0  0  0  0  0  0  0
  -25.7098  -30.0664   23.2430 O   0  0  0  0  0  0  0  0  0  0  0  0
  -26.4282  -17.8172   21.7192 O   0  0  0  0  0  0  0  0  0  0  0  0
  -29.4273  -18.2739   18.9105 O   0  0  0  0  0  0  0  0  0  0  0  0
  -28.8643  -22.9830   19.0779 O   0  0  0  0  0  0  0  0  0  0  0  0
  -20.1757  -25.5543   17.3053 O   0  0  0  0  0  0  0  0  0  0  0  0
  -31.7071  -31.5264   18.5009 O   0  0  0  0  0  0  0  0  0  0  0  0
  -22.4330  -22.4542   21.2482 O   0  0  0  0  0  0  0  0  0  1  0  0
  -35.6882  -31.7231   22.3110 F   0  0  0  0  0  0  0  0  0  0  0  0
  -34.1660  -30.3480   18.0451 F   0  0  0  0  0  0  0  0  0  0  0  0
  1  2  1  0  0  0  0
  1  5  2  0  0  0  0
  2  6  2  0  0  0  0
  3  8  2  0  0  0  0
  3 16  1  0  0  0  0
  4  9  1  0  0  0  0
  4 16  2  0  0  0  0
  5 18  1  0  0  0  0
  6 20  1  0  0  0  0
  7 10  2  0  0  0  0
  7 19  1  0  0  0  0
  8 23  1  0  0  0  0
  9 23  2  0  0  0  0
 10 24  1  0  0  0  0
 11 12  2  0  0  0  0
 11 25  1  0  0  0  0
 12 26  1  0  0  0  0
 13 21  1  0  0  0  0
 13 24  2  0  0  0  0
 14 22  1  0  0  0  0
 14 29  2  0  0  0  0
 15 26  2  0  0  0  0
 15 27  1  0  0  0  0
 16 28  1  0  0  0  0
 17 28  1  0  0  0  0
 17 31  2  0  0  0  0
 17 32  1  0  0  0  0
 18 20  2  0  0  0  0
 18 37  1  0  0  0  0
 19 21  2  0  0  0  0
 19 38  1  0  0  0  0
 20 46  1  0  0  0  0
 21 39  1  0  0  0  0
 22 30  2  0  0  0  0
 22 65  1  0  0  0  0
 23 86  1  0  0  0  0
 24 87  1  0  0  0  0
 25 27  2  0  0  0  0
 25 86  1  0  0  0  0
 26 88  1  0  0  0  0
 27 89  1  0  0  0  0
 28 69  2  0  0  0  0
 29 57  1  0  0  0  0
 29 70  1  0  0  0  0
 30 58  1  0  0  0  0
 30 70  1  0  0  0  0
 31 71  1  0  0  0  0
 31 74  1  0  0  0  0
 32 75  1  0  0  0  0
 32 81  2  0  0  0  0
 33 47  1  0  0  0  0
 33 76  1  0  0  0  0
 33 82  2  0  0  0  0
 34 66  1  0  0  0  0
 34 72  1  0  0  0  0
 34 83  2  0  0  0  0
 35 67  1  0  0  0  0
 35 77  1  0  0  0  0
 35 84  2  0  0  0  0
 36 73  1  0  0  0  0
 36 78  1  0  0  0  0
 36 85  2  0  0  0  0
 37 40  1  0  0  0  0
 38 47  1  0  0  0  0
 39 72  1  0  0  0  0
 40 42  1  0  0  0  0
 41 43  1  0  0  0  0
 41 44  1  0  0  0  0
 42 46  1  0  0  0  0
 43 48  1  0  0  0  0
 44 73  1  0  0  0  0
 45 48  1  0  0  0  0
 45 73  1  0  0  0  0
 46 76  1  0  0  0  0
 47 72  1  0  0  0  0
 48 71  1  0  0  0  0
 49 58  1  0  0  0  0
 50 65  1  0  0  0  0
 51 67  1  0  0  0  0
 52 68  1  0  0  0  0
 53 68  1  0  0  0  0
 54 68  1  0  0  0  0
 55 79  1  0  0  0  0
 56 80  1  0  0  0  0
 57 59  1  0  0  0  0
 59 64  1  0  0  0  0
 60 63  1  0  0  0  0
 60 65  1  0  0  0  0
 61 62  1  0  0  0  0
 61 70  1  0  0  0  0
 62 78  1  0  0  0  0
 63 79  1  0  0  0  0
 64 87  1  0  0  0  0
 66 68  1  0  0  0  0
 66 77  1  0  0  0  0
 67 80  1  0  0  0  0
 69 71  1  0  0  0  0
M  CHG  2  79   1  80   1
M  ISO  4  36 100  64 101  78 100  87 101
M  END
> <Batch ID>
0098

> <Smiles>
CCc1c(C(C)CCNC)cc(CC[101CH2:1][101O:1]c2ccc3c(c2)CN(C(=O)C(NC(=O)C(C)NC)C(C)(C)C)C(C(=O)NC2CCCc4ccccc42)C3)n1CC[100NH:0][100C:0](=O)N1CCCC(n2nc(-c3ccc(Oc4ccc(F)cc4F)cc3)c(C(N)=O)c2N)C1

> <Shape>
0.223

> <Color>
0.069

> <Negative vol penalty>
0.000

$$$$

  -OEChem-04052319293D

 86 94  0     1  0  0  0  0  0999 V2000
  -27.7870  -31.3929   27.1602 C   0  0  0  0  0  0  0  0  0  0  0  0
  -27.9039  -30.4128   26.1798 C   0  0  0  0  0  0  0  0  0  0  0  0
  -24.0537   -9.8624   22.0165 C   0  0  0  0  0  0  0  0  0  0  0  0
  -22.4167  -10.5085   20.3612 C   0  0  0  0  0  0  0  0  0  0  0  0
  -26.5350  -31.7002   27.6912 C   0  0  0  0  0  0  0  0  0  0  0  0
  -26.7689  -29.7387   25.7305 C   0  0  0  0  0  0  0  0  0  0  0  0
  -26.6367  -29.3040   20.6869 C   0  0  0  0  0  0  0  0  0  0  0  0
  -23.4920   -8.5869   22.0741 C   0  0  0  0  0  0  0  0  0  0  0  0
  -21.8551   -9.2330   20.4187 C   0  0  0  0  0  0  0  0  0  0  0  0
  -27.4398  -28.3204   20.1113 C   0  0  0  0  0  0  0  0  0  0  0  0
  -20.8073   -7.1100   23.5007 C   0  0  0  0  0  0  0  0  0  0  0  0
  -20.5999   -6.5502   24.7613 C   0  0  0  0  0  0  0  0  0  0  0  0
  -25.5188  -26.8744   19.9164 C   0  0  0  0  0  0  0  0  0  0  0  0
  -22.0564   -4.7110   24.1843 C   0  0  0  0  0  0  0  0  0  0  0  0
  -23.5160  -10.8232   21.1601 C   0  0  0  0  0  0  0  0  0  0  0  0
  -25.1281  -12.5781   20.2497 C   0  0  0  0  0  0  0  0  0  0  0  0
  -25.3828  -31.0363   27.2413 C   0  0  0  0  0  0  0  0  0  0  0  0
  -25.2683  -29.0756   20.8918 C   0  0  0  0  0  0  0  0  0  0  0  0
  -25.5005  -30.0366   26.2569 C   0  0  0  0  0  0  0  0  0  0  0  0
  -24.6999  -27.8577   20.4924 C   0  0  0  0  0  0  0  0  0  0  0  0
  -22.3928   -8.2722   21.2751 C   0  0  0  0  0  0  0  0  0  0  0  0
  -26.8815  -27.1043   19.7286 C   0  0  0  0  0  0  0  0  0  0  0  0
  -21.6392   -6.4702   22.5817 C   0  0  0  0  0  0  0  0  0  0  0  0
  -21.2245   -5.3508   25.1031 C   0  0  0  0  0  0  0  0  0  0  0  0
  -22.2637   -5.2708   22.9235 C   0  0  0  0  0  0  0  0  0  0  0  0
  -24.0953  -12.1411   21.1007 C   0  0  0  0  0  0  0  0  0  0  0  0
  -25.3116  -13.8981   20.5822 C   0  0  0  0  0  0  0  0  0  0  0  0
  -25.8564  -11.8556   19.2481 C   0  0  0  0  0  0  0  0  0  0  0  0
  -23.3735  -28.9428   23.4405 C   0  0  0  0  0  0  0  0  0  0  0  0
  -21.0361  -28.6919   21.2053 C   0  0  0  0  0  0  0  0  0  0  0  0
  -20.1492  -27.8281   18.0251 C   0  0  0  0  0  0  0  0  0  0  0  0
  -23.2555  -18.9410   21.8014 C   0  0  0  0  0  0  0  0  0  0  0  0
  -24.0573  -31.3697   27.8789 C   0  0  0  0  0  0  0  0  0  0  0  0
  -24.4104  -30.1570   21.4894 C   0  0  0  0  0  0  0  0  0  0  0  0
  -23.2324  -27.5707   20.6721 C   0  0  0  0  0  0  0  0  0  0  0  0
  -22.8551  -30.8721   27.0806 C   0  0  0  0  0  0  0  0  0  0  0  0
  -23.5163  -16.5949   24.4668 C   0  0  0  0  0  0  0  0  0  0  0  0
  -23.0664  -29.4263   26.6427 C   0  0  0  0  0  0  0  0  0  0  0  0
  -23.7690  -15.2629   23.7583 C   0  0  0  0  0  0  0  0  0  0  0  0
  -25.7396  -22.0173   19.3565 C   0  0  0  0  0  0  0  0  0  0  0  0
  -26.3992  -19.5925   19.5309 C   0  0  0  0  0  0  0  0  0  0  0  0
  -22.5561  -17.4812   23.6766 C   0  0  0  0  0  0  0  0  0  0  0  0
  -23.1960  -16.3843   21.5645 C   0  0  0  0  0  0  0  0  0  0  0  0
  -27.2015  -22.4185   19.4978 C   0  0  0  0  0  0  0  0  0  0  0  0
  -27.8577  -20.0062   19.6716 C   0  0  0  0  0  0  0  0  0  0  0  0
  -24.2894  -29.3007   25.7261 C   0  0  1  0  0  0  0  0  0  0  0  0
  -23.1297  -29.6220   22.1226 C   0  0  1  0  0  0  0  0  0  0  0  0
  -25.4482  -20.6793   20.0459 C   0  0  0  0  0  0  0  0  0  0  0  0
  -24.2020  -15.4791   22.2958 C   0  0  2  0  0  0  0  0  0  0  0  0
  -18.1594  -27.6974   16.5016 C   0  0  0  0  0  0  0  0  0  0  0  0
  -31.0660  -24.7017   19.9057 C   0  0  0  0  0  0  0  0  0  0  0  0
  -20.1004  -26.1712   22.6476 C   0  0  0  0  0  0  0  0  0  0  0  0
  -18.7743  -25.5804   20.6079 C   0  0  0  0  0  0  0  0  0  0  0  0
  -18.2578  -27.6711   21.8668 C   0  0  0  0  0  0  0  0  0  0  0  0
  -31.4170  -22.5553   17.5667 C   0  0  0  0  0  0  0  0  0  0  0  0
  -29.2113  -22.1579   16.4873 C   0  0  0  0  0  0  0  0  0  0  0  0
  -21.3371  -29.7544   16.1179 C   0  0  0  0  0  0  0  0  0  0  0  0
  -23.9922  -20.2684   19.8381 C   0  0  0  0  0  0  0  0  0  0  0  0
  -29.4570  -24.1299   18.0174 C   0  0  0  0  0  0  0  0  0  0  0  0
  -29.5305  -21.7117   18.9588 C   0  0  0  0  0  0  0  0  0  0  0  0
  -29.0335  -26.1059   19.5621 C   0  0  0  0  0  0  0  0  0  1  0  0
  -20.3684  -27.5485   20.4803 C   0  0  1  0  0  0  0  0  0  0  0  0
  -19.3232  -28.5528   16.9777 C   0  0  2  0  0  0  0  0  0  0  0  0
  -29.6004  -24.6806   19.4596 C   0  0  2  0  0  0  0  0  0  0  0  0
  -19.4033  -26.7471   21.3989 C   0  0  0  0  0  0  0  0  0  0  0  0
  -29.8946  -22.6509   17.7838 C   0  0  0  0  0  0  0  0  0  0  0  0
  -23.6538  -13.1052   21.9129 N   0  0  0  0  0  0  0  0  0  0  0  0
  -24.4129  -14.1611   21.5738 N   0  0  0  0  0  0  0  0  0  0  0  0
  -22.4364  -28.6571   21.2667 N   0  0  0  0  0  0  0  0  0  0  0  0
  -23.0250  -17.6478   22.2988 N   0  0  0  0  0  0  0  0  0  0  0  0
  -26.1526  -14.8477   20.1203 N   0  0  0  0  0  0  0  0  0  0  0  0
  -25.5405  -10.5068   19.0350 N   0  0  0  0  0  0  0  0  0  0  0  0
  -23.9677  -29.7527   24.3894 N   0  0  0  0  0  0  0  0  0  0  0  0
  -19.7298  -28.1284   19.3038 N   0  0  0  0  0  0  0  0  0  0  0  0
  -23.7048  -19.0093   20.4883 N   0  0  0  0  0  0  0  0  0  0  0  0
  -28.0794  -21.3166   18.9560 N   0  3  0  0  0  0  0  0  0  0  0  0
  -20.1675  -28.8959   15.7985 N   0  3  0  0  0  0  0  0  0  0  0  0
  -26.7716  -12.3857   18.5737 O   0  0  0  0  0  0  0  0  0  0  0  0
  -23.0454  -27.7711   23.5861 O   0  0  0  0  0  0  0  0  0  0  0  0
  -20.3411  -29.5869   21.6929 O   0  0  0  0  0  0  0  0  0  0  0  0
  -21.0716  -27.0685   17.7375 O   0  0  0  0  0  0  0  0  0  0  0  0
  -23.0795  -19.9591   22.4792 O   0  0  0  0  0  0  0  0  0  0  0  0
  -21.8446   -7.0276   21.3308 O   0  0  0  0  0  0  0  0  0  0  0  0
  -27.6686  -26.1356   19.1633 O   0  0  0  0  0  0  0  0  0  1  0  0
  -21.0265   -4.8142   26.3143 F   0  0  0  0  0  0  0  0  0  0  0  0
  -23.0650   -4.6521   22.0454 F   0  0  0  0  0  0  0  0  0  0  0  0
  1  2  1  0  0  0  0
  1  5  2  0  0  0  0
  2  6  2  0  0  0  0
  3  8  2  0  0  0  0
  3 15  1  0  0  0  0
  4  9  1  0  0  0  0
  4 15  2  0  0  0  0
  5 17  1  0  0  0  0
  6 19  1  0  0  0  0
  7 10  2  0  0  0  0
  7 18  1  0  0  0  0
  8 21  1  0  0  0  0
  9 21  2  0  0  0  0
 10 22  1  0  0  0  0
 11 12  2  0  0  0  0
 11 23  1  0  0  0  0
 12 24  1  0  0  0  0
 13 20  1  0  0  0  0
 13 22  2  0  0  0  0
 14 24  2  0  0  0  0
 14 25  1  0  0  0  0
 15 26  1  0  0  0  0
 16 26  1  0  0  0  0
 16 27  2  0  0  0  0
 16 28  1  0  0  0  0
 17 19  2  0  0  0  0
 17 33  1  0  0  0  0
 18 20  2  0  0  0  0
 18 34  1  0  0  0  0
 19 46  1  0  0  0  0
 20 35  1  0  0  0  0
 21 83  1  0  0  0  0
 22 84  1  0  0  0  0
 23 25  2  0  0  0  0
 23 83  1  0  0  0  0
 24 85  1  0  0  0  0
 25 86  1  0  0  0  0
 26 67  2  0  0  0  0
 27 68  1  0  0  0  0
 27 71  1  0  0  0  0
 28 72  1  0  0  0  0
 28 78  2  0  0  0  0
 29 47  1  0  0  0  0
 29 73  1  0  0  0  0
 29 79  2  0  0  0  0
 30 62  1  0  0  0  0
 30 69  1  0  0  0  0
 30 80  2  0  0  0  0
 31 63  1  0  0  0  0
 31 74  1  0  0  0  0
 31 81  2  0  0  0  0
 32 70  1  0  0  0  0
 32 75  1  0  0  0  0
 32 82  2  0  0  0  0
 33 36  1  0  0  0  0
 34 47  1  0  0  0  0
 35 69  1  0  0  0  0
 36 38  1  0  0  0  0
 37 39  1  0  0  0  0
 37 42  1  0  0  0  0
 38 46  1  0  0  0  0
 39 49  1  0  0  0  0
 40 44  1  0  0  0  0
 40 48  1  0  0  0  0
 41 45  1  0  0  0  0
 41 48  1  0  0  0  0
 42 70  1  0  0  0  0
 43 49  1  0  0  0  0
 43 70  1  0  0  0  0
 44 76  1  0  0  0  0
 45 76  1  0  0  0  0
 46 73  1  0  0  0  0
 47 69  1  0  0  0  0
 48 58  1  0  0  0  0
 49 68  1  0  0  0  0
 50 63  1  0  0  0  0
 51 64  1  0  0  0  0
 52 65  1  0  0  0  0
 53 65  1  0  0  0  0
 54 65  1  0  0  0  0
 55 66  1  0  0  0  0
 56 66  1  0  0  0  0
 57 77  1  0  0  0  0
 58 75  1  0  0  0  0
 59 64  1  0  0  0  0
 59 66  1  0  0  0  0
 60 66  1  0  0  0  0
 60 76  1  0  0  0  0
 61 64  1  0  0  0  0
 61 84  1  0  0  0  0
 62 65  1  0  0  0  0
 62 74  1  0  0  0  0
 63 77  1  0  0  0  0
 67 68  1  0  0  0  0
M  CHG  2  76   1  77   1
M  ISO  4  32 100  61 101  75 100  84 101
M  END
> <Batch ID>
0098

> <Smiles>
CNC(C)C(=O)NC(C(=O)N1Cc2cc([101O:1][101CH2:1]C(C)CC(C)(C)CN3CCC(C[100NH:0][100C:0](=O)N4CCCC(n5nc(-c6ccc(Oc7ccc(F)cc7F)cc6)c(C(N)=O)c5N)C4)CC3)ccc2CC1C(=O)NC1CCCc2ccccc21)C(C)(C)C

> <Shape>
0.301

> <Color>
0.098

> <Negative vol penalty>
0.000

$$$$

  -OEChem-04052319293D

 86 94  0     1  0  0  0  0  0999 V2000
  -25.5785  -18.5494   22.5806 C   0  0  0  0  0  0  0  0  0  0  0  0
  -26.0298  -19.8640   22.5448 C   0  0  0  0  0  0  0  0  0  0  0  0
  -25.7362  -12.2756   19.6055 C   0  0  0  0  0  0  0  0  0  0  0  0
  -25.1066  -13.5714   21.5450 C   0  0  0  0  0  0  0  0  0  0  0  0
  -24.2563  -18.2612   22.2494 C   0  0  0  0  0  0  0  0  0  0  0  0
  -25.1560  -20.8920   22.1893 C   0  0  0  0  0  0  0  0  0  0  0  0
  -26.8239  -25.4985   22.6390 C   0  0  0  0  0  0  0  0  0  0  0  0
  -25.3200  -11.1102   20.2490 C   0  0  0  0  0  0  0  0  0  0  0  0
  -24.6903  -12.4060   22.1885 C   0  0  0  0  0  0  0  0  0  0  0  0
  -27.7792  -26.0413   21.7809 C   0  0  0  0  0  0  0  0  0  0  0  0
  -24.0886   -7.8376   21.2434 C   0  0  0  0  0  0  0  0  0  0  0  0
  -23.3222   -6.9308   20.5112 C   0  0  0  0  0  0  0  0  0  0  0  0
  -26.0471  -27.2770   20.6441 C   0  0  0  0  0  0  0  0  0  0  0  0
  -21.6348   -8.6273   20.1766 C   0  0  0  0  0  0  0  0  0  0  0  0
  -24.7681  -22.6002   18.1130 C   0  0  0  0  0  0  0  0  0  0  0  0
  -25.6296  -13.5063   20.2535 C   0  0  0  0  0  0  0  0  0  0  0  0
  -25.2837  -15.5550   18.7734 C   0  0  0  0  0  0  0  0  0  0  0  0
  -23.3698  -19.2854   21.8777 C   0  0  0  0  0  0  0  0  0  0  0  0
  -25.4692  -25.8329   22.4990 C   0  0  0  0  0  0  0  0  0  0  0  0
  -23.8114  -20.6242   21.8747 C   0  0  0  0  0  0  0  0  0  0  0  0
  -25.0769  -26.7390   21.5034 C   0  0  0  0  0  0  0  0  0  0  0  0
  -25.5199  -23.4749   17.3599 C   0  0  0  0  0  0  0  0  0  0  0  0
  -26.8872  -23.0804   17.2876 C   0  0  0  0  0  0  0  0  0  0  0  0
  -24.7970  -11.1754   21.5405 C   0  0  0  0  0  0  0  0  0  0  0  0
  -27.3905  -26.9285   20.7814 C   0  0  0  0  0  0  0  0  0  0  0  0
  -23.6281   -9.1391   21.4422 C   0  0  0  0  0  0  0  0  0  0  0  0
  -22.0953   -7.3257   19.9778 C   0  0  0  0  0  0  0  0  0  0  0  0
  -22.4012   -9.5340   20.9088 C   0  0  0  0  0  0  0  0  0  0  0  0
  -26.0599  -14.7104   19.5895 C   0  0  0  0  0  0  0  0  0  0  0  0
  -27.1282  -21.9191   17.9885 C   0  0  0  0  0  0  0  0  0  0  0  0
  -26.1481  -16.5510   18.3897 C   0  0  0  0  0  0  0  0  0  0  0  0
  -23.9045  -15.4488   18.3961 C   0  0  0  0  0  0  0  0  0  0  0  0
  -22.8141  -24.2113   21.8478 C   0  0  0  0  0  0  0  0  0  0  0  0
  -30.1306  -20.2513   19.7077 C   0  0  0  0  0  0  0  0  0  0  0  0
  -21.3885  -27.0593   22.4634 C   0  0  0  0  0  0  0  0  0  0  0  0
  -22.0202  -30.5342   21.7259 C   0  0  0  0  0  0  0  0  0  0  0  0
  -21.9471  -18.9181   21.5365 C   0  0  0  0  0  0  0  0  0  0  0  0
  -24.4546  -25.2594   23.4497 C   0  0  0  0  0  0  0  0  0  0  0  0
  -23.6380  -27.1462   21.3241 C   0  0  0  0  0  0  0  0  0  0  0  0
  -21.2246  -20.0065   20.7494 C   0  0  0  0  0  0  0  0  0  0  0  0
  -31.1633  -16.9285   18.8520 C   0  0  0  0  0  0  0  0  0  0  0  0
  -21.4073  -21.3522   21.4353 C   0  0  0  0  0  0  0  0  0  0  0  0
  -29.8695  -16.1191   18.9301 C   0  0  0  0  0  0  0  0  0  0  0  0
  -31.1977  -18.0296   19.9071 C   0  0  0  0  0  0  0  0  0  0  0  0
  -28.7263  -18.1430   19.9411 C   0  0  0  0  0  0  0  0  0  0  0  0
  -22.8872  -21.7553   21.4614 C   0  0  1  0  0  0  0  0  0  0  0  0
  -23.0360  -25.2720   22.8886 C   0  0  1  0  0  0  0  0  0  0  0  0
  -28.6374  -17.0394   18.8722 C   0  0  2  0  0  0  0  0  0  0  0  0
  -24.9598  -24.6823   16.7060 C   0  0  0  0  0  0  0  0  0  0  0  0
  -29.0915  -22.4055   20.2863 C   0  0  0  0  0  0  0  0  0  0  0  0
  -21.3474  -32.6125   22.9609 C   0  0  0  0  0  0  0  0  0  0  0  0
  -29.4859  -28.2996   17.3157 C   0  0  0  0  0  0  0  0  0  0  0  0
  -31.0677  -28.1058   19.2389 C   0  0  0  0  0  0  0  0  0  0  0  0
  -18.9983  -27.0640   20.5668 C   0  0  0  0  0  0  0  0  0  0  0  0
  -19.1825  -29.5582   20.4524 C   0  0  0  0  0  0  0  0  0  0  0  0
  -18.6953  -28.4439   22.6304 C   0  0  0  0  0  0  0  0  0  0  0  0
  -24.8209  -31.4736   21.9055 C   0  0  0  0  0  0  0  0  0  0  0  0
  -27.9469  -23.8430   16.5332 C   0  0  0  0  0  0  0  0  0  0  0  0
  -28.4019  -21.1848   18.1611 C   0  0  0  0  0  0  0  0  0  0  0  0
  -28.8786  -24.6629   17.4342 C   0  0  0  0  0  0  0  0  0  0  0  0
  -28.1305  -25.7100   18.2727 C   0  0  0  0  0  0  0  0  0  0  0  0
  -28.8521  -21.0477   19.6345 C   0  0  1  0  0  0  0  0  0  0  0  0
  -21.0147  -28.2679   21.6396 C   0  0  1  0  0  0  0  0  0  0  0  0
  -22.4590  -31.6062   22.7071 C   0  0  2  0  0  0  0  0  0  0  0  0
  -30.1189  -27.3295   18.3181 C   0  0  0  0  0  0  0  0  0  0  0  0
  -29.0773  -26.5451   19.1494 C   0  0  1  0  0  0  0  0  0  1  0  0
  -19.4948  -28.3170   21.3153 C   0  0  0  0  0  0  0  0  0  0  0  0
  -27.3206  -15.1329   19.7171 N   0  0  0  0  0  0  0  0  0  0  0  0
  -27.3431  -16.2538   18.9761 N   0  0  0  0  0  0  0  0  0  0  0  0
  -22.6824  -26.5535   22.2745 N   0  0  0  0  0  0  0  0  0  0  0  0
  -29.9999  -18.8682   19.8338 N   0  0  0  0  0  0  0  0  0  0  0  0
  -25.9951  -17.6431   17.6111 N   0  0  0  0  0  0  0  0  0  0  0  0
  -23.1613  -14.3632   18.8792 N   0  0  0  0  0  0  0  0  0  0  0  0
  -23.0431  -22.9250   22.2976 N   0  0  0  0  0  0  0  0  0  0  0  0
  -21.5072  -29.4294   22.3722 N   0  0  0  0  0  0  0  0  0  0  0  0
  -23.6442  -32.3386   22.1782 N   0  3  0  0  0  0  0  0  0  0  0  0
  -23.3521  -16.2827   17.6392 O   0  0  0  0  0  0  0  0  0  0  0  0
  -22.4598  -24.5358   20.7204 O   0  0  0  0  0  0  0  0  0  0  0  0
  -31.2121  -20.8424   19.6513 O   0  0  0  0  0  0  0  0  0  0  0  0
  -20.5653  -26.5860   23.2508 O   0  0  0  0  0  0  0  0  0  0  0  0
  -22.1189  -30.6653   20.5079 O   0  0  0  0  0  0  0  0  0  0  0  0
  -24.3905  -10.0384   22.1687 O   0  0  0  0  0  0  0  0  0  0  0  0
  -28.3209  -27.4593   19.9420 O   0  0  0  0  0  0  0  0  0  1  0  0
  -21.3601   -6.4553   19.2734 F   0  0  0  0  0  0  0  0  0  0  0  0
  -21.9541  -10.7834   21.0955 F   0  0  0  0  0  0  0  0  0  0  0  0
  -25.7098  -21.3095   18.7292 S   0  0  0  0  0  0  0  0  0  0  0  0
  1  2  1  0  0  0  0
  1  5  2  0  0  0  0
  2  6  2  0  0  0  0
  3  8  2  0  0  0  0
  3 16  1  0  0  0  0
  4  9  1  0  0  0  0
  4 16  2  0  0  0  0
  5 18  1  0  0  0  0
  6 20  1  0  0  0  0
  7 10  2  0  0  0  0
  7 19  1  0  0  0  0
  8 24  1  0  0  0  0
  9 24  2  0  0  0  0
 10 25  1  0  0  0  0
 11 12  2  0  0  0  0
 11 26  1  0  0  0  0
 12 27  1  0  0  0  0
 13 21  1  0  0  0  0
 13 25  2  0  0  0  0
 14 27  2  0  0  0  0
 14 28  1  0  0  0  0
 15 22  2  0  0  0  0
 15 86  1  0  0  0  0
 16 29  1  0  0  0  0
 17 29  1  0  0  0  0
 17 31  2  0  0  0  0
 17 32  1  0  0  0  0
 18 20  2  0  0  0  0
 18 37  1  0  0  0  0
 19 21  2  0  0  0  0
 19 38  1  0  0  0  0
 20 46  1  0  0  0  0
 21 39  1  0  0  0  0
 22 23  1  0  0  0  0
 22 49  1  0  0  0  0
 23 30  2  0  0  0  0
 23 58  1  0  0  0  0
 24 82  1  0  0  0  0
 25 83  1  0  0  0  0
 26 28  2  0  0  0  0
 26 82  1  0  0  0  0
 27 84  1  0  0  0  0
 28 85  1  0  0  0  0
 29 68  2  0  0  0  0
 30 59  1  0  0  0  0
 30 86  1  0  0  0  0
 31 69  1  0  0  0  0
 31 72  1  0  0  0  0
 32 73  1  0  0  0  0
 32 77  2  0  0  0  0
 33 47  1  0  0  0  0
 33 74  1  0  0  0  0
 33 78  2  0  0  0  0
 34 62  1  0  0  0  0
 34 71  1  0  0  0  0
 34 79  2  0  0  0  0
 35 63  1  0  0  0  0
 35 70  1  0  0  0  0
 35 80  2  0  0  0  0
 36 64  1  0  0  0  0
 36 75  1  0  0  0  0
 36 81  2  0  0  0  0
 37 40  1  0  0  0  0
 38 47  1  0  0  0  0
 39 70  1  0  0  0  0
 40 42  1  0  0  0  0
 41 43  1  0  0  0  0
 41 44  1  0  0  0  0
 42 46  1  0  0  0  0
 43 48  1  0  0  0  0
 44 71  1  0  0  0  0
 45 48  1  0  0  0  0
 45 71  1  0  0  0  0
 46 74  1  0  0  0  0
 47 70  1  0  0  0  0
 48 69  1  0  0  0  0
 50 62  1  0  0  0  0
 51 64  1  0  0  0  0
 52 65  1  0  0  0  0
 53 65  1  0  0  0  0
 54 67  1  0  0  0  0
 55 67  1  0  0  0  0
 56 67  1  0  0  0  0
 57 76  1  0  0  0  0
 58 60  1  0  0  0  0
 59 62  1  0  0  0  0
 60 61  1  0  0  0  0
 61 66  1  0  0  0  0
 63 67  1  0  0  0  0
 63 75  1  0  0  0  0
 64 76  1  0  0  0  0
 65 66  1  0  0  0  0
 66 83  1  0  0  0  0
 68 69  1  0  0  0  0
M  CHG  1  76   1
M  ISO  4  34 100  62 100  66 101  83 101
M  END
> <Batch ID>
0098

> <Smiles>
CNC(C)C(=O)NC(C(=O)N1Cc2cc([101O:1][101CH:1](CCCc3c(C)csc3C[100CH:0](C)[100C:0](=O)N3CCCC(n4nc(-c5ccc(Oc6ccc(F)cc6F)cc5)c(C(N)=O)c4N)C3)C(C)C)ccc2CC1C(=O)NC1CCCc2ccccc21)C(C)(C)C

> <Shape>
0.214

> <Color>
0.053

> <Negative vol penalty>
0.000

$$$$

  -OEChem-04052319293D

 89 97  0     1  0  0  0  0  0999 V2000
  -26.3579  -34.7855   24.5590 C   0  0  0  0  0  0  0  0  0  0  0  0
  -26.8615  -33.5983   24.0371 C   0  0  0  0  0  0  0  0  0  0  0  0
  -22.7561  -13.3156   20.3350 C   0  0  0  0  0  0  0  0  0  0  0  0
  -23.3016  -13.8214   22.6336 C   0  0  0  0  0  0  0  0  0  0  0  0
  -25.0945  -34.8059   25.1484 C   0  0  0  0  0  0  0  0  0  0  0  0
  -26.1025  -32.4306   24.1053 C   0  0  0  0  0  0  0  0  0  0  0  0
  -26.1247  -29.8422   19.7528 C   0  0  0  0  0  0  0  0  0  0  0  0
  -22.3796  -12.0255   20.7082 C   0  0  0  0  0  0  0  0  0  0  0  0
  -22.9250  -12.5312   23.0068 C   0  0  0  0  0  0  0  0  0  0  0  0
  -27.2579  -29.0805   19.4707 C   0  0  0  0  0  0  0  0  0  0  0  0
  -23.9060   -9.1045   21.4580 C   0  0  0  0  0  0  0  0  0  0  0  0
  -24.3527   -8.0456   20.6675 C   0  0  0  0  0  0  0  0  0  0  0  0
  -26.1031  -27.0977   20.2153 C   0  0  0  0  0  0  0  0  0  0  0  0
  -28.2474  -21.2058   20.8894 C   0  0  0  0  0  0  0  0  0  0  0  0
  -28.5544  -21.6309   23.2366 C   0  0  0  0  0  0  0  0  0  0  0  0
  -22.0638   -7.4225   20.2090 C   0  0  0  0  0  0  0  0  0  0  0  0
  -23.2172  -14.2136   21.2977 C   0  0  0  0  0  0  0  0  0  0  0  0
  -22.7864  -16.6889   20.8562 C   0  0  0  0  0  0  0  0  0  0  0  0
  -24.3156  -33.6400   25.2152 C   0  0  0  0  0  0  0  0  0  0  0  0
  -24.9740  -29.2380   20.2794 C   0  0  0  0  0  0  0  0  0  0  0  0
  -24.8280  -32.4351   24.6974 C   0  0  0  0  0  0  0  0  0  0  0  0
  -24.9558  -27.8535   20.5008 C   0  0  0  0  0  0  0  0  0  0  0  0
  -28.3688  -20.7330   22.1913 C   0  0  0  0  0  0  0  0  0  0  0  0
  -22.4640  -11.6332   22.0441 C   0  0  0  0  0  0  0  0  0  0  0  0
  -27.2482  -27.7086   19.7047 C   0  0  0  0  0  0  0  0  0  0  0  0
  -22.5383   -9.3223   21.6241 C   0  0  0  0  0  0  0  0  0  0  0  0
  -23.4316   -7.2046   20.0430 C   0  0  0  0  0  0  0  0  0  0  0  0
  -21.6172   -8.4813   20.9996 C   0  0  0  0  0  0  0  0  0  0  0  0
  -23.6068  -15.5463   20.9127 C   0  0  0  0  0  0  0  0  0  0  0  0
  -28.3179  -22.5747   20.6873 C   0  0  0  0  0  0  0  0  0  0  0  0
  -28.6114  -22.9808   22.9295 C   0  0  0  0  0  0  0  0  0  0  0  0
  -23.6247  -17.6931   20.4373 C   0  0  0  0  0  0  0  0  0  0  0  0
  -21.3914  -16.8300   21.1557 C   0  0  0  0  0  0  0  0  0  0  0  0
  -23.3213  -29.5319   22.9786 C   0  0  0  0  0  0  0  0  0  0  0  0
  -21.2794  -27.4959   21.4929 C   0  0  0  0  0  0  0  0  0  0  0  0
  -20.8048  -25.0822   19.1275 C   0  0  0  0  0  0  0  0  0  0  0  0
  -29.7324  -17.9684   20.8354 C   0  0  0  0  0  0  0  0  0  0  0  0
  -22.9753  -33.7008   25.9041 C   0  0  0  0  0  0  0  0  0  0  0  0
  -23.7507  -30.0693   20.5532 C   0  0  0  0  0  0  0  0  0  0  0  0
  -23.7387  -27.1535   21.0459 C   0  0  0  0  0  0  0  0  0  0  0  0
  -22.0796  -32.5024   25.6009 C   0  0  0  0  0  0  0  0  0  0  0  0
  -27.5787  -18.4570   17.8648 C   0  0  0  0  0  0  0  0  0  0  0  0
  -22.8654  -31.2017   25.7329 C   0  0  0  0  0  0  0  0  0  0  0  0
  -26.2693  -17.7947   18.2902 C   0  0  0  0  0  0  0  0  0  0  0  0
  -28.7832  -17.8311   18.5613 C   0  0  0  0  0  0  0  0  0  0  0  0
  -27.3683  -17.1491   20.4710 C   0  0  0  0  0  0  0  0  0  0  0  0
  -24.0245  -31.1532   24.7302 C   0  0  1  0  0  0  0  0  0  0  0  0
  -22.8094  -29.4305   21.5696 C   0  0  1  0  0  0  0  0  0  0  0  0
  -26.1307  -17.7874   19.8225 C   0  0  2  0  0  0  0  0  0  0  0  0
  -27.6232  -24.9421   24.1665 C   0  0  0  0  0  0  0  0  0  0  0  0
  -30.1203  -24.7686   23.8681 C   0  0  0  0  0  0  0  0  0  0  0  0
  -19.0351  -23.5811   18.1722 C   0  0  0  0  0  0  0  0  0  0  0  0
  -21.4775  -25.7010   23.9524 C   0  0  0  0  0  0  0  0  0  0  0  0
  -20.4985  -23.8431   22.5893 C   0  0  0  0  0  0  0  0  0  0  0  0
  -19.1746  -25.9169   23.0013 C   0  0  0  0  0  0  0  0  0  0  0  0
  -30.6650  -18.7824   22.9678 C   0  0  0  0  0  0  0  0  0  0  0  0
  -21.0782  -26.2800   16.4350 C   0  0  0  0  0  0  0  0  0  0  0  0
  -28.3706  -25.7115   15.8742 C   0  0  0  0  0  0  0  0  0  0  0  0
  -28.2992  -19.2689   22.4656 C   0  0  0  0  0  0  0  0  0  0  0  0
  -28.1887  -23.1239   19.2890 C   0  0  0  0  0  0  0  0  0  0  0  0
  -29.5255  -23.2554   18.5473 C   0  0  0  0  0  0  0  0  0  0  0  0
  -29.4419  -23.8603   17.1493 C   0  0  0  0  0  0  0  0  0  0  0  0
  -29.9160  -26.2280   17.7575 C   0  0  0  0  0  0  0  0  0  0  0  0
  -29.1929  -27.4122   18.3682 C   0  0  0  0  0  0  0  0  0  1  0  0
  -28.8115  -23.9724   24.0264 C   0  0  0  0  0  0  0  0  0  0  0  0
  -21.1377  -25.9952   21.4100 C   0  0  1  0  0  0  0  0  0  0  0  0
  -19.7458  -24.9202   18.0519 C   0  0  2  0  0  0  0  0  0  0  0  0
  -20.5958  -25.3773   22.7298 C   0  0  0  0  0  0  0  0  0  0  0  0
  -24.8693  -15.7999   20.5579 N   0  0  0  0  0  0  0  0  0  0  0  0
  -28.4975  -23.4776   21.6773 N   0  0  0  0  0  0  0  0  0  0  0  0
  -24.8484  -17.1133   20.2743 N   0  0  0  0  0  0  0  0  0  0  0  0
  -22.5697  -28.0106   21.3036 N   0  0  0  0  0  0  0  0  0  0  0  0
  -28.6063  -17.7976   20.0134 N   0  0  0  0  0  0  0  0  0  0  0  0
  -23.4270  -19.0065   20.1959 N   0  0  0  0  0  0  0  0  0  0  0  0
  -20.6797  -15.6970   21.5731 N   0  0  0  0  0  0  0  0  0  0  0  0
  -23.5353  -30.8280   23.4075 N   0  0  0  0  0  0  0  0  0  0  0  0
  -20.3081  -25.7276   20.2401 N   0  0  0  0  0  0  0  0  0  0  0  0
  -29.5265  -18.5731   22.0847 N   0  0  0  0  0  0  0  0  0  0  0  0
  -20.3647  -25.0040   16.6988 N   0  3  0  0  0  0  0  0  0  0  0  0
  -28.9187  -25.2741   17.2100 N   0  3  1  0  0  0  0  0  0  0  0  0
  -20.7900  -17.9248   21.0404 O   0  0  0  0  0  0  0  0  0  0  0  0
  -23.5069  -28.5101   23.6291 O   0  0  0  0  0  0  0  0  0  0  0  0
  -20.2807  -28.1865   21.7103 O   0  0  0  0  0  0  0  0  0  0  0  0
  -21.9563  -24.6734   18.9954 O   0  0  0  0  0  0  0  0  0  0  0  0
  -30.8591  -17.6100   20.4694 O   0  0  0  0  0  0  0  0  0  0  0  0
  -22.0965  -10.3744   22.4086 O   0  0  0  0  0  0  0  0  0  0  0  0
  -28.3531  -26.9629   19.4308 O   0  0  0  0  0  0  0  0  0  1  0  0
  -23.8606   -6.1888   19.2826 F   0  0  0  0  0  0  0  0  0  0  0  0
  -20.3020   -8.6863   21.1545 F   0  0  0  0  0  0  0  0  0  0  0  0
  1  2  1  0  0  0  0
  1  5  2  0  0  0  0
  2  6  2  0  0  0  0
  3  8  2  0  0  0  0
  3 17  1  0  0  0  0
  4  9  1  0  0  0  0
  4 17  2  0  0  0  0
  5 19  1  0  0  0  0
  6 21  1  0  0  0  0
  7 10  2  0  0  0  0
  7 20  1  0  0  0  0
  8 24  1  0  0  0  0
  9 24  2  0  0  0  0
 10 25  1  0  0  0  0
 11 12  2  0  0  0  0
 11 26  1  0  0  0  0
 12 27  1  0  0  0  0
 13 22  1  0  0  0  0
 13 25  2  0  0  0  0
 14 23  2  0  0  0  0
 14 30  1  0  0  0  0
 15 23  1  0  0  0  0
 15 31  2  0  0  0  0
 16 27  2  0  0  0  0
 16 28  1  0  0  0  0
 17 29  1  0  0  0  0
 18 29  1  0  0  0  0
 18 32  2  0  0  0  0
 18 33  1  0  0  0  0
 19 21  2  0  0  0  0
 19 38  1  0  0  0  0
 20 22  2  0  0  0  0
 20 39  1  0  0  0  0
 21 47  1  0  0  0  0
 22 40  1  0  0  0  0
 23 59  1  0  0  0  0
 24 86  1  0  0  0  0
 25 87  1  0  0  0  0
 26 28  2  0  0  0  0
 26 86  1  0  0  0  0
 27 88  1  0  0  0  0
 28 89  1  0  0  0  0
 29 69  2  0  0  0  0
 30 60  1  0  0  0  0
 30 70  2  0  0  0  0
 31 65  1  0  0  0  0
 31 70  1  0  0  0  0
 32 71  1  0  0  0  0
 32 74  1  0  0  0  0
 33 75  1  0  0  0  0
 33 81  2  0  0  0  0
 34 48  1  0  0  0  0
 34 76  1  0  0  0  0
 34 82  2  0  0  0  0
 35 66  1  0  0  0  0
 35 72  1  0  0  0  0
 35 83  2  0  0  0  0
 36 67  1  0  0  0  0
 36 77  1  0  0  0  0
 36 84  2  0  0  0  0
 37 73  1  0  0  0  0
 37 78  1  0  0  0  0
 37 85  2  0  0  0  0
 38 41  1  0  0  0  0
 39 48  1  0  0  0  0
 40 72  1  0  0  0  0
 41 43  1  0  0  0  0
 42 44  1  0  0  0  0
 42 45  1  0  0  0  0
 43 47  1  0  0  0  0
 44 49  1  0  0  0  0
 45 73  1  0  0  0  0
 46 49  1  0  0  0  0
 46 73  1  0  0  0  0
 47 76  1  0  0  0  0
 48 72  1  0  0  0  0
 49 71  1  0  0  0  0
 50 65  1  0  0  0  0
 51 65  1  0  0  0  0
 52 67  1  0  0  0  0
 53 68  1  0  0  0  0
 54 68  1  0  0  0  0
 55 68  1  0  0  0  0
 56 78  1  0  0  0  0
 57 79  1  0  0  0  0
 58 80  1  0  0  0  0
 59 78  1  0  0  0  0
 60 61  1  0  0  0  0
 61 62  1  0  0  0  0
 62 80  1  0  0  0  0
 63 64  1  0  0  0  0
 63 80  1  0  0  0  0
 64 87  1  0  0  0  0
 66 68  1  0  0  0  0
 66 77  1  0  0  0  0
 67 79  1  0  0  0  0
 69 71  1  0  0  0  0
M  CHG  2  79   1  80   1
M  ISO  4  37 100  64 101  78 100  87 101
M  END
> <Batch ID>
0098

> <Smiles>
CNC(C)C(=O)NC(C(=O)N1Cc2cc([101O:1][101CH2:1]CN(C)CCCc3cc(C[100N:0](C)[100C:0](=O)N4CCCC(n5nc(-c6ccc(Oc7ccc(F)cc7F)cc6)c(C(N)=O)c5N)C4)cc(C(C)C)n3)ccc2CC1C(=O)NC1CCCc2ccccc21)C(C)(C)C

> <Shape>
0.270

> <Color>
0.073

> <Negative vol penalty>
0.000

$$$$

  -OEChem-04052319293D

 88 96  0     1  0  0  0  0  0999 V2000
  -28.4233  -36.3253   25.2790 C   0  0  0  0  0  0  0  0  0  0  0  0
  -28.8982  -35.5469   24.2284 C   0  0  0  0  0  0  0  0  0  0  0  0
  -22.8712  -10.3999   22.3352 C   0  0  0  0  0  0  0  0  0  0  0  0
  -23.3620  -10.0602   19.9941 C   0  0  0  0  0  0  0  0  0  0  0  0
  -27.5536  -35.7717   26.2177 C   0  0  0  0  0  0  0  0  0  0  0  0
  -28.5045  -34.2138   24.1164 C   0  0  0  0  0  0  0  0  0  0  0  0
  -27.1156  -29.1974   19.1948 C   0  0  0  0  0  0  0  0  0  0  0  0
  -22.2737   -9.1408   22.3926 C   0  0  0  0  0  0  0  0  0  0  0  0
  -22.7646   -8.8011   20.0515 C   0  0  0  0  0  0  0  0  0  0  0  0
  -27.4640  -27.8890   18.8623 C   0  0  0  0  0  0  0  0  0  0  0  0
  -23.2721   -5.9174   22.6072 C   0  0  0  0  0  0  0  0  0  0  0  0
  -23.5876   -5.0991   23.6918 C   0  0  0  0  0  0  0  0  0  0  0  0
  -25.8953  -27.0620   20.4977 C   0  0  0  0  0  0  0  0  0  0  0  0
  -27.1637  -21.1468   20.8620 C   0  0  0  0  0  0  0  0  0  0  0  0
  -21.2581   -5.0471   24.3303 C   0  0  0  0  0  0  0  0  0  0  0  0
  -28.3691  -19.2177   19.3548 C   0  0  0  0  0  0  0  0  0  0  0  0
  -23.4153  -10.8597   21.1359 C   0  0  0  0  0  0  0  0  0  0  0  0
  -25.3841  -12.4720   21.3138 C   0  0  0  0  0  0  0  0  0  0  0  0
  -27.1415  -34.4340   26.1117 C   0  0  0  0  0  0  0  0  0  0  0  0
  -26.1606  -29.4485   20.1905 C   0  0  0  0  0  0  0  0  0  0  0  0
  -27.6296  -33.6414   25.0553 C   0  0  0  0  0  0  0  0  0  0  0  0
  -25.5346  -28.3744   20.8391 C   0  0  0  0  0  0  0  0  0  0  0  0
  -26.4000  -20.1023   20.3531 C   0  0  0  0  0  0  0  0  0  0  0  0
  -27.0065  -19.1153   19.5842 C   0  0  0  0  0  0  0  0  0  0  0  0
  -22.2205   -8.3414   21.2508 C   0  0  0  0  0  0  0  0  0  0  0  0
  -26.8560  -26.8211   19.5158 C   0  0  0  0  0  0  0  0  0  0  0  0
  -21.9496   -6.3007   22.3842 C   0  0  0  0  0  0  0  0  0  0  0  0
  -22.5807   -4.6639   24.5534 C   0  0  0  0  0  0  0  0  0  0  0  0
  -20.9426   -5.8655   23.2457 C   0  0  0  0  0  0  0  0  0  0  0  0
  -24.0320  -12.1605   21.0758 C   0  0  0  0  0  0  0  0  0  0  0  0
  -28.5193  -21.1582   20.5756 C   0  0  0  0  0  0  0  0  0  0  0  0
  -25.4604  -13.8313   21.1318 C   0  0  0  0  0  0  0  0  0  0  0  0
  -26.4736  -11.6099   21.6678 C   0  0  0  0  0  0  0  0  0  0  0  0
  -26.1898  -30.9255   23.0050 C   0  0  0  0  0  0  0  0  0  0  0  0
  -22.9965  -30.3664   22.8930 C   0  0  0  0  0  0  0  0  0  0  0  0
  -20.4251  -28.4902   21.6623 C   0  0  0  0  0  0  0  0  0  0  0  0
  -24.0412  -18.1935   17.7741 C   0  0  0  0  0  0  0  0  0  0  0  0
  -26.2374  -33.8663   27.1771 C   0  0  0  0  0  0  0  0  0  0  0  0
  -25.7763  -30.8651   20.5188 C   0  0  0  0  0  0  0  0  0  0  0  0
  -24.4886  -28.5901   21.9011 C   0  0  0  0  0  0  0  0  0  0  0  0
  -25.5731  -32.5519   26.7754 C   0  0  0  0  0  0  0  0  0  0  0  0
  -21.8377  -17.3102   20.6142 C   0  0  0  0  0  0  0  0  0  0  0  0
  -26.5966  -31.6026   26.1607 C   0  0  0  0  0  0  0  0  0  0  0  0
  -22.2838  -15.8887   20.9523 C   0  0  0  0  0  0  0  0  0  0  0  0
  -22.0625  -17.6401   19.1416 C   0  0  0  0  0  0  0  0  0  0  0  0
  -23.9066  -15.9972   19.0196 C   0  0  0  0  0  0  0  0  0  0  0  0
  -27.2059  -32.1985   24.8859 C   0  0  1  0  0  0  0  0  0  0  0  0
  -25.1655  -31.0117   21.9090 C   0  0  1  0  0  0  0  0  0  0  0  0
  -23.7366  -15.6489   20.5060 C   0  0  2  0  0  0  0  0  0  0  0  0
  -24.1879  -21.2763   20.0663 C   0  0  0  0  0  0  0  0  0  0  0  0
  -24.6399  -19.9304   22.1494 C   0  0  0  0  0  0  0  0  0  0  0  0
  -17.9302  -28.2483   21.7812 C   0  0  0  0  0  0  0  0  0  0  0  0
  -29.3125  -22.2801   22.6689 C   0  0  0  0  0  0  0  0  0  0  0  0
  -30.8969  -22.1593   20.7670 C   0  0  0  0  0  0  0  0  0  0  0  0
  -23.2569  -29.0528   25.6347 C   0  0  0  0  0  0  0  0  0  0  0  0
  -21.0060  -28.0172   25.2751 C   0  0  0  0  0  0  0  0  0  0  0  0
  -21.2358  -30.4997   25.3589 C   0  0  0  0  0  0  0  0  0  0  0  0
  -26.0984  -19.2303   16.8951 C   0  0  0  0  0  0  0  0  0  0  0  0
  -20.1191  -29.0243   18.7674 C   0  0  0  0  0  0  0  0  0  0  0  0
  -26.2359  -17.9753   19.0145 C   0  0  0  0  0  0  0  0  0  0  0  0
  -28.9486  -23.9052   19.1098 C   0  0  0  0  0  0  0  0  0  0  0  0
  -28.8909  -23.6913   20.6272 C   0  0  0  0  0  0  0  0  0  0  0  0
  -28.5272  -25.3207   18.7337 C   0  0  0  0  0  0  0  0  0  1  0  0
  -24.9363  -20.0607   20.6439 C   0  0  0  0  0  0  0  0  0  0  0  0
  -22.0915  -29.2433   23.3387 C   0  0  1  0  0  0  0  0  0  0  0  0
  -19.0969  -28.8850   21.0422 C   0  0  2  0  0  0  0  0  0  0  0  0
  -29.3968  -22.2992   21.1217 C   0  0  0  0  0  0  0  0  0  0  0  0
  -21.9186  -29.1989   24.8832 C   0  0  0  0  0  0  0  0  0  0  0  0
  -29.1439  -20.2173   19.8324 N   0  0  0  0  0  0  0  0  0  0  0  0
  -23.3019  -13.2353   20.7662 N   0  0  0  0  0  0  0  0  0  0  0  0
  -24.1985  -14.2355   20.8086 N   0  0  0  0  0  0  0  0  0  0  0  0
  -24.1516  -29.9936   22.1911 N   0  0  0  0  0  0  0  0  0  0  0  0
  -23.4400  -17.3622   18.7334 N   0  0  0  0  0  0  0  0  0  0  0  0
  -26.4831  -14.7082   21.2182 N   0  0  0  0  0  0  0  0  0  0  0  0
  -26.2205  -10.2392   21.8144 N   0  0  0  0  0  0  0  0  0  0  0  0
  -26.2854  -32.0677   23.7768 N   0  0  0  0  0  0  0  0  0  0  0  0
  -20.8430  -29.4084   22.6022 N   0  0  0  0  0  0  0  0  0  0  0  0
  -25.4307  -18.3683   17.8601 N   0  0  0  0  0  0  0  0  0  0  0  0
  -19.0421  -28.4536   19.6168 N   0  3  0  0  0  0  0  0  0  0  0  0
  -27.6337  -12.0445   21.8648 O   0  0  0  0  0  0  0  0  0  0  0  0
  -26.8437  -29.8981   23.1413 O   0  0  0  0  0  0  0  0  0  0  0  0
  -22.6862  -31.5319   23.1517 O   0  0  0  0  0  0  0  0  0  0  0  0
  -21.0295  -27.4674   21.3472 O   0  0  0  0  0  0  0  0  0  0  0  0
  -23.3728  -18.7555   16.8971 O   0  0  0  0  0  0  0  0  0  0  0  0
  -21.6378   -7.1126   21.3066 O   0  0  0  0  0  0  0  0  0  0  0  0
  -27.1948  -25.5431   19.1937 O   0  0  0  0  0  0  0  0  0  1  0  0
  -22.8836   -3.8768   25.5940 F   0  0  0  0  0  0  0  0  0  0  0  0
  -19.6701   -6.2295   23.0359 F   0  0  0  0  0  0  0  0  0  0  0  0
  1  2  1  0  0  0  0
  1  5  2  0  0  0  0
  2  6  2  0  0  0  0
  3  8  2  0  0  0  0
  3 17  1  0  0  0  0
  4  9  1  0  0  0  0
  4 17  2  0  0  0  0
  5 19  1  0  0  0  0
  6 21  1  0  0  0  0
  7 10  2  0  0  0  0
  7 20  1  0  0  0  0
  8 25  1  0  0  0  0
  9 25  2  0  0  0  0
 10 26  1  0  0  0  0
 11 12  2  0  0  0  0
 11 27  1  0  0  0  0
 12 28  1  0  0  0  0
 13 22  1  0  0  0  0
 13 26  2  0  0  0  0
 14 23  2  0  0  0  0
 14 31  1  0  0  0  0
 15 28  2  0  0  0  0
 15 29  1  0  0  0  0
 16 24  2  0  0  0  0
 16 69  1  0  0  0  0
 17 30  1  0  0  0  0
 18 30  1  0  0  0  0
 18 32  2  0  0  0  0
 18 33  1  0  0  0  0
 19 21  2  0  0  0  0
 19 38  1  0  0  0  0
 20 22  2  0  0  0  0
 20 39  1  0  0  0  0
 21 47  1  0  0  0  0
 22 40  1  0  0  0  0
 23 24  1  0  0  0  0
 23 64  1  0  0  0  0
 24 60  1  0  0  0  0
 25 85  1  0  0  0  0
 26 86  1  0  0  0  0
 27 29  2  0  0  0  0
 27 85  1  0  0  0  0
 28 87  1  0  0  0  0
 29 88  1  0  0  0  0
 30 70  2  0  0  0  0
 31 67  1  0  0  0  0
 31 69  2  0  0  0  0
 32 71  1  0  0  0  0
 32 74  1  0  0  0  0
 33 75  1  0  0  0  0
 33 80  2  0  0  0  0
 34 48  1  0  0  0  0
 34 76  1  0  0  0  0
 34 81  2  0  0  0  0
 35 65  1  0  0  0  0
 35 72  1  0  0  0  0
 35 82  2  0  0  0  0
 36 66  1  0  0  0  0
 36 77  1  0  0  0  0
 36 83  2  0  0  0  0
 37 73  1  0  0  0  0
 37 78  1  0  0  0  0
 37 84  2  0  0  0  0
 38 41  1  0  0  0  0
 39 48  1  0  0  0  0
 40 72  1  0  0  0  0
 41 43  1  0  0  0  0
 42 44  1  0  0  0  0
 42 45  1  0  0  0  0
 43 47  1  0  0  0  0
 44 49  1  0  0  0  0
 45 73  1  0  0  0  0
 46 49  1  0  0  0  0
 46 73  1  0  0  0  0
 47 76  1  0  0  0  0
 48 72  1  0  0  0  0
 49 71  1  0  0  0  0
 50 64  1  0  0  0  0
 51 64  1  0  0  0  0
 52 66  1  0  0  0  0
 53 67  1  0  0  0  0
 54 67  1  0  0  0  0
 55 68  1  0  0  0  0
 56 68  1  0  0  0  0
 57 68  1  0  0  0  0
 58 78  1  0  0  0  0
 59 79  1  0  0  0  0
 60 78  1  0  0  0  0
 61 62  1  0  0  0  0
 61 63  1  0  0  0  0
 62 67  1  0  0  0  0
 63 86  1  0  0  0  0
 65 68  1  0  0  0  0
 65 77  1  0  0  0  0
 66 79  1  0  0  0  0
 70 71  1  0  0  0  0
M  CHG  1  79   1
M  ISO  4  37 100  63 101  78 100  86 101
M  END
> <Batch ID>
0098

> <Smiles>
CNC(C)C(=O)NC(C(=O)N1Cc2cc([101O:1][101CH2:1]CCC(C)(C)c3cc(C(C)C)c(C[100N:0](C)[100C:0](=O)N4CCCC(n5nc(-c6ccc(Oc7ccc(F)cc7F)cc6)c(C(N)=O)c5N)C4)cn3)ccc2CC1C(=O)NC1CCCc2ccccc21)C(C)(C)C

> <Shape>
0.314

> <Color>
0.126

> <Negative vol penalty>
0.000

$$$$

  -OEChem-04052319293D

 83 91  0     1  0  0  0  0  0999 V2000
  -20.0393  -19.0985   25.2885 C   0  0  0  0  0  0  0  0  0  0  0  0
  -21.3974  -19.3463   25.1164 C   0  0  0  0  0  0  0  0  0  0  0  0
  -25.6138  -13.7384   22.0148 C   0  0  0  0  0  0  0  0  0  0  0  0
  -27.1974  -13.4510   20.2130 C   0  0  0  0  0  0  0  0  0  0  0  0
  -19.1044  -19.7674   24.4994 C   0  0  0  0  0  0  0  0  0  0  0  0
  -21.8215  -20.2623   24.1544 C   0  0  0  0  0  0  0  0  0  0  0  0
  -26.9848  -25.0712   22.9175 C   0  0  0  0  0  0  0  0  0  0  0  0
  -25.2943  -12.3822   21.9504 C   0  0  0  0  0  0  0  0  0  0  0  0
  -26.8780  -12.0947   20.1486 C   0  0  0  0  0  0  0  0  0  0  0  0
  -27.9290  -25.4131   21.9503 C   0  0  0  0  0  0  0  0  0  0  0  0
  -23.4038  -10.3582   20.0129 C   0  0  0  0  0  0  0  0  0  0  0  0
  -22.0541  -10.0085   20.0529 C   0  0  0  0  0  0  0  0  0  0  0  0
  -26.2202  -26.5682   20.6992 C   0  0  0  0  0  0  0  0  0  0  0  0
  -22.4478   -8.7185   22.0575 C   0  0  0  0  0  0  0  0  0  0  0  0
  -30.6785  -24.6493   18.5740 C   0  0  0  0  0  0  0  0  0  0  0  0
  -26.5653  -14.2728   21.1460 C   0  0  0  0  0  0  0  0  0  0  0  0
  -27.8975  -16.2753   21.9963 C   0  0  0  0  0  0  0  0  0  0  0  0
  -19.5168  -20.6992   23.5339 C   0  0  0  0  0  0  0  0  0  0  0  0
  -25.6468  -25.4666   22.7771 C   0  0  0  0  0  0  0  0  0  0  0  0
  -20.8913  -20.9432   23.3508 C   0  0  0  0  0  0  0  0  0  0  0  0
  -25.2615  -26.2322   21.6673 C   0  0  0  0  0  0  0  0  0  0  0  0
  -25.9264  -11.5603   21.0174 C   0  0  0  0  0  0  0  0  0  0  0  0
  -27.5461  -26.1593   20.8395 C   0  0  0  0  0  0  0  0  0  0  0  0
  -24.2755   -9.8881   20.9951 C   0  0  0  0  0  0  0  0  0  0  0  0
  -21.5761   -9.1887   21.0752 C   0  0  0  0  0  0  0  0  0  0  0  0
  -23.7975   -9.0682   22.0174 C   0  0  0  0  0  0  0  0  0  0  0  0
  -26.8953  -15.6739   21.2116 C   0  0  0  0  0  0  0  0  0  0  0  0
  -29.6452  -24.9348   17.7089 C   0  0  0  0  0  0  0  0  0  0  0  0
  -29.5491  -22.7332   17.0975 C   0  0  0  0  0  0  0  0  0  0  0  0
  -30.5829  -22.4480   17.9620 C   0  0  0  0  0  0  0  0  0  0  0  0
  -27.8069  -17.6138   21.7020 C   0  0  0  0  0  0  0  0  0  0  0  0
  -28.8273  -15.6775   22.9094 C   0  0  0  0  0  0  0  0  0  0  0  0
  -22.8749  -23.9383   22.4860 C   0  0  0  0  0  0  0  0  0  0  0  0
  -21.6465  -26.9328   22.7012 C   0  0  0  0  0  0  0  0  0  0  0  0
  -22.1127  -30.2907   22.3088 C   0  0  0  0  0  0  0  0  0  0  0  0
  -26.6943  -21.1464   17.2525 C   0  0  0  0  0  0  0  0  0  0  0  0
  -18.4717  -21.3626   22.6723 C   0  0  0  0  0  0  0  0  0  0  0  0
  -24.6460  -25.1125   23.8426 C   0  0  0  0  0  0  0  0  0  0  0  0
  -23.8418  -26.6986   21.4800 C   0  0  0  0  0  0  0  0  0  0  0  0
  -18.9850  -22.5952   21.9324 C   0  0  0  0  0  0  0  0  0  0  0  0
  -24.2954  -20.5358   19.8117 C   0  0  0  0  0  0  0  0  0  0  0  0
  -20.3333  -22.3039   21.2813 C   0  0  0  0  0  0  0  0  0  0  0  0
  -24.8144  -19.2757   20.5065 C   0  0  0  0  0  0  0  0  0  0  0  0
  -24.5490  -20.4953   18.3063 C   0  0  0  0  0  0  0  0  0  0  0  0
  -26.4689  -18.9813   18.6157 C   0  0  0  0  0  0  0  0  0  0  0  0
  -21.3893  -21.9481   22.3347 C   0  0  1  0  0  0  0  0  0  0  0  0
  -23.2059  -25.1299   23.3393 C   0  0  1  0  0  0  0  0  0  0  0  0
  -26.2860  -19.0008   20.1430 C   0  0  2  0  0  0  0  0  0  0  0  0
  -30.9291  -20.5104   19.5366 C   0  0  0  0  0  0  0  0  0  0  0  0
  -32.5916  -20.9491   17.6930 C   0  0  0  0  0  0  0  0  0  0  0  0
  -20.9144  -32.4847   22.5274 C   0  0  0  0  0  0  0  0  0  0  0  0
  -20.1439  -26.3678   20.1064 C   0  0  0  0  0  0  0  0  0  0  0  0
  -19.7508  -28.8300   19.8796 C   0  0  0  0  0  0  0  0  0  0  0  0
  -18.8163  -27.5944   21.8348 C   0  0  0  0  0  0  0  0  0  0  0  0
  -24.0208  -31.2615   24.3523 C   0  0  0  0  0  0  0  0  0  0  0  0
  -29.1258  -26.3457   17.5754 C   0  0  0  0  0  0  0  0  0  0  0  0
  -28.9123  -21.6696   16.2698 C   0  0  0  0  0  0  0  0  0  0  0  0
  -27.9952  -26.6424   18.5546 C   0  0  0  0  0  0  0  0  0  1  0  0
  -31.1127  -21.0626   18.1099 C   0  0  0  0  0  0  0  0  0  0  0  0
  -21.3052  -28.0219   21.7131 C   0  0  1  0  0  0  0  0  0  0  0  0
  -21.8032  -31.4640   23.2210 C   0  0  2  0  0  0  0  0  0  0  0  0
  -20.0305  -27.6933   20.8857 C   0  0  0  0  0  0  0  0  0  0  0  0
  -31.1660  -23.4009   18.7160 N   0  0  0  0  0  0  0  0  0  0  0  0
  -26.2177  -16.5578   20.4744 N   0  0  0  0  0  0  0  0  0  0  0  0
  -29.0619  -23.9818   16.9552 N   0  0  0  0  0  0  0  0  0  0  0  0
  -26.7952  -17.7284   20.7945 N   0  0  0  0  0  0  0  0  0  0  0  0
  -22.8988  -26.3217   22.5460 N   0  0  0  0  0  0  0  0  0  0  0  0
  -25.9633  -20.2325   18.0294 N   0  0  0  0  0  0  0  0  0  0  0  0
  -28.4948  -18.6923   22.1335 N   0  0  0  0  0  0  0  0  0  0  0  0
  -28.7837  -14.2888   23.0937 N   0  0  0  0  0  0  0  0  0  0  0  0
  -21.8662  -23.1436   22.9963 N   0  0  0  0  0  0  0  0  0  0  0  0
  -21.2158  -29.2580   22.4828 N   0  0  0  0  0  0  0  0  0  0  0  0
  -28.0297  -20.8248   17.0432 N   0  0  0  0  0  0  0  0  0  0  0  0
  -23.0628  -32.1432   23.6368 N   0  3  0  0  0  0  0  0  0  0  0  0
  -29.6608  -16.3567   23.5555 O   0  0  0  0  0  0  0  0  0  0  0  0
  -23.4882  -23.7543   21.4411 O   0  0  0  0  0  0  0  0  0  0  0  0
  -20.8349  -26.6401   23.5828 O   0  0  0  0  0  0  0  0  0  0  0  0
  -23.0537  -30.2917   21.5182 O   0  0  0  0  0  0  0  0  0  0  0  0
  -26.1952  -22.1755   16.7848 O   0  0  0  0  0  0  0  0  0  0  0  0
  -25.6151  -10.2368   20.9544 O   0  0  0  0  0  0  0  0  0  0  0  0
  -28.4655  -26.4938   19.8936 O   0  0  0  0  0  0  0  0  0  1  0  0
  -20.2797   -8.8542   21.1144 F   0  0  0  0  0  0  0  0  0  0  0  0
  -24.6300   -8.6145   22.9645 F   0  0  0  0  0  0  0  0  0  0  0  0
  1  2  1  0  0  0  0
  1  5  2  0  0  0  0
  2  6  2  0  0  0  0
  3  8  2  0  0  0  0
  3 16  1  0  0  0  0
  4  9  1  0  0  0  0
  4 16  2  0  0  0  0
  5 18  1  0  0  0  0
  6 20  1  0  0  0  0
  7 10  2  0  0  0  0
  7 19  1  0  0  0  0
  8 22  1  0  0  0  0
  9 22  2  0  0  0  0
 10 23  1  0  0  0  0
 11 12  2  0  0  0  0
 11 24  1  0  0  0  0
 12 25  1  0  0  0  0
 13 21  1  0  0  0  0
 13 23  2  0  0  0  0
 14 25  2  0  0  0  0
 14 26  1  0  0  0  0
 15 28  1  0  0  0  0
 15 63  2  0  0  0  0
 16 27  1  0  0  0  0
 17 27  1  0  0  0  0
 17 31  2  0  0  0  0
 17 32  1  0  0  0  0
 18 20  2  0  0  0  0
 18 37  1  0  0  0  0
 19 21  2  0  0  0  0
 19 38  1  0  0  0  0
 20 46  1  0  0  0  0
 21 39  1  0  0  0  0
 22 80  1  0  0  0  0
 23 81  1  0  0  0  0
 24 26  2  0  0  0  0
 24 80  1  0  0  0  0
 25 82  1  0  0  0  0
 26 83  1  0  0  0  0
 27 64  2  0  0  0  0
 28 56  1  0  0  0  0
 28 65  2  0  0  0  0
 29 30  2  0  0  0  0
 29 57  1  0  0  0  0
 29 65  1  0  0  0  0
 30 59  1  0  0  0  0
 30 63  1  0  0  0  0
 31 66  1  0  0  0  0
 31 69  1  0  0  0  0
 32 70  1  0  0  0  0
 32 75  2  0  0  0  0
 33 47  1  0  0  0  0
 33 71  1  0  0  0  0
 33 76  2  0  0  0  0
 34 60  1  0  0  0  0
 34 67  1  0  0  0  0
 34 77  2  0  0  0  0
 35 61  1  0  0  0  0
 35 72  1  0  0  0  0
 35 78  2  0  0  0  0
 36 68  1  0  0  0  0
 36 73  1  0  0  0  0
 36 79  2  0  0  0  0
 37 40  1  0  0  0  0
 38 47  1  0  0  0  0
 39 67  1  0  0  0  0
 40 42  1  0  0  0  0
 41 43  1  0  0  0  0
 41 44  1  0  0  0  0
 42 46  1  0  0  0  0
 43 48  1  0  0  0  0
 44 68  1  0  0  0  0
 45 48  1  0  0  0  0
 45 68  1  0  0  0  0
 46 71  1  0  0  0  0
 47 67  1  0  0  0  0
 48 66  1  0  0  0  0
 49 59  1  0  0  0  0
 50 59  1  0  0  0  0
 51 61  1  0  0  0  0
 52 62  1  0  0  0  0
 53 62  1  0  0  0  0
 54 62  1  0  0  0  0
 55 74  1  0  0  0  0
 56 58  1  0  0  0  0
 57 73  1  0  0  0  0
 58 81  1  0  0  0  0
 60 62  1  0  0  0  0
 60 72  1  0  0  0  0
 61 74  1  0  0  0  0
 64 66  1  0  0  0  0
M  CHG  1  74   1
M  ISO  4  36 100  58 101  73 100  81 101
M  END
> <Batch ID>
0098

> <Smiles>
CNC(C)C(=O)NC(C(=O)N1Cc2cc([101O:1][101CH2:1]Cc3cnc(C(C)C)c(C[100NH:0][100C:0](=O)N4CCCC(n5nc(-c6ccc(Oc7ccc(F)cc7F)cc6)c(C(N)=O)c5N)C4)n3)ccc2CC1C(=O)NC1CCCc2ccccc21)C(C)(C)C

> <Shape>
0.193

> <Color>
0.060

> <Negative vol penalty>
0.000

$$$$

  -OEChem-04052319293D

 87 95  0     1  0  0  0  0  0999 V2000
  -35.4625  -11.8436   26.4866 C   0  0  0  0  0  0  0  0  0  0  0  0
  -34.6430  -11.9078   25.3642 C   0  0  0  0  0  0  0  0  0  0  0  0
  -23.0722   -9.8682   19.9433 C   0  0  0  0  0  0  0  0  0  0  0  0
  -23.8345   -9.8773   22.2359 C   0  0  0  0  0  0  0  0  0  0  0  0
  -36.2855  -12.9215   26.8101 C   0  0  0  0  0  0  0  0  0  0  0  0
  -34.6453  -13.0506   24.5652 C   0  0  0  0  0  0  0  0  0  0  0  0
  -33.8808  -15.0932   17.7417 C   0  0  0  0  0  0  0  0  0  0  0  0
  -22.3291   -8.7149   20.1950 C   0  0  0  0  0  0  0  0  0  0  0  0
  -23.0914   -8.7241   22.4876 C   0  0  0  0  0  0  0  0  0  0  0  0
  -33.1497  -15.9871   16.9605 C   0  0  0  0  0  0  0  0  0  0  0  0
  -19.3827   -7.9182   21.6502 C   0  0  0  0  0  0  0  0  0  0  0  0
  -18.0754   -7.8710   21.1664 C   0  0  0  0  0  0  0  0  0  0  0  0
  -34.6713  -17.7563   17.5718 C   0  0  0  0  0  0  0  0  0  0  0  0
  -18.6344   -5.9272   19.8451 C   0  0  0  0  0  0  0  0  0  0  0  0
  -31.5466  -18.4527   20.0224 C   0  0  0  0  0  0  0  0  0  0  0  0
  -23.8250  -10.4494   20.9638 C   0  0  0  0  0  0  0  0  0  0  0  0
  -24.1656  -12.9746   20.8413 C   0  0  0  0  0  0  0  0  0  0  0  0
  -36.3051  -14.0742   26.0092 C   0  0  0  0  0  0  0  0  0  0  0  0
  -35.0081  -15.5273   18.4538 C   0  0  0  0  0  0  0  0  0  0  0  0
  -35.4684  -14.1455   24.8790 C   0  0  0  0  0  0  0  0  0  0  0  0
  -35.4164  -16.8654   18.3594 C   0  0  0  0  0  0  0  0  0  0  0  0
  -30.6126  -17.9942   20.9250 C   0  0  0  0  0  0  0  0  0  0  0  0
  -22.3386   -8.1429   21.4672 C   0  0  0  0  0  0  0  0  0  0  0  0
  -33.5433  -17.3195   16.8777 C   0  0  0  0  0  0  0  0  0  0  0  0
  -20.3161   -6.9699   21.2314 C   0  0  0  0  0  0  0  0  0  0  0  0
  -29.4400  -18.7700   20.7512 C   0  0  0  0  0  0  0  0  0  0  0  0
  -17.7012   -6.8755   20.2639 C   0  0  0  0  0  0  0  0  0  0  0  0
  -19.9419   -5.9744   20.3289 C   0  0  0  0  0  0  0  0  0  0  0  0
  -24.5932  -11.6404   20.7042 C   0  0  0  0  0  0  0  0  0  0  0  0
  -29.6931  -19.6789   19.7475 C   0  0  0  0  0  0  0  0  0  0  0  0
  -25.2570  -13.7242   20.4763 C   0  0  0  0  0  0  0  0  0  0  0  0
  -22.8953  -13.4902   21.2612 C   0  0  0  0  0  0  0  0  0  0  0  0
  -35.8026  -15.6669   21.5284 C   0  0  0  0  0  0  0  0  0  0  0  0
  -38.6757  -16.5950   20.3424 C   0  0  0  0  0  0  0  0  0  0  0  0
  -40.4354  -17.9891   17.7721 C   0  0  0  0  0  0  0  0  0  0  0  0
  -30.7405  -14.7458   20.6578 C   0  0  0  0  0  0  0  0  0  0  0  0
  -37.1764  -15.2327   26.4255 C   0  0  0  0  0  0  0  0  0  0  0  0
  -35.8015  -14.5447   19.2708 C   0  0  0  0  0  0  0  0  0  0  0  0
  -36.6311  -17.3772   19.0881 C   0  0  0  0  0  0  0  0  0  0  0  0
  -37.3971  -16.2582   25.3165 C   0  0  0  0  0  0  0  0  0  0  0  0
  -29.6013  -12.3589   18.2742 C   0  0  0  0  0  0  0  0  0  0  0  0
  -36.0764  -16.5982   24.6332 C   0  0  0  0  0  0  0  0  0  0  0  0
  -28.1645  -12.0649   18.7089 C   0  0  0  0  0  0  0  0  0  0  0  0
  -30.5197  -12.5811   19.4739 C   0  0  0  0  0  0  0  0  0  0  0  0
  -28.6191  -13.3124   20.8620 C   0  0  0  0  0  0  0  0  0  0  0  0
  -35.4612  -15.3580   23.9735 C   0  0  1  0  0  0  0  0  0  0  0  0
  -36.6335  -15.2099   20.3629 C   0  0  1  0  0  0  0  0  0  0  0  0
  -27.6438  -13.1365   19.6856 C   0  0  2  0  0  0  0  0  0  0  0  0
  -28.8238  -20.7247   19.1675 C   0  0  0  0  0  0  0  0  0  0  0  0
  -42.7635  -18.6510   17.1095 C   0  0  0  0  0  0  0  0  0  0  0  0
  -30.5939  -17.9554   15.2815 C   0  0  0  0  0  0  0  0  0  0  0  0
  -38.4951  -19.0397   22.1593 C   0  0  0  0  0  0  0  0  0  0  0  0
  -40.3066  -20.1007   20.7950 C   0  0  0  0  0  0  0  0  0  0  0  0
  -40.7623  -17.9904   22.0445 C   0  0  0  0  0  0  0  0  0  0  0  0
  -29.4058  -20.2561   22.8360 C   0  0  0  0  0  0  0  0  0  0  0  0
  -26.9359  -20.3868   22.3980 C   0  0  0  0  0  0  0  0  0  0  0  0
  -27.8628  -18.5076   23.7829 C   0  0  0  0  0  0  0  0  0  0  0  0
  -40.4283  -16.1396   15.4616 C   0  0  0  0  0  0  0  0  0  0  0  0
  -30.8068  -16.8974   21.8929 C   0  0  0  0  0  0  0  0  0  0  0  0
  -31.2264  -19.8620   16.8043 C   0  0  0  0  0  0  0  0  0  0  0  0
  -31.6726  -20.2509   18.2212 C   0  0  0  0  0  0  0  0  0  0  0  0
  -39.3055  -17.9181   19.9795 C   0  0  1  0  0  0  0  0  0  0  0  0
  -41.7103  -17.5547   17.0718 C   0  0  2  0  0  0  0  0  0  0  0  0
  -31.4592  -18.3860   16.4590 C   0  0  2  0  0  0  0  0  0  1  0  0
  -39.6933  -18.7533   21.2323 C   0  0  0  0  0  0  0  0  0  0  0  0
  -28.1253  -19.4531   22.6116 C   0  0  0  0  0  0  0  0  0  0  0  0
  -25.8577  -11.5448   20.2846 N   0  0  0  0  0  0  0  0  0  0  0  0
  -30.9766  -19.4766   19.3118 N   0  0  0  0  0  0  0  0  0  0  0  0
  -26.2339  -12.8284   20.1549 N   0  0  0  0  0  0  0  0  0  0  0  0
  -37.3701  -16.3793   19.8790 N   0  0  0  0  0  0  0  0  0  0  0  0
  -29.9696  -13.6101   20.3597 N   0  0  0  0  0  0  0  0  0  0  0  0
  -25.4667  -15.0557   20.4020 N   0  0  0  0  0  0  0  0  0  0  0  0
  -21.8842  -12.5808   21.6003 N   0  0  0  0  0  0  0  0  0  0  0  0
  -36.1335  -15.0630   22.7264 N   0  0  0  0  0  0  0  0  0  0  0  0
  -40.4256  -17.6087   19.0974 N   0  0  0  0  0  0  0  0  0  0  0  0
  -30.1419  -15.6750   21.4998 N   0  0  0  0  0  0  0  0  0  0  0  0
  -41.4304  -17.2205   15.6467 N   0  3  0  0  0  0  0  0  0  0  0  0
  -22.6586  -14.7207   21.3179 O   0  0  0  0  0  0  0  0  0  0  0  0
  -34.9271  -16.5064   21.3539 O   0  0  0  0  0  0  0  0  0  0  0  0
  -39.3210  -15.7800   21.0064 O   0  0  0  0  0  0  0  0  0  0  0  0
  -39.5396  -18.6076   17.2015 O   0  0  0  0  0  0  0  0  0  0  0  0
  -31.8759  -14.9214   20.2028 O   0  0  0  0  0  0  0  0  0  0  0  0
  -21.6135   -7.0176   21.7132 O   0  0  0  0  0  0  0  0  0  0  0  0
  -32.8312  -18.1943   16.1164 O   0  0  0  0  0  0  0  0  0  1  0  0
  -28.2803  -18.6701   21.4180 O   0  0  0  0  0  0  0  0  0  0  0  0
  -16.4452   -6.8294   19.8006 F   0  0  0  0  0  0  0  0  0  0  0  0
  -20.8338   -5.0599   19.9238 F   0  0  0  0  0  0  0  0  0  0  0  0
  1  2  1  0  0  0  0
  1  5  2  0  0  0  0
  2  6  2  0  0  0  0
  3  8  2  0  0  0  0
  3 16  1  0  0  0  0
  4  9  1  0  0  0  0
  4 16  2  0  0  0  0
  5 18  1  0  0  0  0
  6 20  1  0  0  0  0
  7 10  2  0  0  0  0
  7 19  1  0  0  0  0
  8 23  1  0  0  0  0
  9 23  2  0  0  0  0
 10 24  1  0  0  0  0
 11 12  2  0  0  0  0
 11 25  1  0  0  0  0
 12 27  1  0  0  0  0
 13 21  1  0  0  0  0
 13 24  2  0  0  0  0
 14 27  2  0  0  0  0
 14 28  1  0  0  0  0
 15 22  2  0  0  0  0
 15 68  1  0  0  0  0
 16 29  1  0  0  0  0
 17 29  1  0  0  0  0
 17 31  2  0  0  0  0
 17 32  1  0  0  0  0
 18 20  2  0  0  0  0
 18 37  1  0  0  0  0
 19 21  2  0  0  0  0
 19 38  1  0  0  0  0
 20 46  1  0  0  0  0
 21 39  1  0  0  0  0
 22 26  1  0  0  0  0
 22 59  1  0  0  0  0
 23 83  1  0  0  0  0
 24 84  1  0  0  0  0
 25 28  2  0  0  0  0
 25 83  1  0  0  0  0
 26 30  2  0  0  0  0
 26 85  1  0  0  0  0
 27 86  1  0  0  0  0
 28 87  1  0  0  0  0
 29 67  2  0  0  0  0
 30 49  1  0  0  0  0
 30 68  1  0  0  0  0
 31 69  1  0  0  0  0
 31 72  1  0  0  0  0
 32 73  1  0  0  0  0
 32 78  2  0  0  0  0
 33 47  1  0  0  0  0
 33 74  1  0  0  0  0
 33 79  2  0  0  0  0
 34 62  1  0  0  0  0
 34 70  1  0  0  0  0
 34 80  2  0  0  0  0
 35 63  1  0  0  0  0
 35 75  1  0  0  0  0
 35 81  2  0  0  0  0
 36 71  1  0  0  0  0
 36 76  1  0  0  0  0
 36 82  2  0  0  0  0
 37 40  1  0  0  0  0
 38 47  1  0  0  0  0
 39 70  1  0  0  0  0
 40 42  1  0  0  0  0
 41 43  1  0  0  0  0
 41 44  1  0  0  0  0
 42 46  1  0  0  0  0
 43 48  1  0  0  0  0
 44 71  1  0  0  0  0
 45 48  1  0  0  0  0
 45 71  1  0  0  0  0
 46 74  1  0  0  0  0
 47 70  1  0  0  0  0
 48 69  1  0  0  0  0
 50 63  1  0  0  0  0
 51 64  1  0  0  0  0
 52 65  1  0  0  0  0
 53 65  1  0  0  0  0
 54 65  1  0  0  0  0
 55 66  1  0  0  0  0
 56 66  1  0  0  0  0
 57 66  1  0  0  0  0
 58 77  1  0  0  0  0
 59 76  1  0  0  0  0
 60 61  1  0  0  0  0
 60 64  1  0  0  0  0
 61 68  1  0  0  0  0
 62 65  1  0  0  0  0
 62 75  1  0  0  0  0
 63 77  1  0  0  0  0
 64 84  1  0  0  0  0
 66 85  1  0  0  0  0
 67 69  1  0  0  0  0
M  CHG  1  77   1
M  ISO  4  36 100  64 101  76 100  84 101
M  END
> <Batch ID>
0098

> <Smiles>
CNC(C)C(=O)NC(C(=O)N1Cc2cc([101O:1][101CH:1](C)CCn3cc(C[100NH:0][100C:0](=O)N4CCCC(n5nc(-c6ccc(Oc7ccc(F)cc7F)cc6)c(C(N)=O)c5N)C4)c(OC(C)(C)C)c3C)ccc2CC1C(=O)NC1CCCc2ccccc21)C(C)(C)C

> <Shape>
0.172

> <Color>
0.191

> <Negative vol penalty>
0.000

$$$$

  -OEChem-04052319292D

  0  0  0     0  0  0  0  0  0999 V2000
M  END
$$$$

  -OEChem-04052319293D

 89 97  0     1  0  0  0  0  0999 V2000
  -17.4817  -26.1657   22.4560 C   0  0  0  0  0  0  0  0  0  0  0  0
  -18.7319  -25.6572   22.7935 C   0  0  0  0  0  0  0  0  0  0  0  0
  -26.6921  -13.2189   21.4491 C   0  0  0  0  0  0  0  0  0  0  0  0
  -25.3237  -14.3913   19.8396 C   0  0  0  0  0  0  0  0  0  0  0  0
  -17.3841  -27.3823   21.7820 C   0  0  0  0  0  0  0  0  0  0  0  0
  -19.8853  -26.3646   22.4563 C   0  0  0  0  0  0  0  0  0  0  0  0
  -25.0803  -26.6895   25.6831 C   0  0  0  0  0  0  0  0  0  0  0  0
  -25.8242  -12.1285   21.3927 C   0  0  0  0  0  0  0  0  0  0  0  0
  -24.4558  -13.3008   19.7832 C   0  0  0  0  0  0  0  0  0  0  0  0
  -26.2946  -26.0130   25.5764 C   0  0  0  0  0  0  0  0  0  0  0  0
  -23.7711   -9.1778   21.9423 C   0  0  0  0  0  0  0  0  0  0  0  0
  -23.3901   -8.5872   23.1472 C   0  0  0  0  0  0  0  0  0  0  0  0
  -27.1942  -27.8430   24.2876 C   0  0  0  0  0  0  0  0  0  0  0  0
  -22.4286  -10.6825   23.8701 C   0  0  0  0  0  0  0  0  0  0  0  0
  -27.7588  -24.6921   20.5701 C   0  0  0  0  0  0  0  0  0  0  0  0
  -26.4419  -14.3504   20.6726 C   0  0  0  0  0  0  0  0  0  0  0  0
  -28.4731  -15.7030   19.9296 C   0  0  0  0  0  0  0  0  0  0  0  0
  -18.5364  -28.1097   21.4449 C   0  0  0  0  0  0  0  0  0  0  0  0
  -24.9100  -27.9453   25.0825 C   0  0  0  0  0  0  0  0  0  0  0  0
  -19.8030  -27.5914   21.7760 C   0  0  0  0  0  0  0  0  0  0  0  0
  -25.9775  -28.5346   24.3903 C   0  0  0  0  0  0  0  0  0  0  0  0
  -27.0996  -23.5786   20.0982 C   0  0  0  0  0  0  0  0  0  0  0  0
  -28.0767  -22.7040   19.5621 C   0  0  0  0  0  0  0  0  0  0  0  0
  -24.7060  -12.1694   20.5598 C   0  0  0  0  0  0  0  0  0  0  0  0
  -27.3509  -26.5884   24.8761 C   0  0  0  0  0  0  0  0  0  0  0  0
  -23.4808  -10.5207   21.7014 C   0  0  0  0  0  0  0  0  0  0  0  0
  -22.7189   -9.3395   24.1111 C   0  0  0  0  0  0  0  0  0  0  0  0
  -22.8096  -11.2730   22.6652 C   0  0  0  0  0  0  0  0  0  0  0  0
  -27.3378  -15.4773   20.7308 C   0  0  0  0  0  0  0  0  0  0  0  0
  -29.3034  -23.3097   19.7229 C   0  0  0  0  0  0  0  0  0  0  0  0
  -28.9748  -16.9016   20.3749 C   0  0  0  0  0  0  0  0  0  0  0  0
  -29.0248  -14.9010   18.8770 C   0  0  0  0  0  0  0  0  0  0  0  0
  -23.0062  -29.1095   22.8189 C   0  0  0  0  0  0  0  0  0  0  0  0
  -24.3681  -31.9283   23.6686 C   0  0  0  0  0  0  0  0  0  0  0  0
  -27.0204  -33.5601   25.0648 C   0  0  0  0  0  0  0  0  0  0  0  0
  -26.4801  -21.5927   23.1357 C   0  0  0  0  0  0  0  0  0  0  0  0
  -18.3827  -29.3972   20.6746 C   0  0  0  0  0  0  0  0  0  0  0  0
  -23.6024  -28.6740   25.2295 C   0  0  0  0  0  0  0  0  0  0  0  0
  -25.8524  -29.8896   23.7447 C   0  0  0  0  0  0  0  0  0  0  0  0
  -19.6373  -30.2668   20.6852 C   0  0  0  0  0  0  0  0  0  0  0  0
  -29.2185  -19.6343   24.2945 C   0  0  0  0  0  0  0  0  0  0  0  0
  -20.8730  -29.4249   20.3834 C   0  0  0  0  0  0  0  0  0  0  0  0
  -29.1495  -18.3673   23.4403 C   0  0  0  0  0  0  0  0  0  0  0  0
  -27.8265  -20.1580   24.6409 C   0  0  0  0  0  0  0  0  0  0  0  0
  -26.8704  -19.1054   22.6280 C   0  0  0  0  0  0  0  0  0  0  0  0
  -21.0762  -28.3414   21.4494 C   0  0  1  0  0  0  0  0  0  0  0  0
  -23.3754  -29.7192   24.1417 C   0  0  1  0  0  0  0  0  0  0  0  0
  -28.2500  -18.5712   22.2064 C   0  0  2  0  0  0  0  0  0  0  0  0
  -31.2076  -21.7864   20.3065 C   0  0  0  0  0  0  0  0  0  0  0  0
  -27.8629  -35.8661   25.5844 C   0  0  0  0  0  0  0  0  0  0  0  0
  -28.7768  -22.0022   16.6568 C   0  0  0  0  0  0  0  0  0  0  0  0
  -27.2715  -20.0152   16.8786 C   0  0  0  0  0  0  0  0  0  0  0  0
  -31.1281  -24.6282   24.3996 C   0  0  0  0  0  0  0  0  0  0  0  0
  -25.0733  -32.3308   20.7274 C   0  0  0  0  0  0  0  0  0  0  0  0
  -26.6925  -34.1061   21.4306 C   0  0  0  0  0  0  0  0  0  0  0  0
  -24.2577  -34.3863   21.8954 C   0  0  0  0  0  0  0  0  0  0  0  0
  -27.0951  -33.0039   27.9707 C   0  0  0  0  0  0  0  0  0  0  0  0
  -25.6417  -23.3500   20.1471 C   0  0  0  0  0  0  0  0  0  0  0  0
  -27.8286  -21.3852   18.9439 C   0  0  0  0  0  0  0  0  0  0  0  0
  -30.6544  -22.8430   19.3456 C   0  0  0  0  0  0  0  0  0  0  0  0
  -30.9844  -25.1227   21.9457 C   0  0  0  0  0  0  0  0  0  0  0  0
  -30.1674  -25.5148   20.7068 C   0  0  0  0  0  0  0  0  0  0  0  0
  -25.1208  -22.9032   21.5251 C   0  0  0  0  0  0  0  0  0  0  0  0
  -29.3107  -26.1707   23.5953 C   0  0  0  0  0  0  0  0  0  1  0  0
  -25.5885  -32.7012   23.2301 C   0  0  1  0  0  0  0  0  0  0  0  0
  -27.0900  -34.6640   26.1045 C   0  0  2  0  0  0  0  0  0  0  0  0
  -27.5794  -21.4174   17.4100 C   0  0  0  0  0  0  0  0  0  0  0  0
  -30.1690  -24.9475   23.2458 C   0  0  2  0  0  0  0  0  0  0  0  0
  -25.4051  -33.3547   21.8313 C   0  0  0  0  0  0  0  0  0  0  0  0
  -27.1303  -16.4540   21.6179 N   0  0  0  0  0  0  0  0  0  0  0  0
  -29.0980  -24.5175   20.3370 N   0  0  0  0  0  0  0  0  0  0  0  0
  -28.1421  -17.3050   21.3769 N   0  0  0  0  0  0  0  0  0  0  0  0
  -24.5521  -30.5597   23.9110 N   0  0  0  0  0  0  0  0  0  0  0  0
  -27.0248  -20.3311   23.4271 N   0  0  0  0  0  0  0  0  0  0  0  0
  -30.0426  -17.6392   20.0032 N   0  0  0  0  0  0  0  0  0  0  0  0
  -28.3843  -13.6989   18.5470 N   0  0  0  0  0  0  0  0  0  0  0  0
  -21.6490  -28.9137   22.6489 N   0  0  0  0  0  0  0  0  0  0  0  0
  -25.8768  -33.6503   24.2999 N   0  0  0  0  0  0  0  0  0  0  0  0
  -25.7390  -21.6715   21.9629 N   0  0  0  0  0  0  0  0  0  0  0  0
  -27.7631  -34.1709   27.3393 N   0  3  0  0  0  0  0  0  0  0  0  0
  -30.0648  -15.2324   18.2586 O   0  0  0  0  0  0  0  0  0  0  0  0
  -23.8874  -28.8383   22.0117 O   0  0  0  0  0  0  0  0  0  0  0  0
  -23.2928  -32.5187   23.7985 O   0  0  0  0  0  0  0  0  0  0  0  0
  -27.8950  -32.7055   24.9410 O   0  0  0  0  0  0  0  0  0  0  0  0
  -26.6467  -22.5771   23.8637 O   0  0  0  0  0  0  0  0  0  0  0  0
  -23.8590  -11.1054   20.5044 O   0  0  0  0  0  0  0  0  0  0  0  0
  -28.5370  -25.9298   24.7699 O   0  0  0  0  0  0  0  0  0  1  0  0
  -22.3517   -8.7719   25.2674 F   0  0  0  0  0  0  0  0  0  0  0  0
  -22.5269  -12.5633   22.4390 F   0  0  0  0  0  0  0  0  0  0  0  0
  1  2  1  0  0  0  0
  1  5  2  0  0  0  0
  2  6  2  0  0  0  0
  3  8  2  0  0  0  0
  3 16  1  0  0  0  0
  4  9  1  0  0  0  0
  4 16  2  0  0  0  0
  5 18  1  0  0  0  0
  6 20  1  0  0  0  0
  7 10  2  0  0  0  0
  7 19  1  0  0  0  0
  8 24  1  0  0  0  0
  9 24  2  0  0  0  0
 10 25  1  0  0  0  0
 11 12  2  0  0  0  0
 11 26  1  0  0  0  0
 12 27  1  0  0  0  0
 13 21  1  0  0  0  0
 13 25  2  0  0  0  0
 14 27  2  0  0  0  0
 14 28  1  0  0  0  0
 15 22  2  0  0  0  0
 15 71  1  0  0  0  0
 16 29  1  0  0  0  0
 17 29  1  0  0  0  0
 17 31  2  0  0  0  0
 17 32  1  0  0  0  0
 18 20  2  0  0  0  0
 18 37  1  0  0  0  0
 19 21  2  0  0  0  0
 19 38  1  0  0  0  0
 20 46  1  0  0  0  0
 21 39  1  0  0  0  0
 22 23  1  0  0  0  0
 22 58  1  0  0  0  0
 23 30  2  0  0  0  0
 23 59  1  0  0  0  0
 24 86  1  0  0  0  0
 25 87  1  0  0  0  0
 26 28  2  0  0  0  0
 26 86  1  0  0  0  0
 27 88  1  0  0  0  0
 28 89  1  0  0  0  0
 29 70  2  0  0  0  0
 30 60  1  0  0  0  0
 30 71  1  0  0  0  0
 31 72  1  0  0  0  0
 31 75  1  0  0  0  0
 32 76  1  0  0  0  0
 32 81  2  0  0  0  0
 33 47  1  0  0  0  0
 33 77  1  0  0  0  0
 33 82  2  0  0  0  0
 34 65  1  0  0  0  0
 34 73  1  0  0  0  0
 34 83  2  0  0  0  0
 35 66  1  0  0  0  0
 35 78  1  0  0  0  0
 35 84  2  0  0  0  0
 36 74  1  0  0  0  0
 36 79  1  0  0  0  0
 36 85  2  0  0  0  0
 37 40  1  0  0  0  0
 38 47  1  0  0  0  0
 39 73  1  0  0  0  0
 40 42  1  0  0  0  0
 41 43  1  0  0  0  0
 41 44  1  0  0  0  0
 42 46  1  0  0  0  0
 43 48  1  0  0  0  0
 44 74  1  0  0  0  0
 45 48  1  0  0  0  0
 45 74  1  0  0  0  0
 46 77  1  0  0  0  0
 47 73  1  0  0  0  0
 48 72  1  0  0  0  0
 49 60  1  0  0  0  0
 50 66  1  0  0  0  0
 51 67  1  0  0  0  0
 52 67  1  0  0  0  0
 53 68  1  0  0  0  0
 54 69  1  0  0  0  0
 55 69  1  0  0  0  0
 56 69  1  0  0  0  0
 57 80  1  0  0  0  0
 58 63  1  0  0  0  0
 59 67  1  0  0  0  0
 61 62  1  0  0  0  0
 61 68  1  0  0  0  0
 62 71  1  0  0  0  0
 63 79  1  0  0  0  0
 64 68  1  0  0  0  0
 64 87  1  0  0  0  0
 65 69  1  0  0  0  0
 65 78  1  0  0  0  0
 66 80  1  0  0  0  0
 70 72  1  0  0  0  0
M  CHG  1  80   1
M  ISO  4  36 100  64 101  79 100  87 101
M  END
> <Batch ID>
0098

> <Smiles>
CCc1c(CC(C)C)c(CC[100NH:0][100C:0](=O)N2CCCC(n3nc(-c4ccc(Oc5ccc(F)cc5F)cc4)c(C(N)=O)c3N)C2)cn1CCC(C)[101CH2:1][101O:1]c1ccc2c(c1)CN(C(=O)C(NC(=O)C(C)NC)C(C)(C)C)C(C(=O)NC1CCCc3ccccc31)C2

> <Shape>
0.245

> <Color>
0.084

> <Negative vol penalty>
0.000

$$$$

  -OEChem-04052319293D

 85 93  0     1  0  0  0  0  0999 V2000
  -32.6090  -31.0086   16.1657 C   0  0  0  0  0  0  0  0  0  0  0  0
  -31.5566  -30.1985   15.7515 C   0  0  0  0  0  0  0  0  0  0  0  0
  -26.5322  -12.8758   21.5432 C   0  0  0  0  0  0  0  0  0  0  0  0
  -26.3075  -13.6840   19.2775 C   0  0  0  0  0  0  0  0  0  0  0  0
  -33.0233  -30.9848   17.4968 C   0  0  0  0  0  0  0  0  0  0  0  0
  -30.9186  -29.3633   16.6679 C   0  0  0  0  0  0  0  0  0  0  0  0
  -24.4875  -26.5739   18.1434 C   0  0  0  0  0  0  0  0  0  0  0  0
  -25.2501  -12.3305   21.4758 C   0  0  0  0  0  0  0  0  0  0  0  0
  -25.0254  -13.1387   19.2101 C   0  0  0  0  0  0  0  0  0  0  0  0
  -23.8781  -25.3451   18.3933 C   0  0  0  0  0  0  0  0  0  0  0  0
  -23.7770   -9.5841   20.1644 C   0  0  0  0  0  0  0  0  0  0  0  0
  -23.5970   -8.2889   20.6498 C   0  0  0  0  0  0  0  0  0  0  0  0
  -24.6275  -25.4460   20.6840 C   0  0  0  0  0  0  0  0  0  0  0  0
  -26.1247  -20.2176   18.0692 C   0  0  0  0  0  0  0  0  0  0  0  0
  -21.9961   -9.1148   22.2598 C   0  0  0  0  0  0  0  0  0  0  0  0
  -26.9413  -21.8699   19.3626 C   0  0  0  0  0  0  0  0  0  0  0  0
  -27.0609  -13.5526   20.4440 C   0  0  0  0  0  0  0  0  0  0  0  0
  -29.5961  -13.4871   20.1684 C   0  0  0  0  0  0  0  0  0  0  0  0
  -32.3838  -30.1560   18.4321 C   0  0  0  0  0  0  0  0  0  0  0  0
  -25.1820  -27.2439   19.1609 C   0  0  0  0  0  0  0  0  0  0  0  0
  -31.3257  -29.3274   18.0124 C   0  0  0  0  0  0  0  0  0  0  0  0
  -25.2427  -26.6843   20.4452 C   0  0  0  0  0  0  0  0  0  0  0  0
  -25.8725  -21.0138   19.2135 C   0  0  0  0  0  0  0  0  0  0  0  0
  -24.4967  -12.4620   20.3093 C   0  0  0  0  0  0  0  0  0  0  0  0
  -23.9505  -24.7796   19.6629 C   0  0  0  0  0  0  0  0  0  0  0  0
  -23.0665  -10.6447   20.7267 C   0  0  0  0  0  0  0  0  0  0  0  0
  -22.7066   -8.0542   21.6975 C   0  0  0  0  0  0  0  0  0  0  0  0
  -22.1761  -10.4100   21.7744 C   0  0  0  0  0  0  0  0  0  0  0  0
  -28.3850  -14.1165   20.5132 C   0  0  0  0  0  0  0  0  0  0  0  0
  -27.3400  -20.6111   17.5540 C   0  0  0  0  0  0  0  0  0  0  0  0
  -30.5580  -14.4371   20.4110 C   0  0  0  0  0  0  0  0  0  0  0  0
  -29.8307  -12.1623   19.6730 C   0  0  0  0  0  0  0  0  0  0  0  0
  -28.1942  -28.1632   19.5910 C   0  0  0  0  0  0  0  0  0  0  0  0
  -26.9721  -29.5873   22.2369 C   0  0  0  0  0  0  0  0  0  0  0  0
  -24.5097  -29.6871   24.5977 C   0  0  0  0  0  0  0  0  0  0  0  0
  -30.4266  -20.4207   20.5856 C   0  0  0  0  0  0  0  0  0  0  0  0
  -32.8979  -30.1295   19.8497 C   0  0  0  0  0  0  0  0  0  0  0  0
  -25.8112  -28.5814   18.8822 C   0  0  0  0  0  0  0  0  0  0  0  0
  -25.9589  -27.3729   21.5772 C   0  0  0  0  0  0  0  0  0  0  0  0
  -31.9245  -29.4937   20.8388 C   0  0  0  0  0  0  0  0  0  0  0  0
  -31.4626  -18.2252   23.1900 C   0  0  0  0  0  0  0  0  0  0  0  0
  -31.3734  -28.1858   20.2796 C   0  0  0  0  0  0  0  0  0  0  0  0
  -30.9006  -16.8664   22.7682 C   0  0  0  0  0  0  0  0  0  0  0  0
  -30.5149  -19.3658   22.8252 C   0  0  0  0  0  0  0  0  0  0  0  0
  -29.5432  -18.0427   20.9870 C   0  0  0  0  0  0  0  0  0  0  0  0
  -30.5923  -28.4262   18.9821 C   0  0  1  0  0  0  0  0  0  0  0  0
  -26.9303  -28.9303   19.8586 C   0  0  1  0  0  0  0  0  0  0  0  0
  -30.4889  -16.8663   21.2837 C   0  0  2  0  0  0  0  0  0  0  0  0
  -28.0749  -20.1133   16.3727 C   0  0  0  0  0  0  0  0  0  0  0  0
  -24.5700  -19.5698   20.7973 C   0  0  0  0  0  0  0  0  0  0  0  0
  -23.8026  -30.9384   26.6548 C   0  0  0  0  0  0  0  0  0  0  0  0
  -29.1067  -28.1271   23.8559 C   0  0  0  0  0  0  0  0  0  0  0  0
  -27.7898  -28.6389   25.9229 C   0  0  0  0  0  0  0  0  0  0  0  0
  -28.7166  -30.4997   24.5440 C   0  0  0  0  0  0  0  0  0  0  0  0
  -29.1898  -23.0498   16.8030 C   0  0  0  0  0  0  0  0  0  0  0  0
  -29.2197  -23.3927   19.2601 C   0  0  0  0  0  0  0  0  0  0  0  0
  -21.9777  -30.5591   23.3379 C   0  0  0  0  0  0  0  0  0  0  0  0
  -23.3344  -21.2418   19.3672 C   0  0  0  0  0  0  0  0  0  0  0  0
  -30.2820  -21.3357   18.2832 C   0  0  0  0  0  0  0  0  0  0  0  0
  -23.2663  -22.6641   18.8188 C   0  0  0  0  0  0  0  0  0  1  0  0
  -24.6494  -20.9389   20.1111 C   0  0  2  0  0  0  0  0  0  0  0  0
  -26.7519  -29.1695   23.6707 C   0  0  1  0  0  0  0  0  0  0  0  0
  -23.6823  -30.8375   25.1421 C   0  0  2  0  0  0  0  0  0  0  0  0
  -28.0793  -29.0947   24.4767 C   0  0  0  0  0  0  0  0  0  0  0  0
  -29.0809  -22.3127   18.1603 C   0  0  0  0  0  0  0  0  0  0  0  0
  -28.5589  -15.3694   20.9423 N   0  0  0  0  0  0  0  0  0  0  0  0
  -27.8273  -21.6159   18.3484 N   0  0  0  0  0  0  0  0  0  0  0  0
  -29.8905  -15.5349   20.8689 N   0  0  0  0  0  0  0  0  0  0  0  0
  -26.5634  -28.6757   21.2532 N   0  0  0  0  0  0  0  0  0  0  0  0
  -30.1648  -19.3094   21.4039 N   0  0  0  0  0  0  0  0  0  0  0  0
  -31.9011  -14.4321   20.2753 N   0  0  0  0  0  0  0  0  0  0  0  0
  -28.7300  -11.3161   19.4811 N   0  0  0  0  0  0  0  0  0  0  0  0
  -29.2788  -28.9588   19.2742 N   0  0  0  0  0  0  0  0  0  0  0  0
  -25.7706  -30.0986   24.2205 N   0  0  0  0  0  0  0  0  0  0  0  0
  -30.0697  -20.2816   19.2499 N   0  0  0  0  0  0  0  0  0  0  0  0
  -22.2448  -30.6507   24.7964 N   0  3  0  0  0  0  0  0  0  0  0  0
  -30.9838  -11.7358   19.4239 O   0  0  0  0  0  0  0  0  0  0  0  0
  -28.1865  -26.9402   19.6677 O   0  0  0  0  0  0  0  0  0  0  0  0
  -27.4812  -30.6853   21.9983 O   0  0  0  0  0  0  0  0  0  0  0  0
  -24.0818  -28.5377   24.5187 O   0  0  0  0  0  0  0  0  0  0  0  0
  -30.9451  -21.4579   21.0126 O   0  0  0  0  0  0  0  0  0  0  0  0
  -23.2457  -11.9298   20.2431 O   0  0  0  0  0  0  0  0  0  0  0  0
  -23.3570  -23.5800   19.9093 O   0  0  0  0  0  0  0  0  0  1  0  0
  -22.5327   -6.8102   22.1626 F   0  0  0  0  0  0  0  0  0  0  0  0
  -21.4899  -11.4247   22.3178 F   0  0  0  0  0  0  0  0  0  0  0  0
  1  2  1  0  0  0  0
  1  5  2  0  0  0  0
  2  6  2  0  0  0  0
  3  8  2  0  0  0  0
  3 17  1  0  0  0  0
  4  9  1  0  0  0  0
  4 17  2  0  0  0  0
  5 19  1  0  0  0  0
  6 21  1  0  0  0  0
  7 10  2  0  0  0  0
  7 20  1  0  0  0  0
  8 24  1  0  0  0  0
  9 24  2  0  0  0  0
 10 25  1  0  0  0  0
 11 12  2  0  0  0  0
 11 26  1  0  0  0  0
 12 27  1  0  0  0  0
 13 22  1  0  0  0  0
 13 25  2  0  0  0  0
 14 23  1  0  0  0  0
 14 30  2  0  0  0  0
 15 27  2  0  0  0  0
 15 28  1  0  0  0  0
 16 23  2  0  0  0  0
 16 67  1  0  0  0  0
 17 29  1  0  0  0  0
 18 29  1  0  0  0  0
 18 31  2  0  0  0  0
 18 32  1  0  0  0  0
 19 21  2  0  0  0  0
 19 37  1  0  0  0  0
 20 22  2  0  0  0  0
 20 38  1  0  0  0  0
 21 46  1  0  0  0  0
 22 39  1  0  0  0  0
 23 61  1  0  0  0  0
 24 82  1  0  0  0  0
 25 83  1  0  0  0  0
 26 28  2  0  0  0  0
 26 82  1  0  0  0  0
 27 84  1  0  0  0  0
 28 85  1  0  0  0  0
 29 66  2  0  0  0  0
 30 49  1  0  0  0  0
 30 67  1  0  0  0  0
 31 68  1  0  0  0  0
 31 71  1  0  0  0  0
 32 72  1  0  0  0  0
 32 77  2  0  0  0  0
 33 47  1  0  0  0  0
 33 73  1  0  0  0  0
 33 78  2  0  0  0  0
 34 62  1  0  0  0  0
 34 69  1  0  0  0  0
 34 79  2  0  0  0  0
 35 63  1  0  0  0  0
 35 74  1  0  0  0  0
 35 80  2  0  0  0  0
 36 70  1  0  0  0  0
 36 75  1  0  0  0  0
 36 81  2  0  0  0  0
 37 40  1  0  0  0  0
 38 47  1  0  0  0  0
 39 69  1  0  0  0  0
 40 42  1  0  0  0  0
 41 43  1  0  0  0  0
 41 44  1  0  0  0  0
 42 46  1  0  0  0  0
 43 48  1  0  0  0  0
 44 70  1  0  0  0  0
 45 48  1  0  0  0  0
 45 70  1  0  0  0  0
 46 73  1  0  0  0  0
 47 69  1  0  0  0  0
 48 68  1  0  0  0  0
 50 61  1  0  0  0  0
 51 63  1  0  0  0  0
 52 64  1  0  0  0  0
 53 64  1  0  0  0  0
 54 64  1  0  0  0  0
 55 65  1  0  0  0  0
 56 65  1  0  0  0  0
 57 76  1  0  0  0  0
 58 60  1  0  0  0  0
 58 61  1  0  0  0  0
 59 65  1  0  0  0  0
 59 75  1  0  0  0  0
 60 83  1  0  0  0  0
 62 64  1  0  0  0  0
 62 74  1  0  0  0  0
 63 76  1  0  0  0  0
 65 67  1  0  0  0  0
 66 68  1  0  0  0  0
M  CHG  1  76   1
M  ISO  4  36 100  60 101  75 100  83 101
M  END
> <Batch ID>
0098

> <Smiles>
CNC(C)C(=O)NC(C(=O)N1Cc2cc([101O:1][101CH2:1]CC(C)c3cc(C)n(C(C)(C)C[100NH:0][100C:0](=O)N4CCCC(n5nc(-c6ccc(Oc7ccc(F)cc7F)cc6)c(C(N)=O)c5N)C4)c3)ccc2CC1C(=O)NC1CCCc2ccccc21)C(C)(C)C

> <Shape>
0.250

> <Color>
0.082

> <Negative vol penalty>
0.000

$$$$

  -OEChem-04052319293D

 87 96  0     1  0  0  0  0  0999 V2000
  -22.6087  -12.4335   24.1951 C   0  0  0  0  0  0  0  0  0  0  0  0
  -22.9428  -13.7834   24.2317 C   0  0  0  0  0  0  0  0  0  0  0  0
  -29.0399  -17.2915   19.5435 C   0  0  0  0  0  0  0  0  0  0  0  0
  -30.6125  -17.9030   21.2727 C   0  0  0  0  0  0  0  0  0  0  0  0
  -22.4501  -11.7888   22.9691 C   0  0  0  0  0  0  0  0  0  0  0  0
  -23.1197  -14.4892   23.0422 C   0  0  0  0  0  0  0  0  0  0  0  0
  -21.7189  -20.3596   22.0015 C   0  0  0  0  0  0  0  0  0  0  0  0
  -29.7098  -16.0816   19.3621 C   0  0  0  0  0  0  0  0  0  0  0  0
  -31.2824  -16.6930   21.0913 C   0  0  0  0  0  0  0  0  0  0  0  0
  -22.4892  -21.5217   22.0002 C   0  0  0  0  0  0  0  0  0  0  0  0
  -29.8796  -13.0737   20.8972 C   0  0  0  0  0  0  0  0  0  0  0  0
  -29.1091  -11.9160   20.7892 C   0  0  0  0  0  0  0  0  0  0  0  0
  -22.7394  -21.3461   19.6074 C   0  0  0  0  0  0  0  0  0  0  0  0
  -25.8934  -28.8549   19.1713 C   0  0  0  0  0  0  0  0  0  0  0  0
  -30.0195  -11.5156   18.5873 C   0  0  0  0  0  0  0  0  0  0  0  0
  -29.4913  -18.2022   20.4988 C   0  0  0  0  0  0  0  0  0  0  0  0
  -27.7322  -19.7097   21.5668 C   0  0  0  0  0  0  0  0  0  0  0  0
  -22.6157  -12.4894   21.7639 C   0  0  0  0  0  0  0  0  0  0  0  0
  -21.4618  -19.6748   20.8050 C   0  0  0  0  0  0  0  0  0  0  0  0
  -22.9646  -13.8530   21.7989 C   0  0  0  0  0  0  0  0  0  0  0  0
  -21.9635  -20.1770   19.5958 C   0  0  0  0  0  0  0  0  0  0  0  0
  -26.4578  -29.1175   20.4440 C   0  0  0  0  0  0  0  0  0  0  0  0
  -30.8310  -15.7823   20.1360 C   0  0  0  0  0  0  0  0  0  0  0  0
  -23.0019  -22.0136   20.8035 C   0  0  0  0  0  0  0  0  0  0  0  0
  -30.7200  -13.4525   19.8503 C   0  0  0  0  0  0  0  0  0  0  0  0
  -29.1791  -11.1370   19.6343 C   0  0  0  0  0  0  0  0  0  0  0  0
  -30.7899  -12.6734   18.6954 C   0  0  0  0  0  0  0  0  0  0  0  0
  -28.8000  -19.4525   20.6863 C   0  0  0  0  0  0  0  0  0  0  0  0
  -25.4074  -27.5663   19.1949 C   0  0  0  0  0  0  0  0  0  0  0  0
  -26.2997  -27.9812   21.2064 C   0  0  0  0  0  0  0  0  0  0  0  0
  -27.4356  -21.0361   21.3687 C   0  0  0  0  0  0  0  0  0  0  0  0
  -27.0677  -18.8285   22.4821 C   0  0  0  0  0  0  0  0  0  0  0  0
  -22.1287  -16.7724   19.6938 C   0  0  0  0  0  0  0  0  0  0  0  0
  -20.2559  -17.7149   17.2186 C   0  0  0  0  0  0  0  0  0  0  0  0
  -18.9346  -20.2820   15.3990 C   0  0  0  0  0  0  0  0  0  0  0  0
  -29.0497  -26.3352   20.6908 C   0  0  0  0  0  0  0  0  0  0  0  0
  -22.4804  -11.7383   20.4631 C   0  0  0  0  0  0  0  0  0  0  0  0
  -20.6069  -18.4374   20.8198 C   0  0  0  0  0  0  0  0  0  0  0  0
  -21.6993  -19.4904   18.2815 C   0  0  0  0  0  0  0  0  0  0  0  0
  -22.3179  -12.6483   19.2483 C   0  0  0  0  0  0  0  0  0  0  0  0
  -27.0471  -32.7820   20.4015 C   0  0  0  0  0  0  0  0  0  0  0  0
  -28.0032  -32.1457   19.4085 C   0  0  0  0  0  0  0  0  0  0  0  0
  -28.9965  -24.2607   17.7977 C   0  0  0  0  0  0  0  0  0  0  0  0
  -26.1617  -31.6181   20.8203 C   0  0  0  0  0  0  0  0  0  0  0  0
  -28.3451  -30.8027   20.0435 C   0  0  0  0  0  0  0  0  0  0  0  0
  -23.3395  -13.7804   19.2889 C   0  0  0  0  0  0  0  0  0  0  0  0
  -28.8589  -22.8465   18.3641 C   0  0  0  0  0  0  0  0  0  0  0  0
  -29.8753  -25.1406   18.6839 C   0  0  0  0  0  0  0  0  0  0  0  0
  -29.3298  -23.7823   20.6666 C   0  0  0  0  0  0  0  0  0  0  0  0
  -27.1090  -30.4062   20.8762 C   0  0  0  0  0  0  0  0  0  0  0  0
  -23.1406  -14.6587   20.5301 C   0  0  1  0  0  0  0  0  0  0  0  0
  -20.8380  -17.5370   19.6101 C   0  0  1  0  0  0  0  0  0  0  0  0
  -28.4068  -22.8737   19.8366 C   0  0  2  0  0  0  0  0  0  0  0  0
  -24.7246  -26.7928   18.1375 C   0  0  0  0  0  0  0  0  0  0  0  0
  -17.4718  -20.7395   13.4120 C   0  0  0  0  0  0  0  0  0  0  0  0
  -22.5535  -16.9628   15.3571 C   0  0  0  0  0  0  0  0  0  0  0  0
  -21.4371  -18.2946   13.5548 C   0  0  0  0  0  0  0  0  0  0  0  0
  -20.2851  -16.3092   14.5314 C   0  0  0  0  0  0  0  0  0  0  0  0
  -16.9509  -21.7335   17.0475 C   0  0  0  0  0  0  0  0  0  0  0  0
  -26.7029  -27.7069   22.6022 C   0  0  0  0  0  0  0  0  0  0  0  0
  -23.8161  -25.5002   21.2650 C   0  0  0  0  0  0  0  0  0  0  0  0
  -25.2909  -25.6539   20.8867 C   0  0  0  0  0  0  0  0  0  0  0  0
  -28.1982  -27.3864   22.7715 C   0  0  0  0  0  0  0  0  0  0  0  0
  -23.4724  -24.1177   21.8071 C   0  0  0  0  0  0  0  0  0  1  0  0
  -20.4946  -18.4209   15.9057 C   0  0  1  0  0  0  0  0  0  0  0  0
  -17.5197  -20.5538   14.9206 C   0  0  2  0  0  0  0  0  0  0  0  0
  -21.1994  -17.5090   14.8621 C   0  0  0  0  0  0  0  0  0  0  0  0
  -29.1577  -20.5290   19.9812 N   0  0  0  0  0  0  0  0  0  0  0  0
  -25.6602  -27.0448   20.4368 N   0  0  0  0  0  0  0  0  0  0  0  0
  -28.3097  -21.4755   20.4183 N   0  0  0  0  0  0  0  0  0  0  0  0
  -20.8632  -18.2805   18.3488 N   0  0  0  0  0  0  0  0  0  0  0  0
  -29.3919  -25.1243   20.0666 N   0  0  0  0  0  0  0  0  0  0  0  0
  -26.5151  -21.8577   21.9163 N   0  0  0  0  0  0  0  0  0  0  0  0
  -27.4987  -17.4972   22.5598 N   0  0  0  0  0  0  0  0  0  0  0  0
  -22.0210  -15.5558   20.3402 N   0  0  0  0  0  0  0  0  0  0  0  0
  -19.1974  -18.9306   15.4746 N   0  0  0  0  0  0  0  0  0  0  0  0
  -28.5944  -26.2298   21.9994 N   0  0  0  0  0  0  0  0  0  0  0  0
  -16.9836  -21.7869   15.5632 N   0  3  0  0  0  0  0  0  0  0  0  0
  -26.1091  -19.2062   23.1975 O   0  0  0  0  0  0  0  0  0  0  0  0
  -23.1466  -17.2500   19.2066 O   0  0  0  0  0  0  0  0  0  0  0  0
  -19.5505  -16.7032   17.2417 O   0  0  0  0  0  0  0  0  0  0  0  0
  -19.7285  -21.1790   15.6744 O   0  0  0  0  0  0  0  0  0  0  0  0
  -29.1379  -27.4287   20.1221 O   0  0  0  0  0  0  0  0  0  0  0  0
  -31.4848  -14.6017   19.9593 O   0  0  0  0  0  0  0  0  0  0  0  0
  -23.7546  -23.1473   20.7996 O   0  0  0  0  0  0  0  0  0  1  0  0
  -28.4403  -10.0244   19.5313 F   0  0  0  0  0  0  0  0  0  0  0  0
  -31.5963  -13.0315   17.6867 F   0  0  0  0  0  0  0  0  0  0  0  0
  1  2  1  0  0  0  0
  1  5  2  0  0  0  0
  2  6  2  0  0  0  0
  3  8  2  0  0  0  0
  3 16  1  0  0  0  0
  4  9  1  0  0  0  0
  4 16  2  0  0  0  0
  5 18  1  0  0  0  0
  6 20  1  0  0  0  0
  7 10  2  0  0  0  0
  7 19  1  0  0  0  0
  8 23  1  0  0  0  0
  9 23  2  0  0  0  0
 10 24  1  0  0  0  0
 11 12  2  0  0  0  0
 11 25  1  0  0  0  0
 12 26  1  0  0  0  0
 13 21  1  0  0  0  0
 13 24  2  0  0  0  0
 14 22  1  0  0  0  0
 14 29  2  0  0  0  0
 15 26  2  0  0  0  0
 15 27  1  0  0  0  0
 16 28  1  0  0  0  0
 17 28  1  0  0  0  0
 17 31  2  0  0  0  0
 17 32  1  0  0  0  0
 18 20  2  0  0  0  0
 18 37  1  0  0  0  0
 19 21  2  0  0  0  0
 19 38  1  0  0  0  0
 20 51  1  0  0  0  0
 21 39  1  0  0  0  0
 22 30  2  0  0  0  0
 22 50  1  0  0  0  0
 23 84  1  0  0  0  0
 24 85  1  0  0  0  0
 25 27  2  0  0  0  0
 25 84  1  0  0  0  0
 26 86  1  0  0  0  0
 27 87  1  0  0  0  0
 28 68  2  0  0  0  0
 29 54  1  0  0  0  0
 29 69  1  0  0  0  0
 30 60  1  0  0  0  0
 30 69  1  0  0  0  0
 31 70  1  0  0  0  0
 31 73  1  0  0  0  0
 32 74  1  0  0  0  0
 32 79  2  0  0  0  0
 33 52  1  0  0  0  0
 33 75  1  0  0  0  0
 33 80  2  0  0  0  0
 34 65  1  0  0  0  0
 34 71  1  0  0  0  0
 34 81  2  0  0  0  0
 35 66  1  0  0  0  0
 35 76  1  0  0  0  0
 35 82  2  0  0  0  0
 36 72  1  0  0  0  0
 36 77  1  0  0  0  0
 36 83  2  0  0  0  0
 37 40  1  0  0  0  0
 38 52  1  0  0  0  0
 39 71  1  0  0  0  0
 40 46  1  0  0  0  0
 41 42  1  0  0  0  0
 41 44  1  0  0  0  0
 42 45  1  0  0  0  0
 43 47  1  0  0  0  0
 43 48  1  0  0  0  0
 44 50  1  0  0  0  0
 45 50  1  0  0  0  0
 46 51  1  0  0  0  0
 47 53  1  0  0  0  0
 48 72  1  0  0  0  0
 49 53  1  0  0  0  0
 49 72  1  0  0  0  0
 51 75  1  0  0  0  0
 52 71  1  0  0  0  0
 53 70  1  0  0  0  0
 55 66  1  0  0  0  0
 56 67  1  0  0  0  0
 57 67  1  0  0  0  0
 58 67  1  0  0  0  0
 59 78  1  0  0  0  0
 60 63  1  0  0  0  0
 61 62  1  0  0  0  0
 61 64  1  0  0  0  0
 62 69  1  0  0  0  0
 63 77  1  0  0  0  0
 64 85  1  0  0  0  0
 65 67  1  0  0  0  0
 65 76  1  0  0  0  0
 66 78  1  0  0  0  0
 68 70  1  0  0  0  0
M  CHG  1  78   1
M  ISO  4  36 100  64 101  77 100  85 101
M  END
> <Batch ID>
0098

> <Smiles>
CNC(C)C(=O)NC(C(=O)N1Cc2cc([101O:1][101CH2:1]CCn3c(C)cc(C4CCCC4)c3CC[100NH:0][100C:0](=O)N3CCCC(n4nc(-c5ccc(Oc6ccc(F)cc6F)cc5)c(C(N)=O)c4N)C3)ccc2CC1C(=O)NC1CCCc2ccccc21)C(C)(C)C

> <Shape>
0.203

> <Color>
0.068

> <Negative vol penalty>
0.000

$$$$

  -OEChem-04052319293D

 86 94  0     1  0  0  0  0  0999 V2000
  -22.6612  -34.0188   23.9735 C   0  0  0  0  0  0  0  0  0  0  0  0
  -23.6498  -33.0753   23.7132 C   0  0  0  0  0  0  0  0  0  0  0  0
  -24.2952  -13.1661   19.9024 C   0  0  0  0  0  0  0  0  0  0  0  0
  -25.8712  -13.5285   21.6973 C   0  0  0  0  0  0  0  0  0  0  0  0
  -21.3412  -33.6105   24.1598 C   0  0  0  0  0  0  0  0  0  0  0  0
  -23.3191  -31.7226   23.6403 C   0  0  0  0  0  0  0  0  0  0  0  0
  -25.4840  -29.4036   19.6931 C   0  0  0  0  0  0  0  0  0  0  0  0
  -24.5415  -11.7945   19.9631 C   0  0  0  0  0  0  0  0  0  0  0  0
  -26.1175  -12.1569   21.7581 C   0  0  0  0  0  0  0  0  0  0  0  0
  -26.8298  -29.0606   19.8158 C   0  0  0  0  0  0  0  0  0  0  0  0
  -23.6208   -9.1818   21.9020 C   0  0  0  0  0  0  0  0  0  0  0  0
  -22.5218   -8.3237   21.8668 C   0  0  0  0  0  0  0  0  0  0  0  0
  -26.1979  -26.7902   20.3304 C   0  0  0  0  0  0  0  0  0  0  0  0
  -29.6383  -26.2032   17.0522 C   0  0  0  0  0  0  0  0  0  0  0  0
  -30.3660  -24.7538   18.8282 C   0  0  0  0  0  0  0  0  0  0  0  0
  -23.3850   -7.3006   19.8555 C   0  0  0  0  0  0  0  0  0  0  0  0
  -24.9601  -14.0331   20.7695 C   0  0  0  0  0  0  0  0  0  0  0  0
  -23.7297  -16.1712   21.4192 C   0  0  0  0  0  0  0  0  0  0  0  0
  -20.9925  -32.2530   24.0796 C   0  0  0  0  0  0  0  0  0  0  0  0
  -24.4831  -28.4434   19.8992 C   0  0  0  0  0  0  0  0  0  0  0  0
  -21.9935  -31.2956   23.8271 C   0  0  0  0  0  0  0  0  0  0  0  0
  -24.8403  -27.1229   20.2072 C   0  0  0  0  0  0  0  0  0  0  0  0
  -30.2010  -26.0345   18.3124 C   0  0  0  0  0  0  0  0  0  0  0  0
  -25.4526  -11.2899   20.8909 C   0  0  0  0  0  0  0  0  0  0  0  0
  -27.1868  -27.7544   20.1374 C   0  0  0  0  0  0  0  0  0  0  0  0
  -24.6020   -9.0994   20.9139 C   0  0  0  0  0  0  0  0  0  0  0  0
  -22.4038   -7.3831   20.8436 C   0  0  0  0  0  0  0  0  0  0  0  0
  -24.4840   -8.1588   19.8907 C   0  0  0  0  0  0  0  0  0  0  0  0
  -24.7066  -15.4501   20.7068 C   0  0  0  0  0  0  0  0  0  0  0  0
  -29.2600  -25.0680   16.3536 C   0  0  0  0  0  0  0  0  0  0  0  0
  -29.9549  -23.6835   18.0502 C   0  0  0  0  0  0  0  0  0  0  0  0
  -23.8971  -17.4718   21.0107 C   0  0  0  0  0  0  0  0  0  0  0  0
  -22.7579  -15.7069   22.3656 C   0  0  0  0  0  0  0  0  0  0  0  0
  -22.0861  -28.1085   21.9597 C   0  0  0  0  0  0  0  0  0  0  0  0
  -21.3513  -25.5603   20.0918 C   0  0  0  0  0  0  0  0  0  0  0  0
  -22.4113  -23.1898   17.8774 C   0  0  0  0  0  0  0  0  0  0  0  0
  -28.5981  -20.3610   18.9110 C   0  0  0  0  0  0  0  0  0  0  0  0
  -19.5604  -31.8550   24.3350 C   0  0  0  0  0  0  0  0  0  0  0  0
  -23.0368  -28.8231   19.7368 C   0  0  0  0  0  0  0  0  0  0  0  0
  -23.8046  -26.0500   20.4185 C   0  0  0  0  0  0  0  0  0  0  0  0
  -19.2295  -30.4391   23.8702 C   0  0  0  0  0  0  0  0  0  0  0  0
  -25.3864  -20.0600   17.2703 C   0  0  0  0  0  0  0  0  0  0  0  0
  -20.3092  -29.4621   24.3246 C   0  0  0  0  0  0  0  0  0  0  0  0
  -24.7563  -18.9014   18.0453 C   0  0  0  0  0  0  0  0  0  0  0  0
  -26.8835  -19.8427   17.0713 C   0  0  0  0  0  0  0  0  0  0  0  0
  -27.0185  -18.4614   19.1079 C   0  0  0  0  0  0  0  0  0  0  0  0
  -21.6700  -29.8214   23.7157 C   0  0  1  0  0  0  0  0  0  0  0  0
  -22.0862  -27.8848   20.4739 C   0  0  1  0  0  0  0  0  0  0  0  0
  -25.5097  -18.6323   19.3615 C   0  0  2  0  0  0  0  0  0  0  0  0
  -32.9937  -27.2660   18.1258 C   0  0  0  0  0  0  0  0  0  0  0  0
  -27.2124  -24.6721   14.9378 C   0  0  0  0  0  0  0  0  0  0  0  0
  -29.5063  -24.5469   13.8996 C   0  0  0  0  0  0  0  0  0  0  0  0
  -31.4713  -21.6743   18.2088 C   0  0  0  0  0  0  0  0  0  0  0  0
  -21.5897  -21.2212   16.5555 C   0  0  0  0  0  0  0  0  0  0  0  0
  -21.3541  -23.8607   22.6258 C   0  0  0  0  0  0  0  0  0  0  0  0
  -21.4799  -21.8236   21.1758 C   0  0  0  0  0  0  0  0  0  0  0  0
  -19.5059  -23.3410   21.0232 C   0  0  0  0  0  0  0  0  0  0  0  0
  -23.0927  -24.4852   15.3051 C   0  0  0  0  0  0  0  0  0  0  0  0
  -31.7326  -28.0708   18.4169 C   0  0  0  0  0  0  0  0  0  0  0  0
  -29.4333  -28.1445   19.4613 C   0  0  0  0  0  0  0  0  0  1  0  0
  -30.6358  -27.2471   19.1238 C   0  0  1  0  0  0  0  0  0  0  0  0
  -28.6541  -25.2107   14.9974 C   0  0  0  0  0  0  0  0  0  0  0  0
  -30.1153  -22.2952   18.5732 C   0  0  2  0  0  0  0  0  0  0  0  0
  -21.7269  -24.0982   20.0821 C   0  0  1  0  0  0  0  0  0  0  0  0
  -21.8382  -22.7216   16.5519 C   0  0  2  0  0  0  0  0  0  0  0  0
  -21.0364  -23.3013   21.2247 C   0  0  0  0  0  0  0  0  0  0  0  0
  -25.4402  -16.2280   19.9064 N   0  0  0  0  0  0  0  0  0  0  0  0
  -29.4043  -23.8080   16.8218 N   0  0  0  0  0  0  0  0  0  0  0  0
  -24.9239  -17.4514   20.1132 N   0  0  0  0  0  0  0  0  0  0  0  0
  -22.4037  -26.4722   20.2548 N   0  0  0  0  0  0  0  0  0  0  0  0
  -27.5441  -19.6108   18.3636 N   0  0  0  0  0  0  0  0  0  0  0  0
  -23.2647  -18.6195   21.3352 N   0  0  0  0  0  0  0  0  0  0  0  0
  -22.7231  -14.3395   22.6713 N   0  0  0  0  0  0  0  0  0  0  0  0
  -21.7356  -29.3912   22.3355 N   0  0  0  0  0  0  0  0  0  0  0  0
  -21.4221  -23.6073   18.7425 N   0  0  0  0  0  0  0  0  0  0  0  0
  -29.0421  -21.4283   18.1400 N   0  0  0  0  0  0  0  0  0  0  0  0
  -22.7781  -23.0396   15.4400 N   0  3  0  0  0  0  0  0  0  0  0  0
  -21.9337  -16.4791   22.9114 O   0  0  0  0  0  0  0  0  0  0  0  0
  -22.3806  -27.1853   22.7098 O   0  0  0  0  0  0  0  0  0  0  0  0
  -20.1685  -25.8817   19.9526 O   0  0  0  0  0  0  0  0  0  0  0  0
  -23.6156  -23.1821   18.1222 O   0  0  0  0  0  0  0  0  0  0  0  0
  -29.1029  -20.1022   20.0088 O   0  0  0  0  0  0  0  0  0  0  0  0
  -25.6929   -9.9515   20.9506 O   0  0  0  0  0  0  0  0  0  0  0  0
  -28.4996  -27.4171   20.2584 O   0  0  0  0  0  0  0  0  0  1  0  0
  -21.3491   -6.5581   20.8109 F   0  0  0  0  0  0  0  0  0  0  0  0
  -25.4240   -8.0740   18.9393 F   0  0  0  0  0  0  0  0  0  0  0  0
  1  2  1  0  0  0  0
  1  5  2  0  0  0  0
  2  6  2  0  0  0  0
  3  8  2  0  0  0  0
  3 17  1  0  0  0  0
  4  9  1  0  0  0  0
  4 17  2  0  0  0  0
  5 19  1  0  0  0  0
  6 21  1  0  0  0  0
  7 10  2  0  0  0  0
  7 20  1  0  0  0  0
  8 24  1  0  0  0  0
  9 24  2  0  0  0  0
 10 25  1  0  0  0  0
 11 12  2  0  0  0  0
 11 26  1  0  0  0  0
 12 27  1  0  0  0  0
 13 22  1  0  0  0  0
 13 25  2  0  0  0  0
 14 23  1  0  0  0  0
 14 30  2  0  0  0  0
 15 23  2  0  0  0  0
 15 31  1  0  0  0  0
 16 27  2  0  0  0  0
 16 28  1  0  0  0  0
 17 29  1  0  0  0  0
 18 29  1  0  0  0  0
 18 32  2  0  0  0  0
 18 33  1  0  0  0  0
 19 21  2  0  0  0  0
 19 38  1  0  0  0  0
 20 22  2  0  0  0  0
 20 39  1  0  0  0  0
 21 47  1  0  0  0  0
 22 40  1  0  0  0  0
 23 61  1  0  0  0  0
 24 83  1  0  0  0  0
 25 84  1  0  0  0  0
 26 28  2  0  0  0  0
 26 83  1  0  0  0  0
 27 85  1  0  0  0  0
 28 86  1  0  0  0  0
 29 67  2  0  0  0  0
 30 62  1  0  0  0  0
 30 68  1  0  0  0  0
 31 63  1  0  0  0  0
 31 68  2  0  0  0  0
 32 69  1  0  0  0  0
 32 72  1  0  0  0  0
 33 73  1  0  0  0  0
 33 78  2  0  0  0  0
 34 48  1  0  0  0  0
 34 74  1  0  0  0  0
 34 79  2  0  0  0  0
 35 64  1  0  0  0  0
 35 70  1  0  0  0  0
 35 80  2  0  0  0  0
 36 65  1  0  0  0  0
 36 75  1  0  0  0  0
 36 81  2  0  0  0  0
 37 71  1  0  0  0  0
 37 76  1  0  0  0  0
 37 82  2  0  0  0  0
 38 41  1  0  0  0  0
 39 48  1  0  0  0  0
 40 70  1  0  0  0  0
 41 43  1  0  0  0  0
 42 44  1  0  0  0  0
 42 45  1  0  0  0  0
 43 47  1  0  0  0  0
 44 49  1  0  0  0  0
 45 71  1  0  0  0  0
 46 49  1  0  0  0  0
 46 71  1  0  0  0  0
 47 74  1  0  0  0  0
 48 70  1  0  0  0  0
 49 69  1  0  0  0  0
 50 59  1  0  0  0  0
 51 62  1  0  0  0  0
 52 62  1  0  0  0  0
 53 63  1  0  0  0  0
 54 65  1  0  0  0  0
 55 66  1  0  0  0  0
 56 66  1  0  0  0  0
 57 66  1  0  0  0  0
 58 77  1  0  0  0  0
 59 61  1  0  0  0  0
 60 61  1  0  0  0  0
 60 84  1  0  0  0  0
 63 76  1  0  0  0  0
 64 66  1  0  0  0  0
 64 75  1  0  0  0  0
 65 77  1  0  0  0  0
 67 69  1  0  0  0  0
M  CHG  1  77   1
M  ISO  4  37 100  60 101  76 100  84 101
M  END
> <Batch ID>
0098

> <Smiles>
CCC(c1cc(C(C)C)nc(C(C)[100NH:0][100C:0](=O)N2CCCC(n3nc(-c4ccc(Oc5ccc(F)cc5F)cc4)c(C(N)=O)c3N)C2)c1)[101CH2:1][101O:1]c1ccc2c(c1)CN(C(=O)C(NC(=O)C(C)NC)C(C)(C)C)C(C(=O)NC1CCCc3ccccc31)C2

> <Shape>
0.216

> <Color>
0.094

> <Negative vol penalty>
0.000

$$$$

  -OEChem-04052319293D

 92100  0     1  0  0  0  0  0999 V2000
  -32.3412  -28.8361   27.4781 C   0  0  0  0  0  0  0  0  0  0  0  0
  -32.7915  -27.9463   26.5081 C   0  0  0  0  0  0  0  0  0  0  0  0
  -23.0067   -9.9103   19.9693 C   0  0  0  0  0  0  0  0  0  0  0  0
  -23.7461   -9.9340   22.2692 C   0  0  0  0  0  0  0  0  0  0  0  0
  -30.9753  -28.9605   27.7281 C   0  0  0  0  0  0  0  0  0  0  0  0
  -31.8760  -27.1794   25.7883 C   0  0  0  0  0  0  0  0  0  0  0  0
  -30.8914  -24.2843   19.3102 C   0  0  0  0  0  0  0  0  0  0  0  0
  -22.2440   -8.7710   20.2262 C   0  0  0  0  0  0  0  0  0  0  0  0
  -22.9834   -8.7948   22.5262 C   0  0  0  0  0  0  0  0  0  0  0  0
  -30.5905  -23.0618   18.7113 C   0  0  0  0  0  0  0  0  0  0  0  0
  -23.2312   -5.4625   22.0112 C   0  0  0  0  0  0  0  0  0  0  0  0
  -23.8254   -4.4372   22.7469 C   0  0  0  0  0  0  0  0  0  0  0  0
  -28.2499  -23.4183   19.1734 C   0  0  0  0  0  0  0  0  0  0  0  0
  -27.0997  -18.4301   19.9938 C   0  0  0  0  0  0  0  0  0  0  0  0
  -22.1115   -4.6558   24.4357 C   0  0  0  0  0  0  0  0  0  0  0  0
  -23.7578  -10.4918   20.9908 C   0  0  0  0  0  0  0  0  0  0  0  0
  -24.1372  -13.0101   20.8438 C   0  0  0  0  0  0  0  0  0  0  0  0
  -30.0419  -28.2018   27.0042 C   0  0  0  0  0  0  0  0  0  0  0  0
  -29.8732  -25.0793   19.8559 C   0  0  0  0  0  0  0  0  0  0  0  0
  -30.4963  -27.2928   26.0298 C   0  0  0  0  0  0  0  0  0  0  0  0
  -28.5401  -24.6517   19.7764 C   0  0  0  0  0  0  0  0  0  0  0  0
  -27.1429  -19.1363   21.2212 C   0  0  0  0  0  0  0  0  0  0  0  0
  -22.2323   -8.2133   21.5047 C   0  0  0  0  0  0  0  0  0  0  0  0
  -29.2699  -22.6273   18.6453 C   0  0  0  0  0  0  0  0  0  0  0  0
  -22.0772   -6.0845   22.4878 C   0  0  0  0  0  0  0  0  0  0  0  0
  -23.2655   -4.0338   23.9592 C   0  0  0  0  0  0  0  0  0  0  0  0
  -21.5173   -5.6811   23.7000 C   0  0  0  0  0  0  0  0  0  0  0  0
  -24.5463  -11.6683   20.7259 C   0  0  0  0  0  0  0  0  0  0  0  0
  -28.3625  -17.9314   19.7616 C   0  0  0  0  0  0  0  0  0  0  0  0
  -28.4309  -19.0478   21.7016 C   0  0  0  0  0  0  0  0  0  0  0  0
  -25.2432  -13.7394   20.4815 C   0  0  0  0  0  0  0  0  0  0  0  0
  -22.8706  -13.5491   21.2449 C   0  0  0  0  0  0  0  0  0  0  0  0
  -29.1872  -26.1606   22.7652 C   0  0  0  0  0  0  0  0  0  0  0  0
  -26.8641  -27.7859   21.1892 C   0  0  0  0  0  0  0  0  0  0  0  0
  -24.8331  -28.0151   18.4562 C   0  0  0  0  0  0  0  0  0  0  0  0
  -30.7392  -14.6818   20.7076 C   0  0  0  0  0  0  0  0  0  0  0  0
  -28.5784  -28.3362   27.3427 C   0  0  0  0  0  0  0  0  0  0  0  0
  -30.2113  -26.4078   20.4748 C   0  0  0  0  0  0  0  0  0  0  0  0
  -27.4082  -25.4773   20.3291 C   0  0  0  0  0  0  0  0  0  0  0  0
  -27.6510  -27.7608   26.2754 C   0  0  0  0  0  0  0  0  0  0  0  0
  -29.5886  -12.2853   18.3392 C   0  0  0  0  0  0  0  0  0  0  0  0
  -28.1342  -26.3825   25.8350 C   0  0  0  0  0  0  0  0  0  0  0  0
  -28.1433  -12.0175   18.7625 C   0  0  0  0  0  0  0  0  0  0  0  0
  -30.4981  -12.5074   19.5457 C   0  0  0  0  0  0  0  0  0  0  0  0
  -28.5948  -13.2824   20.9061 C   0  0  0  0  0  0  0  0  0  0  0  0
  -29.5326  -26.4617   25.2108 C   0  0  1  0  0  0  0  0  0  0  0  0
  -29.1507  -26.8972   21.4561 C   0  0  1  0  0  0  0  0  0  0  0  0
  -27.6288  -13.1076   19.7218 C   0  0  2  0  0  0  0  0  0  0  0  0
  -24.8515  -18.8854   22.2412 C   0  0  0  0  0  0  0  0  0  0  0  0
  -25.4566  -20.9975   21.0051 C   0  0  0  0  0  0  0  0  0  0  0  0
  -28.3823  -19.0324   24.2217 C   0  0  0  0  0  0  0  0  0  0  0  0
  -28.9889  -21.1440   22.9855 C   0  0  0  0  0  0  0  0  0  0  0  0
  -23.0131  -29.4321   17.4677 C   0  0  0  0  0  0  0  0  0  0  0  0
  -27.5329  -18.0040   15.7687 C   0  0  0  0  0  0  0  0  0  0  0  0
  -24.8634  -26.5817   23.1530 C   0  0  0  0  0  0  0  0  0  0  0  0
  -23.0297  -27.2391   21.5802 C   0  0  0  0  0  0  0  0  0  0  0  0
  -24.4731  -28.9922   22.6127 C   0  0  0  0  0  0  0  0  0  0  0  0
  -30.0558  -19.6727   14.9012 C   0  0  0  0  0  0  0  0  0  0  0  0
  -27.9694  -20.9748   15.3483 C   0  0  0  0  0  0  0  0  0  0  0  0
  -26.4656  -28.6533   16.0715 C   0  0  0  0  0  0  0  0  0  0  0  0
  -28.8789  -17.1071   18.6087 C   0  0  0  0  0  0  0  0  0  0  0  0
  -29.4312  -17.9431   17.4412 C   0  0  0  0  0  0  0  0  0  0  0  0
  -30.5681  -17.9898   20.9417 C   0  0  0  0  0  0  0  0  0  0  0  0
  -30.8251  -16.8460   21.9193 C   0  0  0  0  0  0  0  0  0  0  0  0
  -29.8319  -20.9946   17.0100 C   0  0  0  0  0  0  0  0  0  1  0  0
  -26.0108  -19.8354   21.8614 C   0  0  0  0  0  0  0  0  0  0  0  0
  -29.0269  -19.5998   22.9369 C   0  0  0  0  0  0  0  0  0  0  0  0
  -25.4311  -27.5023   20.8086 C   0  0  1  0  0  0  0  0  0  0  0  0
  -24.5110  -29.1781   17.5353 C   0  0  2  0  0  0  0  0  0  0  0  0
  -28.3983  -18.8521   16.7188 C   0  0  1  0  0  0  0  0  0  0  0  0
  -24.4706  -27.5622   22.0298 C   0  0  0  0  0  0  0  0  0  0  0  0
  -29.0641  -20.0966   16.0024 C   0  0  0  0  0  0  0  0  0  0  0  0
  -25.8133  -11.5493   20.3203 N   0  0  0  0  0  0  0  0  0  0  0  0
  -29.1634  -18.3133   20.8060 N   0  0  0  0  0  0  0  0  0  0  0  0
  -26.2099  -12.8257   20.1801 N   0  0  0  0  0  0  0  0  0  0  0  0
  -27.7905  -26.7658   20.9300 N   0  0  0  0  0  0  0  0  0  0  0  0
  -29.9546  -13.5543   20.4143 N   0  0  0  0  0  0  0  0  0  0  0  0
  -25.4735  -15.0667   20.3945 N   0  0  0  0  0  0  0  0  0  0  0  0
  -21.8426  -12.6587   21.5838 N   0  0  0  0  0  0  0  0  0  0  0  0
  -29.4537  -26.9654   23.8564 N   0  0  0  0  0  0  0  0  0  0  0  0
  -25.0991  -28.4394   19.7409 N   0  0  0  0  0  0  0  0  0  0  0  0
  -30.1461  -15.6293   21.5330 N   0  0  0  0  0  0  0  0  0  0  0  0
  -25.0030  -28.8988   16.1565 N   0  3  0  0  0  0  0  0  0  0  0  0
  -22.6516  -14.7836   21.2854 O   0  0  0  0  0  0  0  0  0  0  0  0
  -28.9869  -24.9518   22.7841 O   0  0  0  0  0  0  0  0  0  0  0  0
  -27.1523  -28.8753   21.6911 O   0  0  0  0  0  0  0  0  0  0  0  0
  -24.8438  -26.8468   18.0749 O   0  0  0  0  0  0  0  0  0  0  0  0
  -31.8816  -14.8355   20.2623 O   0  0  0  0  0  0  0  0  0  0  0  0
  -21.4880   -7.1017   21.7558 O   0  0  0  0  0  0  0  0  0  0  0  0
  -28.9736  -21.4342   18.0618 O   0  0  0  0  0  0  0  0  0  1  0  0
  -23.8353   -3.0481   24.6648 F   0  0  0  0  0  0  0  0  0  0  0  0
  -20.4081   -6.2741   24.1623 F   0  0  0  0  0  0  0  0  0  0  0  0
  1  2  1  0  0  0  0
  1  5  2  0  0  0  0
  2  6  2  0  0  0  0
  3  8  2  0  0  0  0
  3 16  1  0  0  0  0
  4  9  1  0  0  0  0
  4 16  2  0  0  0  0
  5 18  1  0  0  0  0
  6 20  1  0  0  0  0
  7 10  2  0  0  0  0
  7 19  1  0  0  0  0
  8 23  1  0  0  0  0
  9 23  2  0  0  0  0
 10 24  1  0  0  0  0
 11 12  2  0  0  0  0
 11 25  1  0  0  0  0
 12 26  1  0  0  0  0
 13 21  1  0  0  0  0
 13 24  2  0  0  0  0
 14 22  1  0  0  0  0
 14 29  2  0  0  0  0
 15 26  2  0  0  0  0
 15 27  1  0  0  0  0
 16 28  1  0  0  0  0
 17 28  1  0  0  0  0
 17 31  2  0  0  0  0
 17 32  1  0  0  0  0
 18 20  2  0  0  0  0
 18 37  1  0  0  0  0
 19 21  2  0  0  0  0
 19 38  1  0  0  0  0
 20 46  1  0  0  0  0
 21 39  1  0  0  0  0
 22 30  2  0  0  0  0
 22 66  1  0  0  0  0
 23 89  1  0  0  0  0
 24 90  1  0  0  0  0
 25 27  2  0  0  0  0
 25 89  1  0  0  0  0
 26 91  1  0  0  0  0
 27 92  1  0  0  0  0
 28 73  2  0  0  0  0
 29 61  1  0  0  0  0
 29 74  1  0  0  0  0
 30 67  1  0  0  0  0
 30 74  1  0  0  0  0
 31 75  1  0  0  0  0
 31 78  1  0  0  0  0
 32 79  1  0  0  0  0
 32 84  2  0  0  0  0
 33 47  1  0  0  0  0
 33 80  1  0  0  0  0
 33 85  2  0  0  0  0
 34 68  1  0  0  0  0
 34 76  1  0  0  0  0
 34 86  2  0  0  0  0
 35 69  1  0  0  0  0
 35 81  1  0  0  0  0
 35 87  2  0  0  0  0
 36 77  1  0  0  0  0
 36 82  1  0  0  0  0
 36 88  2  0  0  0  0
 37 40  1  0  0  0  0
 38 47  1  0  0  0  0
 39 76  1  0  0  0  0
 40 42  1  0  0  0  0
 41 43  1  0  0  0  0
 41 44  1  0  0  0  0
 42 46  1  0  0  0  0
 43 48  1  0  0  0  0
 44 77  1  0  0  0  0
 45 48  1  0  0  0  0
 45 77  1  0  0  0  0
 46 80  1  0  0  0  0
 47 76  1  0  0  0  0
 48 75  1  0  0  0  0
 49 66  1  0  0  0  0
 50 66  1  0  0  0  0
 51 67  1  0  0  0  0
 52 67  1  0  0  0  0
 53 69  1  0  0  0  0
 54 70  1  0  0  0  0
 55 71  1  0  0  0  0
 56 71  1  0  0  0  0
 57 71  1  0  0  0  0
 58 72  1  0  0  0  0
 59 72  1  0  0  0  0
 60 83  1  0  0  0  0
 61 62  1  0  0  0  0
 62 70  1  0  0  0  0
 63 64  1  0  0  0  0
 63 74  1  0  0  0  0
 64 82  1  0  0  0  0
 65 72  1  0  0  0  0
 65 90  1  0  0  0  0
 68 71  1  0  0  0  0
 68 81  1  0  0  0  0
 69 83  1  0  0  0  0
 70 72  1  0  0  0  0
 73 75  1  0  0  0  0
M  CHG  1  83   1
M  ISO  4  36 100  65 101  82 100  90 101
M  END
> <Batch ID>
0098

> <Smiles>
CNC(C)C(=O)NC(C(=O)N1Cc2cc([101O:1][101CH2:1]C(C)(C)C(C)CCc3cc(C(C)C)c(C(C)C)n3CC[100NH:0][100C:0](=O)N3CCCC(n4nc(-c5ccc(Oc6ccc(F)cc6F)cc5)c(C(N)=O)c4N)C3)ccc2CC1C(=O)NC1CCCc2ccccc21)C(C)(C)C

> <Shape>
0.300

> <Color>
0.187

> <Negative vol penalty>
0.000

$$$$

  -OEChem-04052319293D

 86 94  0     1  0  0  0  0  0999 V2000
  -27.0704  -36.0787   20.3756 C   0  0  0  0  0  0  0  0  0  0  0  0
  -27.4930  -34.7647   20.5492 C   0  0  0  0  0  0  0  0  0  0  0  0
  -24.2548   -9.4799   22.1985 C   0  0  0  0  0  0  0  0  0  0  0  0
  -23.6057   -9.4884   19.8713 C   0  0  0  0  0  0  0  0  0  0  0  0
  -25.8730  -36.5060   20.9480 C   0  0  0  0  0  0  0  0  0  0  0  0
  -26.7189  -33.8774   21.2963 C   0  0  0  0  0  0  0  0  0  0  0  0
  -26.2486  -29.3558   19.0650 C   0  0  0  0  0  0  0  0  0  0  0  0
  -23.2079   -8.6046   22.4873 C   0  0  0  0  0  0  0  0  0  0  0  0
  -22.5588   -8.6131   20.1601 C   0  0  0  0  0  0  0  0  0  0  0  0
  -27.3307  -28.4822   19.1622 C   0  0  0  0  0  0  0  0  0  0  0  0
  -22.5715   -5.2973   22.1874 C   0  0  0  0  0  0  0  0  0  0  0  0
  -22.8473   -4.2063   23.0116 C   0  0  0  0  0  0  0  0  0  0  0  0
  -26.2127  -27.3053   20.9466 C   0  0  0  0  0  0  0  0  0  0  0  0
  -25.4536  -22.7857   18.7144 C   0  0  0  0  0  0  0  0  0  0  0  0
  -21.2033   -4.9899   24.5991 C   0  0  0  0  0  0  0  0  0  0  0  0
  -26.8449  -21.4172   17.5913 C   0  0  0  0  0  0  0  0  0  0  0  0
  -24.4537   -9.9218   20.8905 C   0  0  0  0  0  0  0  0  0  0  0  0
  -26.8502  -10.4868   20.2232 C   0  0  0  0  0  0  0  0  0  0  0  0
  -25.0791  -35.6210   21.6944 C   0  0  0  0  0  0  0  0  0  0  0  0
  -25.1432  -29.2172   19.9167 C   0  0  0  0  0  0  0  0  0  0  0  0
  -25.5105  -34.2937   21.8803 C   0  0  0  0  0  0  0  0  0  0  0  0
  -25.1167  -28.1769   20.8565 C   0  0  0  0  0  0  0  0  0  0  0  0
  -26.7152  -22.7002   18.0755 C   0  0  0  0  0  0  0  0  0  0  0  0
  -22.3599   -8.1712   21.4681 C   0  0  0  0  0  0  0  0  0  0  0  0
  -27.3142  -27.4585   20.1050 C   0  0  0  0  0  0  0  0  0  0  0  0
  -21.6116   -6.2347   22.5692 C   0  0  0  0  0  0  0  0  0  0  0  0
  -22.1632   -4.0526   24.2174 C   0  0  0  0  0  0  0  0  0  0  0  0
  -20.9275   -6.0810   23.7750 C   0  0  0  0  0  0  0  0  0  0  0  0
  -25.5347  -10.8265   20.5916 C   0  0  0  0  0  0  0  0  0  0  0  0
  -24.8508  -21.5523   18.6013 C   0  0  0  0  0  0  0  0  0  0  0  0
  -27.4812  -11.6945   20.0508 C   0  0  0  0  0  0  0  0  0  0  0  0
  -27.4484   -9.1950   20.0521 C   0  0  0  0  0  0  0  0  0  0  0  0
  -23.7756  -31.0410   22.1319 C   0  0  0  0  0  0  0  0  0  0  0  0
  -21.5509  -28.6804   22.1449 C   0  0  0  0  0  0  0  0  0  0  0  0
  -20.7889  -25.4139   21.5153 C   0  0  0  0  0  0  0  0  0  0  0  0
  -25.4225  -17.0422   18.6327 C   0  0  0  0  0  0  0  0  0  0  0  0
  -23.8161  -36.1415   22.3335 C   0  0  0  0  0  0  0  0  0  0  0  0
  -23.9721  -30.1514   19.7812 C   0  0  0  0  0  0  0  0  0  0  0  0
  -23.9450  -27.9727   21.7806 C   0  0  0  0  0  0  0  0  0  0  0  0
  -22.8683  -35.0381   22.7966 C   0  0  0  0  0  0  0  0  0  0  0  0
  -27.3655  -16.2319   21.5729 C   0  0  0  0  0  0  0  0  0  0  0  0
  -23.6344  -33.9612   23.5583 C   0  0  0  0  0  0  0  0  0  0  0  0
  -27.2367  -14.7078   21.6127 C   0  0  0  0  0  0  0  0  0  0  0  0
  -26.0654  -16.8835   21.1119 C   0  0  0  0  0  0  0  0  0  0  0  0
  -25.4351  -14.8733   19.8326 C   0  0  0  0  0  0  0  0  0  0  0  0
  -24.6861  -33.2948   22.6631 C   0  0  1  0  0  0  0  0  0  0  0  0
  -23.1233  -30.2328   21.0462 C   0  0  1  0  0  0  0  0  0  0  0  0
  -26.7231  -14.1529   20.2707 C   0  0  2  0  0  0  0  0  0  0  0  0
  -31.4072  -23.4420   20.3244 C   0  0  0  0  0  0  0  0  0  0  0  0
  -22.3538  -21.8625   18.4514 C   0  0  0  0  0  0  0  0  0  0  0  0
  -23.4069  -21.1480   20.6275 C   0  0  0  0  0  0  0  0  0  0  0  0
  -19.3689  -23.3591   21.2736 C   0  0  0  0  0  0  0  0  0  0  0  0
  -21.9542  -28.4881   25.1632 C   0  0  0  0  0  0  0  0  0  0  0  0
  -20.8030  -26.2656   25.1053 C   0  0  0  0  0  0  0  0  0  0  0  0
  -19.5731  -28.3237   24.4164 C   0  0  0  0  0  0  0  0  0  0  0  0
  -20.1491  -26.0465   18.6958 C   0  0  0  0  0  0  0  0  0  0  0  0
  -27.7301  -23.8090   17.9478 C   0  0  0  0  0  0  0  0  0  0  0  0
  -30.7197  -24.7985   20.2585 C   0  0  0  0  0  0  0  0  0  0  0  0
  -28.7050  -23.8188   19.1304 C   0  0  0  0  0  0  0  0  0  0  0  0
  -29.1085  -26.3469   19.0093 C   0  0  0  0  0  0  0  0  0  1  0  0
  -25.4508  -19.2898   17.5680 C   0  0  0  0  0  0  0  0  0  0  0  0
  -23.5335  -21.0928   19.0879 C   0  0  0  0  0  0  0  0  0  0  0  0
  -21.3685  -27.3874   22.9024 C   0  0  1  0  0  0  0  0  0  0  0  0
  -19.6243  -24.7748   20.7806 C   0  0  2  0  0  0  0  0  0  0  0  0
  -29.7545  -24.9536   19.0609 C   0  0  1  0  0  0  0  0  0  0  0  0
  -20.9478  -27.6210   24.3809 C   0  0  0  0  0  0  0  0  0  0  0  0
  -25.3402  -12.1466   20.6502 N   0  0  0  0  0  0  0  0  0  0  0  0
  -25.7057  -20.7283   17.9170 N   0  0  0  0  0  0  0  0  0  0  0  0
  -26.5419  -12.6471   20.3164 N   0  0  0  0  0  0  0  0  0  0  0  0
  -22.8269  -28.9159   21.6137 N   0  0  0  0  0  0  0  0  0  0  0  0
  -25.6433  -16.3247   19.8199 N   0  0  0  0  0  0  0  0  0  0  0  0
  -28.7423  -12.0240   19.6995 N   0  0  0  0  0  0  0  0  0  0  0  0
  -26.6576   -8.0585   20.2692 N   0  0  0  0  0  0  0  0  0  0  0  0
  -24.0601  -32.3439   21.7698 N   0  0  0  0  0  0  0  0  0  0  0  0
  -20.4203  -26.5920   22.1299 N   0  0  0  0  0  0  0  0  0  0  0  0
  -25.6343  -18.4137   18.7130 N   0  0  0  0  0  0  0  0  0  0  0  0
  -19.9023  -24.7200   19.3175 N   0  3  0  0  0  0  0  0  0  0  0  0
  -28.6530   -9.0528   19.7325 O   0  0  0  0  0  0  0  0  0  0  0  0
  -24.0027  -30.5215   23.2183 O   0  0  0  0  0  0  0  0  0  0  0  0
  -20.5944  -29.4497   22.0227 O   0  0  0  0  0  0  0  0  0  0  0  0
  -21.9121  -24.9159   21.5445 O   0  0  0  0  0  0  0  0  0  0  0  0
  -25.0670  -16.5017   17.5801 O   0  0  0  0  0  0  0  0  0  0  0  0
  -21.3383   -7.3169   21.7495 O   0  0  0  0  0  0  0  0  0  0  0  0
  -28.3695  -26.6048   20.2024 O   0  0  0  0  0  0  0  0  0  1  0  0
  -22.4271   -3.0040   25.0080 F   0  0  0  0  0  0  0  0  0  0  0  0
  -20.0034   -6.9776   24.1465 F   0  0  0  0  0  0  0  0  0  0  0  0
  1  2  1  0  0  0  0
  1  5  2  0  0  0  0
  2  6  2  0  0  0  0
  3  8  2  0  0  0  0
  3 17  1  0  0  0  0
  4  9  1  0  0  0  0
  4 17  2  0  0  0  0
  5 19  1  0  0  0  0
  6 21  1  0  0  0  0
  7 10  2  0  0  0  0
  7 20  1  0  0  0  0
  8 24  1  0  0  0  0
  9 24  2  0  0  0  0
 10 25  1  0  0  0  0
 11 12  2  0  0  0  0
 11 26  1  0  0  0  0
 12 27  1  0  0  0  0
 13 22  1  0  0  0  0
 13 25  2  0  0  0  0
 14 23  1  0  0  0  0
 14 30  2  0  0  0  0
 15 27  2  0  0  0  0
 15 28  1  0  0  0  0
 16 23  2  0  0  0  0
 16 68  1  0  0  0  0
 17 29  1  0  0  0  0
 18 29  1  0  0  0  0
 18 31  2  0  0  0  0
 18 32  1  0  0  0  0
 19 21  2  0  0  0  0
 19 37  1  0  0  0  0
 20 22  2  0  0  0  0
 20 38  1  0  0  0  0
 21 46  1  0  0  0  0
 22 39  1  0  0  0  0
 23 57  1  0  0  0  0
 24 83  1  0  0  0  0
 25 84  1  0  0  0  0
 26 28  2  0  0  0  0
 26 83  1  0  0  0  0
 27 85  1  0  0  0  0
 28 86  1  0  0  0  0
 29 67  2  0  0  0  0
 30 62  1  0  0  0  0
 30 68  1  0  0  0  0
 31 69  1  0  0  0  0
 31 72  1  0  0  0  0
 32 73  1  0  0  0  0
 32 78  2  0  0  0  0
 33 47  1  0  0  0  0
 33 74  1  0  0  0  0
 33 79  2  0  0  0  0
 34 63  1  0  0  0  0
 34 70  1  0  0  0  0
 34 80  2  0  0  0  0
 35 64  1  0  0  0  0
 35 75  1  0  0  0  0
 35 81  2  0  0  0  0
 36 71  1  0  0  0  0
 36 76  1  0  0  0  0
 36 82  2  0  0  0  0
 37 40  1  0  0  0  0
 38 47  1  0  0  0  0
 39 70  1  0  0  0  0
 40 42  1  0  0  0  0
 41 43  1  0  0  0  0
 41 44  1  0  0  0  0
 42 46  1  0  0  0  0
 43 48  1  0  0  0  0
 44 71  1  0  0  0  0
 45 48  1  0  0  0  0
 45 71  1  0  0  0  0
 46 74  1  0  0  0  0
 47 70  1  0  0  0  0
 48 69  1  0  0  0  0
 49 58  1  0  0  0  0
 50 62  1  0  0  0  0
 51 62  1  0  0  0  0
 52 64  1  0  0  0  0
 53 66  1  0  0  0  0
 54 66  1  0  0  0  0
 55 66  1  0  0  0  0
 56 77  1  0  0  0  0
 57 59  1  0  0  0  0
 58 65  1  0  0  0  0
 59 65  1  0  0  0  0
 60 65  1  0  0  0  0
 60 84  1  0  0  0  0
 61 68  1  0  0  0  0
 61 76  1  0  0  0  0
 63 66  1  0  0  0  0
 63 75  1  0  0  0  0
 64 77  1  0  0  0  0
 67 69  1  0  0  0  0
M  CHG  1  77   1
M  ISO  4  36 100  60 101  76 100  84 101
M  END
> <Batch ID>
0098

> <Smiles>
CCC(CCc1cc(C(C)C)n(C[100NH:0][100C:0](=O)N2CCCC(n3nc(-c4ccc(Oc5ccc(F)cc5F)cc4)c(C(N)=O)c3N)C2)c1)[101CH2:1][101O:1]c1ccc2c(c1)CN(C(=O)C(NC(=O)C(C)NC)C(C)(C)C)C(C(=O)NC1CCCc3ccccc31)C2

> <Shape>
0.274

> <Color>
0.103

> <Negative vol penalty>
0.000

$$$$

  -OEChem-04052319293D

 88 96  0     1  0  0  0  0  0999 V2000
  -27.1087  -16.9670   16.9284 C   0  0  0  0  0  0  0  0  0  0  0  0
  -27.7384  -16.7257   18.1453 C   0  0  0  0  0  0  0  0  0  0  0  0
  -23.0850   -9.8708   19.9430 C   0  0  0  0  0  0  0  0  0  0  0  0
  -23.7012   -9.9601   22.2774 C   0  0  0  0  0  0  0  0  0  0  0  0
  -26.7912  -18.2725   16.5560 C   0  0  0  0  0  0  0  0  0  0  0  0
  -28.0519  -17.7899   18.9900 C   0  0  0  0  0  0  0  0  0  0  0  0
  -26.8604  -16.8514   23.8216 C   0  0  0  0  0  0  0  0  0  0  0  0
  -22.3263   -8.7261   20.1870 C   0  0  0  0  0  0  0  0  0  0  0  0
  -22.9424   -8.8154   22.5215 C   0  0  0  0  0  0  0  0  0  0  0  0
  -27.7274  -16.0324   24.5436 C   0  0  0  0  0  0  0  0  0  0  0  0
  -23.2651   -5.4762   22.1013 C   0  0  0  0  0  0  0  0  0  0  0  0
  -23.8342   -4.4779   22.8919 C   0  0  0  0  0  0  0  0  0  0  0  0
  -28.7206  -17.9848   25.5540 C   0  0  0  0  0  0  0  0  0  0  0  0
  -22.0304   -4.7092   24.4824 C   0  0  0  0  0  0  0  0  0  0  0  0
  -32.9543  -16.6828   23.4452 C   0  0  0  0  0  0  0  0  0  0  0  0
  -23.7725  -10.4878   20.9882 C   0  0  0  0  0  0  0  0  0  0  0  0
  -24.1228  -13.0076   20.8002 C   0  0  0  0  0  0  0  0  0  0  0  0
  -27.0922  -19.3524   17.4009 C   0  0  0  0  0  0  0  0  0  0  0  0
  -26.9245  -18.2461   23.9523 C   0  0  0  0  0  0  0  0  0  0  0  0
  -27.7392  -19.1112   18.6279 C   0  0  0  0  0  0  0  0  0  0  0  0
  -27.8516  -18.8192   24.8344 C   0  0  0  0  0  0  0  0  0  0  0  0
  -33.3362  -16.0556   22.2798 C   0  0  0  0  0  0  0  0  0  0  0  0
  -34.4990  -15.2993   22.5677 C   0  0  0  0  0  0  0  0  0  0  0  0
  -22.2550   -8.1984   21.4763 C   0  0  0  0  0  0  0  0  0  0  0  0
  -28.6596  -16.5991   25.4078 C   0  0  0  0  0  0  0  0  0  0  0  0
  -22.0787   -6.0911   22.5012 C   0  0  0  0  0  0  0  0  0  0  0  0
  -23.2169   -4.0943   24.0824 C   0  0  0  0  0  0  0  0  0  0  0  0
  -21.4613   -5.7075   23.6918 C   0  0  0  0  0  0  0  0  0  0  0  0
  -24.5569  -11.6700   20.7366 C   0  0  0  0  0  0  0  0  0  0  0  0
  -34.7922  -15.4871   23.9004 C   0  0  0  0  0  0  0  0  0  0  0  0
  -25.2359  -13.7454   20.4790 C   0  0  0  0  0  0  0  0  0  0  0  0
  -22.8291  -13.5360   21.1210 C   0  0  0  0  0  0  0  0  0  0  0  0
  -27.5501  -20.6577   21.9784 C   0  0  0  0  0  0  0  0  0  0  0  0
  -26.7202  -22.4611   24.5438 C   0  0  0  0  0  0  0  0  0  0  0  0
  -26.3958  -22.7025   27.9325 C   0  0  0  0  0  0  0  0  0  0  0  0
  -30.5692  -14.8150   21.0778 C   0  0  0  0  0  0  0  0  0  0  0  0
  -26.7721  -20.7504   16.9342 C   0  0  0  0  0  0  0  0  0  0  0  0
  -25.9643  -19.1145   23.1866 C   0  0  0  0  0  0  0  0  0  0  0  0
  -27.9473  -20.3100   25.0259 C   0  0  0  0  0  0  0  0  0  0  0  0
  -26.8005  -21.7878   18.0537 C   0  0  0  0  0  0  0  0  0  0  0  0
  -29.7122  -12.3114   18.6090 C   0  0  0  0  0  0  0  0  0  0  0  0
  -28.0510  -21.6150   18.9100 C   0  0  0  0  0  0  0  0  0  0  0  0
  -28.2480  -12.0330   18.9537 C   0  0  0  0  0  0  0  0  0  0  0  0
  -30.5407  -12.5505   19.8678 C   0  0  0  0  0  0  0  0  0  0  0  0
  -28.5620  -13.3612   21.0931 C   0  0  0  0  0  0  0  0  0  0  0  0
  -28.0731  -20.2371   19.5825 C   0  0  1  0  0  0  0  0  0  0  0  0
  -26.4633  -20.5453   23.0098 C   0  0  1  0  0  0  0  0  0  0  0  0
  -27.6671  -13.1334   19.8613 C   0  0  2  0  0  0  0  0  0  0  0  0
  -35.2589  -14.4626   21.6161 C   0  0  0  0  0  0  0  0  0  0  0  0
  -34.5978  -12.8580   25.4979 C   0  0  0  0  0  0  0  0  0  0  0  0
  -37.5148  -16.8792   24.2891 C   0  0  0  0  0  0  0  0  0  0  0  0
  -25.7304  -24.3134   29.7379 C   0  0  0  0  0  0  0  0  0  0  0  0
  -31.4358  -14.2398   27.6579 C   0  0  0  0  0  0  0  0  0  0  0  0
  -29.3867  -23.9106   24.2298 C   0  0  0  0  0  0  0  0  0  0  0  0
  -29.0947  -24.8045   26.5501 C   0  0  0  0  0  0  0  0  0  0  0  0
  -27.4492  -25.3963   24.7711 C   0  0  0  0  0  0  0  0  0  0  0  0
  -24.1802  -20.9589   28.8324 C   0  0  0  0  0  0  0  0  0  0  0  0
  -32.6516  -16.1605   20.9757 C   0  0  0  0  0  0  0  0  0  0  0  0
  -35.8682  -13.3778   24.8350 C   0  0  0  0  0  0  0  0  0  0  0  0
  -37.3129  -15.3694   24.2363 C   0  0  0  0  0  0  0  0  0  0  0  0
  -33.2608  -15.7520   26.8396 C   0  0  0  0  0  0  0  0  0  0  0  0
  -33.7809  -16.8067   25.8531 C   0  0  0  0  0  0  0  0  0  0  0  0
  -30.7889  -16.3412   26.4352 C   0  0  0  0  0  0  0  0  0  1  0  0
  -35.8911  -14.9370   24.7221 C   0  0  0  0  0  0  0  0  0  0  0  0
  -27.4603  -23.0526   25.7192 C   0  0  1  0  0  0  0  0  0  0  0  0
  -25.2600  -23.2109   28.8020 C   0  0  2  0  0  0  0  0  0  0  0  0
  -31.8368  -15.2263   26.5537 C   0  0  2  0  0  0  0  0  0  0  0  0
  -28.3475  -24.2630   25.3127 C   0  0  0  0  0  0  0  0  0  0  0  0
  -25.8452  -11.5613   20.4012 N   0  0  0  0  0  0  0  0  0  0  0  0
  -33.8465  -16.3296   24.4237 N   0  0  0  0  0  0  0  0  0  0  0  0
  -26.2302  -12.8401   20.2511 N   0  0  0  0  0  0  0  0  0  0  0  0
  -26.9911  -21.1171   24.2502 N   0  0  0  0  0  0  0  0  0  0  0  0
  -29.9444  -13.6219   20.6781 N   0  0  0  0  0  0  0  0  0  0  0  0
  -25.4513  -15.0738   20.3721 N   0  0  0  0  0  0  0  0  0  0  0  0
  -21.7976  -12.6378   21.4269 N   0  0  0  0  0  0  0  0  0  0  0  0
  -27.1812  -20.2164   20.7220 N   0  0  0  0  0  0  0  0  0  0  0  0
  -26.4490  -23.3636   26.7236 N   0  0  0  0  0  0  0  0  0  0  0  0
  -31.8803  -14.9817   20.6490 N   0  0  0  0  0  0  0  0  0  0  0  0
  -24.7017  -22.1016   29.6257 N   0  3  0  0  0  0  0  0  0  0  0  0
  -22.5906  -14.7675   21.1200 O   0  0  0  0  0  0  0  0  0  0  0  0
  -28.6420  -21.1126   22.2983 O   0  0  0  0  0  0  0  0  0  0  0  0
  -25.9257  -23.1636   23.9139 O   0  0  0  0  0  0  0  0  0  0  0  0
  -27.1617  -21.8108   28.2914 O   0  0  0  0  0  0  0  0  0  0  0  0
  -29.9988  -15.6714   21.7621 O   0  0  0  0  0  0  0  0  0  0  0  0
  -21.5145   -7.0815   21.7148 O   0  0  0  0  0  0  0  0  0  0  0  0
  -29.5074  -15.8021   26.1133 O   0  0  0  0  0  0  0  0  0  1  0  0
  -23.7627   -3.1345   24.8408 F   0  0  0  0  0  0  0  0  0  0  0  0
  -20.3207   -6.2938   24.0806 F   0  0  0  0  0  0  0  0  0  0  0  0
  1  2  1  0  0  0  0
  1  5  2  0  0  0  0
  2  6  2  0  0  0  0
  3  8  2  0  0  0  0
  3 16  1  0  0  0  0
  4  9  1  0  0  0  0
  4 16  2  0  0  0  0
  5 18  1  0  0  0  0
  6 20  1  0  0  0  0
  7 10  2  0  0  0  0
  7 19  1  0  0  0  0
  8 24  1  0  0  0  0
  9 24  2  0  0  0  0
 10 25  1  0  0  0  0
 11 12  2  0  0  0  0
 11 26  1  0  0  0  0
 12 27  1  0  0  0  0
 13 21  1  0  0  0  0
 13 25  2  0  0  0  0
 14 27  2  0  0  0  0
 14 28  1  0  0  0  0
 15 22  2  0  0  0  0
 15 70  1  0  0  0  0
 16 29  1  0  0  0  0
 17 29  1  0  0  0  0
 17 31  2  0  0  0  0
 17 32  1  0  0  0  0
 18 20  2  0  0  0  0
 18 37  1  0  0  0  0
 19 21  2  0  0  0  0
 19 38  1  0  0  0  0
 20 46  1  0  0  0  0
 21 39  1  0  0  0  0
 22 23  1  0  0  0  0
 22 58  1  0  0  0  0
 23 30  2  0  0  0  0
 23 49  1  0  0  0  0
 24 85  1  0  0  0  0
 25 86  1  0  0  0  0
 26 28  2  0  0  0  0
 26 85  1  0  0  0  0
 27 87  1  0  0  0  0
 28 88  1  0  0  0  0
 29 69  2  0  0  0  0
 30 64  1  0  0  0  0
 30 70  1  0  0  0  0
 31 71  1  0  0  0  0
 31 74  1  0  0  0  0
 32 75  1  0  0  0  0
 32 80  2  0  0  0  0
 33 47  1  0  0  0  0
 33 76  1  0  0  0  0
 33 81  2  0  0  0  0
 34 65  1  0  0  0  0
 34 72  1  0  0  0  0
 34 82  2  0  0  0  0
 35 66  1  0  0  0  0
 35 77  1  0  0  0  0
 35 83  2  0  0  0  0
 36 73  1  0  0  0  0
 36 78  1  0  0  0  0
 36 84  2  0  0  0  0
 37 40  1  0  0  0  0
 38 47  1  0  0  0  0
 39 72  1  0  0  0  0
 40 42  1  0  0  0  0
 41 43  1  0  0  0  0
 41 44  1  0  0  0  0
 42 46  1  0  0  0  0
 43 48  1  0  0  0  0
 44 73  1  0  0  0  0
 45 48  1  0  0  0  0
 45 73  1  0  0  0  0
 46 76  1  0  0  0  0
 47 72  1  0  0  0  0
 48 71  1  0  0  0  0
 50 59  1  0  0  0  0
 51 60  1  0  0  0  0
 52 66  1  0  0  0  0
 53 67  1  0  0  0  0
 54 68  1  0  0  0  0
 55 68  1  0  0  0  0
 56 68  1  0  0  0  0
 57 79  1  0  0  0  0
 58 78  1  0  0  0  0
 59 64  1  0  0  0  0
 60 64  1  0  0  0  0
 61 62  1  0  0  0  0
 61 67  1  0  0  0  0
 62 70  1  0  0  0  0
 63 67  1  0  0  0  0
 63 86  1  0  0  0  0
 65 68  1  0  0  0  0
 65 77  1  0  0  0  0
 66 79  1  0  0  0  0
 69 71  1  0  0  0  0
M  CHG  1  79   1
M  ISO  4  36 100  63 101  78 100  86 101
M  END
> <Batch ID>
0098

> <Smiles>
CCC(CC)c1c(C)c(C[100NH:0][100C:0](=O)N2CCCC(n3nc(-c4ccc(Oc5ccc(F)cc5F)cc4)c(C(N)=O)c3N)C2)cn1CCC(C)[101CH2:1][101O:1]c1ccc2c(c1)CN(C(=O)C(NC(=O)C(C)NC)C(C)(C)C)C(C(=O)NC1CCCc3ccccc31)C2

> <Shape>
0.190

> <Color>
0.172

> <Negative vol penalty>
0.000

$$$$

  -OEChem-04052319293D

 87 95  0     1  0  0  0  0  0999 V2000
  -26.9443  -36.2864   20.8603 C   0  0  0  0  0  0  0  0  0  0  0  0
  -27.4039  -34.9753   20.9330 C   0  0  0  0  0  0  0  0  0  0  0  0
  -24.4555  -12.7983   21.5203 C   0  0  0  0  0  0  0  0  0  0  0  0
  -25.9016  -12.6621   19.5896 C   0  0  0  0  0  0  0  0  0  0  0  0
  -25.7655  -36.6478   21.5113 C   0  0  0  0  0  0  0  0  0  0  0  0
  -26.6854  -34.0250   21.6577 C   0  0  0  0  0  0  0  0  0  0  0  0
  -26.2135  -29.6371   19.1741 C   0  0  0  0  0  0  0  0  0  0  0  0
  -23.8523  -11.5954   21.1533 C   0  0  0  0  0  0  0  0  0  0  0  0
  -25.2984  -11.4591   19.2227 C   0  0  0  0  0  0  0  0  0  0  0  0
  -27.3184  -28.7867   19.1683 C   0  0  0  0  0  0  0  0  0  0  0  0
  -24.5552   -8.2939   21.3520 C   0  0  0  0  0  0  0  0  0  0  0  0
  -24.3430   -7.3440   22.3510 C   0  0  0  0  0  0  0  0  0  0  0  0
  -26.3110  -27.4756   20.9248 C   0  0  0  0  0  0  0  0  0  0  0  0
  -29.0368  -22.4988   16.8770 C   0  0  0  0  0  0  0  0  0  0  0  0
  -21.9666   -7.4245   21.9228 C   0  0  0  0  0  0  0  0  0  0  0  0
  -30.9001  -21.2849   17.2298 C   0  0  0  0  0  0  0  0  0  0  0  0
  -25.4802  -13.3317   20.7384 C   0  0  0  0  0  0  0  0  0  0  0  0
  -27.2277  -14.7438   21.9466 C   0  0  0  0  0  0  0  0  0  0  0  0
  -25.0271  -35.6992   22.2363 C   0  0  0  0  0  0  0  0  0  0  0  0
  -25.1523  -29.4190   20.0644 C   0  0  0  0  0  0  0  0  0  0  0  0
  -25.4963  -34.3743   22.3201 C   0  0  0  0  0  0  0  0  0  0  0  0
  -25.1927  -28.3232   20.9382 C   0  0  0  0  0  0  0  0  0  0  0  0
  -30.4070  -22.5710   17.2297 C   0  0  0  0  0  0  0  0  0  0  0  0
  -24.2737  -10.9258   20.0046 C   0  0  0  0  0  0  0  0  0  0  0  0
  -27.3686  -27.7075   20.0457 C   0  0  0  0  0  0  0  0  0  0  0  0
  -23.4731   -8.8093   20.6384 C   0  0  0  0  0  0  0  0  0  0  0  0
  -23.0487   -6.9092   22.6364 C   0  0  0  0  0  0  0  0  0  0  0  0
  -22.1788   -8.3745   20.9238 C   0  0  0  0  0  0  0  0  0  0  0  0
  -26.1033  -14.5746   21.1166 C   0  0  0  0  0  0  0  0  0  0  0  0
  -28.7342  -21.1706   16.6724 C   0  0  0  0  0  0  0  0  0  0  0  0
  -27.4189  -16.1031   21.9928 C   0  0  0  0  0  0  0  0  0  0  0  0
  -28.0279  -13.7602   22.6158 C   0  0  0  0  0  0  0  0  0  0  0  0
  -23.8484  -31.0696   22.4475 C   0  0  0  0  0  0  0  0  0  0  0  0
  -21.6801  -28.6572   22.4142 C   0  0  0  0  0  0  0  0  0  0  0  0
  -20.9632  -25.4169   21.6184 C   0  0  0  0  0  0  0  0  0  0  0  0
  -25.9548  -20.5557   18.2670 C   0  0  0  0  0  0  0  0  0  0  0  0
  -23.7838  -36.1478   22.9625 C   0  0  0  0  0  0  0  0  0  0  0  0
  -23.9555  -30.3299   20.0397 C   0  0  0  0  0  0  0  0  0  0  0  0
  -24.0701  -28.0337   21.8996 C   0  0  0  0  0  0  0  0  0  0  0  0
  -22.8835  -34.9947   23.3985 C   0  0  0  0  0  0  0  0  0  0  0  0
  -25.0238  -20.2338   21.6884 C   0  0  0  0  0  0  0  0  0  0  0  0
  -23.7081  -33.8932   24.0569 C   0  0  0  0  0  0  0  0  0  0  0  0
  -25.2964  -18.7621   22.0047 C   0  0  0  0  0  0  0  0  0  0  0  0
  -24.4987  -20.4175   20.2663 C   0  0  0  0  0  0  0  0  0  0  0  0
  -25.6118  -18.3457   19.5297 C   0  0  0  0  0  0  0  0  0  0  0  0
  -24.7318  -33.3092   23.0758 C   0  0  1  0  0  0  0  0  0  0  0  0
  -23.1647  -30.3127   21.3442 C   0  0  1  0  0  0  0  0  0  0  0  0
  -26.1959  -18.1157   20.9341 C   0  0  2  0  0  0  0  0  0  0  0  0
  -19.1203  -23.7185   21.7466 C   0  0  0  0  0  0  0  0  0  0  0  0
  -28.9754  -16.1578   17.3058 C   0  0  0  0  0  0  0  0  0  0  0  0
  -30.2019  -16.2069   19.4863 C   0  0  0  0  0  0  0  0  0  0  0  0
  -22.2273  -28.2919   25.3936 C   0  0  0  0  0  0  0  0  0  0  0  0
  -21.1247  -26.0487   25.2500 C   0  0  0  0  0  0  0  0  0  0  0  0
  -19.8184  -28.1132   24.7458 C   0  0  0  0  0  0  0  0  0  0  0  0
  -32.5523  -23.6400   17.8740 C   0  0  0  0  0  0  0  0  0  0  0  0
  -20.8673  -25.1280   18.6746 C   0  0  0  0  0  0  0  0  0  0  0  0
  -27.4549  -20.5383   16.2900 C   0  0  0  0  0  0  0  0  0  0  0  0
  -30.0108  -18.3280   18.1540 C   0  0  0  0  0  0  0  0  0  0  0  0
  -29.7686  -25.3244   18.7769 C   0  0  0  0  0  0  0  0  0  0  0  0
  -29.9958  -19.0047   16.7818 C   0  0  0  0  0  0  0  0  0  0  0  0
  -30.5175  -25.0378   17.4811 C   0  0  0  0  0  0  0  0  0  0  0  0
  -29.1346  -26.7102   18.8037 C   0  0  0  0  0  0  0  0  0  1  0  0
  -21.5621  -27.3163   23.0976 C   0  0  1  0  0  0  0  0  0  0  0  0
  -19.7804  -24.7945   20.8986 C   0  0  2  0  0  0  0  0  0  0  0  0
  -30.1330  -16.7957   18.0752 C   0  0  0  0  0  0  0  0  0  0  0  0
  -21.2053  -27.4488   24.6051 C   0  0  0  0  0  0  0  0  0  0  0  0
  -25.6144  -15.7338   20.6680 N   0  0  0  0  0  0  0  0  0  0  0  0
  -29.8744  -20.4419   16.8899 N   0  0  0  0  0  0  0  0  0  0  0  0
  -26.4355  -16.6444   21.2182 N   0  0  0  0  0  0  0  0  0  0  0  0
  -22.9245  -28.9567   21.8418 N   0  0  0  0  0  0  0  0  0  0  0  0
  -25.3980  -19.7831   19.2995 N   0  0  0  0  0  0  0  0  0  0  0  0
  -28.3305  -16.8762   22.6202 N   0  0  0  0  0  0  0  0  0  0  0  0
  -27.6926  -12.4082   22.4610 N   0  0  0  0  0  0  0  0  0  0  0  0
  -24.0865  -32.3989   22.1543 N   0  0  0  0  0  0  0  0  0  0  0  0
  -20.5972  -26.5457   22.3207 N   0  0  0  0  0  0  0  0  0  0  0  0
  -26.8013  -19.8781   17.3980 N   0  0  0  0  0  0  0  0  0  0  0  0
  -31.1334  -23.7336   17.5250 N   0  0  3  0  0  0  0  0  0  0  0  0
  -20.2212  -24.1773   19.6157 N   0  3  0  0  0  0  0  0  0  0  0  0
  -29.0011  -14.0719   23.3432 O   0  0  0  0  0  0  0  0  0  0  0  0
  -24.1372  -30.4909   23.4883 O   0  0  0  0  0  0  0  0  0  0  0  0
  -20.7020  -29.4082   22.3829 O   0  0  0  0  0  0  0  0  0  0  0  0
  -22.0974  -24.9465   21.5662 O   0  0  0  0  0  0  0  0  0  0  0  0
  -25.7194  -21.7614   18.1328 O   0  0  0  0  0  0  0  0  0  0  0  0
  -23.6855   -9.7518   19.6463 O   0  0  0  0  0  0  0  0  0  0  0  0
  -28.4461  -26.8764   20.0425 O   0  0  0  0  0  0  0  0  0  1  0  0
  -22.8453   -5.9958   23.5948 F   0  0  0  0  0  0  0  0  0  0  0  0
  -21.1354   -8.8651   20.2408 F   0  0  0  0  0  0  0  0  0  0  0  0
  1  2  1  0  0  0  0
  1  5  2  0  0  0  0
  2  6  2  0  0  0  0
  3  8  2  0  0  0  0
  3 17  1  0  0  0  0
  4  9  1  0  0  0  0
  4 17  2  0  0  0  0
  5 19  1  0  0  0  0
  6 21  1  0  0  0  0
  7 10  2  0  0  0  0
  7 20  1  0  0  0  0
  8 24  1  0  0  0  0
  9 24  2  0  0  0  0
 10 25  1  0  0  0  0
 11 12  2  0  0  0  0
 11 26  1  0  0  0  0
 12 27  1  0  0  0  0
 13 22  1  0  0  0  0
 13 25  2  0  0  0  0
 14 23  1  0  0  0  0
 14 30  2  0  0  0  0
 15 27  2  0  0  0  0
 15 28  1  0  0  0  0
 16 23  2  0  0  0  0
 16 68  1  0  0  0  0
 17 29  1  0  0  0  0
 18 29  1  0  0  0  0
 18 31  2  0  0  0  0
 18 32  1  0  0  0  0
 19 21  2  0  0  0  0
 19 37  1  0  0  0  0
 20 22  2  0  0  0  0
 20 38  1  0  0  0  0
 21 46  1  0  0  0  0
 22 39  1  0  0  0  0
 23 77  1  0  0  0  0
 24 84  1  0  0  0  0
 25 85  1  0  0  0  0
 26 28  2  0  0  0  0
 26 84  1  0  0  0  0
 27 86  1  0  0  0  0
 28 87  1  0  0  0  0
 29 67  2  0  0  0  0
 30 57  1  0  0  0  0
 30 68  1  0  0  0  0
 31 69  1  0  0  0  0
 31 72  1  0  0  0  0
 32 73  1  0  0  0  0
 32 79  2  0  0  0  0
 33 47  1  0  0  0  0
 33 74  1  0  0  0  0
 33 80  2  0  0  0  0
 34 63  1  0  0  0  0
 34 70  1  0  0  0  0
 34 81  2  0  0  0  0
 35 64  1  0  0  0  0
 35 75  1  0  0  0  0
 35 82  2  0  0  0  0
 36 71  1  0  0  0  0
 36 76  1  0  0  0  0
 36 83  2  0  0  0  0
 37 40  1  0  0  0  0
 38 47  1  0  0  0  0
 39 70  1  0  0  0  0
 40 42  1  0  0  0  0
 41 43  1  0  0  0  0
 41 44  1  0  0  0  0
 42 46  1  0  0  0  0
 43 48  1  0  0  0  0
 44 71  1  0  0  0  0
 45 48  1  0  0  0  0
 45 71  1  0  0  0  0
 46 74  1  0  0  0  0
 47 70  1  0  0  0  0
 48 69  1  0  0  0  0
 49 64  1  0  0  0  0
 50 65  1  0  0  0  0
 51 65  1  0  0  0  0
 52 66  1  0  0  0  0
 53 66  1  0  0  0  0
 54 66  1  0  0  0  0
 55 77  1  0  0  0  0
 56 78  1  0  0  0  0
 57 76  1  0  0  0  0
 58 60  1  0  0  0  0
 58 65  1  0  0  0  0
 59 61  1  0  0  0  0
 59 62  1  0  0  0  0
 60 68  1  0  0  0  0
 61 77  1  0  0  0  0
 62 85  1  0  0  0  0
 63 66  1  0  0  0  0
 63 75  1  0  0  0  0
 64 78  1  0  0  0  0
 67 69  1  0  0  0  0
M  CHG  1  78   1
M  ISO  4  36 100  62 101  76 100  85 101
M  END
> <Batch ID>
0098

> <Smiles>
CNC(C)C(=O)NC(C(=O)N1Cc2cc([101O:1][101CH2:1]CCN(C)c3cc(C[100NH:0][100C:0](=O)N4CCCC(n5nc(-c6ccc(Oc7ccc(F)cc7F)cc6)c(C(N)=O)c5N)C4)n(CCC(C)C)c3)ccc2CC1C(=O)NC1CCCc2ccccc21)C(C)(C)C

> <Shape>
0.265

> <Color>
0.070

> <Negative vol penalty>
0.000

$$$$

  -OEChem-04052319293D

 84 92  0     1  0  0  0  0  0999 V2000
  -27.5655  -32.0850   27.5636 C   0  0  0  0  0  0  0  0  0  0  0  0
  -27.7146  -30.9997   26.7061 C   0  0  0  0  0  0  0  0  0  0  0  0
  -26.5207  -13.1929   21.9411 C   0  0  0  0  0  0  0  0  0  0  0  0
  -25.9024  -14.0356   19.7629 C   0  0  0  0  0  0  0  0  0  0  0  0
  -26.3106  -32.6674   27.7374 C   0  0  0  0  0  0  0  0  0  0  0  0
  -26.6088  -30.4955   26.0226 C   0  0  0  0  0  0  0  0  0  0  0  0
  -27.6034  -29.5490   21.1482 C   0  0  0  0  0  0  0  0  0  0  0  0
  -25.2540  -12.6261   22.0814 C   0  0  0  0  0  0  0  0  0  0  0  0
  -24.6356  -13.4688   19.9032 C   0  0  0  0  0  0  0  0  0  0  0  0
  -28.3068  -28.3810   20.8570 C   0  0  0  0  0  0  0  0  0  0  0  0
  -23.2317  -10.4086   19.6121 C   0  0  0  0  0  0  0  0  0  0  0  0
  -22.7108   -9.7119   18.5218 C   0  0  0  0  0  0  0  0  0  0  0  0
  -26.2385  -27.2903   20.2640 C   0  0  0  0  0  0  0  0  0  0  0  0
  -27.4848  -24.7518   15.3193 C   0  0  0  0  0  0  0  0  0  0  0  0
  -29.1104  -25.9611   16.6353 C   0  0  0  0  0  0  0  0  0  0  0  0
  -20.8392  -11.2376   18.4411 C   0  0  0  0  0  0  0  0  0  0  0  0
  -26.8450  -13.8976   20.7818 C   0  0  0  0  0  0  0  0  0  0  0  0
  -29.2971  -13.8821   20.0787 C   0  0  0  0  0  0  0  0  0  0  0  0
  -25.1906  -32.1761   27.0483 C   0  0  0  0  0  0  0  0  0  0  0  0
  -26.2087  -29.5931   21.0096 C   0  0  0  0  0  0  0  0  0  0  0  0
  -25.3375  -31.0710   26.1883 C   0  0  0  0  0  0  0  0  0  0  0  0
  -25.5200  -28.4609   20.5516 C   0  0  0  0  0  0  0  0  0  0  0  0
  -28.2925  -25.8731   15.5088 C   0  0  0  0  0  0  0  0  0  0  0  0
  -27.4949  -23.7185   16.2564 C   0  0  0  0  0  0  0  0  0  0  0  0
  -29.1205  -24.9279   17.5723 C   0  0  0  0  0  0  0  0  0  0  0  0
  -28.3128  -23.8066   17.3828 C   0  0  0  0  0  0  0  0  0  0  0  0
  -24.3114  -12.7640   21.0625 C   0  0  0  0  0  0  0  0  0  0  0  0
  -27.6241  -27.2506   20.4176 C   0  0  0  0  0  0  0  0  0  0  0  0
  -22.5564  -11.5198   20.1170 C   0  0  0  0  0  0  0  0  0  0  0  0
  -21.5145  -10.1264   17.9363 C   0  0  0  0  0  0  0  0  0  0  0  0
  -21.3602  -11.9343   19.5315 C   0  0  0  0  0  0  0  0  0  0  0  0
  -28.1532  -14.4838   20.6365 C   0  0  0  0  0  0  0  0  0  0  0  0
  -30.2722  -14.8447   20.1734 C   0  0  0  0  0  0  0  0  0  0  0  0
  -29.4634  -12.5703   19.5245 C   0  0  0  0  0  0  0  0  0  0  0  0
  -23.7718  -30.0783   22.9920 C   0  0  0  0  0  0  0  0  0  0  0  0
  -22.0361  -30.0105   20.2525 C   0  0  0  0  0  0  0  0  0  0  0  0
  -21.7817  -28.9811   17.0087 C   0  0  0  0  0  0  0  0  0  0  0  0
  -30.0848  -20.8212   20.4867 C   0  0  0  0  0  0  0  0  0  0  0  0
  -23.8457  -32.8086   27.3045 C   0  0  0  0  0  0  0  0  0  0  0  0
  -25.4675  -30.8689   21.3022 C   0  0  0  0  0  0  0  0  0  0  0  0
  -24.0253  -28.4627   20.3668 C   0  0  0  0  0  0  0  0  0  0  0  0
  -22.7949  -32.4513   26.2565 C   0  0  0  0  0  0  0  0  0  0  0  0
  -31.5805  -18.6003   22.8334 C   0  0  0  0  0  0  0  0  0  0  0  0
  -22.8105  -30.9523   25.9743 C   0  0  0  0  0  0  0  0  0  0  0  0
  -30.9749  -17.2391   22.4862 C   0  0  0  0  0  0  0  0  0  0  0  0
  -30.5680  -19.7299   22.6574 C   0  0  0  0  0  0  0  0  0  0  0  0
  -29.3174  -18.4213   20.9848 C   0  0  0  0  0  0  0  0  0  0  0  0
  -24.1665  -30.5112   25.4102 C   0  0  1  0  0  0  0  0  0  0  0  0
  -23.9919  -30.6438   21.6175 C   0  0  1  0  0  0  0  0  0  0  0  0
  -30.3170  -17.2570   21.0933 C   0  0  2  0  0  0  0  0  0  0  0  0
  -28.2811  -26.9780   14.5073 C   0  0  0  0  0  0  0  0  0  0  0  0
  -26.6214  -22.5281   16.0294 C   0  0  0  0  0  0  0  0  0  0  0  0
  -31.4956  -25.1118   18.3829 C   0  0  0  0  0  0  0  0  0  0  0  0
  -20.2300  -29.0453   15.0375 C   0  0  0  0  0  0  0  0  0  0  0  0
  -20.2963  -27.8692   21.5554 C   0  0  0  0  0  0  0  0  0  0  0  0
  -19.4063  -27.3087   19.2834 C   0  0  0  0  0  0  0  0  0  0  0  0
  -19.0337  -29.5817   20.2411 C   0  0  0  0  0  0  0  0  0  0  0  0
  -23.7532  -30.4456   15.3573 C   0  0  0  0  0  0  0  0  0  0  0  0
  -28.3238  -22.6984   18.3871 C   0  0  0  0  0  0  0  0  0  0  0  0
  -29.5376  -21.7727   18.2609 C   0  0  0  0  0  0  0  0  0  0  0  0
  -29.6481  -26.2545   19.6644 C   0  0  0  0  0  0  0  0  0  1  0  0
  -30.0212  -25.0485   18.7915 C   0  0  1  0  0  0  0  0  0  0  0  0
  -21.3461  -28.9336   19.4505 C   0  0  1  0  0  0  0  0  0  0  0  0
  -21.3932  -29.7245   15.7435 C   0  0  2  0  0  0  0  0  0  0  0  0
  -20.0485  -28.4223   20.1378 C   0  0  0  0  0  0  0  0  0  0  0  0
  -28.3791  -15.7320   21.0547 N   0  0  0  0  0  0  0  0  0  0  0  0
  -29.6763  -15.9225   20.7597 N   0  0  0  0  0  0  0  0  0  0  0  0
  -23.3447  -29.7320   20.6720 N   0  0  0  0  0  0  0  0  0  0  0  0
  -29.9822  -19.6916   21.3153 N   0  0  0  0  0  0  0  0  0  0  0  0
  -31.5726  -14.8660   19.8117 N   0  0  0  0  0  0  0  0  0  0  0  0
  -28.3587  -11.7080   19.5054 N   0  0  0  0  0  0  0  0  0  0  0  0
  -24.2716  -30.8663   24.0112 N   0  0  0  0  0  0  0  0  0  0  0  0
  -21.1373  -29.4881   18.1173 N   0  0  0  0  0  0  0  0  0  0  0  0
  -29.5082  -20.6986   19.2284 N   0  0  0  0  0  0  0  0  0  0  0  0
  -22.5464  -29.7813   14.8012 N   0  3  0  0  0  0  0  0  0  0  0  0
  -30.5635  -12.1687   19.0750 O   0  0  0  0  0  0  0  0  0  0  0  0
  -23.1902  -29.0072   23.1187 O   0  0  0  0  0  0  0  0  0  0  0  0
  -21.4388  -31.0629   20.4917 O   0  0  0  0  0  0  0  0  0  0  0  0
  -22.5744  -28.0419   17.0126 O   0  0  0  0  0  0  0  0  0  0  0  0
  -30.6532  -21.8600   20.8400 O   0  0  0  0  0  0  0  0  0  0  0  0
  -23.0753  -12.2109   21.1990 O   0  0  0  0  0  0  0  0  0  0  0  0
  -28.3082  -26.1090   20.1334 O   0  0  0  0  0  0  0  0  0  1  0  0
  -21.0151   -9.4581   16.8884 F   0  0  0  0  0  0  0  0  0  0  0  0
  -20.7075  -13.0018   20.0113 F   0  0  0  0  0  0  0  0  0  0  0  0
  1  2  1  0  0  0  0
  1  5  2  0  0  0  0
  2  6  2  0  0  0  0
  3  8  2  0  0  0  0
  3 17  1  0  0  0  0
  4  9  1  0  0  0  0
  4 17  2  0  0  0  0
  5 19  1  0  0  0  0
  6 21  1  0  0  0  0
  7 10  2  0  0  0  0
  7 20  1  0  0  0  0
  8 27  1  0  0  0  0
  9 27  2  0  0  0  0
 10 28  1  0  0  0  0
 11 12  2  0  0  0  0
 11 29  1  0  0  0  0
 12 30  1  0  0  0  0
 13 22  1  0  0  0  0
 13 28  2  0  0  0  0
 14 23  1  0  0  0  0
 14 24  2  0  0  0  0
 15 23  2  0  0  0  0
 15 25  1  0  0  0  0
 16 30  2  0  0  0  0
 16 31  1  0  0  0  0
 17 32  1  0  0  0  0
 18 32  1  0  0  0  0
 18 33  2  0  0  0  0
 18 34  1  0  0  0  0
 19 21  2  0  0  0  0
 19 39  1  0  0  0  0
 20 22  2  0  0  0  0
 20 40  1  0  0  0  0
 21 48  1  0  0  0  0
 22 41  1  0  0  0  0
 23 51  1  0  0  0  0
 24 26  1  0  0  0  0
 24 52  1  0  0  0  0
 25 26  2  0  0  0  0
 25 62  1  0  0  0  0
 26 59  1  0  0  0  0
 27 81  1  0  0  0  0
 28 82  1  0  0  0  0
 29 31  2  0  0  0  0
 29 81  1  0  0  0  0
 30 83  1  0  0  0  0
 31 84  1  0  0  0  0
 32 66  2  0  0  0  0
 33 67  1  0  0  0  0
 33 70  1  0  0  0  0
 34 71  1  0  0  0  0
 34 76  2  0  0  0  0
 35 49  1  0  0  0  0
 35 72  1  0  0  0  0
 35 77  2  0  0  0  0
 36 63  1  0  0  0  0
 36 68  1  0  0  0  0
 36 78  2  0  0  0  0
 37 64  1  0  0  0  0
 37 73  1  0  0  0  0
 37 79  2  0  0  0  0
 38 69  1  0  0  0  0
 38 74  1  0  0  0  0
 38 80  2  0  0  0  0
 39 42  1  0  0  0  0
 40 49  1  0  0  0  0
 41 68  1  0  0  0  0
 42 44  1  0  0  0  0
 43 45  1  0  0  0  0
 43 46  1  0  0  0  0
 44 48  1  0  0  0  0
 45 50  1  0  0  0  0
 46 69  1  0  0  0  0
 47 50  1  0  0  0  0
 47 69  1  0  0  0  0
 48 72  1  0  0  0  0
 49 68  1  0  0  0  0
 50 67  1  0  0  0  0
 53 62  1  0  0  0  0
 54 64  1  0  0  0  0
 55 65  1  0  0  0  0
 56 65  1  0  0  0  0
 57 65  1  0  0  0  0
 58 75  1  0  0  0  0
 59 60  1  0  0  0  0
 60 74  1  0  0  0  0
 61 62  1  0  0  0  0
 61 82  1  0  0  0  0
 63 65  1  0  0  0  0
 63 73  1  0  0  0  0
 64 75  1  0  0  0  0
 66 67  1  0  0  0  0
M  CHG  1  75   1
M  ISO  4  38 100  61 101  74 100  82 101
M  END
> <Batch ID>
0098

> <Smiles>
CNC(C)C(=O)NC(C(=O)N1Cc2cc([101O:1][101CH2:1]C(C)c3cc(C)cc(C)c3CC[100NH:0][100C:0](=O)N3CCCC(n4nc(-c5ccc(Oc6ccc(F)cc6F)cc5)c(C(N)=O)c4N)C3)ccc2CC1C(=O)NC1CCCc2ccccc21)C(C)(C)C

> <Shape>
0.295

> <Color>
0.080

> <Negative vol penalty>
0.000

$$$$

  -OEChem-04052319293D

 76 83  0     1  0  0  0  0  0999 V2000
  -33.0392   -5.9105   28.4753 C   0  0  0  0  0  0  0  0  0  0  0  0
  -32.3001   -6.9593   27.9375 C   0  0  0  0  0  0  0  0  0  0  0  0
  -23.2263   -9.8325   19.9141 C   0  0  0  0  0  0  0  0  0  0  0  0
  -23.7982   -9.9276   22.2595 C   0  0  0  0  0  0  0  0  0  0  0  0
  -32.4003   -4.7291   28.8497 C   0  0  0  0  0  0  0  0  0  0  0  0
  -30.9218   -6.8269   27.7728 C   0  0  0  0  0  0  0  0  0  0  0  0
  -28.3791  -10.9286   29.3077 C   0  0  0  0  0  0  0  0  0  0  0  0
  -22.5036   -8.6607   20.1379 C   0  0  0  0  0  0  0  0  0  0  0  0
  -23.0754   -8.7558   22.4833 C   0  0  0  0  0  0  0  0  0  0  0  0
  -28.3686  -12.0287   28.4512 C   0  0  0  0  0  0  0  0  0  0  0  0
  -19.4761   -7.7987   21.3725 C   0  0  0  0  0  0  0  0  0  0  0  0
  -18.2149   -7.6931   20.7863 C   0  0  0  0  0  0  0  0  0  0  0  0
  -26.1672  -11.4049   27.6869 C   0  0  0  0  0  0  0  0  0  0  0  0
  -18.9438   -5.7366   19.5706 C   0  0  0  0  0  0  0  0  0  0  0  0
  -23.8737  -10.4660   20.9750 C   0  0  0  0  0  0  0  0  0  0  0  0
  -24.1398  -12.9976   20.8083 C   0  0  0  0  0  0  0  0  0  0  0  0
  -31.0120   -4.5858   28.6984 C   0  0  0  0  0  0  0  0  0  0  0  0
  -27.2865  -10.0508   29.3523 C   0  0  0  0  0  0  0  0  0  0  0  0
  -30.2639   -5.6421   28.1443 C   0  0  0  0  0  0  0  0  0  0  0  0
  -26.1653  -10.2959   28.5466 C   0  0  0  0  0  0  0  0  0  0  0  0
  -22.4281   -8.1224   21.4224 C   0  0  0  0  0  0  0  0  0  0  0  0
  -27.2637  -12.2654   27.6386 C   0  0  0  0  0  0  0  0  0  0  0  0
  -20.4712   -6.8733   21.0577 C   0  0  0  0  0  0  0  0  0  0  0  0
  -17.9487   -6.6621   19.8853 C   0  0  0  0  0  0  0  0  0  0  0  0
  -20.2050   -5.8423   20.1568 C   0  0  0  0  0  0  0  0  0  0  0  0
  -24.6210  -11.6761   20.7444 C   0  0  0  0  0  0  0  0  0  0  0  0
  -25.2321  -13.7755   20.5113 C   0  0  0  0  0  0  0  0  0  0  0  0
  -22.8232  -13.4789   21.1093 C   0  0  0  0  0  0  0  0  0  0  0  0
  -26.8629   -6.9629   28.7283 C   0  0  0  0  0  0  0  0  0  0  0  0
  -23.8922   -7.5334   29.8995 C   0  0  0  0  0  0  0  0  0  0  0  0
  -21.4107   -9.7898   30.5305 C   0  0  0  0  0  0  0  0  0  0  0  0
  -31.0492  -13.4662   21.5836 C   0  0  0  0  0  0  0  0  0  0  0  0
  -30.3726   -3.2724   29.0736 C   0  0  0  0  0  0  0  0  0  0  0  0
  -27.3022   -8.8837   30.3010 C   0  0  0  0  0  0  0  0  0  0  0  0
  -24.9585   -9.3950   28.5718 C   0  0  0  0  0  0  0  0  0  0  0  0
  -28.8547   -3.3520   29.2140 C   0  0  0  0  0  0  0  0  0  0  0  0
  -29.5447  -13.0291   18.2299 C   0  0  0  0  0  0  0  0  0  0  0  0
  -28.2480   -4.1028   28.0329 C   0  0  0  0  0  0  0  0  0  0  0  0
  -28.0923  -12.6876   18.5583 C   0  0  0  0  0  0  0  0  0  0  0  0
  -30.4949  -12.5950   19.3418 C   0  0  0  0  0  0  0  0  0  0  0  0
  -28.6819  -12.7857   21.0125 C   0  0  0  0  0  0  0  0  0  0  0  0
  -28.7634   -5.5458   27.9729 C   0  0  1  0  0  0  0  0  0  0  0  0
  -26.3488   -7.7662   29.8895 C   0  0  1  0  0  0  0  0  0  0  0  0
  -27.6935  -13.2517   19.9330 C   0  0  2  0  0  0  0  0  0  0  0  0
  -19.0852   -9.9519   31.4594 C   0  0  0  0  0  0  0  0  0  0  0  0
  -22.7821   -6.3332   27.3232 C   0  0  0  0  0  0  0  0  0  0  0  0
  -20.5709   -7.3693   27.8754 C   0  0  0  0  0  0  0  0  0  0  0  0
  -21.5605   -5.6597   29.3988 C   0  0  0  0  0  0  0  0  0  0  0  0
  -31.5813  -14.3604   23.8189 C   0  0  0  0  0  0  0  0  0  0  0  0
  -22.2756  -11.6210   32.6887 C   0  0  0  0  0  0  0  0  0  0  0  0
  -28.5758  -13.5889   24.2038 C   0  0  0  0  0  0  0  0  0  0  0  0
  -27.1466  -14.0477   24.4952 C   0  0  0  0  0  0  0  0  0  0  0  0
  -29.2280  -14.3872   23.0794 C   0  0  0  0  0  0  0  0  0  0  0  0
  -26.5029  -13.2099   25.5929 C   0  0  0  0  0  0  0  0  0  1  0  0
  -22.5755   -7.9734   29.3064 C   0  0  1  0  0  0  0  0  0  0  0  0
  -20.5711  -10.0434   31.7696 C   0  0  2  0  0  0  0  0  0  0  0  0
  -21.8956   -6.8500   28.4738 C   0  0  0  0  0  0  0  0  0  0  0  0
  -25.9179  -11.6142   20.4312 N   0  0  0  0  0  0  0  0  0  0  0  0
  -26.2610  -12.9065   20.2955 N   0  0  0  0  0  0  0  0  0  0  0  0
  -25.0245   -8.2636   29.5115 N   0  0  0  0  0  0  0  0  0  0  0  0
  -30.0683  -13.1091   20.6438 N   0  0  0  0  0  0  0  0  0  0  0  0
  -25.4033  -15.1111   20.4161 N   0  0  0  0  0  0  0  0  0  0  0  0
  -21.8183  -12.5436   21.3915 N   0  0  0  0  0  0  0  0  0  0  0  0
  -28.0877   -6.3652   28.9561 N   0  0  0  0  0  0  0  0  0  0  0  0
  -21.7696   -8.4631   30.4196 N   0  0  0  0  0  0  0  0  0  0  0  0
  -30.6022  -13.9657   22.8162 N   0  0  0  0  0  0  0  0  0  0  0  0
  -20.8541  -11.3999   32.3182 N   0  3  0  0  0  0  0  0  0  0  0  0
  -22.5423  -14.7014   21.1114 O   0  0  0  0  0  0  0  0  0  0  0  0
  -26.1969   -6.8896   27.7023 O   0  0  0  0  0  0  0  0  0  0  0  0
  -23.9142   -6.5816   30.6838 O   0  0  0  0  0  0  0  0  0  0  0  0
  -21.7145  -10.6789   29.7382 O   0  0  0  0  0  0  0  0  0  0  0  0
  -32.2558  -13.3544   21.3314 O   0  0  0  0  0  0  0  0  0  0  0  0
  -21.7227   -6.9791   21.6412 O   0  0  0  0  0  0  0  0  0  0  0  0
  -27.2511  -13.3380   26.8012 O   0  0  0  0  0  0  0  0  0  1  0  0
  -16.7370   -6.5599   19.3236 F   0  0  0  0  0  0  0  0  0  0  0  0
  -21.1567   -4.9496   19.8514 F   0  0  0  0  0  0  0  0  0  0  0  0
  1  2  1  0  0  0  0
  1  5  2  0  0  0  0
  2  6  2  0  0  0  0
  3  8  2  0  0  0  0
  3 15  1  0  0  0  0
  4  9  1  0  0  0  0
  4 15  2  0  0  0  0
  5 17  1  0  0  0  0
  6 19  1  0  0  0  0
  7 10  2  0  0  0  0
  7 18  1  0  0  0  0
  8 21  1  0  0  0  0
  9 21  2  0  0  0  0
 10 22  1  0  0  0  0
 11 12  2  0  0  0  0
 11 23  1  0  0  0  0
 12 24  1  0  0  0  0
 13 20  1  0  0  0  0
 13 22  2  0  0  0  0
 14 24  2  0  0  0  0
 14 25  1  0  0  0  0
 15 26  1  0  0  0  0
 16 26  1  0  0  0  0
 16 27  2  0  0  0  0
 16 28  1  0  0  0  0
 17 19  2  0  0  0  0
 17 33  1  0  0  0  0
 18 20  2  0  0  0  0
 18 34  1  0  0  0  0
 19 42  1  0  0  0  0
 20 35  1  0  0  0  0
 21 73  1  0  0  0  0
 22 74  1  0  0  0  0
 23 25  2  0  0  0  0
 23 73  1  0  0  0  0
 24 75  1  0  0  0  0
 25 76  1  0  0  0  0
 26 58  2  0  0  0  0
 27 59  1  0  0  0  0
 27 62  1  0  0  0  0
 28 63  1  0  0  0  0
 28 68  2  0  0  0  0
 29 43  1  0  0  0  0
 29 64  1  0  0  0  0
 29 69  2  0  0  0  0
 30 55  1  0  0  0  0
 30 60  1  0  0  0  0
 30 70  2  0  0  0  0
 31 56  1  0  0  0  0
 31 65  1  0  0  0  0
 31 71  2  0  0  0  0
 32 61  1  0  0  0  0
 32 66  1  0  0  0  0
 32 72  2  0  0  0  0
 33 36  1  0  0  0  0
 34 43  1  0  0  0  0
 35 60  1  0  0  0  0
 36 38  1  0  0  0  0
 37 39  1  0  0  0  0
 37 40  1  0  0  0  0
 38 42  1  0  0  0  0
 39 44  1  0  0  0  0
 40 61  1  0  0  0  0
 41 44  1  0  0  0  0
 41 61  1  0  0  0  0
 42 64  1  0  0  0  0
 43 60  1  0  0  0  0
 44 59  1  0  0  0  0
 45 56  1  0  0  0  0
 46 57  1  0  0  0  0
 47 57  1  0  0  0  0
 48 57  1  0  0  0  0
 49 66  1  0  0  0  0
 50 67  1  0  0  0  0
 51 52  1  0  0  0  0
 51 53  1  0  0  0  0
 52 54  1  0  0  0  0
 53 66  1  0  0  0  0
 54 74  1  0  0  0  0
 55 57  1  0  0  0  0
 55 65  1  0  0  0  0
 56 67  1  0  0  0  0
 58 59  1  0  0  0  0
M  CHG  1  67   1
M  ISO  4  32 100  54 101  66 100  74 101
M  END
> <Batch ID>
0098

> <Smiles>
CNC(C)C(=O)NC(C(=O)N1Cc2cc([101O:1][101CH2:1]CCC[100N:0](C)[100C:0](=O)N3CCCC(n4nc(-c5ccc(Oc6ccc(F)cc6F)cc5)c(C(N)=O)c4N)C3)ccc2CC1C(=O)NC1CCCc2ccccc21)C(C)(C)C

> <Shape>
0.129

> <Color>
0.190

> <Negative vol penalty>
0.000

$$$$

  -OEChem-04052319293D

 86 94  0     1  0  0  0  0  0999 V2000
  -21.6489  -11.8136   19.8251 C   0  0  0  0  0  0  0  0  0  0  0  0
  -21.4742  -13.0418   20.4547 C   0  0  0  0  0  0  0  0  0  0  0  0
  -31.2229  -27.0794   18.1662 C   0  0  0  0  0  0  0  0  0  0  0  0
  -29.2375  -27.0672   16.7896 C   0  0  0  0  0  0  0  0  0  0  0  0
  -22.9289  -11.2787   19.6860 C   0  0  0  0  0  0  0  0  0  0  0  0
  -22.5794  -13.7353   20.9467 C   0  0  0  0  0  0  0  0  0  0  0  0
  -22.4478  -18.6658   19.7987 C   0  0  0  0  0  0  0  0  0  0  0  0
  -31.8916  -26.3171   17.2086 C   0  0  0  0  0  0  0  0  0  0  0  0
  -29.9063  -26.3049   15.8318 C   0  0  0  0  0  0  0  0  0  0  0  0
  -21.6087  -19.4753   20.5630 C   0  0  0  0  0  0  0  0  0  0  0  0
  -30.9772  -24.0519   13.1885 C   0  0  0  0  0  0  0  0  0  0  0  0
  -30.3008  -22.9630   12.6386 C   0  0  0  0  0  0  0  0  0  0  0  0
  -23.5061  -20.2066   21.8607 C   0  0  0  0  0  0  0  0  0  0  0  0
  -30.0996  -21.9785   14.8357 C   0  0  0  0  0  0  0  0  0  0  0  0
  -20.7259  -26.9439   21.1474 C   0  0  0  0  0  0  0  0  0  0  0  0
  -29.8957  -27.4544   17.9568 C   0  0  0  0  0  0  0  0  0  0  0  0
  -29.1416  -29.6456   19.0233 C   0  0  0  0  0  0  0  0  0  0  0  0
  -24.0513  -11.9705   20.1679 C   0  0  0  0  0  0  0  0  0  0  0  0
  -23.8231  -18.6121   20.0671 C   0  0  0  0  0  0  0  0  0  0  0  0
  -23.8755  -13.2085   20.8152 C   0  0  0  0  0  0  0  0  0  0  0  0
  -24.3610  -19.3975   21.0967 C   0  0  0  0  0  0  0  0  0  0  0  0
  -31.2334  -25.9298   16.0413 C   0  0  0  0  0  0  0  0  0  0  0  0
  -22.1373  -20.2437   21.5961 C   0  0  0  0  0  0  0  0  0  0  0  0
  -31.2148  -24.1041   14.5620 C   0  0  0  0  0  0  0  0  0  0  0  0
  -29.8619  -21.9263   13.4622 C   0  0  0  0  0  0  0  0  0  0  0  0
  -30.7760  -23.0674   15.3856 C   0  0  0  0  0  0  0  0  0  0  0  0
  -29.2041  -28.2414   18.9459 C   0  0  0  0  0  0  0  0  0  0  0  0
  -20.8338  -27.8906   22.1422 C   0  0  0  0  0  0  0  0  0  0  0  0
  -19.1580  -26.8581   23.3065 C   0  0  0  0  0  0  0  0  0  0  0  0
  -19.0497  -25.9118   22.3113 C   0  0  0  0  0  0  0  0  0  0  0  0
  -28.3702  -29.8944   20.1321 C   0  0  0  0  0  0  0  0  0  0  0  0
  -29.7283  -30.6365   18.1692 C   0  0  0  0  0  0  0  0  0  0  0  0
  -25.8460  -16.3306   20.9651 C   0  0  0  0  0  0  0  0  0  0  0  0
  -28.0630  -18.6508   20.4916 C   0  0  0  0  0  0  0  0  0  0  0  0
  -28.7780  -21.9834   20.3213 C   0  0  0  0  0  0  0  0  0  0  0  0
  -23.7860  -27.7674   22.9562 C   0  0  0  0  0  0  0  0  0  0  0  0
  -25.4105  -11.3301   20.0365 C   0  0  0  0  0  0  0  0  0  0  0  0
  -24.7189  -17.7542   19.2162 C   0  0  0  0  0  0  0  0  0  0  0  0
  -25.8337  -19.3911   21.4123 C   0  0  0  0  0  0  0  0  0  0  0  0
  -26.5661  -12.3039   20.2520 C   0  0  0  0  0  0  0  0  0  0  0  0
  -27.1082  -27.3059   24.1507 C   0  0  0  0  0  0  0  0  0  0  0  0
  -26.3216  -13.1562   21.4932 C   0  0  0  0  0  0  0  0  0  0  0  0
  -27.9815  -27.6306   22.9376 C   0  0  0  0  0  0  0  0  0  0  0  0
  -25.8201  -26.5935   23.7444 C   0  0  0  0  0  0  0  0  0  0  0  0
  -25.8982  -27.6151   21.5029 C   0  0  0  0  0  0  0  0  0  0  0  0
  -25.0520  -14.0025   21.3399 C   0  0  1  0  0  0  0  0  0  0  0  0
  -26.0266  -17.3844   19.9094 C   0  0  1  0  0  0  0  0  0  0  0  0
  -27.1826  -28.3839   21.8571 C   0  0  2  0  0  0  0  0  0  0  0  0
  -17.4384  -28.0943   26.5345 C   0  0  0  0  0  0  0  0  0  0  0  0
  -16.6846  -25.2302   21.8332 C   0  0  0  0  0  0  0  0  0  0  0  0
  -30.6854  -23.5728   19.9567 C   0  0  0  0  0  0  0  0  0  0  0  0
  -29.0529  -18.1093   23.3265 C   0  0  0  0  0  0  0  0  0  0  0  0
  -30.2674  -20.2971   23.2456 C   0  0  0  0  0  0  0  0  0  0  0  0
  -30.8639  -18.4814   21.6424 C   0  0  0  0  0  0  0  0  0  0  0  0
  -27.5077  -23.1373   17.9101 C   0  0  0  0  0  0  0  0  0  0  0  0
  -18.2872  -26.8175   24.5156 C   0  0  0  0  0  0  0  0  0  0  0  0
  -21.8325  -28.9892   22.0343 C   0  0  0  0  0  0  0  0  0  0  0  0
  -18.3534  -28.1247   25.3206 C   0  0  0  0  0  0  0  0  0  0  0  0
  -19.7634  -22.8832   22.3471 C   0  0  0  0  0  0  0  0  0  0  0  0
  -18.5091  -23.4885   21.7003 C   0  0  0  0  0  0  0  0  0  0  0  0
  -20.1593  -21.5598   21.7022 C   0  0  0  0  0  0  0  0  0  1  0  0
  -18.0378  -24.7824   22.3990 C   0  0  1  0  0  0  0  0  0  0  0  0
  -28.6837  -19.7273   21.3487 C   0  0  1  0  0  0  0  0  0  0  0  0
  -29.5542  -22.7962   19.3009 C   0  0  2  0  0  0  0  0  0  0  0  0
  -29.6889  -19.1526   22.3864 C   0  0  0  0  0  0  0  0  0  0  0  0
  -19.8319  -25.9375   21.2141 N   0  0  0  0  0  0  0  0  0  0  0  0
  -28.5266  -27.6402   19.9275 N   0  0  0  0  0  0  0  0  0  0  0  0
  -20.0518  -27.8647   23.2396 N   0  0  0  0  0  0  0  0  0  0  0  0
  -28.0310  -28.6717   20.6322 N   0  0  0  0  0  0  0  0  0  0  0  0
  -26.6675  -18.5313   20.5561 N   0  0  0  0  0  0  0  0  0  0  0  0
  -25.1092  -27.3604   22.7185 N   0  0  0  0  0  0  0  0  0  0  0  0
  -27.9557  -31.0376   20.7184 N   0  0  0  0  0  0  0  0  0  0  0  0
  -30.4911  -30.2079   17.0743 N   0  0  0  0  0  0  0  0  0  0  0  0
  -25.3077  -15.1485   20.4938 N   0  0  0  0  0  0  0  0  0  0  0  0
  -29.2651  -20.6979   20.4276 N   0  0  0  0  0  0  0  0  0  0  0  0
  -23.1879  -28.4954   21.9350 N   0  0  0  0  0  0  0  0  0  0  0  0
  -28.6527  -23.7663   18.6173 N   0  3  0  0  0  0  0  0  0  0  0  0
  -29.5942  -31.8657   18.3804 O   0  0  0  0  0  0  0  0  0  0  0  0
  -26.1723  -16.5717   22.1215 O   0  0  0  0  0  0  0  0  0  0  0  0
  -28.7888  -17.9467   19.7852 O   0  0  0  0  0  0  0  0  0  0  0  0
  -27.8362  -22.4440   20.9628 O   0  0  0  0  0  0  0  0  0  0  0  0
  -23.1842  -27.5061   24.0034 O   0  0  0  0  0  0  0  0  0  0  0  0
  -31.8858  -25.1862   15.1065 O   0  0  0  0  0  0  0  0  0  0  0  0
  -21.3204  -21.0342   22.3441 O   0  0  0  0  0  0  0  0  0  1  0  0
  -29.2111  -20.8814   12.9342 F   0  0  0  0  0  0  0  0  0  0  0  0
  -31.0003  -23.1125   16.7060 F   0  0  0  0  0  0  0  0  0  0  0  0
  1  2  1  0  0  0  0
  1  5  2  0  0  0  0
  2  6  2  0  0  0  0
  3  8  2  0  0  0  0
  3 16  1  0  0  0  0
  4  9  1  0  0  0  0
  4 16  2  0  0  0  0
  5 18  1  0  0  0  0
  6 20  1  0  0  0  0
  7 10  2  0  0  0  0
  7 19  1  0  0  0  0
  8 22  1  0  0  0  0
  9 22  2  0  0  0  0
 10 23  1  0  0  0  0
 11 12  2  0  0  0  0
 11 24  1  0  0  0  0
 12 25  1  0  0  0  0
 13 21  1  0  0  0  0
 13 23  2  0  0  0  0
 14 25  2  0  0  0  0
 14 26  1  0  0  0  0
 15 28  1  0  0  0  0
 15 66  2  0  0  0  0
 16 27  1  0  0  0  0
 17 27  1  0  0  0  0
 17 31  2  0  0  0  0
 17 32  1  0  0  0  0
 18 20  2  0  0  0  0
 18 37  1  0  0  0  0
 19 21  2  0  0  0  0
 19 38  1  0  0  0  0
 20 46  1  0  0  0  0
 21 39  1  0  0  0  0
 22 83  1  0  0  0  0
 23 84  1  0  0  0  0
 24 26  2  0  0  0  0
 24 83  1  0  0  0  0
 25 85  1  0  0  0  0
 26 86  1  0  0  0  0
 27 67  2  0  0  0  0
 28 57  1  0  0  0  0
 28 68  2  0  0  0  0
 29 30  2  0  0  0  0
 29 56  1  0  0  0  0
 29 68  1  0  0  0  0
 30 62  1  0  0  0  0
 30 66  1  0  0  0  0
 31 69  1  0  0  0  0
 31 72  1  0  0  0  0
 32 73  1  0  0  0  0
 32 78  2  0  0  0  0
 33 47  1  0  0  0  0
 33 74  1  0  0  0  0
 33 79  2  0  0  0  0
 34 63  1  0  0  0  0
 34 70  1  0  0  0  0
 34 80  2  0  0  0  0
 35 64  1  0  0  0  0
 35 75  1  0  0  0  0
 35 81  2  0  0  0  0
 36 71  1  0  0  0  0
 36 76  1  0  0  0  0
 36 82  2  0  0  0  0
 37 40  1  0  0  0  0
 38 47  1  0  0  0  0
 39 70  1  0  0  0  0
 40 42  1  0  0  0  0
 41 43  1  0  0  0  0
 41 44  1  0  0  0  0
 42 46  1  0  0  0  0
 43 48  1  0  0  0  0
 44 71  1  0  0  0  0
 45 48  1  0  0  0  0
 45 71  1  0  0  0  0
 46 74  1  0  0  0  0
 47 70  1  0  0  0  0
 48 69  1  0  0  0  0
 49 58  1  0  0  0  0
 50 62  1  0  0  0  0
 51 64  1  0  0  0  0
 52 65  1  0  0  0  0
 53 65  1  0  0  0  0
 54 65  1  0  0  0  0
 55 77  1  0  0  0  0
 56 58  1  0  0  0  0
 57 76  1  0  0  0  0
 59 60  1  0  0  0  0
 59 61  1  0  0  0  0
 60 62  1  0  0  0  0
 61 84  1  0  0  0  0
 63 65  1  0  0  0  0
 63 75  1  0  0  0  0
 64 77  1  0  0  0  0
 67 69  1  0  0  0  0
M  CHG  1  77   1
M  ISO  4  36 100  61 101  76 100  84 101
M  END
> <Batch ID>
0098

> <Smiles>
CCCc1nc(C[100NH:0][100C:0](=O)N2CCCC(n3nc(-c4ccc(Oc5ccc(F)cc5F)cc4)c(C(N)=O)c3N)C2)cnc1C(C)CC[101CH2:1][101O:1]c1ccc2c(c1)CN(C(=O)C(NC(=O)C(C)NC)C(C)(C)C)C(C(=O)NC1CCCc3ccccc31)C2

> <Shape>
0.199

> <Color>
0.054

> <Negative vol penalty>
0.000

$$$$

  -OEChem-04052319293D

 91 99  0     1  0  0  0  0  0999 V2000
  -27.7986  -26.9063   15.1486 C   0  0  0  0  0  0  0  0  0  0  0  0
  -27.1490  -26.3787   16.2589 C   0  0  0  0  0  0  0  0  0  0  0  0
  -24.4875   -9.5327   21.3813 C   0  0  0  0  0  0  0  0  0  0  0  0
  -24.8703  -10.5735   23.5277 C   0  0  0  0  0  0  0  0  0  0  0  0
  -28.4864  -28.1131   15.2564 C   0  0  0  0  0  0  0  0  0  0  0  0
  -27.1770  -27.0637   17.4742 C   0  0  0  0  0  0  0  0  0  0  0  0
  -24.3822  -25.2808   21.1092 C   0  0  0  0  0  0  0  0  0  0  0  0
  -24.1968   -8.3262   22.0181 C   0  0  0  0  0  0  0  0  0  0  0  0
  -24.5796   -9.3671   24.1646 C   0  0  0  0  0  0  0  0  0  0  0  0
  -24.6908  -24.1034   21.7891 C   0  0  0  0  0  0  0  0  0  0  0  0
  -21.5848   -6.9420   23.6595 C   0  0  0  0  0  0  0  0  0  0  0  0
  -20.4673   -6.2310   23.2223 C   0  0  0  0  0  0  0  0  0  0  0  0
  -25.4814  -25.4000   23.6634 C   0  0  0  0  0  0  0  0  0  0  0  0
  -21.8814   -4.3548   22.6590 C   0  0  0  0  0  0  0  0  0  0  0  0
  -24.8242  -10.6563   22.1361 C   0  0  0  0  0  0  0  0  0  0  0  0
  -24.2197  -12.9273   21.1436 C   0  0  0  0  0  0  0  0  0  0  0  0
  -28.5327  -28.8064   16.4772 C   0  0  0  0  0  0  0  0  0  0  0  0
  -24.6314  -26.5289   21.6980 C   0  0  0  0  0  0  0  0  0  0  0  0
  -27.8456  -28.2951   17.5970 C   0  0  0  0  0  0  0  0  0  0  0  0
  -25.1726  -26.5917   22.9899 C   0  0  0  0  0  0  0  0  0  0  0  0
  -29.3860  -23.4249   22.3946 C   0  0  0  0  0  0  0  0  0  0  0  0
  -24.2429   -8.2434   23.4098 C   0  0  0  0  0  0  0  0  0  0  0  0
  -25.2431  -24.1629   23.0652 C   0  0  0  0  0  0  0  0  0  0  0  0
  -22.8507   -6.3595   23.5964 C   0  0  0  0  0  0  0  0  0  0  0  0
  -20.6155   -4.9374   22.7220 C   0  0  0  0  0  0  0  0  0  0  0  0
  -22.9989   -5.0659   23.0961 C   0  0  0  0  0  0  0  0  0  0  0  0
  -25.1251  -11.9027   21.4788 C   0  0  0  0  0  0  0  0  0  0  0  0
  -30.1094  -23.1492   21.2188 C   0  0  0  0  0  0  0  0  0  0  0  0
  -29.0040  -22.1904   22.8601 C   0  0  0  0  0  0  0  0  0  0  0  0
  -24.9953  -13.8872   20.5407 C   0  0  0  0  0  0  0  0  0  0  0  0
  -22.8042  -13.0044   21.3581 C   0  0  0  0  0  0  0  0  0  0  0  0
  -26.4672  -29.0220   20.9785 C   0  0  0  0  0  0  0  0  0  0  0  0
  -24.9479  -30.3749   23.5051 C   0  0  0  0  0  0  0  0  0  0  0  0
  -23.2412  -29.9445   26.4289 C   0  0  0  0  0  0  0  0  0  0  0  0
  -29.6311  -16.9890   20.3559 C   0  0  0  0  0  0  0  0  0  0  0  0
  -29.2851  -30.1124   16.5358 C   0  0  0  0  0  0  0  0  0  0  0  0
  -24.2680  -27.7894   20.9622 C   0  0  0  0  0  0  0  0  0  0  0  0
  -25.4407  -27.9063   23.6744 C   0  0  0  0  0  0  0  0  0  0  0  0
  -29.6308  -30.5360   17.9597 C   0  0  0  0  0  0  0  0  0  0  0  0
  -29.7943  -13.7218   18.9505 C   0  0  0  0  0  0  0  0  0  0  0  0
  -28.3940  -30.4522   18.8416 C   0  0  0  0  0  0  0  0  0  0  0  0
  -28.5232  -13.0404   19.4603 C   0  0  0  0  0  0  0  0  0  0  0  0
  -30.3914  -14.6587   19.9981 C   0  0  0  0  0  0  0  0  0  0  0  0
  -28.1841  -14.9822   21.0455 C   0  0  0  0  0  0  0  0  0  0  0  0
  -27.8881  -29.0072   18.9370 C   0  0  1  0  0  0  0  0  0  0  0  0
  -25.0409  -29.0105   21.4510 C   0  0  1  0  0  0  0  0  0  0  0  0
  -27.5143  -14.0701   20.0036 C   0  0  2  0  0  0  0  0  0  0  0  0
  -29.0600  -20.9441   25.0358 C   0  0  0  0  0  0  0  0  0  0  0  0
  -22.1610  -31.2383   28.2881 C   0  0  0  0  0  0  0  0  0  0  0  0
  -30.6959  -26.6062   26.0572 C   0  0  0  0  0  0  0  0  0  0  0  0
  -29.9590  -27.5697   23.8688 C   0  0  0  0  0  0  0  0  0  0  0  0
  -31.8452  -24.9658   21.0378 C   0  0  0  0  0  0  0  0  0  0  0  0
  -29.7205  -25.1187   19.6968 C   0  0  0  0  0  0  0  0  0  0  0  0
  -31.4936  -23.4946   19.0646 C   0  0  0  0  0  0  0  0  0  0  0  0
  -27.6999  -31.0027   24.6637 C   0  0  0  0  0  0  0  0  0  0  0  0
  -26.5995  -31.4057   26.8761 C   0  0  0  0  0  0  0  0  0  0  0  0
  -26.0182  -32.8364   24.9171 C   0  0  0  0  0  0  0  0  0  0  0  0
  -20.5824  -28.7803   25.8504 C   0  0  0  0  0  0  0  0  0  0  0  0
  -29.1004  -24.7401   22.9936 C   0  0  0  0  0  0  0  0  0  0  0  0
  -29.9944  -25.0429   24.2194 C   0  0  0  0  0  0  0  0  0  0  0  0
  -26.9014  -21.0343   23.7319 C   0  0  0  0  0  0  0  0  0  0  0  0
  -29.3653  -19.8486   22.0230 C   0  0  0  0  0  0  0  0  0  0  0  0
  -28.7266  -19.2634   20.7662 C   0  0  0  0  0  0  0  0  0  0  0  0
  -25.9104  -21.8835   22.9415 C   0  0  0  0  0  0  0  0  0  1  0  0
  -28.2006  -21.7845   24.0836 C   0  0  2  0  0  0  0  0  0  0  0  0
  -25.2004  -30.4453   24.9918 C   0  0  1  0  0  0  0  0  0  0  0  0
  -21.9524  -30.5603   26.9429 C   0  0  2  0  0  0  0  0  0  0  0  0
  -29.7587  -26.4231   24.8608 C   0  0  0  0  0  0  0  0  0  0  0  0
  -30.7536  -24.1115   20.3075 C   0  0  0  0  0  0  0  0  0  0  0  0
  -26.3764  -31.3976   25.3488 C   0  0  0  0  0  0  0  0  0  0  0  0
  -26.3799  -12.1853   21.1186 N   0  0  0  0  0  0  0  0  0  0  0  0
  -30.1840  -21.8422   20.9538 N   0  0  0  0  0  0  0  0  0  0  0  0
  -29.5027  -21.2856   21.9697 N   0  0  0  0  0  0  0  0  0  0  0  0
  -26.2685  -13.3982   20.5507 N   0  0  0  0  0  0  0  0  0  0  0  0
  -25.0742  -29.1110   22.9115 N   0  0  0  0  0  0  0  0  0  0  0  0
  -29.3838  -15.6111   20.4710 N   0  0  0  0  0  0  0  0  0  0  0  0
  -24.7056  -15.0935   20.0083 N   0  0  0  0  0  0  0  0  0  0  0  0
  -22.1650  -11.9303   21.9922 N   0  0  0  0  0  0  0  0  0  0  0  0
  -26.6046  -28.9993   19.6037 N   0  0  0  0  0  0  0  0  0  0  0  0
  -23.9281  -30.8109   25.6050 N   0  0  0  0  0  0  0  0  0  0  0  0
  -28.6217  -17.8223   20.8224 N   0  0  0  0  0  0  0  0  0  0  0  0
  -20.9050  -29.5122   27.1023 N   0  3  0  0  0  0  0  0  0  0  0  0
  -22.1236  -13.9893   20.9835 O   0  0  0  0  0  0  0  0  0  0  0  0
  -27.3757  -29.0509   21.8003 O   0  0  0  0  0  0  0  0  0  0  0  0
  -24.6427  -31.4022   22.8942 O   0  0  0  0  0  0  0  0  0  0  0  0
  -23.6042  -28.8099   26.7311 O   0  0  0  0  0  0  0  0  0  0  0  0
  -30.6718  -17.4430   19.8682 O   0  0  0  0  0  0  0  0  0  0  0  0
  -23.9591   -7.0664   24.0315 O   0  0  0  0  0  0  0  0  0  0  0  0
  -25.5459  -23.0152   23.7308 O   0  0  0  0  0  0  0  0  0  1  0  0
  -19.5421   -4.2541   22.3037 F   0  0  0  0  0  0  0  0  0  0  0  0
  -24.2123   -4.5005   23.0342 F   0  0  0  0  0  0  0  0  0  0  0  0
  1  2  1  0  0  0  0
  1  5  2  0  0  0  0
  2  6  2  0  0  0  0
  3  8  2  0  0  0  0
  3 15  1  0  0  0  0
  4  9  1  0  0  0  0
  4 15  2  0  0  0  0
  5 17  1  0  0  0  0
  6 19  1  0  0  0  0
  7 10  2  0  0  0  0
  7 18  1  0  0  0  0
  8 22  1  0  0  0  0
  9 22  2  0  0  0  0
 10 23  1  0  0  0  0
 11 12  2  0  0  0  0
 11 24  1  0  0  0  0
 12 25  1  0  0  0  0
 13 20  1  0  0  0  0
 13 23  2  0  0  0  0
 14 25  2  0  0  0  0
 14 26  1  0  0  0  0
 15 27  1  0  0  0  0
 16 27  1  0  0  0  0
 16 30  2  0  0  0  0
 16 31  1  0  0  0  0
 17 19  2  0  0  0  0
 17 36  1  0  0  0  0
 18 20  2  0  0  0  0
 18 37  1  0  0  0  0
 19 45  1  0  0  0  0
 20 38  1  0  0  0  0
 21 28  1  0  0  0  0
 21 29  2  0  0  0  0
 21 59  1  0  0  0  0
 22 88  1  0  0  0  0
 23 89  1  0  0  0  0
 24 26  2  0  0  0  0
 24 88  1  0  0  0  0
 25 90  1  0  0  0  0
 26 91  1  0  0  0  0
 27 71  2  0  0  0  0
 28 69  1  0  0  0  0
 28 72  2  0  0  0  0
 29 65  1  0  0  0  0
 29 73  1  0  0  0  0
 30 74  1  0  0  0  0
 30 77  1  0  0  0  0
 31 78  1  0  0  0  0
 31 83  2  0  0  0  0
 32 46  1  0  0  0  0
 32 79  1  0  0  0  0
 32 84  2  0  0  0  0
 33 66  1  0  0  0  0
 33 75  1  0  0  0  0
 33 85  2  0  0  0  0
 34 67  1  0  0  0  0
 34 80  1  0  0  0  0
 34 86  2  0  0  0  0
 35 76  1  0  0  0  0
 35 81  1  0  0  0  0
 35 87  2  0  0  0  0
 36 39  1  0  0  0  0
 37 46  1  0  0  0  0
 38 75  1  0  0  0  0
 39 41  1  0  0  0  0
 40 42  1  0  0  0  0
 40 43  1  0  0  0  0
 41 45  1  0  0  0  0
 42 47  1  0  0  0  0
 43 76  1  0  0  0  0
 44 47  1  0  0  0  0
 44 76  1  0  0  0  0
 45 79  1  0  0  0  0
 46 75  1  0  0  0  0
 47 74  1  0  0  0  0
 48 65  1  0  0  0  0
 49 67  1  0  0  0  0
 50 68  1  0  0  0  0
 51 68  1  0  0  0  0
 52 69  1  0  0  0  0
 53 69  1  0  0  0  0
 54 69  1  0  0  0  0
 55 70  1  0  0  0  0
 56 70  1  0  0  0  0
 57 70  1  0  0  0  0
 58 82  1  0  0  0  0
 59 60  1  0  0  0  0
 60 68  1  0  0  0  0
 61 64  1  0  0  0  0
 61 65  1  0  0  0  0
 62 63  1  0  0  0  0
 62 73  1  0  0  0  0
 63 81  1  0  0  0  0
 64 89  1  0  0  0  0
 66 70  1  0  0  0  0
 66 80  1  0  0  0  0
 67 82  1  0  0  0  0
 71 74  1  0  0  0  0
 72 73  1  0  0  0  0
M  CHG  1  82   1
M  ISO  4  35 100  64 101  81 100  89 101
M  END
> <Batch ID>
0098

> <Smiles>
CNC(C)C(=O)NC(C(=O)N1Cc2cc([101O:1][101CH2:1]CC(C)c3c(CCC(C)C)c(C(C)(C)C)nn3CC[100NH:0][100C:0](=O)N3CCCC(n4nc(-c5ccc(Oc6ccc(F)cc6F)cc5)c(C(N)=O)c4N)C3)ccc2CC1C(=O)NC1CCCc2ccccc21)C(C)(C)C

> <Shape>
0.247

> <Color>
0.116

> <Negative vol penalty>
0.000

$$$$

  -OEChem-04052319293D

 86 94  0     1  0  0  0  0  0999 V2000
  -16.7465  -29.4825   24.3580 C   0  0  0  0  0  0  0  0  0  0  0  0
  -17.9018  -29.9259   24.9938 C   0  0  0  0  0  0  0  0  0  0  0  0
  -26.3790  -17.4887   21.7682 C   0  0  0  0  0  0  0  0  0  0  0  0
  -28.6182  -17.5888   20.8666 C   0  0  0  0  0  0  0  0  0  0  0  0
  -16.8401  -28.6209   23.2659 C   0  0  0  0  0  0  0  0  0  0  0  0
  -19.1514  -29.5070   24.5384 C   0  0  0  0  0  0  0  0  0  0  0  0
  -25.9128  -31.7858   23.9010 C   0  0  0  0  0  0  0  0  0  0  0  0
  -26.1544  -16.2975   21.0782 C   0  0  0  0  0  0  0  0  0  0  0  0
  -28.3936  -16.3975   20.1766 C   0  0  0  0  0  0  0  0  0  0  0  0
  -27.2142  -31.3989   24.2178 C   0  0  0  0  0  0  0  0  0  0  0  0
  -28.5339  -13.1938   18.4635 C   0  0  0  0  0  0  0  0  0  0  0  0
  -29.5351  -12.2233   18.5007 C   0  0  0  0  0  0  0  0  0  0  0  0
  -27.2571  -29.9725   22.2728 C   0  0  0  0  0  0  0  0  0  0  0  0
  -29.3430  -12.1175   20.9068 C   0  0  0  0  0  0  0  0  0  0  0  0
  -31.7021  -27.7766   20.5743 C   0  0  0  0  0  0  0  0  0  0  0  0
  -27.6109  -18.1344   21.6623 C   0  0  0  0  0  0  0  0  0  0  0  0
  -28.3609  -19.5100   23.6755 C   0  0  0  0  0  0  0  0  0  0  0  0
  -18.0919  -28.1989   22.7908 C   0  0  0  0  0  0  0  0  0  0  0  0
  -25.2688  -31.2598   22.7718 C   0  0  0  0  0  0  0  0  0  0  0  0
  -19.2618  -28.6378   23.4397 C   0  0  0  0  0  0  0  0  0  0  0  0
  -25.9485  -30.3563   21.9425 C   0  0  0  0  0  0  0  0  0  0  0  0
  -27.1617  -15.7518   20.2824 C   0  0  0  0  0  0  0  0  0  0  0  0
  -27.8855  -30.4899   23.4053 C   0  0  0  0  0  0  0  0  0  0  0  0
  -27.9374  -13.6263   19.6479 C   0  0  0  0  0  0  0  0  0  0  0  0
  -29.9396  -11.6851   19.7224 C   0  0  0  0  0  0  0  0  0  0  0  0
  -28.3419  -13.0881   20.8695 C   0  0  0  0  0  0  0  0  0  0  0  0
  -27.8433  -19.3653   22.3744 C   0  0  0  0  0  0  0  0  0  0  0  0
  -32.5279  -28.2829   21.5571 C   0  0  0  0  0  0  0  0  0  0  0  0
  -31.8331  -26.4263   20.3217 C   0  0  0  0  0  0  0  0  0  0  0  0
  -28.3859  -20.8670   23.8861 C   0  0  0  0  0  0  0  0  0  0  0  0
  -33.4495  -26.2350   21.9084 C   0  0  0  0  0  0  0  0  0  0  0  0
  -28.7816  -18.5074   24.6101 C   0  0  0  0  0  0  0  0  0  0  0  0
  -22.6663  -29.4993   22.2907 C   0  0  0  0  0  0  0  0  0  0  0  0
  -23.3319  -30.0700   19.1676 C   0  0  0  0  0  0  0  0  0  0  0  0
  -25.6568  -30.8647   16.7991 C   0  0  0  0  0  0  0  0  0  0  0  0
  -28.6813  -25.5632   20.1834 C   0  0  0  0  0  0  0  0  0  0  0  0
  -18.1410  -27.2296   21.6364 C   0  0  0  0  0  0  0  0  0  0  0  0
  -23.8744  -31.7078   22.4290 C   0  0  0  0  0  0  0  0  0  0  0  0
  -25.3088  -29.7779   20.7077 C   0  0  0  0  0  0  0  0  0  0  0  0
  -19.5169  -27.1304   20.9825 C   0  0  0  0  0  0  0  0  0  0  0  0
  -26.1523  -24.8978   22.5997 C   0  0  0  0  0  0  0  0  0  0  0  0
  -20.6040  -26.9957   22.0441 C   0  0  0  0  0  0  0  0  0  0  0  0
  -26.3456  -23.4175   22.9333 C   0  0  0  0  0  0  0  0  0  0  0  0
  -26.4212  -25.1834   21.1239 C   0  0  0  0  0  0  0  0  0  0  0  0
  -27.9242  -23.2367   20.9650 C   0  0  0  0  0  0  0  0  0  0  0  0
  -20.6364  -28.2254   22.9597 C   0  0  1  0  0  0  0  0  0  0  0  0
  -23.1297  -30.7160   21.5406 C   0  0  1  0  0  0  0  0  0  0  0  0
  -27.7187  -22.9093   22.4539 C   0  0  2  0  0  0  0  0  0  0  0  0
  -25.9090  -31.2212   14.3279 C   0  0  0  0  0  0  0  0  0  0  0  0
  -32.0604  -23.4237   25.0902 C   0  0  0  0  0  0  0  0  0  0  0  0
  -33.3161  -25.5468   25.5097 C   0  0  0  0  0  0  0  0  0  0  0  0
  -23.2325  -27.0527   18.7246 C   0  0  0  0  0  0  0  0  0  0  0  0
  -24.3999  -27.4055   16.5380 C   0  0  0  0  0  0  0  0  0  0  0  0
  -22.1484  -28.4078   16.9237 C   0  0  0  0  0  0  0  0  0  0  0  0
  -26.5203  -33.6704   17.1747 C   0  0  0  0  0  0  0  0  0  0  0  0
  -32.4571  -29.7485   21.9048 C   0  0  0  0  0  0  0  0  0  0  0  0
  -30.9805  -25.7879   19.2767 C   0  0  0  0  0  0  0  0  0  0  0  0
  -34.4172  -25.3775   22.6514 C   0  0  0  0  0  0  0  0  0  0  0  0
  -31.4494  -30.0713   23.0102 C   0  0  0  0  0  0  0  0  0  0  0  0
  -33.7183  -24.2106   23.3739 C   0  0  0  0  0  0  0  0  0  0  0  0
  -30.0088  -29.7559   22.6249 C   0  0  0  0  0  0  0  0  0  1  0  0
  -24.1584  -29.3826   18.1077 C   0  0  1  0  0  0  0  0  0  0  0  0
  -25.6393  -31.8808   15.6714 C   0  0  2  0  0  0  0  0  0  0  0  0
  -32.6941  -24.6537   24.4353 C   0  0  0  0  0  0  0  0  0  0  0  0
  -23.4964  -28.0714   17.5978 C   0  0  0  0  0  0  0  0  0  0  0  0
  -27.5597  -20.5369   21.7990 N   0  0  0  0  0  0  0  0  0  0  0  0
  -33.4165  -27.5380   22.2468 N   0  0  0  0  0  0  0  0  0  0  0  0
  -32.6999  -25.6226   20.9721 N   0  0  0  0  0  0  0  0  0  0  0  0
  -27.9004  -21.4307   22.7430 N   0  0  0  0  0  0  0  0  0  0  0  0
  -23.9419  -30.2420   20.4182 N   0  0  0  0  0  0  0  0  0  0  0  0
  -27.7396  -24.6779   20.7335 N   0  0  0  0  0  0  0  0  0  0  0  0
  -28.7756  -21.6212   24.9358 N   0  0  0  0  0  0  0  0  0  0  0  0
  -28.6889  -17.1609   24.2324 N   0  0  0  0  0  0  0  0  0  0  0  0
  -21.2948  -29.3312   22.2977 N   0  0  0  0  0  0  0  0  0  0  0  0
  -24.3953  -30.3765   17.0664 N   0  0  0  0  0  0  0  0  0  0  0  0
  -29.9078  -25.0037   19.8468 N   0  0  0  0  0  0  0  0  0  0  0  0
  -26.6776  -32.9253   15.8991 N   0  3  0  0  0  0  0  0  0  0  0  0
  -29.2111  -18.7963   25.7527 O   0  0  0  0  0  0  0  0  0  0  0  0
  -23.4921  -28.7665   22.8224 O   0  0  0  0  0  0  0  0  0  0  0  0
  -22.1897  -30.4470   18.8938 O   0  0  0  0  0  0  0  0  0  0  0  0
  -26.6872  -30.5340   17.3818 O   0  0  0  0  0  0  0  0  0  0  0  0
  -28.4483  -26.7643   20.0104 O   0  0  0  0  0  0  0  0  0  0  0  0
  -26.9430  -14.5893   19.6092 O   0  0  0  0  0  0  0  0  0  0  0  0
  -29.1556  -30.1100   23.7126 O   0  0  0  0  0  0  0  0  0  1  0  0
  -30.8999  -10.7520   19.7578 F   0  0  0  0  0  0  0  0  0  0  0  0
  -27.7716  -13.4987   22.0106 F   0  0  0  0  0  0  0  0  0  0  0  0
  1  2  1  0  0  0  0
  1  5  2  0  0  0  0
  2  6  2  0  0  0  0
  3  8  2  0  0  0  0
  3 16  1  0  0  0  0
  4  9  1  0  0  0  0
  4 16  2  0  0  0  0
  5 18  1  0  0  0  0
  6 20  1  0  0  0  0
  7 10  2  0  0  0  0
  7 19  1  0  0  0  0
  8 22  1  0  0  0  0
  9 22  2  0  0  0  0
 10 23  1  0  0  0  0
 11 12  2  0  0  0  0
 11 24  1  0  0  0  0
 12 25  1  0  0  0  0
 13 21  1  0  0  0  0
 13 23  2  0  0  0  0
 14 25  2  0  0  0  0
 14 26  1  0  0  0  0
 15 28  1  0  0  0  0
 15 29  2  0  0  0  0
 16 27  1  0  0  0  0
 17 27  1  0  0  0  0
 17 30  2  0  0  0  0
 17 32  1  0  0  0  0
 18 20  2  0  0  0  0
 18 37  1  0  0  0  0
 19 21  2  0  0  0  0
 19 38  1  0  0  0  0
 20 46  1  0  0  0  0
 21 39  1  0  0  0  0
 22 83  1  0  0  0  0
 23 84  1  0  0  0  0
 24 26  2  0  0  0  0
 24 83  1  0  0  0  0
 25 85  1  0  0  0  0
 26 86  1  0  0  0  0
 27 66  2  0  0  0  0
 28 56  1  0  0  0  0
 28 67  2  0  0  0  0
 29 57  1  0  0  0  0
 29 68  1  0  0  0  0
 30 69  1  0  0  0  0
 30 72  1  0  0  0  0
 31 58  1  0  0  0  0
 31 67  1  0  0  0  0
 31 68  2  0  0  0  0
 32 73  1  0  0  0  0
 32 78  2  0  0  0  0
 33 47  1  0  0  0  0
 33 74  1  0  0  0  0
 33 79  2  0  0  0  0
 34 62  1  0  0  0  0
 34 70  1  0  0  0  0
 34 80  2  0  0  0  0
 35 63  1  0  0  0  0
 35 75  1  0  0  0  0
 35 81  2  0  0  0  0
 36 71  1  0  0  0  0
 36 76  1  0  0  0  0
 36 82  2  0  0  0  0
 37 40  1  0  0  0  0
 38 47  1  0  0  0  0
 39 70  1  0  0  0  0
 40 42  1  0  0  0  0
 41 43  1  0  0  0  0
 41 44  1  0  0  0  0
 42 46  1  0  0  0  0
 43 48  1  0  0  0  0
 44 71  1  0  0  0  0
 45 48  1  0  0  0  0
 45 71  1  0  0  0  0
 46 74  1  0  0  0  0
 47 70  1  0  0  0  0
 48 69  1  0  0  0  0
 49 63  1  0  0  0  0
 50 64  1  0  0  0  0
 51 64  1  0  0  0  0
 52 65  1  0  0  0  0
 53 65  1  0  0  0  0
 54 65  1  0  0  0  0
 55 77  1  0  0  0  0
 56 59  1  0  0  0  0
 57 76  1  0  0  0  0
 58 60  1  0  0  0  0
 59 61  1  0  0  0  0
 60 64  1  0  0  0  0
 61 84  1  0  0  0  0
 62 65  1  0  0  0  0
 62 75  1  0  0  0  0
 63 77  1  0  0  0  0
 66 69  1  0  0  0  0
M  CHG  1  77   1
M  ISO  4  36 100  61 101  76 100  84 101
M  END
> <Batch ID>
0098

> <Smiles>
CNC(C)C(=O)NC(C(=O)N1Cc2cc([101O:1][101CH2:1]CCc3cc(C[100NH:0][100C:0](=O)N4CCCC(n5nc(-c6ccc(Oc7ccc(F)cc7F)cc6)c(C(N)=O)c5N)C4)nc(CCC(C)C)n3)ccc2CC1C(=O)NC1CCCc2ccccc21)C(C)(C)C

> <Shape>
0.255

> <Color>
0.115

> <Negative vol penalty>
0.000

$$$$

  -OEChem-04052319293D

 84 91  0     1  0  0  0  0  0999 V2000
  -19.0468  -33.5237   24.7266 C   0  0  0  0  0  0  0  0  0  0  0  0
  -20.3341  -33.5670   24.2009 C   0  0  0  0  0  0  0  0  0  0  0  0
  -23.9850  -14.1215   18.9061 C   0  0  0  0  0  0  0  0  0  0  0  0
  -25.2769  -15.1090   20.6929 C   0  0  0  0  0  0  0  0  0  0  0  0
  -18.4806  -32.2999   25.0812 C   0  0  0  0  0  0  0  0  0  0  0  0
  -21.0565  -32.3865   24.0305 C   0  0  0  0  0  0  0  0  0  0  0  0
  -25.9335  -29.3989   19.7171 C   0  0  0  0  0  0  0  0  0  0  0  0
  -24.3674  -12.8497   19.3324 C   0  0  0  0  0  0  0  0  0  0  0  0
  -25.6593  -13.8371   21.1193 C   0  0  0  0  0  0  0  0  0  0  0  0
  -27.1684  -28.7541   19.7713 C   0  0  0  0  0  0  0  0  0  0  0  0
  -24.7121   -9.3287   20.1688 C   0  0  0  0  0  0  0  0  0  0  0  0
  -23.7253   -8.3458   20.2433 C   0  0  0  0  0  0  0  0  0  0  0  0
  -26.0589  -26.6904   20.3451 C   0  0  0  0  0  0  0  0  0  0  0  0
  -22.5093   -9.6878   21.8425 C   0  0  0  0  0  0  0  0  0  0  0  0
  -24.4398  -15.2512   19.5863 C   0  0  0  0  0  0  0  0  0  0  0  0
  -22.9158  -17.2968   19.5589 C   0  0  0  0  0  0  0  0  0  0  0  0
  -19.1928  -31.1029   24.9061 C   0  0  0  0  0  0  0  0  0  0  0  0
  -24.7509  -28.6957   19.9877 C   0  0  0  0  0  0  0  0  0  0  0  0
  -20.4998  -31.1457   24.3844 C   0  0  0  0  0  0  0  0  0  0  0  0
  -24.8100  -27.3280   20.2912 C   0  0  0  0  0  0  0  0  0  0  0  0
  -25.2046  -12.7074   20.4390 C   0  0  0  0  0  0  0  0  0  0  0  0
  -27.2315  -27.4003   20.0881 C   0  0  0  0  0  0  0  0  0  0  0  0
  -24.5976  -10.4912   20.9312 C   0  0  0  0  0  0  0  0  0  0  0  0
  -22.6239   -8.5253   21.0802 C   0  0  0  0  0  0  0  0  0  0  0  0
  -23.4962  -10.6707   21.7680 C   0  0  0  0  0  0  0  0  0  0  0  0
  -24.0456  -16.5653   19.1461 C   0  0  0  0  0  0  0  0  0  0  0  0
  -22.9924  -18.4734   18.8545 C   0  0  0  0  0  0  0  0  0  0  0  0
  -21.8891  -16.9442   20.4955 C   0  0  0  0  0  0  0  0  0  0  0  0
  -22.4581  -28.9211   22.1777 C   0  0  0  0  0  0  0  0  0  0  0  0
  -21.0536  -26.6141   20.3813 C   0  0  0  0  0  0  0  0  0  0  0  0
  -21.4147  -24.0656   18.1403 C   0  0  0  0  0  0  0  0  0  0  0  0
  -27.5605  -21.4659   16.3993 C   0  0  0  0  0  0  0  0  0  0  0  0
  -18.5570  -29.8087   25.3480 C   0  0  0  0  0  0  0  0  0  0  0  0
  -23.4246  -29.3996   19.8989 C   0  0  0  0  0  0  0  0  0  0  0  0
  -23.5679  -26.5232   20.5700 C   0  0  0  0  0  0  0  0  0  0  0  0
  -19.2471  -28.5681   24.7866 C   0  0  0  0  0  0  0  0  0  0  0  0
  -24.6440  -20.2742   14.7410 C   0  0  0  0  0  0  0  0  0  0  0  0
  -20.7602  -28.6826   24.9422 C   0  0  0  0  0  0  0  0  0  0  0  0
  -24.0579  -19.2545   15.7192 C   0  0  0  0  0  0  0  0  0  0  0  0
  -26.1708  -20.2500   14.7480 C   0  0  0  0  0  0  0  0  0  0  0  0
  -26.2006  -19.3888   17.0570 C   0  0  0  0  0  0  0  0  0  0  0  0
  -21.3058  -29.8843   24.1614 C   0  0  1  0  0  0  0  0  0  0  0  0
  -22.3251  -28.7053   20.6967 C   0  0  1  0  0  0  0  0  0  0  0  0
  -24.6641  -19.4148   17.1264 C   0  0  2  0  0  0  0  0  0  0  0  0
  -30.5781  -23.0816   15.5858 C   0  0  0  0  0  0  0  0  0  0  0  0
  -32.1487  -20.4142   18.8241 C   0  0  0  0  0  0  0  0  0  0  0  0
  -20.7305  -22.2567   16.5412 C   0  0  0  0  0  0  0  0  0  0  0  0
  -30.4529  -26.8463   22.2349 C   0  0  0  0  0  0  0  0  0  0  0  0
  -20.8033  -24.9565   22.9307 C   0  0  0  0  0  0  0  0  0  0  0  0
  -20.3757  -22.9473   21.4994 C   0  0  0  0  0  0  0  0  0  0  0  0
  -18.7999  -24.8800   21.4358 C   0  0  0  0  0  0  0  0  0  0  0  0
  -21.2747  -25.9626   15.8729 C   0  0  0  0  0  0  0  0  0  0  0  0
  -31.6155  -22.8182   21.0106 C   0  0  0  0  0  0  0  0  0  0  0  0
  -30.7868  -21.9325   16.5651 C   0  0  0  0  0  0  0  0  0  0  0  0
  -30.7032  -20.8967   18.8458 C   0  0  0  0  0  0  0  0  0  0  0  0
  -28.8935  -22.5845   18.1688 C   0  0  0  0  0  0  0  0  0  0  0  0
  -30.9628  -25.1458   20.4132 C   0  0  0  0  0  0  0  0  0  0  0  0
  -31.1872  -23.4199   18.6323 C   0  0  0  0  0  0  0  0  0  0  0  0
  -28.5539  -25.6726   21.0485 C   0  0  0  0  0  0  0  0  0  1  0  0
  -21.0806  -25.1047   20.3681 C   0  0  1  0  0  0  0  0  0  0  0  0
  -20.6771  -23.7442   16.8530 C   0  0  2  0  0  0  0  0  0  0  0  0
  -30.0037  -25.5582   21.5358 C   0  0  2  0  0  0  0  0  0  0  0  0
  -20.2886  -24.4875   21.5552 C   0  0  0  0  0  0  0  0  0  0  0  0
  -30.3998  -22.2127   18.0552 C   0  0  0  0  0  0  0  0  0  0  0  0
  -24.7855  -17.2221   18.2488 N   0  0  0  0  0  0  0  0  0  0  0  0
  -24.1192  -18.3786   18.0919 N   0  0  0  0  0  0  0  0  0  0  0  0
  -22.2955  -27.2579   20.4771 N   0  0  0  0  0  0  0  0  0  0  0  0
  -26.6819  -20.4084   16.1117 N   0  0  0  0  0  0  0  0  0  0  0  0
  -22.2050  -19.5694   18.8190 N   0  0  0  0  0  0  0  0  0  0  0  0
  -21.9633  -15.6968   21.1302 N   0  0  0  0  0  0  0  0  0  0  0  0
  -21.3843  -29.5763   22.7495 N   0  0  0  0  0  0  0  0  0  0  0  0
  -20.5976  -24.6993   19.0525 N   0  0  0  0  0  0  0  0  0  0  0  0
  -27.9925  -21.5476   17.7175 N   0  0  0  0  0  0  0  0  0  0  0  0
  -21.2818  -24.4859   15.7105 N   0  3  0  0  0  0  0  0  0  0  0  0
  -30.8375  -23.7088   20.0722 N   0  3  1  0  0  0  0  0  0  0  0  0
  -20.9252  -17.7059   20.7494 O   0  0  0  0  0  0  0  0  0  0  0  0
  -23.4602  -28.5213   22.7589 O   0  0  0  0  0  0  0  0  0  0  0  0
  -19.9712  -27.2003   20.3021 O   0  0  0  0  0  0  0  0  0  0  0  0
  -22.5964  -23.7796   18.3202 O   0  0  0  0  0  0  0  0  0  0  0  0
  -27.9282  -22.2804   15.5459 O   0  0  0  0  0  0  0  0  0  0  0  0
  -25.5777  -11.4665   20.8555 O   0  0  0  0  0  0  0  0  0  0  0  0
  -28.4356  -26.7686   20.1423 O   0  0  0  0  0  0  0  0  0  1  0  0
  -21.6755   -7.5820   21.1505 F   0  0  0  0  0  0  0  0  0  0  0  0
  -23.3801  -11.7859   22.5020 F   0  0  0  0  0  0  0  0  0  0  0  0
  1  2  1  0  0  0  0
  1  5  2  0  0  0  0
  2  6  2  0  0  0  0
  3  8  2  0  0  0  0
  3 15  1  0  0  0  0
  4  9  1  0  0  0  0
  4 15  2  0  0  0  0
  5 17  1  0  0  0  0
  6 19  1  0  0  0  0
  7 10  2  0  0  0  0
  7 18  1  0  0  0  0
  8 21  1  0  0  0  0
  9 21  2  0  0  0  0
 10 22  1  0  0  0  0
 11 12  2  0  0  0  0
 11 23  1  0  0  0  0
 12 24  1  0  0  0  0
 13 20  1  0  0  0  0
 13 22  2  0  0  0  0
 14 24  2  0  0  0  0
 14 25  1  0  0  0  0
 15 26  1  0  0  0  0
 16 26  1  0  0  0  0
 16 27  2  0  0  0  0
 16 28  1  0  0  0  0
 17 19  2  0  0  0  0
 17 33  1  0  0  0  0
 18 20  2  0  0  0  0
 18 34  1  0  0  0  0
 19 42  1  0  0  0  0
 20 35  1  0  0  0  0
 21 81  1  0  0  0  0
 22 82  1  0  0  0  0
 23 25  2  0  0  0  0
 23 81  1  0  0  0  0
 24 83  1  0  0  0  0
 25 84  1  0  0  0  0
 26 65  2  0  0  0  0
 27 66  1  0  0  0  0
 27 69  1  0  0  0  0
 28 70  1  0  0  0  0
 28 76  2  0  0  0  0
 29 43  1  0  0  0  0
 29 71  1  0  0  0  0
 29 77  2  0  0  0  0
 30 60  1  0  0  0  0
 30 67  1  0  0  0  0
 30 78  2  0  0  0  0
 31 61  1  0  0  0  0
 31 72  1  0  0  0  0
 31 79  2  0  0  0  0
 32 68  1  0  0  0  0
 32 73  1  0  0  0  0
 32 80  2  0  0  0  0
 33 36  1  0  0  0  0
 34 43  1  0  0  0  0
 35 67  1  0  0  0  0
 36 38  1  0  0  0  0
 37 39  1  0  0  0  0
 37 40  1  0  0  0  0
 38 42  1  0  0  0  0
 39 44  1  0  0  0  0
 40 68  1  0  0  0  0
 41 44  1  0  0  0  0
 41 68  1  0  0  0  0
 42 71  1  0  0  0  0
 43 67  1  0  0  0  0
 44 66  1  0  0  0  0
 45 54  1  0  0  0  0
 46 55  1  0  0  0  0
 47 61  1  0  0  0  0
 48 62  1  0  0  0  0
 49 63  1  0  0  0  0
 50 63  1  0  0  0  0
 51 63  1  0  0  0  0
 52 74  1  0  0  0  0
 53 75  1  0  0  0  0
 54 64  1  0  0  0  0
 55 64  1  0  0  0  0
 56 64  1  0  0  0  0
 56 73  1  0  0  0  0
 57 62  1  0  0  0  0
 57 75  1  0  0  0  0
 58 64  1  0  0  0  0
 58 75  1  0  0  0  0
 59 62  1  0  0  0  0
 59 82  1  0  0  0  0
 60 63  1  0  0  0  0
 60 72  1  0  0  0  0
 61 74  1  0  0  0  0
 65 66  1  0  0  0  0
M  CHG  2  74   1  75   1
M  ISO  4  32 100  59 101  73 100  82 101
M  END
> <Batch ID>
0098

> <Smiles>
CCC(CC)(C[100NH:0][100C:0](=O)N1CCCC(n2nc(-c3ccc(Oc4ccc(F)cc4F)cc3)c(C(N)=O)c2N)C1)CN(C)CC(C)[101CH2:1][101O:1]c1ccc2c(c1)CN(C(=O)C(NC(=O)C(C)NC)C(C)(C)C)C(C(=O)NC1CCCc3ccccc31)C2

> <Shape>
0.189

> <Color>
0.096

> <Negative vol penalty>
0.000

$$$$

  -OEChem-04052319293D

 84 92  0     1  0  0  0  0  0999 V2000
  -19.7228  -21.8340   24.4360 C   0  0  0  0  0  0  0  0  0  0  0  0
  -21.0769  -21.5466   24.2981 C   0  0  0  0  0  0  0  0  0  0  0  0
  -28.1649  -12.5933   22.6704 C   0  0  0  0  0  0  0  0  0  0  0  0
  -27.1521  -12.9589   20.5076 C   0  0  0  0  0  0  0  0  0  0  0  0
  -19.1454  -22.8484   23.6734 C   0  0  0  0  0  0  0  0  0  0  0  0
  -21.8544  -22.2729   23.3967 C   0  0  0  0  0  0  0  0  0  0  0  0
  -28.5097  -24.7714   22.5135 C   0  0  0  0  0  0  0  0  0  0  0  0
  -27.4149  -11.4274   22.8245 C   0  0  0  0  0  0  0  0  0  0  0  0
  -26.4022  -11.7929   20.6617 C   0  0  0  0  0  0  0  0  0  0  0  0
  -29.5465  -24.7684   21.5813 C   0  0  0  0  0  0  0  0  0  0  0  0
  -23.9551   -9.1057   20.6410 C   0  0  0  0  0  0  0  0  0  0  0  0
  -22.6020   -9.1561   20.3061 C   0  0  0  0  0  0  0  0  0  0  0  0
  -28.4584  -26.5512   20.3744 C   0  0  0  0  0  0  0  0  0  0  0  0
  -27.6036  -21.3953   17.0283 C   0  0  0  0  0  0  0  0  0  0  0  0
  -22.2548  -10.8755   21.9676 C   0  0  0  0  0  0  0  0  0  0  0  0
  -27.4426  -23.3170   18.1907 C   0  0  0  0  0  0  0  0  0  0  0  0
  -28.0334  -13.3591   21.5120 C   0  0  0  0  0  0  0  0  0  0  0  0
  -30.0853  -14.6831   20.7739 C   0  0  0  0  0  0  0  0  0  0  0  0
  -19.9182  -23.5939   22.7692 C   0  0  0  0  0  0  0  0  0  0  0  0
  -27.4323  -25.6584   22.3768 C   0  0  0  0  0  0  0  0  0  0  0  0
  -21.2865  -23.2973   22.6203 C   0  0  0  0  0  0  0  0  0  0  0  0
  -27.4105  -26.5653   21.3076 C   0  0  0  0  0  0  0  0  0  0  0  0
  -26.9583  -22.0295   18.1185 C   0  0  0  0  0  0  0  0  0  0  0  0
  -26.5336  -11.0272   21.8202 C   0  0  0  0  0  0  0  0  0  0  0  0
  -29.5195  -25.6564   20.5100 C   0  0  0  0  0  0  0  0  0  0  0  0
  -24.4581   -9.9401   21.6393 C   0  0  0  0  0  0  0  0  0  0  0  0
  -21.7519  -10.0410   20.9693 C   0  0  0  0  0  0  0  0  0  0  0  0
  -23.6080  -10.8250   22.3025 C   0  0  0  0  0  0  0  0  0  0  0  0
  -28.8074  -14.5640   21.3524 C   0  0  0  0  0  0  0  0  0  0  0  0
  -28.4628  -22.3145   16.4677 C   0  0  0  0  0  0  0  0  0  0  0  0
  -30.3786  -16.0220   20.8620 C   0  0  0  0  0  0  0  0  0  0  0  0
  -30.9315  -13.6737   20.2076 C   0  0  0  0  0  0  0  0  0  0  0  0
  -24.2982  -25.3331   21.9582 C   0  0  0  0  0  0  0  0  0  0  0  0
  -24.3081  -28.5558   22.3279 C   0  0  0  0  0  0  0  0  0  0  0  0
  -26.0426  -31.4887   22.1364 C   0  0  0  0  0  0  0  0  0  0  0  0
  -26.9659  -20.9286   21.2227 C   0  0  0  0  0  0  0  0  0  0  0  0
  -19.2396  -24.6492   21.9323 C   0  0  0  0  0  0  0  0  0  0  0  0
  -26.3351  -25.6674   23.4057 C   0  0  0  0  0  0  0  0  0  0  0  0
  -26.2867  -27.5516   21.1270 C   0  0  0  0  0  0  0  0  0  0  0  0
  -20.2131  -25.6222   21.2721 C   0  0  0  0  0  0  0  0  0  0  0  0
  -29.4685  -19.8870   23.5311 C   0  0  0  0  0  0  0  0  0  0  0  0
  -21.3682  -24.8648   20.6248 C   0  0  0  0  0  0  0  0  0  0  0  0
  -29.6981  -18.4154   23.1823 C   0  0  0  0  0  0  0  0  0  0  0  0
  -28.0010  -20.2809   23.3780 C   0  0  0  0  0  0  0  0  0  0  0  0
  -27.6403  -18.4994   21.7137 C   0  0  0  0  0  0  0  0  0  0  0  0
  -22.1682  -24.0795   21.6711 C   0  0  1  0  0  0  0  0  0  0  0  0
  -25.0312  -26.2628   22.8835 C   0  0  1  0  0  0  0  0  0  0  0  0
  -29.1147  -18.0693   21.7992 C   0  0  2  0  0  0  0  0  0  0  0  0
  -28.6296  -21.8864   13.9892 C   0  0  0  0  0  0  0  0  0  0  0  0
  -30.4676  -21.1084   15.5293 C   0  0  0  0  0  0  0  0  0  0  0  0
  -25.7725  -33.9620   22.4637 C   0  0  0  0  0  0  0  0  0  0  0  0
  -32.1591  -23.9407   19.1907 C   0  0  0  0  0  0  0  0  0  0  0  0
  -22.7969  -28.7383   19.6834 C   0  0  0  0  0  0  0  0  0  0  0  0
  -23.3885  -31.1694   19.5932 C   0  0  0  0  0  0  0  0  0  0  0  0
  -21.9822  -30.2982   21.4603 C   0  0  0  0  0  0  0  0  0  0  0  0
  -28.1033  -31.5500   24.2597 C   0  0  0  0  0  0  0  0  0  0  0  0
  -25.9526  -21.4241   19.0121 C   0  0  0  0  0  0  0  0  0  0  0  0
  -30.5825  -24.7060   17.3787 C   0  0  0  0  0  0  0  0  0  0  0  0
  -29.1192  -24.7520   16.9156 C   0  0  0  0  0  0  0  0  0  0  0  0
  -29.3737  -22.1789   15.3122 C   0  0  0  0  0  0  0  0  0  0  0  0
  -24.4469  -29.7380   21.3993 C   0  0  1  0  0  0  0  0  0  0  0  0
  -26.1755  -32.6457   23.1100 C   0  0  2  0  0  0  0  0  0  0  0  0
  -30.7548  -24.4428   18.8799 C   0  0  2  0  0  0  0  0  0  1  0  0
  -23.1740  -29.9662   20.5361 C   0  0  0  0  0  0  0  0  0  0  0  0
  -28.3224  -15.7339   21.7767 N   0  0  0  0  0  0  0  0  0  0  0  0
  -28.3567  -23.4789   17.1825 N   0  0  0  0  0  0  0  0  0  0  0  0
  -29.3007  -16.6009   21.4647 N   0  0  0  0  0  0  0  0  0  0  0  0
  -25.2341  -27.5172   22.1558 N   0  0  0  0  0  0  0  0  0  0  0  0
  -27.5095  -19.9272   22.0441 N   0  0  0  0  0  0  0  0  0  0  0  0
  -31.4508  -16.7488   20.4819 N   0  0  0  0  0  0  0  0  0  0  0  0
  -30.4759  -12.3483   20.1977 N   0  0  0  0  0  0  0  0  0  0  0  0
  -23.0441  -24.9657   22.4073 N   0  0  0  0  0  0  0  0  0  0  0  0
  -24.8121  -30.8748   22.2376 N   0  0  0  0  0  0  0  0  0  0  0  0
  -26.5295  -20.5093   19.9719 N   0  0  0  0  0  0  0  0  0  0  0  0
  -27.5838  -32.7659   23.5825 N   0  3  0  0  0  0  0  0  0  0  0  0
  -32.0652  -13.9367   19.7394 O   0  0  0  0  0  0  0  0  0  0  0  0
  -24.8304  -24.9768   20.9135 O   0  0  0  0  0  0  0  0  0  0  0  0
  -23.4155  -28.5571   23.1793 O   0  0  0  0  0  0  0  0  0  0  0  0
  -26.9392  -31.1644   21.3608 O   0  0  0  0  0  0  0  0  0  0  0  0
  -26.8810  -22.1097   21.5756 O   0  0  0  0  0  0  0  0  0  0  0  0
  -25.8018   -9.8894   21.9701 O   0  0  0  0  0  0  0  0  0  0  0  0
  -30.5298  -25.6551   19.5983 O   0  0  0  0  0  0  0  0  0  1  0  0
  -20.4528  -10.0904   20.6465 F   0  0  0  0  0  0  0  0  0  0  0  0
  -24.0856  -11.6299   23.2616 F   0  0  0  0  0  0  0  0  0  0  0  0
  1  2  1  0  0  0  0
  1  5  2  0  0  0  0
  2  6  2  0  0  0  0
  3  8  2  0  0  0  0
  3 17  1  0  0  0  0
  4  9  1  0  0  0  0
  4 17  2  0  0  0  0
  5 19  1  0  0  0  0
  6 21  1  0  0  0  0
  7 10  2  0  0  0  0
  7 20  1  0  0  0  0
  8 24  1  0  0  0  0
  9 24  2  0  0  0  0
 10 25  1  0  0  0  0
 11 12  2  0  0  0  0
 11 26  1  0  0  0  0
 12 27  1  0  0  0  0
 13 22  1  0  0  0  0
 13 25  2  0  0  0  0
 14 23  1  0  0  0  0
 14 30  2  0  0  0  0
 15 27  2  0  0  0  0
 15 28  1  0  0  0  0
 16 23  2  0  0  0  0
 16 66  1  0  0  0  0
 17 29  1  0  0  0  0
 18 29  1  0  0  0  0
 18 31  2  0  0  0  0
 18 32  1  0  0  0  0
 19 21  2  0  0  0  0
 19 37  1  0  0  0  0
 20 22  2  0  0  0  0
 20 38  1  0  0  0  0
 21 46  1  0  0  0  0
 22 39  1  0  0  0  0
 23 57  1  0  0  0  0
 24 81  1  0  0  0  0
 25 82  1  0  0  0  0
 26 28  2  0  0  0  0
 26 81  1  0  0  0  0
 27 83  1  0  0  0  0
 28 84  1  0  0  0  0
 29 65  2  0  0  0  0
 30 60  1  0  0  0  0
 30 66  1  0  0  0  0
 31 67  1  0  0  0  0
 31 70  1  0  0  0  0
 32 71  1  0  0  0  0
 32 76  2  0  0  0  0
 33 47  1  0  0  0  0
 33 72  1  0  0  0  0
 33 77  2  0  0  0  0
 34 61  1  0  0  0  0
 34 68  1  0  0  0  0
 34 78  2  0  0  0  0
 35 62  1  0  0  0  0
 35 73  1  0  0  0  0
 35 79  2  0  0  0  0
 36 69  1  0  0  0  0
 36 74  1  0  0  0  0
 36 80  2  0  0  0  0
 37 40  1  0  0  0  0
 38 47  1  0  0  0  0
 39 68  1  0  0  0  0
 40 42  1  0  0  0  0
 41 43  1  0  0  0  0
 41 44  1  0  0  0  0
 42 46  1  0  0  0  0
 43 48  1  0  0  0  0
 44 69  1  0  0  0  0
 45 48  1  0  0  0  0
 45 69  1  0  0  0  0
 46 72  1  0  0  0  0
 47 68  1  0  0  0  0
 48 67  1  0  0  0  0
 49 60  1  0  0  0  0
 50 60  1  0  0  0  0
 51 62  1  0  0  0  0
 52 63  1  0  0  0  0
 53 64  1  0  0  0  0
 54 64  1  0  0  0  0
 55 64  1  0  0  0  0
 56 75  1  0  0  0  0
 57 74  1  0  0  0  0
 58 59  1  0  0  0  0
 58 63  1  0  0  0  0
 59 66  1  0  0  0  0
 61 64  1  0  0  0  0
 61 73  1  0  0  0  0
 62 75  1  0  0  0  0
 63 82  1  0  0  0  0
 65 67  1  0  0  0  0
M  CHG  1  75   1
M  ISO  4  36 100  63 101  74 100  82 101
M  END
> <Batch ID>
0098

> <Smiles>
CNC(C)C(=O)NC(C(=O)N1Cc2cc([101O:1][101CH:1](C)CCn3cc(C[100NH:0][100C:0](=O)N4CCCC(n5nc(-c6ccc(Oc7ccc(F)cc7F)cc6)c(C(N)=O)c5N)C4)cc3C(C)C)ccc2CC1C(=O)NC1CCCc2ccccc21)C(C)(C)C

> <Shape>
0.238

> <Color>
0.056

> <Negative vol penalty>
0.000

$$$$

  -OEChem-04052319293D

 85 93  0     1  0  0  0  0  0999 V2000
  -16.2183  -22.7975   24.9514 C   0  0  0  0  0  0  0  0  0  0  0  0
  -17.4912  -22.3500   24.6128 C   0  0  0  0  0  0  0  0  0  0  0  0
  -23.2869   -9.8002   19.9125 C   0  0  0  0  0  0  0  0  0  0  0  0
  -23.7346   -9.9416   22.2825 C   0  0  0  0  0  0  0  0  0  0  0  0
  -15.5461  -22.2304   26.0333 C   0  0  0  0  0  0  0  0  0  0  0  0
  -18.0933  -21.3357   25.3566 C   0  0  0  0  0  0  0  0  0  0  0  0
  -22.5606  -15.7825   24.6346 C   0  0  0  0  0  0  0  0  0  0  0  0
  -22.5595   -8.6283   20.1198 C   0  0  0  0  0  0  0  0  0  0  0  0
  -23.0072   -8.7696   22.4898 C   0  0  0  0  0  0  0  0  0  0  0  0
  -23.7292  -15.2612   25.1882 C   0  0  0  0  0  0  0  0  0  0  0  0
  -19.4760   -7.7703   21.2102 C   0  0  0  0  0  0  0  0  0  0  0  0
  -18.2478   -7.6462   20.5609 C   0  0  0  0  0  0  0  0  0  0  0  0
  -22.4411  -14.3009   26.9877 C   0  0  0  0  0  0  0  0  0  0  0  0
  -31.4734  -12.1263   26.1455 C   0  0  0  0  0  0  0  0  0  0  0  0
  -19.0495   -5.6725   19.4213 C   0  0  0  0  0  0  0  0  0  0  0  0
  -29.9807  -13.7186   25.5921 C   0  0  0  0  0  0  0  0  0  0  0  0
  -23.8745  -10.4569   20.9938 C   0  0  0  0  0  0  0  0  0  0  0  0
  -24.1358  -12.9866   20.7945 C   0  0  0  0  0  0  0  0  0  0  0  0
  -16.1363  -21.2020   26.7849 C   0  0  0  0  0  0  0  0  0  0  0  0
  -21.3228  -15.5759   25.2603 C   0  0  0  0  0  0  0  0  0  0  0  0
  -17.4290  -20.7553   26.4504 C   0  0  0  0  0  0  0  0  0  0  0  0
  -21.2580  -14.8185   26.4386 C   0  0  0  0  0  0  0  0  0  0  0  0
  -31.0579  -13.0051   25.1149 C   0  0  0  0  0  0  0  0  0  0  0  0
  -22.4196   -8.1129   21.4084 C   0  0  0  0  0  0  0  0  0  0  0  0
  -23.6699  -14.5227   26.3665 C   0  0  0  0  0  0  0  0  0  0  0  0
  -20.4911   -6.8454   20.9650 C   0  0  0  0  0  0  0  0  0  0  0  0
  -18.0345   -6.5973   19.6665 C   0  0  0  0  0  0  0  0  0  0  0  0
  -20.2778   -5.7965   20.0707 C   0  0  0  0  0  0  0  0  0  0  0  0
  -24.6265  -11.6672   20.7803 C   0  0  0  0  0  0  0  0  0  0  0  0
  -30.6372  -12.3295   27.2212 C   0  0  0  0  0  0  0  0  0  0  0  0
  -25.2381  -13.7657   20.5406 C   0  0  0  0  0  0  0  0  0  0  0  0
  -22.8027  -13.4652   21.0173 C   0  0  0  0  0  0  0  0  0  0  0  0
  -19.1137  -17.4680   26.5423 C   0  0  0  0  0  0  0  0  0  0  0  0
  -17.4537  -14.6943   26.8129 C   0  0  0  0  0  0  0  0  0  0  0  0
  -17.5172  -11.2889   27.0265 C   0  0  0  0  0  0  0  0  0  0  0  0
  -31.1075  -12.9192   21.3685 C   0  0  0  0  0  0  0  0  0  0  0  0
  -15.3902  -20.6525   27.9748 C   0  0  0  0  0  0  0  0  0  0  0  0
  -20.0681  -16.1222   24.6360 C   0  0  0  0  0  0  0  0  0  0  0  0
  -19.9514  -14.5509   27.1384 C   0  0  0  0  0  0  0  0  0  0  0  0
  -15.9453  -19.3236   28.4812 C   0  0  0  0  0  0  0  0  0  0  0  0
  -29.4631  -13.6584   18.2982 C   0  0  0  0  0  0  0  0  0  0  0  0
  -17.4656  -19.3863   28.5883 C   0  0  0  0  0  0  0  0  0  0  0  0
  -27.9928  -13.3509   18.5875 C   0  0  0  0  0  0  0  0  0  0  0  0
  -30.3948  -12.6787   19.0082 C   0  0  0  0  0  0  0  0  0  0  0  0
  -28.7056  -12.2512   20.7511 C   0  0  0  0  0  0  0  0  0  0  0  0
  -18.1052  -19.6399   27.2178 C   0  0  1  0  0  0  0  0  0  0  0  0
  -18.9262  -16.2856   25.6343 C   0  0  1  0  0  0  0  0  0  0  0  0
  -27.7291  -13.2467   20.1017 C   0  0  2  0  0  0  0  0  0  0  0  0
  -31.9208  -11.9314   29.3536 C   0  0  0  0  0  0  0  0  0  0  0  0
  -30.3580  -10.1599   28.4737 C   0  0  0  0  0  0  0  0  0  0  0  0
  -16.6262   -8.9449   27.1244 C   0  0  0  0  0  0  0  0  0  0  0  0
  -25.8476  -11.2844   26.7957 C   0  0  0  0  0  0  0  0  0  0  0  0
  -17.1055  -15.3374   29.7752 C   0  0  0  0  0  0  0  0  0  0  0  0
  -16.4546  -12.9485   30.1458 C   0  0  0  0  0  0  0  0  0  0  0  0
  -15.0696  -14.4012   28.6646 C   0  0  0  0  0  0  0  0  0  0  0  0
  -17.5064  -11.0460   24.0769 C   0  0  0  0  0  0  0  0  0  0  0  0
  -31.6663  -13.1336   23.7770 C   0  0  0  0  0  0  0  0  0  0  0  0
  -27.4300  -12.8905   27.8926 C   0  0  0  0  0  0  0  0  0  0  0  0
  -28.6310  -13.8360   27.7514 C   0  0  0  0  0  0  0  0  0  0  0  0
  -25.8624  -13.6738   26.0085 C   0  0  0  0  0  0  0  0  0  1  0  0
  -30.6253  -11.6805   28.5485 C   0  0  0  0  0  0  0  0  0  0  0  0
  -17.3359  -13.6170   27.8639 C   0  0  1  0  0  0  0  0  0  0  0  0
  -16.7225  -10.2190   26.2996 C   0  0  2  0  0  0  0  0  0  0  0  0
  -26.7156  -12.5293   26.5716 C   0  0  2  0  0  0  0  0  0  0  0  0
  -16.5164  -14.0825   29.1005 C   0  0  0  0  0  0  0  0  0  0  0  0
  -25.9384  -11.6076   20.5365 N   0  0  0  0  0  0  0  0  0  0  0  0
  -29.7337  -13.2994   26.8732 N   0  0  0  0  0  0  0  0  0  0  0  0
  -26.2814  -12.8993   20.3951 N   0  0  0  0  0  0  0  0  0  0  0  0
  -18.7532  -15.1116   26.4923 N   0  0  0  0  0  0  0  0  0  0  0  0
  -30.0936  -12.6281   20.4409 N   0  0  0  0  0  0  0  0  0  0  0  0
  -25.4070  -15.1004   20.4299 N   0  0  0  0  0  0  0  0  0  0  0  0
  -21.7893  -12.5290   21.2638 N   0  0  0  0  0  0  0  0  0  0  0  0
  -18.1210  -18.4232   26.4345 N   0  0  0  0  0  0  0  0  0  0  0  0
  -16.7859  -12.4465   27.1887 N   0  0  0  0  0  0  0  0  0  0  0  0
  -30.7359  -12.8545   22.7058 N   0  0  0  0  0  0  0  0  0  0  0  0
  -17.3685   -9.8885   24.9979 N   0  3  0  0  0  0  0  0  0  0  0  0
  -22.5157  -14.6858   20.9821 O   0  0  0  0  0  0  0  0  0  0  0  0
  -20.0862  -17.5099   27.2867 O   0  0  0  0  0  0  0  0  0  0  0  0
  -16.4306  -15.1438   26.2903 O   0  0  0  0  0  0  0  0  0  0  0  0
  -18.6699  -11.1138   27.4150 O   0  0  0  0  0  0  0  0  0  0  0  0
  -32.2571  -13.2201   21.0297 O   0  0  0  0  0  0  0  0  0  0  0  0
  -21.7097   -6.9695   21.6111 O   0  0  0  0  0  0  0  0  0  0  0  0
  -24.8090  -14.0133   26.9093 O   0  0  0  0  0  0  0  0  0  1  0  0
  -16.8545   -6.4775   19.0442 F   0  0  0  0  0  0  0  0  0  0  0  0
  -21.2488   -4.9043   19.8320 F   0  0  0  0  0  0  0  0  0  0  0  0
  1  2  1  0  0  0  0
  1  5  2  0  0  0  0
  2  6  2  0  0  0  0
  3  8  2  0  0  0  0
  3 17  1  0  0  0  0
  4  9  1  0  0  0  0
  4 17  2  0  0  0  0
  5 19  1  0  0  0  0
  6 21  1  0  0  0  0
  7 10  2  0  0  0  0
  7 20  1  0  0  0  0
  8 24  1  0  0  0  0
  9 24  2  0  0  0  0
 10 25  1  0  0  0  0
 11 12  2  0  0  0  0
 11 26  1  0  0  0  0
 12 27  1  0  0  0  0
 13 22  1  0  0  0  0
 13 25  2  0  0  0  0
 14 23  1  0  0  0  0
 14 30  2  0  0  0  0
 15 27  2  0  0  0  0
 15 28  1  0  0  0  0
 16 23  2  0  0  0  0
 16 67  1  0  0  0  0
 17 29  1  0  0  0  0
 18 29  1  0  0  0  0
 18 31  2  0  0  0  0
 18 32  1  0  0  0  0
 19 21  2  0  0  0  0
 19 37  1  0  0  0  0
 20 22  2  0  0  0  0
 20 38  1  0  0  0  0
 21 46  1  0  0  0  0
 22 39  1  0  0  0  0
 23 57  1  0  0  0  0
 24 82  1  0  0  0  0
 25 83  1  0  0  0  0
 26 28  2  0  0  0  0
 26 82  1  0  0  0  0
 27 84  1  0  0  0  0
 28 85  1  0  0  0  0
 29 66  2  0  0  0  0
 30 61  1  0  0  0  0
 30 67  1  0  0  0  0
 31 68  1  0  0  0  0
 31 71  1  0  0  0  0
 32 72  1  0  0  0  0
 32 77  2  0  0  0  0
 33 47  1  0  0  0  0
 33 73  1  0  0  0  0
 33 78  2  0  0  0  0
 34 62  1  0  0  0  0
 34 69  1  0  0  0  0
 34 79  2  0  0  0  0
 35 63  1  0  0  0  0
 35 74  1  0  0  0  0
 35 80  2  0  0  0  0
 36 70  1  0  0  0  0
 36 75  1  0  0  0  0
 36 81  2  0  0  0  0
 37 40  1  0  0  0  0
 38 47  1  0  0  0  0
 39 69  1  0  0  0  0
 40 42  1  0  0  0  0
 41 43  1  0  0  0  0
 41 44  1  0  0  0  0
 42 46  1  0  0  0  0
 43 48  1  0  0  0  0
 44 70  1  0  0  0  0
 45 48  1  0  0  0  0
 45 70  1  0  0  0  0
 46 73  1  0  0  0  0
 47 69  1  0  0  0  0
 48 68  1  0  0  0  0
 49 61  1  0  0  0  0
 50 61  1  0  0  0  0
 51 63  1  0  0  0  0
 52 64  1  0  0  0  0
 53 65  1  0  0  0  0
 54 65  1  0  0  0  0
 55 65  1  0  0  0  0
 56 76  1  0  0  0  0
 57 75  1  0  0  0  0
 58 59  1  0  0  0  0
 58 64  1  0  0  0  0
 59 67  1  0  0  0  0
 60 64  1  0  0  0  0
 60 83  1  0  0  0  0
 62 65  1  0  0  0  0
 62 74  1  0  0  0  0
 63 76  1  0  0  0  0
 66 68  1  0  0  0  0
M  CHG  1  76   1
M  ISO  4  36 100  60 101  75 100  83 101
M  END
> <Batch ID>
0098

> <Smiles>
CNC(C)C(=O)NC(C(=O)N1Cc2cc([101O:1][101CH2:1]C(C)CCn3cc(C[100NH:0][100C:0](=O)N4CCCC(n5nc(-c6ccc(Oc7ccc(F)cc7F)cc6)c(C(N)=O)c5N)C4)cc3C(C)C)ccc2CC1C(=O)NC1CCCc2ccccc21)C(C)(C)C

> <Shape>
0.117

> <Color>
0.174

> <Negative vol penalty>
0.000

$$$$

  -OEChem-04052319293D

 84 92  0     1  0  0  0  0  0999 V2000
  -32.1582  -24.9917   18.5557 C   0  0  0  0  0  0  0  0  0  0  0  0
  -30.8049  -25.2381   18.3540 C   0  0  0  0  0  0  0  0  0  0  0  0
  -27.4557  -14.4915   19.0752 C   0  0  0  0  0  0  0  0  0  0  0  0
  -25.3853  -15.1549   20.1288 C   0  0  0  0  0  0  0  0  0  0  0  0
  -32.7458  -25.3088   19.7786 C   0  0  0  0  0  0  0  0  0  0  0  0
  -30.0414  -25.8127   19.3707 C   0  0  0  0  0  0  0  0  0  0  0  0
  -24.0696  -26.9888   19.6575 C   0  0  0  0  0  0  0  0  0  0  0  0
  -27.2444  -13.1761   19.4881 C   0  0  0  0  0  0  0  0  0  0  0  0
  -25.1739  -13.8394   20.5417 C   0  0  0  0  0  0  0  0  0  0  0  0
  -22.9141  -26.3454   20.0987 C   0  0  0  0  0  0  0  0  0  0  0  0
  -24.0745  -10.9489   19.1791 C   0  0  0  0  0  0  0  0  0  0  0  0
  -22.7973  -10.4148   19.0081 C   0  0  0  0  0  0  0  0  0  0  0  0
  -23.0641  -27.5274   22.1962 C   0  0  0  0  0  0  0  0  0  0  0  0
  -22.6294  -10.0535   21.3910 C   0  0  0  0  0  0  0  0  0  0  0  0
  -23.5586  -23.4062   22.9775 C   0  0  0  0  0  0  0  0  0  0  0  0
  -26.5262  -15.4810   19.3956 C   0  0  0  0  0  0  0  0  0  0  0  0
  -26.3203  -17.4318   17.7648 C   0  0  0  0  0  0  0  0  0  0  0  0
  -31.9856  -25.8759   20.8146 C   0  0  0  0  0  0  0  0  0  0  0  0
  -24.7383  -27.8997   20.4880 C   0  0  0  0  0  0  0  0  0  0  0  0
  -30.6214  -26.1619   20.6037 C   0  0  0  0  0  0  0  0  0  0  0  0
  -24.2264  -28.1829   21.7623 C   0  0  0  0  0  0  0  0  0  0  0  0
  -24.5886  -22.7839   23.6478 C   0  0  0  0  0  0  0  0  0  0  0  0
  -24.0154  -21.7770   24.4632 C   0  0  0  0  0  0  0  0  0  0  0  0
  -26.1035  -12.8500   20.2214 C   0  0  0  0  0  0  0  0  0  0  0  0
  -22.4128  -26.6125   21.3693 C   0  0  0  0  0  0  0  0  0  0  0  0
  -24.6291  -11.0352   20.4561 C   0  0  0  0  0  0  0  0  0  0  0  0
  -22.0748   -9.9672   20.1141 C   0  0  0  0  0  0  0  0  0  0  0  0
  -23.9066  -10.5876   21.5620 C   0  0  0  0  0  0  0  0  0  0  0  0
  -26.7442  -16.8401   18.9698 C   0  0  0  0  0  0  0  0  0  0  0  0
  -22.6526  -21.8146   24.2662 C   0  0  0  0  0  0  0  0  0  0  0  0
  -26.7726  -18.7265   17.8403 C   0  0  0  0  0  0  0  0  0  0  0  0
  -25.5836  -16.8621   16.6747 C   0  0  0  0  0  0  0  0  0  0  0  0
  -27.6332  -28.0376   21.7934 C   0  0  0  0  0  0  0  0  0  0  0  0
  -26.6463  -30.9839   22.7251 C   0  0  0  0  0  0  0  0  0  0  0  0
  -24.0473  -33.0790   23.4336 C   0  0  0  0  0  0  0  0  0  0  0  0
  -28.1060  -22.3178   22.4419 C   0  0  0  0  0  0  0  0  0  0  0  0
  -32.6741  -26.2066   22.1153 C   0  0  0  0  0  0  0  0  0  0  0  0
  -25.9686  -28.6054   19.9871 C   0  0  0  0  0  0  0  0  0  0  0  0
  -24.8955  -29.1677   22.6847 C   0  0  0  0  0  0  0  0  0  0  0  0
  -31.6990  -26.3962   23.2727 C   0  0  0  0  0  0  0  0  0  0  0  0
  -30.2629  -21.3668   19.7735 C   0  0  0  0  0  0  0  0  0  0  0  0
  -30.5832  -27.3454   22.8621 C   0  0  0  0  0  0  0  0  0  0  0  0
  -29.5674  -20.1522   19.1562 C   0  0  0  0  0  0  0  0  0  0  0  0
  -30.0987  -21.4001   21.2914 C   0  0  0  0  0  0  0  0  0  0  0  0
  -28.0092  -20.1012   21.1482 C   0  0  0  0  0  0  0  0  0  0  0  0
  -29.7643  -26.7579   21.7058 C   0  0  1  0  0  0  0  0  0  0  0  0
  -26.8568  -29.1286   21.1117 C   0  0  1  0  0  0  0  0  0  0  0  0
  -28.0995  -20.0542   19.6133 C   0  0  2  0  0  0  0  0  0  0  0  0
  -24.7428  -20.8554   25.3602 C   0  0  0  0  0  0  0  0  0  0  0  0
  -21.5798  -20.9897   24.8611 C   0  0  0  0  0  0  0  0  0  0  0  0
  -23.5546  -35.4151   24.2065 C   0  0  0  0  0  0  0  0  0  0  0  0
  -27.3962  -30.1962   25.5760 C   0  0  0  0  0  0  0  0  0  0  0  0
  -26.0343  -32.1310   26.3945 C   0  0  0  0  0  0  0  0  0  0  0  0
  -28.0211  -32.5330   24.9406 C   0  0  0  0  0  0  0  0  0  0  0  0
  -18.9547  -24.6104   22.8816 C   0  0  0  0  0  0  0  0  0  0  0  0
  -20.2129  -24.3072   25.0147 C   0  0  0  0  0  0  0  0  0  0  0  0
  -22.5983  -33.7243   20.9350 C   0  0  0  0  0  0  0  0  0  0  0  0
  -26.0228  -23.1146   23.5303 C   0  0  0  0  0  0  0  0  0  0  0  0
  -21.0185  -23.2005   22.8522 C   0  0  0  0  0  0  0  0  0  0  0  0
  -21.1703  -25.7525   23.2057 C   0  0  0  0  0  0  0  0  0  1  0  0
  -25.9273  -31.5387   23.9310 C   0  0  1  0  0  0  0  0  0  0  0  0
  -23.7581  -34.5061   23.0044 C   0  0  2  0  0  0  0  0  0  0  0  0
  -26.8330  -31.5797   25.1941 C   0  0  0  0  0  0  0  0  0  0  0  0
  -20.3677  -24.4639   23.4908 C   0  0  0  0  0  0  0  0  0  0  0  0
  -27.4144  -17.6892   19.7533 N   0  0  0  0  0  0  0  0  0  0  0  0
  -22.3865  -22.8085   23.3610 N   0  0  0  0  0  0  0  0  0  0  0  0
  -27.4151  -18.8275   19.0391 N   0  0  0  0  0  0  0  0  0  0  0  0
  -26.0991  -29.8273   22.1518 N   0  0  0  0  0  0  0  0  0  0  0  0
  -28.6836  -21.3052   21.6583 N   0  0  0  0  0  0  0  0  0  0  0  0
  -26.6794  -19.7769   16.9975 N   0  0  0  0  0  0  0  0  0  0  0  0
  -25.1970  -15.5176   16.7598 N   0  0  0  0  0  0  0  0  0  0  0  0
  -28.8562  -27.7682   21.2093 N   0  0  0  0  0  0  0  0  0  0  0  0
  -25.4017  -32.8393   23.5302 N   0  0  0  0  0  0  0  0  0  0  0  0
  -26.7586  -22.1537   22.7391 N   0  0  0  0  0  0  0  0  0  0  0  0
  -22.5280  -34.5552   22.1645 N   0  3  0  0  0  0  0  0  0  0  0  0
  -25.2913  -17.5210   15.6481 O   0  0  0  0  0  0  0  0  0  0  0  0
  -27.1586  -27.4825   22.7773 O   0  0  0  0  0  0  0  0  0  0  0  0
  -27.6523  -31.5596   22.3030 O   0  0  0  0  0  0  0  0  0  0  0  0
  -23.1604  -32.2601   23.6641 O   0  0  0  0  0  0  0  0  0  0  0  0
  -28.7425  -23.2984   22.8422 O   0  0  0  0  0  0  0  0  0  0  0  0
  -25.8969  -11.5664   20.6243 O   0  0  0  0  0  0  0  0  0  0  0  0
  -21.2854  -25.9854   21.8026 O   0  0  0  0  0  0  0  0  0  1  0  0
  -20.8477   -9.4557   19.9499 F   0  0  0  0  0  0  0  0  0  0  0  0
  -24.4337  -10.6690   22.7914 F   0  0  0  0  0  0  0  0  0  0  0  0
  1  2  1  0  0  0  0
  1  5  2  0  0  0  0
  2  6  2  0  0  0  0
  3  8  2  0  0  0  0
  3 16  1  0  0  0  0
  4  9  1  0  0  0  0
  4 16  2  0  0  0  0
  5 18  1  0  0  0  0
  6 20  1  0  0  0  0
  7 10  2  0  0  0  0
  7 19  1  0  0  0  0
  8 24  1  0  0  0  0
  9 24  2  0  0  0  0
 10 25  1  0  0  0  0
 11 12  2  0  0  0  0
 11 26  1  0  0  0  0
 12 27  1  0  0  0  0
 13 21  1  0  0  0  0
 13 25  2  0  0  0  0
 14 27  2  0  0  0  0
 14 28  1  0  0  0  0
 15 22  2  0  0  0  0
 15 66  1  0  0  0  0
 16 29  1  0  0  0  0
 17 29  1  0  0  0  0
 17 31  2  0  0  0  0
 17 32  1  0  0  0  0
 18 20  2  0  0  0  0
 18 37  1  0  0  0  0
 19 21  2  0  0  0  0
 19 38  1  0  0  0  0
 20 46  1  0  0  0  0
 21 39  1  0  0  0  0
 22 23  1  0  0  0  0
 22 58  1  0  0  0  0
 23 30  2  0  0  0  0
 23 49  1  0  0  0  0
 24 81  1  0  0  0  0
 25 82  1  0  0  0  0
 26 28  2  0  0  0  0
 26 81  1  0  0  0  0
 27 83  1  0  0  0  0
 28 84  1  0  0  0  0
 29 65  2  0  0  0  0
 30 50  1  0  0  0  0
 30 66  1  0  0  0  0
 31 67  1  0  0  0  0
 31 70  1  0  0  0  0
 32 71  1  0  0  0  0
 32 76  2  0  0  0  0
 33 47  1  0  0  0  0
 33 72  1  0  0  0  0
 33 77  2  0  0  0  0
 34 61  1  0  0  0  0
 34 68  1  0  0  0  0
 34 78  2  0  0  0  0
 35 62  1  0  0  0  0
 35 73  1  0  0  0  0
 35 79  2  0  0  0  0
 36 69  1  0  0  0  0
 36 74  1  0  0  0  0
 36 80  2  0  0  0  0
 37 40  1  0  0  0  0
 38 47  1  0  0  0  0
 39 68  1  0  0  0  0
 40 42  1  0  0  0  0
 41 43  1  0  0  0  0
 41 44  1  0  0  0  0
 42 46  1  0  0  0  0
 43 48  1  0  0  0  0
 44 69  1  0  0  0  0
 45 48  1  0  0  0  0
 45 69  1  0  0  0  0
 46 72  1  0  0  0  0
 47 68  1  0  0  0  0
 48 67  1  0  0  0  0
 51 62  1  0  0  0  0
 52 63  1  0  0  0  0
 53 63  1  0  0  0  0
 54 63  1  0  0  0  0
 55 64  1  0  0  0  0
 56 64  1  0  0  0  0
 57 75  1  0  0  0  0
 58 74  1  0  0  0  0
 59 64  1  0  0  0  0
 59 66  1  0  0  0  0
 60 64  1  0  0  0  0
 60 82  1  0  0  0  0
 61 63  1  0  0  0  0
 61 73  1  0  0  0  0
 62 75  1  0  0  0  0
 65 67  1  0  0  0  0
M  CHG  1  75   1
M  ISO  4  36 100  60 101  74 100  82 101
M  END
> <Batch ID>
0098

> <Smiles>
CNC(C)C(=O)NC(C(=O)N1Cc2cc([101O:1][101CH2:1]C(C)(C)Cn3cc(C[100NH:0][100C:0](=O)N4CCCC(n5nc(-c6ccc(Oc7ccc(F)cc7F)cc6)c(C(N)=O)c5N)C4)c(C)c3C)ccc2CC1C(=O)NC1CCCc2ccccc21)C(C)(C)C

> <Shape>
0.256

> <Color>
0.060

> <Negative vol penalty>
0.000

$$$$

  -OEChem-04052319293D

 91 99  0     1  0  0  0  0  0999 V2000
  -32.4170  -26.2226   19.7596 C   0  0  0  0  0  0  0  0  0  0  0  0
  -31.1710  -25.9752   19.1925 C   0  0  0  0  0  0  0  0  0  0  0  0
  -25.8834  -16.8555   17.8518 C   0  0  0  0  0  0  0  0  0  0  0  0
  -24.1551  -16.5471   19.5117 C   0  0  0  0  0  0  0  0  0  0  0  0
  -32.5045  -26.6974   21.0676 C   0  0  0  0  0  0  0  0  0  0  0  0
  -30.0116  -26.2015   19.9335 C   0  0  0  0  0  0  0  0  0  0  0  0
  -23.2013  -28.2800   19.1491 C   0  0  0  0  0  0  0  0  0  0  0  0
  -26.3636  -15.5723   18.1135 C   0  0  0  0  0  0  0  0  0  0  0  0
  -24.6353  -15.2639   19.7733 C   0  0  0  0  0  0  0  0  0  0  0  0
  -21.9069  -27.8712   19.4675 C   0  0  0  0  0  0  0  0  0  0  0  0
  -28.2644  -14.0552   20.4608 C   0  0  0  0  0  0  0  0  0  0  0  0
  -29.6434  -13.8953   20.5964 C   0  0  0  0  0  0  0  0  0  0  0  0
  -22.1772  -28.7677   21.6907 C   0  0  0  0  0  0  0  0  0  0  0  0
  -19.9197  -19.8073   23.9706 C   0  0  0  0  0  0  0  0  0  0  0  0
  -29.6472  -12.3527   18.7369 C   0  0  0  0  0  0  0  0  0  0  0  0
  -24.7791  -17.3429   18.5510 C   0  0  0  0  0  0  0  0  0  0  0  0
  -23.3079  -19.0351   17.3346 C   0  0  0  0  0  0  0  0  0  0  0  0
  -31.3453  -26.9388   21.8217 C   0  0  0  0  0  0  0  0  0  0  0  0
  -23.9985  -28.9270   20.1042 C   0  0  0  0  0  0  0  0  0  0  0  0
  -30.0837  -26.6786   21.2533 C   0  0  0  0  0  0  0  0  0  0  0  0
  -23.4804  -29.1859   21.3811 C   0  0  0  0  0  0  0  0  0  0  0  0
  -19.8879  -21.1837   23.7761 C   0  0  0  0  0  0  0  0  0  0  0  0
  -21.1111  -19.1895   24.3341 C   0  0  0  0  0  0  0  0  0  0  0  0
  -25.7396  -14.7765   19.0742 C   0  0  0  0  0  0  0  0  0  0  0  0
  -21.3957  -28.1125   20.7393 C   0  0  0  0  0  0  0  0  0  0  0  0
  -27.5768  -13.3638   19.4634 C   0  0  0  0  0  0  0  0  0  0  0  0
  -30.3348  -13.0441   19.7344 C   0  0  0  0  0  0  0  0  0  0  0  0
  -28.2682  -12.5126   18.6014 C   0  0  0  0  0  0  0  0  0  0  0  0
  -24.2829  -18.6685   18.2815 C   0  0  0  0  0  0  0  0  0  0  0  0
  -21.0654  -21.8915   23.9562 C   0  0  0  0  0  0  0  0  0  0  0  0
  -22.2338  -19.9865   24.4890 C   0  0  0  0  0  0  0  0  0  0  0  0
  -23.1932  -20.3971   17.4695 C   0  0  0  0  0  0  0  0  0  0  0  0
  -22.5715  -18.2175   16.4154 C   0  0  0  0  0  0  0  0  0  0  0  0
  -26.7633  -28.2758   21.5310 C   0  0  0  0  0  0  0  0  0  0  0  0
  -26.3883  -31.2570   22.7534 C   0  0  0  0  0  0  0  0  0  0  0  0
  -24.2716  -33.7990   23.5927 C   0  0  0  0  0  0  0  0  0  0  0  0
  -24.2900  -24.1524   22.0023 C   0  0  0  0  0  0  0  0  0  0  0  0
  -31.4914  -27.4072   23.2479 C   0  0  0  0  0  0  0  0  0  0  0  0
  -25.3831  -29.3855   19.7366 C   0  0  0  0  0  0  0  0  0  0  0  0
  -24.2883  -29.8950   22.4360 C   0  0  0  0  0  0  0  0  0  0  0  0
  -30.2035  -27.9768   23.8369 C   0  0  0  0  0  0  0  0  0  0  0  0
  -25.7145  -24.2594   18.7410 C   0  0  0  0  0  0  0  0  0  0  0  0
  -29.0242  -27.0596   23.5288 C   0  0  0  0  0  0  0  0  0  0  0  0
  -25.4212  -22.8717   18.1680 C   0  0  0  0  0  0  0  0  0  0  0  0
  -26.0252  -24.1990   20.2349 C   0  0  0  0  0  0  0  0  0  0  0  0
  -24.7121  -22.1278   20.4793 C   0  0  0  0  0  0  0  0  0  0  0  0
  -28.8024  -26.9353   22.0166 C   0  0  1  0  0  0  0  0  0  0  0  0
  -26.2903  -29.5774   20.9481 C   0  0  1  0  0  0  0  0  0  0  0  0
  -24.3382  -22.1442   18.9873 C   0  0  2  0  0  0  0  0  0  0  0  0
  -23.5402  -19.3766   24.8797 C   0  0  0  0  0  0  0  0  0  0  0  0
  -20.8095  -16.9271   23.2643 C   0  0  0  0  0  0  0  0  0  0  0  0
  -20.2387  -17.2571   25.6975 C   0  0  0  0  0  0  0  0  0  0  0  0
  -24.2542  -36.0941   24.6073 C   0  0  0  0  0  0  0  0  0  0  0  0
  -26.7626  -30.0327   25.5231 C   0  0  0  0  0  0  0  0  0  0  0  0
  -25.8080  -32.1298   26.5025 C   0  0  0  0  0  0  0  0  0  0  0  0
  -27.9239  -32.2216   25.1844 C   0  0  0  0  0  0  0  0  0  0  0  0
  -23.1630  -35.0064   21.1285 C   0  0  0  0  0  0  0  0  0  0  0  0
  -15.7597  -24.6013   21.7026 C   0  0  0  0  0  0  0  0  0  0  0  0
  -18.5990  -21.8598   23.3819 C   0  0  0  0  0  0  0  0  0  0  0  0
  -21.0919  -23.3720   23.7600 C   0  0  0  0  0  0  0  0  0  0  0  0
  -18.2634  -21.7354   21.8899 C   0  0  0  0  0  0  0  0  0  0  0  0
  -18.6329  -25.8585   21.2987 C   0  0  0  0  0  0  0  0  0  0  0  0
  -22.5072  -23.9584   23.7178 C   0  0  0  0  0  0  0  0  0  0  0  0
  -16.9948  -22.4548   21.4419 C   0  0  0  0  0  0  0  0  0  0  0  0
  -18.0404  -24.5904   20.7026 C   0  0  0  0  0  0  0  0  0  0  0  0
  -19.6322  -26.5568   20.3846 C   0  0  0  0  0  0  0  0  0  1  0  0
  -21.1519  -17.7152   24.5437 C   0  0  0  0  0  0  0  0  0  0  0  0
  -25.7324  -31.8327   23.9852 C   0  0  1  0  0  0  0  0  0  0  0  0
  -24.3304  -35.2909   23.3182 C   0  0  2  0  0  0  0  0  0  0  0  0
  -26.5419  -31.5391   25.2797 C   0  0  0  0  0  0  0  0  0  0  0  0
  -24.7543  -19.7134   18.9672 N   0  0  0  0  0  0  0  0  0  0  0  0
  -22.2417  -21.3264   24.3089 N   0  0  0  0  0  0  0  0  0  0  0  0
  -24.0726  -20.7499   18.4505 N   0  0  0  0  0  0  0  0  0  0  0  0
  -25.6389  -30.3182   22.0303 N   0  0  0  0  0  0  0  0  0  0  0  0
  -24.9589  -23.4982   20.9545 N   0  0  0  0  0  0  0  0  0  0  0  0
  -22.4270  -21.3155   16.8433 N   0  0  0  0  0  0  0  0  0  0  0  0
  -22.8123  -16.8368   16.4084 N   0  0  0  0  0  0  0  0  0  0  0  0
  -28.1353  -28.1133   21.5050 N   0  0  0  0  0  0  0  0  0  0  0  0
  -25.5315  -33.2522   23.7150 N   0  0  0  0  0  0  0  0  0  0  0  0
  -23.2887  -23.4192   22.6272 N   0  0  0  0  0  0  0  0  0  0  0  0
  -23.1976  -35.7012   22.4411 N   0  3  0  0  0  0  0  0  0  0  0  0
  -17.1180  -23.9431   21.6646 N   0  3  1  0  0  0  0  0  0  0  0  0
  -21.7371  -18.6992   15.6122 O   0  0  0  0  0  0  0  0  0  0  0  0
  -25.9442  -27.4786   21.9729 O   0  0  0  0  0  0  0  0  0  0  0  0
  -27.5210  -31.6319   22.4401 O   0  0  0  0  0  0  0  0  0  0  0  0
  -23.2138  -33.1813   23.6925 O   0  0  0  0  0  0  0  0  0  0  0  0
  -24.5613  -25.3063   22.3512 O   0  0  0  0  0  0  0  0  0  0  0  0
  -26.2078  -13.5243   19.3296 O   0  0  0  0  0  0  0  0  0  0  0  0
  -20.1329  -27.7140   21.0529 O   0  0  0  0  0  0  0  0  0  1  0  0
  -31.6593  -12.8918   19.8637 F   0  0  0  0  0  0  0  0  0  0  0  0
  -27.6132  -11.8467   17.6405 F   0  0  0  0  0  0  0  0  0  0  0  0
  1  2  1  0  0  0  0
  1  5  2  0  0  0  0
  2  6  2  0  0  0  0
  3  8  2  0  0  0  0
  3 16  1  0  0  0  0
  4  9  1  0  0  0  0
  4 16  2  0  0  0  0
  5 18  1  0  0  0  0
  6 20  1  0  0  0  0
  7 10  2  0  0  0  0
  7 19  1  0  0  0  0
  8 24  1  0  0  0  0
  9 24  2  0  0  0  0
 10 25  1  0  0  0  0
 11 12  2  0  0  0  0
 11 26  1  0  0  0  0
 12 27  1  0  0  0  0
 13 21  1  0  0  0  0
 13 25  2  0  0  0  0
 14 22  1  0  0  0  0
 14 23  2  0  0  0  0
 15 27  2  0  0  0  0
 15 28  1  0  0  0  0
 16 29  1  0  0  0  0
 17 29  1  0  0  0  0
 17 32  2  0  0  0  0
 17 33  1  0  0  0  0
 18 20  2  0  0  0  0
 18 38  1  0  0  0  0
 19 21  2  0  0  0  0
 19 39  1  0  0  0  0
 20 47  1  0  0  0  0
 21 40  1  0  0  0  0
 22 30  2  0  0  0  0
 22 59  1  0  0  0  0
 23 31  1  0  0  0  0
 23 67  1  0  0  0  0
 24 88  1  0  0  0  0
 25 89  1  0  0  0  0
 26 28  2  0  0  0  0
 26 88  1  0  0  0  0
 27 90  1  0  0  0  0
 28 91  1  0  0  0  0
 29 71  2  0  0  0  0
 30 60  1  0  0  0  0
 30 72  1  0  0  0  0
 31 50  1  0  0  0  0
 31 72  2  0  0  0  0
 32 73  1  0  0  0  0
 32 76  1  0  0  0  0
 33 77  1  0  0  0  0
 33 83  2  0  0  0  0
 34 48  1  0  0  0  0
 34 78  1  0  0  0  0
 34 84  2  0  0  0  0
 35 68  1  0  0  0  0
 35 74  1  0  0  0  0
 35 85  2  0  0  0  0
 36 69  1  0  0  0  0
 36 79  1  0  0  0  0
 36 86  2  0  0  0  0
 37 75  1  0  0  0  0
 37 80  1  0  0  0  0
 37 87  2  0  0  0  0
 38 41  1  0  0  0  0
 39 48  1  0  0  0  0
 40 74  1  0  0  0  0
 41 43  1  0  0  0  0
 42 44  1  0  0  0  0
 42 45  1  0  0  0  0
 43 47  1  0  0  0  0
 44 49  1  0  0  0  0
 45 75  1  0  0  0  0
 46 49  1  0  0  0  0
 46 75  1  0  0  0  0
 47 78  1  0  0  0  0
 48 74  1  0  0  0  0
 49 73  1  0  0  0  0
 51 67  1  0  0  0  0
 52 67  1  0  0  0  0
 53 69  1  0  0  0  0
 54 70  1  0  0  0  0
 55 70  1  0  0  0  0
 56 70  1  0  0  0  0
 57 81  1  0  0  0  0
 58 82  1  0  0  0  0
 59 61  1  0  0  0  0
 60 63  1  0  0  0  0
 61 64  1  0  0  0  0
 62 65  1  0  0  0  0
 62 66  1  0  0  0  0
 63 80  1  0  0  0  0
 64 82  1  0  0  0  0
 65 82  1  0  0  0  0
 66 89  1  0  0  0  0
 68 70  1  0  0  0  0
 68 79  1  0  0  0  0
 69 81  1  0  0  0  0
 71 73  1  0  0  0  0
M  CHG  2  81   1  82   1
M  ISO  4  37 100  66 101  80 100  89 101
M  END
> <Batch ID>
0098

> <Smiles>
CNC(C)C(=O)NC(C(=O)N1Cc2cc([101O:1][101CH2:1]CCN(C)CCCc3cc(C(C)C)c(C)nc3CC[100NH:0][100C:0](=O)N3CCCC(n4nc(-c5ccc(Oc6ccc(F)cc6F)cc5)c(C(N)=O)c4N)C3)ccc2CC1C(=O)NC1CCCc2ccccc21)C(C)(C)C

> <Shape>
0.223

> <Color>
0.060

> <Negative vol penalty>
0.000

$$$$

  -OEChem-04052319293D

 88 96  0     1  0  0  0  0  0999 V2000
  -33.8888  -23.8779   18.9844 C   0  0  0  0  0  0  0  0  0  0  0  0
  -32.6159  -23.3212   19.0564 C   0  0  0  0  0  0  0  0  0  0  0  0
  -23.2180   -9.6959   19.9933 C   0  0  0  0  0  0  0  0  0  0  0  0
  -23.8275   -9.9278   22.3197 C   0  0  0  0  0  0  0  0  0  0  0  0
  -34.3415  -24.7138   20.0043 C   0  0  0  0  0  0  0  0  0  0  0  0
  -31.7954  -23.5992   20.1490 C   0  0  0  0  0  0  0  0  0  0  0  0
  -27.0396  -24.6764   18.7825 C   0  0  0  0  0  0  0  0  0  0  0  0
  -22.5147   -8.5294   20.2939 C   0  0  0  0  0  0  0  0  0  0  0  0
  -23.1241   -8.7614   22.6202 C   0  0  0  0  0  0  0  0  0  0  0  0
  -26.2154  -23.6035   18.4457 C   0  0  0  0  0  0  0  0  0  0  0  0
  -19.9050   -7.8473   23.0919 C   0  0  0  0  0  0  0  0  0  0  0  0
  -19.0770   -7.8627   24.2142 C   0  0  0  0  0  0  0  0  0  0  0  0
  -25.2133  -23.6928   20.6382 C   0  0  0  0  0  0  0  0  0  0  0  0
  -20.3582   -6.0586   25.1841 C   0  0  0  0  0  0  0  0  0  0  0  0
  -28.2113  -18.4024   19.2643 C   0  0  0  0  0  0  0  0  0  0  0  0
  -23.8745  -10.3951   21.0062 C   0  0  0  0  0  0  0  0  0  0  0  0
  -24.1040  -12.9166   20.6956 C   0  0  0  0  0  0  0  0  0  0  0  0
  -33.5225  -25.0099   21.1052 C   0  0  0  0  0  0  0  0  0  0  0  0
  -26.9643  -25.2594   20.0556 C   0  0  0  0  0  0  0  0  0  0  0  0
  -32.2380  -24.4388   21.1852 C   0  0  0  0  0  0  0  0  0  0  0  0
  -26.0359  -24.7745   20.9878 C   0  0  0  0  0  0  0  0  0  0  0  0
  -22.4677   -8.0622   21.6073 C   0  0  0  0  0  0  0  0  0  0  0  0
  -25.3041  -23.1097   19.3745 C   0  0  0  0  0  0  0  0  0  0  0  0
  -20.9596   -6.9376   23.0156 C   0  0  0  0  0  0  0  0  0  0  0  0
  -19.3036   -6.9683   25.2603 C   0  0  0  0  0  0  0  0  0  0  0  0
  -21.1863   -6.0432   24.0617 C   0  0  0  0  0  0  0  0  0  0  0  0
  -24.6016  -11.5997   20.6963 C   0  0  0  0  0  0  0  0  0  0  0  0
  -28.7548  -18.5703   20.5188 C   0  0  0  0  0  0  0  0  0  0  0  0
  -26.1584  -19.0033   20.0731 C   0  0  0  0  0  0  0  0  0  0  0  0
  -26.7017  -19.1705   21.3279 C   0  0  0  0  0  0  0  0  0  0  0  0
  -25.1808  -13.6903   20.3372 C   0  0  0  0  0  0  0  0  0  0  0  0
  -22.7864  -13.3976   20.9924 C   0  0  0  0  0  0  0  0  0  0  0  0
  -28.9835  -25.6093   22.4855 C   0  0  0  0  0  0  0  0  0  0  0  0
  -26.5734  -27.3928   23.7236 C   0  0  0  0  0  0  0  0  0  0  0  0
  -23.2354  -28.0994   23.7987 C   0  0  0  0  0  0  0  0  0  0  0  0
  -30.5870  -15.0063   20.7696 C   0  0  0  0  0  0  0  0  0  0  0  0
  -34.0733  -25.8811   22.2063 C   0  0  0  0  0  0  0  0  0  0  0  0
  -27.8417  -26.4333   20.3943 C   0  0  0  0  0  0  0  0  0  0  0  0
  -25.9017  -25.3784   22.3611 C   0  0  0  0  0  0  0  0  0  0  0  0
  -33.0008  -26.4253   23.1465 C   0  0  0  0  0  0  0  0  0  0  0  0
  -29.7190  -12.3806   18.5272 C   0  0  0  0  0  0  0  0  0  0  0  0
  -32.0399  -25.3151   23.5598 C   0  0  0  0  0  0  0  0  0  0  0  0
  -28.2721  -12.0481   18.8958 C   0  0  0  0  0  0  0  0  0  0  0  0
  -30.5455  -12.7453   19.7584 C   0  0  0  0  0  0  0  0  0  0  0  0
  -28.5261  -13.4857   20.9616 C   0  0  0  0  0  0  0  0  0  0  0  0
  -31.3091  -24.7364   22.3422 C   0  0  1  0  0  0  0  0  0  0  0  0
  -28.0391  -26.6182   21.8957 C   0  0  1  0  0  0  0  0  0  0  0  0
  -27.6390  -13.1659   19.7461 C   0  0  2  0  0  0  0  0  0  0  0  0
  -21.5606  -29.5807   24.9380 C   0  0  0  0  0  0  0  0  0  0  0  0
  -26.7798  -17.6385   24.6233 C   0  0  0  0  0  0  0  0  0  0  0  0
  -24.9293  -16.0789   23.9880 C   0  0  0  0  0  0  0  0  0  0  0  0
  -26.7336  -25.6485   26.2218 C   0  0  0  0  0  0  0  0  0  0  0  0
  -24.4851  -26.5224   26.8915 C   0  0  0  0  0  0  0  0  0  0  0  0
  -26.4148  -28.0878   26.6714 C   0  0  0  0  0  0  0  0  0  0  0  0
  -22.4427  -29.3643   21.2433 C   0  0  0  0  0  0  0  0  0  0  0  0
  -24.6932  -19.2453   19.8120 C   0  0  0  0  0  0  0  0  0  0  0  0
  -25.8662  -19.5984   22.4857 C   0  0  0  0  0  0  0  0  0  0  0  0
  -24.3950  -19.7546   18.4002 C   0  0  0  0  0  0  0  0  0  0  0  0
  -25.0067  -18.4447   23.0361 C   0  0  0  0  0  0  0  0  0  0  0  0
  -30.4717  -17.2503   21.8234 C   0  0  0  0  0  0  0  0  0  0  0  0
  -25.0097  -21.1185   18.1080 C   0  0  0  0  0  0  0  0  0  1  0  0
  -30.2045  -18.3262   20.7528 C   0  0  2  0  0  0  0  0  0  0  0  0
  -25.3688  -27.1093   24.5881 C   0  0  1  0  0  0  0  0  0  0  0  0
  -22.4831  -29.4165   23.7402 C   0  0  2  0  0  0  0  0  0  0  0  0
  -25.8204  -17.2241   23.5048 C   0  0  0  0  0  0  0  0  0  0  0  0
  -25.7542  -26.8291   26.0681 C   0  0  0  0  0  0  0  0  0  0  0  0
  -26.9034  -18.6159   19.0188 N   0  0  0  0  0  0  0  0  0  0  0  0
  -25.8939  -11.5366   20.3646 N   0  0  0  0  0  0  0  0  0  0  0  0
  -28.0097  -18.9573   21.5731 N   0  0  0  0  0  0  0  0  0  0  0  0
  -26.2174  -12.8236   20.1519 N   0  0  0  0  0  0  0  0  0  0  0  0
  -26.7860  -26.5203   22.6468 N   0  0  0  0  0  0  0  0  0  0  0  0
  -29.8912  -13.8119   20.5201 N   0  0  0  0  0  0  0  0  0  0  0  0
  -25.3326  -15.0207   20.1655 N   0  0  0  0  0  0  0  0  0  0  0  0
  -21.7987  -12.4670   21.3431 N   0  0  0  0  0  0  0  0  0  0  0  0
  -30.2454  -25.6234   21.9225 N   0  0  0  0  0  0  0  0  0  0  0  0
  -24.4634  -28.2394   24.4100 N   0  0  0  0  0  0  0  0  0  0  0  0
  -29.8918  -15.9675   21.4931 N   0  0  0  0  0  0  0  0  0  0  0  0
  -30.9552  -19.5693   21.1553 N   0  3  0  0  0  0  0  0  0  0  0  0
  -21.6600  -29.4882   22.4998 N   0  3  0  0  0  0  0  0  0  0  0  0
  -22.4892  -14.6148   20.9319 O   0  0  0  0  0  0  0  0  0  0  0  0
  -28.5964  -24.8735   23.3858 O   0  0  0  0  0  0  0  0  0  0  0  0
  -27.2950  -28.3573   23.9894 O   0  0  0  0  0  0  0  0  0  0  0  0
  -22.7779  -27.0504   23.3506 O   0  0  0  0  0  0  0  0  0  0  0  0
  -31.7403  -15.2036   20.3722 O   0  0  0  0  0  0  0  0  0  0  0  0
  -21.7813   -6.9241   21.9010 O   0  0  0  0  0  0  0  0  0  0  0  0
  -24.4989  -22.0622   19.0486 O   0  0  0  0  0  0  0  0  0  1  0  0
  -18.5093   -6.9842   26.3388 F   0  0  0  0  0  0  0  0  0  0  0  0
  -22.1986   -5.1677   23.9947 F   0  0  0  0  0  0  0  0  0  0  0  0
  1  2  1  0  0  0  0
  1  5  2  0  0  0  0
  2  6  2  0  0  0  0
  3  8  2  0  0  0  0
  3 16  1  0  0  0  0
  4  9  1  0  0  0  0
  4 16  2  0  0  0  0
  5 18  1  0  0  0  0
  6 20  1  0  0  0  0
  7 10  2  0  0  0  0
  7 19  1  0  0  0  0
  8 22  1  0  0  0  0
  9 22  2  0  0  0  0
 10 23  1  0  0  0  0
 11 12  2  0  0  0  0
 11 24  1  0  0  0  0
 12 25  1  0  0  0  0
 13 21  1  0  0  0  0
 13 23  2  0  0  0  0
 14 25  2  0  0  0  0
 14 26  1  0  0  0  0
 15 28  1  0  0  0  0
 15 67  2  0  0  0  0
 16 27  1  0  0  0  0
 17 27  1  0  0  0  0
 17 31  2  0  0  0  0
 17 32  1  0  0  0  0
 18 20  2  0  0  0  0
 18 37  1  0  0  0  0
 19 21  2  0  0  0  0
 19 38  1  0  0  0  0
 20 46  1  0  0  0  0
 21 39  1  0  0  0  0
 22 85  1  0  0  0  0
 23 86  1  0  0  0  0
 24 26  2  0  0  0  0
 24 85  1  0  0  0  0
 25 87  1  0  0  0  0
 26 88  1  0  0  0  0
 27 68  2  0  0  0  0
 28 62  1  0  0  0  0
 28 69  2  0  0  0  0
 29 30  2  0  0  0  0
 29 56  1  0  0  0  0
 29 67  1  0  0  0  0
 30 57  1  0  0  0  0
 30 69  1  0  0  0  0
 31 70  1  0  0  0  0
 31 73  1  0  0  0  0
 32 74  1  0  0  0  0
 32 80  2  0  0  0  0
 33 47  1  0  0  0  0
 33 75  1  0  0  0  0
 33 81  2  0  0  0  0
 34 63  1  0  0  0  0
 34 71  1  0  0  0  0
 34 82  2  0  0  0  0
 35 64  1  0  0  0  0
 35 76  1  0  0  0  0
 35 83  2  0  0  0  0
 36 72  1  0  0  0  0
 36 77  1  0  0  0  0
 36 84  2  0  0  0  0
 37 40  1  0  0  0  0
 38 47  1  0  0  0  0
 39 71  1  0  0  0  0
 40 42  1  0  0  0  0
 41 43  1  0  0  0  0
 41 44  1  0  0  0  0
 42 46  1  0  0  0  0
 43 48  1  0  0  0  0
 44 72  1  0  0  0  0
 45 48  1  0  0  0  0
 45 72  1  0  0  0  0
 46 75  1  0  0  0  0
 47 71  1  0  0  0  0
 48 70  1  0  0  0  0
 49 64  1  0  0  0  0
 50 65  1  0  0  0  0
 51 65  1  0  0  0  0
 52 66  1  0  0  0  0
 53 66  1  0  0  0  0
 54 66  1  0  0  0  0
 55 79  1  0  0  0  0
 56 58  1  0  0  0  0
 57 59  1  0  0  0  0
 58 61  1  0  0  0  0
 59 65  1  0  0  0  0
 60 62  1  0  0  0  0
 60 77  1  0  0  0  0
 61 86  1  0  0  0  0
 62 78  1  0  0  0  0
 63 66  1  0  0  0  0
 63 76  1  0  0  0  0
 64 79  1  0  0  0  0
 68 70  1  0  0  0  0
M  CHG  2  78   1  79   1
M  ISO  4  36 100  61 101  77 100  86 101
M  END
> <Batch ID>
0098

> <Smiles>
CNC(C)C(=O)NC(C(=O)N1Cc2cc([101O:1][101CH2:1]CCc3ncc(C(N)C[100NH:0][100C:0](=O)N4CCCC(n5nc(-c6ccc(Oc7ccc(F)cc7F)cc6)c(C(N)=O)c5N)C4)nc3CCC(C)C)ccc2CC1C(=O)NC1CCCc2ccccc21)C(C)(C)C

> <Shape>
0.234

> <Color>
0.192

> <Negative vol penalty>
0.000

$$$$

  -OEChem-04052319293D

 82 90  0     1  0  0  0  0  0999 V2000
  -26.0180  -18.4155   23.4706 C   0  0  0  0  0  0  0  0  0  0  0  0
  -26.1308  -19.6293   24.1392 C   0  0  0  0  0  0  0  0  0  0  0  0
  -26.8061  -15.1156   21.4249 C   0  0  0  0  0  0  0  0  0  0  0  0
  -26.7602  -15.6705   19.0740 C   0  0  0  0  0  0  0  0  0  0  0  0
  -25.1995  -18.3163   22.3475 C   0  0  0  0  0  0  0  0  0  0  0  0
  -25.4161  -20.7411   23.6921 C   0  0  0  0  0  0  0  0  0  0  0  0
  -25.4393  -26.5128   25.6449 C   0  0  0  0  0  0  0  0  0  0  0  0
  -27.7211  -26.9542   20.5579 C   0  0  0  0  0  0  0  0  0  0  0  0
  -27.2955  -28.1653   21.1036 C   0  0  0  0  0  0  0  0  0  0  0  0
  -25.6880  -14.2994   21.2541 C   0  0  0  0  0  0  0  0  0  0  0  0
  -25.6420  -14.8544   18.9032 C   0  0  0  0  0  0  0  0  0  0  0  0
  -26.1172  -27.6955   25.3523 C   0  0  0  0  0  0  0  0  0  0  0  0
  -25.0222  -11.2010   20.0753 C   0  0  0  0  0  0  0  0  0  0  0  0
  -25.0418   -9.9411   20.6734 C   0  0  0  0  0  0  0  0  0  0  0  0
  -24.2984  -28.3768   23.9215 C   0  0  0  0  0  0  0  0  0  0  0  0
  -29.9272  -27.8806   20.2227 C   0  0  0  0  0  0  0  0  0  0  0  0
  -23.0839  -10.5232   21.9638 C   0  0  0  0  0  0  0  0  0  0  0  0
  -27.3423  -15.8012   20.3348 C   0  0  0  0  0  0  0  0  0  0  0  0
  -29.8491  -16.2701   20.3957 C   0  0  0  0  0  0  0  0  0  0  0  0
  -24.4845  -19.4311   21.8796 C   0  0  0  0  0  0  0  0  0  0  0  0
  -24.1887  -26.2479   25.0685 C   0  0  0  0  0  0  0  0  0  0  0  0
  -24.5662  -20.6549   22.5745 C   0  0  0  0  0  0  0  0  0  0  0  0
  -23.6056  -27.1912   24.2104 C   0  0  0  0  0  0  0  0  0  0  0  0
  -29.0370  -26.8118   20.1175 C   0  0  0  0  0  0  0  0  0  0  0  0
  -28.1857  -29.2340   21.2088 C   0  0  0  0  0  0  0  0  0  0  0  0
  -29.5015  -29.0917   20.7683 C   0  0  0  0  0  0  0  0  0  0  0  0
  -25.1059  -14.1688   19.9933 C   0  0  0  0  0  0  0  0  0  0  0  0
  -25.5481  -28.6264   24.4882 C   0  0  0  0  0  0  0  0  0  0  0  0
  -24.0335  -12.1221   20.4215 C   0  0  0  0  0  0  0  0  0  0  0  0
  -24.0727   -9.6022   21.6177 C   0  0  0  0  0  0  0  0  0  0  0  0
  -23.0644  -11.7832   21.3657 C   0  0  0  0  0  0  0  0  0  0  0  0
  -28.4970  -16.6448   20.5107 C   0  0  0  0  0  0  0  0  0  0  0  0
  -30.5483  -17.4238   20.6535 C   0  0  0  0  0  0  0  0  0  0  0  0
  -30.4218  -14.9932   20.0835 C   0  0  0  0  0  0  0  0  0  0  0  0
  -23.0432  -24.0074   23.1265 C   0  0  0  0  0  0  0  0  0  0  0  0
  -20.2177  -25.4840   23.7250 C   0  0  0  0  0  0  0  0  0  0  0  0
  -18.5749  -28.3228   24.6680 C   0  0  0  0  0  0  0  0  0  0  0  0
  -29.1112  -23.1162   20.0318 C   0  0  0  0  0  0  0  0  0  0  0  0
  -23.6072  -19.2657   20.6637 C   0  0  0  0  0  0  0  0  0  0  0  0
  -23.4583  -24.9796   25.4152 C   0  0  0  0  0  0  0  0  0  0  0  0
  -22.2561  -26.9637   23.5815 C   0  0  0  0  0  0  0  0  0  0  0  0
  -23.2427  -20.5939   20.0085 C   0  0  0  0  0  0  0  0  0  0  0  0
  -30.2278  -21.5320   23.0881 C   0  0  0  0  0  0  0  0  0  0  0  0
  -22.7302  -21.5681   21.0587 C   0  0  0  0  0  0  0  0  0  0  0  0
  -30.0347  -20.0523   22.7518 C   0  0  0  0  0  0  0  0  0  0  0  0
  -29.1110  -22.3846   22.4929 C   0  0  0  0  0  0  0  0  0  0  0  0
  -28.7435  -20.7532   20.6826 C   0  0  0  0  0  0  0  0  0  0  0  0
  -23.8220  -21.8854   22.0883 C   0  0  1  0  0  0  0  0  0  0  0  0
  -22.4224  -24.5814   24.3685 C   0  0  1  0  0  0  0  0  0  0  0  0
  -29.8528  -19.8410   21.2370 C   0  0  2  0  0  0  0  0  0  0  0  0
  -30.4722  -30.2222   20.8706 C   0  0  0  0  0  0  0  0  0  0  0  0
  -16.2648  -29.2347   25.0276 C   0  0  0  0  0  0  0  0  0  0  0  0
  -19.8405  -25.7123   20.7058 C   0  0  0  0  0  0  0  0  0  0  0  0
  -18.0597  -27.4208   21.1276 C   0  0  0  0  0  0  0  0  0  0  0  0
  -17.7749  -25.0906   21.9711 C   0  0  0  0  0  0  0  0  0  0  0  0
  -19.1063  -28.8590   27.5297 C   0  0  0  0  0  0  0  0  0  0  0  0
  -27.7022  -30.5336   21.8011 C   0  0  0  0  0  0  0  0  0  0  0  0
  -29.4917  -25.5171   19.5337 C   0  0  0  0  0  0  0  0  0  0  0  0
  -28.1719  -30.7679   23.2384 C   0  0  0  0  0  0  0  0  0  0  0  0
  -27.6340  -29.7380   24.2249 C   0  0  0  0  0  0  0  0  0  1  0  0
  -19.4490  -26.6184   23.0915 C   0  0  1  0  0  0  0  0  0  0  0  0
  -17.4622  -28.5556   25.6740 C   0  0  2  0  0  0  0  0  0  0  0  0
  -18.8073  -26.2142   21.7342 C   0  0  0  0  0  0  0  0  0  0  0  0
  -28.3441  -17.9357   20.8179 N   0  0  0  0  0  0  0  0  0  0  0  0
  -29.6091  -18.3821   20.8981 N   0  0  0  0  0  0  0  0  0  0  0  0
  -21.5843  -25.7056   23.9466 N   0  0  0  0  0  0  0  0  0  0  0  0
  -29.0028  -22.1503   21.0460 N   0  0  0  0  0  0  0  0  0  0  0  0
  -31.8687  -17.7019   20.6926 N   0  0  0  0  0  0  0  0  0  0  0  0
  -29.5594  -13.9141   19.8464 N   0  0  0  0  0  0  0  0  0  0  0  0
  -23.2401  -22.6405   23.1760 N   0  0  0  0  0  0  0  0  0  0  0  0
  -18.4908  -27.0720   24.0938 N   0  0  0  0  0  0  0  0  0  0  0  0
  -29.3502  -24.4162   20.4604 N   0  0  0  0  0  0  0  0  0  0  0  0
  -17.9449  -29.4170   26.7903 N   0  3  0  0  0  0  0  0  0  0  0  0
  -31.6618  -14.8107   20.0330 O   0  0  0  0  0  0  0  0  0  0  0  0
  -23.3216  -24.7494   22.1918 O   0  0  0  0  0  0  0  0  0  0  0  0
  -19.6259  -24.4424   24.0191 O   0  0  0  0  0  0  0  0  0  0  0  0
  -19.4307  -29.1675   24.4140 O   0  0  0  0  0  0  0  0  0  0  0  0
  -29.0081  -22.8397   18.8317 O   0  0  0  0  0  0  0  0  0  0  0  0
  -24.0149  -13.3723   19.8262 O   0  0  0  0  0  0  0  0  0  0  0  0
  -26.2078  -29.7813   24.2004 O   0  0  0  0  0  0  0  0  0  1  0  0
  -24.0907   -8.3917   22.1908 F   0  0  0  0  0  0  0  0  0  0  0  0
  -22.1113  -12.6635   21.7014 F   0  0  0  0  0  0  0  0  0  0  0  0
  1  2  1  0  0  0  0
  1  5  2  0  0  0  0
  2  6  2  0  0  0  0
  3 10  2  0  0  0  0
  3 18  1  0  0  0  0
  4 11  1  0  0  0  0
  4 18  2  0  0  0  0
  5 20  1  0  0  0  0
  6 22  1  0  0  0  0
  7 12  2  0  0  0  0
  7 21  1  0  0  0  0
  8  9  2  0  0  0  0
  8 24  1  0  0  0  0
  9 25  1  0  0  0  0
 10 27  1  0  0  0  0
 11 27  2  0  0  0  0
 12 28  1  0  0  0  0
 13 14  2  0  0  0  0
 13 29  1  0  0  0  0
 14 30  1  0  0  0  0
 15 23  1  0  0  0  0
 15 28  2  0  0  0  0
 16 24  2  0  0  0  0
 16 26  1  0  0  0  0
 17 30  2  0  0  0  0
 17 31  1  0  0  0  0
 18 32  1  0  0  0  0
 19 32  1  0  0  0  0
 19 33  2  0  0  0  0
 19 34  1  0  0  0  0
 20 22  2  0  0  0  0
 20 39  1  0  0  0  0
 21 23  2  0  0  0  0
 21 40  1  0  0  0  0
 22 48  1  0  0  0  0
 23 41  1  0  0  0  0
 24 58  1  0  0  0  0
 25 26  2  0  0  0  0
 25 57  1  0  0  0  0
 26 51  1  0  0  0  0
 27 79  1  0  0  0  0
 28 80  1  0  0  0  0
 29 31  2  0  0  0  0
 29 79  1  0  0  0  0
 30 81  1  0  0  0  0
 31 82  1  0  0  0  0
 32 64  2  0  0  0  0
 33 65  1  0  0  0  0
 33 68  1  0  0  0  0
 34 69  1  0  0  0  0
 34 74  2  0  0  0  0
 35 49  1  0  0  0  0
 35 70  1  0  0  0  0
 35 75  2  0  0  0  0
 36 61  1  0  0  0  0
 36 66  1  0  0  0  0
 36 76  2  0  0  0  0
 37 62  1  0  0  0  0
 37 71  1  0  0  0  0
 37 77  2  0  0  0  0
 38 67  1  0  0  0  0
 38 72  1  0  0  0  0
 38 78  2  0  0  0  0
 39 42  1  0  0  0  0
 40 49  1  0  0  0  0
 41 66  1  0  0  0  0
 42 44  1  0  0  0  0
 43 45  1  0  0  0  0
 43 46  1  0  0  0  0
 44 48  1  0  0  0  0
 45 50  1  0  0  0  0
 46 67  1  0  0  0  0
 47 50  1  0  0  0  0
 47 67  1  0  0  0  0
 48 70  1  0  0  0  0
 49 66  1  0  0  0  0
 50 65  1  0  0  0  0
 52 62  1  0  0  0  0
 53 63  1  0  0  0  0
 54 63  1  0  0  0  0
 55 63  1  0  0  0  0
 56 73  1  0  0  0  0
 57 59  1  0  0  0  0
 58 72  1  0  0  0  0
 59 60  1  0  0  0  0
 60 80  1  0  0  0  0
 61 63  1  0  0  0  0
 61 71  1  0  0  0  0
 62 73  1  0  0  0  0
 64 65  1  0  0  0  0
M  CHG  1  73   1
M  ISO  4  38 100  60 101  72 100  80 101
M  END
> <Batch ID>
0098

> <Smiles>
CNC(C)C(=O)NC(C(=O)N1Cc2cc([101O:1][101CH2:1]CCc3ccc(C[100NH:0][100C:0](=O)N4CCCC(n5nc(-c6ccc(Oc7ccc(F)cc7F)cc6)c(C(N)=O)c5N)C4)cc3C)ccc2CC1C(=O)NC1CCCc2ccccc21)C(C)(C)C

> <Shape>
0.242

> <Color>
0.040

> <Negative vol penalty>
0.000

$$$$

  -OEChem-04052319293D

 82 90  0     1  0  0  0  0  0999 V2000
  -20.9764  -20.1081   22.4936 C   0  0  0  0  0  0  0  0  0  0  0  0
  -22.2851  -20.2651   22.0485 C   0  0  0  0  0  0  0  0  0  0  0  0
  -27.7813  -12.2420   22.7522 C   0  0  0  0  0  0  0  0  0  0  0  0
  -27.4074  -11.6480   20.4404 C   0  0  0  0  0  0  0  0  0  0  0  0
  -20.0751  -21.1670   22.3920 C   0  0  0  0  0  0  0  0  0  0  0  0
  -22.6929  -21.4807   21.5005 C   0  0  0  0  0  0  0  0  0  0  0  0
  -28.2192  -24.0730   21.9958 C   0  0  0  0  0  0  0  0  0  0  0  0
  -26.8695  -11.2646   23.1508 C   0  0  0  0  0  0  0  0  0  0  0  0
  -26.4957  -10.6705   20.8390 C   0  0  0  0  0  0  0  0  0  0  0  0
  -29.3197  -24.1063   21.1406 C   0  0  0  0  0  0  0  0  0  0  0  0
  -23.2759  -10.5356   21.8616 C   0  0  0  0  0  0  0  0  0  0  0  0
  -22.0694  -10.4528   21.1666 C   0  0  0  0  0  0  0  0  0  0  0  0
  -28.5922  -26.2462   20.2974 C   0  0  0  0  0  0  0  0  0  0  0  0
  -22.5912   -8.1808   20.5318 C   0  0  0  0  0  0  0  0  0  0  0  0
  -30.0340  -23.4212   16.1386 C   0  0  0  0  0  0  0  0  0  0  0  0
  -28.0502  -12.4338   21.3970 C   0  0  0  0  0  0  0  0  0  0  0  0
  -30.3784  -13.2885   20.7999 C   0  0  0  0  0  0  0  0  0  0  0  0
  -20.4747  -22.3993   21.8513 C   0  0  0  0  0  0  0  0  0  0  0  0
  -27.2895  -25.1228   22.0005 C   0  0  0  0  0  0  0  0  0  0  0  0
  -21.7957  -22.5566   21.3903 C   0  0  0  0  0  0  0  0  0  0  0  0
  -27.4822  -26.2250   21.1555 C   0  0  0  0  0  0  0  0  0  0  0  0
  -30.1056  -22.0459   16.1143 C   0  0  0  0  0  0  0  0  0  0  0  0
  -31.2334  -21.6673   16.8836 C   0  0  0  0  0  0  0  0  0  0  0  0
  -26.2267  -10.4788   22.1942 C   0  0  0  0  0  0  0  0  0  0  0  0
  -29.5049  -25.1916   20.2891 C   0  0  0  0  0  0  0  0  0  0  0  0
  -24.1401   -9.4411   21.8917 C   0  0  0  0  0  0  0  0  0  0  0  0
  -21.7270   -9.2753   20.5017 C   0  0  0  0  0  0  0  0  0  0  0  0
  -23.7977   -8.2637   21.2269 C   0  0  0  0  0  0  0  0  0  0  0  0
  -28.9915  -13.4437   20.9845 C   0  0  0  0  0  0  0  0  0  0  0  0
  -31.8167  -22.8228   17.3547 C   0  0  0  0  0  0  0  0  0  0  0  0
  -30.8140  -14.5311   20.4093 C   0  0  0  0  0  0  0  0  0  0  0  0
  -31.1996  -12.1250   20.9665 C   0  0  0  0  0  0  0  0  0  0  0  0
  -24.1864  -25.3738   21.3591 C   0  0  0  0  0  0  0  0  0  0  0  0
  -24.6094  -28.4085   22.4237 C   0  0  0  0  0  0  0  0  0  0  0  0
  -26.7414  -31.0173   22.9677 C   0  0  0  0  0  0  0  0  0  0  0  0
  -28.0622  -18.9860   17.6823 C   0  0  0  0  0  0  0  0  0  0  0  0
  -19.4518  -23.4997   21.7185 C   0  0  0  0  0  0  0  0  0  0  0  0
  -26.1221  -25.0843   22.9482 C   0  0  0  0  0  0  0  0  0  0  0  0
  -26.5239  -27.3869   21.1367 C   0  0  0  0  0  0  0  0  0  0  0  0
  -20.0656  -24.8750   21.4698 C   0  0  0  0  0  0  0  0  0  0  0  0
  -29.7708  -19.1797   20.8668 C   0  0  0  0  0  0  0  0  0  0  0  0
  -21.1367  -24.7937   20.3868 C   0  0  0  0  0  0  0  0  0  0  0  0
  -29.8938  -17.7004   21.2364 C   0  0  0  0  0  0  0  0  0  0  0  0
  -28.4414  -19.4681   20.1756 C   0  0  0  0  0  0  0  0  0  0  0  0
  -28.3034  -17.1554   19.3355 C   0  0  0  0  0  0  0  0  0  0  0  0
  -22.2826  -23.8678   20.8126 C   0  0  1  0  0  0  0  0  0  0  0  0
  -24.9608  -25.9672   22.5018 C   0  0  1  0  0  0  0  0  0  0  0  0
  -29.6357  -16.7949   20.0175 C   0  0  2  0  0  0  0  0  0  0  0  0
  -31.7003  -20.2883   17.1355 C   0  0  0  0  0  0  0  0  0  0  0  0
  -33.0128  -23.0104   18.2029 C   0  0  0  0  0  0  0  0  0  0  0  0
  -26.7884  -33.3796   23.8129 C   0  0  0  0  0  0  0  0  0  0  0  0
  -23.3637  -29.3665   19.8083 C   0  0  0  0  0  0  0  0  0  0  0  0
  -24.2902  -31.6437   20.2821 C   0  0  0  0  0  0  0  0  0  0  0  0
  -22.6264  -30.6274   21.8383 C   0  0  0  0  0  0  0  0  0  0  0  0
  -28.6066  -30.3196   25.1570 C   0  0  0  0  0  0  0  0  0  0  0  0
  -29.1726  -21.1426   15.4115 C   0  0  0  0  0  0  0  0  0  0  0  0
  -31.3584  -25.3404   17.1704 C   0  0  0  0  0  0  0  0  0  0  0  0
  -27.8379  -20.9216   16.1459 C   0  0  0  0  0  0  0  0  0  0  0  0
  -30.4169  -25.9238   18.2184 C   0  0  0  0  0  0  0  0  0  1  0  0
  -24.9868  -29.7230   21.7843 C   0  0  1  0  0  0  0  0  0  0  0  0
  -26.9509  -31.9118   24.1761 C   0  0  2  0  0  0  0  0  0  0  0  0
  -23.8340  -30.3175   20.9270 C   0  0  0  0  0  0  0  0  0  0  0  0
  -28.5737  -14.6870   20.7321 N   0  0  0  0  0  0  0  0  0  0  0  0
  -31.0790  -23.8827   16.8958 N   0  0  0  0  0  0  0  0  0  0  0  0
  -29.7048  -15.3243   20.3850 N   0  0  0  0  0  0  0  0  0  0  0  0
  -25.3946  -27.2998   22.0772 N   0  0  0  0  0  0  0  0  0  0  0  0
  -28.2658  -18.5858   19.0134 N   0  0  0  0  0  0  0  0  0  0  0  0
  -32.0339  -15.0117   20.0878 N   0  0  0  0  0  0  0  0  0  0  0  0
  -30.5904  -10.9299   21.3729 N   0  0  0  0  0  0  0  0  0  0  0  0
  -23.1549  -24.5417   21.7504 N   0  0  0  0  0  0  0  0  0  0  0  0
  -25.4340  -30.5908   22.8684 N   0  0  0  0  0  0  0  0  0  0  0  0
  -28.0328  -20.3578   17.4632 N   0  0  0  0  0  0  0  0  0  0  0  0
  -28.3180  -31.7147   24.7358 N   0  3  0  0  0  0  0  0  0  0  0  0
  -32.4393  -12.1486   20.7770 O   0  0  0  0  0  0  0  0  0  0  0  0
  -24.5005  -25.6514   20.2076 O   0  0  0  0  0  0  0  0  0  0  0  0
  -23.6577  -28.3685   23.2075 O   0  0  0  0  0  0  0  0  0  0  0  0
  -27.6463  -30.7289   22.1875 O   0  0  0  0  0  0  0  0  0  0  0  0
  -27.9224  -18.1801   16.7560 O   0  0  0  0  0  0  0  0  0  0  0  0
  -25.3372   -9.5247   22.5829 O   0  0  0  0  0  0  0  0  0  0  0  0
  -30.5778  -25.2263   19.4528 O   0  0  0  0  0  0  0  0  0  1  0  0
  -20.5677   -9.1954   19.8356 F   0  0  0  0  0  0  0  0  0  0  0  0
  -24.6234   -7.2085   21.2532 F   0  0  0  0  0  0  0  0  0  0  0  0
  1  2  1  0  0  0  0
  1  5  2  0  0  0  0
  2  6  2  0  0  0  0
  3  8  2  0  0  0  0
  3 16  1  0  0  0  0
  4  9  1  0  0  0  0
  4 16  2  0  0  0  0
  5 18  1  0  0  0  0
  6 20  1  0  0  0  0
  7 10  2  0  0  0  0
  7 19  1  0  0  0  0
  8 24  1  0  0  0  0
  9 24  2  0  0  0  0
 10 25  1  0  0  0  0
 11 12  2  0  0  0  0
 11 26  1  0  0  0  0
 12 27  1  0  0  0  0
 13 21  1  0  0  0  0
 13 25  2  0  0  0  0
 14 27  2  0  0  0  0
 14 28  1  0  0  0  0
 15 22  2  0  0  0  0
 15 64  1  0  0  0  0
 16 29  1  0  0  0  0
 17 29  1  0  0  0  0
 17 31  2  0  0  0  0
 17 32  1  0  0  0  0
 18 20  2  0  0  0  0
 18 37  1  0  0  0  0
 19 21  2  0  0  0  0
 19 38  1  0  0  0  0
 20 46  1  0  0  0  0
 21 39  1  0  0  0  0
 22 23  1  0  0  0  0
 22 56  1  0  0  0  0
 23 30  2  0  0  0  0
 23 49  1  0  0  0  0
 24 79  1  0  0  0  0
 25 80  1  0  0  0  0
 26 28  2  0  0  0  0
 26 79  1  0  0  0  0
 27 81  1  0  0  0  0
 28 82  1  0  0  0  0
 29 63  2  0  0  0  0
 30 50  1  0  0  0  0
 30 64  1  0  0  0  0
 31 65  1  0  0  0  0
 31 68  1  0  0  0  0
 32 69  1  0  0  0  0
 32 74  2  0  0  0  0
 33 47  1  0  0  0  0
 33 70  1  0  0  0  0
 33 75  2  0  0  0  0
 34 60  1  0  0  0  0
 34 66  1  0  0  0  0
 34 76  2  0  0  0  0
 35 61  1  0  0  0  0
 35 71  1  0  0  0  0
 35 77  2  0  0  0  0
 36 67  1  0  0  0  0
 36 72  1  0  0  0  0
 36 78  2  0  0  0  0
 37 40  1  0  0  0  0
 38 47  1  0  0  0  0
 39 66  1  0  0  0  0
 40 42  1  0  0  0  0
 41 43  1  0  0  0  0
 41 44  1  0  0  0  0
 42 46  1  0  0  0  0
 43 48  1  0  0  0  0
 44 67  1  0  0  0  0
 45 48  1  0  0  0  0
 45 67  1  0  0  0  0
 46 70  1  0  0  0  0
 47 66  1  0  0  0  0
 48 65  1  0  0  0  0
 51 61  1  0  0  0  0
 52 62  1  0  0  0  0
 53 62  1  0  0  0  0
 54 62  1  0  0  0  0
 55 73  1  0  0  0  0
 56 58  1  0  0  0  0
 57 59  1  0  0  0  0
 57 64  1  0  0  0  0
 58 72  1  0  0  0  0
 59 80  1  0  0  0  0
 60 62  1  0  0  0  0
 60 71  1  0  0  0  0
 61 73  1  0  0  0  0
 63 65  1  0  0  0  0
M  CHG  1  73   1
M  ISO  4  36 100  59 101  72 100  80 101
M  END
> <Batch ID>
0098

> <Smiles>
CNC(C)C(=O)NC(C(=O)N1Cc2cc([101O:1][101CH2:1]Cn3cc(CC[100NH:0][100C:0](=O)N4CCCC(n5nc(-c6ccc(Oc7ccc(F)cc7F)cc6)c(C(N)=O)c5N)C4)c(C)c3C)ccc2CC1C(=O)NC1CCCc2ccccc21)C(C)(C)C

> <Shape>
0.248

> <Color>
0.070

> <Negative vol penalty>
0.000

$$$$

  -OEChem-04052319293D

 86 94  0     1  0  0  0  0  0999 V2000
  -33.4158  -27.9055   15.0746 C   0  0  0  0  0  0  0  0  0  0  0  0
  -33.1409  -26.8447   15.9317 C   0  0  0  0  0  0  0  0  0  0  0  0
  -34.1563  -21.3622   20.5619 C   0  0  0  0  0  0  0  0  0  0  0  0
  -23.2085   -9.6724   19.9806 C   0  0  0  0  0  0  0  0  0  0  0  0
  -23.7444   -9.9217   22.3232 C   0  0  0  0  0  0  0  0  0  0  0  0
  -32.7919  -29.1371   15.2693 C   0  0  0  0  0  0  0  0  0  0  0  0
  -32.2428  -27.0152   16.9847 C   0  0  0  0  0  0  0  0  0  0  0  0
  -28.9947  -23.1536   17.4124 C   0  0  0  0  0  0  0  0  0  0  0  0
  -32.9537  -21.0907   21.2142 C   0  0  0  0  0  0  0  0  0  0  0  0
  -34.6928  -20.4315   19.6721 C   0  0  0  0  0  0  0  0  0  0  0  0
  -22.5190   -8.4934   20.2638 C   0  0  0  0  0  0  0  0  0  0  0  0
  -23.0549   -8.7428   22.6064 C   0  0  0  0  0  0  0  0  0  0  0  0
  -29.4672  -21.9879   18.0137 C   0  0  0  0  0  0  0  0  0  0  0  0
  -23.6080   -5.4156   22.3729 C   0  0  0  0  0  0  0  0  0  0  0  0
  -24.2162   -4.4992   23.2308 C   0  0  0  0  0  0  0  0  0  0  0  0
  -28.4020  -22.6296   20.0807 C   0  0  0  0  0  0  0  0  0  0  0  0
  -22.3524   -4.6902   24.7561 C   0  0  0  0  0  0  0  0  0  0  0  0
  -23.8213  -10.3865   21.0103 C   0  0  0  0  0  0  0  0  0  0  0  0
  -24.0118  -12.9113   20.6989 C   0  0  0  0  0  0  0  0  0  0  0  0
  -31.8783  -29.3200   16.3193 C   0  0  0  0  0  0  0  0  0  0  0  0
  -28.2302  -24.0730   18.1450 C   0  0  0  0  0  0  0  0  0  0  0  0
  -31.6071  -28.2508   17.1943 C   0  0  0  0  0  0  0  0  0  0  0  0
  -27.9189  -23.8050   19.4857 C   0  0  0  0  0  0  0  0  0  0  0  0
  -32.2875  -19.8884   20.9769 C   0  0  0  0  0  0  0  0  0  0  0  0
  -34.0266  -19.2291   19.4348 C   0  0  0  0  0  0  0  0  0  0  0  0
  -32.8240  -18.9576   20.0872 C   0  0  0  0  0  0  0  0  0  0  0  0
  -22.4421   -8.0286   21.5767 C   0  0  0  0  0  0  0  0  0  0  0  0
  -29.1732  -21.7271   19.3488 C   0  0  0  0  0  0  0  0  0  0  0  0
  -22.3720   -5.9693   22.7066 C   0  0  0  0  0  0  0  0  0  0  0  0
  -23.5884   -4.1365   24.4224 C   0  0  0  0  0  0  0  0  0  0  0  0
  -21.7442   -5.6066   23.8982 C   0  0  0  0  0  0  0  0  0  0  0  0
  -24.5342  -11.6041   20.7183 C   0  0  0  0  0  0  0  0  0  0  0  0
  -25.0838  -13.7045   20.3700 C   0  0  0  0  0  0  0  0  0  0  0  0
  -22.6770  -13.3676   20.9552 C   0  0  0  0  0  0  0  0  0  0  0  0
  -28.5917  -27.1127   19.0012 C   0  0  0  0  0  0  0  0  0  0  0  0
  -25.5650  -26.7539   20.1114 C   0  0  0  0  0  0  0  0  0  0  0  0
  -23.1200  -24.6531   21.2321 C   0  0  0  0  0  0  0  0  0  0  0  0
  -30.3146  -15.1576   21.0590 C   0  0  0  0  0  0  0  0  0  0  0  0
  -31.2646  -30.6832   16.5184 C   0  0  0  0  0  0  0  0  0  0  0  0
  -27.7056  -25.3128   17.4743 C   0  0  0  0  0  0  0  0  0  0  0  0
  -27.0849  -24.7500   20.3103 C   0  0  0  0  0  0  0  0  0  0  0  0
  -30.0417  -30.6731   17.4319 C   0  0  0  0  0  0  0  0  0  0  0  0
  -29.7004  -12.4796   18.7035 C   0  0  0  0  0  0  0  0  0  0  0  0
  -30.3193  -29.8510   18.6865 C   0  0  0  0  0  0  0  0  0  0  0  0
  -28.2475  -12.1218   19.0217 C   0  0  0  0  0  0  0  0  0  0  0  0
  -30.4718  -12.8375   19.9704 C   0  0  0  0  0  0  0  0  0  0  0  0
  -28.4072  -13.5755   21.0957 C   0  0  0  0  0  0  0  0  0  0  0  0
  -30.6200  -28.3895   18.3330 C   0  0  1  0  0  0  0  0  0  0  0  0
  -27.3689  -26.4281   18.4593 C   0  0  1  0  0  0  0  0  0  0  0  0
  -27.5679  -13.2257   19.8534 C   0  0  2  0  0  0  0  0  0  0  0  0
  -31.1879  -19.5627   23.2166 C   0  0  0  0  0  0  0  0  0  0  0  0
  -20.7663  -24.6566   22.1024 C   0  0  0  0  0  0  0  0  0  0  0  0
  -35.9610  -18.7852   17.8833 C   0  0  0  0  0  0  0  0  0  0  0  0
  -33.6565  -17.9676   17.2858 C   0  0  0  0  0  0  0  0  0  0  0  0
  -34.9633  -16.8475   19.0799 C   0  0  0  0  0  0  0  0  0  0  0  0
  -26.5653  -27.7788   22.8056 C   0  0  0  0  0  0  0  0  0  0  0  0
  -24.4747  -26.8765   23.8465 C   0  0  0  0  0  0  0  0  0  0  0  0
  -24.3316  -28.6671   22.1156 C   0  0  0  0  0  0  0  0  0  0  0  0
  -22.1651  -22.9746   18.9894 C   0  0  0  0  0  0  0  0  0  0  0  0
  -32.1097  -17.6684   19.8327 C   0  0  0  0  0  0  0  0  0  0  0  0
  -32.3067  -16.6324   20.9436 C   0  0  0  0  0  0  0  0  0  0  0  0
  -29.8982  -20.6466   21.3395 C   0  0  0  0  0  0  0  0  0  1  0  0
  -30.9780  -19.6174   21.7008 C   0  0  1  0  0  0  0  0  0  0  0  0
  -24.9508  -26.3168   21.4193 C   0  0  1  0  0  0  0  0  0  0  0  0
  -21.6503  -24.5346   20.8710 C   0  0  2  0  0  0  0  0  0  0  0  0
  -34.6223  -18.2495   18.4771 C   0  0  0  0  0  0  0  0  0  0  0  0
  -25.0980  -27.3927   22.5320 C   0  0  0  0  0  0  0  0  0  0  0  0
  -25.8367  -11.5649   20.4250 N   0  0  0  0  0  0  0  0  0  0  0  0
  -26.1418  -12.8573   20.2181 N   0  0  0  0  0  0  0  0  0  0  0  0
  -26.6004  -25.9517   19.6112 N   0  0  0  0  0  0  0  0  0  0  0  0
  -29.7819  -13.9066   20.7060 N   0  0  0  0  0  0  0  0  0  0  0  0
  -25.2152  -15.0371   20.1989 N   0  0  0  0  0  0  0  0  0  0  0  0
  -21.6974  -12.4192   21.2795 N   0  0  0  0  0  0  0  0  0  0  0  0
  -29.3952  -27.6803   18.0308 N   0  0  0  0  0  0  0  0  0  0  0  0
  -23.5704  -25.9516   21.1202 N   0  0  0  0  0  0  0  0  0  0  0  0
  -31.6247  -15.3896   20.6585 N   0  0  0  0  0  0  0  0  0  0  0  0
  -21.3798  -23.2183   20.2267 N   0  3  0  0  0  0  0  0  0  0  0  0
  -22.3587  -14.5787   20.8823 O   0  0  0  0  0  0  0  0  0  0  0  0
  -28.7907  -27.1264   20.2103 O   0  0  0  0  0  0  0  0  0  0  0  0
  -25.1368  -27.7657   19.5504 O   0  0  0  0  0  0  0  0  0  0  0  0
  -23.7996  -23.6908   21.5822 O   0  0  0  0  0  0  0  0  0  0  0  0
  -29.6683  -16.0077   21.6809 O   0  0  0  0  0  0  0  0  0  0  0  0
  -21.7692   -6.8784   21.8535 O   0  0  0  0  0  0  0  0  0  0  0  0
  -29.6337  -20.5903   19.9384 O   0  0  0  0  0  0  0  0  0  1  0  0
  -24.1718   -3.2553   25.2454 F   0  0  0  0  0  0  0  0  0  0  0  0
  -20.5562   -6.1344   24.2237 F   0  0  0  0  0  0  0  0  0  0  0  0
  1  2  1  0  0  0  0
  1  6  2  0  0  0  0
  2  7  2  0  0  0  0
  3  9  2  0  0  0  0
  3 10  1  0  0  0  0
  4 11  2  0  0  0  0
  4 18  1  0  0  0  0
  5 12  1  0  0  0  0
  5 18  2  0  0  0  0
  6 20  1  0  0  0  0
  7 22  1  0  0  0  0
  8 13  2  0  0  0  0
  8 21  1  0  0  0  0
  9 24  1  0  0  0  0
 10 25  2  0  0  0  0
 11 27  1  0  0  0  0
 12 27  2  0  0  0  0
 13 28  1  0  0  0  0
 14 15  2  0  0  0  0
 14 29  1  0  0  0  0
 15 30  1  0  0  0  0
 16 23  1  0  0  0  0
 16 28  2  0  0  0  0
 17 30  2  0  0  0  0
 17 31  1  0  0  0  0
 18 32  1  0  0  0  0
 19 32  1  0  0  0  0
 19 33  2  0  0  0  0
 19 34  1  0  0  0  0
 20 22  2  0  0  0  0
 20 39  1  0  0  0  0
 21 23  2  0  0  0  0
 21 40  1  0  0  0  0
 22 48  1  0  0  0  0
 23 41  1  0  0  0  0
 24 26  2  0  0  0  0
 24 63  1  0  0  0  0
 25 26  1  0  0  0  0
 25 66  1  0  0  0  0
 26 60  1  0  0  0  0
 27 83  1  0  0  0  0
 28 84  1  0  0  0  0
 29 31  2  0  0  0  0
 29 83  1  0  0  0  0
 30 85  1  0  0  0  0
 31 86  1  0  0  0  0
 32 68  2  0  0  0  0
 33 69  1  0  0  0  0
 33 72  1  0  0  0  0
 34 73  1  0  0  0  0
 34 78  2  0  0  0  0
 35 49  1  0  0  0  0
 35 74  1  0  0  0  0
 35 79  2  0  0  0  0
 36 64  1  0  0  0  0
 36 70  1  0  0  0  0
 36 80  2  0  0  0  0
 37 65  1  0  0  0  0
 37 75  1  0  0  0  0
 37 81  2  0  0  0  0
 38 71  1  0  0  0  0
 38 76  1  0  0  0  0
 38 82  2  0  0  0  0
 39 42  1  0  0  0  0
 40 49  1  0  0  0  0
 41 70  1  0  0  0  0
 42 44  1  0  0  0  0
 43 45  1  0  0  0  0
 43 46  1  0  0  0  0
 44 48  1  0  0  0  0
 45 50  1  0  0  0  0
 46 71  1  0  0  0  0
 47 50  1  0  0  0  0
 47 71  1  0  0  0  0
 48 74  1  0  0  0  0
 49 70  1  0  0  0  0
 50 69  1  0  0  0  0
 51 63  1  0  0  0  0
 52 65  1  0  0  0  0
 53 66  1  0  0  0  0
 54 66  1  0  0  0  0
 55 66  1  0  0  0  0
 56 67  1  0  0  0  0
 57 67  1  0  0  0  0
 58 67  1  0  0  0  0
 59 77  1  0  0  0  0
 60 61  1  0  0  0  0
 61 76  1  0  0  0  0
 62 63  1  0  0  0  0
 62 84  1  0  0  0  0
 64 67  1  0  0  0  0
 64 75  1  0  0  0  0
 65 77  1  0  0  0  0
 68 69  1  0  0  0  0
M  CHG  1  77   1
M  ISO  4  38 100  62 101  76 100  84 101
M  END
> <Batch ID>
0098

> <Smiles>
CNC(C)C(=O)NC(C(=O)N1Cc2cc([101O:1][101CH2:1]C(C)c3cccc(C(C)(C)C)c3CC[100NH:0][100C:0](=O)N3CCCC(n4nc(-c5ccc(Oc6ccc(F)cc6F)cc5)c(C(N)=O)c4N)C3)ccc2CC1C(=O)NC1CCCc2ccccc21)C(C)(C)C

> <Shape>
0.240

> <Color>
0.205

> <Negative vol penalty>
0.000

$$$$

  -OEChem-04052319293D

 87 95  0     1  0  0  0  0  0999 V2000
  -29.8962  -23.0995   16.4410 C   0  0  0  0  0  0  0  0  0  0  0  0
  -28.5851  -23.4561   16.7398 C   0  0  0  0  0  0  0  0  0  0  0  0
  -28.0032  -14.8566   21.2671 C   0  0  0  0  0  0  0  0  0  0  0  0
  -25.9327  -15.4536   20.1744 C   0  0  0  0  0  0  0  0  0  0  0  0
  -30.8901  -23.2265   17.4104 C   0  0  0  0  0  0  0  0  0  0  0  0
  -28.2669  -23.9388   18.0087 C   0  0  0  0  0  0  0  0  0  0  0  0
  -25.2489  -28.0019   17.8412 C   0  0  0  0  0  0  0  0  0  0  0  0
  -27.6547  -13.5082   21.1907 C   0  0  0  0  0  0  0  0  0  0  0  0
  -25.5842  -14.1052   20.0980 C   0  0  0  0  0  0  0  0  0  0  0  0
  -23.8949  -27.7795   17.5943 C   0  0  0  0  0  0  0  0  0  0  0  0
  -24.3345  -11.7343   22.1590 C   0  0  0  0  0  0  0  0  0  0  0  0
  -23.0310  -11.3811   22.5076 C   0  0  0  0  0  0  0  0  0  0  0  0
  -23.4356  -27.9948   19.9527 C   0  0  0  0  0  0  0  0  0  0  0  0
  -21.9496  -23.4056   21.0081 C   0  0  0  0  0  0  0  0  0  0  0  0
  -22.6788  -10.4914   20.2892 C   0  0  0  0  0  0  0  0  0  0  0  0
  -20.3224  -21.9869   20.0100 C   0  0  0  0  0  0  0  0  0  0  0  0
  -27.1422  -15.8294   20.7590 C   0  0  0  0  0  0  0  0  0  0  0  0
  -28.2194  -17.9707   19.8861 C   0  0  0  0  0  0  0  0  0  0  0  0
  -30.5858  -23.7202   18.6889 C   0  0  0  0  0  0  0  0  0  0  0  0
  -25.7087  -28.2119   19.1492 C   0  0  0  0  0  0  0  0  0  0  0  0
  -29.2575  -24.0713   18.9966 C   0  0  0  0  0  0  0  0  0  0  0  0
  -24.7956  -28.2221   20.2133 C   0  0  0  0  0  0  0  0  0  0  0  0
  -21.1388  -23.1028   19.9199 C   0  0  0  0  0  0  0  0  0  0  0  0
  -21.9197  -22.5947   22.1372 C   0  0  0  0  0  0  0  0  0  0  0  0
  -26.4452  -13.1324   20.6061 C   0  0  0  0  0  0  0  0  0  0  0  0
  -22.9884  -27.7731   18.6504 C   0  0  0  0  0  0  0  0  0  0  0  0
  -24.8103  -11.4661   20.8755 C   0  0  0  0  0  0  0  0  0  0  0  0
  -22.2031  -10.7596   21.5728 C   0  0  0  0  0  0  0  0  0  0  0  0
  -23.9824  -10.8446   19.9406 C   0  0  0  0  0  0  0  0  0  0  0  0
  -27.5014  -17.2225   20.8382 C   0  0  0  0  0  0  0  0  0  0  0  0
  -21.0682  -21.5017   22.1281 C   0  0  0  0  0  0  0  0  0  0  0  0
  -28.2964  -19.2309   20.4268 C   0  0  0  0  0  0  0  0  0  0  0  0
  -28.7676  -17.5630   18.6255 C   0  0  0  0  0  0  0  0  0  0  0  0
  -27.7144  -26.6939   21.0927 C   0  0  0  0  0  0  0  0  0  0  0  0
  -27.1982  -29.2666   22.9998 C   0  0  0  0  0  0  0  0  0  0  0  0
  -25.1587  -31.8571   23.8811 C   0  0  0  0  0  0  0  0  0  0  0  0
  -24.9047  -22.1869   24.3777 C   0  0  0  0  0  0  0  0  0  0  0  0
  -31.6851  -23.7951   19.7187 C   0  0  0  0  0  0  0  0  0  0  0  0
  -27.1687  -28.4769   19.3958 C   0  0  0  0  0  0  0  0  0  0  0  0
  -25.2354  -28.4628   21.6335 C   0  0  0  0  0  0  0  0  0  0  0  0
  -31.3348  -24.6679   20.9211 C   0  0  0  0  0  0  0  0  0  0  0  0
  -28.3883  -21.4991   24.6384 C   0  0  0  0  0  0  0  0  0  0  0  0
  -29.9343  -24.3400   21.4288 C   0  0  0  0  0  0  0  0  0  0  0  0
  -28.6208  -20.3926   23.6081 C   0  0  0  0  0  0  0  0  0  0  0  0
  -27.0342  -21.3519   25.3288 C   0  0  0  0  0  0  0  0  0  0  0  0
  -26.1129  -20.1495   23.3849 C   0  0  0  0  0  0  0  0  0  0  0  0
  -28.8777  -24.6222   20.3539 C   0  0  1  0  0  0  0  0  0  0  0  0
  -27.5986  -28.1682   20.8266 C   0  0  1  0  0  0  0  0  0  0  0  0
  -27.4417  -20.2876   22.6223 C   0  0  2  0  0  0  0  0  0  0  0  0
  -21.4324  -19.1581   22.9818 C   0  0  0  0  0  0  0  0  0  0  0  0
  -19.5939  -20.5825   23.9545 C   0  0  0  0  0  0  0  0  0  0  0  0
  -24.9875  -33.7666   25.5002 C   0  0  0  0  0  0  0  0  0  0  0  0
  -26.4508  -27.3129   25.2211 C   0  0  0  0  0  0  0  0  0  0  0  0
  -25.4026  -29.2235   26.4536 C   0  0  0  0  0  0  0  0  0  0  0  0
  -27.8481  -29.2501   25.9622 C   0  0  0  0  0  0  0  0  0  0  0  0
  -18.8719  -27.0462   17.7169 C   0  0  0  0  0  0  0  0  0  0  0  0
  -19.6815  -25.1733   16.2595 C   0  0  0  0  0  0  0  0  0  0  0  0
  -25.1126  -33.8555   21.6986 C   0  0  0  0  0  0  0  0  0  0  0  0
  -21.1468  -23.9633   18.6794 C   0  0  0  0  0  0  0  0  0  0  0  0
  -22.7872  -22.9124   23.3059 C   0  0  0  0  0  0  0  0  0  0  0  0
  -20.1075  -25.0891   18.7733 C   0  0  0  0  0  0  0  0  0  0  0  0
  -21.3345  -26.7313   17.2956 C   0  0  0  0  0  0  0  0  0  1  0  0
  -20.9937  -20.5960   23.3138 C   0  0  0  0  0  0  0  0  0  0  0  0
  -26.2014  -29.6148   24.0788 C   0  0  1  0  0  0  0  0  0  0  0  0
  -25.4450  -33.3291   24.1175 C   0  0  2  0  0  0  0  0  0  0  0  0
  -26.4674  -28.8438   25.4025 C   0  0  0  0  0  0  0  0  0  0  0  0
  -19.9868  -26.0022   17.5197 C   0  0  0  0  0  0  0  0  0  0  0  0
  -20.2660  -21.1757   21.0899 N   0  0  0  0  0  0  0  0  0  0  0  0
  -27.1476  -17.9469   21.9031 N   0  0  0  0  0  0  0  0  0  0  0  0
  -27.6455  -19.1635   21.6235 N   0  0  0  0  0  0  0  0  0  0  0  0
  -26.6741  -28.7108   21.8242 N   0  0  0  0  0  0  0  0  0  0  0  0
  -25.9588  -21.2593   24.3385 N   0  0  0  0  0  0  0  0  0  0  0  0
  -28.8568  -20.3790   19.9907 N   0  0  0  0  0  0  0  0  0  0  0  0
  -28.5974  -16.2316   18.2222 N   0  0  0  0  0  0  0  0  0  0  0  0
  -28.6111  -26.0421   20.2678 N   0  0  0  0  0  0  0  0  0  0  0  0
  -26.2380  -31.0668   24.2152 N   0  0  0  0  0  0  0  0  0  0  0  0
  -23.9303  -22.0319   23.3994 N   0  0  0  0  0  0  0  0  0  0  0  0
  -24.7401  -34.1632   23.1034 N   0  3  0  0  0  0  0  0  0  0  0  0
  -29.4041  -18.3518   17.8865 O   0  0  0  0  0  0  0  0  0  0  0  0
  -27.0411  -26.1857   21.9815 O   0  0  0  0  0  0  0  0  0  0  0  0
  -28.3969  -29.4866   23.1902 O   0  0  0  0  0  0  0  0  0  0  0  0
  -24.0837  -31.4489   23.4471 O   0  0  0  0  0  0  0  0  0  0  0  0
  -24.8397  -23.0897   25.2189 O   0  0  0  0  0  0  0  0  0  0  0  0
  -26.1049  -11.8167   20.5312 O   0  0  0  0  0  0  0  0  0  0  0  0
  -21.6663  -27.5556   18.4122 O   0  0  0  0  0  0  0  0  0  1  0  0
  -20.9518  -10.4191   21.9081 F   0  0  0  0  0  0  0  0  0  0  0  0
  -24.4342  -10.5833   18.7063 F   0  0  0  0  0  0  0  0  0  0  0  0
  1  2  1  0  0  0  0
  1  5  2  0  0  0  0
  2  6  2  0  0  0  0
  3  8  2  0  0  0  0
  3 17  1  0  0  0  0
  4  9  1  0  0  0  0
  4 17  2  0  0  0  0
  5 19  1  0  0  0  0
  6 21  1  0  0  0  0
  7 10  2  0  0  0  0
  7 20  1  0  0  0  0
  8 25  1  0  0  0  0
  9 25  2  0  0  0  0
 10 26  1  0  0  0  0
 11 12  2  0  0  0  0
 11 27  1  0  0  0  0
 12 28  1  0  0  0  0
 13 22  1  0  0  0  0
 13 26  2  0  0  0  0
 14 23  2  0  0  0  0
 14 24  1  0  0  0  0
 15 28  2  0  0  0  0
 15 29  1  0  0  0  0
 16 23  1  0  0  0  0
 16 68  2  0  0  0  0
 17 30  1  0  0  0  0
 18 30  1  0  0  0  0
 18 32  2  0  0  0  0
 18 33  1  0  0  0  0
 19 21  2  0  0  0  0
 19 38  1  0  0  0  0
 20 22  2  0  0  0  0
 20 39  1  0  0  0  0
 21 47  1  0  0  0  0
 22 40  1  0  0  0  0
 23 59  1  0  0  0  0
 24 31  2  0  0  0  0
 24 60  1  0  0  0  0
 25 84  1  0  0  0  0
 26 85  1  0  0  0  0
 27 29  2  0  0  0  0
 27 84  1  0  0  0  0
 28 86  1  0  0  0  0
 29 87  1  0  0  0  0
 30 69  2  0  0  0  0
 31 63  1  0  0  0  0
 31 68  1  0  0  0  0
 32 70  1  0  0  0  0
 32 73  1  0  0  0  0
 33 74  1  0  0  0  0
 33 79  2  0  0  0  0
 34 48  1  0  0  0  0
 34 75  1  0  0  0  0
 34 80  2  0  0  0  0
 35 64  1  0  0  0  0
 35 71  1  0  0  0  0
 35 81  2  0  0  0  0
 36 65  1  0  0  0  0
 36 76  1  0  0  0  0
 36 82  2  0  0  0  0
 37 72  1  0  0  0  0
 37 77  1  0  0  0  0
 37 83  2  0  0  0  0
 38 41  1  0  0  0  0
 39 48  1  0  0  0  0
 40 71  1  0  0  0  0
 41 43  1  0  0  0  0
 42 44  1  0  0  0  0
 42 45  1  0  0  0  0
 43 47  1  0  0  0  0
 44 49  1  0  0  0  0
 45 72  1  0  0  0  0
 46 49  1  0  0  0  0
 46 72  1  0  0  0  0
 47 75  1  0  0  0  0
 48 71  1  0  0  0  0
 49 70  1  0  0  0  0
 50 63  1  0  0  0  0
 51 63  1  0  0  0  0
 52 65  1  0  0  0  0
 53 66  1  0  0  0  0
 54 66  1  0  0  0  0
 55 66  1  0  0  0  0
 56 67  1  0  0  0  0
 57 67  1  0  0  0  0
 58 78  1  0  0  0  0
 59 61  1  0  0  0  0
 60 77  1  0  0  0  0
 61 67  1  0  0  0  0
 62 67  1  0  0  0  0
 62 85  1  0  0  0  0
 64 66  1  0  0  0  0
 64 76  1  0  0  0  0
 65 78  1  0  0  0  0
 69 70  1  0  0  0  0
M  CHG  1  78   1
M  ISO  4  37 100  62 101  77 100  85 101
M  END
> <Batch ID>
0098

> <Smiles>
CNC(C)C(=O)NC(C(=O)N1Cc2cc([101O:1][101CH2:1]C(C)(C)CCc3cnc(C(C)C)c(C[100NH:0][100C:0](=O)N4CCCC(n5nc(-c6ccc(Oc7ccc(F)cc7F)cc6)c(C(N)=O)c5N)C4)c3)ccc2CC1C(=O)NC1CCCc2ccccc21)C(C)(C)C

> <Shape>
0.223

> <Color>
0.059

> <Negative vol penalty>
0.000

$$$$

  -OEChem-04052319293D

 89 97  0     1  0  0  0  0  0999 V2000
  -19.4710  -33.7858   21.8679 C   0  0  0  0  0  0  0  0  0  0  0  0
  -20.7800  -33.4697   21.5184 C   0  0  0  0  0  0  0  0  0  0  0  0
  -29.0545  -18.1005   20.9113 C   0  0  0  0  0  0  0  0  0  0  0  0
  -31.3700  -18.3974   20.2887 C   0  0  0  0  0  0  0  0  0  0  0  0
  -18.7669  -32.9625   22.7456 C   0  0  0  0  0  0  0  0  0  0  0  0
  -21.3860  -32.3307   22.0474 C   0  0  0  0  0  0  0  0  0  0  0  0
  -25.4234  -28.6729   19.2500 C   0  0  0  0  0  0  0  0  0  0  0  0
  -29.2636  -16.7269   21.0340 C   0  0  0  0  0  0  0  0  0  0  0  0
  -31.5791  -17.0238   20.4115 C   0  0  0  0  0  0  0  0  0  0  0  0
  -26.8145  -28.5969   19.3036 C   0  0  0  0  0  0  0  0  0  0  0  0
  -29.1008  -13.0963   21.1616 C   0  0  0  0  0  0  0  0  0  0  0  0
  -28.1494  -12.2417   20.6050 C   0  0  0  0  0  0  0  0  0  0  0  0
  -26.6492  -26.8473   20.9561 C   0  0  0  0  0  0  0  0  0  0  0  0
  -32.6748  -27.7782   19.4597 C   0  0  0  0  0  0  0  0  0  0  0  0
  -28.5674  -13.1959   18.4251 C   0  0  0  0  0  0  0  0  0  0  0  0
  -31.6074  -26.4708   21.1355 C   0  0  0  0  0  0  0  0  0  0  0  0
  -30.1077  -18.9357   20.5386 C   0  0  0  0  0  0  0  0  0  0  0  0
  -30.0374  -21.3302   21.4156 C   0  0  0  0  0  0  0  0  0  0  0  0
  -19.3613  -31.8075   23.2780 C   0  0  0  0  0  0  0  0  0  0  0  0
  -24.6336  -27.8428   20.0584 C   0  0  0  0  0  0  0  0  0  0  0  0
  -20.6896  -31.4919   22.9341 C   0  0  0  0  0  0  0  0  0  0  0  0
  -25.2483  -26.9130   20.9090 C   0  0  0  0  0  0  0  0  0  0  0  0
  -31.7066  -27.6720   20.4520 C   0  0  0  0  0  0  0  0  0  0  0  0
  -33.5025  -26.6952   19.1851 C   0  0  0  0  0  0  0  0  0  0  0  0
  -30.5259  -16.1885   20.7841 C   0  0  0  0  0  0  0  0  0  0  0  0
  -27.4276  -27.6860   20.1589 C   0  0  0  0  0  0  0  0  0  0  0  0
  -29.7855  -14.0009   20.3500 C   0  0  0  0  0  0  0  0  0  0  0  0
  -27.8827  -12.2914   19.2368 C   0  0  0  0  0  0  0  0  0  0  0  0
  -29.5189  -14.0507   18.9818 C   0  0  0  0  0  0  0  0  0  0  0  0
  -29.8922  -20.3547   20.4111 C   0  0  0  0  0  0  0  0  0  0  0  0
  -33.3230  -25.5378   19.9254 C   0  0  0  0  0  0  0  0  0  0  0  0
  -29.7194  -22.5130   20.7940 C   0  0  0  0  0  0  0  0  0  0  0  0
  -30.4251  -21.1806   22.7878 C   0  0  0  0  0  0  0  0  0  0  0  0
  -22.5161  -28.3282   22.3788 C   0  0  0  0  0  0  0  0  0  0  0  0
  -22.1026  -25.1197   22.1408 C   0  0  0  0  0  0  0  0  0  0  0  0
  -23.3871  -22.0929   21.2267 C   0  0  0  0  0  0  0  0  0  0  0  0
  -29.8852  -24.2887   15.0782 C   0  0  0  0  0  0  0  0  0  0  0  0
  -18.5766  -30.9739   24.2599 C   0  0  0  0  0  0  0  0  0  0  0  0
  -23.1340  -27.9185   19.9692 C   0  0  0  0  0  0  0  0  0  0  0  0
  -24.4452  -25.9853   21.7825 C   0  0  0  0  0  0  0  0  0  0  0  0
  -19.1634  -29.5825   24.4831 C   0  0  0  0  0  0  0  0  0  0  0  0
  -27.0515  -24.2730   17.2337 C   0  0  0  0  0  0  0  0  0  0  0  0
  -20.6710  -29.6673   24.6993 C   0  0  0  0  0  0  0  0  0  0  0  0
  -27.4713  -23.3551   18.3831 C   0  0  0  0  0  0  0  0  0  0  0  0
  -27.6007  -23.7873   15.8941 C   0  0  0  0  0  0  0  0  0  0  0  0
  -29.4788  -22.6510   17.0145 C   0  0  0  0  0  0  0  0  0  0  0  0
  -21.3730  -30.2515   23.4675 C   0  0  1  0  0  0  0  0  0  0  0  0
  -22.4336  -27.3827   21.2140 C   0  0  1  0  0  0  0  0  0  0  0  0
  -28.9954  -23.1310   18.3938 C   0  0  2  0  0  0  0  0  0  0  0  0
  -33.6395  -23.0866   20.3475 C   0  0  0  0  0  0  0  0  0  0  0  0
  -35.5306  -27.9434   18.3620 C   0  0  0  0  0  0  0  0  0  0  0  0
  -22.8289  -19.6466   21.1881 C   0  0  0  0  0  0  0  0  0  0  0  0
  -22.6233  -24.9559   25.1428 C   0  0  0  0  0  0  0  0  0  0  0  0
  -22.9953  -22.4948   24.8735 C   0  0  0  0  0  0  0  0  0  0  0  0
  -20.7733  -23.4861   24.3232 C   0  0  0  0  0  0  0  0  0  0  0  0
  -31.5735  -27.0402   15.0881 C   0  0  0  0  0  0  0  0  0  0  0  0
  -33.8029  -26.6559   14.0016 C   0  0  0  0  0  0  0  0  0  0  0  0
  -23.6069  -21.9707   18.2779 C   0  0  0  0  0  0  0  0  0  0  0  0
  -30.7930  -28.8292   20.7753 C   0  0  0  0  0  0  0  0  0  0  0  0
  -34.1837  -24.3429   19.6745 C   0  0  0  0  0  0  0  0  0  0  0  0
  -32.2320  -24.6992   14.3829 C   0  0  0  0  0  0  0  0  0  0  0  0
  -29.5140  -28.8075   19.9454 C   0  0  0  0  0  0  0  0  0  1  0  0
  -33.3995  -25.8143   16.3204 C   0  0  0  0  0  0  0  0  0  0  0  0
  -34.5407  -26.8015   18.1220 C   0  0  2  0  0  0  0  0  0  0  0  0
  -22.7347  -23.9096   22.7851 C   0  0  1  0  0  0  0  0  0  0  0  0
  -22.8004  -20.9542   20.4121 C   0  0  2  0  0  0  0  0  0  0  0  0
  -22.2971  -23.7303   24.2662 C   0  0  0  0  0  0  0  0  0  0  0  0
  -32.7436  -26.0491   14.9399 C   0  0  0  0  0  0  0  0  0  0  0  0
  -32.3934  -25.3971   20.8969 N   0  0  0  0  0  0  0  0  0  0  0  0
  -29.5114  -20.8728   19.2403 N   0  0  0  0  0  0  0  0  0  0  0  0
  -29.4146  -22.1867   19.5053 N   0  0  0  0  0  0  0  0  0  0  0  0
  -22.9823  -26.1019   21.6641 N   0  0  0  0  0  0  0  0  0  0  0  0
  -29.0510  -23.5961   15.9712 N   0  0  0  0  0  0  0  0  0  0  0  0
  -29.6736  -23.7900   21.2296 N   0  0  0  0  0  0  0  0  0  0  0  0
  -30.7170  -19.8949   23.2632 N   0  0  0  0  0  0  0  0  0  0  0  0
  -21.4880  -29.2502   22.4289 N   0  0  0  0  0  0  0  0  0  0  0  0
  -22.4138  -22.7752   21.9257 N   0  0  0  0  0  0  0  0  0  0  0  0
  -31.2473  -24.0552   15.2234 N   0  0  0  0  0  0  0  0  0  0  0  0
  -23.5716  -20.7689   19.1504 N   0  3  0  0  0  0  0  0  0  0  0  0
  -30.4942  -22.1561   23.5734 O   0  0  0  0  0  0  0  0  0  0  0  0
  -23.4430  -28.2278   23.1740 O   0  0  0  0  0  0  0  0  0  0  0  0
  -20.8738  -25.1876   22.0570 O   0  0  0  0  0  0  0  0  0  0  0  0
  -24.5890  -22.3490   21.2444 O   0  0  0  0  0  0  0  0  0  0  0  0
  -29.4489  -25.0621   14.2189 O   0  0  0  0  0  0  0  0  0  0  0  0
  -30.7304  -14.8482   20.9040 O   0  0  0  0  0  0  0  0  0  0  0  0
  -28.7853  -27.6102   20.2137 O   0  0  0  0  0  0  0  0  0  1  0  0
  -33.8996  -27.0252   16.8603 O   0  0  0  0  0  0  0  0  0  0  0  0
  -26.9701  -11.4695   18.7021 F   0  0  0  0  0  0  0  0  0  0  0  0
  -30.1743  -14.9167   18.1969 F   0  0  0  0  0  0  0  0  0  0  0  0
  1  2  1  0  0  0  0
  1  5  2  0  0  0  0
  2  6  2  0  0  0  0
  3  8  2  0  0  0  0
  3 17  1  0  0  0  0
  4  9  1  0  0  0  0
  4 17  2  0  0  0  0
  5 19  1  0  0  0  0
  6 21  1  0  0  0  0
  7 10  2  0  0  0  0
  7 20  1  0  0  0  0
  8 25  1  0  0  0  0
  9 25  2  0  0  0  0
 10 26  1  0  0  0  0
 11 12  2  0  0  0  0
 11 27  1  0  0  0  0
 12 28  1  0  0  0  0
 13 22  1  0  0  0  0
 13 26  2  0  0  0  0
 14 23  2  0  0  0  0
 14 24  1  0  0  0  0
 15 28  2  0  0  0  0
 15 29  1  0  0  0  0
 16 23  1  0  0  0  0
 16 69  2  0  0  0  0
 17 30  1  0  0  0  0
 18 30  1  0  0  0  0
 18 32  2  0  0  0  0
 18 33  1  0  0  0  0
 19 21  2  0  0  0  0
 19 38  1  0  0  0  0
 20 22  2  0  0  0  0
 20 39  1  0  0  0  0
 21 47  1  0  0  0  0
 22 40  1  0  0  0  0
 23 59  1  0  0  0  0
 24 31  2  0  0  0  0
 24 64  1  0  0  0  0
 25 85  1  0  0  0  0
 26 86  1  0  0  0  0
 27 29  2  0  0  0  0
 27 85  1  0  0  0  0
 28 88  1  0  0  0  0
 29 89  1  0  0  0  0
 30 70  2  0  0  0  0
 31 60  1  0  0  0  0
 31 69  1  0  0  0  0
 32 71  1  0  0  0  0
 32 74  1  0  0  0  0
 33 75  1  0  0  0  0
 33 80  2  0  0  0  0
 34 48  1  0  0  0  0
 34 76  1  0  0  0  0
 34 81  2  0  0  0  0
 35 65  1  0  0  0  0
 35 72  1  0  0  0  0
 35 82  2  0  0  0  0
 36 66  1  0  0  0  0
 36 77  1  0  0  0  0
 36 83  2  0  0  0  0
 37 73  1  0  0  0  0
 37 78  1  0  0  0  0
 37 84  2  0  0  0  0
 38 41  1  0  0  0  0
 39 48  1  0  0  0  0
 40 72  1  0  0  0  0
 41 43  1  0  0  0  0
 42 44  1  0  0  0  0
 42 45  1  0  0  0  0
 43 47  1  0  0  0  0
 44 49  1  0  0  0  0
 45 73  1  0  0  0  0
 46 49  1  0  0  0  0
 46 73  1  0  0  0  0
 47 76  1  0  0  0  0
 48 72  1  0  0  0  0
 49 71  1  0  0  0  0
 50 60  1  0  0  0  0
 51 64  1  0  0  0  0
 52 66  1  0  0  0  0
 53 67  1  0  0  0  0
 54 67  1  0  0  0  0
 55 67  1  0  0  0  0
 56 68  1  0  0  0  0
 57 68  1  0  0  0  0
 58 79  1  0  0  0  0
 59 62  1  0  0  0  0
 61 68  1  0  0  0  0
 61 78  1  0  0  0  0
 62 86  1  0  0  0  0
 63 68  1  0  0  0  0
 63 87  1  0  0  0  0
 64 87  1  0  0  0  0
 65 67  1  0  0  0  0
 65 77  1  0  0  0  0
 66 79  1  0  0  0  0
 70 71  1  0  0  0  0
M  CHG  1  79   1
M  ISO  4  37 100  62 101  78 100  86 101
M  END
> <Batch ID>
0098

> <Smiles>
CCc1ncc(C[101CH2:1][101O:1]c2ccc3c(c2)CN(C(=O)C(NC(=O)C(C)NC)C(C)(C)C)C(C(=O)NC2CCCc4ccccc42)C3)cc1C(C)OCC(C)(C)C[100NH:0][100C:0](=O)N1CCCC(n2nc(-c3ccc(Oc4ccc(F)cc4F)cc3)c(C(N)=O)c2N)C1

> <Shape>
0.199

> <Color>
0.080

> <Negative vol penalty>
0.000

$$$$

  -OEChem-04052319293D

 82 90  0     1  0  0  0  0  0999 V2000
  -17.7350  -25.4765   20.1877 C   0  0  0  0  0  0  0  0  0  0  0  0
  -18.8469  -25.9537   19.5012 C   0  0  0  0  0  0  0  0  0  0  0  0
  -26.7082  -13.6557   21.1932 C   0  0  0  0  0  0  0  0  0  0  0  0
  -26.5510  -14.2472   18.8560 C   0  0  0  0  0  0  0  0  0  0  0  0
  -17.5703  -25.7758   21.5394 C   0  0  0  0  0  0  0  0  0  0  0  0
  -19.7943  -26.7315   20.1659 C   0  0  0  0  0  0  0  0  0  0  0  0
  -24.5451  -25.3433   19.0944 C   0  0  0  0  0  0  0  0  0  0  0  0
  -25.9252  -12.5253   20.9598 C   0  0  0  0  0  0  0  0  0  0  0  0
  -25.7680  -13.1167   18.6225 C   0  0  0  0  0  0  0  0  0  0  0  0
  -25.0702  -25.7609   17.8723 C   0  0  0  0  0  0  0  0  0  0  0  0
  -22.6491  -11.8088   20.5372 C   0  0  0  0  0  0  0  0  0  0  0  0
  -21.6212  -11.5358   21.4395 C   0  0  0  0  0  0  0  0  0  0  0  0
  -29.9885  -23.2914   16.3922 C   0  0  0  0  0  0  0  0  0  0  0  0
  -26.2383  -27.5498   18.9924 C   0  0  0  0  0  0  0  0  0  0  0  0
  -22.6370   -9.4044   21.9517 C   0  0  0  0  0  0  0  0  0  0  0  0
  -29.6261  -24.2350   15.4565 C   0  0  0  0  0  0  0  0  0  0  0  0
  -29.8074  -25.2828   17.4273 C   0  0  0  0  0  0  0  0  0  0  0  0
  -27.0210  -14.5168   20.1413 C   0  0  0  0  0  0  0  0  0  0  0  0
  -29.2323  -15.7775   20.3108 C   0  0  0  0  0  0  0  0  0  0  0  0
  -18.5211  -26.5496   22.2234 C   0  0  0  0  0  0  0  0  0  0  0  0
  -24.8545  -26.0335   20.2752 C   0  0  0  0  0  0  0  0  0  0  0  0
  -19.6416  -27.0426   21.5277 C   0  0  0  0  0  0  0  0  0  0  0  0
  -25.7179  -27.1373   20.2286 C   0  0  0  0  0  0  0  0  0  0  0  0
  -30.1033  -23.9542   17.6390 C   0  0  0  0  0  0  0  0  0  0  0  0
  -25.4551  -12.2557   19.6745 C   0  0  0  0  0  0  0  0  0  0  0  0
  -25.9147  -26.8660   17.8207 C   0  0  0  0  0  0  0  0  0  0  0  0
  -23.6710  -10.8796   20.3420 C   0  0  0  0  0  0  0  0  0  0  0  0
  -21.6151  -10.3336   22.1469 C   0  0  0  0  0  0  0  0  0  0  0  0
  -23.6649   -9.6774   21.0493 C   0  0  0  0  0  0  0  0  0  0  0  0
  -27.8293  -15.6851   20.3819 C   0  0  0  0  0  0  0  0  0  0  0  0
  -29.5064  -17.0867   20.6228 C   0  0  0  0  0  0  0  0  0  0  0  0
  -30.2011  -14.7701   19.9911 C   0  0  0  0  0  0  0  0  0  0  0  0
  -23.1717  -27.6412   22.4402 C   0  0  0  0  0  0  0  0  0  0  0  0
  -26.0192  -27.7687   23.9888 C   0  0  0  0  0  0  0  0  0  0  0  0
  -29.4251  -27.6575   23.8040 C   0  0  0  0  0  0  0  0  0  0  0  0
  -28.4383  -22.5397   20.1038 C   0  0  0  0  0  0  0  0  0  0  0  0
  -18.2759  -26.8866   23.6729 C   0  0  0  0  0  0  0  0  0  0  0  0
  -24.3012  -25.5541   21.5892 C   0  0  0  0  0  0  0  0  0  0  0  0
  -26.0973  -27.9004   21.4704 C   0  0  0  0  0  0  0  0  0  0  0  0
  -19.5168  -27.4036   24.3963 C   0  0  0  0  0  0  0  0  0  0  0  0
  -26.5237  -20.7198   22.4910 C   0  0  0  0  0  0  0  0  0  0  0  0
  -20.2260  -28.4581   23.5527 C   0  0  0  0  0  0  0  0  0  0  0  0
  -26.8035  -19.2563   22.1452 C   0  0  0  0  0  0  0  0  0  0  0  0
  -26.4513  -21.5916   21.2393 C   0  0  0  0  0  0  0  0  0  0  0  0
  -27.9020  -20.0300   20.0021 C   0  0  0  0  0  0  0  0  0  0  0  0
  -20.7038  -27.8687   22.2201 C   0  0  1  0  0  0  0  0  0  0  0  0
  -24.2727  -26.6423   22.6581 C   0  0  1  0  0  0  0  0  0  0  0  0
  -28.0395  -19.1214   21.2357 C   0  0  2  0  0  0  0  0  0  0  0  0
  -26.2055  -28.0732   13.1694 C   0  0  0  0  0  0  0  0  0  0  0  0
  -31.4819  -27.8291   25.2314 C   0  0  0  0  0  0  0  0  0  0  0  0
  -25.6622  -30.7954   24.1351 C   0  0  0  0  0  0  0  0  0  0  0  0
  -28.0978  -30.9863   24.6822 C   0  0  0  0  0  0  0  0  0  0  0  0
  -26.5695  -29.7501   26.2180 C   0  0  0  0  0  0  0  0  0  0  0  0
  -30.2804  -24.9119   23.1048 C   0  0  0  0  0  0  0  0  0  0  0  0
  -30.4728  -23.3371   18.9273 C   0  0  0  0  0  0  0  0  0  0  0  0
  -27.4963  -28.0357   13.9763 C   0  0  0  0  0  0  0  0  0  0  0  0
  -29.1389  -26.7465   15.4381 C   0  0  0  0  0  0  0  0  0  0  0  0
  -26.6441  -26.2747   15.6357 C   0  0  0  0  0  0  0  0  0  1  0  0
  -27.1914  -28.7199   23.9945 C   0  0  1  0  0  0  0  0  0  0  0  0
  -30.4535  -26.8922   24.6171 C   0  0  2  0  0  0  0  0  0  0  0  0
  -27.7853  -26.6983   14.6970 C   0  0  1  0  0  0  0  0  0  0  0  0
  -26.8717  -30.0499   24.7336 C   0  0  0  0  0  0  0  0  0  0  0  0
  -27.2524  -16.8432   20.7133 N   0  0  0  0  0  0  0  0  0  0  0  0
  -29.5186  -25.4418   16.0971 N   0  0  0  0  0  0  0  0  0  0  0  0
  -28.2980  -17.6758   20.8532 N   0  0  0  0  0  0  0  0  0  0  0  0
  -25.5257  -27.3967   22.7302 N   0  0  0  0  0  0  0  0  0  0  0  0
  -27.6541  -21.4184   20.4212 N   0  0  0  0  0  0  0  0  0  0  0  0
  -30.6607  -17.7799   20.7198 N   0  0  0  0  0  0  0  0  0  0  0  0
  -29.7478  -13.4773   19.6952 N   0  0  0  0  0  0  0  0  0  0  0  0
  -21.9061  -27.0871   22.4153 N   0  0  0  0  0  0  0  0  0  0  0  0
  -28.3155  -27.9791   24.5567 N   0  0  0  0  0  0  0  0  0  0  0  0
  -29.5642  -22.2867   19.3299 N   0  0  0  0  0  0  0  0  0  0  0  0
  -31.1688  -25.9096   23.7547 N   0  3  0  0  0  0  0  0  0  0  0  0
  -31.4332  -15.0051   19.9846 O   0  0  0  0  0  0  0  0  0  0  0  0
  -23.4497  -28.8272   22.3061 O   0  0  0  0  0  0  0  0  0  0  0  0
  -25.5629  -27.3648   25.0613 O   0  0  0  0  0  0  0  0  0  0  0  0
  -29.5912  -27.9447   22.6206 O   0  0  0  0  0  0  0  0  0  0  0  0
  -28.1590  -23.6809   20.4867 O   0  0  0  0  0  0  0  0  0  0  0  0
  -24.6913  -11.1525   19.4463 O   0  0  0  0  0  0  0  0  0  0  0  0
  -26.4281  -27.2762   16.6291 O   0  0  0  0  0  0  0  0  0  1  0  0
  -20.6287  -10.0722   23.0145 F   0  0  0  0  0  0  0  0  0  0  0  0
  -24.6445   -8.7814   20.8669 F   0  0  0  0  0  0  0  0  0  0  0  0
  1  2  1  0  0  0  0
  1  5  2  0  0  0  0
  2  6  2  0  0  0  0
  3  8  2  0  0  0  0
  3 18  1  0  0  0  0
  4  9  1  0  0  0  0
  4 18  2  0  0  0  0
  5 20  1  0  0  0  0
  6 22  1  0  0  0  0
  7 10  2  0  0  0  0
  7 21  1  0  0  0  0
  8 25  1  0  0  0  0
  9 25  2  0  0  0  0
 10 26  1  0  0  0  0
 11 12  2  0  0  0  0
 11 27  1  0  0  0  0
 12 28  1  0  0  0  0
 13 16  2  0  0  0  0
 13 24  1  0  0  0  0
 14 23  1  0  0  0  0
 14 26  2  0  0  0  0
 15 28  2  0  0  0  0
 15 29  1  0  0  0  0
 16 64  1  0  0  0  0
 17 24  2  0  0  0  0
 17 64  1  0  0  0  0
 18 30  1  0  0  0  0
 19 30  1  0  0  0  0
 19 31  2  0  0  0  0
 19 32  1  0  0  0  0
 20 22  2  0  0  0  0
 20 37  1  0  0  0  0
 21 23  2  0  0  0  0
 21 38  1  0  0  0  0
 22 46  1  0  0  0  0
 23 39  1  0  0  0  0
 24 55  1  0  0  0  0
 25 79  1  0  0  0  0
 26 80  1  0  0  0  0
 27 29  2  0  0  0  0
 27 79  1  0  0  0  0
 28 81  1  0  0  0  0
 29 82  1  0  0  0  0
 30 63  2  0  0  0  0
 31 65  1  0  0  0  0
 31 68  1  0  0  0  0
 32 69  1  0  0  0  0
 32 74  2  0  0  0  0
 33 47  1  0  0  0  0
 33 70  1  0  0  0  0
 33 75  2  0  0  0  0
 34 59  1  0  0  0  0
 34 66  1  0  0  0  0
 34 76  2  0  0  0  0
 35 60  1  0  0  0  0
 35 71  1  0  0  0  0
 35 77  2  0  0  0  0
 36 67  1  0  0  0  0
 36 72  1  0  0  0  0
 36 78  2  0  0  0  0
 37 40  1  0  0  0  0
 38 47  1  0  0  0  0
 39 66  1  0  0  0  0
 40 42  1  0  0  0  0
 41 43  1  0  0  0  0
 41 44  1  0  0  0  0
 42 46  1  0  0  0  0
 43 48  1  0  0  0  0
 44 67  1  0  0  0  0
 45 48  1  0  0  0  0
 45 67  1  0  0  0  0
 46 70  1  0  0  0  0
 47 66  1  0  0  0  0
 48 65  1  0  0  0  0
 49 56  1  0  0  0  0
 50 60  1  0  0  0  0
 51 62  1  0  0  0  0
 52 62  1  0  0  0  0
 53 62  1  0  0  0  0
 54 73  1  0  0  0  0
 55 72  1  0  0  0  0
 56 61  1  0  0  0  0
 57 61  1  0  0  0  0
 57 64  1  0  0  0  0
 58 61  1  0  0  0  0
 58 80  1  0  0  0  0
 59 62  1  0  0  0  0
 59 71  1  0  0  0  0
 60 73  1  0  0  0  0
 63 65  1  0  0  0  0
M  CHG  1  73   1
M  ISO  4  36 100  58 101  72 100  80 101
M  END
> <Batch ID>
0098

> <Smiles>
CCC(Cn1ccc(C[100NH:0][100C:0](=O)N2CCCC(n3nc(-c4ccc(Oc5ccc(F)cc5F)cc4)c(C(N)=O)c3N)C2)c1)[101CH2:1][101O:1]c1ccc2c(c1)CN(C(=O)C(NC(=O)C(C)NC)C(C)(C)C)C(C(=O)NC1CCCc3ccccc31)C2

> <Shape>
0.259

> <Color>
0.059

> <Negative vol penalty>
0.000

$$$$

  -OEChem-04052319293D

 77 84  0     1  0  0  0  0  0999 V2000
  -21.1011  -19.7032   27.0821 C   0  0  0  0  0  0  0  0  0  0  0  0
  -22.4183  -20.0158   26.7616 C   0  0  0  0  0  0  0  0  0  0  0  0
  -25.8896  -13.9623   21.2861 C   0  0  0  0  0  0  0  0  0  0  0  0
  -25.9663  -14.2337   18.8866 C   0  0  0  0  0  0  0  0  0  0  0  0
  -20.0616  -20.1526   26.2688 C   0  0  0  0  0  0  0  0  0  0  0  0
  -22.6968  -20.7771   25.6271 C   0  0  0  0  0  0  0  0  0  0  0  0
  -27.3323  -25.6597   23.1797 C   0  0  0  0  0  0  0  0  0  0  0  0
  -24.8229  -13.0736   21.1515 C   0  0  0  0  0  0  0  0  0  0  0  0
  -24.8997  -13.3450   18.7520 C   0  0  0  0  0  0  0  0  0  0  0  0
  -28.1769  -25.8947   22.0956 C   0  0  0  0  0  0  0  0  0  0  0  0
  -24.3752   -9.8272   20.3189 C   0  0  0  0  0  0  0  0  0  0  0  0
  -24.4148   -8.6492   21.0647 C   0  0  0  0  0  0  0  0  0  0  0  0
  -26.2953  -26.6833   20.8084 C   0  0  0  0  0  0  0  0  0  0  0  0
  -22.3550   -9.2745   22.1617 C   0  0  0  0  0  0  0  0  0  0  0  0
  -26.4613  -14.5423   20.1537 C   0  0  0  0  0  0  0  0  0  0  0  0
  -28.9351  -15.1473   20.3004 C   0  0  0  0  0  0  0  0  0  0  0  0
  -20.3268  -20.9279   25.1291 C   0  0  0  0  0  0  0  0  0  0  0  0
  -25.9587  -25.9250   23.0825 C   0  0  0  0  0  0  0  0  0  0  0  0
  -21.6599  -21.2362   24.7971 C   0  0  0  0  0  0  0  0  0  0  0  0
  -25.4358  -26.4532   21.8935 C   0  0  0  0  0  0  0  0  0  0  0  0
  -24.3279  -12.7650   19.8845 C   0  0  0  0  0  0  0  0  0  0  0  0
  -27.6580  -26.4039   20.9088 C   0  0  0  0  0  0  0  0  0  0  0  0
  -23.3256  -10.7289   20.4945 C   0  0  0  0  0  0  0  0  0  0  0  0
  -23.4048   -8.3728   21.9861 C   0  0  0  0  0  0  0  0  0  0  0  0
  -22.3155  -10.4526   21.4159 C   0  0  0  0  0  0  0  0  0  0  0  0
  -27.5628  -15.4608   20.2921 C   0  0  0  0  0  0  0  0  0  0  0  0
  -29.5632  -16.3588   20.4566 C   0  0  0  0  0  0  0  0  0  0  0  0
  -29.5842  -13.8748   20.1777 C   0  0  0  0  0  0  0  0  0  0  0  0
  -23.3158  -24.1700   23.2793 C   0  0  0  0  0  0  0  0  0  0  0  0
  -21.8508  -27.0574   23.0812 C   0  0  0  0  0  0  0  0  0  0  0  0
  -21.9985  -30.3191   22.0881 C   0  0  0  0  0  0  0  0  0  0  0  0
  -27.9089  -21.8544   19.0720 C   0  0  0  0  0  0  0  0  0  0  0  0
  -19.1733  -21.3510   24.2544 C   0  0  0  0  0  0  0  0  0  0  0  0
  -25.0654  -25.6911   24.2698 C   0  0  0  0  0  0  0  0  0  0  0  0
  -23.9718  -26.7740   21.7447 C   0  0  0  0  0  0  0  0  0  0  0  0
  -19.5280  -22.4687   23.2770 C   0  0  0  0  0  0  0  0  0  0  0  0
  -28.9023  -20.7021   22.3557 C   0  0  0  0  0  0  0  0  0  0  0  0
  -20.8500  -22.1673   22.5783 C   0  0  0  0  0  0  0  0  0  0  0  0
  -28.7986  -19.1848   22.1899 C   0  0  0  0  0  0  0  0  0  0  0  0
  -27.7873  -21.4183   21.5994 C   0  0  0  0  0  0  0  0  0  0  0  0
  -27.6096  -19.5682   19.9810 C   0  0  0  0  0  0  0  0  0  0  0  0
  -22.0006  -22.0806   23.5884 C   0  0  1  0  0  0  0  0  0  0  0  0
  -23.5989  -25.5141   23.8885 C   0  0  1  0  0  0  0  0  0  0  0  0
  -28.7224  -18.7875   20.7038 C   0  0  2  0  0  0  0  0  0  0  0  0
  -20.6326  -32.4234   22.0268 C   0  0  0  0  0  0  0  0  0  0  0  0
  -30.8685  -26.6709   19.8816 C   0  0  0  0  0  0  0  0  0  0  0  0
  -20.2330  -25.9365   20.7496 C   0  0  0  0  0  0  0  0  0  0  0  0
  -19.6147  -28.2849   20.1404 C   0  0  0  0  0  0  0  0  0  0  0  0
  -18.9227  -27.3469   22.3459 C   0  0  0  0  0  0  0  0  0  0  0  0
  -30.7285  -24.0160   18.2632 C   0  0  0  0  0  0  0  0  0  0  0  0
  -29.5679  -25.9407   17.1668 C   0  0  0  0  0  0  0  0  0  0  0  0
  -23.9476  -31.7712   23.7766 C   0  0  0  0  0  0  0  0  0  0  0  0
  -28.2096  -24.1967   18.3105 C   0  0  0  0  0  0  0  0  0  0  0  0
  -21.3517  -27.9278   21.9533 C   0  0  1  0  0  0  0  0  0  0  0  0
  -21.6504  -31.6085   22.8097 C   0  0  2  0  0  0  0  0  0  0  0  0
  -29.6273  -25.7944   19.7230 C   0  0  2  0  0  0  0  0  0  1  0  0
  -20.0578  -27.3663   21.2991 C   0  0  0  0  0  0  0  0  0  0  0  0
  -29.5417  -24.9931   18.3861 C   0  0  0  0  0  0  0  0  0  0  0  0
  -27.3318  -16.7689   20.4322 N   0  0  0  0  0  0  0  0  0  0  0  0
  -28.5676  -17.2880   20.5300 N   0  0  0  0  0  0  0  0  0  0  0  0
  -23.1380  -26.5221   22.9316 N   0  0  0  0  0  0  0  0  0  0  0  0
  -27.7812  -21.0101   20.1875 N   0  0  0  0  0  0  0  0  0  0  0  0
  -30.8644  -16.7091   20.5372 N   0  0  0  0  0  0  0  0  0  0  0  0
  -28.7888  -12.7311   20.0236 N   0  0  0  0  0  0  0  0  0  0  0  0
  -22.4156  -23.4055   23.9967 N   0  0  0  0  0  0  0  0  0  0  0  0
  -21.2075  -29.2700   22.5066 N   0  0  0  0  0  0  0  0  0  0  0  0
  -28.0606  -23.2065   19.3537 N   0  0  0  0  0  0  0  0  0  0  0  0
  -22.8716  -32.4408   23.0014 N   0  3  0  0  0  0  0  0  0  0  0  0
  -30.8320  -13.7536   20.2203 O   0  0  0  0  0  0  0  0  0  0  0  0
  -23.8717  -23.8508   22.2349 O   0  0  0  0  0  0  0  0  0  0  0  0
  -21.1279  -26.8653   24.0622 O   0  0  0  0  0  0  0  0  0  0  0  0
  -22.8811  -30.2502   21.2356 O   0  0  0  0  0  0  0  0  0  0  0  0
  -27.8942  -21.4335   17.9102 O   0  0  0  0  0  0  0  0  0  0  0  0
  -23.2873  -11.8977   19.7527 O   0  0  0  0  0  0  0  0  0  0  0  0
  -28.4800  -26.6335   19.8489 O   0  0  0  0  0  0  0  0  0  1  0  0
  -23.4421   -7.2408   22.7012 F   0  0  0  0  0  0  0  0  0  0  0  0
  -21.3039  -11.3144   21.5881 F   0  0  0  0  0  0  0  0  0  0  0  0
  1  2  1  0  0  0  0
  1  5  2  0  0  0  0
  2  6  2  0  0  0  0
  3  8  2  0  0  0  0
  3 15  1  0  0  0  0
  4  9  1  0  0  0  0
  4 15  2  0  0  0  0
  5 17  1  0  0  0  0
  6 19  1  0  0  0  0
  7 10  2  0  0  0  0
  7 18  1  0  0  0  0
  8 21  1  0  0  0  0
  9 21  2  0  0  0  0
 10 22  1  0  0  0  0
 11 12  2  0  0  0  0
 11 23  1  0  0  0  0
 12 24  1  0  0  0  0
 13 20  1  0  0  0  0
 13 22  2  0  0  0  0
 14 24  2  0  0  0  0
 14 25  1  0  0  0  0
 15 26  1  0  0  0  0
 16 26  1  0  0  0  0
 16 27  2  0  0  0  0
 16 28  1  0  0  0  0
 17 19  2  0  0  0  0
 17 33  1  0  0  0  0
 18 20  2  0  0  0  0
 18 34  1  0  0  0  0
 19 42  1  0  0  0  0
 20 35  1  0  0  0  0
 21 74  1  0  0  0  0
 22 75  1  0  0  0  0
 23 25  2  0  0  0  0
 23 74  1  0  0  0  0
 24 76  1  0  0  0  0
 25 77  1  0  0  0  0
 26 59  2  0  0  0  0
 27 60  1  0  0  0  0
 27 63  1  0  0  0  0
 28 64  1  0  0  0  0
 28 69  2  0  0  0  0
 29 43  1  0  0  0  0
 29 65  1  0  0  0  0
 29 70  2  0  0  0  0
 30 54  1  0  0  0  0
 30 61  1  0  0  0  0
 30 71  2  0  0  0  0
 31 55  1  0  0  0  0
 31 66  1  0  0  0  0
 31 72  2  0  0  0  0
 32 62  1  0  0  0  0
 32 67  1  0  0  0  0
 32 73  2  0  0  0  0
 33 36  1  0  0  0  0
 34 43  1  0  0  0  0
 35 61  1  0  0  0  0
 36 38  1  0  0  0  0
 37 39  1  0  0  0  0
 37 40  1  0  0  0  0
 38 42  1  0  0  0  0
 39 44  1  0  0  0  0
 40 62  1  0  0  0  0
 41 44  1  0  0  0  0
 41 62  1  0  0  0  0
 42 65  1  0  0  0  0
 43 61  1  0  0  0  0
 44 60  1  0  0  0  0
 45 55  1  0  0  0  0
 46 56  1  0  0  0  0
 47 57  1  0  0  0  0
 48 57  1  0  0  0  0
 49 57  1  0  0  0  0
 50 58  1  0  0  0  0
 51 58  1  0  0  0  0
 52 68  1  0  0  0  0
 53 58  1  0  0  0  0
 53 67  1  0  0  0  0
 54 57  1  0  0  0  0
 54 66  1  0  0  0  0
 55 68  1  0  0  0  0
 56 58  1  0  0  0  0
 56 75  1  0  0  0  0
 59 60  1  0  0  0  0
M  CHG  1  68   1
M  ISO  4  32 100  56 101  67 100  75 101
M  END
> <Batch ID>
0098

> <Smiles>
CNC(C)C(=O)NC(C(=O)N1Cc2cc([101O:1][101CH:1](C)C(C)(C)C[100NH:0][100C:0](=O)N3CCCC(n4nc(-c5ccc(Oc6ccc(F)cc6F)cc5)c(C(N)=O)c4N)C3)ccc2CC1C(=O)NC1CCCc2ccccc21)C(C)(C)C

> <Shape>
0.250

> <Color>
0.067

> <Negative vol penalty>
0.000

$$$$

  -OEChem-04052319293D

 74 81  0     1  0  0  0  0  0999 V2000
  -28.2370  -24.4861   17.1417 C   0  0  0  0  0  0  0  0  0  0  0  0
  -27.0905  -25.1970   17.4776 C   0  0  0  0  0  0  0  0  0  0  0  0
  -23.9976  -17.2212   19.7044 C   0  0  0  0  0  0  0  0  0  0  0  0
  -21.6114  -17.5982   19.7372 C   0  0  0  0  0  0  0  0  0  0  0  0
  -29.3729  -24.5840   17.9426 C   0  0  0  0  0  0  0  0  0  0  0  0
  -27.0832  -26.0153   18.6078 C   0  0  0  0  0  0  0  0  0  0  0  0
  -23.1087  -28.8301   19.3032 C   0  0  0  0  0  0  0  0  0  0  0  0
  -23.7896  -15.8777   20.0166 C   0  0  0  0  0  0  0  0  0  0  0  0
  -21.4034  -16.2547   20.0494 C   0  0  0  0  0  0  0  0  0  0  0  0
  -21.8764  -28.3102   19.6969 C   0  0  0  0  0  0  0  0  0  0  0  0
  -23.8696  -12.2693   20.4498 C   0  0  0  0  0  0  0  0  0  0  0  0
  -24.5945  -11.3172   19.7332 C   0  0  0  0  0  0  0  0  0  0  0  0
  -22.2606  -29.1131   21.9389 C   0  0  0  0  0  0  0  0  0  0  0  0
  -23.5960  -12.1033   17.6784 C   0  0  0  0  0  0  0  0  0  0  0  0
  -22.9085  -18.0814   19.5647 C   0  0  0  0  0  0  0  0  0  0  0  0
  -23.1955  -20.0430   17.9592 C   0  0  0  0  0  0  0  0  0  0  0  0
  -29.3747  -25.3944   19.0898 C   0  0  0  0  0  0  0  0  0  0  0  0
  -23.9324  -29.4870   20.2287 C   0  0  0  0  0  0  0  0  0  0  0  0
  -28.2273  -26.1461   19.4155 C   0  0  0  0  0  0  0  0  0  0  0  0
  -23.5017  -29.6426   21.5540 C   0  0  0  0  0  0  0  0  0  0  0  0
  -22.4925  -15.3945   20.1891 C   0  0  0  0  0  0  0  0  0  0  0  0
  -21.4534  -28.4491   21.0155 C   0  0  0  0  0  0  0  0  0  0  0  0
  -23.0077  -13.1384   19.7807 C   0  0  0  0  0  0  0  0  0  0  0  0
  -24.4578  -11.2342   18.3475 C   0  0  0  0  0  0  0  0  0  0  0  0
  -22.8709  -13.0554   18.3951 C   0  0  0  0  0  0  0  0  0  0  0  0
  -23.1227  -19.4695   19.2428 C   0  0  0  0  0  0  0  0  0  0  0  0
  -23.4090  -21.3796   18.1920 C   0  0  0  0  0  0  0  0  0  0  0  0
  -23.0803  -19.4229   16.6716 C   0  0  0  0  0  0  0  0  0  0  0  0
  -26.8422  -28.9749   21.4010 C   0  0  0  0  0  0  0  0  0  0  0  0
  -26.3567  -31.8553   22.8116 C   0  0  0  0  0  0  0  0  0  0  0  0
  -24.1398  -34.1868   23.9501 C   0  0  0  0  0  0  0  0  0  0  0  0
  -22.1653  -24.9610   22.8264 C   0  0  0  0  0  0  0  0  0  0  0  0
  -30.6340  -25.4698   19.9166 C   0  0  0  0  0  0  0  0  0  0  0  0
  -25.2470  -30.0656   19.7819 C   0  0  0  0  0  0  0  0  0  0  0  0
  -24.3398  -30.3572   22.5814 C   0  0  0  0  0  0  0  0  0  0  0  0
  -30.3902  -26.0052   21.3238 C   0  0  0  0  0  0  0  0  0  0  0  0
  -25.3644  -24.3589   21.3844 C   0  0  0  0  0  0  0  0  0  0  0  0
  -29.5719  -27.2861   21.2580 C   0  0  0  0  0  0  0  0  0  0  0  0
  -25.1592  -23.0892   20.5562 C   0  0  0  0  0  0  0  0  0  0  0  0
  -24.5549  -24.3253   22.6788 C   0  0  0  0  0  0  0  0  0  0  0  0
  -22.9098  -22.7899   21.6739 C   0  0  0  0  0  0  0  0  0  0  0  0
  -28.1862  -27.0186   20.6570 C   0  0  1  0  0  0  0  0  0  0  0  0
  -26.2328  -30.2646   20.9290 C   0  0  1  0  0  0  0  0  0  0  0  0
  -23.6624  -22.8016   20.3323 C   0  0  2  0  0  0  0  0  0  0  0  0
  -24.0417  -36.4211   25.0884 C   0  0  0  0  0  0  0  0  0  0  0  0
  -27.0386  -30.5268   25.4724 C   0  0  0  0  0  0  0  0  0  0  0  0
  -26.0199  -32.4953   26.6367 C   0  0  0  0  0  0  0  0  0  0  0  0
  -28.0109  -32.8106   25.1672 C   0  0  0  0  0  0  0  0  0  0  0  0
  -22.7535  -35.4283   21.6488 C   0  0  0  0  0  0  0  0  0  0  0  0
  -18.9463  -25.9462   21.6711 C   0  0  0  0  0  0  0  0  0  0  0  0
  -19.7364  -25.4678   22.8817 C   0  0  0  0  0  0  0  0  0  0  0  0
  -19.7817  -26.7851   20.7116 C   0  0  0  0  0  0  0  0  0  1  0  0
  -25.7630  -32.3184   24.1200 C   0  0  1  0  0  0  0  0  0  0  0  0
  -24.0705  -35.6906   23.7549 C   0  0  2  0  0  0  0  0  0  0  0  0
  -26.6930  -32.0226   25.3304 C   0  0  0  0  0  0  0  0  0  0  0  0
  -23.2776  -20.3682   20.2186 N   0  0  0  0  0  0  0  0  0  0  0  0
  -23.4499  -21.5200   19.5480 N   0  0  0  0  0  0  0  0  0  0  0  0
  -25.6199  -30.9000   22.0973 N   0  0  0  0  0  0  0  0  0  0  0  0
  -23.1441  -24.0498   22.3967 N   0  0  0  0  0  0  0  0  0  0  0  0
  -23.5640  -22.4369   17.3670 N   0  0  0  0  0  0  0  0  0  0  0  0
  -22.8617  -18.0397   16.6133 N   0  0  0  0  0  0  0  0  0  0  0  0
  -27.5233  -28.2817   20.4185 N   0  0  0  0  0  0  0  0  0  0  0  0
  -25.4410  -33.7306   23.9450 N   0  0  0  0  0  0  0  0  0  0  0  0
  -20.8535  -24.6272   22.5125 N   0  0  0  0  0  0  0  0  0  0  0  0
  -22.8445  -36.0579   22.9913 N   0  3  0  0  0  0  0  0  0  0  0  0
  -23.1849  -20.0734   15.6042 O   0  0  0  0  0  0  0  0  0  0  0  0
  -26.7060  -28.6345   22.5703 O   0  0  0  0  0  0  0  0  0  0  0  0
  -27.4311  -32.3292   22.4336 O   0  0  0  0  0  0  0  0  0  0  0  0
  -23.1399  -33.4873   24.0965 O   0  0  0  0  0  0  0  0  0  0  0  0
  -22.4405  -25.9981   23.4394 O   0  0  0  0  0  0  0  0  0  0  0  0
  -22.2892  -14.0836   20.4935 O   0  0  0  0  0  0  0  0  0  0  0  0
  -20.2514  -27.9420   21.4025 O   0  0  0  0  0  0  0  0  0  1  0  0
  -25.1552  -10.3209   17.6593 F   0  0  0  0  0  0  0  0  0  0  0  0
  -22.0454  -13.8884   17.7467 F   0  0  0  0  0  0  0  0  0  0  0  0
  1  2  1  0  0  0  0
  1  5  2  0  0  0  0
  2  6  2  0  0  0  0
  3  8  2  0  0  0  0
  3 15  1  0  0  0  0
  4  9  1  0  0  0  0
  4 15  2  0  0  0  0
  5 17  1  0  0  0  0
  6 19  1  0  0  0  0
  7 10  2  0  0  0  0
  7 18  1  0  0  0  0
  8 21  1  0  0  0  0
  9 21  2  0  0  0  0
 10 22  1  0  0  0  0
 11 12  2  0  0  0  0
 11 23  1  0  0  0  0
 12 24  1  0  0  0  0
 13 20  1  0  0  0  0
 13 22  2  0  0  0  0
 14 24  2  0  0  0  0
 14 25  1  0  0  0  0
 15 26  1  0  0  0  0
 16 26  1  0  0  0  0
 16 27  2  0  0  0  0
 16 28  1  0  0  0  0
 17 19  2  0  0  0  0
 17 33  1  0  0  0  0
 18 20  2  0  0  0  0
 18 34  1  0  0  0  0
 19 42  1  0  0  0  0
 20 35  1  0  0  0  0
 21 71  1  0  0  0  0
 22 72  1  0  0  0  0
 23 25  2  0  0  0  0
 23 71  1  0  0  0  0
 24 73  1  0  0  0  0
 25 74  1  0  0  0  0
 26 56  2  0  0  0  0
 27 57  1  0  0  0  0
 27 60  1  0  0  0  0
 28 61  1  0  0  0  0
 28 66  2  0  0  0  0
 29 43  1  0  0  0  0
 29 62  1  0  0  0  0
 29 67  2  0  0  0  0
 30 53  1  0  0  0  0
 30 58  1  0  0  0  0
 30 68  2  0  0  0  0
 31 54  1  0  0  0  0
 31 63  1  0  0  0  0
 31 69  2  0  0  0  0
 32 59  1  0  0  0  0
 32 64  1  0  0  0  0
 32 70  2  0  0  0  0
 33 36  1  0  0  0  0
 34 43  1  0  0  0  0
 35 58  1  0  0  0  0
 36 38  1  0  0  0  0
 37 39  1  0  0  0  0
 37 40  1  0  0  0  0
 38 42  1  0  0  0  0
 39 44  1  0  0  0  0
 40 59  1  0  0  0  0
 41 44  1  0  0  0  0
 41 59  1  0  0  0  0
 42 62  1  0  0  0  0
 43 58  1  0  0  0  0
 44 57  1  0  0  0  0
 45 54  1  0  0  0  0
 46 55  1  0  0  0  0
 47 55  1  0  0  0  0
 48 55  1  0  0  0  0
 49 65  1  0  0  0  0
 50 51  1  0  0  0  0
 50 52  1  0  0  0  0
 51 64  1  0  0  0  0
 52 72  1  0  0  0  0
 53 55  1  0  0  0  0
 53 63  1  0  0  0  0
 54 65  1  0  0  0  0
 56 57  1  0  0  0  0
M  CHG  1  65   1
M  ISO  4  32 100  52 101  64 100  72 101
M  END
> <Batch ID>
0098

> <Smiles>
CNC(C)C(=O)NC(C(=O)N1Cc2cc([101O:1][101CH2:1]CC[100NH:0][100C:0](=O)N3CCCC(n4nc(-c5ccc(Oc6ccc(F)cc6F)cc5)c(C(N)=O)c4N)C3)ccc2CC1C(=O)NC1CCCc2ccccc21)C(C)(C)C

> <Shape>
0.222

> <Color>
0.068

> <Negative vol penalty>
0.000

$$$$

  -OEChem-04052319293D

 87 95  0     1  0  0  0  0  0999 V2000
  -29.5489  -33.4434   25.6700 C   0  0  0  0  0  0  0  0  0  0  0  0
  -30.1070  -32.4455   24.8774 C   0  0  0  0  0  0  0  0  0  0  0  0
  -23.9455  -10.0797   22.5495 C   0  0  0  0  0  0  0  0  0  0  0  0
  -24.4034  -11.7615   24.2225 C   0  0  0  0  0  0  0  0  0  0  0  0
  -28.2296  -33.3292   26.1063 C   0  0  0  0  0  0  0  0  0  0  0  0
  -29.3464  -31.3323   24.5215 C   0  0  0  0  0  0  0  0  0  0  0  0
  -28.4618  -26.6551   19.1682 C   0  0  0  0  0  0  0  0  0  0  0  0
  -23.4658   -9.2239   23.5410 C   0  0  0  0  0  0  0  0  0  0  0  0
  -23.9236  -10.9057   25.2140 C   0  0  0  0  0  0  0  0  0  0  0  0
  -28.4205  -25.2814   18.9340 C   0  0  0  0  0  0  0  0  0  0  0  0
  -22.4845   -9.3000   28.1413 C   0  0  0  0  0  0  0  0  0  0  0  0
  -21.6247   -9.8352   29.1005 C   0  0  0  0  0  0  0  0  0  0  0  0
  -26.1270  -25.2293   19.6800 C   0  0  0  0  0  0  0  0  0  0  0  0
  -28.1485  -18.9029   22.8527 C   0  0  0  0  0  0  0  0  0  0  0  0
  -20.0604  -10.4393   27.3612 C   0  0  0  0  0  0  0  0  0  0  0  0
  -24.4144  -11.3485   22.8902 C   0  0  0  0  0  0  0  0  0  0  0  0
  -24.1715  -13.1729   21.1238 C   0  0  0  0  0  0  0  0  0  0  0  0
  -27.4494  -32.2187   25.7476 C   0  0  0  0  0  0  0  0  0  0  0  0
  -27.3376  -27.3256   19.6712 C   0  0  0  0  0  0  0  0  0  0  0  0
  -28.0159  -31.2025   24.9545 C   0  0  0  0  0  0  0  0  0  0  0  0
  -26.1559  -26.6121   19.9173 C   0  0  0  0  0  0  0  0  0  0  0  0
  -27.8121  -18.5335   21.5270 C   0  0  0  0  0  0  0  0  0  0  0  0
  -23.4548   -9.6369   24.8732 C   0  0  0  0  0  0  0  0  0  0  0  0
  -27.2539  -24.5677   19.1926 C   0  0  0  0  0  0  0  0  0  0  0  0
  -22.1322   -9.3346   26.7920 C   0  0  0  0  0  0  0  0  0  0  0  0
  -20.4127  -10.4047   28.7105 C   0  0  0  0  0  0  0  0  0  0  0  0
  -20.9202   -9.9042   26.4020 C   0  0  0  0  0  0  0  0  0  0  0  0
  -24.9106  -12.2327   21.8665 C   0  0  0  0  0  0  0  0  0  0  0  0
  -29.4782  -18.5963   23.0403 C   0  0  0  0  0  0  0  0  0  0  0  0
  -28.9465  -18.0123   20.9449 C   0  0  0  0  0  0  0  0  0  0  0  0
  -25.0948  -13.7533   20.2889 C   0  0  0  0  0  0  0  0  0  0  0  0
  -22.7752  -13.4931   21.1835 C   0  0  0  0  0  0  0  0  0  0  0  0
  -26.7055  -28.9745   22.3141 C   0  0  0  0  0  0  0  0  0  0  0  0
  -23.8955  -29.5667   20.8057 C   0  0  0  0  0  0  0  0  0  0  0  0
  -21.6005  -28.6012   18.4716 C   0  0  0  0  0  0  0  0  0  0  0  0
  -31.0314  -14.4530   20.6327 C   0  0  0  0  0  0  0  0  0  0  0  0
  -26.0429  -32.1164   26.2824 C   0  0  0  0  0  0  0  0  0  0  0  0
  -27.3900  -28.8123   19.8932 C   0  0  0  0  0  0  0  0  0  0  0  0
  -24.9151  -27.2883   20.4385 C   0  0  0  0  0  0  0  0  0  0  0  0
  -25.1864  -31.0865   25.5504 C   0  0  0  0  0  0  0  0  0  0  0  0
  -29.2142  -12.8253   18.0394 C   0  0  0  0  0  0  0  0  0  0  0  0
  -25.9550  -29.7807   25.3750 C   0  0  0  0  0  0  0  0  0  0  0  0
  -27.8385  -12.5737   18.6592 C   0  0  0  0  0  0  0  0  0  0  0  0
  -30.3334  -12.6656   19.0660 C   0  0  0  0  0  0  0  0  0  0  0  0
  -28.7951  -13.2206   20.9098 C   0  0  0  0  0  0  0  0  0  0  0  0
  -27.2150  -29.9918   24.5269 C   0  0  1  0  0  0  0  0  0  0  0  0
  -26.3476  -29.3043   20.8926 C   0  0  1  0  0  0  0  0  0  0  0  0
  -27.6301  -13.4248   19.9262 C   0  0  2  0  0  0  0  0  0  0  0  0
  -29.1584  -17.4768   19.5831 C   0  0  0  0  0  0  0  0  0  0  0  0
  -25.4078  -17.8258   21.5994 C   0  0  0  0  0  0  0  0  0  0  0  0
  -29.8450  -17.9567   25.4508 C   0  0  0  0  0  0  0  0  0  0  0  0
  -30.4893  -20.2568   24.6448 C   0  0  0  0  0  0  0  0  0  0  0  0
  -19.3881  -29.2662   17.4916 C   0  0  0  0  0  0  0  0  0  0  0  0
  -22.4806  -28.5301   23.3024 C   0  0  0  0  0  0  0  0  0  0  0  0
  -20.3872  -28.3222   21.9449 C   0  0  0  0  0  0  0  0  0  0  0  0
  -21.4377  -30.5599   22.2792 C   0  0  0  0  0  0  0  0  0  0  0  0
  -22.7612  -28.9130   15.7671 C   0  0  0  0  0  0  0  0  0  0  0  0
  -26.8784  -21.0343   19.9278 C   0  0  0  0  0  0  0  0  0  0  0  0
  -25.9727  -20.1550   20.8022 C   0  0  0  0  0  0  0  0  0  0  0  0
  -31.3099  -17.5992   21.6577 C   0  0  0  0  0  0  0  0  0  0  0  0
  -31.5846  -16.2301   22.2743 C   0  0  0  0  0  0  0  0  0  0  0  0
  -26.3423  -22.4551   19.7940 C   0  0  0  0  0  0  0  0  0  1  0  0
  -26.4489  -18.6880   20.8750 C   0  0  1  0  0  0  0  0  0  0  0  0
  -30.3316  -18.7752   24.2330 C   0  0  0  0  0  0  0  0  0  0  0  0
  -22.5497  -28.8852   20.7460 C   0  0  1  0  0  0  0  0  0  0  0  0
  -20.9001  -29.3733   17.3681 C   0  0  2  0  0  0  0  0  0  0  0  0
  -21.7376  -29.0609   22.0602 C   0  0  0  0  0  0  0  0  0  0  0  0
  -26.2037  -12.2135   21.5326 N   0  0  0  0  0  0  0  0  0  0  0  0
  -29.9529  -18.0552   21.8741 N   0  0  0  0  0  0  0  0  0  0  0  0
  -26.2844  -13.1488   20.5709 N   0  0  0  0  0  0  0  0  0  0  0  0
  -25.0182  -28.7423   20.6455 N   0  0  0  0  0  0  0  0  0  0  0  0
  -30.0761  -13.5001   20.2421 N   0  0  0  0  0  0  0  0  0  0  0  0
  -24.9970  -14.7167   19.3483 N   0  0  0  0  0  0  0  0  0  0  0  0
  -21.9696  -12.8014   22.0983 N   0  0  0  0  0  0  0  0  0  0  0  0
  -26.8708  -30.0818   23.1241 N   0  0  0  0  0  0  0  0  0  0  0  0
  -21.8820  -29.4036   19.5570 N   0  0  0  0  0  0  0  0  0  0  0  0
  -30.7061  -15.2062   21.7541 N   0  0  0  0  0  0  0  0  0  0  0  0
  -21.3010  -28.8469   16.0328 N   0  3  0  0  0  0  0  0  0  0  0  0
  -22.2542  -14.3552   20.4359 O   0  0  0  0  0  0  0  0  0  0  0  0
  -26.8215  -27.8022   22.6516 O   0  0  0  0  0  0  0  0  0  0  0  0
  -23.9483  -30.7866   20.9806 O   0  0  0  0  0  0  0  0  0  0  0  0
  -21.8676  -27.4049   18.3815 O   0  0  0  0  0  0  0  0  0  0  0  0
  -32.0930  -14.6236   20.0238 O   0  0  0  0  0  0  0  0  0  0  0  0
  -22.9865   -8.8022   25.8410 O   0  0  0  0  0  0  0  0  0  0  0  0
  -27.2110  -23.2267   18.9656 O   0  0  0  0  0  0  0  0  0  1  0  0
  -19.5864  -10.9172   29.6318 F   0  0  0  0  0  0  0  0  0  0  0  0
  -20.5758   -9.9393   25.1074 F   0  0  0  0  0  0  0  0  0  0  0  0
  1  2  1  0  0  0  0
  1  5  2  0  0  0  0
  2  6  2  0  0  0  0
  3  8  2  0  0  0  0
  3 16  1  0  0  0  0
  4  9  1  0  0  0  0
  4 16  2  0  0  0  0
  5 18  1  0  0  0  0
  6 20  1  0  0  0  0
  7 10  2  0  0  0  0
  7 19  1  0  0  0  0
  8 23  1  0  0  0  0
  9 23  2  0  0  0  0
 10 24  1  0  0  0  0
 11 12  2  0  0  0  0
 11 25  1  0  0  0  0
 12 26  1  0  0  0  0
 13 21  1  0  0  0  0
 13 24  2  0  0  0  0
 14 22  1  0  0  0  0
 14 29  2  0  0  0  0
 15 26  2  0  0  0  0
 15 27  1  0  0  0  0
 16 28  1  0  0  0  0
 17 28  1  0  0  0  0
 17 31  2  0  0  0  0
 17 32  1  0  0  0  0
 18 20  2  0  0  0  0
 18 37  1  0  0  0  0
 19 21  2  0  0  0  0
 19 38  1  0  0  0  0
 20 46  1  0  0  0  0
 21 39  1  0  0  0  0
 22 30  2  0  0  0  0
 22 63  1  0  0  0  0
 23 84  1  0  0  0  0
 24 85  1  0  0  0  0
 25 27  2  0  0  0  0
 25 84  1  0  0  0  0
 26 86  1  0  0  0  0
 27 87  1  0  0  0  0
 28 68  2  0  0  0  0
 29 64  1  0  0  0  0
 29 69  1  0  0  0  0
 30 49  1  0  0  0  0
 30 69  1  0  0  0  0
 31 70  1  0  0  0  0
 31 73  1  0  0  0  0
 32 74  1  0  0  0  0
 32 79  2  0  0  0  0
 33 47  1  0  0  0  0
 33 75  1  0  0  0  0
 33 80  2  0  0  0  0
 34 65  1  0  0  0  0
 34 71  1  0  0  0  0
 34 81  2  0  0  0  0
 35 66  1  0  0  0  0
 35 76  1  0  0  0  0
 35 82  2  0  0  0  0
 36 72  1  0  0  0  0
 36 77  1  0  0  0  0
 36 83  2  0  0  0  0
 37 40  1  0  0  0  0
 38 47  1  0  0  0  0
 39 71  1  0  0  0  0
 40 42  1  0  0  0  0
 41 43  1  0  0  0  0
 41 44  1  0  0  0  0
 42 46  1  0  0  0  0
 43 48  1  0  0  0  0
 44 72  1  0  0  0  0
 45 48  1  0  0  0  0
 45 72  1  0  0  0  0
 46 75  1  0  0  0  0
 47 71  1  0  0  0  0
 48 70  1  0  0  0  0
 50 63  1  0  0  0  0
 51 64  1  0  0  0  0
 52 64  1  0  0  0  0
 53 66  1  0  0  0  0
 54 67  1  0  0  0  0
 55 67  1  0  0  0  0
 56 67  1  0  0  0  0
 57 78  1  0  0  0  0
 58 59  1  0  0  0  0
 58 62  1  0  0  0  0
 59 63  1  0  0  0  0
 60 61  1  0  0  0  0
 60 69  1  0  0  0  0
 61 77  1  0  0  0  0
 62 85  1  0  0  0  0
 65 67  1  0  0  0  0
 65 76  1  0  0  0  0
 66 78  1  0  0  0  0
 68 70  1  0  0  0  0
M  CHG  1  78   1
M  ISO  4  36 100  62 101  77 100  85 101
M  END
> <Batch ID>
0098

> <Smiles>
CNC(C)C(=O)NC(C(=O)N1Cc2cc([101O:1][101CH2:1]CCC(C)c3cc(C(C)C)n(CC[100NH:0][100C:0](=O)N4CCCC(n5nc(-c6ccc(Oc7ccc(F)cc7F)cc6)c(C(N)=O)c5N)C4)c3C)ccc2CC1C(=O)NC1CCCc2ccccc21)C(C)(C)C

> <Shape>
0.295

> <Color>
0.123

> <Negative vol penalty>
0.000

$$$$

  -OEChem-04052319293D

 83 91  0     1  0  0  0  0  0999 V2000
  -16.8322  -28.7175   24.2396 C   0  0  0  0  0  0  0  0  0  0  0  0
  -17.2674  -27.8582   23.2358 C   0  0  0  0  0  0  0  0  0  0  0  0
  -25.3459  -15.1600   19.4791 C   0  0  0  0  0  0  0  0  0  0  0  0
  -25.1454  -14.9822   21.8802 C   0  0  0  0  0  0  0  0  0  0  0  0
  -17.5081  -29.9145   24.4724 C   0  0  0  0  0  0  0  0  0  0  0  0
  -18.3781  -28.1960   22.4634 C   0  0  0  0  0  0  0  0  0  0  0  0
  -22.5696  -24.3654   20.1691 C   0  0  0  0  0  0  0  0  0  0  0  0
  -25.4193  -13.7705   19.3823 C   0  0  0  0  0  0  0  0  0  0  0  0
  -25.2188  -13.5927   21.7834 C   0  0  0  0  0  0  0  0  0  0  0  0
  -22.7277  -23.7948   18.9069 C   0  0  0  0  0  0  0  0  0  0  0  0
  -24.9909   -9.9814   22.1375 C   0  0  0  0  0  0  0  0  0  0  0  0
  -24.0846   -9.2298   22.8854 C   0  0  0  0  0  0  0  0  0  0  0  0
  -29.5860  -20.2009   17.6623 C   0  0  0  0  0  0  0  0  0  0  0  0
  -24.2721  -25.5504   18.3135 C   0  0  0  0  0  0  0  0  0  0  0  0
  -22.2490  -10.2867   21.7233 C   0  0  0  0  0  0  0  0  0  0  0  0
  -28.8655  -22.3117   17.3523 C   0  0  0  0  0  0  0  0  0  0  0  0
  -25.2090  -15.7659   20.7281 C   0  0  0  0  0  0  0  0  0  0  0  0
  -29.3996  -21.4569   18.2910 C   0  0  0  0  0  0  0  0  0  0  0  0
  -23.9725  -17.9963   20.7908 C   0  0  0  0  0  0  0  0  0  0  0  0
  -18.6334  -30.2627   23.7088 C   0  0  0  0  0  0  0  0  0  0  0  0
  -23.2542  -25.5408   20.5098 C   0  0  0  0  0  0  0  0  0  0  0  0
  -19.0688  -29.3995   22.6852 C   0  0  0  0  0  0  0  0  0  0  0  0
  -24.1228  -26.1325   19.5816 C   0  0  0  0  0  0  0  0  0  0  0  0
  -25.3558  -12.9868   20.5345 C   0  0  0  0  0  0  0  0  0  0  0  0
  -23.5769  -24.3889   17.9779 C   0  0  0  0  0  0  0  0  0  0  0  0
  -24.5262  -10.8859   21.1826 C   0  0  0  0  0  0  0  0  0  0  0  0
  -22.7137   -9.3823   22.6783 C   0  0  0  0  0  0  0  0  0  0  0  0
  -23.1552  -11.0384   20.9755 C   0  0  0  0  0  0  0  0  0  0  0  0
  -25.1336  -17.2013   20.8287 C   0  0  0  0  0  0  0  0  0  0  0  0
  -29.1596  -20.3263   16.3586 C   0  0  0  0  0  0  0  0  0  0  0  0
  -24.4330  -19.2833   20.9254 C   0  0  0  0  0  0  0  0  0  0  0  0
  -29.7038  -21.8265   19.6795 C   0  0  0  0  0  0  0  0  0  0  0  0
  -22.6003  -17.6064   20.6469 C   0  0  0  0  0  0  0  0  0  0  0  0
  -22.3841  -28.4847   21.3344 C   0  0  0  0  0  0  0  0  0  0  0  0
  -25.5665  -28.8664   21.8333 C   0  0  0  0  0  0  0  0  0  0  0  0
  -28.7508  -27.8618   21.1274 C   0  0  0  0  0  0  0  0  0  0  0  0
  -19.3030  -31.5894   23.9658 C   0  0  0  0  0  0  0  0  0  0  0  0
  -23.0933  -26.1289   21.8848 C   0  0  0  0  0  0  0  0  0  0  0  0
  -24.8963  -27.3837   19.9051 C   0  0  0  0  0  0  0  0  0  0  0  0
  -20.6962  -31.6978   23.3516 C   0  0  0  0  0  0  0  0  0  0  0  0
  -28.0276  -21.8043   22.8309 C   0  0  0  0  0  0  0  0  0  0  0  0
  -20.6846  -31.1980   21.9104 C   0  0  0  0  0  0  0  0  0  0  0  0
  -26.9983  -20.6827   22.6801 C   0  0  0  0  0  0  0  0  0  0  0  0
  -29.3265  -21.4795   22.0975 C   0  0  0  0  0  0  0  0  0  0  0  0
  -28.1241  -20.0097   20.5168 C   0  0  0  0  0  0  0  0  0  0  0  0
  -20.2845  -29.7192   21.8425 C   0  0  1  0  0  0  0  0  0  0  0  0
  -23.4442  -27.6123   21.9450 C   0  0  1  0  0  0  0  0  0  0  0  0
  -26.7816  -20.3199   21.1990 C   0  0  1  0  0  0  0  0  0  0  0  0
  -28.2159  -18.1218   15.5819 C   0  0  0  0  0  0  0  0  0  0  0  0
  -30.5389  -18.8130   14.8884 C   0  0  0  0  0  0  0  0  0  0  0  0
  -31.2519  -27.7568   21.3021 C   0  0  0  0  0  0  0  0  0  0  0  0
  -25.4340  -31.3043   20.0034 C   0  0  0  0  0  0  0  0  0  0  0  0
  -27.9285  -31.2096   19.8121 C   0  0  0  0  0  0  0  0  0  0  0  0
  -26.8637  -31.6005   22.0338 C   0  0  0  0  0  0  0  0  0  0  0  0
  -28.6321  -25.8004   23.2476 C   0  0  0  0  0  0  0  0  0  0  0  0
  -28.1890  -22.1725   14.9443 C   0  0  0  0  0  0  0  0  0  0  0  0
  -26.7590  -21.7410   14.6467 C   0  0  0  0  0  0  0  0  0  0  0  0
  -24.4107  -21.9036   15.4822 C   0  0  0  0  0  0  0  0  0  0  0  0
  -23.5876  -22.4183   16.6466 C   0  0  0  0  0  0  0  0  0  1  0  0
  -29.1321  -19.3274   15.2705 C   0  0  0  0  0  0  0  0  0  0  0  0
  -26.7367  -29.3033   20.9855 C   0  0  1  0  0  0  0  0  0  0  0  0
  -29.9320  -27.5506   22.0287 C   0  0  2  0  0  0  0  0  0  0  0  0
  -26.7248  -30.8319   20.7016 C   0  0  0  0  0  0  0  0  0  0  0  0
  -26.2480  -17.9228   20.9757 N   0  0  0  0  0  0  0  0  0  0  0  0
  -28.7242  -21.6137   16.1813 N   0  0  0  0  0  0  0  0  0  0  0  0
  -25.7892  -19.1847   21.0313 N   0  0  0  0  0  0  0  0  0  0  0  0
  -29.0596  -21.1279   20.7033 N   0  0  0  0  0  0  0  0  0  0  0  0
  -24.7005  -27.9242   21.2604 N   0  0  0  0  0  0  0  0  0  0  0  0
  -23.8061  -20.4783   20.9623 N   0  0  0  0  0  0  0  0  0  0  0  0
  -22.3030  -16.2426   20.5203 N   0  0  0  0  0  0  0  0  0  0  0  0
  -21.3986  -28.8763   22.2203 N   0  0  0  0  0  0  0  0  0  0  0  0
  -27.9355  -28.8321   21.6706 N   0  0  0  0  0  0  0  0  0  0  0  0
  -29.8686  -26.1369   22.4961 N   0  3  0  0  0  0  0  0  0  0  0  0
  -25.8417  -22.2242   15.7140 N   0  3  0  0  0  0  0  0  0  0  0  0
  -30.5065  -22.7458   19.8337 O   0  0  0  0  0  0  0  0  0  0  0  0
  -21.6669  -18.4438   20.6145 O   0  0  0  0  0  0  0  0  0  0  0  0
  -22.4559  -28.7818   20.1477 O   0  0  0  0  0  0  0  0  0  0  0  0
  -25.4300  -29.3380   22.9649 O   0  0  0  0  0  0  0  0  0  0  0  0
  -28.5714  -27.3028   20.0476 O   0  0  0  0  0  0  0  0  0  0  0  0
  -25.4271  -11.6308   20.4404 O   0  0  0  0  0  0  0  0  0  0  0  0
  -23.7326  -23.8345   16.7449 O   0  0  0  0  0  0  0  0  0  1  0  0
  -21.8436   -8.6593   23.3954 F   0  0  0  0  0  0  0  0  0  0  0  0
  -22.7028  -11.9048   20.0587 F   0  0  0  0  0  0  0  0  0  0  0  0
  1  2  1  0  0  0  0
  1  5  2  0  0  0  0
  2  6  2  0  0  0  0
  3  8  2  0  0  0  0
  3 17  1  0  0  0  0
  4  9  1  0  0  0  0
  4 17  2  0  0  0  0
  5 20  1  0  0  0  0
  6 22  1  0  0  0  0
  7 10  2  0  0  0  0
  7 21  1  0  0  0  0
  8 24  1  0  0  0  0
  9 24  2  0  0  0  0
 10 25  1  0  0  0  0
 11 12  2  0  0  0  0
 11 26  1  0  0  0  0
 12 27  1  0  0  0  0
 13 18  1  0  0  0  0
 13 30  2  0  0  0  0
 14 23  1  0  0  0  0
 14 25  2  0  0  0  0
 15 27  2  0  0  0  0
 15 28  1  0  0  0  0
 16 18  2  0  0  0  0
 16 65  1  0  0  0  0
 17 29  1  0  0  0  0
 18 32  1  0  0  0  0
 19 29  1  0  0  0  0
 19 31  2  0  0  0  0
 19 33  1  0  0  0  0
 20 22  2  0  0  0  0
 20 37  1  0  0  0  0
 21 23  2  0  0  0  0
 21 38  1  0  0  0  0
 22 46  1  0  0  0  0
 23 39  1  0  0  0  0
 24 80  1  0  0  0  0
 25 81  1  0  0  0  0
 26 28  2  0  0  0  0
 26 80  1  0  0  0  0
 27 82  1  0  0  0  0
 28 83  1  0  0  0  0
 29 64  2  0  0  0  0
 30 60  1  0  0  0  0
 30 65  1  0  0  0  0
 31 66  1  0  0  0  0
 31 69  1  0  0  0  0
 32 67  1  0  0  0  0
 32 75  2  0  0  0  0
 33 70  1  0  0  0  0
 33 76  2  0  0  0  0
 34 47  1  0  0  0  0
 34 71  1  0  0  0  0
 34 77  2  0  0  0  0
 35 61  1  0  0  0  0
 35 68  1  0  0  0  0
 35 78  2  0  0  0  0
 36 62  1  0  0  0  0
 36 72  1  0  0  0  0
 36 79  2  0  0  0  0
 37 40  1  0  0  0  0
 38 47  1  0  0  0  0
 39 68  1  0  0  0  0
 40 42  1  0  0  0  0
 41 43  1  0  0  0  0
 41 44  1  0  0  0  0
 42 46  1  0  0  0  0
 43 48  1  0  0  0  0
 44 67  1  0  0  0  0
 45 48  1  0  0  0  0
 45 67  1  0  0  0  0
 46 71  1  0  0  0  0
 47 68  1  0  0  0  0
 48 66  1  0  0  0  0
 49 60  1  0  0  0  0
 50 60  1  0  0  0  0
 51 62  1  0  0  0  0
 52 63  1  0  0  0  0
 53 63  1  0  0  0  0
 54 63  1  0  0  0  0
 55 73  1  0  0  0  0
 56 57  1  0  0  0  0
 56 65  1  0  0  0  0
 57 74  1  0  0  0  0
 58 59  1  0  0  0  0
 58 74  1  0  0  0  0
 59 81  1  0  0  0  0
 61 63  1  0  0  0  0
 61 72  1  0  0  0  0
 62 73  1  0  0  0  0
 64 66  1  0  0  0  0
M  CHG  2  73   1  74   1
M  ISO  4  18 100  32 100  59 101  81 101
M  END
> <Batch ID>
0098

> <Smiles>
CNC(C)C(=O)NC(C(=O)N1Cc2cc([101O:1][101CH2:1]CNCCn3c[100c:0]([100C:0](=O)N4CCCC(n5nc(-c6ccc(Oc7ccc(F)cc7F)cc6)c(C(N)=O)c5N)C4)cc3C(C)C)ccc2CC1C(=O)NC1CCCc2ccccc21)C(C)(C)C

> <Shape>
0.222

> <Color>
0.066

> <Negative vol penalty>
0.000

$$$$

  -OEChem-04052319293D

 83 91  0     1  0  0  0  0  0999 V2000
  -20.5124  -31.7634   26.4096 C   0  0  0  0  0  0  0  0  0  0  0  0
  -21.7715  -31.3410   25.9952 C   0  0  0  0  0  0  0  0  0  0  0  0
  -24.4100  -12.5406   21.5121 C   0  0  0  0  0  0  0  0  0  0  0  0
  -25.9808  -12.4405   19.6792 C   0  0  0  0  0  0  0  0  0  0  0  0
  -19.3699  -31.1389   25.9111 C   0  0  0  0  0  0  0  0  0  0  0  0
  -21.8888  -30.2930   25.0828 C   0  0  0  0  0  0  0  0  0  0  0  0
  -26.1349  -29.6739   20.7133 C   0  0  0  0  0  0  0  0  0  0  0  0
  -23.9244  -11.2799   21.1648 C   0  0  0  0  0  0  0  0  0  0  0  0
  -25.4953  -11.1797   19.3320 C   0  0  0  0  0  0  0  0  0  0  0  0
  -27.3210  -28.9434   20.6547 C   0  0  0  0  0  0  0  0  0  0  0  0
  -24.8630   -8.0550   21.5548 C   0  0  0  0  0  0  0  0  0  0  0  0
  -24.6613   -7.1327   22.5815 C   0  0  0  0  0  0  0  0  0  0  0  0
  -26.1583  -27.1576   19.5241 C   0  0  0  0  0  0  0  0  0  0  0  0
  -28.3248  -22.3966   16.6718 C   0  0  0  0  0  0  0  0  0  0  0  0
  -22.3174   -7.0081   22.0093 C   0  0  0  0  0  0  0  0  0  0  0  0
  -30.5949  -22.3335   17.3785 C   0  0  0  0  0  0  0  0  0  0  0  0
  -25.4381  -13.1209   20.7692 C   0  0  0  0  0  0  0  0  0  0  0  0
  -26.9935  -14.7143   22.0140 C   0  0  0  0  0  0  0  0  0  0  0  0
  -19.4729  -30.0892   24.9848 C   0  0  0  0  0  0  0  0  0  0  0  0
  -24.9473  -29.1462   20.1865 C   0  0  0  0  0  0  0  0  0  0  0  0
  -20.7465  -29.6530   24.5725 C   0  0  0  0  0  0  0  0  0  0  0  0
  -24.9591  -27.8845   19.5749 C   0  0  0  0  0  0  0  0  0  0  0  0
  -29.4638  -23.0783   17.0858 C   0  0  0  0  0  0  0  0  0  0  0  0
  -28.3513  -21.0106   16.5648 C   0  0  0  0  0  0  0  0  0  0  0  0
  -24.4671  -10.5995   20.0748 C   0  0  0  0  0  0  0  0  0  0  0  0
  -27.3322  -27.6839   20.0627 C   0  0  0  0  0  0  0  0  0  0  0  0
  -23.7918   -8.4540   20.7553 C   0  0  0  0  0  0  0  0  0  0  0  0
  -23.3886   -6.6092   22.8088 C   0  0  0  0  0  0  0  0  0  0  0  0
  -22.5190   -7.9305   20.9825 C   0  0  0  0  0  0  0  0  0  0  0  0
  -25.9397  -14.4234   21.1270 C   0  0  0  0  0  0  0  0  0  0  0  0
  -29.5323  -20.3583   16.8807 C   0  0  0  0  0  0  0  0  0  0  0  0
  -27.0772  -16.0853   22.0098 C   0  0  0  0  0  0  0  0  0  0  0  0
  -27.8225  -13.8249   22.7737 C   0  0  0  0  0  0  0  0  0  0  0  0
  -22.1131  -28.3602   21.3922 C   0  0  0  0  0  0  0  0  0  0  0  0
  -21.3616  -27.8607   18.2765 C   0  0  0  0  0  0  0  0  0  0  0  0
  -22.4354  -27.1639   15.1129 C   0  0  0  0  0  0  0  0  0  0  0  0
  -25.5154  -20.2533   18.0049 C   0  0  0  0  0  0  0  0  0  0  0  0
  -18.2109  -29.4135   24.5100 C   0  0  0  0  0  0  0  0  0  0  0  0
  -23.6819  -29.9580   20.2337 C   0  0  0  0  0  0  0  0  0  0  0  0
  -23.7153  -27.2816   18.9765 C   0  0  0  0  0  0  0  0  0  0  0  0
  -18.4104  -28.5590   23.2609 C   0  0  0  0  0  0  0  0  0  0  0  0
  -24.3983  -19.9984   21.3759 C   0  0  0  0  0  0  0  0  0  0  0  0
  -19.6502  -27.6823   23.4063 C   0  0  0  0  0  0  0  0  0  0  0  0
  -24.7617  -18.5669   21.7744 C   0  0  0  0  0  0  0  0  0  0  0  0
  -23.9512  -20.0821   19.9181 C   0  0  0  0  0  0  0  0  0  0  0  0
  -25.2631  -18.0763   19.3440 C   0  0  0  0  0  0  0  0  0  0  0  0
  -20.9140  -28.5361   23.5653 C   0  0  1  0  0  0  0  0  0  0  0  0
  -22.4210  -29.1061   20.1247 C   0  0  1  0  0  0  0  0  0  0  0  0
  -25.7735  -17.9504   20.7897 C   0  0  2  0  0  0  0  0  0  0  0  0
  -29.6193  -18.8702   16.7832 C   0  0  0  0  0  0  0  0  0  0  0  0
  -21.5845  -26.7802   12.7835 C   0  0  0  0  0  0  0  0  0  0  0  0
  -30.3366  -27.2539   18.5006 C   0  0  0  0  0  0  0  0  0  0  0  0
  -20.4367  -25.0655   19.0774 C   0  0  0  0  0  0  0  0  0  0  0  0
  -20.5049  -24.4254   16.6580 C   0  0  0  0  0  0  0  0  0  0  0  0
  -18.9549  -26.2219   17.4278 C   0  0  0  0  0  0  0  0  0  0  0  0
  -23.9427  -29.4812   14.0559 C   0  0  0  0  0  0  0  0  0  0  0  0
  -29.4684  -24.5809   17.2113 C   0  0  0  0  0  0  0  0  0  0  0  0
  -27.1340  -20.2739   16.1236 C   0  0  0  0  0  0  0  0  0  0  0  0
  -29.0516  -25.0875   18.5998 C   0  0  0  0  0  0  0  0  0  0  0  0
  -21.4387  -26.6844   17.3334 C   0  0  1  0  0  0  0  0  0  0  0  0
  -22.1123  -27.8051   13.7754 C   0  0  2  0  0  0  0  0  0  0  0  0
  -28.9693  -26.6151   18.7086 C   0  0  1  0  0  0  0  0  0  1  0  0
  -20.3570  -25.6096   17.6371 C   0  0  0  0  0  0  0  0  0  0  0  0
  -30.6587  -20.9862   17.2863 N   0  0  0  0  0  0  0  0  0  0  0  0
  -25.3931  -15.5212   20.5979 N   0  0  0  0  0  0  0  0  0  0  0  0
  -26.1061  -16.5154   21.1541 N   0  0  0  0  0  0  0  0  0  0  0  0
  -22.5017  -28.1116   19.0530 N   0  0  0  0  0  0  0  0  0  0  0  0
  -24.9553  -19.4818   19.0364 N   0  0  0  0  0  0  0  0  0  0  0  0
  -27.8860  -16.9527   22.6546 N   0  0  0  0  0  0  0  0  0  0  0  0
  -27.6017  -12.4455   22.6607 N   0  0  0  0  0  0  0  0  0  0  0  0
  -21.3298  -29.0669   22.2847 N   0  0  0  0  0  0  0  0  0  0  0  0
  -21.3699  -27.2370   15.9850 N   0  0  0  0  0  0  0  0  0  0  0  0
  -26.4641  -19.6098   17.2196 N   0  0  0  0  0  0  0  0  0  0  0  0
  -23.3315  -28.4359   13.1953 N   0  3  0  0  0  0  0  0  0  0  0  0
  -28.7215  -14.2417   23.5429 O   0  0  0  0  0  0  0  0  0  0  0  0
  -22.5525  -27.2270   21.5483 O   0  0  0  0  0  0  0  0  0  0  0  0
  -20.3305  -28.5365   18.3173 O   0  0  0  0  0  0  0  0  0  0  0  0
  -23.5229  -26.6465   15.3581 O   0  0  0  0  0  0  0  0  0  0  0  0
  -25.1978  -21.4302   17.8023 O   0  0  0  0  0  0  0  0  0  0  0  0
  -23.9938   -9.3692   19.7359 O   0  0  0  0  0  0  0  0  0  0  0  0
  -28.4884  -26.9686   20.0048 O   0  0  0  0  0  0  0  0  0  1  0  0
  -23.1954   -5.7223   23.7938 F   0  0  0  0  0  0  0  0  0  0  0  0
  -21.4863   -8.3090   20.2170 F   0  0  0  0  0  0  0  0  0  0  0  0
  1  2  1  0  0  0  0
  1  5  2  0  0  0  0
  2  6  2  0  0  0  0
  3  8  2  0  0  0  0
  3 17  1  0  0  0  0
  4  9  1  0  0  0  0
  4 17  2  0  0  0  0
  5 19  1  0  0  0  0
  6 21  1  0  0  0  0
  7 10  2  0  0  0  0
  7 20  1  0  0  0  0
  8 25  1  0  0  0  0
  9 25  2  0  0  0  0
 10 26  1  0  0  0  0
 11 12  2  0  0  0  0
 11 27  1  0  0  0  0
 12 28  1  0  0  0  0
 13 22  1  0  0  0  0
 13 26  2  0  0  0  0
 14 23  2  0  0  0  0
 14 24  1  0  0  0  0
 15 28  2  0  0  0  0
 15 29  1  0  0  0  0
 16 23  1  0  0  0  0
 16 64  2  0  0  0  0
 17 30  1  0  0  0  0
 18 30  1  0  0  0  0
 18 32  2  0  0  0  0
 18 33  1  0  0  0  0
 19 21  2  0  0  0  0
 19 38  1  0  0  0  0
 20 22  2  0  0  0  0
 20 39  1  0  0  0  0
 21 47  1  0  0  0  0
 22 40  1  0  0  0  0
 23 57  1  0  0  0  0
 24 31  2  0  0  0  0
 24 58  1  0  0  0  0
 25 80  1  0  0  0  0
 26 81  1  0  0  0  0
 27 29  2  0  0  0  0
 27 80  1  0  0  0  0
 28 82  1  0  0  0  0
 29 83  1  0  0  0  0
 30 65  2  0  0  0  0
 31 50  1  0  0  0  0
 31 64  1  0  0  0  0
 32 66  1  0  0  0  0
 32 69  1  0  0  0  0
 33 70  1  0  0  0  0
 33 75  2  0  0  0  0
 34 48  1  0  0  0  0
 34 71  1  0  0  0  0
 34 76  2  0  0  0  0
 35 60  1  0  0  0  0
 35 67  1  0  0  0  0
 35 77  2  0  0  0  0
 36 61  1  0  0  0  0
 36 72  1  0  0  0  0
 36 78  2  0  0  0  0
 37 68  1  0  0  0  0
 37 73  1  0  0  0  0
 37 79  2  0  0  0  0
 38 41  1  0  0  0  0
 39 48  1  0  0  0  0
 40 67  1  0  0  0  0
 41 43  1  0  0  0  0
 42 44  1  0  0  0  0
 42 45  1  0  0  0  0
 43 47  1  0  0  0  0
 44 49  1  0  0  0  0
 45 68  1  0  0  0  0
 46 49  1  0  0  0  0
 46 68  1  0  0  0  0
 47 71  1  0  0  0  0
 48 67  1  0  0  0  0
 49 66  1  0  0  0  0
 51 61  1  0  0  0  0
 52 62  1  0  0  0  0
 53 63  1  0  0  0  0
 54 63  1  0  0  0  0
 55 63  1  0  0  0  0
 56 74  1  0  0  0  0
 57 59  1  0  0  0  0
 58 73  1  0  0  0  0
 59 62  1  0  0  0  0
 60 63  1  0  0  0  0
 60 72  1  0  0  0  0
 61 74  1  0  0  0  0
 62 81  1  0  0  0  0
 65 66  1  0  0  0  0
M  CHG  1  74   1
M  ISO  4  37 100  62 101  73 100  81 101
M  END
> <Batch ID>
0098

> <Smiles>
CNC(C)C(=O)NC(C(=O)N1Cc2cc([101O:1][101CH:1](C)CCc3cnc(C)c(C[100NH:0][100C:0](=O)N4CCCC(n5nc(-c6ccc(Oc7ccc(F)cc7F)cc6)c(C(N)=O)c5N)C4)c3)ccc2CC1C(=O)NC1CCCc2ccccc21)C(C)(C)C

> <Shape>
0.211

> <Color>
0.084

> <Negative vol penalty>
0.000

$$$$

  -OEChem-04052319293D

 89 97  0     1  0  0  0  0  0999 V2000
  -16.8818  -30.4579   24.3068 C   0  0  0  0  0  0  0  0  0  0  0  0
  -17.5153  -29.3226   24.8021 C   0  0  0  0  0  0  0  0  0  0  0  0
  -23.3997  -11.4089   19.5015 C   0  0  0  0  0  0  0  0  0  0  0  0
  -24.5980  -10.9795   21.5550 C   0  0  0  0  0  0  0  0  0  0  0  0
  -17.1641  -30.9056   23.0170 C   0  0  0  0  0  0  0  0  0  0  0  0
  -18.4307  -28.6337   24.0073 C   0  0  0  0  0  0  0  0  0  0  0  0
  -24.4578  -24.7915   24.4849 C   0  0  0  0  0  0  0  0  0  0  0  0
  -23.1312  -10.0462   19.3732 C   0  0  0  0  0  0  0  0  0  0  0  0
  -24.3294   -9.6167   21.4267 C   0  0  0  0  0  0  0  0  0  0  0  0
  -24.9864  -23.5634   24.0898 C   0  0  0  0  0  0  0  0  0  0  0  0
  -21.7308   -7.5288   21.9820 C   0  0  0  0  0  0  0  0  0  0  0  0
  -21.2988   -6.8452   23.1185 C   0  0  0  0  0  0  0  0  0  0  0  0
  -25.4547  -24.4745   21.9058 C   0  0  0  0  0  0  0  0  0  0  0  0
  -27.1895  -17.5816   24.9406 C   0  0  0  0  0  0  0  0  0  0  0  0
  -28.9685  -18.6440   23.6984 C   0  0  0  0  0  0  0  0  0  0  0  0
  -29.2905  -16.4332   24.6180 C   0  0  0  0  0  0  0  0  0  0  0  0
  -23.2173   -5.3842   22.9689 C   0  0  0  0  0  0  0  0  0  0  0  0
  -24.1332  -11.8756   20.5924 C   0  0  0  0  0  0  0  0  0  0  0  0
  -23.6255  -14.2464   21.3855 C   0  0  0  0  0  0  0  0  0  0  0  0
  -18.0907  -30.2273   22.2094 C   0  0  0  0  0  0  0  0  0  0  0  0
  -24.4137  -25.8690   23.5885 C   0  0  0  0  0  0  0  0  0  0  0  0
  -18.7247  -29.0719   22.7049 C   0  0  0  0  0  0  0  0  0  0  0  0
  -24.9274  -25.7160   22.2929 C   0  0  0  0  0  0  0  0  0  0  0  0
  -27.6751  -18.6727   24.2200 C   0  0  0  0  0  0  0  0  0  0  0  0
  -27.9971  -16.4619   25.1397 C   0  0  0  0  0  0  0  0  0  0  0  0
  -29.7762  -17.5243   23.8974 C   0  0  0  0  0  0  0  0  0  0  0  0
  -23.5959   -9.1501   20.3358 C   0  0  0  0  0  0  0  0  0  0  0  0
  -25.4823  -23.4039   22.7991 C   0  0  0  0  0  0  0  0  0  0  0  0
  -22.9059   -7.1401   21.3389 C   0  0  0  0  0  0  0  0  0  0  0  0
  -22.0421   -5.7729   23.6120 C   0  0  0  0  0  0  0  0  0  0  0  0
  -23.6492   -6.0679   21.8323 C   0  0  0  0  0  0  0  0  0  0  0  0
  -24.4115  -13.2831   20.7251 C   0  0  0  0  0  0  0  0  0  0  0  0
  -24.3186  -15.4217   21.2278 C   0  0  0  0  0  0  0  0  0  0  0  0
  -22.3803  -14.0926   22.0794 C   0  0  0  0  0  0  0  0  0  0  0  0
  -22.0953  -27.6153   22.2927 C   0  0  0  0  0  0  0  0  0  0  0  0
  -24.5809  -29.3413   21.1242 C   0  0  0  0  0  0  0  0  0  0  0  0
  -27.8747  -29.4421   20.2368 C   0  0  0  0  0  0  0  0  0  0  0  0
  -30.1028  -16.6494   20.2861 C   0  0  0  0  0  0  0  0  0  0  0  0
  -18.3280  -30.7217   20.8045 C   0  0  0  0  0  0  0  0  0  0  0  0
  -23.8648  -27.1950   24.0387 C   0  0  0  0  0  0  0  0  0  0  0  0
  -24.9219  -26.8475   21.2989 C   0  0  0  0  0  0  0  0  0  0  0  0
  -19.5900  -30.1508   20.1628 C   0  0  0  0  0  0  0  0  0  0  0  0
  -27.3502  -17.6094   18.2421 C   0  0  0  0  0  0  0  0  0  0  0  0
  -19.6680  -28.6440   20.3869 C   0  0  0  0  0  0  0  0  0  0  0  0
  -26.2140  -16.6964   18.7063 C   0  0  0  0  0  0  0  0  0  0  0  0
  -28.6965  -16.8890   18.2609 C   0  0  0  0  0  0  0  0  0  0  0  0
  -27.9072  -15.3452   20.0123 C   0  0  0  0  0  0  0  0  0  0  0  0
  -19.7422  -28.3117   21.8821 C   0  0  1  0  0  0  0  0  0  0  0  0
  -23.3998  -28.0733   22.8811 C   0  0  1  0  0  0  0  0  0  0  0  0
  -26.5378  -16.0440   20.0638 C   0  0  2  0  0  0  0  0  0  0  0  0
  -26.2571  -14.6407   25.2359 C   0  0  0  0  0  0  0  0  0  0  0  0
  -27.1390  -15.6555   27.3684 C   0  0  0  0  0  0  0  0  0  0  0  0
  -29.6103  -30.9802   19.2780 C   0  0  0  0  0  0  0  0  0  0  0  0
  -24.3842  -20.9743   21.1309 C   0  0  0  0  0  0  0  0  0  0  0  0
  -23.3648  -28.9797   18.3493 C   0  0  0  0  0  0  0  0  0  0  0  0
  -25.5616  -29.6777   17.3719 C   0  0  0  0  0  0  0  0  0  0  0  0
  -24.2731  -31.2657   18.8004 C   0  0  0  0  0  0  0  0  0  0  0  0
  -29.5519  -29.2538   22.6680 C   0  0  0  0  0  0  0  0  0  0  0  0
  -33.5977  -17.3288   23.8168 C   0  0  0  0  0  0  0  0  0  0  0  0
  -32.1083  -18.5872   25.3656 C   0  0  0  0  0  0  0  0  0  0  0  0
  -26.8014  -19.8826   24.0049 C   0  0  0  0  0  0  0  0  0  0  0  0
  -25.9508  -19.8131   22.7282 C   0  0  0  0  0  0  0  0  0  0  0  0
  -31.3949  -16.3141   22.3783 C   0  0  0  0  0  0  0  0  0  0  0  0
  -27.4782  -15.2948   25.9098 C   0  0  0  0  0  0  0  0  0  0  0  0
  -31.1591  -17.4941   23.3395 C   0  0  2  0  0  0  0  0  0  0  0  0
  -25.4254  -29.2880   19.8740 C   0  0  1  0  0  0  0  0  0  0  0  0
  -28.9720  -30.4434   20.5496 C   0  0  2  0  0  0  0  0  0  0  0  0
  -25.1261  -21.0774   22.4574 C   0  0  1  0  0  0  0  0  0  1  0  0
  -24.6547  -29.7807   18.6168 C   0  0  0  0  0  0  0  0  0  0  0  0
  -25.5190  -13.8014   20.1879 N   0  0  0  0  0  0  0  0  0  0  0  0
  -25.4339  -15.1033   20.5103 N   0  0  0  0  0  0  0  0  0  0  0  0
  -24.3690  -28.1227   21.7845 N   0  0  0  0  0  0  0  0  0  0  0  0
  -28.9437  -16.2942   19.5766 N   0  0  0  0  0  0  0  0  0  0  0  0
  -24.0766  -16.6861   21.6342 N   0  0  0  0  0  0  0  0  0  0  0  0
  -21.8061  -12.8159   22.1465 N   0  0  0  0  0  0  0  0  0  0  0  0
  -21.0784  -28.5462   22.3863 N   0  0  0  0  0  0  0  0  0  0  0  0
  -26.6370  -30.0459   20.1673 N   0  0  0  0  0  0  0  0  0  0  0  0
  -30.2571  -16.0447   21.5276 N   0  0  0  0  0  0  0  0  0  0  0  0
  -30.0354  -29.8052   21.3760 N   0  3  0  0  0  0  0  0  0  0  0  0
  -32.2216  -17.4396   24.4051 N   0  3  0  0  0  0  0  0  0  0  0  0
  -21.7860  -15.0617   22.6096 O   0  0  0  0  0  0  0  0  0  0  0  0
  -22.0177  -26.5006   21.7896 O   0  0  0  0  0  0  0  0  0  0  0  0
  -24.1320  -30.4253   21.5050 O   0  0  0  0  0  0  0  0  0  0  0  0
  -28.0941  -28.2448   20.0671 O   0  0  0  0  0  0  0  0  0  0  0  0
  -30.9355  -17.4505   19.8482 O   0  0  0  0  0  0  0  0  0  0  0  0
  -23.3338   -7.8203   20.2111 O   0  0  0  0  0  0  0  0  0  0  0  0
  -25.9982  -22.2060   22.4106 O   0  0  0  0  0  0  0  0  0  1  0  0
  -21.6280   -5.1175   24.7043 F   0  0  0  0  0  0  0  0  0  0  0  0
  -24.7796   -5.6906   21.2194 F   0  0  0  0  0  0  0  0  0  0  0  0
  1  2  1  0  0  0  0
  1  5  2  0  0  0  0
  2  6  2  0  0  0  0
  3  8  2  0  0  0  0
  3 18  1  0  0  0  0
  4  9  1  0  0  0  0
  4 18  2  0  0  0  0
  5 20  1  0  0  0  0
  6 22  1  0  0  0  0
  7 10  2  0  0  0  0
  7 21  1  0  0  0  0
  8 27  1  0  0  0  0
  9 27  2  0  0  0  0
 10 28  1  0  0  0  0
 11 12  2  0  0  0  0
 11 29  1  0  0  0  0
 12 30  1  0  0  0  0
 13 23  1  0  0  0  0
 13 28  2  0  0  0  0
 14 24  1  0  0  0  0
 14 25  2  0  0  0  0
 15 24  2  0  0  0  0
 15 26  1  0  0  0  0
 16 25  1  0  0  0  0
 16 26  2  0  0  0  0
 17 30  2  0  0  0  0
 17 31  1  0  0  0  0
 18 32  1  0  0  0  0
 19 32  1  0  0  0  0
 19 33  2  0  0  0  0
 19 34  1  0  0  0  0
 20 22  2  0  0  0  0
 20 39  1  0  0  0  0
 21 23  2  0  0  0  0
 21 40  1  0  0  0  0
 22 48  1  0  0  0  0
 23 41  1  0  0  0  0
 24 61  1  0  0  0  0
 25 64  1  0  0  0  0
 26 65  1  0  0  0  0
 27 86  1  0  0  0  0
 28 87  1  0  0  0  0
 29 31  2  0  0  0  0
 29 86  1  0  0  0  0
 30 88  1  0  0  0  0
 31 89  1  0  0  0  0
 32 70  2  0  0  0  0
 33 71  1  0  0  0  0
 33 74  1  0  0  0  0
 34 75  1  0  0  0  0
 34 81  2  0  0  0  0
 35 49  1  0  0  0  0
 35 76  1  0  0  0  0
 35 82  2  0  0  0  0
 36 66  1  0  0  0  0
 36 72  1  0  0  0  0
 36 83  2  0  0  0  0
 37 67  1  0  0  0  0
 37 77  1  0  0  0  0
 37 84  2  0  0  0  0
 38 73  1  0  0  0  0
 38 78  1  0  0  0  0
 38 85  2  0  0  0  0
 39 42  1  0  0  0  0
 40 49  1  0  0  0  0
 41 72  1  0  0  0  0
 42 44  1  0  0  0  0
 43 45  1  0  0  0  0
 43 46  1  0  0  0  0
 44 48  1  0  0  0  0
 45 50  1  0  0  0  0
 46 73  1  0  0  0  0
 47 50  1  0  0  0  0
 47 73  1  0  0  0  0
 48 76  1  0  0  0  0
 49 72  1  0  0  0  0
 50 71  1  0  0  0  0
 51 64  1  0  0  0  0
 52 64  1  0  0  0  0
 53 67  1  0  0  0  0
 54 68  1  0  0  0  0
 55 69  1  0  0  0  0
 56 69  1  0  0  0  0
 57 69  1  0  0  0  0
 58 79  1  0  0  0  0
 59 80  1  0  0  0  0
 60 80  1  0  0  0  0
 61 62  1  0  0  0  0
 62 68  1  0  0  0  0
 63 65  1  0  0  0  0
 63 78  1  0  0  0  0
 65 80  1  0  0  0  0
 66 69  1  0  0  0  0
 66 77  1  0  0  0  0
 67 79  1  0  0  0  0
 68 87  1  0  0  0  0
 70 71  1  0  0  0  0
M  CHG  2  79   1  80   1
M  ISO  4  38 100  68 101  78 100  87 101
M  END
> <Batch ID>
0098

> <Smiles>
CNC(C)C(=O)NC(C(=O)N1Cc2cc([101O:1][101CH:1](C)CCc3cc(C(C)C)cc(C(C[100NH:0][100C:0](=O)N4CCCC(n5nc(-c6ccc(Oc7ccc(F)cc7F)cc6)c(C(N)=O)c5N)C4)N(C)C)c3)ccc2CC1C(=O)NC1CCCc2ccccc21)C(C)(C)C

> <Shape>
0.227

> <Color>
0.062

> <Negative vol penalty>
0.000

$$$$

  -OEChem-04052319293D

 85 93  0     1  0  0  0  0  0999 V2000
  -28.6932   -9.3678   21.9279 C   0  0  0  0  0  0  0  0  0  0  0  0
  -29.1388  -10.6025   21.4673 C   0  0  0  0  0  0  0  0  0  0  0  0
  -20.7504  -27.6327   21.5573 C   0  0  0  0  0  0  0  0  0  0  0  0
  -19.8876  -27.9571   23.7905 C   0  0  0  0  0  0  0  0  0  0  0  0
  -27.3258   -9.1155   22.0306 C   0  0  0  0  0  0  0  0  0  0  0  0
  -28.2173  -11.5854   21.1080 C   0  0  0  0  0  0  0  0  0  0  0  0
  -28.8261  -17.6380   21.8162 C   0  0  0  0  0  0  0  0  0  0  0  0
  -19.7012  -26.7567   21.2791 C   0  0  0  0  0  0  0  0  0  0  0  0
  -18.8383  -27.0812   23.5123 C   0  0  0  0  0  0  0  0  0  0  0  0
  -29.2093  -18.6512   20.9386 C   0  0  0  0  0  0  0  0  0  0  0  0
  -18.9092  -23.5348   21.9243 C   0  0  0  0  0  0  0  0  0  0  0  0
  -19.2181  -22.3408   21.2727 C   0  0  0  0  0  0  0  0  0  0  0  0
  -30.6718  -27.0647   21.8657 C   0  0  0  0  0  0  0  0  0  0  0  0
  -26.8887  -19.1218   20.4780 C   0  0  0  0  0  0  0  0  0  0  0  0
  -17.7608  -22.9597   19.4478 C   0  0  0  0  0  0  0  0  0  0  0  0
  -31.4282  -26.3365   20.9617 C   0  0  0  0  0  0  0  0  0  0  0  0
  -20.8437  -28.2328   22.8130 C   0  0  0  0  0  0  0  0  0  0  0  0
  -21.9463  -30.5313   22.9060 C   0  0  0  0  0  0  0  0  0  0  0  0
  -26.3871  -10.0992   21.6815 C   0  0  0  0  0  0  0  0  0  0  0  0
  -27.4691  -17.3513   22.0234 C   0  0  0  0  0  0  0  0  0  0  0  0
  -26.8360  -11.3456   21.2048 C   0  0  0  0  0  0  0  0  0  0  0  0
  -26.4907  -18.1062   21.3607 C   0  0  0  0  0  0  0  0  0  0  0  0
  -28.8060  -26.8052   20.3705 C   0  0  0  0  0  0  0  0  0  0  0  0
  -29.3365  -27.2992   21.5570 C   0  0  0  0  0  0  0  0  0  0  0  0
  -18.7451  -26.4810   22.2566 C   0  0  0  0  0  0  0  0  0  0  0  0
  -28.2407  -19.3914   20.2671 C   0  0  0  0  0  0  0  0  0  0  0  0
  -18.0260  -24.4412   21.3377 C   0  0  0  0  0  0  0  0  0  0  0  0
  -18.6439  -22.0533   20.0345 C   0  0  0  0  0  0  0  0  0  0  0  0
  -17.4518  -24.1537   20.0994 C   0  0  0  0  0  0  0  0  0  0  0  0
  -21.9277  -29.1373   23.1011 C   0  0  0  0  0  0  0  0  0  0  0  0
  -29.6460  -26.0888   19.5333 C   0  0  0  0  0  0  0  0  0  0  0  0
  -23.1927  -30.9210   23.3319 C   0  0  0  0  0  0  0  0  0  0  0  0
  -20.9281  -31.3967   22.3864 C   0  0  0  0  0  0  0  0  0  0  0  0
  -25.6132  -14.8160   21.5423 C   0  0  0  0  0  0  0  0  0  0  0  0
  -23.4003  -16.6335   23.0663 C   0  0  0  0  0  0  0  0  0  0  0  0
  -22.3176  -19.7479   23.9467 C   0  0  0  0  0  0  0  0  0  0  0  0
  -28.3134  -27.6156   23.8038 C   0  0  0  0  0  0  0  0  0  0  0  0
  -24.9190   -9.7636   21.7646 C   0  0  0  0  0  0  0  0  0  0  0  0
  -27.0716  -16.2730   22.9937 C   0  0  0  0  0  0  0  0  0  0  0  0
  -25.0202  -17.8515   21.5637 C   0  0  0  0  0  0  0  0  0  0  0  0
  -24.0105  -10.9895   21.7189 C   0  0  0  0  0  0  0  0  0  0  0  0
  -26.6756  -29.7023   26.3678 C   0  0  0  0  0  0  0  0  0  0  0  0
  -24.4411  -11.9317   20.5993 C   0  0  0  0  0  0  0  0  0  0  0  0
  -25.2549  -29.8537   25.8269 C   0  0  0  0  0  0  0  0  0  0  0  0
  -27.3096  -28.3838   25.9343 C   0  0  0  0  0  0  0  0  0  0  0  0
  -25.8750  -28.3192   23.9174 C   0  0  0  0  0  0  0  0  0  0  0  0
  -25.8674  -12.4459   20.8290 C   0  0  1  0  0  0  0  0  0  0  0  0
  -25.6710  -15.7251   22.7373 C   0  0  1  0  0  0  0  0  0  0  0  0
  -25.2247  -29.6569   24.3013 C   0  0  1  0  0  0  0  0  0  0  0  0
  -27.3769  -27.0389   20.0088 C   0  0  0  0  0  0  0  0  0  0  0  0
  -29.2330  -26.5714   17.1074 C   0  0  0  0  0  0  0  0  0  0  0  0
  -20.4575  -20.9170   25.1594 C   0  0  0  0  0  0  0  0  0  0  0  0
  -21.5521  -16.1568   20.6858 C   0  0  0  0  0  0  0  0  0  0  0  0
  -20.1429  -18.0648   21.4868 C   0  0  0  0  0  0  0  0  0  0  0  0
  -20.4295  -16.0416   22.9175 C   0  0  0  0  0  0  0  0  0  0  0  0
  -28.1108  -29.4110   22.0994 C   0  0  0  0  0  0  0  0  0  0  0  0
  -24.1840  -20.9118   25.9268 C   0  0  0  0  0  0  0  0  0  0  0  0
  -29.6047  -23.0694   18.7935 C   0  0  0  0  0  0  0  0  0  0  0  0
  -30.2426  -21.7704   18.2895 C   0  0  0  0  0  0  0  0  0  0  0  0
  -29.8296  -24.2176   17.8014 C   0  0  0  0  0  0  0  0  0  0  0  0
  -30.0115  -20.6061   19.2451 C   0  0  0  0  0  0  0  0  0  1  0  0
  -29.1246  -25.5245   18.2229 C   0  0  1  0  0  0  0  0  0  0  0  0
  -22.3649  -17.6434   22.6339 C   0  0  1  0  0  0  0  0  0  0  0  0
  -21.8483  -20.3129   25.2753 C   0  0  2  0  0  0  0  0  0  0  0  0
  -21.1500  -16.9804   21.9255 C   0  0  0  0  0  0  0  0  0  0  0  0
  -30.9480  -25.8407   19.7993 N   0  0  0  0  0  0  0  0  0  0  0  0
  -23.0714  -28.6726   23.6111 N   0  0  0  0  0  0  0  0  0  0  0  0
  -23.8204  -29.7810   23.7399 N   0  0  0  0  0  0  0  0  0  0  0  0
  -24.6820  -16.7824   22.5177 N   0  0  0  0  0  0  0  0  0  0  0  0
  -27.2270  -28.2007   24.4848 N   0  0  0  0  0  0  0  0  0  0  0  0
  -23.8019  -32.1241   23.3932 N   0  0  0  0  0  0  0  0  0  0  0  0
  -19.7065  -30.8316   21.9957 N   0  0  0  0  0  0  0  0  0  0  0  0
  -25.8731  -13.4899   21.8312 N   0  0  0  0  0  0  0  0  0  0  0  0
  -22.0169  -18.4075   23.8270 N   0  0  0  0  0  0  0  0  0  0  0  0
  -28.5219  -28.0553   22.4786 N   0  0  0  0  0  0  0  0  0  0  0  0
  -22.7835  -21.3733   25.7465 N   0  3  0  0  0  0  0  0  0  0  0  0
  -21.1025  -32.6321   22.2567 O   0  0  0  0  0  0  0  0  0  0  0  0
  -25.3507  -15.2828   20.4401 O   0  0  0  0  0  0  0  0  0  0  0  0
  -23.0855  -15.7495   23.8669 O   0  0  0  0  0  0  0  0  0  0  0  0
  -22.8901  -20.4284   23.0984 O   0  0  0  0  0  0  0  0  0  0  0  0
  -29.0553  -26.7888   24.3476 O   0  0  0  0  0  0  0  0  0  0  0  0
  -17.7209  -25.6266   21.9854 O   0  0  0  0  0  0  0  0  0  0  0  0
  -28.6121  -20.3805   19.4094 O   0  0  0  0  0  0  0  0  0  1  0  0
  -18.9419  -20.9073   19.4082 F   0  0  0  0  0  0  0  0  0  0  0  0
  -16.6036  -25.0211   19.5303 F   0  0  0  0  0  0  0  0  0  0  0  0
  1  2  1  0  0  0  0
  1  5  2  0  0  0  0
  2  6  2  0  0  0  0
  3  8  2  0  0  0  0
  3 17  1  0  0  0  0
  4  9  1  0  0  0  0
  4 17  2  0  0  0  0
  5 19  1  0  0  0  0
  6 21  1  0  0  0  0
  7 10  2  0  0  0  0
  7 20  1  0  0  0  0
  8 25  1  0  0  0  0
  9 25  2  0  0  0  0
 10 26  1  0  0  0  0
 11 12  2  0  0  0  0
 11 27  1  0  0  0  0
 12 28  1  0  0  0  0
 13 16  1  0  0  0  0
 13 24  2  0  0  0  0
 14 22  1  0  0  0  0
 14 26  2  0  0  0  0
 15 28  2  0  0  0  0
 15 29  1  0  0  0  0
 16 66  2  0  0  0  0
 17 30  1  0  0  0  0
 18 30  1  0  0  0  0
 18 32  2  0  0  0  0
 18 33  1  0  0  0  0
 19 21  2  0  0  0  0
 19 38  1  0  0  0  0
 20 22  2  0  0  0  0
 20 39  1  0  0  0  0
 21 47  1  0  0  0  0
 22 40  1  0  0  0  0
 23 24  1  0  0  0  0
 23 31  2  0  0  0  0
 23 50  1  0  0  0  0
 24 75  1  0  0  0  0
 25 82  1  0  0  0  0
 26 83  1  0  0  0  0
 27 29  2  0  0  0  0
 27 82  1  0  0  0  0
 28 84  1  0  0  0  0
 29 85  1  0  0  0  0
 30 67  2  0  0  0  0
 31 62  1  0  0  0  0
 31 66  1  0  0  0  0
 32 68  1  0  0  0  0
 32 71  1  0  0  0  0
 33 72  1  0  0  0  0
 33 77  2  0  0  0  0
 34 48  1  0  0  0  0
 34 73  1  0  0  0  0
 34 78  2  0  0  0  0
 35 63  1  0  0  0  0
 35 69  1  0  0  0  0
 35 79  2  0  0  0  0
 36 64  1  0  0  0  0
 36 74  1  0  0  0  0
 36 80  2  0  0  0  0
 37 70  1  0  0  0  0
 37 75  1  0  0  0  0
 37 81  2  0  0  0  0
 38 41  1  0  0  0  0
 39 48  1  0  0  0  0
 40 69  1  0  0  0  0
 41 43  1  0  0  0  0
 42 44  1  0  0  0  0
 42 45  1  0  0  0  0
 43 47  1  0  0  0  0
 44 49  1  0  0  0  0
 45 70  1  0  0  0  0
 46 49  1  0  0  0  0
 46 70  1  0  0  0  0
 47 73  1  0  0  0  0
 48 69  1  0  0  0  0
 49 68  1  0  0  0  0
 51 62  1  0  0  0  0
 52 64  1  0  0  0  0
 53 65  1  0  0  0  0
 54 65  1  0  0  0  0
 55 65  1  0  0  0  0
 56 75  1  0  0  0  0
 57 76  1  0  0  0  0
 58 59  1  0  0  0  0
 58 60  1  0  0  0  0
 59 61  1  0  0  0  0
 60 62  1  0  0  0  0
 61 83  1  0  0  0  0
 63 65  1  0  0  0  0
 63 74  1  0  0  0  0
 64 76  1  0  0  0  0
 67 68  1  0  0  0  0
M  CHG  1  76   1
M  ISO  4  37 100  61 101  75 100  83 101
M  END
> <Batch ID>
0098

> <Smiles>
CNC(C)C(=O)NC(C(=O)N1Cc2cc([101O:1][101CH2:1]CCCC(C)c3nccc([100N:0](C)[100C:0](=O)N4CCCC(n5nc(-c6ccc(Oc7ccc(F)cc7F)cc6)c(C(N)=O)c5N)C4)c3C)ccc2CC1C(=O)NC1CCCc2ccccc21)C(C)(C)C

> <Shape>
0.223

> <Color>
0.087

> <Negative vol penalty>
0.000

$$$$

  -OEChem-04052319293D

 83 91  0     1  0  0  0  0  0999 V2000
  -25.8790  -21.1678   21.8823 C   0  0  0  0  0  0  0  0  0  0  0  0
  -26.2910  -20.0826   22.6492 C   0  0  0  0  0  0  0  0  0  0  0  0
  -23.2883   -9.7996   19.9126 C   0  0  0  0  0  0  0  0  0  0  0  0
  -23.7386   -9.9398   22.2822 C   0  0  0  0  0  0  0  0  0  0  0  0
  -24.8445  -21.9863   22.3338 C   0  0  0  0  0  0  0  0  0  0  0  0
  -25.6695  -19.8161   23.8687 C   0  0  0  0  0  0  0  0  0  0  0  0
  -24.6032  -14.9025   24.4726 C   0  0  0  0  0  0  0  0  0  0  0  0
  -22.5618   -8.6272   20.1200 C   0  0  0  0  0  0  0  0  0  0  0  0
  -23.0120   -8.7674   22.4896 C   0  0  0  0  0  0  0  0  0  0  0  0
  -25.6556  -14.0623   24.8335 C   0  0  0  0  0  0  0  0  0  0  0  0
  -19.7648   -7.8566   22.7060 C   0  0  0  0  0  0  0  0  0  0  0  0
  -18.8622   -7.8349   23.7692 C   0  0  0  0  0  0  0  0  0  0  0  0
  -31.1031  -15.0548   25.2629 C   0  0  0  0  0  0  0  0  0  0  0  0
  -24.9119  -14.1259   27.1274 C   0  0  0  0  0  0  0  0  0  0  0  0
  -30.2606  -12.8709   25.8151 C   0  0  0  0  0  0  0  0  0  0  0  0
  -20.0675   -5.9874   24.7547 C   0  0  0  0  0  0  0  0  0  0  0  0
  -30.4590  -15.5300   26.3940 C   0  0  0  0  0  0  0  0  0  0  0  0
  -23.8768  -10.4560   20.9937 C   0  0  0  0  0  0  0  0  0  0  0  0
  -24.1365  -12.9860   20.7955 C   0  0  0  0  0  0  0  0  0  0  0  0
  -24.2036  -21.7239   23.5548 C   0  0  0  0  0  0  0  0  0  0  0  0
  -23.7021  -15.3703   25.4399 C   0  0  0  0  0  0  0  0  0  0  0  0
  -24.6265  -20.6327   24.3376 C   0  0  0  0  0  0  0  0  0  0  0  0
  -23.8474  -14.9699   26.7758 C   0  0  0  0  0  0  0  0  0  0  0  0
  -30.9970  -13.6987   24.9750 C   0  0  0  0  0  0  0  0  0  0  0  0
  -22.4236   -8.1110   21.4085 C   0  0  0  0  0  0  0  0  0  0  0  0
  -25.8118  -13.6762   26.1616 C   0  0  0  0  0  0  0  0  0  0  0  0
  -20.8188   -6.9437   22.6671 C   0  0  0  0  0  0  0  0  0  0  0  0
  -19.0135   -6.9003   24.7936 C   0  0  0  0  0  0  0  0  0  0  0  0
  -20.9701   -6.0091   23.6915 C   0  0  0  0  0  0  0  0  0  0  0  0
  -24.6279  -11.6668   20.7800 C   0  0  0  0  0  0  0  0  0  0  0  0
  -29.6544  -13.4438   26.9215 C   0  0  0  0  0  0  0  0  0  0  0  0
  -25.2381  -13.7658   20.5409 C   0  0  0  0  0  0  0  0  0  0  0  0
  -22.8034  -13.4637   21.0201 C   0  0  0  0  0  0  0  0  0  0  0  0
  -22.8930  -18.2360   26.5521 C   0  0  0  0  0  0  0  0  0  0  0  0
  -20.6556  -16.5421   28.1792 C   0  0  0  0  0  0  0  0  0  0  0  0
  -19.6832  -13.5513   29.5043 C   0  0  0  0  0  0  0  0  0  0  0  0
  -31.1088  -12.9220   21.3618 C   0  0  0  0  0  0  0  0  0  0  0  0
  -23.1220  -22.6647   24.0238 C   0  0  0  0  0  0  0  0  0  0  0  0
  -22.5565  -16.2546   25.0300 C   0  0  0  0  0  0  0  0  0  0  0  0
  -22.8951  -15.4281   27.8490 C   0  0  0  0  0  0  0  0  0  0  0  0
  -22.2639  -22.0934   25.1497 C   0  0  0  0  0  0  0  0  0  0  0  0
  -29.4607  -13.6621   18.2938 C   0  0  0  0  0  0  0  0  0  0  0  0
  -23.1440  -21.4627   26.2242 C   0  0  0  0  0  0  0  0  0  0  0  0
  -27.9909  -13.3537   18.5845 C   0  0  0  0  0  0  0  0  0  0  0  0
  -30.3937  -12.6824   19.0022 C   0  0  0  0  0  0  0  0  0  0  0  0
  -28.7067  -12.2530   20.7466 C   0  0  0  0  0  0  0  0  0  0  0  0
  -23.9603  -20.2964   25.6541 C   0  0  1  0  0  0  0  0  0  0  0  0
  -22.0005  -17.0850   26.1827 C   0  0  1  0  0  0  0  0  0  0  0  0
  -27.7289  -13.2484   20.0989 C   0  0  2  0  0  0  0  0  0  0  0  0
  -17.8225  -12.4865   30.8088 C   0  0  0  0  0  0  0  0  0  0  0  0
  -28.6159  -11.6812   30.2720 C   0  0  0  0  0  0  0  0  0  0  0  0
  -30.8841  -12.0225   29.3046 C   0  0  0  0  0  0  0  0  0  0  0  0
  -21.6896  -17.8633   30.7278 C   0  0  0  0  0  0  0  0  0  0  0  0
  -20.4893  -16.1038   32.0437 C   0  0  0  0  0  0  0  0  0  0  0  0
  -19.2002  -17.6682   30.5899 C   0  0  0  0  0  0  0  0  0  0  0  0
  -19.0733  -11.6590   27.3121 C   0  0  0  0  0  0  0  0  0  0  0  0
  -31.6702  -13.1353   23.7698 C   0  0  0  0  0  0  0  0  0  0  0  0
  -27.3596  -13.0030   27.8370 C   0  0  0  0  0  0  0  0  0  1  0  0
  -28.8372  -12.5650   27.8667 C   0  0  2  0  0  0  0  0  0  0  0  0
  -20.6025  -15.8554   29.5225 C   0  0  1  0  0  0  0  0  0  0  0  0
  -18.3706  -12.7930   29.4237 C   0  0  2  0  0  0  0  0  0  0  0  0
  -29.4385  -12.5438   29.3064 C   0  0  0  0  0  0  0  0  0  0  0  0
  -20.5146  -16.8654   30.7013 C   0  0  0  0  0  0  0  0  0  0  0  0
  -29.7349  -14.7567   27.2336 N   0  0  0  0  0  0  0  0  0  0  0  0
  -25.9396  -11.6081   20.5348 N   0  0  0  0  0  0  0  0  0  0  0  0
  -26.2817  -12.9000   20.3938 N   0  0  0  0  0  0  0  0  0  0  0  0
  -21.7947  -16.2967   27.3994 N   0  0  0  0  0  0  0  0  0  0  0  0
  -30.0941  -12.6309   20.4352 N   0  0  0  0  0  0  0  0  0  0  0  0
  -25.4062  -15.1007   20.4307 N   0  0  0  0  0  0  0  0  0  0  0  0
  -21.7907  -12.5268   21.2672 N   0  0  0  0  0  0  0  0  0  0  0  0
  -23.1306  -19.1188   25.5158 N   0  0  0  0  0  0  0  0  0  0  0  0
  -19.4886  -14.9155   29.4567 N   0  0  0  0  0  0  0  0  0  0  0  0
  -30.7388  -12.8563   22.6995 N   0  0  0  0  0  0  0  0  0  0  0  0
  -18.5600  -11.5054   28.6977 N   0  3  0  0  0  0  0  0  0  0  0  0
  -22.5157  -14.6842   20.9859 O   0  0  0  0  0  0  0  0  0  0  0  0
  -23.3322  -18.3180   27.6931 O   0  0  0  0  0  0  0  0  0  0  0  0
  -19.7177  -17.2639   27.8314 O   0  0  0  0  0  0  0  0  0  0  0  0
  -20.7719  -12.9897   29.6037 O   0  0  0  0  0  0  0  0  0  0  0  0
  -32.2579  -13.2237   21.0220 O   0  0  0  0  0  0  0  0  0  0  0  0
  -21.7145   -6.9671   21.6113 O   0  0  0  0  0  0  0  0  0  0  0  0
  -26.8385  -12.8566   26.5166 O   0  0  0  0  0  0  0  0  0  1  0  0
  -18.1476   -6.8805   25.8153 F   0  0  0  0  0  0  0  0  0  0  0  0
  -21.9814   -5.1304   23.6602 F   0  0  0  0  0  0  0  0  0  0  0  0
  1  2  1  0  0  0  0
  1  5  2  0  0  0  0
  2  6  2  0  0  0  0
  3  8  2  0  0  0  0
  3 18  1  0  0  0  0
  4  9  1  0  0  0  0
  4 18  2  0  0  0  0
  5 20  1  0  0  0  0
  6 22  1  0  0  0  0
  7 10  2  0  0  0  0
  7 21  1  0  0  0  0
  8 25  1  0  0  0  0
  9 25  2  0  0  0  0
 10 26  1  0  0  0  0
 11 12  2  0  0  0  0
 11 27  1  0  0  0  0
 12 28  1  0  0  0  0
 13 17  2  0  0  0  0
 13 24  1  0  0  0  0
 14 23  1  0  0  0  0
 14 26  2  0  0  0  0
 15 24  2  0  0  0  0
 15 31  1  0  0  0  0
 16 28  2  0  0  0  0
 16 29  1  0  0  0  0
 17 64  1  0  0  0  0
 18 30  1  0  0  0  0
 19 30  1  0  0  0  0
 19 32  2  0  0  0  0
 19 33  1  0  0  0  0
 20 22  2  0  0  0  0
 20 38  1  0  0  0  0
 21 23  2  0  0  0  0
 21 39  1  0  0  0  0
 22 47  1  0  0  0  0
 23 40  1  0  0  0  0
 24 57  1  0  0  0  0
 25 80  1  0  0  0  0
 26 81  1  0  0  0  0
 27 29  2  0  0  0  0
 27 80  1  0  0  0  0
 28 82  1  0  0  0  0
 29 83  1  0  0  0  0
 30 65  2  0  0  0  0
 31 59  1  0  0  0  0
 31 64  2  0  0  0  0
 32 66  1  0  0  0  0
 32 69  1  0  0  0  0
 33 70  1  0  0  0  0
 33 75  2  0  0  0  0
 34 48  1  0  0  0  0
 34 71  1  0  0  0  0
 34 76  2  0  0  0  0
 35 60  1  0  0  0  0
 35 67  1  0  0  0  0
 35 77  2  0  0  0  0
 36 61  1  0  0  0  0
 36 72  1  0  0  0  0
 36 78  2  0  0  0  0
 37 68  1  0  0  0  0
 37 73  1  0  0  0  0
 37 79  2  0  0  0  0
 38 41  1  0  0  0  0
 39 48  1  0  0  0  0
 40 67  1  0  0  0  0
 41 43  1  0  0  0  0
 42 44  1  0  0  0  0
 42 45  1  0  0  0  0
 43 47  1  0  0  0  0
 44 49  1  0  0  0  0
 45 68  1  0  0  0  0
 46 49  1  0  0  0  0
 46 68  1  0  0  0  0
 47 71  1  0  0  0  0
 48 67  1  0  0  0  0
 49 66  1  0  0  0  0
 50 61  1  0  0  0  0
 51 62  1  0  0  0  0
 52 62  1  0  0  0  0
 53 63  1  0  0  0  0
 54 63  1  0  0  0  0
 55 63  1  0  0  0  0
 56 74  1  0  0  0  0
 57 73  1  0  0  0  0
 58 59  1  0  0  0  0
 58 81  1  0  0  0  0
 59 62  1  0  0  0  0
 60 63  1  0  0  0  0
 60 72  1  0  0  0  0
 61 74  1  0  0  0  0
 65 66  1  0  0  0  0
M  CHG  1  74   1
M  ISO  4  37 100  58 101  73 100  81 101
M  END
> <Batch ID>
0098

> <Smiles>
CNC(C)C(=O)NC(C(=O)N1Cc2cc([101O:1][101CH2:1]C(c3cc(C[100NH:0][100C:0](=O)N4CCCC(n5nc(-c6ccc(Oc7ccc(F)cc7F)cc6)c(C(N)=O)c5N)C4)ccn3)C(C)C)ccc2CC1C(=O)NC1CCCc2ccccc21)C(C)(C)C

> <Shape>
0.134

> <Color>
0.174

> <Negative vol penalty>
0.000

$$$$

  -OEChem-04052319293D

 80 87  0     1  0  0  0  0  0999 V2000
  -24.7322  -28.8888   19.9042 C   0  0  0  0  0  0  0  0  0  0  0  0
  -24.8416  -27.6740   19.2352 C   0  0  0  0  0  0  0  0  0  0  0  0
  -24.2600  -15.9096   22.4434 C   0  0  0  0  0  0  0  0  0  0  0  0
  -23.3448  -15.9261   20.2075 C   0  0  0  0  0  0  0  0  0  0  0  0
  -25.7434  -29.2988   20.7721 C   0  0  0  0  0  0  0  0  0  0  0  0
  -25.9628  -26.8689   19.4328 C   0  0  0  0  0  0  0  0  0  0  0  0
  -24.7626  -21.9927   20.0859 C   0  0  0  0  0  0  0  0  0  0  0  0
  -23.6096  -17.1125   22.7185 C   0  0  0  0  0  0  0  0  0  0  0  0
  -22.6943  -17.1289   20.4826 C   0  0  0  0  0  0  0  0  0  0  0  0
  -24.4444  -21.2570   18.9452 C   0  0  0  0  0  0  0  0  0  0  0  0
  -20.4859  -18.1284   23.5205 C   0  0  0  0  0  0  0  0  0  0  0  0
  -19.8145  -18.2385   24.7382 C   0  0  0  0  0  0  0  0  0  0  0  0
  -26.6694  -20.3250   18.9329 C   0  0  0  0  0  0  0  0  0  0  0  0
  -21.2244  -20.1036   25.3469 C   0  0  0  0  0  0  0  0  0  0  0  0
  -24.1277  -15.3165   21.1878 C   0  0  0  0  0  0  0  0  0  0  0  0
  -24.2997  -12.7729   21.0978 C   0  0  0  0  0  0  0  0  0  0  0  0
  -26.8731  -28.4939   20.9879 C   0  0  0  0  0  0  0  0  0  0  0  0
  -26.0422  -21.9083   20.6533 C   0  0  0  0  0  0  0  0  0  0  0  0
  -26.9908  -27.2692   20.3034 C   0  0  0  0  0  0  0  0  0  0  0  0
  -27.0005  -21.0587   20.0823 C   0  0  0  0  0  0  0  0  0  0  0  0
  -22.8267  -17.7221   21.7382 C   0  0  0  0  0  0  0  0  0  0  0  0
  -25.3987  -20.4252   18.3669 C   0  0  0  0  0  0  0  0  0  0  0  0
  -21.5266  -19.0058   23.2160 C   0  0  0  0  0  0  0  0  0  0  0  0
  -20.1837  -19.2261   25.6514 C   0  0  0  0  0  0  0  0  0  0  0  0
  -21.8958  -19.9935   24.1292 C   0  0  0  0  0  0  0  0  0  0  0  0
  -24.7998  -14.0743   20.9028 C   0  0  0  0  0  0  0  0  0  0  0  0
  -25.3139  -11.9484   20.6756 C   0  0  0  0  0  0  0  0  0  0  0  0
  -23.0316  -12.3473   21.6142 C   0  0  0  0  0  0  0  0  0  0  0  0
  -28.4070  -23.9684   21.1705 C   0  0  0  0  0  0  0  0  0  0  0  0
  -29.7382  -21.4512   22.7242 C   0  0  0  0  0  0  0  0  0  0  0  0
  -29.9291  -18.0678   23.1280 C   0  0  0  0  0  0  0  0  0  0  0  0
  -29.8411  -12.6945   16.8287 C   0  0  0  0  0  0  0  0  0  0  0  0
  -27.9625  -29.0012   21.8992 C   0  0  0  0  0  0  0  0  0  0  0  0
  -26.3613  -22.6879   21.8994 C   0  0  0  0  0  0  0  0  0  0  0  0
  -28.3823  -20.9172   20.6647 C   0  0  0  0  0  0  0  0  0  0  0  0
  -28.9419  -27.9165   22.3402 C   0  0  0  0  0  0  0  0  0  0  0  0
  -30.0775  -11.7821   20.2621 C   0  0  0  0  0  0  0  0  0  0  0  0
  -29.3776  -27.0731   21.1462 C   0  0  0  0  0  0  0  0  0  0  0  0
  -28.7066  -12.1487   20.8332 C   0  0  0  0  0  0  0  0  0  0  0  0
  -30.5349  -12.7848   19.2050 C   0  0  0  0  0  0  0  0  0  0  0  0
  -28.2014  -13.3808   18.6826 C   0  0  0  0  0  0  0  0  0  0  0  0
  -28.1801  -26.3566   20.5105 C   0  0  1  0  0  0  0  0  0  0  0  0
  -27.8568  -22.9183   22.0936 C   0  0  1  0  0  0  0  0  0  0  0  0
  -27.6726  -12.3679   19.7125 C   0  0  2  0  0  0  0  0  0  0  0  0
  -30.6245  -15.8791   24.1396 C   0  0  0  0  0  0  0  0  0  0  0  0
  -32.2156  -21.8506   20.9884 C   0  0  0  0  0  0  0  0  0  0  0  0
  -32.9661  -19.5566   21.6537 C   0  0  0  0  0  0  0  0  0  0  0  0
  -32.6953  -21.3300   23.3870 C   0  0  0  0  0  0  0  0  0  0  0  0
  -27.6844  -18.1133   25.0563 C   0  0  0  0  0  0  0  0  0  0  0  0
  -26.8847  -15.3457   11.5941 C   0  0  0  0  0  0  0  0  0  0  0  0
  -26.6233  -17.2467   14.8531 C   0  0  0  0  0  0  0  0  0  0  0  0
  -25.5692  -18.1469   15.4933 C   0  0  0  0  0  0  0  0  0  0  0  0
  -28.7152  -13.8871   13.6678 C   0  0  0  0  0  0  0  0  0  0  0  0
  -28.9937  -12.6379   14.4968 C   0  0  0  0  0  0  0  0  0  0  0  0
  -26.0744  -16.5602   13.6113 C   0  0  0  0  0  0  0  0  0  0  0  0
  -27.2958  -14.4048   13.8630 C   0  0  0  0  0  0  0  0  0  0  0  0
  -26.1168  -18.8744   16.7130 C   0  0  0  0  0  0  0  0  0  1  0  0
  -30.6397  -20.3065   22.3293 C   0  0  1  0  0  0  0  0  0  0  0  0
  -29.9060  -17.1991   24.3727 C   0  0  2  0  0  0  0  0  0  0  0  0
  -32.1038  -20.7648   22.0773 C   0  0  0  0  0  0  0  0  0  0  0  0
  -26.0358  -14.0812   20.3964 N   0  0  0  0  0  0  0  0  0  0  0  0
  -26.3208  -12.7740   20.2696 N   0  0  0  0  0  0  0  0  0  0  0  0
  -28.6480  -21.7048   21.8798 N   0  0  0  0  0  0  0  0  0  0  0  0
  -29.5103  -12.9457   18.1705 N   0  0  0  0  0  0  0  0  0  0  0  0
  -25.4337  -10.6051   20.6159 N   0  0  0  0  0  0  0  0  0  0  0  0
  -22.1055  -13.3254   22.0013 N   0  0  0  0  0  0  0  0  0  0  0  0
  -27.8029  -25.2043   21.3007 N   0  0  0  0  0  0  0  0  0  0  0  0
  -30.5007  -19.2982   23.3745 N   0  0  0  0  0  0  0  0  0  0  0  0
  -28.8099  -12.8646   15.9130 N   0  0  0  0  0  0  0  0  0  0  0  0
  -28.5010  -16.9050   24.7731 N   0  3  0  0  0  0  0  0  0  0  0  0
  -27.1151  -15.6646   13.0514 N   0  3  1  0  0  0  0  0  0  0  0  0
  -22.7351  -11.1354   21.7443 O   0  0  0  0  0  0  0  0  0  0  0  0
  -29.3136  -23.6791   20.3983 O   0  0  0  0  0  0  0  0  0  0  0  0
  -29.9880  -22.0921   23.7482 O   0  0  0  0  0  0  0  0  0  0  0  0
  -29.4877  -17.6912   22.0445 O   0  0  0  0  0  0  0  0  0  0  0  0
  -30.9702  -12.3396   16.4737 O   0  0  0  0  0  0  0  0  0  0  0  0
  -22.1916  -18.8957   22.0064 O   0  0  0  0  0  0  0  0  0  0  0  0
  -25.0910  -19.7065   17.2530 O   0  0  0  0  0  0  0  0  0  1  0  0
  -19.5379  -19.3328   26.8200 F   0  0  0  0  0  0  0  0  0  0  0  0
  -22.8940  -20.8401   23.8418 F   0  0  0  0  0  0  0  0  0  0  0  0
  1  2  1  0  0  0  0
  1  5  2  0  0  0  0
  2  6  2  0  0  0  0
  3  8  2  0  0  0  0
  3 15  1  0  0  0  0
  4  9  1  0  0  0  0
  4 15  2  0  0  0  0
  5 17  1  0  0  0  0
  6 19  1  0  0  0  0
  7 10  2  0  0  0  0
  7 18  1  0  0  0  0
  8 21  1  0  0  0  0
  9 21  2  0  0  0  0
 10 22  1  0  0  0  0
 11 12  2  0  0  0  0
 11 23  1  0  0  0  0
 12 24  1  0  0  0  0
 13 20  1  0  0  0  0
 13 22  2  0  0  0  0
 14 24  2  0  0  0  0
 14 25  1  0  0  0  0
 15 26  1  0  0  0  0
 16 26  1  0  0  0  0
 16 27  2  0  0  0  0
 16 28  1  0  0  0  0
 17 19  2  0  0  0  0
 17 33  1  0  0  0  0
 18 20  2  0  0  0  0
 18 34  1  0  0  0  0
 19 42  1  0  0  0  0
 20 35  1  0  0  0  0
 21 77  1  0  0  0  0
 22 78  1  0  0  0  0
 23 25  2  0  0  0  0
 23 77  1  0  0  0  0
 24 79  1  0  0  0  0
 25 80  1  0  0  0  0
 26 61  2  0  0  0  0
 27 62  1  0  0  0  0
 27 65  1  0  0  0  0
 28 66  1  0  0  0  0
 28 72  2  0  0  0  0
 29 43  1  0  0  0  0
 29 67  1  0  0  0  0
 29 73  2  0  0  0  0
 30 58  1  0  0  0  0
 30 63  1  0  0  0  0
 30 74  2  0  0  0  0
 31 59  1  0  0  0  0
 31 68  1  0  0  0  0
 31 75  2  0  0  0  0
 32 64  1  0  0  0  0
 32 69  1  0  0  0  0
 32 76  2  0  0  0  0
 33 36  1  0  0  0  0
 34 43  1  0  0  0  0
 35 63  1  0  0  0  0
 36 38  1  0  0  0  0
 37 39  1  0  0  0  0
 37 40  1  0  0  0  0
 38 42  1  0  0  0  0
 39 44  1  0  0  0  0
 40 64  1  0  0  0  0
 41 44  1  0  0  0  0
 41 64  1  0  0  0  0
 42 67  1  0  0  0  0
 43 63  1  0  0  0  0
 44 62  1  0  0  0  0
 45 59  1  0  0  0  0
 46 60  1  0  0  0  0
 47 60  1  0  0  0  0
 48 60  1  0  0  0  0
 49 70  1  0  0  0  0
 50 71  1  0  0  0  0
 51 52  1  0  0  0  0
 51 55  1  0  0  0  0
 52 57  1  0  0  0  0
 53 54  1  0  0  0  0
 53 56  1  0  0  0  0
 54 69  1  0  0  0  0
 55 71  1  0  0  0  0
 56 71  1  0  0  0  0
 57 78  1  0  0  0  0
 58 60  1  0  0  0  0
 58 68  1  0  0  0  0
 59 70  1  0  0  0  0
 61 62  1  0  0  0  0
M  CHG  2  70   1  71   1
M  ISO  4  32 100  57 101  69 100  78 101
M  END
> <Batch ID>
0098

> <Smiles>
CNC(C)C(=O)NC(C(=O)N1Cc2cc([101O:1][101CH2:1]CCCN(C)CCC[100NH:0][100C:0](=O)N3CCCC(n4nc(-c5ccc(Oc6ccc(F)cc6F)cc5)c(C(N)=O)c4N)C3)ccc2CC1C(=O)NC1CCCc2ccccc21)C(C)(C)C

> <Shape>
0.186

> <Color>
0.077

> <Negative vol penalty>
0.000

$$$$

  -OEChem-04052319293D

 94102  0     1  0  0  0  0  0999 V2000
  -19.6291  -26.5506   26.0418 C   0  0  0  0  0  0  0  0  0  0  0  0
  -20.9882  -26.6440   25.7598 C   0  0  0  0  0  0  0  0  0  0  0  0
  -24.5340   -9.1772   19.9792 C   0  0  0  0  0  0  0  0  0  0  0  0
  -24.4504   -9.5535   22.3643 C   0  0  0  0  0  0  0  0  0  0  0  0
  -18.6913  -26.9155   25.0768 C   0  0  0  0  0  0  0  0  0  0  0  0
  -21.4103  -27.1014   24.5120 C   0  0  0  0  0  0  0  0  0  0  0  0
  -25.1903  -30.4545   24.8489 C   0  0  0  0  0  0  0  0  0  0  0  0
  -24.2785   -7.8214   20.1842 C   0  0  0  0  0  0  0  0  0  0  0  0
  -24.1948   -8.1976   22.5692 C   0  0  0  0  0  0  0  0  0  0  0  0
  -26.4682  -29.9514   25.0887 C   0  0  0  0  0  0  0  0  0  0  0  0
  -21.5517   -6.1027   22.3557 C   0  0  0  0  0  0  0  0  0  0  0  0
  -20.5438   -5.7639   23.2584 C   0  0  0  0  0  0  0  0  0  0  0  0
  -26.9848  -30.1612   22.7418 C   0  0  0  0  0  0  0  0  0  0  0  0
  -33.7674  -25.0962   21.6960 C   0  0  0  0  0  0  0  0  0  0  0  0
  -22.1517   -4.5616   24.6024 C   0  0  0  0  0  0  0  0  0  0  0  0
  -24.6200  -10.0433   21.0693 C   0  0  0  0  0  0  0  0  0  0  0  0
  -23.9381  -12.4678   20.6638 C   0  0  0  0  0  0  0  0  0  0  0  0
  -19.1022  -27.3867   23.8199 C   0  0  0  0  0  0  0  0  0  0  0  0
  -24.7957  -30.8051   23.5497 C   0  0  0  0  0  0  0  0  0  0  0  0
  -20.4772  -27.4717   23.5287 C   0  0  0  0  0  0  0  0  0  0  0  0
  -25.7022  -30.6709   22.4884 C   0  0  0  0  0  0  0  0  0  0  0  0
  -34.0244  -24.0790   20.7440 C   0  0  0  0  0  0  0  0  0  0  0  0
  -24.1089   -7.3316   21.4792 C   0  0  0  0  0  0  0  0  0  0  0  0
  -27.3647  -29.8019   24.0347 C   0  0  0  0  0  0  0  0  0  0  0  0
  -22.8596   -5.6708   22.5762 C   0  0  0  0  0  0  0  0  0  0  0  0
  -20.8438   -4.9934   24.3818 C   0  0  0  0  0  0  0  0  0  0  0  0
  -23.1596   -4.9003   23.6996 C   0  0  0  0  0  0  0  0  0  0  0  0
  -24.8844  -11.4439   20.8583 C   0  0  0  0  0  0  0  0  0  0  0  0
  -32.5245  -24.8495   22.2361 C   0  0  0  0  0  0  0  0  0  0  0  0
  -32.9307  -23.2418   20.7311 C   0  0  0  0  0  0  0  0  0  0  0  0
  -24.6908  -13.6065   20.5113 C   0  0  0  0  0  0  0  0  0  0  0  0
  -22.5067  -12.3960   20.6245 C   0  0  0  0  0  0  0  0  0  0  0  0
  -22.5422  -29.8053   21.5432 C   0  0  0  0  0  0  0  0  0  0  0  0
  -23.5899  -32.2919   19.7427 C   0  0  0  0  0  0  0  0  0  0  0  0
  -26.1225  -34.4452   18.9704 C   0  0  0  0  0  0  0  0  0  0  0  0
  -28.6986  -16.9054   21.9310 C   0  0  0  0  0  0  0  0  0  0  0  0
  -18.0514  -27.7246   22.7922 C   0  0  0  0  0  0  0  0  0  0  0  0
  -23.4227  -31.3715   23.3118 C   0  0  0  0  0  0  0  0  0  0  0  0
  -25.3345  -31.0519   21.0784 C   0  0  0  0  0  0  0  0  0  0  0  0
  -18.5838  -28.5543   21.6267 C   0  0  0  0  0  0  0  0  0  0  0  0
  -29.6581  -14.2200   19.8478 C   0  0  0  0  0  0  0  0  0  0  0  0
  -19.8932  -27.9681   21.1083 C   0  0  0  0  0  0  0  0  0  0  0  0
  -28.4194  -13.3278   19.9144 C   0  0  0  0  0  0  0  0  0  0  0  0
  -29.9898  -14.8448   21.2042 C   0  0  0  0  0  0  0  0  0  0  0  0
  -27.6178  -14.6778   21.8884 C   0  0  0  0  0  0  0  0  0  0  0  0
  -20.9745  -27.9867   22.1955 C   0  0  1  0  0  0  0  0  0  0  0  0
  -22.9530  -31.2135   21.8689 C   0  0  1  0  0  0  0  0  0  0  0  0
  -27.2279  -14.0854   20.5253 C   0  0  2  0  0  0  0  0  0  0  0  0
  -32.6701  -22.0272   19.9293 C   0  0  0  0  0  0  0  0  0  0  0  0
  -34.7794  -26.7240   17.2060 C   0  0  0  0  0  0  0  0  0  0  0  0
  -26.6946  -36.3420   17.4303 C   0  0  0  0  0  0  0  0  0  0  0  0
  -23.9458  -30.3158   17.4452 C   0  0  0  0  0  0  0  0  0  0  0  0
  -25.3729  -32.0198   16.2929 C   0  0  0  0  0  0  0  0  0  0  0  0
  -22.9793  -32.5248   16.7811 C   0  0  0  0  0  0  0  0  0  0  0  0
  -31.0558  -17.0801   22.8355 C   0  0  0  0  0  0  0  0  0  0  0  0
  -36.4040  -22.4234   21.5245 C   0  0  0  0  0  0  0  0  0  0  0  0
  -26.5529  -36.3048   21.2322 C   0  0  0  0  0  0  0  0  0  0  0  0
  -28.6855  -22.0119   24.0640 C   0  0  0  0  0  0  0  0  0  0  0  0
  -31.7599  -25.6121   23.2886 C   0  0  0  0  0  0  0  0  0  0  0  0
  -34.4527  -25.4946   18.0398 C   0  0  0  0  0  0  0  0  0  0  0  0
  -30.8554  -26.7119   22.7217 C   0  0  0  0  0  0  0  0  0  0  0  0
  -30.1479  -27.5240   23.8075 C   0  0  0  0  0  0  0  0  0  0  0  0
  -35.5807  -25.1722   19.0256 C   0  0  0  0  0  0  0  0  0  0  0  0
  -30.7380  -23.1240   21.9323 C   0  0  0  0  0  0  0  0  0  0  0  0
  -29.8760  -19.0709   21.9807 C   0  0  0  0  0  0  0  0  0  0  0  0
  -30.8244  -21.8729   22.7966 C   0  0  0  0  0  0  0  0  0  0  0  0
  -29.5141  -19.8062   23.2577 C   0  0  0  0  0  0  0  0  0  0  0  0
  -29.2291  -28.5793   23.2070 C   0  0  0  0  0  0  0  0  0  1  0  0
  -35.2435  -23.9473   19.9215 C   0  0  1  0  0  0  0  0  0  0  0  0
  -24.6473  -32.4719   18.6803 C   0  0  1  0  0  0  0  0  0  0  0  0
  -26.1441  -35.9527   18.7934 C   0  0  2  0  0  0  0  0  0  0  0  0
  -24.2429  -31.8240   17.3260 C   0  0  0  0  0  0  0  0  0  0  0  0
  -26.1422  -11.8924   20.8321 N   0  0  0  0  0  0  0  0  0  0  0  0
  -32.0251  -23.7200   21.6418 N   0  0  0  0  0  0  0  0  0  0  0  0
  -25.9915  -13.2108   20.6193 N   0  0  0  0  0  0  0  0  0  0  0  0
  -23.9784  -31.5951   20.8957 N   0  0  0  0  0  0  0  0  0  0  0  0
  -28.8134  -15.5164   21.7731 N   0  0  0  0  0  0  0  0  0  0  0  0
  -24.3602  -14.8977   20.2968 N   0  0  0  0  0  0  0  0  0  0  0  0
  -21.8953  -11.1470   20.7994 N   0  0  0  0  0  0  0  0  0  0  0  0
  -21.5236  -29.3179   22.3395 N   0  0  0  0  0  0  0  0  0  0  0  0
  -24.9082  -33.9051   18.6028 N   0  0  0  0  0  0  0  0  0  0  0  0
  -29.8808  -17.6257   22.1588 N   0  0  0  0  0  0  0  0  0  0  0  0
  -36.4842  -23.6737   20.7437 N   0  3  0  0  0  0  0  0  0  0  0  0
  -26.9939  -36.5852   19.8416 N   0  3  0  0  0  0  0  0  0  0  0  0
  -29.4742  -21.2922   22.9974 N   0  3  1  0  0  0  0  0  0  0  0  0
  -21.7916  -13.4068   20.4234 O   0  0  0  0  0  0  0  0  0  0  0  0
  -23.1067  -29.2060   20.6355 O   0  0  0  0  0  0  0  0  0  0  0  0
  -22.4629  -32.7588   19.5595 O   0  0  0  0  0  0  0  0  0  0  0  0
  -27.0876  -33.8098   19.3892 O   0  0  0  0  0  0  0  0  0  0  0  0
  -27.5992  -17.4717   21.8795 O   0  0  0  0  0  0  0  0  0  0  0  0
  -23.8593   -6.0086   21.6795 O   0  0  0  0  0  0  0  0  0  0  0  0
  -28.6125  -29.3105   24.2660 O   0  0  0  0  0  0  0  0  0  1  0  0
  -19.8761   -4.6695   25.2494 F   0  0  0  0  0  0  0  0  0  0  0  0
  -24.4145   -4.4836   23.9175 F   0  0  0  0  0  0  0  0  0  0  0  0
  1  2  1  0  0  0  0
  1  5  2  0  0  0  0
  2  6  2  0  0  0  0
  3  8  2  0  0  0  0
  3 16  1  0  0  0  0
  4  9  1  0  0  0  0
  4 16  2  0  0  0  0
  5 18  1  0  0  0  0
  6 20  1  0  0  0  0
  7 10  2  0  0  0  0
  7 19  1  0  0  0  0
  8 23  1  0  0  0  0
  9 23  2  0  0  0  0
 10 24  1  0  0  0  0
 11 12  2  0  0  0  0
 11 25  1  0  0  0  0
 12 26  1  0  0  0  0
 13 21  1  0  0  0  0
 13 24  2  0  0  0  0
 14 22  1  0  0  0  0
 14 29  2  0  0  0  0
 15 26  2  0  0  0  0
 15 27  1  0  0  0  0
 16 28  1  0  0  0  0
 17 28  1  0  0  0  0
 17 31  2  0  0  0  0
 17 32  1  0  0  0  0
 18 20  2  0  0  0  0
 18 37  1  0  0  0  0
 19 21  2  0  0  0  0
 19 38  1  0  0  0  0
 20 46  1  0  0  0  0
 21 39  1  0  0  0  0
 22 30  2  0  0  0  0
 22 69  1  0  0  0  0
 23 91  1  0  0  0  0
 24 92  1  0  0  0  0
 25 27  2  0  0  0  0
 25 91  1  0  0  0  0
 26 93  1  0  0  0  0
 27 94  1  0  0  0  0
 28 73  2  0  0  0  0
 29 59  1  0  0  0  0
 29 74  1  0  0  0  0
 30 49  1  0  0  0  0
 30 74  1  0  0  0  0
 31 75  1  0  0  0  0
 31 78  1  0  0  0  0
 32 79  1  0  0  0  0
 32 86  2  0  0  0  0
 33 47  1  0  0  0  0
 33 80  1  0  0  0  0
 33 87  2  0  0  0  0
 34 70  1  0  0  0  0
 34 76  1  0  0  0  0
 34 88  2  0  0  0  0
 35 71  1  0  0  0  0
 35 81  1  0  0  0  0
 35 89  2  0  0  0  0
 36 77  1  0  0  0  0
 36 82  1  0  0  0  0
 36 90  2  0  0  0  0
 37 40  1  0  0  0  0
 38 47  1  0  0  0  0
 39 76  1  0  0  0  0
 40 42  1  0  0  0  0
 41 43  1  0  0  0  0
 41 44  1  0  0  0  0
 42 46  1  0  0  0  0
 43 48  1  0  0  0  0
 44 77  1  0  0  0  0
 45 48  1  0  0  0  0
 45 77  1  0  0  0  0
 46 80  1  0  0  0  0
 47 76  1  0  0  0  0
 48 75  1  0  0  0  0
 50 60  1  0  0  0  0
 51 71  1  0  0  0  0
 52 72  1  0  0  0  0
 53 72  1  0  0  0  0
 54 72  1  0  0  0  0
 55 82  1  0  0  0  0
 56 83  1  0  0  0  0
 57 84  1  0  0  0  0
 58 85  1  0  0  0  0
 59 61  1  0  0  0  0
 60 63  1  0  0  0  0
 61 62  1  0  0  0  0
 62 68  1  0  0  0  0
 63 69  1  0  0  0  0
 64 66  1  0  0  0  0
 64 74  1  0  0  0  0
 65 67  1  0  0  0  0
 65 82  1  0  0  0  0
 66 85  1  0  0  0  0
 67 85  1  0  0  0  0
 68 92  1  0  0  0  0
 69 83  1  0  0  0  0
 70 72  1  0  0  0  0
 70 81  1  0  0  0  0
 71 84  1  0  0  0  0
 73 75  1  0  0  0  0
M  CHG  3  83   1  84   1  85   1
M  ISO  4  36 100  68 101  82 100  92 101
M  END
> <Batch ID>
0098

> <Smiles>
CCCC(NC)c1cc(CCC[101CH2:1][101O:1]c2ccc3c(c2)CN(C(=O)C(NC(=O)C(C)NC)C(C)(C)C)C(C(=O)NC2CCCc4ccccc42)C3)n(CCN(C)CC[100N:0](C)[100C:0](=O)N2CCCC(n3nc(-c4ccc(Oc5ccc(F)cc5F)cc4)c(C(N)=O)c3N)C2)c1C

> <Shape>
0.257

> <Color>
0.110

> <Negative vol penalty>
0.000

$$$$

  -OEChem-04052319293D

 87 95  0     1  0  0  0  0  0999 V2000
  -24.4096  -30.7258   12.7088 C   0  0  0  0  0  0  0  0  0  0  0  0
  -24.4367  -29.3526   12.9302 C   0  0  0  0  0  0  0  0  0  0  0  0
  -22.9983   -9.8920   19.9816 C   0  0  0  0  0  0  0  0  0  0  0  0
  -23.7290   -9.9401   22.2840 C   0  0  0  0  0  0  0  0  0  0  0  0
  -25.4440  -31.5285   13.1878 C   0  0  0  0  0  0  0  0  0  0  0  0
  -25.4989  -28.7812   13.6300 C   0  0  0  0  0  0  0  0  0  0  0  0
  -25.2478  -23.9871   17.4325 C   0  0  0  0  0  0  0  0  0  0  0  0
  -22.2327   -8.7570   20.2482 C   0  0  0  0  0  0  0  0  0  0  0  0
  -22.9634   -8.8050   22.5506 C   0  0  0  0  0  0  0  0  0  0  0  0
  -25.5377  -22.6346   17.2572 C   0  0  0  0  0  0  0  0  0  0  0  0
  -23.2075   -5.4668   22.0735 C   0  0  0  0  0  0  0  0  0  0  0  0
  -23.7971   -4.4487   22.8228 C   0  0  0  0  0  0  0  0  0  0  0  0
  -27.7476  -22.9983   18.1533 C   0  0  0  0  0  0  0  0  0  0  0  0
  -26.4337  -18.9872   20.4779 C   0  0  0  0  0  0  0  0  0  0  0  0
  -28.3937  -18.7237   21.8656 C   0  0  0  0  0  0  0  0  0  0  0  0
  -28.5226  -18.2746   19.4952 C   0  0  0  0  0  0  0  0  0  0  0  0
  -22.0772   -4.6889   24.5025 C   0  0  0  0  0  0  0  0  0  0  0  0
  -23.7465  -10.4836   20.9995 C   0  0  0  0  0  0  0  0  0  0  0  0
  -24.1307  -12.9995   20.8260 C   0  0  0  0  0  0  0  0  0  0  0  0
  -26.5145  -30.9680   13.9022 C   0  0  0  0  0  0  0  0  0  0  0  0
  -26.2111  -24.8588   17.9602 C   0  0  0  0  0  0  0  0  0  0  0  0
  -26.5493  -29.5770   14.1179 C   0  0  0  0  0  0  0  0  0  0  0  0
  -27.4667  -24.3608   18.3367 C   0  0  0  0  0  0  0  0  0  0  0  0
  -27.0440  -19.0491   21.7305 C   0  0  0  0  0  0  0  0  0  0  0  0
  -27.1730  -18.5999   19.3602 C   0  0  0  0  0  0  0  0  0  0  0  0
  -29.1330  -18.3365   20.7479 C   0  0  0  0  0  0  0  0  0  0  0  0
  -22.2152   -8.2135   21.5327 C   0  0  0  0  0  0  0  0  0  0  0  0
  -26.7887  -22.1406   17.6149 C   0  0  0  0  0  0  0  0  0  0  0  0
  -22.0527   -6.0960   22.5387 C   0  0  0  0  0  0  0  0  0  0  0  0
  -23.2320   -4.0597   24.0373 C   0  0  0  0  0  0  0  0  0  0  0  0
  -21.4876   -5.7070   23.7532 C   0  0  0  0  0  0  0  0  0  0  0  0
  -24.5380  -11.6558   20.7245 C   0  0  0  0  0  0  0  0  0  0  0  0
  -25.2394  -13.7229   20.4599 C   0  0  0  0  0  0  0  0  0  0  0  0
  -22.8635  -13.5450   21.2163 C   0  0  0  0  0  0  0  0  0  0  0  0
  -27.7308  -27.4367   16.8884 C   0  0  0  0  0  0  0  0  0  0  0  0
  -28.8765  -27.5436   19.9213 C   0  0  0  0  0  0  0  0  0  0  0  0
  -29.5989  -25.8694   22.8061 C   0  0  0  0  0  0  0  0  0  0  0  0
  -30.7361  -14.6587   20.6965 C   0  0  0  0  0  0  0  0  0  0  0  0
  -27.6335  -31.8698   14.3594 C   0  0  0  0  0  0  0  0  0  0  0  0
  -25.8737  -26.3098   18.1680 C   0  0  0  0  0  0  0  0  0  0  0  0
  -28.5287  -25.2512   18.9264 C   0  0  0  0  0  0  0  0  0  0  0  0
  -28.5341  -31.2353   15.4162 C   0  0  0  0  0  0  0  0  0  0  0  0
  -29.5904  -12.2379   18.3505 C   0  0  0  0  0  0  0  0  0  0  0  0
  -28.9141  -29.8148   15.0104 C   0  0  0  0  0  0  0  0  0  0  0  0
  -28.1430  -11.9772   18.7712 C   0  0  0  0  0  0  0  0  0  0  0  0
  -30.4956  -12.4719   19.5579 C   0  0  0  0  0  0  0  0  0  0  0  0
  -28.5885  -13.2651   20.9023 C   0  0  0  0  0  0  0  0  0  0  0  0
  -27.6719  -28.9233   14.8940 C   0  0  1  0  0  0  0  0  0  0  0  0
  -27.1063  -27.2062   18.2355 C   0  0  1  0  0  0  0  0  0  0  0  0
  -27.6267  -13.0787   19.7164 C   0  0  2  0  0  0  0  0  0  0  0  0
  -25.4805  -17.1032   23.5523 C   0  0  0  0  0  0  0  0  0  0  0  0
  -25.7487  -20.9162   22.7920 C   0  0  0  0  0  0  0  0  0  0  0  0
  -25.3837  -17.4935   17.9796 C   0  0  0  0  0  0  0  0  0  0  0  0
  -30.5623  -26.2171   25.0970 C   0  0  0  0  0  0  0  0  0  0  0  0
  -31.6819  -27.6360   18.7249 C   0  0  0  0  0  0  0  0  0  0  0  0
  -32.5875  -27.0277   20.9783 C   0  0  0  0  0  0  0  0  0  0  0  0
  -31.3291  -29.1602   20.6759 C   0  0  0  0  0  0  0  0  0  0  0  0
  -27.0781  -25.0430   24.1182 C   0  0  0  0  0  0  0  0  0  0  0  0
  -25.0512  -18.5325   23.2441 C   0  0  0  0  0  0  0  0  0  0  0  0
  -30.8210  -16.8360   21.8845 C   0  0  0  0  0  0  0  0  0  0  0  0
  -25.9862  -19.9031   17.5412 C   0  0  0  0  0  0  0  0  0  1  0  0
  -26.2531  -19.4636   22.9252 C   0  0  1  0  0  0  0  0  0  0  0  0
  -26.5082  -18.5327   17.9942 C   0  0  1  0  0  0  0  0  0  0  0  0
  -30.5761  -17.9886   20.8928 C   0  0  2  0  0  0  0  0  0  0  0  0
  -30.0761  -26.9648   20.6319 C   0  0  1  0  0  0  0  0  0  0  0  0
  -29.2938  -26.1875   24.2587 C   0  0  2  0  0  0  0  0  0  0  0  0
  -31.3995  -27.6805   20.2399 C   0  0  0  0  0  0  0  0  0  0  0  0
  -25.8063  -11.5302   20.3251 N   0  0  0  0  0  0  0  0  0  0  0  0
  -26.2056  -12.8043   20.1723 N   0  0  0  0  0  0  0  0  0  0  0  0
  -28.1529  -26.6636   19.1041 N   0  0  0  0  0  0  0  0  0  0  0  0
  -29.9506  -13.5293   20.4127 N   0  0  0  0  0  0  0  0  0  0  0  0
  -25.4722  -15.0488   20.3591 N   0  0  0  0  0  0  0  0  0  0  0  0
  -21.8328  -12.6601   21.5611 N   0  0  0  0  0  0  0  0  0  0  0  0
  -27.2133  -28.5215   16.2066 N   0  0  0  0  0  0  0  0  0  0  0  0
  -29.7694  -27.0147   22.0574 N   0  0  0  0  0  0  0  0  0  0  0  0
  -30.1414  -15.6162   21.5091 N   0  0  0  0  0  0  0  0  0  0  0  0
  -31.4215  -19.1568   21.3264 N   0  3  0  0  0  0  0  0  0  0  0  0
  -28.3757  -25.1628   24.8315 N   0  3  0  0  0  0  0  0  0  0  0  0
  -22.6465  -14.7803   21.2423 O   0  0  0  0  0  0  0  0  0  0  0  0
  -28.6176  -26.6868   16.4973 O   0  0  0  0  0  0  0  0  0  0  0  0
  -28.5879  -28.7308   20.0907 O   0  0  0  0  0  0  0  0  0  0  0  0
  -29.6817  -24.7199   22.3791 O   0  0  0  0  0  0  0  0  0  0  0  0
  -31.8804  -14.8055   20.2539 O   0  0  0  0  0  0  0  0  0  0  0  0
  -21.4681   -7.1060   21.7933 O   0  0  0  0  0  0  0  0  0  0  0  0
  -27.0744  -20.8211   17.4443 O   0  0  0  0  0  0  0  0  0  1  0  0
  -23.7974   -3.0810   24.7560 F   0  0  0  0  0  0  0  0  0  0  0  0
  -20.3776   -6.3069   24.2047 F   0  0  0  0  0  0  0  0  0  0  0  0
  1  2  1  0  0  0  0
  1  5  2  0  0  0  0
  2  6  2  0  0  0  0
  3  8  2  0  0  0  0
  3 18  1  0  0  0  0
  4  9  1  0  0  0  0
  4 18  2  0  0  0  0
  5 20  1  0  0  0  0
  6 22  1  0  0  0  0
  7 10  2  0  0  0  0
  7 21  1  0  0  0  0
  8 27  1  0  0  0  0
  9 27  2  0  0  0  0
 10 28  1  0  0  0  0
 11 12  2  0  0  0  0
 11 29  1  0  0  0  0
 12 30  1  0  0  0  0
 13 23  1  0  0  0  0
 13 28  2  0  0  0  0
 14 24  2  0  0  0  0
 14 25  1  0  0  0  0
 15 24  1  0  0  0  0
 15 26  2  0  0  0  0
 16 25  2  0  0  0  0
 16 26  1  0  0  0  0
 17 30  2  0  0  0  0
 17 31  1  0  0  0  0
 18 32  1  0  0  0  0
 19 32  1  0  0  0  0
 19 33  2  0  0  0  0
 19 34  1  0  0  0  0
 20 22  2  0  0  0  0
 20 39  1  0  0  0  0
 21 23  2  0  0  0  0
 21 40  1  0  0  0  0
 22 48  1  0  0  0  0
 23 41  1  0  0  0  0
 24 62  1  0  0  0  0
 25 63  1  0  0  0  0
 26 64  1  0  0  0  0
 27 84  1  0  0  0  0
 28 85  1  0  0  0  0
 29 31  2  0  0  0  0
 29 84  1  0  0  0  0
 30 86  1  0  0  0  0
 31 87  1  0  0  0  0
 32 68  2  0  0  0  0
 33 69  1  0  0  0  0
 33 72  1  0  0  0  0
 34 73  1  0  0  0  0
 34 79  2  0  0  0  0
 35 49  1  0  0  0  0
 35 74  1  0  0  0  0
 35 80  2  0  0  0  0
 36 65  1  0  0  0  0
 36 70  1  0  0  0  0
 36 81  2  0  0  0  0
 37 66  1  0  0  0  0
 37 75  1  0  0  0  0
 37 82  2  0  0  0  0
 38 71  1  0  0  0  0
 38 76  1  0  0  0  0
 38 83  2  0  0  0  0
 39 42  1  0  0  0  0
 40 49  1  0  0  0  0
 41 70  1  0  0  0  0
 42 44  1  0  0  0  0
 43 45  1  0  0  0  0
 43 46  1  0  0  0  0
 44 48  1  0  0  0  0
 45 50  1  0  0  0  0
 46 71  1  0  0  0  0
 47 50  1  0  0  0  0
 47 71  1  0  0  0  0
 48 74  1  0  0  0  0
 49 70  1  0  0  0  0
 50 69  1  0  0  0  0
 51 59  1  0  0  0  0
 52 62  1  0  0  0  0
 53 63  1  0  0  0  0
 54 66  1  0  0  0  0
 55 67  1  0  0  0  0
 56 67  1  0  0  0  0
 57 67  1  0  0  0  0
 58 78  1  0  0  0  0
 59 62  1  0  0  0  0
 60 64  1  0  0  0  0
 60 76  1  0  0  0  0
 61 63  1  0  0  0  0
 61 85  1  0  0  0  0
 64 77  1  0  0  0  0
 65 67  1  0  0  0  0
 65 75  1  0  0  0  0
 66 78  1  0  0  0  0
 68 69  1  0  0  0  0
M  CHG  2  77   1  78   1
M  ISO  4  38 100  61 101  76 100  85 101
M  END
> <Batch ID>
0098

> <Smiles>
CCC(C)c1cc(C(N)C[100NH:0][100C:0](=O)N2CCCC(n3nc(-c4ccc(Oc5ccc(F)cc5F)cc4)c(C(N)=O)c3N)C2)cc(C(C)[101CH2:1][101O:1]c2ccc3c(c2)CN(C(=O)C(NC(=O)C(C)NC)C(C)(C)C)C(C(=O)NC2CCCc4ccccc42)C3)c1

> <Shape>
0.254

> <Color>
0.186

> <Negative vol penalty>
0.000

$$$$

  -OEChem-04052319293D

 84 92  0     1  0  0  0  0  0999 V2000
  -17.4015  -31.9281   23.6185 C   0  0  0  0  0  0  0  0  0  0  0  0
  -18.6453  -32.3474   23.1576 C   0  0  0  0  0  0  0  0  0  0  0  0
  -27.6722  -12.2399   22.2466 C   0  0  0  0  0  0  0  0  0  0  0  0
  -28.2015  -12.7668   19.9489 C   0  0  0  0  0  0  0  0  0  0  0  0
  -17.2550  -30.6535   24.1643 C   0  0  0  0  0  0  0  0  0  0  0  0
  -19.7438  -31.4927   23.2433 C   0  0  0  0  0  0  0  0  0  0  0  0
  -25.7979  -29.8197   19.7987 C   0  0  0  0  0  0  0  0  0  0  0  0
  -26.8041  -11.2365   21.8165 C   0  0  0  0  0  0  0  0  0  0  0  0
  -27.3334  -11.7634   19.5188 C   0  0  0  0  0  0  0  0  0  0  0  0
  -27.1650  -29.6765   20.0312 C   0  0  0  0  0  0  0  0  0  0  0  0
  -23.6678  -11.0203   20.5749 C   0  0  0  0  0  0  0  0  0  0  0  0
  -22.4167  -10.9409   21.1863 C   0  0  0  0  0  0  0  0  0  0  0  0
  -26.7764  -27.4680   20.9204 C   0  0  0  0  0  0  0  0  0  0  0  0
  -30.8235  -25.8380   20.1946 C   0  0  0  0  0  0  0  0  0  0  0  0
  -22.9212   -8.6973   21.9272 C   0  0  0  0  0  0  0  0  0  0  0  0
  -31.1522  -26.6468   17.9823 C   0  0  0  0  0  0  0  0  0  0  0  0
  -28.3709  -13.0051   21.3128 C   0  0  0  0  0  0  0  0  0  0  0  0
  -30.6398  -13.9143   22.0430 C   0  0  0  0  0  0  0  0  0  0  0  0
  -18.3501  -29.7792   24.2479 C   0  0  0  0  0  0  0  0  0  0  0  0
  -24.9069  -28.7907   20.1359 C   0  0  0  0  0  0  0  0  0  0  0  0
  -19.6121  -30.2057   23.7920 C   0  0  0  0  0  0  0  0  0  0  0  0
  -25.3986  -27.5996   20.6887 C   0  0  0  0  0  0  0  0  0  0  0  0
  -31.0591  -26.9089   19.3396 C   0  0  0  0  0  0  0  0  0  0  0  0
  -30.6902  -24.5558   19.6735 C   0  0  0  0  0  0  0  0  0  0  0  0
  -26.6347  -10.9982   20.4526 C   0  0  0  0  0  0  0  0  0  0  0  0
  -27.6542  -28.5017   20.5948 C   0  0  0  0  0  0  0  0  0  0  0  0
  -24.5457   -9.9382   20.6395 C   0  0  0  0  0  0  0  0  0  0  0  0
  -22.0434   -9.7794   21.8625 C   0  0  0  0  0  0  0  0  0  0  0  0
  -24.1724   -8.7767   21.3156 C   0  0  0  0  0  0  0  0  0  0  0  0
  -29.2675  -14.0422   21.7564 C   0  0  0  0  0  0  0  0  0  0  0  0
  -30.7996  -24.3991   18.3012 C   0  0  0  0  0  0  0  0  0  0  0  0
  -31.0305  -15.1756   22.4214 C   0  0  0  0  0  0  0  0  0  0  0  0
  -31.4858  -12.7589   21.9734 C   0  0  0  0  0  0  0  0  0  0  0  0
  -22.4482  -28.5167   22.1318 C   0  0  0  0  0  0  0  0  0  0  0  0
  -22.1316  -25.6112   20.7246 C   0  0  0  0  0  0  0  0  0  0  0  0
  -23.5937  -23.0467   19.0120 C   0  0  0  0  0  0  0  0  0  0  0  0
  -28.8834  -20.5170   21.1120 C   0  0  0  0  0  0  0  0  0  0  0  0
  -18.1533  -28.4284   24.8891 C   0  0  0  0  0  0  0  0  0  0  0  0
  -23.4381  -28.9502   19.8540 C   0  0  0  0  0  0  0  0  0  0  0  0
  -24.4863  -26.4570   21.0498 C   0  0  0  0  0  0  0  0  0  0  0  0
  -19.2857  -27.4463   24.6004 C   0  0  0  0  0  0  0  0  0  0  0  0
  -29.3394  -19.1718   24.4407 C   0  0  0  0  0  0  0  0  0  0  0  0
  -20.6399  -28.1175   24.8062 C   0  0  0  0  0  0  0  0  0  0  0  0
  -29.5039  -17.6798   24.1459 C   0  0  0  0  0  0  0  0  0  0  0  0
  -28.3094  -19.8085   23.5123 C   0  0  0  0  0  0  0  0  0  0  0  0
  -28.7533  -18.1294   21.7638 C   0  0  0  0  0  0  0  0  0  0  0  0
  -20.8221  -29.2984   23.8451 C   0  0  1  0  0  0  0  0  0  0  0  0
  -22.5630  -28.0409   20.7112 C   0  0  1  0  0  0  0  0  0  0  0  0
  -29.7979  -17.4324   22.6544 C   0  0  2  0  0  0  0  0  0  0  0  0
  -31.9485  -22.5979   16.9635 C   0  0  0  0  0  0  0  0  0  0  0  0
  -29.4644  -22.9546   16.7248 C   0  0  0  0  0  0  0  0  0  0  0  0
  -23.0902  -20.7910   18.0345 C   0  0  0  0  0  0  0  0  0  0  0  0
  -22.1849  -24.3904   23.5204 C   0  0  0  0  0  0  0  0  0  0  0  0
  -22.6362  -22.1656   22.4646 C   0  0  0  0  0  0  0  0  0  0  0  0
  -20.5093  -23.3710   21.9688 C   0  0  0  0  0  0  0  0  0  0  0  0
  -24.2687  -23.9528   16.2766 C   0  0  0  0  0  0  0  0  0  0  0  0
  -31.2077  -28.3130   19.8731 C   0  0  0  0  0  0  0  0  0  0  0  0
  -30.4395  -23.4037   20.5841 C   0  0  0  0  0  0  0  0  0  0  0  0
  -28.9758  -22.9449   20.6082 C   0  0  0  0  0  0  0  0  0  0  0  0
  -29.8750  -29.0504   19.9444 C   0  0  0  0  0  0  0  0  0  1  0  0
  -30.6643  -23.0449   17.6852 C   0  0  0  0  0  0  0  0  0  0  0  0
  -22.6773  -24.2291   20.9911 C   0  0  1  0  0  0  0  0  0  0  0  0
  -23.1595  -22.2872   17.7714 C   0  0  2  0  0  0  0  0  0  0  0  0
  -22.0192  -23.5611   22.2313 C   0  0  0  0  0  0  0  0  0  0  0  0
  -31.0281  -25.4151   17.4391 N   0  0  0  0  0  0  0  0  0  0  0  0
  -28.8167  -15.2864   21.9374 N   0  0  0  0  0  0  0  0  0  0  0  0
  -29.9119  -15.9519   22.3419 N   0  0  0  0  0  0  0  0  0  0  0  0
  -23.0575  -26.6635   20.7608 N   0  0  0  0  0  0  0  0  0  0  0  0
  -28.6575  -19.5520   22.1076 N   0  0  0  0  0  0  0  0  0  0  0  0
  -32.2183  -15.6851   22.8111 N   0  0  0  0  0  0  0  0  0  0  0  0
  -30.9225  -11.5420   21.5653 N   0  0  0  0  0  0  0  0  0  0  0  0
  -21.1581  -28.8241   22.5197 N   0  0  0  0  0  0  0  0  0  0  0  0
  -22.5126  -23.4790   19.7506 N   0  0  0  0  0  0  0  0  0  0  0  0
  -28.7665  -21.8407   21.5181 N   0  0  0  0  0  0  0  0  0  0  0  0
  -24.1195  -22.5244   16.6565 N   0  3  0  0  0  0  0  0  0  0  0  0
  -32.7014  -12.8004   22.2801 O   0  0  0  0  0  0  0  0  0  0  0  0
  -23.4555  -28.5975   22.8251 O   0  0  0  0  0  0  0  0  0  0  0  0
  -20.9296  -25.7511   20.4857 O   0  0  0  0  0  0  0  0  0  0  0  0
  -24.7739  -23.2343   19.2992 O   0  0  0  0  0  0  0  0  0  0  0  0
  -29.1735  -20.2210   19.9478 O   0  0  0  0  0  0  0  0  0  0  0  0
  -25.7878  -10.0189   20.0326 O   0  0  0  0  0  0  0  0  0  0  0  0
  -28.9881  -28.3596   20.8234 O   0  0  0  0  0  0  0  0  0  1  0  0
  -20.8425   -9.7038   22.4510 F   0  0  0  0  0  0  0  0  0  0  0  0
  -25.0119   -7.7343   21.3821 F   0  0  0  0  0  0  0  0  0  0  0  0
  1  2  1  0  0  0  0
  1  5  2  0  0  0  0
  2  6  2  0  0  0  0
  3  8  2  0  0  0  0
  3 17  1  0  0  0  0
  4  9  1  0  0  0  0
  4 17  2  0  0  0  0
  5 19  1  0  0  0  0
  6 21  1  0  0  0  0
  7 10  2  0  0  0  0
  7 20  1  0  0  0  0
  8 25  1  0  0  0  0
  9 25  2  0  0  0  0
 10 26  1  0  0  0  0
 11 12  2  0  0  0  0
 11 27  1  0  0  0  0
 12 28  1  0  0  0  0
 13 22  1  0  0  0  0
 13 26  2  0  0  0  0
 14 23  2  0  0  0  0
 14 24  1  0  0  0  0
 15 28  2  0  0  0  0
 15 29  1  0  0  0  0
 16 23  1  0  0  0  0
 16 65  2  0  0  0  0
 17 30  1  0  0  0  0
 18 30  1  0  0  0  0
 18 32  2  0  0  0  0
 18 33  1  0  0  0  0
 19 21  2  0  0  0  0
 19 38  1  0  0  0  0
 20 22  2  0  0  0  0
 20 39  1  0  0  0  0
 21 47  1  0  0  0  0
 22 40  1  0  0  0  0
 23 57  1  0  0  0  0
 24 31  2  0  0  0  0
 24 58  1  0  0  0  0
 25 81  1  0  0  0  0
 26 82  1  0  0  0  0
 27 29  2  0  0  0  0
 27 81  1  0  0  0  0
 28 83  1  0  0  0  0
 29 84  1  0  0  0  0
 30 66  2  0  0  0  0
 31 61  1  0  0  0  0
 31 65  1  0  0  0  0
 32 67  1  0  0  0  0
 32 70  1  0  0  0  0
 33 71  1  0  0  0  0
 33 76  2  0  0  0  0
 34 48  1  0  0  0  0
 34 72  1  0  0  0  0
 34 77  2  0  0  0  0
 35 62  1  0  0  0  0
 35 68  1  0  0  0  0
 35 78  2  0  0  0  0
 36 63  1  0  0  0  0
 36 73  1  0  0  0  0
 36 79  2  0  0  0  0
 37 69  1  0  0  0  0
 37 74  1  0  0  0  0
 37 80  2  0  0  0  0
 38 41  1  0  0  0  0
 39 48  1  0  0  0  0
 40 68  1  0  0  0  0
 41 43  1  0  0  0  0
 42 44  1  0  0  0  0
 42 45  1  0  0  0  0
 43 47  1  0  0  0  0
 44 49  1  0  0  0  0
 45 69  1  0  0  0  0
 46 49  1  0  0  0  0
 46 69  1  0  0  0  0
 47 72  1  0  0  0  0
 48 68  1  0  0  0  0
 49 67  1  0  0  0  0
 50 61  1  0  0  0  0
 51 61  1  0  0  0  0
 52 63  1  0  0  0  0
 53 64  1  0  0  0  0
 54 64  1  0  0  0  0
 55 64  1  0  0  0  0
 56 75  1  0  0  0  0
 57 60  1  0  0  0  0
 58 59  1  0  0  0  0
 59 74  1  0  0  0  0
 60 82  1  0  0  0  0
 62 64  1  0  0  0  0
 62 73  1  0  0  0  0
 63 75  1  0  0  0  0
 66 67  1  0  0  0  0
M  CHG  1  75   1
M  ISO  4  37 100  60 101  74 100  82 101
M  END
> <Batch ID>
0098

> <Smiles>
CNC(C)C(=O)NC(C(=O)N1Cc2cc([101O:1][101CH2:1]Cc3cnc(C(C)C)c(CC[100NH:0][100C:0](=O)N4CCCC(n5nc(-c6ccc(Oc7ccc(F)cc7F)cc6)c(C(N)=O)c5N)C4)c3)ccc2CC1C(=O)NC1CCCc2ccccc21)C(C)(C)C

> <Shape>
0.274

> <Color>
0.077

> <Negative vol penalty>
0.000

$$$$

  -OEChem-04052319293D

 93101  0     1  0  0  0  0  0999 V2000
  -29.2562  -33.0013   28.2089 C   0  0  0  0  0  0  0  0  0  0  0  0
  -28.6104  -31.8132   27.8820 C   0  0  0  0  0  0  0  0  0  0  0  0
  -23.1126   -9.8847   21.4266 C   0  0  0  0  0  0  0  0  0  0  0  0
  -23.8731  -10.7427   23.5532 C   0  0  0  0  0  0  0  0  0  0  0  0
  -29.7698  -33.8147   27.1996 C   0  0  0  0  0  0  0  0  0  0  0  0
  -28.4770  -31.4383   26.5456 C   0  0  0  0  0  0  0  0  0  0  0  0
  -29.5620  -26.5512   25.7811 C   0  0  0  0  0  0  0  0  0  0  0  0
  -22.3929   -8.8884   22.0859 C   0  0  0  0  0  0  0  0  0  0  0  0
  -23.1533   -9.7463   24.2126 C   0  0  0  0  0  0  0  0  0  0  0  0
  -28.5859  -25.6198   26.1323 C   0  0  0  0  0  0  0  0  0  0  0  0
  -20.6442   -5.8993   23.1954 C   0  0  0  0  0  0  0  0  0  0  0  0
  -20.7283   -4.5991   22.6976 C   0  0  0  0  0  0  0  0  0  0  0  0
  -27.9218  -25.4524   23.8193 C   0  0  0  0  0  0  0  0  0  0  0  0
  -29.0443  -18.2947   22.3411 C   0  0  0  0  0  0  0  0  0  0  0  0
  -23.1163   -4.6132   23.0646 C   0  0  0  0  0  0  0  0  0  0  0  0
  -23.8528  -10.8119   22.1602 C   0  0  0  0  0  0  0  0  0  0  0  0
  -24.1424  -13.1251   21.1245 C   0  0  0  0  0  0  0  0  0  0  0  0
  -29.6511  -33.4448   25.8507 C   0  0  0  0  0  0  0  0  0  0  0  0
  -29.7184  -26.9491   24.4455 C   0  0  0  0  0  0  0  0  0  0  0  0
  -28.9883  -32.2482   25.5173 C   0  0  0  0  0  0  0  0  0  0  0  0
  -28.9024  -26.3872   23.4533 C   0  0  0  0  0  0  0  0  0  0  0  0
  -29.1616  -19.2946   23.3378 C   0  0  0  0  0  0  0  0  0  0  0  0
  -22.4131   -8.8191   23.4789 C   0  0  0  0  0  0  0  0  0  0  0  0
  -27.7637  -25.0724   25.1518 C   0  0  0  0  0  0  0  0  0  0  0  0
  -21.7960   -6.5566   23.6278 C   0  0  0  0  0  0  0  0  0  0  0  0
  -21.9644   -3.9560   22.6322 C   0  0  0  0  0  0  0  0  0  0  0  0
  -23.0321   -5.9135   23.5624 C   0  0  0  0  0  0  0  0  0  0  0  0
  -24.5971  -11.8410   21.4797 C   0  0  0  0  0  0  0  0  0  0  0  0
  -30.2728  -18.1774   21.7294 C   0  0  0  0  0  0  0  0  0  0  0  0
  -30.4583  -19.7581   23.3047 C   0  0  0  0  0  0  0  0  0  0  0  0
  -25.2187  -13.7111   20.5043 C   0  0  0  0  0  0  0  0  0  0  0  0
  -22.8617  -13.7339   21.3364 C   0  0  0  0  0  0  0  0  0  0  0  0
  -29.4552  -29.7028   22.8798 C   0  0  0  0  0  0  0  0  0  0  0  0
  -30.5862  -27.9502   20.3956 C   0  0  0  0  0  0  0  0  0  0  0  0
  -30.9831  -24.8800   18.9592 C   0  0  0  0  0  0  0  0  0  0  0  0
  -30.6803  -14.8331   20.2645 C   0  0  0  0  0  0  0  0  0  0  0  0
  -30.1806  -34.3798   24.7923 C   0  0  0  0  0  0  0  0  0  0  0  0
  -30.7938  -27.9349   24.0793 C   0  0  0  0  0  0  0  0  0  0  0  0
  -29.0433  -26.7657   22.0024 C   0  0  0  0  0  0  0  0  0  0  0  0
  -30.3276  -33.7263   23.4206 C   0  0  0  0  0  0  0  0  0  0  0  0
  -29.5913  -11.7208   18.9213 C   0  0  0  0  0  0  0  0  0  0  0  0
  -29.0753  -32.9278   23.0726 C   0  0  0  0  0  0  0  0  0  0  0  0
  -28.1604  -11.5779   19.4429 C   0  0  0  0  0  0  0  0  0  0  0  0
  -30.5041  -12.3821   19.9516 C   0  0  0  0  0  0  0  0  0  0  0  0
  -28.5882  -13.5323   20.9908 C   0  0  0  0  0  0  0  0  0  0  0  0
  -28.8456  -31.7951   24.0804 C   0  0  1  0  0  0  0  0  0  0  0  0
  -30.5228  -28.6522   22.7604 C   0  0  1  0  0  0  0  0  0  0  0  0
  -27.6174  -12.9214   19.9658 C   0  0  2  0  0  0  0  0  0  0  0  0
  -31.1598  -20.4410   25.6275 C   0  0  0  0  0  0  0  0  0  0  0  0
  -30.4901  -22.1957   23.9460 C   0  0  0  0  0  0  0  0  0  0  0  0
  -31.9128  -23.7692   16.9101 C   0  0  0  0  0  0  0  0  0  0  0  0
  -28.1759  -28.9056   18.7870 C   0  0  0  0  0  0  0  0  0  0  0  0
  -28.6306  -27.0696   17.1467 C   0  0  0  0  0  0  0  0  0  0  0  0
  -30.3281  -28.8603   17.5140 C   0  0  0  0  0  0  0  0  0  0  0  0
  -24.5080  -21.1282   23.3380 C   0  0  0  0  0  0  0  0  0  0  0  0
  -25.1095  -19.5412   25.1721 C   0  0  0  0  0  0  0  0  0  0  0  0
  -32.5150  -19.2624   21.9672 C   0  0  0  0  0  0  0  0  0  0  0  0
  -32.9087  -23.2937   20.5512 C   0  0  0  0  0  0  0  0  0  0  0  0
  -27.4755  -18.7960   17.0030 C   0  0  0  0  0  0  0  0  0  0  0  0
  -29.7238  -19.8496   17.1926 C   0  0  0  0  0  0  0  0  0  0  0  0
  -28.0626  -19.7602   24.2624 C   0  0  0  0  0  0  0  0  0  0  0  0
  -26.8513  -20.2766   23.4739 C   0  0  0  0  0  0  0  0  0  0  0  0
  -30.4805  -17.8595   19.2004 C   0  0  0  0  0  0  0  0  0  0  0  0
  -26.0076  -21.9185   25.2332 C   0  0  0  0  0  0  0  0  0  0  0  0
  -29.0208  -18.1125   18.8324 C   0  0  0  0  0  0  0  0  0  0  0  0
  -26.4671  -23.1840   24.5125 C   0  0  0  0  0  0  0  0  0  1  0  0
  -31.1202  -20.7959   24.1239 C   0  0  0  0  0  0  0  0  0  0  0  0
  -30.7022  -17.2875   20.6310 C   0  0  2  0  0  0  0  0  0  0  0  0
  -29.9613  -27.1140   19.3050 C   0  0  1  0  0  0  0  0  0  0  0  0
  -32.1942  -24.2070   18.3390 C   0  0  2  0  0  0  0  0  0  0  0  0
  -29.2698  -27.9815   18.2157 C   0  0  0  0  0  0  0  0  0  0  0  0
  -25.6226  -20.7203   24.3248 C   0  0  0  0  0  0  0  0  0  0  0  0
  -25.8635  -11.6233   21.1153 N   0  0  0  0  0  0  0  0  0  0  0  0
  -31.1245  -19.0720   22.3231 N   0  0  0  0  0  0  0  0  0  0  0  0
  -26.2137  -12.7785   20.5245 N   0  0  0  0  0  0  0  0  0  0  0  0
  -30.1051  -27.7382   21.6953 N   0  0  0  0  0  0  0  0  0  0  0  0
  -29.9328  -13.6522   20.4056 N   0  0  0  0  0  0  0  0  0  0  0  0
  -25.4015  -14.9278   19.9488 N   0  0  0  0  0  0  0  0  0  0  0  0
  -21.8689  -12.9913   21.9901 N   0  0  0  0  0  0  0  0  0  0  0  0
  -29.7362  -30.6875   23.8077 N   0  0  0  0  0  0  0  0  0  0  0  0
  -31.0202  -26.2487   18.7967 N   0  0  0  0  0  0  0  0  0  0  0  0
  -30.0624  -15.9935   20.7144 N   0  0  0  0  0  0  0  0  0  0  0  0
  -32.5815  -23.0056   19.1311 N   0  3  0  0  0  0  0  0  0  0  0  0
  -28.9082  -18.6030   17.4391 N   0  3  0  0  0  0  0  0  0  0  0  0
  -22.6001  -14.8958   20.9427 O   0  0  0  0  0  0  0  0  0  0  0  0
  -28.4516  -29.6266   22.1808 O   0  0  0  0  0  0  0  0  0  0  0  0
  -31.4736  -28.7565   20.1059 O   0  0  0  0  0  0  0  0  0  0  0  0
  -30.0913  -24.2537   19.5276 O   0  0  0  0  0  0  0  0  0  0  0  0
  -31.8122  -14.8526   19.7692 O   0  0  0  0  0  0  0  0  0  0  0  0
  -21.7107   -7.8471   24.1225 O   0  0  0  0  0  0  0  0  0  0  0  0
  -26.8097  -24.1635   25.4920 O   0  0  0  0  0  0  0  0  0  1  0  0
  -22.0449   -2.7068   22.1555 F   0  0  0  0  0  0  0  0  0  0  0  0
  -24.1420   -6.5393   23.9774 F   0  0  0  0  0  0  0  0  0  0  0  0
  1  2  1  0  0  0  0
  1  5  2  0  0  0  0
  2  6  2  0  0  0  0
  3  8  2  0  0  0  0
  3 16  1  0  0  0  0
  4  9  1  0  0  0  0
  4 16  2  0  0  0  0
  5 18  1  0  0  0  0
  6 20  1  0  0  0  0
  7 10  2  0  0  0  0
  7 19  1  0  0  0  0
  8 23  1  0  0  0  0
  9 23  2  0  0  0  0
 10 24  1  0  0  0  0
 11 12  2  0  0  0  0
 11 25  1  0  0  0  0
 12 26  1  0  0  0  0
 13 21  1  0  0  0  0
 13 24  2  0  0  0  0
 14 22  1  0  0  0  0
 14 29  2  0  0  0  0
 15 26  2  0  0  0  0
 15 27  1  0  0  0  0
 16 28  1  0  0  0  0
 17 28  1  0  0  0  0
 17 31  2  0  0  0  0
 17 32  1  0  0  0  0
 18 20  2  0  0  0  0
 18 37  1  0  0  0  0
 19 21  2  0  0  0  0
 19 38  1  0  0  0  0
 20 46  1  0  0  0  0
 21 39  1  0  0  0  0
 22 30  2  0  0  0  0
 22 61  1  0  0  0  0
 23 90  1  0  0  0  0
 24 91  1  0  0  0  0
 25 27  2  0  0  0  0
 25 90  1  0  0  0  0
 26 92  1  0  0  0  0
 27 93  1  0  0  0  0
 28 73  2  0  0  0  0
 29 68  1  0  0  0  0
 29 74  1  0  0  0  0
 30 67  1  0  0  0  0
 30 74  1  0  0  0  0
 31 75  1  0  0  0  0
 31 78  1  0  0  0  0
 32 79  1  0  0  0  0
 32 85  2  0  0  0  0
 33 47  1  0  0  0  0
 33 80  1  0  0  0  0
 33 86  2  0  0  0  0
 34 69  1  0  0  0  0
 34 76  1  0  0  0  0
 34 87  2  0  0  0  0
 35 70  1  0  0  0  0
 35 81  1  0  0  0  0
 35 88  2  0  0  0  0
 36 77  1  0  0  0  0
 36 82  1  0  0  0  0
 36 89  2  0  0  0  0
 37 40  1  0  0  0  0
 38 47  1  0  0  0  0
 39 76  1  0  0  0  0
 40 42  1  0  0  0  0
 41 43  1  0  0  0  0
 41 44  1  0  0  0  0
 42 46  1  0  0  0  0
 43 48  1  0  0  0  0
 44 77  1  0  0  0  0
 45 48  1  0  0  0  0
 45 77  1  0  0  0  0
 46 80  1  0  0  0  0
 47 76  1  0  0  0  0
 48 75  1  0  0  0  0
 49 67  1  0  0  0  0
 50 67  1  0  0  0  0
 51 70  1  0  0  0  0
 52 71  1  0  0  0  0
 53 71  1  0  0  0  0
 54 71  1  0  0  0  0
 55 72  1  0  0  0  0
 56 72  1  0  0  0  0
 57 74  1  0  0  0  0
 58 83  1  0  0  0  0
 59 84  1  0  0  0  0
 60 84  1  0  0  0  0
 61 62  1  0  0  0  0
 62 72  1  0  0  0  0
 63 65  1  0  0  0  0
 63 68  1  0  0  0  0
 64 66  1  0  0  0  0
 64 72  1  0  0  0  0
 65 84  1  0  0  0  0
 66 91  1  0  0  0  0
 68 82  1  0  0  0  0
 69 71  1  0  0  0  0
 69 81  1  0  0  0  0
 70 83  1  0  0  0  0
 73 75  1  0  0  0  0
M  CHG  2  83   1  84   1
M  ISO  4  36 100  66 101  82 100  91 101
M  END
> <Batch ID>
0098

> <Smiles>
CNC(C)C(=O)NC(C(=O)N1Cc2cc([101O:1][101CH2:1]CC(C)(C)CCc3cc(C(CCN(C)C)[100NH:0][100C:0](=O)N4CCCC(n5nc(-c6ccc(Oc7ccc(F)cc7F)cc6)c(C(N)=O)c5N)C4)n(C)c3C(C)C)ccc2CC1C(=O)NC1CCCc2ccccc21)C(C)(C)C

> <Shape>
0.238

> <Color>
0.149

> <Negative vol penalty>
0.000

$$$$

  -OEChem-04052319293D

 84 92  0     1  0  0  0  0  0999 V2000
  -27.6081  -23.2517   17.8658 C   0  0  0  0  0  0  0  0  0  0  0  0
  -26.4075  -23.7209   18.3891 C   0  0  0  0  0  0  0  0  0  0  0  0
  -27.5256  -14.9069   21.9747 C   0  0  0  0  0  0  0  0  0  0  0  0
  -26.1011  -15.5286   20.1250 C   0  0  0  0  0  0  0  0  0  0  0  0
  -28.8168  -23.6322   18.4474 C   0  0  0  0  0  0  0  0  0  0  0  0
  -26.4149  -24.5702   19.4951 C   0  0  0  0  0  0  0  0  0  0  0  0
  -23.2509  -28.4874   18.9576 C   0  0  0  0  0  0  0  0  0  0  0  0
  -27.1628  -13.5708   21.8050 C   0  0  0  0  0  0  0  0  0  0  0  0
  -25.7384  -14.1925   19.9553 C   0  0  0  0  0  0  0  0  0  0  0  0
  -21.8939  -28.2428   19.1637 C   0  0  0  0  0  0  0  0  0  0  0  0
  -24.1587  -10.9931   19.2635 C   0  0  0  0  0  0  0  0  0  0  0  0
  -22.8077  -10.7082   19.0658 C   0  0  0  0  0  0  0  0  0  0  0  0
  -22.0707  -29.1667   21.3850 C   0  0  0  0  0  0  0  0  0  0  0  0
  -19.6315  -24.9564   21.8202 C   0  0  0  0  0  0  0  0  0  0  0  0
  -22.2865  -11.6912   21.2103 C   0  0  0  0  0  0  0  0  0  0  0  0
  -18.0487  -25.3917   20.0991 C   0  0  0  0  0  0  0  0  0  0  0  0
  -26.9947  -15.8859   21.1347 C   0  0  0  0  0  0  0  0  0  0  0  0
  -28.4474  -17.9382   20.7046 C   0  0  0  0  0  0  0  0  0  0  0  0
  -28.8394  -24.4942   19.5551 C   0  0  0  0  0  0  0  0  0  0  0  0
  -24.0317  -29.0645   19.9694 C   0  0  0  0  0  0  0  0  0  0  0  0
  -27.6250  -24.9615   20.0928 C   0  0  0  0  0  0  0  0  0  0  0  0
  -23.4368  -29.4200   21.1884 C   0  0  0  0  0  0  0  0  0  0  0  0
  -18.6804  -25.8030   21.2617 C   0  0  0  0  0  0  0  0  0  0  0  0
  -19.9177  -23.7413   21.2077 C   0  0  0  0  0  0  0  0  0  0  0  0
  -26.2692  -13.2136   20.7953 C   0  0  0  0  0  0  0  0  0  0  0  0
  -21.3042  -28.5797   20.3785 C   0  0  0  0  0  0  0  0  0  0  0  0
  -24.5737  -11.6270   20.4348 C   0  0  0  0  0  0  0  0  0  0  0  0
  -21.8716  -11.0572   20.0391 C   0  0  0  0  0  0  0  0  0  0  0  0
  -23.6375  -11.9760   21.4081 C   0  0  0  0  0  0  0  0  0  0  0  0
  -27.3686  -17.2663   21.3099 C   0  0  0  0  0  0  0  0  0  0  0  0
  -19.2304  -23.4222   20.0477 C   0  0  0  0  0  0  0  0  0  0  0  0
  -28.3713  -19.2197   21.1929 C   0  0  0  0  0  0  0  0  0  0  0  0
  -29.4305  -17.4478   19.7833 C   0  0  0  0  0  0  0  0  0  0  0  0
  -26.5612  -28.1362   21.6557 C   0  0  0  0  0  0  0  0  0  0  0  0
  -26.4378  -31.1756   22.7822 C   0  0  0  0  0  0  0  0  0  0  0  0
  -24.5736  -33.9719   23.3760 C   0  0  0  0  0  0  0  0  0  0  0  0
  -23.8517  -22.4963   23.3581 C   0  0  0  0  0  0  0  0  0  0  0  0
  -30.1683  -24.8400   20.1788 C   0  0  0  0  0  0  0  0  0  0  0  0
  -25.4883  -29.3465   19.7218 C   0  0  0  0  0  0  0  0  0  0  0  0
  -24.2268  -30.0604   22.2994 C   0  0  0  0  0  0  0  0  0  0  0  0
  -30.1063  -26.0423   21.1173 C   0  0  0  0  0  0  0  0  0  0  0  0
  -26.8968  -21.6883   25.0168 C   0  0  0  0  0  0  0  0  0  0  0  0
  -28.9117  -25.9238   22.0585 C   0  0  0  0  0  0  0  0  0  0  0  0
  -27.4604  -20.5240   24.2003 C   0  0  0  0  0  0  0  0  0  0  0  0
  -25.3737  -21.6279   25.1091 C   0  0  0  0  0  0  0  0  0  0  0  0
  -25.2416  -20.3671   22.9956 C   0  0  0  0  0  0  0  0  0  0  0  0
  -27.5929  -25.9041   21.2763 C   0  0  1  0  0  0  0  0  0  0  0  0
  -26.3006  -29.4665   21.0075 C   0  0  1  0  0  0  0  0  0  0  0  0
  -26.7699  -20.4160   22.8274 C   0  0  2  0  0  0  0  0  0  0  0  0
  -19.4961  -22.1298   19.3470 C   0  0  0  0  0  0  0  0  0  0  0  0
  -16.5096  -26.1396   23.3888 C   0  0  0  0  0  0  0  0  0  0  0  0
  -24.7403  -36.2822   24.3413 C   0  0  0  0  0  0  0  0  0  0  0  0
  -26.4158  -29.9984   25.5971 C   0  0  0  0  0  0  0  0  0  0  0  0
  -25.6353  -32.2209   26.4453 C   0  0  0  0  0  0  0  0  0  0  0  0
  -27.8556  -32.0251   25.3252 C   0  0  0  0  0  0  0  0  0  0  0  0
  -23.8402  -35.2275   20.7983 C   0  0  0  0  0  0  0  0  0  0  0  0
  -20.9369  -22.8303   21.7998 C   0  0  0  0  0  0  0  0  0  0  0  0
  -17.7783  -26.9824   23.3350 C   0  0  0  0  0  0  0  0  0  0  0  0
  -22.3829  -23.2491   21.5048 C   0  0  0  0  0  0  0  0  0  0  0  0
  -19.5676  -28.0701   21.9214 C   0  0  0  0  0  0  0  0  0  1  0  0
  -18.3430  -27.1398   21.9075 C   0  0  1  0  0  0  0  0  0  0  0  0
  -25.7485  -31.8604   23.9376 C   0  0  1  0  0  0  0  0  0  0  0  0
  -24.8342  -35.4378   23.0800 C   0  0  2  0  0  0  0  0  0  0  0  0
  -26.3990  -31.5124   25.3063 C   0  0  0  0  0  0  0  0  0  0  0  0
  -18.3001  -24.2189   19.4755 N   0  0  0  0  0  0  0  0  0  0  0  0
  -26.6592  -18.0557   22.1209 N   0  0  0  0  0  0  0  0  0  0  0  0
  -27.2936  -19.2368   22.0286 N   0  0  0  0  0  0  0  0  0  0  0  0
  -25.6488  -30.3102   22.0113 N   0  0  0  0  0  0  0  0  0  0  0  0
  -24.7806  -21.5279   23.7734 N   0  0  0  0  0  0  0  0  0  0  0  0
  -29.1218  -20.3223   20.9846 N   0  0  0  0  0  0  0  0  0  0  0  0
  -29.3626  -16.1056   19.3855 N   0  0  0  0  0  0  0  0  0  0  0  0
  -27.2382  -27.2408   20.8499 N   0  0  0  0  0  0  0  0  0  0  0  0
  -25.7433  -33.2851   23.6236 N   0  0  0  0  0  0  0  0  0  0  0  0
  -23.3428  -22.3308   22.0758 N   0  0  0  0  0  0  0  0  0  0  0  0
  -23.8409  -35.9520   22.0952 N   0  3  0  0  0  0  0  0  0  0  0  0
  -30.3519  -18.1739   19.3391 O   0  0  0  0  0  0  0  0  0  0  0  0
  -26.1779  -27.9375   22.8025 O   0  0  0  0  0  0  0  0  0  0  0  0
  -27.6304  -31.4059   22.5671 O   0  0  0  0  0  0  0  0  0  0  0  0
  -23.4450  -33.4856   23.3900 O   0  0  0  0  0  0  0  0  0  0  0  0
  -23.5058  -23.4415   24.0750 O   0  0  0  0  0  0  0  0  0  0  0  0
  -25.9152  -11.9099   20.6293 O   0  0  0  0  0  0  0  0  0  0  0  0
  -19.9800  -28.3414   20.5825 O   0  0  0  0  0  0  0  0  0  1  0  0
  -20.5740  -10.7850   19.8484 F   0  0  0  0  0  0  0  0  0  0  0  0
  -24.0300  -12.5863   22.5348 F   0  0  0  0  0  0  0  0  0  0  0  0
  1  2  1  0  0  0  0
  1  5  2  0  0  0  0
  2  6  2  0  0  0  0
  3  8  2  0  0  0  0
  3 17  1  0  0  0  0
  4  9  1  0  0  0  0
  4 17  2  0  0  0  0
  5 19  1  0  0  0  0
  6 21  1  0  0  0  0
  7 10  2  0  0  0  0
  7 20  1  0  0  0  0
  8 25  1  0  0  0  0
  9 25  2  0  0  0  0
 10 26  1  0  0  0  0
 11 12  2  0  0  0  0
 11 27  1  0  0  0  0
 12 28  1  0  0  0  0
 13 22  1  0  0  0  0
 13 26  2  0  0  0  0
 14 23  2  0  0  0  0
 14 24  1  0  0  0  0
 15 28  2  0  0  0  0
 15 29  1  0  0  0  0
 16 23  1  0  0  0  0
 16 65  2  0  0  0  0
 17 30  1  0  0  0  0
 18 30  1  0  0  0  0
 18 32  2  0  0  0  0
 18 33  1  0  0  0  0
 19 21  2  0  0  0  0
 19 38  1  0  0  0  0
 20 22  2  0  0  0  0
 20 39  1  0  0  0  0
 21 47  1  0  0  0  0
 22 40  1  0  0  0  0
 23 61  1  0  0  0  0
 24 31  2  0  0  0  0
 24 57  1  0  0  0  0
 25 81  1  0  0  0  0
 26 82  1  0  0  0  0
 27 29  2  0  0  0  0
 27 81  1  0  0  0  0
 28 83  1  0  0  0  0
 29 84  1  0  0  0  0
 30 66  2  0  0  0  0
 31 50  1  0  0  0  0
 31 65  1  0  0  0  0
 32 67  1  0  0  0  0
 32 70  1  0  0  0  0
 33 71  1  0  0  0  0
 33 76  2  0  0  0  0
 34 48  1  0  0  0  0
 34 72  1  0  0  0  0
 34 77  2  0  0  0  0
 35 62  1  0  0  0  0
 35 68  1  0  0  0  0
 35 78  2  0  0  0  0
 36 63  1  0  0  0  0
 36 73  1  0  0  0  0
 36 79  2  0  0  0  0
 37 69  1  0  0  0  0
 37 74  1  0  0  0  0
 37 80  2  0  0  0  0
 38 41  1  0  0  0  0
 39 48  1  0  0  0  0
 40 68  1  0  0  0  0
 41 43  1  0  0  0  0
 42 44  1  0  0  0  0
 42 45  1  0  0  0  0
 43 47  1  0  0  0  0
 44 49  1  0  0  0  0
 45 69  1  0  0  0  0
 46 49  1  0  0  0  0
 46 69  1  0  0  0  0
 47 72  1  0  0  0  0
 48 68  1  0  0  0  0
 49 67  1  0  0  0  0
 51 58  1  0  0  0  0
 52 63  1  0  0  0  0
 53 64  1  0  0  0  0
 54 64  1  0  0  0  0
 55 64  1  0  0  0  0
 56 75  1  0  0  0  0
 57 59  1  0  0  0  0
 58 61  1  0  0  0  0
 59 74  1  0  0  0  0
 60 61  1  0  0  0  0
 60 82  1  0  0  0  0
 62 64  1  0  0  0  0
 62 73  1  0  0  0  0
 63 75  1  0  0  0  0
 66 67  1  0  0  0  0
M  CHG  1  75   1
M  ISO  4  37 100  60 101  74 100  82 101
M  END
> <Batch ID>
0098

> <Smiles>
CCC(c1cnc(C)c(CC[100NH:0][100C:0](=O)N2CCCC(n3nc(-c4ccc(Oc5ccc(F)cc5F)cc4)c(C(N)=O)c3N)C2)c1)[101CH2:1][101O:1]c1ccc2c(c1)CN(C(=O)C(NC(=O)C(C)NC)C(C)(C)C)C(C(=O)NC1CCCc3ccccc31)C2

> <Shape>
0.283

> <Color>
0.079

> <Negative vol penalty>
0.000

$$$$

  -OEChem-04052319293D

 83 92  0     1  0  0  0  0  0999 V2000
  -29.9832  -25.3159   13.4454 C   0  0  0  0  0  0  0  0  0  0  0  0
  -28.7476  -25.5738   14.0306 C   0  0  0  0  0  0  0  0  0  0  0  0
  -27.9987  -17.5297   21.0667 C   0  0  0  0  0  0  0  0  0  0  0  0
  -25.6458  -17.4153   20.5299 C   0  0  0  0  0  0  0  0  0  0  0  0
  -31.0983  -25.0814   14.2488 C   0  0  0  0  0  0  0  0  0  0  0  0
  -28.6263  -25.5962   15.4195 C   0  0  0  0  0  0  0  0  0  0  0  0
  -20.2779  -25.7513   20.9481 C   0  0  0  0  0  0  0  0  0  0  0  0
  -24.9434  -29.1940   18.7358 C   0  0  0  0  0  0  0  0  0  0  0  0
  -20.2161  -24.4399   21.4227 C   0  0  0  0  0  0  0  0  0  0  0  0
  -28.1607  -16.2127   20.6371 C   0  0  0  0  0  0  0  0  0  0  0  0
  -25.8079  -16.0982   20.1002 C   0  0  0  0  0  0  0  0  0  0  0  0
  -23.6965  -28.9757   19.3201 C   0  0  0  0  0  0  0  0  0  0  0  0
  -25.5296  -12.5884   19.1983 C   0  0  0  0  0  0  0  0  0  0  0  0
  -24.5829  -11.6507   19.6108 C   0  0  0  0  0  0  0  0  0  0  0  0
  -19.4382  -25.2522   23.5495 C   0  0  0  0  0  0  0  0  0  0  0  0
  -24.7755  -28.4579   21.4146 C   0  0  0  0  0  0  0  0  0  0  0  0
  -25.1456  -12.0975   21.9175 C   0  0  0  0  0  0  0  0  0  0  0  0
  -26.7412  -18.1311   21.0131 C   0  0  0  0  0  0  0  0  0  0  0  0
  -27.2099  -20.6377   20.9454 C   0  0  0  0  0  0  0  0  0  0  0  0
  -30.9926  -25.1105   15.6483 C   0  0  0  0  0  0  0  0  0  0  0  0
  -26.1181  -29.0350   19.4848 C   0  0  0  0  0  0  0  0  0  0  0  0
  -19.9402  -26.8410   21.7709 C   0  0  0  0  0  0  0  0  0  0  0  0
  -29.7408  -25.3605   16.2423 C   0  0  0  0  0  0  0  0  0  0  0  0
  -19.4833  -26.5759   23.0792 C   0  0  0  0  0  0  0  0  0  0  0  0
  -26.0359  -28.6773   20.8381 C   0  0  0  0  0  0  0  0  0  0  0  0
  -19.8030  -24.1905   22.7256 C   0  0  0  0  0  0  0  0  0  0  0  0
  -27.0654  -15.4969   20.1538 C   0  0  0  0  0  0  0  0  0  0  0  0
  -23.6125  -28.6048   20.6589 C   0  0  0  0  0  0  0  0  0  0  0  0
  -26.2843  -13.2806   20.1454 C   0  0  0  0  0  0  0  0  0  0  0  0
  -24.3909  -11.4053   20.9704 C   0  0  0  0  0  0  0  0  0  0  0  0
  -26.0923  -13.0351   21.5050 C   0  0  0  0  0  0  0  0  0  0  0  0
  -26.5730  -19.4914   21.4573 C   0  0  0  0  0  0  0  0  0  0  0  0
  -26.7146  -21.6721   21.7012 C   0  0  0  0  0  0  0  0  0  0  0  0
  -28.1640  -20.7569   19.8818 C   0  0  0  0  0  0  0  0  0  0  0  0
  -28.6566  -27.1310   19.2989 C   0  0  0  0  0  0  0  0  0  0  0  0
  -29.7433  -28.9912   21.7240 C   0  0  0  0  0  0  0  0  0  0  0  0
  -29.0161  -31.0822   24.3213 C   0  0  0  0  0  0  0  0  0  0  0  0
  -21.6382  -22.3967   24.7925 C   0  0  0  0  0  0  0  0  0  0  0  0
  -32.2162  -24.8043   16.4752 C   0  0  0  0  0  0  0  0  0  0  0  0
  -27.4542  -29.3003   18.8469 C   0  0  0  0  0  0  0  0  0  0  0  0
  -19.0769  -27.6810   24.0214 C   0  0  0  0  0  0  0  0  0  0  0  0
  -27.2662  -28.5132   21.6912 C   0  0  0  0  0  0  0  0  0  0  0  0
  -32.0809  -25.2163   17.9388 C   0  0  0  0  0  0  0  0  0  0  0  0
  -18.7464  -28.9810   23.2995 C   0  0  0  0  0  0  0  0  0  0  0  0
  -24.9614  -22.6279   26.0491 C   0  0  0  0  0  0  0  0  0  0  0  0
  -19.8631  -29.3290   22.3276 C   0  0  0  0  0  0  0  0  0  0  0  0
  -30.7371  -24.7615   18.4994 C   0  0  0  0  0  0  0  0  0  0  0  0
  -25.8088  -21.9537   24.9686 C   0  0  0  0  0  0  0  0  0  0  0  0
  -23.6102  -21.9371   26.2194 C   0  0  0  0  0  0  0  0  0  0  0  0
  -23.6762  -21.1159   23.8967 C   0  0  0  0  0  0  0  0  0  0  0  0
  -19.9880  -28.2622   21.2242 C   0  0  1  0  0  0  0  0  0  0  0  0
  -29.5742  -25.4178   17.7454 C   0  0  1  0  0  0  0  0  0  0  0  0
  -28.6079  -28.6087   19.5667 C   0  0  1  0  0  0  0  0  0  0  0  0
  -25.0258  -21.8114   23.6495 C   0  0  2  0  0  0  0  0  0  0  0  0
  -30.1119  -32.4152   26.1433 C   0  0  0  0  0  0  0  0  0  0  0  0
  -30.2158  -26.4286   23.3113 C   0  0  0  0  0  0  0  0  0  0  0  0
  -30.3881  -27.8255   25.3819 C   0  0  0  0  0  0  0  0  0  0  0  0
  -32.0275  -28.1389   23.5280 C   0  0  0  0  0  0  0  0  0  0  0  0
  -27.9468  -33.6296   23.2600 C   0  0  0  0  0  0  0  0  0  0  0  0
  -19.7446  -22.7918   23.2376 C   0  0  0  0  0  0  0  0  0  0  0  0
  -21.2486  -28.5635   20.4021 C   0  0  0  0  0  0  0  0  0  1  0  0
  -29.6503  -28.9464   23.2301 C   0  0  1  0  0  0  0  0  0  0  0  0
  -29.5852  -32.4329   24.7168 C   0  0  2  0  0  0  0  0  0  0  0  0
  -30.5471  -27.8360   23.8465 C   0  0  0  0  0  0  0  0  0  0  0  0
  -25.7370  -19.7708   22.4608 N   0  0  0  0  0  0  0  0  0  0  0  0
  -25.8452  -21.1046   22.5856 N   0  0  0  0  0  0  0  0  0  0  0  0
  -28.5497  -28.7776   21.0201 N   0  0  0  0  0  0  0  0  0  0  0  0
  -22.9181  -21.8353   24.9323 N   0  0  0  0  0  0  0  0  0  0  0  0
  -26.9423  -23.0027   21.6889 N   0  0  0  0  0  0  0  0  0  0  0  0
  -27.6899  -20.9624   18.5790 N   0  0  0  0  0  0  0  0  0  0  0  0
  -29.3954  -26.7854   18.1835 N   0  0  0  0  0  0  0  0  0  0  0  0
  -29.9598  -30.2930   23.6984 N   0  0  0  0  0  0  0  0  0  0  0  0
  -21.0557  -22.2613   23.5382 N   0  0  0  0  0  0  0  0  0  0  0  0
  -28.5360  -33.4865   24.6162 N   0  3  0  0  0  0  0  0  0  0  0  0
  -29.3996  -20.6669   20.0785 O   0  0  0  0  0  0  0  0  0  0  0  0
  -28.0687  -26.3612   20.0496 O   0  0  0  0  0  0  0  0  0  0  0  0
  -30.8335  -29.2149   21.1918 O   0  0  0  0  0  0  0  0  0  0  0  0
  -27.8520  -30.7582   24.5459 O   0  0  0  0  0  0  0  0  0  0  0  0
  -21.0596  -22.9802   25.7154 O   0  0  0  0  0  0  0  0  0  0  0  0
  -27.2232  -14.2117   19.7342 O   0  0  0  0  0  0  0  0  0  0  0  0
  -22.3968  -28.3904   21.2315 O   0  0  0  0  0  0  0  0  0  1  0  0
  -23.4806  -10.5059   21.3664 F   0  0  0  0  0  0  0  0  0  0  0  0
  -26.8135  -13.6978   22.4195 F   0  0  0  0  0  0  0  0  0  0  0  0
  1  2  1  0  0  0  0
  1  5  2  0  0  0  0
  2  6  2  0  0  0  0
  3 10  2  0  0  0  0
  3 18  1  0  0  0  0
  4 11  1  0  0  0  0
  4 18  2  0  0  0  0
  5 20  1  0  0  0  0
  6 23  1  0  0  0  0
  7  9  2  0  0  0  0
  7 22  1  0  0  0  0
  8 12  2  0  0  0  0
  8 21  1  0  0  0  0
  9 26  1  0  0  0  0
 10 27  1  0  0  0  0
 11 27  2  0  0  0  0
 12 28  1  0  0  0  0
 13 14  2  0  0  0  0
 13 29  1  0  0  0  0
 14 30  1  0  0  0  0
 15 24  1  0  0  0  0
 15 26  2  0  0  0  0
 16 25  1  0  0  0  0
 16 28  2  0  0  0  0
 17 30  2  0  0  0  0
 17 31  1  0  0  0  0
 18 32  1  0  0  0  0
 19 32  1  0  0  0  0
 19 33  2  0  0  0  0
 19 34  1  0  0  0  0
 20 23  2  0  0  0  0
 20 39  1  0  0  0  0
 21 25  2  0  0  0  0
 21 40  1  0  0  0  0
 22 24  2  0  0  0  0
 22 51  1  0  0  0  0
 23 52  1  0  0  0  0
 24 41  1  0  0  0  0
 25 42  1  0  0  0  0
 26 60  1  0  0  0  0
 27 80  1  0  0  0  0
 28 81  1  0  0  0  0
 29 31  2  0  0  0  0
 29 80  1  0  0  0  0
 30 82  1  0  0  0  0
 31 83  1  0  0  0  0
 32 65  2  0  0  0  0
 33 66  1  0  0  0  0
 33 69  1  0  0  0  0
 34 70  1  0  0  0  0
 34 75  2  0  0  0  0
 35 53  1  0  0  0  0
 35 71  1  0  0  0  0
 35 76  2  0  0  0  0
 36 62  1  0  0  0  0
 36 67  1  0  0  0  0
 36 77  2  0  0  0  0
 37 63  1  0  0  0  0
 37 72  1  0  0  0  0
 37 78  2  0  0  0  0
 38 68  1  0  0  0  0
 38 73  1  0  0  0  0
 38 79  2  0  0  0  0
 39 43  1  0  0  0  0
 40 53  1  0  0  0  0
 41 44  1  0  0  0  0
 42 67  1  0  0  0  0
 43 47  1  0  0  0  0
 44 46  1  0  0  0  0
 45 48  1  0  0  0  0
 45 49  1  0  0  0  0
 46 51  1  0  0  0  0
 47 52  1  0  0  0  0
 48 54  1  0  0  0  0
 49 68  1  0  0  0  0
 50 54  1  0  0  0  0
 50 68  1  0  0  0  0
 51 61  1  0  0  0  0
 52 71  1  0  0  0  0
 53 67  1  0  0  0  0
 54 66  1  0  0  0  0
 55 63  1  0  0  0  0
 56 64  1  0  0  0  0
 57 64  1  0  0  0  0
 58 64  1  0  0  0  0
 59 74  1  0  0  0  0
 60 73  1  0  0  0  0
 61 81  1  0  0  0  0
 62 64  1  0  0  0  0
 62 72  1  0  0  0  0
 63 74  1  0  0  0  0
 65 66  1  0  0  0  0
M  CHG  1  74   1
M  ISO  4  38 100  61 101  73 100  81 101
M  END
> <Batch ID>
0098

> <Smiles>
CNC(C)C(=O)NC(C(=O)N1Cc2cc([101O:1][101CH2:1]C3CCCc4cc(C[100NH:0][100C:0](=O)N5CCCC(n6nc(-c7ccc(Oc8ccc(F)cc8F)cc7)c(C(N)=O)c6N)C5)ccc43)ccc2CC1C(=O)NC1CCCc2ccccc21)C(C)(C)C

> <Shape>
0.206

> <Color>
0.076

> <Negative vol penalty>
0.000

$$$$

  -OEChem-04052319293D

 93101  0     1  0  0  0  0  0999 V2000
  -33.0584  -25.8094   35.5245 C   0  0  0  0  0  0  0  0  0  0  0  0
  -32.0182  -25.7691   34.6016 C   0  0  0  0  0  0  0  0  0  0  0  0
  -22.9995   -9.8943   19.9810 C   0  0  0  0  0  0  0  0  0  0  0  0
  -23.7290   -9.9442   22.2837 C   0  0  0  0  0  0  0  0  0  0  0  0
  -34.3333  -25.3825   35.1553 C   0  0  0  0  0  0  0  0  0  0  0  0
  -32.2527  -25.3027   33.3085 C   0  0  0  0  0  0  0  0  0  0  0  0
  -28.3769  -22.1384   29.7770 C   0  0  0  0  0  0  0  0  0  0  0  0
  -22.2345   -8.7589   20.2479 C   0  0  0  0  0  0  0  0  0  0  0  0
  -22.9639   -8.8088   22.5507 C   0  0  0  0  0  0  0  0  0  0  0  0
  -27.5237  -22.5218   28.7432 C   0  0  0  0  0  0  0  0  0  0  0  0
  -21.4875   -5.7136   23.7546 C   0  0  0  0  0  0  0  0  0  0  0  0
  -22.0758   -4.6978   24.5079 C   0  0  0  0  0  0  0  0  0  0  0  0
  -29.2094  -21.9054   27.1315 C   0  0  0  0  0  0  0  0  0  0  0  0
  -25.3294  -19.8674   25.0617 C   0  0  0  0  0  0  0  0  0  0  0  0
  -23.7992   -4.4533   22.8324 C   0  0  0  0  0  0  0  0  0  0  0  0
  -23.7468  -10.4869   20.9989 C   0  0  0  0  0  0  0  0  0  0  0  0
  -24.1296  -13.0030   20.8240 C   0  0  0  0  0  0  0  0  0  0  0  0
  -34.5813  -24.9017   33.8600 C   0  0  0  0  0  0  0  0  0  0  0  0
  -29.6591  -21.6450   29.4957 C   0  0  0  0  0  0  0  0  0  0  0  0
  -33.5324  -24.8703   32.9213 C   0  0  0  0  0  0  0  0  0  0  0  0
  -30.0760  -21.5140   28.1634 C   0  0  0  0  0  0  0  0  0  0  0  0
  -25.4509  -21.1948   24.5817 C   0  0  0  0  0  0  0  0  0  0  0  0
  -22.2167   -8.2162   21.5328 C   0  0  0  0  0  0  0  0  0  0  0  0
  -27.9409  -22.4081   27.4203 C   0  0  0  0  0  0  0  0  0  0  0  0
  -22.0549   -6.0993   22.5401 C   0  0  0  0  0  0  0  0  0  0  0  0
  -23.2317   -4.0676   24.0468 C   0  0  0  0  0  0  0  0  0  0  0  0
  -23.2108   -5.4692   22.0790 C   0  0  0  0  0  0  0  0  0  0  0  0
  -24.5378  -11.6594   20.7236 C   0  0  0  0  0  0  0  0  0  0  0  0
  -25.8753  -19.0344   24.1102 C   0  0  0  0  0  0  0  0  0  0  0  0
  -26.0672  -21.1325   23.3514 C   0  0  0  0  0  0  0  0  0  0  0  0
  -25.2380  -13.7268   20.4580 C   0  0  0  0  0  0  0  0  0  0  0  0
  -22.8619  -13.5480   21.2133 C   0  0  0  0  0  0  0  0  0  0  0  0
  -32.6209  -22.5850   30.1645 C   0  0  0  0  0  0  0  0  0  0  0  0
  -33.4124  -19.7535   28.7939 C   0  0  0  0  0  0  0  0  0  0  0  0
  -33.0485  -17.1780   26.2936 C   0  0  0  0  0  0  0  0  0  0  0  0
  -30.7341  -14.6660   20.6968 C   0  0  0  0  0  0  0  0  0  0  0  0
  -35.9867  -24.4955   33.4931 C   0  0  0  0  0  0  0  0  0  0  0  0
  -30.5574  -21.2106   30.6212 C   0  0  0  0  0  0  0  0  0  0  0  0
  -31.4351  -20.9711   27.8075 C   0  0  0  0  0  0  0  0  0  0  0  0
  -36.0664  -23.6639   32.2154 C   0  0  0  0  0  0  0  0  0  0  0  0
  -29.5910  -12.2431   18.3517 C   0  0  0  0  0  0  0  0  0  0  0  0
  -35.2203  -24.2949   31.1142 C   0  0  0  0  0  0  0  0  0  0  0  0
  -28.1436  -11.9818   18.7719 C   0  0  0  0  0  0  0  0  0  0  0  0
  -30.4955  -12.4784   19.5594 C   0  0  0  0  0  0  0  0  0  0  0  0
  -28.5873  -13.2712   20.9024 C   0  0  0  0  0  0  0  0  0  0  0  0
  -33.7415  -24.3478   31.5165 C   0  0  1  0  0  0  0  0  0  0  0  0
  -32.0341  -21.2038   30.2384 C   0  0  1  0  0  0  0  0  0  0  0  0
  -27.6262  -13.0836   19.7161 C   0  0  2  0  0  0  0  0  0  0  0  0
  -31.4351  -20.4800   20.5650 C   0  0  0  0  0  0  0  0  0  0  0  0
  -23.4668  -22.4397   25.5010 C   0  0  0  0  0  0  0  0  0  0  0  0
  -24.6455  -16.8343   24.1369 C   0  0  0  0  0  0  0  0  0  0  0  0
  -26.8968  -17.0336   25.2536 C   0  0  0  0  0  0  0  0  0  0  0  0
  -27.4649  -23.2026   23.0125 C   0  0  0  0  0  0  0  0  0  0  0  0
  -25.2141  -23.0045   21.8947 C   0  0  0  0  0  0  0  0  0  0  0  0
  -34.2304  -14.9799   26.0315 C   0  0  0  0  0  0  0  0  0  0  0  0
  -35.2862  -21.3097   26.9561 C   0  0  0  0  0  0  0  0  0  0  0  0
  -35.3802  -19.3002   25.4657 C   0  0  0  0  0  0  0  0  0  0  0  0
  -36.2177  -19.1518   27.8107 C   0  0  0  0  0  0  0  0  0  0  0  0
  -31.0830  -17.6063   19.4966 C   0  0  0  0  0  0  0  0  0  0  0  0
  -30.4968  -15.6794   26.2485 C   0  0  0  0  0  0  0  0  0  0  0  0
  -31.4548  -19.2156   21.4162 C   0  0  0  0  0  0  0  0  0  0  0  0
  -28.4229  -18.9032   22.0773 C   0  0  0  0  0  0  0  0  0  0  0  0
  -29.0817  -18.3991   20.7841 C   0  0  0  0  0  0  0  0  0  0  0  0
  -26.9599  -19.3205   21.8734 C   0  0  0  0  0  0  0  0  0  0  0  0
  -30.8171  -16.8442   21.8834 C   0  0  0  0  0  0  0  0  0  0  0  0
  -25.7080  -22.6505   26.6385 C   0  0  0  0  0  0  0  0  0  1  0  0
  -24.9847  -22.4517   25.2995 C   0  0  1  0  0  0  0  0  0  0  0  0
  -26.0084  -17.5630   24.1046 C   0  0  0  0  0  0  0  0  0  0  0  0
  -26.4367  -22.2155   22.4151 C   0  0  0  0  0  0  0  0  0  0  0  0
  -33.7289  -19.2967   27.3903 C   0  0  1  0  0  0  0  0  0  0  0  0
  -32.9781  -15.6809   26.5346 C   0  0  2  0  0  0  0  0  0  0  0  0
  -35.1283  -19.7767   26.9121 C   0  0  0  0  0  0  0  0  0  0  0  0
  -30.5895  -18.0261   20.9012 C   0  0  1  0  0  0  0  0  0  0  0  0
  -25.8064  -11.5343   20.3249 N   0  0  0  0  0  0  0  0  0  0  0  0
  -26.3203  -19.8143   23.0749 N   0  0  0  0  0  0  0  0  0  0  0  0
  -26.2050  -12.8086   20.1715 N   0  0  0  0  0  0  0  0  0  0  0  0
  -32.2794  -20.5658   28.9434 N   0  0  0  0  0  0  0  0  0  0  0  0
  -29.9494  -13.5360   20.4133 N   0  0  0  0  0  0  0  0  0  0  0  0
  -25.4702  -15.0528   20.3565 N   0  0  0  0  0  0  0  0  0  0  0  0
  -21.8315  -12.6627   21.5581 N   0  0  0  0  0  0  0  0  0  0  0  0
  -33.1294  -23.0453   31.3641 N   0  0  0  0  0  0  0  0  0  0  0  0
  -33.5603  -17.8475   27.3849 N   0  0  0  0  0  0  0  0  0  0  0  0
  -30.1384  -15.6237   21.5085 N   0  0  0  0  0  0  0  0  0  0  0  0
  -31.7994  -15.0981   25.8332 N   0  3  0  0  0  0  0  0  0  0  0  0
  -22.6442  -14.7831   21.2384 O   0  0  0  0  0  0  0  0  0  0  0  0
  -32.6143  -23.1880   29.0977 O   0  0  0  0  0  0  0  0  0  0  0  0
  -34.1395  -19.3968   29.7243 O   0  0  0  0  0  0  0  0  0  0  0  0
  -32.6891  -17.7008   25.2409 O   0  0  0  0  0  0  0  0  0  0  0  0
  -31.8785  -14.8133   20.2547 O   0  0  0  0  0  0  0  0  0  0  0  0
  -21.4701   -7.1085   21.7937 O   0  0  0  0  0  0  0  0  0  0  0  0
  -27.1104  -22.7822   26.4094 O   0  0  0  0  0  0  0  0  0  1  0  0
  -23.7974   -3.0932   24.7711 F   0  0  0  0  0  0  0  0  0  0  0  0
  -23.7612   -5.8362   20.9136 F   0  0  0  0  0  0  0  0  0  0  0  0
  1  2  1  0  0  0  0
  1  5  2  0  0  0  0
  2  6  2  0  0  0  0
  3  8  2  0  0  0  0
  3 16  1  0  0  0  0
  4  9  1  0  0  0  0
  4 16  2  0  0  0  0
  5 18  1  0  0  0  0
  6 20  1  0  0  0  0
  7 10  2  0  0  0  0
  7 19  1  0  0  0  0
  8 23  1  0  0  0  0
  9 23  2  0  0  0  0
 10 24  1  0  0  0  0
 11 12  2  0  0  0  0
 11 25  1  0  0  0  0
 12 26  1  0  0  0  0
 13 21  1  0  0  0  0
 13 24  2  0  0  0  0
 14 22  1  0  0  0  0
 14 29  2  0  0  0  0
 15 26  2  0  0  0  0
 15 27  1  0  0  0  0
 16 28  1  0  0  0  0
 17 28  1  0  0  0  0
 17 31  2  0  0  0  0
 17 32  1  0  0  0  0
 18 20  2  0  0  0  0
 18 37  1  0  0  0  0
 19 21  2  0  0  0  0
 19 38  1  0  0  0  0
 20 46  1  0  0  0  0
 21 39  1  0  0  0  0
 22 30  2  0  0  0  0
 22 67  1  0  0  0  0
 23 90  1  0  0  0  0
 24 91  1  0  0  0  0
 25 27  2  0  0  0  0
 25 90  1  0  0  0  0
 26 92  1  0  0  0  0
 27 93  1  0  0  0  0
 28 74  2  0  0  0  0
 29 68  1  0  0  0  0
 29 75  1  0  0  0  0
 30 69  1  0  0  0  0
 30 75  1  0  0  0  0
 31 76  1  0  0  0  0
 31 79  1  0  0  0  0
 32 80  1  0  0  0  0
 32 85  2  0  0  0  0
 33 47  1  0  0  0  0
 33 81  1  0  0  0  0
 33 86  2  0  0  0  0
 34 70  1  0  0  0  0
 34 77  1  0  0  0  0
 34 87  2  0  0  0  0
 35 71  1  0  0  0  0
 35 82  1  0  0  0  0
 35 88  2  0  0  0  0
 36 78  1  0  0  0  0
 36 83  1  0  0  0  0
 36 89  2  0  0  0  0
 37 40  1  0  0  0  0
 38 47  1  0  0  0  0
 39 77  1  0  0  0  0
 40 42  1  0  0  0  0
 41 43  1  0  0  0  0
 41 44  1  0  0  0  0
 42 46  1  0  0  0  0
 43 48  1  0  0  0  0
 44 78  1  0  0  0  0
 45 48  1  0  0  0  0
 45 78  1  0  0  0  0
 46 81  1  0  0  0  0
 47 77  1  0  0  0  0
 48 76  1  0  0  0  0
 49 61  1  0  0  0  0
 50 67  1  0  0  0  0
 51 68  1  0  0  0  0
 52 68  1  0  0  0  0
 53 69  1  0  0  0  0
 54 69  1  0  0  0  0
 55 71  1  0  0  0  0
 56 72  1  0  0  0  0
 57 72  1  0  0  0  0
 58 72  1  0  0  0  0
 59 73  1  0  0  0  0
 60 84  1  0  0  0  0
 61 73  1  0  0  0  0
 62 63  1  0  0  0  0
 62 64  1  0  0  0  0
 63 73  1  0  0  0  0
 64 75  1  0  0  0  0
 65 73  1  0  0  0  0
 65 83  1  0  0  0  0
 66 67  1  0  0  0  0
 66 91  1  0  0  0  0
 70 72  1  0  0  0  0
 70 82  1  0  0  0  0
 71 84  1  0  0  0  0
 74 76  1  0  0  0  0
M  CHG  1  84   1
M  ISO  4  36 100  66 101  83 100  91 101
M  END
> <Batch ID>
0098

> <Smiles>
CCC(C)(CCCn1c(C(C)C)cc(C(C)[101CH2:1][101O:1]c2ccc3c(c2)CN(C(=O)C(NC(=O)C(C)NC)C(C)(C)C)C(C(=O)NC2CCCc4ccccc42)C3)c1C(C)C)C[100NH:0][100C:0](=O)N1CCCC(n2nc(-c3ccc(Oc4ccc(F)cc4F)cc3)c(C(N)=O)c2N)C1

> <Shape>
0.178

> <Color>
0.182

> <Negative vol penalty>
0.000

$$$$

  -OEChem-04052319293D

 82 89  0     1  0  0  0  0  0999 V2000
  -27.2670  -33.5252   26.1948 C   0  0  0  0  0  0  0  0  0  0  0  0
  -27.5647  -32.3592   25.4969 C   0  0  0  0  0  0  0  0  0  0  0  0
  -26.2501  -13.7181   21.5583 C   0  0  0  0  0  0  0  0  0  0  0  0
  -26.1004  -14.2360   19.2032 C   0  0  0  0  0  0  0  0  0  0  0  0
  -25.9510  -33.7972   26.5663 C   0  0  0  0  0  0  0  0  0  0  0  0
  -26.5466  -31.4639   25.1709 C   0  0  0  0  0  0  0  0  0  0  0  0
  -26.8679  -29.8118   20.3947 C   0  0  0  0  0  0  0  0  0  0  0  0
  -25.8003  -12.4229   21.3021 C   0  0  0  0  0  0  0  0  0  0  0  0
  -25.6507  -12.9407   18.9470 C   0  0  0  0  0  0  0  0  0  0  0  0
  -27.8135  -28.8234   20.1251 C   0  0  0  0  0  0  0  0  0  0  0  0
  -22.8528  -10.8849   20.6930 C   0  0  0  0  0  0  0  0  0  0  0  0
  -21.8722  -10.3616   21.5358 C   0  0  0  0  0  0  0  0  0  0  0  0
  -26.0768  -27.1508   20.1962 C   0  0  0  0  0  0  0  0  0  0  0  0
  -23.3648   -8.5663   22.1575 C   0  0  0  0  0  0  0  0  0  0  0  0
  -26.4000  -14.6247   20.5089 C   0  0  0  0  0  0  0  0  0  0  0  0
  -28.1978  -16.4131   20.7870 C   0  0  0  0  0  0  0  0  0  0  0  0
  -24.9148  -32.9095   26.2362 C   0  0  0  0  0  0  0  0  0  0  0  0
  -25.5190  -29.4751   20.5782 C   0  0  0  0  0  0  0  0  0  0  0  0
  -25.2157  -31.7236   25.5395 C   0  0  0  0  0  0  0  0  0  0  0  0
  -25.1156  -28.1370   20.4655 C   0  0  0  0  0  0  0  0  0  0  0  0
  -25.5007  -12.0341   19.9964 C   0  0  0  0  0  0  0  0  0  0  0  0
  -27.4185  -27.4923   20.0287 C   0  0  0  0  0  0  0  0  0  0  0  0
  -24.0893  -10.2490   20.5825 C   0  0  0  0  0  0  0  0  0  0  0  0
  -22.1282   -9.2023   22.2680 C   0  0  0  0  0  0  0  0  0  0  0  0
  -24.3453   -9.0897   21.3148 C   0  0  0  0  0  0  0  0  0  0  0  0
  -26.8640  -15.9630   20.7730 C   0  0  0  0  0  0  0  0  0  0  0  0
  -28.1058  -17.7505   21.0861 C   0  0  0  0  0  0  0  0  0  0  0  0
  -29.4115  -15.6872   20.5507 C   0  0  0  0  0  0  0  0  0  0  0  0
  -23.4492  -29.7322   22.9768 C   0  0  0  0  0  0  0  0  0  0  0  0
  -21.3389  -28.6672   20.7555 C   0  0  0  0  0  0  0  0  0  0  0  0
  -20.8069  -26.9600   17.8487 C   0  0  0  0  0  0  0  0  0  0  0  0
  -24.7101  -22.3309   20.0844 C   0  0  0  0  0  0  0  0  0  0  0  0
  -23.5146  -33.2233   26.7005 C   0  0  0  0  0  0  0  0  0  0  0  0
  -24.5070  -30.5562   20.8419 C   0  0  0  0  0  0  0  0  0  0  0  0
  -23.6765  -27.7257   20.6340 C   0  0  0  0  0  0  0  0  0  0  0  0
  -22.4395  -32.4054   25.9895 C   0  0  0  0  0  0  0  0  0  0  0  0
  -24.6826  -20.6191   23.2062 C   0  0  0  0  0  0  0  0  0  0  0  0
  -22.8359  -30.9334   25.9371 C   0  0  0  0  0  0  0  0  0  0  0  0
  -25.3663  -19.2858   22.8983 C   0  0  0  0  0  0  0  0  0  0  0  0
  -23.8212  -21.0946   22.0383 C   0  0  0  0  0  0  0  0  0  0  0  0
  -25.2050  -19.8351   20.4344 C   0  0  0  0  0  0  0  0  0  0  0  0
  -24.1352  -30.7398   25.1460 C   0  0  1  0  0  0  0  0  0  0  0  0
  -23.2426  -30.0384   21.5204 C   0  0  1  0  0  0  0  0  0  0  0  0
  -26.1291  -19.3424   21.5611 C   0  0  2  0  0  0  0  0  0  0  0  0
  -18.9712  -26.2247   16.3037 C   0  0  0  0  0  0  0  0  0  0  0  0
  -28.8651  -26.1115   22.0822 C   0  0  0  0  0  0  0  0  0  0  0  0
  -20.5595  -26.4746   22.7291 C   0  0  0  0  0  0  0  0  0  0  0  0
  -19.4715  -25.2523   20.8343 C   0  0  0  0  0  0  0  0  0  0  0  0
  -18.6388  -27.5064   21.5040 C   0  0  0  0  0  0  0  0  0  0  0  0
  -31.7480  -24.7960   18.4382 C   0  0  0  0  0  0  0  0  0  0  0  0
  -30.9566  -22.4180   18.7150 C   0  0  0  0  0  0  0  0  0  0  0  0
  -30.4015  -23.6949   16.6128 C   0  0  0  0  0  0  0  0  0  0  0  0
  -21.9361  -28.4987   15.5867 C   0  0  0  0  0  0  0  0  0  0  0  0
  -26.9160  -24.2344   18.4928 C   0  0  0  0  0  0  0  0  0  0  0  0
  -25.6832  -23.4345   18.0858 C   0  0  0  0  0  0  0  0  0  0  0  0
  -28.1963  -23.4155   18.3869 C   0  0  0  0  0  0  0  0  0  0  0  0
  -29.5030  -24.4736   20.2237 C   0  0  0  0  0  0  0  0  0  0  0  0
  -20.8555  -27.3101   20.3042 C   0  0  1  0  0  0  0  0  0  0  0  0
  -19.9966  -27.3045   16.6120 C   0  0  2  0  0  0  0  0  0  0  0  0
  -28.4941  -25.4941   20.7402 C   0  0  2  0  0  0  0  0  0  1  0  0
  -19.9088  -26.6430   21.3416 C   0  0  0  0  0  0  0  0  0  0  0  0
  -30.6437  -23.7895   18.1185 C   0  0  0  0  0  0  0  0  0  0  0  0
  -25.9888  -16.9355   21.0419 N   0  0  0  0  0  0  0  0  0  0  0  0
  -26.7744  -18.0100   21.2279 N   0  0  0  0  0  0  0  0  0  0  0  0
  -22.7256  -28.8186   20.8968 N   0  0  0  0  0  0  0  0  0  0  0  0
  -24.6045  -21.1273   20.8008 N   0  0  0  0  0  0  0  0  0  0  0  0
  -29.0347  -18.7180   21.2391 N   0  0  0  0  0  0  0  0  0  0  0  0
  -29.3255  -14.3196   20.2562 N   0  0  0  0  0  0  0  0  0  0  0  0
  -23.8767  -30.8132   23.7239 N   0  0  0  0  0  0  0  0  0  0  0  0
  -20.2565  -27.5069   18.9885 N   0  0  0  0  0  0  0  0  0  0  0  0
  -25.4760  -22.2763   18.9263 N   0  0  0  0  0  0  0  0  0  0  0  0
  -20.8926  -27.4529   15.4304 N   0  3  0  0  0  0  0  0  0  0  0  0
  -29.3706  -24.2877   18.7572 N   0  3  1  0  0  0  0  0  0  0  0  0
  -30.5398  -16.2315   20.6155 O   0  0  0  0  0  0  0  0  0  0  0  0
  -23.2352  -28.5994   23.3924 O   0  0  0  0  0  0  0  0  0  0  0  0
  -20.5169  -29.5621   20.9677 O   0  0  0  0  0  0  0  0  0  0  0  0
  -21.8241  -26.2714   17.8080 O   0  0  0  0  0  0  0  0  0  0  0  0
  -24.1669  -23.3779   20.4526 O   0  0  0  0  0  0  0  0  0  0  0  0
  -25.0621  -10.7702   19.7460 O   0  0  0  0  0  0  0  0  0  0  0  0
  -28.3396  -26.5256   19.7662 O   0  0  0  0  0  0  0  0  0  1  0  0
  -21.1870   -8.7007   23.0784 F   0  0  0  0  0  0  0  0  0  0  0  0
  -25.5318   -8.4750   21.2136 F   0  0  0  0  0  0  0  0  0  0  0  0
  1  2  1  0  0  0  0
  1  5  2  0  0  0  0
  2  6  2  0  0  0  0
  3  8  2  0  0  0  0
  3 15  1  0  0  0  0
  4  9  1  0  0  0  0
  4 15  2  0  0  0  0
  5 17  1  0  0  0  0
  6 19  1  0  0  0  0
  7 10  2  0  0  0  0
  7 18  1  0  0  0  0
  8 21  1  0  0  0  0
  9 21  2  0  0  0  0
 10 22  1  0  0  0  0
 11 12  2  0  0  0  0
 11 23  1  0  0  0  0
 12 24  1  0  0  0  0
 13 20  1  0  0  0  0
 13 22  2  0  0  0  0
 14 24  2  0  0  0  0
 14 25  1  0  0  0  0
 15 26  1  0  0  0  0
 16 26  1  0  0  0  0
 16 27  2  0  0  0  0
 16 28  1  0  0  0  0
 17 19  2  0  0  0  0
 17 33  1  0  0  0  0
 18 20  2  0  0  0  0
 18 34  1  0  0  0  0
 19 42  1  0  0  0  0
 20 35  1  0  0  0  0
 21 79  1  0  0  0  0
 22 80  1  0  0  0  0
 23 25  2  0  0  0  0
 23 79  1  0  0  0  0
 24 81  1  0  0  0  0
 25 82  1  0  0  0  0
 26 63  2  0  0  0  0
 27 64  1  0  0  0  0
 27 67  1  0  0  0  0
 28 68  1  0  0  0  0
 28 74  2  0  0  0  0
 29 43  1  0  0  0  0
 29 69  1  0  0  0  0
 29 75  2  0  0  0  0
 30 58  1  0  0  0  0
 30 65  1  0  0  0  0
 30 76  2  0  0  0  0
 31 59  1  0  0  0  0
 31 70  1  0  0  0  0
 31 77  2  0  0  0  0
 32 66  1  0  0  0  0
 32 71  1  0  0  0  0
 32 78  2  0  0  0  0
 33 36  1  0  0  0  0
 34 43  1  0  0  0  0
 35 65  1  0  0  0  0
 36 38  1  0  0  0  0
 37 39  1  0  0  0  0
 37 40  1  0  0  0  0
 38 42  1  0  0  0  0
 39 44  1  0  0  0  0
 40 66  1  0  0  0  0
 41 44  1  0  0  0  0
 41 66  1  0  0  0  0
 42 69  1  0  0  0  0
 43 65  1  0  0  0  0
 44 64  1  0  0  0  0
 45 59  1  0  0  0  0
 46 60  1  0  0  0  0
 47 61  1  0  0  0  0
 48 61  1  0  0  0  0
 49 61  1  0  0  0  0
 50 62  1  0  0  0  0
 51 62  1  0  0  0  0
 52 62  1  0  0  0  0
 53 72  1  0  0  0  0
 54 55  1  0  0  0  0
 54 56  1  0  0  0  0
 55 71  1  0  0  0  0
 56 73  1  0  0  0  0
 57 60  1  0  0  0  0
 57 73  1  0  0  0  0
 58 61  1  0  0  0  0
 58 70  1  0  0  0  0
 59 72  1  0  0  0  0
 60 80  1  0  0  0  0
 62 73  1  0  0  0  0
 63 64  1  0  0  0  0
M  CHG  2  72   1  73   1
M  ISO  4  32 100  60 101  71 100  80 101
M  END
> <Batch ID>
0098

> <Smiles>
CNC(C)C(=O)NC(C(=O)N1Cc2cc([101O:1][101CH:1](C)CN(CCC[100NH:0][100C:0](=O)N3CCCC(n4nc(-c5ccc(Oc6ccc(F)cc6F)cc5)c(C(N)=O)c4N)C3)C(C)(C)C)ccc2CC1C(=O)NC1CCCc2ccccc21)C(C)(C)C

> <Shape>
0.279

> <Color>
0.080

> <Negative vol penalty>
0.000

$$$$

  -OEChem-04052319293D

 88 96  0     1  0  0  0  0  0999 V2000
  -18.3100  -27.4725   19.2547 C   0  0  0  0  0  0  0  0  0  0  0  0
  -19.5744  -27.8997   18.8620 C   0  0  0  0  0  0  0  0  0  0  0  0
  -28.2527  -12.7508   21.3424 C   0  0  0  0  0  0  0  0  0  0  0  0
  -26.4520  -13.1411   19.7796 C   0  0  0  0  0  0  0  0  0  0  0  0
  -17.7880  -27.8791   20.4819 C   0  0  0  0  0  0  0  0  0  0  0  0
  -20.3172  -28.7347   19.6960 C   0  0  0  0  0  0  0  0  0  0  0  0
  -25.1573  -27.2946   20.0757 C   0  0  0  0  0  0  0  0  0  0  0  0
  -27.8736  -11.4124   21.4449 C   0  0  0  0  0  0  0  0  0  0  0  0
  -26.0729  -11.8026   19.8821 C   0  0  0  0  0  0  0  0  0  0  0  0
  -26.0022  -27.6154   19.0141 C   0  0  0  0  0  0  0  0  0  0  0  0
  -24.3646   -9.8566   22.0559 C   0  0  0  0  0  0  0  0  0  0  0  0
  -23.0060   -9.5773   22.2033 C   0  0  0  0  0  0  0  0  0  0  0  0
  -26.8493  -29.4964   20.2645 C   0  0  0  0  0  0  0  0  0  0  0  0
  -23.0479   -8.2938   20.1568 C   0  0  0  0  0  0  0  0  0  0  0  0
  -30.1660  -22.9169   18.2286 C   0  0  0  0  0  0  0  0  0  0  0  0
  -30.0602  -24.2618   20.0160 C   0  0  0  0  0  0  0  0  0  0  0  0
  -27.5418  -13.6152   20.5097 C   0  0  0  0  0  0  0  0  0  0  0  0
  -29.1730  -15.4998   19.9667 C   0  0  0  0  0  0  0  0  0  0  0  0
  -18.5287  -28.7117   21.3356 C   0  0  0  0  0  0  0  0  0  0  0  0
  -25.1441  -28.0800   21.2373 C   0  0  0  0  0  0  0  0  0  0  0  0
  -19.8040  -29.1539   20.9352 C   0  0  0  0  0  0  0  0  0  0  0  0
  -26.0051  -29.1819   21.3405 C   0  0  0  0  0  0  0  0  0  0  0  0
  -29.1266  -22.4733   19.0161 C   0  0  0  0  0  0  0  0  0  0  0  0
  -29.0597  -23.3240   20.1469 C   0  0  0  0  0  0  0  0  0  0  0  0
  -26.7838  -10.9383   20.7148 C   0  0  0  0  0  0  0  0  0  0  0  0
  -26.8463  -28.7181   19.1072 C   0  0  0  0  0  0  0  0  0  0  0  0
  -25.0648   -9.3546   20.9589 C   0  0  0  0  0  0  0  0  0  0  0  0
  -22.3476   -8.7958   21.2537 C   0  0  0  0  0  0  0  0  0  0  0  0
  -24.4065   -8.5732   20.0094 C   0  0  0  0  0  0  0  0  0  0  0  0
  -27.9325  -14.9980   20.4038 C   0  0  0  0  0  0  0  0  0  0  0  0
  -29.0401  -16.8643   20.0501 C   0  0  0  0  0  0  0  0  0  0  0  0
  -30.3410  -14.7955   19.5248 C   0  0  0  0  0  0  0  0  0  0  0  0
  -22.9610  -29.8469   22.7259 C   0  0  0  0  0  0  0  0  0  0  0  0
  -25.2803  -30.1172   24.9776 C   0  0  0  0  0  0  0  0  0  0  0  0
  -28.6054  -30.0131   25.7388 C   0  0  0  0  0  0  0  0  0  0  0  0
  -25.7231  -21.3275   18.8689 C   0  0  0  0  0  0  0  0  0  0  0  0
  -17.9032  -29.1632   22.6316 C   0  0  0  0  0  0  0  0  0  0  0  0
  -24.2462  -27.7050   22.3842 C   0  0  0  0  0  0  0  0  0  0  0  0
  -26.0438  -30.0453   22.5740 C   0  0  0  0  0  0  0  0  0  0  0  0
  -18.9079  -29.7449   23.6227 C   0  0  0  0  0  0  0  0  0  0  0  0
  -25.4669  -19.7172   22.1920 C   0  0  0  0  0  0  0  0  0  0  0  0
  -19.8370  -30.7323   22.9236 C   0  0  0  0  0  0  0  0  0  0  0  0
  -26.1270  -18.3598   21.9562 C   0  0  0  0  0  0  0  0  0  0  0  0
  -24.8387  -20.2716   20.9170 C   0  0  0  0  0  0  0  0  0  0  0  0
  -26.4406  -18.9953   19.5317 C   0  0  0  0  0  0  0  0  0  0  0  0
  -20.6504  -30.0401   21.8233 C   0  0  1  0  0  0  0  0  0  0  0  0
  -23.9448  -28.8758   23.3147 C   0  0  1  0  0  0  0  0  0  0  0  0
  -27.1237  -18.4303   20.7862 C   0  0  2  0  0  0  0  0  0  0  0  0
  -27.1968  -24.4813   21.3895 C   0  0  0  0  0  0  0  0  0  0  0  0
  -28.7829  -22.9613   22.6260 C   0  0  0  0  0  0  0  0  0  0  0  0
  -30.6691  -30.0350   27.1665 C   0  0  0  0  0  0  0  0  0  0  0  0
  -29.1175  -26.9115   14.6069 C   0  0  0  0  0  0  0  0  0  0  0  0
  -24.9453  -33.1435   24.7797 C   0  0  0  0  0  0  0  0  0  0  0  0
  -27.1424  -33.3935   25.9538 C   0  0  0  0  0  0  0  0  0  0  0  0
  -25.2338  -32.2758   27.1074 C   0  0  0  0  0  0  0  0  0  0  0  0
  -26.9013  -22.8042   17.2844 C   0  0  0  0  0  0  0  0  0  0  0  0
  -28.4719  -27.0896   26.1800 C   0  0  0  0  0  0  0  0  0  0  0  0
  -28.2493  -21.3223   18.7240 C   0  0  0  0  0  0  0  0  0  0  0  0
  -31.4927  -26.1188   17.6467 C   0  0  0  0  0  0  0  0  0  0  0  0
  -30.4847  -25.9220   16.5064 C   0  0  0  0  0  0  0  0  0  0  0  0
  -29.4909  -28.3112   16.6595 C   0  0  0  0  0  0  0  0  0  0  0  0
  -31.8946  -24.7986   18.3180 C   0  0  0  0  0  0  0  0  0  0  0  0
  -28.1340  -27.9567   17.2585 C   0  0  0  0  0  0  0  0  0  1  0  0
  -28.1004  -23.2327   21.2652 C   0  0  0  0  0  0  0  0  0  0  0  0
  -26.4216  -31.0732   25.2273 C   0  0  1  0  0  0  0  0  0  0  0  0
  -29.3610  -29.3226   26.8599 C   0  0  2  0  0  0  0  0  0  0  0  0
  -30.0815  -27.2110   15.7595 C   0  0  2  0  0  0  0  0  0  0  0  0
  -25.9339  -32.4566   25.7429 C   0  0  0  0  0  0  0  0  0  0  0  0
  -27.0747  -15.9650   20.7401 N   0  0  0  0  0  0  0  0  0  0  0  0
  -30.7260  -24.0047   18.8461 N   0  0  0  0  0  0  0  0  0  0  0  0
  -27.7773  -17.0882   20.5143 N   0  0  0  0  0  0  0  0  0  0  0  0
  -25.1426  -29.6415   23.6658 N   0  0  0  0  0  0  0  0  0  0  0  0
  -25.7954  -20.2872   19.8099 N   0  0  0  0  0  0  0  0  0  0  0  0
  -29.8814  -17.8825   19.7710 N   0  0  0  0  0  0  0  0  0  0  0  0
  -30.4653  -14.4973   18.1610 N   0  0  0  0  0  0  0  0  0  0  0  0
  -21.7414  -29.2845   22.4006 N   0  0  0  0  0  0  0  0  0  0  0  0
  -27.3379  -30.3875   26.1320 N   0  0  0  0  0  0  0  0  0  0  0  0
  -26.9232  -21.7221   18.2583 N   0  0  0  0  0  0  0  0  0  0  0  0
  -29.6698  -27.9136   26.4853 N   0  3  0  0  0  0  0  0  0  0  0  0
  -31.2399  -14.4267   20.3182 O   0  0  0  0  0  0  0  0  0  0  0  0
  -23.2839  -31.0198   22.5789 O   0  0  0  0  0  0  0  0  0  0  0  0
  -24.5426  -29.7984   25.9134 O   0  0  0  0  0  0  0  0  0  0  0  0
  -29.0923  -30.2047   24.6268 O   0  0  0  0  0  0  0  0  0  0  0  0
  -24.6488  -21.8789   18.5975 O   0  0  0  0  0  0  0  0  0  0  0  0
  -26.4138   -9.6322   20.8144 O   0  0  0  0  0  0  0  0  0  0  0  0
  -27.6715  -29.0338   18.0722 O   0  0  0  0  0  0  0  0  0  1  0  0
  -21.0433   -8.5264   21.3962 F   0  0  0  0  0  0  0  0  0  0  0  0
  -25.0742   -8.0872   18.9540 F   0  0  0  0  0  0  0  0  0  0  0  0
  1  2  1  0  0  0  0
  1  5  2  0  0  0  0
  2  6  2  0  0  0  0
  3  8  2  0  0  0  0
  3 17  1  0  0  0  0
  4  9  1  0  0  0  0
  4 17  2  0  0  0  0
  5 19  1  0  0  0  0
  6 21  1  0  0  0  0
  7 10  2  0  0  0  0
  7 20  1  0  0  0  0
  8 25  1  0  0  0  0
  9 25  2  0  0  0  0
 10 26  1  0  0  0  0
 11 12  2  0  0  0  0
 11 27  1  0  0  0  0
 12 28  1  0  0  0  0
 13 22  1  0  0  0  0
 13 26  2  0  0  0  0
 14 28  2  0  0  0  0
 14 29  1  0  0  0  0
 15 23  2  0  0  0  0
 15 70  1  0  0  0  0
 16 24  2  0  0  0  0
 16 70  1  0  0  0  0
 17 30  1  0  0  0  0
 18 30  1  0  0  0  0
 18 31  2  0  0  0  0
 18 32  1  0  0  0  0
 19 21  2  0  0  0  0
 19 37  1  0  0  0  0
 20 22  2  0  0  0  0
 20 38  1  0  0  0  0
 21 46  1  0  0  0  0
 22 39  1  0  0  0  0
 23 24  1  0  0  0  0
 23 58  1  0  0  0  0
 24 64  1  0  0  0  0
 25 85  1  0  0  0  0
 26 86  1  0  0  0  0
 27 29  2  0  0  0  0
 27 85  1  0  0  0  0
 28 87  1  0  0  0  0
 29 88  1  0  0  0  0
 30 69  2  0  0  0  0
 31 71  1  0  0  0  0
 31 74  1  0  0  0  0
 32 75  1  0  0  0  0
 32 80  2  0  0  0  0
 33 47  1  0  0  0  0
 33 76  1  0  0  0  0
 33 81  2  0  0  0  0
 34 65  1  0  0  0  0
 34 72  1  0  0  0  0
 34 82  2  0  0  0  0
 35 66  1  0  0  0  0
 35 77  1  0  0  0  0
 35 83  2  0  0  0  0
 36 73  1  0  0  0  0
 36 78  1  0  0  0  0
 36 84  2  0  0  0  0
 37 40  1  0  0  0  0
 38 47  1  0  0  0  0
 39 72  1  0  0  0  0
 40 42  1  0  0  0  0
 41 43  1  0  0  0  0
 41 44  1  0  0  0  0
 42 46  1  0  0  0  0
 43 48  1  0  0  0  0
 44 73  1  0  0  0  0
 45 48  1  0  0  0  0
 45 73  1  0  0  0  0
 46 76  1  0  0  0  0
 47 72  1  0  0  0  0
 48 71  1  0  0  0  0
 49 64  1  0  0  0  0
 50 64  1  0  0  0  0
 51 66  1  0  0  0  0
 52 67  1  0  0  0  0
 53 68  1  0  0  0  0
 54 68  1  0  0  0  0
 55 68  1  0  0  0  0
 56 78  1  0  0  0  0
 57 79  1  0  0  0  0
 58 78  1  0  0  0  0
 59 60  1  0  0  0  0
 59 62  1  0  0  0  0
 60 67  1  0  0  0  0
 61 63  1  0  0  0  0
 61 67  1  0  0  0  0
 62 70  1  0  0  0  0
 63 86  1  0  0  0  0
 65 68  1  0  0  0  0
 65 77  1  0  0  0  0
 66 79  1  0  0  0  0
 69 71  1  0  0  0  0
M  CHG  1  79   1
M  ISO  4  36 100  63 101  78 100  86 101
M  END
> <Batch ID>
0098

> <Smiles>
CNC(C)C(=O)NC(C(=O)N1Cc2cc([101O:1][101CH2:1]CC(C)CCCn3cc(C[100N:0](C)[100C:0](=O)N4CCCC(n5nc(-c6ccc(Oc7ccc(F)cc7F)cc6)c(C(N)=O)c5N)C4)c(C(C)C)c3)ccc2CC1C(=O)NC1CCCc2ccccc21)C(C)(C)C

> <Shape>
0.276

> <Color>
0.083

> <Negative vol penalty>
0.000

$$$$

  -OEChem-04052319293D

 82 90  0     1  0  0  0  0  0999 V2000
  -30.2288  -24.8995   13.6221 C   0  0  0  0  0  0  0  0  0  0  0  0
  -29.3185  -24.3652   14.5284 C   0  0  0  0  0  0  0  0  0  0  0  0
  -29.7128  -18.2928   21.7194 C   0  0  0  0  0  0  0  0  0  0  0  0
  -27.8672  -17.7253   20.2673 C   0  0  0  0  0  0  0  0  0  0  0  0
  -31.0935  -25.9174   14.0224 C   0  0  0  0  0  0  0  0  0  0  0  0
  -29.2731  -24.8479   15.8358 C   0  0  0  0  0  0  0  0  0  0  0  0
  -24.5390  -25.6336   17.4533 C   0  0  0  0  0  0  0  0  0  0  0  0
  -30.4340  -17.2047   21.2282 C   0  0  0  0  0  0  0  0  0  0  0  0
  -28.5884  -16.6371   19.7760 C   0  0  0  0  0  0  0  0  0  0  0  0
  -23.8072  -24.5146   17.8486 C   0  0  0  0  0  0  0  0  0  0  0  0
  -29.3525  -13.4989   20.7754 C   0  0  0  0  0  0  0  0  0  0  0  0
  -28.6836  -12.2813   20.6504 C   0  0  0  0  0  0  0  0  0  0  0  0
  -19.5249  -18.1005   20.6977 C   0  0  0  0  0  0  0  0  0  0  0  0
  -20.0070  -17.8862   22.0125 C   0  0  0  0  0  0  0  0  0  0  0  0
  -24.2865  -25.0244   20.1572 C   0  0  0  0  0  0  0  0  0  0  0  0
  -29.1317  -12.2789   18.2763 C   0  0  0  0  0  0  0  0  0  0  0  0
  -28.4293  -18.5531   21.2390 C   0  0  0  0  0  0  0  0  0  0  0  0
  -27.6769  -20.9906   21.2411 C   0  0  0  0  0  0  0  0  0  0  0  0
  -31.0520  -26.4194   15.3327 C   0  0  0  0  0  0  0  0  0  0  0  0
  -25.1601  -26.4515   18.4080 C   0  0  0  0  0  0  0  0  0  0  0  0
  -30.1389  -25.8725   16.2544 C   0  0  0  0  0  0  0  0  0  0  0  0
  -25.0234  -26.1545   19.7716 C   0  0  0  0  0  0  0  0  0  0  0  0
  -29.8718  -16.3768   20.2565 C   0  0  0  0  0  0  0  0  0  0  0  0
  -23.6833  -24.2082   19.2006 C   0  0  0  0  0  0  0  0  0  0  0  0
  -29.9109  -14.1066   19.6509 C   0  0  0  0  0  0  0  0  0  0  0  0
  -28.5732  -11.6713   19.4009 C   0  0  0  0  0  0  0  0  0  0  0  0
  -29.8005  -13.4965   18.4013 C   0  0  0  0  0  0  0  0  0  0  0  0
  -27.6836  -19.6767   21.7465 C   0  0  0  0  0  0  0  0  0  0  0  0
  -19.1370  -19.4194   20.6118 C   0  0  0  0  0  0  0  0  0  0  0  0
  -19.8988  -19.0806   22.6901 C   0  0  0  0  0  0  0  0  0  0  0  0
  -26.8164  -21.6718   22.0671 C   0  0  0  0  0  0  0  0  0  0  0  0
  -28.3850  -21.5458   20.1249 C   0  0  0  0  0  0  0  0  0  0  0  0
  -28.1647  -27.2673   19.0490 C   0  0  0  0  0  0  0  0  0  0  0  0
  -26.7573  -29.2529   21.1936 C   0  0  0  0  0  0  0  0  0  0  0  0
  -24.0494  -29.9556   23.1481 C   0  0  0  0  0  0  0  0  0  0  0  0
  -22.2279  -19.9353   25.4994 C   0  0  0  0  0  0  0  0  0  0  0  0
  -32.0388  -27.4877   15.7323 C   0  0  0  0  0  0  0  0  0  0  0  0
  -25.9236  -27.6700   17.9667 C   0  0  0  0  0  0  0  0  0  0  0  0
  -25.6539  -27.0122   20.8371 C   0  0  0  0  0  0  0  0  0  0  0  0
  -31.6710  -28.2017   17.0304 C   0  0  0  0  0  0  0  0  0  0  0  0
  -25.1489  -21.6781   26.5515 C   0  0  0  0  0  0  0  0  0  0  0  0
  -31.2760  -27.1908   18.1023 C   0  0  0  0  0  0  0  0  0  0  0  0
  -26.1292  -21.4813   25.3938 C   0  0  0  0  0  0  0  0  0  0  0  0
  -24.2885  -20.4373   26.7795 C   0  0  0  0  0  0  0  0  0  0  0  0
  -24.5544  -19.7541   24.4266 C   0  0  0  0  0  0  0  0  0  0  0  0
  -30.0424  -26.3867   17.6744 C   0  0  1  0  0  0  0  0  0  0  0  0
  -26.9439  -28.1419   18.9980 C   0  0  1  0  0  0  0  0  0  0  0  0
  -25.4055  -20.9988   24.1222 C   0  0  2  0  0  0  0  0  0  0  0  0
  -18.5663  -20.1659   19.4716 C   0  0  0  0  0  0  0  0  0  0  0  0
  -23.2073  -31.6267   24.8202 C   0  0  0  0  0  0  0  0  0  0  0  0
  -28.5610  -28.0244   23.3261 C   0  0  0  0  0  0  0  0  0  0  0  0
  -27.0547  -29.0079   25.0674 C   0  0  0  0  0  0  0  0  0  0  0  0
  -28.2849  -30.5042   23.4956 C   0  0  0  0  0  0  0  0  0  0  0  0
  -21.7625  -30.7018   21.4241 C   0  0  0  0  0  0  0  0  0  0  0  0
  -20.2570  -19.4136   24.0843 C   0  0  0  0  0  0  0  0  0  0  0  0
  -20.3268  -22.3437   22.1554 C   0  0  0  0  0  0  0  0  0  0  0  0
  -21.0779  -22.3067   20.8235 C   0  0  0  0  0  0  0  0  0  0  0  0
  -19.0838  -21.4468   22.1683 C   0  0  0  0  0  0  0  0  0  0  0  0
  -22.3242  -23.1809   20.8599 C   0  0  0  0  0  0  0  0  0  1  0  0
  -26.3363  -29.1399   22.6389 C   0  0  1  0  0  0  0  0  0  0  0  0
  -23.2589  -31.2355   23.3515 C   0  0  2  0  0  0  0  0  0  0  0  0
  -27.5488  -29.1516   23.6120 C   0  0  0  0  0  0  0  0  0  0  0  0
  -26.8905  -19.5297   22.8111 N   0  0  0  0  0  0  0  0  0  0  0  0
  -19.3686  -20.0053   21.8288 N   0  0  0  0  0  0  0  0  0  0  0  0
  -26.3775  -20.7600   22.9815 N   0  0  0  0  0  0  0  0  0  0  0  0
  -26.3956  -28.1890   20.3550 N   0  0  0  0  0  0  0  0  0  0  0  0
  -23.6287  -20.0327   25.5357 N   0  0  0  0  0  0  0  0  0  0  0  0
  -26.4002  -22.9557   22.0931 N   0  0  0  0  0  0  0  0  0  0  0  0
  -29.2275  -20.7061   19.3836 N   0  0  0  0  0  0  0  0  0  0  0  0
  -28.8407  -27.1743   17.8474 N   0  0  0  0  0  0  0  0  0  0  0  0
  -25.3750  -30.2129   22.8691 N   0  0  0  0  0  0  0  0  0  0  0  0
  -21.6830  -19.5518   24.2801 N   0  0  0  0  0  0  0  0  0  0  0  0
  -21.8619  -31.0650   22.8612 N   0  3  0  0  0  0  0  0  0  0  0  0
  -28.2867  -22.7546   19.8046 O   0  0  0  0  0  0  0  0  0  0  0  0
  -28.4715  -26.7188   20.1010 O   0  0  0  0  0  0  0  0  0  0  0  0
  -27.3779  -30.2516   20.8208 O   0  0  0  0  0  0  0  0  0  0  0  0
  -23.5426  -28.8391   23.2323 O   0  0  0  0  0  0  0  0  0  0  0  0
  -21.5153  -20.1777   26.4794 O   0  0  0  0  0  0  0  0  0  0  0  0
  -30.5754  -15.3150   19.7767 O   0  0  0  0  0  0  0  0  0  0  0  0
  -22.9702  -23.1163   19.5891 O   0  0  0  0  0  0  0  0  0  1  0  0
  -27.9322  -10.5013   19.2813 F   0  0  0  0  0  0  0  0  0  0  0  0
  -30.3360  -14.0749   17.3176 F   0  0  0  0  0  0  0  0  0  0  0  0
  1  2  1  0  0  0  0
  1  5  2  0  0  0  0
  2  6  2  0  0  0  0
  3  8  2  0  0  0  0
  3 17  1  0  0  0  0
  4  9  1  0  0  0  0
  4 17  2  0  0  0  0
  5 19  1  0  0  0  0
  6 21  1  0  0  0  0
  7 10  2  0  0  0  0
  7 20  1  0  0  0  0
  8 23  1  0  0  0  0
  9 23  2  0  0  0  0
 10 24  1  0  0  0  0
 11 12  2  0  0  0  0
 11 25  1  0  0  0  0
 12 26  1  0  0  0  0
 13 14  1  0  0  0  0
 13 29  2  0  0  0  0
 14 30  2  0  0  0  0
 15 22  1  0  0  0  0
 15 24  2  0  0  0  0
 16 26  2  0  0  0  0
 16 27  1  0  0  0  0
 17 28  1  0  0  0  0
 18 28  1  0  0  0  0
 18 31  2  0  0  0  0
 18 32  1  0  0  0  0
 19 21  2  0  0  0  0
 19 37  1  0  0  0  0
 20 22  2  0  0  0  0
 20 38  1  0  0  0  0
 21 46  1  0  0  0  0
 22 39  1  0  0  0  0
 23 79  1  0  0  0  0
 24 80  1  0  0  0  0
 25 27  2  0  0  0  0
 25 79  1  0  0  0  0
 26 81  1  0  0  0  0
 27 82  1  0  0  0  0
 28 63  2  0  0  0  0
 29 49  1  0  0  0  0
 29 64  1  0  0  0  0
 30 55  1  0  0  0  0
 30 64  1  0  0  0  0
 31 65  1  0  0  0  0
 31 68  1  0  0  0  0
 32 69  1  0  0  0  0
 32 74  2  0  0  0  0
 33 47  1  0  0  0  0
 33 70  1  0  0  0  0
 33 75  2  0  0  0  0
 34 60  1  0  0  0  0
 34 66  1  0  0  0  0
 34 76  2  0  0  0  0
 35 61  1  0  0  0  0
 35 71  1  0  0  0  0
 35 77  2  0  0  0  0
 36 67  1  0  0  0  0
 36 72  1  0  0  0  0
 36 78  2  0  0  0  0
 37 40  1  0  0  0  0
 38 47  1  0  0  0  0
 39 66  1  0  0  0  0
 40 42  1  0  0  0  0
 41 43  1  0  0  0  0
 41 44  1  0  0  0  0
 42 46  1  0  0  0  0
 43 48  1  0  0  0  0
 44 67  1  0  0  0  0
 45 48  1  0  0  0  0
 45 67  1  0  0  0  0
 46 70  1  0  0  0  0
 47 66  1  0  0  0  0
 48 65  1  0  0  0  0
 50 61  1  0  0  0  0
 51 62  1  0  0  0  0
 52 62  1  0  0  0  0
 53 62  1  0  0  0  0
 54 73  1  0  0  0  0
 55 72  1  0  0  0  0
 56 57  1  0  0  0  0
 56 58  1  0  0  0  0
 57 59  1  0  0  0  0
 58 64  1  0  0  0  0
 59 80  1  0  0  0  0
 60 62  1  0  0  0  0
 60 71  1  0  0  0  0
 61 73  1  0  0  0  0
 63 65  1  0  0  0  0
M  CHG  1  73   1
M  ISO  4  36 100  59 101  72 100  80 101
M  END
> <Batch ID>
0098

> <Smiles>
CNC(C)C(=O)NC(C(=O)N1Cc2cc([101O:1][101CH2:1]CCCn3c(C)ccc3C[100NH:0][100C:0](=O)N3CCCC(n4nc(-c5ccc(Oc6ccc(F)cc6F)cc5)c(C(N)=O)c4N)C3)ccc2CC1C(=O)NC1CCCc2ccccc21)C(C)(C)C

> <Shape>
0.183

> <Color>
0.070

> <Negative vol penalty>
0.000

$$$$

  -OEChem-04052319293D

 89 97  0     1  0  0  0  0  0999 V2000
  -27.1094  -35.5162   22.7856 C   0  0  0  0  0  0  0  0  0  0  0  0
  -27.4678  -34.1798   22.6408 C   0  0  0  0  0  0  0  0  0  0  0  0
  -24.8219   -8.4498   20.7943 C   0  0  0  0  0  0  0  0  0  0  0  0
  -23.0909   -9.9354   19.9984 C   0  0  0  0  0  0  0  0  0  0  0  0
  -25.8451  -35.8493   23.2696 C   0  0  0  0  0  0  0  0  0  0  0  0
  -26.5622  -33.1755   22.9811 C   0  0  0  0  0  0  0  0  0  0  0  0
  -26.3572  -29.4886   19.5156 C   0  0  0  0  0  0  0  0  0  0  0  0
  -23.8505   -7.5316   21.1930 C   0  0  0  0  0  0  0  0  0  0  0  0
  -22.1195   -9.0172   20.3971 C   0  0  0  0  0  0  0  0  0  0  0  0
  -27.3887  -28.5506   19.5221 C   0  0  0  0  0  0  0  0  0  0  0  0
  -21.7042   -7.1400   23.7745 C   0  0  0  0  0  0  0  0  0  0  0  0
  -21.8429   -6.5568   25.0340 C   0  0  0  0  0  0  0  0  0  0  0  0
  -25.9682  -27.0056   20.7114 C   0  0  0  0  0  0  0  0  0  0  0  0
  -26.1071  -21.4606   23.6127 C   0  0  0  0  0  0  0  0  0  0  0  0
  -27.8163  -19.7685   23.6214 C   0  0  0  0  0  0  0  0  0  0  0  0
  -21.9499   -4.3711   24.0100 C   0  0  0  0  0  0  0  0  0  0  0  0
  -24.4420   -9.6517   20.1970 C   0  0  0  0  0  0  0  0  0  0  0  0
  -26.0832  -10.6738   18.5328 C   0  0  0  0  0  0  0  0  0  0  0  0
  -24.9200  -34.8486   23.6069 C   0  0  0  0  0  0  0  0  0  0  0  0
  -25.1250  -29.1957   20.1176 C   0  0  0  0  0  0  0  0  0  0  0  0
  -25.2847  -33.4955   23.4714 C   0  0  0  0  0  0  0  0  0  0  0  0
  -24.9219  -27.9406   20.7090 C   0  0  0  0  0  0  0  0  0  0  0  0
  -27.4119  -21.0707   23.8936 C   0  0  0  0  0  0  0  0  0  0  0  0
  -22.4993   -7.8153   20.9944 C   0  0  0  0  0  0  0  0  0  0  0  0
  -27.1953  -27.3100   20.1225 C   0  0  0  0  0  0  0  0  0  0  0  0
  -21.6882   -6.3388   22.6328 C   0  0  0  0  0  0  0  0  0  0  0  0
  -21.9658   -5.1724   25.1517 C   0  0  0  0  0  0  0  0  0  0  0  0
  -21.8111   -4.9544   22.7506 C   0  0  0  0  0  0  0  0  0  0  0  0
  -25.4450  -10.6009   19.7855 C   0  0  0  0  0  0  0  0  0  0  0  0
  -25.2523  -20.5181   23.0644 C   0  0  0  0  0  0  0  0  0  0  0  0
  -26.8849  -18.9016   23.0729 C   0  0  0  0  0  0  0  0  0  0  0  0
  -26.9433  -11.7385   18.6472 C   0  0  0  0  0  0  0  0  0  0  0  0
  -25.9137   -9.8526   17.3698 C   0  0  0  0  0  0  0  0  0  0  0  0
  -23.4575  -30.4255   22.5281 C   0  0  0  0  0  0  0  0  0  0  0  0
  -21.2065  -28.3101   21.5382 C   0  0  0  0  0  0  0  0  0  0  0  0
  -20.4820  -25.4041   19.9020 C   0  0  0  0  0  0  0  0  0  0  0  0
  -26.5526  -16.5350   22.2523 C   0  0  0  0  0  0  0  0  0  0  0  0
  -23.5822  -35.2571   24.1707 C   0  0  0  0  0  0  0  0  0  0  0  0
  -24.0135  -30.2083   20.0787 C   0  0  0  0  0  0  0  0  0  0  0  0
  -23.6110  -27.5694   21.3511 C   0  0  0  0  0  0  0  0  0  0  0  0
  -22.5465  -34.1358   24.1548 C   0  0  0  0  0  0  0  0  0  0  0  0
  -29.1206  -13.6946   22.5005 C   0  0  0  0  0  0  0  0  0  0  0  0
  -23.1533  -32.8409   24.6857 C   0  0  0  0  0  0  0  0  0  0  0  0
  -28.8297  -12.9744   21.1859 C   0  0  0  0  0  0  0  0  0  0  0  0
  -28.6850  -15.1541   22.4680 C   0  0  0  0  0  0  0  0  0  0  0  0
  -26.5897  -14.1525   21.5392 C   0  0  0  0  0  0  0  0  0  0  0  0
  -24.3211  -32.3777   23.8064 C   0  0  1  0  0  0  0  0  0  0  0  0
  -22.9721  -29.9948   21.1729 C   0  0  1  0  0  0  0  0  0  0  0  0
  -27.4904  -13.3965   20.5500 C   0  0  2  0  0  0  0  0  0  0  0  0
  -18.5570  -23.9148   19.2907 C   0  0  0  0  0  0  0  0  0  0  0  0
  -23.7937  -22.0707   21.7201 C   0  0  0  0  0  0  0  0  0  0  0  0
  -23.0875  -21.3689   24.0320 C   0  0  0  0  0  0  0  0  0  0  0  0
  -22.9616  -19.7650   22.1364 C   0  0  0  0  0  0  0  0  0  0  0  0
  -21.1085  -27.2649   24.4032 C   0  0  0  0  0  0  0  0  0  0  0  0
  -19.9311  -25.2284   23.5460 C   0  0  0  0  0  0  0  0  0  0  0  0
  -18.8776  -27.4753   23.2926 C   0  0  0  0  0  0  0  0  0  0  0  0
  -20.9758  -25.7598   17.0057 C   0  0  0  0  0  0  0  0  0  0  0  0
  -32.2117  -25.1593   23.3660 C   0  0  0  0  0  0  0  0  0  0  0  0
  -28.3845  -22.0560   24.4911 C   0  0  0  0  0  0  0  0  0  0  0  0
  -29.1795  -22.8537   23.4490 C   0  0  0  0  0  0  0  0  0  0  0  0
  -30.4300  -25.8877   20.8573 C   0  0  0  0  0  0  0  0  0  0  0  0
  -30.2145  -23.8212   24.0150 C   0  0  0  0  0  0  0  0  0  0  0  0
  -30.0099  -25.6075   22.2922 C   0  0  0  0  0  0  0  0  0  0  0  0
  -29.5367  -26.8940   20.1422 C   0  0  0  0  0  0  0  0  0  1  0  0
  -20.8734  -26.8736   21.8620 C   0  0  1  0  0  0  0  0  0  0  0  0
  -19.4382  -25.0734   18.8505 C   0  0  2  0  0  0  0  0  0  0  0  0
  -23.8444  -20.9010   22.7508 C   0  0  0  0  0  0  0  0  0  0  0  0
  -20.2231  -26.7180   23.2656 C   0  0  0  0  0  0  0  0  0  0  0  0
  -25.8639  -11.5441   20.6333 N   0  0  0  0  0  0  0  0  0  0  0  0
  -25.6089  -19.2440   22.7863 N   0  0  0  0  0  0  0  0  0  0  0  0
  -26.7747  -12.2197   19.9122 N   0  0  0  0  0  0  0  0  0  0  0  0
  -22.5570  -28.5957   21.2928 N   0  0  0  0  0  0  0  0  0  0  0  0
  -27.2750  -15.3276   22.0898 N   0  0  0  0  0  0  0  0  0  0  0  0
  -27.8198  -12.3007   17.7881 N   0  0  0  0  0  0  0  0  0  0  0  0
  -24.9881   -8.8015   17.4232 N   0  0  0  0  0  0  0  0  0  0  0  0
  -27.3068  -17.5764   22.7995 N   0  0  0  0  0  0  0  0  0  0  0  0
  -23.8271  -31.7553   22.5969 N   0  0  0  0  0  0  0  0  0  0  0  0
  -20.0456  -26.3888   20.7628 N   0  0  0  0  0  0  0  0  0  0  0  0
  -20.0964  -24.7017   17.5661 N   0  3  0  0  0  0  0  0  0  0  0  0
  -30.8928  -24.5872   22.9047 N   0  3  1  0  0  0  0  0  0  0  0  0
  -26.5757  -10.0349   16.3200 O   0  0  0  0  0  0  0  0  0  0  0  0
  -23.4926  -29.6121   23.4439 O   0  0  0  0  0  0  0  0  0  0  0  0
  -20.3007  -29.1464   21.4973 O   0  0  0  0  0  0  0  0  0  0  0  0
  -21.5737  -24.8422   19.9566 O   0  0  0  0  0  0  0  0  0  0  0  0
  -25.3695  -16.6320   21.9195 O   0  0  0  0  0  0  0  0  0  0  0  0
  -21.5512   -6.9194   21.3831 O   0  0  0  0  0  0  0  0  0  0  0  0
  -28.2006  -26.3929   20.1308 O   0  0  0  0  0  0  0  0  0  1  0  0
  -22.1005   -4.6125   26.3611 F   0  0  0  0  0  0  0  0  0  0  0  0
  -21.7977   -4.1796   21.6573 F   0  0  0  0  0  0  0  0  0  0  0  0
  1  2  1  0  0  0  0
  1  5  2  0  0  0  0
  2  6  2  0  0  0  0
  3  8  2  0  0  0  0
  3 17  1  0  0  0  0
  4  9  1  0  0  0  0
  4 17  2  0  0  0  0
  5 19  1  0  0  0  0
  6 21  1  0  0  0  0
  7 10  2  0  0  0  0
  7 20  1  0  0  0  0
  8 24  1  0  0  0  0
  9 24  2  0  0  0  0
 10 25  1  0  0  0  0
 11 12  2  0  0  0  0
 11 26  1  0  0  0  0
 12 27  1  0  0  0  0
 13 22  1  0  0  0  0
 13 25  2  0  0  0  0
 14 23  2  0  0  0  0
 14 30  1  0  0  0  0
 15 23  1  0  0  0  0
 15 31  2  0  0  0  0
 16 27  2  0  0  0  0
 16 28  1  0  0  0  0
 17 29  1  0  0  0  0
 18 29  1  0  0  0  0
 18 32  2  0  0  0  0
 18 33  1  0  0  0  0
 19 21  2  0  0  0  0
 19 38  1  0  0  0  0
 20 22  2  0  0  0  0
 20 39  1  0  0  0  0
 21 47  1  0  0  0  0
 22 40  1  0  0  0  0
 23 59  1  0  0  0  0
 24 86  1  0  0  0  0
 25 87  1  0  0  0  0
 26 28  2  0  0  0  0
 26 86  1  0  0  0  0
 27 88  1  0  0  0  0
 28 89  1  0  0  0  0
 29 69  2  0  0  0  0
 30 67  1  0  0  0  0
 30 70  2  0  0  0  0
 31 70  1  0  0  0  0
 31 76  1  0  0  0  0
 32 71  1  0  0  0  0
 32 74  1  0  0  0  0
 33 75  1  0  0  0  0
 33 81  2  0  0  0  0
 34 48  1  0  0  0  0
 34 77  1  0  0  0  0
 34 82  2  0  0  0  0
 35 65  1  0  0  0  0
 35 72  1  0  0  0  0
 35 83  2  0  0  0  0
 36 66  1  0  0  0  0
 36 78  1  0  0  0  0
 36 84  2  0  0  0  0
 37 73  1  0  0  0  0
 37 76  1  0  0  0  0
 37 85  2  0  0  0  0
 38 41  1  0  0  0  0
 39 48  1  0  0  0  0
 40 72  1  0  0  0  0
 41 43  1  0  0  0  0
 42 44  1  0  0  0  0
 42 45  1  0  0  0  0
 43 47  1  0  0  0  0
 44 49  1  0  0  0  0
 45 73  1  0  0  0  0
 46 49  1  0  0  0  0
 46 73  1  0  0  0  0
 47 77  1  0  0  0  0
 48 72  1  0  0  0  0
 49 71  1  0  0  0  0
 50 66  1  0  0  0  0
 51 67  1  0  0  0  0
 52 67  1  0  0  0  0
 53 67  1  0  0  0  0
 54 68  1  0  0  0  0
 55 68  1  0  0  0  0
 56 68  1  0  0  0  0
 57 79  1  0  0  0  0
 58 80  1  0  0  0  0
 59 60  1  0  0  0  0
 60 62  1  0  0  0  0
 61 63  1  0  0  0  0
 61 64  1  0  0  0  0
 62 80  1  0  0  0  0
 63 80  1  0  0  0  0
 64 87  1  0  0  0  0
 65 68  1  0  0  0  0
 65 78  1  0  0  0  0
 66 79  1  0  0  0  0
 69 71  1  0  0  0  0
M  CHG  2  79   1  80   1
M  ISO  4  37 100  64 101  76 100  87 101
M  END
> <Batch ID>
0098

> <Smiles>
CNC(C)C(=O)NC(C(=O)N1Cc2cc([101O:1][101CH2:1]CCN(C)CCCc3cc([100NH:0][100C:0](=O)N4CCCC(n5nc(-c6ccc(Oc7ccc(F)cc7F)cc6)c(C(N)=O)c5N)C4)nc(C(C)(C)C)c3)ccc2CC1C(=O)NC1CCCc2ccccc21)C(C)(C)C

> <Shape>
0.280

> <Color>
0.107

> <Negative vol penalty>
0.000

$$$$

  -OEChem-04052319293D

 83 90  0     1  0  0  0  0  0999 V2000
  -39.0071  -22.6657   13.6908 C   0  0  0  0  0  0  0  0  0  0  0  0
  -38.7075  -22.0506   14.9021 C   0  0  0  0  0  0  0  0  0  0  0  0
  -23.0743   -9.8683   19.9409 C   0  0  0  0  0  0  0  0  0  0  0  0
  -23.8379   -9.8743   22.2331 C   0  0  0  0  0  0  0  0  0  0  0  0
  -39.6122  -23.9217   13.6790 C   0  0  0  0  0  0  0  0  0  0  0  0
  -39.0138  -22.6908   16.1024 C   0  0  0  0  0  0  0  0  0  0  0  0
  -35.2309  -22.4378   19.4596 C   0  0  0  0  0  0  0  0  0  0  0  0
  -22.3318   -8.7144   20.1913 C   0  0  0  0  0  0  0  0  0  0  0  0
  -23.0953   -8.7204   22.4835 C   0  0  0  0  0  0  0  0  0  0  0  0
  -35.0710  -21.2368   20.1493 C   0  0  0  0  0  0  0  0  0  0  0  0
  -19.8688   -7.9196   23.0907 C   0  0  0  0  0  0  0  0  0  0  0  0
  -19.1138   -7.8782   24.2628 C   0  0  0  0  0  0  0  0  0  0  0  0
  -36.2050  -22.1871   22.0546 C   0  0  0  0  0  0  0  0  0  0  0  0
  -20.3580   -5.9413   24.9959 C   0  0  0  0  0  0  0  0  0  0  0  0
  -23.8274  -10.4483   20.9618 C   0  0  0  0  0  0  0  0  0  0  0  0
  -24.1670  -12.9738   20.8430 C   0  0  0  0  0  0  0  0  0  0  0  0
  -39.9172  -24.5819   14.8797 C   0  0  0  0  0  0  0  0  0  0  0  0
  -35.8898  -23.5208   20.0592 C   0  0  0  0  0  0  0  0  0  0  0  0
  -39.6247  -23.9563   16.1067 C   0  0  0  0  0  0  0  0  0  0  0  0
  -36.3698  -23.4016   21.3713 C   0  0  0  0  0  0  0  0  0  0  0  0
  -22.3423   -8.1404   21.4625 C   0  0  0  0  0  0  0  0  0  0  0  0
  -35.5606  -21.1104   21.4460 C   0  0  0  0  0  0  0  0  0  0  0  0
  -20.8684   -6.9717   22.8711 C   0  0  0  0  0  0  0  0  0  0  0  0
  -19.3584   -6.8891   25.2154 C   0  0  0  0  0  0  0  0  0  0  0  0
  -21.1130   -5.9826   23.8237 C   0  0  0  0  0  0  0  0  0  0  0  0
  -24.5951  -11.6399   20.7036 C   0  0  0  0  0  0  0  0  0  0  0  0
  -25.2580  -13.7244   20.4784 C   0  0  0  0  0  0  0  0  0  0  0  0
  -22.8968  -13.4883   21.2643 C   0  0  0  0  0  0  0  0  0  0  0  0
  -38.5235  -25.1797   19.4148 C   0  0  0  0  0  0  0  0  0  0  0  0
  -37.4997  -27.0197   21.8823 C   0  0  0  0  0  0  0  0  0  0  0  0
  -35.6461  -27.2676   24.7371 C   0  0  0  0  0  0  0  0  0  0  0  0
  -30.7412  -14.7477   20.6585 C   0  0  0  0  0  0  0  0  0  0  0  0
  -40.6141  -25.9180   14.8167 C   0  0  0  0  0  0  0  0  0  0  0  0
  -36.0306  -24.8183   19.3115 C   0  0  0  0  0  0  0  0  0  0  0  0
  -37.0666  -24.5411   22.0673 C   0  0  0  0  0  0  0  0  0  0  0  0
  -40.5649  -26.6932   16.1309 C   0  0  0  0  0  0  0  0  0  0  0  0
  -29.6016  -12.3639   18.2720 C   0  0  0  0  0  0  0  0  0  0  0  0
  -40.9219  -25.7826   17.3015 C   0  0  0  0  0  0  0  0  0  0  0  0
  -28.1651  -12.0687   18.7070 C   0  0  0  0  0  0  0  0  0  0  0  0
  -30.5206  -12.5846   19.4715 C   0  0  0  0  0  0  0  0  0  0  0  0
  -28.6205  -13.3132   20.8617 C   0  0  0  0  0  0  0  0  0  0  0  0
  -39.9189  -24.6298   17.4295 C   0  0  1  0  0  0  0  0  0  0  0  0
  -37.1719  -25.6868   19.8315 C   0  0  1  0  0  0  0  0  0  0  0  0
  -27.6445  -13.1387   19.6856 C   0  0  2  0  0  0  0  0  0  0  0  0
  -31.4284  -20.7420   24.2038 C   0  0  0  0  0  0  0  0  0  0  0  0
  -35.0351  -28.8863   26.5547 C   0  0  0  0  0  0  0  0  0  0  0  0
  -29.0998  -18.1508   20.4715 C   0  0  0  0  0  0  0  0  0  0  0  0
  -40.2490  -26.6328   23.1477 C   0  0  0  0  0  0  0  0  0  0  0  0
  -39.2863  -27.4319   25.3163 C   0  0  0  0  0  0  0  0  0  0  0  0
  -39.3299  -28.9509   23.3380 C   0  0  0  0  0  0  0  0  0  0  0  0
  -34.6837  -17.6808   22.3945 C   0  0  0  0  0  0  0  0  0  0  0  0
  -35.5673  -18.5226   20.2102 C   0  0  0  0  0  0  0  0  0  0  0  0
  -32.7698  -27.1277   24.0543 C   0  0  0  0  0  0  0  0  0  0  0  0
  -30.6330  -20.5509   20.7675 C   0  0  0  0  0  0  0  0  0  0  0  0
  -32.4575  -20.6017   23.0896 C   0  0  0  0  0  0  0  0  0  0  0  0
  -33.2928  -19.3129   21.0757 C   0  0  0  0  0  0  0  0  0  0  0  0
  -30.8074  -16.8974   21.8968 C   0  0  0  0  0  0  0  0  0  0  0  0
  -37.7058  -27.0137   23.3777 C   0  0  1  0  0  0  0  0  0  0  0  0
  -34.6465  -28.3113   25.2015 C   0  0  2  0  0  0  0  0  0  0  0  0
  -30.5414  -18.0695   20.9547 C   0  0  2  0  0  0  0  0  0  0  0  0
  -32.2615  -19.3507   22.2199 C   0  0  2  0  0  0  0  0  0  0  0  0
  -39.1314  -27.4850   23.7814 C   0  0  0  0  0  0  0  0  0  0  0  0
  -34.7332  -18.8807   21.4407 C   0  0  0  0  0  0  0  0  0  1  0  0
  -25.8594  -11.5454   20.2832 N   0  0  0  0  0  0  0  0  0  0  0  0
  -26.2351  -12.8294   20.1552 N   0  0  0  0  0  0  0  0  0  0  0  0
  -37.1854  -25.7872   21.2924 N   0  0  0  0  0  0  0  0  0  0  0  0
  -29.9706  -13.6121   20.3591 N   0  0  0  0  0  0  0  0  0  0  0  0
  -25.4672  -15.0561   20.4060 N   0  0  0  0  0  0  0  0  0  0  0  0
  -21.8862  -12.5781   21.6026 N   0  0  0  0  0  0  0  0  0  0  0  0
  -38.6940  -25.0918   18.0463 N   0  0  0  0  0  0  0  0  0  0  0  0
  -36.6281  -27.8192   23.9416 N   0  0  0  0  0  0  0  0  0  0  0  0
  -30.1427  -15.6754   21.5022 N   0  0  0  0  0  0  0  0  0  0  0  0
  -33.2875  -27.7109   25.3188 N   0  3  0  0  0  0  0  0  0  0  0  0
  -30.8841  -19.3592   21.6554 N   0  3  1  0  0  0  0  0  0  0  0  0
  -22.6597  -14.7187   21.3229 O   0  0  0  0  0  0  0  0  0  0  0  0
  -39.3510  -24.8911   20.2713 O   0  0  0  0  0  0  0  0  0  0  0  0
  -37.6063  -28.0802   21.2614 O   0  0  0  0  0  0  0  0  0  0  0  0
  -35.5662  -26.0822   25.0517 O   0  0  0  0  0  0  0  0  0  0  0  0
  -31.8763  -14.9244   20.2032 O   0  0  0  0  0  0  0  0  0  0  0  0
  -21.6176   -7.0146   21.7073 O   0  0  0  0  0  0  0  0  0  0  0  0
  -35.4065  -19.9390   22.1213 O   0  0  0  0  0  0  0  0  0  1  0  0
  -18.6343   -6.8505   26.3416 F   0  0  0  0  0  0  0  0  0  0  0  0
  -22.0727   -5.0700   23.6189 F   0  0  0  0  0  0  0  0  0  0  0  0
  1  2  1  0  0  0  0
  1  5  2  0  0  0  0
  2  6  2  0  0  0  0
  3  8  2  0  0  0  0
  3 15  1  0  0  0  0
  4  9  1  0  0  0  0
  4 15  2  0  0  0  0
  5 17  1  0  0  0  0
  6 19  1  0  0  0  0
  7 10  2  0  0  0  0
  7 18  1  0  0  0  0
  8 21  1  0  0  0  0
  9 21  2  0  0  0  0
 10 22  1  0  0  0  0
 11 12  2  0  0  0  0
 11 23  1  0  0  0  0
 12 24  1  0  0  0  0
 13 20  1  0  0  0  0
 13 22  2  0  0  0  0
 14 24  2  0  0  0  0
 14 25  1  0  0  0  0
 15 26  1  0  0  0  0
 16 26  1  0  0  0  0
 16 27  2  0  0  0  0
 16 28  1  0  0  0  0
 17 19  2  0  0  0  0
 17 33  1  0  0  0  0
 18 20  2  0  0  0  0
 18 34  1  0  0  0  0
 19 42  1  0  0  0  0
 20 35  1  0  0  0  0
 21 80  1  0  0  0  0
 22 81  1  0  0  0  0
 23 25  2  0  0  0  0
 23 80  1  0  0  0  0
 24 82  1  0  0  0  0
 25 83  1  0  0  0  0
 26 64  2  0  0  0  0
 27 65  1  0  0  0  0
 27 68  1  0  0  0  0
 28 69  1  0  0  0  0
 28 75  2  0  0  0  0
 29 43  1  0  0  0  0
 29 70  1  0  0  0  0
 29 76  2  0  0  0  0
 30 58  1  0  0  0  0
 30 66  1  0  0  0  0
 30 77  2  0  0  0  0
 31 59  1  0  0  0  0
 31 71  1  0  0  0  0
 31 78  2  0  0  0  0
 32 67  1  0  0  0  0
 32 72  1  0  0  0  0
 32 79  2  0  0  0  0
 33 36  1  0  0  0  0
 34 43  1  0  0  0  0
 35 66  1  0  0  0  0
 36 38  1  0  0  0  0
 37 39  1  0  0  0  0
 37 40  1  0  0  0  0
 38 42  1  0  0  0  0
 39 44  1  0  0  0  0
 40 67  1  0  0  0  0
 41 44  1  0  0  0  0
 41 67  1  0  0  0  0
 42 70  1  0  0  0  0
 43 66  1  0  0  0  0
 44 65  1  0  0  0  0
 45 55  1  0  0  0  0
 46 59  1  0  0  0  0
 47 60  1  0  0  0  0
 48 62  1  0  0  0  0
 49 62  1  0  0  0  0
 50 62  1  0  0  0  0
 51 63  1  0  0  0  0
 52 63  1  0  0  0  0
 53 73  1  0  0  0  0
 54 74  1  0  0  0  0
 55 61  1  0  0  0  0
 56 61  1  0  0  0  0
 56 63  1  0  0  0  0
 57 60  1  0  0  0  0
 57 72  1  0  0  0  0
 58 62  1  0  0  0  0
 58 71  1  0  0  0  0
 59 73  1  0  0  0  0
 60 74  1  0  0  0  0
 61 74  1  0  0  0  0
 63 81  1  0  0  0  0
 64 65  1  0  0  0  0
M  CHG  2  73   1  74   1
M  ISO  4  32 100  63 101  72 100  81 101
M  END
> <Batch ID>
0098

> <Smiles>
CCC(C[101C:1](C)(C)[101O:1]c1ccc2c(c1)CN(C(=O)C(NC(=O)C(C)NC)C(C)(C)C)C(C(=O)NC1CCCc3ccccc31)C2)N(C)C(C)C[100NH:0][100C:0](=O)N1CCCC(n2nc(-c3ccc(Oc4ccc(F)cc4F)cc3)c(C(N)=O)c2N)C1

> <Shape>
0.177

> <Color>
0.187

> <Negative vol penalty>
0.000

$$$$

  -OEChem-04052319293D

 85 93  0     1  0  0  0  0  0999 V2000
  -24.1927  -23.4943   17.6479 C   0  0  0  0  0  0  0  0  0  0  0  0
  -24.9311  -22.3327   17.4517 C   0  0  0  0  0  0  0  0  0  0  0  0
  -22.3533  -28.5305   20.7242 C   0  0  0  0  0  0  0  0  0  0  0  0
  -23.3440  -26.9825   22.2924 C   0  0  0  0  0  0  0  0  0  0  0  0
  -23.3137  -23.5833   18.7251 C   0  0  0  0  0  0  0  0  0  0  0  0
  -24.7817  -21.2553   18.3257 C   0  0  0  0  0  0  0  0  0  0  0  0
  -27.0918  -17.0773   17.1379 C   0  0  0  0  0  0  0  0  0  0  0  0
  -21.0941  -28.2739   21.2665 C   0  0  0  0  0  0  0  0  0  0  0  0
  -22.0848  -26.7260   22.8347 C   0  0  0  0  0  0  0  0  0  0  0  0
  -28.4755  -16.9300   17.2252 C   0  0  0  0  0  0  0  0  0  0  0  0
  -19.3199  -29.2001   23.9918 C   0  0  0  0  0  0  0  0  0  0  0  0
  -18.4907  -30.2916   24.2499 C   0  0  0  0  0  0  0  0  0  0  0  0
  -28.2056  -15.6551   19.2553 C   0  0  0  0  0  0  0  0  0  0  0  0
  -30.8659  -22.2993   20.5026 C   0  0  0  0  0  0  0  0  0  0  0  0
  -16.8359  -29.3923   22.7366 C   0  0  0  0  0  0  0  0  0  0  0  0
  -32.3024  -21.8870   18.6524 C   0  0  0  0  0  0  0  0  0  0  0  0
  -23.4783  -27.8847   21.2371 C   0  0  0  0  0  0  0  0  0  0  0  0
  -25.6927  -29.1413   21.0799 C   0  0  0  0  0  0  0  0  0  0  0  0
  -23.1634  -22.5106   19.6195 C   0  0  0  0  0  0  0  0  0  0  0  0
  -26.2539  -16.5229   18.1162 C   0  0  0  0  0  0  0  0  0  0  0  0
  -23.8818  -21.3168   19.4050 C   0  0  0  0  0  0  0  0  0  0  0  0
  -26.8116  -15.7946   19.1767 C   0  0  0  0  0  0  0  0  0  0  0  0
  -31.5963  -22.7930   19.4274 C   0  0  0  0  0  0  0  0  0  0  0  0
  -30.8637  -20.9341   20.7661 C   0  0  0  0  0  0  0  0  0  0  0  0
  -20.9598  -27.3717   22.3218 C   0  0  0  0  0  0  0  0  0  0  0  0
  -29.0328  -16.2213   18.2855 C   0  0  0  0  0  0  0  0  0  0  0  0
  -18.9071  -28.2047   23.1060 C   0  0  0  0  0  0  0  0  0  0  0  0
  -17.2486  -30.3877   23.6224 C   0  0  0  0  0  0  0  0  0  0  0  0
  -17.6651  -28.3008   22.4784 C   0  0  0  0  0  0  0  0  0  0  0  0
  -24.7793  -28.1488   20.6770 C   0  0  0  0  0  0  0  0  0  0  0  0
  -31.6023  -20.1113   19.9310 C   0  0  0  0  0  0  0  0  0  0  0  0
  -26.7683  -28.9789   20.2413 C   0  0  0  0  0  0  0  0  0  0  0  0
  -25.5792  -30.1224   22.1193 C   0  0  0  0  0  0  0  0  0  0  0  0
  -24.1805  -17.6962   20.2205 C   0  0  0  0  0  0  0  0  0  0  0  0
  -23.5630  -14.5602   20.7742 C   0  0  0  0  0  0  0  0  0  0  0  0
  -24.6491  -11.3274   20.6482 C   0  0  0  0  0  0  0  0  0  0  0  0
  -29.7633  -24.8059   17.5710 C   0  0  0  0  0  0  0  0  0  0  0  0
  -22.1921  -22.6578   20.7641 C   0  0  0  0  0  0  0  0  0  0  0  0
  -24.7619  -16.6680   17.9932 C   0  0  0  0  0  0  0  0  0  0  0  0
  -25.9545  -15.1627   20.2419 C   0  0  0  0  0  0  0  0  0  0  0  0
  -22.4302  -21.6455   21.8798 C   0  0  0  0  0  0  0  0  0  0  0  0
  -27.4530  -26.8736   15.8207 C   0  0  0  0  0  0  0  0  0  0  0  0
  -22.5469  -20.2457   21.2953 C   0  0  0  0  0  0  0  0  0  0  0  0
  -26.6129  -27.5055   16.9320 C   0  0  0  0  0  0  0  0  0  0  0  0
  -27.8326  -25.4318   16.1507 C   0  0  0  0  0  0  0  0  0  0  0  0
  -27.6542  -25.8807   18.5674 C   0  0  0  0  0  0  0  0  0  0  0  0
  -23.7586  -20.1435   20.3603 C   0  0  1  0  0  0  0  0  0  0  0  0
  -24.0336  -16.5000   19.3232 C   0  0  1  0  0  0  0  0  0  0  0  0
  -27.2940  -27.3531   18.3054 C   0  0  2  0  0  0  0  0  0  0  0  0
  -27.9968  -19.1449   22.6329 C   0  0  0  0  0  0  0  0  0  0  0  0
  -23.9364   -8.9867   21.2059 C   0  0  0  0  0  0  0  0  0  0  0  0
  -24.0838  -15.1086   23.7302 C   0  0  0  0  0  0  0  0  0  0  0  0
  -24.2976  -12.6386   24.0791 C   0  0  0  0  0  0  0  0  0  0  0  0
  -22.1411  -13.6008   23.2753 C   0  0  0  0  0  0  0  0  0  0  0  0
  -24.8494  -10.4693   17.8229 C   0  0  0  0  0  0  0  0  0  0  0  0
  -30.0841  -20.3934   21.9140 C   0  0  0  0  0  0  0  0  0  0  0  0
  -31.6202  -24.2480   19.1201 C   0  0  0  0  0  0  0  0  0  0  0  0
  -28.7744  -19.7269   21.4631 C   0  0  0  0  0  0  0  0  0  0  0  0
  -32.3578  -16.5139   19.6890 C   0  0  0  0  0  0  0  0  0  0  0  0
  -30.9403  -15.9637   19.6824 C   0  0  0  0  0  0  0  0  0  1  0  0
  -32.4036  -17.9735   19.2650 C   0  0  0  0  0  0  0  0  0  0  0  0
  -24.1194  -13.5090   21.7038 C   0  0  1  0  0  0  0  0  0  0  0  0
  -23.9881  -10.0621   20.1318 C   0  0  2  0  0  0  0  0  0  0  0  0
  -23.6770  -13.7277   23.1783 C   0  0  0  0  0  0  0  0  0  0  0  0
  -32.3242  -20.5542   18.8773 N   0  0  0  0  0  0  0  0  0  0  0  0
  -25.2347  -27.4106   19.6613 N   0  0  0  0  0  0  0  0  0  0  0  0
  -26.4461  -27.9396   19.4189 N   0  0  0  0  0  0  0  0  0  0  0  0
  -24.5016  -15.3377   20.0810 N   0  0  0  0  0  0  0  0  0  0  0  0
  -28.4755  -25.3566   17.4649 N   0  0  0  0  0  0  0  0  0  0  0  0
  -27.9488  -29.6251   20.1345 N   0  0  0  0  0  0  0  0  0  0  0  0
  -24.4066  -30.1503   22.8865 N   0  0  0  0  0  0  0  0  0  0  0  0
  -23.7151  -18.8743   19.6682 N   0  0  0  0  0  0  0  0  0  0  0  0
  -23.7238  -12.2202   21.1462 N   0  0  0  0  0  0  0  0  0  0  0  0
  -30.3021  -24.7784   18.8515 N   0  0  0  0  0  0  0  0  0  0  0  0
  -24.7411   -9.5239   18.9638 N   0  3  0  0  0  0  0  0  0  0  0  0
  -26.4838  -30.9603   22.3498 O   0  0  0  0  0  0  0  0  0  0  0  0
  -24.6777  -17.5602   21.3322 O   0  0  0  0  0  0  0  0  0  0  0  0
  -22.3407  -14.6821   20.6616 O   0  0  0  0  0  0  0  0  0  0  0  0
  -25.8649  -11.5043   20.6167 O   0  0  0  0  0  0  0  0  0  0  0  0
  -30.3889  -24.3758   16.5960 O   0  0  0  0  0  0  0  0  0  0  0  0
  -19.7312  -27.1213   22.8513 O   0  0  0  0  0  0  0  0  0  0  0  0
  -30.3830  -16.0766   18.3735 O   0  0  0  0  0  0  0  0  0  1  0  0
  -31.6268  -18.7599   20.1584 O   0  0  0  0  0  0  0  0  0  0  0  0
  -16.4518  -31.4351   23.8716 F   0  0  0  0  0  0  0  0  0  0  0  0
  -17.2627  -27.3471   21.6274 F   0  0  0  0  0  0  0  0  0  0  0  0
  1  2  1  0  0  0  0
  1  5  2  0  0  0  0
  2  6  2  0  0  0  0
  3  8  2  0  0  0  0
  3 17  1  0  0  0  0
  4  9  1  0  0  0  0
  4 17  2  0  0  0  0
  5 19  1  0  0  0  0
  6 21  1  0  0  0  0
  7 10  2  0  0  0  0
  7 20  1  0  0  0  0
  8 25  1  0  0  0  0
  9 25  2  0  0  0  0
 10 26  1  0  0  0  0
 11 12  2  0  0  0  0
 11 27  1  0  0  0  0
 12 28  1  0  0  0  0
 13 22  1  0  0  0  0
 13 26  2  0  0  0  0
 14 23  2  0  0  0  0
 14 24  1  0  0  0  0
 15 28  2  0  0  0  0
 15 29  1  0  0  0  0
 16 23  1  0  0  0  0
 16 65  2  0  0  0  0
 17 30  1  0  0  0  0
 18 30  1  0  0  0  0
 18 32  2  0  0  0  0
 18 33  1  0  0  0  0
 19 21  2  0  0  0  0
 19 38  1  0  0  0  0
 20 22  2  0  0  0  0
 20 39  1  0  0  0  0
 21 47  1  0  0  0  0
 22 40  1  0  0  0  0
 23 57  1  0  0  0  0
 24 31  2  0  0  0  0
 24 56  1  0  0  0  0
 25 81  1  0  0  0  0
 26 82  1  0  0  0  0
 27 29  2  0  0  0  0
 27 81  1  0  0  0  0
 28 84  1  0  0  0  0
 29 85  1  0  0  0  0
 30 66  2  0  0  0  0
 31 65  1  0  0  0  0
 31 83  1  0  0  0  0
 32 67  1  0  0  0  0
 32 70  1  0  0  0  0
 33 71  1  0  0  0  0
 33 76  2  0  0  0  0
 34 48  1  0  0  0  0
 34 72  1  0  0  0  0
 34 77  2  0  0  0  0
 35 62  1  0  0  0  0
 35 68  1  0  0  0  0
 35 78  2  0  0  0  0
 36 63  1  0  0  0  0
 36 73  1  0  0  0  0
 36 79  2  0  0  0  0
 37 69  1  0  0  0  0
 37 74  1  0  0  0  0
 37 80  2  0  0  0  0
 38 41  1  0  0  0  0
 39 48  1  0  0  0  0
 40 68  1  0  0  0  0
 41 43  1  0  0  0  0
 42 44  1  0  0  0  0
 42 45  1  0  0  0  0
 43 47  1  0  0  0  0
 44 49  1  0  0  0  0
 45 69  1  0  0  0  0
 46 49  1  0  0  0  0
 46 69  1  0  0  0  0
 47 72  1  0  0  0  0
 48 68  1  0  0  0  0
 49 67  1  0  0  0  0
 50 58  1  0  0  0  0
 51 63  1  0  0  0  0
 52 64  1  0  0  0  0
 53 64  1  0  0  0  0
 54 64  1  0  0  0  0
 55 75  1  0  0  0  0
 56 58  1  0  0  0  0
 57 74  1  0  0  0  0
 59 60  1  0  0  0  0
 59 61  1  0  0  0  0
 60 82  1  0  0  0  0
 61 83  1  0  0  0  0
 62 64  1  0  0  0  0
 62 73  1  0  0  0  0
 63 75  1  0  0  0  0
 66 67  1  0  0  0  0
M  CHG  1  75   1
M  ISO  4  37 100  60 101  74 100  82 101
M  END
> <Batch ID>
0098

> <Smiles>
CCCc1cc(C[100NH:0][100C:0](=O)N2CCCC(n3nc(-c4ccc(Oc5ccc(F)cc5F)cc4)c(C(N)=O)c3N)C2)cnc1OCC[101CH2:1][101O:1]c1ccc2c(c1)CN(C(=O)C(NC(=O)C(C)NC)C(C)(C)C)C(C(=O)NC1CCCc3ccccc31)C2

> <Shape>
0.225

> <Color>
0.073

> <Negative vol penalty>
0.000

$$$$

  -OEChem-04052319293D

 89 97  0     1  0  0  0  0  0999 V2000
  -17.2367  -26.4716   21.3713 C   0  0  0  0  0  0  0  0  0  0  0  0
  -18.4350  -26.6310   20.6828 C   0  0  0  0  0  0  0  0  0  0  0  0
  -21.9097  -14.3577   20.2653 C   0  0  0  0  0  0  0  0  0  0  0  0
  -23.4146  -13.7098   22.0409 C   0  0  0  0  0  0  0  0  0  0  0  0
  -17.0403  -27.1252   22.5871 C   0  0  0  0  0  0  0  0  0  0  0  0
  -19.4373  -27.4452   21.2092 C   0  0  0  0  0  0  0  0  0  0  0  0
  -24.0227  -25.3158   20.9181 C   0  0  0  0  0  0  0  0  0  0  0  0
  -21.3510  -13.0797   20.2725 C   0  0  0  0  0  0  0  0  0  0  0  0
  -22.8558  -12.4318   22.0481 C   0  0  0  0  0  0  0  0  0  0  0  0
  -24.6605  -25.3444   19.6787 C   0  0  0  0  0  0  0  0  0  0  0  0
  -23.0855   -9.6019   20.2123 C   0  0  0  0  0  0  0  0  0  0  0  0
  -23.9568   -8.5139   20.2635 C   0  0  0  0  0  0  0  0  0  0  0  0
  -25.9859  -27.2223   20.4107 C   0  0  0  0  0  0  0  0  0  0  0  0
  -30.4932  -23.6360   20.1201 C   0  0  0  0  0  0  0  0  0  0  0  0
  -22.9445   -7.8008   22.3380 C   0  0  0  0  0  0  0  0  0  0  0  0
  -28.2989  -23.7093   19.6208 C   0  0  0  0  0  0  0  0  0  0  0  0
  -22.9416  -14.6728   21.1495 C   0  0  0  0  0  0  0  0  0  0  0  0
  -23.1067  -17.1057   21.8986 C   0  0  0  0  0  0  0  0  0  0  0  0
  -18.0444  -27.9401   23.1334 C   0  0  0  0  0  0  0  0  0  0  0  0
  -24.3546  -26.2488   21.9110 C   0  0  0  0  0  0  0  0  0  0  0  0
  -19.2536  -28.1114   22.4327 C   0  0  0  0  0  0  0  0  0  0  0  0
  -25.3527  -27.2019   21.6628 C   0  0  0  0  0  0  0  0  0  0  0  0
  -29.1909  -23.3907   20.6209 C   0  0  0  0  0  0  0  0  0  0  0  0
  -21.8240  -12.1168   21.1639 C   0  0  0  0  0  0  0  0  0  0  0  0
  -25.6402  -26.2996   19.4238 C   0  0  0  0  0  0  0  0  0  0  0  0
  -22.1437   -9.7894   21.2240 C   0  0  0  0  0  0  0  0  0  0  0  0
  -23.8863   -7.6134   21.3263 C   0  0  0  0  0  0  0  0  0  0  0  0
  -22.0731   -8.8888   22.2868 C   0  0  0  0  0  0  0  0  0  0  0  0
  -23.5196  -15.9926   21.1421 C   0  0  0  0  0  0  0  0  0  0  0  0
  -30.3574  -24.0971   18.8292 C   0  0  0  0  0  0  0  0  0  0  0  0
  -23.9709  -18.1088   21.5334 C   0  0  0  0  0  0  0  0  0  0  0  0
  -22.0375  -17.2225   22.8468 C   0  0  0  0  0  0  0  0  0  0  0  0
  -22.7781  -28.5344   23.4584 C   0  0  0  0  0  0  0  0  0  0  0  0
  -25.5329  -28.7436   25.1583 C   0  0  0  0  0  0  0  0  0  0  0  0
  -28.9019  -28.2161   25.2921 C   0  0  0  0  0  0  0  0  0  0  0  0
  -29.1296  -19.9215   20.4167 C   0  0  0  0  0  0  0  0  0  0  0  0
  -17.7679  -28.6639   24.4273 C   0  0  0  0  0  0  0  0  0  0  0  0
  -23.6763  -26.1877   23.2521 C   0  0  0  0  0  0  0  0  0  0  0  0
  -25.7599  -28.2128   22.7023 C   0  0  0  0  0  0  0  0  0  0  0  0
  -19.0245  -29.2106   25.1000 C   0  0  0  0  0  0  0  0  0  0  0  0
  -27.3456  -18.3398   17.7725 C   0  0  0  0  0  0  0  0  0  0  0  0
  -19.9057  -29.9279   24.0822 C   0  0  0  0  0  0  0  0  0  0  0  0
  -26.1613  -17.6752   18.4765 C   0  0  0  0  0  0  0  0  0  0  0  0
  -28.6105  -18.2897   18.6267 C   0  0  0  0  0  0  0  0  0  0  0  0
  -27.2746  -18.1670   20.6941 C   0  0  0  0  0  0  0  0  0  0  0  0
  -20.3743  -28.9664   22.9834 C   0  0  1  0  0  0  0  0  0  0  0  0
  -23.7300  -27.5108   24.0097 C   0  0  1  0  0  0  0  0  0  0  0  0
  -25.9622  -18.2420   19.8951 C   0  0  2  0  0  0  0  0  0  0  0  0
  -32.0294  -19.9272   15.7122 C   0  0  0  0  0  0  0  0  0  0  0  0
  -32.1949  -25.7315   18.3404 C   0  0  0  0  0  0  0  0  0  0  0  0
  -31.2042  -28.1078   26.2847 C   0  0  0  0  0  0  0  0  0  0  0  0
  -27.3156  -22.7026   22.2660 C   0  0  0  0  0  0  0  0  0  0  0  0
  -29.3442  -23.8779   23.0779 C   0  0  0  0  0  0  0  0  0  0  0  0
  -25.5566  -31.7262   24.5149 C   0  0  0  0  0  0  0  0  0  0  0  0
  -27.9644  -31.7835   25.1985 C   0  0  0  0  0  0  0  0  0  0  0  0
  -26.2123  -31.1598   26.8609 C   0  0  0  0  0  0  0  0  0  0  0  0
  -28.4884  -25.4434   26.2409 C   0  0  0  0  0  0  0  0  0  0  0  0
  -32.7134  -21.1202   16.3607 C   0  0  0  0  0  0  0  0  0  0  0  0
  -31.7004  -22.1844   16.7843 C   0  0  0  0  0  0  0  0  0  0  0  0
  -32.3941  -23.3712   17.4642 C   0  0  0  0  0  0  0  0  0  0  0  0
  -28.3556  -26.1020   17.0619 C   0  0  0  0  0  0  0  0  0  0  0  0
  -28.4139  -24.5820   17.2289 C   0  0  0  0  0  0  0  0  0  0  0  0
  -29.5221  -21.4973   22.2934 C   0  0  0  0  0  0  0  0  0  0  0  0
  -27.6091  -26.8053   18.1895 C   0  0  0  0  0  0  0  0  0  1  0  0
  -31.3906  -24.5011   17.8533 C   0  0  1  0  0  0  0  0  0  0  0  0
  -26.8146  -29.5299   25.0245 C   0  0  1  0  0  0  0  0  0  0  0  0
  -29.7803  -27.5782   26.3533 C   0  0  2  0  0  0  0  0  0  0  0  0
  -28.8512  -22.8867   21.9652 C   0  0  0  0  0  0  0  0  0  0  0  0
  -26.6282  -31.0321   25.3792 C   0  0  0  0  0  0  0  0  0  0  0  0
  -24.5648  -16.2628   20.3556 N   0  0  0  0  0  0  0  0  0  0  0  0
  -29.0192  -24.1378   18.5366 N   0  0  0  0  0  0  0  0  0  0  0  0
  -24.8158  -17.5571   20.6158 N   0  0  0  0  0  0  0  0  0  0  0  0
  -25.0632  -28.1164   23.9957 N   0  0  0  0  0  0  0  0  0  0  0  0
  -28.3545  -18.8435   19.9585 N   0  0  0  0  0  0  0  0  0  0  0  0
  -24.0828  -19.4001   21.9107 N   0  0  0  0  0  0  0  0  0  0  0  0
  -21.2467  -16.0944   23.1043 N   0  0  0  0  0  0  0  0  0  0  0  0
  -21.4554  -28.1347   23.4669 N   0  0  0  0  0  0  0  0  0  0  0  0
  -27.8041  -28.8404   25.8455 N   0  0  0  0  0  0  0  0  0  0  0  0
  -28.8174  -20.3898   21.6871 N   0  0  0  0  0  0  0  0  0  0  0  0
  -29.8196  -26.0994   26.1727 N   0  3  0  0  0  0  0  0  0  0  0  0
  -21.7805  -18.2998   23.4356 O   0  0  0  0  0  0  0  0  0  0  0  0
  -23.2114  -29.6079   23.0565 O   0  0  0  0  0  0  0  0  0  0  0  0
  -24.9729  -28.6822   26.2558 O   0  0  0  0  0  0  0  0  0  0  0  0
  -29.1655  -28.1688   24.0926 O   0  0  0  0  0  0  0  0  0  0  0  0
  -30.0295  -20.4325   19.7414 O   0  0  0  0  0  0  0  0  0  0  0  0
  -21.2788  -10.8696   21.1713 O   0  0  0  0  0  0  0  0  0  0  0  0
  -26.2638  -26.3301   18.2146 O   0  0  0  0  0  0  0  0  0  1  0  0
  -24.7221   -6.5677   21.3745 F   0  0  0  0  0  0  0  0  0  0  0  0
  -21.1697   -9.0631   23.2611 F   0  0  0  0  0  0  0  0  0  0  0  0
  1  2  1  0  0  0  0
  1  5  2  0  0  0  0
  2  6  2  0  0  0  0
  3  8  2  0  0  0  0
  3 17  1  0  0  0  0
  4  9  1  0  0  0  0
  4 17  2  0  0  0  0
  5 19  1  0  0  0  0
  6 21  1  0  0  0  0
  7 10  2  0  0  0  0
  7 20  1  0  0  0  0
  8 24  1  0  0  0  0
  9 24  2  0  0  0  0
 10 25  1  0  0  0  0
 11 12  2  0  0  0  0
 11 26  1  0  0  0  0
 12 27  1  0  0  0  0
 13 22  1  0  0  0  0
 13 25  2  0  0  0  0
 14 23  1  0  0  0  0
 14 30  2  0  0  0  0
 15 27  2  0  0  0  0
 15 28  1  0  0  0  0
 16 23  2  0  0  0  0
 16 71  1  0  0  0  0
 17 29  1  0  0  0  0
 18 29  1  0  0  0  0
 18 31  2  0  0  0  0
 18 32  1  0  0  0  0
 19 21  2  0  0  0  0
 19 37  1  0  0  0  0
 20 22  2  0  0  0  0
 20 38  1  0  0  0  0
 21 46  1  0  0  0  0
 22 39  1  0  0  0  0
 23 68  1  0  0  0  0
 24 86  1  0  0  0  0
 25 87  1  0  0  0  0
 26 28  2  0  0  0  0
 26 86  1  0  0  0  0
 27 88  1  0  0  0  0
 28 89  1  0  0  0  0
 29 70  2  0  0  0  0
 30 65  1  0  0  0  0
 30 71  1  0  0  0  0
 31 72  1  0  0  0  0
 31 75  1  0  0  0  0
 32 76  1  0  0  0  0
 32 81  2  0  0  0  0
 33 47  1  0  0  0  0
 33 77  1  0  0  0  0
 33 82  2  0  0  0  0
 34 66  1  0  0  0  0
 34 73  1  0  0  0  0
 34 83  2  0  0  0  0
 35 67  1  0  0  0  0
 35 78  1  0  0  0  0
 35 84  2  0  0  0  0
 36 74  1  0  0  0  0
 36 79  1  0  0  0  0
 36 85  2  0  0  0  0
 37 40  1  0  0  0  0
 38 47  1  0  0  0  0
 39 73  1  0  0  0  0
 40 42  1  0  0  0  0
 41 43  1  0  0  0  0
 41 44  1  0  0  0  0
 42 46  1  0  0  0  0
 43 48  1  0  0  0  0
 44 74  1  0  0  0  0
 45 48  1  0  0  0  0
 45 74  1  0  0  0  0
 46 77  1  0  0  0  0
 47 73  1  0  0  0  0
 48 72  1  0  0  0  0
 49 58  1  0  0  0  0
 50 65  1  0  0  0  0
 51 67  1  0  0  0  0
 52 68  1  0  0  0  0
 53 68  1  0  0  0  0
 54 69  1  0  0  0  0
 55 69  1  0  0  0  0
 56 69  1  0  0  0  0
 57 80  1  0  0  0  0
 58 59  1  0  0  0  0
 59 60  1  0  0  0  0
 60 65  1  0  0  0  0
 61 62  1  0  0  0  0
 61 64  1  0  0  0  0
 62 71  1  0  0  0  0
 63 68  1  0  0  0  0
 63 79  1  0  0  0  0
 64 87  1  0  0  0  0
 66 69  1  0  0  0  0
 66 78  1  0  0  0  0
 67 80  1  0  0  0  0
 70 72  1  0  0  0  0
M  CHG  1  80   1
M  ISO  4  36 100  64 101  79 100  87 101
M  END
> <Batch ID>
0098

> <Smiles>
CCCCC(C)c1cc(C(C)(C)C[100NH:0][100C:0](=O)N2CCCC(n3nc(-c4ccc(Oc5ccc(F)cc5F)cc4)c(C(N)=O)c3N)C2)cn1CC[101CH2:1][101O:1]c1ccc2c(c1)CN(C(=O)C(NC(=O)C(C)NC)C(C)(C)C)C(C(=O)NC1CCCc3ccccc31)C2

> <Shape>
0.254

> <Color>
0.063

> <Negative vol penalty>
0.000

$$$$

  -OEChem-04052319293D

 84 92  0     1  0  0  0  0  0999 V2000
  -19.8775  -34.1662   21.1450 C   0  0  0  0  0  0  0  0  0  0  0  0
  -21.0942  -33.6400   20.7230 C   0  0  0  0  0  0  0  0  0  0  0  0
  -24.4061  -13.9115   21.0329 C   0  0  0  0  0  0  0  0  0  0  0  0
  -26.7709  -13.5503   20.6947 C   0  0  0  0  0  0  0  0  0  0  0  0
  -19.2344  -33.6265   22.2581 C   0  0  0  0  0  0  0  0  0  0  0  0
  -21.6691  -32.5743   21.4146 C   0  0  0  0  0  0  0  0  0  0  0  0
  -24.9577  -27.9878   19.0365 C   0  0  0  0  0  0  0  0  0  0  0  0
  -31.6671  -22.9369   24.1416 C   0  0  0  0  0  0  0  0  0  0  0  0
  -24.1431  -12.6217   20.5714 C   0  0  0  0  0  0  0  0  0  0  0  0
  -26.5080  -12.2606   20.2333 C   0  0  0  0  0  0  0  0  0  0  0  0
  -26.3314  -27.7690   18.9427 C   0  0  0  0  0  0  0  0  0  0  0  0
  -22.8783   -9.2969   19.8226 C   0  0  0  0  0  0  0  0  0  0  0  0
  -21.9700   -8.5225   20.5443 C   0  0  0  0  0  0  0  0  0  0  0  0
  -30.8578  -22.0661   23.4203 C   0  0  0  0  0  0  0  0  0  0  0  0
  -26.2487  -26.4287   20.9467 C   0  0  0  0  0  0  0  0  0  0  0  0
  -23.3797   -8.6909   22.4992 C   0  0  0  0  0  0  0  0  0  0  0  0
  -25.7200  -14.3758   21.0945 C   0  0  0  0  0  0  0  0  0  0  0  0
  -26.2425  -16.1018   22.8988 C   0  0  0  0  0  0  0  0  0  0  0  0
  -19.7969  -32.5473   22.9579 C   0  0  0  0  0  0  0  0  0  0  0  0
  -24.2198  -27.4368   20.0940 C   0  0  0  0  0  0  0  0  0  0  0  0
  -21.0335  -32.0204   22.5389 C   0  0  0  0  0  0  0  0  0  0  0  0
  -24.8653  -26.6399   21.0502 C   0  0  0  0  0  0  0  0  0  0  0  0
  -31.8303  -24.2472   23.7062 C   0  0  0  0  0  0  0  0  0  0  0  0
  -25.1941  -11.7963   20.1716 C   0  0  0  0  0  0  0  0  0  0  0  0
  -26.9776  -26.9918   19.8994 C   0  0  0  0  0  0  0  0  0  0  0  0
  -24.0374   -9.7682   20.4391 C   0  0  0  0  0  0  0  0  0  0  0  0
  -22.2207   -8.2195   21.8826 C   0  0  0  0  0  0  0  0  0  0  0  0
  -24.2881   -9.4653   21.7774 C   0  0  0  0  0  0  0  0  0  0  0  0
  -25.9923  -15.7082   21.5706 C   0  0  0  0  0  0  0  0  0  0  0  0
  -31.1678  -24.6345   22.5525 C   0  0  0  0  0  0  0  0  0  0  0  0
  -30.2388  -22.5511   22.2795 C   0  0  0  0  0  0  0  0  0  0  0  0
  -26.4398  -17.4590   22.8234 C   0  0  0  0  0  0  0  0  0  0  0  0
  -26.2922  -15.3113   24.0940 C   0  0  0  0  0  0  0  0  0  0  0  0
  -22.4918  -28.6259   22.4823 C   0  0  0  0  0  0  0  0  0  0  0  0
  -21.7798  -25.5045   23.0044 C   0  0  0  0  0  0  0  0  0  0  0  0
  -22.6652  -22.2296   22.6334 C   0  0  0  0  0  0  0  0  0  0  0  0
  -28.7019  -21.9241   20.3845 C   0  0  0  0  0  0  0  0  0  0  0  0
  -19.0877  -32.0282   24.1836 C   0  0  0  0  0  0  0  0  0  0  0  0
  -22.7341  -27.6602   20.1661 C   0  0  0  0  0  0  0  0  0  0  0  0
  -24.1151  -26.0090   22.1937 C   0  0  0  0  0  0  0  0  0  0  0  0
  -19.5800  -30.6561   24.6367 C   0  0  0  0  0  0  0  0  0  0  0  0
  -25.6558  -20.6948   19.0107 C   0  0  0  0  0  0  0  0  0  0  0  0
  -21.1047  -30.6141   24.6514 C   0  0  0  0  0  0  0  0  0  0  0  0
  -25.4924  -19.3202   19.6635 C   0  0  0  0  0  0  0  0  0  0  0  0
  -27.1194  -21.0060   18.7029 C   0  0  0  0  0  0  0  0  0  0  0  0
  -27.8732  -19.4916   20.4939 C   0  0  0  0  0  0  0  0  0  0  0  0
  -21.6767  -30.8485   23.2481 C   0  0  1  0  0  0  0  0  0  0  0  0
  -22.1696  -27.4753   21.5713 C   0  0  1  0  0  0  0  0  0  0  0  0
  -26.4228  -19.1608   20.8819 C   0  0  2  0  0  0  0  0  0  0  0  0
  -34.1667  -24.7240   24.5231 C   0  0  0  0  0  0  0  0  0  0  0  0
  -32.1797  -25.4309   25.9041 C   0  0  0  0  0  0  0  0  0  0  0  0
  -22.4456  -19.7320   22.7377 C   0  0  0  0  0  0  0  0  0  0  0  0
  -31.1351  -27.5040   19.9952 C   0  0  0  0  0  0  0  0  0  0  0  0
  -22.6944  -25.9076   25.8872 C   0  0  0  0  0  0  0  0  0  0  0  0
  -22.8163  -23.4181   26.1232 C   0  0  0  0  0  0  0  0  0  0  0  0
  -20.6315  -24.5171   25.6320 C   0  0  0  0  0  0  0  0  0  0  0  0
  -21.3604  -22.1175   19.9794 C   0  0  0  0  0  0  0  0  0  0  0  0
  -31.3094  -26.0445   22.0325 C   0  0  0  0  0  0  0  0  0  0  0  0
  -29.0279  -26.5845   21.0337 C   0  0  0  0  0  0  0  0  0  1  0  0
  -32.6968  -25.1848   24.4732 C   0  0  0  0  0  0  0  0  0  0  0  0
  -22.3903  -24.3907   23.8202 C   0  0  1  0  0  0  0  0  0  0  0  0
  -21.8775  -21.0203   22.1629 C   0  0  2  0  0  0  0  0  0  0  0  0
  -30.5115  -26.3180   20.7419 C   0  0  1  0  0  0  0  0  0  0  0  0
  -22.1479  -24.5717   25.3453 C   0  0  0  0  0  0  0  0  0  0  0  0
  -26.0267  -16.7326   20.7141 N   0  0  0  0  0  0  0  0  0  0  0  0
  -30.3734  -23.8173   21.8253 N   0  0  0  0  0  0  0  0  0  0  0  0
  -26.3009  -17.7832   21.5060 N   0  0  0  0  0  0  0  0  0  0  0  0
  -22.6650  -26.2619   22.2243 N   0  0  0  0  0  0  0  0  0  0  0  0
  -27.9399  -20.8380   19.9043 N   0  0  0  0  0  0  0  0  0  0  0  0
  -26.7168  -18.3947   23.7562 N   0  0  0  0  0  0  0  0  0  0  0  0
  -26.0663  -13.9318   23.9924 N   0  0  0  0  0  0  0  0  0  0  0  0
  -29.4163  -21.6559   21.5517 N   0  0  0  0  0  0  0  0  0  0  0  0
  -21.5621  -29.6476   22.4485 N   0  0  0  0  0  0  0  0  0  0  0  0
  -21.8591  -23.1464   23.2743 N   0  0  0  0  0  0  0  0  0  0  0  0
  -21.9114  -20.9265   20.6759 N   0  3  0  0  0  0  0  0  0  0  0  0
  -26.5137  -15.8158   25.2209 O   0  0  0  0  0  0  0  0  0  0  0  0
  -23.5079  -28.5887   23.1663 O   0  0  0  0  0  0  0  0  0  0  0  0
  -20.5613  -25.6910   23.0518 O   0  0  0  0  0  0  0  0  0  0  0  0
  -23.8754  -22.3474   22.4540 O   0  0  0  0  0  0  0  0  0  0  0  0
  -28.6982  -23.0201   19.8182 O   0  0  0  0  0  0  0  0  0  0  0  0
  -24.9378  -10.5376   19.7215 O   0  0  0  0  0  0  0  0  0  0  0  0
  -28.3185  -26.7771   19.8106 O   0  0  0  0  0  0  0  0  0  1  0  0
  -21.3476   -7.4772   22.5760 F   0  0  0  0  0  0  0  0  0  0  0  0
  -25.3993   -9.9162   22.3755 F   0  0  0  0  0  0  0  0  0  0  0  0
  1  2  1  0  0  0  0
  1  5  2  0  0  0  0
  2  6  2  0  0  0  0
  3  9  2  0  0  0  0
  3 17  1  0  0  0  0
  4 10  1  0  0  0  0
  4 17  2  0  0  0  0
  5 19  1  0  0  0  0
  6 21  1  0  0  0  0
  7 11  2  0  0  0  0
  7 20  1  0  0  0  0
  8 14  2  0  0  0  0
  8 23  1  0  0  0  0
  9 24  1  0  0  0  0
 10 24  2  0  0  0  0
 11 25  1  0  0  0  0
 12 13  2  0  0  0  0
 12 26  1  0  0  0  0
 13 27  1  0  0  0  0
 14 31  1  0  0  0  0
 15 22  1  0  0  0  0
 15 25  2  0  0  0  0
 16 27  2  0  0  0  0
 16 28  1  0  0  0  0
 17 29  1  0  0  0  0
 18 29  1  0  0  0  0
 18 32  2  0  0  0  0
 18 33  1  0  0  0  0
 19 21  2  0  0  0  0
 19 38  1  0  0  0  0
 20 22  2  0  0  0  0
 20 39  1  0  0  0  0
 21 47  1  0  0  0  0
 22 40  1  0  0  0  0
 23 30  2  0  0  0  0
 23 60  1  0  0  0  0
 24 81  1  0  0  0  0
 25 82  1  0  0  0  0
 26 28  2  0  0  0  0
 26 81  1  0  0  0  0
 27 83  1  0  0  0  0
 28 84  1  0  0  0  0
 29 65  2  0  0  0  0
 30 58  1  0  0  0  0
 30 66  1  0  0  0  0
 31 66  2  0  0  0  0
 31 72  1  0  0  0  0
 32 67  1  0  0  0  0
 32 70  1  0  0  0  0
 33 71  1  0  0  0  0
 33 76  2  0  0  0  0
 34 48  1  0  0  0  0
 34 73  1  0  0  0  0
 34 77  2  0  0  0  0
 35 61  1  0  0  0  0
 35 68  1  0  0  0  0
 35 78  2  0  0  0  0
 36 62  1  0  0  0  0
 36 74  1  0  0  0  0
 36 79  2  0  0  0  0
 37 69  1  0  0  0  0
 37 72  1  0  0  0  0
 37 80  2  0  0  0  0
 38 41  1  0  0  0  0
 39 48  1  0  0  0  0
 40 68  1  0  0  0  0
 41 43  1  0  0  0  0
 42 44  1  0  0  0  0
 42 45  1  0  0  0  0
 43 47  1  0  0  0  0
 44 49  1  0  0  0  0
 45 69  1  0  0  0  0
 46 49  1  0  0  0  0
 46 69  1  0  0  0  0
 47 73  1  0  0  0  0
 48 68  1  0  0  0  0
 49 67  1  0  0  0  0
 50 60  1  0  0  0  0
 51 60  1  0  0  0  0
 52 62  1  0  0  0  0
 53 63  1  0  0  0  0
 54 64  1  0  0  0  0
 55 64  1  0  0  0  0
 56 64  1  0  0  0  0
 57 75  1  0  0  0  0
 58 63  1  0  0  0  0
 59 63  1  0  0  0  0
 59 82  1  0  0  0  0
 61 64  1  0  0  0  0
 61 74  1  0  0  0  0
 62 75  1  0  0  0  0
 65 67  1  0  0  0  0
M  CHG  1  75   1
M  ISO  4  37 100  59 101  72 100  82 101
M  END
> <Batch ID>
0098

> <Smiles>
CNC(C)C(=O)NC(C(=O)N1Cc2cc([101O:1][101CH2:1]C(C)Cc3nc([100NH:0][100C:0](=O)N4CCCC(n5nc(-c6ccc(Oc7ccc(F)cc7F)cc6)c(C(N)=O)c5N)C4)ccc3C(C)C)ccc2CC1C(=O)NC1CCCc2ccccc21)C(C)(C)C

> <Shape>
0.197

> <Color>
0.101

> <Negative vol penalty>
0.000

$$$$

  -OEChem-04052319293D

 90 98  0     1  0  0  0  0  0999 V2000
  -17.3641  -30.0943   24.5650 C   0  0  0  0  0  0  0  0  0  0  0  0
  -18.6729  -30.2971   24.9907 C   0  0  0  0  0  0  0  0  0  0  0  0
  -30.8501  -17.9979   22.1804 C   0  0  0  0  0  0  0  0  0  0  0  0
  -32.2776  -18.5865   20.3222 C   0  0  0  0  0  0  0  0  0  0  0  0
  -17.0956  -29.1689   23.5572 C   0  0  0  0  0  0  0  0  0  0  0  0
  -19.7139  -29.5738   24.4097 C   0  0  0  0  0  0  0  0  0  0  0  0
  -25.4203  -31.5333   23.3590 C   0  0  0  0  0  0  0  0  0  0  0  0
  -30.7728  -16.6884   21.7062 C   0  0  0  0  0  0  0  0  0  0  0  0
  -32.2003  -17.2770   19.8480 C   0  0  0  0  0  0  0  0  0  0  0  0
  -26.6139  -31.3643   24.0593 C   0  0  0  0  0  0  0  0  0  0  0  0
  -29.9079  -13.2780   20.7873 C   0  0  0  0  0  0  0  0  0  0  0  0
  -28.6541  -12.6672   20.7663 C   0  0  0  0  0  0  0  0  0  0  0  0
  -27.1829  -29.5067   22.6292 C   0  0  0  0  0  0  0  0  0  0  0  0
  -34.5654  -27.0439   23.1179 C   0  0  0  0  0  0  0  0  0  0  0  0
  -35.9068  -26.8303   21.1200 C   0  0  0  0  0  0  0  0  0  0  0  0
  -27.8392  -14.3910   19.2825 C   0  0  0  0  0  0  0  0  0  0  0  0
  -31.6025  -18.9470   21.4883 C   0  0  0  0  0  0  0  0  0  0  0  0
  -32.6324  -20.8254   22.8734 C   0  0  0  0  0  0  0  0  0  0  0  0
  -18.1349  -28.4409   22.9569 C   0  0  0  0  0  0  0  0  0  0  0  0
  -25.0934  -30.6819   22.2937 C   0  0  0  0  0  0  0  0  0  0  0  0
  -19.4589  -28.6368   23.3940 C   0  0  0  0  0  0  0  0  0  0  0  0
  -25.9856  -29.6686   21.9154 C   0  0  0  0  0  0  0  0  0  0  0  0
  -35.7289  -26.6063   22.4852 C   0  0  0  0  0  0  0  0  0  0  0  0
  -33.5798  -27.7056   22.3854 C   0  0  0  0  0  0  0  0  0  0  0  0
  -33.7578  -27.9296   21.0202 C   0  0  0  0  0  0  0  0  0  0  0  0
  -31.4479  -16.3279   20.5401 C   0  0  0  0  0  0  0  0  0  0  0  0
  -27.4941  -30.3490   23.6963 C   0  0  0  0  0  0  0  0  0  0  0  0
  -30.1274  -14.4454   20.0560 C   0  0  0  0  0  0  0  0  0  0  0  0
  -34.9213  -27.4920   20.3875 C   0  0  0  0  0  0  0  0  0  0  0  0
  -27.6197  -13.2237   20.0139 C   0  0  0  0  0  0  0  0  0  0  0  0
  -29.0930  -15.0019   19.3036 C   0  0  0  0  0  0  0  0  0  0  0  0
  -31.6822  -20.3000   21.9773 C   0  0  0  0  0  0  0  0  0  0  0  0
  -32.2766  -22.1443   23.0167 C   0  0  0  0  0  0  0  0  0  0  0  0
  -33.7378  -20.1792   23.5184 C   0  0  0  0  0  0  0  0  0  0  0  0
  -22.7484  -28.6166   21.7111 C   0  0  0  0  0  0  0  0  0  0  0  0
  -24.1496  -28.4471   18.7905 C   0  0  0  0  0  0  0  0  0  0  0  0
  -26.9632  -28.8411   16.8997 C   0  0  0  0  0  0  0  0  0  0  0  0
  -30.1263  -26.5530   19.9420 C   0  0  0  0  0  0  0  0  0  0  0  0
  -17.7904  -27.4173   21.9042 C   0  0  0  0  0  0  0  0  0  0  0  0
  -23.8143  -30.8942   21.5313 C   0  0  0  0  0  0  0  0  0  0  0  0
  -25.6909  -28.7407   20.7663 C   0  0  0  0  0  0  0  0  0  0  0  0
  -18.9922  -26.9632   21.0797 C   0  0  0  0  0  0  0  0  0  0  0  0
  -28.1340  -24.7367   22.2676 C   0  0  0  0  0  0  0  0  0  0  0  0
  -20.1748  -26.6466   21.9897 C   0  0  0  0  0  0  0  0  0  0  0  0
  -28.9342  -23.4563   22.5132 C   0  0  0  0  0  0  0  0  0  0  0  0
  -28.2438  -25.2014   20.8171 C   0  0  0  0  0  0  0  0  0  0  0  0
  -30.4236  -24.0793   20.5657 C   0  0  0  0  0  0  0  0  0  0  0  0
  -20.6179  -27.8894   22.7710 C   0  0  1  0  0  0  0  0  0  0  0  0
  -23.3448  -29.6450   20.7922 C   0  0  1  0  0  0  0  0  0  0  0  0
  -30.3890  -23.6025   22.0278 C   0  0  2  0  0  0  0  0  0  0  0  0
  -36.2767  -24.5727   23.8703 C   0  0  0  0  0  0  0  0  0  0  0  0
  -37.3838  -26.7797   24.3787 C   0  0  0  0  0  0  0  0  0  0  0  0
  -33.2239  -29.9697   19.6502 C   0  0  0  0  0  0  0  0  0  0  0  0
  -27.8092  -28.5892   14.5506 C   0  0  0  0  0  0  0  0  0  0  0  0
  -31.2257  -29.7204   25.7006 C   0  0  0  0  0  0  0  0  0  0  0  0
  -24.2583  -25.4199   19.1568 C   0  0  0  0  0  0  0  0  0  0  0  0
  -25.9199  -25.3232   17.2865 C   0  0  0  0  0  0  0  0  0  0  0  0
  -23.6127  -26.1703   16.8601 C   0  0  0  0  0  0  0  0  0  0  0  0
  -27.6177  -31.7207   16.7032 C   0  0  0  0  0  0  0  0  0  0  0  0
  -36.3316  -27.2216   18.4918 C   0  0  0  0  0  0  0  0  0  0  0  0
  -32.3304  -28.1675   23.0929 C   0  0  0  0  0  0  0  0  0  0  0  0
  -32.3320  -29.6601   23.4512 C   0  0  0  0  0  0  0  0  0  0  0  0
  -32.1097  -27.7785   19.0916 C   0  0  0  0  0  0  0  0  0  0  0  0
  -29.7666  -29.6492   23.6523 C   0  0  0  0  0  0  0  0  0  1  0  0
  -36.7819  -25.8977   23.2684 C   0  0  0  0  0  0  0  0  0  0  0  0
  -32.7048  -28.6392   20.2303 C   0  0  1  0  0  0  0  0  0  0  0  0
  -25.2344  -27.5982   18.1728 C   0  0  1  0  0  0  0  0  0  0  0  0
  -27.1940  -29.5356   15.5697 C   0  0  2  0  0  0  0  0  0  0  0  0
  -31.0946  -30.1520   24.2344 C   0  0  1  0  0  0  0  0  0  0  0  0
  -24.7613  -26.1440   17.8920 C   0  0  0  0  0  0  0  0  0  0  0  0
  -30.7897  -21.2107   21.5796 N   0  0  0  0  0  0  0  0  0  0  0  0
  -31.1775  -22.3216   22.2288 N   0  0  0  0  0  0  0  0  0  0  0  0
  -24.4246  -28.9846   20.0559 N   0  0  0  0  0  0  0  0  0  0  0  0
  -29.6487  -25.3215   20.4199 N   0  0  0  0  0  0  0  0  0  0  0  0
  -32.7997  -23.1579   23.7387 N   0  0  0  0  0  0  0  0  0  0  0  0
  -33.9606  -18.8198   23.2598 N   0  0  0  0  0  0  0  0  0  0  0  0
  -21.3915  -28.7705   21.9226 N   0  0  0  0  0  0  0  0  0  0  0  0
  -25.6908  -28.3173   16.9884 N   0  0  0  0  0  0  0  0  0  0  0  0
  -31.4710  -26.5823   19.5934 N   0  0  0  0  0  0  0  0  0  0  0  0
  -28.1100  -30.6981   15.7445 N   0  3  0  0  0  0  0  0  0  0  0  0
  -34.4955  -20.7851   24.3136 O   0  0  0  0  0  0  0  0  0  0  0  0
  -23.4658  -27.7470   22.1915 O   0  0  0  0  0  0  0  0  0  0  0  0
  -23.0998  -28.6325   18.1699 O   0  0  0  0  0  0  0  0  0  0  0  0
  -27.8267  -28.7671   17.7712 O   0  0  0  0  0  0  0  0  0  0  0  0
  -29.4088  -27.5537   19.8389 O   0  0  0  0  0  0  0  0  0  0  0  0
  -31.3729  -15.0501   20.0772 O   0  0  0  0  0  0  0  0  0  0  0  0
  -35.1130  -27.7028   19.0552 O   0  0  0  0  0  0  0  0  0  0  0  0
  -28.6596  -30.1815   24.3786 O   0  0  0  0  0  0  0  0  0  1  0  0
  -26.4162  -12.6362   19.9926 F   0  0  0  0  0  0  0  0  0  0  0  0
  -29.2982  -16.1226   18.5981 F   0  0  0  0  0  0  0  0  0  0  0  0
  1  2  1  0  0  0  0
  1  5  2  0  0  0  0
  2  6  2  0  0  0  0
  3  8  2  0  0  0  0
  3 17  1  0  0  0  0
  4  9  1  0  0  0  0
  4 17  2  0  0  0  0
  5 19  1  0  0  0  0
  6 21  1  0  0  0  0
  7 10  2  0  0  0  0
  7 20  1  0  0  0  0
  8 26  1  0  0  0  0
  9 26  2  0  0  0  0
 10 27  1  0  0  0  0
 11 12  2  0  0  0  0
 11 28  1  0  0  0  0
 12 30  1  0  0  0  0
 13 22  1  0  0  0  0
 13 27  2  0  0  0  0
 14 23  2  0  0  0  0
 14 24  1  0  0  0  0
 15 23  1  0  0  0  0
 15 29  2  0  0  0  0
 16 30  2  0  0  0  0
 16 31  1  0  0  0  0
 17 32  1  0  0  0  0
 18 32  1  0  0  0  0
 18 33  2  0  0  0  0
 18 34  1  0  0  0  0
 19 21  2  0  0  0  0
 19 39  1  0  0  0  0
 20 22  2  0  0  0  0
 20 40  1  0  0  0  0
 21 48  1  0  0  0  0
 22 41  1  0  0  0  0
 23 65  1  0  0  0  0
 24 25  2  0  0  0  0
 24 61  1  0  0  0  0
 25 29  1  0  0  0  0
 25 66  1  0  0  0  0
 26 86  1  0  0  0  0
 27 88  1  0  0  0  0
 28 31  2  0  0  0  0
 28 86  1  0  0  0  0
 29 87  1  0  0  0  0
 30 89  1  0  0  0  0
 31 90  1  0  0  0  0
 32 71  2  0  0  0  0
 33 72  1  0  0  0  0
 33 75  1  0  0  0  0
 34 76  1  0  0  0  0
 34 81  2  0  0  0  0
 35 49  1  0  0  0  0
 35 77  1  0  0  0  0
 35 82  2  0  0  0  0
 36 67  1  0  0  0  0
 36 73  1  0  0  0  0
 36 83  2  0  0  0  0
 37 68  1  0  0  0  0
 37 78  1  0  0  0  0
 37 84  2  0  0  0  0
 38 74  1  0  0  0  0
 38 79  1  0  0  0  0
 38 85  2  0  0  0  0
 39 42  1  0  0  0  0
 40 49  1  0  0  0  0
 41 73  1  0  0  0  0
 42 44  1  0  0  0  0
 43 45  1  0  0  0  0
 43 46  1  0  0  0  0
 44 48  1  0  0  0  0
 45 50  1  0  0  0  0
 46 74  1  0  0  0  0
 47 50  1  0  0  0  0
 47 74  1  0  0  0  0
 48 77  1  0  0  0  0
 49 73  1  0  0  0  0
 50 72  1  0  0  0  0
 51 65  1  0  0  0  0
 52 65  1  0  0  0  0
 53 66  1  0  0  0  0
 54 68  1  0  0  0  0
 55 69  1  0  0  0  0
 56 70  1  0  0  0  0
 57 70  1  0  0  0  0
 58 70  1  0  0  0  0
 59 80  1  0  0  0  0
 60 87  1  0  0  0  0
 61 62  1  0  0  0  0
 62 69  1  0  0  0  0
 63 66  1  0  0  0  0
 63 79  1  0  0  0  0
 64 69  1  0  0  0  0
 64 88  1  0  0  0  0
 67 70  1  0  0  0  0
 67 78  1  0  0  0  0
 68 80  1  0  0  0  0
 71 72  1  0  0  0  0
M  CHG  1  80   1
M  ISO  4  38 100  64 101  79 100  88 101
M  END
> <Batch ID>
0098

> <Smiles>
CNC(C)C(=O)NC(C(=O)N1Cc2cc([101O:1][101CH2:1]C(C)CCc3cc(C(C)C)cc(OC)c3C(C)C[100NH:0][100C:0](=O)N3CCCC(n4nc(-c5ccc(Oc6ccc(F)cc6F)cc5)c(C(N)=O)c4N)C3)ccc2CC1C(=O)NC1CCCc2ccccc21)C(C)(C)C

> <Shape>
0.239

> <Color>
0.078

> <Negative vol penalty>
0.000

$$$$

  -OEChem-04052319293D

 87 95  0     1  0  0  0  0  0999 V2000
  -25.4291  -35.1369   23.1534 C   0  0  0  0  0  0  0  0  0  0  0  0
  -26.1223  -33.9525   22.9251 C   0  0  0  0  0  0  0  0  0  0  0  0
  -24.9150  -13.8617   21.6531 C   0  0  0  0  0  0  0  0  0  0  0  0
  -26.1348  -13.8328   19.5678 C   0  0  0  0  0  0  0  0  0  0  0  0
  -24.1289  -35.0967   23.6552 C   0  0  0  0  0  0  0  0  0  0  0  0
  -25.5160  -32.7271   23.1995 C   0  0  0  0  0  0  0  0  0  0  0  0
  -26.2312  -29.3358   19.5073 C   0  0  0  0  0  0  0  0  0  0  0  0
  -24.1793  -12.7517   21.2381 C   0  0  0  0  0  0  0  0  0  0  0  0
  -25.3992  -12.7227   19.1529 C   0  0  0  0  0  0  0  0  0  0  0  0
  -27.4720  -28.7022   19.4563 C   0  0  0  0  0  0  0  0  0  0  0  0
  -24.6237   -9.4065   21.0254 C   0  0  0  0  0  0  0  0  0  0  0  0
  -24.4394   -8.3715   21.9420 C   0  0  0  0  0  0  0  0  0  0  0  0
  -26.5228  -26.7689   20.5429 C   0  0  0  0  0  0  0  0  0  0  0  0
  -32.0978  -26.8048   18.3460 C   0  0  0  0  0  0  0  0  0  0  0  0
  -31.3216  -25.7268   20.3640 C   0  0  0  0  0  0  0  0  0  0  0  0
  -22.0460   -8.6671   21.7946 C   0  0  0  0  0  0  0  0  0  0  0  0
  -25.8928  -14.4023   20.8179 C   0  0  0  0  0  0  0  0  0  0  0  0
  -27.8679  -15.5469   21.9565 C   0  0  0  0  0  0  0  0  0  0  0  0
  -23.5029  -33.8699   23.9268 C   0  0  0  0  0  0  0  0  0  0  0  0
  -25.1275  -28.6938   20.0873 C   0  0  0  0  0  0  0  0  0  0  0  0
  -24.2067  -32.6705   23.7067 C   0  0  0  0  0  0  0  0  0  0  0  0
  -25.2684  -27.3955   20.5977 C   0  0  0  0  0  0  0  0  0  0  0  0
  -31.1373  -26.6641   19.3475 C   0  0  0  0  0  0  0  0  0  0  0  0
  -33.2427  -26.0080   18.3608 C   0  0  0  0  0  0  0  0  0  0  0  0
  -32.4665  -24.9301   20.3788 C   0  0  0  0  0  0  0  0  0  0  0  0
  -33.4270  -25.0707   19.3772 C   0  0  0  0  0  0  0  0  0  0  0  0
  -24.4214  -12.1822   19.9880 C   0  0  0  0  0  0  0  0  0  0  0  0
  -27.6187  -27.4197   19.9768 C   0  0  0  0  0  0  0  0  0  0  0  0
  -23.5192  -10.0720   20.4934 C   0  0  0  0  0  0  0  0  0  0  0  0
  -23.1506   -8.0017   22.3266 C   0  0  0  0  0  0  0  0  0  0  0  0
  -22.2304   -9.7022   20.8780 C   0  0  0  0  0  0  0  0  0  0  0  0
  -26.6527  -15.5493   21.2458 C   0  0  0  0  0  0  0  0  0  0  0  0
  -28.1746  -16.8762   22.1165 C   0  0  0  0  0  0  0  0  0  0  0  0
  -28.6496  -14.4421   22.4296 C   0  0  0  0  0  0  0  0  0  0  0  0
  -23.2322  -29.2932   22.5677 C   0  0  0  0  0  0  0  0  0  0  0  0
  -21.5984  -26.7270   21.4418 C   0  0  0  0  0  0  0  0  0  0  0  0
  -21.6350  -23.8392   19.6237 C   0  0  0  0  0  0  0  0  0  0  0  0
  -28.5888  -22.0548   20.0781 C   0  0  0  0  0  0  0  0  0  0  0  0
  -22.1133  -33.8782   24.5129 C   0  0  0  0  0  0  0  0  0  0  0  0
  -23.7894  -29.3804   20.1105 C   0  0  0  0  0  0  0  0  0  0  0  0
  -24.1099  -26.6551   21.2126 C   0  0  0  0  0  0  0  0  0  0  0  0
  -21.4068  -32.5279   24.4241 C   0  0  0  0  0  0  0  0  0  0  0  0
  -25.3989  -21.0200   21.2738 C   0  0  0  0  0  0  0  0  0  0  0  0
  -22.3389  -31.4071   24.8733 C   0  0  0  0  0  0  0  0  0  0  0  0
  -25.5392  -19.5044   21.4256 C   0  0  0  0  0  0  0  0  0  0  0  0
  -26.1660  -21.5391   20.0597 C   0  0  0  0  0  0  0  0  0  0  0  0
  -27.7288  -19.6364   20.1659 C   0  0  0  0  0  0  0  0  0  0  0  0
  -23.5740  -31.3210   23.9685 C   0  0  1  0  0  0  0  0  0  0  0  0
  -22.8564  -28.8346   21.1871 C   0  0  1  0  0  0  0  0  0  0  0  0
  -27.0182  -19.0737   21.4088 C   0  0  2  0  0  0  0  0  0  0  0  0
  -34.2567  -26.1792   17.2771 C   0  0  0  0  0  0  0  0  0  0  0  0
  -32.7871  -24.6596   22.8364 C   0  0  0  0  0  0  0  0  0  0  0  0
  -34.3274  -22.7194   19.2587 C   0  0  0  0  0  0  0  0  0  0  0  0
  -35.5176  -24.4565   20.6446 C   0  0  0  0  0  0  0  0  0  0  0  0
  -20.1577  -21.9381   18.9159 C   0  0  0  0  0  0  0  0  0  0  0  0
  -31.8986  -21.6046   22.3441 C   0  0  0  0  0  0  0  0  0  0  0  0
  -21.8196  -25.5184   24.2347 C   0  0  0  0  0  0  0  0  0  0  0  0
  -21.2032  -23.3014   23.2483 C   0  0  0  0  0  0  0  0  0  0  0  0
  -19.5952  -25.2051   23.1356 C   0  0  0  0  0  0  0  0  0  0  0  0
  -21.9757  -24.4893   16.7566 C   0  0  0  0  0  0  0  0  0  0  0  0
  -29.9054  -27.5207   19.3312 C   0  0  0  0  0  0  0  0  0  1  0  0
  -31.0444  -22.4121   20.1181 C   0  0  0  0  0  0  0  0  0  0  0  0
  -32.6402  -23.9338   21.4784 C   0  0  1  0  0  0  0  0  0  0  0  0
  -34.6548  -24.2170   19.3930 C   0  0  0  0  0  0  0  0  0  0  0  0
  -21.6574  -25.2364   21.6734 C   0  0  1  0  0  0  0  0  0  0  0  0
  -20.6986  -23.3120   18.5515 C   0  0  2  0  0  0  0  0  0  0  0  0
  -31.5069  -22.8442   21.5255 C   0  0  2  0  0  0  0  0  0  0  0  0
  -21.0913  -24.8298   23.0632 C   0  0  0  0  0  0  0  0  0  0  0  0
  -26.2171  -16.7822   20.9733 N   0  0  0  0  0  0  0  0  0  0  0  0
  -27.1637  -17.5669   21.5156 N   0  0  0  0  0  0  0  0  0  0  0  0
  -22.8235  -27.3710   21.2175 N   0  0  0  0  0  0  0  0  0  0  0  0
  -27.5619  -21.0969   20.1052 N   0  0  0  0  0  0  0  0  0  0  0  0
  -29.2077  -17.5098   22.7112 N   0  0  0  0  0  0  0  0  0  0  0  0
  -28.1893  -13.1422   22.1792 N   0  0  0  0  0  0  0  0  0  0  0  0
  -23.2422  -30.6665   22.7211 N   0  0  0  0  0  0  0  0  0  0  0  0
  -20.9691  -24.6203   20.5443 N   0  0  0  0  0  0  0  0  0  0  0  0
  -29.8828  -21.5512   20.1311 N   0  0  0  0  0  0  0  0  0  0  0  0
  -21.4120  -23.2054   17.2474 N   0  3  0  0  0  0  0  0  0  0  0  0
  -29.7160  -14.6030   23.0701 O   0  0  0  0  0  0  0  0  0  0  0  0
  -23.4924  -28.4626   23.4303 O   0  0  0  0  0  0  0  0  0  0  0  0
  -20.5049  -27.2978   21.4522 O   0  0  0  0  0  0  0  0  0  0  0  0
  -22.8364  -23.5806   19.6447 O   0  0  0  0  0  0  0  0  0  0  0  0
  -28.3688  -23.2692   20.0169 O   0  0  0  0  0  0  0  0  0  0  0  0
  -23.7038  -11.0989   19.5829 O   0  0  0  0  0  0  0  0  0  0  0  0
  -28.8289  -26.7993   19.9289 O   0  0  0  0  0  0  0  0  0  1  0  0
  -22.9737   -7.0067   23.2056 F   0  0  0  0  0  0  0  0  0  0  0  0
  -21.1654  -10.3370   20.3694 F   0  0  0  0  0  0  0  0  0  0  0  0
  1  2  1  0  0  0  0
  1  5  2  0  0  0  0
  2  6  2  0  0  0  0
  3  8  2  0  0  0  0
  3 17  1  0  0  0  0
  4  9  1  0  0  0  0
  4 17  2  0  0  0  0
  5 19  1  0  0  0  0
  6 21  1  0  0  0  0
  7 10  2  0  0  0  0
  7 20  1  0  0  0  0
  8 27  1  0  0  0  0
  9 27  2  0  0  0  0
 10 28  1  0  0  0  0
 11 12  2  0  0  0  0
 11 29  1  0  0  0  0
 12 30  1  0  0  0  0
 13 22  1  0  0  0  0
 13 28  2  0  0  0  0
 14 23  1  0  0  0  0
 14 24  2  0  0  0  0
 15 23  2  0  0  0  0
 15 25  1  0  0  0  0
 16 30  2  0  0  0  0
 16 31  1  0  0  0  0
 17 32  1  0  0  0  0
 18 32  1  0  0  0  0
 18 33  2  0  0  0  0
 18 34  1  0  0  0  0
 19 21  2  0  0  0  0
 19 39  1  0  0  0  0
 20 22  2  0  0  0  0
 20 40  1  0  0  0  0
 21 48  1  0  0  0  0
 22 41  1  0  0  0  0
 23 61  1  0  0  0  0
 24 26  1  0  0  0  0
 24 51  1  0  0  0  0
 25 26  2  0  0  0  0
 25 63  1  0  0  0  0
 26 64  1  0  0  0  0
 27 84  1  0  0  0  0
 28 85  1  0  0  0  0
 29 31  2  0  0  0  0
 29 84  1  0  0  0  0
 30 86  1  0  0  0  0
 31 87  1  0  0  0  0
 32 69  2  0  0  0  0
 33 70  1  0  0  0  0
 33 73  1  0  0  0  0
 34 74  1  0  0  0  0
 34 79  2  0  0  0  0
 35 49  1  0  0  0  0
 35 75  1  0  0  0  0
 35 80  2  0  0  0  0
 36 65  1  0  0  0  0
 36 71  1  0  0  0  0
 36 81  2  0  0  0  0
 37 66  1  0  0  0  0
 37 76  1  0  0  0  0
 37 82  2  0  0  0  0
 38 72  1  0  0  0  0
 38 77  1  0  0  0  0
 38 83  2  0  0  0  0
 39 42  1  0  0  0  0
 40 49  1  0  0  0  0
 41 71  1  0  0  0  0
 42 44  1  0  0  0  0
 43 45  1  0  0  0  0
 43 46  1  0  0  0  0
 44 48  1  0  0  0  0
 45 50  1  0  0  0  0
 46 72  1  0  0  0  0
 47 50  1  0  0  0  0
 47 72  1  0  0  0  0
 48 75  1  0  0  0  0
 49 71  1  0  0  0  0
 50 70  1  0  0  0  0
 52 63  1  0  0  0  0
 53 64  1  0  0  0  0
 54 64  1  0  0  0  0
 55 66  1  0  0  0  0
 56 67  1  0  0  0  0
 57 68  1  0  0  0  0
 58 68  1  0  0  0  0
 59 68  1  0  0  0  0
 60 78  1  0  0  0  0
 61 85  1  0  0  0  0
 62 67  1  0  0  0  0
 62 77  1  0  0  0  0
 63 67  1  0  0  0  0
 65 68  1  0  0  0  0
 65 76  1  0  0  0  0
 66 78  1  0  0  0  0
 69 70  1  0  0  0  0
M  CHG  1  78   1
M  ISO  4  38 100  61 101  77 100  85 101
M  END
> <Batch ID>
0098

> <Smiles>
CNC(C)C(=O)NC(C(=O)N1Cc2cc([101O:1][101CH2:1]c3cc(C)c(C(C)C)c(C(C)C(C)C[100NH:0][100C:0](=O)N4CCCC(n5nc(-c6ccc(Oc7ccc(F)cc7F)cc6)c(C(N)=O)c5N)C4)c3)ccc2CC1C(=O)NC1CCCc2ccccc21)C(C)(C)C

> <Shape>
0.257

> <Color>
0.081

> <Negative vol penalty>
0.000

$$$$

  -OEChem-04052319293D

 87 95  0     1  0  0  0  0  0999 V2000
  -30.4826  -11.0744   20.1806 C   0  0  0  0  0  0  0  0  0  0  0  0
  -30.3853  -12.4167   19.8281 C   0  0  0  0  0  0  0  0  0  0  0  0
  -20.2183  -26.6513   20.5609 C   0  0  0  0  0  0  0  0  0  0  0  0
  -22.1306  -25.9412   21.8554 C   0  0  0  0  0  0  0  0  0  0  0  0
  -29.3339  -10.3568   20.5114 C   0  0  0  0  0  0  0  0  0  0  0  0
  -29.1391  -13.0418   19.8052 C   0  0  0  0  0  0  0  0  0  0  0  0
  -29.2170  -17.6106   21.9881 C   0  0  0  0  0  0  0  0  0  0  0  0
  -19.4025  -25.7883   21.2925 C   0  0  0  0  0  0  0  0  0  0  0  0
  -21.3149  -25.0781   22.5871 C   0  0  0  0  0  0  0  0  0  0  0  0
  -29.7502  -18.6625   21.2446 C   0  0  0  0  0  0  0  0  0  0  0  0
  -18.6970  -22.4834   21.3552 C   0  0  0  0  0  0  0  0  0  0  0  0
  -17.7825  -21.7024   20.6485 C   0  0  0  0  0  0  0  0  0  0  0  0
  -27.5195  -19.3818   20.6736 C   0  0  0  0  0  0  0  0  0  0  0  0
  -15.9659  -22.7238   21.8706 C   0  0  0  0  0  0  0  0  0  0  0  0
  -30.8149  -27.2208   18.1927 C   0  0  0  0  0  0  0  0  0  0  0  0
  -21.5824  -26.7277   20.8423 C   0  0  0  0  0  0  0  0  0  0  0  0
  -22.7243  -28.9621   20.3827 C   0  0  0  0  0  0  0  0  0  0  0  0
  -28.0741  -10.9759   20.5019 C   0  0  0  0  0  0  0  0  0  0  0  0
  -27.8289  -17.4296   22.0712 C   0  0  0  0  0  0  0  0  0  0  0  0
  -27.9723  -12.3314   20.1349 C   0  0  0  0  0  0  0  0  0  0  0  0
  -26.9711  -18.3283   21.4209 C   0  0  0  0  0  0  0  0  0  0  0  0
  -29.9607  -26.1301   18.2138 C   0  0  0  0  0  0  0  0  0  0  0  0
  -29.7577  -25.4858   19.4291 C   0  0  0  0  0  0  0  0  0  0  0  0
  -30.4060  -25.9454   20.5700 C   0  0  0  0  0  0  0  0  0  0  0  0
  -19.9508  -25.0017   22.3056 C   0  0  0  0  0  0  0  0  0  0  0  0
  -28.9016  -19.5466   20.5848 C   0  0  0  0  0  0  0  0  0  0  0  0
  -18.2459  -23.3845   22.3197 C   0  0  0  0  0  0  0  0  0  0  0  0
  -16.4170  -21.8226   20.9062 C   0  0  0  0  0  0  0  0  0  0  0  0
  -16.8804  -23.5047   22.5774 C   0  0  0  0  0  0  0  0  0  0  0  0
  -22.4257  -27.6186   20.0865 C   0  0  0  0  0  0  0  0  0  0  0  0
  -31.2405  -27.0442   20.4434 C   0  0  0  0  0  0  0  0  0  0  0  0
  -23.5600  -29.3599   19.3679 C   0  0  0  0  0  0  0  0  0  0  0  0
  -22.2856  -29.7776   21.4774 C   0  0  0  0  0  0  0  0  0  0  0  0
  -25.8114  -15.1283   21.2124 C   0  0  0  0  0  0  0  0  0  0  0  0
  -23.6458  -16.9881   22.7531 C   0  0  0  0  0  0  0  0  0  0  0  0
  -22.7609  -20.0917   23.8626 C   0  0  0  0  0  0  0  0  0  0  0  0
  -27.2561  -26.3753   15.7233 C   0  0  0  0  0  0  0  0  0  0  0  0
  -26.8554  -10.1469   20.8212 C   0  0  0  0  0  0  0  0  0  0  0  0
  -27.2689  -16.3058   22.8993 C   0  0  0  0  0  0  0  0  0  0  0  0
  -25.4732  -18.1897   21.4952 C   0  0  0  0  0  0  0  0  0  0  0  0
  -25.6163  -10.9813   21.1355 C   0  0  0  0  0  0  0  0  0  0  0  0
  -24.5484  -28.4816   14.7698 C   0  0  0  0  0  0  0  0  0  0  0  0
  -25.4450  -12.0920   20.1041 C   0  0  0  0  0  0  0  0  0  0  0  0
  -23.7243  -28.6205   16.0510 C   0  0  0  0  0  0  0  0  0  0  0  0
  -25.1476  -27.0836   14.6329 C   0  0  0  0  0  0  0  0  0  0  0  0
  -25.1091  -26.7689   17.0769 C   0  0  0  0  0  0  0  0  0  0  0  0
  -26.6412  -13.0512   20.1224 C   0  0  1  0  0  0  0  0  0  0  0  0
  -25.8518  -15.9130   22.4931 C   0  0  1  0  0  0  0  0  0  0  0  0
  -24.5307  -28.1786   17.2870 C   0  0  2  0  0  0  0  0  0  0  0  0
  -31.9648  -27.5827   21.6338 C   0  0  0  0  0  0  0  0  0  0  0  0
  -20.9159  -21.3058   25.0541 C   0  0  0  0  0  0  0  0  0  0  0  0
  -28.0573  -26.2854   24.9993 C   0  0  0  0  0  0  0  0  0  0  0  0
  -28.4148  -24.0069   24.0292 C   0  0  0  0  0  0  0  0  0  0  0  0
  -21.9549  -16.9045   20.2147 C   0  0  0  0  0  0  0  0  0  0  0  0
  -20.6513  -18.8489   21.1024 C   0  0  0  0  0  0  0  0  0  0  0  0
  -20.6566  -16.6834   22.3407 C   0  0  0  0  0  0  0  0  0  0  0  0
  -24.5582  -20.8925   26.0733 C   0  0  0  0  0  0  0  0  0  0  0  0
  -28.8378  -24.2936   19.5068 C   0  0  0  0  0  0  0  0  0  0  0  0
  -30.2076  -25.2767   21.8888 C   0  0  0  0  0  0  0  0  0  0  0  0
  -29.2931  -25.6818   16.9598 C   0  0  0  0  0  0  0  0  0  0  0  0
  -29.5719  -22.9542   19.5991 C   0  0  0  0  0  0  0  0  0  0  0  0
  -29.2647  -26.0780   22.8056 C   0  0  0  0  0  0  0  0  0  0  0  0
  -28.6357  -21.7626   19.7634 C   0  0  0  0  0  0  0  0  0  1  0  0
  -22.7347  -18.1233   22.3529 C   0  0  1  0  0  0  0  0  0  0  0  0
  -22.2385  -20.5704   25.2052 C   0  0  2  0  0  0  0  0  0  0  0  0
  -29.0016  -25.4122   24.1692 C   0  0  0  0  0  0  0  0  0  0  0  0
  -21.5276  -17.6418   21.4995 C   0  0  0  0  0  0  0  0  0  0  0  0
  -31.4624  -27.6962   19.2801 N   0  0  0  0  0  0  0  0  0  0  0  0
  -23.0229  -27.1916   18.9707 N   0  0  0  0  0  0  0  0  0  0  0  0
  -23.7052  -28.2729   18.5569 N   0  0  0  0  0  0  0  0  0  0  0  0
  -24.9742  -17.0711   22.3121 N   0  0  0  0  0  0  0  0  0  0  0  0
  -25.9007  -26.7261   15.8374 N   0  0  0  0  0  0  0  0  0  0  0  0
  -24.1774  -30.5299   19.0990 N   0  0  0  0  0  0  0  0  0  0  0  0
  -21.4288  -29.2112   22.4310 N   0  0  0  0  0  0  0  0  0  0  0  0
  -26.5449  -13.9577   21.2465 N   0  0  0  0  0  0  0  0  0  0  0  0
  -22.3599  -18.8011   23.5893 N   0  0  0  0  0  0  0  0  0  0  0  0
  -27.8972  -26.0565   16.9141 N   0  0  0  0  0  0  0  0  0  0  0  0
  -23.2192  -21.4934   25.8434 N   0  3  0  0  0  0  0  0  0  0  0  0
  -22.6297  -30.9779   21.5971 O   0  0  0  0  0  0  0  0  0  0  0  0
  -25.1617  -15.5527   20.2640 O   0  0  0  0  0  0  0  0  0  0  0  0
  -23.1973  -16.0653   23.4378 O   0  0  0  0  0  0  0  0  0  0  0  0
  -23.4522  -20.7939   23.1281 O   0  0  0  0  0  0  0  0  0  0  0  0
  -27.8521  -26.3535   14.6411 O   0  0  0  0  0  0  0  0  0  0  0  0
  -19.1550  -24.1596   23.0199 O   0  0  0  0  0  0  0  0  0  0  0  0
  -29.4194  -20.5738   19.8578 O   0  0  0  0  0  0  0  0  0  1  0  0
  -15.5388  -21.0737   20.2263 F   0  0  0  0  0  0  0  0  0  0  0  0
  -16.4410  -24.3695   23.5020 F   0  0  0  0  0  0  0  0  0  0  0  0
  1  2  1  0  0  0  0
  1  5  2  0  0  0  0
  2  6  2  0  0  0  0
  3  8  2  0  0  0  0
  3 16  1  0  0  0  0
  4  9  1  0  0  0  0
  4 16  2  0  0  0  0
  5 18  1  0  0  0  0
  6 20  1  0  0  0  0
  7 10  2  0  0  0  0
  7 19  1  0  0  0  0
  8 25  1  0  0  0  0
  9 25  2  0  0  0  0
 10 26  1  0  0  0  0
 11 12  2  0  0  0  0
 11 27  1  0  0  0  0
 12 28  1  0  0  0  0
 13 21  1  0  0  0  0
 13 26  2  0  0  0  0
 14 28  2  0  0  0  0
 14 29  1  0  0  0  0
 15 22  2  0  0  0  0
 15 68  1  0  0  0  0
 16 30  1  0  0  0  0
 17 30  1  0  0  0  0
 17 32  2  0  0  0  0
 17 33  1  0  0  0  0
 18 20  2  0  0  0  0
 18 38  1  0  0  0  0
 19 21  2  0  0  0  0
 19 39  1  0  0  0  0
 20 47  1  0  0  0  0
 21 40  1  0  0  0  0
 22 23  1  0  0  0  0
 22 60  1  0  0  0  0
 23 24  2  0  0  0  0
 23 58  1  0  0  0  0
 24 31  1  0  0  0  0
 24 59  1  0  0  0  0
 25 84  1  0  0  0  0
 26 85  1  0  0  0  0
 27 29  2  0  0  0  0
 27 84  1  0  0  0  0
 28 86  1  0  0  0  0
 29 87  1  0  0  0  0
 30 69  2  0  0  0  0
 31 50  1  0  0  0  0
 31 68  2  0  0  0  0
 32 70  1  0  0  0  0
 32 73  1  0  0  0  0
 33 74  1  0  0  0  0
 33 79  2  0  0  0  0
 34 48  1  0  0  0  0
 34 75  1  0  0  0  0
 34 80  2  0  0  0  0
 35 64  1  0  0  0  0
 35 71  1  0  0  0  0
 35 81  2  0  0  0  0
 36 65  1  0  0  0  0
 36 76  1  0  0  0  0
 36 82  2  0  0  0  0
 37 72  1  0  0  0  0
 37 77  1  0  0  0  0
 37 83  2  0  0  0  0
 38 41  1  0  0  0  0
 39 48  1  0  0  0  0
 40 71  1  0  0  0  0
 41 43  1  0  0  0  0
 42 44  1  0  0  0  0
 42 45  1  0  0  0  0
 43 47  1  0  0  0  0
 44 49  1  0  0  0  0
 45 72  1  0  0  0  0
 46 49  1  0  0  0  0
 46 72  1  0  0  0  0
 47 75  1  0  0  0  0
 48 71  1  0  0  0  0
 49 70  1  0  0  0  0
 51 65  1  0  0  0  0
 52 66  1  0  0  0  0
 53 66  1  0  0  0  0
 54 67  1  0  0  0  0
 55 67  1  0  0  0  0
 56 67  1  0  0  0  0
 57 78  1  0  0  0  0
 58 61  1  0  0  0  0
 59 62  1  0  0  0  0
 60 77  1  0  0  0  0
 61 63  1  0  0  0  0
 62 66  1  0  0  0  0
 63 85  1  0  0  0  0
 64 67  1  0  0  0  0
 64 76  1  0  0  0  0
 65 78  1  0  0  0  0
 69 70  1  0  0  0  0
M  CHG  1  78   1
M  ISO  4  37 100  63 101  77 100  85 101
M  END
> <Batch ID>
0098

> <Smiles>
CNC(C)C(=O)NC(C(=O)N1Cc2cc([101O:1][101CH2:1]CCc3c(C[100NH:0][100C:0](=O)N4CCCC(n5nc(-c6ccc(Oc7ccc(F)cc7F)cc6)c(C(N)=O)c5N)C4)cnc(C)c3CCC(C)C)ccc2CC1C(=O)NC1CCCc2ccccc21)C(C)(C)C

> <Shape>
0.198

> <Color>
0.057

> <Negative vol penalty>
0.000

$$$$

  -OEChem-04052319293D

 86 94  0     1  0  0  0  0  0999 V2000
  -23.0087  -19.9484   23.5219 C   0  0  0  0  0  0  0  0  0  0  0  0
  -23.7792  -20.7828   22.7185 C   0  0  0  0  0  0  0  0  0  0  0  0
  -25.8990  -13.4163   21.8859 C   0  0  0  0  0  0  0  0  0  0  0  0
  -25.4215  -14.3495   19.7092 C   0  0  0  0  0  0  0  0  0  0  0  0
  -21.7414  -20.3566   23.9356 C   0  0  0  0  0  0  0  0  0  0  0  0
  -23.2824  -22.0257   22.3275 C   0  0  0  0  0  0  0  0  0  0  0  0
  -26.7125  -25.7223   22.7907 C   0  0  0  0  0  0  0  0  0  0  0  0
  -24.7979  -12.5688   21.7641 C   0  0  0  0  0  0  0  0  0  0  0  0
  -24.3204  -13.5020   19.5874 C   0  0  0  0  0  0  0  0  0  0  0  0
  -27.6911  -25.8105   21.8016 C   0  0  0  0  0  0  0  0  0  0  0  0
  -24.0459   -9.6723   20.1900 C   0  0  0  0  0  0  0  0  0  0  0  0
  -24.2149   -8.3346   20.5471 C   0  0  0  0  0  0  0  0  0  0  0  0
  -26.4557  -27.5937   20.7467 C   0  0  0  0  0  0  0  0  0  0  0  0
  -30.2137  -24.4693   17.7308 C   0  0  0  0  0  0  0  0  0  0  0  0
  -29.0418  -22.3748   17.4545 C   0  0  0  0  0  0  0  0  0  0  0  0
  -27.8625  -24.4648   17.1751 C   0  0  0  0  0  0  0  0  0  0  0  0
  -22.4946   -8.5658   22.2276 C   0  0  0  0  0  0  0  0  0  0  0  0
  -26.2108  -14.3067   20.8584 C   0  0  0  0  0  0  0  0  0  0  0  0
  -28.6711  -14.9212   20.5811 C   0  0  0  0  0  0  0  0  0  0  0  0
  -21.2327  -21.6091   23.5575 C   0  0  0  0  0  0  0  0  0  0  0  0
  -25.5907  -26.5632   22.7591 C   0  0  0  0  0  0  0  0  0  0  0  0
  -22.0065  -22.4505   22.7355 C   0  0  0  0  0  0  0  0  0  0  0  0
  -25.4655  -27.5160   21.7380 C   0  0  0  0  0  0  0  0  0  0  0  0
  -30.2162  -23.0745   17.7319 C   0  0  0  0  0  0  0  0  0  0  0  0
  -29.0368  -25.1645   17.4525 C   0  0  0  0  0  0  0  0  0  0  0  0
  -27.8649  -23.0699   17.1761 C   0  0  0  0  0  0  0  0  0  0  0  0
  -24.0086  -12.6116   20.6149 C   0  0  0  0  0  0  0  0  0  0  0  0
  -27.5613  -26.7443   20.7778 C   0  0  0  0  0  0  0  0  0  0  0  0
  -23.1013  -10.4568   20.8518 C   0  0  0  0  0  0  0  0  0  0  0  0
  -23.4392   -7.7813   21.5658 C   0  0  0  0  0  0  0  0  0  0  0  0
  -22.3256   -9.9036   21.8705 C   0  0  0  0  0  0  0  0  0  0  0  0
  -27.3478  -15.1829   20.9838 C   0  0  0  0  0  0  0  0  0  0  0  0
  -29.3633  -16.0592   20.9162 C   0  0  0  0  0  0  0  0  0  0  0  0
  -29.2251  -13.7539   19.9596 C   0  0  0  0  0  0  0  0  0  0  0  0
  -22.4547  -26.1110   22.5055 C   0  0  0  0  0  0  0  0  0  0  0  0
  -22.3445  -29.3103   23.0294 C   0  0  0  0  0  0  0  0  0  0  0  0
  -23.9336  -32.3269   22.8810 C   0  0  0  0  0  0  0  0  0  0  0  0
  -29.7925  -21.6208   21.0903 C   0  0  0  0  0  0  0  0  0  0  0  0
  -19.8382  -21.9870   23.9903 C   0  0  0  0  0  0  0  0  0  0  0  0
  -24.5573  -26.4738   23.8483 C   0  0  0  0  0  0  0  0  0  0  0  0
  -24.2905  -28.4558   21.6700 C   0  0  0  0  0  0  0  0  0  0  0  0
  -19.5368  -23.4761   23.8416 C   0  0  0  0  0  0  0  0  0  0  0  0
  -27.9959  -20.0375   23.7251 C   0  0  0  0  0  0  0  0  0  0  0  0
  -19.9968  -23.9803   22.4774 C   0  0  0  0  0  0  0  0  0  0  0  0
  -27.7711  -18.6144   23.2110 C   0  0  0  0  0  0  0  0  0  0  0  0
  -27.9078  -21.0650   22.5989 C   0  0  0  0  0  0  0  0  0  0  0  0
  -28.5610  -19.3726   20.9306 C   0  0  0  0  0  0  0  0  0  0  0  0
  -21.5124  -23.8164   22.3110 C   0  0  1  0  0  0  0  0  0  0  0  0
  -23.1997  -27.0307   23.4311 C   0  0  1  0  0  0  0  0  0  0  0  0
  -28.6958  -18.2956   22.0208 C   0  0  2  0  0  0  0  0  0  0  0  0
  -28.6816  -27.2335   16.0652 C   0  0  0  0  0  0  0  0  0  0  0  0
  -23.5747  -34.7673   23.3425 C   0  0  0  0  0  0  0  0  0  0  0  0
  -26.1988  -21.4091   18.0768 C   0  0  0  0  0  0  0  0  0  0  0  0
  -26.7786  -21.4063   15.6273 C   0  0  0  0  0  0  0  0  0  0  0  0
  -25.3543  -23.2070   16.5814 C   0  0  0  0  0  0  0  0  0  0  0  0
  -20.6722  -29.5426   20.4879 C   0  0  0  0  0  0  0  0  0  0  0  0
  -21.1497  -32.0003   20.4816 C   0  0  0  0  0  0  0  0  0  0  0  0
  -19.8966  -30.9798   22.3819 C   0  0  0  0  0  0  0  0  0  0  0  0
  -26.1122  -32.3875   24.8832 C   0  0  0  0  0  0  0  0  0  0  0  0
  -31.4749  -22.3318   18.0292 C   0  0  0  0  0  0  0  0  0  0  0  0
  -31.6702  -22.0260   19.5190 C   0  0  0  0  0  0  0  0  0  0  0  0
  -28.0902  -27.2588   18.5169 C   0  0  0  0  0  0  0  0  0  1  0  0
  -29.0336  -26.6851   17.4509 C   0  0  1  0  0  0  0  0  0  0  0  0
  -22.3756  -30.5389   22.1528 C   0  0  1  0  0  0  0  0  0  0  0  0
  -24.0731  -33.4432   23.9002 C   0  0  2  0  0  0  0  0  0  0  0  0
  -26.6094  -22.3214   16.8796 C   0  0  0  0  0  0  0  0  0  0  0  0
  -21.0448  -30.7465   21.3759 C   0  0  0  0  0  0  0  0  0  0  0  0
  -27.2054  -16.3921   21.5329 N   0  0  0  0  0  0  0  0  0  0  0  0
  -28.4483  -16.9004   21.4777 N   0  0  0  0  0  0  0  0  0  0  0  0
  -23.3035  -28.3252   22.7545 N   0  0  0  0  0  0  0  0  0  0  0  0
  -28.8100  -20.7053   21.5022 N   0  0  0  0  0  0  0  0  0  0  0  0
  -30.6594  -16.4123   20.7825 N   0  0  0  0  0  0  0  0  0  0  0  0
  -28.3733  -12.6753   19.6849 N   0  0  0  0  0  0  0  0  0  0  0  0
  -22.2153  -24.8560   23.0319 N   0  0  0  0  0  0  0  0  0  0  0  0
  -22.7395  -31.6521   23.0227 N   0  0  0  0  0  0  0  0  0  0  0  0
  -30.6096  -21.1983   20.0489 N   0  0  0  0  0  0  0  0  0  0  0  0
  -25.5003  -33.6075   24.2965 N   0  3  0  0  0  0  0  0  0  0  0  0
  -30.4427  -13.6635   19.6719 O   0  0  0  0  0  0  0  0  0  0  0  0
  -22.1204  -26.5109   21.3964 O   0  0  0  0  0  0  0  0  0  0  0  0
  -21.5049  -29.2309   23.9297 O   0  0  0  0  0  0  0  0  0  0  0  0
  -24.7959  -32.0807   22.0405 O   0  0  0  0  0  0  0  0  0  0  0  0
  -29.9346  -22.7302   21.6156 O   0  0  0  0  0  0  0  0  0  0  0  0
  -22.9342  -11.7846   20.4956 O   0  0  0  0  0  0  0  0  0  0  0  0
  -28.5148  -26.8320   19.8107 O   0  0  0  0  0  0  0  0  0  1  0  0
  -23.6006   -6.4962   21.9075 F   0  0  0  0  0  0  0  0  0  0  0  0
  -21.4157  -10.6520   22.5091 F   0  0  0  0  0  0  0  0  0  0  0  0
  1  2  1  0  0  0  0
  1  5  2  0  0  0  0
  2  6  2  0  0  0  0
  3  8  2  0  0  0  0
  3 18  1  0  0  0  0
  4  9  1  0  0  0  0
  4 18  2  0  0  0  0
  5 20  1  0  0  0  0
  6 22  1  0  0  0  0
  7 10  2  0  0  0  0
  7 21  1  0  0  0  0
  8 27  1  0  0  0  0
  9 27  2  0  0  0  0
 10 28  1  0  0  0  0
 11 12  2  0  0  0  0
 11 29  1  0  0  0  0
 12 30  1  0  0  0  0
 13 23  1  0  0  0  0
 13 28  2  0  0  0  0
 14 24  2  0  0  0  0
 14 25  1  0  0  0  0
 15 24  1  0  0  0  0
 15 26  2  0  0  0  0
 16 25  2  0  0  0  0
 16 26  1  0  0  0  0
 17 30  2  0  0  0  0
 17 31  1  0  0  0  0
 18 32  1  0  0  0  0
 19 32  1  0  0  0  0
 19 33  2  0  0  0  0
 19 34  1  0  0  0  0
 20 22  2  0  0  0  0
 20 39  1  0  0  0  0
 21 23  2  0  0  0  0
 21 40  1  0  0  0  0
 22 48  1  0  0  0  0
 23 41  1  0  0  0  0
 24 60  1  0  0  0  0
 25 63  1  0  0  0  0
 26 66  1  0  0  0  0
 27 83  1  0  0  0  0
 28 84  1  0  0  0  0
 29 31  2  0  0  0  0
 29 83  1  0  0  0  0
 30 85  1  0  0  0  0
 31 86  1  0  0  0  0
 32 68  2  0  0  0  0
 33 69  1  0  0  0  0
 33 72  1  0  0  0  0
 34 73  1  0  0  0  0
 34 78  2  0  0  0  0
 35 49  1  0  0  0  0
 35 74  1  0  0  0  0
 35 79  2  0  0  0  0
 36 64  1  0  0  0  0
 36 70  1  0  0  0  0
 36 80  2  0  0  0  0
 37 65  1  0  0  0  0
 37 75  1  0  0  0  0
 37 81  2  0  0  0  0
 38 71  1  0  0  0  0
 38 76  1  0  0  0  0
 38 82  2  0  0  0  0
 39 42  1  0  0  0  0
 40 49  1  0  0  0  0
 41 70  1  0  0  0  0
 42 44  1  0  0  0  0
 43 45  1  0  0  0  0
 43 46  1  0  0  0  0
 44 48  1  0  0  0  0
 45 50  1  0  0  0  0
 46 71  1  0  0  0  0
 47 50  1  0  0  0  0
 47 71  1  0  0  0  0
 48 74  1  0  0  0  0
 49 70  1  0  0  0  0
 50 69  1  0  0  0  0
 51 63  1  0  0  0  0
 52 65  1  0  0  0  0
 53 66  1  0  0  0  0
 54 66  1  0  0  0  0
 55 66  1  0  0  0  0
 56 67  1  0  0  0  0
 57 67  1  0  0  0  0
 58 67  1  0  0  0  0
 59 77  1  0  0  0  0
 60 61  1  0  0  0  0
 61 76  1  0  0  0  0
 62 63  1  0  0  0  0
 62 84  1  0  0  0  0
 64 67  1  0  0  0  0
 64 75  1  0  0  0  0
 65 77  1  0  0  0  0
 68 69  1  0  0  0  0
M  CHG  1  77   1
M  ISO  4  38 100  62 101  76 100  84 101
M  END
> <Batch ID>
0098

> <Smiles>
CNC(C)C(=O)NC(C(=O)N1Cc2cc([101O:1][101CH2:1]C(C)c3cc(CC[100NH:0][100C:0](=O)N4CCCC(n5nc(-c6ccc(Oc7ccc(F)cc7F)cc6)c(C(N)=O)c5N)C4)cc(C(C)(C)C)c3)ccc2CC1C(=O)NC1CCCc2ccccc21)C(C)(C)C

> <Shape>
0.246

> <Color>
0.067

> <Negative vol penalty>
0.000

$$$$

  -OEChem-04052319293D

 84 92  0     1  0  0  0  0  0999 V2000
  -18.0969  -24.2476   21.5663 C   0  0  0  0  0  0  0  0  0  0  0  0
  -19.4601  -24.0223   21.4042 C   0  0  0  0  0  0  0  0  0  0  0  0
  -22.0596  -11.1406   22.3258 C   0  0  0  0  0  0  0  0  0  0  0  0
  -21.6107  -11.1649   19.9520 C   0  0  0  0  0  0  0  0  0  0  0  0
  -17.6451  -25.4878   22.0152 C   0  0  0  0  0  0  0  0  0  0  0  0
  -20.3723  -25.0375   21.6900 C   0  0  0  0  0  0  0  0  0  0  0  0
  -24.3451  -23.3846   24.3602 C   0  0  0  0  0  0  0  0  0  0  0  0
  -21.3935   -9.9203   22.4393 C   0  0  0  0  0  0  0  0  0  0  0  0
  -20.9446   -9.9446   20.0655 C   0  0  0  0  0  0  0  0  0  0  0  0
  -25.3388  -22.6977   23.6641 C   0  0  0  0  0  0  0  0  0  0  0  0
  -20.1245   -6.6225   23.2931 C   0  0  0  0  0  0  0  0  0  0  0  0
  -20.7262   -5.6240   24.0589 C   0  0  0  0  0  0  0  0  0  0  0  0
  -26.6788  -24.7028   23.6103 C   0  0  0  0  0  0  0  0  0  0  0  0
  -26.7643  -20.1327   18.4998 C   0  0  0  0  0  0  0  0  0  0  0  0
  -22.6482   -5.6598   22.5954 C   0  0  0  0  0  0  0  0  0  0  0  0
  -25.5484  -22.1283   18.9424 C   0  0  0  0  0  0  0  0  0  0  0  0
  -22.1681  -11.7629   21.0822 C   0  0  0  0  0  0  0  0  0  0  0  0
  -24.2250  -13.2246   20.7073 C   0  0  0  0  0  0  0  0  0  0  0  0
  -18.5527  -26.5156   22.3159 C   0  0  0  0  0  0  0  0  0  0  0  0
  -24.5064  -24.7410   24.6775 C   0  0  0  0  0  0  0  0  0  0  0  0
  -19.9321  -26.2931   22.1421 C   0  0  0  0  0  0  0  0  0  0  0  0
  -25.6868  -25.4040   24.3127 C   0  0  0  0  0  0  0  0  0  0  0  0
  -25.5997  -20.8772   18.3492 C   0  0  0  0  0  0  0  0  0  0  0  0
  -27.8271  -20.6547   19.2287 C   0  0  0  0  0  0  0  0  0  0  0  0
  -20.8360   -9.3223   21.3092 C   0  0  0  0  0  0  0  0  0  0  0  0
  -26.5046  -23.3575   23.2865 C   0  0  0  0  0  0  0  0  0  0  0  0
  -20.7846   -7.1396   22.1783 C   0  0  0  0  0  0  0  0  0  0  0  0
  -21.9880   -5.1427   23.7101 C   0  0  0  0  0  0  0  0  0  0  0  0
  -22.0464   -6.6583   21.8296 C   0  0  0  0  0  0  0  0  0  0  0  0
  -22.8556  -13.0238   20.9644 C   0  0  0  0  0  0  0  0  0  0  0  0
  -27.6762  -21.9159   19.7824 C   0  0  0  0  0  0  0  0  0  0  0  0
  -24.3749  -14.5898   20.6921 C   0  0  0  0  0  0  0  0  0  0  0  0
  -25.2683  -12.2630   20.5005 C   0  0  0  0  0  0  0  0  0  0  0  0
  -22.9607  -27.4175   23.9355 C   0  0  0  0  0  0  0  0  0  0  0  0
  -25.0195  -28.7364   26.0672 C   0  0  0  0  0  0  0  0  0  0  0  0
  -28.0156  -28.5595   27.6917 C   0  0  0  0  0  0  0  0  0  0  0  0
  -22.6396  -19.6592   19.1319 C   0  0  0  0  0  0  0  0  0  0  0  0
  -18.0141  -27.8548   22.7531 C   0  0  0  0  0  0  0  0  0  0  0  0
  -23.4367  -25.4607   25.4522 C   0  0  0  0  0  0  0  0  0  0  0  0
  -25.9175  -26.8543   24.6471 C   0  0  0  0  0  0  0  0  0  0  0  0
  -19.0678  -28.7560   23.3918 C   0  0  0  0  0  0  0  0  0  0  0  0
  -21.1869  -18.2675   22.0694 C   0  0  0  0  0  0  0  0  0  0  0  0
  -20.3421  -28.7646   22.5534 C   0  0  0  0  0  0  0  0  0  0  0  0
  -21.5991  -16.7952   22.0191 C   0  0  0  0  0  0  0  0  0  0  0  0
  -20.8941  -18.8195   20.6760 C   0  0  0  0  0  0  0  0  0  0  0  0
  -22.3893  -17.1548   19.6432 C   0  0  0  0  0  0  0  0  0  0  0  0
  -20.9541  -27.3613   22.4654 C   0  0  1  0  0  0  0  0  0  0  0  0
  -23.4850  -26.9749   25.2722 C   0  0  1  0  0  0  0  0  0  0  0  0
  -22.7490  -16.5688   21.0192 C   0  0  2  0  0  0  0  0  0  0  0  0
  -29.7767  -19.5728   18.0529 C   0  0  0  0  0  0  0  0  0  0  0  0
  -28.8422  -18.5414   20.1549 C   0  0  0  0  0  0  0  0  0  0  0  0
  -29.7761  -23.2986   19.6814 C   0  0  0  0  0  0  0  0  0  0  0  0
  -29.4366  -29.8028   29.3446 C   0  0  0  0  0  0  0  0  0  0  0  0
  -25.7873  -30.7390   23.8970 C   0  0  0  0  0  0  0  0  0  0  0  0
  -27.8198  -31.3116   25.2421 C   0  0  0  0  0  0  0  0  0  0  0  0
  -25.5467  -31.7208   26.1846 C   0  0  0  0  0  0  0  0  0  0  0  0
  -27.9598  -26.3064   29.6100 C   0  0  0  0  0  0  0  0  0  0  0  0
  -24.4454  -20.3478   17.5750 C   0  0  0  0  0  0  0  0  0  0  0  0
  -28.2783  -23.4509   21.7049 C   0  0  0  0  0  0  0  0  0  1  0  0
  -29.0772  -19.8616   19.3954 C   0  0  0  0  0  0  0  0  0  0  0  0
  -28.8050  -22.5383   20.5890 C   0  0  1  0  0  0  0  0  0  0  0  0
  -26.3971  -29.3482   25.9850 C   0  0  1  0  0  0  0  0  0  0  0  0
  -28.3788  -28.7266   29.1562 C   0  0  2  0  0  0  0  0  0  0  0  0
  -26.3829  -30.7531   25.3190 C   0  0  0  0  0  0  0  0  0  0  0  0
  -26.5603  -22.6687   19.6577 N   0  0  0  0  0  0  0  0  0  0  0  0
  -22.1835  -14.1697   21.1028 N   0  0  0  0  0  0  0  0  0  0  0  0
  -23.1346  -15.1037   20.9320 N   0  0  0  0  0  0  0  0  0  0  0  0
  -24.8395  -27.5163   25.4002 N   0  0  0  0  0  0  0  0  0  0  0  0
  -22.0242  -18.5738   19.7770 N   0  0  0  0  0  0  0  0  0  0  0  0
  -25.4455  -15.3887   20.4971 N   0  0  0  0  0  0  0  0  0  0  0  0
  -24.9409  -10.9011   20.5492 N   0  0  0  0  0  0  0  0  0  0  0  0
  -21.6550  -27.0380   23.6896 N   0  0  0  0  0  0  0  0  0  0  0  0
  -26.9309  -29.3359   27.3427 N   0  0  0  0  0  0  0  0  0  0  0  0
  -23.7073  -19.3393   18.3022 N   0  0  0  0  0  0  0  0  0  0  0  0
  -28.9067  -27.4470   29.7082 N   0  3  0  0  0  0  0  0  0  0  0  0
  -26.4587  -12.6013   20.2955 O   0  0  0  0  0  0  0  0  0  0  0  0
  -23.6865  -28.0574   23.1835 O   0  0  0  0  0  0  0  0  0  0  0  0
  -24.1376  -29.3159   26.7060 O   0  0  0  0  0  0  0  0  0  0  0  0
  -28.6346  -27.8173   26.9324 O   0  0  0  0  0  0  0  0  0  0  0  0
  -22.2685  -20.8275   19.2881 O   0  0  0  0  0  0  0  0  0  0  0  0
  -20.1862   -8.1315   21.4195 O   0  0  0  0  0  0  0  0  0  0  0  0
  -27.4758  -22.6895   22.6064 O   0  0  0  0  0  0  0  0  0  1  0  0
  -22.5664   -4.1849   24.4465 F   0  0  0  0  0  0  0  0  0  0  0  0
  -22.6860   -7.1521   20.7605 F   0  0  0  0  0  0  0  0  0  0  0  0
  1  2  1  0  0  0  0
  1  5  2  0  0  0  0
  2  6  2  0  0  0  0
  3  8  2  0  0  0  0
  3 17  1  0  0  0  0
  4  9  1  0  0  0  0
  4 17  2  0  0  0  0
  5 19  1  0  0  0  0
  6 21  1  0  0  0  0
  7 10  2  0  0  0  0
  7 20  1  0  0  0  0
  8 25  1  0  0  0  0
  9 25  2  0  0  0  0
 10 26  1  0  0  0  0
 11 12  2  0  0  0  0
 11 27  1  0  0  0  0
 12 28  1  0  0  0  0
 13 22  1  0  0  0  0
 13 26  2  0  0  0  0
 14 23  2  0  0  0  0
 14 24  1  0  0  0  0
 15 28  2  0  0  0  0
 15 29  1  0  0  0  0
 16 23  1  0  0  0  0
 16 65  2  0  0  0  0
 17 30  1  0  0  0  0
 18 30  1  0  0  0  0
 18 32  2  0  0  0  0
 18 33  1  0  0  0  0
 19 21  2  0  0  0  0
 19 38  1  0  0  0  0
 20 22  2  0  0  0  0
 20 39  1  0  0  0  0
 21 47  1  0  0  0  0
 22 40  1  0  0  0  0
 23 58  1  0  0  0  0
 24 31  2  0  0  0  0
 24 60  1  0  0  0  0
 25 81  1  0  0  0  0
 26 82  1  0  0  0  0
 27 29  2  0  0  0  0
 27 81  1  0  0  0  0
 28 83  1  0  0  0  0
 29 84  1  0  0  0  0
 30 66  2  0  0  0  0
 31 61  1  0  0  0  0
 31 65  1  0  0  0  0
 32 67  1  0  0  0  0
 32 70  1  0  0  0  0
 33 71  1  0  0  0  0
 33 76  2  0  0  0  0
 34 48  1  0  0  0  0
 34 72  1  0  0  0  0
 34 77  2  0  0  0  0
 35 62  1  0  0  0  0
 35 68  1  0  0  0  0
 35 78  2  0  0  0  0
 36 63  1  0  0  0  0
 36 73  1  0  0  0  0
 36 79  2  0  0  0  0
 37 69  1  0  0  0  0
 37 74  1  0  0  0  0
 37 80  2  0  0  0  0
 38 41  1  0  0  0  0
 39 48  1  0  0  0  0
 40 68  1  0  0  0  0
 41 43  1  0  0  0  0
 42 44  1  0  0  0  0
 42 45  1  0  0  0  0
 43 47  1  0  0  0  0
 44 49  1  0  0  0  0
 45 69  1  0  0  0  0
 46 49  1  0  0  0  0
 46 69  1  0  0  0  0
 47 72  1  0  0  0  0
 48 68  1  0  0  0  0
 49 67  1  0  0  0  0
 50 60  1  0  0  0  0
 51 60  1  0  0  0  0
 52 61  1  0  0  0  0
 53 63  1  0  0  0  0
 54 64  1  0  0  0  0
 55 64  1  0  0  0  0
 56 64  1  0  0  0  0
 57 75  1  0  0  0  0
 58 74  1  0  0  0  0
 59 61  1  0  0  0  0
 59 82  1  0  0  0  0
 62 64  1  0  0  0  0
 62 73  1  0  0  0  0
 63 75  1  0  0  0  0
 66 67  1  0  0  0  0
M  CHG  1  75   1
M  ISO  4  37 100  59 101  74 100  82 101
M  END
> <Batch ID>
0098

> <Smiles>
CNC(C)C(=O)NC(C(=O)N1Cc2cc([101O:1][101CH2:1]C(C)c3ncc(C[100NH:0][100C:0](=O)N4CCCC(n5nc(-c6ccc(Oc7ccc(F)cc7F)cc6)c(C(N)=O)c5N)C4)cc3C(C)C)ccc2CC1C(=O)NC1CCCc2ccccc21)C(C)(C)C

> <Shape>
0.228

> <Color>
0.106

> <Negative vol penalty>
0.000

$$$$

  -OEChem-04052319293D

 89 97  0     1  0  0  0  0  0999 V2000
  -24.4987  -32.9122   26.5596 C   0  0  0  0  0  0  0  0  0  0  0  0
  -23.8587  -31.6871   26.4020 C   0  0  0  0  0  0  0  0  0  0  0  0
  -23.1069   -9.8313   20.0172 C   0  0  0  0  0  0  0  0  0  0  0  0
  -23.8442   -9.9507   22.3149 C   0  0  0  0  0  0  0  0  0  0  0  0
  -25.3918  -33.3610   25.5877 C   0  0  0  0  0  0  0  0  0  0  0  0
  -24.1108  -30.9104   25.2716 C   0  0  0  0  0  0  0  0  0  0  0  0
  -24.5637  -24.0730   23.1833 C   0  0  0  0  0  0  0  0  0  0  0  0
  -22.3725   -8.6828   20.3125 C   0  0  0  0  0  0  0  0  0  0  0  0
  -23.1098   -8.8022   22.6102 C   0  0  0  0  0  0  0  0  0  0  0  0
  -24.0626  -23.2083   22.2112 C   0  0  0  0  0  0  0  0  0  0  0  0
  -19.8842   -7.9981   23.2183 C   0  0  0  0  0  0  0  0  0  0  0  0
  -19.1163   -8.0033   24.3827 C   0  0  0  0  0  0  0  0  0  0  0  0
  -25.6851  -24.0485   20.6362 C   0  0  0  0  0  0  0  0  0  0  0  0
  -26.2640  -19.8767   19.8333 C   0  0  0  0  0  0  0  0  0  0  0  0
  -20.3703   -6.1148   25.2183 C   0  0  0  0  0  0  0  0  0  0  0  0
  -23.8428  -10.4652   21.0184 C   0  0  0  0  0  0  0  0  0  0  0  0
  -24.1598  -12.9858   20.7865 C   0  0  0  0  0  0  0  0  0  0  0  0
  -25.6623  -32.5851   24.4495 C   0  0  0  0  0  0  0  0  0  0  0  0
  -25.6238  -24.9412   22.8854 C   0  0  0  0  0  0  0  0  0  0  0  0
  -25.0074  -31.3499   24.2829 C   0  0  0  0  0  0  0  0  0  0  0  0
  -26.1994  -24.9215   21.6070 C   0  0  0  0  0  0  0  0  0  0  0  0
  -25.1527  -19.8021   18.9577 C   0  0  0  0  0  0  0  0  0  0  0  0
  -22.3739   -8.1682   21.6090 C   0  0  0  0  0  0  0  0  0  0  0  0
  -24.6214  -23.1980   20.9366 C   0  0  0  0  0  0  0  0  0  0  0  0
  -20.8952   -7.0511   23.0539 C   0  0  0  0  0  0  0  0  0  0  0  0
  -19.3593   -7.0617   25.3827 C   0  0  0  0  0  0  0  0  0  0  0  0
  -21.1382   -6.1095   24.0539 C   0  0  0  0  0  0  0  0  0  0  0  0
  -24.6021  -11.6513   20.7138 C   0  0  0  0  0  0  0  0  0  0  0  0
  -27.3876  -19.5670   19.0991 C   0  0  0  0  0  0  0  0  0  0  0  0
  -25.6310  -19.4489   17.7152 C   0  0  0  0  0  0  0  0  0  0  0  0
  -25.2477  -13.7296   20.3997 C   0  0  0  0  0  0  0  0  0  0  0  0
  -22.8800  -13.5065   21.1696 C   0  0  0  0  0  0  0  0  0  0  0  0
  -25.9896  -28.0982   22.8287 C   0  0  0  0  0  0  0  0  0  0  0  0
  -29.0914  -27.3377   22.2604 C   0  0  0  0  0  0  0  0  0  0  0  0
  -31.3496  -25.0565   21.1013 C   0  0  0  0  0  0  0  0  0  0  0  0
  -30.7186  -14.8149   20.5925 C   0  0  0  0  0  0  0  0  0  0  0  0
  -26.5996  -33.1336   23.4030 C   0  0  0  0  0  0  0  0  0  0  0  0
  -26.1704  -25.8489   23.9530 C   0  0  0  0  0  0  0  0  0  0  0  0
  -27.3524  -25.8194   21.2425 C   0  0  0  0  0  0  0  0  0  0  0  0
  -27.0958  -32.0792   22.4169 C   0  0  0  0  0  0  0  0  0  0  0  0
  -29.6290  -12.3123   18.3064 C   0  0  0  0  0  0  0  0  0  0  0  0
  -25.9347  -31.2221   21.9229 C   0  0  0  0  0  0  0  0  0  0  0  0
  -28.1905  -12.0231   18.7389 C   0  0  0  0  0  0  0  0  0  0  0  0
  -30.5320  -12.5973   19.5045 C   0  0  0  0  0  0  0  0  0  0  0  0
  -28.6093  -13.3703   20.8385 C   0  0  0  0  0  0  0  0  0  0  0  0
  -25.2735  -30.4675   23.0826 C   0  0  1  0  0  0  0  0  0  0  0  0
  -26.9148  -27.0549   23.3883 C   0  0  1  0  0  0  0  0  0  0  0  0
  -27.6486  -13.1319   19.6610 C   0  0  2  0  0  0  0  0  0  0  0  0
  -24.9095  -19.2329   16.4428 C   0  0  0  0  0  0  0  0  0  0  0  0
  -22.9930  -18.7703   19.7340 C   0  0  0  0  0  0  0  0  0  0  0  0
  -29.3461  -20.8173   20.0959 C   0  0  0  0  0  0  0  0  0  0  0  0
  -33.8103  -24.7345   20.7290 C   0  0  0  0  0  0  0  0  0  0  0  0
  -28.5780  -17.6097   16.9830 C   0  0  0  0  0  0  0  0  0  0  0  0
  -28.8725  -20.0551   16.4004 C   0  0  0  0  0  0  0  0  0  0  0  0
  -30.3354  -17.4721   23.1275 C   0  0  0  0  0  0  0  0  0  0  0  0
  -28.9531  -29.1416   19.8034 C   0  0  0  0  0  0  0  0  0  0  0  0
  -31.0526  -28.0576   18.9756 C   0  0  0  0  0  0  0  0  0  0  0  0
  -31.0710  -29.3323   21.1197 C   0  0  0  0  0  0  0  0  0  0  0  0
  -31.4444  -22.7450   22.9471 C   0  0  0  0  0  0  0  0  0  0  0  0
  -30.5168  -18.0805   20.6552 C   0  0  0  0  0  0  0  0  0  0  0  0
  -23.5751  -21.1219   20.4358 C   0  0  0  0  0  0  0  0  0  1  0  0
  -23.7019  -20.0658   19.3293 C   0  0  1  0  0  0  0  0  0  0  0  0
  -28.8025  -19.4973   19.5183 C   0  0  1  0  0  0  0  0  0  0  0  0
  -29.9206  -27.0829   21.0248 C   0  0  1  0  0  0  0  0  0  0  0  0
  -32.6485  -24.5362   21.6901 C   0  0  2  0  0  0  0  0  0  0  0  0
  -27.8734  -18.9430   16.7251 C   0  0  0  0  0  0  0  0  0  0  0  0
  -30.7502  -17.0201   21.7306 C   0  0  2  0  0  0  0  0  0  0  0  0
  -30.2263  -28.3879   20.2369 C   0  0  0  0  0  0  0  0  0  0  0  0
  -25.8719  -11.5501   20.3121 N   0  0  0  0  0  0  0  0  0  0  0  0
  -26.9907  -19.3084   17.8131 N   0  0  0  0  0  0  0  0  0  0  0  0
  -26.2368  -12.8305   20.1289 N   0  0  0  0  0  0  0  0  0  0  0  0
  -27.8475  -26.6934   22.3188 N   0  0  0  0  0  0  0  0  0  0  0  0
  -29.9622  -13.6591   20.3375 N   0  0  0  0  0  0  0  0  0  0  0  0
  -25.4451  -15.0586   20.2680 N   0  0  0  0  0  0  0  0  0  0  0  0
  -21.8743  -12.6028   21.5385 N   0  0  0  0  0  0  0  0  0  0  0  0
  -26.0738  -29.3232   23.4626 N   0  0  0  0  0  0  0  0  0  0  0  0
  -31.1080  -26.3625   21.4715 N   0  0  0  0  0  0  0  0  0  0  0  0
  -30.1017  -15.7746   21.3857 N   0  0  0  0  0  0  0  0  0  0  0  0
  -32.5334  -23.0819   21.9945 N   0  3  0  0  0  0  0  0  0  0  0  0
  -29.0841  -18.4264   20.5431 N   0  3  0  0  0  0  0  0  0  0  0  0
  -22.6306  -14.7358   21.1686 O   0  0  0  0  0  0  0  0  0  0  0  0
  -25.2548  -27.8134   21.8902 O   0  0  0  0  0  0  0  0  0  0  0  0
  -29.5342  -28.0753   23.1444 O   0  0  0  0  0  0  0  0  0  0  0  0
  -30.6239  -24.3738   20.3817 O   0  0  0  0  0  0  0  0  0  0  0  0
  -31.8571  -14.9818   20.1420 O   0  0  0  0  0  0  0  0  0  0  0  0
  -21.6572   -7.0477   21.8976 O   0  0  0  0  0  0  0  0  0  0  0  0
  -24.1338  -22.3554   19.9857 O   0  0  0  0  0  0  0  0  0  1  0  0
  -18.6228   -7.0679   26.5015 F   0  0  0  0  0  0  0  0  0  0  0  0
  -22.1088   -5.1981   23.9020 F   0  0  0  0  0  0  0  0  0  0  0  0
  1  2  1  0  0  0  0
  1  5  2  0  0  0  0
  2  6  2  0  0  0  0
  3  8  2  0  0  0  0
  3 16  1  0  0  0  0
  4  9  1  0  0  0  0
  4 16  2  0  0  0  0
  5 18  1  0  0  0  0
  6 20  1  0  0  0  0
  7 10  2  0  0  0  0
  7 19  1  0  0  0  0
  8 23  1  0  0  0  0
  9 23  2  0  0  0  0
 10 24  1  0  0  0  0
 11 12  2  0  0  0  0
 11 25  1  0  0  0  0
 12 26  1  0  0  0  0
 13 21  1  0  0  0  0
 13 24  2  0  0  0  0
 14 22  1  0  0  0  0
 14 29  2  0  0  0  0
 15 26  2  0  0  0  0
 15 27  1  0  0  0  0
 16 28  1  0  0  0  0
 17 28  1  0  0  0  0
 17 31  2  0  0  0  0
 17 32  1  0  0  0  0
 18 20  2  0  0  0  0
 18 37  1  0  0  0  0
 19 21  2  0  0  0  0
 19 38  1  0  0  0  0
 20 46  1  0  0  0  0
 21 39  1  0  0  0  0
 22 30  2  0  0  0  0
 22 62  1  0  0  0  0
 23 86  1  0  0  0  0
 24 87  1  0  0  0  0
 25 27  2  0  0  0  0
 25 86  1  0  0  0  0
 26 88  1  0  0  0  0
 27 89  1  0  0  0  0
 28 69  2  0  0  0  0
 29 63  1  0  0  0  0
 29 70  1  0  0  0  0
 30 49  1  0  0  0  0
 30 70  1  0  0  0  0
 31 71  1  0  0  0  0
 31 74  1  0  0  0  0
 32 75  1  0  0  0  0
 32 81  2  0  0  0  0
 33 47  1  0  0  0  0
 33 76  1  0  0  0  0
 33 82  2  0  0  0  0
 34 64  1  0  0  0  0
 34 72  1  0  0  0  0
 34 83  2  0  0  0  0
 35 65  1  0  0  0  0
 35 77  1  0  0  0  0
 35 84  2  0  0  0  0
 36 73  1  0  0  0  0
 36 78  1  0  0  0  0
 36 85  2  0  0  0  0
 37 40  1  0  0  0  0
 38 47  1  0  0  0  0
 39 72  1  0  0  0  0
 40 42  1  0  0  0  0
 41 43  1  0  0  0  0
 41 44  1  0  0  0  0
 42 46  1  0  0  0  0
 43 48  1  0  0  0  0
 44 73  1  0  0  0  0
 45 48  1  0  0  0  0
 45 73  1  0  0  0  0
 46 76  1  0  0  0  0
 47 72  1  0  0  0  0
 48 71  1  0  0  0  0
 50 62  1  0  0  0  0
 51 63  1  0  0  0  0
 52 65  1  0  0  0  0
 53 66  1  0  0  0  0
 54 66  1  0  0  0  0
 55 67  1  0  0  0  0
 56 68  1  0  0  0  0
 57 68  1  0  0  0  0
 58 68  1  0  0  0  0
 59 79  1  0  0  0  0
 60 67  1  0  0  0  0
 60 80  1  0  0  0  0
 61 62  1  0  0  0  0
 61 87  1  0  0  0  0
 63 80  1  0  0  0  0
 64 68  1  0  0  0  0
 64 77  1  0  0  0  0
 65 79  1  0  0  0  0
 66 70  1  0  0  0  0
 67 78  1  0  0  0  0
 69 71  1  0  0  0  0
M  CHG  2  79   1  80   1
M  ISO  4  36 100  61 101  78 100  87 101
M  END
> <Batch ID>
0098

> <Smiles>
CNC(C)C(=O)NC(C(=O)N1Cc2cc([101O:1][101CH2:1]C(C)c3cc(C(C)NCC(C)[100NH:0][100C:0](=O)N4CCCC(n5nc(-c6ccc(Oc7ccc(F)cc7F)cc6)c(C(N)=O)c5N)C4)n(C(C)C)c3C)ccc2CC1C(=O)NC1CCCc2ccccc21)C(C)(C)C

> <Shape>
0.303

> <Color>
0.186

> <Negative vol penalty>
0.000

$$$$

  -OEChem-04052319292D

  0  0  0     0  0  0  0  0  0999 V2000
M  END
$$$$

  -OEChem-04052319292D

  0  0  0     0  0  0  0  0  0999 V2000
M  END
$$$$

  -OEChem-04052319293D

 86 94  0     1  0  0  0  0  0999 V2000
  -28.2600  -35.2811   22.2334 C   0  0  0  0  0  0  0  0  0  0  0  0
  -28.6440  -34.4098   21.2191 C   0  0  0  0  0  0  0  0  0  0  0  0
  -24.4568   -9.2309   21.4963 C   0  0  0  0  0  0  0  0  0  0  0  0
  -24.6032  -10.4128   23.5984 C   0  0  0  0  0  0  0  0  0  0  0  0
  -27.9165  -34.7801   23.4883 C   0  0  0  0  0  0  0  0  0  0  0  0
  -28.6856  -33.0369   21.4595 C   0  0  0  0  0  0  0  0  0  0  0  0
  -27.6585  -26.7588   18.1660 C   0  0  0  0  0  0  0  0  0  0  0  0
  -24.2020   -8.0432   22.1818 C   0  0  0  0  0  0  0  0  0  0  0  0
  -24.3484   -9.2250   24.2839 C   0  0  0  0  0  0  0  0  0  0  0  0
  -28.3010  -25.5417   17.9430 C   0  0  0  0  0  0  0  0  0  0  0  0
  -21.5739   -6.5644   23.7112 C   0  0  0  0  0  0  0  0  0  0  0  0
  -20.5442   -5.7510   23.2383 C   0  0  0  0  0  0  0  0  0  0  0  0
  -27.6097  -24.7836   20.1262 C   0  0  0  0  0  0  0  0  0  0  0  0
  -22.1222   -3.9547   22.8916 C   0  0  0  0  0  0  0  0  0  0  0  0
  -30.7790  -19.0198   22.2949 C   0  0  0  0  0  0  0  0  0  0  0  0
  -28.8359  -19.8921   22.9864 C   0  0  0  0  0  0  0  0  0  0  0  0
  -24.6574  -10.4157   22.2045 C   0  0  0  0  0  0  0  0  0  0  0  0
  -23.9758  -12.5789   21.0368 C   0  0  0  0  0  0  0  0  0  0  0  0
  -27.9446  -33.3996   23.7414 C   0  0  0  0  0  0  0  0  0  0  0  0
  -26.9950  -27.0019   19.3772 C   0  0  0  0  0  0  0  0  0  0  0  0
  -28.3434  -32.5170   22.7194 C   0  0  0  0  0  0  0  0  0  0  0  0
  -26.9574  -26.0036   20.3612 C   0  0  0  0  0  0  0  0  0  0  0  0
  -30.1170  -18.0405   23.0021 C   0  0  0  0  0  0  0  0  0  0  0  0
  -28.8878  -18.5924   23.4397 C   0  0  0  0  0  0  0  0  0  0  0  0
  -24.1478   -8.0402   23.5756 C   0  0  0  0  0  0  0  0  0  0  0  0
  -28.2791  -24.5550   18.9243 C   0  0  0  0  0  0  0  0  0  0  0  0
  -22.8778   -6.0730   23.7743 C   0  0  0  0  0  0  0  0  0  0  0  0
  -20.8183   -4.4462   22.8285 C   0  0  0  0  0  0  0  0  0  0  0  0
  -23.1520   -4.7681   23.3645 C   0  0  0  0  0  0  0  0  0  0  0  0
  -24.9212  -11.6429   21.4970 C   0  0  0  0  0  0  0  0  0  0  0  0
  -24.7273  -13.5583   20.4347 C   0  0  0  0  0  0  0  0  0  0  0  0
  -22.5461  -12.5644   21.1440 C   0  0  0  0  0  0  0  0  0  0  0  0
  -27.3386  -29.0983   21.7417 C   0  0  0  0  0  0  0  0  0  0  0  0
  -24.6005  -27.7372   22.8245 C   0  0  0  0  0  0  0  0  0  0  0  0
  -22.5334  -25.0220   22.8636 C   0  0  0  0  0  0  0  0  0  0  0  0
  -30.3894  -15.3703   21.1480 C   0  0  0  0  0  0  0  0  0  0  0  0
  -27.6102  -32.9087   25.1277 C   0  0  0  0  0  0  0  0  0  0  0  0
  -26.2841  -28.3100   19.5917 C   0  0  0  0  0  0  0  0  0  0  0  0
  -26.2416  -26.2073   21.6706 C   0  0  0  0  0  0  0  0  0  0  0  0
  -27.3196  -31.4114   25.1901 C   0  0  0  0  0  0  0  0  0  0  0  0
  -28.8734  -14.2174   18.1398 C   0  0  0  0  0  0  0  0  0  0  0  0
  -28.3772  -30.6297   24.4172 C   0  0  0  0  0  0  0  0  0  0  0  0
  -27.6033  -13.5113   18.6176 C   0  0  0  0  0  0  0  0  0  0  0  0
  -30.0342  -14.0081   19.1096 C   0  0  0  0  0  0  0  0  0  0  0  0
  -28.4750  -13.6657   20.9872 C   0  0  0  0  0  0  0  0  0  0  0  0
  -28.3771  -31.0194   22.9341 C   0  0  1  0  0  0  0  0  0  0  0  0
  -26.0763  -28.6424   21.0661 C   0  0  1  0  0  0  0  0  0  0  0  0
  -27.2614  -13.8943   20.0700 C   0  0  2  0  0  0  0  0  0  0  0  0
  -27.6557  -18.5705   25.6245 C   0  0  0  0  0  0  0  0  0  0  0  0
  -20.3894  -24.1927   23.8701 C   0  0  0  0  0  0  0  0  0  0  0  0
  -31.2530  -22.8816   18.8369 C   0  0  0  0  0  0  0  0  0  0  0  0
  -26.0308  -27.2682   25.4785 C   0  0  0  0  0  0  0  0  0  0  0  0
  -24.2282  -25.6390   26.0823 C   0  0  0  0  0  0  0  0  0  0  0  0
  -23.6605  -28.0366   25.6924 C   0  0  0  0  0  0  0  0  0  0  0  0
  -21.2695  -24.7130   20.2053 C   0  0  0  0  0  0  0  0  0  0  0  0
  -30.6078  -16.6704   23.2506 C   0  0  0  0  0  0  0  0  0  0  0  0
  -29.5881  -21.6892   20.3068 C   0  0  0  0  0  0  0  0  0  0  0  0
  -26.4529  -17.8177   23.5359 C   0  0  0  0  0  0  0  0  0  0  0  0
  -30.3395  -21.4470   21.6239 C   0  0  0  0  0  0  0  0  0  0  0  0
  -26.4659  -17.1183   22.1782 C   0  0  0  0  0  0  0  0  0  0  0  0
  -27.8472  -17.9112   24.2349 C   0  0  1  0  0  0  0  0  0  0  0  0
  -24.2694  -26.5711   23.7243 C   0  0  1  0  0  0  0  0  0  0  0  0
  -21.0311  -24.8971   22.6848 C   0  0  2  0  0  0  0  0  0  0  0  0
  -29.9495  -23.0094   19.6150 C   0  0  2  0  0  0  0  0  0  1  0  0
  -24.5625  -26.8753   25.2206 C   0  0  0  0  0  0  0  0  0  0  0  0
  -26.1774  -11.9958   21.2116 N   0  0  0  0  0  0  0  0  0  0  0  0
  -29.9907  -20.1408   22.2916 N   0  0  0  0  0  0  0  0  0  0  0  0
  -26.0266  -13.1645   20.5655 N   0  0  0  0  0  0  0  0  0  0  0  0
  -25.5669  -27.5054   21.8355 N   0  0  0  0  0  0  0  0  0  0  0  0
  -29.6451  -14.3916   20.4688 N   0  0  0  0  0  0  0  0  0  0  0  0
  -24.3969  -14.7093   19.8115 N   0  0  0  0  0  0  0  0  0  0  0  0
  -21.9358  -11.4829   21.7938 N   0  0  0  0  0  0  0  0  0  0  0  0
  -27.2748  -30.3838   22.2446 N   0  0  0  0  0  0  0  0  0  0  0  0
  -22.8803  -26.2225   23.4463 N   0  0  0  0  0  0  0  0  0  0  0  0
  -29.9492  -15.6793   22.4292 N   0  0  0  0  0  0  0  0  0  0  0  0
  -25.1054  -17.0809   21.5931 N   0  3  0  0  0  0  0  0  0  0  0  0
  -20.7189  -24.1208   21.4516 N   0  3  0  0  0  0  0  0  0  0  0  0
  -21.8301  -13.4752   20.6631 O   0  0  0  0  0  0  0  0  0  0  0  0
  -28.2988  -28.3394   21.8036 O   0  0  0  0  0  0  0  0  0  0  0  0
  -24.0177  -28.8120   22.9884 O   0  0  0  0  0  0  0  0  0  0  0  0
  -23.3201  -24.1410   22.5239 O   0  0  0  0  0  0  0  0  0  0  0  0
  -31.3702  -15.9311   20.6475 O   0  0  0  0  0  0  0  0  0  0  0  0
  -23.8989   -6.8814   24.2448 O   0  0  0  0  0  0  0  0  0  0  0  0
  -28.9060  -23.3664   18.7094 O   0  0  0  0  0  0  0  0  0  1  0  0
  -19.8291   -3.6648   22.3758 F   0  0  0  0  0  0  0  0  0  0  0  0
  -24.4025   -4.2901   23.4239 F   0  0  0  0  0  0  0  0  0  0  0  0
  1  2  1  0  0  0  0
  1  5  2  0  0  0  0
  2  6  2  0  0  0  0
  3  8  2  0  0  0  0
  3 17  1  0  0  0  0
  4  9  1  0  0  0  0
  4 17  2  0  0  0  0
  5 19  1  0  0  0  0
  6 21  1  0  0  0  0
  7 10  2  0  0  0  0
  7 20  1  0  0  0  0
  8 25  1  0  0  0  0
  9 25  2  0  0  0  0
 10 26  1  0  0  0  0
 11 12  2  0  0  0  0
 11 27  1  0  0  0  0
 12 28  1  0  0  0  0
 13 22  1  0  0  0  0
 13 26  2  0  0  0  0
 14 28  2  0  0  0  0
 14 29  1  0  0  0  0
 15 23  2  0  0  0  0
 15 67  1  0  0  0  0
 16 24  2  0  0  0  0
 16 67  1  0  0  0  0
 17 30  1  0  0  0  0
 18 30  1  0  0  0  0
 18 31  2  0  0  0  0
 18 32  1  0  0  0  0
 19 21  2  0  0  0  0
 19 37  1  0  0  0  0
 20 22  2  0  0  0  0
 20 38  1  0  0  0  0
 21 46  1  0  0  0  0
 22 39  1  0  0  0  0
 23 24  1  0  0  0  0
 23 56  1  0  0  0  0
 24 61  1  0  0  0  0
 25 83  1  0  0  0  0
 26 84  1  0  0  0  0
 27 29  2  0  0  0  0
 27 83  1  0  0  0  0
 28 85  1  0  0  0  0
 29 86  1  0  0  0  0
 30 66  2  0  0  0  0
 31 68  1  0  0  0  0
 31 71  1  0  0  0  0
 32 72  1  0  0  0  0
 32 78  2  0  0  0  0
 33 47  1  0  0  0  0
 33 73  1  0  0  0  0
 33 79  2  0  0  0  0
 34 62  1  0  0  0  0
 34 69  1  0  0  0  0
 34 80  2  0  0  0  0
 35 63  1  0  0  0  0
 35 74  1  0  0  0  0
 35 81  2  0  0  0  0
 36 70  1  0  0  0  0
 36 75  1  0  0  0  0
 36 82  2  0  0  0  0
 37 40  1  0  0  0  0
 38 47  1  0  0  0  0
 39 69  1  0  0  0  0
 40 42  1  0  0  0  0
 41 43  1  0  0  0  0
 41 44  1  0  0  0  0
 42 46  1  0  0  0  0
 43 48  1  0  0  0  0
 44 70  1  0  0  0  0
 45 48  1  0  0  0  0
 45 70  1  0  0  0  0
 46 73  1  0  0  0  0
 47 69  1  0  0  0  0
 48 68  1  0  0  0  0
 49 61  1  0  0  0  0
 50 63  1  0  0  0  0
 51 64  1  0  0  0  0
 52 65  1  0  0  0  0
 53 65  1  0  0  0  0
 54 65  1  0  0  0  0
 55 77  1  0  0  0  0
 56 75  1  0  0  0  0
 57 59  1  0  0  0  0
 57 64  1  0  0  0  0
 58 60  1  0  0  0  0
 58 61  1  0  0  0  0
 59 67  1  0  0  0  0
 60 76  1  0  0  0  0
 62 65  1  0  0  0  0
 62 74  1  0  0  0  0
 63 77  1  0  0  0  0
 64 84  1  0  0  0  0
 66 68  1  0  0  0  0
M  CHG  2  76   1  77   1
M  ISO  4  36 100  64 101  75 100  84 101
M  END
> <Batch ID>
0098

> <Smiles>
CNC(C)C(=O)NC(C(=O)N1Cc2cc([101O:1][101CH:1](C)CCn3cc(C[100NH:0][100C:0](=O)N4CCCC(n5nc(-c6ccc(Oc7ccc(F)cc7F)cc6)c(C(N)=O)c5N)C4)c(C(C)CCN)c3)ccc2CC1C(=O)NC1CCCc2ccccc21)C(C)(C)C

> <Shape>
0.257

> <Color>
0.102

> <Negative vol penalty>
0.000

$$$$

  -OEChem-04052319293D

 89 97  0     1  0  0  0  0  0999 V2000
  -32.5130  -17.3839   22.2164 C   0  0  0  0  0  0  0  0  0  0  0  0
  -31.2250  -17.8027   22.5303 C   0  0  0  0  0  0  0  0  0  0  0  0
  -28.5532  -25.1071   19.9846 C   0  0  0  0  0  0  0  0  0  0  0  0
  -26.5169  -23.8916   20.4460 C   0  0  0  0  0  0  0  0  0  0  0  0
  -32.7002  -16.2707   21.3996 C   0  0  0  0  0  0  0  0  0  0  0  0
  -30.1240  -17.1015   22.0374 C   0  0  0  0  0  0  0  0  0  0  0  0
  -25.6926  -18.4442   23.6998 C   0  0  0  0  0  0  0  0  0  0  0  0
  -20.5325  -26.2037   23.0388 C   0  0  0  0  0  0  0  0  0  0  0  0
  -21.1879  -24.9994   22.7827 C   0  0  0  0  0  0  0  0  0  0  0  0
  -29.3024  -24.0418   20.4839 C   0  0  0  0  0  0  0  0  0  0  0  0
  -27.2661  -22.8261   20.9453 C   0  0  0  0  0  0  0  0  0  0  0  0
  -25.0759  -19.6366   23.3235 C   0  0  0  0  0  0  0  0  0  0  0  0
  -30.3394  -21.0073   19.4118 C   0  0  0  0  0  0  0  0  0  0  0  0
  -31.4523  -20.5971   18.6777 C   0  0  0  0  0  0  0  0  0  0  0  0
  -23.6283  -18.4107   21.8333 C   0  0  0  0  0  0  0  0  0  0  0  0
  -20.1005  -26.4709   20.6768 C   0  0  0  0  0  0  0  0  0  0  0  0
  -32.8775  -21.0827   20.5672 C   0  0  0  0  0  0  0  0  0  0  0  0
  -27.1605  -25.0321   19.9657 C   0  0  0  0  0  0  0  0  0  0  0  0
  -25.9675  -26.3286   18.1209 C   0  0  0  0  0  0  0  0  0  0  0  0
  -31.6003  -15.5636   20.8867 C   0  0  0  0  0  0  0  0  0  0  0  0
  -25.2883  -17.2252   23.1366 C   0  0  0  0  0  0  0  0  0  0  0  0
  -30.2924  -15.9614   21.2310 C   0  0  0  0  0  0  0  0  0  0  0  0
  -24.2397  -17.2039   22.2061 C   0  0  0  0  0  0  0  0  0  0  0  0
  -19.9887  -26.9395   21.9858 C   0  0  0  0  0  0  0  0  0  0  0  0
  -21.2996  -24.5308   21.4737 C   0  0  0  0  0  0  0  0  0  0  0  0
  -20.7559  -25.2665   20.4207 C   0  0  0  0  0  0  0  0  0  0  0  0
  -28.6588  -22.9012   20.9642 C   0  0  0  0  0  0  0  0  0  0  0  0
  -24.0456  -19.6204   22.3880 C   0  0  0  0  0  0  0  0  0  0  0  0
  -30.4955  -21.4552   20.7235 C   0  0  0  0  0  0  0  0  0  0  0  0
  -32.7213  -20.6348   19.2554 C   0  0  0  0  0  0  0  0  0  0  0  0
  -31.7646  -21.4929   21.3012 C   0  0  0  0  0  0  0  0  0  0  0  0
  -26.3861  -26.1325   19.4506 C   0  0  0  0  0  0  0  0  0  0  0  0
  -25.2681  -27.5103   18.1518 C   0  0  0  0  0  0  0  0  0  0  0  0
  -26.1909  -25.5153   16.9614 C   0  0  0  0  0  0  0  0  0  0  0  0
  -26.6984  -14.9974   21.3612 C   0  0  0  0  0  0  0  0  0  0  0  0
  -23.9069  -13.4125   21.8280 C   0  0  0  0  0  0  0  0  0  0  0  0
  -20.5735  -13.5648   22.5435 C   0  0  0  0  0  0  0  0  0  0  0  0
  -22.3334  -30.3989   22.4985 C   0  0  0  0  0  0  0  0  0  0  0  0
  -31.8605  -14.3613   20.0138 C   0  0  0  0  0  0  0  0  0  0  0  0
  -25.9456  -15.9446   23.5730 C   0  0  0  0  0  0  0  0  0  0  0  0
  -23.7547  -15.9193   21.5870 C   0  0  0  0  0  0  0  0  0  0  0  0
  -30.6466  -13.9549   19.1845 C   0  0  0  0  0  0  0  0  0  0  0  0
  -25.0215  -31.6544   20.5301 C   0  0  0  0  0  0  0  0  0  0  0  0
  -29.4159  -13.8647   20.0742 C   0  0  0  0  0  0  0  0  0  0  0  0
  -25.6383  -30.3993   19.9102 C   0  0  0  0  0  0  0  0  0  0  0  0
  -24.5335  -31.3990   21.9544 C   0  0  0  0  0  0  0  0  0  0  0  0
  -24.2304  -29.0000   21.4782 C   0  0  0  0  0  0  0  0  0  0  0  0
  -29.0795  -15.2326   20.6814 C   0  0  1  0  0  0  0  0  0  0  0  0
  -25.7998  -14.8202   22.5524 C   0  0  1  0  0  0  0  0  0  0  0  0
  -24.6865  -29.1930   20.0219 C   0  0  2  0  0  0  0  0  0  0  0  0
  -18.5490  -12.1075   22.8179 C   0  0  0  0  0  0  0  0  0  0  0  0
  -20.1809  -25.7786   18.0222 C   0  0  0  0  0  0  0  0  0  0  0  0
  -20.1752  -23.3965   18.8356 C   0  0  0  0  0  0  0  0  0  0  0  0
  -22.3217  -24.5987   18.4769 C   0  0  0  0  0  0  0  0  0  0  0  0
  -23.7165  -13.1107   18.7977 C   0  0  0  0  0  0  0  0  0  0  0  0
  -21.2979  -12.5271   19.0777 C   0  0  0  0  0  0  0  0  0  0  0  0
  -23.0549  -11.0758   20.0924 C   0  0  0  0  0  0  0  0  0  0  0  0
  -20.2119  -14.3984   25.3601 C   0  0  0  0  0  0  0  0  0  0  0  0
  -17.3979  -29.3704   23.4090 C   0  0  0  0  0  0  0  0  0  0  0  0
  -17.0738  -27.1024   22.4334 C   0  0  0  0  0  0  0  0  0  0  0  0
  -22.0136  -23.2268   21.2216 C   0  0  0  0  0  0  0  0  0  0  0  0
  -21.3966  -22.0347   21.9563 C   0  0  0  0  0  0  0  0  0  0  0  0
  -20.1816  -29.2581   22.9754 C   0  0  0  0  0  0  0  0  0  0  0  0
  -22.0718  -20.7081   21.6284 C   0  0  0  0  0  0  0  0  0  1  0  0
  -19.2885  -28.2273   22.2598 C   0  0  2  0  0  0  0  0  0  0  0  0
  -22.5830  -13.3435   21.1057 C   0  0  1  0  0  0  0  0  0  0  0  0
  -19.7164  -12.7818   23.5217 C   0  0  2  0  0  0  0  0  0  0  0  0
  -20.8636  -24.7847   19.0110 C   0  0  0  0  0  0  0  0  0  0  0  0
  -22.6733  -12.5389   19.7784 C   0  0  0  0  0  0  0  0  0  0  0  0
  -25.9861  -27.1113   20.2667 N   0  0  0  0  0  0  0  0  0  0  0  0
  -25.3089  -27.9338   19.4476 N   0  0  0  0  0  0  0  0  0  0  0  0
  -24.4334  -14.6944   22.0414 N   0  0  0  0  0  0  0  0  0  0  0  0
  -23.6339  -30.2435   21.9909 N   0  0  0  0  0  0  0  0  0  0  0  0
  -24.6283  -28.2180   17.1966 N   0  0  0  0  0  0  0  0  0  0  0  0
  -26.9301  -24.3334   17.1067 N   0  0  0  0  0  0  0  0  0  0  0  0
  -28.0423  -15.0656   21.6755 N   0  0  0  0  0  0  0  0  0  0  0  0
  -21.6223  -12.8086   22.0646 N   0  0  0  0  0  0  0  0  0  0  0  0
  -21.5441  -29.2554   22.4912 N   0  0  0  0  0  0  0  0  0  0  0  0
  -19.1720  -13.6869   24.5731 N   0  3  0  0  0  0  0  0  0  0  0  0
  -18.0378  -28.0535   23.0802 N   0  3  0  0  0  0  0  0  0  0  0  0
  -25.7620  -25.8356   15.8270 O   0  0  0  0  0  0  0  0  0  0  0  0
  -26.2089  -15.0655   20.2399 O   0  0  0  0  0  0  0  0  0  0  0  0
  -24.4503  -12.3680   22.1957 O   0  0  0  0  0  0  0  0  0  0  0  0
  -20.3341  -14.7295   22.2323 O   0  0  0  0  0  0  0  0  0  0  0  0
  -21.9056  -31.4782   22.9216 O   0  0  0  0  0  0  0  0  0  0  0  0
  -29.3896  -21.8613   21.4513 O   0  0  0  0  0  0  0  0  0  0  0  0
  -23.4424  -20.7829   22.0184 O   0  0  0  0  0  0  0  0  0  1  0  0
  -33.7897  -20.2394   18.5509 F   0  0  0  0  0  0  0  0  0  0  0  0
  -31.9207  -21.9211   22.5614 F   0  0  0  0  0  0  0  0  0  0  0  0
  1  2  1  0  0  0  0
  1  5  2  0  0  0  0
  2  6  2  0  0  0  0
  3 10  2  0  0  0  0
  3 18  1  0  0  0  0
  4 11  1  0  0  0  0
  4 18  2  0  0  0  0
  5 20  1  0  0  0  0
  6 22  1  0  0  0  0
  7 12  2  0  0  0  0
  7 21  1  0  0  0  0
  8  9  2  0  0  0  0
  8 24  1  0  0  0  0
  9 25  1  0  0  0  0
 10 27  1  0  0  0  0
 11 27  2  0  0  0  0
 12 28  1  0  0  0  0
 13 14  2  0  0  0  0
 13 29  1  0  0  0  0
 14 30  1  0  0  0  0
 15 23  1  0  0  0  0
 15 28  2  0  0  0  0
 16 24  2  0  0  0  0
 16 26  1  0  0  0  0
 17 30  2  0  0  0  0
 17 31  1  0  0  0  0
 18 32  1  0  0  0  0
 19 32  1  0  0  0  0
 19 33  2  0  0  0  0
 19 34  1  0  0  0  0
 20 22  2  0  0  0  0
 20 39  1  0  0  0  0
 21 23  2  0  0  0  0
 21 40  1  0  0  0  0
 22 48  1  0  0  0  0
 23 41  1  0  0  0  0
 24 65  1  0  0  0  0
 25 26  2  0  0  0  0
 25 61  1  0  0  0  0
 26 68  1  0  0  0  0
 27 86  1  0  0  0  0
 28 87  1  0  0  0  0
 29 31  2  0  0  0  0
 29 86  1  0  0  0  0
 30 88  1  0  0  0  0
 31 89  1  0  0  0  0
 32 70  2  0  0  0  0
 33 71  1  0  0  0  0
 33 74  1  0  0  0  0
 34 75  1  0  0  0  0
 34 81  2  0  0  0  0
 35 49  1  0  0  0  0
 35 76  1  0  0  0  0
 35 82  2  0  0  0  0
 36 66  1  0  0  0  0
 36 72  1  0  0  0  0
 36 83  2  0  0  0  0
 37 67  1  0  0  0  0
 37 77  1  0  0  0  0
 37 84  2  0  0  0  0
 38 73  1  0  0  0  0
 38 78  1  0  0  0  0
 38 85  2  0  0  0  0
 39 42  1  0  0  0  0
 40 49  1  0  0  0  0
 41 72  1  0  0  0  0
 42 44  1  0  0  0  0
 43 45  1  0  0  0  0
 43 46  1  0  0  0  0
 44 48  1  0  0  0  0
 45 50  1  0  0  0  0
 46 73  1  0  0  0  0
 47 50  1  0  0  0  0
 47 73  1  0  0  0  0
 48 76  1  0  0  0  0
 49 72  1  0  0  0  0
 50 71  1  0  0  0  0
 51 67  1  0  0  0  0
 52 68  1  0  0  0  0
 53 68  1  0  0  0  0
 54 68  1  0  0  0  0
 55 69  1  0  0  0  0
 56 69  1  0  0  0  0
 57 69  1  0  0  0  0
 58 79  1  0  0  0  0
 59 80  1  0  0  0  0
 60 80  1  0  0  0  0
 61 62  1  0  0  0  0
 62 64  1  0  0  0  0
 63 65  1  0  0  0  0
 63 78  1  0  0  0  0
 64 87  1  0  0  0  0
 65 80  1  0  0  0  0
 66 69  1  0  0  0  0
 66 77  1  0  0  0  0
 67 79  1  0  0  0  0
 70 71  1  0  0  0  0
M  CHG  2  79   1  80   1
M  ISO  4  38 100  64 101  78 100  87 101
M  END
> <Batch ID>
0098

> <Smiles>
CNC(C)C(=O)NC(C(=O)N1Cc2cc([101O:1][101CH2:1]CCc3ccc(C(C[100NH:0][100C:0](=O)N4CCCC(n5nc(-c6ccc(Oc7ccc(F)cc7F)cc6)c(C(N)=O)c5N)C4)N(C)C)cc3C(C)(C)C)ccc2CC1C(=O)NC1CCCc2ccccc21)C(C)(C)C

> <Shape>
0.234

> <Color>
0.062

> <Negative vol penalty>
0.000

$$$$

  -OEChem-04052319293D

 77 84  0     1  0  0  0  0  0999 V2000
  -27.6855  -36.1071   22.0423 C   0  0  0  0  0  0  0  0  0  0  0  0
  -28.0557  -34.7743   21.8932 C   0  0  0  0  0  0  0  0  0  0  0  0
  -26.1310  -15.2653   21.5631 C   0  0  0  0  0  0  0  0  0  0  0  0
  -27.0217  -15.1234   19.3218 C   0  0  0  0  0  0  0  0  0  0  0  0
  -26.5546  -36.4360   22.7883 C   0  0  0  0  0  0  0  0  0  0  0  0
  -27.2956  -33.7697   22.4911 C   0  0  0  0  0  0  0  0  0  0  0  0
  -26.4480  -29.8636   19.3816 C   0  0  0  0  0  0  0  0  0  0  0  0
  -25.9235  -13.8860   21.5680 C   0  0  0  0  0  0  0  0  0  0  0  0
  -26.8142  -13.7441   19.3267 C   0  0  0  0  0  0  0  0  0  0  0  0
  -27.4909  -28.9564   19.2000 C   0  0  0  0  0  0  0  0  0  0  0  0
  -23.6612  -11.7035   20.3258 C   0  0  0  0  0  0  0  0  0  0  0  0
  -22.4408  -11.2342   20.8115 C   0  0  0  0  0  0  0  0  0  0  0  0
  -26.4490  -27.4530   20.7726 C   0  0  0  0  0  0  0  0  0  0  0  0
  -23.6024   -9.9819   22.5201 C   0  0  0  0  0  0  0  0  0  0  0  0
  -26.6801  -15.8841   20.4400 C   0  0  0  0  0  0  0  0  0  0  0  0
  -28.0500  -17.9966   20.8497 C   0  0  0  0  0  0  0  0  0  0  0  0
  -25.7748  -35.4343   23.3877 C   0  0  0  0  0  0  0  0  0  0  0  0
  -25.4015  -29.5766   20.2699 C   0  0  0  0  0  0  0  0  0  0  0  0
  -26.1539  -34.0857   23.2471 C   0  0  0  0  0  0  0  0  0  0  0  0
  -25.3926  -28.3571   20.9618 C   0  0  0  0  0  0  0  0  0  0  0  0
  -26.2651  -13.1254   20.4498 C   0  0  0  0  0  0  0  0  0  0  0  0
  -27.4930  -27.7522   19.8977 C   0  0  0  0  0  0  0  0  0  0  0  0
  -24.8523  -11.3120   20.9372 C   0  0  0  0  0  0  0  0  0  0  0  0
  -22.4114  -10.3734   21.9086 C   0  0  0  0  0  0  0  0  0  0  0  0
  -24.8228  -10.4512   22.0344 C   0  0  0  0  0  0  0  0  0  0  0  0
  -26.8941  -17.3089   20.4341 C   0  0  0  0  0  0  0  0  0  0  0  0
  -27.7526  -19.3221   20.6467 C   0  0  0  0  0  0  0  0  0  0  0  0
  -29.2825  -17.4832   21.3724 C   0  0  0  0  0  0  0  0  0  0  0  0
  -24.2868  -30.9129   22.9298 C   0  0  0  0  0  0  0  0  0  0  0  0
  -21.9574  -28.6778   22.6126 C   0  0  0  0  0  0  0  0  0  0  0  0
  -20.9953  -25.6541   21.3562 C   0  0  0  0  0  0  0  0  0  0  0  0
  -25.6301  -23.4055   17.4898 C   0  0  0  0  0  0  0  0  0  0  0  0
  -24.5877  -35.8416   24.2241 C   0  0  0  0  0  0  0  0  0  0  0  0
  -24.2701  -30.5540   20.4344 C   0  0  0  0  0  0  0  0  0  0  0  0
  -24.2821  -27.9924   21.9117 C   0  0  0  0  0  0  0  0  0  0  0  0
  -23.6237  -34.6938   24.5131 C   0  0  0  0  0  0  0  0  0  0  0  0
  -23.3633  -21.5792   19.5398 C   0  0  0  0  0  0  0  0  0  0  0  0
  -24.3899  -33.4528   24.9598 C   0  0  0  0  0  0  0  0  0  0  0  0
  -24.1729  -20.3597   19.9840 C   0  0  0  0  0  0  0  0  0  0  0  0
  -23.6959  -21.9857   18.1059 C   0  0  0  0  0  0  0  0  0  0  0  0
  -25.9401  -20.9830   18.2849 C   0  0  0  0  0  0  0  0  0  0  0  0
  -25.3409  -32.9660   23.8598 C   0  0  1  0  0  0  0  0  0  0  0  0
  -23.5196  -30.3830   21.7515 C   0  0  1  0  0  0  0  0  0  0  0  0
  -25.6800  -20.5694   19.7435 C   0  0  2  0  0  0  0  0  0  0  0  0
  -19.0444  -24.0768   21.2954 C   0  0  0  0  0  0  0  0  0  0  0  0
  -30.0916  -24.0402   16.7489 C   0  0  0  0  0  0  0  0  0  0  0  0
  -22.5676  -27.8165   25.4754 C   0  0  0  0  0  0  0  0  0  0  0  0
  -21.3092  -25.6979   25.0322 C   0  0  0  0  0  0  0  0  0  0  0  0
  -20.1337  -27.8945   24.9058 C   0  0  0  0  0  0  0  0  0  0  0  0
  -20.7912  -25.8364   18.4093 C   0  0  0  0  0  0  0  0  0  0  0  0
  -27.6657  -24.7065   16.9217 C   0  0  0  0  0  0  0  0  0  0  0  0
  -28.2004  -25.4816   19.8845 C   0  0  0  0  0  0  0  0  0  1  0  0
  -21.7679  -27.2567   23.0852 C   0  0  1  0  0  0  0  0  0  0  0  0
  -19.7513  -25.2284   20.5974 C   0  0  2  0  0  0  0  0  0  0  0  0
  -29.0713  -24.8965   17.5151 C   0  0  1  0  0  0  0  0  0  0  0  0
  -29.1410  -24.6224   19.0381 C   0  0  1  0  0  0  0  0  0  0  0  0
  -21.4667  -27.1738   24.6083 C   0  0  0  0  0  0  0  0  0  0  0  0
  -25.9339  -18.1297   20.0001 N   0  0  0  0  0  0  0  0  0  0  0  0
  -26.4859  -19.3468   20.1419 N   0  0  0  0  0  0  0  0  0  0  0  0
  -23.2017  -28.9837   22.0434 N   0  0  0  0  0  0  0  0  0  0  0  0
  -25.1402  -22.1703   17.9451 N   0  0  0  0  0  0  0  0  0  0  0  0
  -28.4537  -20.4572   20.8527 N   0  0  0  0  0  0  0  0  0  0  0  0
  -29.4209  -16.0959   21.5161 N   0  0  0  0  0  0  0  0  0  0  0  0
  -24.6069  -32.2539   22.8357 N   0  0  0  0  0  0  0  0  0  0  0  0
  -20.7293  -26.6799   22.2384 N   0  0  0  0  0  0  0  0  0  0  0  0
  -27.0115  -23.4980   17.3715 N   0  0  0  0  0  0  0  0  0  0  0  0
  -20.1097  -24.7930   19.2180 N   0  3  0  0  0  0  0  0  0  0  0  0
  -30.2266  -18.2334   21.7178 O   0  0  0  0  0  0  0  0  0  0  0  0
  -24.5663  -30.1613   23.8564 O   0  0  0  0  0  0  0  0  0  0  0  0
  -21.0329  -29.4849   22.7371 O   0  0  0  0  0  0  0  0  0  0  0  0
  -22.0923  -25.1268   21.1862 O   0  0  0  0  0  0  0  0  0  0  0  0
  -24.8916  -24.3571   17.2145 O   0  0  0  0  0  0  0  0  0  0  0  0
  -30.4676  -24.8799   19.5089 O   0  0  0  0  0  0  0  0  0  0  0  0
  -26.0630  -11.7794   20.4543 O   0  0  0  0  0  0  0  0  0  0  0  0
  -28.5101  -26.8652   19.7228 O   0  0  0  0  0  0  0  0  0  1  0  0
  -21.2392   -9.9240   22.3759 F   0  0  0  0  0  0  0  0  0  0  0  0
  -25.9637  -10.0724   22.6266 F   0  0  0  0  0  0  0  0  0  0  0  0
  1  2  1  0  0  0  0
  1  5  2  0  0  0  0
  2  6  2  0  0  0  0
  3  8  2  0  0  0  0
  3 15  1  0  0  0  0
  4  9  1  0  0  0  0
  4 15  2  0  0  0  0
  5 17  1  0  0  0  0
  6 19  1  0  0  0  0
  7 10  2  0  0  0  0
  7 18  1  0  0  0  0
  8 21  1  0  0  0  0
  9 21  2  0  0  0  0
 10 22  1  0  0  0  0
 11 12  2  0  0  0  0
 11 23  1  0  0  0  0
 12 24  1  0  0  0  0
 13 20  1  0  0  0  0
 13 22  2  0  0  0  0
 14 24  2  0  0  0  0
 14 25  1  0  0  0  0
 15 26  1  0  0  0  0
 16 26  1  0  0  0  0
 16 27  2  0  0  0  0
 16 28  1  0  0  0  0
 17 19  2  0  0  0  0
 17 33  1  0  0  0  0
 18 20  2  0  0  0  0
 18 34  1  0  0  0  0
 19 42  1  0  0  0  0
 20 35  1  0  0  0  0
 21 74  1  0  0  0  0
 22 75  1  0  0  0  0
 23 25  2  0  0  0  0
 23 74  1  0  0  0  0
 24 76  1  0  0  0  0
 25 77  1  0  0  0  0
 26 58  2  0  0  0  0
 27 59  1  0  0  0  0
 27 62  1  0  0  0  0
 28 63  1  0  0  0  0
 28 68  2  0  0  0  0
 29 43  1  0  0  0  0
 29 64  1  0  0  0  0
 29 69  2  0  0  0  0
 30 53  1  0  0  0  0
 30 60  1  0  0  0  0
 30 70  2  0  0  0  0
 31 54  1  0  0  0  0
 31 65  1  0  0  0  0
 31 71  2  0  0  0  0
 32 61  1  0  0  0  0
 32 66  1  0  0  0  0
 32 72  2  0  0  0  0
 33 36  1  0  0  0  0
 34 43  1  0  0  0  0
 35 60  1  0  0  0  0
 36 38  1  0  0  0  0
 37 39  1  0  0  0  0
 37 40  1  0  0  0  0
 38 42  1  0  0  0  0
 39 44  1  0  0  0  0
 40 61  1  0  0  0  0
 41 44  1  0  0  0  0
 41 61  1  0  0  0  0
 42 64  1  0  0  0  0
 43 60  1  0  0  0  0
 44 59  1  0  0  0  0
 45 54  1  0  0  0  0
 46 55  1  0  0  0  0
 47 57  1  0  0  0  0
 48 57  1  0  0  0  0
 49 57  1  0  0  0  0
 50 67  1  0  0  0  0
 51 55  1  0  0  0  0
 51 66  1  0  0  0  0
 52 56  1  0  0  0  0
 52 75  1  0  0  0  0
 53 57  1  0  0  0  0
 53 65  1  0  0  0  0
 54 67  1  0  0  0  0
 55 56  1  0  0  0  0
 56 73  1  0  0  0  0
 58 59  1  0  0  0  0
M  CHG  1  67   1
M  ISO  4  32 100  52 101  66 100  75 101
M  END
> <Batch ID>
0098

> <Smiles>
CNC(C)C(=O)NC(C(=O)N1Cc2cc([101O:1][101CH2:1]C(O)C(C)C[100NH:0][100C:0](=O)N3CCCC(n4nc(-c5ccc(Oc6ccc(F)cc6F)cc5)c(C(N)=O)c4N)C3)ccc2CC1C(=O)NC1CCCc2ccccc21)C(C)(C)C

> <Shape>
0.277

> <Color>
0.079

> <Negative vol penalty>
0.000

$$$$

  -OEChem-04052319293D

 83 91  0     1  0  0  0  0  0999 V2000
  -22.5070  -29.4859   22.5080 C   0  0  0  0  0  0  0  0  0  0  0  0
  -22.9480  -28.2831   23.0504 C   0  0  0  0  0  0  0  0  0  0  0  0
  -30.6353  -26.4889   17.2093 C   0  0  0  0  0  0  0  0  0  0  0  0
  -28.4074  -17.6740   19.1883 C   0  0  0  0  0  0  0  0  0  0  0  0
  -28.6274  -18.1359   21.5496 C   0  0  0  0  0  0  0  0  0  0  0  0
  -21.1636  -29.6462   22.1709 C   0  0  0  0  0  0  0  0  0  0  0  0
  -22.0457  -27.2403   23.2571 C   0  0  0  0  0  0  0  0  0  0  0  0
  -23.1315  -25.3220   18.8246 C   0  0  0  0  0  0  0  0  0  0  0  0
  -29.2584  -26.2708   17.2563 C   0  0  0  0  0  0  0  0  0  0  0  0
  -31.2672  -27.1826   18.2414 C   0  0  0  0  0  0  0  0  0  0  0  0
  -28.0536  -16.3565   19.4790 C   0  0  0  0  0  0  0  0  0  0  0  0
  -28.2735  -16.8184   21.8403 C   0  0  0  0  0  0  0  0  0  0  0  0
  -24.4636  -25.7078   18.6811 C   0  0  0  0  0  0  0  0  0  0  0  0
  -29.6209  -13.4914   20.3504 C   0  0  0  0  0  0  0  0  0  0  0  0
  -30.2192  -12.4797   19.5994 C   0  0  0  0  0  0  0  0  0  0  0  0
  -25.1069  -24.0830   20.3441 C   0  0  0  0  0  0  0  0  0  0  0  0
  -28.0433  -11.7608   18.8342 C   0  0  0  0  0  0  0  0  0  0  0  0
  -28.6943  -18.5638   20.2236 C   0  0  0  0  0  0  0  0  0  0  0  0
  -28.2898  -20.8803   19.2350 C   0  0  0  0  0  0  0  0  0  0  0  0
  -20.2462  -28.6015   22.3646 C   0  0  0  0  0  0  0  0  0  0  0  0
  -22.7752  -24.3198   19.7384 C   0  0  0  0  0  0  0  0  0  0  0  0
  -20.6885  -27.3873   22.9236 C   0  0  0  0  0  0  0  0  0  0  0  0
  -23.7699  -23.6846   20.4955 C   0  0  0  0  0  0  0  0  0  0  0  0
  -28.5134  -26.7464   18.3354 C   0  0  0  0  0  0  0  0  0  0  0  0
  -30.5222  -27.6582   19.3205 C   0  0  0  0  0  0  0  0  0  0  0  0
  -29.1453  -27.4401   19.3675 C   0  0  0  0  0  0  0  0  0  0  0  0
  -27.9866  -15.9286   20.8049 C   0  0  0  0  0  0  0  0  0  0  0  0
  -25.4512  -25.0903   19.4430 C   0  0  0  0  0  0  0  0  0  0  0  0
  -28.2337  -13.6377   20.3434 C   0  0  0  0  0  0  0  0  0  0  0  0
  -29.4304  -11.6144   18.8413 C   0  0  0  0  0  0  0  0  0  0  0  0
  -27.4449  -12.7725   19.5853 C   0  0  0  0  0  0  0  0  0  0  0  0
  -29.0604  -19.9247   19.9240 C   0  0  0  0  0  0  0  0  0  0  0  0
  -29.0772  -22.0055   19.2132 C   0  0  0  0  0  0  0  0  0  0  0  0
  -26.9792  -20.7616   18.6657 C   0  0  0  0  0  0  0  0  0  0  0  0
  -20.9443  -24.1986   22.3339 C   0  0  0  0  0  0  0  0  0  0  0  0
  -21.5870  -21.0236   22.1636 C   0  0  0  0  0  0  0  0  0  0  0  0
  -23.6664  -18.5425   21.0834 C   0  0  0  0  0  0  0  0  0  0  0  0
  -32.4978  -25.6020   21.7648 C   0  0  0  0  0  0  0  0  0  0  0  0
  -18.7950  -28.8381   22.0289 C   0  0  0  0  0  0  0  0  0  0  0  0
  -21.3372  -23.8965   19.8620 C   0  0  0  0  0  0  0  0  0  0  0  0
  -23.4422  -22.5891   21.4757 C   0  0  0  0  0  0  0  0  0  0  0  0
  -17.9752  -27.5541   21.9313 C   0  0  0  0  0  0  0  0  0  0  0  0
  -33.9474  -22.6394   20.4237 C   0  0  0  0  0  0  0  0  0  0  0  0
  -18.2695  -26.6414   23.1175 C   0  0  0  0  0  0  0  0  0  0  0  0
  -32.7425  -21.7462   20.1234 C   0  0  0  0  0  0  0  0  0  0  0  0
  -33.7392  -23.4594   21.6950 C   0  0  0  0  0  0  0  0  0  0  0  0
  -31.2918  -23.3603   21.4228 C   0  0  0  0  0  0  0  0  0  0  0  0
  -19.7449  -26.2241   23.1398 C   0  0  1  0  0  0  0  0  0  0  0  0
  -21.0251  -23.2224   21.1945 C   0  0  1  0  0  0  0  0  0  0  0  0
  -31.4317  -22.5554   20.1194 C   0  0  2  0  0  0  0  0  0  0  0  0
  -28.3464  -27.9501   20.5245 C   0  0  0  0  0  0  0  0  0  0  0  0
  -23.9484  -16.0493   21.1293 C   0  0  0  0  0  0  0  0  0  0  0  0
  -30.7353  -29.8686   20.6491 C   0  0  0  0  0  0  0  0  0  0  0  0
  -32.7469  -28.5283   20.0896 C   0  0  0  0  0  0  0  0  0  0  0  0
  -22.5263  -21.1856   25.0621 C   0  0  0  0  0  0  0  0  0  0  0  0
  -23.6518  -18.9713   24.7480 C   0  0  0  0  0  0  0  0  0  0  0  0
  -21.1748  -19.1536   24.5154 C   0  0  0  0  0  0  0  0  0  0  0  0
  -23.5207  -18.3554   18.1334 C   0  0  0  0  0  0  0  0  0  0  0  0
  -27.0339  -26.4981   18.3619 C   0  0  0  0  0  0  0  0  0  1  0  0
  -31.1185  -27.6649   21.7977 C   0  0  0  0  0  0  0  0  0  0  0  0
  -22.6632  -20.1196   22.7145 C   0  0  1  0  0  0  0  0  0  0  0  0
  -23.3865  -17.2363   20.3623 C   0  0  2  0  0  0  0  0  0  0  0  0
  -31.2232  -28.3977   20.4129 C   0  0  0  0  0  0  0  0  0  0  0  0
  -22.5103  -19.8795   24.2430 C   0  0  0  0  0  0  0  0  0  0  0  0
  -30.2465  -20.4012   20.3117 N   0  0  0  0  0  0  0  0  0  0  0  0
  -30.2270  -21.6684   19.8648 N   0  0  0  0  0  0  0  0  0  0  0  0
  -22.0211  -22.2150   21.5651 N   0  0  0  0  0  0  0  0  0  0  0  0
  -32.4796  -24.2042   21.6266 N   0  0  0  0  0  0  0  0  0  0  0  0
  -28.8913  -23.2403   18.7004 N   0  0  0  0  0  0  0  0  0  0  0  0
  -26.8649  -20.3381   17.3346 N   0  0  0  0  0  0  0  0  0  0  0  0
  -19.9908  -25.1841   22.1638 N   0  0  0  0  0  0  0  0  0  0  0  0
  -22.6243  -18.9022   21.9115 N   0  0  0  0  0  0  0  0  0  0  0  0
  -31.2615  -26.2308   21.6812 N   0  0  0  0  0  0  0  0  0  0  0  0
  -24.0009  -17.2521   19.0047 N   0  3  0  0  0  0  0  0  0  0  0  0
  -25.9412  -21.0390   19.3130 O   0  0  0  0  0  0  0  0  0  0  0  0
  -21.6907  -24.0664   23.2968 O   0  0  0  0  0  0  0  0  0  0  0  0
  -20.4052  -20.6818   22.2542 O   0  0  0  0  0  0  0  0  0  0  0  0
  -24.7072  -19.1780   20.9304 O   0  0  0  0  0  0  0  0  0  0  0  0
  -33.5392  -26.2426   21.9437 O   0  0  0  0  0  0  0  0  0  0  0  0
  -27.6412  -14.6431   21.0890 O   0  0  0  0  0  0  0  0  0  0  0  0
  -26.7520  -25.4653   19.3054 O   0  0  0  0  0  0  0  0  0  1  0  0
  -30.0053  -10.6439   18.1189 F   0  0  0  0  0  0  0  0  0  0  0  0
  -26.1118  -12.9089   19.5737 F   0  0  0  0  0  0  0  0  0  0  0  0
  1  2  1  0  0  0  0
  1  6  2  0  0  0  0
  2  7  2  0  0  0  0
  3  9  2  0  0  0  0
  3 10  1  0  0  0  0
  4 11  2  0  0  0  0
  4 18  1  0  0  0  0
  5 12  1  0  0  0  0
  5 18  2  0  0  0  0
  6 20  1  0  0  0  0
  7 22  1  0  0  0  0
  8 13  2  0  0  0  0
  8 21  1  0  0  0  0
  9 24  1  0  0  0  0
 10 25  2  0  0  0  0
 11 27  1  0  0  0  0
 12 27  2  0  0  0  0
 13 28  1  0  0  0  0
 14 15  2  0  0  0  0
 14 29  1  0  0  0  0
 15 30  1  0  0  0  0
 16 23  1  0  0  0  0
 16 28  2  0  0  0  0
 17 30  2  0  0  0  0
 17 31  1  0  0  0  0
 18 32  1  0  0  0  0
 19 32  1  0  0  0  0
 19 33  2  0  0  0  0
 19 34  1  0  0  0  0
 20 22  2  0  0  0  0
 20 39  1  0  0  0  0
 21 23  2  0  0  0  0
 21 40  1  0  0  0  0
 22 48  1  0  0  0  0
 23 41  1  0  0  0  0
 24 26  2  0  0  0  0
 24 59  1  0  0  0  0
 25 26  1  0  0  0  0
 25 63  1  0  0  0  0
 26 51  1  0  0  0  0
 27 80  1  0  0  0  0
 28 81  1  0  0  0  0
 29 31  2  0  0  0  0
 29 80  1  0  0  0  0
 30 82  1  0  0  0  0
 31 83  1  0  0  0  0
 32 65  2  0  0  0  0
 33 66  1  0  0  0  0
 33 69  1  0  0  0  0
 34 70  1  0  0  0  0
 34 75  2  0  0  0  0
 35 49  1  0  0  0  0
 35 71  1  0  0  0  0
 35 76  2  0  0  0  0
 36 61  1  0  0  0  0
 36 67  1  0  0  0  0
 36 77  2  0  0  0  0
 37 62  1  0  0  0  0
 37 72  1  0  0  0  0
 37 78  2  0  0  0  0
 38 68  1  0  0  0  0
 38 73  1  0  0  0  0
 38 79  2  0  0  0  0
 39 42  1  0  0  0  0
 40 49  1  0  0  0  0
 41 67  1  0  0  0  0
 42 44  1  0  0  0  0
 43 45  1  0  0  0  0
 43 46  1  0  0  0  0
 44 48  1  0  0  0  0
 45 50  1  0  0  0  0
 46 68  1  0  0  0  0
 47 50  1  0  0  0  0
 47 68  1  0  0  0  0
 48 71  1  0  0  0  0
 49 67  1  0  0  0  0
 50 66  1  0  0  0  0
 52 62  1  0  0  0  0
 53 63  1  0  0  0  0
 54 63  1  0  0  0  0
 55 64  1  0  0  0  0
 56 64  1  0  0  0  0
 57 64  1  0  0  0  0
 58 74  1  0  0  0  0
 59 81  1  0  0  0  0
 60 63  1  0  0  0  0
 60 73  1  0  0  0  0
 61 64  1  0  0  0  0
 61 72  1  0  0  0  0
 62 74  1  0  0  0  0
 65 66  1  0  0  0  0
M  CHG  1  74   1
M  ISO  4  38 100  59 101  73 100  81 101
M  END
> <Batch ID>
0098

> <Smiles>
CNC(C)C(=O)NC(C(=O)N1Cc2cc([101O:1][101CH2:1]c3cccc(C(C)(C)C[100NH:0][100C:0](=O)N4CCCC(n5nc(-c6ccc(Oc7ccc(F)cc7F)cc6)c(C(N)=O)c5N)C4)c3C)ccc2CC1C(=O)NC1CCCc2ccccc21)C(C)(C)C

> <Shape>
0.212

> <Color>
0.063

> <Negative vol penalty>
0.000

$$$$

  -OEChem-04052319293D

 87 95  0     1  0  0  0  0  0999 V2000
  -28.1004  -21.1196   19.3277 C   0  0  0  0  0  0  0  0  0  0  0  0
  -28.0802  -20.3158   20.4629 C   0  0  0  0  0  0  0  0  0  0  0  0
  -22.9972   -9.9369   20.0137 C   0  0  0  0  0  0  0  0  0  0  0  0
  -23.7574   -9.9655   22.3068 C   0  0  0  0  0  0  0  0  0  0  0  0
  -28.4209  -22.4720   19.4381 C   0  0  0  0  0  0  0  0  0  0  0  0
  -28.3816  -20.8637   21.7093 C   0  0  0  0  0  0  0  0  0  0  0  0
  -25.1535  -19.3774   25.3169 C   0  0  0  0  0  0  0  0  0  0  0  0
  -29.5655  -16.8095   26.2198 C   0  0  0  0  0  0  0  0  0  0  0  0
  -22.2270   -8.8056   20.2831 C   0  0  0  0  0  0  0  0  0  0  0  0
  -22.9871   -8.8342   22.5762 C   0  0  0  0  0  0  0  0  0  0  0  0
  -25.3321  -18.0990   25.8438 C   0  0  0  0  0  0  0  0  0  0  0  0
  -23.2013   -5.4974   22.0757 C   0  0  0  0  0  0  0  0  0  0  0  0
  -23.7931   -4.4706   22.8112 C   0  0  0  0  0  0  0  0  0  0  0  0
  -30.3277  -17.2180   25.1311 C   0  0  0  0  0  0  0  0  0  0  0  0
  -26.4533  -19.0504   27.7562 C   0  0  0  0  0  0  0  0  0  0  0  0
  -22.0964   -4.7124   24.5141 C   0  0  0  0  0  0  0  0  0  0  0  0
  -23.7625  -10.5168   21.0255 C   0  0  0  0  0  0  0  0  0  0  0  0
  -24.1624  -13.0310   20.8625 C   0  0  0  0  0  0  0  0  0  0  0  0
  -28.7169  -23.0390   20.6878 C   0  0  0  0  0  0  0  0  0  0  0  0
  -25.6339  -20.5030   26.0016 C   0  0  0  0  0  0  0  0  0  0  0  0
  -28.7077  -22.2247   21.8364 C   0  0  0  0  0  0  0  0  0  0  0  0
  -26.2772  -20.3422   27.2371 C   0  0  0  0  0  0  0  0  0  0  0  0
  -29.3850  -15.4528   26.4652 C   0  0  0  0  0  0  0  0  0  0  0  0
  -22.2219   -8.2543   21.5643 C   0  0  0  0  0  0  0  0  0  0  0  0
  -25.9846  -17.9351   27.0622 C   0  0  0  0  0  0  0  0  0  0  0  0
  -22.0571   -6.1318   22.5594 C   0  0  0  0  0  0  0  0  0  0  0  0
  -23.2406   -4.0780   24.0303 C   0  0  0  0  0  0  0  0  0  0  0  0
  -21.5046   -5.7393   23.7785 C   0  0  0  0  0  0  0  0  0  0  0  0
  -24.5588  -11.6851   20.7477 C   0  0  0  0  0  0  0  0  0  0  0  0
  -30.8835  -16.2382   24.3243 C   0  0  0  0  0  0  0  0  0  0  0  0
  -29.9828  -14.5520   25.5986 C   0  0  0  0  0  0  0  0  0  0  0  0
  -25.2715  -13.7488   20.4868 C   0  0  0  0  0  0  0  0  0  0  0  0
  -22.9042  -13.5830   21.2723 C   0  0  0  0  0  0  0  0  0  0  0  0
  -27.7647  -22.7745   25.3664 C   0  0  0  0  0  0  0  0  0  0  0  0
  -26.6689  -24.0365   28.1466 C   0  0  0  0  0  0  0  0  0  0  0  0
  -25.1491  -23.5266   31.1594 C   0  0  0  0  0  0  0  0  0  0  0  0
  -30.7773  -14.6442   20.6592 C   0  0  0  0  0  0  0  0  0  0  0  0
  -29.1038  -24.4953   20.7509 C   0  0  0  0  0  0  0  0  0  0  0  0
  -25.4096  -21.8772   25.4327 C   0  0  0  0  0  0  0  0  0  0  0  0
  -26.7937  -21.5197   28.0214 C   0  0  0  0  0  0  0  0  0  0  0  0
  -29.0448  -25.0807   22.1595 C   0  0  0  0  0  0  0  0  0  0  0  0
  -29.5847  -12.2462   18.3131 C   0  0  0  0  0  0  0  0  0  0  0  0
  -29.7196  -24.1433   23.1558 C   0  0  0  0  0  0  0  0  0  0  0  0
  -28.1409  -11.9931   18.7506 C   0  0  0  0  0  0  0  0  0  0  0  0
  -30.5068  -12.4663   19.5103 C   0  0  0  0  0  0  0  0  0  0  0  0
  -28.6226  -13.2645   20.8838 C   0  0  0  0  0  0  0  0  0  0  0  0
  -29.0046  -22.7878   23.2093 C   0  0  1  0  0  0  0  0  0  0  0  0
  -26.3942  -22.9129   25.9667 C   0  0  1  0  0  0  0  0  0  0  0  0
  -27.6446  -13.0924   19.7090 C   0  0  2  0  0  0  0  0  0  0  0  0
  -24.4253  -24.7431   33.2315 C   0  0  0  0  0  0  0  0  0  0  0  0
  -30.4247  -10.4557   26.9047 C   0  0  0  0  0  0  0  0  0  0  0  0
  -28.4693  -10.5029   25.3239 C   0  0  0  0  0  0  0  0  0  0  0  0
  -29.5658  -24.1317   29.0997 C   0  0  0  0  0  0  0  0  0  0  0  0
  -28.7146  -24.4353   31.4345 C   0  0  0  0  0  0  0  0  0  0  0  0
  -28.2062  -26.1457   29.6913 C   0  0  0  0  0  0  0  0  0  0  0  0
  -22.3079  -22.8252   30.7187 C   0  0  0  0  0  0  0  0  0  0  0  0
  -28.5585  -15.0144   27.6476 C   0  0  0  0  0  0  0  0  0  0  0  0
  -31.7071  -16.6400   23.1466 C   0  0  0  0  0  0  0  0  0  0  0  0
  -27.1571  -14.5273   27.2729 C   0  0  0  0  0  0  0  0  0  0  0  0
  -30.8929  -16.8135   21.8592 C   0  0  0  0  0  0  0  0  0  0  0  0
  -30.3713  -12.1576   25.0145 C   0  0  0  0  0  0  0  0  0  0  0  0
  -26.2873  -15.6127   26.6494 C   0  0  0  0  0  0  0  0  0  1  0  0
  -27.0439  -23.9022   29.6027 C   0  0  1  0  0  0  0  0  0  0  0  0
  -24.0124  -24.2576   31.8507 C   0  0  2  0  0  0  0  0  0  0  0  0
  -29.9709  -10.7504   25.4742 C   0  0  0  0  0  0  0  0  0  0  0  0
  -28.3747  -24.6312   29.9416 C   0  0  0  0  0  0  0  0  0  0  0  0
  -25.8210  -11.5530   20.3314 N   0  0  0  0  0  0  0  0  0  0  0  0
  -30.7302  -14.9110   24.5308 N   0  0  0  0  0  0  0  0  0  0  0  0
  -26.2274  -12.8251   20.1813 N   0  0  0  0  0  0  0  0  0  0  0  0
  -26.5557  -22.8424   27.4204 N   0  0  0  0  0  0  0  0  0  0  0  0
  -29.9803  -13.5222   20.3785 N   0  0  0  0  0  0  0  0  0  0  0  0
  -25.5125  -15.0736   20.3912 N   0  0  0  0  0  0  0  0  0  0  0  0
  -21.8716  -12.7033   21.6247 N   0  0  0  0  0  0  0  0  0  0  0  0
  -29.8003  -13.1680   25.8437 N   0  0  0  0  0  0  0  0  0  0  0  0
  -27.7898  -22.8876   23.9895 N   0  0  0  0  0  0  0  0  0  0  0  0
  -25.8932  -24.3737   30.3657 N   0  0  0  0  0  0  0  0  0  0  0  0
  -30.1998  -15.6008   21.4851 N   0  0  0  0  0  0  0  0  0  0  0  0
  -22.8340  -23.3579   32.0018 N   0  3  0  0  0  0  0  0  0  0  0  0
  -22.6964  -14.8196   21.3085 O   0  0  0  0  0  0  0  0  0  0  0  0
  -28.7282  -22.5811   26.0985 O   0  0  0  0  0  0  0  0  0  0  0  0
  -26.4763  -25.1590   27.6727 O   0  0  0  0  0  0  0  0  0  0  0  0
  -25.3585  -22.3251   31.3115 O   0  0  0  0  0  0  0  0  0  0  0  0
  -31.9169  -14.7857   20.2029 O   0  0  0  0  0  0  0  0  0  0  0  0
  -21.4702   -7.1506   21.8276 O   0  0  0  0  0  0  0  0  0  0  0  0
  -26.1609  -16.6884   27.5784 O   0  0  0  0  0  0  0  0  0  1  0  0
  -23.8081   -3.0909   24.7358 F   0  0  0  0  0  0  0  0  0  0  0  0
  -20.4047   -6.3443   24.2478 F   0  0  0  0  0  0  0  0  0  0  0  0
  1  2  1  0  0  0  0
  1  5  2  0  0  0  0
  2  6  2  0  0  0  0
  3  9  2  0  0  0  0
  3 17  1  0  0  0  0
  4 10  1  0  0  0  0
  4 17  2  0  0  0  0
  5 19  1  0  0  0  0
  6 21  1  0  0  0  0
  7 11  2  0  0  0  0
  7 20  1  0  0  0  0
  8 14  2  0  0  0  0
  8 23  1  0  0  0  0
  9 24  1  0  0  0  0
 10 24  2  0  0  0  0
 11 25  1  0  0  0  0
 12 13  2  0  0  0  0
 12 26  1  0  0  0  0
 13 27  1  0  0  0  0
 14 30  1  0  0  0  0
 15 22  1  0  0  0  0
 15 25  2  0  0  0  0
 16 27  2  0  0  0  0
 16 28  1  0  0  0  0
 17 29  1  0  0  0  0
 18 29  1  0  0  0  0
 18 32  2  0  0  0  0
 18 33  1  0  0  0  0
 19 21  2  0  0  0  0
 19 38  1  0  0  0  0
 20 22  2  0  0  0  0
 20 39  1  0  0  0  0
 21 47  1  0  0  0  0
 22 40  1  0  0  0  0
 23 31  2  0  0  0  0
 23 57  1  0  0  0  0
 24 84  1  0  0  0  0
 25 85  1  0  0  0  0
 26 28  2  0  0  0  0
 26 84  1  0  0  0  0
 27 86  1  0  0  0  0
 28 87  1  0  0  0  0
 29 67  2  0  0  0  0
 30 58  1  0  0  0  0
 30 68  2  0  0  0  0
 31 68  1  0  0  0  0
 31 74  1  0  0  0  0
 32 69  1  0  0  0  0
 32 72  1  0  0  0  0
 33 73  1  0  0  0  0
 33 79  2  0  0  0  0
 34 48  1  0  0  0  0
 34 75  1  0  0  0  0
 34 80  2  0  0  0  0
 35 63  1  0  0  0  0
 35 70  1  0  0  0  0
 35 81  2  0  0  0  0
 36 64  1  0  0  0  0
 36 76  1  0  0  0  0
 36 82  2  0  0  0  0
 37 71  1  0  0  0  0
 37 77  1  0  0  0  0
 37 83  2  0  0  0  0
 38 41  1  0  0  0  0
 39 48  1  0  0  0  0
 40 70  1  0  0  0  0
 41 43  1  0  0  0  0
 42 44  1  0  0  0  0
 42 45  1  0  0  0  0
 43 47  1  0  0  0  0
 44 49  1  0  0  0  0
 45 71  1  0  0  0  0
 46 49  1  0  0  0  0
 46 71  1  0  0  0  0
 47 75  1  0  0  0  0
 48 70  1  0  0  0  0
 49 69  1  0  0  0  0
 50 64  1  0  0  0  0
 51 65  1  0  0  0  0
 52 65  1  0  0  0  0
 53 66  1  0  0  0  0
 54 66  1  0  0  0  0
 55 66  1  0  0  0  0
 56 78  1  0  0  0  0
 57 59  1  0  0  0  0
 58 60  1  0  0  0  0
 59 62  1  0  0  0  0
 60 77  1  0  0  0  0
 61 65  1  0  0  0  0
 61 74  1  0  0  0  0
 62 85  1  0  0  0  0
 63 66  1  0  0  0  0
 63 76  1  0  0  0  0
 64 78  1  0  0  0  0
 67 69  1  0  0  0  0
M  CHG  1  78   1
M  ISO  4  37 100  62 101  77 100  85 101
M  END
> <Batch ID>
0098

> <Smiles>
CNC(C)C(=O)NC(C(=O)N1Cc2cc([101O:1][101CH2:1]CCc3ccc(CC[100NH:0][100C:0](=O)N4CCCC(n5nc(-c6ccc(Oc7ccc(F)cc7F)cc6)c(C(N)=O)c5N)C4)nc3NCC(C)C)ccc2CC1C(=O)NC1CCCc2ccccc21)C(C)(C)C

> <Shape>
0.206

> <Color>
0.193

> <Negative vol penalty>
0.000

$$$$

  -OEChem-04052319293D

 91 99  0     1  0  0  0  0  0999 V2000
  -33.0873  -28.1633   22.7547 C   0  0  0  0  0  0  0  0  0  0  0  0
  -32.3495  -27.3401   21.9100 C   0  0  0  0  0  0  0  0  0  0  0  0
  -23.0880   -9.8278   20.0410 C   0  0  0  0  0  0  0  0  0  0  0  0
  -23.6729  -10.1064   22.3685 C   0  0  0  0  0  0  0  0  0  0  0  0
  -32.5515  -28.5649   23.9776 C   0  0  0  0  0  0  0  0  0  0  0  0
  -31.0758  -26.9171   22.2883 C   0  0  0  0  0  0  0  0  0  0  0  0
  -27.7073  -27.2913   18.5255 C   0  0  0  0  0  0  0  0  0  0  0  0
  -22.3398   -8.6959   20.3645 C   0  0  0  0  0  0  0  0  0  0  0  0
  -22.9247   -8.9745   22.6920 C   0  0  0  0  0  0  0  0  0  0  0  0
  -27.7366  -26.3016   17.5440 C   0  0  0  0  0  0  0  0  0  0  0  0
  -23.2924   -5.6172   22.5375 C   0  0  0  0  0  0  0  0  0  0  0  0
  -23.8631   -4.6909   23.4103 C   0  0  0  0  0  0  0  0  0  0  0  0
  -25.8724  -25.2002   18.6075 C   0  0  0  0  0  0  0  0  0  0  0  0
  -22.0362   -5.0221   24.9562 C   0  0  0  0  0  0  0  0  0  0  0  0
  -29.7566  -18.4734   19.7351 C   0  0  0  0  0  0  0  0  0  0  0  0
  -23.7546  -10.5330   21.0430 C   0  0  0  0  0  0  0  0  0  0  0  0
  -24.0773  -13.0349   20.6632 C   0  0  0  0  0  0  0  0  0  0  0  0
  -31.2666  -28.1545   24.3668 C   0  0  0  0  0  0  0  0  0  0  0  0
  -26.7658  -27.2369   19.5633 C   0  0  0  0  0  0  0  0  0  0  0  0
  -30.5228  -27.3125   23.5181 C   0  0  0  0  0  0  0  0  0  0  0  0
  -25.8316  -26.1918   19.5995 C   0  0  0  0  0  0  0  0  0  0  0  0
  -29.9116  -18.3118   21.0942 C   0  0  0  0  0  0  0  0  0  0  0  0
  -29.3167  -19.4327   21.7241 C   0  0  0  0  0  0  0  0  0  0  0  0
  -22.2581   -8.2693   21.6900 C   0  0  0  0  0  0  0  0  0  0  0  0
  -26.8209  -25.2543   17.5865 C   0  0  0  0  0  0  0  0  0  0  0  0
  -22.0937   -6.2461   22.8740 C   0  0  0  0  0  0  0  0  0  0  0  0
  -23.2350   -4.3933   24.6196 C   0  0  0  0  0  0  0  0  0  0  0  0
  -21.4656   -5.9485   24.0834 C   0  0  0  0  0  0  0  0  0  0  0  0
  -24.5280  -11.7020   20.7093 C   0  0  0  0  0  0  0  0  0  0  0  0
  -28.8161  -20.2451   20.7307 C   0  0  0  0  0  0  0  0  0  0  0  0
  -25.1856  -13.7597   20.2988 C   0  0  0  0  0  0  0  0  0  0  0  0
  -22.7734  -13.5700   20.9264 C   0  0  0  0  0  0  0  0  0  0  0  0
  -26.9276  -26.9906   22.7282 C   0  0  0  0  0  0  0  0  0  0  0  0
  -23.7198  -27.4333   22.5368 C   0  0  0  0  0  0  0  0  0  0  0  0
  -20.8707  -27.2107   20.6714 C   0  0  0  0  0  0  0  0  0  0  0  0
  -30.6283  -14.8984   20.7737 C   0  0  0  0  0  0  0  0  0  0  0  0
  -30.7486  -28.5757   25.7191 C   0  0  0  0  0  0  0  0  0  0  0  0
  -26.7301  -28.3267   20.5994 C   0  0  0  0  0  0  0  0  0  0  0  0
  -24.7876  -26.0985   20.6811 C   0  0  0  0  0  0  0  0  0  0  0  0
  -29.2420  -28.3890   25.8794 C   0  0  0  0  0  0  0  0  0  0  0  0
  -29.6994  -12.2399   18.5951 C   0  0  0  0  0  0  0  0  0  0  0  0
  -28.8180  -27.0131   25.3755 C   0  0  0  0  0  0  0  0  0  0  0  0
  -28.2366  -11.9691   18.9515 C   0  0  0  0  0  0  0  0  0  0  0  0
  -30.5210  -12.6115   19.8275 C   0  0  0  0  0  0  0  0  0  0  0  0
  -28.5125  -13.4569   20.9786 C   0  0  0  0  0  0  0  0  0  0  0  0
  -29.1276  -26.8530   23.8822 C   0  0  1  0  0  0  0  0  0  0  0  0
  -26.0588  -27.8937   21.8991 C   0  0  1  0  0  0  0  0  0  0  0  0
  -27.6317  -13.1327   19.7598 C   0  0  2  0  0  0  0  0  0  0  0  0
  -26.2949  -17.3572   24.2869 C   0  0  0  0  0  0  0  0  0  0  0  0
  -30.6509  -19.8586   23.8042 C   0  0  0  0  0  0  0  0  0  0  0  0
  -28.9534  -22.6514   21.4688 C   0  0  0  0  0  0  0  0  0  0  0  0
  -26.7537  -21.4244   21.5733 C   0  0  0  0  0  0  0  0  0  0  0  0
  -18.3965  -27.6099   20.7989 C   0  0  0  0  0  0  0  0  0  0  0  0
  -25.3223  -20.2368   16.2505 C   0  0  0  0  0  0  0  0  0  0  0  0
  -23.3959  -24.8845   24.1825 C   0  0  0  0  0  0  0  0  0  0  0  0
  -20.9949  -24.8167   23.4762 C   0  0  0  0  0  0  0  0  0  0  0  0
  -21.8447  -26.7405   24.8176 C   0  0  0  0  0  0  0  0  0  0  0  0
  -20.9644  -29.2137   18.4946 C   0  0  0  0  0  0  0  0  0  0  0  0
  -30.5777  -17.1750   21.7605 C   0  0  0  0  0  0  0  0  0  0  0  0
  -27.0181  -18.4502   23.5148 C   0  0  0  0  0  0  0  0  0  0  0  0
  -28.4675  -18.6027   23.9882 C   0  0  0  0  0  0  0  0  0  0  0  0
  -27.2385  -19.9687   17.8543 C   0  0  0  0  0  0  0  0  0  0  0  0
  -27.1851  -21.9546   16.1911 C   0  0  0  0  0  0  0  0  0  0  0  0
  -28.7206  -20.1964   18.1683 C   0  0  0  0  0  0  0  0  0  0  0  0
  -26.4157  -22.9819   17.0139 C   0  0  0  0  0  0  0  0  0  1  0  0
  -29.2451  -19.6861   23.1779 C   0  0  2  0  0  0  0  0  0  0  0  0
  -28.1007  -21.5354   20.8237 C   0  0  0  0  0  0  0  0  0  0  0  0
  -22.5222  -26.5259   22.3913 C   0  0  1  0  0  0  0  0  0  0  0  0
  -19.7470  -28.2016   20.4266 C   0  0  2  0  0  0  0  0  0  0  0  0
  -26.8199  -20.4832   16.4628 C   0  0  2  0  0  0  0  0  0  0  0  0
  -22.2102  -25.7423   23.6974 C   0  0  0  0  0  0  0  0  0  0  0  0
  -25.8217  -11.5842   20.3989 N   0  0  0  0  0  0  0  0  0  0  0  0
  -29.0891  -19.6519   19.5258 N   0  0  0  0  0  0  0  0  0  0  0  0
  -26.1934  -12.8522   20.1541 N   0  0  0  0  0  0  0  0  0  0  0  0
  -24.7974  -27.1847   21.6749 N   0  0  0  0  0  0  0  0  0  0  0  0
  -29.8943  -13.7222   20.5484 N   0  0  0  0  0  0  0  0  0  0  0  0
  -25.3866  -15.0784   20.0911 N   0  0  0  0  0  0  0  0  0  0  0  0
  -21.7488  -12.6851   21.2890 N   0  0  0  0  0  0  0  0  0  0  0  0
  -28.1408  -27.5483   23.0840 N   0  0  0  0  0  0  0  0  0  0  0  0
  -21.4265  -27.3679   21.9234 N   0  0  0  0  0  0  0  0  0  0  0  0
  -29.9575  -15.9041   21.4587 N   0  0  0  0  0  0  0  0  0  0  0  0
  -19.7076  -28.5955   18.9898 N   0  3  0  0  0  0  0  0  0  0  0  0
  -22.5203  -14.7945   20.8264 O   0  0  0  0  0  0  0  0  0  0  0  0
  -26.5262  -25.8714   23.0246 O   0  0  0  0  0  0  0  0  0  0  0  0
  -23.6972  -28.3342   23.3791 O   0  0  0  0  0  0  0  0  0  0  0  0
  -21.2180  -26.3779   19.8369 O   0  0  0  0  0  0  0  0  0  0  0  0
  -31.7933  -15.0436   20.3880 O   0  0  0  0  0  0  0  0  0  0  0  0
  -21.5280   -7.1650   22.0061 O   0  0  0  0  0  0  0  0  0  0  0  0
  -26.8477  -24.2866   16.6300 O   0  0  0  0  0  0  0  0  0  1  0  0
  -23.7823   -3.5025   25.4570 F   0  0  0  0  0  0  0  0  0  0  0  0
  -20.3132   -6.5486   24.4117 F   0  0  0  0  0  0  0  0  0  0  0  0
  1  2  1  0  0  0  0
  1  5  2  0  0  0  0
  2  6  2  0  0  0  0
  3  8  2  0  0  0  0
  3 16  1  0  0  0  0
  4  9  1  0  0  0  0
  4 16  2  0  0  0  0
  5 18  1  0  0  0  0
  6 20  1  0  0  0  0
  7 10  2  0  0  0  0
  7 19  1  0  0  0  0
  8 24  1  0  0  0  0
  9 24  2  0  0  0  0
 10 25  1  0  0  0  0
 11 12  2  0  0  0  0
 11 26  1  0  0  0  0
 12 27  1  0  0  0  0
 13 21  1  0  0  0  0
 13 25  2  0  0  0  0
 14 27  2  0  0  0  0
 14 28  1  0  0  0  0
 15 22  2  0  0  0  0
 15 73  1  0  0  0  0
 16 29  1  0  0  0  0
 17 29  1  0  0  0  0
 17 31  2  0  0  0  0
 17 32  1  0  0  0  0
 18 20  2  0  0  0  0
 18 37  1  0  0  0  0
 19 21  2  0  0  0  0
 19 38  1  0  0  0  0
 20 46  1  0  0  0  0
 21 39  1  0  0  0  0
 22 23  1  0  0  0  0
 22 59  1  0  0  0  0
 23 30  2  0  0  0  0
 23 66  1  0  0  0  0
 24 88  1  0  0  0  0
 25 89  1  0  0  0  0
 26 28  2  0  0  0  0
 26 88  1  0  0  0  0
 27 90  1  0  0  0  0
 28 91  1  0  0  0  0
 29 72  2  0  0  0  0
 30 67  1  0  0  0  0
 30 73  1  0  0  0  0
 31 74  1  0  0  0  0
 31 77  1  0  0  0  0
 32 78  1  0  0  0  0
 32 83  2  0  0  0  0
 33 47  1  0  0  0  0
 33 79  1  0  0  0  0
 33 84  2  0  0  0  0
 34 68  1  0  0  0  0
 34 75  1  0  0  0  0
 34 85  2  0  0  0  0
 35 69  1  0  0  0  0
 35 80  1  0  0  0  0
 35 86  2  0  0  0  0
 36 76  1  0  0  0  0
 36 81  1  0  0  0  0
 36 87  2  0  0  0  0
 37 40  1  0  0  0  0
 38 47  1  0  0  0  0
 39 75  1  0  0  0  0
 40 42  1  0  0  0  0
 41 43  1  0  0  0  0
 41 44  1  0  0  0  0
 42 46  1  0  0  0  0
 43 48  1  0  0  0  0
 44 76  1  0  0  0  0
 45 48  1  0  0  0  0
 45 76  1  0  0  0  0
 46 79  1  0  0  0  0
 47 75  1  0  0  0  0
 48 74  1  0  0  0  0
 49 60  1  0  0  0  0
 50 66  1  0  0  0  0
 51 67  1  0  0  0  0
 52 67  1  0  0  0  0
 53 69  1  0  0  0  0
 54 70  1  0  0  0  0
 55 71  1  0  0  0  0
 56 71  1  0  0  0  0
 57 71  1  0  0  0  0
 58 82  1  0  0  0  0
 59 81  1  0  0  0  0
 60 61  1  0  0  0  0
 61 66  1  0  0  0  0
 62 64  1  0  0  0  0
 62 70  1  0  0  0  0
 63 65  1  0  0  0  0
 63 70  1  0  0  0  0
 64 73  1  0  0  0  0
 65 89  1  0  0  0  0
 68 71  1  0  0  0  0
 68 80  1  0  0  0  0
 69 82  1  0  0  0  0
 72 74  1  0  0  0  0
M  CHG  1  82   1
M  ISO  4  36 100  65 101  81 100  89 101
M  END
> <Batch ID>
0098

> <Smiles>
CCCC(C)c1c(C[100NH:0][100C:0](=O)N2CCCC(n3nc(-c4ccc(Oc5ccc(F)cc5F)cc4)c(C(N)=O)c3N)C2)cn(CCC(C)C[101CH2:1][101O:1]c2ccc3c(c2)CN(C(=O)C(NC(=O)C(C)NC)C(C)(C)C)C(C(=O)NC2CCCc4ccccc42)C3)c1C(C)C

> <Shape>
0.279

> <Color>
0.202

> <Negative vol penalty>
0.000

$$$$

  -OEChem-04052319293D

 85 93  0     1  0  0  0  0  0999 V2000
  -16.5287  -30.1528   23.4277 C   0  0  0  0  0  0  0  0  0  0  0  0
  -17.6177  -31.0080   23.5525 C   0  0  0  0  0  0  0  0  0  0  0  0
  -25.2020  -12.0498   18.6108 C   0  0  0  0  0  0  0  0  0  0  0  0
  -27.1648  -13.1423   17.7213 C   0  0  0  0  0  0  0  0  0  0  0  0
  -16.7364  -28.7975   23.1802 C   0  0  0  0  0  0  0  0  0  0  0  0
  -18.9143  -30.5104   23.4182 C   0  0  0  0  0  0  0  0  0  0  0  0
  -27.0045  -29.2536   21.8781 C   0  0  0  0  0  0  0  0  0  0  0  0
  -25.0565  -11.3406   17.4185 C   0  0  0  0  0  0  0  0  0  0  0  0
  -27.0193  -12.4331   16.5291 C   0  0  0  0  0  0  0  0  0  0  0  0
  -27.7592  -28.1755   21.4179 C   0  0  0  0  0  0  0  0  0  0  0  0
  -27.6838   -9.3231   15.3859 C   0  0  0  0  0  0  0  0  0  0  0  0
  -28.8275   -8.7483   14.8318 C   0  0  0  0  0  0  0  0  0  0  0  0
  -26.0158  -27.6360   19.8403 C   0  0  0  0  0  0  0  0  0  0  0  0
  -28.5209  -10.0672   12.8309 C   0  0  0  0  0  0  0  0  0  0  0  0
  -26.2561  -12.9507   18.7622 C   0  0  0  0  0  0  0  0  0  0  0  0
  -27.1391  -13.2946   21.1307 C   0  0  0  0  0  0  0  0  0  0  0  0
  -18.0369  -28.2817   23.0553 C   0  0  0  0  0  0  0  0  0  0  0  0
  -25.7428  -29.5249   21.3294 C   0  0  0  0  0  0  0  0  0  0  0  0
  -19.1439  -29.1499   23.1445 C   0  0  0  0  0  0  0  0  0  0  0  0
  -25.2481  -28.7197   20.2935 C   0  0  0  0  0  0  0  0  0  0  0  0
  -25.9651  -11.5322   16.3777 C   0  0  0  0  0  0  0  0  0  0  0  0
  -27.2637  -27.3648   20.4009 C   0  0  0  0  0  0  0  0  0  0  0  0
  -26.9585  -10.2698   14.6625 C   0  0  0  0  0  0  0  0  0  0  0  0
  -29.2461   -9.1204   13.5543 C   0  0  0  0  0  0  0  0  0  0  0  0
  -27.3771  -10.6419   13.3850 C   0  0  0  0  0  0  0  0  0  0  0  0
  -26.4066  -13.6841   19.9933 C   0  0  0  0  0  0  0  0  0  0  0  0
  -26.9679  -14.3276   22.0196 C   0  0  0  0  0  0  0  0  0  0  0  0
  -29.2107  -23.6252   20.0992 C   0  0  0  0  0  0  0  0  0  0  0  0
  -31.0997  -24.9113   19.3645 C   0  0  0  0  0  0  0  0  0  0  0  0
  -29.7149  -22.4818   19.6049 C   0  0  0  0  0  0  0  0  0  0  0  0
  -29.9115  -24.8886   19.9842 C   0  0  0  0  0  0  0  0  0  0  0  0
  -31.0478  -22.5221   18.9130 C   0  0  0  0  0  0  0  0  0  0  0  0
  -27.9057  -12.1054   21.3629 C   0  0  0  0  0  0  0  0  0  0  0  0
  -22.7751  -29.6137   22.4646 C   0  0  0  0  0  0  0  0  0  0  0  0
  -22.0877  -30.7197   19.4936 C   0  0  0  0  0  0  0  0  0  0  0  0
  -23.0716  -29.9577   16.1071 C   0  0  0  0  0  0  0  0  0  0  0  0
  -25.6964  -20.1371   21.3239 C   0  0  0  0  0  0  0  0  0  0  0  0
  -18.2039  -26.8081   22.7798 C   0  0  0  0  0  0  0  0  0  0  0  0
  -24.9527  -30.7077   21.8185 C   0  0  0  0  0  0  0  0  0  0  0  0
  -23.9082  -28.9807   19.6571 C   0  0  0  0  0  0  0  0  0  0  0  0
  -19.6072  -26.2999   23.0941 C   0  0  0  0  0  0  0  0  0  0  0  0
  -23.8540  -17.7547   23.2231 C   0  0  0  0  0  0  0  0  0  0  0  0
  -20.6449  -27.2083   22.4518 C   0  0  0  0  0  0  0  0  0  0  0  0
  -24.3654  -16.4062   22.7133 C   0  0  0  0  0  0  0  0  0  0  0  0
  -23.7701  -18.7873   22.1011 C   0  0  0  0  0  0  0  0  0  0  0  0
  -25.5281  -17.6232   20.8250 C   0  0  0  0  0  0  0  0  0  0  0  0
  -20.5642  -28.6257   23.0326 C   0  0  1  0  0  0  0  0  0  0  0  0
  -23.4576  -30.5832   21.5416 C   0  0  1  0  0  0  0  0  0  0  0  0
  -25.6830  -16.5655   21.9311 C   0  0  2  0  0  0  0  0  0  0  0  0
  -27.8829  -21.4799   17.3710 C   0  0  0  0  0  0  0  0  0  0  0  0
  -30.3849  -20.5026   21.8384 C   0  0  0  0  0  0  0  0  0  0  0  0
  -23.1372  -31.4095   14.0613 C   0  0  0  0  0  0  0  0  0  0  0  0
  -19.2993  -29.5999   18.9635 C   0  0  0  0  0  0  0  0  0  0  0  0
  -19.8675  -29.5278   16.5263 C   0  0  0  0  0  0  0  0  0  0  0  0
  -19.8270  -31.7114   17.7317 C   0  0  0  0  0  0  0  0  0  0  0  0
  -25.9281  -29.3509   15.6263 C   0  0  0  0  0  0  0  0  0  0  0  0
  -29.2678  -26.0948   20.5645 C   0  0  0  0  0  0  0  0  0  1  0  0
  -28.7540  -20.6032   18.2661 C   0  0  0  0  0  0  0  0  0  0  0  0
  -29.9594  -20.1341   20.4199 C   0  0  0  0  0  0  0  0  0  0  0  0
  -27.6942  -21.3511   20.4908 C   0  0  0  0  0  0  0  0  0  0  0  0
  -21.7103  -30.0845   18.1772 C   0  0  1  0  0  0  0  0  0  0  0  0
  -23.9442  -30.8076   15.2012 C   0  0  2  0  0  0  0  0  0  0  0  0
  -29.0212  -21.1609   19.7043 C   0  0  0  0  0  0  0  0  0  0  0  0
  -20.1922  -30.2172   17.8687 C   0  0  0  0  0  0  0  0  0  0  0  0
  -25.8142  -14.8717   20.1433 N   0  0  0  0  0  0  0  0  0  0  0  0
  -26.1740  -15.2374   21.3854 N   0  0  0  0  0  0  0  0  0  0  0  0
  -31.6507  -23.7676   18.8460 N   0  0  0  0  0  0  0  0  0  0  0  0
  -23.1706  -30.1452   20.1741 N   0  0  0  0  0  0  0  0  0  0  0  0
  -25.0522  -18.8911   21.4002 N   0  0  0  0  0  0  0  0  0  0  0  0
  -27.4205  -14.5373   23.2740 N   0  0  0  0  0  0  0  0  0  0  0  0
  -27.9765  -11.1464   20.3433 N   0  0  0  0  0  0  0  0  0  0  0  0
  -21.4135  -29.5027   22.2571 N   0  0  0  0  0  0  0  0  0  0  0  0
  -22.5793  -30.6844   17.1705 N   0  0  0  0  0  0  0  0  0  0  0  0
  -26.9101  -20.1463   20.6474 N   0  0  0  0  0  0  0  0  0  0  0  0
  -25.0408  -29.9846   14.6173 N   0  3  0  0  0  0  0  0  0  0  0  0
  -31.5508  -21.5031   18.4447 O   0  0  0  0  0  0  0  0  0  0  0  0
  -28.4965  -11.8919   22.4486 O   0  0  0  0  0  0  0  0  0  0  0  0
  -23.4353  -29.0098   23.3019 O   0  0  0  0  0  0  0  0  0  0  0  0
  -21.4498  -31.6943   19.8997 O   0  0  0  0  0  0  0  0  0  0  0  0
  -22.8460  -28.7691   15.8908 O   0  0  0  0  0  0  0  0  0  0  0  0
  -25.2274  -21.1639   21.8264 O   0  0  0  0  0  0  0  0  0  0  0  0
  -25.8236  -10.8401   15.2143 O   0  0  0  0  0  0  0  0  0  0  0  0
  -27.9981  -26.3114   19.9503 O   0  0  0  0  0  0  0  0  0  1  0  0
  -30.3454   -8.5695   13.0230 F   0  0  0  0  0  0  0  0  0  0  0  0
  -26.6851  -11.5518   12.6857 F   0  0  0  0  0  0  0  0  0  0  0  0
  1  2  1  0  0  0  0
  1  5  2  0  0  0  0
  2  6  2  0  0  0  0
  3  8  2  0  0  0  0
  3 15  1  0  0  0  0
  4  9  1  0  0  0  0
  4 15  2  0  0  0  0
  5 17  1  0  0  0  0
  6 19  1  0  0  0  0
  7 10  2  0  0  0  0
  7 18  1  0  0  0  0
  8 21  1  0  0  0  0
  9 21  2  0  0  0  0
 10 22  1  0  0  0  0
 11 12  2  0  0  0  0
 11 23  1  0  0  0  0
 12 24  1  0  0  0  0
 13 20  1  0  0  0  0
 13 22  2  0  0  0  0
 14 24  2  0  0  0  0
 14 25  1  0  0  0  0
 15 26  1  0  0  0  0
 16 26  1  0  0  0  0
 16 27  2  0  0  0  0
 16 33  1  0  0  0  0
 17 19  2  0  0  0  0
 17 38  1  0  0  0  0
 18 20  2  0  0  0  0
 18 39  1  0  0  0  0
 19 47  1  0  0  0  0
 20 40  1  0  0  0  0
 21 82  1  0  0  0  0
 22 83  1  0  0  0  0
 23 25  2  0  0  0  0
 23 82  1  0  0  0  0
 24 84  1  0  0  0  0
 25 85  1  0  0  0  0
 26 65  2  0  0  0  0
 27 66  1  0  0  0  0
 27 70  1  0  0  0  0
 28 30  2  0  0  0  0
 28 31  1  0  0  0  0
 29 31  2  0  0  0  0
 29 67  1  0  0  0  0
 30 32  1  0  0  0  0
 30 63  1  0  0  0  0
 31 57  1  0  0  0  0
 32 67  1  0  0  0  0
 32 76  2  0  0  0  0
 33 71  1  0  0  0  0
 33 77  2  0  0  0  0
 34 48  1  0  0  0  0
 34 72  1  0  0  0  0
 34 78  2  0  0  0  0
 35 61  1  0  0  0  0
 35 68  1  0  0  0  0
 35 79  2  0  0  0  0
 36 62  1  0  0  0  0
 36 73  1  0  0  0  0
 36 80  2  0  0  0  0
 37 69  1  0  0  0  0
 37 74  1  0  0  0  0
 37 81  2  0  0  0  0
 38 41  1  0  0  0  0
 39 48  1  0  0  0  0
 40 68  1  0  0  0  0
 41 43  1  0  0  0  0
 42 44  1  0  0  0  0
 42 45  1  0  0  0  0
 43 47  1  0  0  0  0
 44 49  1  0  0  0  0
 45 69  1  0  0  0  0
 46 49  1  0  0  0  0
 46 69  1  0  0  0  0
 47 72  1  0  0  0  0
 48 68  1  0  0  0  0
 49 66  1  0  0  0  0
 50 58  1  0  0  0  0
 51 59  1  0  0  0  0
 52 62  1  0  0  0  0
 53 64  1  0  0  0  0
 54 64  1  0  0  0  0
 55 64  1  0  0  0  0
 56 75  1  0  0  0  0
 57 83  1  0  0  0  0
 58 63  1  0  0  0  0
 59 63  1  0  0  0  0
 60 63  1  0  0  0  0
 60 74  1  0  0  0  0
 61 64  1  0  0  0  0
 61 73  1  0  0  0  0
 62 75  1  0  0  0  0
 65 66  1  0  0  0  0
M  CHG  1  75   1
M  ISO  4  37 100  57 101  74 100  83 101
M  END
> <Batch ID>
0098

> <Smiles>
CCC(CC)(C[100NH:0][100C:0](=O)N1CCCC(n2nc(-c3ccc(Oc4ccc(F)cc4F)cc3)c(C(N)=O)c2N)C1)c1cc([101CH2:1][101O:1]c2ccc3c(c2)CN(C(=O)C(NC(=O)C(C)NC)C(C)(C)C)C(C(=O)NC2CCCc4ccccc42)C3)cnc1O

> <Shape>
0.245

> <Color>
0.124

> <Negative vol penalty>
0.000

$$$$

  -OEChem-04052319293D

 84 92  0     1  0  0  0  0  0999 V2000
  -31.3435  -12.4197   20.4902 C   0  0  0  0  0  0  0  0  0  0  0  0
  -30.9452  -13.7518   20.4428 C   0  0  0  0  0  0  0  0  0  0  0  0
  -25.7357  -29.7448   23.3793 C   0  0  0  0  0  0  0  0  0  0  0  0
  -26.5118  -31.4994   21.9108 C   0  0  0  0  0  0  0  0  0  0  0  0
  -30.4787  -11.4186   20.0498 C   0  0  0  0  0  0  0  0  0  0  0  0
  -29.6822  -14.0837   19.9538 C   0  0  0  0  0  0  0  0  0  0  0  0
  -27.3145  -17.4991   22.8477 C   0  0  0  0  0  0  0  0  0  0  0  0
  -25.7663  -30.6318   24.4553 C   0  0  0  0  0  0  0  0  0  0  0  0
  -26.5423  -32.3864   22.9869 C   0  0  0  0  0  0  0  0  0  0  0  0
  -27.7082  -18.8298   22.7135 C   0  0  0  0  0  0  0  0  0  0  0  0
  -24.3312  -34.2311   24.7557 C   0  0  0  0  0  0  0  0  0  0  0  0
  -23.7978  -35.5048   24.5589 C   0  0  0  0  0  0  0  0  0  0  0  0
  -25.7967  -19.2467   21.3022 C   0  0  0  0  0  0  0  0  0  0  0  0
  -25.9442  -36.4840   25.0800 C   0  0  0  0  0  0  0  0  0  0  0  0
  -31.2573  -22.3453   20.8375 C   0  0  0  0  0  0  0  0  0  0  0  0
  -31.2742  -21.6228   18.2610 C   0  0  0  0  0  0  0  0  0  0  0  0
  -26.1085  -30.1786   22.1070 C   0  0  0  0  0  0  0  0  0  0  0  0
  -24.9971  -29.0148   20.1276 C   0  0  0  0  0  0  0  0  0  0  0  0
  -29.2008  -11.7376   19.5642 C   0  0  0  0  0  0  0  0  0  0  0  0
  -26.1630  -17.0288   22.2002 C   0  0  0  0  0  0  0  0  0  0  0  0
  -28.8000  -13.0861   19.5052 C   0  0  0  0  0  0  0  0  0  0  0  0
  -25.3892  -17.9103   21.4319 C   0  0  0  0  0  0  0  0  0  0  0  0
  -30.1176  -22.5772   20.0940 C   0  0  0  0  0  0  0  0  0  0  0  0
  -30.1263  -22.2035   18.7617 C   0  0  0  0  0  0  0  0  0  0  0  0
  -26.1695  -31.9526   24.2591 C   0  0  0  0  0  0  0  0  0  0  0  0
  -26.9509  -19.7031   21.9384 C   0  0  0  0  0  0  0  0  0  0  0  0
  -25.6710  -34.0838   25.1147 C   0  0  0  0  0  0  0  0  0  0  0  0
  -24.6043  -36.6313   24.7210 C   0  0  0  0  0  0  0  0  0  0  0  0
  -26.4775  -35.2102   25.2768 C   0  0  0  0  0  0  0  0  0  0  0  0
  -26.0777  -29.2626   20.9952 C   0  0  0  0  0  0  0  0  0  0  0  0
  -25.4713  -28.0712   19.2494 C   0  0  0  0  0  0  0  0  0  0  0  0
  -23.6823  -29.5865   20.1165 C   0  0  0  0  0  0  0  0  0  0  0  0
  -25.5775  -14.8304   19.9803 C   0  0  0  0  0  0  0  0  0  0  0  0
  -22.4840  -15.5532   20.6363 C   0  0  0  0  0  0  0  0  0  0  0  0
  -20.2286  -17.8196   21.8293 C   0  0  0  0  0  0  0  0  0  0  0  0
  -28.0875  -23.4781   18.1215 C   0  0  0  0  0  0  0  0  0  0  0  0
  -28.3191  -10.6250   19.0551 C   0  0  0  0  0  0  0  0  0  0  0  0
  -25.7371  -15.5970   22.3767 C   0  0  0  0  0  0  0  0  0  0  0  0
  -24.1334  -17.4600   20.7328 C   0  0  0  0  0  0  0  0  0  0  0  0
  -26.8554  -11.0300   18.9007 C   0  0  0  0  0  0  0  0  0  0  0  0
  -30.1538  -26.3518   18.4613 C   0  0  0  0  0  0  0  0  0  0  0  0
  -26.7459  -12.3766   18.1926 C   0  0  0  0  0  0  0  0  0  0  0  0
  -29.1846  -27.3493   19.0946 C   0  0  0  0  0  0  0  0  0  0  0  0
  -29.9691  -24.9405   19.0201 C   0  0  0  0  0  0  0  0  0  0  0  0
  -27.6081  -25.4366   19.5712 C   0  0  0  0  0  0  0  0  0  0  0  0
  -27.4284  -13.4840   19.0046 C   0  0  1  0  0  0  0  0  0  0  0  0
  -24.8297  -15.1010   21.2551 C   0  0  1  0  0  0  0  0  0  0  0  0
  -27.7321  -26.8524   18.9869 C   0  0  1  0  0  0  0  0  0  0  0  0
  -17.7680  -18.1400   22.2038 C   0  0  0  0  0  0  0  0  0  0  0  0
  -22.0955  -16.0417   17.6496 C   0  0  0  0  0  0  0  0  0  0  0  0
  -19.9683  -17.2445   18.1940 C   0  0  0  0  0  0  0  0  0  0  0  0
  -20.2129  -14.8278   18.7617 C   0  0  0  0  0  0  0  0  0  0  0  0
  -20.5949  -18.1238   24.7502 C   0  0  0  0  0  0  0  0  0  0  0  0
  -28.9152  -23.2194   20.7385 C   0  0  0  0  0  0  0  0  0  0  0  0
  -28.7603  -22.8851   22.2237 C   0  0  0  0  0  0  0  0  0  0  0  0
  -28.6017  -20.1563   16.9198 C   0  0  0  0  0  0  0  0  0  0  0  0
  -28.8890  -21.6319   16.6640 C   0  0  0  0  0  0  0  0  0  0  0  0
  -27.2746  -19.9425   17.6365 C   0  0  0  0  0  0  0  0  0  0  0  0
  -28.5210  -21.4030   22.4872 C   0  0  0  0  0  0  0  0  0  1  0  0
  -21.4837  -16.5515   20.1056 C   0  0  1  0  0  0  0  0  0  0  0  0
  -19.0819  -17.6770   22.8138 C   0  0  2  0  0  0  0  0  0  0  0  0
  -20.9648  -16.1747   18.6892 C   0  0  0  0  0  0  0  0  0  0  0  0
  -32.3666  -21.7751   20.3213 N   0  0  0  0  0  0  0  0  0  0  0  0
  -32.3752  -21.4081   19.0117 N   0  0  0  0  0  0  0  0  0  0  0  0
  -27.1570  -28.5351   20.6954 N   0  0  0  0  0  0  0  0  0  0  0  0
  -26.7569  -27.8207   19.6297 N   0  0  0  0  0  0  0  0  0  0  0  0
  -23.7620  -16.0492   20.9308 N   0  0  0  0  0  0  0  0  0  0  0  0
  -28.5618  -24.5258   18.9332 N   0  0  0  0  0  0  0  0  0  0  0  0
  -24.9097  -27.4396   18.1967 N   0  0  0  0  0  0  0  0  0  0  0  0
  -23.3611  -30.5423   21.0900 N   0  0  0  0  0  0  0  0  0  0  0  0
  -26.5860  -13.8943   20.1075 N   0  0  0  0  0  0  0  0  0  0  0  0
  -20.4373  -16.6578   21.1166 N   0  0  0  0  0  0  0  0  0  0  0  0
  -28.9808  -22.4067   17.9062 N   0  0  0  0  0  0  0  0  0  0  0  0
  -27.0446  -18.4868   17.8051 N   0  3  0  0  0  0  0  0  0  0  0  0
  -19.3445  -18.4886   24.0358 N   0  3  0  0  0  0  0  0  0  0  0  0
  -22.8126  -29.2474   19.2786 O   0  0  0  0  0  0  0  0  0  0  0  0
  -25.2618  -15.4256   18.9567 O   0  0  0  0  0  0  0  0  0  0  0  0
  -22.1420  -14.3782   20.7909 O   0  0  0  0  0  0  0  0  0  0  0  0
  -20.8721  -18.8590   21.7023 O   0  0  0  0  0  0  0  0  0  0  0  0
  -26.9452  -23.4865   17.6472 O   0  0  0  0  0  0  0  0  0  0  0  0
  -26.1992  -32.8185   25.3089 O   0  0  0  0  0  0  0  0  0  0  0  0
  -27.3333  -21.0023   21.8052 O   0  0  0  0  0  0  0  0  0  1  0  0
  -24.0924  -37.8543   24.5306 F   0  0  0  0  0  0  0  0  0  0  0  0
  -27.7657  -35.0750   25.6203 F   0  0  0  0  0  0  0  0  0  0  0  0
  1  2  1  0  0  0  0
  1  5  2  0  0  0  0
  2  6  2  0  0  0  0
  3  8  2  0  0  0  0
  3 17  1  0  0  0  0
  4  9  1  0  0  0  0
  4 17  2  0  0  0  0
  5 19  1  0  0  0  0
  6 21  1  0  0  0  0
  7 10  2  0  0  0  0
  7 20  1  0  0  0  0
  8 25  1  0  0  0  0
  9 25  2  0  0  0  0
 10 26  1  0  0  0  0
 11 12  2  0  0  0  0
 11 27  1  0  0  0  0
 12 28  1  0  0  0  0
 13 22  1  0  0  0  0
 13 26  2  0  0  0  0
 14 28  2  0  0  0  0
 14 29  1  0  0  0  0
 15 23  1  0  0  0  0
 15 63  2  0  0  0  0
 16 24  1  0  0  0  0
 16 64  2  0  0  0  0
 17 30  1  0  0  0  0
 18 30  1  0  0  0  0
 18 31  2  0  0  0  0
 18 32  1  0  0  0  0
 19 21  2  0  0  0  0
 19 37  1  0  0  0  0
 20 22  2  0  0  0  0
 20 38  1  0  0  0  0
 21 46  1  0  0  0  0
 22 39  1  0  0  0  0
 23 24  2  0  0  0  0
 23 54  1  0  0  0  0
 24 73  1  0  0  0  0
 25 81  1  0  0  0  0
 26 82  1  0  0  0  0
 27 29  2  0  0  0  0
 27 81  1  0  0  0  0
 28 83  1  0  0  0  0
 29 84  1  0  0  0  0
 30 65  2  0  0  0  0
 31 66  1  0  0  0  0
 31 69  1  0  0  0  0
 32 70  1  0  0  0  0
 32 76  2  0  0  0  0
 33 47  1  0  0  0  0
 33 71  1  0  0  0  0
 33 77  2  0  0  0  0
 34 60  1  0  0  0  0
 34 67  1  0  0  0  0
 34 78  2  0  0  0  0
 35 61  1  0  0  0  0
 35 72  1  0  0  0  0
 35 79  2  0  0  0  0
 36 68  1  0  0  0  0
 36 73  1  0  0  0  0
 36 80  2  0  0  0  0
 37 40  1  0  0  0  0
 38 47  1  0  0  0  0
 39 67  1  0  0  0  0
 40 42  1  0  0  0  0
 41 43  1  0  0  0  0
 41 44  1  0  0  0  0
 42 46  1  0  0  0  0
 43 48  1  0  0  0  0
 44 68  1  0  0  0  0
 45 48  1  0  0  0  0
 45 68  1  0  0  0  0
 46 71  1  0  0  0  0
 47 67  1  0  0  0  0
 48 66  1  0  0  0  0
 49 61  1  0  0  0  0
 50 62  1  0  0  0  0
 51 62  1  0  0  0  0
 52 62  1  0  0  0  0
 53 75  1  0  0  0  0
 54 55  1  0  0  0  0
 55 59  1  0  0  0  0
 56 57  1  0  0  0  0
 56 58  1  0  0  0  0
 57 73  1  0  0  0  0
 58 74  1  0  0  0  0
 59 82  1  0  0  0  0
 60 62  1  0  0  0  0
 60 72  1  0  0  0  0
 61 75  1  0  0  0  0
 63 64  1  0  0  0  0
 65 66  1  0  0  0  0
M  CHG  2  74   1  75   1
M  ISO  4  36 100  59 101  73 100  82 101
M  END
> <Batch ID>
0098

> <Smiles>
CNC(C)C(=O)NC(C(=O)N1Cc2cc([101O:1][101CH2:1]CCc3cnncc3[100N:0](CCCN)[100C:0](=O)N3CCCC(n4nc(-c5ccc(Oc6ccc(F)cc6F)cc5)c(C(N)=O)c4N)C3)ccc2CC1C(=O)NC1CCCc2ccccc21)C(C)(C)C

> <Shape>
0.272

> <Color>
0.043

> <Negative vol penalty>
0.000

$$$$

  -OEChem-04052319293D

 86 94  0     1  0  0  0  0  0999 V2000
  -21.7337  -12.4713   19.3601 C   0  0  0  0  0  0  0  0  0  0  0  0
  -21.7313  -13.7734   19.8497 C   0  0  0  0  0  0  0  0  0  0  0  0
  -29.6619  -28.0624   20.3477 C   0  0  0  0  0  0  0  0  0  0  0  0
  -28.6187  -26.4824   21.8485 C   0  0  0  0  0  0  0  0  0  0  0  0
  -22.8800  -11.6861   19.4765 C   0  0  0  0  0  0  0  0  0  0  0  0
  -22.8749  -14.2909   20.4570 C   0  0  0  0  0  0  0  0  0  0  0  0
  -23.9431  -18.9904   18.9017 C   0  0  0  0  0  0  0  0  0  0  0  0
  -30.9198  -27.6104   20.7461 C   0  0  0  0  0  0  0  0  0  0  0  0
  -29.8767  -26.0303   22.2469 C   0  0  0  0  0  0  0  0  0  0  0  0
  -23.1911  -20.0287   19.4495 C   0  0  0  0  0  0  0  0  0  0  0  0
  -32.8170  -24.7080   23.9250 C   0  0  0  0  0  0  0  0  0  0  0  0
  -33.0368  -24.5218   25.2898 C   0  0  0  0  0  0  0  0  0  0  0  0
  -24.9936  -20.5210   20.9753 C   0  0  0  0  0  0  0  0  0  0  0  0
  -32.5687  -26.8591   25.6840 C   0  0  0  0  0  0  0  0  0  0  0  0
  -20.1959  -26.2451   22.4977 C   0  0  0  0  0  0  0  0  0  0  0  0
  -28.5113  -27.4984   20.8989 C   0  0  0  0  0  0  0  0  0  0  0  0
  -26.4281  -27.4741   19.4267 C   0  0  0  0  0  0  0  0  0  0  0  0
  -24.0414  -12.1975   20.0768 C   0  0  0  0  0  0  0  0  0  0  0  0
  -25.2238  -18.7021   19.3947 C   0  0  0  0  0  0  0  0  0  0  0  0
  -24.0374  -13.5114   20.5827 C   0  0  0  0  0  0  0  0  0  0  0  0
  -25.7608  -19.4801   20.4303 C   0  0  0  0  0  0  0  0  0  0  0  0
  -19.2305  -26.9387   21.8018 C   0  0  0  0  0  0  0  0  0  0  0  0
  -18.9379  -26.1970   20.6308 C   0  0  0  0  0  0  0  0  0  0  0  0
  -31.0273  -26.5943   21.6957 C   0  0  0  0  0  0  0  0  0  0  0  0
  -23.7152  -20.7924   20.4884 C   0  0  0  0  0  0  0  0  0  0  0  0
  -32.4732  -25.9698   23.4397 C   0  0  0  0  0  0  0  0  0  0  0  0
  -32.9126  -25.5974   26.1693 C   0  0  0  0  0  0  0  0  0  0  0  0
  -32.3491  -27.0453   24.3191 C   0  0  0  0  0  0  0  0  0  0  0  0
  -27.2115  -27.9654   20.4882 C   0  0  0  0  0  0  0  0  0  0  0  0
  -19.7334  -25.0725   20.6468 C   0  0  0  0  0  0  0  0  0  0  0  0
  -25.2926  -28.2464   19.4520 C   0  0  0  0  0  0  0  0  0  0  0  0
  -26.7022  -26.4143   18.5008 C   0  0  0  0  0  0  0  0  0  0  0  0
  -26.5749  -16.1889   20.7955 C   0  0  0  0  0  0  0  0  0  0  0  0
  -29.2725  -17.9663   20.5015 C   0  0  0  0  0  0  0  0  0  0  0  0
  -30.6854  -21.0558   20.1771 C   0  0  0  0  0  0  0  0  0  0  0  0
  -21.1560  -30.7279   22.2585 C   0  0  0  0  0  0  0  0  0  0  0  0
  -25.2410  -11.2951   20.2223 C   0  0  0  0  0  0  0  0  0  0  0  0
  -26.0328  -17.5958   18.7750 C   0  0  0  0  0  0  0  0  0  0  0  0
  -27.1389  -19.2243   20.9816 C   0  0  0  0  0  0  0  0  0  0  0  0
  -26.5316  -12.0445   20.5430 C   0  0  0  0  0  0  0  0  0  0  0  0
  -24.2464  -32.4793   22.0160 C   0  0  0  0  0  0  0  0  0  0  0  0
  -26.2955  -13.0635   21.6533 C   0  0  0  0  0  0  0  0  0  0  0  0
  -25.2293  -31.4194   21.5156 C   0  0  0  0  0  0  0  0  0  0  0  0
  -23.2219  -31.8879   22.9817 C   0  0  0  0  0  0  0  0  0  0  0  0
  -23.4718  -29.6565   21.9657 C   0  0  0  0  0  0  0  0  0  0  0  0
  -25.2664  -14.1168   21.2256 C   0  0  1  0  0  0  0  0  0  0  0  0
  -27.1212  -17.0608   19.7005 C   0  0  1  0  0  0  0  0  0  0  0  0
  -24.4901  -30.1939   20.9455 C   0  0  2  0  0  0  0  0  0  0  0  0
  -17.9606  -26.5601   19.5840 C   0  0  0  0  0  0  0  0  0  0  0  0
  -20.3148  -24.4249   18.2811 C   0  0  0  0  0  0  0  0  0  0  0  0
  -18.5170  -23.1704   19.5258 C   0  0  0  0  0  0  0  0  0  0  0  0
  -32.9151  -22.1934   19.9997 C   0  0  0  0  0  0  0  0  0  0  0  0
  -23.6460  -25.3817   22.0716 C   0  0  0  0  0  0  0  0  0  0  0  0
  -29.7106  -17.5689   23.4949 C   0  0  0  0  0  0  0  0  0  0  0  0
  -31.3546  -19.4562   23.4340 C   0  0  0  0  0  0  0  0  0  0  0  0
  -31.7816  -17.3891   22.1045 C   0  0  0  0  0  0  0  0  0  0  0  0
  -30.0434  -22.1523   17.5042 C   0  0  0  0  0  0  0  0  0  0  0  0
  -18.6204  -28.2196   22.2110 C   0  0  0  0  0  0  0  0  0  0  0  0
  -21.5081  -24.0781   22.2097 C   0  0  0  0  0  0  0  0  0  0  0  0
  -19.1808  -29.4479   21.4715 C   0  0  0  0  0  0  0  0  0  0  0  0
  -23.7039  -22.9170   21.5569 C   0  0  0  0  0  0  0  0  0  1  0  0
  -19.8356  -23.9625   19.6758 C   0  0  0  0  0  0  0  0  0  0  0  0
  -29.9752  -18.9924   21.3572 C   0  0  1  0  0  0  0  0  0  0  0  0
  -31.7524  -21.5814   19.2339 C   0  0  2  0  0  0  0  0  0  0  0  0
  -22.8644  -24.2015   21.4827 C   0  0  2  0  0  0  0  0  0  0  0  0
  -30.6787  -18.3555   22.5888 C   0  0  0  0  0  0  0  0  0  0  0  0
  -26.6236  -28.9720   21.1401 N   0  0  0  0  0  0  0  0  0  0  0  0
  -20.4937  -25.1122   21.7863 N   0  0  0  0  0  0  0  0  0  0  0  0
  -25.4586  -29.1196   20.4865 N   0  0  0  0  0  0  0  0  0  0  0  0
  -27.8883  -18.1276   20.3468 N   0  0  0  0  0  0  0  0  0  0  0  0
  -22.5554  -30.7305   22.3799 N   0  0  0  0  0  0  0  0  0  0  0  0
  -24.1784  -28.2571   18.6899 N   0  0  0  0  0  0  0  0  0  0  0  0
  -27.9162  -25.7236   18.6162 N   0  0  0  0  0  0  0  0  0  0  0  0
  -25.8745  -15.0877   20.3413 N   0  0  0  0  0  0  0  0  0  0  0  0
  -30.8725  -19.7208   20.4669 N   0  0  0  0  0  0  0  0  0  0  0  0
  -20.6053  -29.5955   21.6711 N   0  0  0  0  0  0  0  0  0  0  0  0
  -31.1812  -22.6237   18.3349 N   0  3  0  0  0  0  0  0  0  0  0  0
  -25.9017  -26.1003   17.5875 O   0  0  0  0  0  0  0  0  0  0  0  0
  -26.7753  -16.4920   21.9659 O   0  0  0  0  0  0  0  0  0  0  0  0
  -29.9286  -17.0592   19.9835 O   0  0  0  0  0  0  0  0  0  0  0  0
  -29.7788  -21.7600   20.6161 O   0  0  0  0  0  0  0  0  0  0  0  0
  -20.4502  -31.6677   22.6400 O   0  0  0  0  0  0  0  0  0  0  0  0
  -32.2546  -26.1528   22.0845 O   0  0  0  0  0  0  0  0  0  0  0  0
  -22.9831  -21.8061   21.0254 O   0  0  0  0  0  0  0  0  0  1  0  0
  -33.1221  -25.4181   27.4801 F   0  0  0  0  0  0  0  0  0  0  0  0
  -32.0179  -28.2595   23.8589 F   0  0  0  0  0  0  0  0  0  0  0  0
  1  2  1  0  0  0  0
  1  5  2  0  0  0  0
  2  6  2  0  0  0  0
  3  8  2  0  0  0  0
  3 16  1  0  0  0  0
  4  9  1  0  0  0  0
  4 16  2  0  0  0  0
  5 18  1  0  0  0  0
  6 20  1  0  0  0  0
  7 10  2  0  0  0  0
  7 19  1  0  0  0  0
  8 24  1  0  0  0  0
  9 24  2  0  0  0  0
 10 25  1  0  0  0  0
 11 12  2  0  0  0  0
 11 26  1  0  0  0  0
 12 27  1  0  0  0  0
 13 21  1  0  0  0  0
 13 25  2  0  0  0  0
 14 27  2  0  0  0  0
 14 28  1  0  0  0  0
 15 22  2  0  0  0  0
 15 68  1  0  0  0  0
 16 29  1  0  0  0  0
 17 29  1  0  0  0  0
 17 31  2  0  0  0  0
 17 32  1  0  0  0  0
 18 20  2  0  0  0  0
 18 37  1  0  0  0  0
 19 21  2  0  0  0  0
 19 38  1  0  0  0  0
 20 46  1  0  0  0  0
 21 39  1  0  0  0  0
 22 23  1  0  0  0  0
 22 58  1  0  0  0  0
 23 30  2  0  0  0  0
 23 49  1  0  0  0  0
 24 83  1  0  0  0  0
 25 84  1  0  0  0  0
 26 28  2  0  0  0  0
 26 83  1  0  0  0  0
 27 85  1  0  0  0  0
 28 86  1  0  0  0  0
 29 67  2  0  0  0  0
 30 62  1  0  0  0  0
 30 68  1  0  0  0  0
 31 69  1  0  0  0  0
 31 72  1  0  0  0  0
 32 73  1  0  0  0  0
 32 78  2  0  0  0  0
 33 47  1  0  0  0  0
 33 74  1  0  0  0  0
 33 79  2  0  0  0  0
 34 63  1  0  0  0  0
 34 70  1  0  0  0  0
 34 80  2  0  0  0  0
 35 64  1  0  0  0  0
 35 75  1  0  0  0  0
 35 81  2  0  0  0  0
 36 71  1  0  0  0  0
 36 76  1  0  0  0  0
 36 82  2  0  0  0  0
 37 40  1  0  0  0  0
 38 47  1  0  0  0  0
 39 70  1  0  0  0  0
 40 42  1  0  0  0  0
 41 43  1  0  0  0  0
 41 44  1  0  0  0  0
 42 46  1  0  0  0  0
 43 48  1  0  0  0  0
 44 71  1  0  0  0  0
 45 48  1  0  0  0  0
 45 71  1  0  0  0  0
 46 74  1  0  0  0  0
 47 70  1  0  0  0  0
 48 69  1  0  0  0  0
 50 62  1  0  0  0  0
 51 62  1  0  0  0  0
 52 64  1  0  0  0  0
 53 65  1  0  0  0  0
 54 66  1  0  0  0  0
 55 66  1  0  0  0  0
 56 66  1  0  0  0  0
 57 77  1  0  0  0  0
 58 60  1  0  0  0  0
 59 65  1  0  0  0  0
 59 68  1  0  0  0  0
 60 76  1  0  0  0  0
 61 65  1  0  0  0  0
 61 84  1  0  0  0  0
 63 66  1  0  0  0  0
 63 75  1  0  0  0  0
 64 77  1  0  0  0  0
 67 69  1  0  0  0  0
M  CHG  1  77   1
M  ISO  4  36 100  61 101  76 100  84 101
M  END
> <Batch ID>
0098

> <Smiles>
CNC(C)C(=O)NC(C(=O)N1Cc2cc([101O:1][101CH2:1]C(C)Cn3cc(CC[100NH:0][100C:0](=O)N4CCCC(n5nc(-c6ccc(Oc7ccc(F)cc7F)cc6)c(C(N)=O)c5N)C4)c(C)c3C(C)C)ccc2CC1C(=O)NC1CCCc2ccccc21)C(C)(C)C

> <Shape>
0.239

> <Color>
0.073

> <Negative vol penalty>
0.000

$$$$

  -OEChem-04052319293D

 81 89  0     1  0  0  0  0  0999 V2000
  -19.8635  -28.7757   25.9160 C   0  0  0  0  0  0  0  0  0  0  0  0
  -21.1815  -28.3363   25.8434 C   0  0  0  0  0  0  0  0  0  0  0  0
  -24.5432  -14.2569   21.3277 C   0  0  0  0  0  0  0  0  0  0  0  0
  -26.9365  -13.9276   21.2991 C   0  0  0  0  0  0  0  0  0  0  0  0
  -19.0404  -28.6958   24.7935 C   0  0  0  0  0  0  0  0  0  0  0  0
  -21.6769  -27.8157   24.6484 C   0  0  0  0  0  0  0  0  0  0  0  0
  -27.3726  -28.3770   22.4690 C   0  0  0  0  0  0  0  0  0  0  0  0
  -24.3609  -12.9780   20.8016 C   0  0  0  0  0  0  0  0  0  0  0  0
  -26.7542  -12.6486   20.7731 C   0  0  0  0  0  0  0  0  0  0  0  0
  -28.4754  -27.5246   22.4960 C   0  0  0  0  0  0  0  0  0  0  0  0
  -24.3883   -9.7919   21.9334 C   0  0  0  0  0  0  0  0  0  0  0  0
  -23.4044   -8.9882   22.5094 C   0  0  0  0  0  0  0  0  0  0  0  0
  -27.9054  -26.7273   20.2917 C   0  0  0  0  0  0  0  0  0  0  0  0
  -31.6588  -23.4530   20.5314 C   0  0  0  0  0  0  0  0  0  0  0  0
  -22.2661   -8.8573   20.3824 C   0  0  0  0  0  0  0  0  0  0  0  0
  -32.6353  -23.4315   22.7000 C   0  0  0  0  0  0  0  0  0  0  0  0
  -25.8310  -14.7317   21.5764 C   0  0  0  0  0  0  0  0  0  0  0  0
  -26.0858  -16.4120   23.4789 C   0  0  0  0  0  0  0  0  0  0  0  0
  -19.5288  -28.1828   23.5815 C   0  0  0  0  0  0  0  0  0  0  0  0
  -26.5202  -28.4032   21.3559 C   0  0  0  0  0  0  0  0  0  0  0  0
  -20.8591  -27.7276   23.5090 C   0  0  0  0  0  0  0  0  0  0  0  0
  -26.7938  -27.5829   20.2521 C   0  0  0  0  0  0  0  0  0  0  0  0
  -32.1694  -24.1577   21.6158 C   0  0  0  0  0  0  0  0  0  0  0  0
  -31.6300  -22.0632   20.5639 C   0  0  0  0  0  0  0  0  0  0  0  0
  -25.4664  -12.1738   20.5244 C   0  0  0  0  0  0  0  0  0  0  0  0
  -28.7403  -26.6974   21.4084 C   0  0  0  0  0  0  0  0  0  0  0  0
  -24.3109  -10.1284   20.5819 C   0  0  0  0  0  0  0  0  0  0  0  0
  -22.3434   -8.5209   21.7339 C   0  0  0  0  0  0  0  0  0  0  0  0
  -23.2499   -9.6610   19.8064 C   0  0  0  0  0  0  0  0  0  0  0  0
  -26.0200  -16.0530   22.1192 C   0  0  0  0  0  0  0  0  0  0  0  0
  -32.1201  -21.4308   21.6951 C   0  0  0  0  0  0  0  0  0  0  0  0
  -26.2738  -17.7725   23.4660 C   0  0  0  0  0  0  0  0  0  0  0  0
  -25.9861  -15.5892   24.6488 C   0  0  0  0  0  0  0  0  0  0  0  0
  -23.4450  -27.7621   20.8699 C   0  0  0  0  0  0  0  0  0  0  0  0
  -24.0803  -28.8937   17.8970 C   0  0  0  0  0  0  0  0  0  0  0  0
  -26.3914  -29.4983   15.4597 C   0  0  0  0  0  0  0  0  0  0  0  0
  -28.6101  -21.5280   19.4301 C   0  0  0  0  0  0  0  0  0  0  0  0
  -18.5876  -28.0725   22.4082 C   0  0  0  0  0  0  0  0  0  0  0  0
  -25.3499  -29.3478   21.3314 C   0  0  0  0  0  0  0  0  0  0  0  0
  -25.9211  -27.5879   19.0246 C   0  0  0  0  0  0  0  0  0  0  0  0
  -19.2988  -27.8550   21.0751 C   0  0  0  0  0  0  0  0  0  0  0  0
  -25.3403  -21.6567   20.8331 C   0  0  0  0  0  0  0  0  0  0  0  0
  -20.3649  -26.7723   21.2093 C   0  0  0  0  0  0  0  0  0  0  0  0
  -25.1497  -20.2675   21.4445 C   0  0  0  0  0  0  0  0  0  0  0  0
  -26.1359  -21.5959   19.5310 C   0  0  0  0  0  0  0  0  0  0  0  0
  -27.2421  -19.5112   20.2410 C   0  0  0  0  0  0  0  0  0  0  0  0
  -21.4403  -27.1796   22.2237 C   0  0  1  0  0  0  0  0  0  0  0  0
  -24.2561  -28.9189   20.3583 C   0  0  1  0  0  0  0  0  0  0  0  0
  -26.4935  -19.5274   21.5847 C   0  0  2  0  0  0  0  0  0  0  0  0
  -26.6042  -30.3951   13.1257 C   0  0  0  0  0  0  0  0  0  0  0  0
  -22.9146  -26.2978   16.7958 C   0  0  0  0  0  0  0  0  0  0  0  0
  -23.9998  -26.8229   14.6015 C   0  0  0  0  0  0  0  0  0  0  0  0
  -22.2627  -28.3537   15.5299 C   0  0  0  0  0  0  0  0  0  0  0  0
  -28.1949  -31.6749   16.3363 C   0  0  0  0  0  0  0  0  0  0  0  0
  -32.2160  -25.6664   21.6111 C   0  0  0  0  0  0  0  0  0  0  0  0
  -31.0823  -21.3123   19.3989 C   0  0  0  0  0  0  0  0  0  0  0  0
  -30.9490  -26.2874   22.1892 C   0  0  0  0  0  0  0  0  0  1  0  0
  -24.5526  -28.2839   16.5993 C   0  0  1  0  0  0  0  0  0  0  0  0
  -26.6603  -30.7263   14.6089 C   0  0  2  0  0  0  0  0  0  0  0  0
  -23.4480  -27.4378   15.9054 C   0  0  0  0  0  0  0  0  0  0  0  0
  -32.6237  -22.0814   22.7678 N   0  0  0  0  0  0  0  0  0  0  0  0
  -26.1550  -17.1009   21.3021 N   0  0  0  0  0  0  0  0  0  0  0  0
  -26.3074  -18.1317   22.1507 N   0  0  0  0  0  0  0  0  0  0  0  0
  -24.7853  -28.5243   19.0512 N   0  0  0  0  0  0  0  0  0  0  0  0
  -27.3996  -20.8829   19.7327 N   0  0  0  0  0  0  0  0  0  0  0  0
  -26.4117  -18.6846   24.4516 N   0  0  0  0  0  0  0  0  0  0  0  0
  -25.7937  -14.2110   24.4820 N   0  0  0  0  0  0  0  0  0  0  0  0
  -22.3555  -28.1334   21.6345 N   0  0  0  0  0  0  0  0  0  0  0  0
  -25.0571  -29.3875   15.7894 N   0  0  0  0  0  0  0  0  0  0  0  0
  -29.7614  -20.7835   19.6562 N   0  0  0  0  0  0  0  0  0  0  0  0
  -28.0079  -31.2839   14.9153 N   0  3  0  0  0  0  0  0  0  0  0  0
  -26.0488  -16.0645   25.8080 O   0  0  0  0  0  0  0  0  0  0  0  0
  -23.7819  -26.6175   20.5904 O   0  0  0  0  0  0  0  0  0  0  0  0
  -23.1256  -29.6748   17.8859 O   0  0  0  0  0  0  0  0  0  0  0  0
  -27.2758  -28.7135   15.7950 O   0  0  0  0  0  0  0  0  0  0  0  0
  -28.6614  -22.6838   18.9959 O   0  0  0  0  0  0  0  0  0  0  0  0
  -25.2889  -10.9257   20.0113 O   0  0  0  0  0  0  0  0  0  0  0  0
  -29.8158  -25.8639   21.4324 O   0  0  0  0  0  0  0  0  0  1  0  0
  -21.3995   -7.7478   22.2868 F   0  0  0  0  0  0  0  0  0  0  0  0
  -23.1709   -9.9800   18.5072 F   0  0  0  0  0  0  0  0  0  0  0  0
  -32.1396  -19.7180   21.8537 Cl  0  0  0  0  0  0  0  0  0  0  0  0
  1  2  1  0  0  0  0
  1  5  2  0  0  0  0
  2  6  2  0  0  0  0
  3  8  2  0  0  0  0
  3 17  1  0  0  0  0
  4  9  1  0  0  0  0
  4 17  2  0  0  0  0
  5 19  1  0  0  0  0
  6 21  1  0  0  0  0
  7 10  2  0  0  0  0
  7 20  1  0  0  0  0
  8 25  1  0  0  0  0
  9 25  2  0  0  0  0
 10 26  1  0  0  0  0
 11 12  2  0  0  0  0
 11 27  1  0  0  0  0
 12 28  1  0  0  0  0
 13 22  1  0  0  0  0
 13 26  2  0  0  0  0
 14 23  2  0  0  0  0
 14 24  1  0  0  0  0
 15 28  2  0  0  0  0
 15 29  1  0  0  0  0
 16 23  1  0  0  0  0
 16 61  2  0  0  0  0
 17 30  1  0  0  0  0
 18 30  1  0  0  0  0
 18 32  2  0  0  0  0
 18 33  1  0  0  0  0
 19 21  2  0  0  0  0
 19 38  1  0  0  0  0
 20 22  2  0  0  0  0
 20 39  1  0  0  0  0
 21 47  1  0  0  0  0
 22 40  1  0  0  0  0
 23 55  1  0  0  0  0
 24 31  2  0  0  0  0
 24 56  1  0  0  0  0
 25 77  1  0  0  0  0
 26 78  1  0  0  0  0
 27 29  2  0  0  0  0
 27 77  1  0  0  0  0
 28 79  1  0  0  0  0
 29 80  1  0  0  0  0
 30 62  2  0  0  0  0
 31 61  1  0  0  0  0
 31 81  1  0  0  0  0
 32 63  1  0  0  0  0
 32 66  1  0  0  0  0
 33 67  1  0  0  0  0
 33 72  2  0  0  0  0
 34 48  1  0  0  0  0
 34 68  1  0  0  0  0
 34 73  2  0  0  0  0
 35 58  1  0  0  0  0
 35 64  1  0  0  0  0
 35 74  2  0  0  0  0
 36 59  1  0  0  0  0
 36 69  1  0  0  0  0
 36 75  2  0  0  0  0
 37 65  1  0  0  0  0
 37 70  1  0  0  0  0
 37 76  2  0  0  0  0
 38 41  1  0  0  0  0
 39 48  1  0  0  0  0
 40 64  1  0  0  0  0
 41 43  1  0  0  0  0
 42 44  1  0  0  0  0
 42 45  1  0  0  0  0
 43 47  1  0  0  0  0
 44 49  1  0  0  0  0
 45 65  1  0  0  0  0
 46 49  1  0  0  0  0
 46 65  1  0  0  0  0
 47 68  1  0  0  0  0
 48 64  1  0  0  0  0
 49 63  1  0  0  0  0
 50 59  1  0  0  0  0
 51 60  1  0  0  0  0
 52 60  1  0  0  0  0
 53 60  1  0  0  0  0
 54 71  1  0  0  0  0
 55 57  1  0  0  0  0
 56 70  1  0  0  0  0
 57 78  1  0  0  0  0
 58 60  1  0  0  0  0
 58 69  1  0  0  0  0
 59 71  1  0  0  0  0
 62 63  1  0  0  0  0
M  CHG  1  71   1
M  ISO  4  37 100  57 101  70 100  78 101
M  END
> <Batch ID>
0098

> <Smiles>
CNC(C)C(=O)NC(C(=O)N1Cc2cc([101O:1][101CH2:1]Cc3cnc(Cl)c(C[100NH:0][100C:0](=O)N4CCCC(n5nc(-c6ccc(Oc7ccc(F)cc7F)cc6)c(C(N)=O)c5N)C4)c3)ccc2CC1C(=O)NC1CCCc2ccccc21)C(C)(C)C

> <Shape>
0.199

> <Color>
0.077

> <Negative vol penalty>
0.000

$$$$

  -OEChem-04052319293D

 87 95  0     1  0  0  0  0  0999 V2000
  -17.4592  -26.2568   23.4719 C   0  0  0  0  0  0  0  0  0  0  0  0
  -18.6939  -25.7842   23.0387 C   0  0  0  0  0  0  0  0  0  0  0  0
  -25.2395  -14.8832   22.2421 C   0  0  0  0  0  0  0  0  0  0  0  0
  -26.5001  -15.3355   20.2313 C   0  0  0  0  0  0  0  0  0  0  0  0
  -17.1274  -27.5996   23.2964 C   0  0  0  0  0  0  0  0  0  0  0  0
  -19.5971  -26.6540   22.4287 C   0  0  0  0  0  0  0  0  0  0  0  0
  -25.7045  -26.5165   22.8605 C   0  0  0  0  0  0  0  0  0  0  0  0
  -25.2707  -13.5186   21.9548 C   0  0  0  0  0  0  0  0  0  0  0  0
  -26.5314  -13.9709   19.9440 C   0  0  0  0  0  0  0  0  0  0  0  0
  -26.6928  -26.0032   22.0216 C   0  0  0  0  0  0  0  0  0  0  0  0
  -24.7094   -9.9473   21.5626 C   0  0  0  0  0  0  0  0  0  0  0  0
  -23.5247   -9.2253   21.7069 C   0  0  0  0  0  0  0  0  0  0  0  0
  -26.9926  -28.1895   21.0472 C   0  0  0  0  0  0  0  0  0  0  0  0
  -24.4987  -25.2838   16.9870 C   0  0  0  0  0  0  0  0  0  0  0  0
  -22.4622  -10.6399   20.0617 C   0  0  0  0  0  0  0  0  0  0  0  0
  -26.2482  -23.8664   16.9646 C   0  0  0  0  0  0  0  0  0  0  0  0
  -25.8541  -15.7917   21.3803 C   0  0  0  0  0  0  0  0  0  0  0  0
  -26.7594  -17.9339   22.4287 C   0  0  0  0  0  0  0  0  0  0  0  0
  -18.0309  -28.4884   22.6927 C   0  0  0  0  0  0  0  0  0  0  0  0
  -25.3446  -27.8700   22.7912 C   0  0  0  0  0  0  0  0  0  0  0  0
  -19.2766  -28.0097   22.2438 C   0  0  0  0  0  0  0  0  0  0  0  0
  -26.0012  -28.7180   21.8880 C   0  0  0  0  0  0  0  0  0  0  0  0
  -24.8786  -23.9279   16.8310 C   0  0  0  0  0  0  0  0  0  0  0  0
  -25.9167  -13.0625   20.8058 C   0  0  0  0  0  0  0  0  0  0  0  0
  -27.3350  -26.8391   21.1128 C   0  0  0  0  0  0  0  0  0  0  0  0
  -24.7705  -11.0157   20.6679 C   0  0  0  0  0  0  0  0  0  0  0  0
  -22.4011   -9.5716   20.9564 C   0  0  0  0  0  0  0  0  0  0  0  0
  -23.6469  -11.3620   19.9174 C   0  0  0  0  0  0  0  0  0  0  0  0
  -25.8217  -17.2014   21.6763 C   0  0  0  0  0  0  0  0  0  0  0  0
  -25.6478  -26.0097   17.2111 C   0  0  0  0  0  0  0  0  0  0  0  0
  -26.2795  -19.2208   22.4163 C   0  0  0  0  0  0  0  0  0  0  0  0
  -27.9571  -17.4907   23.0804 C   0  0  0  0  0  0  0  0  0  0  0  0
  -22.6764  -29.4485   22.0891 C   0  0  0  0  0  0  0  0  0  0  0  0
  -24.4284  -32.0270   22.9858 C   0  0  0  0  0  0  0  0  0  0  0  0
  -27.5103  -33.4291   23.4132 C   0  0  0  0  0  0  0  0  0  0  0  0
  -22.7254  -22.2110   18.6377 C   0  0  0  0  0  0  0  0  0  0  0  0
  -17.6089  -29.9209   22.4820 C   0  0  0  0  0  0  0  0  0  0  0  0
  -24.2953  -28.4139   23.7216 C   0  0  0  0  0  0  0  0  0  0  0  0
  -25.6658  -30.1829   21.7885 C   0  0  0  0  0  0  0  0  0  0  0  0
  -18.7714  -30.8580   22.1649 C   0  0  0  0  0  0  0  0  0  0  0  0
  -22.1925  -21.6904   22.1193 C   0  0  0  0  0  0  0  0  0  0  0  0
  -19.6793  -30.2427   21.1048 C   0  0  0  0  0  0  0  0  0  0  0  0
  -23.1468  -20.5470   22.4685 C   0  0  0  0  0  0  0  0  0  0  0  0
  -21.5897  -21.5172   20.7270 C   0  0  0  0  0  0  0  0  0  0  0  0
  -23.5283  -20.1834   19.9944 C   0  0  0  0  0  0  0  0  0  0  0  0
  -20.2931  -28.9275   21.6001 C   0  0  1  0  0  0  0  0  0  0  0  0
  -23.6482  -29.6964   23.2079 C   0  0  1  0  0  0  0  0  0  0  0  0
  -24.2043  -20.3431   21.3669 C   0  0  2  0  0  0  0  0  0  0  0  0
  -28.6220  -35.5638   24.1234 C   0  0  0  0  0  0  0  0  0  0  0  0
  -26.7129  -32.0967   15.5854 C   0  0  0  0  0  0  0  0  0  0  0  0
  -25.2950  -30.5410   14.2327 C   0  0  0  0  0  0  0  0  0  0  0  0
  -30.3244  -25.1009   18.5912 C   0  0  0  0  0  0  0  0  0  0  0  0
  -23.7139  -33.2892   20.3014 C   0  0  0  0  0  0  0  0  0  0  0  0
  -25.5689  -34.9322   20.6591 C   0  0  0  0  0  0  0  0  0  0  0  0
  -23.6446  -34.8616   22.2449 C   0  0  0  0  0  0  0  0  0  0  0  0
  -28.8902  -32.0966   25.6670 C   0  0  0  0  0  0  0  0  0  0  0  0
  -23.9750  -22.7905   16.5733 C   0  0  0  0  0  0  0  0  0  0  0  0
  -25.8243  -27.4589   17.4386 C   0  0  0  0  0  0  0  0  0  0  0  0
  -26.0454  -28.2945   16.1563 C   0  0  0  0  0  0  0  0  0  0  0  0
  -26.2841  -29.7796   16.4577 C   0  0  0  0  0  0  0  0  0  0  0  0
  -28.1553  -25.5027   17.3985 C   0  0  0  0  0  0  0  0  0  0  0  0
  -28.1832  -24.9705   19.9108 C   0  0  0  0  0  0  0  0  0  1  0  0
  -25.3477  -32.9933   22.2786 C   0  0  1  0  0  0  0  0  0  0  0  0
  -28.1131  -34.2027   24.5719 C   0  0  2  0  0  0  0  0  0  0  0  0
  -26.4821  -30.6354   15.1922 C   0  0  0  0  0  0  0  0  0  0  0  0
  -28.8389  -24.7247   18.5434 C   0  0  2  0  0  0  0  0  0  0  0  0
  -24.5740  -33.9911   21.3713 C   0  0  0  0  0  0  0  0  0  0  0  0
  -24.8217  -17.9599   21.2194 N   0  0  0  0  0  0  0  0  0  0  0  0
  -26.7050  -25.1378   17.1950 N   0  0  0  0  0  0  0  0  0  0  0  0
  -25.1283  -19.1823   21.6860 N   0  0  0  0  0  0  0  0  0  0  0  0
  -24.6286  -30.6660   22.7150 N   0  0  0  0  0  0  0  0  0  0  0  0
  -22.6452  -21.3299   19.7287 N   0  0  0  0  0  0  0  0  0  0  0  0
  -26.7342  -20.3702   22.9591 N   0  0  0  0  0  0  0  0  0  0  0  0
  -28.3028  -16.1353   22.9932 N   0  0  0  0  0  0  0  0  0  0  0  0
  -21.3860  -29.1914   22.5113 N   0  0  0  0  0  0  0  0  0  0  0  0
  -26.1494  -33.6293   23.3184 N   0  0  0  0  0  0  0  0  0  0  0  0
  -23.7590  -21.9666   17.7417 N   0  0  0  0  0  0  0  0  0  0  0  0
  -29.2530  -33.4461   25.1627 N   0  3  0  0  0  0  0  0  0  0  0  0
  -28.6901  -18.2703   23.7350 O   0  0  0  0  0  0  0  0  0  0  0  0
  -23.0680  -29.4889   20.9286 O   0  0  0  0  0  0  0  0  0  0  0  0
  -23.5692  -32.4632   23.7559 O   0  0  0  0  0  0  0  0  0  0  0  0
  -28.1804  -32.7211   22.6647 O   0  0  0  0  0  0  0  0  0  0  0  0
  -21.9378  -23.1495   18.4771 O   0  0  0  0  0  0  0  0  0  0  0  0
  -25.9476  -11.7310   20.5252 O   0  0  0  0  0  0  0  0  0  0  0  0
  -28.2995  -26.3406   20.2924 O   0  0  0  0  0  0  0  0  0  1  0  0
  -21.2640   -8.8772   21.0940 F   0  0  0  0  0  0  0  0  0  0  0  0
  -23.6999  -12.3866   19.0554 F   0  0  0  0  0  0  0  0  0  0  0  0
  1  2  1  0  0  0  0
  1  5  2  0  0  0  0
  2  6  2  0  0  0  0
  3  8  2  0  0  0  0
  3 17  1  0  0  0  0
  4  9  1  0  0  0  0
  4 17  2  0  0  0  0
  5 19  1  0  0  0  0
  6 21  1  0  0  0  0
  7 10  2  0  0  0  0
  7 20  1  0  0  0  0
  8 24  1  0  0  0  0
  9 24  2  0  0  0  0
 10 25  1  0  0  0  0
 11 12  2  0  0  0  0
 11 26  1  0  0  0  0
 12 27  1  0  0  0  0
 13 22  1  0  0  0  0
 13 25  2  0  0  0  0
 14 23  1  0  0  0  0
 14 30  2  0  0  0  0
 15 27  2  0  0  0  0
 15 28  1  0  0  0  0
 16 23  2  0  0  0  0
 16 69  1  0  0  0  0
 17 29  1  0  0  0  0
 18 29  1  0  0  0  0
 18 31  2  0  0  0  0
 18 32  1  0  0  0  0
 19 21  2  0  0  0  0
 19 37  1  0  0  0  0
 20 22  2  0  0  0  0
 20 38  1  0  0  0  0
 21 46  1  0  0  0  0
 22 39  1  0  0  0  0
 23 57  1  0  0  0  0
 24 84  1  0  0  0  0
 25 85  1  0  0  0  0
 26 28  2  0  0  0  0
 26 84  1  0  0  0  0
 27 86  1  0  0  0  0
 28 87  1  0  0  0  0
 29 68  2  0  0  0  0
 30 58  1  0  0  0  0
 30 69  1  0  0  0  0
 31 70  1  0  0  0  0
 31 73  1  0  0  0  0
 32 74  1  0  0  0  0
 32 79  2  0  0  0  0
 33 47  1  0  0  0  0
 33 75  1  0  0  0  0
 33 80  2  0  0  0  0
 34 63  1  0  0  0  0
 34 71  1  0  0  0  0
 34 81  2  0  0  0  0
 35 64  1  0  0  0  0
 35 76  1  0  0  0  0
 35 82  2  0  0  0  0
 36 72  1  0  0  0  0
 36 77  1  0  0  0  0
 36 83  2  0  0  0  0
 37 40  1  0  0  0  0
 38 47  1  0  0  0  0
 39 71  1  0  0  0  0
 40 42  1  0  0  0  0
 41 43  1  0  0  0  0
 41 44  1  0  0  0  0
 42 46  1  0  0  0  0
 43 48  1  0  0  0  0
 44 72  1  0  0  0  0
 45 48  1  0  0  0  0
 45 72  1  0  0  0  0
 46 75  1  0  0  0  0
 47 71  1  0  0  0  0
 48 70  1  0  0  0  0
 49 64  1  0  0  0  0
 50 65  1  0  0  0  0
 51 65  1  0  0  0  0
 52 66  1  0  0  0  0
 53 67  1  0  0  0  0
 54 67  1  0  0  0  0
 55 67  1  0  0  0  0
 56 78  1  0  0  0  0
 57 77  1  0  0  0  0
 58 59  1  0  0  0  0
 59 60  1  0  0  0  0
 60 65  1  0  0  0  0
 61 66  1  0  0  0  0
 61 69  1  0  0  0  0
 62 66  1  0  0  0  0
 62 85  1  0  0  0  0
 63 67  1  0  0  0  0
 63 76  1  0  0  0  0
 64 78  1  0  0  0  0
 68 70  1  0  0  0  0
M  CHG  1  78   1
M  ISO  4  36 100  62 101  77 100  85 101
M  END
> <Batch ID>
0098

> <Smiles>
CNC(C)C(=O)NC(C(=O)N1Cc2cc([101O:1][101CH2:1]C(C)Cn3cc(C[100NH:0][100C:0](=O)N4CCCC(n5nc(-c6ccc(Oc7ccc(F)cc7F)cc6)c(C(N)=O)c5N)C4)cc3CCCC(C)C)ccc2CC1C(=O)NC1CCCc2ccccc21)C(C)(C)C

> <Shape>
0.217

> <Color>
0.087

> <Negative vol penalty>
0.000

$$$$

  -OEChem-04052319293D

 89 97  0     1  0  0  0  0  0999 V2000
  -22.5561  -29.6839   18.4289 C   0  0  0  0  0  0  0  0  0  0  0  0
  -23.2303  -28.4802   18.2505 C   0  0  0  0  0  0  0  0  0  0  0  0
  -23.4665   -9.6142   20.1075 C   0  0  0  0  0  0  0  0  0  0  0  0
  -23.8528  -10.0230   22.4571 C   0  0  0  0  0  0  0  0  0  0  0  0
  -22.9860  -30.5848   19.4023 C   0  0  0  0  0  0  0  0  0  0  0  0
  -24.3356  -28.1771   19.0447 C   0  0  0  0  0  0  0  0  0  0  0  0
  -26.0018  -22.6460   21.0785 C   0  0  0  0  0  0  0  0  0  0  0  0
  -22.8216   -8.4179   20.4216 C   0  0  0  0  0  0  0  0  0  0  0  0
  -23.2078   -8.8268   22.7713 C   0  0  0  0  0  0  0  0  0  0  0  0
  -26.9427  -21.7234   20.6232 C   0  0  0  0  0  0  0  0  0  0  0  0
  -21.3453   -6.0577   24.2138 C   0  0  0  0  0  0  0  0  0  0  0  0
  -20.4241   -6.0723   25.2612 C   0  0  0  0  0  0  0  0  0  0  0  0
  -28.5463  -22.5874   22.2047 C   0  0  0  0  0  0  0  0  0  0  0  0
  -27.6705  -18.4036   23.2205 C   0  0  0  0  0  0  0  0  0  0  0  0
  -19.1077   -7.7184   24.0803 C   0  0  0  0  0  0  0  0  0  0  0  0
  -23.9822  -10.4167   21.1252 C   0  0  0  0  0  0  0  0  0  0  0  0
  -24.0640  -12.9265   20.6759 C   0  0  0  0  0  0  0  0  0  0  0  0
  -24.0912  -30.2883   20.2155 C   0  0  0  0  0  0  0  0  0  0  0  0
  -26.3301  -23.5550   22.0946 C   0  0  0  0  0  0  0  0  0  0  0  0
  -24.7815  -29.0754   20.0291 C   0  0  0  0  0  0  0  0  0  0  0  0
  -27.6069  -23.5188   22.6729 C   0  0  0  0  0  0  0  0  0  0  0  0
  -27.4528  -17.8243   24.4949 C   0  0  0  0  0  0  0  0  0  0  0  0
  -22.6922   -8.0243   21.7535 C   0  0  0  0  0  0  0  0  0  0  0  0
  -28.2161  -21.6960   21.1843 C   0  0  0  0  0  0  0  0  0  0  0  0
  -21.1477   -6.8735   23.0997 C   0  0  0  0  0  0  0  0  0  0  0  0
  -19.3053   -6.9027   25.1944 C   0  0  0  0  0  0  0  0  0  0  0  0
  -20.0289   -7.7038   23.0330 C   0  0  0  0  0  0  0  0  0  0  0  0
  -24.6490  -11.6522   20.8013 C   0  0  0  0  0  0  0  0  0  0  0  0
  -28.7226  -17.7322   22.6378 C   0  0  0  0  0  0  0  0  0  0  0  0
  -28.3788  -16.8167   24.6523 C   0  0  0  0  0  0  0  0  0  0  0  0
  -25.1122  -13.7560   20.3601 C   0  0  0  0  0  0  0  0  0  0  0  0
  -22.6954  -13.3248   20.8311 C   0  0  0  0  0  0  0  0  0  0  0  0
  -26.4986  -26.7223   22.3023 C   0  0  0  0  0  0  0  0  0  0  0  0
  -27.0390  -26.0982   25.4393 C   0  0  0  0  0  0  0  0  0  0  0  0
  -28.1161  -23.8931   27.8109 C   0  0  0  0  0  0  0  0  0  0  0  0
  -31.0903  -12.8994   21.3932 C   0  0  0  0  0  0  0  0  0  0  0  0
  -24.5475  -31.3141   21.2225 C   0  0  0  0  0  0  0  0  0  0  0  0
  -25.2953  -24.5261   22.5931 C   0  0  0  0  0  0  0  0  0  0  0  0
  -28.0028  -24.4598   23.7803 C   0  0  0  0  0  0  0  0  0  0  0  0
  -25.4991  -30.7525   22.2757 C   0  0  0  0  0  0  0  0  0  0  0  0
  -29.3859  -13.7613   18.2223 C   0  0  0  0  0  0  0  0  0  0  0  0
  -26.5809  -29.9015   21.6182 C   0  0  0  0  0  0  0  0  0  0  0  0
  -27.9397  -13.3550   18.5004 C   0  0  0  0  0  0  0  0  0  0  0  0
  -30.3749  -12.9274   19.0312 C   0  0  0  0  0  0  0  0  0  0  0  0
  -28.6668  -12.5294   20.7742 C   0  0  0  0  0  0  0  0  0  0  0  0
  -25.9696  -28.6997   20.8878 C   0  0  1  0  0  0  0  0  0  0  0  0
  -25.9022  -25.7470   23.2774 C   0  0  1  0  0  0  0  0  0  0  0  0
  -27.6429  -13.3819   20.0099 C   0  0  2  0  0  0  0  0  0  0  0  0
  -28.5993  -15.8942   25.7865 C   0  0  0  0  0  0  0  0  0  0  0  0
  -24.6664  -16.4574   24.6544 C   0  0  0  0  0  0  0  0  0  0  0  0
  -28.5783  -22.9791   30.1018 C   0  0  0  0  0  0  0  0  0  0  0  0
  -25.4855  -19.4237   25.0276 C   0  0  0  0  0  0  0  0  0  0  0  0
  -29.5585  -27.8048   25.2159 C   0  0  0  0  0  0  0  0  0  0  0  0
  -30.3469  -26.7985   27.3685 C   0  0  0  0  0  0  0  0  0  0  0  0
  -28.2493  -28.1477   27.3190 C   0  0  0  0  0  0  0  0  0  0  0  0
  -31.9291  -13.5387   23.6219 C   0  0  0  0  0  0  0  0  0  0  0  0
  -25.4178  -22.6926   28.0030 C   0  0  0  0  0  0  0  0  0  0  0  0
  -29.3696  -17.9335   21.2907 C   0  0  0  0  0  0  0  0  0  0  0  0
  -25.4377  -17.0366   25.8377 C   0  0  0  0  0  0  0  0  0  0  0  0
  -30.5315  -18.9290   21.3082 C   0  0  0  0  0  0  0  0  0  0  0  0
  -30.2351  -15.8460   23.2826 C   0  0  0  0  0  0  0  0  0  0  0  0
  -29.7593  -14.4514   22.8839 C   0  0  0  0  0  0  0  0  0  0  0  0
  -27.0416  -18.6664   26.8585 C   0  0  0  0  0  0  0  0  0  0  0  0
  -30.1083  -20.3445   21.6833 C   0  0  0  0  0  0  0  0  0  1  0  0
  -28.2646  -25.8416   26.2826 C   0  0  1  0  0  0  0  0  0  0  0  0
  -27.5091  -23.4596   29.1330 C   0  0  2  0  0  0  0  0  0  0  0  0
  -26.4207  -18.2313   25.4691 C   0  0  1  0  0  0  0  0  0  0  0  0
  -29.0983  -27.1316   26.5243 C   0  0  0  0  0  0  0  0  0  0  0  0
  -25.9666  -11.6660   20.5828 N   0  0  0  0  0  0  0  0  0  0  0  0
  -29.1454  -16.7700   23.5173 N   0  0  0  0  0  0  0  0  0  0  0  0
  -26.2182  -12.9591   20.3169 N   0  0  0  0  0  0  0  0  0  0  0  0
  -26.9580  -25.3950   24.2290 N   0  0  0  0  0  0  0  0  0  0  0  0
  -30.0442  -12.9352   20.4566 N   0  0  0  0  0  0  0  0  0  0  0  0
  -25.1865  -15.0820   20.1179 N   0  0  0  0  0  0  0  0  0  0  0  0
  -21.7473  -12.3453   21.1566 N   0  0  0  0  0  0  0  0  0  0  0  0
  -25.6050  -27.6660   21.8327 N   0  0  0  0  0  0  0  0  0  0  0  0
  -27.7925  -25.1978   27.5036 N   0  0  0  0  0  0  0  0  0  0  0  0
  -30.8701  -13.5386   22.6226 N   0  0  0  0  0  0  0  0  0  0  0  0
  -27.9594  -19.8245   26.6994 N   0  3  0  0  0  0  0  0  0  0  0  0
  -26.5371  -22.3506   28.9179 N   0  3  0  0  0  0  0  0  0  0  0  0
  -22.3217  -14.5112   20.6693 O   0  0  0  0  0  0  0  0  0  0  0  0
  -27.6822  -26.6267   21.9996 O   0  0  0  0  0  0  0  0  0  0  0  0
  -26.1817  -26.8878   25.8430 O   0  0  0  0  0  0  0  0  0  0  0  0
  -28.8112  -23.1500   27.1216 O   0  0  0  0  0  0  0  0  0  0  0  0
  -32.1635  -12.3368   21.1410 O   0  0  0  0  0  0  0  0  0  0  0  0
  -22.0627   -6.8572   22.0604 O   0  0  0  0  0  0  0  0  0  0  0  0
  -29.1366  -20.7969   20.7412 O   0  0  0  0  0  0  0  0  0  1  0  0
  -18.4201   -6.9155   26.1995 F   0  0  0  0  0  0  0  0  0  0  0  0
  -19.8330   -8.4889   21.9647 F   0  0  0  0  0  0  0  0  0  0  0  0
  1  2  1  0  0  0  0
  1  5  2  0  0  0  0
  2  6  2  0  0  0  0
  3  8  2  0  0  0  0
  3 16  1  0  0  0  0
  4  9  1  0  0  0  0
  4 16  2  0  0  0  0
  5 18  1  0  0  0  0
  6 20  1  0  0  0  0
  7 10  2  0  0  0  0
  7 19  1  0  0  0  0
  8 23  1  0  0  0  0
  9 23  2  0  0  0  0
 10 24  1  0  0  0  0
 11 12  2  0  0  0  0
 11 25  1  0  0  0  0
 12 26  1  0  0  0  0
 13 21  1  0  0  0  0
 13 24  2  0  0  0  0
 14 22  1  0  0  0  0
 14 29  2  0  0  0  0
 15 26  2  0  0  0  0
 15 27  1  0  0  0  0
 16 28  1  0  0  0  0
 17 28  1  0  0  0  0
 17 31  2  0  0  0  0
 17 32  1  0  0  0  0
 18 20  2  0  0  0  0
 18 37  1  0  0  0  0
 19 21  2  0  0  0  0
 19 38  1  0  0  0  0
 20 46  1  0  0  0  0
 21 39  1  0  0  0  0
 22 30  2  0  0  0  0
 22 67  1  0  0  0  0
 23 86  1  0  0  0  0
 24 87  1  0  0  0  0
 25 27  2  0  0  0  0
 25 86  1  0  0  0  0
 26 88  1  0  0  0  0
 27 89  1  0  0  0  0
 28 69  2  0  0  0  0
 29 58  1  0  0  0  0
 29 70  1  0  0  0  0
 30 49  1  0  0  0  0
 30 70  1  0  0  0  0
 31 71  1  0  0  0  0
 31 74  1  0  0  0  0
 32 75  1  0  0  0  0
 32 81  2  0  0  0  0
 33 47  1  0  0  0  0
 33 76  1  0  0  0  0
 33 82  2  0  0  0  0
 34 65  1  0  0  0  0
 34 72  1  0  0  0  0
 34 83  2  0  0  0  0
 35 66  1  0  0  0  0
 35 77  1  0  0  0  0
 35 84  2  0  0  0  0
 36 73  1  0  0  0  0
 36 78  1  0  0  0  0
 36 85  2  0  0  0  0
 37 40  1  0  0  0  0
 38 47  1  0  0  0  0
 39 72  1  0  0  0  0
 40 42  1  0  0  0  0
 41 43  1  0  0  0  0
 41 44  1  0  0  0  0
 42 46  1  0  0  0  0
 43 48  1  0  0  0  0
 44 73  1  0  0  0  0
 45 48  1  0  0  0  0
 45 73  1  0  0  0  0
 46 76  1  0  0  0  0
 47 72  1  0  0  0  0
 48 71  1  0  0  0  0
 50 59  1  0  0  0  0
 51 66  1  0  0  0  0
 52 67  1  0  0  0  0
 53 68  1  0  0  0  0
 54 68  1  0  0  0  0
 55 68  1  0  0  0  0
 56 78  1  0  0  0  0
 57 80  1  0  0  0  0
 58 60  1  0  0  0  0
 59 67  1  0  0  0  0
 60 64  1  0  0  0  0
 61 62  1  0  0  0  0
 61 70  1  0  0  0  0
 62 78  1  0  0  0  0
 63 67  1  0  0  0  0
 63 79  1  0  0  0  0
 64 87  1  0  0  0  0
 65 68  1  0  0  0  0
 65 77  1  0  0  0  0
 66 80  1  0  0  0  0
 69 71  1  0  0  0  0
M  CHG  2  79   1  80   1
M  ISO  4  36 100  64 101  78 100  87 101
M  END
> <Batch ID>
0098

> <Smiles>
CCC(C)(CN)c1cc(CC[101CH2:1][101O:1]c2ccc3c(c2)CN(C(=O)C(NC(=O)C(C)NC)C(C)(C)C)C(C(=O)NC2CCCc4ccccc42)C3)n(CC[100N:0](C)[100C:0](=O)N2CCCC(n3nc(-c4ccc(Oc5ccc(F)cc5F)cc4)c(C(N)=O)c3N)C2)c1C

> <Shape>
0.229

> <Color>
0.179

> <Negative vol penalty>
0.000

$$$$

  -OEChem-04052319293D

 79 86  0     1  0  0  0  0  0999 V2000
  -30.3108  -24.3003   17.8187 C   0  0  0  0  0  0  0  0  0  0  0  0
  -29.0603  -24.3261   18.4279 C   0  0  0  0  0  0  0  0  0  0  0  0
  -26.3088  -13.4277   20.0579 C   0  0  0  0  0  0  0  0  0  0  0  0
  -23.9016  -13.4957   20.2528 C   0  0  0  0  0  0  0  0  0  0  0  0
  -31.3442  -25.0927   18.3169 C   0  0  0  0  0  0  0  0  0  0  0  0
  -28.8429  -25.1437   19.5364 C   0  0  0  0  0  0  0  0  0  0  0  0
  -24.4721  -27.6851   19.2483 C   0  0  0  0  0  0  0  0  0  0  0  0
  -26.3349  -12.2434   20.7943 C   0  0  0  0  0  0  0  0  0  0  0  0
  -23.9278  -12.3113   20.9892 C   0  0  0  0  0  0  0  0  0  0  0  0
  -23.3059  -26.9820   19.5471 C   0  0  0  0  0  0  0  0  0  0  0  0
  -24.2317   -9.0027   20.3718 C   0  0  0  0  0  0  0  0  0  0  0  0
  -23.3008   -8.0169   20.0441 C   0  0  0  0  0  0  0  0  0  0  0  0
  -23.2959  -27.9495   21.7569 C   0  0  0  0  0  0  0  0  0  0  0  0
  -22.3972   -8.1263   22.2821 C   0  0  0  0  0  0  0  0  0  0  0  0
  -25.0921  -14.0540   19.7872 C   0  0  0  0  0  0  0  0  0  0  0  0
  -24.9547  -15.4082   17.6297 C   0  0  0  0  0  0  0  0  0  0  0  0
  -31.1365  -25.9277   19.4261 C   0  0  0  0  0  0  0  0  0  0  0  0
  -25.0661  -28.5186   20.2069 C   0  0  0  0  0  0  0  0  0  0  0  0
  -29.8748  -25.9470   20.0507 C   0  0  0  0  0  0  0  0  0  0  0  0
  -24.4683  -28.6641   21.4669 C   0  0  0  0  0  0  0  0  0  0  0  0
  -25.1445  -11.6852   21.2599 C   0  0  0  0  0  0  0  0  0  0  0  0
  -22.7192  -27.1119   20.8025 C   0  0  0  0  0  0  0  0  0  0  0  0
  -24.2454   -9.5502   21.6547 C   0  0  0  0  0  0  0  0  0  0  0  0
  -22.3836   -7.5787   20.9992 C   0  0  0  0  0  0  0  0  0  0  0  0
  -23.3281   -9.1120   22.6098 C   0  0  0  0  0  0  0  0  0  0  0  0
  -25.0644  -15.2777   19.0271 C   0  0  0  0  0  0  0  0  0  0  0  0
  -24.9743  -16.7636   17.4088 C   0  0  0  0  0  0  0  0  0  0  0  0
  -24.8450  -14.3947   16.6215 C   0  0  0  0  0  0  0  0  0  0  0  0
  -27.8687  -28.5718   21.7057 C   0  0  0  0  0  0  0  0  0  0  0  0
  -26.7582  -31.3931   22.8587 C   0  0  0  0  0  0  0  0  0  0  0  0
  -24.0727  -33.3640   23.6004 C   0  0  0  0  0  0  0  0  0  0  0  0
  -23.5562  -21.1922   21.3197 C   0  0  0  0  0  0  0  0  0  0  0  0
  -32.2972  -26.7306   19.9577 C   0  0  0  0  0  0  0  0  0  0  0  0
  -26.3092  -29.2910   19.8599 C   0  0  0  0  0  0  0  0  0  0  0  0
  -25.0551  -29.5620   22.5242 C   0  0  0  0  0  0  0  0  0  0  0  0
  -31.8791  -27.8511   20.9063 C   0  0  0  0  0  0  0  0  0  0  0  0
  -26.6461  -20.8437   19.2405 C   0  0  0  0  0  0  0  0  0  0  0  0
  -30.8699  -27.3367   21.9280 C   0  0  0  0  0  0  0  0  0  0  0  0
  -26.5985  -19.3562   18.8947 C   0  0  0  0  0  0  0  0  0  0  0  0
  -25.9697  -21.1213   20.5776 C   0  0  0  0  0  0  0  0  0  0  0  0
  -24.5033  -19.1479   20.3094 C   0  0  0  0  0  0  0  0  0  0  0  0
  -29.5929  -26.8395   21.2399 C   0  0  1  0  0  0  0  0  0  0  0  0
  -27.1124  -29.7129   21.0864 C   0  0  1  0  0  0  0  0  0  0  0  0
  -25.1571  -18.8229   18.9560 C   0  0  2  0  0  0  0  0  0  0  0  0
  -23.4791  -35.6023   24.5674 C   0  0  0  0  0  0  0  0  0  0  0  0
  -27.3438  -30.3354   25.6602 C   0  0  0  0  0  0  0  0  0  0  0  0
  -25.8892  -32.1557   26.5759 C   0  0  0  0  0  0  0  0  0  0  0  0
  -27.9545  -32.7339   25.3019 C   0  0  0  0  0  0  0  0  0  0  0  0
  -20.4199  -24.3534   24.0489 C   0  0  0  0  0  0  0  0  0  0  0  0
  -19.2185  -24.9300   21.9252 C   0  0  0  0  0  0  0  0  0  0  0  0
  -24.2126  -23.4723   20.4424 C   0  0  0  0  0  0  0  0  0  0  0  0
  -22.7705  -34.2333   21.0890 C   0  0  0  0  0  0  0  0  0  0  0  0
  -22.7533  -23.2481   22.4189 C   0  0  0  0  0  0  0  0  0  0  0  0
  -21.3828  -26.0516   22.4596 C   0  0  0  0  0  0  0  0  0  1  0  0
  -25.9519  -31.8123   24.0641 C   0  0  1  0  0  0  0  0  0  0  0  0
  -23.7789  -34.8221   23.2969 C   0  0  2  0  0  0  0  0  0  0  0  0
  -21.3926  -23.6013   21.8248 C   0  0  2  0  0  0  0  0  0  0  0  0
  -26.7746  -31.7408   25.3815 C   0  0  0  0  0  0  0  0  0  0  0  0
  -20.6034  -24.7174   22.5634 C   0  0  0  0  0  0  0  0  0  0  0  0
  -25.1476  -16.4563   19.6501 N   0  0  0  0  0  0  0  0  0  0  0  0
  -25.0903  -17.3402   18.6394 N   0  0  0  0  0  0  0  0  0  0  0  0
  -26.2747  -30.2912   22.1390 N   0  0  0  0  0  0  0  0  0  0  0  0
  -24.6064  -20.5758   20.6196 N   0  0  0  0  0  0  0  0  0  0  0  0
  -24.9035  -17.5067   16.2840 N   0  0  0  0  0  0  0  0  0  0  0  0
  -24.8402  -13.0516   17.0219 N   0  0  0  0  0  0  0  0  0  0  0  0
  -28.7615  -27.9575   20.8484 N   0  0  0  0  0  0  0  0  0  0  0  0
  -25.4233  -33.1378   23.7609 N   0  0  0  0  0  0  0  0  0  0  0  0
  -23.5967  -22.5902   21.4311 N   0  0  0  0  0  0  0  0  0  0  0  0
  -22.6037  -34.9353   22.3876 N   0  3  0  0  0  0  0  0  0  0  0  0
  -24.7703  -14.6715   15.4003 O   0  0  0  0  0  0  0  0  0  0  0  0
  -27.6588  -28.2718   22.8751 O   0  0  0  0  0  0  0  0  0  0  0  0
  -27.7755  -32.0246   22.5623 O   0  0  0  0  0  0  0  0  0  0  0  0
  -23.1917  -32.5117   23.6901 O   0  0  0  0  0  0  0  0  0  0  0  0
  -22.6301  -20.5318   21.8077 O   0  0  0  0  0  0  0  0  0  0  0  0
  -25.1696  -10.5294   21.9782 O   0  0  0  0  0  0  0  0  0  0  0  0
  -21.5812  -26.4262   21.0970 O   0  0  0  0  0  0  0  0  0  1  0  0
  -21.4887   -6.6332   20.6840 F   0  0  0  0  0  0  0  0  0  0  0  0
  -23.3356   -9.6351   23.8436 F   0  0  0  0  0  0  0  0  0  0  0  0
  -20.6342  -22.4619   21.8493 F   0  0  0  0  0  0  0  0  0  0  0  0
  1  2  1  0  0  0  0
  1  5  2  0  0  0  0
  2  6  2  0  0  0  0
  3  8  2  0  0  0  0
  3 15  1  0  0  0  0
  4  9  1  0  0  0  0
  4 15  2  0  0  0  0
  5 17  1  0  0  0  0
  6 19  1  0  0  0  0
  7 10  2  0  0  0  0
  7 18  1  0  0  0  0
  8 21  1  0  0  0  0
  9 21  2  0  0  0  0
 10 22  1  0  0  0  0
 11 12  2  0  0  0  0
 11 23  1  0  0  0  0
 12 24  1  0  0  0  0
 13 20  1  0  0  0  0
 13 22  2  0  0  0  0
 14 24  2  0  0  0  0
 14 25  1  0  0  0  0
 15 26  1  0  0  0  0
 16 26  1  0  0  0  0
 16 27  2  0  0  0  0
 16 28  1  0  0  0  0
 17 19  2  0  0  0  0
 17 33  1  0  0  0  0
 18 20  2  0  0  0  0
 18 34  1  0  0  0  0
 19 42  1  0  0  0  0
 20 35  1  0  0  0  0
 21 75  1  0  0  0  0
 22 76  1  0  0  0  0
 23 25  2  0  0  0  0
 23 75  1  0  0  0  0
 24 77  1  0  0  0  0
 25 78  1  0  0  0  0
 26 60  2  0  0  0  0
 27 61  1  0  0  0  0
 27 64  1  0  0  0  0
 28 65  1  0  0  0  0
 28 70  2  0  0  0  0
 29 43  1  0  0  0  0
 29 66  1  0  0  0  0
 29 71  2  0  0  0  0
 30 55  1  0  0  0  0
 30 62  1  0  0  0  0
 30 72  2  0  0  0  0
 31 56  1  0  0  0  0
 31 67  1  0  0  0  0
 31 73  2  0  0  0  0
 32 63  1  0  0  0  0
 32 68  1  0  0  0  0
 32 74  2  0  0  0  0
 33 36  1  0  0  0  0
 34 43  1  0  0  0  0
 35 62  1  0  0  0  0
 36 38  1  0  0  0  0
 37 39  1  0  0  0  0
 37 40  1  0  0  0  0
 38 42  1  0  0  0  0
 39 44  1  0  0  0  0
 40 63  1  0  0  0  0
 41 44  1  0  0  0  0
 41 63  1  0  0  0  0
 42 66  1  0  0  0  0
 43 62  1  0  0  0  0
 44 61  1  0  0  0  0
 45 56  1  0  0  0  0
 46 58  1  0  0  0  0
 47 58  1  0  0  0  0
 48 58  1  0  0  0  0
 49 59  1  0  0  0  0
 50 59  1  0  0  0  0
 51 68  1  0  0  0  0
 52 69  1  0  0  0  0
 53 57  1  0  0  0  0
 53 68  1  0  0  0  0
 54 59  1  0  0  0  0
 54 76  1  0  0  0  0
 55 58  1  0  0  0  0
 55 67  1  0  0  0  0
 56 69  1  0  0  0  0
 57 59  1  0  0  0  0
 57 79  1  0  0  0  0
 60 61  1  0  0  0  0
M  CHG  1  69   1
M  ISO  4  32 100  54 101  68 100  76 101
M  END
> <Batch ID>
0098

> <Smiles>
CNC(C)C(=O)NC(C(=O)N1Cc2cc([101O:1][101CH2:1]C(C)(C)C(F)C[100N:0](C)[100C:0](=O)N3CCCC(n4nc(-c5ccc(Oc6ccc(F)cc6F)cc5)c(C(N)=O)c4N)C3)ccc2CC1C(=O)NC1CCCc2ccccc21)C(C)(C)C

> <Shape>
0.254

> <Color>
0.079

> <Negative vol penalty>
0.000

$$$$

  -OEChem-04052319293D

 86 94  0     1  0  0  0  0  0999 V2000
  -28.7681  -18.4544   21.1746 C   0  0  0  0  0  0  0  0  0  0  0  0
  -29.0997  -17.1069   21.2724 C   0  0  0  0  0  0  0  0  0  0  0  0
  -23.2840   -9.7980   19.9101 C   0  0  0  0  0  0  0  0  0  0  0  0
  -23.7185   -9.9404   22.2824 C   0  0  0  0  0  0  0  0  0  0  0  0
  -29.1881  -19.3477   22.1593 C   0  0  0  0  0  0  0  0  0  0  0  0
  -29.8527  -16.6520   22.3543 C   0  0  0  0  0  0  0  0  0  0  0  0
  -29.3643  -11.2300   25.1595 C   0  0  0  0  0  0  0  0  0  0  0  0
  -22.5509   -8.6291   20.1145 C   0  0  0  0  0  0  0  0  0  0  0  0
  -22.9853   -8.7715   22.4869 C   0  0  0  0  0  0  0  0  0  0  0  0
  -30.0889  -10.0447   25.0424 C   0  0  0  0  0  0  0  0  0  0  0  0
  -20.8665   -5.4095   19.9695 C   0  0  0  0  0  0  0  0  0  0  0  0
  -21.0927   -4.3404   19.1027 C   0  0  0  0  0  0  0  0  0  0  0  0
  -31.4447  -10.6941   26.9290 C   0  0  0  0  0  0  0  0  0  0  0  0
  -23.4107   -4.2807   19.7814 C   0  0  0  0  0  0  0  0  0  0  0  0
  -33.8344  -11.6254   23.8181 C   0  0  0  0  0  0  0  0  0  0  0  0
  -23.8679  -10.4536   20.9941 C   0  0  0  0  0  0  0  0  0  0  0  0
  -24.1401  -12.9821   20.7933 C   0  0  0  0  0  0  0  0  0  0  0  0
  -29.9384  -18.9019   23.2588 C   0  0  0  0  0  0  0  0  0  0  0  0
  -29.6821  -12.1628   26.1572 C   0  0  0  0  0  0  0  0  0  0  0  0
  -30.2843  -17.5404   23.3539 C   0  0  0  0  0  0  0  0  0  0  0  0
  -30.7209  -11.8893   27.0583 C   0  0  0  0  0  0  0  0  0  0  0  0
  -34.0169  -12.2224   22.5903 C   0  0  0  0  0  0  0  0  0  0  0  0
  -34.9799  -11.4577   21.8869 C   0  0  0  0  0  0  0  0  0  0  0  0
  -22.4015   -8.1158   21.4029 C   0  0  0  0  0  0  0  0  0  0  0  0
  -31.1311   -9.7779   25.9254 C   0  0  0  0  0  0  0  0  0  0  0  0
  -21.9124   -5.9144   20.7422 C   0  0  0  0  0  0  0  0  0  0  0  0
  -22.3648   -3.7759   19.0087 C   0  0  0  0  0  0  0  0  0  0  0  0
  -23.1845   -5.3499   20.6481 C   0  0  0  0  0  0  0  0  0  0  0  0
  -24.6258  -11.6608   20.7835 C   0  0  0  0  0  0  0  0  0  0  0  0
  -35.3566  -10.4165   22.7062 C   0  0  0  0  0  0  0  0  0  0  0  0
  -25.2469  -13.7566   20.5449 C   0  0  0  0  0  0  0  0  0  0  0  0
  -22.8077  -13.4661   21.0078 C   0  0  0  0  0  0  0  0  0  0  0  0
  -30.6779  -15.1814   26.1705 C   0  0  0  0  0  0  0  0  0  0  0  0
  -30.2564  -14.8975   29.3742 C   0  0  0  0  0  0  0  0  0  0  0  0
  -30.0730  -12.8556   32.1026 C   0  0  0  0  0  0  0  0  0  0  0  0
  -30.9951  -12.8313   21.5234 C   0  0  0  0  0  0  0  0  0  0  0  0
  -30.4101  -19.9130   24.2736 C   0  0  0  0  0  0  0  0  0  0  0  0
  -28.8735  -13.4245   26.2870 C   0  0  0  0  0  0  0  0  0  0  0  0
  -31.0887  -12.8488   28.1595 C   0  0  0  0  0  0  0  0  0  0  0  0
  -30.8857  -19.2866   25.5819 C   0  0  0  0  0  0  0  0  0  0  0  0
  -29.4881  -13.6268   18.3307 C   0  0  0  0  0  0  0  0  0  0  0  0
  -31.8097  -18.1053   25.3032 C   0  0  0  0  0  0  0  0  0  0  0  0
  -28.0127  -13.3337   18.6093 C   0  0  0  0  0  0  0  0  0  0  0  0
  -30.3941  -12.6218   19.0359 C   0  0  0  0  0  0  0  0  0  0  0  0
  -28.7054  -12.2324   20.7881 C   0  0  0  0  0  0  0  0  0  0  0  0
  -31.0785  -17.0045   24.5253 C   0  0  1  0  0  0  0  0  0  0  0  0
  -29.6170  -14.5381   27.0181 C   0  0  1  0  0  0  0  0  0  0  0  0
  -27.7384  -13.2274   20.1211 C   0  0  2  0  0  0  0  0  0  0  0  0
  -36.3249   -9.3235   22.4758 C   0  0  0  0  0  0  0  0  0  0  0  0
  -29.7580  -12.9170   34.5914 C   0  0  0  0  0  0  0  0  0  0  0  0
  -37.9219  -12.0353   21.2276 C   0  0  0  0  0  0  0  0  0  0  0  0
  -37.1507  -12.9082   19.0124 C   0  0  0  0  0  0  0  0  0  0  0  0
  -31.9701   -7.1371   23.9319 C   0  0  0  0  0  0  0  0  0  0  0  0
  -33.1308  -15.8638   29.7118 C   0  0  0  0  0  0  0  0  0  0  0  0
  -33.0677  -15.0105   32.0647 C   0  0  0  0  0  0  0  0  0  0  0  0
  -31.5079  -16.8233   31.3550 C   0  0  0  0  0  0  0  0  0  0  0  0
  -27.6049  -11.2297   31.9468 C   0  0  0  0  0  0  0  0  0  0  0  0
  -35.4883  -11.7254   20.5257 C   0  0  0  0  0  0  0  0  0  0  0  0
  -33.3295  -13.4368   22.1074 C   0  0  0  0  0  0  0  0  0  0  0  0
  -34.0284   -8.2598   24.8579 C   0  0  0  0  0  0  0  0  0  0  0  0
  -34.7528   -9.5984   25.0602 C   0  0  0  0  0  0  0  0  0  0  0  0
  -31.1226  -14.4639   30.5322 C   0  0  1  0  0  0  0  0  0  0  0  0
  -29.0715  -12.7832   33.2410 C   0  0  2  0  0  0  0  0  0  0  0  0
  -36.7423  -12.6419   20.4634 C   0  0  0  0  0  0  0  0  0  0  0  0
  -32.5261   -8.3979   24.5816 C   0  0  2  0  0  0  0  0  0  1  0  0
  -32.2018  -15.5230   30.8941 C   0  0  0  0  0  0  0  0  0  0  0  0
  -25.9389  -11.5958   20.5474 N   0  0  0  0  0  0  0  0  0  0  0  0
  -34.6537  -10.5283   23.8774 N   0  0  0  0  0  0  0  0  0  0  0  0
  -26.2876  -12.8860   20.4065 N   0  0  0  0  0  0  0  0  0  0  0  0
  -30.2727  -14.0715   28.2414 N   0  0  0  0  0  0  0  0  0  0  0  0
  -30.0946  -12.5828   20.4743 N   0  0  0  0  0  0  0  0  0  0  0  0
  -25.4217  -15.0905   20.4336 N   0  0  0  0  0  0  0  0  0  0  0  0
  -21.7892  -12.5342   21.2495 N   0  0  0  0  0  0  0  0  0  0  0  0
  -30.2240  -16.2425   25.4105 N   0  0  0  0  0  0  0  0  0  0  0  0
  -30.2115  -14.1417   31.6252 N   0  0  0  0  0  0  0  0  0  0  0  0
  -32.2926  -13.1495   21.1413 N   0  0  0  0  0  0  0  0  0  0  0  0
  -28.3451  -11.4823   33.2099 N   0  3  0  0  0  0  0  0  0  0  0  0
  -22.5256  -14.6877   20.9695 O   0  0  0  0  0  0  0  0  0  0  0  0
  -31.8237  -14.7482   26.2047 O   0  0  0  0  0  0  0  0  0  0  0  0
  -29.5845  -15.9272   29.4739 O   0  0  0  0  0  0  0  0  0  0  0  0
  -30.6752  -11.8704   31.6815 O   0  0  0  0  0  0  0  0  0  0  0  0
  -30.6659  -12.7788   22.7133 O   0  0  0  0  0  0  0  0  0  0  0  0
  -21.6860   -6.9754   21.6028 O   0  0  0  0  0  0  0  0  0  0  0  0
  -31.8404   -8.6220   25.8128 O   0  0  0  0  0  0  0  0  0  1  0  0
  -22.5816   -2.7482   18.1775 F   0  0  0  0  0  0  0  0  0  0  0  0
  -24.1929   -5.8298   21.3888 F   0  0  0  0  0  0  0  0  0  0  0  0
  1  2  1  0  0  0  0
  1  5  2  0  0  0  0
  2  6  2  0  0  0  0
  3  8  2  0  0  0  0
  3 16  1  0  0  0  0
  4  9  1  0  0  0  0
  4 16  2  0  0  0  0
  5 18  1  0  0  0  0
  6 20  1  0  0  0  0
  7 10  2  0  0  0  0
  7 19  1  0  0  0  0
  8 24  1  0  0  0  0
  9 24  2  0  0  0  0
 10 25  1  0  0  0  0
 11 12  2  0  0  0  0
 11 26  1  0  0  0  0
 12 27  1  0  0  0  0
 13 21  1  0  0  0  0
 13 25  2  0  0  0  0
 14 27  2  0  0  0  0
 14 28  1  0  0  0  0
 15 22  2  0  0  0  0
 15 68  1  0  0  0  0
 16 29  1  0  0  0  0
 17 29  1  0  0  0  0
 17 31  2  0  0  0  0
 17 32  1  0  0  0  0
 18 20  2  0  0  0  0
 18 37  1  0  0  0  0
 19 21  2  0  0  0  0
 19 38  1  0  0  0  0
 20 46  1  0  0  0  0
 21 39  1  0  0  0  0
 22 23  1  0  0  0  0
 22 59  1  0  0  0  0
 23 30  2  0  0  0  0
 23 58  1  0  0  0  0
 24 83  1  0  0  0  0
 25 84  1  0  0  0  0
 26 28  2  0  0  0  0
 26 83  1  0  0  0  0
 27 85  1  0  0  0  0
 28 86  1  0  0  0  0
 29 67  2  0  0  0  0
 30 49  1  0  0  0  0
 30 68  1  0  0  0  0
 31 69  1  0  0  0  0
 31 72  1  0  0  0  0
 32 73  1  0  0  0  0
 32 78  2  0  0  0  0
 33 47  1  0  0  0  0
 33 74  1  0  0  0  0
 33 79  2  0  0  0  0
 34 62  1  0  0  0  0
 34 70  1  0  0  0  0
 34 80  2  0  0  0  0
 35 63  1  0  0  0  0
 35 75  1  0  0  0  0
 35 81  2  0  0  0  0
 36 71  1  0  0  0  0
 36 76  1  0  0  0  0
 36 82  2  0  0  0  0
 37 40  1  0  0  0  0
 38 47  1  0  0  0  0
 39 70  1  0  0  0  0
 40 42  1  0  0  0  0
 41 43  1  0  0  0  0
 41 44  1  0  0  0  0
 42 46  1  0  0  0  0
 43 48  1  0  0  0  0
 44 71  1  0  0  0  0
 45 48  1  0  0  0  0
 45 71  1  0  0  0  0
 46 74  1  0  0  0  0
 47 70  1  0  0  0  0
 48 69  1  0  0  0  0
 50 63  1  0  0  0  0
 51 64  1  0  0  0  0
 52 64  1  0  0  0  0
 53 65  1  0  0  0  0
 54 66  1  0  0  0  0
 55 66  1  0  0  0  0
 56 66  1  0  0  0  0
 57 77  1  0  0  0  0
 58 64  1  0  0  0  0
 59 76  1  0  0  0  0
 60 61  1  0  0  0  0
 60 65  1  0  0  0  0
 61 68  1  0  0  0  0
 62 66  1  0  0  0  0
 62 75  1  0  0  0  0
 63 77  1  0  0  0  0
 65 84  1  0  0  0  0
 67 69  1  0  0  0  0
M  CHG  1  77   1
M  ISO  4  36 100  65 101  76 100  84 101
M  END
> <Batch ID>
0098

> <Smiles>
CNC(C)C(=O)NC(C(=O)N1Cc2cc([101O:1][101CH:1](C)CCn3cc(C[100NH:0][100C:0](=O)N4CCCC(n5nc(-c6ccc(Oc7ccc(F)cc7F)cc6)c(C(N)=O)c5N)C4)c(CC(C)C)c3C)ccc2CC1C(=O)NC1CCCc2ccccc21)C(C)(C)C

> <Shape>
0.144

> <Color>
0.177

> <Negative vol penalty>
0.000

$$$$

  -OEChem-04052319293D

 83 91  0     1  0  0  0  0  0999 V2000
  -17.1898  -10.9384   19.8181 C   0  0  0  0  0  0  0  0  0  0  0  0
  -18.3434  -11.7156   19.7948 C   0  0  0  0  0  0  0  0  0  0  0  0
  -22.8062  -10.1357   20.0822 C   0  0  0  0  0  0  0  0  0  0  0  0
  -24.1746   -9.5585   21.9878 C   0  0  0  0  0  0  0  0  0  0  0  0
  -16.4683  -10.7285   18.6436 C   0  0  0  0  0  0  0  0  0  0  0  0
  -18.7768  -12.2825   18.5968 C   0  0  0  0  0  0  0  0  0  0  0  0
  -20.1696  -17.1220   19.1295 C   0  0  0  0  0  0  0  0  0  0  0  0
  -22.0698   -8.9640   20.2561 C   0  0  0  0  0  0  0  0  0  0  0  0
  -23.4381   -8.3867   22.1617 C   0  0  0  0  0  0  0  0  0  0  0  0
  -21.4226  -17.3660   19.6899 C   0  0  0  0  0  0  0  0  0  0  0  0
  -19.5895   -7.8563   22.2696 C   0  0  0  0  0  0  0  0  0  0  0  0
  -18.1999   -7.9461   22.1894 C   0  0  0  0  0  0  0  0  0  0  0  0
  -22.3305  -17.7329   17.4853 C   0  0  0  0  0  0  0  0  0  0  0  0
  -18.2063   -6.3927   20.3390 C   0  0  0  0  0  0  0  0  0  0  0  0
  -27.1458  -17.5099   16.2822 C   0  0  0  0  0  0  0  0  0  0  0  0
  -23.8587  -10.4330   20.9481 C   0  0  0  0  0  0  0  0  0  0  0  0
  -24.1370  -12.9647   20.8050 C   0  0  0  0  0  0  0  0  0  0  0  0
  -16.8878  -11.3011   17.4325 C   0  0  0  0  0  0  0  0  0  0  0  0
  -19.9897  -17.1711   17.7397 C   0  0  0  0  0  0  0  0  0  0  0  0
  -18.0610  -12.0789   17.4048 C   0  0  0  0  0  0  0  0  0  0  0  0
  -21.0736  -17.4917   16.9099 C   0  0  0  0  0  0  0  0  0  0  0  0
  -22.3857   -8.0895   21.2958 C   0  0  0  0  0  0  0  0  0  0  0  0
  -22.5040  -17.6687   18.8676 C   0  0  0  0  0  0  0  0  0  0  0  0
  -20.2876   -7.0348   21.3845 C   0  0  0  0  0  0  0  0  0  0  0  0
  -17.5083   -7.2143   21.2241 C   0  0  0  0  0  0  0  0  0  0  0  0
  -19.5960   -6.3030   20.4192 C   0  0  0  0  0  0  0  0  0  0  0  0
  -24.6201  -11.6429   20.7687 C   0  0  0  0  0  0  0  0  0  0  0  0
  -28.9308  -15.7474   17.1958 C   0  0  0  0  0  0  0  0  0  0  0  0
  -27.6906  -17.6374   17.5411 C   0  0  0  0  0  0  0  0  0  0  0  0
  -28.3858  -15.6198   15.9371 C   0  0  0  0  0  0  0  0  0  0  0  0
  -25.2467  -13.7422   20.5803 C   0  0  0  0  0  0  0  0  0  0  0  0
  -22.8042  -13.4466   21.0225 C   0  0  0  0  0  0  0  0  0  0  0  0
  -29.9127  -14.7940   17.7285 C   0  0  0  0  0  0  0  0  0  0  0  0
  -19.1111  -15.0762   15.5163 C   0  0  0  0  0  0  0  0  0  0  0  0
  -19.1932  -17.6810   13.5847 C   0  0  0  0  0  0  0  0  0  0  0  0
  -20.4204  -20.8094   12.9902 C   0  0  0  0  0  0  0  0  0  0  0  0
  -16.1012  -11.0070   16.1797 C   0  0  0  0  0  0  0  0  0  0  0  0
  -18.6257  -16.9317   17.1526 C   0  0  0  0  0  0  0  0  0  0  0  0
  -20.9285  -17.5767   15.4132 C   0  0  0  0  0  0  0  0  0  0  0  0
  -16.4208  -11.9518   15.0240 C   0  0  0  0  0  0  0  0  0  0  0  0
  -30.1594  -12.5449   20.4894 C   0  0  0  0  0  0  0  0  0  0  0  0
  -17.9296  -12.1151   14.8696 C   0  0  0  0  0  0  0  0  0  0  0  0
  -28.7019  -12.2008   20.8012 C   0  0  0  0  0  0  0  0  0  0  0  0
  -30.3883  -12.7225   18.9905 C   0  0  0  0  0  0  0  0  0  0  0  0
  -28.0236  -13.3549   18.6545 C   0  0  0  0  0  0  0  0  0  0  0  0
  -18.5496  -12.7312   16.1297 C   0  0  1  0  0  0  0  0  0  0  0  0
  -18.6719  -16.5027   15.6893 C   0  0  1  0  0  0  0  0  0  0  0  0
  -27.7391  -13.2174   20.1592 C   0  0  1  0  0  0  0  0  0  0  0  0
  -28.4662  -19.2293   19.3171 C   0  0  0  0  0  0  0  0  0  0  0  0
  -29.4414  -14.9898   13.7365 C   0  0  0  0  0  0  0  0  0  0  0  0
  -27.5753  -13.5865   14.6869 C   0  0  0  0  0  0  0  0  0  0  0  0
  -20.3357  -22.6725   11.3112 C   0  0  0  0  0  0  0  0  0  0  0  0
  -21.0416  -16.1008   11.7418 C   0  0  0  0  0  0  0  0  0  0  0  0
  -21.6674  -18.2576   10.6351 C   0  0  0  0  0  0  0  0  0  0  0  0
  -19.3050  -17.4598   10.5620 C   0  0  0  0  0  0  0  0  0  0  0  0
  -19.2925  -22.6981   14.9700 C   0  0  0  0  0  0  0  0  0  0  0  0
  -26.0594  -18.4712   19.3192 C   0  0  0  0  0  0  0  0  0  0  0  0
  -24.7919  -18.2108   18.5106 C   0  0  0  0  0  0  0  0  0  1  0  0
  -27.2855  -18.7910   18.4424 C   0  0  2  0  0  0  0  0  0  0  0  0
  -28.7682  -14.4983   15.0321 C   0  0  0  0  0  0  0  0  0  0  0  0
  -20.2467  -18.3480   12.7337 C   0  0  1  0  0  0  0  0  0  0  0  0
  -19.7331  -22.1009   12.5851 C   0  0  2  0  0  0  0  0  0  0  0  0
  -20.5687  -17.5381   11.4462 C   0  0  0  0  0  0  0  0  0  0  0  0
  -27.4837  -16.4988   15.4575 N   0  0  0  0  0  0  0  0  0  0  0  0
  -25.9344  -11.5805   20.5388 N   0  0  0  0  0  0  0  0  0  0  0  0
  -28.5929  -16.7585   18.0205 N   0  0  0  0  0  0  0  0  0  0  0  0
  -26.2865  -12.8728   20.4286 N   0  0  0  0  0  0  0  0  0  0  0  0
  -29.4386  -13.6845   18.4325 N   0  0  0  0  0  0  0  0  0  0  0  0
  -19.5763  -17.3283   14.8866 N   0  0  0  0  0  0  0  0  0  0  0  0
  -25.4247  -15.0780   20.4995 N   0  0  0  0  0  0  0  0  0  0  0  0
  -22.3973  -13.7161   22.3363 N   0  0  0  0  0  0  0  0  0  0  0  0
  -18.3086  -14.1577   16.1659 N   0  0  0  0  0  0  0  0  0  0  0  0
  -19.7705  -19.7041   12.4832 N   0  0  0  0  0  0  0  0  0  0  0  0
  -19.8651  -23.1189   13.6654 N   0  3  0  0  0  0  0  0  0  0  0  0
  -21.9927  -13.6170   20.0813 O   0  0  0  0  0  0  0  0  0  0  0  0
  -31.0957  -15.0585   17.5196 O   0  0  0  0  0  0  0  0  0  0  0  0
  -20.1036  -14.8272   14.8421 O   0  0  0  0  0  0  0  0  0  0  0  0
  -18.0696  -17.4866   13.1143 O   0  0  0  0  0  0  0  0  0  0  0  0
  -21.4347  -20.7839   13.6838 O   0  0  0  0  0  0  0  0  0  0  0  0
  -21.6671   -6.9461   21.4659 O   0  0  0  0  0  0  0  0  0  0  0  0
  -23.7283  -17.9066   19.4120 O   0  0  0  0  0  0  0  0  0  1  0  0
  -16.1737   -7.2995   21.1482 F   0  0  0  0  0  0  0  0  0  0  0  0
  -20.2610   -5.5111   19.5669 F   0  0  0  0  0  0  0  0  0  0  0  0
  1  2  1  0  0  0  0
  1  5  2  0  0  0  0
  2  6  2  0  0  0  0
  3  8  2  0  0  0  0
  3 16  1  0  0  0  0
  4  9  1  0  0  0  0
  4 16  2  0  0  0  0
  5 18  1  0  0  0  0
  6 20  1  0  0  0  0
  7 10  2  0  0  0  0
  7 19  1  0  0  0  0
  8 22  1  0  0  0  0
  9 22  2  0  0  0  0
 10 23  1  0  0  0  0
 11 12  2  0  0  0  0
 11 24  1  0  0  0  0
 12 25  1  0  0  0  0
 13 21  1  0  0  0  0
 13 23  2  0  0  0  0
 14 25  2  0  0  0  0
 14 26  1  0  0  0  0
 15 29  1  0  0  0  0
 15 64  2  0  0  0  0
 16 27  1  0  0  0  0
 17 27  1  0  0  0  0
 17 31  2  0  0  0  0
 17 32  1  0  0  0  0
 18 20  2  0  0  0  0
 18 37  1  0  0  0  0
 19 21  2  0  0  0  0
 19 38  1  0  0  0  0
 20 46  1  0  0  0  0
 21 39  1  0  0  0  0
 22 80  1  0  0  0  0
 23 81  1  0  0  0  0
 24 26  2  0  0  0  0
 24 80  1  0  0  0  0
 25 82  1  0  0  0  0
 26 83  1  0  0  0  0
 27 65  2  0  0  0  0
 28 30  2  0  0  0  0
 28 33  1  0  0  0  0
 28 66  1  0  0  0  0
 29 59  1  0  0  0  0
 29 66  2  0  0  0  0
 30 60  1  0  0  0  0
 30 64  1  0  0  0  0
 31 67  1  0  0  0  0
 31 70  1  0  0  0  0
 32 71  1  0  0  0  0
 32 75  2  0  0  0  0
 33 68  1  0  0  0  0
 33 76  2  0  0  0  0
 34 47  1  0  0  0  0
 34 72  1  0  0  0  0
 34 77  2  0  0  0  0
 35 61  1  0  0  0  0
 35 69  1  0  0  0  0
 35 78  2  0  0  0  0
 36 62  1  0  0  0  0
 36 73  1  0  0  0  0
 36 79  2  0  0  0  0
 37 40  1  0  0  0  0
 38 47  1  0  0  0  0
 39 69  1  0  0  0  0
 40 42  1  0  0  0  0
 41 43  1  0  0  0  0
 41 44  1  0  0  0  0
 42 46  1  0  0  0  0
 43 48  1  0  0  0  0
 44 68  1  0  0  0  0
 45 48  1  0  0  0  0
 45 68  1  0  0  0  0
 46 72  1  0  0  0  0
 47 69  1  0  0  0  0
 48 67  1  0  0  0  0
 49 59  1  0  0  0  0
 50 60  1  0  0  0  0
 51 60  1  0  0  0  0
 52 62  1  0  0  0  0
 53 63  1  0  0  0  0
 54 63  1  0  0  0  0
 55 63  1  0  0  0  0
 56 74  1  0  0  0  0
 57 58  1  0  0  0  0
 57 59  1  0  0  0  0
 58 81  1  0  0  0  0
 61 63  1  0  0  0  0
 61 73  1  0  0  0  0
 62 74  1  0  0  0  0
 65 67  1  0  0  0  0
M  CHG  1  74   1
M  ISO  4  28 100  33 100  58 101  81 101
M  END
> <Batch ID>
0098

> <Smiles>
CNC(C)C(=O)NC(C(=O)N1Cc2cc([101O:1][101CH2:1]CC(C)c3cnc(C(C)C)[100c:0]([100C:0](=O)N4CCCC(n5nc(-c6ccc(Oc7ccc(F)cc7F)cc6)c(C(N)=O)c5N)C4)n3)ccc2CC1C(=O)NC1CCCc2ccccc21)C(C)(C)C

> <Shape>
0.131

> <Color>
0.151

> <Negative vol penalty>
0.000

$$$$

  -OEChem-04052319293D

 86 94  0     1  0  0  0  0  0999 V2000
  -18.6991  -33.7111   21.2486 C   0  0  0  0  0  0  0  0  0  0  0  0
  -20.0429  -33.5452   20.9292 C   0  0  0  0  0  0  0  0  0  0  0  0
  -24.7918  -11.5917   20.0068 C   0  0  0  0  0  0  0  0  0  0  0  0
  -25.5472  -12.2022   22.2190 C   0  0  0  0  0  0  0  0  0  0  0  0
  -18.1155  -32.9187   22.2362 C   0  0  0  0  0  0  0  0  0  0  0  0
  -20.8043  -32.5875   21.5981 C   0  0  0  0  0  0  0  0  0  0  0  0
  -25.3544  -29.2162   19.2664 C   0  0  0  0  0  0  0  0  0  0  0  0
  -25.2136  -10.2802   20.2247 C   0  0  0  0  0  0  0  0  0  0  0  0
  -25.9690  -10.8906   22.4369 C   0  0  0  0  0  0  0  0  0  0  0  0
  -26.7412  -29.3514   19.3136 C   0  0  0  0  0  0  0  0  0  0  0  0
  -25.7632   -6.6883   20.3334 C   0  0  0  0  0  0  0  0  0  0  0  0
  -24.9006   -5.6588   19.9572 C   0  0  0  0  0  0  0  0  0  0  0  0
  -26.8195  -27.8328   21.1863 C   0  0  0  0  0  0  0  0  0  0  0  0
  -23.2245   -6.5081   21.4759 C   0  0  0  0  0  0  0  0  0  0  0  0
  -29.4016  -23.9739   19.5145 C   0  0  0  0  0  0  0  0  0  0  0  0
  -30.8741  -23.7232   17.8461 C   0  0  0  0  0  0  0  0  0  0  0  0
  -24.9587  -12.5528   21.0039 C   0  0  0  0  0  0  0  0  0  0  0  0
  -23.2564  -14.4519   21.0620 C   0  0  0  0  0  0  0  0  0  0  0  0
  -18.8677  -31.9441   22.9108 C   0  0  0  0  0  0  0  0  0  0  0  0
  -24.6876  -28.3954   20.1874 C   0  0  0  0  0  0  0  0  0  0  0  0
  -20.2306  -31.7822   22.5966 C   0  0  0  0  0  0  0  0  0  0  0  0
  -25.4245  -27.6869   21.1471 C   0  0  0  0  0  0  0  0  0  0  0  0
  -29.7201  -22.6356   19.4447 C   0  0  0  0  0  0  0  0  0  0  0  0
  -30.6516  -22.4770   18.3891 C   0  0  0  0  0  0  0  0  0  0  0  0
  -25.8022   -9.9296   21.4397 C   0  0  0  0  0  0  0  0  0  0  0  0
  -27.4737  -28.6619   20.2755 C   0  0  0  0  0  0  0  0  0  0  0  0
  -25.3564   -7.6278   21.2809 C   0  0  0  0  0  0  0  0  0  0  0  0
  -23.6313   -5.5686   20.5284 C   0  0  0  0  0  0  0  0  0  0  0  0
  -24.0871   -7.5377   21.8521 C   0  0  0  0  0  0  0  0  0  0  0  0
  -24.5237  -13.9079   20.7792 C   0  0  0  0  0  0  0  0  0  0  0  0
  -23.3506  -15.7645   20.6686 C   0  0  0  0  0  0  0  0  0  0  0  0
  -22.0978  -13.8267   21.6298 C   0  0  0  0  0  0  0  0  0  0  0  0
  -22.5033  -28.8727   22.4468 C   0  0  0  0  0  0  0  0  0  0  0  0
  -22.5642  -25.6354   22.6433 C   0  0  0  0  0  0  0  0  0  0  0  0
  -24.2837  -22.7333   22.1259 C   0  0  0  0  0  0  0  0  0  0  0  0
  -27.9717  -19.4093   20.2033 C   0  0  0  0  0  0  0  0  0  0  0  0
  -18.2051  -31.1438   24.0041 C   0  0  0  0  0  0  0  0  0  0  0  0
  -23.1937  -28.2393   20.1063 C   0  0  0  0  0  0  0  0  0  0  0  0
  -24.7583  -26.7772   22.1457 C   0  0  0  0  0  0  0  0  0  0  0  0
  -18.9867  -29.8950   24.4039 C   0  0  0  0  0  0  0  0  0  0  0  0
  -25.6450  -18.5855   17.5565 C   0  0  0  0  0  0  0  0  0  0  0  0
  -20.4641  -30.2265   24.5894 C   0  0  0  0  0  0  0  0  0  0  0  0
  -24.9718  -17.3337   18.1220 C   0  0  0  0  0  0  0  0  0  0  0  0
  -27.1291  -18.6222   17.9091 C   0  0  0  0  0  0  0  0  0  0  0  0
  -26.7467  -17.2716   19.9347 C   0  0  0  0  0  0  0  0  0  0  0  0
  -21.0832  -30.7370   23.2827 C   0  0  1  0  0  0  0  0  0  0  0  0
  -22.5690  -27.7782   21.4194 C   0  0  1  0  0  0  0  0  0  0  0  0
  -25.2397  -17.1869   19.6316 C   0  0  2  0  0  0  0  0  0  0  0  0
  -32.8132  -21.2119   18.1047 C   0  0  0  0  0  0  0  0  0  0  0  0
  -30.9156  -20.8451   16.4861 C   0  0  0  0  0  0  0  0  0  0  0  0
  -24.0886  -20.2488   22.4200 C   0  0  0  0  0  0  0  0  0  0  0  0
  -23.0790  -25.9515   25.6341 C   0  0  0  0  0  0  0  0  0  0  0  0
  -23.8082  -23.5571   25.6908 C   0  0  0  0  0  0  0  0  0  0  0  0
  -21.4699  -24.1319   25.0392 C   0  0  0  0  0  0  0  0  0  0  0  0
  -31.7316  -29.0435   20.2520 C   0  0  0  0  0  0  0  0  0  0  0  0
  -31.6118  -28.7975   17.7693 C   0  0  0  0  0  0  0  0  0  0  0  0
  -24.5427  -22.2518   19.2173 C   0  0  0  0  0  0  0  0  0  0  0  0
  -29.1840  -21.5714   20.3163 C   0  0  0  0  0  0  0  0  0  0  0  0
  -30.8805  -26.8947   19.2970 C   0  0  0  0  0  0  0  0  0  0  0  0
  -30.0559  -26.1097   18.2683 C   0  0  0  0  0  0  0  0  0  0  0  0
  -29.4993  -29.0551   19.0928 C   0  0  0  0  0  0  0  0  0  1  0  0
  -31.2753  -21.2153   17.9437 C   0  0  0  0  0  0  0  0  0  0  0  0
  -23.3608  -24.6273   23.4357 C   0  0  1  0  0  0  0  0  0  0  0  0
  -23.8759  -21.4228   21.4771 C   0  0  2  0  0  0  0  0  0  0  0  0
  -22.9421  -24.5855   24.9325 C   0  0  0  0  0  0  0  0  0  0  0  0
  -30.9133  -28.4356   19.0921 C   0  0  0  0  0  0  0  0  0  0  0  0
  -25.3614  -14.8018   20.2470 N   0  0  0  0  0  0  0  0  0  0  0  0
  -30.1092  -24.6254   18.5383 N   0  0  0  0  0  0  0  0  0  0  0  0
  -24.6191  -15.9207   20.1922 N   0  0  0  0  0  0  0  0  0  0  0  0
  -23.2951  -26.6627   22.0298 N   0  0  0  0  0  0  0  0  0  0  0  0
  -27.3142  -18.4967   19.3617 N   0  0  0  0  0  0  0  0  0  0  0  0
  -22.4714  -16.7887   20.6869 N   0  0  0  0  0  0  0  0  0  0  0  0
  -22.1729  -12.4711   21.9774 N   0  0  0  0  0  0  0  0  0  0  0  0
  -21.3514  -29.6335   22.3856 N   0  0  0  0  0  0  0  0  0  0  0  0
  -23.2157  -23.3537   22.7389 N   0  0  0  0  0  0  0  0  0  0  0  0
  -28.4866  -20.5399   19.5810 N   0  0  0  0  0  0  0  0  0  0  0  0
  -24.6760  -21.1850   20.2425 N   0  3  0  0  0  0  0  0  0  0  0  0
  -21.0224  -14.4475   21.8078 O   0  0  0  0  0  0  0  0  0  0  0  0
  -23.4286  -29.0154   23.2375 O   0  0  0  0  0  0  0  0  0  0  0  0
  -21.3393  -25.5119   22.5654 O   0  0  0  0  0  0  0  0  0  0  0  0
  -25.4352  -23.1617   22.0953 O   0  0  0  0  0  0  0  0  0  0  0  0
  -28.0868  -19.2323   21.4209 O   0  0  0  0  0  0  0  0  0  0  0  0
  -26.2136   -8.6498   21.6528 O   0  0  0  0  0  0  0  0  0  0  0  0
  -28.8274  -28.7926   20.3241 O   0  0  0  0  0  0  0  0  0  1  0  0
  -22.8025   -4.5808   20.1659 F   0  0  0  0  0  0  0  0  0  0  0  0
  -23.6903   -8.4379   22.7620 F   0  0  0  0  0  0  0  0  0  0  0  0
  1  2  1  0  0  0  0
  1  5  2  0  0  0  0
  2  6  2  0  0  0  0
  3  8  2  0  0  0  0
  3 17  1  0  0  0  0
  4  9  1  0  0  0  0
  4 17  2  0  0  0  0
  5 19  1  0  0  0  0
  6 21  1  0  0  0  0
  7 10  2  0  0  0  0
  7 20  1  0  0  0  0
  8 25  1  0  0  0  0
  9 25  2  0  0  0  0
 10 26  1  0  0  0  0
 11 12  2  0  0  0  0
 11 27  1  0  0  0  0
 12 28  1  0  0  0  0
 13 22  1  0  0  0  0
 13 26  2  0  0  0  0
 14 28  2  0  0  0  0
 14 29  1  0  0  0  0
 15 23  2  0  0  0  0
 15 68  1  0  0  0  0
 16 24  2  0  0  0  0
 16 68  1  0  0  0  0
 17 30  1  0  0  0  0
 18 30  1  0  0  0  0
 18 31  2  0  0  0  0
 18 32  1  0  0  0  0
 19 21  2  0  0  0  0
 19 37  1  0  0  0  0
 20 22  2  0  0  0  0
 20 38  1  0  0  0  0
 21 46  1  0  0  0  0
 22 39  1  0  0  0  0
 23 24  1  0  0  0  0
 23 58  1  0  0  0  0
 24 62  1  0  0  0  0
 25 83  1  0  0  0  0
 26 84  1  0  0  0  0
 27 29  2  0  0  0  0
 27 83  1  0  0  0  0
 28 85  1  0  0  0  0
 29 86  1  0  0  0  0
 30 67  2  0  0  0  0
 31 69  1  0  0  0  0
 31 72  1  0  0  0  0
 32 73  1  0  0  0  0
 32 78  2  0  0  0  0
 33 47  1  0  0  0  0
 33 74  1  0  0  0  0
 33 79  2  0  0  0  0
 34 63  1  0  0  0  0
 34 70  1  0  0  0  0
 34 80  2  0  0  0  0
 35 64  1  0  0  0  0
 35 75  1  0  0  0  0
 35 81  2  0  0  0  0
 36 71  1  0  0  0  0
 36 76  1  0  0  0  0
 36 82  2  0  0  0  0
 37 40  1  0  0  0  0
 38 47  1  0  0  0  0
 39 70  1  0  0  0  0
 40 42  1  0  0  0  0
 41 43  1  0  0  0  0
 41 44  1  0  0  0  0
 42 46  1  0  0  0  0
 43 48  1  0  0  0  0
 44 71  1  0  0  0  0
 45 48  1  0  0  0  0
 45 71  1  0  0  0  0
 46 74  1  0  0  0  0
 47 70  1  0  0  0  0
 48 69  1  0  0  0  0
 49 62  1  0  0  0  0
 50 62  1  0  0  0  0
 51 64  1  0  0  0  0
 52 65  1  0  0  0  0
 53 65  1  0  0  0  0
 54 65  1  0  0  0  0
 55 66  1  0  0  0  0
 56 66  1  0  0  0  0
 57 77  1  0  0  0  0
 58 76  1  0  0  0  0
 59 60  1  0  0  0  0
 59 66  1  0  0  0  0
 60 68  1  0  0  0  0
 61 66  1  0  0  0  0
 61 84  1  0  0  0  0
 63 65  1  0  0  0  0
 63 75  1  0  0  0  0
 64 77  1  0  0  0  0
 67 69  1  0  0  0  0
M  CHG  1  77   1
M  ISO  4  36 100  61 101  76 100  84 101
M  END
> <Batch ID>
0098

> <Smiles>
CNC(C)C(=O)NC(C(=O)N1Cc2cc([101O:1][101CH2:1]C(C)(C)CCn3cc(C[100NH:0][100C:0](=O)N4CCCC(n5nc(-c6ccc(Oc7ccc(F)cc7F)cc6)c(C(N)=O)c5N)C4)c(C(C)C)c3)ccc2CC1C(=O)NC1CCCc2ccccc21)C(C)(C)C

> <Shape>
0.222

> <Color>
0.092

> <Negative vol penalty>
0.000

$$$$

  -OEChem-04052319293D

 91 99  0     1  0  0  0  0  0999 V2000
  -20.0291  -34.0366   16.0441 C   0  0  0  0  0  0  0  0  0  0  0  0
  -21.1399  -33.2056   15.9396 C   0  0  0  0  0  0  0  0  0  0  0  0
  -24.5321   -8.5505   20.6735 C   0  0  0  0  0  0  0  0  0  0  0  0
  -22.7669  -10.1896   20.4871 C   0  0  0  0  0  0  0  0  0  0  0  0
  -19.8920  -34.8800   17.1458 C   0  0  0  0  0  0  0  0  0  0  0  0
  -22.1150  -33.2183   16.9364 C   0  0  0  0  0  0  0  0  0  0  0  0
  -25.4171  -28.4561   18.9170 C   0  0  0  0  0  0  0  0  0  0  0  0
  -23.6004   -7.5926   21.0734 C   0  0  0  0  0  0  0  0  0  0  0  0
  -21.8352   -9.2316   20.8869 C   0  0  0  0  0  0  0  0  0  0  0  0
  -26.7083  -28.0219   18.6205 C   0  0  0  0  0  0  0  0  0  0  0  0
  -21.9277   -6.7701   23.8930 C   0  0  0  0  0  0  0  0  0  0  0  0
  -22.2568   -5.9615   24.9808 C   0  0  0  0  0  0  0  0  0  0  0  0
  -27.5373  -29.1748   20.5706 C   0  0  0  0  0  0  0  0  0  0  0  0
  -22.0673   -4.0013   23.5812 C   0  0  0  0  0  0  0  0  0  0  0  0
  -29.9507  -22.1642   20.1963 C   0  0  0  0  0  0  0  0  0  0  0  0
  -24.1154   -9.8491   20.3805 C   0  0  0  0  0  0  0  0  0  0  0  0
  -25.4867  -11.1307   18.6529 C   0  0  0  0  0  0  0  0  0  0  0  0
  -20.8611  -34.8960   18.1614 C   0  0  0  0  0  0  0  0  0  0  0  0
  -25.1775  -29.2633   20.0384 C   0  0  0  0  0  0  0  0  0  0  0  0
  -21.9914  -34.0636   18.0521 C   0  0  0  0  0  0  0  0  0  0  0  0
  -26.2417  -29.6158   20.8806 C   0  0  0  0  0  0  0  0  0  0  0  0
  -30.7761  -22.8005   19.2956 C   0  0  0  0  0  0  0  0  0  0  0  0
  -30.9184  -21.9454   18.1750 C   0  0  0  0  0  0  0  0  0  0  0  0
  -22.2520   -7.9331   21.1801 C   0  0  0  0  0  0  0  0  0  0  0  0
  -27.7691  -28.3836   19.4457 C   0  0  0  0  0  0  0  0  0  0  0  0
  -21.6684   -6.1943   22.6492 C   0  0  0  0  0  0  0  0  0  0  0  0
  -22.3267   -4.5771   24.8249 C   0  0  0  0  0  0  0  0  0  0  0  0
  -21.7382   -4.8100   22.4933 C   0  0  0  0  0  0  0  0  0  0  0  0
  -25.0774  -10.8392   19.9679 C   0  0  0  0  0  0  0  0  0  0  0  0
  -30.1756  -20.8126   18.4250 C   0  0  0  0  0  0  0  0  0  0  0  0
  -26.4074  -12.1399   18.7956 C   0  0  0  0  0  0  0  0  0  0  0  0
  -25.0716  -10.5421   17.4132 C   0  0  0  0  0  0  0  0  0  0  0  0
  -24.0558  -32.2034   20.4874 C   0  0  0  0  0  0  0  0  0  0  0  0
  -24.2284  -31.3713   23.6179 C   0  0  0  0  0  0  0  0  0  0  0  0
  -25.6394  -29.3970   26.0174 C   0  0  0  0  0  0  0  0  0  0  0  0
  -28.0899  -16.8076   20.8795 C   0  0  0  0  0  0  0  0  0  0  0  0
  -20.6931  -35.8590   19.3099 C   0  0  0  0  0  0  0  0  0  0  0  0
  -23.7748  -29.7012   20.3593 C   0  0  0  0  0  0  0  0  0  0  0  0
  -26.0344  -30.4639   22.1078 C   0  0  0  0  0  0  0  0  0  0  0  0
  -21.5841  -35.5398   20.5077 C   0  0  0  0  0  0  0  0  0  0  0  0
  -28.6824  -13.9797   22.9104 C   0  0  0  0  0  0  0  0  0  0  0  0
  -23.0107  -35.2528   20.0503 C   0  0  0  0  0  0  0  0  0  0  0  0
  -27.8177  -12.9254   22.2207 C   0  0  0  0  0  0  0  0  0  0  0  0
  -27.9969  -15.3467   22.9529 C   0  0  0  0  0  0  0  0  0  0  0  0
  -26.6772  -14.7746   20.9396 C   0  0  0  0  0  0  0  0  0  0  0  0
  -23.0581  -34.0308   19.1251 C   0  0  1  0  0  0  0  0  0  0  0  0
  -23.7242  -30.9459   21.2400 C   0  0  1  0  0  0  0  0  0  0  0  0
  -27.3678  -13.4065   20.8303 C   0  0  2  0  0  0  0  0  0  0  0  0
  -32.3883  -24.1431   20.6648 C   0  0  0  0  0  0  0  0  0  0  0  0
  -33.2256  -22.3726   17.2542 C   0  0  0  0  0  0  0  0  0  0  0  0
  -31.2184  -23.4510   16.1758 C   0  0  0  0  0  0  0  0  0  0  0  0
  -31.2798  -18.8289   17.3300 C   0  0  0  0  0  0  0  0  0  0  0  0
  -29.2721  -19.9076   16.2528 C   0  0  0  0  0  0  0  0  0  0  0  0
  -25.6062  -28.9742   28.4908 C   0  0  0  0  0  0  0  0  0  0  0  0
  -31.7882  -27.1359   18.7011 C   0  0  0  0  0  0  0  0  0  0  0  0
  -25.8772  -33.8986   24.0695 C   0  0  0  0  0  0  0  0  0  0  0  0
  -26.5985  -32.9507   26.2717 C   0  0  0  0  0  0  0  0  0  0  0  0
  -24.1860  -33.4244   25.8498 C   0  0  0  0  0  0  0  0  0  0  0  0
  -28.1215  -18.3093   22.9164 C   0  0  0  0  0  0  0  0  0  0  0  0
  -24.7361  -26.6034   25.6451 C   0  0  0  0  0  0  0  0  0  0  0  0
  -30.3776  -25.3014   19.6695 C   0  0  0  0  0  0  0  0  0  0  0  0
  -28.7271  -19.9942   20.3030 C   0  0  0  0  0  0  0  0  0  0  0  0
  -29.4929  -18.8341   20.9340 C   0  0  0  0  0  0  0  0  0  0  0  0
  -29.9169  -27.7665   20.2595 C   0  0  0  0  0  0  0  0  0  1  0  0
  -31.4113  -24.1675   19.4813 C   0  0  2  0  0  0  0  0  0  0  0  0
  -31.7160  -22.2160   16.9610 C   0  0  0  0  0  0  0  0  0  0  0  0
  -29.9703  -19.6047   17.5980 C   0  0  0  0  0  0  0  0  0  0  0  0
  -25.2851  -31.4639   24.6920 C   0  0  1  0  0  0  0  0  0  0  0  0
  -25.0247  -28.5824   27.1413 C   0  0  2  0  0  0  0  0  0  0  0  0
  -30.9742  -26.7048   19.9280 C   0  0  2  0  0  0  0  0  0  0  0  0
  -25.4912  -32.9200   25.1966 C   0  0  0  0  0  0  0  0  0  0  0  0
  -25.6882  -11.6014   20.8790 N   0  0  0  0  0  0  0  0  0  0  0  0
  -29.5915  -20.9569   19.6564 N   0  0  0  0  0  0  0  0  0  0  0  0
  -26.4907  -12.3818   20.1353 N   0  0  0  0  0  0  0  0  0  0  0  0
  -24.6456  -30.8725   22.3757 N   0  0  0  0  0  0  0  0  0  0  0  0
  -27.5415  -15.7461   21.6143 N   0  0  0  0  0  0  0  0  0  0  0  0
  -27.1459  -12.8349   17.9046 N   0  0  0  0  0  0  0  0  0  0  0  0
  -24.1168   -9.5166   17.4471 N   0  0  0  0  0  0  0  0  0  0  0  0
  -22.9640  -32.8094   19.8957 N   0  0  0  0  0  0  0  0  0  0  0  0
  -24.8924  -30.5206   25.7334 N   0  0  0  0  0  0  0  0  0  0  0  0
  -28.6119  -17.8888   21.6053 N   0  0  0  0  0  0  0  0  0  0  0  0
  -25.2759  -27.1295   26.9253 N   0  3  0  0  0  0  0  0  0  0  0  0
  -25.5458  -10.9032   16.3095 O   0  0  0  0  0  0  0  0  0  0  0  0
  -25.2161  -32.5955   20.4477 O   0  0  0  0  0  0  0  0  0  0  0  0
  -23.0737  -31.7218   23.8738 O   0  0  0  0  0  0  0  0  0  0  0  0
  -26.6803  -29.0712   25.4509 O   0  0  0  0  0  0  0  0  0  0  0  0
  -28.1057  -16.7950   19.6419 O   0  0  0  0  0  0  0  0  0  0  0  0
  -21.3425   -6.9985   21.5699 O   0  0  0  0  0  0  0  0  0  0  0  0
  -29.0305  -27.9617   19.1583 O   0  0  0  0  0  0  0  0  0  1  0  0
  -22.6442   -3.8009   25.8693 F   0  0  0  0  0  0  0  0  0  0  0  0
  -21.4912   -4.2511   21.3006 F   0  0  0  0  0  0  0  0  0  0  0  0
  1  2  1  0  0  0  0
  1  5  2  0  0  0  0
  2  6  2  0  0  0  0
  3  8  2  0  0  0  0
  3 16  1  0  0  0  0
  4  9  1  0  0  0  0
  4 16  2  0  0  0  0
  5 18  1  0  0  0  0
  6 20  1  0  0  0  0
  7 10  2  0  0  0  0
  7 19  1  0  0  0  0
  8 24  1  0  0  0  0
  9 24  2  0  0  0  0
 10 25  1  0  0  0  0
 11 12  2  0  0  0  0
 11 26  1  0  0  0  0
 12 27  1  0  0  0  0
 13 21  1  0  0  0  0
 13 25  2  0  0  0  0
 14 27  2  0  0  0  0
 14 28  1  0  0  0  0
 15 22  2  0  0  0  0
 15 73  1  0  0  0  0
 16 29  1  0  0  0  0
 17 29  1  0  0  0  0
 17 31  2  0  0  0  0
 17 32  1  0  0  0  0
 18 20  2  0  0  0  0
 18 37  1  0  0  0  0
 19 21  2  0  0  0  0
 19 38  1  0  0  0  0
 20 46  1  0  0  0  0
 21 39  1  0  0  0  0
 22 23  1  0  0  0  0
 22 65  1  0  0  0  0
 23 30  2  0  0  0  0
 23 66  1  0  0  0  0
 24 88  1  0  0  0  0
 25 89  1  0  0  0  0
 26 28  2  0  0  0  0
 26 88  1  0  0  0  0
 27 90  1  0  0  0  0
 28 91  1  0  0  0  0
 29 72  2  0  0  0  0
 30 67  1  0  0  0  0
 30 73  1  0  0  0  0
 31 74  1  0  0  0  0
 31 77  1  0  0  0  0
 32 78  1  0  0  0  0
 32 83  2  0  0  0  0
 33 47  1  0  0  0  0
 33 79  1  0  0  0  0
 33 84  2  0  0  0  0
 34 68  1  0  0  0  0
 34 75  1  0  0  0  0
 34 85  2  0  0  0  0
 35 69  1  0  0  0  0
 35 80  1  0  0  0  0
 35 86  2  0  0  0  0
 36 76  1  0  0  0  0
 36 81  1  0  0  0  0
 36 87  2  0  0  0  0
 37 40  1  0  0  0  0
 38 47  1  0  0  0  0
 39 75  1  0  0  0  0
 40 42  1  0  0  0  0
 41 43  1  0  0  0  0
 41 44  1  0  0  0  0
 42 46  1  0  0  0  0
 43 48  1  0  0  0  0
 44 76  1  0  0  0  0
 45 48  1  0  0  0  0
 45 76  1  0  0  0  0
 46 79  1  0  0  0  0
 47 75  1  0  0  0  0
 48 74  1  0  0  0  0
 49 65  1  0  0  0  0
 50 66  1  0  0  0  0
 51 66  1  0  0  0  0
 52 67  1  0  0  0  0
 53 67  1  0  0  0  0
 54 69  1  0  0  0  0
 55 70  1  0  0  0  0
 56 71  1  0  0  0  0
 57 71  1  0  0  0  0
 58 71  1  0  0  0  0
 59 81  1  0  0  0  0
 60 82  1  0  0  0  0
 61 65  1  0  0  0  0
 61 70  1  0  0  0  0
 62 63  1  0  0  0  0
 62 73  1  0  0  0  0
 63 81  1  0  0  0  0
 64 70  1  0  0  0  0
 64 89  1  0  0  0  0
 68 71  1  0  0  0  0
 68 80  1  0  0  0  0
 69 82  1  0  0  0  0
 72 74  1  0  0  0  0
M  CHG  1  82   1
M  ISO  4  36 100  64 101  81 100  89 101
M  END
> <Batch ID>
0098

> <Smiles>
CNC(C)C(=O)NC(C(=O)N1Cc2cc([101O:1][101CH2:1]C(C)CC(C)c3cn(CC[100N:0](C)[100C:0](=O)N4CCCC(n5nc(-c6ccc(Oc7ccc(F)cc7F)cc6)c(C(N)=O)c5N)C4)c(C(C)C)c3C(C)C)ccc2CC1C(=O)NC1CCCc2ccccc21)C(C)(C)C

> <Shape>
0.298

> <Color>
0.110

> <Negative vol penalty>
0.000

$$$$

  -OEChem-04052319293D

 85 93  0     1  0  0  0  0  0999 V2000
  -27.0606  -29.7888   22.1598 C   0  0  0  0  0  0  0  0  0  0  0  0
  -26.6569  -28.4592   22.2268 C   0  0  0  0  0  0  0  0  0  0  0  0
  -22.8120  -10.1333   20.1403 C   0  0  0  0  0  0  0  0  0  0  0  0
  -24.1925   -9.6029   22.0508 C   0  0  0  0  0  0  0  0  0  0  0  0
  -28.1646  -30.2189   22.8946 C   0  0  0  0  0  0  0  0  0  0  0  0
  -27.3579  -27.5585   23.0279 C   0  0  0  0  0  0  0  0  0  0  0  0
  -26.3523  -21.7383   27.0814 C   0  0  0  0  0  0  0  0  0  0  0  0
  -22.0800   -8.9636   20.3444 C   0  0  0  0  0  0  0  0  0  0  0  0
  -23.4605   -8.4332   22.2549 C   0  0  0  0  0  0  0  0  0  0  0  0
  -26.8438  -20.4444   27.2489 C   0  0  0  0  0  0  0  0  0  0  0  0
  -19.6141   -7.8943   22.3959 C   0  0  0  0  0  0  0  0  0  0  0  0
  -18.2238   -7.9783   22.3213 C   0  0  0  0  0  0  0  0  0  0  0  0
  -28.6877  -21.3177   28.5358 C   0  0  0  0  0  0  0  0  0  0  0  0
  -18.2248   -6.3838   20.5062 C   0  0  0  0  0  0  0  0  0  0  0  0
  -23.8682  -10.4529   20.9934 C   0  0  0  0  0  0  0  0  0  0  0  0
  -24.1381  -12.9816   20.7921 C   0  0  0  0  0  0  0  0  0  0  0  0
  -28.8736  -29.3252   23.7127 C   0  0  0  0  0  0  0  0  0  0  0  0
  -27.0320  -22.8345   27.6316 C   0  0  0  0  0  0  0  0  0  0  0  0
  -28.4733  -27.9767   23.7734 C   0  0  0  0  0  0  0  0  0  0  0  0
  -28.2015  -22.6243   28.3760 C   0  0  0  0  0  0  0  0  0  0  0  0
  -22.4042   -8.1136   21.4017 C   0  0  0  0  0  0  0  0  0  0  0  0
  -28.0132  -20.2342   27.9737 C   0  0  0  0  0  0  0  0  0  0  0  0
  -20.3098   -7.0551   21.5256 C   0  0  0  0  0  0  0  0  0  0  0  0
  -17.5292   -7.2230   21.3765 C   0  0  0  0  0  0  0  0  0  0  0  0
  -19.6152   -6.2998   20.5808 C   0  0  0  0  0  0  0  0  0  0  0  0
  -24.6251  -11.6608   20.7828 C   0  0  0  0  0  0  0  0  0  0  0  0
  -25.2443  -13.7571   20.5439 C   0  0  0  0  0  0  0  0  0  0  0  0
  -22.8052  -13.4644   21.0060 C   0  0  0  0  0  0  0  0  0  0  0  0
  -28.4413  -25.4252   26.4458 C   0  0  0  0  0  0  0  0  0  0  0  0
  -28.7505  -26.2138   29.5770 C   0  0  0  0  0  0  0  0  0  0  0  0
  -28.9139  -25.1753   32.8238 C   0  0  0  0  0  0  0  0  0  0  0  0
  -31.1469  -12.3548   21.3986 C   0  0  0  0  0  0  0  0  0  0  0  0
  -30.0893  -29.8258   24.4517 C   0  0  0  0  0  0  0  0  0  0  0  0
  -26.4743  -24.2215   27.4645 C   0  0  0  0  0  0  0  0  0  0  0  0
  -28.9575  -23.7655   29.0042 C   0  0  0  0  0  0  0  0  0  0  0  0
  -30.5509  -28.8922   25.5678 C   0  0  0  0  0  0  0  0  0  0  0  0
  -29.4901  -13.6529   18.3537 C   0  0  0  0  0  0  0  0  0  0  0  0
  -30.5880  -27.4490   25.0754 C   0  0  0  0  0  0  0  0  0  0  0  0
  -29.3474  -16.4729   25.4651 C   0  0  0  0  0  0  0  0  0  0  0  0
  -27.2095  -15.7725   26.6204 C   0  0  0  0  0  0  0  0  0  0  0  0
  -28.0192  -13.3310   18.6119 C   0  0  0  0  0  0  0  0  0  0  0  0
  -29.5513  -17.5638   26.5120 C   0  0  0  0  0  0  0  0  0  0  0  0
  -27.4190  -16.8658   27.6638 C   0  0  0  0  0  0  0  0  0  0  0  0
  -30.4184  -12.6707   19.0617 C   0  0  0  0  0  0  0  0  0  0  0  0
  -28.6978  -12.2314   20.7824 C   0  0  0  0  0  0  0  0  0  0  0  0
  -29.1930  -26.9751   24.6503 C   0  0  1  0  0  0  0  0  0  0  0  0
  -27.5268  -25.3129   27.6327 C   0  0  1  0  0  0  0  0  0  0  0  0
  -28.5419  -15.2934   26.0276 C   0  0  0  0  0  0  0  0  0  0  0  0
  -27.7363  -13.2302   20.1209 C   0  0  2  0  0  0  0  0  0  0  0  0
  -28.2247  -18.0351   27.1016 C   0  0  0  0  0  0  0  0  0  1  0  0
  -27.6465  -10.6182   28.4718 C   0  0  0  0  0  0  0  0  0  0  0  0
  -29.2080  -26.0472   35.1585 C   0  0  0  0  0  0  0  0  0  0  0  0
  -31.7344  -26.5862   29.0595 C   0  0  0  0  0  0  0  0  0  0  0  0
  -32.1019  -26.5129   31.5349 C   0  0  0  0  0  0  0  0  0  0  0  0
  -30.7069  -28.3236   30.5360 C   0  0  0  0  0  0  0  0  0  0  0  0
  -31.8559  -12.0640   23.7422 C   0  0  0  0  0  0  0  0  0  0  0  0
  -26.2649  -24.1564   33.6623 C   0  0  0  0  0  0  0  0  0  0  0  0
  -27.0753  -11.3049   27.2414 C   0  0  0  0  0  0  0  0  0  0  0  0
  -28.0102  -12.4003   26.7263 C   0  0  0  0  0  0  0  0  0  0  0  0
  -27.4140  -13.1089   25.5066 C   0  0  0  0  0  0  0  0  0  0  0  0
  -29.6336  -13.7563   24.3304 C   0  0  0  0  0  0  0  0  0  0  0  0
  -29.4991  -12.6414   23.2973 C   0  0  0  0  0  0  0  0  0  0  0  0
  -29.7909  -25.9696   30.6433 C   0  0  1  0  0  0  0  0  0  0  0  0
  -28.2101  -25.6676   34.0755 C   0  0  2  0  0  0  0  0  0  0  0  0
  -28.3038  -14.2394   24.9480 C   0  0  2  0  0  0  0  0  0  0  0  0
  -31.0706  -26.8265   30.4301 C   0  0  0  0  0  0  0  0  0  0  0  0
  -25.9383  -11.5970   20.5471 N   0  0  0  0  0  0  0  0  0  0  0  0
  -26.2859  -12.8875   20.4060 N   0  0  0  0  0  0  0  0  0  0  0  0
  -28.3756  -25.1035   28.8074 N   0  0  0  0  0  0  0  0  0  0  0  0
  -30.0997  -12.5619   20.4857 N   0  0  0  0  0  0  0  0  0  0  0  0
  -25.4178  -15.0912   20.4322 N   0  0  0  0  0  0  0  0  0  0  0  0
  -21.7875  -12.5316   21.2477 N   0  0  0  0  0  0  0  0  0  0  0  0
  -28.3930  -26.6523   25.8123 N   0  0  0  0  0  0  0  0  0  0  0  0
  -29.1260  -26.1965   31.9219 N   0  0  0  0  0  0  0  0  0  0  0  0
  -30.8038  -12.2669   22.7563 N   0  0  0  0  0  0  0  0  0  0  0  0
  -27.3113  -24.6084   34.6150 N   0  3  0  0  0  0  0  0  0  0  0  0
  -22.5219  -14.6858   20.9673 O   0  0  0  0  0  0  0  0  0  0  0  0
  -29.1402  -24.4697   26.1290 O   0  0  0  0  0  0  0  0  0  0  0  0
  -28.2824  -27.3465   29.4370 O   0  0  0  0  0  0  0  0  0  0  0  0
  -29.2460  -24.0028   32.6639 O   0  0  0  0  0  0  0  0  0  0  0  0
  -32.3226  -12.2636   21.0225 O   0  0  0  0  0  0  0  0  0  0  0  0
  -21.6901   -6.9722   21.6014 O   0  0  0  0  0  0  0  0  0  0  0  0
  -28.4954  -18.9723   28.1381 O   0  0  0  0  0  0  0  0  0  1  0  0
  -16.1939   -7.3026   21.3061 F   0  0  0  0  0  0  0  0  0  0  0  0
  -20.2780   -5.4910   19.7427 F   0  0  0  0  0  0  0  0  0  0  0  0
  1  2  1  0  0  0  0
  1  5  2  0  0  0  0
  2  6  2  0  0  0  0
  3  8  2  0  0  0  0
  3 15  1  0  0  0  0
  4  9  1  0  0  0  0
  4 15  2  0  0  0  0
  5 17  1  0  0  0  0
  6 19  1  0  0  0  0
  7 10  2  0  0  0  0
  7 18  1  0  0  0  0
  8 21  1  0  0  0  0
  9 21  2  0  0  0  0
 10 22  1  0  0  0  0
 11 12  2  0  0  0  0
 11 23  1  0  0  0  0
 12 24  1  0  0  0  0
 13 20  1  0  0  0  0
 13 22  2  0  0  0  0
 14 24  2  0  0  0  0
 14 25  1  0  0  0  0
 15 26  1  0  0  0  0
 16 26  1  0  0  0  0
 16 27  2  0  0  0  0
 16 28  1  0  0  0  0
 17 19  2  0  0  0  0
 17 33  1  0  0  0  0
 18 20  2  0  0  0  0
 18 34  1  0  0  0  0
 19 46  1  0  0  0  0
 20 35  1  0  0  0  0
 21 82  1  0  0  0  0
 22 83  1  0  0  0  0
 23 25  2  0  0  0  0
 23 82  1  0  0  0  0
 24 84  1  0  0  0  0
 25 85  1  0  0  0  0
 26 67  2  0  0  0  0
 27 68  1  0  0  0  0
 27 71  1  0  0  0  0
 28 72  1  0  0  0  0
 28 77  2  0  0  0  0
 29 47  1  0  0  0  0
 29 73  1  0  0  0  0
 29 78  2  0  0  0  0
 30 63  1  0  0  0  0
 30 69  1  0  0  0  0
 30 79  2  0  0  0  0
 31 64  1  0  0  0  0
 31 74  1  0  0  0  0
 31 80  2  0  0  0  0
 32 70  1  0  0  0  0
 32 75  1  0  0  0  0
 32 81  2  0  0  0  0
 33 36  1  0  0  0  0
 34 47  1  0  0  0  0
 35 69  1  0  0  0  0
 36 38  1  0  0  0  0
 37 41  1  0  0  0  0
 37 44  1  0  0  0  0
 38 46  1  0  0  0  0
 39 42  1  0  0  0  0
 39 48  1  0  0  0  0
 40 43  1  0  0  0  0
 40 48  1  0  0  0  0
 41 49  1  0  0  0  0
 42 50  1  0  0  0  0
 43 50  1  0  0  0  0
 44 70  1  0  0  0  0
 45 49  1  0  0  0  0
 45 70  1  0  0  0  0
 46 73  1  0  0  0  0
 47 69  1  0  0  0  0
 48 65  1  0  0  0  0
 49 68  1  0  0  0  0
 50 83  1  0  0  0  0
 51 58  1  0  0  0  0
 52 64  1  0  0  0  0
 53 66  1  0  0  0  0
 54 66  1  0  0  0  0
 55 66  1  0  0  0  0
 56 75  1  0  0  0  0
 57 76  1  0  0  0  0
 58 59  1  0  0  0  0
 59 60  1  0  0  0  0
 60 65  1  0  0  0  0
 61 62  1  0  0  0  0
 61 65  1  0  0  0  0
 62 75  1  0  0  0  0
 63 66  1  0  0  0  0
 63 74  1  0  0  0  0
 64 76  1  0  0  0  0
 67 68  1  0  0  0  0
M  CHG  1  76   1
M  ISO  4  32 100  50 101  75 100  83 101
M  END
> <Batch ID>
0098

> <Smiles>
CCCCC(CC[100N:0](C)[100C:0](=O)N1CCCC(n2nc(-c3ccc(Oc4ccc(F)cc4F)cc3)c(C(N)=O)c2N)C1)C1CC[101CH:1]([101O:1]c2ccc3c(c2)CN(C(=O)C(NC(=O)C(C)NC)C(C)(C)C)C(C(=O)NC2CCCc4ccccc42)C3)CC1

> <Shape>
0.134

> <Color>
0.177

> <Negative vol penalty>
0.000

$$$$

  -OEChem-04052319293D

 84 92  0     1  0  0  0  0  0999 V2000
  -32.4009  -14.5537   20.7150 C   0  0  0  0  0  0  0  0  0  0  0  0
  -31.5626  -15.6633   20.7525 C   0  0  0  0  0  0  0  0  0  0  0  0
  -27.3187  -28.6928   20.1132 C   0  0  0  0  0  0  0  0  0  0  0  0
  -25.6032  -27.0623   20.5987 C   0  0  0  0  0  0  0  0  0  0  0  0
  -31.8923  -13.3094   20.3449 C   0  0  0  0  0  0  0  0  0  0  0  0
  -30.2153  -15.5294   20.4190 C   0  0  0  0  0  0  0  0  0  0  0  0
  -25.4963  -18.5670   22.8706 C   0  0  0  0  0  0  0  0  0  0  0  0
  -26.3471  -29.5733   19.6375 C   0  0  0  0  0  0  0  0  0  0  0  0
  -24.6316  -27.9428   20.1231 C   0  0  0  0  0  0  0  0  0  0  0  0
  -24.7790  -19.6851   22.4475 C   0  0  0  0  0  0  0  0  0  0  0  0
  -21.6616  -29.9004   19.3712 C   0  0  0  0  0  0  0  0  0  0  0  0
  -20.4989  -30.0538   20.1263 C   0  0  0  0  0  0  0  0  0  0  0  0
  -23.1093  -18.2393   21.4775 C   0  0  0  0  0  0  0  0  0  0  0  0
  -21.8166  -30.8257   21.9985 C   0  0  0  0  0  0  0  0  0  0  0  0
  -25.2804  -19.2982   18.2493 C   0  0  0  0  0  0  0  0  0  0  0  0
  -26.9467  -27.4372   20.5938 C   0  0  0  0  0  0  0  0  0  0  0  0
  -28.4264  -26.4185   22.4050 C   0  0  0  0  0  0  0  0  0  0  0  0
  -30.5359  -13.1583   20.0160 C   0  0  0  0  0  0  0  0  0  0  0  0
  -25.0303  -17.2744   22.5903 C   0  0  0  0  0  0  0  0  0  0  0  0
  -29.6883  -14.2822   20.0429 C   0  0  0  0  0  0  0  0  0  0  0  0
  -23.8213  -17.1064   21.9003 C   0  0  0  0  0  0  0  0  0  0  0  0
  -26.5018  -19.4630   17.6344 C   0  0  0  0  0  0  0  0  0  0  0  0
  -26.3823  -20.5575   16.7428 C   0  0  0  0  0  0  0  0  0  0  0  0
  -25.0036  -29.1984   19.6425 C   0  0  0  0  0  0  0  0  0  0  0  0
  -23.5867  -19.5214   21.7484 C   0  0  0  0  0  0  0  0  0  0  0  0
  -22.9019  -30.2096   19.9298 C   0  0  0  0  0  0  0  0  0  0  0  0
  -20.5764  -30.5165   21.4399 C   0  0  0  0  0  0  0  0  0  0  0  0
  -22.9793  -30.6723   21.2434 C   0  0  0  0  0  0  0  0  0  0  0  0
  -27.9500  -26.5269   21.0847 C   0  0  0  0  0  0  0  0  0  0  0  0
  -25.0914  -21.0283   16.8402 C   0  0  0  0  0  0  0  0  0  0  0  0
  -29.3632  -25.4155   22.3507 C   0  0  0  0  0  0  0  0  0  0  0  0
  -28.0553  -27.1583   23.5758 C   0  0  0  0  0  0  0  0  0  0  0  0
  -26.1391  -14.8013   20.9296 C   0  0  0  0  0  0  0  0  0  0  0  0
  -23.5465  -13.3015   22.1753 C   0  0  0  0  0  0  0  0  0  0  0  0
  -20.4141  -13.5552   23.5059 C   0  0  0  0  0  0  0  0  0  0  0  0
  -30.1418  -20.7585   18.6687 C   0  0  0  0  0  0  0  0  0  0  0  0
  -30.0422  -11.8027   19.5764 C   0  0  0  0  0  0  0  0  0  0  0  0
  -25.8022  -16.0787   23.0769 C   0  0  0  0  0  0  0  0  0  0  0  0
  -23.2674  -15.7402   21.5919 C   0  0  0  0  0  0  0  0  0  0  0  0
  -28.5216  -11.6712   19.5999 C   0  0  0  0  0  0  0  0  0  0  0  0
  -32.4761  -23.3575   19.3565 C   0  0  0  0  0  0  0  0  0  0  0  0
  -27.8705  -12.8876   18.9492 C   0  0  0  0  0  0  0  0  0  0  0  0
  -31.6238  -24.4547   19.9965 C   0  0  0  0  0  0  0  0  0  0  0  0
  -31.7168  -22.6248   18.2526 C   0  0  0  0  0  0  0  0  0  0  0  0
  -29.5546  -23.1784   19.2978 C   0  0  0  0  0  0  0  0  0  0  0  0
  -28.2157  -14.1723   19.7120 C   0  0  1  0  0  0  0  0  0  0  0  0
  -25.4970  -14.8090   22.2880 C   0  0  1  0  0  0  0  0  0  0  0  0
  -30.2582  -23.9084   20.4547 C   0  0  2  0  0  0  0  0  0  0  0  0
  -27.4446  -21.0966   15.8687 C   0  0  0  0  0  0  0  0  0  0  0  0
  -24.4289  -22.1480   16.1383 C   0  0  0  0  0  0  0  0  0  0  0  0
  -18.5316  -12.1534   24.3940 C   0  0  0  0  0  0  0  0  0  0  0  0
  -23.6518  -22.8742   21.1115 C   0  0  0  0  0  0  0  0  0  0  0  0
  -22.7775  -12.5325   19.3245 C   0  0  0  0  0  0  0  0  0  0  0  0
  -20.4810  -11.9937   20.1636 C   0  0  0  0  0  0  0  0  0  0  0  0
  -22.4495  -10.7217   21.0180 C   0  0  0  0  0  0  0  0  0  0  0  0
  -20.5827  -14.8151   26.1786 C   0  0  0  0  0  0  0  0  0  0  0  0
  -27.7071  -18.6430   17.8691 C   0  0  0  0  0  0  0  0  0  0  0  0
  -22.7537  -21.5961   19.1331 C   0  0  0  0  0  0  0  0  0  0  0  0
  -22.9917  -20.4169   18.1789 C   0  0  0  0  0  0  0  0  0  0  0  0
  -28.4660  -18.9955   19.1612 C   0  0  0  0  0  0  0  0  0  0  0  0
  -22.1101  -13.1181   21.7489 C   0  0  1  0  0  0  0  0  0  0  0  0
  -19.7911  -12.9315   24.7418 C   0  0  2  0  0  0  0  0  0  0  0  0
  -23.5460  -21.5092   20.4435 C   0  0  2  0  0  0  0  0  0  1  0  0
  -21.9657  -12.1174   20.5677 C   0  0  0  0  0  0  0  0  0  0  0  0
  -28.5358  -25.6620   20.2525 N   0  0  0  0  0  0  0  0  0  0  0  0
  -24.4309  -20.2554   17.7591 N   0  0  0  0  0  0  0  0  0  0  0  0
  -29.3901  -25.0006   21.0517 N   0  0  0  0  0  0  0  0  0  0  0  0
  -24.0619  -14.6022   22.0832 N   0  0  0  0  0  0  0  0  0  0  0  0
  -30.4317  -22.1304   18.7526 N   0  0  0  0  0  0  0  0  0  0  0  0
  -30.1584  -24.8570   23.2877 N   0  0  0  0  0  0  0  0  0  0  0  0
  -27.0761  -28.1536   23.4547 N   0  0  0  0  0  0  0  0  0  0  0  0
  -27.4172  -14.2762   20.9144 N   0  0  0  0  0  0  0  0  0  0  0  0
  -21.3735  -12.7363   22.9489 N   0  0  0  0  0  0  0  0  0  0  0  0
  -28.9050  -20.3732   19.1712 N   0  0  0  0  0  0  0  0  0  0  0  0
  -19.4332  -13.9876   25.7305 N   0  3  0  0  0  0  0  0  0  0  0  0
  -28.5885  -26.9542   24.6928 O   0  0  0  0  0  0  0  0  0  0  0  0
  -25.5202  -15.2379   19.9663 O   0  0  0  0  0  0  0  0  0  0  0  0
  -24.1856  -12.3280   22.5822 O   0  0  0  0  0  0  0  0  0  0  0  0
  -20.0802  -14.6569   23.0754 O   0  0  0  0  0  0  0  0  0  0  0  0
  -30.9293  -19.9372   18.1868 O   0  0  0  0  0  0  0  0  0  0  0  0
  -24.0552  -30.0575   19.1786 O   0  0  0  0  0  0  0  0  0  0  0  0
  -22.8849  -20.6110   21.3337 O   0  0  0  0  0  0  0  0  0  1  0  0
  -19.4596  -30.6652   22.1644 F   0  0  0  0  0  0  0  0  0  0  0  0
  -24.1678  -30.9720   21.7851 F   0  0  0  0  0  0  0  0  0  0  0  0
  1  2  1  0  0  0  0
  1  5  2  0  0  0  0
  2  6  2  0  0  0  0
  3  8  2  0  0  0  0
  3 16  1  0  0  0  0
  4  9  1  0  0  0  0
  4 16  2  0  0  0  0
  5 18  1  0  0  0  0
  6 20  1  0  0  0  0
  7 10  2  0  0  0  0
  7 19  1  0  0  0  0
  8 24  1  0  0  0  0
  9 24  2  0  0  0  0
 10 25  1  0  0  0  0
 11 12  2  0  0  0  0
 11 26  1  0  0  0  0
 12 27  1  0  0  0  0
 13 21  1  0  0  0  0
 13 25  2  0  0  0  0
 14 27  2  0  0  0  0
 14 28  1  0  0  0  0
 15 22  2  0  0  0  0
 15 66  1  0  0  0  0
 16 29  1  0  0  0  0
 17 29  1  0  0  0  0
 17 31  2  0  0  0  0
 17 32  1  0  0  0  0
 18 20  2  0  0  0  0
 18 37  1  0  0  0  0
 19 21  2  0  0  0  0
 19 38  1  0  0  0  0
 20 46  1  0  0  0  0
 21 39  1  0  0  0  0
 22 23  1  0  0  0  0
 22 57  1  0  0  0  0
 23 30  2  0  0  0  0
 23 49  1  0  0  0  0
 24 81  1  0  0  0  0
 25 82  1  0  0  0  0
 26 28  2  0  0  0  0
 26 81  1  0  0  0  0
 27 83  1  0  0  0  0
 28 84  1  0  0  0  0
 29 65  2  0  0  0  0
 30 50  1  0  0  0  0
 30 66  1  0  0  0  0
 31 67  1  0  0  0  0
 31 70  1  0  0  0  0
 32 71  1  0  0  0  0
 32 76  2  0  0  0  0
 33 47  1  0  0  0  0
 33 72  1  0  0  0  0
 33 77  2  0  0  0  0
 34 61  1  0  0  0  0
 34 68  1  0  0  0  0
 34 78  2  0  0  0  0
 35 62  1  0  0  0  0
 35 73  1  0  0  0  0
 35 79  2  0  0  0  0
 36 69  1  0  0  0  0
 36 74  1  0  0  0  0
 36 80  2  0  0  0  0
 37 40  1  0  0  0  0
 38 47  1  0  0  0  0
 39 68  1  0  0  0  0
 40 42  1  0  0  0  0
 41 43  1  0  0  0  0
 41 44  1  0  0  0  0
 42 46  1  0  0  0  0
 43 48  1  0  0  0  0
 44 69  1  0  0  0  0
 45 48  1  0  0  0  0
 45 69  1  0  0  0  0
 46 72  1  0  0  0  0
 47 68  1  0  0  0  0
 48 67  1  0  0  0  0
 51 62  1  0  0  0  0
 52 63  1  0  0  0  0
 53 64  1  0  0  0  0
 54 64  1  0  0  0  0
 55 64  1  0  0  0  0
 56 75  1  0  0  0  0
 57 60  1  0  0  0  0
 58 59  1  0  0  0  0
 58 63  1  0  0  0  0
 59 66  1  0  0  0  0
 60 74  1  0  0  0  0
 61 64  1  0  0  0  0
 61 73  1  0  0  0  0
 62 75  1  0  0  0  0
 63 82  1  0  0  0  0
 65 67  1  0  0  0  0
M  CHG  1  75   1
M  ISO  4  36 100  63 101  74 100  82 101
M  END
> <Batch ID>
0098

> <Smiles>
CNC(C)C(=O)NC(C(=O)N1Cc2cc([101O:1][101CH:1](C)CCn3cc(CC[100NH:0][100C:0](=O)N4CCCC(n5nc(-c6ccc(Oc7ccc(F)cc7F)cc6)c(C(N)=O)c5N)C4)c(C)c3C)ccc2CC1C(=O)NC1CCCc2ccccc21)C(C)(C)C

> <Shape>
0.213

> <Color>
0.065

> <Negative vol penalty>
0.000

$$$$

  -OEChem-04052319292D

  0  0  0     0  0  0  0  0  0999 V2000
M  END
$$$$

  -OEChem-04052319293D

 86 94  0     1  0  0  0  0  0999 V2000
  -32.7360  -29.3801   18.7642 C   0  0  0  0  0  0  0  0  0  0  0  0
  -31.7864  -28.3729   18.6249 C   0  0  0  0  0  0  0  0  0  0  0  0
  -28.5813  -12.4769   21.1119 C   0  0  0  0  0  0  0  0  0  0  0  0
  -26.5551  -13.5794   20.3938 C   0  0  0  0  0  0  0  0  0  0  0  0
  -32.6565  -30.2682   19.8361 C   0  0  0  0  0  0  0  0  0  0  0  0
  -30.7573  -28.2527   19.5582 C   0  0  0  0  0  0  0  0  0  0  0  0
  -26.2461  -27.4886   17.3878 C   0  0  0  0  0  0  0  0  0  0  0  0
  -27.9908  -11.2360   20.8731 C   0  0  0  0  0  0  0  0  0  0  0  0
  -25.9645  -12.3385   20.1549 C   0  0  0  0  0  0  0  0  0  0  0  0
  -25.9704  -26.2014   16.9286 C   0  0  0  0  0  0  0  0  0  0  0  0
  -24.5168   -9.8784   21.9667 C   0  0  0  0  0  0  0  0  0  0  0  0
  -23.2114   -9.6843   22.4180 C   0  0  0  0  0  0  0  0  0  0  0  0
  -24.6721  -25.7767   18.9169 C   0  0  0  0  0  0  0  0  0  0  0  0
  -28.6381  -21.9436   17.8974 C   0  0  0  0  0  0  0  0  0  0  0  0
  -22.4906   -9.2613   20.1511 C   0  0  0  0  0  0  0  0  0  0  0  0
  -27.8635  -13.6486   20.8723 C   0  0  0  0  0  0  0  0  0  0  0  0
  -29.6361  -15.4489   20.5194 C   0  0  0  0  0  0  0  0  0  0  0  0
  -31.6204  -30.1647   20.7775 C   0  0  0  0  0  0  0  0  0  0  0  0
  -25.7452  -27.9264   18.6222 C   0  0  0  0  0  0  0  0  0  0  0  0
  -30.6646  -29.1394   20.6444 C   0  0  0  0  0  0  0  0  0  0  0  0
  -24.9409  -27.0707   19.3884 C   0  0  0  0  0  0  0  0  0  0  0  0
  -29.6395  -22.2794   18.8415 C   0  0  0  0  0  0  0  0  0  0  0  0
  -26.6824  -11.1668   20.3946 C   0  0  0  0  0  0  0  0  0  0  0  0
  -25.1856  -25.3442   17.6945 C   0  0  0  0  0  0  0  0  0  0  0  0
  -24.8092   -9.7640   20.6076 C   0  0  0  0  0  0  0  0  0  0  0  0
  -22.1982   -9.3758   21.5102 C   0  0  0  0  0  0  0  0  0  0  0  0
  -23.7961   -9.4554   19.6998 C   0  0  0  0  0  0  0  0  0  0  0  0
  -28.4728  -14.9308   21.1194 C   0  0  0  0  0  0  0  0  0  0  0  0
  -27.4445  -21.8519   18.5787 C   0  0  0  0  0  0  0  0  0  0  0  0
  -29.0275  -22.3825   20.0712 C   0  0  0  0  0  0  0  0  0  0  0  0
  -29.7927  -16.6891   21.0884 C   0  0  0  0  0  0  0  0  0  0  0  0
  -30.4980  -14.8616   19.5356 C   0  0  0  0  0  0  0  0  0  0  0  0
  -27.0473  -28.8924   21.3563 C   0  0  0  0  0  0  0  0  0  0  0  0
  -23.9675  -29.5387   22.1433 C   0  0  0  0  0  0  0  0  0  0  0  0
  -20.6532  -28.8998   21.6397 C   0  0  0  0  0  0  0  0  0  0  0  0
  -25.5581  -20.2058   23.7791 C   0  0  0  0  0  0  0  0  0  0  0  0
  -31.6030  -31.1186   21.9456 C   0  0  0  0  0  0  0  0  0  0  0  0
  -26.0296  -29.3270   19.0911 C   0  0  0  0  0  0  0  0  0  0  0  0
  -24.3621  -27.4995   20.7111 C   0  0  0  0  0  0  0  0  0  0  0  0
  -30.2666  -31.1549   22.6825 C   0  0  0  0  0  0  0  0  0  0  0  0
  -28.8518  -19.1342   25.0848 C   0  0  0  0  0  0  0  0  0  0  0  0
  -29.7600  -29.7393   22.9395 C   0  0  0  0  0  0  0  0  0  0  0  0
  -29.1847  -17.9320   24.2028 C   0  0  0  0  0  0  0  0  0  0  0  0
  -27.3460  -19.3271   25.2361 C   0  0  0  0  0  0  0  0  0  0  0  0
  -26.9509  -18.2219   23.0597 C   0  0  0  0  0  0  0  0  0  0  0  0
  -29.5192  -28.9919   21.6223 C   0  0  1  0  0  0  0  0  0  0  0  0
  -25.8939  -29.4906   20.6018 C   0  0  1  0  0  0  0  0  0  0  0  0
  -28.4599  -18.0274   22.8490 C   0  0  2  0  0  0  0  0  0  0  0  0
  -29.5989  -22.7082   21.3954 C   0  0  0  0  0  0  0  0  0  0  0  0
  -31.3347  -23.6593   17.5861 C   0  0  0  0  0  0  0  0  0  0  0  0
  -31.7629  -21.2104   18.0034 C   0  0  0  0  0  0  0  0  0  0  0  0
  -18.1688  -29.1665   21.8723 C   0  0  0  0  0  0  0  0  0  0  0  0
  -24.3871  -27.8557   24.6536 C   0  0  0  0  0  0  0  0  0  0  0  0
  -21.8995  -27.7577   24.9193 C   0  0  0  0  0  0  0  0  0  0  0  0
  -23.0765  -29.9552   25.0123 C   0  0  0  0  0  0  0  0  0  0  0  0
  -24.1971  -21.6279   22.2942 C   0  0  0  0  0  0  0  0  0  0  0  0
  -20.5443  -30.8852   19.4476 C   0  0  0  0  0  0  0  0  0  0  0  0
  -26.0638  -21.5249   18.0688 C   0  0  0  0  0  0  0  0  0  0  0  0
  -25.8237  -21.9571   16.6206 C   0  0  0  0  0  0  0  0  0  0  0  0
  -26.6985  -22.1261   20.9514 C   0  0  0  0  0  0  0  0  0  0  0  0
  -26.3207  -20.7242   21.4227 C   0  0  0  0  0  0  0  0  0  0  0  0
  -25.8980  -23.4664   16.4207 C   0  0  0  0  0  0  0  0  0  1  0  0
  -31.0734  -22.4808   18.5523 C   0  0  0  0  0  0  0  0  0  0  0  0
  -22.8454  -28.7658   22.7933 C   0  0  1  0  0  0  0  0  0  0  0  0
  -19.4680  -29.8266   21.4375 C   0  0  2  0  0  0  0  0  0  0  0  0
  -23.0645  -28.5746   24.3206 C   0  0  0  0  0  0  0  0  0  0  0  0
  -27.9290  -15.7729   22.0020 N   0  0  0  0  0  0  0  0  0  0  0  0
  -27.6933  -22.1204   19.8995 N   0  0  0  0  0  0  0  0  0  0  0  0
  -28.7543  -16.8327   21.9609 N   0  0  0  0  0  0  0  0  0  0  0  0
  -24.6739  -28.8762   21.1294 N   0  0  0  0  0  0  0  0  0  0  0  0
  -26.6768  -19.3711   23.9355 N   0  0  0  0  0  0  0  0  0  0  0  0
  -30.7160  -17.6599   20.9226 N   0  0  0  0  0  0  0  0  0  0  0  0
  -30.2159  -15.0855   18.1811 N   0  0  0  0  0  0  0  0  0  0  0  0
  -28.2774  -29.4225   21.0166 N   0  0  0  0  0  0  0  0  0  0  0  0
  -21.6136  -29.4680   22.4496 N   0  0  0  0  0  0  0  0  0  0  0  0
  -25.3375  -20.7473   22.5036 N   0  0  0  0  0  0  0  0  0  0  0  0
  -19.3453  -30.2048   20.0013 N   0  3  0  0  0  0  0  0  0  0  0  0
  -31.4794  -14.1456   19.8481 O   0  0  0  0  0  0  0  0  0  0  0  0
  -26.8368  -28.0158   22.1864 O   0  0  0  0  0  0  0  0  0  0  0  0
  -24.2039  -30.6905   22.5165 O   0  0  0  0  0  0  0  0  0  0  0  0
  -20.7187  -27.7819   21.1330 O   0  0  0  0  0  0  0  0  0  0  0  0
  -24.8052  -20.4606   24.7278 O   0  0  0  0  0  0  0  0  0  0  0  0
  -26.1059   -9.9561   20.1612 O   0  0  0  0  0  0  0  0  0  0  0  0
  -24.9155  -24.0871   17.2488 O   0  0  0  0  0  0  0  0  0  1  0  0
  -20.9449   -9.1879   21.9439 F   0  0  0  0  0  0  0  0  0  0  0  0
  -24.0711   -9.3429   18.3931 F   0  0  0  0  0  0  0  0  0  0  0  0
  1  2  1  0  0  0  0
  1  5  2  0  0  0  0
  2  6  2  0  0  0  0
  3  8  2  0  0  0  0
  3 16  1  0  0  0  0
  4  9  1  0  0  0  0
  4 16  2  0  0  0  0
  5 18  1  0  0  0  0
  6 20  1  0  0  0  0
  7 10  2  0  0  0  0
  7 19  1  0  0  0  0
  8 23  1  0  0  0  0
  9 23  2  0  0  0  0
 10 24  1  0  0  0  0
 11 12  2  0  0  0  0
 11 25  1  0  0  0  0
 12 26  1  0  0  0  0
 13 21  1  0  0  0  0
 13 24  2  0  0  0  0
 14 22  1  0  0  0  0
 14 29  2  0  0  0  0
 15 26  2  0  0  0  0
 15 27  1  0  0  0  0
 16 28  1  0  0  0  0
 17 28  1  0  0  0  0
 17 31  2  0  0  0  0
 17 32  1  0  0  0  0
 18 20  2  0  0  0  0
 18 37  1  0  0  0  0
 19 21  2  0  0  0  0
 19 38  1  0  0  0  0
 20 46  1  0  0  0  0
 21 39  1  0  0  0  0
 22 30  2  0  0  0  0
 22 63  1  0  0  0  0
 23 83  1  0  0  0  0
 24 84  1  0  0  0  0
 25 27  2  0  0  0  0
 25 83  1  0  0  0  0
 26 85  1  0  0  0  0
 27 86  1  0  0  0  0
 28 67  2  0  0  0  0
 29 58  1  0  0  0  0
 29 68  1  0  0  0  0
 30 49  1  0  0  0  0
 30 68  1  0  0  0  0
 31 69  1  0  0  0  0
 31 72  1  0  0  0  0
 32 73  1  0  0  0  0
 32 78  2  0  0  0  0
 33 47  1  0  0  0  0
 33 74  1  0  0  0  0
 33 79  2  0  0  0  0
 34 64  1  0  0  0  0
 34 70  1  0  0  0  0
 34 80  2  0  0  0  0
 35 65  1  0  0  0  0
 35 75  1  0  0  0  0
 35 81  2  0  0  0  0
 36 71  1  0  0  0  0
 36 76  1  0  0  0  0
 36 82  2  0  0  0  0
 37 40  1  0  0  0  0
 38 47  1  0  0  0  0
 39 70  1  0  0  0  0
 40 42  1  0  0  0  0
 41 43  1  0  0  0  0
 41 44  1  0  0  0  0
 42 46  1  0  0  0  0
 43 48  1  0  0  0  0
 44 71  1  0  0  0  0
 45 48  1  0  0  0  0
 45 71  1  0  0  0  0
 46 74  1  0  0  0  0
 47 70  1  0  0  0  0
 48 69  1  0  0  0  0
 50 63  1  0  0  0  0
 51 63  1  0  0  0  0
 52 65  1  0  0  0  0
 53 66  1  0  0  0  0
 54 66  1  0  0  0  0
 55 66  1  0  0  0  0
 56 76  1  0  0  0  0
 57 77  1  0  0  0  0
 58 59  1  0  0  0  0
 59 62  1  0  0  0  0
 60 61  1  0  0  0  0
 60 68  1  0  0  0  0
 61 76  1  0  0  0  0
 62 84  1  0  0  0  0
 64 66  1  0  0  0  0
 64 75  1  0  0  0  0
 65 77  1  0  0  0  0
 67 69  1  0  0  0  0
M  CHG  1  77   1
M  ISO  4  36 100  62 101  76 100  84 101
M  END
> <Batch ID>
0098

> <Smiles>
CNC(C)C(=O)NC(C(=O)N1Cc2cc([101O:1][101CH2:1]CCc3cc(C(C)C)c(C)n3CC[100N:0](C)[100C:0](=O)N3CCCC(n4nc(-c5ccc(Oc6ccc(F)cc6F)cc5)c(C(N)=O)c4N)C3)ccc2CC1C(=O)NC1CCCc2ccccc21)C(C)(C)C

> <Shape>
0.221

> <Color>
0.066

> <Negative vol penalty>
0.000

$$$$

  -OEChem-04052319293D

 86 94  0     1  0  0  0  0  0999 V2000
  -32.4159  -13.8004   21.0594 C   0  0  0  0  0  0  0  0  0  0  0  0
  -31.7144  -14.9976   21.1594 C   0  0  0  0  0  0  0  0  0  0  0  0
  -28.2373  -24.7445   17.2997 C   0  0  0  0  0  0  0  0  0  0  0  0
  -26.2617  -23.4204   17.7250 C   0  0  0  0  0  0  0  0  0  0  0  0
  -31.7888  -12.6674   20.5426 C   0  0  0  0  0  0  0  0  0  0  0  0
  -30.3857  -15.0628   20.7416 C   0  0  0  0  0  0  0  0  0  0  0  0
  -25.9089  -18.4294   23.2175 C   0  0  0  0  0  0  0  0  0  0  0  0
  -29.0031  -23.5806   17.2332 C   0  0  0  0  0  0  0  0  0  0  0  0
  -27.0275  -22.2565   17.6584 C   0  0  0  0  0  0  0  0  0  0  0  0
  -25.3585  -19.6616   22.8671 C   0  0  0  0  0  0  0  0  0  0  0  0
  -28.5232  -18.9575   17.9582 C   0  0  0  0  0  0  0  0  0  0  0  0
  -28.3148  -17.9874   18.9385 C   0  0  0  0  0  0  0  0  0  0  0  0
  -23.5968  -18.5279   21.6712 C   0  0  0  0  0  0  0  0  0  0  0  0
  -28.9386  -19.5788   20.6460 C   0  0  0  0  0  0  0  0  0  0  0  0
  -18.6808  -26.7296   22.8471 C   0  0  0  0  0  0  0  0  0  0  0  0
  -26.8666  -24.6645   17.5457 C   0  0  0  0  0  0  0  0  0  0  0  0
  -25.4139  -26.5114   16.5528 C   0  0  0  0  0  0  0  0  0  0  0  0
  -30.4488  -12.7163   20.1272 C   0  0  0  0  0  0  0  0  0  0  0  0
  -25.3124  -17.2354   22.7874 C   0  0  0  0  0  0  0  0  0  0  0  0
  -29.7405  -13.9298   20.2174 C   0  0  0  0  0  0  0  0  0  0  0  0
  -24.1401  -17.2819   22.0196 C   0  0  0  0  0  0  0  0  0  0  0  0
  -18.4969  -28.0709   22.5934 C   0  0  0  0  0  0  0  0  0  0  0  0
  -19.7769  -28.6415   22.3856 C   0  0  0  0  0  0  0  0  0  0  0  0
  -28.3982  -22.3366   17.4125 C   0  0  0  0  0  0  0  0  0  0  0  0
  -24.2040  -19.7110   22.0915 C   0  0  0  0  0  0  0  0  0  0  0  0
  -28.9394  -20.2383   18.3217 C   0  0  0  0  0  0  0  0  0  0  0  0
  -28.5225  -18.2980   20.2824 C   0  0  0  0  0  0  0  0  0  0  0  0
  -29.1470  -20.5489   19.6656 C   0  0  0  0  0  0  0  0  0  0  0  0
  -26.0751  -25.8665   17.6151 C   0  0  0  0  0  0  0  0  0  0  0  0
  -24.8092  -27.5989   17.1344 C   0  0  0  0  0  0  0  0  0  0  0  0
  -20.7040  -27.6315   22.5185 C   0  0  0  0  0  0  0  0  0  0  0  0
  -25.3517  -26.1590   15.1644 C   0  0  0  0  0  0  0  0  0  0  0  0
  -26.2271  -14.8037   20.9561 C   0  0  0  0  0  0  0  0  0  0  0  0
  -23.3987  -13.5314   21.9066 C   0  0  0  0  0  0  0  0  0  0  0  0
  -20.2376  -14.0512   23.0831 C   0  0  0  0  0  0  0  0  0  0  0  0
  -22.9549  -28.7485   22.6973 C   0  0  0  0  0  0  0  0  0  0  0  0
  -29.8279  -11.4778   19.5311 C   0  0  0  0  0  0  0  0  0  0  0  0
  -25.9033  -15.9140   23.1962 C   0  0  0  0  0  0  0  0  0  0  0  0
  -23.4497  -16.0285   21.5496 C   0  0  0  0  0  0  0  0  0  0  0  0
  -28.3042  -11.5347   19.4589 C   0  0  0  0  0  0  0  0  0  0  0  0
  -25.3000  -30.6407   20.8006 C   0  0  0  0  0  0  0  0  0  0  0  0
  -27.8462  -12.8763   18.8956 C   0  0  0  0  0  0  0  0  0  0  0  0
  -25.7001  -29.6920   19.6683 C   0  0  0  0  0  0  0  0  0  0  0  0
  -25.0818  -29.8943   22.1155 C   0  0  0  0  0  0  0  0  0  0  0  0
  -24.5486  -27.8144   20.9075 C   0  0  0  0  0  0  0  0  0  0  0  0
  -28.2903  -14.0340   19.7977 C   0  0  1  0  0  0  0  0  0  0  0  0
  -25.5024  -14.7686   22.2718 C   0  0  1  0  0  0  0  0  0  0  0  0
  -24.7161  -28.5119   19.5477 C   0  0  2  0  0  0  0  0  0  0  0  0
  -20.0638  -30.0593   22.0820 C   0  0  0  0  0  0  0  0  0  0  0  0
  -16.4472  -28.7382   23.8999 C   0  0  0  0  0  0  0  0  0  0  0  0
  -16.2657  -28.2473   21.4339 C   0  0  0  0  0  0  0  0  0  0  0  0
  -18.1478  -12.8198   23.7264 C   0  0  0  0  0  0  0  0  0  0  0  0
  -23.1196  -23.0492   19.8604 C   0  0  0  0  0  0  0  0  0  0  0  0
  -22.7335  -13.1243   18.9567 C   0  0  0  0  0  0  0  0  0  0  0  0
  -20.3390  -12.8015   19.6130 C   0  0  0  0  0  0  0  0  0  0  0  0
  -22.0821  -11.2230   20.4451 C   0  0  0  0  0  0  0  0  0  0  0  0
  -20.3778  -15.0340   25.8712 C   0  0  0  0  0  0  0  0  0  0  0  0
  -21.0614  -24.4600   21.7045 C   0  0  0  0  0  0  0  0  0  0  0  0
  -21.6461  -23.0640   21.9438 C   0  0  0  0  0  0  0  0  0  0  0  0
  -20.6434  -25.1169   23.0232 C   0  0  0  0  0  0  0  0  0  0  0  0
  -22.4813  -20.8891   20.9511 C   0  0  0  0  0  0  0  0  0  1  0  0
  -17.1989  -28.7729   22.5491 C   0  0  0  0  0  0  0  0  0  0  0  0
  -21.9818  -13.5672   21.3867 C   0  0  1  0  0  0  0  0  0  0  0  0
  -19.4650  -13.4008   24.2165 C   0  0  2  0  0  0  0  0  0  0  0  0
  -22.0248  -22.3225   20.6437 C   0  0  2  0  0  0  0  0  0  0  0  0
  -21.7980  -12.7028   20.1074 C   0  0  0  0  0  0  0  0  0  0  0  0
  -25.9067  -26.4921   18.7831 N   0  0  0  0  0  0  0  0  0  0  0  0
  -20.0263  -26.4737   22.7987 N   0  0  0  0  0  0  0  0  0  0  0  0
  -25.1327  -27.5416   18.4581 N   0  0  0  0  0  0  0  0  0  0  0  0
  -24.0695  -14.7610   21.9700 N   0  0  0  0  0  0  0  0  0  0  0  0
  -24.1352  -28.7930   21.9255 N   0  0  0  0  0  0  0  0  0  0  0  0
  -24.0378  -28.5891   16.6375 N   0  0  0  0  0  0  0  0  0  0  0  0
  -26.0304  -25.0101   14.7357 N   0  0  0  0  0  0  0  0  0  0  0  0
  -22.1159  -27.6734   22.4061 N   0  0  0  0  0  0  0  0  0  0  0  0
  -27.4322  -14.1274   20.9593 N   0  0  0  0  0  0  0  0  0  0  0  0
  -21.1277  -13.1731   22.5019 N   0  0  0  0  0  0  0  0  0  0  0  0
  -19.1703  -14.3996   25.2826 N   0  3  0  0  0  0  0  0  0  0  0  0
  -24.7269  -26.8518   14.3259 O   0  0  0  0  0  0  0  0  0  0  0  0
  -25.7292  -15.3990   20.0077 O   0  0  0  0  0  0  0  0  0  0  0  0
  -23.8895  -12.4534   22.2507 O   0  0  0  0  0  0  0  0  0  0  0  0
  -20.0657  -15.2201   22.7446 O   0  0  0  0  0  0  0  0  0  0  0  0
  -22.6938  -29.6163   23.5344 O   0  0  0  0  0  0  0  0  0  0  0  0
  -29.1451  -21.2006   17.3474 O   0  0  0  0  0  0  0  0  0  0  0  0
  -23.6651  -20.9124   21.7475 O   0  0  0  0  0  0  0  0  0  1  0  0
  -28.3208  -17.3668   21.2237 F   0  0  0  0  0  0  0  0  0  0  0  0
  -29.5457  -21.7780   20.0211 F   0  0  0  0  0  0  0  0  0  0  0  0
  1  2  1  0  0  0  0
  1  5  2  0  0  0  0
  2  6  2  0  0  0  0
  3  8  2  0  0  0  0
  3 16  1  0  0  0  0
  4  9  1  0  0  0  0
  4 16  2  0  0  0  0
  5 18  1  0  0  0  0
  6 20  1  0  0  0  0
  7 10  2  0  0  0  0
  7 19  1  0  0  0  0
  8 24  1  0  0  0  0
  9 24  2  0  0  0  0
 10 25  1  0  0  0  0
 11 12  2  0  0  0  0
 11 26  1  0  0  0  0
 12 27  1  0  0  0  0
 13 21  1  0  0  0  0
 13 25  2  0  0  0  0
 14 27  2  0  0  0  0
 14 28  1  0  0  0  0
 15 22  2  0  0  0  0
 15 68  1  0  0  0  0
 16 29  1  0  0  0  0
 17 29  1  0  0  0  0
 17 30  2  0  0  0  0
 17 32  1  0  0  0  0
 18 20  2  0  0  0  0
 18 37  1  0  0  0  0
 19 21  2  0  0  0  0
 19 38  1  0  0  0  0
 20 46  1  0  0  0  0
 21 39  1  0  0  0  0
 22 23  1  0  0  0  0
 22 62  1  0  0  0  0
 23 31  2  0  0  0  0
 23 49  1  0  0  0  0
 24 83  1  0  0  0  0
 25 84  1  0  0  0  0
 26 28  2  0  0  0  0
 26 83  1  0  0  0  0
 27 85  1  0  0  0  0
 28 86  1  0  0  0  0
 29 67  2  0  0  0  0
 30 69  1  0  0  0  0
 30 72  1  0  0  0  0
 31 68  1  0  0  0  0
 31 74  1  0  0  0  0
 32 73  1  0  0  0  0
 32 78  2  0  0  0  0
 33 47  1  0  0  0  0
 33 75  1  0  0  0  0
 33 79  2  0  0  0  0
 34 63  1  0  0  0  0
 34 70  1  0  0  0  0
 34 80  2  0  0  0  0
 35 64  1  0  0  0  0
 35 76  1  0  0  0  0
 35 81  2  0  0  0  0
 36 71  1  0  0  0  0
 36 74  1  0  0  0  0
 36 82  2  0  0  0  0
 37 40  1  0  0  0  0
 38 47  1  0  0  0  0
 39 70  1  0  0  0  0
 40 42  1  0  0  0  0
 41 43  1  0  0  0  0
 41 44  1  0  0  0  0
 42 46  1  0  0  0  0
 43 48  1  0  0  0  0
 44 71  1  0  0  0  0
 45 48  1  0  0  0  0
 45 71  1  0  0  0  0
 46 75  1  0  0  0  0
 47 70  1  0  0  0  0
 48 69  1  0  0  0  0
 50 62  1  0  0  0  0
 51 62  1  0  0  0  0
 52 64  1  0  0  0  0
 53 65  1  0  0  0  0
 54 66  1  0  0  0  0
 55 66  1  0  0  0  0
 56 66  1  0  0  0  0
 57 77  1  0  0  0  0
 58 59  1  0  0  0  0
 58 60  1  0  0  0  0
 59 65  1  0  0  0  0
 60 68  1  0  0  0  0
 61 65  1  0  0  0  0
 61 84  1  0  0  0  0
 63 66  1  0  0  0  0
 63 76  1  0  0  0  0
 64 77  1  0  0  0  0
 67 69  1  0  0  0  0
M  CHG  1  77   1
M  ISO  4  36 100  61 101  74 100  84 101
M  END
> <Batch ID>
0098

> <Smiles>
CNC(C)C(=O)NC(C(=O)N1Cc2cc([101O:1][101CH2:1]C(C)CCCn3cc(C(C)C)c(C)c3[100NH:0][100C:0](=O)N3CCCC(n4nc(-c5ccc(Oc6ccc(F)cc6F)cc5)c(C(N)=O)c4N)C3)ccc2CC1C(=O)NC1CCCc2ccccc21)C(C)(C)C

> <Shape>
0.250

> <Color>
0.072

> <Negative vol penalty>
0.000

$$$$

  -OEChem-04052319293D

 87 95  0     1  0  0  0  0  0999 V2000
  -20.3738  -11.7570   17.7630 C   0  0  0  0  0  0  0  0  0  0  0  0
  -20.7933  -13.0516   17.4740 C   0  0  0  0  0  0  0  0  0  0  0  0
  -20.2623  -28.5246   23.0845 C   0  0  0  0  0  0  0  0  0  0  0  0
  -21.4685  -26.5156   22.4964 C   0  0  0  0  0  0  0  0  0  0  0  0
  -20.9636  -11.0521   18.8114 C   0  0  0  0  0  0  0  0  0  0  0  0
  -21.8022  -13.6424   18.2340 C   0  0  0  0  0  0  0  0  0  0  0  0
  -27.2604  -18.2454   17.6534 C   0  0  0  0  0  0  0  0  0  0  0  0
  -19.1756  -28.0952   22.3228 C   0  0  0  0  0  0  0  0  0  0  0  0
  -20.3818  -26.0861   21.7347 C   0  0  0  0  0  0  0  0  0  0  0  0
  -27.7637  -19.4002   18.2509 C   0  0  0  0  0  0  0  0  0  0  0  0
  -19.0676  -26.7271   18.6863 C   0  0  0  0  0  0  0  0  0  0  0  0
  -19.3298  -26.2067   17.4190 C   0  0  0  0  0  0  0  0  0  0  0  0
  -28.7649  -18.0580   19.9873 C   0  0  0  0  0  0  0  0  0  0  0  0
  -29.1368  -25.0210   20.6136 C   0  0  0  0  0  0  0  0  0  0  0  0
  -18.3273  -24.1081   18.0735 C   0  0  0  0  0  0  0  0  0  0  0  0
  -21.4088  -27.7348   23.1713 C   0  0  0  0  0  0  0  0  0  0  0  0
  -22.7693  -27.9213   25.3212 C   0  0  0  0  0  0  0  0  0  0  0  0
  -21.9869  -11.6310   19.5785 C   0  0  0  0  0  0  0  0  0  0  0  0
  -27.4968  -16.9871   18.2253 C   0  0  0  0  0  0  0  0  0  0  0  0
  -22.4053  -12.9450   19.2945 C   0  0  0  0  0  0  0  0  0  0  0  0
  -28.2657  -16.8886   19.3938 C   0  0  0  0  0  0  0  0  0  0  0  0
  -28.1439  -24.0477   20.6066 C   0  0  0  0  0  0  0  0  0  0  0  0
  -26.8480  -24.3872   20.2343 C   0  0  0  0  0  0  0  0  0  0  0  0
  -19.2354  -26.8759   21.6479 C   0  0  0  0  0  0  0  0  0  0  0  0
  -28.5136  -19.3068   19.4196 C   0  0  0  0  0  0  0  0  0  0  0  0
  -18.4353  -25.9381   19.6472 C   0  0  0  0  0  0  0  0  0  0  0  0
  -18.9596  -24.8972   17.1126 C   0  0  0  0  0  0  0  0  0  0  0  0
  -18.0652  -24.6286   19.3408 C   0  0  0  0  0  0  0  0  0  0  0  0
  -22.5319  -28.1782   23.9576 C   0  0  0  0  0  0  0  0  0  0  0  0
  -28.7852  -26.3089   20.2429 C   0  0  0  0  0  0  0  0  0  0  0  0
  -26.5987  -25.7035   19.8808 C   0  0  0  0  0  0  0  0  0  0  0  0
  -23.9578  -28.5557   25.5883 C   0  0  0  0  0  0  0  0  0  0  0  0
  -21.9855  -27.1758   26.2623 C   0  0  0  0  0  0  0  0  0  0  0  0
  -25.6597  -14.6896   19.4297 C   0  0  0  0  0  0  0  0  0  0  0  0
  -28.4676  -13.0753   19.6085 C   0  0  0  0  0  0  0  0  0  0  0  0
  -31.8729  -13.1977   19.7970 C   0  0  0  0  0  0  0  0  0  0  0  0
  -28.6036  -30.1257   22.1528 C   0  0  0  0  0  0  0  0  0  0  0  0
  -22.5615  -10.8473   20.7319 C   0  0  0  0  0  0  0  0  0  0  0  0
  -26.9695  -15.7487   17.5539 C   0  0  0  0  0  0  0  0  0  0  0  0
  -28.5650  -15.5598   20.0365 C   0  0  0  0  0  0  0  0  0  0  0  0
  -23.8837  -11.4073   21.2501 C   0  0  0  0  0  0  0  0  0  0  0  0
  -26.6161  -32.2756   24.1787 C   0  0  0  0  0  0  0  0  0  0  0  0
  -23.7923  -12.9203   21.4208 C   0  0  0  0  0  0  0  0  0  0  0  0
  -25.3654  -31.4461   24.4748 C   0  0  0  0  0  0  0  0  0  0  0  0
  -27.1372  -32.0260   22.7651 C   0  0  0  0  0  0  0  0  0  0  0  0
  -26.1252  -29.7792   22.7304 C   0  0  0  0  0  0  0  0  0  0  0  0
  -23.5140  -13.6110   20.0803 C   0  0  1  0  0  0  0  0  0  0  0  0
  -26.8374  -14.5634   18.5052 C   0  0  1  0  0  0  0  0  0  0  0  0
  -25.5950  -29.9549   24.1637 C   0  0  2  0  0  0  0  0  0  0  0  0
  -25.7629  -23.3637   20.2151 C   0  0  0  0  0  0  0  0  0  0  0  0
  -25.1814  -26.6431   18.0201 C   0  0  0  0  0  0  0  0  0  0  0  0
  -24.6305  -27.1832   20.4201 C   0  0  0  0  0  0  0  0  0  0  0  0
  -33.8908  -11.7158   19.9693 C   0  0  0  0  0  0  0  0  0  0  0  0
  -27.7094  -22.0936   22.2412 C   0  0  0  0  0  0  0  0  0  0  0  0
  -30.0019  -22.5498   21.3963 C   0  0  0  0  0  0  0  0  0  0  0  0
  -27.8578  -12.5920   22.5589 C   0  0  0  0  0  0  0  0  0  0  0  0
  -30.2623  -11.9740   22.8828 C   0  0  0  0  0  0  0  0  0  0  0  0
  -28.8237  -10.6229   21.3571 C   0  0  0  0  0  0  0  0  0  0  0  0
  -32.9625  -14.1872   17.2294 C   0  0  0  0  0  0  0  0  0  0  0  0
  -29.8252  -27.3790   20.2373 C   0  0  0  0  0  0  0  0  0  0  0  0
  -29.9480  -28.1219   21.5728 C   0  0  0  0  0  0  0  0  0  0  0  0
  -28.2544  -21.6339   19.8360 C   0  0  0  0  0  0  0  0  0  1  0  0
  -25.2266  -26.1284   19.4703 C   0  0  0  0  0  0  0  0  0  0  0  0
  -29.5563  -12.9356   20.6450 C   0  0  1  0  0  0  0  0  0  0  0  0
  -32.9516  -12.4552   19.0291 C   0  0  2  0  0  0  0  0  0  0  0  0
  -28.5043  -22.6075   21.0167 C   0  0  0  0  0  0  0  0  0  0  0  0
  -29.1179  -12.0565   21.8501 C   0  0  0  0  0  0  0  0  0  0  0  0
  -23.4924  -28.9182   23.3975 N   0  0  0  0  0  0  0  0  0  0  0  0
  -27.5372  -26.6766   19.8753 N   0  0  0  0  0  0  0  0  0  0  0  0
  -24.3449  -29.1319   24.4142 N   0  0  0  0  0  0  0  0  0  0  0  0
  -28.0221  -14.3785   19.3456 N   0  0  0  0  0  0  0  0  0  0  0  0
  -27.3353  -30.5929   22.5351 N   0  0  0  0  0  0  0  0  0  0  0  0
  -24.6991  -28.6714   26.7106 N   0  0  0  0  0  0  0  0  0  0  0  0
  -20.7916  -26.5890   25.8211 N   0  0  0  0  0  0  0  0  0  0  0  0
  -24.7232  -13.6834   19.2884 N   0  0  0  0  0  0  0  0  0  0  0  0
  -30.7313  -12.4374   19.9381 N   0  0  0  0  0  0  0  0  0  0  0  0
  -28.7066  -28.7533   21.9614 N   0  0  0  0  0  0  0  0  0  0  0  0
  -33.7567  -13.4085   18.2143 N   0  3  0  0  0  0  0  0  0  0  0  0
  -22.3253  -27.0480   27.4630 O   0  0  0  0  0  0  0  0  0  0  0  0
  -25.6054  -15.6294   20.2142 O   0  0  0  0  0  0  0  0  0  0  0  0
  -28.0335  -12.0660   19.0476 O   0  0  0  0  0  0  0  0  0  0  0  0
  -32.0289  -14.3366   20.2317 O   0  0  0  0  0  0  0  0  0  0  0  0
  -29.5738  -30.8755   21.9990 O   0  0  0  0  0  0  0  0  0  0  0  0
  -18.1751  -26.4565   20.9046 O   0  0  0  0  0  0  0  0  0  0  0  0
  -29.0055  -20.4325   20.0052 O   0  0  0  0  0  0  0  0  0  1  0  0
  -19.2100  -24.3981   15.8951 F   0  0  0  0  0  0  0  0  0  0  0  0
  -17.4564  -23.8661   20.2594 F   0  0  0  0  0  0  0  0  0  0  0  0
  1  2  1  0  0  0  0
  1  5  2  0  0  0  0
  2  6  2  0  0  0  0
  3  8  2  0  0  0  0
  3 16  1  0  0  0  0
  4  9  1  0  0  0  0
  4 16  2  0  0  0  0
  5 18  1  0  0  0  0
  6 20  1  0  0  0  0
  7 10  2  0  0  0  0
  7 19  1  0  0  0  0
  8 24  1  0  0  0  0
  9 24  2  0  0  0  0
 10 25  1  0  0  0  0
 11 12  2  0  0  0  0
 11 26  1  0  0  0  0
 12 27  1  0  0  0  0
 13 21  1  0  0  0  0
 13 25  2  0  0  0  0
 14 22  1  0  0  0  0
 14 30  2  0  0  0  0
 15 27  2  0  0  0  0
 15 28  1  0  0  0  0
 16 29  1  0  0  0  0
 17 29  1  0  0  0  0
 17 32  2  0  0  0  0
 17 33  1  0  0  0  0
 18 20  2  0  0  0  0
 18 38  1  0  0  0  0
 19 21  2  0  0  0  0
 19 39  1  0  0  0  0
 20 47  1  0  0  0  0
 21 40  1  0  0  0  0
 22 23  2  0  0  0  0
 22 66  1  0  0  0  0
 23 31  1  0  0  0  0
 23 50  1  0  0  0  0
 24 84  1  0  0  0  0
 25 85  1  0  0  0  0
 26 28  2  0  0  0  0
 26 84  1  0  0  0  0
 27 86  1  0  0  0  0
 28 87  1  0  0  0  0
 29 68  2  0  0  0  0
 30 60  1  0  0  0  0
 30 69  1  0  0  0  0
 31 63  1  0  0  0  0
 31 69  2  0  0  0  0
 32 70  1  0  0  0  0
 32 73  1  0  0  0  0
 33 74  1  0  0  0  0
 33 79  2  0  0  0  0
 34 48  1  0  0  0  0
 34 75  1  0  0  0  0
 34 80  2  0  0  0  0
 35 64  1  0  0  0  0
 35 71  1  0  0  0  0
 35 81  2  0  0  0  0
 36 65  1  0  0  0  0
 36 76  1  0  0  0  0
 36 82  2  0  0  0  0
 37 72  1  0  0  0  0
 37 77  1  0  0  0  0
 37 83  2  0  0  0  0
 38 41  1  0  0  0  0
 39 48  1  0  0  0  0
 40 71  1  0  0  0  0
 41 43  1  0  0  0  0
 42 44  1  0  0  0  0
 42 45  1  0  0  0  0
 43 47  1  0  0  0  0
 44 49  1  0  0  0  0
 45 72  1  0  0  0  0
 46 49  1  0  0  0  0
 46 72  1  0  0  0  0
 47 75  1  0  0  0  0
 48 71  1  0  0  0  0
 49 70  1  0  0  0  0
 51 63  1  0  0  0  0
 52 63  1  0  0  0  0
 53 65  1  0  0  0  0
 54 66  1  0  0  0  0
 55 66  1  0  0  0  0
 56 67  1  0  0  0  0
 57 67  1  0  0  0  0
 58 67  1  0  0  0  0
 59 78  1  0  0  0  0
 60 61  1  0  0  0  0
 61 77  1  0  0  0  0
 62 66  1  0  0  0  0
 62 85  1  0  0  0  0
 64 67  1  0  0  0  0
 64 76  1  0  0  0  0
 65 78  1  0  0  0  0
 68 70  1  0  0  0  0
M  CHG  1  78   1
M  ISO  4  37 100  62 101  77 100  85 101
M  END
> <Batch ID>
0098

> <Smiles>
CNC(C)C(=O)NC(C(=O)N1Cc2cc([101O:1][101CH2:1]C(C)(C)c3cc(CC[100NH:0][100C:0](=O)N4CCCC(n5nc(-c6ccc(Oc7ccc(F)cc7F)cc6)c(C(N)=O)c5N)C4)nc(C(C)C)c3C)ccc2CC1C(=O)NC1CCCc2ccccc21)C(C)(C)C

> <Shape>
0.273

> <Color>
0.081

> <Negative vol penalty>
0.000

$$$$

  -OEChem-04052319293D

 86 94  0     1  0  0  0  0  0999 V2000
  -26.3073  -19.4339   19.4201 C   0  0  0  0  0  0  0  0  0  0  0  0
  -26.9692  -18.3094   19.9026 C   0  0  0  0  0  0  0  0  0  0  0  0
  -23.2299   -9.8299   19.9102 C   0  0  0  0  0  0  0  0  0  0  0  0
  -23.7830   -9.9288   22.2600 C   0  0  0  0  0  0  0  0  0  0  0  0
  -26.3546  -20.6297   20.1356 C   0  0  0  0  0  0  0  0  0  0  0  0
  -27.6797  -18.3803   21.1003 C   0  0  0  0  0  0  0  0  0  0  0  0
  -28.3083  -13.9448   25.2762 C   0  0  0  0  0  0  0  0  0  0  0  0
  -22.5030   -8.6600   20.1305 C   0  0  0  0  0  0  0  0  0  0  0  0
  -23.0560   -8.7589   22.4803 C   0  0  0  0  0  0  0  0  0  0  0  0
  -29.3292  -13.0284   25.5247 C   0  0  0  0  0  0  0  0  0  0  0  0
  -19.4639   -7.8067   21.3424 C   0  0  0  0  0  0  0  0  0  0  0  0
  -18.2072   -7.7024   20.7462 C   0  0  0  0  0  0  0  0  0  0  0  0
  -30.2277  -14.4967   27.2147 C   0  0  0  0  0  0  0  0  0  0  0  0
  -33.9976  -13.1185   24.4528 C   0  0  0  0  0  0  0  0  0  0  0  0
  -33.5317  -10.7602   24.5320 C   0  0  0  0  0  0  0  0  0  0  0  0
  -18.9420   -5.7419   19.5405 C   0  0  0  0  0  0  0  0  0  0  0  0
  -23.8700  -10.4643   20.9749 C   0  0  0  0  0  0  0  0  0  0  0  0
  -24.1425  -12.9950   20.8052 C   0  0  0  0  0  0  0  0  0  0  0  0
  -27.0580  -20.7127   21.3476 C   0  0  0  0  0  0  0  0  0  0  0  0
  -28.2457  -15.1510   25.9886 C   0  0  0  0  0  0  0  0  0  0  0  0
  -27.7375  -19.5787   21.8320 C   0  0  0  0  0  0  0  0  0  0  0  0
  -29.2036  -15.4256   26.9751 C   0  0  0  0  0  0  0  0  0  0  0  0
  -33.7386  -11.9679   25.1893 C   0  0  0  0  0  0  0  0  0  0  0  0
  -22.4160   -8.1245   21.4156 C   0  0  0  0  0  0  0  0  0  0  0  0
  -30.2907  -13.3055   26.4920 C   0  0  0  0  0  0  0  0  0  0  0  0
  -20.4597   -6.8787   21.0376 C   0  0  0  0  0  0  0  0  0  0  0  0
  -17.9463   -6.6700   19.8453 C   0  0  0  0  0  0  0  0  0  0  0  0
  -20.1987   -5.8463   20.1367 C   0  0  0  0  0  0  0  0  0  0  0  0
  -24.6215  -11.6725   20.7479 C   0  0  0  0  0  0  0  0  0  0  0  0
  -34.0389  -13.0091   23.0722 C   0  0  0  0  0  0  0  0  0  0  0  0
  -33.5937  -10.7565   23.1478 C   0  0  0  0  0  0  0  0  0  0  0  0
  -25.2388  -13.7701   20.5154 C   0  0  0  0  0  0  0  0  0  0  0  0
  -22.8245  -13.4795   21.0946 C   0  0  0  0  0  0  0  0  0  0  0  0
  -28.3988  -18.2283   25.2072 C   0  0  0  0  0  0  0  0  0  0  0  0
  -27.6851  -18.6588   28.3421 C   0  0  0  0  0  0  0  0  0  0  0  0
  -27.7211  -17.4133   31.5192 C   0  0  0  0  0  0  0  0  0  0  0  0
  -30.8414  -13.9165   21.5162 C   0  0  0  0  0  0  0  0  0  0  0  0
  -27.1199  -22.0397   22.0615 C   0  0  0  0  0  0  0  0  0  0  0  0
  -27.1228  -16.1171   25.7274 C   0  0  0  0  0  0  0  0  0  0  0  0
  -29.1693  -16.6971   27.7817 C   0  0  0  0  0  0  0  0  0  0  0  0
  -27.5832  -21.9300   23.5119 C   0  0  0  0  0  0  0  0  0  0  0  0
  -29.5683  -12.9800   18.2605 C   0  0  0  0  0  0  0  0  0  0  0  0
  -28.8132  -21.0335   23.6130 C   0  0  0  0  0  0  0  0  0  0  0  0
  -28.1042  -12.6750   18.5826 C   0  0  0  0  0  0  0  0  0  0  0  0
  -30.4891  -12.5235   19.3882 C   0  0  0  0  0  0  0  0  0  0  0  0
  -28.6876  -12.7822   21.0500 C   0  0  0  0  0  0  0  0  0  0  0  0
  -28.4982  -19.6093   23.1399 C   0  0  1  0  0  0  0  0  0  0  0  0
  -27.4518  -17.5448   26.1526 C   0  0  1  0  0  0  0  0  0  0  0  0
  -27.7037  -13.2403   19.9582 C   0  0  2  0  0  0  0  0  0  0  0  0
  -36.1890  -11.5795   26.9767 C   0  0  0  0  0  0  0  0  0  0  0  0
  -34.6123   -9.0472   21.6004 C   0  0  0  0  0  0  0  0  0  0  0  0
  -32.1415   -9.5347   21.4887 C   0  0  0  0  0  0  0  0  0  0  0  0
  -27.1038  -18.0117   33.8768 C   0  0  0  0  0  0  0  0  0  0  0  0
  -30.1394  -20.4624   28.5242 C   0  0  0  0  0  0  0  0  0  0  0  0
  -30.0214  -20.2539   31.0164 C   0  0  0  0  0  0  0  0  0  0  0  0
  -28.1351  -21.3000   29.7634 C   0  0  0  0  0  0  0  0  0  0  0  0
  -25.8080  -15.1634   31.7125 C   0  0  0  0  0  0  0  0  0  0  0  0
  -34.3158  -14.2229   22.2495 C   0  0  0  0  0  0  0  0  0  0  0  0
  -35.0180  -12.4874   27.3333 C   0  0  0  0  0  0  0  0  0  0  0  0
  -33.0525  -14.9927   21.8473 C   0  0  0  0  0  0  0  0  0  0  0  0
  -32.5371  -12.9406   27.1823 C   0  0  0  0  0  0  0  0  0  1  0  0
  -33.6828  -12.0300   26.7095 C   0  0  1  0  0  0  0  0  0  0  0  0
  -33.3748   -9.4783   22.4095 C   0  0  0  0  0  0  0  0  0  0  0  0
  -28.4891  -18.8012   29.6118 C   0  0  1  0  0  0  0  0  0  0  0  0
  -26.6448  -17.3480   32.5878 C   0  0  2  0  0  0  0  0  0  0  0  0
  -29.1983  -20.1812   29.7126 C   0  0  0  0  0  0  0  0  0  0  0  0
  -25.9208  -11.6073   20.4453 N   0  0  0  0  0  0  0  0  0  0  0  0
  -33.8429  -11.8537   22.3983 N   0  0  0  0  0  0  0  0  0  0  0  0
  -26.2676  -12.8986   20.3098 N   0  0  0  0  0  0  0  0  0  0  0  0
  -28.0554  -17.6129   27.4850 N   0  0  0  0  0  0  0  0  0  0  0  0
  -30.0645  -13.1115   20.6666 N   0  0  0  0  0  0  0  0  0  0  0  0
  -25.4134  -15.1052   20.4189 N   0  0  0  0  0  0  0  0  0  0  0  0
  -21.8154  -12.5469   21.3706 N   0  0  0  0  0  0  0  0  0  0  0  0
  -27.7755  -18.8849   24.1633 N   0  0  0  0  0  0  0  0  0  0  0  0
  -27.5710  -18.5196   30.7101 N   0  0  0  0  0  0  0  0  0  0  0  0
  -32.1362  -14.1754   21.0836 N   0  0  0  0  0  0  0  0  0  0  0  0
  -26.2974  -15.9300   32.8872 N   0  3  0  0  0  0  0  0  0  0  0  0
  -22.5460  -14.7026   21.0919 O   0  0  0  0  0  0  0  0  0  0  0  0
  -29.6056  -18.1659   25.4107 O   0  0  0  0  0  0  0  0  0  0  0  0
  -26.7579  -19.4422   28.1224 O   0  0  0  0  0  0  0  0  0  0  0  0
  -28.6085  -16.5693   31.4152 O   0  0  0  0  0  0  0  0  0  0  0  0
  -30.4110  -14.3755   22.5798 O   0  0  0  0  0  0  0  0  0  0  0  0
  -21.7066   -6.9831   21.6309 O   0  0  0  0  0  0  0  0  0  0  0  0
  -31.2886  -12.4130   26.7361 O   0  0  0  0  0  0  0  0  0  1  0  0
  -16.7389   -6.5691   19.2740 F   0  0  0  0  0  0  0  0  0  0  0  0
  -21.1510   -4.9510   19.8408 F   0  0  0  0  0  0  0  0  0  0  0  0
  1  2  1  0  0  0  0
  1  5  2  0  0  0  0
  2  6  2  0  0  0  0
  3  8  2  0  0  0  0
  3 17  1  0  0  0  0
  4  9  1  0  0  0  0
  4 17  2  0  0  0  0
  5 19  1  0  0  0  0
  6 21  1  0  0  0  0
  7 10  2  0  0  0  0
  7 20  1  0  0  0  0
  8 24  1  0  0  0  0
  9 24  2  0  0  0  0
 10 25  1  0  0  0  0
 11 12  2  0  0  0  0
 11 26  1  0  0  0  0
 12 27  1  0  0  0  0
 13 22  1  0  0  0  0
 13 25  2  0  0  0  0
 14 23  1  0  0  0  0
 14 30  2  0  0  0  0
 15 23  2  0  0  0  0
 15 31  1  0  0  0  0
 16 27  2  0  0  0  0
 16 28  1  0  0  0  0
 17 29  1  0  0  0  0
 18 29  1  0  0  0  0
 18 32  2  0  0  0  0
 18 33  1  0  0  0  0
 19 21  2  0  0  0  0
 19 38  1  0  0  0  0
 20 22  2  0  0  0  0
 20 39  1  0  0  0  0
 21 47  1  0  0  0  0
 22 40  1  0  0  0  0
 23 62  1  0  0  0  0
 24 83  1  0  0  0  0
 25 84  1  0  0  0  0
 26 28  2  0  0  0  0
 26 83  1  0  0  0  0
 27 85  1  0  0  0  0
 28 86  1  0  0  0  0
 29 67  2  0  0  0  0
 30 58  1  0  0  0  0
 30 68  1  0  0  0  0
 31 63  1  0  0  0  0
 31 68  2  0  0  0  0
 32 69  1  0  0  0  0
 32 72  1  0  0  0  0
 33 73  1  0  0  0  0
 33 78  2  0  0  0  0
 34 48  1  0  0  0  0
 34 74  1  0  0  0  0
 34 79  2  0  0  0  0
 35 64  1  0  0  0  0
 35 70  1  0  0  0  0
 35 80  2  0  0  0  0
 36 65  1  0  0  0  0
 36 75  1  0  0  0  0
 36 81  2  0  0  0  0
 37 71  1  0  0  0  0
 37 76  1  0  0  0  0
 37 82  2  0  0  0  0
 38 41  1  0  0  0  0
 39 48  1  0  0  0  0
 40 70  1  0  0  0  0
 41 43  1  0  0  0  0
 42 44  1  0  0  0  0
 42 45  1  0  0  0  0
 43 47  1  0  0  0  0
 44 49  1  0  0  0  0
 45 71  1  0  0  0  0
 46 49  1  0  0  0  0
 46 71  1  0  0  0  0
 47 74  1  0  0  0  0
 48 70  1  0  0  0  0
 49 69  1  0  0  0  0
 50 59  1  0  0  0  0
 51 63  1  0  0  0  0
 52 63  1  0  0  0  0
 53 65  1  0  0  0  0
 54 66  1  0  0  0  0
 55 66  1  0  0  0  0
 56 66  1  0  0  0  0
 57 77  1  0  0  0  0
 58 60  1  0  0  0  0
 59 62  1  0  0  0  0
 60 76  1  0  0  0  0
 61 62  1  0  0  0  0
 61 84  1  0  0  0  0
 64 66  1  0  0  0  0
 64 75  1  0  0  0  0
 65 77  1  0  0  0  0
 67 69  1  0  0  0  0
M  CHG  1  77   1
M  ISO  4  37 100  61 101  76 100  84 101
M  END
> <Batch ID>
0098

> <Smiles>
CCC(c1cc(CC[100NH:0][100C:0](=O)N2CCCC(n3nc(-c4ccc(Oc5ccc(F)cc5F)cc4)c(C(N)=O)c3N)C2)nc(C(C)C)c1)[101CH2:1][101O:1]c1ccc2c(c1)CN(C(=O)C(NC(=O)C(C)NC)C(C)(C)C)C(C(=O)NC1CCCc3ccccc31)C2

> <Shape>
0.142

> <Color>
0.170

> <Negative vol penalty>
0.000

$$$$

  -OEChem-04052319293D

 84 92  0     1  0  0  0  0  0999 V2000
  -18.6555  -22.6081   21.8017 C   0  0  0  0  0  0  0  0  0  0  0  0
  -19.9365  -22.0750   21.7012 C   0  0  0  0  0  0  0  0  0  0  0  0
  -27.1247  -13.7570   22.5034 C   0  0  0  0  0  0  0  0  0  0  0  0
  -26.8620  -13.0479   20.2088 C   0  0  0  0  0  0  0  0  0  0  0  0
  -18.4083  -23.9113   21.3720 C   0  0  0  0  0  0  0  0  0  0  0  0
  -20.9710  -22.8444   21.1699 C   0  0  0  0  0  0  0  0  0  0  0  0
  -28.0291  -23.9004   21.7893 C   0  0  0  0  0  0  0  0  0  0  0  0
  -26.5549  -12.5606   22.9384 C   0  0  0  0  0  0  0  0  0  0  0  0
  -26.2922  -11.8514   20.6438 C   0  0  0  0  0  0  0  0  0  0  0  0
  -29.1839  -23.9460   21.0094 C   0  0  0  0  0  0  0  0  0  0  0  0
  -24.4394   -8.7640   21.1386 C   0  0  0  0  0  0  0  0  0  0  0  0
  -23.2893   -8.3189   20.4869 C   0  0  0  0  0  0  0  0  0  0  0  0
  -28.6569  -26.2122   20.3724 C   0  0  0  0  0  0  0  0  0  0  0  0
  -30.0082  -23.6507   16.2397 C   0  0  0  0  0  0  0  0  0  0  0  0
  -22.1404  -10.3442   21.1314 C   0  0  0  0  0  0  0  0  0  0  0  0
  -27.2782  -14.0008   21.1385 C   0  0  0  0  0  0  0  0  0  0  0  0
  -29.2303  -15.4931   20.4530 C   0  0  0  0  0  0  0  0  0  0  0  0
  -19.4424  -24.7003   20.8440 C   0  0  0  0  0  0  0  0  0  0  0  0
  -27.1725  -25.0084   21.8580 C   0  0  0  0  0  0  0  0  0  0  0  0
  -20.7372  -24.1588   20.7314 C   0  0  0  0  0  0  0  0  0  0  0  0
  -27.4933  -26.1790   21.1559 C   0  0  0  0  0  0  0  0  0  0  0  0
  -31.2094  -24.0396   16.8824 C   0  0  0  0  0  0  0  0  0  0  0  0
  -26.1387  -11.6077   22.0086 C   0  0  0  0  0  0  0  0  0  0  0  0
  -29.4964  -25.1010   20.2985 C   0  0  0  0  0  0  0  0  0  0  0  0
  -24.4400   -9.9991   21.7868 C   0  0  0  0  0  0  0  0  0  0  0  0
  -22.1398   -9.1090   20.4832 C   0  0  0  0  0  0  0  0  0  0  0  0
  -23.2905  -10.7892   21.7832 C   0  0  0  0  0  0  0  0  0  0  0  0
  -27.8663  -15.2368   20.6885 C   0  0  0  0  0  0  0  0  0  0  0  0
  -30.0848  -22.2946   16.0107 C   0  0  0  0  0  0  0  0  0  0  0  0
  -31.9834  -22.9094   17.0264 C   0  0  0  0  0  0  0  0  0  0  0  0
  -29.2677  -16.8034   20.0429 C   0  0  0  0  0  0  0  0  0  0  0  0
  -30.3624  -14.6244   20.5923 C   0  0  0  0  0  0  0  0  0  0  0  0
  -24.1423  -25.5535   21.0678 C   0  0  0  0  0  0  0  0  0  0  0  0
  -24.6930  -28.4155   22.4919 C   0  0  0  0  0  0  0  0  0  0  0  0
  -26.9516  -30.7870   23.4517 C   0  0  0  0  0  0  0  0  0  0  0  0
  -27.2466  -21.0006   16.9697 C   0  0  0  0  0  0  0  0  0  0  0  0
  -19.1167  -26.0872   20.3489 C   0  0  0  0  0  0  0  0  0  0  0  0
  -25.9446  -24.9525   22.7250 C   0  0  0  0  0  0  0  0  0  0  0  0
  -26.6172  -27.4028   21.2123 C   0  0  0  0  0  0  0  0  0  0  0  0
  -20.3483  -26.9657   20.1443 C   0  0  0  0  0  0  0  0  0  0  0  0
  -25.6889  -20.3775   20.1101 C   0  0  0  0  0  0  0  0  0  0  0  0
  -21.4310  -26.2000   19.3906 C   0  0  0  0  0  0  0  0  0  0  0  0
  -26.2240  -19.0037   20.5177 C   0  0  0  0  0  0  0  0  0  0  0  0
  -25.4612  -20.4701   18.6029 C   0  0  0  0  0  0  0  0  0  0  0  0
  -27.1649  -18.7392   18.1845 C   0  0  0  0  0  0  0  0  0  0  0  0
  -21.8908  -24.9706   20.1835 C   0  0  1  0  0  0  0  0  0  0  0  0
  -24.8764  -25.9611   22.3139 C   0  0  1  0  0  0  0  0  0  0  0  0
  -27.4632  -18.6161   19.6886 C   0  0  2  0  0  0  0  0  0  0  0  0
  -31.6546  -26.3998   16.1322 C   0  0  0  0  0  0  0  0  0  0  0  0
  -33.3581  -23.1115   19.1295 C   0  0  0  0  0  0  0  0  0  0  0  0
  -34.4172  -23.5504   16.8844 C   0  0  0  0  0  0  0  0  0  0  0  0
  -27.0981  -33.0337   24.5599 C   0  0  0  0  0  0  0  0  0  0  0  0
  -23.6899  -29.7405   19.9329 C   0  0  0  0  0  0  0  0  0  0  0  0
  -24.7311  -31.8789   20.7148 C   0  0  0  0  0  0  0  0  0  0  0  0
  -22.9041  -30.8236   22.0457 C   0  0  0  0  0  0  0  0  0  0  0  0
  -28.6170  -29.7212   25.6539 C   0  0  0  0  0  0  0  0  0  0  0  0
  -29.1054  -21.3897   15.3721 C   0  0  0  0  0  0  0  0  0  0  0  0
  -30.5905  -25.9855   18.3810 C   0  0  0  0  0  0  0  0  0  1  0  0
  -31.5698  -25.4479   17.3286 C   0  0  1  0  0  0  0  0  0  0  0  0
  -33.3255  -22.7489   17.6280 C   0  0  0  0  0  0  0  0  0  0  0  0
  -25.1979  -29.7606   22.0285 C   0  0  1  0  0  0  0  0  0  0  0  0
  -27.1389  -31.5272   24.7638 C   0  0  2  0  0  0  0  0  0  0  0  0
  -24.1464  -30.5273   21.1777 C   0  0  0  0  0  0  0  0  0  0  0  0
  -27.0930  -16.2991   20.4482 N   0  0  0  0  0  0  0  0  0  0  0  0
  -31.2899  -21.8547   16.4927 N   0  0  0  0  0  0  0  0  0  0  0  0
  -27.9742  -17.2356   20.0575 N   0  0  0  0  0  0  0  0  0  0  0  0
  -25.4245  -27.2967   22.0689 N   0  0  0  0  0  0  0  0  0  0  0  0
  -26.6745  -20.0914   17.8748 N   0  0  0  0  0  0  0  0  0  0  0  0
  -30.2805  -17.6166   19.6749 N   0  0  0  0  0  0  0  0  0  0  0  0
  -30.1459  -13.3088   21.0244 N   0  0  0  0  0  0  0  0  0  0  0  0
  -31.7492  -20.5112   16.4461 N   0  0  0  0  0  0  0  0  0  0  0  0
  -22.7858  -25.3633   21.2508 N   0  0  0  0  0  0  0  0  0  0  0  0
  -25.6283  -30.4704   23.2282 N   0  0  0  0  0  0  0  0  0  0  0  0
  -28.3986  -20.5649   16.3265 N   0  0  0  0  0  0  0  0  0  0  0  0
  -28.4497  -31.1711   25.3769 N   0  3  0  0  0  0  0  0  0  0  0  0
  -31.5331  -15.0084   20.3568 O   0  0  0  0  0  0  0  0  0  0  0  0
  -24.7604  -25.4227   20.0178 O   0  0  0  0  0  0  0  0  0  0  0  0
  -23.6907  -28.3600   23.2088 O   0  0  0  0  0  0  0  0  0  0  0  0
  -27.8853  -30.5199   22.6985 O   0  0  0  0  0  0  0  0  0  0  0  0
  -26.7692  -22.1200   16.7551 O   0  0  0  0  0  0  0  0  0  0  0  0
  -25.5828  -10.4399   22.4328 O   0  0  0  0  0  0  0  0  0  0  0  0
  -30.6226  -25.1480   19.5360 O   0  0  0  0  0  0  0  0  0  1  0  0
  -21.0359   -8.6822   19.8560 F   0  0  0  0  0  0  0  0  0  0  0  0
  -23.2854  -11.9773   22.4032 F   0  0  0  0  0  0  0  0  0  0  0  0
  1  2  1  0  0  0  0
  1  5  2  0  0  0  0
  2  6  2  0  0  0  0
  3  8  2  0  0  0  0
  3 16  1  0  0  0  0
  4  9  1  0  0  0  0
  4 16  2  0  0  0  0
  5 18  1  0  0  0  0
  6 20  1  0  0  0  0
  7 10  2  0  0  0  0
  7 19  1  0  0  0  0
  8 23  1  0  0  0  0
  9 23  2  0  0  0  0
 10 24  1  0  0  0  0
 11 12  2  0  0  0  0
 11 25  1  0  0  0  0
 12 26  1  0  0  0  0
 13 21  1  0  0  0  0
 13 24  2  0  0  0  0
 14 22  1  0  0  0  0
 14 29  2  0  0  0  0
 15 26  2  0  0  0  0
 15 27  1  0  0  0  0
 16 28  1  0  0  0  0
 17 28  1  0  0  0  0
 17 31  2  0  0  0  0
 17 32  1  0  0  0  0
 18 20  2  0  0  0  0
 18 37  1  0  0  0  0
 19 21  2  0  0  0  0
 19 38  1  0  0  0  0
 20 46  1  0  0  0  0
 21 39  1  0  0  0  0
 22 30  2  0  0  0  0
 22 59  1  0  0  0  0
 23 81  1  0  0  0  0
 24 82  1  0  0  0  0
 25 27  2  0  0  0  0
 25 81  1  0  0  0  0
 26 83  1  0  0  0  0
 27 84  1  0  0  0  0
 28 64  2  0  0  0  0
 29 57  1  0  0  0  0
 29 65  1  0  0  0  0
 30 60  1  0  0  0  0
 30 65  1  0  0  0  0
 31 66  1  0  0  0  0
 31 69  1  0  0  0  0
 32 70  1  0  0  0  0
 32 76  2  0  0  0  0
 33 47  1  0  0  0  0
 33 72  1  0  0  0  0
 33 77  2  0  0  0  0
 34 61  1  0  0  0  0
 34 67  1  0  0  0  0
 34 78  2  0  0  0  0
 35 62  1  0  0  0  0
 35 73  1  0  0  0  0
 35 79  2  0  0  0  0
 36 68  1  0  0  0  0
 36 74  1  0  0  0  0
 36 80  2  0  0  0  0
 37 40  1  0  0  0  0
 38 47  1  0  0  0  0
 39 67  1  0  0  0  0
 40 42  1  0  0  0  0
 41 43  1  0  0  0  0
 41 44  1  0  0  0  0
 42 46  1  0  0  0  0
 43 48  1  0  0  0  0
 44 68  1  0  0  0  0
 45 48  1  0  0  0  0
 45 68  1  0  0  0  0
 46 72  1  0  0  0  0
 47 67  1  0  0  0  0
 48 66  1  0  0  0  0
 49 59  1  0  0  0  0
 50 60  1  0  0  0  0
 51 60  1  0  0  0  0
 52 62  1  0  0  0  0
 53 63  1  0  0  0  0
 54 63  1  0  0  0  0
 55 63  1  0  0  0  0
 56 75  1  0  0  0  0
 57 74  1  0  0  0  0
 58 59  1  0  0  0  0
 58 82  1  0  0  0  0
 61 63  1  0  0  0  0
 61 73  1  0  0  0  0
 62 75  1  0  0  0  0
 64 66  1  0  0  0  0
 65 71  1  0  0  0  0
M  CHG  1  75   1
M  ISO  4  36 100  58 101  74 100  82 101
M  END
> <Batch ID>
0098

> <Smiles>
CNC(C)C(=O)NC(C(=O)N1Cc2cc([101O:1][101CH2:1]C(C)c3cc(C[100NH:0][100C:0](=O)N4CCCC(n5nc(-c6ccc(Oc7ccc(F)cc7F)cc6)c(C(N)=O)c5N)C4)n(N)c3C(C)C)ccc2CC1C(=O)NC1CCCc2ccccc21)C(C)(C)C

> <Shape>
0.232

> <Color>
0.082

> <Negative vol penalty>
0.000

$$$$

  -OEChem-04052319293D

 80 87  0     1  0  0  0  0  0999 V2000
  -20.7423  -11.5756   25.4273 C   0  0  0  0  0  0  0  0  0  0  0  0
  -21.7355  -12.5184   25.1820 C   0  0  0  0  0  0  0  0  0  0  0  0
  -23.2055   -9.8513   19.9524 C   0  0  0  0  0  0  0  0  0  0  0  0
  -23.9155   -9.9312   22.2603 C   0  0  0  0  0  0  0  0  0  0  0  0
  -19.8699  -11.7470   26.5013 C   0  0  0  0  0  0  0  0  0  0  0  0
  -21.8561  -13.6338   26.0101 C   0  0  0  0  0  0  0  0  0  0  0  0
  -26.6604  -14.5879   27.2963 C   0  0  0  0  0  0  0  0  0  0  0  0
  -22.5148   -8.6664   20.2058 C   0  0  0  0  0  0  0  0  0  0  0  0
  -23.2247   -8.7462   22.5138 C   0  0  0  0  0  0  0  0  0  0  0  0
  -27.4614  -15.2170   26.3443 C   0  0  0  0  0  0  0  0  0  0  0  0
  -21.3506   -5.9338   23.8540 C   0  0  0  0  0  0  0  0  0  0  0  0
  -20.5728   -5.8702   25.0101 C   0  0  0  0  0  0  0  0  0  0  0  0
  -27.1302  -17.3258   27.4679 C   0  0  0  0  0  0  0  0  0  0  0  0
  -19.2492   -7.7314   24.2221 C   0  0  0  0  0  0  0  0  0  0  0  0
  -23.9059  -10.4837   20.9796 C   0  0  0  0  0  0  0  0  0  0  0  0
  -24.1242  -13.0207   20.8256 C   0  0  0  0  0  0  0  0  0  0  0  0
  -19.9861  -12.8601   27.3487 C   0  0  0  0  0  0  0  0  0  0  0  0
  -26.0783  -15.3262   28.3367 C   0  0  0  0  0  0  0  0  0  0  0  0
  -20.9837  -13.8210   27.0957 C   0  0  0  0  0  0  0  0  0  0  0  0
  -26.3243  -16.7033   28.4333 C   0  0  0  0  0  0  0  0  0  0  0  0
  -22.5243   -8.1138   21.4865 C   0  0  0  0  0  0  0  0  0  0  0  0
  -27.6941  -16.5867   26.4283 C   0  0  0  0  0  0  0  0  0  0  0  0
  -21.0777   -6.8962   22.8819 C   0  0  0  0  0  0  0  0  0  0  0  0
  -19.5221   -6.7690   25.1942 C   0  0  0  0  0  0  0  0  0  0  0  0
  -20.0270   -7.7950   23.0659 C   0  0  0  0  0  0  0  0  0  0  0  0
  -24.6201  -11.7076   20.7183 C   0  0  0  0  0  0  0  0  0  0  0  0
  -25.1852  -13.8183   20.4725 C   0  0  0  0  0  0  0  0  0  0  0  0
  -22.8211  -13.4786   21.2102 C   0  0  0  0  0  0  0  0  0  0  0  0
  -23.0984  -15.9549   29.2468 C   0  0  0  0  0  0  0  0  0  0  0  0
  -24.5785  -17.3484   31.7746 C   0  0  0  0  0  0  0  0  0  0  0  0
  -30.9673  -13.9600   21.0151 C   0  0  0  0  0  0  0  0  0  0  0  0
  -27.3908  -18.8101   33.0400 C   0  0  0  0  0  0  0  0  0  0  0  0
  -18.9900  -13.0268   28.4689 C   0  0  0  0  0  0  0  0  0  0  0  0
  -25.2385  -14.6281   29.3710 C   0  0  0  0  0  0  0  0  0  0  0  0
  -25.7393  -17.5374   29.5425 C   0  0  0  0  0  0  0  0  0  0  0  0
  -19.4224  -14.0436   29.5221 C   0  0  0  0  0  0  0  0  0  0  0  0
  -29.3556  -13.1558   17.9174 C   0  0  0  0  0  0  0  0  0  0  0  0
  -19.9323  -15.3178   28.8564 C   0  0  0  0  0  0  0  0  0  0  0  0
  -27.9306  -12.7970   18.3367 C   0  0  0  0  0  0  0  0  0  0  0  0
  -30.3737  -12.7134   18.9637 C   0  0  0  0  0  0  0  0  0  0  0  0
  -28.6777  -12.8816   20.7574 C   0  0  0  0  0  0  0  0  0  0  0  0
  -21.1621  -15.0314   27.9863 C   0  0  1  0  0  0  0  0  0  0  0  0
  -24.2775  -15.5672   30.0935 C   0  0  1  0  0  0  0  0  0  0  0  0
  -27.6151  -13.3385   19.7423 C   0  0  2  0  0  0  0  0  0  0  0  0
  -28.2857  -19.8830   35.1245 C   0  0  0  0  0  0  0  0  0  0  0  0
  -30.1626  -13.2637   23.2493 C   0  0  0  0  0  0  0  0  0  0  0  0
  -31.7428  -15.1874   22.9811 C   0  0  0  0  0  0  0  0  0  0  0  0
  -22.9819  -19.8742   31.1571 C   0  0  0  0  0  0  0  0  0  0  0  0
  -24.5704  -21.1502   32.6121 C   0  0  0  0  0  0  0  0  0  0  0  0
  -23.1733  -19.3299   33.5905 C   0  0  0  0  0  0  0  0  0  0  0  0
  -29.5171  -16.7702   33.3162 C   0  0  0  0  0  0  0  0  0  0  0  0
  -26.4562  -18.5188   22.6002 C   0  0  0  0  0  0  0  0  0  0  0  0
  -29.7820  -16.8700   21.7459 C   0  0  0  0  0  0  0  0  0  0  0  0
  -29.3680  -15.4642   22.2085 C   0  0  0  0  0  0  0  0  0  0  0  0
  -28.5984  -17.8112   21.5463 C   0  0  0  0  0  0  0  0  0  0  0  0
  -28.6118  -18.8893   23.7908 C   0  0  0  0  0  0  0  0  0  0  0  0
  -28.1824  -18.5693   25.2090 C   0  0  0  0  0  0  0  0  0  1  0  0
  -25.1065  -18.7303   32.0755 C   0  0  1  0  0  0  0  0  0  0  0  0
  -28.1438  -18.5884   34.3393 C   0  0  2  0  0  0  0  0  0  0  0  0
  -30.5352  -14.4617   22.3699 C   0  0  0  0  0  0  0  0  0  0  0  0
  -23.9676  -19.7560   32.3367 C   0  0  0  0  0  0  0  0  0  0  0  0
  -25.8967  -11.6688   20.3274 N   0  0  0  0  0  0  0  0  0  0  0  0
  -26.2120  -12.9675   20.1860 N   0  0  0  0  0  0  0  0  0  0  0  0
  -24.9199  -16.8100   30.5258 N   0  0  0  0  0  0  0  0  0  0  0  0
  -30.0264  -13.2296   20.2890 N   0  0  0  0  0  0  0  0  0  0  0  0
  -25.3306  -15.1574   20.3822 N   0  0  0  0  0  0  0  0  0  0  0  0
  -21.8488  -12.5252   21.5415 N   0  0  0  0  0  0  0  0  0  0  0  0
  -22.3418  -14.8837   28.8115 N   0  0  0  0  0  0  0  0  0  0  0  0
  -26.0396  -18.5777   33.1866 N   0  0  0  0  0  0  0  0  0  0  0  0
  -29.5074  -18.0543   34.0631 N   0  3  0  0  0  0  0  0  0  0  0  0
  -27.8609  -18.0259   22.8448 N   0  3  1  0  0  0  0  0  0  0  0  0
  -22.5228  -14.6966   21.2428 O   0  0  0  0  0  0  0  0  0  0  0  0
  -22.8895  -17.1385   29.0075 O   0  0  0  0  0  0  0  0  0  0  0  0
  -23.8945  -16.7652   32.6194 O   0  0  0  0  0  0  0  0  0  0  0  0
  -32.1064  -14.2132   20.6145 O   0  0  0  0  0  0  0  0  0  0  0  0
  -27.9453  -19.1585   31.9999 O   0  0  0  0  0  0  0  0  0  0  0  0
  -21.8502   -6.9576   21.7342 O   0  0  0  0  0  0  0  0  0  0  0  0
  -28.4751  -17.2033   25.5001 O   0  0  0  0  0  0  0  0  0  1  0  0
  -18.7744   -6.7068   26.3037 F   0  0  0  0  0  0  0  0  0  0  0  0
  -19.7593   -8.7211   22.1350 F   0  0  0  0  0  0  0  0  0  0  0  0
  1  2  1  0  0  0  0
  1  5  2  0  0  0  0
  2  6  2  0  0  0  0
  3  8  2  0  0  0  0
  3 15  1  0  0  0  0
  4  9  1  0  0  0  0
  4 15  2  0  0  0  0
  5 17  1  0  0  0  0
  6 19  1  0  0  0  0
  7 10  2  0  0  0  0
  7 18  1  0  0  0  0
  8 21  1  0  0  0  0
  9 21  2  0  0  0  0
 10 22  1  0  0  0  0
 11 12  2  0  0  0  0
 11 23  1  0  0  0  0
 12 24  1  0  0  0  0
 13 20  1  0  0  0  0
 13 22  2  0  0  0  0
 14 24  2  0  0  0  0
 14 25  1  0  0  0  0
 15 26  1  0  0  0  0
 16 26  1  0  0  0  0
 16 27  2  0  0  0  0
 16 28  1  0  0  0  0
 17 19  2  0  0  0  0
 17 33  1  0  0  0  0
 18 20  2  0  0  0  0
 18 34  1  0  0  0  0
 19 42  1  0  0  0  0
 20 35  1  0  0  0  0
 21 77  1  0  0  0  0
 22 78  1  0  0  0  0
 23 25  2  0  0  0  0
 23 77  1  0  0  0  0
 24 79  1  0  0  0  0
 25 80  1  0  0  0  0
 26 62  2  0  0  0  0
 27 63  1  0  0  0  0
 27 66  1  0  0  0  0
 28 67  1  0  0  0  0
 28 72  2  0  0  0  0
 29 43  1  0  0  0  0
 29 68  1  0  0  0  0
 29 73  2  0  0  0  0
 30 58  1  0  0  0  0
 30 64  1  0  0  0  0
 30 74  2  0  0  0  0
 31 60  1  0  0  0  0
 31 65  1  0  0  0  0
 31 75  2  0  0  0  0
 32 59  1  0  0  0  0
 32 69  1  0  0  0  0
 32 76  2  0  0  0  0
 33 36  1  0  0  0  0
 34 43  1  0  0  0  0
 35 64  1  0  0  0  0
 36 38  1  0  0  0  0
 37 39  1  0  0  0  0
 37 40  1  0  0  0  0
 38 42  1  0  0  0  0
 39 44  1  0  0  0  0
 40 65  1  0  0  0  0
 41 44  1  0  0  0  0
 41 65  1  0  0  0  0
 42 68  1  0  0  0  0
 43 64  1  0  0  0  0
 44 63  1  0  0  0  0
 45 59  1  0  0  0  0
 46 60  1  0  0  0  0
 47 60  1  0  0  0  0
 48 61  1  0  0  0  0
 49 61  1  0  0  0  0
 50 61  1  0  0  0  0
 51 70  1  0  0  0  0
 52 71  1  0  0  0  0
 53 54  1  0  0  0  0
 53 55  1  0  0  0  0
 54 60  1  0  0  0  0
 55 71  1  0  0  0  0
 56 57  1  0  0  0  0
 56 71  1  0  0  0  0
 57 78  1  0  0  0  0
 58 61  1  0  0  0  0
 58 69  1  0  0  0  0
 59 70  1  0  0  0  0
 62 63  1  0  0  0  0
M  CHG  2  70   1  71   1
M  ISO  4  31 100  57 101  60 100  78 101
M  END
> <Batch ID>
0098

> <Smiles>
CNC(C)C(=O)NC(C(=O)N1Cc2cc([101O:1][101CH2:1]CN(C)CCC[100C:0](C)(C)[100C:0](=O)N3CCCC(n4nc(-c5ccc(Oc6ccc(F)cc6F)cc5)c(C(N)=O)c4N)C3)ccc2CC1C(=O)NC1CCCc2ccccc21)C(C)(C)C

> <Shape>
0.166

> <Color>
0.185

> <Negative vol penalty>
0.000

$$$$

  -OEChem-04052319293D

 83 91  0     1  0  0  0  0  0999 V2000
  -21.5950  -28.9152   19.9566 C   0  0  0  0  0  0  0  0  0  0  0  0
  -22.7216  -28.1015   20.0198 C   0  0  0  0  0  0  0  0  0  0  0  0
  -23.0583   -9.8688   19.9614 C   0  0  0  0  0  0  0  0  0  0  0  0
  -23.8145   -9.8952   22.2558 C   0  0  0  0  0  0  0  0  0  0  0  0
  -21.6722  -30.2441   20.3711 C   0  0  0  0  0  0  0  0  0  0  0  0
  -23.9265  -28.6166   20.4967 C   0  0  0  0  0  0  0  0  0  0  0  0
  -26.2337  -25.4812   23.7355 C   0  0  0  0  0  0  0  0  0  0  0  0
  -22.3018   -8.7266   20.2238 C   0  0  0  0  0  0  0  0  0  0  0  0
  -23.0580   -8.7531   22.5183 C   0  0  0  0  0  0  0  0  0  0  0  0
  -26.9209  -24.3968   23.1918 C   0  0  0  0  0  0  0  0  0  0  0  0
  -19.8206   -7.9967   23.1247 C   0  0  0  0  0  0  0  0  0  0  0  0
  -19.0614   -7.9788   24.2947 C   0  0  0  0  0  0  0  0  0  0  0  0
  -28.9995  -25.5941   23.4462 C   0  0  0  0  0  0  0  0  0  0  0  0
  -20.2810   -6.0373   25.0564 C   0  0  0  0  0  0  0  0  0  0  0  0
  -28.3796  -17.9151   19.7222 C   0  0  0  0  0  0  0  0  0  0  0  0
  -23.8146  -10.4531   20.9774 C   0  0  0  0  0  0  0  0  0  0  0  0
  -24.1834  -12.9728   20.8277 C   0  0  0  0  0  0  0  0  0  0  0  0
  -22.8761  -30.7731   20.8623 C   0  0  0  0  0  0  0  0  0  0  0  0
  -26.9242  -26.6364   24.1293 C   0  0  0  0  0  0  0  0  0  0  0  0
  -24.0202  -29.9543   20.9169 C   0  0  0  0  0  0  0  0  0  0  0  0
  -28.3191  -26.6908   23.9971 C   0  0  0  0  0  0  0  0  0  0  0  0
  -22.3016   -8.1688   21.5023 C   0  0  0  0  0  0  0  0  0  0  0  0
  -28.3037  -24.4543   23.0444 C   0  0  0  0  0  0  0  0  0  0  0  0
  -20.8100   -7.0349   22.9205 C   0  0  0  0  0  0  0  0  0  0  0  0
  -19.2916   -6.9992   25.2605 C   0  0  0  0  0  0  0  0  0  0  0  0
  -21.0402   -6.0552   23.8864 C   0  0  0  0  0  0  0  0  0  0  0  0
  -24.5967  -11.6326   20.7067 C   0  0  0  0  0  0  0  0  0  0  0  0
  -27.1787  -19.0445   21.0685 C   0  0  0  0  0  0  0  0  0  0  0  0
  -28.4348  -19.0216   21.6272 C   0  0  0  0  0  0  0  0  0  0  0  0
  -25.2840  -13.7063   20.4574 C   0  0  0  0  0  0  0  0  0  0  0  0
  -22.9177  -13.5070   21.2382 C   0  0  0  0  0  0  0  0  0  0  0  0
  -26.8794  -29.6884   23.2422 C   0  0  0  0  0  0  0  0  0  0  0  0
  -28.9143  -30.0410   25.7436 C   0  0  0  0  0  0  0  0  0  0  0  0
  -31.1956  -28.6179   27.8455 C   0  0  0  0  0  0  0  0  0  0  0  0
  -30.7779  -14.6696   20.6431 C   0  0  0  0  0  0  0  0  0  0  0  0
  -22.9229  -32.2287   21.2545 C   0  0  0  0  0  0  0  0  0  0  0  0
  -26.1714  -27.7871   24.7388 C   0  0  0  0  0  0  0  0  0  0  0  0
  -29.1095  -27.9000   24.4232 C   0  0  0  0  0  0  0  0  0  0  0  0
  -24.1417  -32.5933   22.0983 C   0  0  0  0  0  0  0  0  0  0  0  0
  -29.6190  -12.2688   18.2831 C   0  0  0  0  0  0  0  0  0  0  0  0
  -25.4089  -32.0010   21.4897 C   0  0  0  0  0  0  0  0  0  0  0  0
  -28.1778  -11.9954   18.7170 C   0  0  0  0  0  0  0  0  0  0  0  0
  -30.5365  -12.4943   19.4828 C   0  0  0  0  0  0  0  0  0  0  0  0
  -28.6403  -13.2620   20.8572 C   0  0  0  0  0  0  0  0  0  0  0  0
  -25.3388  -30.4697   21.4514 C   0  0  1  0  0  0  0  0  0  0  0  0
  -26.9170  -29.1136   24.6300 C   0  0  1  0  0  0  0  0  0  0  0  0
  -27.6663  -13.0836   19.6801 C   0  0  2  0  0  0  0  0  0  0  0  0
  -25.9598  -19.6891   21.5824 C   0  0  0  0  0  0  0  0  0  0  0  0
  -32.7173  -29.1667   29.7639 C   0  0  0  0  0  0  0  0  0  0  0  0
  -30.5501  -21.3386   23.8480 C   0  0  0  0  0  0  0  0  0  0  0  0
  -30.8478  -31.4044   23.8168 C   0  0  0  0  0  0  0  0  0  0  0  0
  -32.6618  -31.0688   25.5095 C   0  0  0  0  0  0  0  0  0  0  0  0
  -30.6839  -32.4828   26.0673 C   0  0  0  0  0  0  0  0  0  0  0  0
  -29.8200  -26.7039   29.6353 C   0  0  0  0  0  0  0  0  0  0  0  0
  -28.9817  -19.6200   22.9005 C   0  0  0  0  0  0  0  0  0  0  0  0
  -30.5960  -17.9769   20.8787 C   0  0  0  0  0  0  0  0  0  0  0  0
  -30.8645  -16.8340   21.8543 C   0  0  0  0  0  0  0  0  0  0  0  0
  -28.4221  -22.1002   22.7274 C   0  0  0  0  0  0  0  0  0  1  0  0
  -30.4120  -29.9734   25.9211 C   0  0  1  0  0  0  0  0  0  0  0  0
  -31.3407  -28.6656   29.3558 C   0  0  2  0  0  0  0  0  0  0  0  0
  -29.5395  -21.0473   22.7313 C   0  0  1  0  0  0  0  0  0  0  0  0
  -31.1365  -31.2102   25.3188 C   0  0  0  0  0  0  0  0  0  0  0  0
  -27.1509  -18.3536   19.8830 N   0  0  0  0  0  0  0  0  0  0  0  0
  -25.8611  -11.5184   20.2918 N   0  0  0  0  0  0  0  0  0  0  0  0
  -29.1930  -18.2941   20.7536 N   0  0  0  0  0  0  0  0  0  0  0  0
  -26.2518  -12.7963   20.1488 N   0  0  0  0  0  0  0  0  0  0  0  0
  -28.3274  -29.0019   25.0077 N   0  0  0  0  0  0  0  0  0  0  0  0
  -29.9954  -13.5391   20.3555 N   0  0  0  0  0  0  0  0  0  0  0  0
  -25.5086  -15.0345   20.3688 N   0  0  0  0  0  0  0  0  0  0  0  0
  -21.8957  -12.6127   21.5846 N   0  0  0  0  0  0  0  0  0  0  0  0
  -25.6039  -29.9186   22.7631 N   0  0  0  0  0  0  0  0  0  0  0  0
  -30.6456  -29.7805   27.3482 N   0  0  0  0  0  0  0  0  0  0  0  0
  -30.1872  -15.6147   21.4729 N   0  0  0  0  0  0  0  0  0  0  0  0
  -31.1429  -27.3082   29.9383 N   0  3  0  0  0  0  0  0  0  0  0  0
  -22.6944  -14.7407   21.2804 O   0  0  0  0  0  0  0  0  0  0  0  0
  -27.9298  -29.9082   22.6506 O   0  0  0  0  0  0  0  0  0  0  0  0
  -28.2875  -30.9773   26.2456 O   0  0  0  0  0  0  0  0  0  0  0  0
  -31.5394  -27.6479   27.1736 O   0  0  0  0  0  0  0  0  0  0  0  0
  -31.9164  -14.8276   20.1894 O   0  0  0  0  0  0  0  0  0  0  0  0
  -21.5634   -7.0544   21.7588 O   0  0  0  0  0  0  0  0  0  0  0  0
  -28.9768  -23.3975   22.5133 O   0  0  0  0  0  0  0  0  0  1  0  0
  -18.5635   -6.9831   26.3847 F   0  0  0  0  0  0  0  0  0  0  0  0
  -21.9901   -5.1293   23.6964 F   0  0  0  0  0  0  0  0  0  0  0  0
  1  2  1  0  0  0  0
  1  5  2  0  0  0  0
  2  6  2  0  0  0  0
  3  8  2  0  0  0  0
  3 16  1  0  0  0  0
  4  9  1  0  0  0  0
  4 16  2  0  0  0  0
  5 18  1  0  0  0  0
  6 20  1  0  0  0  0
  7 10  2  0  0  0  0
  7 19  1  0  0  0  0
  8 22  1  0  0  0  0
  9 22  2  0  0  0  0
 10 23  1  0  0  0  0
 11 12  2  0  0  0  0
 11 24  1  0  0  0  0
 12 25  1  0  0  0  0
 13 21  1  0  0  0  0
 13 23  2  0  0  0  0
 14 25  2  0  0  0  0
 14 26  1  0  0  0  0
 15 63  2  0  0  0  0
 15 65  1  0  0  0  0
 16 27  1  0  0  0  0
 17 27  1  0  0  0  0
 17 30  2  0  0  0  0
 17 31  1  0  0  0  0
 18 20  2  0  0  0  0
 18 36  1  0  0  0  0
 19 21  2  0  0  0  0
 19 37  1  0  0  0  0
 20 45  1  0  0  0  0
 21 38  1  0  0  0  0
 22 80  1  0  0  0  0
 23 81  1  0  0  0  0
 24 26  2  0  0  0  0
 24 80  1  0  0  0  0
 25 82  1  0  0  0  0
 26 83  1  0  0  0  0
 27 64  2  0  0  0  0
 28 29  2  0  0  0  0
 28 48  1  0  0  0  0
 28 63  1  0  0  0  0
 29 55  1  0  0  0  0
 29 65  1  0  0  0  0
 30 66  1  0  0  0  0
 30 69  1  0  0  0  0
 31 70  1  0  0  0  0
 31 75  2  0  0  0  0
 32 46  1  0  0  0  0
 32 71  1  0  0  0  0
 32 76  2  0  0  0  0
 33 59  1  0  0  0  0
 33 67  1  0  0  0  0
 33 77  2  0  0  0  0
 34 60  1  0  0  0  0
 34 72  1  0  0  0  0
 34 78  2  0  0  0  0
 35 68  1  0  0  0  0
 35 73  1  0  0  0  0
 35 79  2  0  0  0  0
 36 39  1  0  0  0  0
 37 46  1  0  0  0  0
 38 67  1  0  0  0  0
 39 41  1  0  0  0  0
 40 42  1  0  0  0  0
 40 43  1  0  0  0  0
 41 45  1  0  0  0  0
 42 47  1  0  0  0  0
 43 68  1  0  0  0  0
 44 47  1  0  0  0  0
 44 68  1  0  0  0  0
 45 71  1  0  0  0  0
 46 67  1  0  0  0  0
 47 66  1  0  0  0  0
 49 60  1  0  0  0  0
 50 61  1  0  0  0  0
 51 62  1  0  0  0  0
 52 62  1  0  0  0  0
 53 62  1  0  0  0  0
 54 74  1  0  0  0  0
 55 61  1  0  0  0  0
 56 57  1  0  0  0  0
 56 65  1  0  0  0  0
 57 73  1  0  0  0  0
 58 61  1  0  0  0  0
 58 81  1  0  0  0  0
 59 62  1  0  0  0  0
 59 72  1  0  0  0  0
 60 74  1  0  0  0  0
 64 66  1  0  0  0  0
M  CHG  1  74   1
M  ISO  4  35 100  58 101  73 100  81 101
M  END
> <Batch ID>
0098

> <Smiles>
CNC(C)C(=O)NC(C(=O)N1Cc2cc([101O:1][101CH2:1]C(C)Cc3c(C)ncn3CC[100NH:0][100C:0](=O)N3CCCC(n4nc(-c5ccc(Oc6ccc(F)cc6F)cc5)c(C(N)=O)c4N)C3)ccc2CC1C(=O)NC1CCCc2ccccc21)C(C)(C)C

> <Shape>
0.280

> <Color>
0.190

> <Negative vol penalty>
0.000

$$$$

  -OEChem-04052319293D

 89 97  0     1  0  0  0  0  0999 V2000
  -20.2129  -27.9328   15.2062 C   0  0  0  0  0  0  0  0  0  0  0  0
  -21.5172  -27.7177   15.6397 C   0  0  0  0  0  0  0  0  0  0  0  0
  -24.7004  -10.1655   22.5550 C   0  0  0  0  0  0  0  0  0  0  0  0
  -23.4711  -12.1572   23.1542 C   0  0  0  0  0  0  0  0  0  0  0  0
  -19.6285  -29.1899   15.3549 C   0  0  0  0  0  0  0  0  0  0  0  0
  -22.2384  -28.7599   16.2211 C   0  0  0  0  0  0  0  0  0  0  0  0
  -24.7198  -27.3150   20.3924 C   0  0  0  0  0  0  0  0  0  0  0  0
  -27.8239  -22.4548   21.0004 C   0  0  0  0  0  0  0  0  0  0  0  0
  -27.5527  -21.5208   22.0002 C   0  0  0  0  0  0  0  0  0  0  0  0
  -24.1228   -9.4862   23.6275 C   0  0  0  0  0  0  0  0  0  0  0  0
  -22.8934  -11.4778   24.2268 C   0  0  0  0  0  0  0  0  0  0  0  0
  -25.9056  -26.6039   20.2136 C   0  0  0  0  0  0  0  0  0  0  0  0
  -21.1710   -7.9954   24.3331 C   0  0  0  0  0  0  0  0  0  0  0  0
  -20.6859   -6.7087   24.0999 C   0  0  0  0  0  0  0  0  0  0  0  0
  -27.1679  -28.6213   20.6089 C   0  0  0  0  0  0  0  0  0  0  0  0
  -27.9200  -20.6779   19.3663 C   0  0  0  0  0  0  0  0  0  0  0  0
  -22.2090   -5.8338   25.7588 C   0  0  0  0  0  0  0  0  0  0  0  0
  -24.3746  -11.5010   22.3183 C   0  0  0  0  0  0  0  0  0  0  0  0
  -24.4769  -12.2941   19.8959 C   0  0  0  0  0  0  0  0  0  0  0  0
  -20.3395  -30.2455   15.9473 C   0  0  0  0  0  0  0  0  0  0  0  0
  -24.7489  -28.6891   20.6704 C   0  0  0  0  0  0  0  0  0  0  0  0
  -21.6634  -30.0327   16.3767 C   0  0  0  0  0  0  0  0  0  0  0  0
  -25.9811  -29.3470   20.7932 C   0  0  0  0  0  0  0  0  0  0  0  0
  -28.0075  -22.0334   19.6835 C   0  0  0  0  0  0  0  0  0  0  0  0
  -27.4652  -20.1652   21.6831 C   0  0  0  0  0  0  0  0  0  0  0  0
  -27.6489  -19.7438   20.3661 C   0  0  0  0  0  0  0  0  0  0  0  0
  -23.2192  -10.1423   24.4635 C   0  0  0  0  0  0  0  0  0  0  0  0
  -27.1298  -27.2576   20.3190 C   0  0  0  0  0  0  0  0  0  0  0  0
  -22.1752   -8.2015   25.2791 C   0  0  0  0  0  0  0  0  0  0  0  0
  -21.2049   -5.6278   24.8127 C   0  0  0  0  0  0  0  0  0  0  0  0
  -22.6941   -7.1207   25.9920 C   0  0  0  0  0  0  0  0  0  0  0  0
  -24.9714  -12.2034   21.2108 C   0  0  0  0  0  0  0  0  0  0  0  0
  -25.4012  -13.0648   19.2339 C   0  0  0  0  0  0  0  0  0  0  0  0
  -23.2884  -11.7320   19.3240 C   0  0  0  0  0  0  0  0  0  0  0  0
  -23.6817  -31.2981   19.2013 C   0  0  0  0  0  0  0  0  0  0  0  0
  -28.8811  -17.6078   20.2333 C   0  0  0  0  0  0  0  0  0  0  0  0
  -24.6796  -32.7630   21.9180 C   0  0  0  0  0  0  0  0  0  0  0  0
  -26.7247  -32.7193   24.6497 C   0  0  0  0  0  0  0  0  0  0  0  0
  -19.6822  -31.5995   16.0436 C   0  0  0  0  0  0  0  0  0  0  0  0
  -23.4616  -29.4364   20.8870 C   0  0  0  0  0  0  0  0  0  0  0  0
  -26.0672  -30.8169   21.1103 C   0  0  0  0  0  0  0  0  0  0  0  0
  -20.3838  -32.5497   17.0107 C   0  0  0  0  0  0  0  0  0  0  0  0
  -30.1315  -14.2593   19.9804 C   0  0  0  0  0  0  0  0  0  0  0  0
  -21.8915  -32.5289   16.7801 C   0  0  0  0  0  0  0  0  0  0  0  0
  -28.8863  -13.3953   20.1758 C   0  0  0  0  0  0  0  0  0  0  0  0
  -30.0722  -15.5247   20.8302 C   0  0  0  0  0  0  0  0  0  0  0  0
  -27.5984  -15.4863   20.8038 C   0  0  0  0  0  0  0  0  0  0  0  0
  -22.4693  -31.1315   17.0349 C   0  0  1  0  0  0  0  0  0  0  0  0
  -23.5968  -30.9385   20.6577 C   0  0  1  0  0  0  0  0  0  0  0  0
  -27.6038  -14.2127   19.9399 C   0  0  2  0  0  0  0  0  0  0  0  0
  -27.1750  -19.1836   22.7706 C   0  0  0  0  0  0  0  0  0  0  0  0
  -27.3414  -34.0731   26.6707 C   0  0  0  0  0  0  0  0  0  0  0  0
  -25.3795  -18.1836   16.7337 C   0  0  0  0  0  0  0  0  0  0  0  0
  -24.6237  -17.9153   19.1028 C   0  0  0  0  0  0  0  0  0  0  0  0
  -26.3031  -34.6511   20.1546 C   0  0  0  0  0  0  0  0  0  0  0  0
  -27.5967  -35.3265   22.1890 C   0  0  0  0  0  0  0  0  0  0  0  0
  -25.1422  -35.7563   22.0743 C   0  0  0  0  0  0  0  0  0  0  0  0
  -25.8506  -30.5770   26.4952 C   0  0  0  0  0  0  0  0  0  0  0  0
  -29.4504  -26.6332   16.5580 C   0  0  0  0  0  0  0  0  0  0  0  0
  -28.3012  -23.0434   18.6030 C   0  0  0  0  0  0  0  0  0  0  0  0
  -29.7972  -23.3148   18.3965 C   0  0  0  0  0  0  0  0  0  0  0  0
  -27.1140  -18.0202   18.5452 C   0  0  0  0  0  0  0  0  0  0  0  0
  -30.1323  -24.3730   17.3499 C   0  0  0  0  0  0  0  0  0  0  0  0
  -30.3170  -26.3339   18.8734 C   0  0  0  0  0  0  0  0  0  0  0  0
  -29.4020  -27.2867   19.6172 C   0  0  0  0  0  0  0  0  0  1  0  0
  -27.5602  -18.2978   20.0030 C   0  0  2  0  0  0  0  0  0  0  0  0
  -25.9728  -33.3884   22.3823 C   0  0  1  0  0  0  0  0  0  0  0  0
  -26.4466  -32.9735   26.1203 C   0  0  2  0  0  0  0  0  0  0  0  0
  -25.6960  -18.5180   18.1943 C   0  0  0  0  0  0  0  0  0  0  0  0
  -26.2524  -34.7533   21.6921 C   0  0  0  0  0  0  0  0  0  0  0  0
  -26.1207  -12.8636   21.3762 N   0  0  0  0  0  0  0  0  0  0  0  0
  -26.3561  -13.3765   20.1565 N   0  0  0  0  0  0  0  0  0  0  0  0
  -24.7807  -31.5051   21.3071 N   0  0  0  0  0  0  0  0  0  0  0  0
  -28.8293  -16.2612   20.5938 N   0  0  0  0  0  0  0  0  0  0  0  0
  -25.4822  -13.4994   17.9584 N   0  0  0  0  0  0  0  0  0  0  0  0
  -22.4495  -10.9662   20.1450 N   0  0  0  0  0  0  0  0  0  0  0  0
  -22.5931  -30.8872   18.4560 N   0  0  0  0  0  0  0  0  0  0  0  0
  -25.8924  -33.4598   23.8372 N   0  0  0  0  0  0  0  0  0  0  0  0
  -26.6827  -31.7343   26.9138 N   0  3  0  0  0  0  0  0  0  0  0  0
  -29.5705  -25.7151   17.7491 N   0  3  1  0  0  0  0  0  0  0  0  0
  -22.9879  -11.8901   18.1164 O   0  0  0  0  0  0  0  0  0  0  0  0
  -24.6617  -31.9047   18.7848 O   0  0  0  0  0  0  0  0  0  0  0  0
  -29.9269  -18.2474   20.0935 O   0  0  0  0  0  0  0  0  0  0  0  0
  -23.6181  -33.3652   22.0973 O   0  0  0  0  0  0  0  0  0  0  0  0
  -27.5957  -31.9443   24.2607 O   0  0  0  0  0  0  0  0  0  0  0  0
  -22.6552   -9.4797   25.5100 O   0  0  0  0  0  0  0  0  0  0  0  0
  -28.2888  -26.5660   20.1443 O   0  0  0  0  0  0  0  0  0  1  0  0
  -20.7379   -4.3924   24.5898 F   0  0  0  0  0  0  0  0  0  0  0  0
  -23.6581   -7.3125   26.9029 F   0  0  0  0  0  0  0  0  0  0  0  0
  1  2  1  0  0  0  0
  1  5  2  0  0  0  0
  2  6  2  0  0  0  0
  3 10  2  0  0  0  0
  3 18  1  0  0  0  0
  4 11  1  0  0  0  0
  4 18  2  0  0  0  0
  5 20  1  0  0  0  0
  6 22  1  0  0  0  0
  7 12  2  0  0  0  0
  7 21  1  0  0  0  0
  8  9  2  0  0  0  0
  8 24  1  0  0  0  0
  9 25  1  0  0  0  0
 10 27  1  0  0  0  0
 11 27  2  0  0  0  0
 12 28  1  0  0  0  0
 13 14  2  0  0  0  0
 13 29  1  0  0  0  0
 14 30  1  0  0  0  0
 15 23  1  0  0  0  0
 15 28  2  0  0  0  0
 16 24  2  0  0  0  0
 16 26  1  0  0  0  0
 17 30  2  0  0  0  0
 17 31  1  0  0  0  0
 18 32  1  0  0  0  0
 19 32  1  0  0  0  0
 19 33  2  0  0  0  0
 19 34  1  0  0  0  0
 20 22  2  0  0  0  0
 20 39  1  0  0  0  0
 21 23  2  0  0  0  0
 21 40  1  0  0  0  0
 22 48  1  0  0  0  0
 23 41  1  0  0  0  0
 24 60  1  0  0  0  0
 25 26  2  0  0  0  0
 25 51  1  0  0  0  0
 26 66  1  0  0  0  0
 27 86  1  0  0  0  0
 28 87  1  0  0  0  0
 29 31  2  0  0  0  0
 29 86  1  0  0  0  0
 30 88  1  0  0  0  0
 31 89  1  0  0  0  0
 32 71  2  0  0  0  0
 33 72  1  0  0  0  0
 33 75  1  0  0  0  0
 34 76  1  0  0  0  0
 34 81  2  0  0  0  0
 35 49  1  0  0  0  0
 35 77  1  0  0  0  0
 35 82  2  0  0  0  0
 36 66  1  0  0  0  0
 36 74  1  0  0  0  0
 36 83  2  0  0  0  0
 37 67  1  0  0  0  0
 37 73  1  0  0  0  0
 37 84  2  0  0  0  0
 38 68  1  0  0  0  0
 38 78  1  0  0  0  0
 38 85  2  0  0  0  0
 39 42  1  0  0  0  0
 40 49  1  0  0  0  0
 41 73  1  0  0  0  0
 42 44  1  0  0  0  0
 43 45  1  0  0  0  0
 43 46  1  0  0  0  0
 44 48  1  0  0  0  0
 45 50  1  0  0  0  0
 46 74  1  0  0  0  0
 47 50  1  0  0  0  0
 47 74  1  0  0  0  0
 48 77  1  0  0  0  0
 49 73  1  0  0  0  0
 50 72  1  0  0  0  0
 52 68  1  0  0  0  0
 53 69  1  0  0  0  0
 54 69  1  0  0  0  0
 55 70  1  0  0  0  0
 56 70  1  0  0  0  0
 57 70  1  0  0  0  0
 58 79  1  0  0  0  0
 59 80  1  0  0  0  0
 60 61  1  0  0  0  0
 61 63  1  0  0  0  0
 62 66  1  0  0  0  0
 62 69  1  0  0  0  0
 63 80  1  0  0  0  0
 64 65  1  0  0  0  0
 64 80  1  0  0  0  0
 65 87  1  0  0  0  0
 67 70  1  0  0  0  0
 67 78  1  0  0  0  0
 68 79  1  0  0  0  0
 71 72  1  0  0  0  0
M  CHG  2  79   1  80   1
M  ISO  4  36 100  65 101  66 100  87 101
M  END
> <Batch ID>
0098

> <Smiles>
CNC(C)C(=O)NC(C(=O)N1Cc2cc([101O:1][101CH2:1]CN(C)CCCc3ccc(C)c([100CH:0](CC(C)C)[100C:0](=O)N4CCCC(n5nc(-c6ccc(Oc7ccc(F)cc7F)cc6)c(C(N)=O)c5N)C4)c3)ccc2CC1C(=O)NC1CCCc2ccccc21)C(C)(C)C

> <Shape>
0.300

> <Color>
0.098

> <Negative vol penalty>
0.000

$$$$
