
  -OEChem-04052319313D

 94103  0     1  0  0  0  0  0999 V2000
  -24.3946  -37.5047   24.4576 C   0  0  0  0  0  0  0  0  0  0  0  0
  -25.1439  -36.9228   23.4402 C   0  0  0  0  0  0  0  0  0  0  0  0
  -28.4649  -11.4766   22.6891 C   0  0  0  0  0  0  0  0  0  0  0  0
  -26.9447  -12.7379   21.2979 C   0  0  0  0  0  0  0  0  0  0  0  0
  -23.9520  -36.7280   25.5276 C   0  0  0  0  0  0  0  0  0  0  0  0
  -25.4520  -35.5638   23.4926 C   0  0  0  0  0  0  0  0  0  0  0  0
  -26.4931  -29.9066   19.2232 C   0  0  0  0  0  0  0  0  0  0  0  0
  -26.4358  -21.4808   19.6743 C   0  0  0  0  0  0  0  0  0  0  0  0
  -27.6363  -22.1910   19.6748 C   0  0  0  0  0  0  0  0  0  0  0  0
  -27.8094  -10.2971   22.3360 C   0  0  0  0  0  0  0  0  0  0  0  0
  -26.2892  -11.5583   20.9448 C   0  0  0  0  0  0  0  0  0  0  0  0
  -27.4248  -28.8986   18.9789 C   0  0  0  0  0  0  0  0  0  0  0  0
  -23.9901   -8.9216   19.9590 C   0  0  0  0  0  0  0  0  0  0  0  0
  -22.5954   -8.9270   19.9691 C   0  0  0  0  0  0  0  0  0  0  0  0
  -26.5395  -27.6385   20.8357 C   0  0  0  0  0  0  0  0  0  0  0  0
  -22.6144   -9.4737   22.3223 C   0  0  0  0  0  0  0  0  0  0  0  0
  -28.0325  -12.6970   22.1701 C   0  0  0  0  0  0  0  0  0  0  0  0
  -29.8029  -14.5103   21.8780 C   0  0  0  0  0  0  0  0  0  0  0  0
  -24.2467  -35.3568   25.5883 C   0  0  0  0  0  0  0  0  0  0  0  0
  -25.5832  -29.7929   20.2842 C   0  0  0  0  0  0  0  0  0  0  0  0
  -25.0141  -34.7683   24.5650 C   0  0  0  0  0  0  0  0  0  0  0  0
  -25.5956  -28.6453   21.0898 C   0  0  0  0  0  0  0  0  0  0  0  0
  -25.7757  -21.2259   20.8764 C   0  0  0  0  0  0  0  0  0  0  0  0
  -28.1768  -22.6463   20.8774 C   0  0  0  0  0  0  0  0  0  0  0  0
  -27.5168  -22.3914   22.0795 C   0  0  0  0  0  0  0  0  0  0  0  0
  -26.3162  -21.6812   22.0790 C   0  0  0  0  0  0  0  0  0  0  0  0
  -26.7216  -10.3379   21.4639 C   0  0  0  0  0  0  0  0  0  0  0  0
  -27.4500  -27.7657   19.7870 C   0  0  0  0  0  0  0  0  0  0  0  0
  -24.6971   -9.1921   21.1307 C   0  0  0  0  0  0  0  0  0  0  0  0
  -21.9075   -9.2031   21.1507 C   0  0  0  0  0  0  0  0  0  0  0  0
  -24.0092   -9.4682   22.3123 C   0  0  0  0  0  0  0  0  0  0  0  0
  -28.7089  -13.9159   22.5349 C   0  0  0  0  0  0  0  0  0  0  0  0
  -30.0698  -15.6413   22.6102 C   0  0  0  0  0  0  0  0  0  0  0  0
  -30.5142  -14.0788   20.7103 C   0  0  0  0  0  0  0  0  0  0  0  0
  -25.0068  -31.4535   22.9325 C   0  0  0  0  0  0  0  0  0  0  0  0
  -22.4997  -29.4127   23.2005 C   0  0  0  0  0  0  0  0  0  0  0  0
  -21.1317  -26.3856   22.4183 C   0  0  0  0  0  0  0  0  0  0  0  0
  -28.3439  -20.2036   25.3216 C   0  0  0  0  0  0  0  0  0  0  0  0
  -23.7867  -34.5680   26.7886 C   0  0  0  0  0  0  0  0  0  0  0  0
  -24.5670  -30.8768   20.5180 C   0  0  0  0  0  0  0  0  0  0  0  0
  -24.6269  -28.4657   22.2290 C   0  0  0  0  0  0  0  0  0  0  0  0
  -23.8375  -33.0566   26.5801 C   0  0  0  0  0  0  0  0  0  0  0  0
  -24.4999  -16.1168   20.4470 C   0  0  0  0  0  0  0  0  0  0  0  0
  -25.8416  -16.8405   20.5032 C   0  0  0  0  0  0  0  0  0  0  0  0
  -23.4651  -16.9137   19.6587 C   0  0  0  0  0  0  0  0  0  0  0  0
  -28.3290  -17.1307   27.1199 C   0  0  0  0  0  0  0  0  0  0  0  0
  -25.1672  -32.6485   25.9538 C   0  0  0  0  0  0  0  0  0  0  0  0
  -25.6940  -18.2594   21.0479 C   0  0  0  0  0  0  0  0  0  0  0  0
  -23.3136  -18.3328   20.2019 C   0  0  0  0  0  0  0  0  0  0  0  0
  -28.5103  -16.0698   26.0329 C   0  0  0  0  0  0  0  0  0  0  0  0
  -27.4675  -18.2945   26.6346 C   0  0  0  0  0  0  0  0  0  0  0  0
  -28.1060  -17.8618   24.2939 C   0  0  0  0  0  0  0  0  0  0  0  0
  -25.3477  -33.2922   24.5738 C   0  0  1  0  0  0  0  0  0  0  0  0
  -24.0252  -30.8904   21.9441 C   0  0  1  0  0  0  0  0  0  0  0  0
  -24.6602  -19.0672   20.2517 C   0  0  0  0  0  0  0  0  0  0  0  0
  -29.0141  -16.6948   24.7180 C   0  0  2  0  0  0  0  0  0  0  0  0
  -19.0861  -24.9869   22.8142 C   0  0  0  0  0  0  0  0  0  0  0  0
  -22.2212  -22.4641   24.6379 C   0  0  0  0  0  0  0  0  0  0  0  0
  -24.3547  -22.6463   25.9755 C   0  0  0  0  0  0  0  0  0  0  0  0
  -23.4933  -28.7592   26.0105 C   0  0  0  0  0  0  0  0  0  0  0  0
  -22.0292  -26.7286   25.9806 C   0  0  0  0  0  0  0  0  0  0  0  0
  -21.0120  -29.0000   25.8111 C   0  0  0  0  0  0  0  0  0  0  0  0
  -20.4749  -26.3221   19.5332 C   0  0  0  0  0  0  0  0  0  0  0  0
  -24.4914  -20.4635   20.8477 C   0  0  0  0  0  0  0  0  0  0  0  0
  -29.4767  -23.4098   20.8498 C   0  0  0  0  0  0  0  0  0  0  0  0
  -28.0987  -22.8791   23.3685 C   0  0  0  0  0  0  0  0  0  0  0  0
  -25.6055  -21.4075   23.3665 C   0  0  0  0  0  0  0  0  0  0  0  0
  -29.4275  -24.6793   19.9968 C   0  0  0  0  0  0  0  0  0  0  0  0
  -29.2510  -22.0117   23.8840 C   0  0  0  0  0  0  0  0  0  0  0  0
  -28.3283  -25.6476   20.4182 C   0  0  0  0  0  0  0  0  0  1  0  0
  -22.2846  -28.0614   23.8384 C   0  0  1  0  0  0  0  0  0  0  0  0
  -19.7551  -26.0050   21.9039 C   0  0  2  0  0  0  0  0  0  0  0  0
  -23.6478  -21.9688   24.8125 C   0  0  0  0  0  0  0  0  0  0  0  0
  -22.2245  -28.1413   25.3899 C   0  0  0  0  0  0  0  0  0  0  0  0
  -28.3083  -14.6115   23.6024 N   0  0  0  0  0  0  0  0  0  0  0  0
  -29.1553  -15.6548   23.6220 N   0  0  0  0  0  0  0  0  0  0  0  0
  -23.6565  -29.5560   22.4213 N   0  0  0  0  0  0  0  0  0  0  0  0
  -28.0001  -18.8431   25.3851 N   0  0  0  0  0  0  0  0  0  0  0  0
  -30.9953  -16.6155   22.4809 N   0  0  0  0  0  0  0  0  0  0  0  0
  -30.1087  -12.8941   20.0806 N   0  0  0  0  0  0  0  0  0  0  0  0
  -24.5625  -32.5896   23.5818 N   0  0  0  0  0  0  0  0  0  0  0  0
  -21.0851  -27.5052   23.2217 N   0  0  0  0  0  0  0  0  0  0  0  0
  -28.8471  -20.6406   24.1024 N   0  0  0  0  0  0  0  0  0  0  0  0
  -19.8565  -25.4188   20.5375 N   0  3  0  0  0  0  0  0  0  0  0  0
  -24.4042  -22.2612   23.5662 N   0  3  0  0  0  0  0  0  0  0  0  0
  -31.4912  -14.7160   20.2487 O   0  0  0  0  0  0  0  0  0  0  0  0
  -26.0867  -30.8976   23.0953 O   0  0  0  0  0  0  0  0  0  0  0  0
  -21.6682  -30.3058   23.3810 O   0  0  0  0  0  0  0  0  0  0  0  0
  -22.1462  -25.7507   22.1386 O   0  0  0  0  0  0  0  0  0  0  0  0
  -28.2170  -20.9706   26.2821 O   0  0  0  0  0  0  0  0  0  0  0  0
  -26.0819   -9.1871   21.1189 O   0  0  0  0  0  0  0  0  0  0  0  0
  -28.3588  -26.7806   19.5511 O   0  0  0  0  0  0  0  0  0  1  0  0
  -20.5681   -9.2098   21.1598 F   0  0  0  0  0  0  0  0  0  0  0  0
  -24.6829   -9.7301   23.4408 F   0  0  0  0  0  0  0  0  0  0  0  0
  1  2  1  0  0  0  0
  1  5  2  0  0  0  0
  2  6  2  0  0  0  0
  3 10  2  0  0  0  0
  3 17  1  0  0  0  0
  4 11  1  0  0  0  0
  4 17  2  0  0  0  0
  5 19  1  0  0  0  0
  6 21  1  0  0  0  0
  7 12  2  0  0  0  0
  7 20  1  0  0  0  0
  8  9  2  0  0  0  0
  8 23  1  0  0  0  0
  9 24  1  0  0  0  0
 10 27  1  0  0  0  0
 11 27  2  0  0  0  0
 12 28  1  0  0  0  0
 13 14  2  0  0  0  0
 13 29  1  0  0  0  0
 14 30  1  0  0  0  0
 15 22  1  0  0  0  0
 15 28  2  0  0  0  0
 16 30  2  0  0  0  0
 16 31  1  0  0  0  0
 17 32  1  0  0  0  0
 18 32  1  0  0  0  0
 18 33  2  0  0  0  0
 18 34  1  0  0  0  0
 19 21  2  0  0  0  0
 19 39  1  0  0  0  0
 20 22  2  0  0  0  0
 20 40  1  0  0  0  0
 21 53  1  0  0  0  0
 22 41  1  0  0  0  0
 23 26  2  0  0  0  0
 23 64  1  0  0  0  0
 24 25  2  0  0  0  0
 24 65  1  0  0  0  0
 25 26  1  0  0  0  0
 25 66  1  0  0  0  0
 26 67  1  0  0  0  0
 27 91  1  0  0  0  0
 28 92  1  0  0  0  0
 29 31  2  0  0  0  0
 29 91  1  0  0  0  0
 30 93  1  0  0  0  0
 31 94  1  0  0  0  0
 32 75  2  0  0  0  0
 33 76  1  0  0  0  0
 33 79  1  0  0  0  0
 34 80  1  0  0  0  0
 34 86  2  0  0  0  0
 35 54  1  0  0  0  0
 35 81  1  0  0  0  0
 35 87  2  0  0  0  0
 36 71  1  0  0  0  0
 36 77  1  0  0  0  0
 36 88  2  0  0  0  0
 37 72  1  0  0  0  0
 37 82  1  0  0  0  0
 37 89  2  0  0  0  0
 38 78  1  0  0  0  0
 38 83  1  0  0  0  0
 38 90  2  0  0  0  0
 39 42  1  0  0  0  0
 40 54  1  0  0  0  0
 41 77  1  0  0  0  0
 42 47  1  0  0  0  0
 43 44  1  0  0  0  0
 43 45  1  0  0  0  0
 44 48  1  0  0  0  0
 45 49  1  0  0  0  0
 46 50  1  0  0  0  0
 46 51  1  0  0  0  0
 47 53  1  0  0  0  0
 48 55  1  0  0  0  0
 49 55  1  0  0  0  0
 50 56  1  0  0  0  0
 51 78  1  0  0  0  0
 52 56  1  0  0  0  0
 52 78  1  0  0  0  0
 53 81  1  0  0  0  0
 54 77  1  0  0  0  0
 55 64  1  0  0  0  0
 56 76  1  0  0  0  0
 57 72  1  0  0  0  0
 58 73  1  0  0  0  0
 59 73  1  0  0  0  0
 60 74  1  0  0  0  0
 61 74  1  0  0  0  0
 62 74  1  0  0  0  0
 63 84  1  0  0  0  0
 65 68  1  0  0  0  0
 66 69  1  0  0  0  0
 67 85  1  0  0  0  0
 68 70  1  0  0  0  0
 69 83  1  0  0  0  0
 70 92  1  0  0  0  0
 71 74  1  0  0  0  0
 71 82  1  0  0  0  0
 72 84  1  0  0  0  0
 73 85  1  0  0  0  0
 75 76  1  0  0  0  0
M  CHG  2  84   1  85   1
M  ISO  4  38 100  70 101  83 100  92 101
M  END
> <Batch ID>
0099

> <Smiles>
CNC(C)C(=O)NC(C(=O)N1Cc2cc([101O:1][101CH2:1]CCc3ccc(CC4CCCCC4)c(CNC(C)C)c3CC[100NH:0][100C:0](=O)N3CCCC(n4nc(-c5ccc(Oc6ccc(F)cc6F)cc5)c(C(N)=O)c4N)C3)ccc2CC1C(=O)NC1CCCc2ccccc21)C(C)(C)C

> <Shape>
0.263

> <Color>
0.075

> <Negative vol penalty>
0.000

$$$$

  -OEChem-04052319313D

 87 95  0     1  0  0  0  0  0999 V2000
  -23.4270  -10.5423   21.5713 C   0  0  0  0  0  0  0  0  0  0  0  0
  -24.4523  -11.4807   21.6306 C   0  0  0  0  0  0  0  0  0  0  0  0
  -25.7842  -27.8675   20.6343 C   0  0  0  0  0  0  0  0  0  0  0  0
  -26.3100  -26.6397   22.6476 C   0  0  0  0  0  0  0  0  0  0  0  0
  -22.2780  -10.8129   20.8294 C   0  0  0  0  0  0  0  0  0  0  0  0
  -24.3297  -12.6899   20.9470 C   0  0  0  0  0  0  0  0  0  0  0  0
  -25.7584  -16.6589   23.7489 C   0  0  0  0  0  0  0  0  0  0  0  0
  -24.7284  -28.4967   21.2938 C   0  0  0  0  0  0  0  0  0  0  0  0
  -25.2542  -27.2689   23.3071 C   0  0  0  0  0  0  0  0  0  0  0  0
  -27.1279  -16.8827   23.8843 C   0  0  0  0  0  0  0  0  0  0  0  0
  -24.3220  -31.0377   23.4872 C   0  0  0  0  0  0  0  0  0  0  0  0
  -24.1807  -32.4149   23.3179 C   0  0  0  0  0  0  0  0  0  0  0  0
  -27.0101  -18.5932   22.1874 C   0  0  0  0  0  0  0  0  0  0  0  0
  -31.2582  -14.5617   20.9456 C   0  0  0  0  0  0  0  0  0  0  0  0
  -21.9790  -32.0741   22.3833 C   0  0  0  0  0  0  0  0  0  0  0  0
  -26.5750  -26.9389   21.3112 C   0  0  0  0  0  0  0  0  0  0  0  0
  -29.0005  -26.7273   20.5498 C   0  0  0  0  0  0  0  0  0  0  0  0
  -22.1370  -12.0301   20.1443 C   0  0  0  0  0  0  0  0  0  0  0  0
  -25.0053  -17.3943   22.8223 C   0  0  0  0  0  0  0  0  0  0  0  0
  -23.1782  -12.9765   20.1942 C   0  0  0  0  0  0  0  0  0  0  0  0
  -25.6308  -18.3786   22.0439 C   0  0  0  0  0  0  0  0  0  0  0  0
  -30.4130  -13.7092   20.1932 C   0  0  0  0  0  0  0  0  0  0  0  0
  -24.4634  -28.1975   22.6301 C   0  0  0  0  0  0  0  0  0  0  0  0
  -27.7544  -17.8480   23.1015 C   0  0  0  0  0  0  0  0  0  0  0  0
  -23.2918  -30.1785   23.1045 C   0  0  0  0  0  0  0  0  0  0  0  0
  -23.0092  -32.9332   22.7659 C   0  0  0  0  0  0  0  0  0  0  0  0
  -22.1203  -30.6968   22.5526 C   0  0  0  0  0  0  0  0  0  0  0  0
  -27.6655  -26.2881   20.6304 C   0  0  0  0  0  0  0  0  0  0  0  0
  -30.7475  -15.8372   20.8486 C   0  0  0  0  0  0  0  0  0  0  0  0
  -29.4117  -14.4898   19.6591 C   0  0  0  0  0  0  0  0  0  0  0  0
  -29.6334  -25.7665   19.7996 C   0  0  0  0  0  0  0  0  0  0  0  0
  -29.6138  -27.8990   21.1037 C   0  0  0  0  0  0  0  0  0  0  0  0
  -23.2916  -16.6694   20.2452 C   0  0  0  0  0  0  0  0  0  0  0  0
  -22.5151  -19.8170   20.3551 C   0  0  0  0  0  0  0  0  0  0  0  0
  -23.3363  -22.9699   21.3707 C   0  0  0  0  0  0  0  0  0  0  0  0
  -28.6822  -20.1158   18.9212 C   0  0  0  0  0  0  0  0  0  0  0  0
  -20.8968  -12.2580   19.3169 C   0  0  0  0  0  0  0  0  0  0  0  0
  -23.5241  -17.1594   22.7073 C   0  0  0  0  0  0  0  0  0  0  0  0
  -24.8634  -19.2091   21.0490 C   0  0  0  0  0  0  0  0  0  0  0  0
  -20.6845  -13.7186   18.9272 C   0  0  0  0  0  0  0  0  0  0  0  0
  -28.8229  -22.5483   16.3648 C   0  0  0  0  0  0  0  0  0  0  0  0
  -21.9831  -14.3264   18.4067 C   0  0  0  0  0  0  0  0  0  0  0  0
  -28.6620  -23.8392   17.1664 C   0  0  0  0  0  0  0  0  0  0  0  0
  -27.9194  -21.4304   16.8886 C   0  0  0  0  0  0  0  0  0  0  0  0
  -27.9108  -22.4588   19.1391 C   0  0  0  0  0  0  0  0  0  0  0  0
  -23.0717  -14.3100   19.4866 C   0  0  1  0  0  0  0  0  0  0  0  0
  -22.9502  -17.6088   21.3671 C   0  0  1  0  0  0  0  0  0  0  0  0
  -28.8515  -23.5798   18.6710 C   0  0  2  0  0  0  0  0  0  0  0  0
  -28.2695  -14.1163   18.7977 C   0  0  0  0  0  0  0  0  0  0  0  0
  -30.4868  -11.4708   21.3497 C   0  0  0  0  0  0  0  0  0  0  0  0
  -31.8986  -11.8784   19.3014 C   0  0  0  0  0  0  0  0  0  0  0  0
  -32.6372  -17.4853   20.9017 C   0  0  0  0  0  0  0  0  0  0  0  0
  -22.5248  -25.3428   21.2799 C   0  0  0  0  0  0  0  0  0  0  0  0
  -23.4258  -20.0147   17.4497 C   0  0  0  0  0  0  0  0  0  0  0  0
  -23.4968  -22.5033   17.7142 C   0  0  0  0  0  0  0  0  0  0  0  0
  -21.3365  -21.2841   17.9767 C   0  0  0  0  0  0  0  0  0  0  0  0
  -27.3843  -18.5597   17.4049 C   0  0  0  0  0  0  0  0  0  0  0  0
  -23.1324  -23.1353   24.3186 C   0  0  0  0  0  0  0  0  0  0  0  0
  -31.2799  -17.1114   22.9959 C   0  0  0  0  0  0  0  0  0  0  0  0
  -28.7933  -16.9145   19.7164 C   0  0  0  0  0  0  0  0  0  0  0  0
  -29.3910  -17.7755   18.6067 C   0  0  0  0  0  0  0  0  0  0  0  0
  -29.8972  -16.9573   23.6223 C   0  0  0  0  0  0  0  0  0  1  0  0
  -30.5813  -12.2527   20.0192 C   0  0  0  0  0  0  0  0  0  0  0  0
  -31.2506  -17.1356   21.4554 C   0  0  2  0  0  0  0  0  0  0  0  0
  -23.0998  -21.0832   19.7774 C   0  0  1  0  0  0  0  0  0  0  0  0
  -22.5265  -24.0450   22.0727 C   0  0  2  0  0  0  0  0  0  0  0  0
  -22.8548  -21.2045   18.2468 C   0  0  0  0  0  0  0  0  0  0  0  0
  -27.4611  -25.1379   19.9829 N   0  0  0  0  0  0  0  0  0  0  0  0
  -29.6253  -15.7816   20.0639 N   0  0  0  0  0  0  0  0  0  0  0  0
  -28.6761  -24.8462   19.4882 N   0  0  0  0  0  0  0  0  0  0  0  0
  -23.4186  -18.9378   20.9687 N   0  0  0  0  0  0  0  0  0  0  0  0
  -28.0971  -21.2481   18.3356 N   0  0  0  0  0  0  0  0  0  0  0  0
  -30.9097  -25.6275   19.3824 N   0  0  0  0  0  0  0  0  0  0  0  0
  -28.8187  -28.7808   21.8482 N   0  0  0  0  0  0  0  0  0  0  0  0
  -22.8517  -15.3744   20.4422 N   0  0  0  0  0  0  0  0  0  0  0  0
  -22.5460  -22.1828   20.5601 N   0  0  0  0  0  0  0  0  0  0  0  0
  -28.5300  -18.8939   18.2487 N   0  0  0  0  0  0  0  0  0  0  0  0
  -23.0922  -24.3204   23.4237 N   0  3  0  0  0  0  0  0  0  0  0  0
  -30.8273  -28.1647   20.9292 O   0  0  0  0  0  0  0  0  0  0  0  0
  -23.9072  -17.0888   19.2722 O   0  0  0  0  0  0  0  0  0  0  0  0
  -21.3004  -19.6188   20.2716 O   0  0  0  0  0  0  0  0  0  0  0  0
  -24.5493  -22.8436   21.5231 O   0  0  0  0  0  0  0  0  0  0  0  0
  -29.3004  -20.1895   19.9910 O   0  0  0  0  0  0  0  0  0  0  0  0
  -23.4334  -28.8115   23.2740 O   0  0  0  0  0  0  0  0  0  0  0  0
  -29.0911  -18.0680   23.2312 O   0  0  0  0  0  0  0  0  0  1  0  0
  -22.8730  -34.2559   22.6048 F   0  0  0  0  0  0  0  0  0  0  0  0
  -21.1267  -29.8765   22.1841 F   0  0  0  0  0  0  0  0  0  0  0  0
  1  2  1  0  0  0  0
  1  5  2  0  0  0  0
  2  6  2  0  0  0  0
  3  8  2  0  0  0  0
  3 16  1  0  0  0  0
  4  9  1  0  0  0  0
  4 16  2  0  0  0  0
  5 18  1  0  0  0  0
  6 20  1  0  0  0  0
  7 10  2  0  0  0  0
  7 19  1  0  0  0  0
  8 23  1  0  0  0  0
  9 23  2  0  0  0  0
 10 24  1  0  0  0  0
 11 12  2  0  0  0  0
 11 25  1  0  0  0  0
 12 26  1  0  0  0  0
 13 21  1  0  0  0  0
 13 24  2  0  0  0  0
 14 22  1  0  0  0  0
 14 29  2  0  0  0  0
 15 26  2  0  0  0  0
 15 27  1  0  0  0  0
 16 28  1  0  0  0  0
 17 28  1  0  0  0  0
 17 31  2  0  0  0  0
 17 32  1  0  0  0  0
 18 20  2  0  0  0  0
 18 37  1  0  0  0  0
 19 21  2  0  0  0  0
 19 38  1  0  0  0  0
 20 46  1  0  0  0  0
 21 39  1  0  0  0  0
 22 30  2  0  0  0  0
 22 63  1  0  0  0  0
 23 84  1  0  0  0  0
 24 85  1  0  0  0  0
 25 27  2  0  0  0  0
 25 84  1  0  0  0  0
 26 86  1  0  0  0  0
 27 87  1  0  0  0  0
 28 68  2  0  0  0  0
 29 64  1  0  0  0  0
 29 69  1  0  0  0  0
 30 49  1  0  0  0  0
 30 69  1  0  0  0  0
 31 70  1  0  0  0  0
 31 73  1  0  0  0  0
 32 74  1  0  0  0  0
 32 79  2  0  0  0  0
 33 47  1  0  0  0  0
 33 75  1  0  0  0  0
 33 80  2  0  0  0  0
 34 65  1  0  0  0  0
 34 71  1  0  0  0  0
 34 81  2  0  0  0  0
 35 66  1  0  0  0  0
 35 76  1  0  0  0  0
 35 82  2  0  0  0  0
 36 72  1  0  0  0  0
 36 77  1  0  0  0  0
 36 83  2  0  0  0  0
 37 40  1  0  0  0  0
 38 47  1  0  0  0  0
 39 71  1  0  0  0  0
 40 42  1  0  0  0  0
 41 43  1  0  0  0  0
 41 44  1  0  0  0  0
 42 46  1  0  0  0  0
 43 48  1  0  0  0  0
 44 72  1  0  0  0  0
 45 48  1  0  0  0  0
 45 72  1  0  0  0  0
 46 75  1  0  0  0  0
 47 71  1  0  0  0  0
 48 70  1  0  0  0  0
 50 63  1  0  0  0  0
 51 63  1  0  0  0  0
 52 64  1  0  0  0  0
 53 66  1  0  0  0  0
 54 67  1  0  0  0  0
 55 67  1  0  0  0  0
 56 67  1  0  0  0  0
 57 77  1  0  0  0  0
 58 78  1  0  0  0  0
 59 62  1  0  0  0  0
 59 64  1  0  0  0  0
 60 61  1  0  0  0  0
 60 69  1  0  0  0  0
 61 77  1  0  0  0  0
 62 85  1  0  0  0  0
 65 67  1  0  0  0  0
 65 76  1  0  0  0  0
 66 78  1  0  0  0  0
 68 70  1  0  0  0  0
M  CHG  1  78   1
M  ISO  4  36 100  62 101  77 100  85 101
M  END
> <Batch ID>
0099

> <Smiles>
CNC(C)C(=O)NC(C(=O)N1Cc2cc([101O:1][101CH2:1]CC(C)c3cc(C(C)C)c(C)n3CC[100N:0](C)[100C:0](=O)N3CCCC(n4nc(-c5ccc(Oc6ccc(F)cc6F)cc5)c(C(N)=O)c4N)C3)ccc2CC1C(=O)NC1CCCc2ccccc21)C(C)(C)C

> <Shape>
0.212

> <Color>
0.056

> <Negative vol penalty>
0.000

$$$$

  -OEChem-04052319313D

 84 92  0     1  0  0  0  0  0999 V2000
  -24.2945  -31.0232   20.6826 C   0  0  0  0  0  0  0  0  0  0  0  0
  -23.4802  -29.9012   20.5672 C   0  0  0  0  0  0  0  0  0  0  0  0
  -30.3267  -20.0613   20.2928 C   0  0  0  0  0  0  0  0  0  0  0  0
  -27.9702  -19.5929   20.0384 C   0  0  0  0  0  0  0  0  0  0  0  0
  -25.6696  -30.8704   20.8550 C   0  0  0  0  0  0  0  0  0  0  0  0
  -24.0408  -28.6256   20.6229 C   0  0  0  0  0  0  0  0  0  0  0  0
  -22.5643  -21.9698   22.8223 C   0  0  0  0  0  0  0  0  0  0  0  0
  -30.1347  -21.3276   19.7403 C   0  0  0  0  0  0  0  0  0  0  0  0
  -27.7782  -20.8592   19.4858 C   0  0  0  0  0  0  0  0  0  0  0  0
  -22.5567  -20.6571   22.3528 C   0  0  0  0  0  0  0  0  0  0  0  0
  -29.7427  -22.6683   16.6624 C   0  0  0  0  0  0  0  0  0  0  0  0
  -30.6558  -23.0999   15.7004 C   0  0  0  0  0  0  0  0  0  0  0  0
  -24.9346  -20.5138   22.7329 C   0  0  0  0  0  0  0  0  0  0  0  0
  -23.2787  -16.4192   19.7600 C   0  0  0  0  0  0  0  0  0  0  0  0
  -22.2633  -15.6428   21.8101 C   0  0  0  0  0  0  0  0  0  0  0  0
  -31.2417  -24.9800   17.1001 C   0  0  0  0  0  0  0  0  0  0  0  0
  -29.2444  -19.1940   20.4418 C   0  0  0  0  0  0  0  0  0  0  0  0
  -29.9389  -17.5833   22.2941 C   0  0  0  0  0  0  0  0  0  0  0  0
  -26.2461  -29.5923   20.9225 C   0  0  0  0  0  0  0  0  0  0  0  0
  -23.7609  -22.5691   23.2412 C   0  0  0  0  0  0  0  0  0  0  0  0
  -25.4251  -28.4556   20.7949 C   0  0  0  0  0  0  0  0  0  0  0  0
  -24.9542  -21.8334   23.2098 C   0  0  0  0  0  0  0  0  0  0  0  0
  -22.6798  -16.6914   20.9899 C   0  0  0  0  0  0  0  0  0  0  0  0
  -23.4612  -15.0984   19.3501 C   0  0  0  0  0  0  0  0  0  0  0  0
  -22.4458  -14.3220   21.4003 C   0  0  0  0  0  0  0  0  0  0  0  0
  -23.0448  -14.0498   20.1703 C   0  0  0  0  0  0  0  0  0  0  0  0
  -28.8604  -21.7265   19.3368 C   0  0  0  0  0  0  0  0  0  0  0  0
  -23.7424  -19.9299   22.3053 C   0  0  0  0  0  0  0  0  0  0  0  0
  -29.5790  -23.3925   17.8433 C   0  0  0  0  0  0  0  0  0  0  0  0
  -31.4053  -24.2558   15.9192 C   0  0  0  0  0  0  0  0  0  0  0  0
  -30.3285  -24.5483   18.0621 C   0  0  0  0  0  0  0  0  0  0  0  0
  -29.4422  -17.8856   21.0121 C   0  0  0  0  0  0  0  0  0  0  0  0
  -29.9334  -16.2109   22.3496 C   0  0  0  0  0  0  0  0  0  0  0  0
  -30.3667  -18.4642   23.3413 C   0  0  0  0  0  0  0  0  0  0  0  0
  -25.4668  -25.0767   22.2898 C   0  0  0  0  0  0  0  0  0  0  0  0
  -27.2281  -24.3861   24.9248 C   0  0  0  0  0  0  0  0  0  0  0  0
  -28.2242  -22.0617   27.2164 C   0  0  0  0  0  0  0  0  0  0  0  0
  -26.7446  -12.0271   19.4898 C   0  0  0  0  0  0  0  0  0  0  0  0
  -27.7434  -29.4777   21.0624 C   0  0  0  0  0  0  0  0  0  0  0  0
  -23.7478  -23.9770   23.7701 C   0  0  0  0  0  0  0  0  0  0  0  0
  -26.2621  -22.4240   23.6670 C   0  0  0  0  0  0  0  0  0  0  0  0
  -28.2109  -28.0878   21.4867 C   0  0  0  0  0  0  0  0  0  0  0  0
  -30.2900  -12.3487   19.5483 C   0  0  0  0  0  0  0  0  0  0  0  0
  -27.5104  -27.0137   20.6606 C   0  0  0  0  0  0  0  0  0  0  0  0
  -30.5196  -13.7770   20.0458 C   0  0  0  0  0  0  0  0  0  0  0  0
  -29.0621  -12.2562   18.6452 C   0  0  0  0  0  0  0  0  0  0  0  0
  -28.0506  -14.2258   19.7274 C   0  0  0  0  0  0  0  0  0  0  0  0
  -25.9926  -27.0550   20.8753 C   0  0  1  0  0  0  0  0  0  0  0  0
  -25.1101  -24.6588   23.6882 C   0  0  1  0  0  0  0  0  0  0  0  0
  -29.2455  -14.3590   20.6870 C   0  0  2  0  0  0  0  0  0  0  0  0
  -24.1062  -14.8339   18.0289 C   0  0  0  0  0  0  0  0  0  0  0  0
  -20.4706  -13.2442   22.5364 C   0  0  0  0  0  0  0  0  0  0  0  0
  -22.7343  -13.2126   23.6453 C   0  0  0  0  0  0  0  0  0  0  0  0
  -29.6976  -21.7848   29.2288 C   0  0  0  0  0  0  0  0  0  0  0  0
  -29.6848  -24.3350   23.1159 C   0  0  0  0  0  0  0  0  0  0  0  0
  -30.9191  -23.1488   24.9428 C   0  0  0  0  0  0  0  0  0  0  0  0
  -30.0393  -25.4514   25.3255 C   0  0  0  0  0  0  0  0  0  0  0  0
  -25.9302  -21.3385   28.9408 C   0  0  0  0  0  0  0  0  0  0  0  0
  -23.2409  -12.6338   19.7308 C   0  0  0  0  0  0  0  0  0  0  0  0
  -22.4829  -18.1121   21.4305 C   0  0  0  0  0  0  0  0  0  1  0  0
  -24.4366  -11.9479   20.3987 C   0  0  0  0  0  0  0  0  0  0  0  0
  -21.9912  -13.2171   22.2971 C   0  0  0  0  0  0  0  0  0  0  0  0
  -28.4235  -23.5102   25.2123 C   0  0  1  0  0  0  0  0  0  0  0  0
  -28.2972  -22.1082   28.7320 C   0  0  2  0  0  0  0  0  0  0  0  0
  -29.7425  -24.1006   24.6386 C   0  0  0  0  0  0  0  0  0  0  0  0
  -29.1432  -16.7932   20.3041 N   0  0  0  0  0  0  0  0  0  0  0  0
  -29.4529  -15.7910   21.1442 N   0  0  0  0  0  0  0  0  0  0  0  0
  -26.1987  -23.8062   24.1699 N   0  0  0  0  0  0  0  0  0  0  0  0
  -27.8881  -12.8235   19.3129 N   0  0  0  0  0  0  0  0  0  0  0  0
  -30.2930  -15.3344   23.3114 N   0  0  0  0  0  0  0  0  0  0  0  0
  -29.4193  -18.8973   24.2789 N   0  0  0  0  0  0  0  0  0  0  0  0
  -25.6437  -26.4387   22.1374 N   0  0  0  0  0  0  0  0  0  0  0  0
  -28.4399  -23.3030   26.6563 N   0  0  0  0  0  0  0  0  0  0  0  0
  -25.6790  -12.6400   20.1376 N   0  0  0  0  0  0  0  0  0  0  0  0
  -27.3487  -21.1245   29.3267 N   0  3  0  0  0  0  0  0  0  0  0  0
  -31.5506  -18.8687   23.4330 O   0  0  0  0  0  0  0  0  0  0  0  0
  -25.5752  -24.2263   21.4141 O   0  0  0  0  0  0  0  0  0  0  0  0
  -27.2053  -25.5401   25.3602 O   0  0  0  0  0  0  0  0  0  0  0  0
  -28.0019  -21.0268   26.5917 O   0  0  0  0  0  0  0  0  0  0  0  0
  -26.6802  -10.8549   19.1042 O   0  0  0  0  0  0  0  0  0  0  0  0
  -28.6727  -22.9622   18.7977 O   0  0  0  0  0  0  0  0  0  0  0  0
  -23.7379  -18.6486   21.8468 O   0  0  0  0  0  0  0  0  0  1  0  0
  -32.2832  -24.6694   14.9959 F   0  0  0  0  0  0  0  0  0  0  0  0
  -30.1765  -25.2476   19.1951 F   0  0  0  0  0  0  0  0  0  0  0  0
  1  2  1  0  0  0  0
  1  5  2  0  0  0  0
  2  6  2  0  0  0  0
  3  8  2  0  0  0  0
  3 17  1  0  0  0  0
  4  9  1  0  0  0  0
  4 17  2  0  0  0  0
  5 19  1  0  0  0  0
  6 21  1  0  0  0  0
  7 10  2  0  0  0  0
  7 20  1  0  0  0  0
  8 27  1  0  0  0  0
  9 27  2  0  0  0  0
 10 28  1  0  0  0  0
 11 12  2  0  0  0  0
 11 29  1  0  0  0  0
 12 30  1  0  0  0  0
 13 22  1  0  0  0  0
 13 28  2  0  0  0  0
 14 23  1  0  0  0  0
 14 24  2  0  0  0  0
 15 23  2  0  0  0  0
 15 25  1  0  0  0  0
 16 30  2  0  0  0  0
 16 31  1  0  0  0  0
 17 32  1  0  0  0  0
 18 32  1  0  0  0  0
 18 33  2  0  0  0  0
 18 34  1  0  0  0  0
 19 21  2  0  0  0  0
 19 39  1  0  0  0  0
 20 22  2  0  0  0  0
 20 40  1  0  0  0  0
 21 48  1  0  0  0  0
 22 41  1  0  0  0  0
 23 60  1  0  0  0  0
 24 26  1  0  0  0  0
 24 51  1  0  0  0  0
 25 26  2  0  0  0  0
 25 62  1  0  0  0  0
 26 59  1  0  0  0  0
 27 81  1  0  0  0  0
 28 82  1  0  0  0  0
 29 31  2  0  0  0  0
 29 81  1  0  0  0  0
 30 83  1  0  0  0  0
 31 84  1  0  0  0  0
 32 66  2  0  0  0  0
 33 67  1  0  0  0  0
 33 70  1  0  0  0  0
 34 71  1  0  0  0  0
 34 76  2  0  0  0  0
 35 49  1  0  0  0  0
 35 72  1  0  0  0  0
 35 77  2  0  0  0  0
 36 63  1  0  0  0  0
 36 68  1  0  0  0  0
 36 78  2  0  0  0  0
 37 64  1  0  0  0  0
 37 73  1  0  0  0  0
 37 79  2  0  0  0  0
 38 69  1  0  0  0  0
 38 74  1  0  0  0  0
 38 80  2  0  0  0  0
 39 42  1  0  0  0  0
 40 49  1  0  0  0  0
 41 68  1  0  0  0  0
 42 44  1  0  0  0  0
 43 45  1  0  0  0  0
 43 46  1  0  0  0  0
 44 48  1  0  0  0  0
 45 50  1  0  0  0  0
 46 69  1  0  0  0  0
 47 50  1  0  0  0  0
 47 69  1  0  0  0  0
 48 72  1  0  0  0  0
 49 68  1  0  0  0  0
 50 67  1  0  0  0  0
 52 62  1  0  0  0  0
 53 62  1  0  0  0  0
 54 64  1  0  0  0  0
 55 65  1  0  0  0  0
 56 65  1  0  0  0  0
 57 65  1  0  0  0  0
 58 75  1  0  0  0  0
 59 61  1  0  0  0  0
 60 82  1  0  0  0  0
 61 74  1  0  0  0  0
 63 65  1  0  0  0  0
 63 73  1  0  0  0  0
 64 75  1  0  0  0  0
 66 67  1  0  0  0  0
M  CHG  1  75   1
M  ISO  4  38 100  60 101  74 100  82 101
M  END
> <Batch ID>
0099

> <Smiles>
CNC(C)C(=O)NC(C(=O)N1Cc2cc([101O:1][101CH2:1]c3cc(C)c(CC[100NH:0][100C:0](=O)N4CCCC(n5nc(-c6ccc(Oc7ccc(F)cc7F)cc6)c(C(N)=O)c5N)C4)c(C(C)C)c3)ccc2CC1C(=O)NC1CCCc2ccccc21)C(C)(C)C

> <Shape>
0.224

> <Color>
0.054

> <Negative vol penalty>
0.000

$$$$

  -OEChem-04052319313D

 85 93  0     1  0  0  0  0  0999 V2000
  -34.5788  -27.2823   16.0949 C   0  0  0  0  0  0  0  0  0  0  0  0
  -33.9253  -26.3672   16.9140 C   0  0  0  0  0  0  0  0  0  0  0  0
  -23.0404   -9.8571   19.9376 C   0  0  0  0  0  0  0  0  0  0  0  0
  -23.8220   -9.8282   22.2235 C   0  0  0  0  0  0  0  0  0  0  0  0
  -34.1330  -28.6018   16.0313 C   0  0  0  0  0  0  0  0  0  0  0  0
  -32.8262  -26.7713   17.6708 C   0  0  0  0  0  0  0  0  0  0  0  0
  -28.9986  -23.4623   17.4585 C   0  0  0  0  0  0  0  0  0  0  0  0
  -22.2799   -8.7139   20.1832 C   0  0  0  0  0  0  0  0  0  0  0  0
  -23.0615   -8.6849   22.4691 C   0  0  0  0  0  0  0  0  0  0  0  0
  -29.1060  -22.3135   18.2411 C   0  0  0  0  0  0  0  0  0  0  0  0
  -19.8264   -7.9344   23.0947 C   0  0  0  0  0  0  0  0  0  0  0  0
  -19.0800   -7.8950   24.2724 C   0  0  0  0  0  0  0  0  0  0  0  0
  -27.6626  -23.3129   19.8955 C   0  0  0  0  0  0  0  0  0  0  0  0
  -31.6462  -21.1438   22.2038 C   0  0  0  0  0  0  0  0  0  0  0  0
  -20.2961   -5.9299   24.9774 C   0  0  0  0  0  0  0  0  0  0  0  0
  -23.8115  -10.4142   20.9578 C   0  0  0  0  0  0  0  0  0  0  0  0
  -24.1940  -12.9345   20.8598 C   0  0  0  0  0  0  0  0  0  0  0  0
  -33.0218  -29.0200   16.7804 C   0  0  0  0  0  0  0  0  0  0  0  0
  -28.2300  -24.5512   17.8943 C   0  0  0  0  0  0  0  0  0  0  0  0
  -32.3658  -28.0980   17.6183 C   0  0  0  0  0  0  0  0  0  0  0  0
  -27.5451  -24.4734   19.1154 C   0  0  0  0  0  0  0  0  0  0  0  0
  -32.8691  -20.6574   21.6793 C   0  0  0  0  0  0  0  0  0  0  0  0
  -22.2904   -8.1278   21.4489 C   0  0  0  0  0  0  0  0  0  0  0  0
  -28.4403  -22.2398   19.4611 C   0  0  0  0  0  0  0  0  0  0  0  0
  -20.8076   -6.9715   22.8583 C   0  0  0  0  0  0  0  0  0  0  0  0
  -19.3149   -6.8928   25.2137 C   0  0  0  0  0  0  0  0  0  0  0  0
  -21.0424   -5.9693   23.7996 C   0  0  0  0  0  0  0  0  0  0  0  0
  -24.5978  -11.5948   20.7046 C   0  0  0  0  0  0  0  0  0  0  0  0
  -30.6919  -20.1738   21.9894 C   0  0  0  0  0  0  0  0  0  0  0  0
  -32.6249  -19.4051   21.1602 C   0  0  0  0  0  0  0  0  0  0  0  0
  -25.2950  -13.6695   20.4936 C   0  0  0  0  0  0  0  0  0  0  0  0
  -22.9363  -13.4669   21.2961 C   0  0  0  0  0  0  0  0  0  0  0  0
  -28.8443  -27.5859   18.6129 C   0  0  0  0  0  0  0  0  0  0  0  0
  -25.6169  -27.7684   18.8838 C   0  0  0  0  0  0  0  0  0  0  0  0
  -22.6603  -26.1565   19.4377 C   0  0  0  0  0  0  0  0  0  0  0  0
  -30.7964  -14.5960   20.6393 C   0  0  0  0  0  0  0  0  0  0  0  0
  -32.6058  -30.4682   16.7152 C   0  0  0  0  0  0  0  0  0  0  0  0
  -28.1027  -25.7727   17.0260 C   0  0  0  0  0  0  0  0  0  0  0  0
  -26.6907  -25.6069   19.6190 C   0  0  0  0  0  0  0  0  0  0  0  0
  -31.2039  -30.7244   17.2623 C   0  0  0  0  0  0  0  0  0  0  0  0
  -29.5968  -12.2550   18.2398 C   0  0  0  0  0  0  0  0  0  0  0  0
  -31.0129  -30.0106   18.5967 C   0  0  0  0  0  0  0  0  0  0  0  0
  -28.1589  -11.9807   18.6836 C   0  0  0  0  0  0  0  0  0  0  0  0
  -30.5288  -12.4485   19.4339 C   0  0  0  0  0  0  0  0  0  0  0  0
  -28.6527  -13.1966   20.8460 C   0  0  0  0  0  0  0  0  0  0  0  0
  -31.1547  -28.4922   18.4355 C   0  0  1  0  0  0  0  0  0  0  0  0
  -27.7082  -27.0225   17.8070 C   0  0  1  0  0  0  0  0  0  0  0  0
  -27.6647  -13.0501   19.6762 C   0  0  2  0  0  0  0  0  0  0  0  0
  -34.1631  -21.3682   21.6915 C   0  0  0  0  0  0  0  0  0  0  0  0
  -29.0153  -20.2439   23.8644 C   0  0  0  0  0  0  0  0  0  0  0  0
  -34.6868  -17.9784   21.4179 C   0  0  0  0  0  0  0  0  0  0  0  0
  -34.1395  -19.0108   19.1842 C   0  0  0  0  0  0  0  0  0  0  0  0
  -20.1944  -26.5773   19.6364 C   0  0  0  0  0  0  0  0  0  0  0  0
  -26.0420  -28.9275   21.6742 C   0  0  0  0  0  0  0  0  0  0  0  0
  -23.6367  -28.4383   22.1678 C   0  0  0  0  0  0  0  0  0  0  0  0
  -24.2347  -30.0363   20.3481 C   0  0  0  0  0  0  0  0  0  0  0  0
  -22.0569  -24.3959   17.1366 C   0  0  0  0  0  0  0  0  0  0  0  0
  -30.6374  -17.8983   20.9500 C   0  0  0  0  0  0  0  0  0  0  0  0
  -30.9096  -16.7325   21.8970 C   0  0  0  0  0  0  0  0  0  0  0  0
  -28.4444  -21.2885   21.6408 C   0  0  0  0  0  0  0  0  0  1  0  0
  -29.2143  -20.1648   22.3482 C   0  0  1  0  0  0  0  0  0  0  0  0
  -33.5414  -18.4539   20.4959 C   0  0  0  0  0  0  0  0  0  0  0  0
  -24.6247  -27.5624   20.0027 C   0  0  1  0  0  0  0  0  0  0  0  0
  -21.3338  -26.2038   18.7010 C   0  0  2  0  0  0  0  0  0  0  0  0
  -24.6521  -28.7203   21.0399 C   0  0  0  0  0  0  0  0  0  0  0  0
  -25.8568  -11.4824   20.2732 N   0  0  0  0  0  0  0  0  0  0  0  0
  -31.2981  -19.1217   21.3540 N   0  0  0  0  0  0  0  0  0  0  0  0
  -26.2537  -12.7608   20.1542 N   0  0  0  0  0  0  0  0  0  0  0  0
  -26.6029  -26.7824   18.7369 N   0  0  0  0  0  0  0  0  0  0  0  0
  -30.0038  -13.4769   20.3354 N   0  0  0  0  0  0  0  0  0  0  0  0
  -25.5267  -14.9980   20.4319 N   0  0  0  0  0  0  0  0  0  0  0  0
  -21.9127  -12.5711   21.6340 N   0  0  0  0  0  0  0  0  0  0  0  0
  -29.9511  -27.9304   17.8608 N   0  0  0  0  0  0  0  0  0  0  0  0
  -23.3275  -27.3610   19.3660 N   0  0  0  0  0  0  0  0  0  0  0  0
  -30.2207  -15.5260   21.4963 N   0  0  0  0  0  0  0  0  0  0  0  0
  -21.0295  -24.8762   18.0963 N   0  3  0  0  0  0  0  0  0  0  0  0
  -22.7210  -14.7006   21.3681 O   0  0  0  0  0  0  0  0  0  0  0  0
  -28.7249  -27.7011   19.8271 O   0  0  0  0  0  0  0  0  0  0  0  0
  -25.5165  -28.7638   18.1622 O   0  0  0  0  0  0  0  0  0  0  0  0
  -23.0625  -25.1526   20.0217 O   0  0  0  0  0  0  0  0  0  0  0  0
  -31.9308  -14.7574   20.1765 O   0  0  0  0  0  0  0  0  0  0  0  0
  -21.5483   -7.0124   21.6889 O   0  0  0  0  0  0  0  0  0  0  0  0
  -28.5439  -21.1199   20.2273 O   0  0  0  0  0  0  0  0  0  1  0  0
  -18.5991   -6.8560   26.3453 F   0  0  0  0  0  0  0  0  0  0  0  0
  -21.9845   -5.0422   23.5786 F   0  0  0  0  0  0  0  0  0  0  0  0
  1  2  1  0  0  0  0
  1  5  2  0  0  0  0
  2  6  2  0  0  0  0
  3  8  2  0  0  0  0
  3 16  1  0  0  0  0
  4  9  1  0  0  0  0
  4 16  2  0  0  0  0
  5 18  1  0  0  0  0
  6 20  1  0  0  0  0
  7 10  2  0  0  0  0
  7 19  1  0  0  0  0
  8 23  1  0  0  0  0
  9 23  2  0  0  0  0
 10 24  1  0  0  0  0
 11 12  2  0  0  0  0
 11 25  1  0  0  0  0
 12 26  1  0  0  0  0
 13 21  1  0  0  0  0
 13 24  2  0  0  0  0
 14 22  1  0  0  0  0
 14 29  2  0  0  0  0
 15 26  2  0  0  0  0
 15 27  1  0  0  0  0
 16 28  1  0  0  0  0
 17 28  1  0  0  0  0
 17 31  2  0  0  0  0
 17 32  1  0  0  0  0
 18 20  2  0  0  0  0
 18 37  1  0  0  0  0
 19 21  2  0  0  0  0
 19 38  1  0  0  0  0
 20 46  1  0  0  0  0
 21 39  1  0  0  0  0
 22 30  2  0  0  0  0
 22 49  1  0  0  0  0
 23 82  1  0  0  0  0
 24 83  1  0  0  0  0
 25 27  2  0  0  0  0
 25 82  1  0  0  0  0
 26 84  1  0  0  0  0
 27 85  1  0  0  0  0
 28 66  2  0  0  0  0
 29 61  1  0  0  0  0
 29 67  1  0  0  0  0
 30 62  1  0  0  0  0
 30 67  1  0  0  0  0
 31 68  1  0  0  0  0
 31 71  1  0  0  0  0
 32 72  1  0  0  0  0
 32 77  2  0  0  0  0
 33 47  1  0  0  0  0
 33 73  1  0  0  0  0
 33 78  2  0  0  0  0
 34 63  1  0  0  0  0
 34 69  1  0  0  0  0
 34 79  2  0  0  0  0
 35 64  1  0  0  0  0
 35 74  1  0  0  0  0
 35 80  2  0  0  0  0
 36 70  1  0  0  0  0
 36 75  1  0  0  0  0
 36 81  2  0  0  0  0
 37 40  1  0  0  0  0
 38 47  1  0  0  0  0
 39 69  1  0  0  0  0
 40 42  1  0  0  0  0
 41 43  1  0  0  0  0
 41 44  1  0  0  0  0
 42 46  1  0  0  0  0
 43 48  1  0  0  0  0
 44 70  1  0  0  0  0
 45 48  1  0  0  0  0
 45 70  1  0  0  0  0
 46 73  1  0  0  0  0
 47 69  1  0  0  0  0
 48 68  1  0  0  0  0
 50 61  1  0  0  0  0
 51 62  1  0  0  0  0
 52 62  1  0  0  0  0
 53 64  1  0  0  0  0
 54 65  1  0  0  0  0
 55 65  1  0  0  0  0
 56 65  1  0  0  0  0
 57 76  1  0  0  0  0
 58 59  1  0  0  0  0
 58 67  1  0  0  0  0
 59 75  1  0  0  0  0
 60 61  1  0  0  0  0
 60 83  1  0  0  0  0
 63 65  1  0  0  0  0
 63 74  1  0  0  0  0
 64 76  1  0  0  0  0
 66 68  1  0  0  0  0
M  CHG  1  76   1
M  ISO  4  36 100  60 101  75 100  83 101
M  END
> <Batch ID>
0099

> <Smiles>
CNC(C)C(=O)NC(C(=O)N1Cc2cc([101O:1][101CH2:1]C(C)c3cc(C)c(C(C)C)n3CC[100NH:0][100C:0](=O)N3CCCC(n4nc(-c5ccc(Oc6ccc(F)cc6F)cc5)c(C(N)=O)c4N)C3)ccc2CC1C(=O)NC1CCCc2ccccc21)C(C)(C)C

> <Shape>
0.276

> <Color>
0.206

> <Negative vol penalty>
0.000

$$$$

  -OEChem-04052319313D

 81 89  0     1  0  0  0  0  0999 V2000
  -28.5137  -24.3574   17.6772 C   0  0  0  0  0  0  0  0  0  0  0  0
  -27.2807  -24.6129   18.2686 C   0  0  0  0  0  0  0  0  0  0  0  0
  -27.0476  -18.5757   20.1492 C   0  0  0  0  0  0  0  0  0  0  0  0
  -28.2958  -20.0523   18.7005 C   0  0  0  0  0  0  0  0  0  0  0  0
  -29.6742  -24.9037   18.2238 C   0  0  0  0  0  0  0  0  0  0  0  0
  -27.2076  -25.4139   19.4076 C   0  0  0  0  0  0  0  0  0  0  0  0
  -23.4488  -28.7988   19.1643 C   0  0  0  0  0  0  0  0  0  0  0  0
  -28.1611  -17.7430   20.2600 C   0  0  0  0  0  0  0  0  0  0  0  0
  -29.4094  -19.2196   18.8114 C   0  0  0  0  0  0  0  0  0  0  0  0
  -22.1579  -28.3360   19.4157 C   0  0  0  0  0  0  0  0  0  0  0  0
  -32.4682  -17.2954   18.4224 C   0  0  0  0  0  0  0  0  0  0  0  0
  -33.1679  -16.9898   17.2551 C   0  0  0  0  0  0  0  0  0  0  0  0
  -19.2578  -20.9946   20.0880 C   0  0  0  0  0  0  0  0  0  0  0  0
  -22.2930  -29.1989   21.6644 C   0  0  0  0  0  0  0  0  0  0  0  0
  -31.1761  -15.9894   16.3230 C   0  0  0  0  0  0  0  0  0  0  0  0
  -18.7352  -23.0095   19.2291 C   0  0  0  0  0  0  0  0  0  0  0  0
  -27.1149  -19.7303   19.3694 C   0  0  0  0  0  0  0  0  0  0  0  0
  -19.1273  -21.7343   18.8866 C   0  0  0  0  0  0  0  0  0  0  0  0
  -25.6329  -21.6815   20.0797 C   0  0  0  0  0  0  0  0  0  0  0  0
  -29.6142  -25.7197   19.3645 C   0  0  0  0  0  0  0  0  0  0  0  0
  -24.1768  -29.4566   20.1661 C   0  0  0  0  0  0  0  0  0  0  0  0
  -28.3685  -25.9705   19.9708 C   0  0  0  0  0  0  0  0  0  0  0  0
  -23.5919  -29.6713   21.4223 C   0  0  0  0  0  0  0  0  0  0  0  0
  -29.3420  -18.0650   19.5911 C   0  0  0  0  0  0  0  0  0  0  0  0
  -21.5809  -28.5334   20.6668 C   0  0  0  0  0  0  0  0  0  0  0  0
  -31.1224  -16.9480   18.5400 C   0  0  0  0  0  0  0  0  0  0  0  0
  -32.5219  -16.3368   16.2054 C   0  0  0  0  0  0  0  0  0  0  0  0
  -30.4763  -16.2950   17.4903 C   0  0  0  0  0  0  0  0  0  0  0  0
  -25.9648  -20.5906   19.2541 C   0  0  0  0  0  0  0  0  0  0  0  0
  -18.9419  -21.8405   21.1281 C   0  0  0  0  0  0  0  0  0  0  0  0
  -24.4578  -22.1630   19.5566 C   0  0  0  0  0  0  0  0  0  0  0  0
  -19.3556  -21.2720   17.5114 C   0  0  0  0  0  0  0  0  0  0  0  0
  -26.3251  -22.2121   21.2177 C   0  0  0  0  0  0  0  0  0  0  0  0
  -26.8970  -28.8816   21.7067 C   0  0  0  0  0  0  0  0  0  0  0  0
  -26.3538  -31.8226   22.9627 C   0  0  0  0  0  0  0  0  0  0  0  0
  -24.1059  -34.2673   23.7484 C   0  0  0  0  0  0  0  0  0  0  0  0
  -30.9008  -26.2491   19.9467 C   0  0  0  0  0  0  0  0  0  0  0  0
  -25.5581  -29.9734   19.8706 C   0  0  0  0  0  0  0  0  0  0  0  0
  -24.3238  -30.3897   22.5254 C   0  0  0  0  0  0  0  0  0  0  0  0
  -30.6962  -27.3934   20.9362 C   0  0  0  0  0  0  0  0  0  0  0  0
  -22.0863  -21.0945   15.2194 C   0  0  0  0  0  0  0  0  0  0  0  0
  -29.5806  -27.0554   21.9200 C   0  0  0  0  0  0  0  0  0  0  0  0
  -23.3128  -21.0172   16.1303 C   0  0  0  0  0  0  0  0  0  0  0  0
  -20.8952  -20.3468   15.8133 C   0  0  0  0  0  0  0  0  0  0  0  0
  -21.7637  -20.6812   18.1021 C   0  0  0  0  0  0  0  0  0  0  0  0
  -28.2456  -26.8547   21.1927 C   0  0  1  0  0  0  0  0  0  0  0  0
  -26.4016  -30.1756   21.1256 C   0  0  1  0  0  0  0  0  0  0  0  0
  -22.9719  -21.4652   17.5640 C   0  0  1  0  0  0  0  0  0  0  0  0
  -18.9157  -21.5846   22.5829 C   0  0  0  0  0  0  0  0  0  0  0  0
  -23.9551  -36.5402   24.8013 C   0  0  0  0  0  0  0  0  0  0  0  0
  -18.6293  -26.2184   23.7377 C   0  0  0  0  0  0  0  0  0  0  0  0
  -26.6489  -30.5601   25.7247 C   0  0  0  0  0  0  0  0  0  0  0  0
  -25.5718  -32.6009   26.6960 C   0  0  0  0  0  0  0  0  0  0  0  0
  -27.7400  -32.7968   25.4781 C   0  0  0  0  0  0  0  0  0  0  0  0
  -23.0645  -35.4797   21.2575 C   0  0  0  0  0  0  0  0  0  0  0  0
  -19.3219  -25.3481   21.4905 C   0  0  0  0  0  0  0  0  0  0  0  0
  -18.2177  -24.2883   21.3726 C   0  0  0  0  0  0  0  0  0  0  0  0
  -20.0200  -27.7030   22.2574 C   0  0  0  0  0  0  0  0  0  1  0  0
  -25.6214  -32.3496   24.1730 C   0  0  1  0  0  0  0  0  0  0  0  0
  -24.1201  -35.7653   23.5032 C   0  0  2  0  0  0  0  0  0  0  0  0
  -18.9390  -26.6142   22.2883 C   0  0  2  0  0  0  0  0  0  0  0  0
  -26.3822  -32.0616   25.4980 C   0  0  0  0  0  0  0  0  0  0  0  0
  -25.0725  -20.3906   18.2806 N   0  0  0  0  0  0  0  0  0  0  0  0
  -18.6254  -23.0624   20.5941 N   0  0  0  0  0  0  0  0  0  0  0  0
  -24.1683  -21.3623   18.4912 N   0  0  0  0  0  0  0  0  0  0  0  0
  -20.6275  -20.8006   17.1776 N   0  0  0  0  0  0  0  0  0  0  0  0
  -25.6741  -30.8706   22.1896 N   0  0  0  0  0  0  0  0  0  0  0  0
  -23.6542  -23.1890   19.9087 N   0  0  0  0  0  0  0  0  0  0  0  0
  -27.5184  -21.5972   21.6204 N   0  0  0  0  0  0  0  0  0  0  0  0
  -27.6667  -28.1326   20.8372 N   0  0  0  0  0  0  0  0  0  0  0  0
  -25.3789  -33.7656   23.9188 N   0  0  0  0  0  0  0  0  0  0  0  0
  -23.0132  -36.1499   22.5823 N   0  3  0  0  0  0  0  0  0  0  0  0
  -18.3958  -21.3490   16.7458 O   0  0  0  0  0  0  0  0  0  0  0  0
  -25.8895  -23.1921   21.8684 O   0  0  0  0  0  0  0  0  0  0  0  0
  -26.6040  -28.5853   22.8591 O   0  0  0  0  0  0  0  0  0  0  0  0
  -27.4843  -32.2455   22.7084 O   0  0  0  0  0  0  0  0  0  0  0  0
  -23.0690  -33.6087   23.7888 O   0  0  0  0  0  0  0  0  0  0  0  0
  -30.4288  -17.2528   19.6992 O   0  0  0  0  0  0  0  0  0  0  0  0
  -20.3213  -28.0821   20.9151 O   0  0  0  0  0  0  0  0  0  1  0  0
  -33.1936  -16.0448   15.0839 F   0  0  0  0  0  0  0  0  0  0  0  0
  -29.1833  -15.9597   17.5970 F   0  0  0  0  0  0  0  0  0  0  0  0
  1  2  1  0  0  0  0
  1  5  2  0  0  0  0
  2  6  2  0  0  0  0
  3  8  2  0  0  0  0
  3 17  1  0  0  0  0
  4  9  1  0  0  0  0
  4 17  2  0  0  0  0
  5 20  1  0  0  0  0
  6 22  1  0  0  0  0
  7 10  2  0  0  0  0
  7 21  1  0  0  0  0
  8 24  1  0  0  0  0
  9 24  2  0  0  0  0
 10 25  1  0  0  0  0
 11 12  2  0  0  0  0
 11 26  1  0  0  0  0
 12 27  1  0  0  0  0
 13 18  1  0  0  0  0
 13 30  2  0  0  0  0
 14 23  1  0  0  0  0
 14 25  2  0  0  0  0
 15 27  2  0  0  0  0
 15 28  1  0  0  0  0
 16 18  2  0  0  0  0
 16 64  1  0  0  0  0
 17 29  1  0  0  0  0
 18 32  1  0  0  0  0
 19 29  1  0  0  0  0
 19 31  2  0  0  0  0
 19 33  1  0  0  0  0
 20 22  2  0  0  0  0
 20 37  1  0  0  0  0
 21 23  2  0  0  0  0
 21 38  1  0  0  0  0
 22 46  1  0  0  0  0
 23 39  1  0  0  0  0
 24 78  1  0  0  0  0
 25 79  1  0  0  0  0
 26 28  2  0  0  0  0
 26 78  1  0  0  0  0
 27 80  1  0  0  0  0
 28 81  1  0  0  0  0
 29 63  2  0  0  0  0
 30 49  1  0  0  0  0
 30 64  1  0  0  0  0
 31 65  1  0  0  0  0
 31 68  1  0  0  0  0
 32 66  1  0  0  0  0
 32 73  2  0  0  0  0
 33 69  1  0  0  0  0
 33 74  2  0  0  0  0
 34 47  1  0  0  0  0
 34 70  1  0  0  0  0
 34 75  2  0  0  0  0
 35 59  1  0  0  0  0
 35 67  1  0  0  0  0
 35 76  2  0  0  0  0
 36 60  1  0  0  0  0
 36 71  1  0  0  0  0
 36 77  2  0  0  0  0
 37 40  1  0  0  0  0
 38 47  1  0  0  0  0
 39 67  1  0  0  0  0
 40 42  1  0  0  0  0
 41 43  1  0  0  0  0
 41 44  1  0  0  0  0
 42 46  1  0  0  0  0
 43 48  1  0  0  0  0
 44 66  1  0  0  0  0
 45 48  1  0  0  0  0
 45 66  1  0  0  0  0
 46 70  1  0  0  0  0
 47 67  1  0  0  0  0
 48 65  1  0  0  0  0
 50 60  1  0  0  0  0
 51 61  1  0  0  0  0
 52 62  1  0  0  0  0
 53 62  1  0  0  0  0
 54 62  1  0  0  0  0
 55 72  1  0  0  0  0
 56 57  1  0  0  0  0
 56 61  1  0  0  0  0
 57 64  1  0  0  0  0
 58 61  1  0  0  0  0
 58 79  1  0  0  0  0
 59 62  1  0  0  0  0
 59 71  1  0  0  0  0
 60 72  1  0  0  0  0
 63 65  1  0  0  0  0
M  CHG  1  72   1
M  ISO  4  18 100  32 100  58 101  79 101
M  END
> <Batch ID>
0099

> <Smiles>
CNC(C)C(=O)NC(C(=O)N1Cc2cc([101O:1][101CH2:1]C(C)CCn3c[100c:0]([100C:0](=O)N4CCCC(n5nc(-c6ccc(Oc7ccc(F)cc7F)cc6)c(C(N)=O)c5N)C4)cc3C)ccc2CC1C(=O)NC1CCCc2ccccc21)C(C)(C)C

> <Shape>
0.242

> <Color>
0.064

> <Negative vol penalty>
0.000

$$$$

  -OEChem-04052319313D

 76 83  0     1  0  0  0  0  0999 V2000
  -24.2700  -36.3270   21.5279 C   0  0  0  0  0  0  0  0  0  0  0  0
  -25.0845  -35.6543   20.6227 C   0  0  0  0  0  0  0  0  0  0  0  0
  -26.5231  -13.1467   21.7495 C   0  0  0  0  0  0  0  0  0  0  0  0
  -25.9285  -13.5331   19.4399 C   0  0  0  0  0  0  0  0  0  0  0  0
  -24.1044  -35.8280   22.8192 C   0  0  0  0  0  0  0  0  0  0  0  0
  -25.7348  -34.4827   21.0086 C   0  0  0  0  0  0  0  0  0  0  0  0
  -27.9520  -28.2010   18.3740 C   0  0  0  0  0  0  0  0  0  0  0  0
  -25.7380  -11.9939   21.7588 C   0  0  0  0  0  0  0  0  0  0  0  0
  -25.1434  -12.3802   19.4491 C   0  0  0  0  0  0  0  0  0  0  0  0
  -29.0964  -27.4082   18.2990 C   0  0  0  0  0  0  0  0  0  0  0  0
  -23.6028   -9.1442   22.4961 C   0  0  0  0  0  0  0  0  0  0  0  0
  -22.7639   -8.9378   23.5912 C   0  0  0  0  0  0  0  0  0  0  0  0
  -28.6732  -26.5967   20.5309 C   0  0  0  0  0  0  0  0  0  0  0  0
  -21.6175  -11.0078   23.1032 C   0  0  0  0  0  0  0  0  0  0  0  0
  -26.6184  -13.9164   20.5900 C   0  0  0  0  0  0  0  0  0  0  0  0
  -28.7926  -15.2053   20.2450 C   0  0  0  0  0  0  0  0  0  0  0  0
  -24.7452  -34.6444   23.2182 C   0  0  0  0  0  0  0  0  0  0  0  0
  -27.1644  -28.2060   19.5342 C   0  0  0  0  0  0  0  0  0  0  0  0
  -25.5786  -33.9681   22.3068 C   0  0  0  0  0  0  0  0  0  0  0  0
  -27.5179  -27.3885   20.6172 C   0  0  0  0  0  0  0  0  0  0  0  0
  -25.0482  -11.6106   20.6086 C   0  0  0  0  0  0  0  0  0  0  0  0
  -29.4587  -26.6080   19.3786 C   0  0  0  0  0  0  0  0  0  0  0  0
  -23.4491  -10.2825   21.7046 C   0  0  0  0  0  0  0  0  0  0  0  0
  -21.7713   -9.8696   23.8948 C   0  0  0  0  0  0  0  0  0  0  0  0
  -22.4565  -11.2142   22.0081 C   0  0  0  0  0  0  0  0  0  0  0  0
  -27.4287  -15.1077   20.5800 C   0  0  0  0  0  0  0  0  0  0  0  0
  -29.0875  -16.5388   20.3913 C   0  0  0  0  0  0  0  0  0  0  0  0
  -29.7107  -14.1821   19.8379 C   0  0  0  0  0  0  0  0  0  0  0  0
  -26.3320  -30.4070   21.6710 C   0  0  0  0  0  0  0  0  0  0  0  0
  -24.4548  -28.0231   22.8179 C   0  0  0  0  0  0  0  0  0  0  0  0
  -23.8702  -24.6718   23.0892 C   0  0  0  0  0  0  0  0  0  0  0  0
  -27.8125  -21.9177   19.6250 C   0  0  0  0  0  0  0  0  0  0  0  0
  -24.5734  -34.1693   24.6392 C   0  0  0  0  0  0  0  0  0  0  0  0
  -25.9183  -29.0466   19.5892 C   0  0  0  0  0  0  0  0  0  0  0  0
  -26.6949  -27.3424   21.8778 C   0  0  0  0  0  0  0  0  0  0  0  0
  -24.9998  -32.7191   24.8524 C   0  0  0  0  0  0  0  0  0  0  0  0
  -26.4091  -20.2947   22.4663 C   0  0  0  0  0  0  0  0  0  0  0  0
  -26.3517  -32.4582   24.1958 C   0  0  0  0  0  0  0  0  0  0  0  0
  -26.6562  -18.8091   22.1981 C   0  0  0  0  0  0  0  0  0  0  0  0
  -26.0889  -21.0546   21.1810 C   0  0  0  0  0  0  0  0  0  0  0  0
  -27.3269  -19.4042   19.8328 C   0  0  0  0  0  0  0  0  0  0  0  0
  -26.2811  -32.6807   22.6802 C   0  0  1  0  0  0  0  0  0  0  0  0
  -25.4737  -29.3635   21.0138 C   0  0  1  0  0  0  0  0  0  0  0  0
  -27.7086  -18.6066   21.0915 C   0  0  2  0  0  0  0  0  0  0  0  0
  -22.2800  -23.0266   24.1199 C   0  0  0  0  0  0  0  0  0  0  0  0
  -25.7421  -28.4906   25.5444 C   0  0  0  0  0  0  0  0  0  0  0  0
  -24.8512  -26.2659   26.2689 C   0  0  0  0  0  0  0  0  0  0  0  0
  -23.2754  -28.0844   25.6113 C   0  0  0  0  0  0  0  0  0  0  0  0
  -23.0881  -23.5952   20.4457 C   0  0  0  0  0  0  0  0  0  0  0  0
  -30.8638  -22.9379   18.7987 C   0  0  0  0  0  0  0  0  0  0  0  0
  -29.5787  -22.6274   18.0326 C   0  0  0  0  0  0  0  0  0  0  0  0
  -30.9542  -25.3556   18.0181 C   0  0  0  0  0  0  0  0  0  1  0  0
  -24.6318  -26.9145   23.8271 C   0  0  1  0  0  0  0  0  0  0  0  0
  -22.6110  -23.8491   22.8843 C   0  0  2  0  0  0  0  0  0  0  0  0
  -31.7154  -24.0386   18.1460 C   0  0  2  0  0  0  0  0  0  0  0  0
  -24.6419  -27.4410   25.2901 C   0  0  0  0  0  0  0  0  0  0  0  0
  -26.8943  -16.2854   20.9141 N   0  0  0  0  0  0  0  0  0  0  0  0
  -27.9277  -17.1355   20.7898 N   0  0  0  0  0  0  0  0  0  0  0  0
  -25.4891  -28.1870   21.8856 N   0  0  0  0  0  0  0  0  0  0  0  0
  -27.1262  -20.8215   20.1732 N   0  0  0  0  0  0  0  0  0  0  0  0
  -30.2232  -17.2474   20.2167 N   0  0  0  0  0  0  0  0  0  0  0  0
  -29.2423  -12.8649   19.7389 N   0  0  0  0  0  0  0  0  0  0  0  0
  -25.6480  -31.5519   22.0326 N   0  0  0  0  0  0  0  0  0  0  0  0
  -23.5829  -25.9391   23.5503 N   0  0  0  0  0  0  0  0  0  0  0  0
  -28.7842  -21.6082   18.6813 N   0  0  0  0  0  0  0  0  0  0  0  0
  -22.7817  -22.9190   21.7325 N   0  3  0  0  0  0  0  0  0  0  0  0
  -30.9151  -14.4260   19.5857 O   0  0  0  0  0  0  0  0  0  0  0  0
  -27.5261  -30.1890   21.8391 O   0  0  0  0  0  0  0  0  0  0  0  0
  -23.4330  -28.7134   22.8508 O   0  0  0  0  0  0  0  0  0  0  0  0
  -24.9963  -24.2328   22.8664 O   0  0  0  0  0  0  0  0  0  0  0  0
  -27.5803  -23.0853   19.9563 O   0  0  0  0  0  0  0  0  0  0  0  0
  -32.1316  -23.6267   16.8473 O   0  0  0  0  0  0  0  0  0  0  0  0
  -24.2822  -10.4855   20.6172 O   0  0  0  0  0  0  0  0  0  0  0  0
  -30.5755  -25.8337   19.3082 O   0  0  0  0  0  0  0  0  0  1  0  0
  -20.9648   -9.6705   24.9455 F   0  0  0  0  0  0  0  0  0  0  0  0
  -22.3032  -12.3090   21.2506 F   0  0  0  0  0  0  0  0  0  0  0  0
  1  2  1  0  0  0  0
  1  5  2  0  0  0  0
  2  6  2  0  0  0  0
  3  8  2  0  0  0  0
  3 15  1  0  0  0  0
  4  9  1  0  0  0  0
  4 15  2  0  0  0  0
  5 17  1  0  0  0  0
  6 19  1  0  0  0  0
  7 10  2  0  0  0  0
  7 18  1  0  0  0  0
  8 21  1  0  0  0  0
  9 21  2  0  0  0  0
 10 22  1  0  0  0  0
 11 12  2  0  0  0  0
 11 23  1  0  0  0  0
 12 24  1  0  0  0  0
 13 20  1  0  0  0  0
 13 22  2  0  0  0  0
 14 24  2  0  0  0  0
 14 25  1  0  0  0  0
 15 26  1  0  0  0  0
 16 26  1  0  0  0  0
 16 27  2  0  0  0  0
 16 28  1  0  0  0  0
 17 19  2  0  0  0  0
 17 33  1  0  0  0  0
 18 20  2  0  0  0  0
 18 34  1  0  0  0  0
 19 42  1  0  0  0  0
 20 35  1  0  0  0  0
 21 73  1  0  0  0  0
 22 74  1  0  0  0  0
 23 25  2  0  0  0  0
 23 73  1  0  0  0  0
 24 75  1  0  0  0  0
 25 76  1  0  0  0  0
 26 57  2  0  0  0  0
 27 58  1  0  0  0  0
 27 61  1  0  0  0  0
 28 62  1  0  0  0  0
 28 67  2  0  0  0  0
 29 43  1  0  0  0  0
 29 63  1  0  0  0  0
 29 68  2  0  0  0  0
 30 53  1  0  0  0  0
 30 59  1  0  0  0  0
 30 69  2  0  0  0  0
 31 54  1  0  0  0  0
 31 64  1  0  0  0  0
 31 70  2  0  0  0  0
 32 60  1  0  0  0  0
 32 65  1  0  0  0  0
 32 71  2  0  0  0  0
 33 36  1  0  0  0  0
 34 43  1  0  0  0  0
 35 59  1  0  0  0  0
 36 38  1  0  0  0  0
 37 39  1  0  0  0  0
 37 40  1  0  0  0  0
 38 42  1  0  0  0  0
 39 44  1  0  0  0  0
 40 60  1  0  0  0  0
 41 44  1  0  0  0  0
 41 60  1  0  0  0  0
 42 63  1  0  0  0  0
 43 59  1  0  0  0  0
 44 58  1  0  0  0  0
 45 54  1  0  0  0  0
 46 56  1  0  0  0  0
 47 56  1  0  0  0  0
 48 56  1  0  0  0  0
 49 66  1  0  0  0  0
 50 51  1  0  0  0  0
 50 55  1  0  0  0  0
 51 65  1  0  0  0  0
 52 55  1  0  0  0  0
 52 74  1  0  0  0  0
 53 56  1  0  0  0  0
 53 64  1  0  0  0  0
 54 66  1  0  0  0  0
 55 72  1  0  0  0  0
 57 58  1  0  0  0  0
M  CHG  1  66   1
M  ISO  4  32 100  52 101  65 100  74 101
M  END
> <Batch ID>
0099

> <Smiles>
CNC(C)C(=O)NC(C(=O)N1Cc2cc([101O:1][101CH2:1]C(O)CC[100NH:0][100C:0](=O)N3CCCC(n4nc(-c5ccc(Oc6ccc(F)cc6F)cc5)c(C(N)=O)c4N)C3)ccc2CC1C(=O)NC1CCCc2ccccc21)C(C)(C)C

> <Shape>
0.254

> <Color>
0.080

> <Negative vol penalty>
0.000

$$$$

  -OEChem-04052319313D

 87 95  0     1  0  0  0  0  0999 V2000
  -20.9747  -17.6108   25.0149 C   0  0  0  0  0  0  0  0  0  0  0  0
  -21.2671  -18.4868   26.0541 C   0  0  0  0  0  0  0  0  0  0  0  0
  -26.8432  -12.7802   18.8064 C   0  0  0  0  0  0  0  0  0  0  0  0
  -26.4021  -12.9676   21.1744 C   0  0  0  0  0  0  0  0  0  0  0  0
  -21.6660  -17.7101   23.8093 C   0  0  0  0  0  0  0  0  0  0  0  0
  -22.2424  -19.4700   25.8841 C   0  0  0  0  0  0  0  0  0  0  0  0
  -26.9440  -26.3458   26.0241 C   0  0  0  0  0  0  0  0  0  0  0  0
  -25.6165  -12.1405   18.6285 C   0  0  0  0  0  0  0  0  0  0  0  0
  -25.1754  -12.3279   20.9965 C   0  0  0  0  0  0  0  0  0  0  0  0
  -27.6991  -27.0370   25.0776 C   0  0  0  0  0  0  0  0  0  0  0  0
  -24.0516   -9.1663   20.5812 C   0  0  0  0  0  0  0  0  0  0  0  0
  -23.7070   -8.1625   21.4862 C   0  0  0  0  0  0  0  0  0  0  0  0
  -25.9809  -26.6460   23.4302 C   0  0  0  0  0  0  0  0  0  0  0  0
  -21.7439   -9.4158   22.1287 C   0  0  0  0  0  0  0  0  0  0  0  0
  -27.2360  -13.1937   20.0793 C   0  0  0  0  0  0  0  0  0  0  0  0
  -29.7805  -13.3399   19.9706 C   0  0  0  0  0  0  0  0  0  0  0  0
  -22.6589  -18.6873   23.6296 C   0  0  0  0  0  0  0  0  0  0  0  0
  -25.7045  -25.7893   25.6772 C   0  0  0  0  0  0  0  0  0  0  0  0
  -22.9344  -19.6017   24.6666 C   0  0  0  0  0  0  0  0  0  0  0  0
  -25.2108  -25.9505   24.3748 C   0  0  0  0  0  0  0  0  0  0  0  0
  -24.7826  -11.9143   19.7236 C   0  0  0  0  0  0  0  0  0  0  0  0
  -27.2189  -27.1847   23.7796 C   0  0  0  0  0  0  0  0  0  0  0  0
  -23.2424  -10.2950   20.4499 C   0  0  0  0  0  0  0  0  0  0  0  0
  -22.5531   -8.2872   22.2600 C   0  0  0  0  0  0  0  0  0  0  0  0
  -22.0885  -10.4196   21.2236 C   0  0  0  0  0  0  0  0  0  0  0  0
  -28.5033  -13.8541   20.2638 C   0  0  0  0  0  0  0  0  0  0  0  0
  -30.6453  -14.3472   20.3224 C   0  0  0  0  0  0  0  0  0  0  0  0
  -30.1520  -12.0656   19.4285 C   0  0  0  0  0  0  0  0  0  0  0  0
  -24.5124  -22.8438   25.5949 C   0  0  0  0  0  0  0  0  0  0  0  0
  -21.7536  -24.3989   24.8931 C   0  0  0  0  0  0  0  0  0  0  0  0
  -20.7516  -27.1816   22.8266 C   0  0  0  0  0  0  0  0  0  0  0  0
  -29.6559  -20.2659   20.8165 C   0  0  0  0  0  0  0  0  0  0  0  0
  -23.3708  -18.7552   22.3015 C   0  0  0  0  0  0  0  0  0  0  0  0
  -24.8899  -25.0696   26.7170 C   0  0  0  0  0  0  0  0  0  0  0  0
  -23.8769  -25.3894   23.9572 C   0  0  0  0  0  0  0  0  0  0  0  0
  -24.6825  -19.5305   22.3690 C   0  0  0  0  0  0  0  0  0  0  0  0
  -29.7959  -17.6445   23.6250 C   0  0  0  0  0  0  0  0  0  0  0  0
  -24.4617  -20.8662   23.0631 C   0  0  0  0  0  0  0  0  0  0  0  0
  -30.6589  -16.6832   22.8131 C   0  0  0  0  0  0  0  0  0  0  0  0
  -28.5578  -23.3578   20.8481 C   0  0  0  0  0  0  0  0  0  0  0  0
  -30.9319  -23.6401   21.6503 C   0  0  0  0  0  0  0  0  0  0  0  0
  -29.8443  -19.0513   23.0367 C   0  0  0  0  0  0  0  0  0  0  0  0
  -29.3096  -17.8111   20.9395 C   0  0  0  0  0  0  0  0  0  0  0  0
  -28.6039  -24.7537   20.2405 C   0  0  0  0  0  0  0  0  0  0  0  0
  -30.9655  -25.0351   21.0398 C   0  0  0  0  0  0  0  0  0  0  0  0
  -24.0127  -20.6595   24.5152 C   0  0  1  0  0  0  0  0  0  0  0  0
  -23.8758  -24.1009   26.1165 C   0  0  1  0  0  0  0  0  0  0  0  0
  -30.3262  -16.7152   21.3054 C   0  0  2  0  0  0  0  0  0  0  0  0
  -29.9496  -22.7282   20.9150 C   0  0  0  0  0  0  0  0  0  0  0  0
  -18.8201  -28.7678   23.0506 C   0  0  0  0  0  0  0  0  0  0  0  0
  -30.7172  -28.0691   16.9267 C   0  0  0  0  0  0  0  0  0  0  0  0
  -28.4016  -28.1133   17.8758 C   0  0  0  0  0  0  0  0  0  0  0  0
  -28.7925  -30.0638   20.8849 C   0  0  0  0  0  0  0  0  0  0  0  0
  -30.8543  -30.3838   22.2380 C   0  0  0  0  0  0  0  0  0  0  0  0
  -20.3196  -22.4602   23.0236 C   0  0  0  0  0  0  0  0  0  0  0  0
  -19.2631  -24.4331   21.9012 C   0  0  0  0  0  0  0  0  0  0  0  0
  -18.8068  -23.9792   24.3113 C   0  0  0  0  0  0  0  0  0  0  0  0
  -22.5344  -29.5432   22.7706 C   0  0  0  0  0  0  0  0  0  0  0  0
  -30.3156  -27.0561   19.1912 C   0  0  0  0  0  0  0  0  0  0  0  0
  -29.3711  -27.8206   22.9924 C   0  0  0  0  0  0  0  0  0  1  0  0
  -21.0766  -24.8547   23.6231 C   0  0  1  0  0  0  0  0  0  0  0  0
  -20.3043  -28.5520   23.3022 C   0  0  2  0  0  0  0  0  0  0  0  0
  -29.8922  -28.1704   18.2131 C   0  0  0  0  0  0  0  0  0  0  0  0
  -30.1833  -29.4870   21.1882 C   0  0  0  0  0  0  0  0  0  0  0  0
  -30.1120  -27.9880   21.6450 C   0  0  2  0  0  0  0  0  0  0  0  0
  -29.5645  -27.0349   20.5371 C   0  0  2  0  0  0  0  0  0  0  0  0
  -19.8948  -23.9296   23.2166 C   0  0  0  0  0  0  0  0  0  0  0  0
  -28.5481  -15.0920   20.7636 N   0  0  0  0  0  0  0  0  0  0  0  0
  -29.8640  -15.3639   20.7872 N   0  0  0  0  0  0  0  0  0  0  0  0
  -23.1206  -24.6886   25.0081 N   0  0  0  0  0  0  0  0  0  0  0  0
  -29.6328  -19.0852   21.5840 N   0  0  0  0  0  0  0  0  0  0  0  0
  -31.9903  -14.4537   20.2765 N   0  0  0  0  0  0  0  0  0  0  0  0
  -30.4004  -11.0090   20.3153 N   0  0  0  0  0  0  0  0  0  0  0  0
  -23.6140  -21.9334   25.0720 N   0  0  0  0  0  0  0  0  0  0  0  0
  -20.6985  -26.2471   23.8391 N   0  0  0  0  0  0  0  0  0  0  0  0
  -29.8954  -21.4302   21.5418 N   0  0  0  0  0  0  0  0  0  0  0  0
  -29.5701  -25.6112   21.0220 N   0  3  0  0  0  0  0  0  0  0  0  0
  -21.0618  -29.6201   22.5906 N   0  3  0  0  0  0  0  0  0  0  0  0
  -30.2764  -11.8740   18.1951 O   0  0  0  0  0  0  0  0  0  0  0  0
  -25.7288  -22.7103   25.6607 O   0  0  0  0  0  0  0  0  0  0  0  0
  -21.0922  -23.8140   25.7545 O   0  0  0  0  0  0  0  0  0  0  0  0
  -21.1088  -26.9612   21.6714 O   0  0  0  0  0  0  0  0  0  0  0  0
  -29.4764  -20.2804   19.5950 O   0  0  0  0  0  0  0  0  0  0  0  0
  -23.5855  -11.2903   19.5503 O   0  0  0  0  0  0  0  0  0  0  0  0
  -27.9600  -27.8636   22.8463 O   0  0  0  0  0  0  0  0  0  1  0  0
  -22.2214   -7.3224   23.1280 F   0  0  0  0  0  0  0  0  0  0  0  0
  -21.3066  -11.5010   21.1011 F   0  0  0  0  0  0  0  0  0  0  0  0
  1  2  1  0  0  0  0
  1  5  2  0  0  0  0
  2  6  2  0  0  0  0
  3  8  2  0  0  0  0
  3 15  1  0  0  0  0
  4  9  1  0  0  0  0
  4 15  2  0  0  0  0
  5 17  1  0  0  0  0
  6 19  1  0  0  0  0
  7 10  2  0  0  0  0
  7 18  1  0  0  0  0
  8 21  1  0  0  0  0
  9 21  2  0  0  0  0
 10 22  1  0  0  0  0
 11 12  2  0  0  0  0
 11 23  1  0  0  0  0
 12 24  1  0  0  0  0
 13 20  1  0  0  0  0
 13 22  2  0  0  0  0
 14 24  2  0  0  0  0
 14 25  1  0  0  0  0
 15 26  1  0  0  0  0
 16 26  1  0  0  0  0
 16 27  2  0  0  0  0
 16 28  1  0  0  0  0
 17 19  2  0  0  0  0
 17 33  1  0  0  0  0
 18 20  2  0  0  0  0
 18 34  1  0  0  0  0
 19 46  1  0  0  0  0
 20 35  1  0  0  0  0
 21 84  1  0  0  0  0
 22 85  1  0  0  0  0
 23 25  2  0  0  0  0
 23 84  1  0  0  0  0
 24 86  1  0  0  0  0
 25 87  1  0  0  0  0
 26 68  2  0  0  0  0
 27 69  1  0  0  0  0
 27 72  1  0  0  0  0
 28 73  1  0  0  0  0
 28 79  2  0  0  0  0
 29 47  1  0  0  0  0
 29 74  1  0  0  0  0
 29 80  2  0  0  0  0
 30 61  1  0  0  0  0
 30 70  1  0  0  0  0
 30 81  2  0  0  0  0
 31 62  1  0  0  0  0
 31 75  1  0  0  0  0
 31 82  2  0  0  0  0
 32 71  1  0  0  0  0
 32 76  1  0  0  0  0
 32 83  2  0  0  0  0
 33 36  1  0  0  0  0
 34 47  1  0  0  0  0
 35 70  1  0  0  0  0
 36 38  1  0  0  0  0
 37 39  1  0  0  0  0
 37 42  1  0  0  0  0
 38 46  1  0  0  0  0
 39 48  1  0  0  0  0
 40 44  1  0  0  0  0
 40 49  1  0  0  0  0
 41 45  1  0  0  0  0
 41 49  1  0  0  0  0
 42 71  1  0  0  0  0
 43 48  1  0  0  0  0
 43 71  1  0  0  0  0
 44 77  1  0  0  0  0
 45 77  1  0  0  0  0
 46 74  1  0  0  0  0
 47 70  1  0  0  0  0
 48 69  1  0  0  0  0
 49 76  1  0  0  0  0
 50 62  1  0  0  0  0
 51 63  1  0  0  0  0
 52 63  1  0  0  0  0
 53 64  1  0  0  0  0
 54 64  1  0  0  0  0
 55 67  1  0  0  0  0
 56 67  1  0  0  0  0
 57 67  1  0  0  0  0
 58 78  1  0  0  0  0
 59 63  1  0  0  0  0
 59 66  1  0  0  0  0
 60 65  1  0  0  0  0
 60 85  1  0  0  0  0
 61 67  1  0  0  0  0
 61 75  1  0  0  0  0
 62 78  1  0  0  0  0
 64 65  1  0  0  0  0
 65 66  1  0  0  0  0
 66 77  1  0  0  0  0
 68 69  1  0  0  0  0
M  CHG  2  77   1  78   1
M  ISO  4  32 100  60 101  76 100  85 101
M  END
> <Batch ID>
0099

> <Smiles>
CNC(C)C(=O)NC(C(=O)N1Cc2cc([101O:1][101CH2:1]C(C(C)C)C(CC(C)C)N3CCC([100NH:0][100C:0](=O)N4CCCC(n5nc(-c6ccc(Oc7ccc(F)cc7F)cc6)c(C(N)=O)c5N)C4)CC3)ccc2CC1C(=O)NC1CCCc2ccccc21)C(C)(C)C

> <Shape>
0.238

> <Color>
0.069

> <Negative vol penalty>
0.000

$$$$

  -OEChem-04052319313D

 88 96  0     1  0  0  0  0  0999 V2000
  -32.5787  -32.0388   22.1863 C   0  0  0  0  0  0  0  0  0  0  0  0
  -32.2492  -30.8491   21.5448 C   0  0  0  0  0  0  0  0  0  0  0  0
  -24.6721  -10.5929   21.2499 C   0  0  0  0  0  0  0  0  0  0  0  0
  -25.0467  -11.7067   23.3609 C   0  0  0  0  0  0  0  0  0  0  0  0
  -31.7979  -32.4972   23.2465 C   0  0  0  0  0  0  0  0  0  0  0  0
  -31.1393  -30.1164   21.9640 C   0  0  0  0  0  0  0  0  0  0  0  0
  -27.3585  -26.8244   18.4464 C   0  0  0  0  0  0  0  0  0  0  0  0
  -24.5658   -9.3707   21.9137 C   0  0  0  0  0  0  0  0  0  0  0  0
  -24.9404  -10.4845   24.0246 C   0  0  0  0  0  0  0  0  0  0  0  0
  -27.2889  -25.4609   18.1642 C   0  0  0  0  0  0  0  0  0  0  0  0
  -22.2370   -7.7094   23.7163 C   0  0  0  0  0  0  0  0  0  0  0  0
  -21.1907   -6.8623   23.3512 C   0  0  0  0  0  0  0  0  0  0  0  0
  -25.6227  -25.1953   19.8882 C   0  0  0  0  0  0  0  0  0  0  0  0
  -26.4160  -19.6256   22.9623 C   0  0  0  0  0  0  0  0  0  0  0  0
  -22.7872   -5.1608   22.7242 C   0  0  0  0  0  0  0  0  0  0  0  0
  -28.2824  -19.6291   24.2219 C   0  0  0  0  0  0  0  0  0  0  0  0
  -24.9126  -11.7609   21.9735 C   0  0  0  0  0  0  0  0  0  0  0  0
  -23.9831  -13.9265   20.9968 C   0  0  0  0  0  0  0  0  0  0  0  0
  -30.6722  -31.7747   23.6727 C   0  0  0  0  0  0  0  0  0  0  0  0
  -26.5673  -27.3827   19.4606 C   0  0  0  0  0  0  0  0  0  0  0  0
  -30.3435  -30.5649   23.0319 C   0  0  0  0  0  0  0  0  0  0  0  0
  -25.6822  -26.5667   20.1796 C   0  0  0  0  0  0  0  0  0  0  0  0
  -26.9067  -19.6237   24.2914 C   0  0  0  0  0  0  0  0  0  0  0  0
  -24.6999   -9.3165   23.3010 C   0  0  0  0  0  0  0  0  0  0  0  0
  -26.4231  -24.6456   18.8871 C   0  0  0  0  0  0  0  0  0  0  0  0
  -23.5584   -7.2822   23.5854 C   0  0  0  0  0  0  0  0  0  0  0  0
  -21.4658   -5.5880   22.8552 C   0  0  0  0  0  0  0  0  0  0  0  0
  -23.8335   -6.0079   23.0894 C   0  0  0  0  0  0  0  0  0  0  0  0
  -25.0231  -13.0237   21.2884 C   0  0  0  0  0  0  0  0  0  0  0  0
  -27.5068  -19.6319   22.1212 C   0  0  0  0  0  0  0  0  0  0  0  0
  -24.6017  -14.9628   20.3412 C   0  0  0  0  0  0  0  0  0  0  0  0
  -22.5830  -13.8365   21.2923 C   0  0  0  0  0  0  0  0  0  0  0  0
  -27.1611  -28.8816   22.2001 C   0  0  0  0  0  0  0  0  0  0  0  0
  -23.9437  -29.2936   22.2215 C   0  0  0  0  0  0  0  0  0  0  0  0
  -20.8788  -28.2250   21.1671 C   0  0  0  0  0  0  0  0  0  0  0  0
  -30.2207  -17.0310   20.3703 C   0  0  0  0  0  0  0  0  0  0  0  0
  -29.8861  -32.2858   24.8540 C   0  0  0  0  0  0  0  0  0  0  0  0
  -26.6345  -28.8601   19.7347 C   0  0  0  0  0  0  0  0  0  0  0  0
  -24.7967  -27.1206   21.2647 C   0  0  0  0  0  0  0  0  0  0  0  0
  -28.5089  -31.6423   24.9936 C   0  0  0  0  0  0  0  0  0  0  0  0
  -28.3671  -15.9088   17.5451 C   0  0  0  0  0  0  0  0  0  0  0  0
  -28.6082  -30.1286   24.8331 C   0  0  0  0  0  0  0  0  0  0  0  0
  -27.2061  -15.1236   18.1578 C   0  0  0  0  0  0  0  0  0  0  0  0
  -29.6562  -15.7245   18.3427 C   0  0  0  0  0  0  0  0  0  0  0  0
  -28.3809  -15.2390   20.3950 C   0  0  0  0  0  0  0  0  0  0  0  0
  -29.1328  -29.7546   23.4415 C   0  0  1  0  0  0  0  0  0  0  0  0
  -26.1589  -29.2301   21.1362 C   0  0  1  0  0  0  0  0  0  0  0  0
  -27.0458  -15.4382   19.6573 C   0  0  2  0  0  0  0  0  0  0  0  0
  -18.4321  -28.7403   21.3808 C   0  0  0  0  0  0  0  0  0  0  0  0
  -25.1724  -18.3550   25.6059 C   0  0  0  0  0  0  0  0  0  0  0  0
  -25.1617  -20.8721   25.6117 C   0  0  0  0  0  0  0  0  0  0  0  0
  -26.8974  -19.6180   26.8751 C   0  0  0  0  0  0  0  0  0  0  0  0
  -23.9298  -28.0586   25.0116 C   0  0  0  0  0  0  0  0  0  0  0  0
  -21.4593  -27.7272   24.7767 C   0  0  0  0  0  0  0  0  0  0  0  0
  -22.4164  -30.0305   24.7360 C   0  0  0  0  0  0  0  0  0  0  0  0
  -26.3566  -20.4760   17.9096 C   0  0  0  0  0  0  0  0  0  0  0  0
  -28.8618  -20.5838   17.9041 C   0  0  0  0  0  0  0  0  0  0  0  0
  -20.6117  -28.7246   18.2623 C   0  0  0  0  0  0  0  0  0  0  0  0
  -27.5667  -19.6365   20.6126 C   0  0  0  0  0  0  0  0  0  0  0  0
  -27.5838  -21.0679   20.0583 C   0  0  0  0  0  0  0  0  0  0  0  0
  -29.9986  -19.6400   22.4124 C   0  0  0  0  0  0  0  0  0  0  0  0
  -30.6613  -18.2665   22.4771 C   0  0  0  0  0  0  0  0  0  0  0  0
  -27.5381  -22.6897   18.1208 C   0  0  0  0  0  0  0  0  0  1  0  0
  -22.7685  -28.5067   22.7495 C   0  0  1  0  0  0  0  0  0  0  0  0
  -19.6997  -28.9750   20.5741 C   0  0  2  0  0  0  0  0  0  0  0  0
  -26.0952  -19.6176   25.5234 C   0  0  0  0  0  0  0  0  0  0  0  0
  -22.6615  -28.5697   24.2994 C   0  0  0  0  0  0  0  0  0  0  0  0
  -27.5827  -21.1908   18.5076 C   0  0  0  0  0  0  0  0  0  0  0  0
  -26.2122  -13.4490   20.8535 N   0  0  0  0  0  0  0  0  0  0  0  0
  -28.6360  -19.6336   22.8978 N   0  0  0  0  0  0  0  0  0  0  0  0
  -25.9232  -14.6305   20.2819 N   0  0  0  0  0  0  0  0  0  0  0  0
  -24.9034  -28.5700   21.4996 N   0  0  0  0  0  0  0  0  0  0  0  0
  -29.4366  -16.0404   19.7562 N   0  0  0  0  0  0  0  0  0  0  0  0
  -24.1388  -16.1167   19.8153 N   0  0  0  0  0  0  0  0  0  0  0  0
  -22.1151  -12.7037   21.9722 N   0  0  0  0  0  0  0  0  0  0  0  0
  -28.0817  -29.8802   22.4546 N   0  0  0  0  0  0  0  0  0  0  0  0
  -21.5922  -29.0097   22.0484 N   0  0  0  0  0  0  0  0  0  0  0  0
  -29.9435  -17.2728   21.7102 N   0  0  0  0  0  0  0  0  0  0  0  0
  -19.4544  -28.5299   19.1731 N   0  3  0  0  0  0  0  0  0  0  0  0
  -21.7684  -14.7263   20.9486 O   0  0  0  0  0  0  0  0  0  0  0  0
  -27.1026  -27.7882   22.7503 O   0  0  0  0  0  0  0  0  0  0  0  0
  -24.0041  -30.5070   22.4354 O   0  0  0  0  0  0  0  0  0  0  0  0
  -21.1387  -27.0585   20.8804 O   0  0  0  0  0  0  0  0  0  0  0  0
  -31.0989  -17.6574   19.7675 O   0  0  0  0  0  0  0  0  0  0  0  0
  -24.5960   -8.1241   23.9490 O   0  0  0  0  0  0  0  0  0  0  0  0
  -26.3537  -23.3142   18.6142 O   0  0  0  0  0  0  0  0  0  1  0  0
  -20.4609   -4.7741   22.5060 F   0  0  0  0  0  0  0  0  0  0  0  0
  -25.1009   -5.5915   22.9624 F   0  0  0  0  0  0  0  0  0  0  0  0
  1  2  1  0  0  0  0
  1  5  2  0  0  0  0
  2  6  2  0  0  0  0
  3  8  2  0  0  0  0
  3 17  1  0  0  0  0
  4  9  1  0  0  0  0
  4 17  2  0  0  0  0
  5 19  1  0  0  0  0
  6 21  1  0  0  0  0
  7 10  2  0  0  0  0
  7 20  1  0  0  0  0
  8 24  1  0  0  0  0
  9 24  2  0  0  0  0
 10 25  1  0  0  0  0
 11 12  2  0  0  0  0
 11 26  1  0  0  0  0
 12 27  1  0  0  0  0
 13 22  1  0  0  0  0
 13 25  2  0  0  0  0
 14 23  1  0  0  0  0
 14 30  2  0  0  0  0
 15 27  2  0  0  0  0
 15 28  1  0  0  0  0
 16 23  2  0  0  0  0
 16 70  1  0  0  0  0
 17 29  1  0  0  0  0
 18 29  1  0  0  0  0
 18 31  2  0  0  0  0
 18 32  1  0  0  0  0
 19 21  2  0  0  0  0
 19 37  1  0  0  0  0
 20 22  2  0  0  0  0
 20 38  1  0  0  0  0
 21 46  1  0  0  0  0
 22 39  1  0  0  0  0
 23 66  1  0  0  0  0
 24 85  1  0  0  0  0
 25 86  1  0  0  0  0
 26 28  2  0  0  0  0
 26 85  1  0  0  0  0
 27 87  1  0  0  0  0
 28 88  1  0  0  0  0
 29 69  2  0  0  0  0
 30 59  1  0  0  0  0
 30 70  1  0  0  0  0
 31 71  1  0  0  0  0
 31 74  1  0  0  0  0
 32 75  1  0  0  0  0
 32 80  2  0  0  0  0
 33 47  1  0  0  0  0
 33 76  1  0  0  0  0
 33 81  2  0  0  0  0
 34 64  1  0  0  0  0
 34 72  1  0  0  0  0
 34 82  2  0  0  0  0
 35 65  1  0  0  0  0
 35 77  1  0  0  0  0
 35 83  2  0  0  0  0
 36 73  1  0  0  0  0
 36 78  1  0  0  0  0
 36 84  2  0  0  0  0
 37 40  1  0  0  0  0
 38 47  1  0  0  0  0
 39 72  1  0  0  0  0
 40 42  1  0  0  0  0
 41 43  1  0  0  0  0
 41 44  1  0  0  0  0
 42 46  1  0  0  0  0
 43 48  1  0  0  0  0
 44 73  1  0  0  0  0
 45 48  1  0  0  0  0
 45 73  1  0  0  0  0
 46 76  1  0  0  0  0
 47 72  1  0  0  0  0
 48 71  1  0  0  0  0
 49 65  1  0  0  0  0
 50 66  1  0  0  0  0
 51 66  1  0  0  0  0
 52 66  1  0  0  0  0
 53 67  1  0  0  0  0
 54 67  1  0  0  0  0
 55 67  1  0  0  0  0
 56 68  1  0  0  0  0
 57 68  1  0  0  0  0
 58 79  1  0  0  0  0
 59 60  1  0  0  0  0
 60 68  1  0  0  0  0
 61 62  1  0  0  0  0
 61 70  1  0  0  0  0
 62 78  1  0  0  0  0
 63 68  1  0  0  0  0
 63 86  1  0  0  0  0
 64 67  1  0  0  0  0
 64 77  1  0  0  0  0
 65 79  1  0  0  0  0
 69 71  1  0  0  0  0
M  CHG  1  79   1
M  ISO  4  36 100  63 101  78 100  86 101
M  END
> <Batch ID>
0099

> <Smiles>
CNC(C)C(=O)NC(C(=O)N1Cc2cc([101O:1][101CH2:1]C(C)(C)CCc3cc(C(C)(C)C)cn3CC[100NH:0][100C:0](=O)N3CCCC(n4nc(-c5ccc(Oc6ccc(F)cc6F)cc5)c(C(N)=O)c4N)C3)ccc2CC1C(=O)NC1CCCc2ccccc21)C(C)(C)C

> <Shape>
0.226

> <Color>
0.079

> <Negative vol penalty>
0.000

$$$$

  -OEChem-04052319313D

 78 85  0     1  0  0  0  0  0999 V2000
  -30.4771  -25.1542   14.1595 C   0  0  0  0  0  0  0  0  0  0  0  0
  -29.1831  -25.0710   14.6638 C   0  0  0  0  0  0  0  0  0  0  0  0
  -26.5521  -16.6259   20.4453 C   0  0  0  0  0  0  0  0  0  0  0  0
  -26.1663  -17.2171   18.1347 C   0  0  0  0  0  0  0  0  0  0  0  0
  -31.5450  -25.4021   15.0209 C   0  0  0  0  0  0  0  0  0  0  0  0
  -28.9566  -25.2346   16.0299 C   0  0  0  0  0  0  0  0  0  0  0  0
  -24.0832  -27.8425   18.6671 C   0  0  0  0  0  0  0  0  0  0  0  0
  -26.8286  -15.3132   20.0633 C   0  0  0  0  0  0  0  0  0  0  0  0
  -26.4429  -15.9044   17.7527 C   0  0  0  0  0  0  0  0  0  0  0  0
  -22.9297  -27.3095   19.2409 C   0  0  0  0  0  0  0  0  0  0  0  0
  -29.4191  -13.6017   18.7244 C   0  0  0  0  0  0  0  0  0  0  0  0
  -30.5328  -12.9825   19.2917 C   0  0  0  0  0  0  0  0  0  0  0  0
  -23.9560  -27.4494   21.4195 C   0  0  0  0  0  0  0  0  0  0  0  0
  -29.1056  -11.2718   20.2264 C   0  0  0  0  0  0  0  0  0  0  0  0
  -26.2209  -17.5779   19.4810 C   0  0  0  0  0  0  0  0  0  0  0  0
  -26.8508  -19.9962   19.9937 C   0  0  0  0  0  0  0  0  0  0  0  0
  -31.3303  -25.5784   16.3969 C   0  0  0  0  0  0  0  0  0  0  0  0
  -25.1877  -28.1734   19.4654 C   0  0  0  0  0  0  0  0  0  0  0  0
  -30.0228  -25.4837   16.9107 C   0  0  0  0  0  0  0  0  0  0  0  0
  -25.1213  -27.9889   20.8538 C   0  0  0  0  0  0  0  0  0  0  0  0
  -26.7740  -14.9525   18.7170 C   0  0  0  0  0  0  0  0  0  0  0  0
  -22.8670  -27.1102   20.6169 C   0  0  0  0  0  0  0  0  0  0  0  0
  -28.1486  -13.0561   18.9083 C   0  0  0  0  0  0  0  0  0  0  0  0
  -30.3761  -11.8175   20.0426 C   0  0  0  0  0  0  0  0  0  0  0  0
  -27.9918  -11.8912   19.6593 C   0  0  0  0  0  0  0  0  0  0  0  0
  -25.9346  -18.9340   19.8751 C   0  0  0  0  0  0  0  0  0  0  0  0
  -26.0871  -21.0653   20.3939 C   0  0  0  0  0  0  0  0  0  0  0  0
  -28.2657  -20.0148   19.7627 C   0  0  0  0  0  0  0  0  0  0  0  0
  -28.2055  -27.1902   19.6379 C   0  0  0  0  0  0  0  0  0  0  0  0
  -28.4596  -29.6034   21.7907 C   0  0  0  0  0  0  0  0  0  0  0  0
  -26.9127  -31.6659   24.0268 C   0  0  0  0  0  0  0  0  0  0  0  0
  -20.5143  -22.4878   19.6673 C   0  0  0  0  0  0  0  0  0  0  0  0
  -32.5217  -25.7974   17.2954 C   0  0  0  0  0  0  0  0  0  0  0  0
  -26.4146  -28.7723   18.8343 C   0  0  0  0  0  0  0  0  0  0  0  0
  -26.2721  -28.3466   21.7572 C   0  0  0  0  0  0  0  0  0  0  0  0
  -32.1527  -26.3311   18.6771 C   0  0  0  0  0  0  0  0  0  0  0  0
  -22.1051  -22.1422   22.8013 C   0  0  0  0  0  0  0  0  0  0  0  0
  -30.9844  -25.5420   19.2596 C   0  0  0  0  0  0  0  0  0  0  0  0
  -23.3656  -21.3687   22.4171 C   0  0  0  0  0  0  0  0  0  0  0  0
  -20.8744  -21.6516   22.0364 C   0  0  0  0  0  0  0  0  0  0  0  0
  -22.3110  -20.8633   20.1824 C   0  0  0  0  0  0  0  0  0  0  0  0
  -29.7338  -25.6801   18.3831 C   0  0  1  0  0  0  0  0  0  0  0  0
  -27.6703  -28.5936   19.6820 C   0  0  1  0  0  0  0  0  0  0  0  0
  -23.5729  -21.3768   20.8926 C   0  0  2  0  0  0  0  0  0  0  0  0
  -27.3881  -33.5091   25.6620 C   0  0  0  0  0  0  0  0  0  0  0  0
  -17.7284  -26.4007   19.3200 C   0  0  0  0  0  0  0  0  0  0  0  0
  -18.9912  -26.7896   22.0890 C   0  0  0  0  0  0  0  0  0  0  0  0
  -29.5997  -27.5645   23.7537 C   0  0  0  0  0  0  0  0  0  0  0  0
  -29.1631  -29.2002   25.5982 C   0  0  0  0  0  0  0  0  0  0  0  0
  -30.7532  -29.7835   23.7669 C   0  0  0  0  0  0  0  0  0  0  0  0
  -18.2508  -22.1595   20.7508 C   0  0  0  0  0  0  0  0  0  0  0  0
  -25.1736  -33.5655   22.5686 C   0  0  0  0  0  0  0  0  0  0  0  0
  -18.6713  -24.0712   19.2492 C   0  0  0  0  0  0  0  0  0  0  0  0
  -20.6648  -26.2700   20.3004 C   0  0  0  0  0  0  0  0  0  1  0  0
  -28.2722  -29.7285   23.2835 C   0  0  1  0  0  0  0  0  0  0  0  0
  -26.9922  -33.1677   24.2339 C   0  0  2  0  0  0  0  0  0  0  0  0
  -18.2932  -25.2503   20.1672 C   0  0  1  0  0  0  0  0  0  0  0  0
  -19.4608  -25.7226   21.0886 C   0  0  2  0  0  0  0  0  0  0  0  0
  -29.4259  -29.0605   24.0836 C   0  0  0  0  0  0  0  0  0  0  0  0
  -24.6844  -19.2953   20.1757 N   0  0  0  0  0  0  0  0  0  0  0  0
  -24.8096  -20.5966   20.4873 N   0  0  0  0  0  0  0  0  0  0  0  0
  -27.4521  -28.9233   21.0919 N   0  0  0  0  0  0  0  0  0  0  0  0
  -21.1311  -21.6300   20.5899 N   0  0  0  0  0  0  0  0  0  0  0  0
  -26.3903  -22.3511   20.6715 N   0  0  0  0  0  0  0  0  0  0  0  0
  -28.8919  -18.8289   19.3555 N   0  0  0  0  0  0  0  0  0  0  0  0
  -29.0977  -26.9604   18.6081 N   0  0  0  0  0  0  0  0  0  0  0  0
  -28.1022  -31.1517   23.5556 N   0  0  0  0  0  0  0  0  0  0  0  0
  -19.2165  -22.9281   19.9679 N   0  0  0  0  0  0  0  0  0  0  0  0
  -25.6737  -33.8006   23.9476 N   0  3  0  0  0  0  0  0  0  0  0  0
  -28.9570  -21.0483   19.9288 O   0  0  0  0  0  0  0  0  0  0  0  0
  -27.8374  -26.3766   20.4771 O   0  0  0  0  0  0  0  0  0  0  0  0
  -29.4593  -30.0973   21.2632 O   0  0  0  0  0  0  0  0  0  0  0  0
  -25.8982  -31.0137   24.2631 O   0  0  0  0  0  0  0  0  0  0  0  0
  -21.0876  -22.8358   18.6270 O   0  0  0  0  0  0  0  0  0  0  0  0
  -27.0440  -13.6717   18.3439 O   0  0  0  0  0  0  0  0  0  0  0  0
  -21.7426  -26.5895   21.1794 O   0  0  0  0  0  0  0  0  0  1  0  0
  -31.4459  -11.2221   20.5860 F   0  0  0  0  0  0  0  0  0  0  0  0
  -26.7739  -11.3616   19.8383 F   0  0  0  0  0  0  0  0  0  0  0  0
  1  2  1  0  0  0  0
  1  5  2  0  0  0  0
  2  6  2  0  0  0  0
  3  8  2  0  0  0  0
  3 15  1  0  0  0  0
  4  9  1  0  0  0  0
  4 15  2  0  0  0  0
  5 17  1  0  0  0  0
  6 19  1  0  0  0  0
  7 10  2  0  0  0  0
  7 18  1  0  0  0  0
  8 21  1  0  0  0  0
  9 21  2  0  0  0  0
 10 22  1  0  0  0  0
 11 12  2  0  0  0  0
 11 23  1  0  0  0  0
 12 24  1  0  0  0  0
 13 20  1  0  0  0  0
 13 22  2  0  0  0  0
 14 24  2  0  0  0  0
 14 25  1  0  0  0  0
 15 26  1  0  0  0  0
 16 26  1  0  0  0  0
 16 27  2  0  0  0  0
 16 28  1  0  0  0  0
 17 19  2  0  0  0  0
 17 33  1  0  0  0  0
 18 20  2  0  0  0  0
 18 34  1  0  0  0  0
 19 42  1  0  0  0  0
 20 35  1  0  0  0  0
 21 75  1  0  0  0  0
 22 76  1  0  0  0  0
 23 25  2  0  0  0  0
 23 75  1  0  0  0  0
 24 77  1  0  0  0  0
 25 78  1  0  0  0  0
 26 60  2  0  0  0  0
 27 61  1  0  0  0  0
 27 64  1  0  0  0  0
 28 65  1  0  0  0  0
 28 70  2  0  0  0  0
 29 43  1  0  0  0  0
 29 66  1  0  0  0  0
 29 71  2  0  0  0  0
 30 55  1  0  0  0  0
 30 62  1  0  0  0  0
 30 72  2  0  0  0  0
 31 56  1  0  0  0  0
 31 67  1  0  0  0  0
 31 73  2  0  0  0  0
 32 63  1  0  0  0  0
 32 68  1  0  0  0  0
 32 74  2  0  0  0  0
 33 36  1  0  0  0  0
 34 43  1  0  0  0  0
 35 62  1  0  0  0  0
 36 38  1  0  0  0  0
 37 39  1  0  0  0  0
 37 40  1  0  0  0  0
 38 42  1  0  0  0  0
 39 44  1  0  0  0  0
 40 63  1  0  0  0  0
 41 44  1  0  0  0  0
 41 63  1  0  0  0  0
 42 66  1  0  0  0  0
 43 62  1  0  0  0  0
 44 61  1  0  0  0  0
 45 56  1  0  0  0  0
 46 57  1  0  0  0  0
 47 58  1  0  0  0  0
 48 59  1  0  0  0  0
 49 59  1  0  0  0  0
 50 59  1  0  0  0  0
 51 68  1  0  0  0  0
 52 69  1  0  0  0  0
 53 57  1  0  0  0  0
 53 68  1  0  0  0  0
 54 58  1  0  0  0  0
 54 76  1  0  0  0  0
 55 59  1  0  0  0  0
 55 67  1  0  0  0  0
 56 69  1  0  0  0  0
 57 58  1  0  0  0  0
 60 61  1  0  0  0  0
M  CHG  1  69   1
M  ISO  4  32 100  54 101  68 100  76 101
M  END
> <Batch ID>
0099

> <Smiles>
CNC(C)C(=O)NC(C(=O)N1Cc2cc([101O:1][101CH2:1]C(C)C(C)C[100N:0](C)[100C:0](=O)N3CCCC(n4nc(-c5ccc(Oc6ccc(F)cc6F)cc5)c(C(N)=O)c4N)C3)ccc2CC1C(=O)NC1CCCc2ccccc21)C(C)(C)C

> <Shape>
0.216

> <Color>
0.074

> <Negative vol penalty>
0.000

$$$$

  -OEChem-04052319313D

 83 91  0     1  0  0  0  0  0999 V2000
  -31.7130  -22.2785   23.2587 C   0  0  0  0  0  0  0  0  0  0  0  0
  -30.8823  -23.3479   22.9398 C   0  0  0  0  0  0  0  0  0  0  0  0
  -29.3619  -17.2199   19.0069 C   0  0  0  0  0  0  0  0  0  0  0  0
  -30.5199  -17.8918   21.0181 C   0  0  0  0  0  0  0  0  0  0  0  0
  -31.1936  -21.1673   23.9216 C   0  0  0  0  0  0  0  0  0  0  0  0
  -29.5314  -23.3063   23.2827 C   0  0  0  0  0  0  0  0  0  0  0  0
  -26.0195  -28.0243   24.9896 C   0  0  0  0  0  0  0  0  0  0  0  0
  -29.9698  -15.9664   19.0756 C   0  0  0  0  0  0  0  0  0  0  0  0
  -31.1277  -16.6382   21.0868 C   0  0  0  0  0  0  0  0  0  0  0  0
  -25.1089  -28.8165   24.2918 C   0  0  0  0  0  0  0  0  0  0  0  0
  -30.9390  -12.4661   18.9226 C   0  0  0  0  0  0  0  0  0  0  0  0
  -30.1382  -11.3443   18.7081 C   0  0  0  0  0  0  0  0  0  0  0  0
  -23.3034  -27.4232   25.0781 C   0  0  0  0  0  0  0  0  0  0  0  0
  -28.7600  -11.9679   20.5920 C   0  0  0  0  0  0  0  0  0  0  0  0
  -25.9634  -27.4612   20.9443 C   0  0  0  0  0  0  0  0  0  0  0  0
  -29.6370  -18.1827   19.9781 C   0  0  0  0  0  0  0  0  0  0  0  0
  -27.7846  -19.8618   20.4847 C   0  0  0  0  0  0  0  0  0  0  0  0
  -29.8377  -21.1162   24.2814 C   0  0  0  0  0  0  0  0  0  0  0  0
  -25.5793  -26.9172   25.7294 C   0  0  0  0  0  0  0  0  0  0  0  0
  -28.9930  -22.1929   23.9499 C   0  0  0  0  0  0  0  0  0  0  0  0
  -24.2102  -26.6201   25.7866 C   0  0  0  0  0  0  0  0  0  0  0  0
  -27.1956  -28.0089   20.6631 C   0  0  0  0  0  0  0  0  0  0  0  0
  -26.9910  -29.0529   19.7275 C   0  0  0  0  0  0  0  0  0  0  0  0
  -30.8527  -15.6755   20.1156 C   0  0  0  0  0  0  0  0  0  0  0  0
  -23.7509  -28.5143   24.3336 C   0  0  0  0  0  0  0  0  0  0  0  0
  -30.6504  -13.3387   19.9719 C   0  0  0  0  0  0  0  0  0  0  0  0
  -29.0487  -11.0953   19.5427 C   0  0  0  0  0  0  0  0  0  0  0  0
  -29.5609  -13.0897   20.8065 C   0  0  0  0  0  0  0  0  0  0  0  0
  -29.0098  -19.4779   19.9074 C   0  0  0  0  0  0  0  0  0  0  0  0
  -25.6399  -29.1115   19.4656 C   0  0  0  0  0  0  0  0  0  0  0  0
  -27.6364  -21.1806   20.1305 C   0  0  0  0  0  0  0  0  0  0  0  0
  -26.8629  -19.0950   21.2710 C   0  0  0  0  0  0  0  0  0  0  0  0
  -26.0929  -23.7832   25.5970 C   0  0  0  0  0  0  0  0  0  0  0  0
  -24.3631  -23.7776   28.3411 C   0  0  0  0  0  0  0  0  0  0  0  0
  -22.0441  -25.3280   30.3072 C   0  0  0  0  0  0  0  0  0  0  0  0
  -29.7298  -26.3153   19.5002 C   0  0  0  0  0  0  0  0  0  0  0  0
  -29.3117  -19.8736   24.9550 C   0  0  0  0  0  0  0  0  0  0  0  0
  -26.5715  -26.0885   26.4983 C   0  0  0  0  0  0  0  0  0  0  0  0
  -23.6843  -25.4546   26.5826 C   0  0  0  0  0  0  0  0  0  0  0  0
  -27.9497  -20.0692   25.6161 C   0  0  0  0  0  0  0  0  0  0  0  0
  -30.2177  -24.0128   16.8287 C   0  0  0  0  0  0  0  0  0  0  0  0
  -26.9983  -20.7985   24.6728 C   0  0  0  0  0  0  0  0  0  0  0  0
  -29.8520  -22.6594   17.4409 C   0  0  0  0  0  0  0  0  0  0  0  0
  -30.9212  -24.9172   17.8382 C   0  0  0  0  0  0  0  0  0  0  0  0
  -29.8292  -23.7583   19.7192 C   0  0  0  0  0  0  0  0  0  0  0  0
  -27.5275  -22.1956   24.3272 C   0  0  1  0  0  0  0  0  0  0  0  0
  -26.0668  -24.6811   26.8014 C   0  0  1  0  0  0  0  0  0  0  0  0
  -29.0677  -22.8322   18.7555 C   0  0  2  0  0  0  0  0  0  0  0  0
  -28.0326  -29.9202   19.1396 C   0  0  0  0  0  0  0  0  0  0  0  0
  -24.8799  -30.0093   18.5703 C   0  0  0  0  0  0  0  0  0  0  0  0
  -20.8051  -25.0638   32.4734 C   0  0  0  0  0  0  0  0  0  0  0  0
  -21.9618  -30.3091   21.6767 C   0  0  0  0  0  0  0  0  0  0  0  0
  -22.5521  -21.6900   27.0479 C   0  0  0  0  0  0  0  0  0  0  0  0
  -20.8511  -22.1683   28.8216 C   0  0  0  0  0  0  0  0  0  0  0  0
  -23.0873  -21.2607   29.4528 C   0  0  0  0  0  0  0  0  0  0  0  0
  -23.1991  -27.8216   31.4058 C   0  0  0  0  0  0  0  0  0  0  0  0
  -28.4860  -27.5782   21.2372 C   0  0  0  0  0  0  0  0  0  0  0  0
  -22.9111  -27.9744   21.6259 C   0  0  0  0  0  0  0  0  0  0  0  0
  -23.5464  -27.8459   20.2339 C   0  0  0  0  0  0  0  0  0  0  0  0
  -22.8967  -23.6605   28.6802 C   0  0  1  0  0  0  0  0  0  0  0  0
  -22.0331  -25.6466   31.7914 C   0  0  2  0  0  0  0  0  0  0  0  0
  -23.0268  -29.3757   22.2385 C   0  0  2  0  0  0  0  0  0  1  0  0
  -22.3566  -22.2158   28.4840 C   0  0  0  0  0  0  0  0  0  0  0  0
  -29.5980  -20.4723   19.2371 N   0  0  0  0  0  0  0  0  0  0  0  0
  -25.0252  -28.1396   20.2110 N   0  0  0  0  0  0  0  0  0  0  0  0
  -28.7387  -21.4941   19.3910 N   0  0  0  0  0  0  0  0  0  0  0  0
  -24.6945  -24.6706   27.3122 N   0  0  0  0  0  0  0  0  0  0  0  0
  -30.1247  -25.0408   19.0614 N   0  0  0  0  0  0  0  0  0  0  0  0
  -26.6720  -22.0910   20.3825 N   0  0  0  0  0  0  0  0  0  0  0  0
  -27.1696  -17.7544   21.5414 N   0  0  0  0  0  0  0  0  0  0  0  0
  -27.2879  -23.1119   25.4215 N   0  0  0  0  0  0  0  0  0  0  0  0
  -22.7494  -24.1742   30.0377 N   0  0  0  0  0  0  0  0  0  0  0  0
  -28.9719  -26.3426   20.6645 N   0  0  0  0  0  0  0  0  0  0  0  0
  -22.0336  -27.1215   32.0046 N   0  3  0  0  0  0  0  0  0  0  0  0
  -25.7910  -19.5795   21.7067 O   0  0  0  0  0  0  0  0  0  0  0  0
  -25.1017  -23.7040   24.8808 O   0  0  0  0  0  0  0  0  0  0  0  0
  -25.1848  -23.1070   28.9708 O   0  0  0  0  0  0  0  0  0  0  0  0
  -21.4801  -26.0302   29.4710 O   0  0  0  0  0  0  0  0  0  0  0  0
  -30.0259  -27.3518   18.8960 O   0  0  0  0  0  0  0  0  0  0  0  0
  -31.4459  -14.4524   20.1831 O   0  0  0  0  0  0  0  0  0  0  0  0
  -22.8600  -29.2855   23.6529 O   0  0  0  0  0  0  0  0  0  1  0  0
  -28.2789  -10.0189   19.3356 F   0  0  0  0  0  0  0  0  0  0  0  0
  -29.2779  -13.9250   21.8154 F   0  0  0  0  0  0  0  0  0  0  0  0
  1  2  1  0  0  0  0
  1  5  2  0  0  0  0
  2  6  2  0  0  0  0
  3  8  2  0  0  0  0
  3 16  1  0  0  0  0
  4  9  1  0  0  0  0
  4 16  2  0  0  0  0
  5 18  1  0  0  0  0
  6 20  1  0  0  0  0
  7 10  2  0  0  0  0
  7 19  1  0  0  0  0
  8 24  1  0  0  0  0
  9 24  2  0  0  0  0
 10 25  1  0  0  0  0
 11 12  2  0  0  0  0
 11 26  1  0  0  0  0
 12 27  1  0  0  0  0
 13 21  1  0  0  0  0
 13 25  2  0  0  0  0
 14 27  2  0  0  0  0
 14 28  1  0  0  0  0
 15 22  2  0  0  0  0
 15 65  1  0  0  0  0
 16 29  1  0  0  0  0
 17 29  1  0  0  0  0
 17 31  2  0  0  0  0
 17 32  1  0  0  0  0
 18 20  2  0  0  0  0
 18 37  1  0  0  0  0
 19 21  2  0  0  0  0
 19 38  1  0  0  0  0
 20 46  1  0  0  0  0
 21 39  1  0  0  0  0
 22 23  1  0  0  0  0
 22 57  1  0  0  0  0
 23 30  2  0  0  0  0
 23 49  1  0  0  0  0
 24 80  1  0  0  0  0
 25 81  1  0  0  0  0
 26 28  2  0  0  0  0
 26 80  1  0  0  0  0
 27 82  1  0  0  0  0
 28 83  1  0  0  0  0
 29 64  2  0  0  0  0
 30 50  1  0  0  0  0
 30 65  1  0  0  0  0
 31 66  1  0  0  0  0
 31 69  1  0  0  0  0
 32 70  1  0  0  0  0
 32 75  2  0  0  0  0
 33 47  1  0  0  0  0
 33 71  1  0  0  0  0
 33 76  2  0  0  0  0
 34 60  1  0  0  0  0
 34 67  1  0  0  0  0
 34 77  2  0  0  0  0
 35 61  1  0  0  0  0
 35 72  1  0  0  0  0
 35 78  2  0  0  0  0
 36 68  1  0  0  0  0
 36 73  1  0  0  0  0
 36 79  2  0  0  0  0
 37 40  1  0  0  0  0
 38 47  1  0  0  0  0
 39 67  1  0  0  0  0
 40 42  1  0  0  0  0
 41 43  1  0  0  0  0
 41 44  1  0  0  0  0
 42 46  1  0  0  0  0
 43 48  1  0  0  0  0
 44 68  1  0  0  0  0
 45 48  1  0  0  0  0
 45 68  1  0  0  0  0
 46 71  1  0  0  0  0
 47 67  1  0  0  0  0
 48 66  1  0  0  0  0
 51 61  1  0  0  0  0
 52 62  1  0  0  0  0
 53 63  1  0  0  0  0
 54 63  1  0  0  0  0
 55 63  1  0  0  0  0
 56 74  1  0  0  0  0
 57 73  1  0  0  0  0
 58 59  1  0  0  0  0
 58 62  1  0  0  0  0
 59 65  1  0  0  0  0
 60 63  1  0  0  0  0
 60 72  1  0  0  0  0
 61 74  1  0  0  0  0
 62 81  1  0  0  0  0
 64 66  1  0  0  0  0
M  CHG  1  74   1
M  ISO  4  36 100  62 101  73 100  81 101
M  END
> <Batch ID>
0099

> <Smiles>
CNC(C)C(=O)NC(C(=O)N1Cc2cc([101O:1][101CH:1](C)CCn3cc(C[100NH:0][100C:0](=O)N4CCCC(n5nc(-c6ccc(Oc7ccc(F)cc7F)cc6)c(C(N)=O)c5N)C4)c(C)c3C)ccc2CC1C(=O)NC1CCCc2ccccc21)C(C)(C)C

> <Shape>
0.207

> <Color>
0.065

> <Negative vol penalty>
0.000

$$$$

  -OEChem-04052319313D

 89 98  0     1  0  0  0  0  0999 V2000
  -28.4310  -32.5357   26.8099 C   0  0  0  0  0  0  0  0  0  0  0  0
  -28.1764  -31.1757   26.6655 C   0  0  0  0  0  0  0  0  0  0  0  0
  -31.3113  -20.0716   21.6955 C   0  0  0  0  0  0  0  0  0  0  0  0
  -26.4162  -12.7042   21.1244 C   0  0  0  0  0  0  0  0  0  0  0  0
  -26.3700  -12.9711   18.7237 C   0  0  0  0  0  0  0  0  0  0  0  0
  -27.5510  -33.4701   26.2654 C   0  0  0  0  0  0  0  0  0  0  0  0
  -27.0410  -30.7493   25.9774 C   0  0  0  0  0  0  0  0  0  0  0  0
  -28.0274  -26.9689   22.7554 C   0  0  0  0  0  0  0  0  0  0  0  0
  -30.3604  -20.0408   22.7221 C   0  0  0  0  0  0  0  0  0  0  0  0
  -25.9525  -11.3958   20.9879 C   0  0  0  0  0  0  0  0  0  0  0  0
  -25.9064  -11.6626   18.5871 C   0  0  0  0  0  0  0  0  0  0  0  0
  -28.1702  -25.6920   23.2966 C   0  0  0  0  0  0  0  0  0  0  0  0
  -23.0029   -9.8451   20.4228 C   0  0  0  0  0  0  0  0  0  0  0  0
  -21.9799   -9.4286   21.2747 C   0  0  0  0  0  0  0  0  0  0  0  0
  -25.9089  -25.1676   22.6404 C   0  0  0  0  0  0  0  0  0  0  0  0
  -28.9644  -21.6474   21.5496 C   0  0  0  0  0  0  0  0  0  0  0  0
  -23.4123   -7.6880   22.1439 C   0  0  0  0  0  0  0  0  0  0  0  0
  -31.0896  -20.9008   20.5780 C   0  0  0  0  0  0  0  0  0  0  0  0
  -26.6249  -13.4919   19.9923 C   0  0  0  0  0  0  0  0  0  0  0  0
  -28.4437  -15.2732   20.1545 C   0  0  0  0  0  0  0  0  0  0  0  0
  -26.4094  -33.0549   25.5620 C   0  0  0  0  0  0  0  0  0  0  0  0
  -26.8186  -27.3591   22.1614 C   0  0  0  0  0  0  0  0  0  0  0  0
  -26.1442  -31.6790   25.4242 C   0  0  0  0  0  0  0  0  0  0  0  0
  -25.7542  -26.4492   22.0902 C   0  0  0  0  0  0  0  0  0  0  0  0
  -29.2057  -20.8174   22.6482 C   0  0  0  0  0  0  0  0  0  0  0  0
  -31.8178  -21.1742   19.3864 C   0  0  0  0  0  0  0  0  0  0  0  0
  -29.9237  -21.6680   20.5310 C   0  0  0  0  0  0  0  0  0  0  0  0
  -25.6977  -10.8750   19.7193 C   0  0  0  0  0  0  0  0  0  0  0  0
  -27.1099  -24.7921   23.2418 C   0  0  0  0  0  0  0  0  0  0  0  0
  -24.2306   -9.1830   20.4314 C   0  0  0  0  0  0  0  0  0  0  0  0
  -22.1846   -8.3501   22.1352 C   0  0  0  0  0  0  0  0  0  0  0  0
  -24.4353   -8.1045   21.2920 C   0  0  0  0  0  0  0  0  0  0  0  0
  -27.1033  -14.8437   20.1327 C   0  0  0  0  0  0  0  0  0  0  0  0
  -31.0932  -22.0849   18.6526 C   0  0  0  0  0  0  0  0  0  0  0  0
  -28.3653  -16.6360   20.3066 C   0  0  0  0  0  0  0  0  0  0  0  0
  -29.6518  -14.5086   20.0467 C   0  0  0  0  0  0  0  0  0  0  0  0
  -24.6503  -29.6064   22.7548 C   0  0  0  0  0  0  0  0  0  0  0  0
  -23.3643  -28.5518   19.9698 C   0  0  0  0  0  0  0  0  0  0  0  0
  -23.0279  -26.0158   17.7110 C   0  0  0  0  0  0  0  0  0  0  0  0
  -26.0957  -21.5585   18.9789 C   0  0  0  0  0  0  0  0  0  0  0  0
  -25.4624  -34.1023   25.0320 C   0  0  0  0  0  0  0  0  0  0  0  0
  -26.6896  -28.7311   21.5584 C   0  0  0  0  0  0  0  0  0  0  0  0
  -24.4424  -26.8121   21.4452 C   0  0  0  0  0  0  0  0  0  0  0  0
  -24.4796  -33.5657   23.9944 C   0  0  0  0  0  0  0  0  0  0  0  0
  -24.4268  -19.6007   21.4403 C   0  0  0  0  0  0  0  0  0  0  0  0
  -23.8624  -32.2549   24.4715 C   0  0  0  0  0  0  0  0  0  0  0  0
  -25.0804  -18.2232   21.3169 C   0  0  0  0  0  0  0  0  0  0  0  0
  -24.2820  -20.2805   20.0806 C   0  0  0  0  0  0  0  0  0  0  0  0
  -26.1834  -18.9993   19.1769 C   0  0  0  0  0  0  0  0  0  0  0  0
  -24.9363  -31.1771   24.6632 C   0  0  1  0  0  0  0  0  0  0  0  0
  -25.2418  -29.1961   21.4359 C   0  0  1  0  0  0  0  0  0  0  0  0
  -26.4018  -18.2981   20.5285 C   0  0  2  0  0  0  0  0  0  0  0  0
  -33.1188  -20.5860   19.0045 C   0  0  0  0  0  0  0  0  0  0  0  0
  -31.4801  -21.6713   16.1964 C   0  0  0  0  0  0  0  0  0  0  0  0
  -32.6758  -23.5610   17.3601 C   0  0  0  0  0  0  0  0  0  0  0  0
  -21.8825  -25.4378   15.5543 C   0  0  0  0  0  0  0  0  0  0  0  0
  -20.7312  -28.1892   21.4682 C   0  0  0  0  0  0  0  0  0  0  0  0
  -19.9320  -26.7576   19.5762 C   0  0  0  0  0  0  0  0  0  0  0  0
  -20.5006  -29.1526   19.1719 C   0  0  0  0  0  0  0  0  0  0  0  0
  -25.6060  -25.5919   16.3209 C   0  0  0  0  0  0  0  0  0  0  0  0
  -28.1994  -20.7631   23.7697 C   0  0  0  0  0  0  0  0  0  0  0  0
  -28.4529  -21.7906   24.8750 C   0  0  0  0  0  0  0  0  0  0  0  0
  -28.9236  -23.2978   18.9136 C   0  0  0  0  0  0  0  0  0  0  0  0
  -27.9953  -22.6986   17.8604 C   0  0  0  0  0  0  0  0  0  0  0  0
  -28.5035  -23.2261   24.3648 C   0  0  0  0  0  0  0  0  0  1  0  0
  -31.3902  -22.7036   17.3428 C   0  0  0  0  0  0  0  0  0  0  0  0
  -22.3596  -27.4909   19.5903 C   0  0  1  0  0  0  0  0  0  0  0  0
  -23.1438  -25.9929   16.1976 C   0  0  2  0  0  0  0  0  0  0  0  0
  -20.9048  -27.8911   19.9656 C   0  0  0  0  0  0  0  0  0  0  0  0
  -26.2367  -15.8520   20.2609 N   0  0  0  0  0  0  0  0  0  0  0  0
  -29.9525  -22.3768   19.3512 N   0  0  0  0  0  0  0  0  0  0  0  0
  -27.0344  -16.9285   20.3648 N   0  0  0  0  0  0  0  0  0  0  0  0
  -24.3632  -28.1674   20.8755 N   0  0  0  0  0  0  0  0  0  0  0  0
  -25.5707  -20.3206   19.3852 N   0  0  0  0  0  0  0  0  0  0  0  0
  -29.3055  -17.6006   20.3951 N   0  0  0  0  0  0  0  0  0  0  0  0
  -29.5517  -13.1189   19.8949 N   0  0  0  0  0  0  0  0  0  0  0  0
  -25.3351  -30.6279   23.3850 N   0  0  0  0  0  0  0  0  0  0  0  0
  -22.5595  -27.2290   18.1691 N   0  0  0  0  0  0  0  0  0  0  0  0
  -27.3244  -21.5077   18.3322 N   0  0  0  0  0  0  0  0  0  0  0  0
  -24.2965  -25.1462   15.7791 N   0  3  0  0  0  0  0  0  0  0  0  0
  -30.7868  -15.0401   20.1004 O   0  0  0  0  0  0  0  0  0  0  0  0
  -23.6462  -29.0393   23.1693 O   0  0  0  0  0  0  0  0  0  0  0  0
  -23.2706  -29.6779   19.4753 O   0  0  0  0  0  0  0  0  0  0  0  0
  -23.3198  -25.0523   18.4160 O   0  0  0  0  0  0  0  0  0  0  0  0
  -25.5150  -22.6301   19.1825 O   0  0  0  0  0  0  0  0  0  0  0  0
  -25.2455   -9.5982   19.5857 O   0  0  0  0  0  0  0  0  0  0  0  0
  -27.2464  -23.5453   23.7698 O   0  0  0  0  0  0  0  0  0  1  0  0
  -21.2027   -7.9512   22.9543 F   0  0  0  0  0  0  0  0  0  0  0  0
  -25.6130   -7.4652   21.3056 F   0  0  0  0  0  0  0  0  0  0  0  0
  1  2  1  0  0  0  0
  1  6  2  0  0  0  0
  2  7  2  0  0  0  0
  3  9  2  0  0  0  0
  3 18  1  0  0  0  0
  4 10  2  0  0  0  0
  4 19  1  0  0  0  0
  5 11  1  0  0  0  0
  5 19  2  0  0  0  0
  6 21  1  0  0  0  0
  7 23  1  0  0  0  0
  8 12  2  0  0  0  0
  8 22  1  0  0  0  0
  9 25  1  0  0  0  0
 10 28  1  0  0  0  0
 11 28  2  0  0  0  0
 12 29  1  0  0  0  0
 13 14  2  0  0  0  0
 13 30  1  0  0  0  0
 14 31  1  0  0  0  0
 15 24  1  0  0  0  0
 15 29  2  0  0  0  0
 16 25  2  0  0  0  0
 16 27  1  0  0  0  0
 17 31  2  0  0  0  0
 17 32  1  0  0  0  0
 18 26  1  0  0  0  0
 18 27  2  0  0  0  0
 19 33  1  0  0  0  0
 20 33  1  0  0  0  0
 20 35  2  0  0  0  0
 20 36  1  0  0  0  0
 21 23  2  0  0  0  0
 21 41  1  0  0  0  0
 22 24  2  0  0  0  0
 22 42  1  0  0  0  0
 23 50  1  0  0  0  0
 24 43  1  0  0  0  0
 25 61  1  0  0  0  0
 26 34  2  0  0  0  0
 26 53  1  0  0  0  0
 27 71  1  0  0  0  0
 28 86  1  0  0  0  0
 29 87  1  0  0  0  0
 30 32  2  0  0  0  0
 30 86  1  0  0  0  0
 31 88  1  0  0  0  0
 32 89  1  0  0  0  0
 33 70  2  0  0  0  0
 34 66  1  0  0  0  0
 34 71  1  0  0  0  0
 35 72  1  0  0  0  0
 35 75  1  0  0  0  0
 36 76  1  0  0  0  0
 36 81  2  0  0  0  0
 37 51  1  0  0  0  0
 37 77  1  0  0  0  0
 37 82  2  0  0  0  0
 38 67  1  0  0  0  0
 38 73  1  0  0  0  0
 38 83  2  0  0  0  0
 39 68  1  0  0  0  0
 39 78  1  0  0  0  0
 39 84  2  0  0  0  0
 40 74  1  0  0  0  0
 40 79  1  0  0  0  0
 40 85  2  0  0  0  0
 41 44  1  0  0  0  0
 42 51  1  0  0  0  0
 43 73  1  0  0  0  0
 44 46  1  0  0  0  0
 45 47  1  0  0  0  0
 45 48  1  0  0  0  0
 46 50  1  0  0  0  0
 47 52  1  0  0  0  0
 48 74  1  0  0  0  0
 49 52  1  0  0  0  0
 49 74  1  0  0  0  0
 50 77  1  0  0  0  0
 51 73  1  0  0  0  0
 52 72  1  0  0  0  0
 54 66  1  0  0  0  0
 55 66  1  0  0  0  0
 56 68  1  0  0  0  0
 57 69  1  0  0  0  0
 58 69  1  0  0  0  0
 59 69  1  0  0  0  0
 60 80  1  0  0  0  0
 61 62  1  0  0  0  0
 62 65  1  0  0  0  0
 63 64  1  0  0  0  0
 63 71  1  0  0  0  0
 64 79  1  0  0  0  0
 65 87  1  0  0  0  0
 67 69  1  0  0  0  0
 67 78  1  0  0  0  0
 68 80  1  0  0  0  0
 70 72  1  0  0  0  0
M  CHG  1  80   1
M  ISO  4  40 100  65 101  79 100  87 101
M  END
> <Batch ID>
0099

> <Smiles>
CNC(C)C(=O)NC(C(=O)N1Cc2cc([101O:1][101CH2:1]CCc3ccc4c(C)c(C(C)C)n(CC[100NH:0][100C:0](=O)N5CCCC(n6nc(-c7ccc(Oc8ccc(F)cc8F)cc7)c(C(N)=O)c6N)C5)c4c3)ccc2CC1C(=O)NC1CCCc2ccccc21)C(C)(C)C

> <Shape>
0.233

> <Color>
0.054

> <Negative vol penalty>
0.000

$$$$

  -OEChem-04052319313D

 90 98  0     1  0  0  0  0  0999 V2000
  -16.9753  -30.2309   24.5534 C   0  0  0  0  0  0  0  0  0  0  0  0
  -17.5859  -28.9961   24.7480 C   0  0  0  0  0  0  0  0  0  0  0  0
  -24.8650  -14.7155   19.6320 C   0  0  0  0  0  0  0  0  0  0  0  0
  -26.8728  -14.0234   18.4801 C   0  0  0  0  0  0  0  0  0  0  0  0
  -17.2602  -30.9757   23.4097 C   0  0  0  0  0  0  0  0  0  0  0  0
  -18.4811  -28.5049   23.7984 C   0  0  0  0  0  0  0  0  0  0  0  0
  -23.4874  -25.1389   24.8532 C   0  0  0  0  0  0  0  0  0  0  0  0
  -24.8545  -13.5120   20.3370 C   0  0  0  0  0  0  0  0  0  0  0  0
  -26.8624  -12.8199   19.1852 C   0  0  0  0  0  0  0  0  0  0  0  0
  -23.7281  -23.7675   24.7807 C   0  0  0  0  0  0  0  0  0  0  0  0
  -23.9607  -10.3019   19.7709 C   0  0  0  0  0  0  0  0  0  0  0  0
  -22.7442   -9.6292   19.8854 C   0  0  0  0  0  0  0  0  0  0  0  0
  -24.6064  -24.0457   22.5513 C   0  0  0  0  0  0  0  0  0  0  0  0
  -26.1035  -17.6778   19.8756 C   0  0  0  0  0  0  0  0  0  0  0  0
  -26.5604  -19.9313   20.6170 C   0  0  0  0  0  0  0  0  0  0  0  0
  -22.8785   -9.7958   22.2919 C   0  0  0  0  0  0  0  0  0  0  0  0
  -25.8741  -14.9712   18.7035 C   0  0  0  0  0  0  0  0  0  0  0  0
  -24.8849  -16.7030   17.1129 C   0  0  0  0  0  0  0  0  0  0  0  0
  -18.1667  -30.4977   22.4503 C   0  0  0  0  0  0  0  0  0  0  0  0
  -23.7949  -25.9738   23.7693 C   0  0  0  0  0  0  0  0  0  0  0  0
  -18.7775  -29.2434   22.6402 C   0  0  0  0  0  0  0  0  0  0  0  0
  -24.3710  -25.4277   22.6135 C   0  0  0  0  0  0  0  0  0  0  0  0
  -25.6506  -18.9512   20.2203 C   0  0  0  0  0  0  0  0  0  0  0  0
  -27.4662  -17.3844   19.9277 C   0  0  0  0  0  0  0  0  0  0  0  0
  -27.9231  -19.6379   20.6690 C   0  0  0  0  0  0  0  0  0  0  0  0
  -28.3760  -18.3644   20.3244 C   0  0  0  0  0  0  0  0  0  0  0  0
  -25.8533  -12.5642   20.1136 C   0  0  0  0  0  0  0  0  0  0  0  0
  -24.2850  -23.2203   23.6285 C   0  0  0  0  0  0  0  0  0  0  0  0
  -24.6362  -10.7214   20.9169 C   0  0  0  0  0  0  0  0  0  0  0  0
  -22.2030   -9.3762   21.1459 C   0  0  0  0  0  0  0  0  0  0  0  0
  -24.0951  -10.4685   22.1774 C   0  0  0  0  0  0  0  0  0  0  0  0
  -25.8850  -16.2140   17.9745 C   0  0  0  0  0  0  0  0  0  0  0  0
  -25.3694  -17.9114   16.6753 C   0  0  0  0  0  0  0  0  0  0  0  0
  -23.6301  -16.1173   16.7413 C   0  0  0  0  0  0  0  0  0  0  0  0
  -22.1122  -27.8643   21.8462 C   0  0  0  0  0  0  0  0  0  0  0  0
  -25.0451  -28.6889   20.7324 C   0  0  0  0  0  0  0  0  0  0  0  0
  -28.3277  -27.8519   20.3187 C   0  0  0  0  0  0  0  0  0  0  0  0
  -29.1485  -21.8624   18.8628 C   0  0  0  0  0  0  0  0  0  0  0  0
  -18.4071  -31.3171   21.2071 C   0  0  0  0  0  0  0  0  0  0  0  0
  -23.5539  -27.4548   23.8735 C   0  0  0  0  0  0  0  0  0  0  0  0
  -24.7380  -26.2838   21.4299 C   0  0  0  0  0  0  0  0  0  0  0  0
  -19.6524  -30.8956   20.4312 C   0  0  0  0  0  0  0  0  0  0  0  0
  -29.4559  -20.2299   15.8187 C   0  0  0  0  0  0  0  0  0  0  0  0
  -19.6978  -29.3786   20.2779 C   0  0  0  0  0  0  0  0  0  0  0  0
  -28.4836  -19.0564   15.9312 C   0  0  0  0  0  0  0  0  0  0  0  0
  -30.2033  -20.4451   17.1293 C   0  0  0  0  0  0  0  0  0  0  0  0
  -28.3243  -19.5000   18.4321 C   0  0  0  0  0  0  0  0  0  0  0  0
  -19.7730  -28.6880   21.6449 C   0  0  1  0  0  0  0  0  0  0  0  0
  -23.4300  -28.1371   22.5146 C   0  0  1  0  0  0  0  0  0  0  0  0
  -27.5379  -19.2374   17.1314 C   0  0  2  0  0  0  0  0  0  0  0  0
  -28.5409  -15.9713   18.1572 C   0  0  0  0  0  0  0  0  0  0  0  0
  -30.4085  -18.1744   21.8030 C   0  0  0  0  0  0  0  0  0  0  0  0
  -30.6584  -18.9125   19.4055 C   0  0  0  0  0  0  0  0  0  0  0  0
  -30.4714  -28.7122   19.3381 C   0  0  0  0  0  0  0  0  0  0  0  0
  -24.0370  -28.0052   17.9348 C   0  0  0  0  0  0  0  0  0  0  0  0
  -26.4184  -27.9607   17.1633 C   0  0  0  0  0  0  0  0  0  0  0  0
  -25.4396  -30.0718   18.0622 C   0  0  0  0  0  0  0  0  0  0  0  0
  -23.4103  -17.5238   21.8681 C   0  0  0  0  0  0  0  0  0  0  0  0
  -21.8654  -19.3323   21.1396 C   0  0  0  0  0  0  0  0  0  0  0  0
  -28.6888  -23.1579   20.9093 C   0  0  0  0  0  0  0  0  0  0  0  0
  -29.6752  -27.8345   22.9536 C   0  0  0  0  0  0  0  0  0  0  0  0
  -24.1739  -19.2690   20.1646 C   0  0  0  0  0  0  0  0  0  0  0  0
  -27.9254  -16.0132   19.5524 C   0  0  0  0  0  0  0  0  0  0  0  0
  -28.8769  -20.7051   21.0970 C   0  0  0  0  0  0  0  0  0  0  0  0
  -23.8218  -19.8610   22.6686 C   0  0  0  0  0  0  0  0  0  0  0  0
  -29.8370  -18.0497   20.3797 C   0  0  0  0  0  0  0  0  0  0  0  0
  -25.9608  -28.1734   19.6485 C   0  0  1  0  0  0  0  0  0  0  0  0
  -29.6059  -28.6260   20.5856 C   0  0  2  0  0  0  0  0  0  0  0  0
  -25.4554  -28.5361   18.2236 C   0  0  0  0  0  0  0  0  0  0  0  0
  -23.3440  -19.0109   21.4596 C   0  0  0  0  0  0  0  0  0  0  0  0
  -26.9263  -17.0439   18.0793 N   0  0  0  0  0  0  0  0  0  0  0  0
  -26.5831  -18.0666   17.2777 N   0  0  0  0  0  0  0  0  0  0  0  0
  -24.4773  -27.7252   21.5778 N   0  0  0  0  0  0  0  0  0  0  0  0
  -29.2745  -20.6078   18.2481 N   0  0  0  0  0  0  0  0  0  0  0  0
  -24.8713  -18.8458   15.8378 N   0  0  0  0  0  0  0  0  0  0  0  0
  -22.5010  -16.4071   17.5194 N   0  0  0  0  0  0  0  0  0  0  0  0
  -21.1169  -28.7642   22.1765 N   0  0  0  0  0  0  0  0  0  0  0  0
  -27.2906  -28.6866   19.9594 N   0  0  0  0  0  0  0  0  0  0  0  0
  -23.7669  -21.2987   22.4452 N   0  0  0  0  0  0  0  0  0  1  0  0
  -28.8214  -21.8785   20.2271 N   0  0  0  0  0  0  0  0  0  0  0  0
  -30.3969  -27.9646   21.6617 N   0  3  0  0  0  0  0  0  0  0  0  0
  -23.5168  -15.3463   15.7583 O   0  0  0  0  0  0  0  0  0  0  0  0
  -22.0067  -26.9091   21.0859 O   0  0  0  0  0  0  0  0  0  0  0  0
  -24.8467  -29.9025   20.8300 O   0  0  0  0  0  0  0  0  0  0  0  0
  -28.2572  -26.6287   20.4153 O   0  0  0  0  0  0  0  0  0  0  0  0
  -29.3257  -22.9115   18.2303 O   0  0  0  0  0  0  0  0  0  0  0  0
  -25.8436  -11.3898   20.8016 O   0  0  0  0  0  0  0  0  0  0  0  0
  -24.5203  -21.8820   23.5548 O   0  0  0  0  0  0  0  0  0  1  0  0
  -21.0340   -8.7316   21.2556 F   0  0  0  0  0  0  0  0  0  0  0  0
  -24.7389  -10.8702   23.2820 F   0  0  0  0  0  0  0  0  0  0  0  0
  1  2  1  0  0  0  0
  1  5  2  0  0  0  0
  2  6  2  0  0  0  0
  3  8  2  0  0  0  0
  3 17  1  0  0  0  0
  4  9  1  0  0  0  0
  4 17  2  0  0  0  0
  5 19  1  0  0  0  0
  6 21  1  0  0  0  0
  7 10  2  0  0  0  0
  7 20  1  0  0  0  0
  8 27  1  0  0  0  0
  9 27  2  0  0  0  0
 10 28  1  0  0  0  0
 11 12  2  0  0  0  0
 11 29  1  0  0  0  0
 12 30  1  0  0  0  0
 13 22  1  0  0  0  0
 13 28  2  0  0  0  0
 14 23  2  0  0  0  0
 14 24  1  0  0  0  0
 15 23  1  0  0  0  0
 15 25  2  0  0  0  0
 16 30  2  0  0  0  0
 16 31  1  0  0  0  0
 17 32  1  0  0  0  0
 18 32  1  0  0  0  0
 18 33  2  0  0  0  0
 18 34  1  0  0  0  0
 19 21  2  0  0  0  0
 19 39  1  0  0  0  0
 20 22  2  0  0  0  0
 20 40  1  0  0  0  0
 21 48  1  0  0  0  0
 22 41  1  0  0  0  0
 23 62  1  0  0  0  0
 24 26  2  0  0  0  0
 24 63  1  0  0  0  0
 25 26  1  0  0  0  0
 25 64  1  0  0  0  0
 26 66  1  0  0  0  0
 27 87  1  0  0  0  0
 28 88  1  0  0  0  0
 29 31  2  0  0  0  0
 29 87  1  0  0  0  0
 30 89  1  0  0  0  0
 31 90  1  0  0  0  0
 32 71  2  0  0  0  0
 33 72  1  0  0  0  0
 33 75  1  0  0  0  0
 34 76  1  0  0  0  0
 34 82  2  0  0  0  0
 35 49  1  0  0  0  0
 35 77  1  0  0  0  0
 35 83  2  0  0  0  0
 36 67  1  0  0  0  0
 36 73  1  0  0  0  0
 36 84  2  0  0  0  0
 37 68  1  0  0  0  0
 37 78  1  0  0  0  0
 37 85  2  0  0  0  0
 38 74  1  0  0  0  0
 38 80  1  0  0  0  0
 38 86  2  0  0  0  0
 39 42  1  0  0  0  0
 40 49  1  0  0  0  0
 41 73  1  0  0  0  0
 42 44  1  0  0  0  0
 43 45  1  0  0  0  0
 43 46  1  0  0  0  0
 44 48  1  0  0  0  0
 45 50  1  0  0  0  0
 46 74  1  0  0  0  0
 47 50  1  0  0  0  0
 47 74  1  0  0  0  0
 48 77  1  0  0  0  0
 49 73  1  0  0  0  0
 50 72  1  0  0  0  0
 51 63  1  0  0  0  0
 52 66  1  0  0  0  0
 53 66  1  0  0  0  0
 54 68  1  0  0  0  0
 55 69  1  0  0  0  0
 56 69  1  0  0  0  0
 57 69  1  0  0  0  0
 58 70  1  0  0  0  0
 59 70  1  0  0  0  0
 60 80  1  0  0  0  0
 61 81  1  0  0  0  0
 62 70  1  0  0  0  0
 64 80  1  0  0  0  0
 65 70  1  0  0  0  0
 65 79  1  0  0  0  0
 67 69  1  0  0  0  0
 67 78  1  0  0  0  0
 68 81  1  0  0  0  0
 71 72  1  0  0  0  0
 79 88  1  0  0  0  0
M  CHG  1  81   1
M  ISO  4  38 100  79 101  80 100  88 101
M  END
> <Batch ID>
0099

> <Smiles>
CCc1cc(CC(C)(C)C[101NH:1][101O:1]c2ccc3c(c2)CN(C(=O)C(NC(=O)C(C)NC)C(C)(C)C)C(C(=O)NC2CCCc4ccccc42)C3)cc(C[100N:0](C)[100C:0](=O)N2CCCC(n3nc(-c4ccc(Oc5ccc(F)cc5F)cc4)c(C(N)=O)c3N)C2)c1C(C)C

> <Shape>
0.227

> <Color>
0.085

> <Negative vol penalty>
0.000

$$$$

  -OEChem-04052319313D

 86 94  0     1  0  0  0  0  0999 V2000
  -18.2570  -31.7589   19.4748 C   0  0  0  0  0  0  0  0  0  0  0  0
  -19.5299  -31.3413   19.0994 C   0  0  0  0  0  0  0  0  0  0  0  0
  -26.8663  -15.7410   20.5845 C   0  0  0  0  0  0  0  0  0  0  0  0
  -28.9727  -15.3157   19.4804 C   0  0  0  0  0  0  0  0  0  0  0  0
  -17.9150  -31.8213   20.8250 C   0  0  0  0  0  0  0  0  0  0  0  0
  -20.4618  -30.9867   20.0742 C   0  0  0  0  0  0  0  0  0  0  0  0
  -24.7369  -26.6207   19.6654 C   0  0  0  0  0  0  0  0  0  0  0  0
  -26.4005  -14.4908   20.1774 C   0  0  0  0  0  0  0  0  0  0  0  0
  -28.5069  -14.0655   19.0733 C   0  0  0  0  0  0  0  0  0  0  0  0
  -26.0974  -26.6654   19.3638 C   0  0  0  0  0  0  0  0  0  0  0  0
  -26.7624  -11.2666   21.1295 C   0  0  0  0  0  0  0  0  0  0  0  0
  -26.0992  -10.4830   22.0737 C   0  0  0  0  0  0  0  0  0  0  0  0
  -26.6127  -26.6952   21.7202 C   0  0  0  0  0  0  0  0  0  0  0  0
  -31.7319  -26.3909   17.5398 C   0  0  0  0  0  0  0  0  0  0  0  0
  -24.1244  -10.4772   20.6818 C   0  0  0  0  0  0  0  0  0  0  0  0
  -33.3781  -24.9823   16.5588 C   0  0  0  0  0  0  0  0  0  0  0  0
  -28.1524  -16.1534   20.2360 C   0  0  0  0  0  0  0  0  0  0  0  0
  -29.3200  -17.7506   21.8464 C   0  0  0  0  0  0  0  0  0  0  0  0
  -18.8400  -31.4581   21.8164 C   0  0  0  0  0  0  0  0  0  0  0  0
  -24.3030  -26.6240   20.9989 C   0  0  0  0  0  0  0  0  0  0  0  0
  -20.1322  -31.0455   21.4390 C   0  0  0  0  0  0  0  0  0  0  0  0
  -25.2463  -26.6480   22.0361 C   0  0  0  0  0  0  0  0  0  0  0  0
  -32.0483  -25.3563   16.6665 C   0  0  0  0  0  0  0  0  0  0  0  0
  -32.7407  -27.0112   18.2685 C   0  0  0  0  0  0  0  0  0  0  0  0
  -27.2208  -13.6531   19.4218 C   0  0  0  0  0  0  0  0  0  0  0  0
  -27.0354  -26.7056   20.3912 C   0  0  0  0  0  0  0  0  0  0  0  0
  -26.1066  -11.6557   19.9614 C   0  0  0  0  0  0  0  0  0  0  0  0
  -24.7802  -10.0882   21.8499 C   0  0  0  0  0  0  0  0  0  0  0  0
  -24.7876  -11.2609   19.7376 C   0  0  0  0  0  0  0  0  0  0  0  0
  -28.6340  -17.4449   20.6557 C   0  0  0  0  0  0  0  0  0  0  0  0
  -34.0395  -26.5630   18.0892 C   0  0  0  0  0  0  0  0  0  0  0  0
  -29.5541  -19.1018   21.7707 C   0  0  0  0  0  0  0  0  0  0  0  0
  -29.7108  -16.8899   22.9245 C   0  0  0  0  0  0  0  0  0  0  0  0
  -22.5323  -28.5752   22.7768 C   0  0  0  0  0  0  0  0  0  0  0  0
  -22.8458  -26.2174   24.9825 C   0  0  0  0  0  0  0  0  0  0  0  0
  -24.6366  -23.5532   26.1408 C   0  0  0  0  0  0  0  0  0  0  0  0
  -30.0976  -22.7472   17.1586 C   0  0  0  0  0  0  0  0  0  0  0  0
  -18.4398  -31.5870   23.2648 C   0  0  0  0  0  0  0  0  0  0  0  0
  -22.8329  -26.5485   21.3078 C   0  0  0  0  0  0  0  0  0  0  0  0
  -24.8329  -26.6328   23.4844 C   0  0  0  0  0  0  0  0  0  0  0  0
  -19.3630  -30.8360   24.2210 C   0  0  0  0  0  0  0  0  0  0  0  0
  -27.7497  -23.1152   19.8880 C   0  0  0  0  0  0  0  0  0  0  0  0
  -20.8238  -31.1137   23.8809 C   0  0  0  0  0  0  0  0  0  0  0  0
  -27.7817  -21.7168   20.5074 C   0  0  0  0  0  0  0  0  0  0  0  0
  -27.8523  -23.0487   18.3671 C   0  0  0  0  0  0  0  0  0  0  0  0
  -29.0788  -20.9140   18.4793 C   0  0  0  0  0  0  0  0  0  0  0  0
  -21.1627  -30.6290   22.4661 C   0  0  1  0  0  0  0  0  0  0  0  0
  -22.4864  -27.0755   22.6969 C   0  0  1  0  0  0  0  0  0  0  0  0
  -29.0015  -20.9145   20.0169 C   0  0  2  0  0  0  0  0  0  0  0  0
  -35.1636  -27.1914   18.8461 C   0  0  0  0  0  0  0  0  0  0  0  0
  -32.5670  -29.4985   18.5210 C   0  0  0  0  0  0  0  0  0  0  0  0
  -24.6656  -21.8509   27.9844 C   0  0  0  0  0  0  0  0  0  0  0  0
  -23.8663  -28.3397   26.9228 C   0  0  0  0  0  0  0  0  0  0  0  0
  -24.7537  -26.4952   28.3644 C   0  0  0  0  0  0  0  0  0  0  0  0
  -22.3031  -26.6687   27.9321 C   0  0  0  0  0  0  0  0  0  0  0  0
  -24.4016  -21.3071   24.2279 C   0  0  0  0  0  0  0  0  0  0  0  0
  -30.9927  -24.6718   15.8734 C   0  0  0  0  0  0  0  0  0  0  0  0
  -30.9839  -28.0283   19.8288 C   0  0  0  0  0  0  0  0  0  0  0  0
  -31.7428  -26.7091   21.8651 C   0  0  0  0  0  0  0  0  0  0  0  0
  -29.2697  -26.7895   21.2015 C   0  0  0  0  0  0  0  0  0  1  0  0
  -32.4024  -28.1432   19.2227 C   0  0  1  0  0  0  0  0  0  0  0  0
  -23.8379  -25.9010   26.0755 C   0  0  1  0  0  0  0  0  0  0  0  0
  -24.2085  -22.1606   26.5674 C   0  0  2  0  0  0  0  0  0  0  0  0
  -30.7303  -26.7776   20.7110 C   0  0  1  0  0  0  0  0  0  0  0  0
  -23.6983  -26.8534   27.2965 C   0  0  0  0  0  0  0  0  0  0  0  0
  -34.3855  -25.5610   17.2501 N   0  0  0  0  0  0  0  0  0  0  0  0
  -28.4444  -18.5159   19.8804 N   0  0  0  0  0  0  0  0  0  0  0  0
  -29.0147  -19.5077   20.5856 N   0  0  0  0  0  0  0  0  0  0  0  0
  -23.3838  -26.5649   23.7352 N   0  0  0  0  0  0  0  0  0  0  0  0
  -29.0441  -22.2877   17.9664 N   0  0  0  0  0  0  0  0  0  0  0  0
  -30.1665  -19.9706   22.6029 N   0  0  0  0  0  0  0  0  0  0  0  0
  -29.3914  -15.5278   22.8414 N   0  0  0  0  0  0  0  0  0  0  0  0
  -21.3394  -29.1927   22.4527 N   0  0  0  0  0  0  0  0  0  0  0  0
  -23.6565  -24.4891   26.3952 N   0  0  0  0  0  0  0  0  0  0  0  0
  -29.9848  -24.0568   16.7082 N   0  0  0  0  0  0  0  0  0  0  0  0
  -31.4944  -25.5184   22.7154 N   0  3  0  0  0  0  0  0  0  0  0  0
  -24.7884  -21.1373   25.6522 N   0  3  0  0  0  0  0  0  0  0  0  0
  -30.3105  -17.3191   23.9392 O   0  0  0  0  0  0  0  0  0  0  0  0
  -23.5726  -29.1309   23.1095 O   0  0  0  0  0  0  0  0  0  0  0  0
  -21.6381  -26.1516   25.2245 O   0  0  0  0  0  0  0  0  0  0  0  0
  -25.7324  -23.7878   25.6361 O   0  0  0  0  0  0  0  0  0  0  0  0
  -31.0701  -22.0438   16.8646 O   0  0  0  0  0  0  0  0  0  0  0  0
  -26.7667  -12.4330   19.0246 O   0  0  0  0  0  0  0  0  0  0  0  0
  -28.3639  -26.7499   20.0996 O   0  0  0  0  0  0  0  0  0  1  0  0
  -24.1440   -9.3344   22.7560 F   0  0  0  0  0  0  0  0  0  0  0  0
  -24.1528  -11.6305   18.6168 F   0  0  0  0  0  0  0  0  0  0  0  0
  1  2  1  0  0  0  0
  1  5  2  0  0  0  0
  2  6  2  0  0  0  0
  3  8  2  0  0  0  0
  3 17  1  0  0  0  0
  4  9  1  0  0  0  0
  4 17  2  0  0  0  0
  5 19  1  0  0  0  0
  6 21  1  0  0  0  0
  7 10  2  0  0  0  0
  7 20  1  0  0  0  0
  8 25  1  0  0  0  0
  9 25  2  0  0  0  0
 10 26  1  0  0  0  0
 11 12  2  0  0  0  0
 11 27  1  0  0  0  0
 12 28  1  0  0  0  0
 13 22  1  0  0  0  0
 13 26  2  0  0  0  0
 14 23  2  0  0  0  0
 14 24  1  0  0  0  0
 15 28  2  0  0  0  0
 15 29  1  0  0  0  0
 16 23  1  0  0  0  0
 16 66  2  0  0  0  0
 17 30  1  0  0  0  0
 18 30  1  0  0  0  0
 18 32  2  0  0  0  0
 18 33  1  0  0  0  0
 19 21  2  0  0  0  0
 19 38  1  0  0  0  0
 20 22  2  0  0  0  0
 20 39  1  0  0  0  0
 21 47  1  0  0  0  0
 22 40  1  0  0  0  0
 23 57  1  0  0  0  0
 24 31  2  0  0  0  0
 24 61  1  0  0  0  0
 25 83  1  0  0  0  0
 26 84  1  0  0  0  0
 27 29  2  0  0  0  0
 27 83  1  0  0  0  0
 28 85  1  0  0  0  0
 29 86  1  0  0  0  0
 30 67  2  0  0  0  0
 31 50  1  0  0  0  0
 31 66  1  0  0  0  0
 32 68  1  0  0  0  0
 32 71  1  0  0  0  0
 33 72  1  0  0  0  0
 33 78  2  0  0  0  0
 34 48  1  0  0  0  0
 34 73  1  0  0  0  0
 34 79  2  0  0  0  0
 35 62  1  0  0  0  0
 35 69  1  0  0  0  0
 35 80  2  0  0  0  0
 36 63  1  0  0  0  0
 36 74  1  0  0  0  0
 36 81  2  0  0  0  0
 37 70  1  0  0  0  0
 37 75  1  0  0  0  0
 37 82  2  0  0  0  0
 38 41  1  0  0  0  0
 39 48  1  0  0  0  0
 40 69  1  0  0  0  0
 41 43  1  0  0  0  0
 42 44  1  0  0  0  0
 42 45  1  0  0  0  0
 43 47  1  0  0  0  0
 44 49  1  0  0  0  0
 45 70  1  0  0  0  0
 46 49  1  0  0  0  0
 46 70  1  0  0  0  0
 47 73  1  0  0  0  0
 48 69  1  0  0  0  0
 49 68  1  0  0  0  0
 51 61  1  0  0  0  0
 52 63  1  0  0  0  0
 53 65  1  0  0  0  0
 54 65  1  0  0  0  0
 55 65  1  0  0  0  0
 56 77  1  0  0  0  0
 57 75  1  0  0  0  0
 58 61  1  0  0  0  0
 58 64  1  0  0  0  0
 59 64  1  0  0  0  0
 59 76  1  0  0  0  0
 60 64  1  0  0  0  0
 60 84  1  0  0  0  0
 62 65  1  0  0  0  0
 62 74  1  0  0  0  0
 63 77  1  0  0  0  0
 67 68  1  0  0  0  0
M  CHG  2  76   1  77   1
M  ISO  4  37 100  60 101  75 100  84 101
M  END
> <Batch ID>
0099

> <Smiles>
CNC(C)C(=O)NC(C(=O)N1Cc2cc([101O:1][101CH2:1]C(CN)CC(C)c3cc(C[100NH:0][100C:0](=O)N4CCCC(n5nc(-c6ccc(Oc7ccc(F)cc7F)cc6)c(C(N)=O)c5N)C4)cnc3C)ccc2CC1C(=O)NC1CCCc2ccccc21)C(C)(C)C

> <Shape>
0.205

> <Color>
0.054

> <Negative vol penalty>
0.000

$$$$

  -OEChem-04052319313D

 91 99  0     1  0  0  0  0  0999 V2000
  -32.5352  -30.9803   15.7047 C   0  0  0  0  0  0  0  0  0  0  0  0
  -31.8627  -29.7699   15.5706 C   0  0  0  0  0  0  0  0  0  0  0  0
  -24.0723   -8.6755   20.1782 C   0  0  0  0  0  0  0  0  0  0  0  0
  -22.8368  -10.4459   21.2629 C   0  0  0  0  0  0  0  0  0  0  0  0
  -32.6191  -31.5952   16.9531 C   0  0  0  0  0  0  0  0  0  0  0  0
  -31.2744  -29.1732   16.6852 C   0  0  0  0  0  0  0  0  0  0  0  0
  -25.6563  -25.1357   18.5431 C   0  0  0  0  0  0  0  0  0  0  0  0
  -22.7692  -19.0127   22.3443 C   0  0  0  0  0  0  0  0  0  0  0  0
  -23.1069  -20.0726   21.5029 C   0  0  0  0  0  0  0  0  0  0  0  0
  -23.2060   -7.7323   20.7309 C   0  0  0  0  0  0  0  0  0  0  0  0
  -21.9705   -9.5026   21.8156 C   0  0  0  0  0  0  0  0  0  0  0  0
  -25.3546  -23.9604   19.2297 C   0  0  0  0  0  0  0  0  0  0  0  0
  -21.5342   -4.8305   22.1482 C   0  0  0  0  0  0  0  0  0  0  0  0
  -22.0950   -3.6845   22.7119 C   0  0  0  0  0  0  0  0  0  0  0  0
  -25.4952  -25.1536   21.3215 C   0  0  0  0  0  0  0  0  0  0  0  0
  -23.3224   -5.0553   24.2776 C   0  0  0  0  0  0  0  0  0  0  0  0
  -23.8877  -10.0323   20.4443 C   0  0  0  0  0  0  0  0  0  0  0  0
  -24.6445  -11.6679   18.6387 C   0  0  0  0  0  0  0  0  0  0  0  0
  -32.0233  -31.0106   18.0818 C   0  0  0  0  0  0  0  0  0  0  0  0
  -25.8908  -26.3284   19.2423 C   0  0  0  0  0  0  0  0  0  0  0  0
  -31.3515  -29.7803   17.9502 C   0  0  0  0  0  0  0  0  0  0  0  0
  -25.7971  -26.3432   20.6413 C   0  0  0  0  0  0  0  0  0  0  0  0
  -23.7546  -18.3875   23.1085 C   0  0  0  0  0  0  0  0  0  0  0  0
  -24.4300  -20.5074   21.4254 C   0  0  0  0  0  0  0  0  0  0  0  0
  -25.0777  -18.8223   23.0310 C   0  0  0  0  0  0  0  0  0  0  0  0
  -25.4155  -19.8822   22.1895 C   0  0  0  0  0  0  0  0  0  0  0  0
  -22.1551   -8.1458   21.5496 C   0  0  0  0  0  0  0  0  0  0  0  0
  -25.2769  -23.9686   20.6193 C   0  0  0  0  0  0  0  0  0  0  0  0
  -21.8676   -6.0890   22.6491 C   0  0  0  0  0  0  0  0  0  0  0  0
  -22.9891   -3.7969   23.7766 C   0  0  0  0  0  0  0  0  0  0  0  0
  -22.7617   -6.2014   23.7138 C   0  0  0  0  0  0  0  0  0  0  0  0
  -24.7826  -11.0071   19.8741 C   0  0  0  0  0  0  0  0  0  0  0  0
  -25.7458  -12.4850   18.5614 C   0  0  0  0  0  0  0  0  0  0  0  0
  -23.6129  -11.5534   17.6496 C   0  0  0  0  0  0  0  0  0  0  0  0
  -28.3640  -28.3021   19.5447 C   0  0  0  0  0  0  0  0  0  0  0  0
  -26.2257  -30.1042   21.1887 C   0  0  0  0  0  0  0  0  0  0  0  0
  -23.3458  -30.2360   23.0150 C   0  0  0  0  0  0  0  0  0  0  0  0
  -29.2777  -16.1257   20.8888 C   0  0  0  0  0  0  0  0  0  0  0  0
  -32.1809  -31.6892   19.4194 C   0  0  0  0  0  0  0  0  0  0  0  0
  -26.1887  -27.5935   18.4853 C   0  0  0  0  0  0  0  0  0  0  0  0
  -26.0203  -27.6020   21.4377 C   0  0  0  0  0  0  0  0  0  0  0  0
  -31.2090  -31.1784   20.4799 C   0  0  0  0  0  0  0  0  0  0  0  0
  -29.9199  -12.6631   21.4130 C   0  0  0  0  0  0  0  0  0  0  0  0
  -31.1715  -29.6535   20.4795 C   0  0  0  0  0  0  0  0  0  0  0  0
  -28.6275  -11.9792   20.9635 C   0  0  0  0  0  0  0  0  0  0  0  0
  -29.6422  -13.9971   22.1024 C   0  0  0  0  0  0  0  0  0  0  0  0
  -27.5209  -14.2521   20.8740 C   0  0  0  0  0  0  0  0  0  0  0  0
  -30.6792  -29.1142   19.1310 C   0  0  1  0  0  0  0  0  0  0  0  0
  -26.9153  -28.6371   19.3282 C   0  0  1  0  0  0  0  0  0  0  0  0
  -27.7531  -12.9295   20.1236 C   0  0  2  0  0  0  0  0  0  0  0  0
  -26.3009  -16.6658   23.4863 C   0  0  0  0  0  0  0  0  0  0  0  0
  -25.8761  -18.2945   25.3630 C   0  0  0  0  0  0  0  0  0  0  0  0
  -27.4011  -20.8077   23.4519 C   0  0  0  0  0  0  0  0  0  0  0  0
  -21.8724  -31.8438   24.2566 C   0  0  0  0  0  0  0  0  0  0  0  0
  -28.2335  -30.1668   23.4855 C   0  0  0  0  0  0  0  0  0  0  0  0
  -26.3840  -30.9329   24.9891 C   0  0  0  0  0  0  0  0  0  0  0  0
  -27.0776  -32.3415   23.0507 C   0  0  0  0  0  0  0  0  0  0  0  0
  -21.0389  -29.6642   21.2515 C   0  0  0  0  0  0  0  0  0  0  0  0
  -23.3660  -17.2551   24.0018 C   0  0  0  0  0  0  0  0  0  0  0  0
  -24.7666  -21.6483   20.5109 C   0  0  0  0  0  0  0  0  0  1  0  0
  -22.6578  -16.0943   23.2818 C   0  0  0  0  0  0  0  0  0  0  0  0
  -22.2130  -14.9834   24.2379 C   0  0  0  0  0  0  0  0  0  0  0  0
  -28.7740  -18.1944   19.6138 C   0  0  0  0  0  0  0  0  0  0  0  0
  -21.5486  -13.8450   23.4769 C   0  0  0  0  0  0  0  0  0  0  0  0
  -27.7760  -19.2410   20.0731 C   0  0  0  0  0  0  0  0  0  0  0  0
  -26.1322  -18.1508   23.8525 C   0  0  0  0  0  0  0  0  0  0  0  0
  -26.8343  -20.3488   22.1040 C   0  0  1  0  0  0  0  0  0  0  0  0
  -25.7967  -30.2022   22.6328 C   0  0  1  0  0  0  0  0  0  0  0  0
  -22.1391  -31.1530   22.9283 C   0  0  2  0  0  0  0  0  0  0  0  0
  -26.8706  -30.8865   23.5249 C   0  0  0  0  0  0  0  0  0  0  0  0
  -25.8848  -11.3727   20.5340 N   0  0  0  0  0  0  0  0  0  0  0  0
  -26.4494  -12.2720   19.7102 N   0  0  0  0  0  0  0  0  0  0  0  0
  -26.3150  -28.8119   20.6523 N   0  0  0  0  0  0  0  0  0  0  0  0
  -28.8098  -14.8522   21.2528 N   0  0  0  0  0  0  0  0  0  0  0  0
  -26.1713  -13.3576   17.6234 N   0  0  0  0  0  0  0  0  0  0  0  0
  -22.5538  -10.6670   17.8883 N   0  0  0  0  0  0  0  0  0  0  0  0
  -29.2408  -29.2388   19.0316 N   0  0  0  0  0  0  0  0  0  0  0  0
  -24.5037  -30.8778   22.6296 N   0  0  0  0  0  0  0  0  0  0  0  0
  -28.4295  -16.8686   20.0767 N   0  0  0  0  0  0  0  0  0  0  0  0
  -21.1761  -12.7745   24.4327 N   0  3  0  0  0  0  0  0  0  0  0  0
  -20.9246  -30.3765   22.5501 N   0  3  0  0  0  0  0  0  0  0  0  0
  -27.7673  -19.3098   21.5525 N   0  3  0  0  0  0  0  0  0  0  0  0
  -23.6383  -12.2052   16.5782 O   0  0  0  0  0  0  0  0  0  0  0  0
  -28.6640  -27.2710   20.1350 O   0  0  0  0  0  0  0  0  0  0  0  0
  -26.4657  -31.1367   20.5578 O   0  0  0  0  0  0  0  0  0  0  0  0
  -23.2694  -29.0684   23.3910 O   0  0  0  0  0  0  0  0  0  0  0  0
  -30.3725  -16.5656   21.2556 O   0  0  0  0  0  0  0  0  0  0  0  0
  -21.3094   -7.2257   22.0889 O   0  0  0  0  0  0  0  0  0  0  0  0
  -24.9833  -22.8227   21.2920 O   0  0  0  0  0  0  0  0  0  1  0  0
  -23.5263   -2.6962   24.3188 F   0  0  0  0  0  0  0  0  0  0  0  0
  -23.0849   -7.4075   24.2001 F   0  0  0  0  0  0  0  0  0  0  0  0
  1  2  1  0  0  0  0
  1  5  2  0  0  0  0
  2  6  2  0  0  0  0
  3 10  2  0  0  0  0
  3 17  1  0  0  0  0
  4 11  1  0  0  0  0
  4 17  2  0  0  0  0
  5 19  1  0  0  0  0
  6 21  1  0  0  0  0
  7 12  2  0  0  0  0
  7 20  1  0  0  0  0
  8  9  2  0  0  0  0
  8 23  1  0  0  0  0
  9 24  1  0  0  0  0
 10 27  1  0  0  0  0
 11 27  2  0  0  0  0
 12 28  1  0  0  0  0
 13 14  2  0  0  0  0
 13 29  1  0  0  0  0
 14 30  1  0  0  0  0
 15 22  1  0  0  0  0
 15 28  2  0  0  0  0
 16 30  2  0  0  0  0
 16 31  1  0  0  0  0
 17 32  1  0  0  0  0
 18 32  1  0  0  0  0
 18 33  2  0  0  0  0
 18 34  1  0  0  0  0
 19 21  2  0  0  0  0
 19 39  1  0  0  0  0
 20 22  2  0  0  0  0
 20 40  1  0  0  0  0
 21 48  1  0  0  0  0
 22 41  1  0  0  0  0
 23 25  2  0  0  0  0
 23 59  1  0  0  0  0
 24 26  2  0  0  0  0
 24 60  1  0  0  0  0
 25 26  1  0  0  0  0
 25 66  1  0  0  0  0
 26 67  1  0  0  0  0
 27 88  1  0  0  0  0
 28 89  1  0  0  0  0
 29 31  2  0  0  0  0
 29 88  1  0  0  0  0
 30 90  1  0  0  0  0
 31 91  1  0  0  0  0
 32 71  2  0  0  0  0
 33 72  1  0  0  0  0
 33 75  1  0  0  0  0
 34 76  1  0  0  0  0
 34 83  2  0  0  0  0
 35 49  1  0  0  0  0
 35 77  1  0  0  0  0
 35 84  2  0  0  0  0
 36 68  1  0  0  0  0
 36 73  1  0  0  0  0
 36 85  2  0  0  0  0
 37 69  1  0  0  0  0
 37 78  1  0  0  0  0
 37 86  2  0  0  0  0
 38 74  1  0  0  0  0
 38 79  1  0  0  0  0
 38 87  2  0  0  0  0
 39 42  1  0  0  0  0
 40 49  1  0  0  0  0
 41 73  1  0  0  0  0
 42 44  1  0  0  0  0
 43 45  1  0  0  0  0
 43 46  1  0  0  0  0
 44 48  1  0  0  0  0
 45 50  1  0  0  0  0
 46 74  1  0  0  0  0
 47 50  1  0  0  0  0
 47 74  1  0  0  0  0
 48 77  1  0  0  0  0
 49 73  1  0  0  0  0
 50 72  1  0  0  0  0
 51 66  1  0  0  0  0
 52 66  1  0  0  0  0
 53 67  1  0  0  0  0
 54 69  1  0  0  0  0
 55 70  1  0  0  0  0
 56 70  1  0  0  0  0
 57 70  1  0  0  0  0
 58 81  1  0  0  0  0
 59 61  1  0  0  0  0
 60 89  1  0  0  0  0
 61 62  1  0  0  0  0
 62 64  1  0  0  0  0
 63 65  1  0  0  0  0
 63 79  1  0  0  0  0
 64 80  1  0  0  0  0
 65 82  1  0  0  0  0
 67 82  1  0  0  0  0
 68 70  1  0  0  0  0
 68 78  1  0  0  0  0
 69 81  1  0  0  0  0
 71 72  1  0  0  0  0
M  CHG  3  80   1  81   1  82   1
M  ISO  4  38 100  60 101  79 100  89 101
M  END
> <Batch ID>
0099

> <Smiles>
CNC(C)C(=O)NC(C(=O)N1Cc2cc([101O:1][101CH2:1]c3ccc(CCCCN)c(C(C)C)c3C(C)NCC[100NH:0][100C:0](=O)N3CCCC(n4nc(-c5ccc(Oc6ccc(F)cc6F)cc5)c(C(N)=O)c4N)C3)ccc2CC1C(=O)NC1CCCc2ccccc21)C(C)(C)C

> <Shape>
0.236

> <Color>
0.103

> <Negative vol penalty>
0.000

$$$$

  -OEChem-04052319313D

 86 94  0     1  0  0  0  0  0999 V2000
  -15.7068  -28.6415   20.6528 C   0  0  0  0  0  0  0  0  0  0  0  0
  -16.9407  -28.7004   20.0131 C   0  0  0  0  0  0  0  0  0  0  0  0
  -24.3772  -13.7128   21.3719 C   0  0  0  0  0  0  0  0  0  0  0  0
  -26.7659  -13.3933   21.2010 C   0  0  0  0  0  0  0  0  0  0  0  0
  -15.6063  -28.9743   22.0030 C   0  0  0  0  0  0  0  0  0  0  0  0
  -18.0748  -29.0933   20.7229 C   0  0  0  0  0  0  0  0  0  0  0  0
  -22.0736  -26.1291   19.7915 C   0  0  0  0  0  0  0  0  0  0  0  0
  -24.1684  -12.4629   20.7888 C   0  0  0  0  0  0  0  0  0  0  0  0
  -26.5571  -12.1434   20.6181 C   0  0  0  0  0  0  0  0  0  0  0  0
  -22.7580  -26.3404   18.5953 C   0  0  0  0  0  0  0  0  0  0  0  0
  -23.0092   -9.2022   19.6757 C   0  0  0  0  0  0  0  0  0  0  0  0
  -22.0547   -8.3671   20.2564 C   0  0  0  0  0  0  0  0  0  0  0  0
  -24.4359  -27.6008   19.7850 C   0  0  0  0  0  0  0  0  0  0  0  0
  -28.7163  -24.7183   17.2740 C   0  0  0  0  0  0  0  0  0  0  0  0
  -23.2987   -8.3853   22.3274 C   0  0  0  0  0  0  0  0  0  0  0  0
  -25.6760  -14.1780   21.5779 C   0  0  0  0  0  0  0  0  0  0  0  0
  -26.0290  -15.7558   23.5511 C   0  0  0  0  0  0  0  0  0  0  0  0
  -16.7414  -29.3622   22.7322 C   0  0  0  0  0  0  0  0  0  0  0  0
  -22.5603  -26.6622   20.9937 C   0  0  0  0  0  0  0  0  0  0  0  0
  -17.9892  -29.4330   22.0838 C   0  0  0  0  0  0  0  0  0  0  0  0
  -23.7572  -27.3926   20.9954 C   0  0  0  0  0  0  0  0  0  0  0  0
  -28.8211  -26.1301   17.2200 C   0  0  0  0  0  0  0  0  0  0  0  0
  -25.2583  -11.6783   20.4120 C   0  0  0  0  0  0  0  0  0  0  0  0
  -23.9378  -27.0788   18.5915 C   0  0  0  0  0  0  0  0  0  0  0  0
  -24.1085   -9.6288   20.4209 C   0  0  0  0  0  0  0  0  0  0  0  0
  -22.1994   -7.9587   21.5822 C   0  0  0  0  0  0  0  0  0  0  0  0
  -24.2532   -9.2204   21.7468 C   0  0  0  0  0  0  0  0  0  0  0  0
  -25.8924  -15.4692   22.1796 C   0  0  0  0  0  0  0  0  0  0  0  0
  -29.4370  -24.2939   18.3684 C   0  0  0  0  0  0  0  0  0  0  0  0
  -29.6028  -26.5255   18.2829 C   0  0  0  0  0  0  0  0  0  0  0  0
  -26.2153  -17.1157   23.6007 C   0  0  0  0  0  0  0  0  0  0  0  0
  -25.9910  -14.8719   24.6793 C   0  0  0  0  0  0  0  0  0  0  0  0
  -21.4675  -28.7501   23.1267 C   0  0  0  0  0  0  0  0  0  0  0  0
  -24.1176  -27.8634   24.7739 C   0  0  0  0  0  0  0  0  0  0  0  0
  -27.2724  -26.5638   24.7041 C   0  0  0  0  0  0  0  0  0  0  0  0
  -28.4063  -20.9320   19.6649 C   0  0  0  0  0  0  0  0  0  0  0  0
  -16.5750  -29.7583   24.1780 C   0  0  0  0  0  0  0  0  0  0  0  0
  -21.8245  -26.4026   22.2797 C   0  0  0  0  0  0  0  0  0  0  0  0
  -24.3327  -27.9690   22.2624 C   0  0  0  0  0  0  0  0  0  0  0  0
  -17.8899  -29.8037   24.9522 C   0  0  0  0  0  0  0  0  0  0  0  0
  -25.1469  -21.1311   21.2252 C   0  0  0  0  0  0  0  0  0  0  0  0
  -18.9556  -30.5452   24.1514 C   0  0  0  0  0  0  0  0  0  0  0  0
  -24.9880  -19.7141   21.7793 C   0  0  0  0  0  0  0  0  0  0  0  0
  -25.8540  -21.1198   19.8731 C   0  0  0  0  0  0  0  0  0  0  0  0
  -27.0233  -19.0231   20.4302 C   0  0  0  0  0  0  0  0  0  0  0  0
  -19.2465  -29.8307   22.8261 C   0  0  1  0  0  0  0  0  0  0  0  0
  -22.1389  -27.4273   23.3653 C   0  0  1  0  0  0  0  0  0  0  0  0
  -26.3354  -18.9686   21.8064 C   0  0  2  0  0  0  0  0  0  0  0  0
  -30.0303  -27.8780   18.6999 C   0  0  0  0  0  0  0  0  0  0  0  0
  -30.2156  -26.9041   14.6183 C   0  0  0  0  0  0  0  0  0  0  0  0
  -29.2028  -25.9965   26.2038 C   0  0  0  0  0  0  0  0  0  0  0  0
  -32.1131  -24.6338   19.9335 C   0  0  0  0  0  0  0  0  0  0  0  0
  -30.0450  -24.8428   21.3776 C   0  0  0  0  0  0  0  0  0  0  0  0
  -24.8398  -30.8221   24.9593 C   0  0  0  0  0  0  0  0  0  0  0  0
  -27.1649  -30.1432   25.5927 C   0  0  0  0  0  0  0  0  0  0  0  0
  -25.2428  -29.5167   27.0540 C   0  0  0  0  0  0  0  0  0  0  0  0
  -27.1361  -23.6954   23.9881 C   0  0  0  0  0  0  0  0  0  0  0  0
  -29.6580  -22.9272   18.8840 C   0  0  0  0  0  0  0  0  0  0  0  0
  -28.7063  -26.7383   14.7529 C   0  0  0  0  0  0  0  0  0  0  0  0
  -26.6421  -26.9466   16.1981 C   0  0  0  0  0  0  0  0  0  0  0  0
  -26.0247  -27.4313   17.5070 C   0  0  0  0  0  0  0  0  0  1  0  0
  -28.1839  -27.0352   16.1772 C   0  0  1  0  0  0  0  0  0  0  0  0
  -25.5479  -28.3423   24.8360 C   0  0  1  0  0  0  0  0  0  0  0  0
  -27.9352  -25.4829   25.5389 C   0  0  2  0  0  0  0  0  0  0  0  0
  -30.7995  -25.3841   20.1618 C   0  0  0  0  0  0  0  0  0  0  0  0
  -25.6873  -29.6970   25.5861 C   0  0  0  0  0  0  0  0  0  0  0  0
  -25.9839  -16.5594   21.4134 N   0  0  0  0  0  0  0  0  0  0  0  0
  -29.9718  -25.4009   18.9739 N   0  0  0  0  0  0  0  0  0  0  0  0
  -26.1800  -17.5443   22.3064 N   0  0  0  0  0  0  0  0  0  0  0  0
  -23.5732  -27.6933   23.4931 N   0  0  0  0  0  0  0  0  0  0  0  0
  -27.1381  -20.4116   19.9719 N   0  0  0  0  0  0  0  0  0  0  0  0
  -26.4041  -17.9748   24.6249 N   0  0  0  0  0  0  0  0  0  0  0  0
  -25.7909  -13.5038   24.4497 N   0  0  0  0  0  0  0  0  0  0  0  0
  -20.0899  -28.6759   23.0491 N   0  0  0  0  0  0  0  0  0  0  0  0
  -26.3184  -27.2517   25.4237 N   0  0  0  0  0  0  0  0  0  0  0  0
  -28.4273  -22.2520   19.2313 N   0  0  0  0  0  0  0  0  0  0  0  0
  -28.2926  -24.3150   24.6849 N   0  3  0  0  0  0  0  0  0  0  0  0
  -26.1140  -15.2852   25.8572 O   0  0  0  0  0  0  0  0  0  0  0  0
  -22.1488  -29.7634   23.0225 O   0  0  0  0  0  0  0  0  0  0  0  0
  -23.5081  -27.6413   25.8232 O   0  0  0  0  0  0  0  0  0  0  0  0
  -27.5736  -26.7789   23.5322 O   0  0  0  0  0  0  0  0  0  0  0  0
  -29.4444  -20.2707   19.7742 O   0  0  0  0  0  0  0  0  0  0  0  0
  -25.0548  -10.4585   19.8433 O   0  0  0  0  0  0  0  0  0  0  0  0
  -24.6074  -27.2871   17.4253 O   0  0  0  0  0  0  0  0  0  1  0  0
  -21.2819   -7.1580   22.1401 F   0  0  0  0  0  0  0  0  0  0  0  0
  -25.3065   -9.6279   22.4680 F   0  0  0  0  0  0  0  0  0  0  0  0
  1  2  1  0  0  0  0
  1  5  2  0  0  0  0
  2  6  2  0  0  0  0
  3  8  2  0  0  0  0
  3 16  1  0  0  0  0
  4  9  1  0  0  0  0
  4 16  2  0  0  0  0
  5 18  1  0  0  0  0
  6 20  1  0  0  0  0
  7 10  2  0  0  0  0
  7 19  1  0  0  0  0
  8 23  1  0  0  0  0
  9 23  2  0  0  0  0
 10 24  1  0  0  0  0
 11 12  2  0  0  0  0
 11 25  1  0  0  0  0
 12 26  1  0  0  0  0
 13 21  1  0  0  0  0
 13 24  2  0  0  0  0
 14 22  1  0  0  0  0
 14 29  2  0  0  0  0
 15 26  2  0  0  0  0
 15 27  1  0  0  0  0
 16 28  1  0  0  0  0
 17 28  1  0  0  0  0
 17 31  2  0  0  0  0
 17 32  1  0  0  0  0
 18 20  2  0  0  0  0
 18 37  1  0  0  0  0
 19 21  2  0  0  0  0
 19 38  1  0  0  0  0
 20 46  1  0  0  0  0
 21 39  1  0  0  0  0
 22 30  2  0  0  0  0
 22 62  1  0  0  0  0
 23 83  1  0  0  0  0
 24 84  1  0  0  0  0
 25 27  2  0  0  0  0
 25 83  1  0  0  0  0
 26 85  1  0  0  0  0
 27 86  1  0  0  0  0
 28 67  2  0  0  0  0
 29 58  1  0  0  0  0
 29 68  1  0  0  0  0
 30 49  1  0  0  0  0
 30 68  1  0  0  0  0
 31 69  1  0  0  0  0
 31 72  1  0  0  0  0
 32 73  1  0  0  0  0
 32 78  2  0  0  0  0
 33 47  1  0  0  0  0
 33 74  1  0  0  0  0
 33 79  2  0  0  0  0
 34 63  1  0  0  0  0
 34 70  1  0  0  0  0
 34 80  2  0  0  0  0
 35 64  1  0  0  0  0
 35 75  1  0  0  0  0
 35 81  2  0  0  0  0
 36 71  1  0  0  0  0
 36 76  1  0  0  0  0
 36 82  2  0  0  0  0
 37 40  1  0  0  0  0
 38 47  1  0  0  0  0
 39 70  1  0  0  0  0
 40 42  1  0  0  0  0
 41 43  1  0  0  0  0
 41 44  1  0  0  0  0
 42 46  1  0  0  0  0
 43 48  1  0  0  0  0
 44 71  1  0  0  0  0
 45 48  1  0  0  0  0
 45 71  1  0  0  0  0
 46 74  1  0  0  0  0
 47 70  1  0  0  0  0
 48 69  1  0  0  0  0
 50 59  1  0  0  0  0
 51 64  1  0  0  0  0
 52 65  1  0  0  0  0
 53 65  1  0  0  0  0
 54 66  1  0  0  0  0
 55 66  1  0  0  0  0
 56 66  1  0  0  0  0
 57 77  1  0  0  0  0
 58 76  1  0  0  0  0
 59 62  1  0  0  0  0
 60 61  1  0  0  0  0
 60 62  1  0  0  0  0
 61 84  1  0  0  0  0
 63 66  1  0  0  0  0
 63 75  1  0  0  0  0
 64 77  1  0  0  0  0
 65 68  1  0  0  0  0
 67 69  1  0  0  0  0
M  CHG  1  77   1
M  ISO  4  36 100  61 101  76 100  84 101
M  END
> <Batch ID>
0099

> <Smiles>
CCC(C[101CH2:1][101O:1]c1ccc2c(c1)CN(C(=O)C(NC(=O)C(C)NC)C(C)(C)C)C(C(=O)NC1CCCc3ccccc31)C2)c1cc(C[100NH:0][100C:0](=O)N2CCCC(n3nc(-c4ccc(Oc5ccc(F)cc5F)cc4)c(C(N)=O)c3N)C2)n(C(C)C)c1C

> <Shape>
0.231

> <Color>
0.071

> <Negative vol penalty>
0.000

$$$$

  -OEChem-04052319313D

 80 87  0     1  0  0  0  0  0999 V2000
  -29.8021  -19.6120   26.9170 C   0  0  0  0  0  0  0  0  0  0  0  0
  -29.6454  -20.7946   26.2029 C   0  0  0  0  0  0  0  0  0  0  0  0
  -26.5789  -14.7542   21.4077 C   0  0  0  0  0  0  0  0  0  0  0  0
  -26.4228  -14.9808   19.0075 C   0  0  0  0  0  0  0  0  0  0  0  0
  -28.7675  -18.6794   26.9491 C   0  0  0  0  0  0  0  0  0  0  0  0
  -28.4498  -21.0503   25.5307 C   0  0  0  0  0  0  0  0  0  0  0  0
  -27.9272  -25.5088   23.5175 C   0  0  0  0  0  0  0  0  0  0  0  0
  -25.5355  -13.8287   21.3882 C   0  0  0  0  0  0  0  0  0  0  0  0
  -25.3794  -14.0552   18.9879 C   0  0  0  0  0  0  0  0  0  0  0  0
  -28.6282  -25.9094   22.3809 C   0  0  0  0  0  0  0  0  0  0  0  0
  -25.1242  -10.5536   20.6548 C   0  0  0  0  0  0  0  0  0  0  0  0
  -25.2735   -9.3924   21.4130 C   0  0  0  0  0  0  0  0  0  0  0  0
  -26.6416  -25.5898   21.0504 C   0  0  0  0  0  0  0  0  0  0  0  0
  -23.3044   -9.9714   22.6875 C   0  0  0  0  0  0  0  0  0  0  0  0
  -27.0225  -15.3303   20.2173 C   0  0  0  0  0  0  0  0  0  0  0  0
  -29.4771  -16.0186   20.1219 C   0  0  0  0  0  0  0  0  0  0  0  0
  -27.5636  -18.9191   26.2663 C   0  0  0  0  0  0  0  0  0  0  0  0
  -26.5788  -25.1346   23.4270 C   0  0  0  0  0  0  0  0  0  0  0  0
  -27.3849  -20.1322   25.5708 C   0  0  0  0  0  0  0  0  0  0  0  0
  -25.9250  -25.1873   22.1877 C   0  0  0  0  0  0  0  0  0  0  0  0
  -24.9358  -13.4792   20.1783 C   0  0  0  0  0  0  0  0  0  0  0  0
  -27.9862  -25.9472   21.1466 C   0  0  0  0  0  0  0  0  0  0  0  0
  -24.0651  -11.4239   20.9130 C   0  0  0  0  0  0  0  0  0  0  0  0
  -24.3636   -9.1013   22.4293 C   0  0  0  0  0  0  0  0  0  0  0  0
  -23.1551  -11.1327   21.9293 C   0  0  0  0  0  0  0  0  0  0  0  0
  -28.0999  -16.2868   20.2369 C   0  0  0  0  0  0  0  0  0  0  0  0
  -30.0749  -17.2527   20.1987 C   0  0  0  0  0  0  0  0  0  0  0  0
  -30.1553  -14.7658   19.9599 C   0  0  0  0  0  0  0  0  0  0  0  0
  -24.9485  -22.4657   23.9953 C   0  0  0  0  0  0  0  0  0  0  0  0
  -22.3883  -24.3626   23.3876 C   0  0  0  0  0  0  0  0  0  0  0  0
  -21.1498  -27.1622   21.8793 C   0  0  0  0  0  0  0  0  0  0  0  0
  -30.3568  -22.5040   18.6848 C   0  0  0  0  0  0  0  0  0  0  0  0
  -26.4737  -17.8789   26.3410 C   0  0  0  0  0  0  0  0  0  0  0  0
  -25.8294  -24.7304   24.6670 C   0  0  0  0  0  0  0  0  0  0  0  0
  -24.4731  -24.8150   22.0406 C   0  0  0  0  0  0  0  0  0  0  0  0
  -25.4263  -18.0354   25.2434 C   0  0  0  0  0  0  0  0  0  0  0  0
  -28.1696  -21.7629   21.4713 C   0  0  0  0  0  0  0  0  0  0  0  0
  -24.9509  -19.4792   25.1806 C   0  0  0  0  0  0  0  0  0  0  0  0
  -28.0725  -20.2387   21.3847 C   0  0  0  0  0  0  0  0  0  0  0  0
  -28.2058  -22.3943   20.0827 C   0  0  0  0  0  0  0  0  0  0  0  0
  -29.1955  -20.3566   19.1121 C   0  0  0  0  0  0  0  0  0  0  0  0
  -26.1048  -20.4183   24.8067 C   0  0  1  0  0  0  0  0  0  0  0  0
  -24.5993  -23.8781   24.3706 C   0  0  1  0  0  0  0  0  0  0  0  0
  -29.1777  -19.6571   20.4834 C   0  0  2  0  0  0  0  0  0  0  0  0
  -19.0121  -28.4289   21.5287 C   0  0  0  0  0  0  0  0  0  0  0  0
  -21.5047  -22.2958   21.3242 C   0  0  0  0  0  0  0  0  0  0  0  0
  -19.9562  -24.0150   20.3679 C   0  0  0  0  0  0  0  0  0  0  0  0
  -19.6533  -23.2357   22.7182 C   0  0  0  0  0  0  0  0  0  0  0  0
  -27.9158  -28.6957   17.1791 C   0  0  0  0  0  0  0  0  0  0  0  0
  -29.2204  -29.1147   19.2682 C   0  0  0  0  0  0  0  0  0  0  0  0
  -22.2134  -29.5635   23.2436 C   0  0  0  0  0  0  0  0  0  0  0  0
  -29.1491  -26.2067   15.6800 C   0  0  0  0  0  0  0  0  0  0  0  0
  -31.4067  -24.7258   18.3410 C   0  0  0  0  0  0  0  0  0  0  0  0
  -31.0563  -25.2425   16.9581 C   0  0  0  0  0  0  0  0  0  0  0  0
  -30.0605  -27.4149   17.6577 C   0  0  0  0  0  0  0  0  0  0  0  0
  -27.9182  -26.9782   19.0046 C   0  0  0  0  0  0  0  0  0  1  0  0
  -21.6058  -24.7390   22.1527 C   0  0  1  0  0  0  0  0  0  0  0  0
  -20.2512  -28.2710   22.3962 C   0  0  2  0  0  0  0  0  0  0  0  0
  -20.7079  -23.5766   21.6429 C   0  0  0  0  0  0  0  0  0  0  0  0
  -28.7782  -28.0276   18.2658 C   0  0  0  0  0  0  0  0  0  0  0  0
  -27.8382  -17.5892   20.3764 N   0  0  0  0  0  0  0  0  0  0  0  0
  -29.0590  -18.1502   20.3496 N   0  0  0  0  0  0  0  0  0  0  0  0
  -23.7851  -24.4204   23.2810 N   0  0  0  0  0  0  0  0  0  0  0  0
  -29.2912  -21.8103   19.2821 N   0  0  0  0  0  0  0  0  0  0  0  0
  -31.3651  -17.6469   20.1513 N   0  0  0  0  0  0  0  0  0  0  0  0
  -29.3888  -13.5939   19.8999 N   0  0  0  0  0  0  0  0  0  0  0  0
  -25.6675  -21.7882   24.9616 N   0  0  0  0  0  0  0  0  0  0  0  0
  -20.8745  -25.9560   22.4881 N   0  0  0  0  0  0  0  0  0  0  0  0
  -30.3704  -23.8785   18.8880 N   0  0  0  0  0  0  0  0  0  0  0  0
  -20.9844  -29.5684   22.4090 N   0  3  0  0  0  0  0  0  0  0  0  0
  -29.8121  -26.0937   17.0311 N   0  3  1  0  0  0  0  0  0  0  0  0
  -31.4051  -14.6863   19.8876 O   0  0  0  0  0  0  0  0  0  0  0  0
  -24.5908  -22.0227   22.9102 O   0  0  0  0  0  0  0  0  0  0  0  0
  -21.7824  -24.0363   24.4114 O   0  0  0  0  0  0  0  0  0  0  0  0
  -22.0075  -27.3466   21.0185 O   0  0  0  0  0  0  0  0  0  0  0  0
  -31.2348  -21.9393   18.0235 O   0  0  0  0  0  0  0  0  0  0  0  0
  -23.9178  -12.5759   20.1589 O   0  0  0  0  0  0  0  0  0  0  0  0
  -28.6683  -26.3373   20.0356 O   0  0  0  0  0  0  0  0  0  1  0  0
  -24.5061   -7.9853   23.1563 F   0  0  0  0  0  0  0  0  0  0  0  0
  -22.1349  -11.9643   22.1812 F   0  0  0  0  0  0  0  0  0  0  0  0
  1  2  1  0  0  0  0
  1  5  2  0  0  0  0
  2  6  2  0  0  0  0
  3  8  2  0  0  0  0
  3 15  1  0  0  0  0
  4  9  1  0  0  0  0
  4 15  2  0  0  0  0
  5 17  1  0  0  0  0
  6 19  1  0  0  0  0
  7 10  2  0  0  0  0
  7 18  1  0  0  0  0
  8 21  1  0  0  0  0
  9 21  2  0  0  0  0
 10 22  1  0  0  0  0
 11 12  2  0  0  0  0
 11 23  1  0  0  0  0
 12 24  1  0  0  0  0
 13 20  1  0  0  0  0
 13 22  2  0  0  0  0
 14 24  2  0  0  0  0
 14 25  1  0  0  0  0
 15 26  1  0  0  0  0
 16 26  1  0  0  0  0
 16 27  2  0  0  0  0
 16 28  1  0  0  0  0
 17 19  2  0  0  0  0
 17 33  1  0  0  0  0
 18 20  2  0  0  0  0
 18 34  1  0  0  0  0
 19 42  1  0  0  0  0
 20 35  1  0  0  0  0
 21 77  1  0  0  0  0
 22 78  1  0  0  0  0
 23 25  2  0  0  0  0
 23 77  1  0  0  0  0
 24 79  1  0  0  0  0
 25 80  1  0  0  0  0
 26 61  2  0  0  0  0
 27 62  1  0  0  0  0
 27 65  1  0  0  0  0
 28 66  1  0  0  0  0
 28 72  2  0  0  0  0
 29 43  1  0  0  0  0
 29 67  1  0  0  0  0
 29 73  2  0  0  0  0
 30 57  1  0  0  0  0
 30 63  1  0  0  0  0
 30 74  2  0  0  0  0
 31 58  1  0  0  0  0
 31 68  1  0  0  0  0
 31 75  2  0  0  0  0
 32 64  1  0  0  0  0
 32 69  1  0  0  0  0
 32 76  2  0  0  0  0
 33 36  1  0  0  0  0
 34 43  1  0  0  0  0
 35 63  1  0  0  0  0
 36 38  1  0  0  0  0
 37 39  1  0  0  0  0
 37 40  1  0  0  0  0
 38 42  1  0  0  0  0
 39 44  1  0  0  0  0
 40 64  1  0  0  0  0
 41 44  1  0  0  0  0
 41 64  1  0  0  0  0
 42 67  1  0  0  0  0
 43 63  1  0  0  0  0
 44 62  1  0  0  0  0
 45 58  1  0  0  0  0
 46 59  1  0  0  0  0
 47 59  1  0  0  0  0
 48 59  1  0  0  0  0
 49 60  1  0  0  0  0
 50 60  1  0  0  0  0
 51 70  1  0  0  0  0
 52 71  1  0  0  0  0
 53 54  1  0  0  0  0
 53 69  1  0  0  0  0
 54 71  1  0  0  0  0
 55 60  1  0  0  0  0
 55 71  1  0  0  0  0
 56 60  1  0  0  0  0
 56 78  1  0  0  0  0
 57 59  1  0  0  0  0
 57 68  1  0  0  0  0
 58 70  1  0  0  0  0
 61 62  1  0  0  0  0
M  CHG  2  70   1  71   1
M  ISO  4  32 100  56 101  69 100  78 101
M  END
> <Batch ID>
0099

> <Smiles>
CNC(C)C(=O)NC(C(=O)N1Cc2cc([101O:1][101CH2:1]C(C)(C)CN(C)CC[100NH:0][100C:0](=O)N3CCCC(n4nc(-c5ccc(Oc6ccc(F)cc6F)cc5)c(C(N)=O)c4N)C3)ccc2CC1C(=O)NC1CCCc2ccccc21)C(C)(C)C

> <Shape>
0.209

> <Color>
0.054

> <Negative vol penalty>
0.000

$$$$

  -OEChem-04052319313D

 85 93  0     1  0  0  0  0  0999 V2000
  -18.0619  -29.8625   18.8311 C   0  0  0  0  0  0  0  0  0  0  0  0
  -19.4175  -29.6383   18.6130 C   0  0  0  0  0  0  0  0  0  0  0  0
  -24.2597  -14.7482   20.1870 C   0  0  0  0  0  0  0  0  0  0  0  0
  -26.5423  -14.8454   20.9726 C   0  0  0  0  0  0  0  0  0  0  0  0
  -17.5875  -30.0507   20.1286 C   0  0  0  0  0  0  0  0  0  0  0  0
  -20.2997  -29.6033   19.6924 C   0  0  0  0  0  0  0  0  0  0  0  0
  -25.2826  -26.0888   20.2617 C   0  0  0  0  0  0  0  0  0  0  0  0
  -24.3395  -13.3569   20.1271 C   0  0  0  0  0  0  0  0  0  0  0  0
  -26.6222  -13.4541   20.9127 C   0  0  0  0  0  0  0  0  0  0  0  0
  -26.6374  -26.3408   20.0501 C   0  0  0  0  0  0  0  0  0  0  0  0
  -24.1821  -10.7576   22.2839 C   0  0  0  0  0  0  0  0  0  0  0  0
  -23.1133  -10.0242   22.7990 C   0  0  0  0  0  0  0  0  0  0  0  0
  -26.9136  -26.7979   22.4025 C   0  0  0  0  0  0  0  0  0  0  0  0
  -30.8969  -22.7078   20.1641 C   0  0  0  0  0  0  0  0  0  0  0  0
  -22.7545   -9.0234   20.6295 C   0  0  0  0  0  0  0  0  0  0  0  0
  -30.6912  -24.2682   18.3811 C   0  0  0  0  0  0  0  0  0  0  0  0
  -25.3611  -15.4924   20.6097 C   0  0  0  0  0  0  0  0  0  0  0  0
  -24.8691  -17.7116   21.7676 C   0  0  0  0  0  0  0  0  0  0  0  0
  -18.4629  -30.0084   21.2252 C   0  0  0  0  0  0  0  0  0  0  0  0
  -24.7300  -26.2002   21.5457 C   0  0  0  0  0  0  0  0  0  0  0  0
  -19.8368  -29.7925   21.0056 C   0  0  0  0  0  0  0  0  0  0  0  0
  -25.5521  -26.5443   22.6282 C   0  0  0  0  0  0  0  0  0  0  0  0
  -30.7405  -22.9496   18.8039 C   0  0  0  0  0  0  0  0  0  0  0  0
  -30.9977  -23.7767   21.0476 C   0  0  0  0  0  0  0  0  0  0  0  0
  -25.5208  -12.7098   20.4900 C   0  0  0  0  0  0  0  0  0  0  0  0
  -27.4526  -26.6983   21.1201 C   0  0  0  0  0  0  0  0  0  0  0  0
  -24.5371  -10.6240   20.9416 C   0  0  0  0  0  0  0  0  0  0  0  0
  -22.3995   -9.1571   21.9719 C   0  0  0  0  0  0  0  0  0  0  0  0
  -23.8233   -9.7569   20.1144 C   0  0  0  0  0  0  0  0  0  0  0  0
  -25.2795  -16.9297   20.6713 C   0  0  0  0  0  0  0  0  0  0  0  0
  -30.9371  -25.0583   20.5243 C   0  0  0  0  0  0  0  0  0  0  0  0
  -24.9683  -19.0069   21.3218 C   0  0  0  0  0  0  0  0  0  0  0  0
  -24.4369  -17.3036   23.0724 C   0  0  0  0  0  0  0  0  0  0  0  0
  -22.4887  -28.0221   22.8727 C   0  0  0  0  0  0  0  0  0  0  0  0
  -22.9930  -26.0985   25.4354 C   0  0  0  0  0  0  0  0  0  0  0  0
  -25.0979  -24.0016   27.1145 C   0  0  0  0  0  0  0  0  0  0  0  0
  -28.2796  -21.6125   17.0677 C   0  0  0  0  0  0  0  0  0  0  0  0
  -17.9107  -30.2645   22.6051 C   0  0  0  0  0  0  0  0  0  0  0  0
  -23.2723  -25.8989   21.7618 C   0  0  0  0  0  0  0  0  0  0  0  0
  -25.0119  -26.6577   24.0296 C   0  0  0  0  0  0  0  0  0  0  0  0
  -18.8544  -29.8397   23.7273 C   0  0  0  0  0  0  0  0  0  0  0  0
  -24.7281  -21.6182   17.3200 C   0  0  0  0  0  0  0  0  0  0  0  0
  -20.2711  -30.3315   23.4483 C   0  0  0  0  0  0  0  0  0  0  0  0
  -24.4297  -20.4878   18.3064 C   0  0  0  0  0  0  0  0  0  0  0  0
  -25.9125  -21.2812   16.4169 C   0  0  0  0  0  0  0  0  0  0  0  0
  -26.8443  -19.7585   18.1160 C   0  0  0  0  0  0  0  0  0  0  0  0
  -20.8213  -29.7228   22.1528 C   0  0  1  0  0  0  0  0  0  0  0  0
  -22.7097  -26.5437   23.0248 C   0  0  1  0  0  0  0  0  0  0  0  0
  -25.6930  -20.0755   19.0856 C   0  0  2  0  0  0  0  0  0  0  0  0
  -33.1150  -27.1876   20.2534 C   0  0  0  0  0  0  0  0  0  0  0  0
  -32.4687  -22.7723   22.8311 C   0  0  0  0  0  0  0  0  0  0  0  0
  -29.9640  -22.7735   23.1161 C   0  0  0  0  0  0  0  0  0  0  0  0
  -25.2446  -22.6117   29.1987 C   0  0  0  0  0  0  0  0  0  0  0  0
  -23.4433  -28.6251   27.0856 C   0  0  0  0  0  0  0  0  0  0  0  0
  -24.4944  -27.1987   28.8545 C   0  0  0  0  0  0  0  0  0  0  0  0
  -22.1028  -26.8539   28.2346 C   0  0  0  0  0  0  0  0  0  0  0  0
  -25.4364  -21.5034   25.5640 C   0  0  0  0  0  0  0  0  0  0  0  0
  -30.6306  -21.8284   17.8329 C   0  0  0  0  0  0  0  0  0  0  0  0
  -31.7054  -27.4791   20.7543 C   0  0  0  0  0  0  0  0  0  0  0  0
  -29.6630  -26.6616   21.9966 C   0  0  0  0  0  0  0  0  0  1  0  0
  -31.1635  -23.5246   22.5064 C   0  0  0  0  0  0  0  0  0  0  0  0
  -31.0428  -26.2676   21.4431 C   0  0  1  0  0  0  0  0  0  0  0  0
  -23.9163  -26.1283   26.6294 C   0  0  1  0  0  0  0  0  0  0  0  0
  -24.8776  -22.6284   27.7230 C   0  0  2  0  0  0  0  0  0  0  0  0
  -23.4993  -27.2013   27.6744 C   0  0  0  0  0  0  0  0  0  0  0  0
  -30.7858  -25.3326   19.2092 N   0  0  0  0  0  0  0  0  0  0  0  0
  -25.6143  -17.6666   19.6089 N   0  0  0  0  0  0  0  0  0  0  0  0
  -25.4143  -18.9253   20.0355 N   0  0  0  0  0  0  0  0  0  0  0  0
  -23.5790  -26.3595   24.1887 N   0  0  0  0  0  0  0  0  0  0  0  0
  -27.0784  -20.9000   17.2177 N   0  0  0  0  0  0  0  0  0  0  0  0
  -24.7165  -20.1964   21.9084 N   0  0  0  0  0  0  0  0  0  0  0  0
  -24.3941  -15.9334   23.3639 N   0  0  0  0  0  0  0  0  0  0  0  0
  -21.2435  -28.3566   22.3757 N   0  0  0  0  0  0  0  0  0  0  0  0
  -23.9515  -24.7668   27.1523 N   0  0  0  0  0  0  0  0  0  0  0  0
  -29.3334  -21.1905   17.8690 N   0  0  0  0  0  0  0  0  0  0  0  0
  -25.7095  -21.6109   27.0203 N   0  3  0  0  0  0  0  0  0  0  0  0
  -24.0831  -18.1289   23.9483 O   0  0  0  0  0  0  0  0  0  0  0  0
  -23.3813  -28.8017   23.1846 O   0  0  0  0  0  0  0  0  0  0  0  0
  -21.7971  -25.8456   25.6020 O   0  0  0  0  0  0  0  0  0  0  0  0
  -26.1797  -24.3608   26.6551 O   0  0  0  0  0  0  0  0  0  0  0  0
  -28.4021  -22.5584   16.2821 O   0  0  0  0  0  0  0  0  0  0  0  0
  -25.5989  -11.3523   20.4319 O   0  0  0  0  0  0  0  0  0  0  0  0
  -28.7751  -26.9455   20.9162 O   0  0  0  0  0  0  0  0  0  1  0  0
  -21.3742   -8.4517   22.4670 F   0  0  0  0  0  0  0  0  0  0  0  0
  -24.1604   -9.6234   18.8243 F   0  0  0  0  0  0  0  0  0  0  0  0
  1  2  1  0  0  0  0
  1  5  2  0  0  0  0
  2  6  2  0  0  0  0
  3  8  2  0  0  0  0
  3 17  1  0  0  0  0
  4  9  1  0  0  0  0
  4 17  2  0  0  0  0
  5 19  1  0  0  0  0
  6 21  1  0  0  0  0
  7 10  2  0  0  0  0
  7 20  1  0  0  0  0
  8 25  1  0  0  0  0
  9 25  2  0  0  0  0
 10 26  1  0  0  0  0
 11 12  2  0  0  0  0
 11 27  1  0  0  0  0
 12 28  1  0  0  0  0
 13 22  1  0  0  0  0
 13 26  2  0  0  0  0
 14 23  2  0  0  0  0
 14 24  1  0  0  0  0
 15 28  2  0  0  0  0
 15 29  1  0  0  0  0
 16 23  1  0  0  0  0
 16 66  2  0  0  0  0
 17 30  1  0  0  0  0
 18 30  1  0  0  0  0
 18 32  2  0  0  0  0
 18 33  1  0  0  0  0
 19 21  2  0  0  0  0
 19 38  1  0  0  0  0
 20 22  2  0  0  0  0
 20 39  1  0  0  0  0
 21 47  1  0  0  0  0
 22 40  1  0  0  0  0
 23 58  1  0  0  0  0
 24 31  2  0  0  0  0
 24 61  1  0  0  0  0
 25 82  1  0  0  0  0
 26 83  1  0  0  0  0
 27 29  2  0  0  0  0
 27 82  1  0  0  0  0
 28 84  1  0  0  0  0
 29 85  1  0  0  0  0
 30 67  2  0  0  0  0
 31 62  1  0  0  0  0
 31 66  1  0  0  0  0
 32 68  1  0  0  0  0
 32 71  1  0  0  0  0
 33 72  1  0  0  0  0
 33 77  2  0  0  0  0
 34 48  1  0  0  0  0
 34 73  1  0  0  0  0
 34 78  2  0  0  0  0
 35 63  1  0  0  0  0
 35 69  1  0  0  0  0
 35 79  2  0  0  0  0
 36 64  1  0  0  0  0
 36 74  1  0  0  0  0
 36 80  2  0  0  0  0
 37 70  1  0  0  0  0
 37 75  1  0  0  0  0
 37 81  2  0  0  0  0
 38 41  1  0  0  0  0
 39 48  1  0  0  0  0
 40 69  1  0  0  0  0
 41 43  1  0  0  0  0
 42 44  1  0  0  0  0
 42 45  1  0  0  0  0
 43 47  1  0  0  0  0
 44 49  1  0  0  0  0
 45 70  1  0  0  0  0
 46 49  1  0  0  0  0
 46 70  1  0  0  0  0
 47 73  1  0  0  0  0
 48 69  1  0  0  0  0
 49 68  1  0  0  0  0
 50 59  1  0  0  0  0
 51 61  1  0  0  0  0
 52 61  1  0  0  0  0
 53 64  1  0  0  0  0
 54 65  1  0  0  0  0
 55 65  1  0  0  0  0
 56 65  1  0  0  0  0
 57 76  1  0  0  0  0
 58 75  1  0  0  0  0
 59 62  1  0  0  0  0
 60 62  1  0  0  0  0
 60 83  1  0  0  0  0
 63 65  1  0  0  0  0
 63 74  1  0  0  0  0
 64 76  1  0  0  0  0
 67 68  1  0  0  0  0
M  CHG  1  76   1
M  ISO  4  37 100  60 101  75 100  83 101
M  END
> <Batch ID>
0099

> <Smiles>
CCC(c1ncc(C[100NH:0][100C:0](=O)N2CCCC(n3nc(-c4ccc(Oc5ccc(F)cc5F)cc4)c(C(N)=O)c3N)C2)cc1C(C)C)[101CH2:1][101O:1]c1ccc2c(c1)CN(C(=O)C(NC(=O)C(C)NC)C(C)(C)C)C(C(=O)NC1CCCc3ccccc31)C2

> <Shape>
0.162

> <Color>
0.079

> <Negative vol penalty>
0.000

$$$$

  -OEChem-04052319313D

 90 98  0     1  0  0  0  0  0999 V2000
  -21.4608  -33.8693   15.9591 C   0  0  0  0  0  0  0  0  0  0  0  0
  -22.3274  -32.8055   15.7295 C   0  0  0  0  0  0  0  0  0  0  0  0
  -24.4251   -9.2914   21.3175 C   0  0  0  0  0  0  0  0  0  0  0  0
  -22.4856  -10.7276   21.2055 C   0  0  0  0  0  0  0  0  0  0  0  0
  -21.5220  -34.5694   17.1633 C   0  0  0  0  0  0  0  0  0  0  0  0
  -23.2565  -32.4419   16.7036 C   0  0  0  0  0  0  0  0  0  0  0  0
  -25.2140  -26.7843   17.9943 C   0  0  0  0  0  0  0  0  0  0  0  0
  -23.5937   -8.1727   21.3710 C   0  0  0  0  0  0  0  0  0  0  0  0
  -21.6541   -9.6089   21.2590 C   0  0  0  0  0  0  0  0  0  0  0  0
  -26.3587  -26.0803   17.6231 C   0  0  0  0  0  0  0  0  0  0  0  0
  -21.7185   -6.5717   23.6829 C   0  0  0  0  0  0  0  0  0  0  0  0
  -22.0209   -5.5847   24.6210 C   0  0  0  0  0  0  0  0  0  0  0  0
  -27.4178  -26.7229   19.6930 C   0  0  0  0  0  0  0  0  0  0  0  0
  -29.5425  -18.4148   22.1899 C   0  0  0  0  0  0  0  0  0  0  0  0
  -22.2788   -3.9718   22.8407 C   0  0  0  0  0  0  0  0  0  0  0  0
  -28.4503  -19.2767   20.2609 C   0  0  0  0  0  0  0  0  0  0  0  0
  -23.8711  -10.5688   21.2348 C   0  0  0  0  0  0  0  0  0  0  0  0
  -25.2523  -12.3416   20.0277 C   0  0  0  0  0  0  0  0  0  0  0  0
  -22.4458  -34.2080   18.1565 C   0  0  0  0  0  0  0  0  0  0  0  0
  -25.1665  -27.4731   19.2149 C   0  0  0  0  0  0  0  0  0  0  0  0
  -23.3310  -33.1386   17.9217 C   0  0  0  0  0  0  0  0  0  0  0  0
  -26.2704  -27.4328   20.0785 C   0  0  0  0  0  0  0  0  0  0  0  0
  -28.3963  -18.5006   21.4075 C   0  0  0  0  0  0  0  0  0  0  0  0
  -30.6915  -19.0980   21.8073 C   0  0  0  0  0  0  0  0  0  0  0  0
  -22.2082   -8.3314   21.3417 C   0  0  0  0  0  0  0  0  0  0  0  0
  -27.4619  -26.0519   18.4712 C   0  0  0  0  0  0  0  0  0  0  0  0
  -21.6962   -6.2588   22.3238 C   0  0  0  0  0  0  0  0  0  0  0  0
  -22.3011   -4.2848   24.1999 C   0  0  0  0  0  0  0  0  0  0  0  0
  -21.9764   -4.9589   21.9027 C   0  0  0  0  0  0  0  0  0  0  0  0
  -24.7294  -11.7248   21.1801 C   0  0  0  0  0  0  0  0  0  0  0  0
  -30.6428  -19.8472   20.6427 C   0  0  0  0  0  0  0  0  0  0  0  0
  -25.9994  -13.3893   20.5080 C   0  0  0  0  0  0  0  0  0  0  0  0
  -25.0783  -11.9982   18.6466 C   0  0  0  0  0  0  0  0  0  0  0  0
  -24.8160  -30.5170   20.0606 C   0  0  0  0  0  0  0  0  0  0  0  0
  -24.7183  -29.2689   23.0531 C   0  0  0  0  0  0  0  0  0  0  0  0
  -25.5430  -26.7077   25.1523 C   0  0  0  0  0  0  0  0  0  0  0  0
  -26.1235  -17.7933   24.1006 C   0  0  0  0  0  0  0  0  0  0  0  0
  -22.5065  -35.0245   19.4231 C   0  0  0  0  0  0  0  0  0  0  0  0
  -23.9145  -28.2056   19.6127 C   0  0  0  0  0  0  0  0  0  0  0  0
  -26.2627  -28.1389   21.4089 C   0  0  0  0  0  0  0  0  0  0  0  0
  -23.2670  -34.3378   20.5547 C   0  0  0  0  0  0  0  0  0  0  0  0
  -27.4721  -14.5268   25.2019 C   0  0  0  0  0  0  0  0  0  0  0  0
  -24.5826  -33.7616   20.0409 C   0  0  0  0  0  0  0  0  0  0  0  0
  -26.8578  -13.5561   24.1947 C   0  0  0  0  0  0  0  0  0  0  0  0
  -26.5940  -15.7564   25.4127 C   0  0  0  0  0  0  0  0  0  0  0  0
  -25.6352  -15.5028   23.1477 C   0  0  0  0  0  0  0  0  0  0  0  0
  -24.3360  -32.6982   18.9639 C   0  0  1  0  0  0  0  0  0  0  0  0
  -24.1645  -29.2974   20.6485 C   0  0  1  0  0  0  0  0  0  0  0  0
  -26.5176  -14.2748   22.8775 C   0  0  2  0  0  0  0  0  0  0  0  0
  -25.3611  -25.9894   27.5499 C   0  0  0  0  0  0  0  0  0  0  0  0
  -34.6111  -16.1887   23.0005 C   0  0  0  0  0  0  0  0  0  0  0  0
  -34.9560  -18.6665   22.9541 C   0  0  0  0  0  0  0  0  0  0  0  0
  -26.9438  -31.2169   23.8031 C   0  0  0  0  0  0  0  0  0  0  0  0
  -27.3639  -29.8397   25.8512 C   0  0  0  0  0  0  0  0  0  0  0  0
  -25.1569  -30.9581   25.5335 C   0  0  0  0  0  0  0  0  0  0  0  0
  -26.3426  -19.8790   22.8040 C   0  0  0  0  0  0  0  0  0  0  0  0
  -23.9702  -24.3057   24.4343 C   0  0  0  0  0  0  0  0  0  0  0  0
  -32.7460  -21.9219   18.2653 C   0  0  0  0  0  0  0  0  0  0  0  0
  -31.9224  -19.0118   22.6419 C   0  0  0  0  0  0  0  0  0  0  0  0
  -27.1516  -17.7813   21.7886 C   0  0  0  0  0  0  0  0  0  0  0  0
  -31.8525  -20.6047   20.1803 C   0  0  0  0  0  0  0  0  0  0  0  0
  -32.6611  -17.6737   22.4477 C   0  0  0  0  0  0  0  0  0  0  0  0
  -30.0689  -23.5619   18.6432 C   0  0  0  0  0  0  0  0  0  0  0  0
  -30.9300  -22.8640   19.6853 C   0  0  0  0  0  0  0  0  0  0  0  0
  -29.3697  -24.8120   19.1630 C   0  0  0  0  0  0  0  0  0  1  0  0
  -25.7453  -28.9512   24.1130 C   0  0  1  0  0  0  0  0  0  0  0  0
  -24.7231  -25.9359   26.1704 C   0  0  2  0  0  0  0  0  0  0  0  0
  -33.9600  -17.5485   23.2655 C   0  0  0  0  0  0  0  0  0  0  0  0
  -26.3037  -30.2297   24.7993 C   0  0  0  0  0  0  0  0  0  0  0  0
  -29.5480  -19.9546   19.8569 N   0  0  0  0  0  0  0  0  0  0  0  0
  -25.1120  -12.3302   22.3076 N   0  0  0  0  0  0  0  0  0  0  0  0
  -25.8833  -13.3382   21.8660 N   0  0  0  0  0  0  0  0  0  0  0  0
  -25.0176  -28.8467   21.7500 N   0  0  0  0  0  0  0  0  0  0  0  0
  -26.2501  -16.3950   24.1418 N   0  0  0  0  0  0  0  0  0  0  0  0
  -26.7378  -14.3400   19.8970 N   0  0  0  0  0  0  0  0  0  0  0  0
  -24.2785  -10.8920   18.3288 N   0  0  0  0  0  0  0  0  0  0  0  0
  -23.9231  -31.4508   19.5705 N   0  0  0  0  0  0  0  0  0  0  0  0
  -25.1091  -28.0106   25.0289 N   0  0  0  0  0  0  0  0  0  0  0  0
  -26.4470  -18.4295   22.8926 N   0  0  0  0  0  0  0  0  0  0  0  0
  -24.6029  -24.5074   25.7632 N   0  3  0  0  0  0  0  0  0  0  0  0
  -31.5368  -21.6349   19.1226 N   0  3  1  0  0  0  0  0  0  0  0  0
  -25.6294  -12.6430   17.7225 O   0  0  0  0  0  0  0  0  0  0  0  0
  -26.0383  -30.6051   20.0536 O   0  0  0  0  0  0  0  0  0  0  0  0
  -23.6853  -29.8634   23.3710 O   0  0  0  0  0  0  0  0  0  0  0  0
  -26.4776  -26.2060   24.5315 O   0  0  0  0  0  0  0  0  0  0  0  0
  -25.7521  -18.4372   25.0903 O   0  0  0  0  0  0  0  0  0  0  0  0
  -21.3966   -7.2400   21.3936 O   0  0  0  0  0  0  0  0  0  0  0  0
  -28.5807  -25.3661   18.1110 O   0  0  0  0  0  0  0  0  0  1  0  0
  -22.5929   -3.3374   25.1007 F   0  0  0  0  0  0  0  0  0  0  0  0
  -21.9576   -4.6525   20.5982 F   0  0  0  0  0  0  0  0  0  0  0  0
  1  2  1  0  0  0  0
  1  5  2  0  0  0  0
  2  6  2  0  0  0  0
  3  8  2  0  0  0  0
  3 17  1  0  0  0  0
  4  9  1  0  0  0  0
  4 17  2  0  0  0  0
  5 19  1  0  0  0  0
  6 21  1  0  0  0  0
  7 10  2  0  0  0  0
  7 20  1  0  0  0  0
  8 25  1  0  0  0  0
  9 25  2  0  0  0  0
 10 26  1  0  0  0  0
 11 12  2  0  0  0  0
 11 27  1  0  0  0  0
 12 28  1  0  0  0  0
 13 22  1  0  0  0  0
 13 26  2  0  0  0  0
 14 23  2  0  0  0  0
 14 24  1  0  0  0  0
 15 28  2  0  0  0  0
 15 29  1  0  0  0  0
 16 23  1  0  0  0  0
 16 70  2  0  0  0  0
 17 30  1  0  0  0  0
 18 30  1  0  0  0  0
 18 32  2  0  0  0  0
 18 33  1  0  0  0  0
 19 21  2  0  0  0  0
 19 38  1  0  0  0  0
 20 22  2  0  0  0  0
 20 39  1  0  0  0  0
 21 47  1  0  0  0  0
 22 40  1  0  0  0  0
 23 60  1  0  0  0  0
 24 31  2  0  0  0  0
 24 59  1  0  0  0  0
 25 87  1  0  0  0  0
 26 88  1  0  0  0  0
 27 29  2  0  0  0  0
 27 87  1  0  0  0  0
 28 89  1  0  0  0  0
 29 90  1  0  0  0  0
 30 71  2  0  0  0  0
 31 61  1  0  0  0  0
 31 70  1  0  0  0  0
 32 72  1  0  0  0  0
 32 75  1  0  0  0  0
 33 76  1  0  0  0  0
 33 82  2  0  0  0  0
 34 48  1  0  0  0  0
 34 77  1  0  0  0  0
 34 83  2  0  0  0  0
 35 66  1  0  0  0  0
 35 73  1  0  0  0  0
 35 84  2  0  0  0  0
 36 67  1  0  0  0  0
 36 78  1  0  0  0  0
 36 85  2  0  0  0  0
 37 74  1  0  0  0  0
 37 79  1  0  0  0  0
 37 86  2  0  0  0  0
 38 41  1  0  0  0  0
 39 48  1  0  0  0  0
 40 73  1  0  0  0  0
 41 43  1  0  0  0  0
 42 44  1  0  0  0  0
 42 45  1  0  0  0  0
 43 47  1  0  0  0  0
 44 49  1  0  0  0  0
 45 74  1  0  0  0  0
 46 49  1  0  0  0  0
 46 74  1  0  0  0  0
 47 77  1  0  0  0  0
 48 73  1  0  0  0  0
 49 72  1  0  0  0  0
 50 67  1  0  0  0  0
 51 68  1  0  0  0  0
 52 68  1  0  0  0  0
 53 69  1  0  0  0  0
 54 69  1  0  0  0  0
 55 69  1  0  0  0  0
 56 79  1  0  0  0  0
 57 80  1  0  0  0  0
 58 81  1  0  0  0  0
 59 62  1  0  0  0  0
 60 79  1  0  0  0  0
 61 81  1  0  0  0  0
 62 68  1  0  0  0  0
 63 64  1  0  0  0  0
 63 65  1  0  0  0  0
 64 81  1  0  0  0  0
 65 88  1  0  0  0  0
 66 69  1  0  0  0  0
 66 78  1  0  0  0  0
 67 80  1  0  0  0  0
 71 72  1  0  0  0  0
M  CHG  2  80   1  81   1
M  ISO  4  37 100  65 101  79 100  88 101
M  END
> <Batch ID>
0099

> <Smiles>
CNC(C)C(=O)NC(C(=O)N1Cc2cc([101O:1][101CH2:1]CCN(C)Cc3ncc(C[100N:0](C)[100C:0](=O)N4CCCC(n5nc(-c6ccc(Oc7ccc(F)cc7F)cc6)c(C(N)=O)c5N)C4)cc3CCC(C)C)ccc2CC1C(=O)NC1CCCc2ccccc21)C(C)(C)C

> <Shape>
0.236

> <Color>
0.103

> <Negative vol penalty>
0.000

$$$$

  -OEChem-04052319313D

 91 99  0     1  0  0  0  0  0999 V2000
  -25.8748  -37.5618   19.9392 C   0  0  0  0  0  0  0  0  0  0  0  0
  -26.5415  -36.3718   19.6658 C   0  0  0  0  0  0  0  0  0  0  0  0
  -24.4278   -9.5121   22.1426 C   0  0  0  0  0  0  0  0  0  0  0  0
  -22.6181  -10.6853   21.0537 C   0  0  0  0  0  0  0  0  0  0  0  0
  -25.0470  -37.6548   21.0573 C   0  0  0  0  0  0  0  0  0  0  0  0
  -26.3817  -35.2743   20.5111 C   0  0  0  0  0  0  0  0  0  0  0  0
  -26.3030  -29.3666   18.8991 C   0  0  0  0  0  0  0  0  0  0  0  0
  -31.2052  -20.6101   19.3363 C   0  0  0  0  0  0  0  0  0  0  0  0
  -30.5452  -21.6694   19.9590 C   0  0  0  0  0  0  0  0  0  0  0  0
  -23.5046   -8.7069   22.8095 C   0  0  0  0  0  0  0  0  0  0  0  0
  -21.6948   -9.8800   21.7206 C   0  0  0  0  0  0  0  0  0  0  0  0
  -27.2810  -28.3734   18.9278 C   0  0  0  0  0  0  0  0  0  0  0  0
  -21.6346   -6.1032   24.5239 C   0  0  0  0  0  0  0  0  0  0  0  0
  -21.8847   -4.7318   24.5706 C   0  0  0  0  0  0  0  0  0  0  0  0
  -26.4403  -27.6155   21.0581 C   0  0  0  0  0  0  0  0  0  0  0  0
  -21.8346   -4.6405   22.1568 C   0  0  0  0  0  0  0  0  0  0  0  0
  -23.9846  -10.5014   21.2647 C   0  0  0  0  0  0  0  0  0  0  0  0
  -25.5320  -11.0886   19.3235 C   0  0  0  0  0  0  0  0  0  0  0  0
  -24.8694  -36.5549   21.9113 C   0  0  0  0  0  0  0  0  0  0  0  0
  -25.3917  -29.4988   19.9566 C   0  0  0  0  0  0  0  0  0  0  0  0
  -25.5518  -35.3531   21.6424 C   0  0  0  0  0  0  0  0  0  0  0  0
  -25.4501  -28.6096   21.0392 C   0  0  0  0  0  0  0  0  0  0  0  0
  -30.4742  -19.5421   18.8159 C   0  0  0  0  0  0  0  0  0  0  0  0
  -29.1541  -21.6607   20.0615 C   0  0  0  0  0  0  0  0  0  0  0  0
  -29.0832  -19.5334   18.9184 C   0  0  0  0  0  0  0  0  0  0  0  0
  -28.4231  -20.5927   19.5412 C   0  0  0  0  0  0  0  0  0  0  0  0
  -22.1381   -8.8908   22.5985 C   0  0  0  0  0  0  0  0  0  0  0  0
  -27.3516  -27.4995   20.0088 C   0  0  0  0  0  0  0  0  0  0  0  0
  -21.4844   -6.7433   23.2936 C   0  0  0  0  0  0  0  0  0  0  0  0
  -21.9847   -4.0004   23.3871 C   0  0  0  0  0  0  0  0  0  0  0  0
  -21.5844   -6.0119   22.1101 C   0  0  0  0  0  0  0  0  0  0  0  0
  -24.9378  -11.3339   20.5759 C   0  0  0  0  0  0  0  0  0  0  0  0
  -26.3553  -12.1684   19.1167 C   0  0  0  0  0  0  0  0  0  0  0  0
  -25.3556   -9.9835   18.4272 C   0  0  0  0  0  0  0  0  0  0  0  0
  -24.7218  -31.7779   22.0688 C   0  0  0  0  0  0  0  0  0  0  0  0
  -22.3077  -29.7707   22.8846 C   0  0  0  0  0  0  0  0  0  0  0  0
  -21.0835  -26.5857   22.9455 C   0  0  0  0  0  0  0  0  0  0  0  0
  -26.1492  -17.7144   21.1303 C   0  0  0  0  0  0  0  0  0  0  0  0
  -24.0016  -36.7179   23.1340 C   0  0  0  0  0  0  0  0  0  0  0  0
  -24.3258  -30.5585   19.8980 C   0  0  0  0  0  0  0  0  0  0  0  0
  -24.4824  -28.6966   22.1900 C   0  0  0  0  0  0  0  0  0  0  0  0
  -23.5920  -35.3927   23.7713 C   0  0  0  0  0  0  0  0  0  0  0  0
  -28.9286  -15.4260   21.4987 C   0  0  0  0  0  0  0  0  0  0  0  0
  -24.7973  -34.4664   23.8985 C   0  0  0  0  0  0  0  0  0  0  0  0
  -28.2633  -14.0857   21.1804 C   0  0  0  0  0  0  0  0  0  0  0  0
  -27.9875  -16.3386   22.2795 C   0  0  0  0  0  0  0  0  0  0  0  0
  -26.0092  -15.2456   21.2971 C   0  0  0  0  0  0  0  0  0  0  0  0
  -25.3846  -34.1329   22.5218 C   0  0  1  0  0  0  0  0  0  0  0  0
  -23.7738  -30.9274   21.2715 C   0  0  1  0  0  0  0  0  0  0  0  0
  -26.9017  -14.2862   20.4889 C   0  0  2  0  0  0  0  0  0  0  0  0
  -31.2057  -18.4206   18.1536 C   0  0  0  0  0  0  0  0  0  0  0  0
  -19.1005  -25.2518   23.7109 C   0  0  0  0  0  0  0  0  0  0  0  0
  -24.7944  -18.6225   13.8935 C   0  0  0  0  0  0  0  0  0  0  0  0
  -24.5436  -17.9022   16.2866 C   0  0  0  0  0  0  0  0  0  0  0  0
  -23.3097  -29.9365   25.7619 C   0  0  0  0  0  0  0  0  0  0  0  0
  -21.9391  -27.9071   26.2825 C   0  0  0  0  0  0  0  0  0  0  0  0
  -20.8216  -30.0023   25.5182 C   0  0  0  0  0  0  0  0  0  0  0  0
  -20.4509  -25.7250   20.1855 C   0  0  0  0  0  0  0  0  0  0  0  0
  -28.3145  -15.9769   16.2977 C   0  0  0  0  0  0  0  0  0  0  0  0
  -28.4658  -22.8173   20.7412 C   0  0  0  0  0  0  0  0  0  0  0  0
  -26.9313  -20.5844   19.6533 C   0  0  0  0  0  0  0  0  0  0  0  0
  -28.3017  -18.3875   18.3583 C   0  0  0  0  0  0  0  0  0  0  0  0
  -28.7506  -24.1725   20.0900 C   0  0  0  0  0  0  0  0  0  0  0  0
  -26.4266  -20.1786   21.0412 C   0  0  0  0  0  0  0  0  0  0  0  0
  -28.1773  -18.4042   16.8359 C   0  0  0  0  0  0  0  0  0  0  0  0
  -26.7251  -17.4394   15.0581 C   0  0  0  0  0  0  0  0  0  0  0  0
  -27.9835  -25.3233   20.7307 C   0  0  0  0  0  0  0  0  0  1  0  0
  -22.1494  -28.6303   23.8610 C   0  0  1  0  0  0  0  0  0  0  0  0
  -19.7292  -26.0195   22.5585 C   0  0  2  0  0  0  0  0  0  0  0  0
  -25.5251  -18.3801   15.2152 C   0  0  0  0  0  0  0  0  0  0  0  0
  -22.0745  -29.1184   25.3353 C   0  0  0  0  0  0  0  0  0  0  0  0
  -25.3487  -12.4795   21.1261 N   0  0  0  0  0  0  0  0  0  0  0  0
  -26.2101  -12.9636   20.2152 N   0  0  0  0  0  0  0  0  0  0  0  0
  -23.4624  -29.7534   22.0894 N   0  0  0  0  0  0  0  0  0  0  0  0
  -26.7175  -16.5031   21.5584 N   0  0  0  0  0  0  0  0  0  0  0  0
  -27.1821  -12.5056   18.1043 N   0  0  0  0  0  0  0  0  0  0  0  0
  -24.4718   -8.9597   18.7947 N   0  0  0  0  0  0  0  0  0  0  0  0
  -24.5753  -33.1352   21.8553 N   0  0  0  0  0  0  0  0  0  0  0  0
  -20.9807  -27.8758   23.4213 N   0  0  0  0  0  0  0  0  0  0  0  0
  -26.8797  -18.8595   21.4231 N   0  0  0  0  0  0  0  0  0  0  0  0
  -19.8668  -25.0952   21.3976 N   0  3  0  0  0  0  0  0  0  0  0  0
  -27.4405  -17.2051   16.3660 N   0  3  1  0  0  0  0  0  0  0  0  0
  -25.9760   -9.8982   17.3403 O   0  0  0  0  0  0  0  0  0  0  0  0
  -25.5257  -31.2423   22.8229 O   0  0  0  0  0  0  0  0  0  0  0  0
  -21.4354  -30.6409   22.8245 O   0  0  0  0  0  0  0  0  0  0  0  0
  -22.1277  -25.9461   22.8401 O   0  0  0  0  0  0  0  0  0  0  0  0
  -25.0724  -17.7710   20.5267 O   0  0  0  0  0  0  0  0  0  0  0  0
  -21.2369   -8.1051   23.2489 O   0  0  0  0  0  0  0  0  0  0  0  0
  -28.3057  -26.5296   20.0396 O   0  0  0  0  0  0  0  0  0  1  0  0
  -22.2265   -2.6837   23.4320 F   0  0  0  0  0  0  0  0  0  0  0  0
  -21.4423   -6.6215   20.9252 F   0  0  0  0  0  0  0  0  0  0  0  0
  1  2  1  0  0  0  0
  1  5  2  0  0  0  0
  2  6  2  0  0  0  0
  3 10  2  0  0  0  0
  3 17  1  0  0  0  0
  4 11  1  0  0  0  0
  4 17  2  0  0  0  0
  5 19  1  0  0  0  0
  6 21  1  0  0  0  0
  7 12  2  0  0  0  0
  7 20  1  0  0  0  0
  8  9  2  0  0  0  0
  8 23  1  0  0  0  0
  9 24  1  0  0  0  0
 10 27  1  0  0  0  0
 11 27  2  0  0  0  0
 12 28  1  0  0  0  0
 13 14  2  0  0  0  0
 13 29  1  0  0  0  0
 14 30  1  0  0  0  0
 15 22  1  0  0  0  0
 15 28  2  0  0  0  0
 16 30  2  0  0  0  0
 16 31  1  0  0  0  0
 17 32  1  0  0  0  0
 18 32  1  0  0  0  0
 18 33  2  0  0  0  0
 18 34  1  0  0  0  0
 19 21  2  0  0  0  0
 19 39  1  0  0  0  0
 20 22  2  0  0  0  0
 20 40  1  0  0  0  0
 21 48  1  0  0  0  0
 22 41  1  0  0  0  0
 23 25  2  0  0  0  0
 23 51  1  0  0  0  0
 24 26  2  0  0  0  0
 24 60  1  0  0  0  0
 25 26  1  0  0  0  0
 25 62  1  0  0  0  0
 26 61  1  0  0  0  0
 27 88  1  0  0  0  0
 28 89  1  0  0  0  0
 29 31  2  0  0  0  0
 29 88  1  0  0  0  0
 30 90  1  0  0  0  0
 31 91  1  0  0  0  0
 32 72  2  0  0  0  0
 33 73  1  0  0  0  0
 33 76  1  0  0  0  0
 34 77  1  0  0  0  0
 34 83  2  0  0  0  0
 35 49  1  0  0  0  0
 35 78  1  0  0  0  0
 35 84  2  0  0  0  0
 36 68  1  0  0  0  0
 36 74  1  0  0  0  0
 36 85  2  0  0  0  0
 37 69  1  0  0  0  0
 37 79  1  0  0  0  0
 37 86  2  0  0  0  0
 38 75  1  0  0  0  0
 38 80  1  0  0  0  0
 38 87  2  0  0  0  0
 39 42  1  0  0  0  0
 40 49  1  0  0  0  0
 41 74  1  0  0  0  0
 42 44  1  0  0  0  0
 43 45  1  0  0  0  0
 43 46  1  0  0  0  0
 44 48  1  0  0  0  0
 45 50  1  0  0  0  0
 46 75  1  0  0  0  0
 47 50  1  0  0  0  0
 47 75  1  0  0  0  0
 48 78  1  0  0  0  0
 49 74  1  0  0  0  0
 50 73  1  0  0  0  0
 52 69  1  0  0  0  0
 53 70  1  0  0  0  0
 54 70  1  0  0  0  0
 55 71  1  0  0  0  0
 56 71  1  0  0  0  0
 57 71  1  0  0  0  0
 58 81  1  0  0  0  0
 59 82  1  0  0  0  0
 60 63  1  0  0  0  0
 61 64  1  0  0  0  0
 62 65  1  0  0  0  0
 63 67  1  0  0  0  0
 64 80  1  0  0  0  0
 65 82  1  0  0  0  0
 66 70  1  0  0  0  0
 66 82  1  0  0  0  0
 67 89  1  0  0  0  0
 68 71  1  0  0  0  0
 68 79  1  0  0  0  0
 69 81  1  0  0  0  0
 72 73  1  0  0  0  0
M  CHG  2  81   1  82   1
M  ISO  4  38 100  67 101  80 100  89 101
M  END
> <Batch ID>
0099

> <Smiles>
CNC(C)C(=O)NC(C(=O)N1Cc2cc([101O:1][101CH2:1]CCc3ccc(C)c(CCN(C)CC(C)C)c3CC[100NH:0][100C:0](=O)N3CCCC(n4nc(-c5ccc(Oc6ccc(F)cc6F)cc5)c(C(N)=O)c4N)C3)ccc2CC1C(=O)NC1CCCc2ccccc21)C(C)(C)C

> <Shape>
0.318

> <Color>
0.088

> <Negative vol penalty>
0.000

$$$$

  -OEChem-04052319313D

 87 95  0     1  0  0  0  0  0999 V2000
  -20.3897  -30.2747   25.0961 C   0  0  0  0  0  0  0  0  0  0  0  0
  -21.6261  -29.7230   24.7759 C   0  0  0  0  0  0  0  0  0  0  0  0
  -24.5074  -13.5747   21.5678 C   0  0  0  0  0  0  0  0  0  0  0  0
  -26.1856  -13.5005   19.8313 C   0  0  0  0  0  0  0  0  0  0  0  0
  -19.2350  -29.8036   24.4728 C   0  0  0  0  0  0  0  0  0  0  0  0
  -21.7082  -28.6992   23.8328 C   0  0  0  0  0  0  0  0  0  0  0  0
  -25.4951  -29.3884   20.5420 C   0  0  0  0  0  0  0  0  0  0  0  0
  -31.6821  -23.2347   18.6979 C   0  0  0  0  0  0  0  0  0  0  0  0
  -31.6318  -21.8584   18.4772 C   0  0  0  0  0  0  0  0  0  0  0  0
  -23.9551  -12.3884   21.0848 C   0  0  0  0  0  0  0  0  0  0  0  0
  -25.6334  -12.3141   19.3483 C   0  0  0  0  0  0  0  0  0  0  0  0
  -26.7825  -29.0794   20.9790 C   0  0  0  0  0  0  0  0  0  0  0  0
  -24.6269   -9.0787   21.2521 C   0  0  0  0  0  0  0  0  0  0  0  0
  -24.2902   -8.0949   22.1817 C   0  0  0  0  0  0  0  0  0  0  0  0
  -26.6592  -26.9635   19.8270 C   0  0  0  0  0  0  0  0  0  0  0  0
  -29.4348  -23.4548   17.8387 C   0  0  0  0  0  0  0  0  0  0  0  0
  -21.9869   -8.2016   21.4603 C   0  0  0  0  0  0  0  0  0  0  0  0
  -25.6226  -14.1308   20.9410 C   0  0  0  0  0  0  0  0  0  0  0  0
  -27.2038  -15.4909   22.4099 C   0  0  0  0  0  0  0  0  0  0  0  0
  -19.3041  -28.7801   23.5145 C   0  0  0  0  0  0  0  0  0  0  0  0
  -24.7747  -28.4810   19.7520 C   0  0  0  0  0  0  0  0  0  0  0  0
  -20.5532  -28.2130   23.1971 C   0  0  0  0  0  0  0  0  0  0  0  0
  -25.3638  -27.2644   19.3792 C   0  0  0  0  0  0  0  0  0  0  0  0
  -30.5836  -24.0329   18.3787 C   0  0  0  0  0  0  0  0  0  0  0  0
  -30.4830  -21.2802   17.9372 C   0  0  0  0  0  0  0  0  0  0  0  0
  -29.3845  -22.0784   17.6179 C   0  0  0  0  0  0  0  0  0  0  0  0
  -24.5181  -11.7581   19.9751 C   0  0  0  0  0  0  0  0  0  0  0  0
  -27.3637  -27.8657   20.6239 C   0  0  0  0  0  0  0  0  0  0  0  0
  -23.6436   -9.6241   20.4266 C   0  0  0  0  0  0  0  0  0  0  0  0
  -22.9702   -7.6562   22.2858 C   0  0  0  0  0  0  0  0  0  0  0  0
  -22.3236   -9.1855   20.5307 C   0  0  0  0  0  0  0  0  0  0  0  0
  -26.1931  -15.3565   21.4391 C   0  0  0  0  0  0  0  0  0  0  0  0
  -27.3877  -16.8468   22.5285 C   0  0  0  0  0  0  0  0  0  0  0  0
  -27.9129  -14.4804   23.1390 C   0  0  0  0  0  0  0  0  0  0  0  0
  -22.0527  -26.8759   20.0960 C   0  0  0  0  0  0  0  0  0  0  0  0
  -22.6234  -26.0177   17.0203 C   0  0  0  0  0  0  0  0  0  0  0  0
  -24.8935  -25.5619   14.5132 C   0  0  0  0  0  0  0  0  0  0  0  0
  -26.4063  -21.4358   18.8097 C   0  0  0  0  0  0  0  0  0  0  0  0
  -18.0232  -28.2713   22.9021 C   0  0  0  0  0  0  0  0  0  0  0  0
  -23.3972  -28.8407   19.2665 C   0  0  0  0  0  0  0  0  0  0  0  0
  -24.6403  -26.2646   18.5158 C   0  0  0  0  0  0  0  0  0  0  0  0
  -18.2396  -27.4410   21.6395 C   0  0  0  0  0  0  0  0  0  0  0  0
  -25.0508  -20.9967   22.0726 C   0  0  0  0  0  0  0  0  0  0  0  0
  -19.3542  -26.4222   21.8551 C   0  0  0  0  0  0  0  0  0  0  0  0
  -25.2810  -19.5136   22.3679 C   0  0  0  0  0  0  0  0  0  0  0  0
  -24.7094  -21.2333   20.6031 C   0  0  0  0  0  0  0  0  0  0  0  0
  -25.9063  -19.1838   19.9391 C   0  0  0  0  0  0  0  0  0  0  0  0
  -20.6860  -27.1180   22.1611 C   0  0  1  0  0  0  0  0  0  0  0  0
  -22.5580  -27.6224   18.8939 C   0  0  1  0  0  0  0  0  0  0  0  0
  -26.3084  -18.9015   21.3968 C   0  0  2  0  0  0  0  0  0  0  0  0
  -30.4528  -19.8046   17.7087 C   0  0  0  0  0  0  0  0  0  0  0  0
  -25.0657  -24.8170   12.1230 C   0  0  0  0  0  0  0  0  0  0  0  0
  -30.3704  -26.5826   15.6807 C   0  0  0  0  0  0  0  0  0  0  0  0
  -32.8664  -26.7092   15.5914 C   0  0  0  0  0  0  0  0  0  0  0  0
  -22.3232  -23.1135   17.9064 C   0  0  0  0  0  0  0  0  0  0  0  0
  -23.4195  -22.4197   15.7651 C   0  0  0  0  0  0  0  0  0  0  0  0
  -21.2506  -23.6509   15.7121 C   0  0  0  0  0  0  0  0  0  0  0  0
  -25.9402  -28.1914   13.6476 C   0  0  0  0  0  0  0  0  0  0  0  0
  -28.1440  -21.4816   17.0384 C   0  0  0  0  0  0  0  0  0  0  0  0
  -30.8269  -25.8706   20.1209 C   0  0  0  0  0  0  0  0  0  0  0  0
  -31.7597  -26.2164   17.7938 C   0  0  0  0  0  0  0  0  0  0  0  0
  -30.8485  -27.3674   20.4551 C   0  0  0  0  0  0  0  0  0  0  0  0
  -30.6390  -25.5333   18.6189 C   0  0  1  0  0  0  0  0  0  0  0  0
  -23.3627  -24.8878   16.3453 C   0  0  1  0  0  0  0  0  0  0  0  0
  -24.8916  -26.0019   13.0603 C   0  0  2  0  0  0  0  0  0  0  0  0
  -31.6707  -26.0273   16.2635 C   0  0  0  0  0  0  0  0  0  0  0  0
  -22.6021  -23.5358   16.4501 C   0  0  0  0  0  0  0  0  0  0  0  0
  -25.7649  -16.5332   20.9743 N   0  0  0  0  0  0  0  0  0  0  0  0
  -26.5100  -17.4199   21.6559 N   0  0  0  0  0  0  0  0  0  0  0  0
  -23.2934  -26.6596   18.0715 N   0  0  0  0  0  0  0  0  0  0  0  0
  -25.7236  -20.6295   19.7354 N   0  0  0  0  0  0  0  0  0  0  0  0
  -28.2130  -17.5929   23.2932 N   0  0  0  0  0  0  0  0  0  0  0  0
  -27.5997  -13.1363   22.8948 N   0  0  0  0  0  0  0  0  0  0  0  0
  -21.2750  -27.6388   20.9461 N   0  0  0  0  0  0  0  0  0  0  0  0
  -23.6167  -25.3260   14.9771 N   0  0  0  0  0  0  0  0  0  0  0  0
  -27.3556  -20.7855   18.0308 N   0  0  0  0  0  0  0  0  0  0  0  0
  -29.6079  -28.0296   20.0781 N   0  0  0  0  0  0  0  0  0  1  0  0
  -25.9998  -26.9662   12.8096 N   0  3  0  0  0  0  0  0  0  0  0  0
  -28.7866  -14.7616   23.9941 O   0  0  0  0  0  0  0  0  0  0  0  0
  -22.3455  -25.6948   20.2409 O   0  0  0  0  0  0  0  0  0  0  0  0
  -21.4960  -26.3244   16.6247 O   0  0  0  0  0  0  0  0  0  0  0  0
  -25.9249  -25.4363   15.1697 O   0  0  0  0  0  0  0  0  0  0  0  0
  -26.1899  -22.6465   18.6903 O   0  0  0  0  0  0  0  0  0  0  0  0
  -23.9797  -10.6003   19.5037 O   0  0  0  0  0  0  0  0  0  0  0  0
  -28.6199  -27.5613   21.0496 O   0  0  0  0  0  0  0  0  0  1  0  0
  -22.6473   -6.7103   23.1774 F   0  0  0  0  0  0  0  0  0  0  0  0
  -21.3748   -9.7049   19.7396 F   0  0  0  0  0  0  0  0  0  0  0  0
  1  2  1  0  0  0  0
  1  5  2  0  0  0  0
  2  6  2  0  0  0  0
  3 10  2  0  0  0  0
  3 18  1  0  0  0  0
  4 11  1  0  0  0  0
  4 18  2  0  0  0  0
  5 20  1  0  0  0  0
  6 22  1  0  0  0  0
  7 12  2  0  0  0  0
  7 21  1  0  0  0  0
  8  9  2  0  0  0  0
  8 24  1  0  0  0  0
  9 25  1  0  0  0  0
 10 27  1  0  0  0  0
 11 27  2  0  0  0  0
 12 28  1  0  0  0  0
 13 14  2  0  0  0  0
 13 29  1  0  0  0  0
 14 30  1  0  0  0  0
 15 23  1  0  0  0  0
 15 28  2  0  0  0  0
 16 24  2  0  0  0  0
 16 26  1  0  0  0  0
 17 30  2  0  0  0  0
 17 31  1  0  0  0  0
 18 32  1  0  0  0  0
 19 32  1  0  0  0  0
 19 33  2  0  0  0  0
 19 34  1  0  0  0  0
 20 22  2  0  0  0  0
 20 39  1  0  0  0  0
 21 23  2  0  0  0  0
 21 40  1  0  0  0  0
 22 48  1  0  0  0  0
 23 41  1  0  0  0  0
 24 63  1  0  0  0  0
 25 26  2  0  0  0  0
 25 51  1  0  0  0  0
 26 59  1  0  0  0  0
 27 84  1  0  0  0  0
 28 85  1  0  0  0  0
 29 31  2  0  0  0  0
 29 84  1  0  0  0  0
 30 86  1  0  0  0  0
 31 87  1  0  0  0  0
 32 68  2  0  0  0  0
 33 69  1  0  0  0  0
 33 72  1  0  0  0  0
 34 73  1  0  0  0  0
 34 79  2  0  0  0  0
 35 49  1  0  0  0  0
 35 74  1  0  0  0  0
 35 80  2  0  0  0  0
 36 64  1  0  0  0  0
 36 70  1  0  0  0  0
 36 81  2  0  0  0  0
 37 65  1  0  0  0  0
 37 75  1  0  0  0  0
 37 82  2  0  0  0  0
 38 71  1  0  0  0  0
 38 76  1  0  0  0  0
 38 83  2  0  0  0  0
 39 42  1  0  0  0  0
 40 49  1  0  0  0  0
 41 70  1  0  0  0  0
 42 44  1  0  0  0  0
 43 45  1  0  0  0  0
 43 46  1  0  0  0  0
 44 48  1  0  0  0  0
 45 50  1  0  0  0  0
 46 71  1  0  0  0  0
 47 50  1  0  0  0  0
 47 71  1  0  0  0  0
 48 74  1  0  0  0  0
 49 70  1  0  0  0  0
 50 69  1  0  0  0  0
 52 65  1  0  0  0  0
 53 66  1  0  0  0  0
 54 66  1  0  0  0  0
 55 67  1  0  0  0  0
 56 67  1  0  0  0  0
 57 67  1  0  0  0  0
 58 78  1  0  0  0  0
 59 76  1  0  0  0  0
 60 62  1  0  0  0  0
 60 63  1  0  0  0  0
 61 63  1  0  0  0  0
 61 66  1  0  0  0  0
 62 77  1  0  0  0  0
 64 67  1  0  0  0  0
 64 75  1  0  0  0  0
 65 78  1  0  0  0  0
 68 69  1  0  0  0  0
 77 85  1  0  0  0  0
M  CHG  1  78   1
M  ISO  4  38 100  76 100  77 101  85 101
M  END
> <Batch ID>
0099

> <Smiles>
CNC(C)C(=O)NC(C(=O)N1Cc2cc([101O:1][101NH:1]CCC(CC(C)C)c3ccc(C)c(C[100NH:0][100C:0](=O)N4CCCC(n5nc(-c6ccc(Oc7ccc(F)cc7F)cc6)c(C(N)=O)c5N)C4)c3)ccc2CC1C(=O)NC1CCCc2ccccc21)C(C)(C)C

> <Shape>
0.245

> <Color>
0.071

> <Negative vol penalty>
0.000

$$$$

  -OEChem-04052319313D

 87 95  0     1  0  0  0  0  0999 V2000
  -17.4441  -28.0414   24.0691 C   0  0  0  0  0  0  0  0  0  0  0  0
  -18.3487  -27.5680   23.1241 C   0  0  0  0  0  0  0  0  0  0  0  0
  -25.9984  -13.9642   22.4351 C   0  0  0  0  0  0  0  0  0  0  0  0
  -26.7862  -12.6257   20.5844 C   0  0  0  0  0  0  0  0  0  0  0  0
  -17.3510  -29.4099   24.3188 C   0  0  0  0  0  0  0  0  0  0  0  0
  -19.1599  -28.4630   22.4275 C   0  0  0  0  0  0  0  0  0  0  0  0
  -24.9153  -27.5256   20.5560 C   0  0  0  0  0  0  0  0  0  0  0  0
  -25.3036  -12.8632   22.9356 C   0  0  0  0  0  0  0  0  0  0  0  0
  -26.0913  -11.5246   21.0850 C   0  0  0  0  0  0  0  0  0  0  0  0
  -25.4522  -27.1512   19.3250 C   0  0  0  0  0  0  0  0  0  0  0  0
  -24.2340   -8.4577   21.6803 C   0  0  0  0  0  0  0  0  0  0  0  0
  -23.4957   -7.6920   20.7779 C   0  0  0  0  0  0  0  0  0  0  0  0
  -25.8523  -29.4715   18.8006 C   0  0  0  0  0  0  0  0  0  0  0  0
  -28.1311  -24.6980   21.6670 C   0  0  0  0  0  0  0  0  0  0  0  0
  -29.4724  -23.9673   19.3326 C   0  0  0  0  0  0  0  0  0  0  0  0
  -22.1652   -9.6305   20.2216 C   0  0  0  0  0  0  0  0  0  0  0  0
  -26.7397  -13.8455   21.2594 C   0  0  0  0  0  0  0  0  0  0  0  0
  -28.7823  -15.3570   21.0344 C   0  0  0  0  0  0  0  0  0  0  0  0
  -18.1682  -30.3213   23.6319 C   0  0  0  0  0  0  0  0  0  0  0  0
  -24.8328  -28.8787   20.9146 C   0  0  0  0  0  0  0  0  0  0  0  0
  -19.0766  -29.8451   22.6673 C   0  0  0  0  0  0  0  0  0  0  0  0
  -25.3164  -29.8603   20.0379 C   0  0  0  0  0  0  0  0  0  0  0  0
  -29.0888  -25.5501   21.1172 C   0  0  0  0  0  0  0  0  0  0  0  0
  -27.8441  -23.4804   21.0498 C   0  0  0  0  0  0  0  0  0  0  0  0
  -29.7594  -25.1847   19.9499 C   0  0  0  0  0  0  0  0  0  0  0  0
  -28.5147  -23.1151   19.8825 C   0  0  0  0  0  0  0  0  0  0  0  0
  -25.3500  -11.6435   22.2607 C   0  0  0  0  0  0  0  0  0  0  0  0
  -25.9181  -28.1244   18.4459 C   0  0  0  0  0  0  0  0  0  0  0  0
  -23.9379   -9.8098   21.8533 C   0  0  0  0  0  0  0  0  0  0  0  0
  -22.4613   -8.2784   20.0486 C   0  0  0  0  0  0  0  0  0  0  0  0
  -22.9035  -10.3962   21.1240 C   0  0  0  0  0  0  0  0  0  0  0  0
  -27.4572  -14.9826   20.7415 C   0  0  0  0  0  0  0  0  0  0  0  0
  -28.9881  -16.4970   20.2964 C   0  0  0  0  0  0  0  0  0  0  0  0
  -29.7414  -14.7304   21.8964 C   0  0  0  0  0  0  0  0  0  0  0  0
  -22.4571  -30.8789   21.5920 C   0  0  0  0  0  0  0  0  0  0  0  0
  -24.8868  -32.9027   22.3156 C   0  0  0  0  0  0  0  0  0  0  0  0
  -28.1556  -33.7793   21.8759 C   0  0  0  0  0  0  0  0  0  0  0  0
  -26.9386  -21.5569   18.7499 C   0  0  0  0  0  0  0  0  0  0  0  0
  -17.9982  -31.7954   23.9019 C   0  0  0  0  0  0  0  0  0  0  0  0
  -24.2756  -29.2645   22.2574 C   0  0  0  0  0  0  0  0  0  0  0  0
  -25.2692  -31.3254   20.3839 C   0  0  0  0  0  0  0  0  0  0  0  0
  -19.1578  -32.6461   23.3902 C   0  0  0  0  0  0  0  0  0  0  0  0
  -26.2254  -18.6160   16.6397 C   0  0  0  0  0  0  0  0  0  0  0  0
  -19.5278  -32.2432   21.9662 C   0  0  0  0  0  0  0  0  0  0  0  0
  -26.5307  -17.4454   17.5727 C   0  0  0  0  0  0  0  0  0  0  0  0
  -25.7512  -19.8453   17.4092 C   0  0  0  0  0  0  0  0  0  0  0  0
  -26.9936  -19.1069   19.4195 C   0  0  0  0  0  0  0  0  0  0  0  0
  -19.9912  -30.7825   21.9090 C   0  0  1  0  0  0  0  0  0  0  0  0
  -23.7689  -30.7028   22.3032 C   0  0  1  0  0  0  0  0  0  0  0  0
  -27.5148  -17.8667   18.6777 C   0  0  1  0  0  0  0  0  0  0  0  0
  -29.3796  -26.8483   21.7959 C   0  0  0  0  0  0  0  0  0  0  0  0
  -26.8135  -22.5874   21.6608 C   0  0  0  0  0  0  0  0  0  0  0  0
  -32.1891  -25.4296   19.3414 C   0  0  0  0  0  0  0  0  0  0  0  0
  -29.8436  -35.5017   22.5696 C   0  0  0  0  0  0  0  0  0  0  0  0
  -26.9644  -29.1824   15.3672 C   0  0  0  0  0  0  0  0  0  0  0  0
  -23.6075  -34.9182   20.4153 C   0  0  0  0  0  0  0  0  0  0  0  0
  -25.7685  -36.1824   20.4127 C   0  0  0  0  0  0  0  0  0  0  0  0
  -24.4925  -35.9016   22.5377 C   0  0  0  0  0  0  0  0  0  0  0  0
  -29.3572  -20.9996   18.8474 C   0  0  0  0  0  0  0  0  0  0  0  0
  -29.8954  -31.7385   23.1277 C   0  0  0  0  0  0  0  0  0  0  0  0
  -30.4469  -26.5451   17.9083 C   0  0  0  0  0  0  0  0  0  0  0  0
  -28.7536  -27.8239   16.5907 C   0  0  0  0  0  0  0  0  0  0  0  0
  -30.8098  -26.0991   19.3307 C   0  0  1  0  0  0  0  0  0  0  0  0
  -25.7006  -33.9146   21.5456 C   0  0  1  0  0  0  0  0  0  0  0  0
  -29.2453  -34.1364   22.8706 C   0  0  2  0  0  0  0  0  0  0  0  0
  -27.4496  -28.6085   16.6920 C   0  0  2  0  0  0  0  0  0  1  0  0
  -24.8915  -35.2018   21.2202 C   0  0  0  0  0  0  0  0  0  0  0  0
  -26.8631  -15.8170   19.8844 N   0  0  0  0  0  0  0  0  0  0  0  0
  -27.8192  -16.7272   19.6324 N   0  0  0  0  0  0  0  0  0  0  0  0
  -24.7096  -31.6527   21.7057 N   0  0  0  0  0  0  0  0  0  0  0  0
  -26.6816  -20.1972   18.4826 N   0  0  0  0  0  0  0  0  0  0  0  0
  -30.0530  -17.3148   20.1572 N   0  0  0  0  0  0  0  0  0  0  0  0
  -29.3653  -13.5659   22.5796 N   0  0  0  0  0  0  0  0  0  0  0  0
  -21.3505  -30.6642   22.3912 N   0  0  0  0  0  0  0  0  0  0  0  0
  -26.9077  -34.1499   22.3304 N   0  0  0  0  0  0  0  0  0  0  0  0
  -28.2318  -21.8594   19.2284 N   0  0  0  0  0  0  0  0  0  0  0  0
  -30.3383  -33.1243   22.8271 N   0  3  0  0  0  0  0  0  0  0  0  0
  -29.1533  -27.2806   17.9127 N   0  3  0  0  0  0  0  0  0  0  0  0
  -30.8923  -15.1987   22.0689 O   0  0  0  0  0  0  0  0  0  0  0  0
  -22.4495  -31.1883   20.4063 O   0  0  0  0  0  0  0  0  0  0  0  0
  -24.4314  -33.2076   23.4207 O   0  0  0  0  0  0  0  0  0  0  0  0
  -28.3886  -33.2301   20.8013 O   0  0  0  0  0  0  0  0  0  0  0  0
  -26.0895  -22.4333   18.5483 O   0  0  0  0  0  0  0  0  0  0  0  0
  -24.6723  -10.5688   22.7490 O   0  0  0  0  0  0  0  0  0  0  0  0
  -26.4420  -27.7617   17.2434 O   0  0  0  0  0  0  0  0  0  1  0  0
  -21.7534   -7.5434   19.1810 F   0  0  0  0  0  0  0  0  0  0  0  0
  -22.6152  -11.6949   21.2851 F   0  0  0  0  0  0  0  0  0  0  0  0
  1  2  1  0  0  0  0
  1  5  2  0  0  0  0
  2  6  2  0  0  0  0
  3  8  2  0  0  0  0
  3 17  1  0  0  0  0
  4  9  1  0  0  0  0
  4 17  2  0  0  0  0
  5 19  1  0  0  0  0
  6 21  1  0  0  0  0
  7 10  2  0  0  0  0
  7 20  1  0  0  0  0
  8 27  1  0  0  0  0
  9 27  2  0  0  0  0
 10 28  1  0  0  0  0
 11 12  2  0  0  0  0
 11 29  1  0  0  0  0
 12 30  1  0  0  0  0
 13 22  1  0  0  0  0
 13 28  2  0  0  0  0
 14 23  1  0  0  0  0
 14 24  2  0  0  0  0
 15 25  1  0  0  0  0
 15 26  2  0  0  0  0
 16 30  2  0  0  0  0
 16 31  1  0  0  0  0
 17 32  1  0  0  0  0
 18 32  1  0  0  0  0
 18 33  2  0  0  0  0
 18 34  1  0  0  0  0
 19 21  2  0  0  0  0
 19 39  1  0  0  0  0
 20 22  2  0  0  0  0
 20 40  1  0  0  0  0
 21 48  1  0  0  0  0
 22 41  1  0  0  0  0
 23 25  2  0  0  0  0
 23 51  1  0  0  0  0
 24 26  1  0  0  0  0
 24 52  1  0  0  0  0
 25 63  1  0  0  0  0
 26 76  1  0  0  0  0
 27 84  1  0  0  0  0
 28 85  1  0  0  0  0
 29 31  2  0  0  0  0
 29 84  1  0  0  0  0
 30 86  1  0  0  0  0
 31 87  1  0  0  0  0
 32 68  2  0  0  0  0
 33 69  1  0  0  0  0
 33 72  1  0  0  0  0
 34 73  1  0  0  0  0
 34 79  2  0  0  0  0
 35 49  1  0  0  0  0
 35 74  1  0  0  0  0
 35 80  2  0  0  0  0
 36 64  1  0  0  0  0
 36 70  1  0  0  0  0
 36 81  2  0  0  0  0
 37 65  1  0  0  0  0
 37 75  1  0  0  0  0
 37 82  2  0  0  0  0
 38 71  1  0  0  0  0
 38 76  1  0  0  0  0
 38 83  2  0  0  0  0
 39 42  1  0  0  0  0
 40 49  1  0  0  0  0
 41 70  1  0  0  0  0
 42 44  1  0  0  0  0
 43 45  1  0  0  0  0
 43 46  1  0  0  0  0
 44 48  1  0  0  0  0
 45 50  1  0  0  0  0
 46 71  1  0  0  0  0
 47 50  1  0  0  0  0
 47 71  1  0  0  0  0
 48 74  1  0  0  0  0
 49 70  1  0  0  0  0
 50 69  1  0  0  0  0
 53 63  1  0  0  0  0
 54 65  1  0  0  0  0
 55 66  1  0  0  0  0
 56 67  1  0  0  0  0
 57 67  1  0  0  0  0
 58 67  1  0  0  0  0
 59 76  1  0  0  0  0
 60 77  1  0  0  0  0
 61 63  1  0  0  0  0
 61 78  1  0  0  0  0
 62 66  1  0  0  0  0
 62 78  1  0  0  0  0
 64 67  1  0  0  0  0
 64 75  1  0  0  0  0
 65 77  1  0  0  0  0
 66 85  1  0  0  0  0
 68 69  1  0  0  0  0
M  CHG  2  77   1  78   1
M  ISO  4  38 100  66 101  76 100  85 101
M  END
> <Batch ID>
0099

> <Smiles>
CNC(C)C(=O)NC(C(=O)N1Cc2cc([101O:1][101CH:1](C)CNCC(C)c3cc([100N:0](C)[100C:0](=O)N4CCCC(n5nc(-c6ccc(Oc7ccc(F)cc7F)cc6)c(C(N)=O)c5N)C4)c(C)cc3C)ccc2CC1C(=O)NC1CCCc2ccccc21)C(C)(C)C

> <Shape>
0.274

> <Color>
0.084

> <Negative vol penalty>
0.000

$$$$

  -OEChem-04052319313D

 86 94  0     1  0  0  0  0  0999 V2000
  -17.3477  -25.6083   19.9510 C   0  0  0  0  0  0  0  0  0  0  0  0
  -17.7231  -24.7978   21.0175 C   0  0  0  0  0  0  0  0  0  0  0  0
  -23.1211   -9.8286   19.9028 C   0  0  0  0  0  0  0  0  0  0  0  0
  -23.8786   -9.8175   22.1970 C   0  0  0  0  0  0  0  0  0  0  0  0
  -18.3227  -26.2373   19.1779 C   0  0  0  0  0  0  0  0  0  0  0  0
  -19.0740  -24.6150   21.3110 C   0  0  0  0  0  0  0  0  0  0  0  0
  -23.4913  -23.5697   26.8528 C   0  0  0  0  0  0  0  0  0  0  0  0
  -22.4082   -8.6519   20.1325 C   0  0  0  0  0  0  0  0  0  0  0  0
  -23.1656   -8.6409   22.4267 C   0  0  0  0  0  0  0  0  0  0  0  0
  -24.4988  -22.7053   27.2789 C   0  0  0  0  0  0  0  0  0  0  0  0
  -19.9594   -7.7470   23.0115 C   0  0  0  0  0  0  0  0  0  0  0  0
  -19.2028   -7.6672   24.1805 C   0  0  0  0  0  0  0  0  0  0  0  0
  -26.0933  -23.9054   25.9238 C   0  0  0  0  0  0  0  0  0  0  0  0
  -31.3157  -19.5019   22.8651 C   0  0  0  0  0  0  0  0  0  0  0  0
  -20.4950   -5.7516   24.8862 C   0  0  0  0  0  0  0  0  0  0  0  0
  -23.8564  -10.4114   20.9350 C   0  0  0  0  0  0  0  0  0  0  0  0
  -24.1306  -12.9464   20.8576 C   0  0  0  0  0  0  0  0  0  0  0  0
  -19.6859  -26.0698   19.4680 C   0  0  0  0  0  0  0  0  0  0  0  0
  -23.7756  -24.6034   25.9489 C   0  0  0  0  0  0  0  0  0  0  0  0
  -20.0682  -25.2413   20.5403 C   0  0  0  0  0  0  0  0  0  0  0  0
  -25.0882  -24.7831   25.4897 C   0  0  0  0  0  0  0  0  0  0  0  0
  -30.0611  -19.0534   23.2626 C   0  0  0  0  0  0  0  0  0  0  0  0
  -29.5996  -17.8174   22.8237 C   0  0  0  0  0  0  0  0  0  0  0  0
  -22.4304   -8.0581   21.3944 C   0  0  0  0  0  0  0  0  0  0  0  0
  -25.7995  -22.8713   26.8122 C   0  0  0  0  0  0  0  0  0  0  0  0
  -20.9838   -6.8290   22.7797 C   0  0  0  0  0  0  0  0  0  0  0  0
  -19.4706   -6.6696   25.1179 C   0  0  0  0  0  0  0  0  0  0  0  0
  -21.2516   -5.8314   23.7171 C   0  0  0  0  0  0  0  0  0  0  0  0
  -24.5935  -11.6266   20.6982 C   0  0  0  0  0  0  0  0  0  0  0  0
  -32.0640  -18.6833   22.0347 C   0  0  0  0  0  0  0  0  0  0  0  0
  -30.4246  -17.0742   21.9950 C   0  0  0  0  0  0  0  0  0  0  0  0
  -25.2026  -13.7308   20.5084 C   0  0  0  0  0  0  0  0  0  0  0  0
  -22.8464  -13.4210   21.2834 C   0  0  0  0  0  0  0  0  0  0  0  0
  -22.8147  -25.3410   23.0102 C   0  0  0  0  0  0  0  0  0  0  0  0
  -24.5557  -28.0272   23.5350 C   0  0  0  0  0  0  0  0  0  0  0  0
  -27.0952  -29.5480   25.2335 C   0  0  0  0  0  0  0  0  0  0  0  0
  -30.6386  -14.9193   20.7078 C   0  0  0  0  0  0  0  0  0  0  0  0
  -20.7049  -26.7323   18.5750 C   0  0  0  0  0  0  0  0  0  0  0  0
  -22.6830  -25.5438   25.5196 C   0  0  0  0  0  0  0  0  0  0  0  0
  -25.4495  -25.8899   24.5342 C   0  0  0  0  0  0  0  0  0  0  0  0
  -22.1040  -26.7867   19.1830 C   0  0  0  0  0  0  0  0  0  0  0  0
  -29.5914  -12.5165   18.2981 C   0  0  0  0  0  0  0  0  0  0  0  0
  -22.4816  -25.4327   19.7755 C   0  0  0  0  0  0  0  0  0  0  0  0
  -28.1597  -12.1793   18.7208 C   0  0  0  0  0  0  0  0  0  0  0  0
  -30.4990  -12.7495   19.5046 C   0  0  0  0  0  0  0  0  0  0  0  0
  -28.5721  -13.3995   20.8952 C   0  0  0  0  0  0  0  0  0  0  0  0
  -21.5228  -25.0382   20.9054 C   0  0  1  0  0  0  0  0  0  0  0  0
  -22.9830  -26.2451   24.1984 C   0  0  1  0  0  0  0  0  0  0  0  0
  -27.6053  -13.2200   19.7134 C   0  0  2  0  0  0  0  0  0  0  0  0
  -28.2559  -17.3183   23.2422 C   0  0  0  0  0  0  0  0  0  0  0  0
  -34.5194  -18.6903   22.5421 C   0  0  0  0  0  0  0  0  0  0  0  0
  -28.3070  -31.7376   25.4192 C   0  0  0  0  0  0  0  0  0  0  0  0
  -26.0329  -27.4276   20.9334 C   0  0  0  0  0  0  0  0  0  0  0  0
  -27.8044  -29.0462   21.6475 C   0  0  0  0  0  0  0  0  0  0  0  0
  -25.4679  -29.8390   21.2803 C   0  0  0  0  0  0  0  0  0  0  0  0
  -30.7978  -20.8928   25.8594 C   0  0  0  0  0  0  0  0  0  0  0  0
  -30.0451  -18.5404   26.1496 C   0  0  0  0  0  0  0  0  0  0  0  0
  -26.3236  -29.8668   28.0728 C   0  0  0  0  0  0  0  0  0  0  0  0
  -29.2214  -19.9252   24.1689 C   0  0  0  0  0  0  0  0  0  0  0  0
  -33.4147  -19.1331   21.5869 C   0  0  0  0  0  0  0  0  0  0  0  0
  -28.4221  -20.3954   26.5942 C   0  0  0  0  0  0  0  0  0  0  0  0
  -27.8562  -21.7854   26.3156 C   0  0  0  0  0  0  0  0  0  1  0  0
  -25.9936  -28.4298   23.3125 C   0  0  1  0  0  0  0  0  0  0  0  0
  -27.1683  -30.8826   25.9531 C   0  0  2  0  0  0  0  0  0  0  0  0
  -26.3178  -28.6635   21.8099 C   0  0  0  0  0  0  0  0  0  0  0  0
  -29.5937  -19.9412   25.6826 C   0  0  0  0  0  0  0  0  0  0  0  0
  -25.8609  -11.5716   20.2801 N   0  0  0  0  0  0  0  0  0  0  0  0
  -31.6493  -17.4767   21.5877 N   0  0  0  0  0  0  0  0  0  0  0  0
  -26.2034  -12.8668   20.1737 N   0  0  0  0  0  0  0  0  0  0  0  0
  -24.3451  -26.7795   24.1388 N   0  0  0  0  0  0  0  0  0  0  0  0
  -29.9118  -13.7502   20.3983 N   0  0  0  0  0  0  0  0  0  0  0  0
  -25.3773  -15.0685   20.4579 N   0  0  0  0  0  0  0  0  0  0  0  0
  -21.8588  -12.4795   21.6041 N   0  0  0  0  0  0  0  0  0  0  0  0
  -29.9660  -15.8129   21.5407 N   0  0  0  0  0  0  0  0  0  0  0  0
  -21.8462  -25.7594   22.1177 N   0  0  0  0  0  0  0  0  0  0  0  0
  -26.2282  -29.5922   24.1622 N   0  0  0  0  0  0  0  0  0  0  0  0
  -27.3827  -30.6729   27.4129 N   0  3  0  0  0  0  0  0  0  0  0  0
  -22.5772  -14.6437   21.3610 O   0  0  0  0  0  0  0  0  0  0  0  0
  -23.5127  -24.3389   22.9097 O   0  0  0  0  0  0  0  0  0  0  0  0
  -23.6529  -28.7948   23.1924 O   0  0  0  0  0  0  0  0  0  0  0  0
  -27.7453  -28.5657   25.5841 O   0  0  0  0  0  0  0  0  0  0  0  0
  -31.7632  -15.1260   20.2446 O   0  0  0  0  0  0  0  0  0  0  0  0
  -21.7346   -6.9100   21.6189 O   0  0  0  0  0  0  0  0  0  0  0  0
  -26.7846  -22.0286   27.2260 O   0  0  0  0  0  0  0  0  0  1  0  0
  -18.7449   -6.5940   26.2412 F   0  0  0  0  0  0  0  0  0  0  0  0
  -22.2352   -4.9474   23.5005 F   0  0  0  0  0  0  0  0  0  0  0  0
  1  2  1  0  0  0  0
  1  5  2  0  0  0  0
  2  6  2  0  0  0  0
  3  8  2  0  0  0  0
  3 16  1  0  0  0  0
  4  9  1  0  0  0  0
  4 16  2  0  0  0  0
  5 18  1  0  0  0  0
  6 20  1  0  0  0  0
  7 10  2  0  0  0  0
  7 19  1  0  0  0  0
  8 24  1  0  0  0  0
  9 24  2  0  0  0  0
 10 25  1  0  0  0  0
 11 12  2  0  0  0  0
 11 26  1  0  0  0  0
 12 27  1  0  0  0  0
 13 21  1  0  0  0  0
 13 25  2  0  0  0  0
 14 22  2  0  0  0  0
 14 30  1  0  0  0  0
 15 27  2  0  0  0  0
 15 28  1  0  0  0  0
 16 29  1  0  0  0  0
 17 29  1  0  0  0  0
 17 32  2  0  0  0  0
 17 33  1  0  0  0  0
 18 20  2  0  0  0  0
 18 38  1  0  0  0  0
 19 21  2  0  0  0  0
 19 39  1  0  0  0  0
 20 47  1  0  0  0  0
 21 40  1  0  0  0  0
 22 23  1  0  0  0  0
 22 59  1  0  0  0  0
 23 31  2  0  0  0  0
 23 50  1  0  0  0  0
 24 83  1  0  0  0  0
 25 84  1  0  0  0  0
 26 28  2  0  0  0  0
 26 83  1  0  0  0  0
 27 85  1  0  0  0  0
 28 86  1  0  0  0  0
 29 67  2  0  0  0  0
 30 60  1  0  0  0  0
 30 68  2  0  0  0  0
 31 68  1  0  0  0  0
 31 74  1  0  0  0  0
 32 69  1  0  0  0  0
 32 72  1  0  0  0  0
 33 73  1  0  0  0  0
 33 78  2  0  0  0  0
 34 48  1  0  0  0  0
 34 75  1  0  0  0  0
 34 79  2  0  0  0  0
 35 63  1  0  0  0  0
 35 70  1  0  0  0  0
 35 80  2  0  0  0  0
 36 64  1  0  0  0  0
 36 76  1  0  0  0  0
 36 81  2  0  0  0  0
 37 71  1  0  0  0  0
 37 74  1  0  0  0  0
 37 82  2  0  0  0  0
 38 41  1  0  0  0  0
 39 48  1  0  0  0  0
 40 70  1  0  0  0  0
 41 43  1  0  0  0  0
 42 44  1  0  0  0  0
 42 45  1  0  0  0  0
 43 47  1  0  0  0  0
 44 49  1  0  0  0  0
 45 71  1  0  0  0  0
 46 49  1  0  0  0  0
 46 71  1  0  0  0  0
 47 75  1  0  0  0  0
 48 70  1  0  0  0  0
 49 69  1  0  0  0  0
 51 60  1  0  0  0  0
 52 64  1  0  0  0  0
 53 65  1  0  0  0  0
 54 65  1  0  0  0  0
 55 65  1  0  0  0  0
 56 66  1  0  0  0  0
 57 66  1  0  0  0  0
 58 77  1  0  0  0  0
 59 66  1  0  0  0  0
 61 62  1  0  0  0  0
 61 66  1  0  0  0  0
 62 84  1  0  0  0  0
 63 65  1  0  0  0  0
 63 76  1  0  0  0  0
 64 77  1  0  0  0  0
 67 69  1  0  0  0  0
M  CHG  1  77   1
M  ISO  4  37 100  62 101  74 100  84 101
M  END
> <Batch ID>
0099

> <Smiles>
CCc1cc(CC(C)(C)C[101CH2:1][101O:1]c2ccc3c(c2)CN(C(=O)C(NC(=O)C(C)NC)C(C)(C)C)C(C(=O)NC2CCCc4ccccc42)C3)c(C)c([100NH:0][100C:0](=O)N2CCCC(n3nc(-c4ccc(Oc5ccc(F)cc5F)cc4)c(C(N)=O)c3N)C2)n1

> <Shape>
0.247

> <Color>
0.208

> <Negative vol penalty>
0.000

$$$$

  -OEChem-04052319313D

 84 91  0     1  0  0  0  0  0999 V2000
  -27.3651  -29.1318   23.9909 C   0  0  0  0  0  0  0  0  0  0  0  0
  -27.6170  -27.7638   23.9683 C   0  0  0  0  0  0  0  0  0  0  0  0
  -22.6606  -10.2003   20.1746 C   0  0  0  0  0  0  0  0  0  0  0  0
  -24.3393   -9.4100   21.7220 C   0  0  0  0  0  0  0  0  0  0  0  0
  -28.4204  -30.0316   24.1341 C   0  0  0  0  0  0  0  0  0  0  0  0
  -28.9248  -27.2948   24.0877 C   0  0  0  0  0  0  0  0  0  0  0  0
  -29.3052  -23.3968   27.2980 C   0  0  0  0  0  0  0  0  0  0  0  0
  -21.9316   -9.0266   20.3661 C   0  0  0  0  0  0  0  0  0  0  0  0
  -23.6103   -8.2364   21.9135 C   0  0  0  0  0  0  0  0  0  0  0  0
  -28.9068  -22.1454   26.8301 C   0  0  0  0  0  0  0  0  0  0  0  0
  -20.8922   -7.2520   23.6637 C   0  0  0  0  0  0  0  0  0  0  0  0
  -20.7290   -6.7985   24.9727 C   0  0  0  0  0  0  0  0  0  0  0  0
  -31.2146  -21.5656   26.4338 C   0  0  0  0  0  0  0  0  0  0  0  0
  -21.8481   -4.7360   24.3976 C   0  0  0  0  0  0  0  0  0  0  0  0
  -23.8645  -10.3920   20.8525 C   0  0  0  0  0  0  0  0  0  0  0  0
  -24.1933  -12.9210   20.9127 C   0  0  0  0  0  0  0  0  0  0  0  0
  -29.7407  -29.5730   24.2651 C   0  0  0  0  0  0  0  0  0  0  0  0
  -30.6628  -23.7467   27.3272 C   0  0  0  0  0  0  0  0  0  0  0  0
  -29.9990  -28.1894   24.2314 C   0  0  0  0  0  0  0  0  0  0  0  0
  -31.6278  -22.8211   26.9049 C   0  0  0  0  0  0  0  0  0  0  0  0
  -22.4064   -8.0446   21.2355 C   0  0  0  0  0  0  0  0  0  0  0  0
  -29.8613  -21.2306   26.3952 C   0  0  0  0  0  0  0  0  0  0  0  0
  -21.5333   -6.4474   22.7217 C   0  0  0  0  0  0  0  0  0  0  0  0
  -21.2070   -5.5405   25.3396 C   0  0  0  0  0  0  0  0  0  0  0  0
  -22.0113   -5.1894   23.0887 C   0  0  0  0  0  0  0  0  0  0  0  0
  -24.6183  -11.6039   20.6547 C   0  0  0  0  0  0  0  0  0  0  0  0
  -25.2667  -13.7029   20.5621 C   0  0  0  0  0  0  0  0  0  0  0  0
  -22.9404  -13.3952   21.4236 C   0  0  0  0  0  0  0  0  0  0  0  0
  -32.4319  -25.9890   25.9321 C   0  0  0  0  0  0  0  0  0  0  0  0
  -34.7565  -24.8034   27.8590 C   0  0  0  0  0  0  0  0  0  0  0  0
  -30.7756  -14.6653   20.6858 C   0  0  0  0  0  0  0  0  0  0  0  0
  -35.9547  -22.1718   29.6716 C   0  0  0  0  0  0  0  0  0  0  0  0
  -30.8537  -30.5854   24.3701 C   0  0  0  0  0  0  0  0  0  0  0  0
  -31.0781  -25.0906   27.8598 C   0  0  0  0  0  0  0  0  0  0  0  0
  -33.0994  -23.1403   26.9351 C   0  0  0  0  0  0  0  0  0  0  0  0
  -32.1703  -29.9938   24.8669 C   0  0  0  0  0  0  0  0  0  0  0  0
  -29.5120  -12.5594   18.0765 C   0  0  0  0  0  0  0  0  0  0  0  0
  -32.4846  -28.6962   24.1292 C   0  0  0  0  0  0  0  0  0  0  0  0
  -28.1026  -12.2069   18.5505 C   0  0  0  0  0  0  0  0  0  0  0  0
  -30.4824  -12.6752   19.2478 C   0  0  0  0  0  0  0  0  0  0  0  0
  -28.6386  -13.2884   20.7794 C   0  0  0  0  0  0  0  0  0  0  0  0
  -31.4013  -27.6410   24.3831 C   0  0  1  0  0  0  0  0  0  0  0  0
  -32.4515  -25.5318   27.3633 C   0  0  1  0  0  0  0  0  0  0  0  0
  -27.6199  -13.1920   19.6299 C   0  0  2  0  0  0  0  0  0  0  0  0
  -32.7210  -15.6752   24.5685 C   0  0  0  0  0  0  0  0  0  0  0  0
  -37.8968  -21.4903   31.1072 C   0  0  0  0  0  0  0  0  0  0  0  0
  -36.4808  -24.4700   25.3638 C   0  0  0  0  0  0  0  0  0  0  0  0
  -37.9718  -22.9511   26.6820 C   0  0  0  0  0  0  0  0  0  0  0  0
  -37.7019  -25.3342   27.3679 C   0  0  0  0  0  0  0  0  0  0  0  0
  -29.5389  -17.4338   27.3043 C   0  0  0  0  0  0  0  0  0  0  0  0
  -27.0480  -17.3709   27.1332 C   0  0  0  0  0  0  0  0  0  0  0  0
  -28.8414  -19.0521   21.6390 C   0  0  0  0  0  0  0  0  0  0  0  0
  -34.2106  -21.7233   32.0202 C   0  0  0  0  0  0  0  0  0  0  0  0
  -27.4075  -17.7550   24.0312 C   0  0  0  0  0  0  0  0  0  0  0  0
  -28.4932  -17.3443   25.0347 C   0  0  0  0  0  0  0  0  0  0  0  0
  -27.7060  -17.1874   22.6420 C   0  0  0  0  0  0  0  0  0  0  0  0
  -29.5212  -16.8083   21.1143 C   0  0  0  0  0  0  0  0  0  0  0  0
  -31.6379  -15.0762   23.6981 C   0  0  0  0  0  0  0  0  0  0  0  0
  -28.2820  -19.4551   26.4908 C   0  0  0  0  0  0  0  0  0  1  0  0
  -35.7953  -23.7150   27.7358 C   0  0  1  0  0  0  0  0  0  0  0  0
  -30.1856  -15.5800   21.7294 C   0  0  2  0  0  0  0  0  0  0  0  0
  -36.4984  -22.0876   31.0864 C   0  0  2  0  0  0  0  0  0  0  0  0
  -36.9597  -24.1120   26.7849 C   0  0  0  0  0  0  0  0  0  0  0  0
  -28.3287  -17.9120   26.4729 C   0  0  0  0  0  0  0  0  0  0  0  0
  -25.8643  -11.5484   20.1770 N   0  0  0  0  0  0  0  0  0  0  0  0
  -26.2316  -12.8403   20.1319 N   0  0  0  0  0  0  0  0  0  0  0  0
  -33.4549  -24.4697   27.4585 N   0  0  0  0  0  0  0  0  0  0  0  0
  -29.9774  -13.6028   20.2616 N   0  0  0  0  0  0  0  0  0  0  0  0
  -25.4698  -15.0374   20.5828 N   0  0  0  0  0  0  0  0  0  0  0  0
  -22.7933  -13.5320   22.8107 N   0  0  0  0  0  0  0  0  0  0  0  0
  -31.5733  -27.0444   25.6903 N   0  0  0  0  0  0  0  0  0  0  0  0
  -36.2166  -23.3970   29.0958 N   0  0  0  0  0  0  0  0  0  0  0  0
  -28.9851  -17.6891   22.1534 N   0  0  1  0  0  0  0  0  0  0  0  0
  -35.6122  -21.2389   31.9322 N   0  3  0  0  0  0  0  0  0  0  0  0
  -31.2851  -16.0398   22.6236 N   0  3  0  0  0  0  0  0  0  0  0  0
  -21.9743  -13.6732   20.6734 O   0  0  0  0  0  0  0  0  0  0  0  0
  -33.1441  -25.4268   25.1085 O   0  0  0  0  0  0  0  0  0  0  0  0
  -35.0862  -25.9068   28.3011 O   0  0  0  0  0  0  0  0  0  0  0  0
  -31.9110  -14.8917   20.2594 O   0  0  0  0  0  0  0  0  0  0  0  0
  -35.3605  -21.2422   29.1299 O   0  0  0  0  0  0  0  0  0  0  0  0
  -21.6952   -6.8994   21.4228 O   0  0  0  0  0  0  0  0  0  0  0  0
  -29.4752  -20.0087   25.9373 O   0  0  0  0  0  0  0  0  0  1  0  0
  -21.0516   -5.1058   26.5970 F   0  0  0  0  0  0  0  0  0  0  0  0
  -22.6290   -4.4125   22.1884 F   0  0  0  0  0  0  0  0  0  0  0  0
  1  2  1  0  0  0  0
  1  5  2  0  0  0  0
  2  6  2  0  0  0  0
  3  8  2  0  0  0  0
  3 15  1  0  0  0  0
  4  9  1  0  0  0  0
  4 15  2  0  0  0  0
  5 17  1  0  0  0  0
  6 19  1  0  0  0  0
  7 10  2  0  0  0  0
  7 18  1  0  0  0  0
  8 21  1  0  0  0  0
  9 21  2  0  0  0  0
 10 22  1  0  0  0  0
 11 12  2  0  0  0  0
 11 23  1  0  0  0  0
 12 24  1  0  0  0  0
 13 20  1  0  0  0  0
 13 22  2  0  0  0  0
 14 24  2  0  0  0  0
 14 25  1  0  0  0  0
 15 26  1  0  0  0  0
 16 26  1  0  0  0  0
 16 27  2  0  0  0  0
 16 28  1  0  0  0  0
 17 19  2  0  0  0  0
 17 33  1  0  0  0  0
 18 20  2  0  0  0  0
 18 34  1  0  0  0  0
 19 42  1  0  0  0  0
 20 35  1  0  0  0  0
 21 81  1  0  0  0  0
 22 82  1  0  0  0  0
 23 25  2  0  0  0  0
 23 81  1  0  0  0  0
 24 83  1  0  0  0  0
 25 84  1  0  0  0  0
 26 65  2  0  0  0  0
 27 66  1  0  0  0  0
 27 69  1  0  0  0  0
 28 70  1  0  0  0  0
 28 76  2  0  0  0  0
 29 43  1  0  0  0  0
 29 71  1  0  0  0  0
 29 77  2  0  0  0  0
 30 60  1  0  0  0  0
 30 67  1  0  0  0  0
 30 78  2  0  0  0  0
 31 61  1  0  0  0  0
 31 68  1  0  0  0  0
 31 79  2  0  0  0  0
 32 62  1  0  0  0  0
 32 72  1  0  0  0  0
 32 80  2  0  0  0  0
 33 36  1  0  0  0  0
 34 43  1  0  0  0  0
 35 67  1  0  0  0  0
 36 38  1  0  0  0  0
 37 39  1  0  0  0  0
 37 40  1  0  0  0  0
 38 42  1  0  0  0  0
 39 44  1  0  0  0  0
 40 68  1  0  0  0  0
 41 44  1  0  0  0  0
 41 68  1  0  0  0  0
 42 71  1  0  0  0  0
 43 67  1  0  0  0  0
 44 66  1  0  0  0  0
 45 58  1  0  0  0  0
 46 62  1  0  0  0  0
 47 63  1  0  0  0  0
 48 63  1  0  0  0  0
 49 63  1  0  0  0  0
 50 64  1  0  0  0  0
 51 64  1  0  0  0  0
 52 73  1  0  0  0  0
 53 74  1  0  0  0  0
 54 55  1  0  0  0  0
 54 56  1  0  0  0  0
 55 64  1  0  0  0  0
 56 73  1  0  0  0  0
 57 61  1  0  0  0  0
 57 73  1  0  0  0  0
 58 75  1  0  0  0  0
 59 64  1  0  0  0  0
 59 82  1  0  0  0  0
 60 63  1  0  0  0  0
 60 72  1  0  0  0  0
 61 75  1  0  0  0  0
 62 74  1  0  0  0  0
 65 66  1  0  0  0  0
M  CHG  2  74   1  75   1
M  ISO  4  31 100  59 101  61 100  82 101
M  END
> <Batch ID>
0099

> <Smiles>
CCN[100CH:0](CN(C)CCCC(C)(C)[101CH2:1][101O:1]c1ccc2c(c1)CN(C(=O)C(NC(=O)C(C)NC)C(C)(C)C)C(C(=O)NC1CCCc3ccccc31)C2)[100C:0](=O)N1CCCC(n2nc(-c3ccc(Oc4ccc(F)cc4F)cc3)c(C(N)=O)c2N)C1

> <Shape>
0.202

> <Color>
0.178

> <Negative vol penalty>
0.000

$$$$

  -OEChem-04052319313D

 84 92  0     1  0  0  0  0  0999 V2000
  -37.5150  -26.0230   20.1580 C   0  0  0  0  0  0  0  0  0  0  0  0
  -36.7757  -24.8910   19.8302 C   0  0  0  0  0  0  0  0  0  0  0  0
  -23.1191   -9.8435   20.0394 C   0  0  0  0  0  0  0  0  0  0  0  0
  -23.8799   -9.9782   22.3285 C   0  0  0  0  0  0  0  0  0  0  0  0
  -36.8671  -27.1673   20.6213 C   0  0  0  0  0  0  0  0  0  0  0  0
  -35.3880  -24.9023   19.9667 C   0  0  0  0  0  0  0  0  0  0  0  0
  -31.3146  -22.0423   16.3983 C   0  0  0  0  0  0  0  0  0  0  0  0
  -22.3959   -8.6912   20.3475 C   0  0  0  0  0  0  0  0  0  0  0  0
  -23.1566   -8.8259   22.6366 C   0  0  0  0  0  0  0  0  0  0  0  0
  -30.6282  -20.8369   16.5382 C   0  0  0  0  0  0  0  0  0  0  0  0
  -19.9434   -8.0022   23.2826 C   0  0  0  0  0  0  0  0  0  0  0  0
  -19.1879   -8.0072   24.4551 C   0  0  0  0  0  0  0  0  0  0  0  0
  -28.7325  -22.0276   17.4370 C   0  0  0  0  0  0  0  0  0  0  0  0
  -20.4638   -6.1312   25.2854 C   0  0  0  0  0  0  0  0  0  0  0  0
  -23.8611  -10.4869   21.0299 C   0  0  0  0  0  0  0  0  0  0  0  0
  -24.1581  -13.0086   20.7837 C   0  0  0  0  0  0  0  0  0  0  0  0
  -35.4699  -27.1959   20.7543 C   0  0  0  0  0  0  0  0  0  0  0  0
  -30.7182  -23.2503   16.7875 C   0  0  0  0  0  0  0  0  0  0  0  0
  -34.7209  -26.0476   20.4335 C   0  0  0  0  0  0  0  0  0  0  0  0
  -29.4125  -23.2473   17.2986 C   0  0  0  0  0  0  0  0  0  0  0  0
  -26.9991  -18.6187   19.9732 C   0  0  0  0  0  0  0  0  0  0  0  0
  -28.2991  -18.1307   19.6540 C   0  0  0  0  0  0  0  0  0  0  0  0
  -22.4146   -8.1825   21.6461 C   0  0  0  0  0  0  0  0  0  0  0  0
  -29.3381  -20.8291   17.0603 C   0  0  0  0  0  0  0  0  0  0  0  0
  -20.9591   -7.0615   23.1115 C   0  0  0  0  0  0  0  0  0  0  0  0
  -19.4481   -7.0718   25.4565 C   0  0  0  0  0  0  0  0  0  0  0  0
  -21.2193   -6.1261   24.1129 C   0  0  0  0  0  0  0  0  0  0  0  0
  -24.6088  -11.6769   20.7121 C   0  0  0  0  0  0  0  0  0  0  0  0
  -26.9368  -19.1272   21.2519 C   0  0  0  0  0  0  0  0  0  0  0  0
  -29.1811  -18.2849   20.7010 C   0  0  0  0  0  0  0  0  0  0  0  0
  -25.2366  -13.7582   20.3821 C   0  0  0  0  0  0  0  0  0  0  0  0
  -22.8788  -13.5221   21.1782 C   0  0  0  0  0  0  0  0  0  0  0  0
  -31.3869  -25.4904   18.9412 C   0  0  0  0  0  0  0  0  0  0  0  0
  -28.8993  -27.0297   17.5396 C   0  0  0  0  0  0  0  0  0  0  0  0
  -26.0214  -26.8244   15.7168 C   0  0  0  0  0  0  0  0  0  0  0  0
  -30.7593  -14.8112   20.6189 C   0  0  0  0  0  0  0  0  0  0  0  0
  -34.8183  -28.4400   21.3041 C   0  0  0  0  0  0  0  0  0  0  0  0
  -31.4618  -24.5450   16.6053 C   0  0  0  0  0  0  0  0  0  0  0  0
  -28.7199  -24.5191   17.7125 C   0  0  0  0  0  0  0  0  0  0  0  0
  -33.3117  -28.4953   21.0644 C   0  0  0  0  0  0  0  0  0  0  0  0
  -29.5939  -12.3877   18.2376 C   0  0  0  0  0  0  0  0  0  0  0  0
  -32.6649  -27.1611   21.4227 C   0  0  0  0  0  0  0  0  0  0  0  0
  -28.1715  -12.0708   18.6936 C   0  0  0  0  0  0  0  0  0  0  0  0
  -30.5103  -12.6541   19.4267 C   0  0  0  0  0  0  0  0  0  0  0  0
  -28.5998  -13.4355   20.7916 C   0  0  0  0  0  0  0  0  0  0  0  0
  -33.2118  -26.0293   20.5444 C   0  0  1  0  0  0  0  0  0  0  0  0
  -30.9517  -25.6599   17.5131 C   0  0  1  0  0  0  0  0  0  0  0  0
  -27.6340  -13.1739   19.6204 C   0  0  2  0  0  0  0  0  0  0  0  0
  -25.8463  -18.5850   19.0389 C   0  0  0  0  0  0  0  0  0  0  0  0
  -25.4875  -21.1569   21.5095 C   0  0  0  0  0  0  0  0  0  0  0  0
  -31.5468  -19.0972   21.0703 C   0  0  0  0  0  0  0  0  0  0  0  0
  -24.1896  -28.2482   14.7605 C   0  0  0  0  0  0  0  0  0  0  0  0
  -27.6687  -27.3080   20.3177 C   0  0  0  0  0  0  0  0  0  0  0  0
  -25.4852  -27.8515   19.2198 C   0  0  0  0  0  0  0  0  0  0  0  0
  -27.4572  -29.3397   18.8747 C   0  0  0  0  0  0  0  0  0  0  0  0
  -26.6702  -26.0035   12.9483 C   0  0  0  0  0  0  0  0  0  0  0  0
  -28.6691  -17.5178   18.3252 C   0  0  0  0  0  0  0  0  0  0  0  0
  -25.7817  -19.7238   21.9599 C   0  0  0  0  0  0  0  0  0  0  0  0
  -29.4468  -18.4835   17.4377 C   0  0  0  0  0  0  0  0  0  1  0  0
  -30.6117  -17.9115   20.7743 C   0  0  1  0  0  0  0  0  0  0  0  0
  -27.4064  -27.0710   17.7601 C   0  0  1  0  0  0  0  0  0  0  0  0
  -25.5405  -27.5990   14.5030 C   0  0  2  0  0  0  0  0  0  0  0  0
  -27.0179  -27.8682   19.0372 C   0  0  0  0  0  0  0  0  0  0  0  0
  -25.8750  -11.5827   20.2973 N   0  0  0  0  0  0  0  0  0  0  0  0
  -26.2290  -12.8648   20.1047 N   0  0  0  0  0  0  0  0  0  0  0  0
  -29.4908  -25.7587   17.5208 N   0  0  0  0  0  0  0  0  0  0  0  0
  -29.9629  -13.6962   20.2999 N   0  0  0  0  0  0  0  0  0  0  0  0
  -25.4233  -15.0879   20.2425 N   0  0  0  0  0  0  0  0  0  0  0  0
  -21.8834  -12.6131   21.5617 N   0  0  0  0  0  0  0  0  0  0  0  0
  -32.6067  -26.0718   19.2305 N   0  0  0  0  0  0  0  0  0  0  0  0
  -26.8262  -27.5955   16.5286 N   0  0  0  0  0  0  0  0  0  0  0  0
  -30.1641  -15.7517   21.4468 N   0  0  0  0  0  0  0  0  0  0  0  0
  -25.4095  -26.6916   13.3280 N   0  3  0  0  0  0  0  0  0  0  0  0
  -30.9064  -16.8692   21.7861 N   0  3  0  0  0  0  0  0  0  0  0  0
  -22.6208  -14.7497   21.1745 O   0  0  0  0  0  0  0  0  0  0  0  0
  -30.6685  -24.8789   19.7232 O   0  0  0  0  0  0  0  0  0  0  0  0
  -29.5168  -28.0860   17.3824 O   0  0  0  0  0  0  0  0  0  0  0  0
  -25.7111  -25.6538   15.9258 O   0  0  0  0  0  0  0  0  0  0  0  0
  -31.9105  -14.9522   20.1915 O   0  0  0  0  0  0  0  0  0  0  0  0
  -21.7089   -7.0583   21.9472 O   0  0  0  0  0  0  0  0  0  0  0  0
  -28.6661  -19.6538   17.1984 O   0  0  0  0  0  0  0  0  0  1  0  0
  -18.7235   -7.0778   26.5830 F   0  0  0  0  0  0  0  0  0  0  0  0
  -22.1946   -5.2207   23.9547 F   0  0  0  0  0  0  0  0  0  0  0  0
  -28.4414  -19.0152   22.0618 S   0  0  0  0  0  0  0  0  0  0  0  0
  1  2  1  0  0  0  0
  1  5  2  0  0  0  0
  2  6  2  0  0  0  0
  3  8  2  0  0  0  0
  3 15  1  0  0  0  0
  4  9  1  0  0  0  0
  4 15  2  0  0  0  0
  5 17  1  0  0  0  0
  6 19  1  0  0  0  0
  7 10  2  0  0  0  0
  7 18  1  0  0  0  0
  8 23  1  0  0  0  0
  9 23  2  0  0  0  0
 10 24  1  0  0  0  0
 11 12  2  0  0  0  0
 11 25  1  0  0  0  0
 12 26  1  0  0  0  0
 13 20  1  0  0  0  0
 13 24  2  0  0  0  0
 14 26  2  0  0  0  0
 14 27  1  0  0  0  0
 15 28  1  0  0  0  0
 16 28  1  0  0  0  0
 16 31  2  0  0  0  0
 16 32  1  0  0  0  0
 17 19  2  0  0  0  0
 17 37  1  0  0  0  0
 18 20  2  0  0  0  0
 18 38  1  0  0  0  0
 19 46  1  0  0  0  0
 20 39  1  0  0  0  0
 21 22  1  0  0  0  0
 21 29  2  0  0  0  0
 21 49  1  0  0  0  0
 22 30  2  0  0  0  0
 22 57  1  0  0  0  0
 23 80  1  0  0  0  0
 24 81  1  0  0  0  0
 25 27  2  0  0  0  0
 25 80  1  0  0  0  0
 26 82  1  0  0  0  0
 27 83  1  0  0  0  0
 28 64  2  0  0  0  0
 29 58  1  0  0  0  0
 29 84  1  0  0  0  0
 30 60  1  0  0  0  0
 30 84  1  0  0  0  0
 31 65  1  0  0  0  0
 31 68  1  0  0  0  0
 32 69  1  0  0  0  0
 32 75  2  0  0  0  0
 33 47  1  0  0  0  0
 33 70  1  0  0  0  0
 33 76  2  0  0  0  0
 34 61  1  0  0  0  0
 34 66  1  0  0  0  0
 34 77  2  0  0  0  0
 35 62  1  0  0  0  0
 35 71  1  0  0  0  0
 35 78  2  0  0  0  0
 36 67  1  0  0  0  0
 36 72  1  0  0  0  0
 36 79  2  0  0  0  0
 37 40  1  0  0  0  0
 38 47  1  0  0  0  0
 39 66  1  0  0  0  0
 40 42  1  0  0  0  0
 41 43  1  0  0  0  0
 41 44  1  0  0  0  0
 42 46  1  0  0  0  0
 43 48  1  0  0  0  0
 44 67  1  0  0  0  0
 45 48  1  0  0  0  0
 45 67  1  0  0  0  0
 46 70  1  0  0  0  0
 47 66  1  0  0  0  0
 48 65  1  0  0  0  0
 50 58  1  0  0  0  0
 51 60  1  0  0  0  0
 52 62  1  0  0  0  0
 53 63  1  0  0  0  0
 54 63  1  0  0  0  0
 55 63  1  0  0  0  0
 56 73  1  0  0  0  0
 57 59  1  0  0  0  0
 59 81  1  0  0  0  0
 60 74  1  0  0  0  0
 61 63  1  0  0  0  0
 61 71  1  0  0  0  0
 62 73  1  0  0  0  0
 64 65  1  0  0  0  0
 72 74  1  0  0  0  0
M  CHG  2  73   1  74   1
M  ISO  4  36 100  59 101  72 100  81 101
M  END
> <Batch ID>
0099

> <Smiles>
CCc1sc(C(C)N[100NH:0][100C:0](=O)N2CCCC(n3nc(-c4ccc(Oc5ccc(F)cc5F)cc4)c(C(N)=O)c3N)C2)c(C[101CH2:1][101O:1]c2ccc3c(c2)CN(C(=O)C(NC(=O)C(C)NC)C(C)(C)C)C(C(=O)NC2CCCc4ccccc42)C3)c1C

> <Shape>
0.270

> <Color>
0.206

> <Negative vol penalty>
0.000

$$$$

  -OEChem-04052319313D

 84 92  0     1  0  0  0  0  0999 V2000
  -19.2902  -33.7979   21.0913 C   0  0  0  0  0  0  0  0  0  0  0  0
  -20.5607  -33.4038   20.6839 C   0  0  0  0  0  0  0  0  0  0  0  0
  -26.0274  -15.2894   21.0184 C   0  0  0  0  0  0  0  0  0  0  0  0
  -27.9971  -14.5829   19.8109 C   0  0  0  0  0  0  0  0  0  0  0  0
  -18.7011  -33.2031   22.2063 C   0  0  0  0  0  0  0  0  0  0  0  0
  -21.2433  -32.4152   21.3920 C   0  0  0  0  0  0  0  0  0  0  0  0
  -25.0342  -28.1916   19.0907 C   0  0  0  0  0  0  0  0  0  0  0  0
  -25.5760  -13.9701   21.0540 C   0  0  0  0  0  0  0  0  0  0  0  0
  -27.5458  -13.2636   19.8465 C   0  0  0  0  0  0  0  0  0  0  0  0
  -26.4244  -28.1238   19.0089 C   0  0  0  0  0  0  0  0  0  0  0  0
  -26.2118  -11.1669   22.8347 C   0  0  0  0  0  0  0  0  0  0  0  0
  -25.7113  -10.6854   24.0443 C   0  0  0  0  0  0  0  0  0  0  0  0
  -26.4728  -26.8046   21.0280 C   0  0  0  0  0  0  0  0  0  0  0  0
  -23.5803  -10.2539   22.9909 C   0  0  0  0  0  0  0  0  0  0  0  0
  -31.1798  -25.6971   17.7624 C   0  0  0  0  0  0  0  0  0  0  0  0
  -27.2380  -15.5958   20.3969 C   0  0  0  0  0  0  0  0  0  0  0  0
  -28.5186  -17.6048   21.3088 C   0  0  0  0  0  0  0  0  0  0  0  0
  -19.3728  -32.1999   22.9226 C   0  0  0  0  0  0  0  0  0  0  0  0
  -24.3526  -27.5746   20.1495 C   0  0  0  0  0  0  0  0  0  0  0  0
  -20.6631  -31.8073   22.5183 C   0  0  0  0  0  0  0  0  0  0  0  0
  -25.0738  -26.8639   21.1195 C   0  0  0  0  0  0  0  0  0  0  0  0
  -31.6419  -24.4534   18.1327 C   0  0  0  0  0  0  0  0  0  0  0  0
  -26.3352  -12.9572   20.4680 C   0  0  0  0  0  0  0  0  0  0  0  0
  -27.1441  -27.4327   19.9792 C   0  0  0  0  0  0  0  0  0  0  0  0
  -25.3965  -11.1920   21.7031 C   0  0  0  0  0  0  0  0  0  0  0  0
  -24.3956  -10.2288   24.1224 C   0  0  0  0  0  0  0  0  0  0  0  0
  -24.0808  -10.7355   21.7812 C   0  0  0  0  0  0  0  0  0  0  0  0
  -31.8509  -24.4797   19.5337 C   0  0  0  0  0  0  0  0  0  0  0  0
  -27.7045  -16.9585   20.3593 C   0  0  0  0  0  0  0  0  0  0  0  0
  -31.5100  -25.7385   19.9769 C   0  0  0  0  0  0  0  0  0  0  0  0
  -28.6749  -18.8778   20.8173 C   0  0  0  0  0  0  0  0  0  0  0  0
  -29.0831  -17.0996   22.5261 C   0  0  0  0  0  0  0  0  0  0  0  0
  -22.4853  -28.5929   22.5117 C   0  0  0  0  0  0  0  0  0  0  0  0
  -22.1156  -25.4182   23.0656 C   0  0  0  0  0  0  0  0  0  0  0  0
  -23.3579  -22.2563   22.7394 C   0  0  0  0  0  0  0  0  0  0  0  0
  -29.6682  -22.3708   16.5797 C   0  0  0  0  0  0  0  0  0  0  0  0
  -18.7150  -31.6195   24.1494 C   0  0  0  0  0  0  0  0  0  0  0  0
  -22.8508  -27.6343   20.2088 C   0  0  0  0  0  0  0  0  0  0  0  0
  -24.3880  -26.1670   22.2652 C   0  0  0  0  0  0  0  0  0  0  0  0
  -19.3510  -30.3148   24.6220 C   0  0  0  0  0  0  0  0  0  0  0  0
  -26.3165  -21.2562   17.0269 C   0  0  0  0  0  0  0  0  0  0  0  0
  -20.8710  -30.4405   24.6477 C   0  0  0  0  0  0  0  0  0  0  0  0
  -26.4469  -20.0888   18.0067 C   0  0  0  0  0  0  0  0  0  0  0  0
  -27.4921  -21.3104   16.0538 C   0  0  0  0  0  0  0  0  0  0  0  0
  -28.9530  -20.1581   17.6700 C   0  0  0  0  0  0  0  0  0  0  0  0
  -21.4252  -30.7209   23.2456 C   0  0  1  0  0  0  0  0  0  0  0  0
  -22.2986  -27.4040   21.6121 C   0  0  1  0  0  0  0  0  0  0  0  0
  -27.8188  -20.0953   18.7073 C   0  0  2  0  0  0  0  0  0  0  0  0
  -33.9363  -27.2074   21.2225 C   0  0  0  0  0  0  0  0  0  0  0  0
  -30.5596  -25.5843   22.2928 C   0  0  0  0  0  0  0  0  0  0  0  0
  -23.4125  -19.7510   22.8716 C   0  0  0  0  0  0  0  0  0  0  0  0
  -22.9571  -25.9508   25.9498 C   0  0  0  0  0  0  0  0  0  0  0  0
  -23.3494  -23.4924   26.2159 C   0  0  0  0  0  0  0  0  0  0  0  0
  -21.0612  -24.3396   25.6968 C   0  0  0  0  0  0  0  0  0  0  0  0
  -22.0948  -21.9726   20.0780 C   0  0  0  0  0  0  0  0  0  0  0  0
  -31.8721  -23.3164   17.2184 C   0  0  0  0  0  0  0  0  0  0  0  0
  -32.9486  -26.3455   21.9995 C   0  0  0  0  0  0  0  0  0  0  0  0
  -30.6382  -27.9056   18.9157 C   0  0  0  0  0  0  0  0  0  0  0  0
  -29.1225  -28.0262   18.8004 C   0  0  0  0  0  0  0  0  0  1  0  0
  -31.5371  -26.3135   21.3394 C   0  0  1  0  0  0  0  0  0  0  0  0
  -22.8379  -24.3871   23.8988 C   0  0  1  0  0  0  0  0  0  0  0  0
  -22.7114  -20.9628   22.2778 C   0  0  2  0  0  0  0  0  0  0  0  0
  -22.5648  -24.5571   25.4199 C   0  0  0  0  0  0  0  0  0  0  0  0
  -27.3671  -17.7552   19.3418 N   0  0  0  0  0  0  0  0  0  0  0  0
  -31.1033  -26.4699   18.8916 N   0  0  0  0  0  0  0  0  0  0  0  0
  -27.9720  -18.9153   19.6491 N   0  0  0  0  0  0  0  0  0  0  0  0
  -22.9188  -26.2595   22.2828 N   0  0  0  0  0  0  0  0  0  0  0  0
  -28.7632  -21.3158   16.7820 N   0  0  0  0  0  0  0  0  0  0  0  0
  -29.3435  -19.9576   21.2749 N   0  0  0  0  0  0  0  0  0  0  0  0
  -28.8229  -15.7691   22.8815 N   0  0  0  0  0  0  0  0  0  0  0  0
  -21.4495  -29.5060   22.4595 N   0  0  0  0  0  0  0  0  0  0  0  0
  -22.4508  -23.0861   23.3639 N   0  0  0  0  0  0  0  0  0  0  0  0
  -30.8461  -22.3020   17.3136 N   0  0  0  0  0  0  0  0  0  0  0  0
  -22.7674  -20.8571   20.7923 N   0  3  0  0  0  0  0  0  0  0  0  0
  -29.7836  -17.8119   23.2846 O   0  0  0  0  0  0  0  0  0  0  0  0
  -23.4937  -28.6750   23.2031 O   0  0  0  0  0  0  0  0  0  0  0  0
  -20.8837  -25.4704   23.1025 O   0  0  0  0  0  0  0  0  0  0  0  0
  -24.5492  -22.5042   22.5669 O   0  0  0  0  0  0  0  0  0  0  0  0
  -29.4409  -23.3076   15.8065 O   0  0  0  0  0  0  0  0  0  0  0  0
  -25.8951  -11.6696   20.5027 O   0  0  0  0  0  0  0  0  0  0  0  0
  -28.5011  -27.3656   19.9021 O   0  0  0  0  0  0  0  0  0  1  0  0
  -23.9156   -9.7650   25.2837 F   0  0  0  0  0  0  0  0  0  0  0  0
  -23.2932  -10.7560   20.6972 F   0  0  0  0  0  0  0  0  0  0  0  0
  -32.4233  -23.1813   20.4709 Cl  0  0  0  0  0  0  0  0  0  0  0  0
  1  2  1  0  0  0  0
  1  5  2  0  0  0  0
  2  6  2  0  0  0  0
  3  8  2  0  0  0  0
  3 16  1  0  0  0  0
  4  9  1  0  0  0  0
  4 16  2  0  0  0  0
  5 18  1  0  0  0  0
  6 20  1  0  0  0  0
  7 10  2  0  0  0  0
  7 19  1  0  0  0  0
  8 23  1  0  0  0  0
  9 23  2  0  0  0  0
 10 24  1  0  0  0  0
 11 12  2  0  0  0  0
 11 25  1  0  0  0  0
 12 26  1  0  0  0  0
 13 21  1  0  0  0  0
 13 24  2  0  0  0  0
 14 26  2  0  0  0  0
 14 27  1  0  0  0  0
 15 22  2  0  0  0  0
 15 65  1  0  0  0  0
 16 29  1  0  0  0  0
 17 29  1  0  0  0  0
 17 31  2  0  0  0  0
 17 32  1  0  0  0  0
 18 20  2  0  0  0  0
 18 37  1  0  0  0  0
 19 21  2  0  0  0  0
 19 38  1  0  0  0  0
 20 46  1  0  0  0  0
 21 39  1  0  0  0  0
 22 28  1  0  0  0  0
 22 56  1  0  0  0  0
 23 80  1  0  0  0  0
 24 81  1  0  0  0  0
 25 27  2  0  0  0  0
 25 80  1  0  0  0  0
 26 82  1  0  0  0  0
 27 83  1  0  0  0  0
 28 30  2  0  0  0  0
 28 84  1  0  0  0  0
 29 64  2  0  0  0  0
 30 60  1  0  0  0  0
 30 65  1  0  0  0  0
 31 66  1  0  0  0  0
 31 69  1  0  0  0  0
 32 70  1  0  0  0  0
 32 75  2  0  0  0  0
 33 47  1  0  0  0  0
 33 71  1  0  0  0  0
 33 76  2  0  0  0  0
 34 61  1  0  0  0  0
 34 67  1  0  0  0  0
 34 77  2  0  0  0  0
 35 62  1  0  0  0  0
 35 72  1  0  0  0  0
 35 78  2  0  0  0  0
 36 68  1  0  0  0  0
 36 73  1  0  0  0  0
 36 79  2  0  0  0  0
 37 40  1  0  0  0  0
 38 47  1  0  0  0  0
 39 67  1  0  0  0  0
 40 42  1  0  0  0  0
 41 43  1  0  0  0  0
 41 44  1  0  0  0  0
 42 46  1  0  0  0  0
 43 48  1  0  0  0  0
 44 68  1  0  0  0  0
 45 48  1  0  0  0  0
 45 68  1  0  0  0  0
 46 71  1  0  0  0  0
 47 67  1  0  0  0  0
 48 66  1  0  0  0  0
 49 57  1  0  0  0  0
 50 60  1  0  0  0  0
 51 62  1  0  0  0  0
 52 63  1  0  0  0  0
 53 63  1  0  0  0  0
 54 63  1  0  0  0  0
 55 74  1  0  0  0  0
 56 73  1  0  0  0  0
 57 60  1  0  0  0  0
 58 59  1  0  0  0  0
 58 65  1  0  0  0  0
 59 81  1  0  0  0  0
 61 63  1  0  0  0  0
 61 72  1  0  0  0  0
 62 74  1  0  0  0  0
 64 66  1  0  0  0  0
M  CHG  1  74   1
M  ISO  4  36 100  59 101  73 100  81 101
M  END
> <Batch ID>
0099

> <Smiles>
CCC(C)c1c(Cl)c(C[100NH:0][100C:0](=O)N2CCCC(n3nc(-c4ccc(Oc5ccc(F)cc5F)cc4)c(C(N)=O)c3N)C2)cn1C[101CH2:1][101O:1]c1ccc2c(c1)CN(C(=O)C(NC(=O)C(C)NC)C(C)(C)C)C(C(=O)NC1CCCc3ccccc31)C2

> <Shape>
0.201

> <Color>
0.082

> <Negative vol penalty>
0.000

$$$$

  -OEChem-04052319313D

 88 96  0     1  0  0  0  0  0999 V2000
  -19.9206  -33.3620   15.7142 C   0  0  0  0  0  0  0  0  0  0  0  0
  -20.7297  -32.2337   15.8005 C   0  0  0  0  0  0  0  0  0  0  0  0
  -24.8573   -8.6557   21.1193 C   0  0  0  0  0  0  0  0  0  0  0  0
  -23.1716  -10.1492   20.2448 C   0  0  0  0  0  0  0  0  0  0  0  0
  -20.2995  -34.5408   16.3552 C   0  0  0  0  0  0  0  0  0  0  0  0
  -21.9189  -32.2837   16.5270 C   0  0  0  0  0  0  0  0  0  0  0  0
  -24.4249  -27.7568   19.8031 C   0  0  0  0  0  0  0  0  0  0  0  0
  -23.8794   -7.6891   21.3537 C   0  0  0  0  0  0  0  0  0  0  0  0
  -22.1936   -9.1825   20.4791 C   0  0  0  0  0  0  0  0  0  0  0  0
  -25.4417  -26.8459   19.5201 C   0  0  0  0  0  0  0  0  0  0  0  0
  -21.4924   -7.0709   23.6655 C   0  0  0  0  0  0  0  0  0  0  0  0
  -21.5192   -6.4071   24.8920 C   0  0  0  0  0  0  0  0  0  0  0  0
  -27.0298  -28.2831   20.6299 C   0  0  0  0  0  0  0  0  0  0  0  0
  -21.7994   -4.2992   23.7451 C   0  0  0  0  0  0  0  0  0  0  0  0
  -26.2883  -20.4355   22.7402 C   0  0  0  0  0  0  0  0  0  0  0  0
  -24.5034   -9.8858   20.5649 C   0  0  0  0  0  0  0  0  0  0  0  0
  -26.2741  -11.0582   19.1515 C   0  0  0  0  0  0  0  0  0  0  0  0
  -21.4891  -34.6025   17.0980 C   0  0  0  0  0  0  0  0  0  0  0  0
  -24.7053  -28.9448   20.4933 C   0  0  0  0  0  0  0  0  0  0  0  0
  -22.3147  -33.4648   17.1775 C   0  0  0  0  0  0  0  0  0  0  0  0
  -26.0143  -29.2062   20.9227 C   0  0  0  0  0  0  0  0  0  0  0  0
  -25.9744  -19.3723   21.9091 C   0  0  0  0  0  0  0  0  0  0  0  0
  -26.6640  -19.2603   20.7070 C   0  0  0  0  0  0  0  0  0  0  0  0
  -27.6328  -20.2016   20.3773 C   0  0  0  0  0  0  0  0  0  0  0  0
  -22.5476   -7.9525   21.0336 C   0  0  0  0  0  0  0  0  0  0  0  0
  -26.7450  -27.1104   19.9309 C   0  0  0  0  0  0  0  0  0  0  0  0
  -21.6191   -6.3488   22.4788 C   0  0  0  0  0  0  0  0  0  0  0  0
  -21.6727   -5.0213   24.9318 C   0  0  0  0  0  0  0  0  0  0  0  0
  -21.7726   -4.9630   22.5186 C   0  0  0  0  0  0  0  0  0  0  0  0
  -25.5130  -10.8849   20.3231 C   0  0  0  0  0  0  0  0  0  0  0  0
  -27.8723  -21.2279   21.2769 C   0  0  0  0  0  0  0  0  0  0  0  0
  -27.0840  -12.1335   19.4242 C   0  0  0  0  0  0  0  0  0  0  0  0
  -26.2509  -10.3139   17.9263 C   0  0  0  0  0  0  0  0  0  0  0  0
  -24.4789  -32.0414   19.8124 C   0  0  0  0  0  0  0  0  0  0  0  0
  -25.3186  -32.3889   22.9264 C   0  0  0  0  0  0  0  0  0  0  0  0
  -26.8378  -31.0681   25.6822 C   0  0  0  0  0  0  0  0  0  0  0  0
  -26.5837  -16.7648   23.1861 C   0  0  0  0  0  0  0  0  0  0  0  0
  -21.8804  -35.9127   17.7343 C   0  0  0  0  0  0  0  0  0  0  0  0
  -23.5924  -29.9045   20.8142 C   0  0  0  0  0  0  0  0  0  0  0  0
  -26.3640  -30.4576   21.6844 C   0  0  0  0  0  0  0  0  0  0  0  0
  -22.9694  -35.7734   18.7950 C   0  0  0  0  0  0  0  0  0  0  0  0
  -29.2251  -14.3805   23.0653 C   0  0  0  0  0  0  0  0  0  0  0  0
  -24.1019  -34.8883   18.2844 C   0  0  0  0  0  0  0  0  0  0  0  0
  -28.6420  -13.2299   22.2431 C   0  0  0  0  0  0  0  0  0  0  0  0
  -28.1696  -15.0263   23.9601 C   0  0  0  0  0  0  0  0  0  0  0  0
  -26.3665  -14.3178   22.4367 C   0  0  0  0  0  0  0  0  0  0  0  0
  -23.5997  -33.4725   17.9767 C   0  0  1  0  0  0  0  0  0  0  0  0
  -24.0845  -31.3251   21.0730 C   0  0  1  0  0  0  0  0  0  0  0  0
  -27.3802  -13.6712   21.4773 C   0  0  2  0  0  0  0  0  0  0  0  0
  -26.3632  -18.1311   19.7740 C   0  0  0  0  0  0  0  0  0  0  0  0
  -29.9028  -19.9157   19.3196 C   0  0  0  0  0  0  0  0  0  0  0  0
  -28.1485  -21.3211   18.1785 C   0  0  0  0  0  0  0  0  0  0  0  0
  -27.3986  -31.6031   28.0689 C   0  0  0  0  0  0  0  0  0  0  0  0
  -23.7055  -18.2715   21.3530 C   0  0  0  0  0  0  0  0  0  0  0  0
  -24.3465  -18.7596   23.7105 C   0  0  0  0  0  0  0  0  0  0  0  0
  -27.5747  -34.2145   21.9845 C   0  0  0  0  0  0  0  0  0  0  0  0
  -28.6383  -33.9451   24.2349 C   0  0  0  0  0  0  0  0  0  0  0  0
  -26.3863  -35.0000   24.0400 C   0  0  0  0  0  0  0  0  0  0  0  0
  -25.2351  -28.7934   26.6902 C   0  0  0  0  0  0  0  0  0  0  0  0
  -28.9101  -22.2792   20.9744 C   0  0  0  0  0  0  0  0  0  0  0  0
  -28.3541  -23.7072   20.9433 C   0  0  0  0  0  0  0  0  0  0  0  0
  -29.4045  -24.7504   20.5595 C   0  0  0  0  0  0  0  0  0  0  0  0
  -28.8263  -26.1589   20.5779 C   0  0  0  0  0  0  0  0  0  1  0  0
  -28.3910  -20.1079   19.0959 C   0  0  0  0  0  0  0  0  0  0  0  0
  -26.6242  -32.5097   23.6745 C   0  0  1  0  0  0  0  0  0  0  0  0
  -26.3879  -30.9654   27.1284 C   0  0  2  0  0  0  0  0  0  0  0  0
  -24.9268  -18.3937   22.3140 C   0  0  0  0  0  0  0  0  0  0  0  0
  -27.3000  -33.8946   23.4674 C   0  0  0  0  0  0  0  0  0  0  0  0
  -27.2228  -21.3696   22.4541 N   0  0  0  0  0  0  0  0  0  0  0  0
  -25.8128  -11.7784   21.2696 N   0  0  0  0  0  0  0  0  0  0  0  0
  -26.7713  -12.5234   20.6932 N   0  0  0  0  0  0  0  0  0  0  0  0
  -25.2423  -31.3679   21.9685 N   0  0  0  0  0  0  0  0  0  0  0  0
  -27.0000  -15.4233   23.1725 N   0  0  0  0  0  0  0  0  0  0  0  0
  -28.0261  -12.7739   18.6999 N   0  0  0  0  0  0  0  0  0  0  0  0
  -25.3582   -9.2393   17.8142 N   0  0  0  0  0  0  0  0  0  0  0  0
  -23.4400  -32.7159   19.2000 N   0  0  0  0  0  0  0  0  0  0  0  0
  -26.3276  -32.1918   25.0671 N   0  0  0  0  0  0  0  0  0  0  0  0
  -25.4707  -17.0572   22.4073 N   0  0  0  0  0  0  0  0  0  0  0  0
  -26.2192  -29.5370   27.5182 N   0  3  0  0  0  0  0  0  0  0  0  0
  -27.0113  -10.5832   16.9657 O   0  0  0  0  0  0  0  0  0  0  0  0
  -25.6402  -31.9874   19.4249 O   0  0  0  0  0  0  0  0  0  0  0  0
  -24.3978  -33.1671   23.1874 O   0  0  0  0  0  0  0  0  0  0  0  0
  -27.5716  -30.2367   25.1522 O   0  0  0  0  0  0  0  0  0  0  0  0
  -27.1644  -17.6384   23.8393 O   0  0  0  0  0  0  0  0  0  0  0  0
  -21.5931   -7.0094   21.2620 O   0  0  0  0  0  0  0  0  0  0  0  0
  -27.7395  -26.2233   19.6554 O   0  0  0  0  0  0  0  0  0  1  0  0
  -21.6999   -4.3842   26.1098 F   0  0  0  0  0  0  0  0  0  0  0  0
  -21.8960   -4.2641   21.3819 F   0  0  0  0  0  0  0  0  0  0  0  0
  1  2  1  0  0  0  0
  1  5  2  0  0  0  0
  2  6  2  0  0  0  0
  3  8  2  0  0  0  0
  3 16  1  0  0  0  0
  4  9  1  0  0  0  0
  4 16  2  0  0  0  0
  5 18  1  0  0  0  0
  6 20  1  0  0  0  0
  7 10  2  0  0  0  0
  7 19  1  0  0  0  0
  8 25  1  0  0  0  0
  9 25  2  0  0  0  0
 10 26  1  0  0  0  0
 11 12  2  0  0  0  0
 11 27  1  0  0  0  0
 12 28  1  0  0  0  0
 13 21  1  0  0  0  0
 13 26  2  0  0  0  0
 14 28  2  0  0  0  0
 14 29  1  0  0  0  0
 15 22  1  0  0  0  0
 15 69  2  0  0  0  0
 16 30  1  0  0  0  0
 17 30  1  0  0  0  0
 17 32  2  0  0  0  0
 17 33  1  0  0  0  0
 18 20  2  0  0  0  0
 18 38  1  0  0  0  0
 19 21  2  0  0  0  0
 19 39  1  0  0  0  0
 20 47  1  0  0  0  0
 21 40  1  0  0  0  0
 22 23  2  0  0  0  0
 22 67  1  0  0  0  0
 23 24  1  0  0  0  0
 23 50  1  0  0  0  0
 24 31  2  0  0  0  0
 24 64  1  0  0  0  0
 25 85  1  0  0  0  0
 26 86  1  0  0  0  0
 27 29  2  0  0  0  0
 27 85  1  0  0  0  0
 28 87  1  0  0  0  0
 29 88  1  0  0  0  0
 30 70  2  0  0  0  0
 31 60  1  0  0  0  0
 31 69  1  0  0  0  0
 32 71  1  0  0  0  0
 32 74  1  0  0  0  0
 33 75  1  0  0  0  0
 33 80  2  0  0  0  0
 34 48  1  0  0  0  0
 34 76  1  0  0  0  0
 34 81  2  0  0  0  0
 35 65  1  0  0  0  0
 35 72  1  0  0  0  0
 35 82  2  0  0  0  0
 36 66  1  0  0  0  0
 36 77  1  0  0  0  0
 36 83  2  0  0  0  0
 37 73  1  0  0  0  0
 37 78  1  0  0  0  0
 37 84  2  0  0  0  0
 38 41  1  0  0  0  0
 39 48  1  0  0  0  0
 40 72  1  0  0  0  0
 41 43  1  0  0  0  0
 42 44  1  0  0  0  0
 42 45  1  0  0  0  0
 43 47  1  0  0  0  0
 44 49  1  0  0  0  0
 45 73  1  0  0  0  0
 46 49  1  0  0  0  0
 46 73  1  0  0  0  0
 47 76  1  0  0  0  0
 48 72  1  0  0  0  0
 49 71  1  0  0  0  0
 51 64  1  0  0  0  0
 52 64  1  0  0  0  0
 53 66  1  0  0  0  0
 54 67  1  0  0  0  0
 55 67  1  0  0  0  0
 56 68  1  0  0  0  0
 57 68  1  0  0  0  0
 58 68  1  0  0  0  0
 59 79  1  0  0  0  0
 60 61  1  0  0  0  0
 61 62  1  0  0  0  0
 62 63  1  0  0  0  0
 63 86  1  0  0  0  0
 65 68  1  0  0  0  0
 65 77  1  0  0  0  0
 66 79  1  0  0  0  0
 67 78  1  0  0  0  0
 70 71  1  0  0  0  0
M  CHG  1  79   1
M  ISO  4  37 100  63 101  78 100  86 101
M  END
> <Batch ID>
0099

> <Smiles>
CNC(C)C(=O)NC(C(=O)N1Cc2cc([101O:1][101CH2:1]CCCc3ncc(C(C)(C)[100NH:0][100C:0](=O)N4CCCC(n5nc(-c6ccc(Oc7ccc(F)cc7F)cc6)c(C(N)=O)c5N)C4)c(C)c3C(C)C)ccc2CC1C(=O)NC1CCCc2ccccc21)C(C)(C)C

> <Shape>
0.291

> <Color>
0.106

> <Negative vol penalty>
0.000

$$$$

  -OEChem-04052319313D

 76 83  0     1  0  0  0  0  0999 V2000
  -19.8685  -34.2588   23.0271 C   0  0  0  0  0  0  0  0  0  0  0  0
  -21.1734  -33.9096   22.6943 C   0  0  0  0  0  0  0  0  0  0  0  0
  -27.6131  -17.1048   19.4533 C   0  0  0  0  0  0  0  0  0  0  0  0
  -29.0254  -17.2261   21.4098 C   0  0  0  0  0  0  0  0  0  0  0  0
  -19.0175  -33.3111   23.5941 C   0  0  0  0  0  0  0  0  0  0  0  0
  -21.6284  -32.6126   22.9295 C   0  0  0  0  0  0  0  0  0  0  0  0
  -25.5901  -29.4255   19.5159 C   0  0  0  0  0  0  0  0  0  0  0  0
  -27.4176  -15.7423   19.6788 C   0  0  0  0  0  0  0  0  0  0  0  0
  -28.8300  -15.8635   21.6353 C   0  0  0  0  0  0  0  0  0  0  0  0
  -26.9585  -29.1896   19.6414 C   0  0  0  0  0  0  0  0  0  0  0  0
  -25.5388  -13.7977   21.7089 C   0  0  0  0  0  0  0  0  0  0  0  0
  -24.2392  -13.3027   21.6011 C   0  0  0  0  0  0  0  0  0  0  0  0
  -26.4903  -27.0902   20.7333 C   0  0  0  0  0  0  0  0  0  0  0  0
  -24.9531  -11.8123   19.8386 C   0  0  0  0  0  0  0  0  0  0  0  0
  -28.4170  -17.8467   20.3188 C   0  0  0  0  0  0  0  0  0  0  0  0
  -27.8425  -20.3183   20.5814 C   0  0  0  0  0  0  0  0  0  0  0  0
  -19.4593  -31.9992   23.8274 C   0  0  0  0  0  0  0  0  0  0  0  0
  -24.6600  -28.4990   20.0088 C   0  0  0  0  0  0  0  0  0  0  0  0
  -20.7829  -31.6468   23.5014 C   0  0  0  0  0  0  0  0  0  0  0  0
  -25.1108  -27.3154   20.6106 C   0  0  0  0  0  0  0  0  0  0  0  0
  -28.0261  -15.1216   20.7698 C   0  0  0  0  0  0  0  0  0  0  0  0
  -27.4088  -28.0232   20.2528 C   0  0  0  0  0  0  0  0  0  0  0  0
  -26.5455  -13.3001   20.8815 C   0  0  0  0  0  0  0  0  0  0  0  0
  -23.9463  -12.3099   20.6661 C   0  0  0  0  0  0  0  0  0  0  0  0
  -26.2527  -12.3074   19.9464 C   0  0  0  0  0  0  0  0  0  0  0  0
  -28.6197  -19.2542   20.0861 C   0  0  0  0  0  0  0  0  0  0  0  0
  -28.4440  -21.4460   20.0784 C   0  0  0  0  0  0  0  0  0  0  0  0
  -26.6808  -20.2899   21.4213 C   0  0  0  0  0  0  0  0  0  0  0  0
  -22.3806  -28.5701   22.2230 C   0  0  0  0  0  0  0  0  0  0  0  0
  -21.7226  -25.6052   21.0836 C   0  0  0  0  0  0  0  0  0  0  0  0
  -22.8282  -22.8134   19.4618 C   0  0  0  0  0  0  0  0  0  0  0  0
  -33.0257  -24.4223   18.9408 C   0  0  0  0  0  0  0  0  0  0  0  0
  -18.5176  -31.0224   24.4860 C   0  0  0  0  0  0  0  0  0  0  0  0
  -23.1874  -28.7556   19.8417 C   0  0  0  0  0  0  0  0  0  0  0  0
  -24.1532  -26.2794   21.1381 C   0  0  0  0  0  0  0  0  0  0  0  0
  -18.9612  -29.5675   24.3572 C   0  0  0  0  0  0  0  0  0  0  0  0
  -32.0381  -21.9683   16.5576 C   0  0  0  0  0  0  0  0  0  0  0  0
  -20.4432  -29.4297   24.6908 C   0  0  0  0  0  0  0  0  0  0  0  0
  -31.0018  -21.1280   17.3059 C   0  0  0  0  0  0  0  0  0  0  0  0
  -33.1656  -22.4265   17.4800 C   0  0  0  0  0  0  0  0  0  0  0  0
  -31.6858  -22.2902   19.4460 C   0  0  0  0  0  0  0  0  0  0  0  0
  -21.3056  -30.2433   23.7182 C   0  0  1  0  0  0  0  0  0  0  0  0
  -22.3294  -27.9847   20.8402 C   0  0  1  0  0  0  0  0  0  0  0  0
  -30.4999  -21.8517   18.5699 C   0  0  2  0  0  0  0  0  0  0  0  0
  -22.0720  -20.5406   18.7134 C   0  0  0  0  0  0  0  0  0  0  0  0
  -31.7612  -28.0414   18.1181 C   0  0  0  0  0  0  0  0  0  0  0  0
  -21.9407  -24.5905   23.9529 C   0  0  0  0  0  0  0  0  0  0  0  0
  -22.1278  -22.2657   23.0427 C   0  0  0  0  0  0  0  0  0  0  0  0
  -20.0595  -23.5997   22.6361 C   0  0  0  0  0  0  0  0  0  0  0  0
  -23.3156  -23.4608   16.6153 C   0  0  0  0  0  0  0  0  0  0  0  0
  -31.5374  -27.2456   20.5324 C   0  0  0  0  0  0  0  0  0  0  0  0
  -32.7697  -26.3444   20.4897 C   0  0  0  0  0  0  0  0  0  0  0  0
  -29.5953  -28.3420   19.3733 C   0  0  0  0  0  0  0  0  0  1  0  0
  -22.1865  -24.2065   21.4116 C   0  0  1  0  0  0  0  0  0  0  0  0
  -22.2275  -22.0033   18.3271 C   0  0  2  0  0  0  0  0  0  0  0  0
  -30.8276  -27.4465   19.1780 C   0  0  1  0  0  0  0  0  0  0  0  0
  -21.5969  -23.6858   22.7527 C   0  0  0  0  0  0  0  0  0  0  0  0
  -29.6371  -19.6687   19.3265 N   0  0  0  0  0  0  0  0  0  0  0  0
  -29.5034  -21.0059   19.3408 N   0  0  0  0  0  0  0  0  0  0  0  0
  -22.7232  -26.5791   20.9568 N   0  0  0  0  0  0  0  0  0  0  0  0
  -32.6225  -23.1067   18.6583 N   0  0  0  0  0  0  0  0  0  0  0  0
  -28.1646  -22.7612   20.1994 N   0  0  0  0  0  0  0  0  0  0  0  0
  -26.1950  -19.0465   21.8481 N   0  0  0  0  0  0  0  0  0  0  0  0
  -21.4337  -29.5496   22.4546 N   0  0  0  0  0  0  0  0  0  0  0  0
  -21.8541  -23.3841   20.2534 N   0  0  0  0  0  0  0  0  0  0  0  0
  -32.4585  -24.9954   20.0724 N   0  0  0  0  0  0  0  0  0  0  0  0
  -23.0965  -22.0805   17.1189 N   0  3  0  0  0  0  0  0  0  0  0  0
  -26.0813  -21.3355   21.7691 O   0  0  0  0  0  0  0  0  0  0  0  0
  -23.2162  -28.1624   23.0212 O   0  0  0  0  0  0  0  0  0  0  0  0
  -20.5173  -25.8240   20.9380 O   0  0  0  0  0  0  0  0  0  0  0  0
  -24.0403  -22.9254   19.6312 O   0  0  0  0  0  0  0  0  0  0  0  0
  -33.8274  -25.0422   18.2337 O   0  0  0  0  0  0  0  0  0  0  0  0
  -27.8354  -13.7921   20.9902 O   0  0  0  0  0  0  0  0  0  0  0  0
  -28.7439  -27.7908   20.3771 O   0  0  0  0  0  0  0  0  0  1  0  0
  -22.6986  -11.8335   20.5637 F   0  0  0  0  0  0  0  0  0  0  0  0
  -27.2159  -11.8246   19.1496 F   0  0  0  0  0  0  0  0  0  0  0  0
  1  2  1  0  0  0  0
  1  5  2  0  0  0  0
  2  6  2  0  0  0  0
  3  8  2  0  0  0  0
  3 15  1  0  0  0  0
  4  9  1  0  0  0  0
  4 15  2  0  0  0  0
  5 17  1  0  0  0  0
  6 19  1  0  0  0  0
  7 10  2  0  0  0  0
  7 18  1  0  0  0  0
  8 21  1  0  0  0  0
  9 21  2  0  0  0  0
 10 22  1  0  0  0  0
 11 12  2  0  0  0  0
 11 23  1  0  0  0  0
 12 24  1  0  0  0  0
 13 20  1  0  0  0  0
 13 22  2  0  0  0  0
 14 24  2  0  0  0  0
 14 25  1  0  0  0  0
 15 26  1  0  0  0  0
 16 26  1  0  0  0  0
 16 27  2  0  0  0  0
 16 28  1  0  0  0  0
 17 19  2  0  0  0  0
 17 33  1  0  0  0  0
 18 20  2  0  0  0  0
 18 34  1  0  0  0  0
 19 42  1  0  0  0  0
 20 35  1  0  0  0  0
 21 73  1  0  0  0  0
 22 74  1  0  0  0  0
 23 25  2  0  0  0  0
 23 73  1  0  0  0  0
 24 75  1  0  0  0  0
 25 76  1  0  0  0  0
 26 58  2  0  0  0  0
 27 59  1  0  0  0  0
 27 62  1  0  0  0  0
 28 63  1  0  0  0  0
 28 68  2  0  0  0  0
 29 43  1  0  0  0  0
 29 64  1  0  0  0  0
 29 69  2  0  0  0  0
 30 54  1  0  0  0  0
 30 60  1  0  0  0  0
 30 70  2  0  0  0  0
 31 55  1  0  0  0  0
 31 65  1  0  0  0  0
 31 71  2  0  0  0  0
 32 61  1  0  0  0  0
 32 66  1  0  0  0  0
 32 72  2  0  0  0  0
 33 36  1  0  0  0  0
 34 43  1  0  0  0  0
 35 60  1  0  0  0  0
 36 38  1  0  0  0  0
 37 39  1  0  0  0  0
 37 40  1  0  0  0  0
 38 42  1  0  0  0  0
 39 44  1  0  0  0  0
 40 61  1  0  0  0  0
 41 44  1  0  0  0  0
 41 61  1  0  0  0  0
 42 64  1  0  0  0  0
 43 60  1  0  0  0  0
 44 59  1  0  0  0  0
 45 55  1  0  0  0  0
 46 56  1  0  0  0  0
 47 57  1  0  0  0  0
 48 57  1  0  0  0  0
 49 57  1  0  0  0  0
 50 67  1  0  0  0  0
 51 52  1  0  0  0  0
 51 56  1  0  0  0  0
 52 66  1  0  0  0  0
 53 56  1  0  0  0  0
 53 74  1  0  0  0  0
 54 57  1  0  0  0  0
 54 65  1  0  0  0  0
 55 67  1  0  0  0  0
 58 59  1  0  0  0  0
M  CHG  1  67   1
M  ISO  4  32 100  53 101  66 100  74 101
M  END
> <Batch ID>
0099

> <Smiles>
CNC(C)C(=O)NC(C(=O)N1Cc2cc([101O:1][101CH2:1]C(C)CC[100NH:0][100C:0](=O)N3CCCC(n4nc(-c5ccc(Oc6ccc(F)cc6F)cc5)c(C(N)=O)c4N)C3)ccc2CC1C(=O)NC1CCCc2ccccc21)C(C)(C)C

> <Shape>
0.212

> <Color>
0.084

> <Negative vol penalty>
0.000

$$$$

  -OEChem-04052319313D

 81 88  0     1  0  0  0  0  0999 V2000
  -23.4282  -25.7589   13.8180 C   0  0  0  0  0  0  0  0  0  0  0  0
  -24.1560  -24.9614   14.6953 C   0  0  0  0  0  0  0  0  0  0  0  0
  -22.9863  -10.0646   20.0433 C   0  0  0  0  0  0  0  0  0  0  0  0
  -24.2133   -9.3040   21.9806 C   0  0  0  0  0  0  0  0  0  0  0  0
  -22.0716  -25.9861   14.0464 C   0  0  0  0  0  0  0  0  0  0  0  0
  -23.5279  -24.3915   15.8022 C   0  0  0  0  0  0  0  0  0  0  0  0
  -24.7729  -19.5258   16.4508 C   0  0  0  0  0  0  0  0  0  0  0  0
  -22.2521   -8.8786   20.0426 C   0  0  0  0  0  0  0  0  0  0  0  0
  -23.4791   -8.1180   21.9800 C   0  0  0  0  0  0  0  0  0  0  0  0
  -26.0142  -19.2574   17.0260 C   0  0  0  0  0  0  0  0  0  0  0  0
  -20.4138   -7.0876   22.9610 C   0  0  0  0  0  0  0  0  0  0  0  0
  -19.9205   -6.6319   24.1836 C   0  0  0  0  0  0  0  0  0  0  0  0
  -24.9405  -18.8829   19.1535 C   0  0  0  0  0  0  0  0  0  0  0  0
  -21.1852   -4.5887   23.9322 C   0  0  0  0  0  0  0  0  0  0  0  0
  -23.9669  -10.2773   21.0122 C   0  0  0  0  0  0  0  0  0  0  0  0
  -24.4088  -12.6983   21.6839 C   0  0  0  0  0  0  0  0  0  0  0  0
  -21.4244  -25.4108   15.1512 C   0  0  0  0  0  0  0  0  0  0  0  0
  -23.6053  -19.4854   17.2263 C   0  0  0  0  0  0  0  0  0  0  0  0
  -22.1618  -24.6123   16.0463 C   0  0  0  0  0  0  0  0  0  0  0  0
  -23.6853  -19.1486   18.5851 C   0  0  0  0  0  0  0  0  0  0  0  0
  -22.4985   -7.9053   21.0110 C   0  0  0  0  0  0  0  0  0  0  0  0
  -26.0984  -18.9387   18.3782 C   0  0  0  0  0  0  0  0  0  0  0  0
  -21.2927   -6.2938   22.2240 C   0  0  0  0  0  0  0  0  0  0  0  0
  -20.3063   -5.3825   24.6692 C   0  0  0  0  0  0  0  0  0  0  0  0
  -21.6784   -5.0444   22.7096 C   0  0  0  0  0  0  0  0  0  0  0  0
  -24.7260  -11.5020   21.0131 C   0  0  0  0  0  0  0  0  0  0  0  0
  -25.4376  -13.5519   21.3685 C   0  0  0  0  0  0  0  0  0  0  0  0
  -23.2848  -13.0100   22.5176 C   0  0  0  0  0  0  0  0  0  0  0  0
  -21.3815  -21.6040   18.0449 C   0  0  0  0  0  0  0  0  0  0  0  0
  -19.9397  -19.0057   19.3457 C   0  0  0  0  0  0  0  0  0  0  0  0
  -20.2504  -15.8581   20.6276 C   0  0  0  0  0  0  0  0  0  0  0  0
  -30.8832  -14.5719   20.6975 C   0  0  0  0  0  0  0  0  0  0  0  0
  -19.9673  -25.7236   15.3828 C   0  0  0  0  0  0  0  0  0  0  0  0
  -22.2710  -19.7512   16.5848 C   0  0  0  0  0  0  0  0  0  0  0  0
  -22.4594  -19.0719   19.4567 C   0  0  0  0  0  0  0  0  0  0  0  0
  -19.2910  -24.7777   16.3719 C   0  0  0  0  0  0  0  0  0  0  0  0
  -29.1420  -13.1223   17.9510 C   0  0  0  0  0  0  0  0  0  0  0  0
  -20.1617  -24.5881   17.6099 C   0  0  0  0  0  0  0  0  0  0  0  0
  -27.8151  -12.6649   18.5594 C   0  0  0  0  0  0  0  0  0  0  0  0
  -30.3027  -12.9401   18.9264 C   0  0  0  0  0  0  0  0  0  0  0  0
  -28.7786  -13.1083   20.8559 C   0  0  0  0  0  0  0  0  0  0  0  0
  -21.5103  -23.9563   17.2444 C   0  0  1  0  0  0  0  0  0  0  0  0
  -21.2033  -20.1850   17.5843 C   0  0  1  0  0  0  0  0  0  0  0  0
  -27.5696  -13.3246   19.9297 C   0  0  2  0  0  0  0  0  0  0  0  0
  -27.4229  -20.7700   25.1638 C   0  0  0  0  0  0  0  0  0  0  0  0
  -18.9005  -14.0033   21.6449 C   0  0  0  0  0  0  0  0  0  0  0  0
  -29.1660  -20.8642   20.2089 C   0  0  0  0  0  0  0  0  0  0  0  0
  -19.7843  -20.5597   21.9669 C   0  0  0  0  0  0  0  0  0  0  0  0
  -19.3280  -18.3964   23.1416 C   0  0  0  0  0  0  0  0  0  0  0  0
  -17.7350  -19.2364   21.4155 C   0  0  0  0  0  0  0  0  0  0  0  0
  -20.9772  -13.9822   18.4570 C   0  0  0  0  0  0  0  0  0  0  0  0
  -28.5360  -20.2297   24.2808 C   0  0  0  0  0  0  0  0  0  0  0  0
  -30.9061  -17.5733   22.1165 C   0  0  0  0  0  0  0  0  0  0  0  0
  -31.3229  -16.1703   22.5444 C   0  0  0  0  0  0  0  0  0  0  0  0
  -28.0159  -19.8708   22.8980 C   0  0  0  0  0  0  0  0  0  0  0  0
  -29.4625  -17.8856   22.4897 C   0  0  0  0  0  0  0  0  0  0  0  0
  -27.4649  -18.9992   20.3238 C   0  0  0  0  0  0  0  0  0  1  0  0
  -19.9787  -18.3232   20.6916 C   0  0  1  0  0  0  0  0  0  0  0  0
  -19.4749  -14.5807   20.3606 C   0  0  2  0  0  0  0  0  0  0  0  0
  -28.9003  -19.4232   20.6134 C   0  0  2  0  0  0  0  0  0  0  0  0
  -19.2300  -19.1322   21.7882 C   0  0  0  0  0  0  0  0  0  0  0  0
  -25.8670  -11.5844   20.3235 N   0  0  0  0  0  0  0  0  0  0  0  0
  -26.2756  -12.8428   20.5592 N   0  0  0  0  0  0  0  0  0  0  0  0
  -21.1786  -19.3464   18.7845 N   0  0  0  0  0  0  0  0  0  0  0  0
  -30.0072  -13.5903   20.2054 N   0  0  0  0  0  0  0  0  0  0  0  0
  -25.6980  -14.8325   21.7072 N   0  0  0  0  0  0  0  0  0  0  0  0
  -22.3204  -12.0171   22.7377 N   0  0  0  0  0  0  0  0  0  0  0  0
  -21.3588  -22.5342   17.0232 N   0  0  0  0  0  0  0  0  0  0  0  0
  -19.4575  -16.9768   20.4819 N   0  0  0  0  0  0  0  0  0  0  0  0
  -30.5257  -15.1423   21.9130 N   0  0  0  0  0  0  0  0  0  0  0  0
  -20.3620  -13.5563   19.7404 N   0  3  0  0  0  0  0  0  0  0  0  0
  -29.1438  -19.2993   22.0798 N   0  3  1  0  0  0  0  0  0  0  0  0
  -23.1315  -14.1409   23.0383 O   0  0  0  0  0  0  0  0  0  0  0  0
  -21.5274  -21.8379   19.2389 O   0  0  0  0  0  0  0  0  0  0  0  0
  -18.8505  -19.2218   18.8085 O   0  0  0  0  0  0  0  0  0  0  0  0
  -21.4395  -15.8629   20.9382 O   0  0  0  0  0  0  0  0  0  0  0  0
  -31.9052  -14.9182   20.0954 O   0  0  0  0  0  0  0  0  0  0  0  0
  -21.7821   -6.7480   21.0108 O   0  0  0  0  0  0  0  0  0  0  0  0
  -27.3089  -18.6770   18.9424 O   0  0  0  0  0  0  0  0  0  1  0  0
  -19.8338   -4.9456   25.8440 F   0  0  0  0  0  0  0  0  0  0  0  0
  -22.5235   -4.2779   22.0066 F   0  0  0  0  0  0  0  0  0  0  0  0
  1  2  1  0  0  0  0
  1  5  2  0  0  0  0
  2  6  2  0  0  0  0
  3  8  2  0  0  0  0
  3 15  1  0  0  0  0
  4  9  1  0  0  0  0
  4 15  2  0  0  0  0
  5 17  1  0  0  0  0
  6 19  1  0  0  0  0
  7 10  2  0  0  0  0
  7 18  1  0  0  0  0
  8 21  1  0  0  0  0
  9 21  2  0  0  0  0
 10 22  1  0  0  0  0
 11 12  2  0  0  0  0
 11 23  1  0  0  0  0
 12 24  1  0  0  0  0
 13 20  1  0  0  0  0
 13 22  2  0  0  0  0
 14 24  2  0  0  0  0
 14 25  1  0  0  0  0
 15 26  1  0  0  0  0
 16 26  1  0  0  0  0
 16 27  2  0  0  0  0
 16 28  1  0  0  0  0
 17 19  2  0  0  0  0
 17 33  1  0  0  0  0
 18 20  2  0  0  0  0
 18 34  1  0  0  0  0
 19 42  1  0  0  0  0
 20 35  1  0  0  0  0
 21 78  1  0  0  0  0
 22 79  1  0  0  0  0
 23 25  2  0  0  0  0
 23 78  1  0  0  0  0
 24 80  1  0  0  0  0
 25 81  1  0  0  0  0
 26 62  2  0  0  0  0
 27 63  1  0  0  0  0
 27 66  1  0  0  0  0
 28 67  1  0  0  0  0
 28 73  2  0  0  0  0
 29 43  1  0  0  0  0
 29 68  1  0  0  0  0
 29 74  2  0  0  0  0
 30 58  1  0  0  0  0
 30 64  1  0  0  0  0
 30 75  2  0  0  0  0
 31 59  1  0  0  0  0
 31 69  1  0  0  0  0
 31 76  2  0  0  0  0
 32 65  1  0  0  0  0
 32 70  1  0  0  0  0
 32 77  2  0  0  0  0
 33 36  1  0  0  0  0
 34 43  1  0  0  0  0
 35 64  1  0  0  0  0
 36 38  1  0  0  0  0
 37 39  1  0  0  0  0
 37 40  1  0  0  0  0
 38 42  1  0  0  0  0
 39 44  1  0  0  0  0
 40 65  1  0  0  0  0
 41 44  1  0  0  0  0
 41 65  1  0  0  0  0
 42 68  1  0  0  0  0
 43 64  1  0  0  0  0
 44 63  1  0  0  0  0
 45 52  1  0  0  0  0
 46 59  1  0  0  0  0
 47 60  1  0  0  0  0
 48 61  1  0  0  0  0
 49 61  1  0  0  0  0
 50 61  1  0  0  0  0
 51 71  1  0  0  0  0
 52 55  1  0  0  0  0
 53 54  1  0  0  0  0
 53 56  1  0  0  0  0
 54 70  1  0  0  0  0
 55 72  1  0  0  0  0
 56 72  1  0  0  0  0
 57 60  1  0  0  0  0
 57 79  1  0  0  0  0
 58 61  1  0  0  0  0
 58 69  1  0  0  0  0
 59 71  1  0  0  0  0
 60 72  1  0  0  0  0
 62 63  1  0  0  0  0
M  CHG  2  71   1  72   1
M  ISO  4  32 100  57 101  70 100  79 101
M  END
> <Batch ID>
0099

> <Smiles>
CCCN(CCC[100NH:0][100C:0](=O)N1CCCC(n2nc(-c3ccc(Oc4ccc(F)cc4F)cc3)c(C(N)=O)c2N)C1)C(C)[101CH2:1][101O:1]c1ccc2c(c1)CN(C(=O)C(NC(=O)C(C)NC)C(C)(C)C)C(C(=O)NC1CCCc3ccccc31)C2

> <Shape>
0.195

> <Color>
0.126

> <Negative vol penalty>
0.000

$$$$

  -OEChem-04052319313D

 89 98  0     1  0  0  0  0  0999 V2000
  -27.0793  -37.7387   23.9881 C   0  0  0  0  0  0  0  0  0  0  0  0
  -27.7725  -36.7316   23.3242 C   0  0  0  0  0  0  0  0  0  0  0  0
  -23.6634  -10.4733   22.4570 C   0  0  0  0  0  0  0  0  0  0  0  0
  -24.4621   -8.6191   21.1299 C   0  0  0  0  0  0  0  0  0  0  0  0
  -25.9644  -37.4218   24.7630 C   0  0  0  0  0  0  0  0  0  0  0  0
  -27.3518  -35.4069   23.4358 C   0  0  0  0  0  0  0  0  0  0  0  0
  -28.2612  -21.6674   19.1949 C   0  0  0  0  0  0  0  0  0  0  0  0
  -27.0459  -29.3116   19.6847 C   0  0  0  0  0  0  0  0  0  0  0  0
  -28.0860  -23.0437   19.0507 C   0  0  0  0  0  0  0  0  0  0  0  0
  -22.5259   -9.7407   22.7960 C   0  0  0  0  0  0  0  0  0  0  0  0
  -23.3246   -7.8864   21.4689 C   0  0  0  0  0  0  0  0  0  0  0  0
  -27.3994  -27.9667   19.7843 C   0  0  0  0  0  0  0  0  0  0  0  0
  -20.8041   -5.3937   22.2760 C   0  0  0  0  0  0  0  0  0  0  0  0
  -20.9777   -4.0615   22.6510 C   0  0  0  0  0  0  0  0  0  0  0  0
  -25.4128  -27.5472   21.0868 C   0  0  0  0  0  0  0  0  0  0  0  0
  -22.3845   -4.7616   24.4862 C   0  0  0  0  0  0  0  0  0  0  0  0
  -24.6315   -9.9125   21.6239 C   0  0  0  0  0  0  0  0  0  0  0  0
  -27.0331  -10.7032   21.9629 C   0  0  0  0  0  0  0  0  0  0  0  0
  -25.5241  -36.0937   24.8764 C   0  0  0  0  0  0  0  0  0  0  0  0
  -25.8767  -29.7874   20.2956 C   0  0  0  0  0  0  0  0  0  0  0  0
  -26.2308  -35.0718   24.2141 C   0  0  0  0  0  0  0  0  0  0  0  0
  -28.6787  -21.1418   20.4177 C   0  0  0  0  0  0  0  0  0  0  0  0
  -25.0453  -28.8981   20.9913 C   0  0  0  0  0  0  0  0  0  0  0  0
  -28.3284  -23.8944   20.1292 C   0  0  0  0  0  0  0  0  0  0  0  0
  -28.9211  -21.9925   21.4962 C   0  0  0  0  0  0  0  0  0  0  0  0
  -28.7459  -23.3688   21.3520 C   0  0  0  0  0  0  0  0  0  0  0  0
  -22.3565   -8.4473   22.3020 C   0  0  0  0  0  0  0  0  0  0  0  0
  -26.5844  -27.0848   20.4879 C   0  0  0  0  0  0  0  0  0  0  0  0
  -21.4207   -6.4098   23.0060 C   0  0  0  0  0  0  0  0  0  0  0  0
  -21.7679   -3.7454   23.7562 C   0  0  0  0  0  0  0  0  0  0  0  0
  -22.2109   -6.0938   24.1111 C   0  0  0  0  0  0  0  0  0  0  0  0
  -25.8065  -10.6690   21.2729 C   0  0  0  0  0  0  0  0  0  0  0  0
  -27.8150  -11.5629   21.2308 C   0  0  0  0  0  0  0  0  0  0  0  0
  -27.4301  -10.0189   23.1587 C   0  0  0  0  0  0  0  0  0  0  0  0
  -25.2406  -31.9138   22.5709 C   0  0  0  0  0  0  0  0  0  0  0  0
  -22.1650  -31.2997   21.7426 C   0  0  0  0  0  0  0  0  0  0  0  0
  -19.9135  -29.1419   20.3564 C   0  0  0  0  0  0  0  0  0  0  0  0
  -28.6160  -16.1701   18.3755 C   0  0  0  0  0  0  0  0  0  0  0  0
  -24.3419  -35.7941   25.7637 C   0  0  0  0  0  0  0  0  0  0  0  0
  -25.4956  -31.2357   20.1562 C   0  0  0  0  0  0  0  0  0  0  0  0
  -23.7691  -29.3546   21.6480 C   0  0  0  0  0  0  0  0  0  0  0  0
  -23.7380  -34.4120   25.5278 C   0  0  0  0  0  0  0  0  0  0  0  0
  -27.1141  -13.5772   16.6523 C   0  0  0  0  0  0  0  0  0  0  0  0
  -24.8354  -33.3547   25.4592 C   0  0  0  0  0  0  0  0  0  0  0  0
  -26.7365  -12.5823   17.7496 C   0  0  0  0  0  0  0  0  0  0  0  0
  -27.5413  -18.8790   20.3312 C   0  0  0  0  0  0  0  0  0  0  0  0
  -29.9556  -19.1092   19.6047 C   0  0  0  0  0  0  0  0  0  0  0  0
  -26.8414  -15.0094   17.0970 C   0  0  0  0  0  0  0  0  0  0  0  0
  -27.7389  -17.3637   20.4315 C   0  0  0  0  0  0  0  0  0  0  0  0
  -30.1032  -17.5970   19.7469 C   0  0  0  0  0  0  0  0  0  0  0  0
  -27.1653  -14.4034   19.4731 C   0  0  0  0  0  0  0  0  0  0  0  0
  -28.8610  -19.6413   20.5474 C   0  0  0  0  0  0  0  0  0  0  0  0
  -25.7905  -33.6259   24.2906 C   0  0  1  0  0  0  0  0  0  0  0  0
  -24.5481  -31.7125   21.2527 C   0  0  1  0  0  0  0  0  0  0  0  0
  -27.4278  -12.9358   19.0783 C   0  0  1  0  0  0  0  0  0  0  0  0
  -29.0069  -24.2829   22.5072 C   0  0  0  0  0  0  0  0  0  0  0  0
  -17.4665  -28.9021   19.8546 C   0  0  0  0  0  0  0  0  0  0  0  0
  -32.8548  -20.1150   23.9966 C   0  0  0  0  0  0  0  0  0  0  0  0
  -31.1748  -21.4529   25.2804 C   0  0  0  0  0  0  0  0  0  0  0  0
  -21.6219  -30.7075   24.6861 C   0  0  0  0  0  0  0  0  0  0  0  0
  -19.4939  -29.5838   23.9954 C   0  0  0  0  0  0  0  0  0  0  0  0
  -19.8255  -32.0131   23.5359 C   0  0  0  0  0  0  0  0  0  0  0  0
  -20.4115  -28.9404   17.4460 C   0  0  0  0  0  0  0  0  0  0  0  0
  -29.3675  -21.4260   22.8067 C   0  0  0  0  0  0  0  0  0  0  0  0
  -28.1350  -25.3645   19.9474 C   0  0  0  0  0  0  0  0  0  1  0  0
  -30.8549  -21.0337   22.7842 C   0  0  0  0  0  0  0  0  0  0  0  0
  -21.1159  -30.3089   22.1859 C   0  0  1  0  0  0  0  0  0  0  0  0
  -18.8192  -29.3528   19.3257 C   0  0  2  0  0  0  0  0  0  0  0  0
  -31.3719  -20.4735   24.1224 C   0  0  0  0  0  0  0  0  0  0  0  0
  -20.5393  -30.6448   23.5902 C   0  0  0  0  0  0  0  0  0  0  0  0
  -25.8045  -11.4453   20.1860 N   0  0  0  0  0  0  0  0  0  0  0  0
  -27.0394  -11.9755   20.1876 N   0  0  0  0  0  0  0  0  0  0  0  0
  -23.4428  -30.7814   21.4889 N   0  0  0  0  0  0  0  0  0  0  0  0
  -27.5116  -15.3048   18.3632 N   0  0  0  0  0  0  0  0  0  0  0  0
  -28.8221  -16.9215   19.5423 N   0  0  0  0  0  0  0  0  0  0  0  0
  -29.0835  -11.9986   21.3842 N   0  0  0  0  0  0  0  0  0  0  0  0
  -26.5034   -9.1734   23.7837 N   0  0  0  0  0  0  0  0  0  0  0  0
  -25.1899  -33.2125   23.0405 N   0  0  0  0  0  0  0  0  0  0  0  0
  -20.1168  -30.2695   21.1235 N   0  0  0  0  0  0  0  0  0  0  0  0
  -19.1197  -28.5821   18.0861 N   0  3  0  0  0  0  0  0  0  0  0  0
  -28.5674  -10.1661   23.6672 O   0  0  0  0  0  0  0  0  0  0  0  0
  -25.7796  -30.9612   23.1220 O   0  0  0  0  0  0  0  0  0  0  0  0
  -21.8601  -32.4886   21.6188 O   0  0  0  0  0  0  0  0  0  0  0  0
  -20.5242  -28.0816   20.4722 O   0  0  0  0  0  0  0  0  0  0  0  0
  -29.3740  -16.2656   17.4022 O   0  0  0  0  0  0  0  0  0  0  0  0
  -21.2467   -7.7320   22.6328 O   0  0  0  0  0  0  0  0  0  0  0  0
  -26.9300  -25.7623   20.5880 O   0  0  0  0  0  0  0  0  0  1  0  0
  -21.9333   -2.4662   24.1172 F   0  0  0  0  0  0  0  0  0  0  0  0
  -22.8049   -7.0657   24.8170 F   0  0  0  0  0  0  0  0  0  0  0  0
  1  2  1  0  0  0  0
  1  5  2  0  0  0  0
  2  6  2  0  0  0  0
  3 10  2  0  0  0  0
  3 17  1  0  0  0  0
  4 11  1  0  0  0  0
  4 17  2  0  0  0  0
  5 19  1  0  0  0  0
  6 21  1  0  0  0  0
  7  9  2  0  0  0  0
  7 22  1  0  0  0  0
  8 12  2  0  0  0  0
  8 20  1  0  0  0  0
  9 24  1  0  0  0  0
 10 27  1  0  0  0  0
 11 27  2  0  0  0  0
 12 28  1  0  0  0  0
 13 14  2  0  0  0  0
 13 29  1  0  0  0  0
 14 30  1  0  0  0  0
 15 23  1  0  0  0  0
 15 28  2  0  0  0  0
 16 30  2  0  0  0  0
 16 31  1  0  0  0  0
 17 32  1  0  0  0  0
 18 32  1  0  0  0  0
 18 33  2  0  0  0  0
 18 34  1  0  0  0  0
 19 21  2  0  0  0  0
 19 39  1  0  0  0  0
 20 23  2  0  0  0  0
 20 40  1  0  0  0  0
 21 53  1  0  0  0  0
 22 25  2  0  0  0  0
 22 52  1  0  0  0  0
 23 41  1  0  0  0  0
 24 26  2  0  0  0  0
 24 65  1  0  0  0  0
 25 26  1  0  0  0  0
 25 64  1  0  0  0  0
 26 56  1  0  0  0  0
 27 86  1  0  0  0  0
 28 87  1  0  0  0  0
 29 31  2  0  0  0  0
 29 86  1  0  0  0  0
 30 88  1  0  0  0  0
 31 89  1  0  0  0  0
 32 71  2  0  0  0  0
 33 72  1  0  0  0  0
 33 76  1  0  0  0  0
 34 77  1  0  0  0  0
 34 81  2  0  0  0  0
 35 54  1  0  0  0  0
 35 78  1  0  0  0  0
 35 82  2  0  0  0  0
 36 67  1  0  0  0  0
 36 73  1  0  0  0  0
 36 83  2  0  0  0  0
 37 68  1  0  0  0  0
 37 79  1  0  0  0  0
 37 84  2  0  0  0  0
 38 74  1  0  0  0  0
 38 75  1  0  0  0  0
 38 85  2  0  0  0  0
 39 42  1  0  0  0  0
 40 54  1  0  0  0  0
 41 73  1  0  0  0  0
 42 44  1  0  0  0  0
 43 45  1  0  0  0  0
 43 48  1  0  0  0  0
 44 53  1  0  0  0  0
 45 55  1  0  0  0  0
 46 49  1  0  0  0  0
 46 52  1  0  0  0  0
 47 50  1  0  0  0  0
 47 52  1  0  0  0  0
 48 74  1  0  0  0  0
 49 75  1  0  0  0  0
 50 75  1  0  0  0  0
 51 55  1  0  0  0  0
 51 74  1  0  0  0  0
 53 78  1  0  0  0  0
 54 73  1  0  0  0  0
 55 72  1  0  0  0  0
 57 68  1  0  0  0  0
 58 69  1  0  0  0  0
 59 69  1  0  0  0  0
 60 70  1  0  0  0  0
 61 70  1  0  0  0  0
 62 70  1  0  0  0  0
 63 80  1  0  0  0  0
 64 66  1  0  0  0  0
 65 87  1  0  0  0  0
 66 69  1  0  0  0  0
 67 70  1  0  0  0  0
 67 79  1  0  0  0  0
 68 80  1  0  0  0  0
 71 72  1  0  0  0  0
M  CHG  1  80   1
M  ISO  4  38 100  65 101  75 100  87 101
M  END
> <Batch ID>
0099

> <Smiles>
CNC(C)C(=O)NC(C(=O)N1Cc2cc([101O:1][101CH2:1]c3ccc(C4CC[100N:0]([100C:0](=O)N5CCCC(n6nc(-c7ccc(Oc8ccc(F)cc8F)cc7)c(C(N)=O)c6N)C5)CC4)c(CCC(C)C)c3C)ccc2CC1C(=O)NC1CCCc2ccccc21)C(C)(C)C

> <Shape>
0.322

> <Color>
0.086

> <Negative vol penalty>
0.000

$$$$

  -OEChem-04052319313D

 82 89  0     1  0  0  0  0  0999 V2000
  -22.5768  -21.8001   16.4874 C   0  0  0  0  0  0  0  0  0  0  0  0
  -23.8586  -21.2729   16.6075 C   0  0  0  0  0  0  0  0  0  0  0  0
  -26.5818  -28.6321   18.8501 C   0  0  0  0  0  0  0  0  0  0  0  0
  -26.3842  -28.0240   21.1799 C   0  0  0  0  0  0  0  0  0  0  0  0
  -21.6106  -21.5063   17.4486 C   0  0  0  0  0  0  0  0  0  0  0  0
  -24.1753  -20.4525   17.6896 C   0  0  0  0  0  0  0  0  0  0  0  0
  -27.9941  -15.6647   17.6862 C   0  0  0  0  0  0  0  0  0  0  0  0
  -25.5656  -29.5741   19.0097 C   0  0  0  0  0  0  0  0  0  0  0  0
  -25.3680  -28.9660   21.3396 C   0  0  0  0  0  0  0  0  0  0  0  0
  -29.3252  -15.5264   18.0771 C   0  0  0  0  0  0  0  0  0  0  0  0
  -22.9693  -31.4632   22.4481 C   0  0  0  0  0  0  0  0  0  0  0  0
  -23.0179  -32.2863   23.5731 C   0  0  0  0  0  0  0  0  0  0  0  0
  -28.6022  -14.7165   20.2313 C   0  0  0  0  0  0  0  0  0  0  0  0
  -25.1624  -33.1383   22.8572 C   0  0  0  0  0  0  0  0  0  0  0  0
  -26.9911  -27.8570   19.9351 C   0  0  0  0  0  0  0  0  0  0  0  0
  -29.4230  -27.0865   19.9412 C   0  0  0  0  0  0  0  0  0  0  0  0
  -21.9128  -20.6741   18.5380 C   0  0  0  0  0  0  0  0  0  0  0  0
  -26.9552  -15.3398   18.5703 C   0  0  0  0  0  0  0  0  0  0  0  0
  -23.2126  -20.1484   18.6671 C   0  0  0  0  0  0  0  0  0  0  0  0
  -27.2588  -14.8492   19.8483 C   0  0  0  0  0  0  0  0  0  0  0  0
  -24.9587  -29.7411   20.2545 C   0  0  0  0  0  0  0  0  0  0  0  0
  -29.6294  -15.0549   19.3507 C   0  0  0  0  0  0  0  0  0  0  0  0
  -24.0173  -31.4776   21.5276 C   0  0  0  0  0  0  0  0  0  0  0  0
  -24.1144  -33.1238   23.7777 C   0  0  0  0  0  0  0  0  0  0  0  0
  -25.1138  -32.3151   21.7321 C   0  0  0  0  0  0  0  0  0  0  0  0
  -28.0404  -26.8834   19.7707 C   0  0  0  0  0  0  0  0  0  0  0  0
  -29.9858  -25.8632   19.6705 C   0  0  0  0  0  0  0  0  0  0  0  0
  -30.1349  -28.2748   20.3113 C   0  0  0  0  0  0  0  0  0  0  0  0
  -24.5774  -16.9545   19.9277 C   0  0  0  0  0  0  0  0  0  0  0  0
  -23.7032  -14.0148   20.9841 C   0  0  0  0  0  0  0  0  0  0  0  0
  -24.6244  -10.8193   21.7504 C   0  0  0  0  0  0  0  0  0  0  0  0
  -27.8923  -20.2605   19.9490 C   0  0  0  0  0  0  0  0  0  0  0  0
  -20.8488  -20.4232   19.5770 C   0  0  0  0  0  0  0  0  0  0  0  0
  -25.5247  -15.4694   18.1241 C   0  0  0  0  0  0  0  0  0  0  0  0
  -26.1803  -14.4672   20.8279 C   0  0  0  0  0  0  0  0  0  0  0  0
  -21.1586  -19.2423   20.4933 C   0  0  0  0  0  0  0  0  0  0  0  0
  -29.2612  -21.8951   17.0976 C   0  0  0  0  0  0  0  0  0  0  0  0
  -22.6009  -19.3121   20.9849 C   0  0  0  0  0  0  0  0  0  0  0  0
  -29.2283  -23.3772   17.4747 C   0  0  0  0  0  0  0  0  0  0  0  0
  -28.0457  -21.1474   17.6411 C   0  0  0  0  0  0  0  0  0  0  0  0
  -27.7897  -22.7814   19.4682 C   0  0  0  0  0  0  0  0  0  0  0  0
  -23.5875  -19.2344   19.8135 C   0  0  1  0  0  0  0  0  0  0  0  0
  -24.5452  -15.5959   19.2869 C   0  0  1  0  0  0  0  0  0  0  0  0
  -29.0234  -23.5659   18.9899 C   0  0  2  0  0  0  0  0  0  0  0  0
  -23.6972   -8.6584   22.6268 C   0  0  0  0  0  0  0  0  0  0  0  0
  -23.6700  -15.1761   23.8055 C   0  0  0  0  0  0  0  0  0  0  0  0
  -23.6842  -12.8355   24.6941 C   0  0  0  0  0  0  0  0  0  0  0  0
  -21.7766  -13.6245   23.2937 C   0  0  0  0  0  0  0  0  0  0  0  0
  -33.7409  -14.7962   20.4981 C   0  0  0  0  0  0  0  0  0  0  0  0
  -34.0410  -17.0417   19.4448 C   0  0  0  0  0  0  0  0  0  0  0  0
  -25.3228   -9.3765   19.2626 C   0  0  0  0  0  0  0  0  0  0  0  0
  -32.6116  -19.2655   23.3713 C   0  0  0  0  0  0  0  0  0  0  0  0
  -29.0116  -18.6857   22.3219 C   0  0  0  0  0  0  0  0  0  0  0  0
  -32.5160  -16.7524   21.4628 C   0  0  0  0  0  0  0  0  0  0  0  0
  -27.7394  -19.5264   22.3148 C   0  0  0  0  0  0  0  0  0  0  0  0
  -30.2526  -19.5192   22.6153 C   0  0  0  0  0  0  0  0  0  0  0  0
  -31.8339  -18.1082   21.3078 C   0  0  0  0  0  0  0  0  0  0  0  0
  -31.8736  -15.8177   19.1560 C   0  0  0  0  0  0  0  0  0  1  0  0
  -24.0141  -13.1809   22.2035 C   0  0  1  0  0  0  0  0  0  0  0  0
  -24.0112   -9.4794   21.3858 C   0  0  2  0  0  0  0  0  0  0  0  0
  -23.3068  -13.7132   23.4817 C   0  0  0  0  0  0  0  0  0  0  0  0
  -33.0258  -16.1165   20.1393 C   0  0  0  0  0  0  0  0  0  0  0  0
  -27.7430  -25.6297   19.4188 N   0  0  0  0  0  0  0  0  0  0  0  0
  -28.9466  -25.0341   19.3658 N   0  0  0  0  0  0  0  0  0  0  0  0
  -24.7970  -14.6177   20.3470 N   0  0  0  0  0  0  0  0  0  0  0  0
  -27.9090  -21.3664   19.0831 N   0  0  0  0  0  0  0  0  0  0  0  0
  -31.2632  -25.4267   19.6657 N   0  0  0  0  0  0  0  0  0  0  0  0
  -29.4019  -29.4446   20.5537 N   0  0  0  0  0  0  0  0  0  0  0  0
  -23.7167  -17.8691   19.3513 N   0  0  0  0  0  0  0  0  0  0  0  0
  -23.6677  -11.8066   21.8573 N   0  0  0  0  0  0  0  0  0  0  0  0
  -27.7659  -20.5567   21.3007 N   0  0  0  0  0  0  0  0  0  0  0  0
  -24.9471   -8.6973   20.5294 N   0  3  0  0  0  0  0  0  0  0  0  0
  -31.4570  -18.6120   22.6537 N   0  3  1  0  0  0  0  0  0  0  0  0
  -31.3852  -28.3027   20.4077 O   0  0  0  0  0  0  0  0  0  0  0  0
  -25.3266  -17.1577   20.8760 O   0  0  0  0  0  0  0  0  0  0  0  0
  -22.5337  -14.1214   20.6066 O   0  0  0  0  0  0  0  0  0  0  0  0
  -25.8308  -10.9739   21.9267 O   0  0  0  0  0  0  0  0  0  0  0  0
  -27.9885  -19.0957   19.5478 O   0  0  0  0  0  0  0  0  0  0  0  0
  -23.9672  -30.6604   20.4107 O   0  0  0  0  0  0  0  0  0  0  0  0
  -30.9279  -14.9195   19.7350 O   0  0  0  0  0  0  0  0  0  1  0  0
  -24.1602  -33.9153   24.8573 F   0  0  0  0  0  0  0  0  0  0  0  0
  -26.1230  -32.3342   20.8507 F   0  0  0  0  0  0  0  0  0  0  0  0
  1  2  1  0  0  0  0
  1  5  2  0  0  0  0
  2  6  2  0  0  0  0
  3  8  2  0  0  0  0
  3 15  1  0  0  0  0
  4  9  1  0  0  0  0
  4 15  2  0  0  0  0
  5 17  1  0  0  0  0
  6 19  1  0  0  0  0
  7 10  2  0  0  0  0
  7 18  1  0  0  0  0
  8 21  1  0  0  0  0
  9 21  2  0  0  0  0
 10 22  1  0  0  0  0
 11 12  2  0  0  0  0
 11 23  1  0  0  0  0
 12 24  1  0  0  0  0
 13 20  1  0  0  0  0
 13 22  2  0  0  0  0
 14 24  2  0  0  0  0
 14 25  1  0  0  0  0
 15 26  1  0  0  0  0
 16 26  1  0  0  0  0
 16 27  2  0  0  0  0
 16 28  1  0  0  0  0
 17 19  2  0  0  0  0
 17 33  1  0  0  0  0
 18 20  2  0  0  0  0
 18 34  1  0  0  0  0
 19 42  1  0  0  0  0
 20 35  1  0  0  0  0
 21 79  1  0  0  0  0
 22 80  1  0  0  0  0
 23 25  2  0  0  0  0
 23 79  1  0  0  0  0
 24 81  1  0  0  0  0
 25 82  1  0  0  0  0
 26 63  2  0  0  0  0
 27 64  1  0  0  0  0
 27 67  1  0  0  0  0
 28 68  1  0  0  0  0
 28 74  2  0  0  0  0
 29 43  1  0  0  0  0
 29 69  1  0  0  0  0
 29 75  2  0  0  0  0
 30 59  1  0  0  0  0
 30 65  1  0  0  0  0
 30 76  2  0  0  0  0
 31 60  1  0  0  0  0
 31 70  1  0  0  0  0
 31 77  2  0  0  0  0
 32 66  1  0  0  0  0
 32 71  1  0  0  0  0
 32 78  2  0  0  0  0
 33 36  1  0  0  0  0
 34 43  1  0  0  0  0
 35 65  1  0  0  0  0
 36 38  1  0  0  0  0
 37 39  1  0  0  0  0
 37 40  1  0  0  0  0
 38 42  1  0  0  0  0
 39 44  1  0  0  0  0
 40 66  1  0  0  0  0
 41 44  1  0  0  0  0
 41 66  1  0  0  0  0
 42 69  1  0  0  0  0
 43 65  1  0  0  0  0
 44 64  1  0  0  0  0
 45 60  1  0  0  0  0
 46 61  1  0  0  0  0
 47 61  1  0  0  0  0
 48 61  1  0  0  0  0
 49 62  1  0  0  0  0
 50 62  1  0  0  0  0
 51 72  1  0  0  0  0
 52 73  1  0  0  0  0
 53 55  1  0  0  0  0
 53 56  1  0  0  0  0
 54 57  1  0  0  0  0
 54 62  1  0  0  0  0
 55 71  1  0  0  0  0
 56 73  1  0  0  0  0
 57 73  1  0  0  0  0
 58 62  1  0  0  0  0
 58 80  1  0  0  0  0
 59 61  1  0  0  0  0
 59 70  1  0  0  0  0
 60 72  1  0  0  0  0
 63 64  1  0  0  0  0
M  CHG  2  72   1  73   1
M  ISO  4  32 100  58 101  71 100  80 101
M  END
> <Batch ID>
0099

> <Smiles>
CNC(C)C(=O)NC(C(=O)N1Cc2cc([101O:1][101CH2:1]C(C)(C)CCN(C)CCC[100NH:0][100C:0](=O)N3CCCC(n4nc(-c5ccc(Oc6ccc(F)cc6F)cc5)c(C(N)=O)c4N)C3)ccc2CC1C(=O)NC1CCCc2ccccc21)C(C)(C)C

> <Shape>
0.232

> <Color>
0.057

> <Negative vol penalty>
0.000

$$$$

  -OEChem-04052319313D

 83 91  0     1  0  0  0  0  0999 V2000
  -32.0660  -13.0262   21.7112 C   0  0  0  0  0  0  0  0  0  0  0  0
  -31.3450  -14.1594   22.0740 C   0  0  0  0  0  0  0  0  0  0  0  0
  -24.9233  -30.0332   22.9828 C   0  0  0  0  0  0  0  0  0  0  0  0
  -24.7344  -31.2953   20.9314 C   0  0  0  0  0  0  0  0  0  0  0  0
  -31.5325  -12.1280   20.7878 C   0  0  0  0  0  0  0  0  0  0  0  0
  -30.0906  -14.3956   21.5128 C   0  0  0  0  0  0  0  0  0  0  0  0
  -26.6652  -15.8416   24.9509 C   0  0  0  0  0  0  0  0  0  0  0  0
  -24.3108  -31.0745   23.6799 C   0  0  0  0  0  0  0  0  0  0  0  0
  -24.1218  -32.3367   21.6285 C   0  0  0  0  0  0  0  0  0  0  0  0
  -26.7146  -17.1671   25.3805 C   0  0  0  0  0  0  0  0  0  0  0  0
  -22.8340  -35.4771   22.9282 C   0  0  0  0  0  0  0  0  0  0  0  0
  -23.2612  -36.7772   22.6587 C   0  0  0  0  0  0  0  0  0  0  0  0
  -24.9007  -17.7125   23.8866 C   0  0  0  0  0  0  0  0  0  0  0  0
  -25.4956  -36.1895   23.3652 C   0  0  0  0  0  0  0  0  0  0  0  0
  -25.1352  -30.1436   21.6085 C   0  0  0  0  0  0  0  0  0  0  0  0
  -27.0557  -28.5416   21.1053 C   0  0  0  0  0  0  0  0  0  0  0  0
  -30.2667  -12.3484   20.2222 C   0  0  0  0  0  0  0  0  0  0  0  0
  -25.7389  -15.4433   23.9764 C   0  0  0  0  0  0  0  0  0  0  0  0
  -29.5403  -13.5002   20.5799 C   0  0  0  0  0  0  0  0  0  0  0  0
  -24.8399  -16.3809   23.4482 C   0  0  0  0  0  0  0  0  0  0  0  0
  -23.9100  -32.2262   23.0028 C   0  0  0  0  0  0  0  0  0  0  0  0
  -25.8342  -18.1033   24.8462 C   0  0  0  0  0  0  0  0  0  0  0  0
  -23.7375  -34.5331   23.4163 C   0  0  0  0  0  0  0  0  0  0  0  0
  -24.5920  -37.1334   22.8772 C   0  0  0  0  0  0  0  0  0  0  0  0
  -25.0683  -34.8893   23.6348 C   0  0  0  0  0  0  0  0  0  0  0  0
  -25.7684  -29.0685   20.8879 C   0  0  0  0  0  0  0  0  0  0  0  0
  -27.1816  -27.5452   20.1685 C   0  0  0  0  0  0  0  0  0  0  0  0
  -28.0487  -28.9191   22.0681 C   0  0  0  0  0  0  0  0  0  0  0  0
  -25.9480  -14.2288   21.0463 C   0  0  0  0  0  0  0  0  0  0  0  0
  -22.7253  -13.9961   21.3341 C   0  0  0  0  0  0  0  0  0  0  0  0
  -19.8621  -15.1046   22.8239 C   0  0  0  0  0  0  0  0  0  0  0  0
  -23.3682  -24.1174   17.2728 C   0  0  0  0  0  0  0  0  0  0  0  0
  -29.7520  -11.3738   19.1927 C   0  0  0  0  0  0  0  0  0  0  0  0
  -25.6806  -14.0041   23.5431 C   0  0  0  0  0  0  0  0  0  0  0  0
  -23.8130  -15.9998   22.4144 C   0  0  0  0  0  0  0  0  0  0  0  0
  -28.2544  -11.5033   18.9266 C   0  0  0  0  0  0  0  0  0  0  0  0
  -25.6713  -26.2662   15.8220 C   0  0  0  0  0  0  0  0  0  0  0  0
  -27.8694  -12.9679   18.7440 C   0  0  0  0  0  0  0  0  0  0  0  0
  -26.0885  -27.1861   16.9686 C   0  0  0  0  0  0  0  0  0  0  0  0
  -25.2927  -22.8970   24.0214 C   0  0  0  0  0  0  0  0  0  0  0  0
  -26.1172  -21.4510   22.1108 C   0  0  0  0  0  0  0  0  0  0  0  0
  -25.5828  -21.7624   25.0010 C   0  0  0  0  0  0  0  0  0  0  0  0
  -26.4048  -20.3197   23.0949 C   0  0  0  0  0  0  0  0  0  0  0  0
  -24.1736  -25.9874   15.8653 C   0  0  0  0  0  0  0  0  0  0  0  0
  -24.1185  -26.3060   18.3181 C   0  0  0  0  0  0  0  0  0  0  0  0
  -28.1655  -13.7783   20.0117 C   0  0  1  0  0  0  0  0  0  0  0  0
  -25.0400  -13.8186   22.1710 C   0  0  1  0  0  0  0  0  0  0  0  0
  -25.6285  -26.6212   18.3239 C   0  0  2  0  0  0  0  0  0  0  0  0
  -26.2095  -22.8093   22.8029 C   0  0  0  0  0  0  0  0  0  0  0  0
  -25.4973  -20.3956   24.3231 C   0  0  0  0  0  0  0  0  0  1  0  0
  -17.3779  -14.7492   22.8264 C   0  0  0  0  0  0  0  0  0  0  0  0
  -22.5053  -15.5329   18.7074 C   0  0  0  0  0  0  0  0  0  0  0  0
  -20.0992  -15.9691   19.2447 C   0  0  0  0  0  0  0  0  0  0  0  0
  -20.9023  -13.6273   18.9385 C   0  0  0  0  0  0  0  0  0  0  0  0
  -22.5496  -22.2792   18.6971 C   0  0  0  0  0  0  0  0  0  0  0  0
  -19.8633  -14.3000   25.6719 C   0  0  0  0  0  0  0  0  0  0  0  0
  -26.9548  -24.2406   20.9065 C   0  0  0  0  0  0  0  0  0  0  0  0
  -23.9600  -24.8057   20.5159 C   0  0  0  0  0  0  0  0  0  0  0  0
  -22.7128  -24.5357   19.6812 C   0  0  0  0  0  0  0  0  0  0  0  0
  -24.5751  -23.5250   21.0656 C   0  0  0  0  0  0  0  0  0  0  0  0
  -21.5563  -14.8992   21.0233 C   0  0  1  0  0  0  0  0  0  0  0  0
  -18.7037  -14.3580   23.4604 C   0  0  2  0  0  0  0  0  0  0  0  0
  -21.2863  -15.0150   19.4965 C   0  0  0  0  0  0  0  0  0  0  0  0
  -25.1228  -28.4574   19.8910 N   0  0  0  0  0  0  0  0  0  0  0  0
  -26.0080  -27.5364   19.4737 N   0  0  0  0  0  0  0  0  0  0  0  0
  -23.7997  -14.5819   22.0185 N   0  0  0  0  0  0  0  0  0  0  0  0
  -23.7710  -25.4570   17.1682 N   0  0  0  0  0  0  0  0  0  0  0  0
  -28.1806  -26.6845   19.8794 N   0  0  0  0  0  0  0  0  0  0  0  0
  -28.9789  -29.9068   21.7164 N   0  0  0  0  0  0  0  0  0  0  0  0
  -27.1467  -13.5422   21.0121 N   0  0  0  0  0  0  0  0  0  0  0  0
  -20.4279  -14.3855   21.7924 N   0  0  0  0  0  0  0  0  0  0  0  0
  -22.9837  -23.6603   18.5424 N   0  0  0  0  0  0  0  0  0  0  0  0
  -18.6335  -14.6570   24.9187 N   0  3  0  0  0  0  0  0  0  0  0  0
  -25.8254  -23.8701   21.8343 N   0  3  1  0  0  0  0  0  0  0  0  0
  -28.1196  -28.3845   23.2007 O   0  0  0  0  0  0  0  0  0  0  0  0
  -25.5871  -15.1024   20.2665 O   0  0  0  0  0  0  0  0  0  0  0  0
  -22.6837  -12.8126   20.9887 O   0  0  0  0  0  0  0  0  0  0  0  0
  -20.2260  -16.2162   23.2013 O   0  0  0  0  0  0  0  0  0  0  0  0
  -23.3453  -23.3715   16.2852 O   0  0  0  0  0  0  0  0  0  0  0  0
  -23.3120  -33.2425   23.6826 O   0  0  0  0  0  0  0  0  0  0  0  0
  -25.8807  -19.3979   25.2633 O   0  0  0  0  0  0  0  0  0  1  0  0
  -25.0025  -38.3816   22.6169 F   0  0  0  0  0  0  0  0  0  0  0  0
  -25.9413  -33.9864   24.1024 F   0  0  0  0  0  0  0  0  0  0  0  0
  1  2  1  0  0  0  0
  1  5  2  0  0  0  0
  2  6  2  0  0  0  0
  3  8  2  0  0  0  0
  3 15  1  0  0  0  0
  4  9  1  0  0  0  0
  4 15  2  0  0  0  0
  5 17  1  0  0  0  0
  6 19  1  0  0  0  0
  7 10  2  0  0  0  0
  7 18  1  0  0  0  0
  8 21  1  0  0  0  0
  9 21  2  0  0  0  0
 10 22  1  0  0  0  0
 11 12  2  0  0  0  0
 11 23  1  0  0  0  0
 12 24  1  0  0  0  0
 13 20  1  0  0  0  0
 13 22  2  0  0  0  0
 14 24  2  0  0  0  0
 14 25  1  0  0  0  0
 15 26  1  0  0  0  0
 16 26  1  0  0  0  0
 16 27  2  0  0  0  0
 16 28  1  0  0  0  0
 17 19  2  0  0  0  0
 17 33  1  0  0  0  0
 18 20  2  0  0  0  0
 18 34  1  0  0  0  0
 19 46  1  0  0  0  0
 20 35  1  0  0  0  0
 21 80  1  0  0  0  0
 22 81  1  0  0  0  0
 23 25  2  0  0  0  0
 23 80  1  0  0  0  0
 24 82  1  0  0  0  0
 25 83  1  0  0  0  0
 26 64  2  0  0  0  0
 27 65  1  0  0  0  0
 27 68  1  0  0  0  0
 28 69  1  0  0  0  0
 28 75  2  0  0  0  0
 29 47  1  0  0  0  0
 29 70  1  0  0  0  0
 29 76  2  0  0  0  0
 30 61  1  0  0  0  0
 30 66  1  0  0  0  0
 30 77  2  0  0  0  0
 31 62  1  0  0  0  0
 31 71  1  0  0  0  0
 31 78  2  0  0  0  0
 32 67  1  0  0  0  0
 32 72  1  0  0  0  0
 32 79  2  0  0  0  0
 33 36  1  0  0  0  0
 34 47  1  0  0  0  0
 35 66  1  0  0  0  0
 36 38  1  0  0  0  0
 37 39  1  0  0  0  0
 37 44  1  0  0  0  0
 38 46  1  0  0  0  0
 39 48  1  0  0  0  0
 40 42  1  0  0  0  0
 40 49  1  0  0  0  0
 41 43  1  0  0  0  0
 41 49  1  0  0  0  0
 42 50  1  0  0  0  0
 43 50  1  0  0  0  0
 44 67  1  0  0  0  0
 45 48  1  0  0  0  0
 45 67  1  0  0  0  0
 46 70  1  0  0  0  0
 47 66  1  0  0  0  0
 48 65  1  0  0  0  0
 49 74  1  0  0  0  0
 50 81  1  0  0  0  0
 51 62  1  0  0  0  0
 52 63  1  0  0  0  0
 53 63  1  0  0  0  0
 54 63  1  0  0  0  0
 55 72  1  0  0  0  0
 56 73  1  0  0  0  0
 57 74  1  0  0  0  0
 58 59  1  0  0  0  0
 58 60  1  0  0  0  0
 59 72  1  0  0  0  0
 60 74  1  0  0  0  0
 61 63  1  0  0  0  0
 61 71  1  0  0  0  0
 62 73  1  0  0  0  0
 64 65  1  0  0  0  0
M  CHG  2  73   1  74   1
M  ISO  4  32 100  50 101  72 100  81 101
M  END
> <Batch ID>
0099

> <Smiles>
CNC(C)C(=O)NC(C(=O)N1Cc2cc([101O:1][101CH:1]3CCC(N(C)CCC[100N:0](C)[100C:0](=O)N4CCCC(n5nc(-c6ccc(Oc7ccc(F)cc7F)cc6)c(C(N)=O)c5N)C4)CC3)ccc2CC1C(=O)NC1CCCc2ccccc21)C(C)(C)C

> <Shape>
0.194

> <Color>
0.082

> <Negative vol penalty>
0.000

$$$$

  -OEChem-04052319313D

 79 87  0     1  0  0  0  0  0999 V2000
  -32.5246  -23.8802   10.1821 C   0  0  0  0  0  0  0  0  0  0  0  0
  -31.9042  -22.9239   10.9796 C   0  0  0  0  0  0  0  0  0  0  0  0
  -23.0806   -9.8129   20.0193 C   0  0  0  0  0  0  0  0  0  0  0  0
  -23.7994   -9.9411   22.3223 C   0  0  0  0  0  0  0  0  0  0  0  0
  -33.1853  -24.9565   10.7728 C   0  0  0  0  0  0  0  0  0  0  0  0
  -31.9451  -23.0428   12.3684 C   0  0  0  0  0  0  0  0  0  0  0  0
  -28.0389  -21.6464   18.2086 C   0  0  0  0  0  0  0  0  0  0  0  0
  -22.3297   -8.6757   20.3169 C   0  0  0  0  0  0  0  0  0  0  0  0
  -23.0484   -8.8039   22.6200 C   0  0  0  0  0  0  0  0  0  0  0  0
  -28.1391  -21.0083   19.4442 C   0  0  0  0  0  0  0  0  0  0  0  0
  -22.8889   -5.3767   20.7945 C   0  0  0  0  0  0  0  0  0  0  0  0
  -22.9701   -4.2984   19.9135 C   0  0  0  0  0  0  0  0  0  0  0  0
  -29.2418  -22.9524   20.3519 C   0  0  0  0  0  0  0  0  0  0  0  0
  -31.8439  -17.5170   21.4796 C   0  0  0  0  0  0  0  0  0  0  0  0
  -20.5926   -4.4486   19.5106 C   0  0  0  0  0  0  0  0  0  0  0  0
  -29.8786  -17.8932   22.5119 C   0  0  0  0  0  0  0  0  0  0  0  0
  -23.8155  -10.4455   21.0220 C   0  0  0  0  0  0  0  0  0  0  0  0
  -24.1654  -12.9602   20.7737 C   0  0  0  0  0  0  0  0  0  0  0  0
  -33.2260  -25.0940   12.1692 C   0  0  0  0  0  0  0  0  0  0  0  0
  -28.5500  -22.9402   18.0322 C   0  0  0  0  0  0  0  0  0  0  0  0
  -32.6080  -24.1214   12.9783 C   0  0  0  0  0  0  0  0  0  0  0  0
  -29.1445  -23.6056   19.1138 C   0  0  0  0  0  0  0  0  0  0  0  0
  -30.5696  -16.9666   21.7628 C   0  0  0  0  0  0  0  0  0  0  0  0
  -22.3135   -8.1713   21.6173 C   0  0  0  0  0  0  0  0  0  0  0  0
  -28.7432  -21.6602   20.5153 C   0  0  0  0  0  0  0  0  0  0  0  0
  -21.6595   -5.9909   21.0337 C   0  0  0  0  0  0  0  0  0  0  0  0
  -21.8220   -3.8344   19.2715 C   0  0  0  0  0  0  0  0  0  0  0  0
  -20.5114   -5.5268   20.3918 C   0  0  0  0  0  0  0  0  0  0  0  0
  -24.5919  -11.6199   20.7150 C   0  0  0  0  0  0  0  0  0  0  0  0
  -31.8929  -18.7632   22.0645 C   0  0  0  0  0  0  0  0  0  0  0  0
  -25.2656  -13.6877   20.3907 C   0  0  0  0  0  0  0  0  0  0  0  0
  -22.8888  -13.4994   21.1416 C   0  0  0  0  0  0  0  0  0  0  0  0
  -30.8062  -24.2305   16.2023 C   0  0  0  0  0  0  0  0  0  0  0  0
  -29.6823  -27.0065   17.4485 C   0  0  0  0  0  0  0  0  0  0  0  0
  -28.0431  -28.5872   19.9904 C   0  0  0  0  0  0  0  0  0  0  0  0
  -30.7302  -14.7337   20.6075 C   0  0  0  0  0  0  0  0  0  0  0  0
  -33.9927  -26.2491   12.7629 C   0  0  0  0  0  0  0  0  0  0  0  0
  -28.4101  -23.6250   16.7003 C   0  0  0  0  0  0  0  0  0  0  0  0
  -29.6909  -25.0030   18.9818 C   0  0  0  0  0  0  0  0  0  0  0  0
  -33.6694  -26.5034   14.2330 C   0  0  0  0  0  0  0  0  0  0  0  0
  -29.6527  -12.1983   18.3518 C   0  0  0  0  0  0  0  0  0  0  0  0
  -33.6777  -25.1941   15.0156 C   0  0  0  0  0  0  0  0  0  0  0  0
  -28.2049  -11.9321   18.7704 C   0  0  0  0  0  0  0  0  0  0  0  0
  -30.5467  -12.4898   19.5558 C   0  0  0  0  0  0  0  0  0  0  0  0
  -28.6170  -13.2896   20.8619 C   0  0  0  0  0  0  0  0  0  0  0  0
  -32.6093  -24.2290   14.4878 C   0  0  1  0  0  0  0  0  0  0  0  0
  -29.4252  -24.7452   16.4948 C   0  0  1  0  0  0  0  0  0  0  0  0
  -27.6650  -13.0550   19.6777 C   0  0  2  0  0  0  0  0  0  0  0  0
  -32.9819  -19.7613   22.0785 C   0  0  0  0  0  0  0  0  0  0  0  0
  -27.3113  -30.8654   20.7465 C   0  0  0  0  0  0  0  0  0  0  0  0
  -32.5481  -27.6501   18.2750 C   0  0  0  0  0  0  0  0  0  0  0  0
  -31.6370  -29.4032   19.8128 C   0  0  0  0  0  0  0  0  0  0  0  0
  -31.2677  -29.5903   17.3528 C   0  0  0  0  0  0  0  0  0  0  0  0
  -25.1874  -27.8112   19.9484 C   0  0  0  0  0  0  0  0  0  0  0  0
  -30.3077  -20.2211   23.4590 C   0  0  0  0  0  0  0  0  0  0  0  0
  -29.9581  -21.3878   22.5415 C   0  0  0  0  0  0  0  0  0  1  0  0
  -30.0031  -27.8389   18.6664 C   0  0  1  0  0  0  0  0  0  0  0  0
  -26.9207  -29.6093   19.9834 C   0  0  2  0  0  0  0  0  0  0  0  0
  -31.3555  -28.5936   18.5290 C   0  0  0  0  0  0  0  0  0  0  0  0
  -25.8638  -11.5001   20.3252 N   0  0  0  0  0  0  0  0  0  0  0  0
  -30.6929  -18.9811   22.6895 N   0  0  0  0  0  0  0  0  0  0  0  0
  -26.2459  -12.7745   20.1354 N   0  0  0  0  0  0  0  0  0  0  0  0
  -29.5359  -25.6279   17.6578 N   0  0  0  0  0  0  0  0  0  0  0  0
  -29.9745  -13.5667   20.3667 N   0  0  0  0  0  0  0  0  0  0  0  0
  -25.4804  -15.0131   20.2506 N   0  0  0  0  0  0  0  0  0  0  0  0
  -21.8689  -12.6109   21.5086 N   0  0  0  0  0  0  0  0  0  0  0  0
  -30.0704  -15.7020   21.3636 N   0  0  0  0  0  0  0  0  0  0  0  0
  -31.2996  -24.6125   14.9694 N   0  0  0  0  0  0  0  0  0  0  0  0
  -28.8521  -28.7095   18.8805 N   0  0  0  0  0  0  0  0  0  0  0  0
  -25.6965  -29.0386   20.6129 N   0  3  0  0  0  0  0  0  0  0  0  0
  -22.6545  -14.7317   21.1290 O   0  0  0  0  0  0  0  0  0  0  0  0
  -31.3822  -23.5394   17.0343 O   0  0  0  0  0  0  0  0  0  0  0  0
  -29.5590  -27.5601   16.3531 O   0  0  0  0  0  0  0  0  0  0  0  0
  -28.1899  -27.7653   20.8922 O   0  0  0  0  0  0  0  0  0  0  0  0
  -31.8678  -14.8757   20.1520 O   0  0  0  0  0  0  0  0  0  0  0  0
  -21.5807   -7.0618   21.9081 O   0  0  0  0  0  0  0  0  0  0  0  0
  -28.8429  -21.0395   21.7222 O   0  0  0  0  0  0  0  0  0  1  0  0
  -21.9004   -2.7999   18.4242 F   0  0  0  0  0  0  0  0  0  0  0  0
  -19.3278   -6.1136   20.6166 F   0  0  0  0  0  0  0  0  0  0  0  0
  1  2  1  0  0  0  0
  1  5  2  0  0  0  0
  2  6  2  0  0  0  0
  3  8  2  0  0  0  0
  3 17  1  0  0  0  0
  4  9  1  0  0  0  0
  4 17  2  0  0  0  0
  5 19  1  0  0  0  0
  6 21  1  0  0  0  0
  7 10  2  0  0  0  0
  7 20  1  0  0  0  0
  8 24  1  0  0  0  0
  9 24  2  0  0  0  0
 10 25  1  0  0  0  0
 11 12  2  0  0  0  0
 11 26  1  0  0  0  0
 12 27  1  0  0  0  0
 13 22  1  0  0  0  0
 13 25  2  0  0  0  0
 14 23  1  0  0  0  0
 14 30  2  0  0  0  0
 15 27  2  0  0  0  0
 15 28  1  0  0  0  0
 16 23  2  0  0  0  0
 16 61  1  0  0  0  0
 17 29  1  0  0  0  0
 18 29  1  0  0  0  0
 18 31  2  0  0  0  0
 18 32  1  0  0  0  0
 19 21  2  0  0  0  0
 19 37  1  0  0  0  0
 20 22  2  0  0  0  0
 20 38  1  0  0  0  0
 21 46  1  0  0  0  0
 22 39  1  0  0  0  0
 23 67  1  0  0  0  0
 24 76  1  0  0  0  0
 25 77  1  0  0  0  0
 26 28  2  0  0  0  0
 26 76  1  0  0  0  0
 27 78  1  0  0  0  0
 28 79  1  0  0  0  0
 29 60  2  0  0  0  0
 30 49  1  0  0  0  0
 30 61  1  0  0  0  0
 31 62  1  0  0  0  0
 31 65  1  0  0  0  0
 32 66  1  0  0  0  0
 32 71  2  0  0  0  0
 33 47  1  0  0  0  0
 33 68  1  0  0  0  0
 33 72  2  0  0  0  0
 34 57  1  0  0  0  0
 34 63  1  0  0  0  0
 34 73  2  0  0  0  0
 35 58  1  0  0  0  0
 35 69  1  0  0  0  0
 35 74  2  0  0  0  0
 36 64  1  0  0  0  0
 36 67  1  0  0  0  0
 36 75  2  0  0  0  0
 37 40  1  0  0  0  0
 38 47  1  0  0  0  0
 39 63  1  0  0  0  0
 40 42  1  0  0  0  0
 41 43  1  0  0  0  0
 41 44  1  0  0  0  0
 42 46  1  0  0  0  0
 43 48  1  0  0  0  0
 44 64  1  0  0  0  0
 45 48  1  0  0  0  0
 45 64  1  0  0  0  0
 46 68  1  0  0  0  0
 47 63  1  0  0  0  0
 48 62  1  0  0  0  0
 50 58  1  0  0  0  0
 51 59  1  0  0  0  0
 52 59  1  0  0  0  0
 53 59  1  0  0  0  0
 54 70  1  0  0  0  0
 55 56  1  0  0  0  0
 55 61  1  0  0  0  0
 56 77  1  0  0  0  0
 57 59  1  0  0  0  0
 57 69  1  0  0  0  0
 58 70  1  0  0  0  0
 60 62  1  0  0  0  0
M  CHG  1  70   1
M  ISO  4  36 100  56 101  67 100  77 101
M  END
> <Batch ID>
0099

> <Smiles>
CNC(C)C(=O)NC(C(=O)N1Cc2cc([101O:1][101CH2:1]Cn3cc([100NH:0][100C:0](=O)N4CCCC(n5nc(-c6ccc(Oc7ccc(F)cc7F)cc6)c(C(N)=O)c5N)C4)cc3C)ccc2CC1C(=O)NC1CCCc2ccccc21)C(C)(C)C

> <Shape>
0.272

> <Color>
0.201

> <Negative vol penalty>
0.000

$$$$

  -OEChem-04052319313D

 84 92  0     1  0  0  0  0  0999 V2000
  -28.2193  -10.3818   16.9094 C   0  0  0  0  0  0  0  0  0  0  0  0
  -27.5406  -11.4966   16.4276 C   0  0  0  0  0  0  0  0  0  0  0  0
  -25.1018  -30.5162   20.4007 C   0  0  0  0  0  0  0  0  0  0  0  0
  -24.3397  -28.6215   21.6916 C   0  0  0  0  0  0  0  0  0  0  0  0
  -28.8379  -10.4294   18.1579 C   0  0  0  0  0  0  0  0  0  0  0  0
  -27.4793  -12.6594   17.1948 C   0  0  0  0  0  0  0  0  0  0  0  0
  -28.3774  -16.8332   14.4713 C   0  0  0  0  0  0  0  0  0  0  0  0
  -20.5853  -17.2744   16.3466 C   0  0  0  0  0  0  0  0  0  0  0  0
  -20.9369  -17.8717   15.1361 C   0  0  0  0  0  0  0  0  0  0  0  0
  -24.6334  -31.3795   21.3912 C   0  0  0  0  0  0  0  0  0  0  0  0
  -23.8713  -29.4848   22.6821 C   0  0  0  0  0  0  0  0  0  0  0  0
  -27.3364  -17.3112   13.6766 C   0  0  0  0  0  0  0  0  0  0  0  0
  -23.9618  -34.0657   23.7466 C   0  0  0  0  0  0  0  0  0  0  0  0
  -24.7938  -35.1139   24.1399 C   0  0  0  0  0  0  0  0  0  0  0  0
  -26.8217  -18.9648   15.3560 C   0  0  0  0  0  0  0  0  0  0  0  0
  -26.4785  -33.5213   24.8203 C   0  0  0  0  0  0  0  0  0  0  0  0
  -24.9549  -29.1372   20.5509 C   0  0  0  0  0  0  0  0  0  0  0  0
  -26.7193  -27.6685   19.4385 C   0  0  0  0  0  0  0  0  0  0  0  0
  -28.7923  -11.5965   18.9366 C   0  0  0  0  0  0  0  0  0  0  0  0
  -28.6420  -17.4113   15.7212 C   0  0  0  0  0  0  0  0  0  0  0  0
  -28.0968  -12.7222   18.4556 C   0  0  0  0  0  0  0  0  0  0  0  0
  -27.8684  -18.4939   16.1634 C   0  0  0  0  0  0  0  0  0  0  0  0
  -20.8236  -17.9411   17.5484 C   0  0  0  0  0  0  0  0  0  0  0  0
  -21.5269  -19.1356   15.1274 C   0  0  0  0  0  0  0  0  0  0  0  0
  -21.4136  -19.2050   17.5398 C   0  0  0  0  0  0  0  0  0  0  0  0
  -21.7652  -19.8023   16.3293 C   0  0  0  0  0  0  0  0  0  0  0  0
  -24.0182  -30.8638   22.5319 C   0  0  0  0  0  0  0  0  0  0  0  0
  -26.5565  -18.3753   14.1202 C   0  0  0  0  0  0  0  0  0  0  0  0
  -24.3880  -32.7453   23.8903 C   0  0  0  0  0  0  0  0  0  0  0  0
  -26.0521  -34.8417   24.6767 C   0  0  0  0  0  0  0  0  0  0  0  0
  -25.6464  -32.4731   24.4271 C   0  0  0  0  0  0  0  0  0  0  0  0
  -25.4381  -28.2450   19.5279 C   0  0  0  0  0  0  0  0  0  0  0  0
  -26.6743  -26.9073   18.2962 C   0  0  0  0  0  0  0  0  0  0  0  0
  -27.8491  -27.8086   20.3101 C   0  0  0  0  0  0  0  0  0  0  0  0
  -28.6169  -16.3705   18.7245 C   0  0  0  0  0  0  0  0  0  0  0  0
  -29.8266  -19.3158   19.3444 C   0  0  0  0  0  0  0  0  0  0  0  0
  -30.1711  -22.5694   18.3737 C   0  0  0  0  0  0  0  0  0  0  0  0
  -22.1868  -24.3118   15.3001 C   0  0  0  0  0  0  0  0  0  0  0  0
  -29.4359  -11.5848   20.3006 C   0  0  0  0  0  0  0  0  0  0  0  0
  -29.7856  -16.9015   16.5546 C   0  0  0  0  0  0  0  0  0  0  0  0
  -28.1243  -19.1626   17.4885 C   0  0  0  0  0  0  0  0  0  0  0  0
  -29.6431  -12.9783   20.8883 C   0  0  0  0  0  0  0  0  0  0  0  0
  -24.5211  -26.6810   14.0296 C   0  0  0  0  0  0  0  0  0  0  0  0
  -28.3801  -13.8186   20.7279 C   0  0  0  0  0  0  0  0  0  0  0  0
  -25.1365  -27.2985   15.2866 C   0  0  0  0  0  0  0  0  0  0  0  0
  -23.0378  -26.3725   14.2205 C   0  0  0  0  0  0  0  0  0  0  0  0
  -23.3394  -26.1626   16.6574 C   0  0  0  0  0  0  0  0  0  0  0  0
  -28.0292  -14.0100   19.2475 C   0  0  1  0  0  0  0  0  0  0  0  0
  -29.6384  -17.2315   18.0368 C   0  0  1  0  0  0  0  0  0  0  0  0
  -24.8474  -26.4396   16.5324 C   0  0  2  0  0  0  0  0  0  0  0  0
  -20.4371  -17.2793   18.8306 C   0  0  0  0  0  0  0  0  0  0  0  0
  -21.6669  -19.9182   18.8301 C   0  0  0  0  0  0  0  0  0  0  0  0
  -31.1819  -24.7468   19.1050 C   0  0  0  0  0  0  0  0  0  0  0  0
  -27.5783  -19.6744   21.3757 C   0  0  0  0  0  0  0  0  0  0  0  0
  -28.0534  -22.1325   21.3634 C   0  0  0  0  0  0  0  0  0  0  0  0
  -29.8063  -20.5290   22.1240 C   0  0  0  0  0  0  0  0  0  0  0  0
  -31.9073  -22.7005   15.9805 C   0  0  0  0  0  0  0  0  0  0  0  0
  -21.8989  -19.7576   13.8052 C   0  0  0  0  0  0  0  0  0  0  0  0
  -22.3995  -21.1572   16.3181 C   0  0  0  0  0  0  0  0  0  0  0  0
  -23.1681  -19.1706   13.1838 C   0  0  0  0  0  0  0  0  0  0  0  0
  -21.4002  -22.2998   16.5217 C   0  0  0  0  0  0  0  0  0  0  0  0
  -24.4180  -19.4111   14.0225 C   0  0  0  0  0  0  0  0  0  1  0  0
  -29.2368  -20.6681   19.6646 C   0  0  1  0  0  0  0  0  0  0  0  0
  -31.3875  -23.4745   18.2977 C   0  0  2  0  0  0  0  0  0  0  0  0
  -28.6624  -20.7374   21.1078 C   0  0  0  0  0  0  0  0  0  0  0  0
  -24.6377  -27.8813   18.5224 N   0  0  0  0  0  0  0  0  0  0  0  0
  -25.4180  -27.0681   17.7903 N   0  0  0  0  0  0  0  0  0  0  0  0
  -29.2498  -18.6239   18.2699 N   0  0  0  0  0  0  0  0  0  0  0  0
  -22.8321  -25.5538   15.4177 N   0  0  0  0  0  0  0  0  0  0  0  0
  -27.5873  -26.1228   17.6850 N   0  0  0  0  0  0  0  0  0  0  0  0
  -27.7240  -28.6292   21.4394 N   0  0  0  0  0  0  0  0  0  0  0  0
  -28.8820  -15.0163   18.6519 N   0  0  0  0  0  0  0  0  0  0  0  0
  -30.2847  -21.6456   19.3910 N   0  0  0  0  0  0  0  0  0  0  0  0
  -22.0381  -23.5968   16.4822 N   0  0  0  0  0  0  0  0  0  0  0  0
  -31.6627  -23.8547   16.8833 N   0  3  0  0  0  0  0  0  0  0  0  0
  -28.9424  -27.2363   20.0851 O   0  0  0  0  0  0  0  0  0  0  0  0
  -27.6600  -16.8960   19.2811 O   0  0  0  0  0  0  0  0  0  0  0  0
  -30.7692  -18.8922   20.0180 O   0  0  0  0  0  0  0  0  0  0  0  0
  -29.2142  -22.6741   17.6096 O   0  0  0  0  0  0  0  0  0  0  0  0
  -21.7785  -23.8701   14.2206 O   0  0  0  0  0  0  0  0  0  0  0  0
  -23.5612  -31.7058   23.4986 O   0  0  0  0  0  0  0  0  0  0  0  0
  -25.5393  -18.8433   13.3468 O   0  0  0  0  0  0  0  0  0  1  0  0
  -26.8517  -35.8484   25.0528 F   0  0  0  0  0  0  0  0  0  0  0  0
  -26.0619  -31.2067   24.5664 F   0  0  0  0  0  0  0  0  0  0  0  0
  1  2  1  0  0  0  0
  1  5  2  0  0  0  0
  2  6  2  0  0  0  0
  3 10  2  0  0  0  0
  3 17  1  0  0  0  0
  4 11  1  0  0  0  0
  4 17  2  0  0  0  0
  5 19  1  0  0  0  0
  6 21  1  0  0  0  0
  7 12  2  0  0  0  0
  7 20  1  0  0  0  0
  8  9  2  0  0  0  0
  8 23  1  0  0  0  0
  9 24  1  0  0  0  0
 10 27  1  0  0  0  0
 11 27  2  0  0  0  0
 12 28  1  0  0  0  0
 13 14  2  0  0  0  0
 13 29  1  0  0  0  0
 14 30  1  0  0  0  0
 15 22  1  0  0  0  0
 15 28  2  0  0  0  0
 16 30  2  0  0  0  0
 16 31  1  0  0  0  0
 17 32  1  0  0  0  0
 18 32  1  0  0  0  0
 18 33  2  0  0  0  0
 18 34  1  0  0  0  0
 19 21  2  0  0  0  0
 19 39  1  0  0  0  0
 20 22  2  0  0  0  0
 20 40  1  0  0  0  0
 21 48  1  0  0  0  0
 22 41  1  0  0  0  0
 23 25  2  0  0  0  0
 23 51  1  0  0  0  0
 24 26  2  0  0  0  0
 24 58  1  0  0  0  0
 25 26  1  0  0  0  0
 25 52  1  0  0  0  0
 26 59  1  0  0  0  0
 27 81  1  0  0  0  0
 28 82  1  0  0  0  0
 29 31  2  0  0  0  0
 29 81  1  0  0  0  0
 30 83  1  0  0  0  0
 31 84  1  0  0  0  0
 32 66  2  0  0  0  0
 33 67  1  0  0  0  0
 33 70  1  0  0  0  0
 34 71  1  0  0  0  0
 34 76  2  0  0  0  0
 35 49  1  0  0  0  0
 35 72  1  0  0  0  0
 35 77  2  0  0  0  0
 36 63  1  0  0  0  0
 36 68  1  0  0  0  0
 36 78  2  0  0  0  0
 37 64  1  0  0  0  0
 37 73  1  0  0  0  0
 37 79  2  0  0  0  0
 38 69  1  0  0  0  0
 38 74  1  0  0  0  0
 38 80  2  0  0  0  0
 39 42  1  0  0  0  0
 40 49  1  0  0  0  0
 41 68  1  0  0  0  0
 42 44  1  0  0  0  0
 43 45  1  0  0  0  0
 43 46  1  0  0  0  0
 44 48  1  0  0  0  0
 45 50  1  0  0  0  0
 46 69  1  0  0  0  0
 47 50  1  0  0  0  0
 47 69  1  0  0  0  0
 48 72  1  0  0  0  0
 49 68  1  0  0  0  0
 50 67  1  0  0  0  0
 53 64  1  0  0  0  0
 54 65  1  0  0  0  0
 55 65  1  0  0  0  0
 56 65  1  0  0  0  0
 57 75  1  0  0  0  0
 58 60  1  0  0  0  0
 59 61  1  0  0  0  0
 60 62  1  0  0  0  0
 61 74  1  0  0  0  0
 62 82  1  0  0  0  0
 63 65  1  0  0  0  0
 63 73  1  0  0  0  0
 64 75  1  0  0  0  0
 66 67  1  0  0  0  0
M  CHG  1  75   1
M  ISO  4  38 100  62 101  74 100  82 101
M  END
> <Batch ID>
0099

> <Smiles>
CNC(C)C(=O)NC(C(=O)N1Cc2cc([101O:1][101CH2:1]CCc3ccc(C)c(C)c3CC[100NH:0][100C:0](=O)N3CCCC(n4nc(-c5ccc(Oc6ccc(F)cc6F)cc5)c(C(N)=O)c4N)C3)ccc2CC1C(=O)NC1CCCc2ccccc21)C(C)(C)C

> <Shape>
0.229

> <Color>
0.067

> <Negative vol penalty>
0.000

$$$$

  -OEChem-04052319313D

 84 92  0     1  0  0  0  0  0999 V2000
  -27.6976  -31.4120   20.1786 C   0  0  0  0  0  0  0  0  0  0  0  0
  -27.8940  -30.0348   20.1861 C   0  0  0  0  0  0  0  0  0  0  0  0
  -23.0969   -9.8781   19.9379 C   0  0  0  0  0  0  0  0  0  0  0  0
  -23.8683   -9.8871   22.2274 C   0  0  0  0  0  0  0  0  0  0  0  0
  -27.0217  -32.0128   19.1175 C   0  0  0  0  0  0  0  0  0  0  0  0
  -27.4135  -29.2574   19.1329 C   0  0  0  0  0  0  0  0  0  0  0  0
  -30.7958  -25.8424   17.5384 C   0  0  0  0  0  0  0  0  0  0  0  0
  -22.3707   -8.7136   20.1872 C   0  0  0  0  0  0  0  0  0  0  0  0
  -23.1420   -8.7226   22.4767 C   0  0  0  0  0  0  0  0  0  0  0  0
  -30.9495  -24.6906   18.3088 C   0  0  0  0  0  0  0  0  0  0  0  0
  -19.9286   -7.8769   23.0924 C   0  0  0  0  0  0  0  0  0  0  0  0
  -19.1782   -7.8218   24.2670 C   0  0  0  0  0  0  0  0  0  0  0  0
  -29.5484  -23.4778   16.7644 C   0  0  0  0  0  0  0  0  0  0  0  0
  -20.4507   -5.8994   24.9897 C   0  0  0  0  0  0  0  0  0  0  0  0
  -29.2923  -18.7558   20.8786 C   0  0  0  0  0  0  0  0  0  0  0  0
  -23.8457  -10.4648   20.9580 C   0  0  0  0  0  0  0  0  0  0  0  0
  -24.1512  -12.9950   20.8460 C   0  0  0  0  0  0  0  0  0  0  0  0
  -26.5411  -31.2436   18.0461 C   0  0  0  0  0  0  0  0  0  0  0  0
  -30.0071  -25.8232   16.3791 C   0  0  0  0  0  0  0  0  0  0  0  0
  -26.7293  -29.8483   18.0571 C   0  0  0  0  0  0  0  0  0  0  0  0
  -29.3884  -24.6300   15.9796 C   0  0  0  0  0  0  0  0  0  0  0  0
  -22.3932   -8.1358   21.4566 C   0  0  0  0  0  0  0  0  0  0  0  0
  -30.3234  -23.5088   17.9235 C   0  0  0  0  0  0  0  0  0  0  0  0
  -20.9399   -6.9432   22.8665 C   0  0  0  0  0  0  0  0  0  0  0  0
  -19.4393   -6.8331   25.2156 C   0  0  0  0  0  0  0  0  0  0  0  0
  -21.2010   -5.9544   23.8151 C   0  0  0  0  0  0  0  0  0  0  0  0
  -24.5966  -11.6674   20.7010 C   0  0  0  0  0  0  0  0  0  0  0  0
  -30.5076  -18.1086   20.9201 C   0  0  0  0  0  0  0  0  0  0  0  0
  -31.2769  -19.4453   19.2315 C   0  0  0  0  0  0  0  0  0  0  0  0
  -30.0613  -20.0919   19.1896 C   0  0  0  0  0  0  0  0  0  0  0  0
  -25.2308  -13.7612   20.4801 C   0  0  0  0  0  0  0  0  0  0  0  0
  -22.8757  -13.4912   21.2733 C   0  0  0  0  0  0  0  0  0  0  0  0
  -27.3672  -27.3223   15.4370 C   0  0  0  0  0  0  0  0  0  0  0  0
  -27.9865  -25.8241   12.6274 C   0  0  0  0  0  0  0  0  0  0  0  0
  -29.4824  -23.2251   10.9981 C   0  0  0  0  0  0  0  0  0  0  0  0
  -30.7005  -14.8571   20.6448 C   0  0  0  0  0  0  0  0  0  0  0  0
  -25.7749  -31.9320   16.9444 C   0  0  0  0  0  0  0  0  0  0  0  0
  -29.8731  -27.0672   15.5443 C   0  0  0  0  0  0  0  0  0  0  0  0
  -28.5476  -24.5516   14.7325 C   0  0  0  0  0  0  0  0  0  0  0  0
  -25.6255  -31.0836   15.6842 C   0  0  0  0  0  0  0  0  0  0  0  0
  -29.5845  -12.4658   18.2546 C   0  0  0  0  0  0  0  0  0  0  0  0
  -25.1937  -29.6654   16.0436 C   0  0  0  0  0  0  0  0  0  0  0  0
  -28.1536  -12.1501   18.6936 C   0  0  0  0  0  0  0  0  0  0  0  0
  -30.5046  -12.6950   19.4517 C   0  0  0  0  0  0  0  0  0  0  0  0
  -28.5998  -13.3938   20.8507 C   0  0  0  0  0  0  0  0  0  0  0  0
  -26.2446  -28.9743   16.9208 C   0  0  1  0  0  0  0  0  0  0  0  0
  -28.6284  -27.0637   14.6623 C   0  0  1  0  0  0  0  0  0  0  0  0
  -27.6222  -13.2099   19.6773 C   0  0  2  0  0  0  0  0  0  0  0  0
  -29.7804  -22.2465    8.7066 C   0  0  0  0  0  0  0  0  0  0  0  0
  -33.7510  -18.1289   15.0604 C   0  0  0  0  0  0  0  0  0  0  0  0
  -33.4729  -20.5682   15.5430 C   0  0  0  0  0  0  0  0  0  0  0  0
  -25.1395  -24.7310   12.7265 C   0  0  0  0  0  0  0  0  0  0  0  0
  -25.7966  -23.0553   10.9863 C   0  0  0  0  0  0  0  0  0  0  0  0
  -25.8862  -25.4931   10.4646 C   0  0  0  0  0  0  0  0  0  0  0  0
  -32.4211  -23.5570   11.1119 C   0  0  0  0  0  0  0  0  0  0  0  0
  -32.3906  -19.8240   18.3161 C   0  0  0  0  0  0  0  0  0  0  0  0
  -30.7422  -17.0037   21.8896 C   0  0  0  0  0  0  0  0  0  0  0  0
  -29.8016  -21.2076   18.2206 C   0  0  0  0  0  0  0  0  0  1  0  0
  -32.5545  -18.8205   17.1589 C   0  0  0  0  0  0  0  0  0  0  0  0
  -27.6114  -24.4941   12.0196 C   0  0  1  0  0  0  0  0  0  0  0  0
  -30.3561  -23.1831    9.7574 C   0  0  2  0  0  0  0  0  0  0  0  0
  -33.6731  -19.1856   16.1652 C   0  0  0  0  0  0  0  0  0  0  0  0
  -26.1226  -24.4450   11.5739 C   0  0  0  0  0  0  0  0  0  0  0  0
  -29.0473  -19.7590   20.0126 N   0  0  0  0  0  0  0  0  0  0  0  0
  -25.8605  -11.5911   20.2760 N   0  0  0  0  0  0  0  0  0  0  0  0
  -31.5217  -18.4418   20.0973 N   0  0  0  0  0  0  0  0  0  0  0  0
  -26.2186  -12.8804   20.1507 N   0  0  0  0  0  0  0  0  0  0  0  0
  -28.4417  -25.7962   13.9532 N   0  0  0  0  0  0  0  0  0  0  0  0
  -29.9440  -13.7123   20.3444 N   0  0  0  0  0  0  0  0  0  0  0  0
  -25.4220  -15.0958   20.4112 N   0  0  0  0  0  0  0  0  0  0  0  0
  -21.8785  -12.5665   21.6122 N   0  0  0  0  0  0  0  0  0  0  0  0
  -27.3602  -28.5264   16.1149 N   0  0  0  0  0  0  0  0  0  0  0  0
  -28.5658  -24.2537   10.9426 N   0  0  0  0  0  0  0  0  0  0  0  0
  -30.0925  -15.7742   21.4934 N   0  0  0  0  0  0  0  0  0  0  0  0
  -31.7271  -22.7136   10.1049 N   0  3  0  0  0  0  0  0  0  0  0  0
  -22.6224  -14.7181   21.3366 O   0  0  0  0  0  0  0  0  0  0  0  0
  -26.4665  -26.4915   15.4198 O   0  0  0  0  0  0  0  0  0  0  0  0
  -27.8864  -26.8490   11.9484 O   0  0  0  0  0  0  0  0  0  0  0  0
  -29.5987  -22.4232   11.9221 O   0  0  0  0  0  0  0  0  0  0  0  0
  -31.8315  -15.0504   20.1861 O   0  0  0  0  0  0  0  0  0  0  0  0
  -21.6845   -6.9997   21.7002 O   0  0  0  0  0  0  0  0  0  0  0  0
  -30.4712  -22.3834   18.6741 O   0  0  0  0  0  0  0  0  0  1  0  0
  -18.7197   -6.7813   26.3442 F   0  0  0  0  0  0  0  0  0  0  0  0
  -22.1721   -5.0554   23.6041 F   0  0  0  0  0  0  0  0  0  0  0  0
  1  2  1  0  0  0  0
  1  5  2  0  0  0  0
  2  6  2  0  0  0  0
  3  8  2  0  0  0  0
  3 16  1  0  0  0  0
  4  9  1  0  0  0  0
  4 16  2  0  0  0  0
  5 18  1  0  0  0  0
  6 20  1  0  0  0  0
  7 10  2  0  0  0  0
  7 19  1  0  0  0  0
  8 22  1  0  0  0  0
  9 22  2  0  0  0  0
 10 23  1  0  0  0  0
 11 12  2  0  0  0  0
 11 24  1  0  0  0  0
 12 25  1  0  0  0  0
 13 21  1  0  0  0  0
 13 23  2  0  0  0  0
 14 25  2  0  0  0  0
 14 26  1  0  0  0  0
 15 28  1  0  0  0  0
 15 64  2  0  0  0  0
 16 27  1  0  0  0  0
 17 27  1  0  0  0  0
 17 31  2  0  0  0  0
 17 32  1  0  0  0  0
 18 20  2  0  0  0  0
 18 37  1  0  0  0  0
 19 21  2  0  0  0  0
 19 38  1  0  0  0  0
 20 46  1  0  0  0  0
 21 39  1  0  0  0  0
 22 81  1  0  0  0  0
 23 82  1  0  0  0  0
 24 26  2  0  0  0  0
 24 81  1  0  0  0  0
 25 83  1  0  0  0  0
 26 84  1  0  0  0  0
 27 65  2  0  0  0  0
 28 57  1  0  0  0  0
 28 66  2  0  0  0  0
 29 30  2  0  0  0  0
 29 56  1  0  0  0  0
 29 66  1  0  0  0  0
 30 58  1  0  0  0  0
 30 64  1  0  0  0  0
 31 67  1  0  0  0  0
 31 70  1  0  0  0  0
 32 71  1  0  0  0  0
 32 76  2  0  0  0  0
 33 47  1  0  0  0  0
 33 72  1  0  0  0  0
 33 77  2  0  0  0  0
 34 60  1  0  0  0  0
 34 68  1  0  0  0  0
 34 78  2  0  0  0  0
 35 61  1  0  0  0  0
 35 73  1  0  0  0  0
 35 79  2  0  0  0  0
 36 69  1  0  0  0  0
 36 74  1  0  0  0  0
 36 80  2  0  0  0  0
 37 40  1  0  0  0  0
 38 47  1  0  0  0  0
 39 68  1  0  0  0  0
 40 42  1  0  0  0  0
 41 43  1  0  0  0  0
 41 44  1  0  0  0  0
 42 46  1  0  0  0  0
 43 48  1  0  0  0  0
 44 69  1  0  0  0  0
 45 48  1  0  0  0  0
 45 69  1  0  0  0  0
 46 72  1  0  0  0  0
 47 68  1  0  0  0  0
 48 67  1  0  0  0  0
 49 61  1  0  0  0  0
 50 62  1  0  0  0  0
 51 62  1  0  0  0  0
 52 63  1  0  0  0  0
 53 63  1  0  0  0  0
 54 63  1  0  0  0  0
 55 75  1  0  0  0  0
 56 59  1  0  0  0  0
 57 74  1  0  0  0  0
 58 82  1  0  0  0  0
 59 62  1  0  0  0  0
 60 63  1  0  0  0  0
 60 73  1  0  0  0  0
 61 75  1  0  0  0  0
 65 67  1  0  0  0  0
M  CHG  1  75   1
M  ISO  4  36 100  58 101  74 100  82 101
M  END
> <Batch ID>
0099

> <Smiles>
CNC(C)C(=O)NC(C(=O)N1Cc2cc([101O:1][101CH2:1]c3ncc(C[100NH:0][100C:0](=O)N4CCCC(n5nc(-c6ccc(Oc7ccc(F)cc7F)cc6)c(C(N)=O)c5N)C4)nc3CCC(C)C)ccc2CC1C(=O)NC1CCCc2ccccc21)C(C)(C)C

> <Shape>
0.231

> <Color>
0.207

> <Negative vol penalty>
0.000

$$$$

  -OEChem-04052319313D

 87 95  0     1  0  0  0  0  0999 V2000
  -26.3511  -31.2817   25.6193 C   0  0  0  0  0  0  0  0  0  0  0  0
  -26.0652  -30.1297   24.8938 C   0  0  0  0  0  0  0  0  0  0  0  0
  -23.2142   -9.8737   21.4398 C   0  0  0  0  0  0  0  0  0  0  0  0
  -23.8702  -10.7679   23.5862 C   0  0  0  0  0  0  0  0  0  0  0  0
  -27.6240  -31.8469   25.5550 C   0  0  0  0  0  0  0  0  0  0  0  0
  -27.0520  -29.5427   24.1025 C   0  0  0  0  0  0  0  0  0  0  0  0
  -27.2345  -24.5104   24.6396 C   0  0  0  0  0  0  0  0  0  0  0  0
  -22.5078   -8.8555   22.0798 C   0  0  0  0  0  0  0  0  0  0  0  0
  -23.1637   -9.7497   24.2263 C   0  0  0  0  0  0  0  0  0  0  0  0
  -26.2649  -23.7633   23.9721 C   0  0  0  0  0  0  0  0  0  0  0  0
  -23.2019   -5.9151   23.5953 C   0  0  0  0  0  0  0  0  0  0  0  0
  -23.3527   -4.6171   23.1074 C   0  0  0  0  0  0  0  0  0  0  0  0
  -27.8573  -23.2643   22.2302 C   0  0  0  0  0  0  0  0  0  0  0  0
  -25.4738  -18.5284   22.8794 C   0  0  0  0  0  0  0  0  0  0  0  0
  -25.9444  -19.5702   20.7510 C   0  0  0  0  0  0  0  0  0  0  0  0
  -20.9814   -4.5111   22.6568 C   0  0  0  0  0  0  0  0  0  0  0  0
  -23.8955  -10.8300   22.1929 C   0  0  0  0  0  0  0  0  0  0  0  0
  -24.1386  -13.1472   21.1543 C   0  0  0  0  0  0  0  0  0  0  0  0
  -28.6297  -31.2610   24.7701 C   0  0  0  0  0  0  0  0  0  0  0  0
  -28.5217  -24.6494   24.1010 C   0  0  0  0  0  0  0  0  0  0  0  0
  -28.3392  -30.1013   24.0265 C   0  0  0  0  0  0  0  0  0  0  0  0
  -28.8421  -24.0116   22.8940 C   0  0  0  0  0  0  0  0  0  0  0  0
  -25.2061  -19.5178   21.9334 C   0  0  0  0  0  0  0  0  0  0  0  0
  -26.4797  -17.5914   22.6432 C   0  0  0  0  0  0  0  0  0  0  0  0
  -26.9503  -18.6332   20.5148 C   0  0  0  0  0  0  0  0  0  0  0  0
  -27.2180  -17.6438   21.4609 C   0  0  0  0  0  0  0  0  0  0  0  0
  -22.4825   -8.7935   23.4731 C   0  0  0  0  0  0  0  0  0  0  0  0
  -26.5754  -23.1425   22.7658 C   0  0  0  0  0  0  0  0  0  0  0  0
  -21.9409   -6.5111   23.6140 C   0  0  0  0  0  0  0  0  0  0  0  0
  -22.2424   -3.9151   22.6381 C   0  0  0  0  0  0  0  0  0  0  0  0
  -20.8307   -5.8091   23.1448 C   0  0  0  0  0  0  0  0  0  0  0  0
  -24.6258  -11.8817   21.5323 C   0  0  0  0  0  0  0  0  0  0  0  0
  -25.2143  -13.7681   20.5678 C   0  0  0  0  0  0  0  0  0  0  0  0
  -22.8307  -13.7111   21.3186 C   0  0  0  0  0  0  0  0  0  0  0  0
  -30.2781  -27.0984   23.0903 C   0  0  0  0  0  0  0  0  0  0  0  0
  -32.5776  -24.8281   22.8067 C   0  0  0  0  0  0  0  0  0  0  0  0
  -33.3595  -21.5293   22.4154 C   0  0  0  0  0  0  0  0  0  0  0  0
  -31.1749  -12.5520   21.2961 C   0  0  0  0  0  0  0  0  0  0  0  0
  -29.9769  -31.9349   24.6948 C   0  0  0  0  0  0  0  0  0  0  0  0
  -29.5641  -25.4366   24.8467 C   0  0  0  0  0  0  0  0  0  0  0  0
  -30.2153  -24.1131   22.2837 C   0  0  0  0  0  0  0  0  0  0  0  0
  -31.0750  -31.0394   24.1271 C   0  0  0  0  0  0  0  0  0  0  0  0
  -29.2338  -12.8369   18.1572 C   0  0  0  0  0  0  0  0  0  0  0  0
  -30.5871  -30.3291   22.8684 C   0  0  0  0  0  0  0  0  0  0  0  0
  -27.7948  -12.6584   18.6381 C   0  0  0  0  0  0  0  0  0  0  0  0
  -30.2275  -12.1121   19.0599 C   0  0  0  0  0  0  0  0  0  0  0  0
  -28.6788  -12.3050   20.9778 C   0  0  0  0  0  0  0  0  0  0  0  0
  -29.3902  -29.4211   23.1762 C   0  0  1  0  0  0  0  0  0  0  0  0
  -30.6914  -25.9363   23.9485 C   0  0  1  0  0  0  0  0  0  0  0  0
  -27.6564  -13.0616   20.1165 C   0  0  2  0  0  0  0  0  0  0  0  0
  -26.7457  -16.5413   23.6719 C   0  0  0  0  0  0  0  0  0  0  0  0
  -27.7265  -18.7109   19.2407 C   0  0  0  0  0  0  0  0  0  0  0  0
  -35.3232  -19.9848   22.1796 C   0  0  0  0  0  0  0  0  0  0  0  0
  -32.9416  -25.7360   19.9165 C   0  0  0  0  0  0  0  0  0  0  0  0
  -34.1769  -23.6035   19.4754 C   0  0  0  0  0  0  0  0  0  0  0  0
  -35.0713  -25.2414   21.1307 C   0  0  0  0  0  0  0  0  0  0  0  0
  -32.2863  -13.5943   23.2346 C   0  0  0  0  0  0  0  0  0  0  0  0
  -32.6410  -20.0522   24.8773 C   0  0  0  0  0  0  0  0  0  0  0  0
  -30.0966  -18.2637   21.7723 C   0  0  0  0  0  0  0  0  0  0  0  0
  -24.1181  -20.5322   22.1893 C   0  0  0  0  0  0  0  0  0  0  0  0
  -28.2962  -16.6388   21.2077 C   0  0  0  0  0  0  0  0  0  0  0  0
  -30.1357  -14.5348   22.4757 C   0  0  0  0  0  0  0  0  0  0  0  0
  -30.5727  -15.8194   21.7966 C   0  0  0  0  0  0  0  0  0  0  0  0
  -24.6381  -21.7707   22.9108 C   0  0  0  0  0  0  0  0  0  1  0  0
  -33.0194  -23.8845   21.7142 C   0  0  1  0  0  0  0  0  0  0  0  0
  -34.3443  -20.6340   23.1455 C   0  0  2  0  0  0  0  0  0  0  0  0
  -33.7758  -24.6159   20.5695 C   0  0  0  0  0  0  0  0  0  0  0  0
  -25.9110  -11.7074   21.2127 N   0  0  0  0  0  0  0  0  0  0  0  0
  -26.2403  -12.8716   20.6276 N   0  0  0  0  0  0  0  0  0  0  0  0
  -31.1982  -24.8992   23.0476 N   0  0  0  0  0  0  0  0  0  0  0  0
  -30.0454  -12.4811   20.4641 N   0  0  0  0  0  0  0  0  0  0  0  0
  -25.3730  -14.9880   20.0119 N   0  0  0  0  0  0  0  0  0  0  0  0
  -21.8428  -12.9368   21.9422 N   0  0  0  0  0  0  0  0  0  0  0  0
  -29.8342  -28.1951   23.8041 N   0  0  0  0  0  0  0  0  0  0  0  0
  -33.7952  -22.8367   22.3690 N   0  0  0  0  0  0  0  0  0  0  0  0
  -31.1348  -13.4756   22.3516 N   0  0  0  0  0  0  0  0  0  0  0  0
  -33.6205  -19.5559   23.8767 N   0  3  0  0  0  0  0  0  0  0  0  0
  -29.5281  -16.8866   22.0035 N   0  3  1  0  0  0  0  0  0  0  0  0
  -22.5419  -14.8612   20.9094 O   0  0  0  0  0  0  0  0  0  0  0  0
  -30.3574  -27.0072   21.8708 O   0  0  0  0  0  0  0  0  0  0  0  0
  -33.4258  -25.4730   23.4284 O   0  0  0  0  0  0  0  0  0  0  0  0
  -32.3106  -21.1100   21.9312 O   0  0  0  0  0  0  0  0  0  0  0  0
  -32.1666  -11.8378   21.1004 O   0  0  0  0  0  0  0  0  0  0  0  0
  -21.7930   -7.8001   24.0980 O   0  0  0  0  0  0  0  0  0  0  0  0
  -25.6307  -22.4132   22.1119 O   0  0  0  0  0  0  0  0  0  1  0  0
  -22.3875   -2.6692   22.1682 F   0  0  0  0  0  0  0  0  0  0  0  0
  -19.6169   -6.3769   23.1592 F   0  0  0  0  0  0  0  0  0  0  0  0
  1  2  1  0  0  0  0
  1  5  2  0  0  0  0
  2  6  2  0  0  0  0
  3  8  2  0  0  0  0
  3 17  1  0  0  0  0
  4  9  1  0  0  0  0
  4 17  2  0  0  0  0
  5 19  1  0  0  0  0
  6 21  1  0  0  0  0
  7 10  2  0  0  0  0
  7 20  1  0  0  0  0
  8 27  1  0  0  0  0
  9 27  2  0  0  0  0
 10 28  1  0  0  0  0
 11 12  2  0  0  0  0
 11 29  1  0  0  0  0
 12 30  1  0  0  0  0
 13 22  1  0  0  0  0
 13 28  2  0  0  0  0
 14 23  1  0  0  0  0
 14 24  2  0  0  0  0
 15 23  2  0  0  0  0
 15 25  1  0  0  0  0
 16 30  2  0  0  0  0
 16 31  1  0  0  0  0
 17 32  1  0  0  0  0
 18 32  1  0  0  0  0
 18 33  2  0  0  0  0
 18 34  1  0  0  0  0
 19 21  2  0  0  0  0
 19 39  1  0  0  0  0
 20 22  2  0  0  0  0
 20 40  1  0  0  0  0
 21 48  1  0  0  0  0
 22 41  1  0  0  0  0
 23 60  1  0  0  0  0
 24 26  1  0  0  0  0
 24 51  1  0  0  0  0
 25 26  2  0  0  0  0
 25 52  1  0  0  0  0
 26 61  1  0  0  0  0
 27 84  1  0  0  0  0
 28 85  1  0  0  0  0
 29 31  2  0  0  0  0
 29 84  1  0  0  0  0
 30 86  1  0  0  0  0
 31 87  1  0  0  0  0
 32 68  2  0  0  0  0
 33 69  1  0  0  0  0
 33 72  1  0  0  0  0
 34 73  1  0  0  0  0
 34 79  2  0  0  0  0
 35 49  1  0  0  0  0
 35 74  1  0  0  0  0
 35 80  2  0  0  0  0
 36 65  1  0  0  0  0
 36 70  1  0  0  0  0
 36 81  2  0  0  0  0
 37 66  1  0  0  0  0
 37 75  1  0  0  0  0
 37 82  2  0  0  0  0
 38 71  1  0  0  0  0
 38 76  1  0  0  0  0
 38 83  2  0  0  0  0
 39 42  1  0  0  0  0
 40 49  1  0  0  0  0
 41 70  1  0  0  0  0
 42 44  1  0  0  0  0
 43 45  1  0  0  0  0
 43 46  1  0  0  0  0
 44 48  1  0  0  0  0
 45 50  1  0  0  0  0
 46 71  1  0  0  0  0
 47 50  1  0  0  0  0
 47 71  1  0  0  0  0
 48 74  1  0  0  0  0
 49 70  1  0  0  0  0
 50 69  1  0  0  0  0
 53 66  1  0  0  0  0
 54 67  1  0  0  0  0
 55 67  1  0  0  0  0
 56 67  1  0  0  0  0
 57 76  1  0  0  0  0
 58 77  1  0  0  0  0
 59 78  1  0  0  0  0
 60 64  1  0  0  0  0
 61 78  1  0  0  0  0
 62 63  1  0  0  0  0
 62 76  1  0  0  0  0
 63 78  1  0  0  0  0
 64 85  1  0  0  0  0
 65 67  1  0  0  0  0
 65 75  1  0  0  0  0
 66 77  1  0  0  0  0
 68 69  1  0  0  0  0
M  CHG  2  77   1  78   1
M  ISO  4  38 100  64 101  76 100  85 101
M  END
> <Batch ID>
0099

> <Smiles>
CNC(C)C(=O)NC(C(=O)N1Cc2cc([101O:1][101CH2:1]Cc3cc(C)c(CN(C)CC[100N:0](C)[100C:0](=O)N4CCCC(n5nc(-c6ccc(Oc7ccc(F)cc7F)cc6)c(C(N)=O)c5N)C4)c(C)c3)ccc2CC1C(=O)NC1CCCc2ccccc21)C(C)(C)C

> <Shape>
0.212

> <Color>
0.136

> <Negative vol penalty>
0.000

$$$$

  -OEChem-04052319313D

 91 99  0     1  0  0  0  0  0999 V2000
  -32.4070  -13.5324   20.7365 C   0  0  0  0  0  0  0  0  0  0  0  0
  -31.8545  -14.8071   20.8102 C   0  0  0  0  0  0  0  0  0  0  0  0
  -27.7971  -25.1162   17.4531 C   0  0  0  0  0  0  0  0  0  0  0  0
  -26.2597  -23.8481   18.8187 C   0  0  0  0  0  0  0  0  0  0  0  0
  -31.6125  -12.4503   20.3600 C   0  0  0  0  0  0  0  0  0  0  0  0
  -30.5074  -15.0005   20.5064 C   0  0  0  0  0  0  0  0  0  0  0  0
  -26.6848  -19.0129   23.1131 C   0  0  0  0  0  0  0  0  0  0  0  0
  -28.6639  -24.0241   17.4147 C   0  0  0  0  0  0  0  0  0  0  0  0
  -27.1264  -22.7559   18.7803 C   0  0  0  0  0  0  0  0  0  0  0  0
  -26.2429  -20.2765   22.7237 C   0  0  0  0  0  0  0  0  0  0  0  0
  -29.0988  -19.7553   19.3425 C   0  0  0  0  0  0  0  0  0  0  0  0
  -29.3435  -19.0795   20.5379 C   0  0  0  0  0  0  0  0  0  0  0  0
  -24.2613  -19.2836   21.7717 C   0  0  0  0  0  0  0  0  0  0  0  0
  -17.7749  -26.6700   22.3205 C   0  0  0  0  0  0  0  0  0  0  0  0
  -30.2273  -21.1096   21.5046 C   0  0  0  0  0  0  0  0  0  0  0  0
  -26.5950  -25.0283   18.1551 C   0  0  0  0  0  0  0  0  0  0  0  0
  -24.6581  -26.4477   17.2943 C   0  0  0  0  0  0  0  0  0  0  0  0
  -30.2527  -12.6290   20.0608 C   0  0  0  0  0  0  0  0  0  0  0  0
  -25.9222  -17.8720   22.8246 C   0  0  0  0  0  0  0  0  0  0  0  0
  -29.6943  -13.9199   20.1243 C   0  0  0  0  0  0  0  0  0  0  0  0
  -24.6945  -18.0069   22.1608 C   0  0  0  0  0  0  0  0  0  0  0  0
  -17.3135  -27.9502   22.6062 C   0  0  0  0  0  0  0  0  0  0  0  0
  -18.2199  -28.9537   22.9296 C   0  0  0  0  0  0  0  0  0  0  0  0
  -28.3286  -22.8439   18.0783 C   0  0  0  0  0  0  0  0  0  0  0  0
  -25.0324  -20.4118   22.0503 C   0  0  0  0  0  0  0  0  0  0  0  0
  -29.4184  -21.1082   19.2281 C   0  0  0  0  0  0  0  0  0  0  0  0
  -29.9078  -19.7567   21.6190 C   0  0  0  0  0  0  0  0  0  0  0  0
  -29.9826  -21.7854   20.3092 C   0  0  0  0  0  0  0  0  0  0  0  0
  -25.6995  -26.1563   18.1956 C   0  0  0  0  0  0  0  0  0  0  0  0
  -19.5665  -28.6284   22.9534 C   0  0  0  0  0  0  0  0  0  0  0  0
  -19.1414  -26.4470   22.3714 C   0  0  0  0  0  0  0  0  0  0  0  0
  -24.1123  -27.6163   17.7665 C   0  0  0  0  0  0  0  0  0  0  0  0
  -24.2230  -25.7266   16.1340 C   0  0  0  0  0  0  0  0  0  0  0  0
  -26.3850  -15.2412   21.1017 C   0  0  0  0  0  0  0  0  0  0  0  0
  -23.5367  -14.3685   22.3855 C   0  0  0  0  0  0  0  0  0  0  0  0
  -20.5784  -15.3250   23.7929 C   0  0  0  0  0  0  0  0  0  0  0  0
  -22.9258  -30.2984   22.7578 C   0  0  0  0  0  0  0  0  0  0  0  0
  -29.4452  -11.4365   19.6127 C   0  0  0  0  0  0  0  0  0  0  0  0
  -26.4000  -16.5188   23.2751 C   0  0  0  0  0  0  0  0  0  0  0  0
  -23.8286  -16.8156   21.8451 C   0  0  0  0  0  0  0  0  0  0  0  0
  -27.9371  -11.6659   19.6700 C   0  0  0  0  0  0  0  0  0  0  0  0
  -25.6873  -31.2524   20.7229 C   0  0  0  0  0  0  0  0  0  0  0  0
  -27.5783  -13.0140   19.0529 C   0  0  0  0  0  0  0  0  0  0  0  0
  -25.8751  -30.0627   19.7800 C   0  0  0  0  0  0  0  0  0  0  0  0
  -25.2656  -30.8039   22.1204 C   0  0  0  0  0  0  0  0  0  0  0  0
  -24.2652  -28.7414   21.2156 C   0  0  0  0  0  0  0  0  0  0  0  0
  -28.2311  -14.1660   19.8264 C   0  0  1  0  0  0  0  0  0  0  0  0
  -25.7891  -15.3726   22.4748 C   0  0  1  0  0  0  0  0  0  0  0  0
  -24.6362  -29.1470   19.7789 C   0  0  2  0  0  0  0  0  0  0  0  0
  -18.4363  -14.3877   24.7039 C   0  0  0  0  0  0  0  0  0  0  0  0
  -17.6200  -32.2556   24.9139 C   0  0  0  0  0  0  0  0  0  0  0  0
  -17.5654  -29.8877   25.7223 C   0  0  0  0  0  0  0  0  0  0  0  0
  -15.0474  -26.9385   22.1735 C   0  0  0  0  0  0  0  0  0  0  0  0
  -15.5091  -29.3211   21.5056 C   0  0  0  0  0  0  0  0  0  0  0  0
  -15.2136  -28.7199   23.8999 C   0  0  0  0  0  0  0  0  0  0  0  0
  -22.5533  -13.8590   19.5424 C   0  0  0  0  0  0  0  0  0  0  0  0
  -20.2111  -13.8587   20.4271 C   0  0  0  0  0  0  0  0  0  0  0  0
  -21.8407  -12.1427   21.2160 C   0  0  0  0  0  0  0  0  0  0  0  0
  -21.0906  -16.4562   26.4793 C   0  0  0  0  0  0  0  0  0  0  0  0
  -17.7528  -30.3358   23.2414 C   0  0  0  0  0  0  0  0  0  0  0  0
  -20.5873  -29.6642   23.2946 C   0  0  0  0  0  0  0  0  0  0  0  0
  -22.8615  -23.3072   21.8804 C   0  0  0  0  0  0  0  0  0  0  0  0
  -21.3591  -23.5648   21.8428 C   0  0  0  0  0  0  0  0  0  0  0  0
  -23.1878  -21.8453   21.6051 C   0  0  0  0  0  0  0  0  0  1  0  0
  -21.0295  -25.0165   22.1601 C   0  0  0  0  0  0  0  0  0  0  0  0
  -22.0895  -14.5366   21.9902 C   0  0  1  0  0  0  0  0  0  0  0  0
  -19.8501  -14.8407   25.0336 C   0  0  2  0  0  0  0  0  0  0  0  0
  -18.1276  -30.8342   24.6588 C   0  0  0  0  0  0  0  0  0  0  0  0
  -15.8461  -28.2214   22.5590 C   0  0  0  0  0  0  0  0  0  0  0  0
  -21.6907  -13.6217   20.7980 C   0  0  0  0  0  0  0  0  0  0  0  0
  -25.8106  -27.0664   19.1668 N   0  0  0  0  0  0  0  0  0  0  0  0
  -20.0524  -27.3965   22.6817 N   0  0  0  0  0  0  0  0  0  0  0  0
  -24.8321  -27.9413   18.8784 N   0  0  0  0  0  0  0  0  0  0  0  0
  -24.3420  -15.5131   22.3006 N   0  0  0  0  0  0  0  0  0  0  0  0
  -24.0847  -29.9401   22.0494 N   0  0  0  0  0  0  0  0  0  0  0  0
  -23.0918  -28.3874   17.3348 N   0  0  0  0  0  0  0  0  0  0  0  0
  -24.8942  -24.5450   15.7911 N   0  0  0  0  0  0  0  0  0  0  0  0
  -27.5029  -14.4307   21.0487 N   0  0  0  0  0  0  0  0  0  0  0  0
  -21.3071  -14.3148   23.2014 N   0  0  0  0  0  0  0  0  0  0  0  0
  -21.8501  -29.4280   22.6310 N   0  0  0  0  0  0  0  0  0  0  0  0
  -19.7701  -15.9314   26.0461 N   0  3  0  0  0  0  0  0  0  0  0  0
  -23.2779  -26.1271   15.4130 O   0  0  0  0  0  0  0  0  0  0  0  0
  -25.8678  -15.8303   20.1598 O   0  0  0  0  0  0  0  0  0  0  0  0
  -23.9362  -13.2641   22.7627 O   0  0  0  0  0  0  0  0  0  0  0  0
  -20.5051  -16.4827   23.3867 O   0  0  0  0  0  0  0  0  0  0  0  0
  -22.8534  -31.3210   23.4476 O   0  0  0  0  0  0  0  0  0  0  0  0
  -29.1741  -21.7779   18.0409 O   0  0  0  0  0  0  0  0  0  0  0  0
  -24.5991  -21.6440   21.6685 O   0  0  0  0  0  0  0  0  0  1  0  0
  -19.6212  -25.1931   22.0943 O   0  0  0  0  0  0  0  0  0  0  0  0
  -30.1413  -19.1080   22.7674 F   0  0  0  0  0  0  0  0  0  0  0  0
  -30.2907  -23.0855   20.2056 F   0  0  0  0  0  0  0  0  0  0  0  0
  1  2  1  0  0  0  0
  1  5  2  0  0  0  0
  2  6  2  0  0  0  0
  3  8  2  0  0  0  0
  3 16  1  0  0  0  0
  4  9  1  0  0  0  0
  4 16  2  0  0  0  0
  5 18  1  0  0  0  0
  6 20  1  0  0  0  0
  7 10  2  0  0  0  0
  7 19  1  0  0  0  0
  8 24  1  0  0  0  0
  9 24  2  0  0  0  0
 10 25  1  0  0  0  0
 11 12  2  0  0  0  0
 11 26  1  0  0  0  0
 12 27  1  0  0  0  0
 13 21  1  0  0  0  0
 13 25  2  0  0  0  0
 14 22  2  0  0  0  0
 14 31  1  0  0  0  0
 15 27  2  0  0  0  0
 15 28  1  0  0  0  0
 16 29  1  0  0  0  0
 17 29  1  0  0  0  0
 17 32  2  0  0  0  0
 17 33  1  0  0  0  0
 18 20  2  0  0  0  0
 18 38  1  0  0  0  0
 19 21  2  0  0  0  0
 19 39  1  0  0  0  0
 20 47  1  0  0  0  0
 21 40  1  0  0  0  0
 22 23  1  0  0  0  0
 22 69  1  0  0  0  0
 23 30  2  0  0  0  0
 23 60  1  0  0  0  0
 24 87  1  0  0  0  0
 25 88  1  0  0  0  0
 26 28  2  0  0  0  0
 26 87  1  0  0  0  0
 27 90  1  0  0  0  0
 28 91  1  0  0  0  0
 29 71  2  0  0  0  0
 30 61  1  0  0  0  0
 30 72  1  0  0  0  0
 31 72  2  0  0  0  0
 31 89  1  0  0  0  0
 32 73  1  0  0  0  0
 32 76  1  0  0  0  0
 33 77  1  0  0  0  0
 33 82  2  0  0  0  0
 34 48  1  0  0  0  0
 34 78  1  0  0  0  0
 34 83  2  0  0  0  0
 35 66  1  0  0  0  0
 35 74  1  0  0  0  0
 35 84  2  0  0  0  0
 36 67  1  0  0  0  0
 36 79  1  0  0  0  0
 36 85  2  0  0  0  0
 37 75  1  0  0  0  0
 37 80  1  0  0  0  0
 37 86  2  0  0  0  0
 38 41  1  0  0  0  0
 39 48  1  0  0  0  0
 40 74  1  0  0  0  0
 41 43  1  0  0  0  0
 42 44  1  0  0  0  0
 42 45  1  0  0  0  0
 43 47  1  0  0  0  0
 44 49  1  0  0  0  0
 45 75  1  0  0  0  0
 46 49  1  0  0  0  0
 46 75  1  0  0  0  0
 47 78  1  0  0  0  0
 48 74  1  0  0  0  0
 49 73  1  0  0  0  0
 50 67  1  0  0  0  0
 51 68  1  0  0  0  0
 52 68  1  0  0  0  0
 53 69  1  0  0  0  0
 54 69  1  0  0  0  0
 55 69  1  0  0  0  0
 56 70  1  0  0  0  0
 57 70  1  0  0  0  0
 58 70  1  0  0  0  0
 59 81  1  0  0  0  0
 60 68  1  0  0  0  0
 61 80  1  0  0  0  0
 62 63  1  0  0  0  0
 62 64  1  0  0  0  0
 63 65  1  0  0  0  0
 64 88  1  0  0  0  0
 65 89  1  0  0  0  0
 66 70  1  0  0  0  0
 66 79  1  0  0  0  0
 67 81  1  0  0  0  0
 71 73  1  0  0  0  0
M  CHG  1  81   1
M  ISO  4  37 100  64 101  80 100  88 101
M  END
> <Batch ID>
0099

> <Smiles>
CNC(C)C(=O)NC(C(=O)N1Cc2cc([101O:1][101CH2:1]CCCOc3cc(C(C)(C)C)c(CC(C)C)c(C[100NH:0][100C:0](=O)N4CCCC(n5nc(-c6ccc(Oc7ccc(F)cc7F)cc6)c(C(N)=O)c5N)C4)n3)ccc2CC1C(=O)NC1CCCc2ccccc21)C(C)(C)C

> <Shape>
0.266

> <Color>
0.079

> <Negative vol penalty>
0.000

$$$$

  -OEChem-04052319313D

 83 91  0     1  0  0  0  0  0999 V2000
  -24.7313  -23.1220   19.0484 C   0  0  0  0  0  0  0  0  0  0  0  0
  -25.3588  -21.9594   18.6157 C   0  0  0  0  0  0  0  0  0  0  0  0
  -26.3230  -27.8648   18.8195 C   0  0  0  0  0  0  0  0  0  0  0  0
  -26.6789  -28.1147   21.1961 C   0  0  0  0  0  0  0  0  0  0  0  0
  -24.0730  -23.1386   20.2762 C   0  0  0  0  0  0  0  0  0  0  0  0
  -25.3181  -20.8095   19.4050 C   0  0  0  0  0  0  0  0  0  0  0  0
  -27.9667  -15.3770   18.6301 C   0  0  0  0  0  0  0  0  0  0  0  0
  -25.1604  -28.6297   18.9132 C   0  0  0  0  0  0  0  0  0  0  0  0
  -25.5163  -28.8796   21.2898 C   0  0  0  0  0  0  0  0  0  0  0  0
  -29.1570  -14.7508   18.9970 C   0  0  0  0  0  0  0  0  0  0  0  0
  -22.1803  -28.3396   21.3916 C   0  0  0  0  0  0  0  0  0  0  0  0
  -21.3029  -28.0594   22.4391 C   0  0  0  0  0  0  0  0  0  0  0  0
  -28.0361  -13.7345   20.8759 C   0  0  0  0  0  0  0  0  0  0  0  0
  -30.8948  -16.3181   23.1157 C   0  0  0  0  0  0  0  0  0  0  0  0
  -21.5695  -30.3140   23.2655 C   0  0  0  0  0  0  0  0  0  0  0  0
  -33.0653  -16.5410   22.5598 C   0  0  0  0  0  0  0  0  0  0  0  0
  -27.0823  -27.6072   19.9610 C   0  0  0  0  0  0  0  0  0  0  0  0
  -29.5894  -27.2812   19.6206 C   0  0  0  0  0  0  0  0  0  0  0  0
  -24.0353  -21.9915   21.0861 C   0  0  0  0  0  0  0  0  0  0  0  0
  -26.8028  -15.1950   19.3908 C   0  0  0  0  0  0  0  0  0  0  0  0
  -24.6382  -20.7992   20.6364 C   0  0  0  0  0  0  0  0  0  0  0  0
  -26.8317  -14.3575   20.5150 C   0  0  0  0  0  0  0  0  0  0  0  0
  -32.0703  -15.6104   22.7632 C   0  0  0  0  0  0  0  0  0  0  0  0
  -24.7570  -29.1371   20.1483 C   0  0  0  0  0  0  0  0  0  0  0  0
  -29.1926  -13.9317   20.1217 C   0  0  0  0  0  0  0  0  0  0  0  0
  -22.7524  -29.6069   21.2811 C   0  0  0  0  0  0  0  0  0  0  0  0
  -20.9975  -29.0466   23.3760 C   0  0  0  0  0  0  0  0  0  0  0  0
  -22.4470  -30.5941   22.2180 C   0  0  0  0  0  0  0  0  0  0  0  0
  -28.2831  -26.8167   19.8649 C   0  0  0  0  0  0  0  0  0  0  0  0
  -31.2071  -17.6597   23.1168 C   0  0  0  0  0  0  0  0  0  0  0  0
  -30.3635  -26.1466   19.6248 C   0  0  0  0  0  0  0  0  0  0  0  0
  -30.0608  -28.6185   19.4090 C   0  0  0  0  0  0  0  0  0  0  0  0
  -24.8935  -17.1092   21.0624 C   0  0  0  0  0  0  0  0  0  0  0  0
  -23.1007  -14.4216   21.3539 C   0  0  0  0  0  0  0  0  0  0  0  0
  -22.9669  -11.0116   21.3312 C   0  0  0  0  0  0  0  0  0  0  0  0
  -29.6518  -20.9087   22.2541 C   0  0  0  0  0  0  0  0  0  0  0  0
  -23.3020  -22.0628   22.4023 C   0  0  0  0  0  0  0  0  0  0  0  0
  -25.5202  -15.8563   18.9663 C   0  0  0  0  0  0  0  0  0  0  0  0
  -25.6047  -14.1133   21.3537 C   0  0  0  0  0  0  0  0  0  0  0  0
  -23.6896  -20.9411   23.3603 C   0  0  0  0  0  0  0  0  0  0  0  0
  -30.1360  -21.4544   18.7093 C   0  0  0  0  0  0  0  0  0  0  0  0
  -23.6227  -19.6002   22.6448 C   0  0  0  0  0  0  0  0  0  0  0  0
  -29.8359  -22.9495   18.5879 C   0  0  0  0  0  0  0  0  0  0  0  0
  -29.2156  -20.7866   19.7267 C   0  0  0  0  0  0  0  0  0  0  0  0
  -28.9419  -22.9012   20.9625 C   0  0  0  0  0  0  0  0  0  0  0  0
  -24.6331  -19.5453   21.4919 C   0  0  1  0  0  0  0  0  0  0  0  0
  -24.5206  -16.0098   20.1085 C   0  0  1  0  0  0  0  0  0  0  0  0
  -29.8544  -23.6383   19.9654 C   0  0  2  0  0  0  0  0  0  0  0  0
  -34.1572  -19.2779   23.8627 C   0  0  0  0  0  0  0  0  0  0  0  0
  -33.2053  -13.5651   23.6680 C   0  0  0  0  0  0  0  0  0  0  0  0
  -21.3693   -9.1008   21.6376 C   0  0  0  0  0  0  0  0  0  0  0  0
  -23.1562  -14.8625   24.3726 C   0  0  0  0  0  0  0  0  0  0  0  0
  -22.4003  -12.4934   24.6624 C   0  0  0  0  0  0  0  0  0  0  0  0
  -20.9442  -14.1279   23.4662 C   0  0  0  0  0  0  0  0  0  0  0  0
  -23.4311  -10.0301   18.5780 C   0  0  0  0  0  0  0  0  0  0  0  0
  -30.3563  -18.8308   23.4130 C   0  0  0  0  0  0  0  0  0  0  0  0
  -32.6142  -13.6536   21.2163 C   0  0  0  0  0  0  0  0  0  0  0  0
  -33.2619  -19.0250   22.6619 C   0  0  0  0  0  0  0  0  0  0  0  0
  -31.5698  -13.9905   20.1561 C   0  0  0  0  0  0  0  0  0  1  0  0
  -32.2095  -14.1034   22.6335 C   0  0  2  0  0  0  0  0  0  0  0  0
  -23.0408  -13.2779   22.3375 C   0  0  1  0  0  0  0  0  0  0  0  0
  -22.0219  -10.0452   20.6402 C   0  0  2  0  0  0  0  0  0  0  0  0
  -22.4091  -13.6964   23.6952 C   0  0  0  0  0  0  0  0  0  0  0  0
  -28.2267  -25.4905   20.0133 N   0  0  0  0  0  0  0  0  0  0  0  0
  -32.5290  -17.7833   22.7772 N   0  0  0  0  0  0  0  0  0  0  0  0
  -29.5072  -25.1119   19.8617 N   0  0  0  0  0  0  0  0  0  0  0  0
  -24.3764  -14.7872   20.9015 N   0  0  0  0  0  0  0  0  0  0  0  0
  -29.2942  -21.4787   21.0209 N   0  0  0  0  0  0  0  0  0  0  0  0
  -31.6864  -25.9432   19.4488 N   0  0  0  0  0  0  0  0  0  0  0  0
  -29.1312  -29.6670   19.4373 N   0  0  0  0  0  0  0  0  0  0  0  0
  -24.3960  -18.3501   20.7128 N   0  0  0  0  0  0  0  0  0  0  0  0
  -22.3378  -12.1936   21.6603 N   0  0  0  0  0  0  0  0  0  0  0  0
  -29.9642  -19.5551   22.2244 N   0  0  0  0  0  0  0  0  0  0  0  0
  -22.7593   -9.2298   19.6341 N   0  3  0  0  0  0  0  0  0  0  0  0
  -31.2682  -28.8744   19.1847 O   0  0  0  0  0  0  0  0  0  0  0  0
  -25.5804  -16.8506   22.0437 O   0  0  0  0  0  0  0  0  0  0  0  0
  -22.0535  -14.9658   20.9947 O   0  0  0  0  0  0  0  0  0  0  0  0
  -24.1443  -10.7432   21.5597 O   0  0  0  0  0  0  0  0  0  0  0  0
  -29.6950  -21.5595   23.3037 O   0  0  0  0  0  0  0  0  0  0  0  0
  -23.6227  -29.8838   20.2401 O   0  0  0  0  0  0  0  0  0  0  0  0
  -30.3533  -13.3198   20.4825 O   0  0  0  0  0  0  0  0  0  1  0  0
  -20.1537  -28.7779   24.3810 F   0  0  0  0  0  0  0  0  0  0  0  0
  -22.9925  -31.8139   22.1163 F   0  0  0  0  0  0  0  0  0  0  0  0
  1  2  1  0  0  0  0
  1  5  2  0  0  0  0
  2  6  2  0  0  0  0
  3  8  2  0  0  0  0
  3 17  1  0  0  0  0
  4  9  1  0  0  0  0
  4 17  2  0  0  0  0
  5 19  1  0  0  0  0
  6 21  1  0  0  0  0
  7 10  2  0  0  0  0
  7 20  1  0  0  0  0
  8 24  1  0  0  0  0
  9 24  2  0  0  0  0
 10 25  1  0  0  0  0
 11 12  2  0  0  0  0
 11 26  1  0  0  0  0
 12 27  1  0  0  0  0
 13 22  1  0  0  0  0
 13 25  2  0  0  0  0
 14 23  1  0  0  0  0
 14 30  2  0  0  0  0
 15 27  2  0  0  0  0
 15 28  1  0  0  0  0
 16 23  2  0  0  0  0
 16 65  1  0  0  0  0
 17 29  1  0  0  0  0
 18 29  1  0  0  0  0
 18 31  2  0  0  0  0
 18 32  1  0  0  0  0
 19 21  2  0  0  0  0
 19 37  1  0  0  0  0
 20 22  2  0  0  0  0
 20 38  1  0  0  0  0
 21 46  1  0  0  0  0
 22 39  1  0  0  0  0
 23 60  1  0  0  0  0
 24 80  1  0  0  0  0
 25 81  1  0  0  0  0
 26 28  2  0  0  0  0
 26 80  1  0  0  0  0
 27 82  1  0  0  0  0
 28 83  1  0  0  0  0
 29 64  2  0  0  0  0
 30 56  1  0  0  0  0
 30 65  1  0  0  0  0
 31 66  1  0  0  0  0
 31 69  1  0  0  0  0
 32 70  1  0  0  0  0
 32 75  2  0  0  0  0
 33 47  1  0  0  0  0
 33 71  1  0  0  0  0
 33 76  2  0  0  0  0
 34 61  1  0  0  0  0
 34 67  1  0  0  0  0
 34 77  2  0  0  0  0
 35 62  1  0  0  0  0
 35 72  1  0  0  0  0
 35 78  2  0  0  0  0
 36 68  1  0  0  0  0
 36 73  1  0  0  0  0
 36 79  2  0  0  0  0
 37 40  1  0  0  0  0
 38 47  1  0  0  0  0
 39 67  1  0  0  0  0
 40 42  1  0  0  0  0
 41 43  1  0  0  0  0
 41 44  1  0  0  0  0
 42 46  1  0  0  0  0
 43 48  1  0  0  0  0
 44 68  1  0  0  0  0
 45 48  1  0  0  0  0
 45 68  1  0  0  0  0
 46 71  1  0  0  0  0
 47 67  1  0  0  0  0
 48 66  1  0  0  0  0
 49 58  1  0  0  0  0
 50 60  1  0  0  0  0
 51 62  1  0  0  0  0
 52 63  1  0  0  0  0
 53 63  1  0  0  0  0
 54 63  1  0  0  0  0
 55 74  1  0  0  0  0
 56 73  1  0  0  0  0
 57 59  1  0  0  0  0
 57 60  1  0  0  0  0
 58 65  1  0  0  0  0
 59 81  1  0  0  0  0
 61 63  1  0  0  0  0
 61 72  1  0  0  0  0
 62 74  1  0  0  0  0
 64 66  1  0  0  0  0
M  CHG  1  74   1
M  ISO  4  36 100  59 101  73 100  81 101
M  END
> <Batch ID>
0099

> <Smiles>
CCn1cc(C(C)C[101CH2:1][101O:1]c2ccc3c(c2)CN(C(=O)C(NC(=O)C(C)NC)C(C)(C)C)C(C(=O)NC2CCCc4ccccc42)C3)cc1C[100NH:0][100C:0](=O)N1CCCC(n2nc(-c3ccc(Oc4ccc(F)cc4F)cc3)c(C(N)=O)c2N)C1

> <Shape>
0.264

> <Color>
0.053

> <Negative vol penalty>
0.000

$$$$

  -OEChem-04052319313D

 93101  0     1  0  0  0  0  0999 V2000
  -29.6940  -23.1374   16.6726 C   0  0  0  0  0  0  0  0  0  0  0  0
  -28.7655  -23.1714   17.7080 C   0  0  0  0  0  0  0  0  0  0  0  0
  -26.2261  -13.7772   19.1582 C   0  0  0  0  0  0  0  0  0  0  0  0
  -25.0605  -14.0326   21.2590 C   0  0  0  0  0  0  0  0  0  0  0  0
  -30.6668  -24.1316   16.5772 C   0  0  0  0  0  0  0  0  0  0  0  0
  -28.8099  -24.1993   18.6493 C   0  0  0  0  0  0  0  0  0  0  0  0
  -24.2304  -26.1145   19.6518 C   0  0  0  0  0  0  0  0  0  0  0  0
  -26.1722  -12.3903   19.2969 C   0  0  0  0  0  0  0  0  0  0  0  0
  -25.0066  -12.6456   21.3976 C   0  0  0  0  0  0  0  0  0  0  0  0
  -23.4056  -25.3803   20.5030 C   0  0  0  0  0  0  0  0  0  0  0  0
  -23.1636  -10.0914   20.1729 C   0  0  0  0  0  0  0  0  0  0  0  0
  -21.9519   -9.5283   20.5734 C   0  0  0  0  0  0  0  0  0  0  0  0
  -24.0068  -26.8354   22.3307 C   0  0  0  0  0  0  0  0  0  0  0  0
  -22.9457  -23.5850   27.6975 C   0  0  0  0  0  0  0  0  0  0  0  0
  -23.4527  -25.8884   27.1737 C   0  0  0  0  0  0  0  0  0  0  0  0
  -23.0279   -8.6042   22.5293 C   0  0  0  0  0  0  0  0  0  0  0  0
  -25.6703  -14.5984   20.1393 C   0  0  0  0  0  0  0  0  0  0  0  0
  -24.7774  -16.8607   19.3699 C   0  0  0  0  0  0  0  0  0  0  0  0
  -30.7171  -25.1775   17.5122 C   0  0  0  0  0  0  0  0  0  0  0  0
  -24.9592  -27.2098   20.1370 C   0  0  0  0  0  0  0  0  0  0  0  0
  -29.7851  -25.2077   18.5670 C   0  0  0  0  0  0  0  0  0  0  0  0
  -24.8382  -27.5834   21.4830 C   0  0  0  0  0  0  0  0  0  0  0  0
  -22.6084  -24.7831   27.0679 C   0  0  0  0  0  0  0  0  0  0  0  0
  -24.1273  -23.4922   28.4330 C   0  0  0  0  0  0  0  0  0  0  0  0
  -24.6343  -25.7956   27.9093 C   0  0  0  0  0  0  0  0  0  0  0  0
  -24.9716  -24.5975   28.5389 C   0  0  0  0  0  0  0  0  0  0  0  0
  -25.5624  -11.8245   20.4166 C   0  0  0  0  0  0  0  0  0  0  0  0
  -23.2960  -25.7390   21.8433 C   0  0  0  0  0  0  0  0  0  0  0  0
  -24.3074   -9.9109   20.9506 C   0  0  0  0  0  0  0  0  0  0  0  0
  -21.8840   -8.7848   21.7516 C   0  0  0  0  0  0  0  0  0  0  0  0
  -24.2396   -9.1673   22.1288 C   0  0  0  0  0  0  0  0  0  0  0  0
  -25.7262  -16.0311   19.9970 C   0  0  0  0  0  0  0  0  0  0  0  0
  -25.2896  -18.1283   19.5010 C   0  0  0  0  0  0  0  0  0  0  0  0
  -23.5432  -16.5163   18.7265 C   0  0  0  0  0  0  0  0  0  0  0  0
  -28.0484  -27.9171   20.3826 C   0  0  0  0  0  0  0  0  0  0  0  0
  -26.9125  -30.7943   21.3592 C   0  0  0  0  0  0  0  0  0  0  0  0
  -24.3511  -32.5834   22.7323 C   0  0  0  0  0  0  0  0  0  0  0  0
  -27.5753  -22.0412   22.5688 C   0  0  0  0  0  0  0  0  0  0  0  0
  -31.8163  -26.2036   17.3951 C   0  0  0  0  0  0  0  0  0  0  0  0
  -25.8238  -28.0077   19.1998 C   0  0  0  0  0  0  0  0  0  0  0  0
  -25.5838  -28.7634   22.0487 C   0  0  0  0  0  0  0  0  0  0  0  0
  -31.5624  -27.4646   18.2171 C   0  0  0  0  0  0  0  0  0  0  0  0
  -29.8540  -19.6967   21.0169 C   0  0  0  0  0  0  0  0  0  0  0  0
  -31.1050  -27.1004   19.6260 C   0  0  0  0  0  0  0  0  0  0  0  0
  -28.8940  -18.5969   20.5597 C   0  0  0  0  0  0  0  0  0  0  0  0
  -29.4293  -20.2769   22.3628 C   0  0  0  0  0  0  0  0  0  0  0  0
  -27.0714  -19.6973   21.9406 C   0  0  0  0  0  0  0  0  0  0  0  0
  -29.7853  -26.3200   19.5932 C   0  0  1  0  0  0  0  0  0  0  0  0
  -26.9183  -28.7914   19.9178 C   0  0  1  0  0  0  0  0  0  0  0  0
  -27.4336  -19.0859   20.5750 C   0  0  2  0  0  0  0  0  0  0  0  0
  -23.6503  -21.9736   30.3703 C   0  0  0  0  0  0  0  0  0  0  0  0
  -23.7314  -34.9094   23.4416 C   0  0  0  0  0  0  0  0  0  0  0  0
  -25.3826  -25.2306   31.4371 C   0  0  0  0  0  0  0  0  0  0  0  0
  -27.6350  -24.1394   31.1507 C   0  0  0  0  0  0  0  0  0  0  0  0
  -28.6550  -30.4975   23.8463 C   0  0  0  0  0  0  0  0  0  0  0  0
  -27.3095  -32.3149   24.9208 C   0  0  0  0  0  0  0  0  0  0  0  0
  -28.6290  -32.7951   22.8590 C   0  0  0  0  0  0  0  0  0  0  0  0
  -22.0939  -32.6896   20.8211 C   0  0  0  0  0  0  0  0  0  0  0  0
  -28.5064  -26.2051   27.2917 C   0  0  0  0  0  0  0  0  0  0  0  0
  -21.3313  -24.8826   26.2725 C   0  0  0  0  0  0  0  0  0  0  0  0
  -24.4610  -22.1959   29.0974 C   0  0  0  0  0  0  0  0  0  0  0  0
  -25.5188  -26.9962   28.0054 C   0  0  0  0  0  0  0  0  0  0  0  0
  -21.4940  -24.5107   24.7971 C   0  0  0  0  0  0  0  0  0  0  0  0
  -27.9366  -24.5719   24.6865 C   0  0  0  0  0  0  0  0  0  0  0  0
  -28.2321  -24.3473   23.2075 C   0  0  0  0  0  0  0  0  0  0  0  0
  -26.3280  -27.2777   26.7400 C   0  0  0  0  0  0  0  0  0  0  0  0
  -27.5752  -26.0205   24.9894 C   0  0  0  0  0  0  0  0  0  0  0  0
  -22.4270  -25.4469   24.0378 C   0  0  0  0  0  0  0  0  0  1  0  0
  -26.5294  -31.3969   22.6893 C   0  0  1  0  0  0  0  0  0  0  0  0
  -23.6969  -33.8882   22.3152 C   0  0  2  0  0  0  0  0  0  0  0  0
  -26.1895  -24.1875   30.6776 C   0  0  0  0  0  0  0  0  0  0  0  0
  -27.7680  -31.7276   23.5689 C   0  0  0  0  0  0  0  0  0  0  0  0
  -26.7628  -16.7142   20.4897 N   0  0  0  0  0  0  0  0  0  0  0  0
  -26.4684  -17.9864   20.1722 N   0  0  0  0  0  0  0  0  0  0  0  0
  -26.4213  -29.5082   21.0940 N   0  0  0  0  0  0  0  0  0  0  0  0
  -28.0359  -20.7407   22.3044 N   0  0  0  0  0  0  0  0  0  0  0  0
  -24.8423  -19.3393   19.1064 N   0  0  0  0  0  0  0  0  0  0  0  0
  -23.1673  -15.1669   18.6810 N   0  0  0  0  0  0  0  0  0  0  0  0
  -26.1691  -24.5034   29.2849 N   0  0  0  0  0  0  0  0  0  0  0  0
  -28.6728  -27.2177   19.3675 N   0  0  0  0  0  0  0  0  0  0  0  0
  -25.6858  -32.5484   22.3879 N   0  0  0  0  0  0  0  0  0  0  0  0
  -28.5516  -22.9681   22.9130 N   0  0  0  0  0  0  0  0  0  0  0  0
  -22.2748  -33.6562   21.9346 N   0  3  0  0  0  0  0  0  0  0  0  0
  -27.2502  -26.1502   26.4574 N   0  3  1  0  0  0  0  0  0  0  0  0
  -22.8040  -17.3778   18.1928 O   0  0  0  0  0  0  0  0  0  0  0  0
  -28.3338  -27.8810   21.5738 O   0  0  0  0  0  0  0  0  0  0  0  0
  -27.6157  -31.4438   20.5812 O   0  0  0  0  0  0  0  0  0  0  0  0
  -23.7402  -31.6866   23.3093 O   0  0  0  0  0  0  0  0  0  0  0  0
  -26.3821  -22.3550   22.4982 O   0  0  0  0  0  0  0  0  0  0  0  0
  -25.5094  -10.4712   20.5521 O   0  0  0  0  0  0  0  0  0  0  0  0
  -22.4921  -25.0237   22.6765 O   0  0  0  0  0  0  0  0  0  1  0  0
  -20.7201   -8.2454   22.1368 F   0  0  0  0  0  0  0  0  0  0  0  0
  -25.3348   -8.9914   22.8807 F   0  0  0  0  0  0  0  0  0  0  0  0
  1  2  1  0  0  0  0
  1  5  2  0  0  0  0
  2  6  2  0  0  0  0
  3  8  2  0  0  0  0
  3 17  1  0  0  0  0
  4  9  1  0  0  0  0
  4 17  2  0  0  0  0
  5 19  1  0  0  0  0
  6 21  1  0  0  0  0
  7 10  2  0  0  0  0
  7 20  1  0  0  0  0
  8 27  1  0  0  0  0
  9 27  2  0  0  0  0
 10 28  1  0  0  0  0
 11 12  2  0  0  0  0
 11 29  1  0  0  0  0
 12 30  1  0  0  0  0
 13 22  1  0  0  0  0
 13 28  2  0  0  0  0
 14 23  2  0  0  0  0
 14 24  1  0  0  0  0
 15 23  1  0  0  0  0
 15 25  2  0  0  0  0
 16 30  2  0  0  0  0
 16 31  1  0  0  0  0
 17 32  1  0  0  0  0
 18 32  1  0  0  0  0
 18 33  2  0  0  0  0
 18 34  1  0  0  0  0
 19 21  2  0  0  0  0
 19 39  1  0  0  0  0
 20 22  2  0  0  0  0
 20 40  1  0  0  0  0
 21 48  1  0  0  0  0
 22 41  1  0  0  0  0
 23 60  1  0  0  0  0
 24 26  2  0  0  0  0
 24 61  1  0  0  0  0
 25 26  1  0  0  0  0
 25 62  1  0  0  0  0
 26 79  1  0  0  0  0
 27 90  1  0  0  0  0
 28 91  1  0  0  0  0
 29 31  2  0  0  0  0
 29 90  1  0  0  0  0
 30 92  1  0  0  0  0
 31 93  1  0  0  0  0
 32 73  2  0  0  0  0
 33 74  1  0  0  0  0
 33 77  1  0  0  0  0
 34 78  1  0  0  0  0
 34 85  2  0  0  0  0
 35 49  1  0  0  0  0
 35 80  1  0  0  0  0
 35 86  2  0  0  0  0
 36 69  1  0  0  0  0
 36 75  1  0  0  0  0
 36 87  2  0  0  0  0
 37 70  1  0  0  0  0
 37 81  1  0  0  0  0
 37 88  2  0  0  0  0
 38 76  1  0  0  0  0
 38 82  1  0  0  0  0
 38 89  2  0  0  0  0
 39 42  1  0  0  0  0
 40 49  1  0  0  0  0
 41 75  1  0  0  0  0
 42 44  1  0  0  0  0
 43 45  1  0  0  0  0
 43 46  1  0  0  0  0
 44 48  1  0  0  0  0
 45 50  1  0  0  0  0
 46 76  1  0  0  0  0
 47 50  1  0  0  0  0
 47 76  1  0  0  0  0
 48 80  1  0  0  0  0
 49 75  1  0  0  0  0
 50 74  1  0  0  0  0
 51 61  1  0  0  0  0
 52 70  1  0  0  0  0
 53 71  1  0  0  0  0
 54 71  1  0  0  0  0
 55 72  1  0  0  0  0
 56 72  1  0  0  0  0
 57 72  1  0  0  0  0
 58 83  1  0  0  0  0
 59 84  1  0  0  0  0
 60 63  1  0  0  0  0
 62 66  1  0  0  0  0
 63 68  1  0  0  0  0
 64 65  1  0  0  0  0
 64 67  1  0  0  0  0
 65 82  1  0  0  0  0
 66 84  1  0  0  0  0
 67 84  1  0  0  0  0
 68 91  1  0  0  0  0
 69 72  1  0  0  0  0
 69 81  1  0  0  0  0
 70 83  1  0  0  0  0
 71 79  1  0  0  0  0
 73 74  1  0  0  0  0
M  CHG  2  83   1  84   1
M  ISO  4  38 100  68 101  82 100  91 101
M  END
> <Batch ID>
0099

> <Smiles>
CCc1cc(CC[101CH2:1][101O:1]c2ccc3c(c2)CN(C(=O)C(NC(=O)C(C)NC)C(C)(C)C)C(C(=O)NC2CCCc4ccccc42)C3)cc(CCN(C)CCC[100NH:0][100C:0](=O)N2CCCC(n3nc(-c4ccc(Oc5ccc(F)cc5F)cc4)c(C(N)=O)c3N)C2)c1NC(C)C

> <Shape>
0.230

> <Color>
0.055

> <Negative vol penalty>
0.000

$$$$

  -OEChem-04052319313D

 87 95  0     1  0  0  0  0  0999 V2000
  -21.5871  -31.3203   23.2209 C   0  0  0  0  0  0  0  0  0  0  0  0
  -21.1896  -30.1308   22.6187 C   0  0  0  0  0  0  0  0  0  0  0  0
  -23.9986  -14.3859   21.9312 C   0  0  0  0  0  0  0  0  0  0  0  0
  -24.4978  -14.8884   19.6213 C   0  0  0  0  0  0  0  0  0  0  0  0
  -22.7800  -31.9306   22.8357 C   0  0  0  0  0  0  0  0  0  0  0  0
  -21.9844  -29.5515   21.6302 C   0  0  0  0  0  0  0  0  0  0  0  0
  -22.7926  -23.5704   20.5917 C   0  0  0  0  0  0  0  0  0  0  0  0
  -24.8752  -13.3020   21.8849 C   0  0  0  0  0  0  0  0  0  0  0  0
  -25.3745  -13.8044   19.5750 C   0  0  0  0  0  0  0  0  0  0  0  0
  -22.2173  -22.6914   19.6751 C   0  0  0  0  0  0  0  0  0  0  0  0
  -28.0173  -11.3860   18.9544 C   0  0  0  0  0  0  0  0  0  0  0  0
  -29.2598  -11.5812   18.3515 C   0  0  0  0  0  0  0  0  0  0  0  0
  -24.0939  -23.0165   18.1946 C   0  0  0  0  0  0  0  0  0  0  0  0
  -29.7731  -13.3029   19.9669 C   0  0  0  0  0  0  0  0  0  0  0  0
  -20.0268  -19.2220   13.2574 C   0  0  0  0  0  0  0  0  0  0  0  0
  -23.8098  -15.1791   20.7993 C   0  0  0  0  0  0  0  0  0  0  0  0
  -23.2106  -17.6260   21.2011 C   0  0  0  0  0  0  0  0  0  0  0  0
  -23.5946  -31.3535   21.8488 C   0  0  0  0  0  0  0  0  0  0  0  0
  -24.0197  -24.1885   20.3113 C   0  0  0  0  0  0  0  0  0  0  0  0
  -23.1887  -30.1554   21.2305 C   0  0  0  0  0  0  0  0  0  0  0  0
  -24.6839  -23.9010   19.1103 C   0  0  0  0  0  0  0  0  0  0  0  0
  -20.2707  -17.8820   13.0522 C   0  0  0  0  0  0  0  0  0  0  0  0
  -19.3544  -17.1576   13.8539 C   0  0  0  0  0  0  0  0  0  0  0  0
  -25.5632  -13.0112   20.7069 C   0  0  0  0  0  0  0  0  0  0  0  0
  -22.8665  -22.4165   18.4751 C   0  0  0  0  0  0  0  0  0  0  0  0
  -27.6526  -12.1493   20.0635 C   0  0  0  0  0  0  0  0  0  0  0  0
  -30.1378  -12.5396   18.8578 C   0  0  0  0  0  0  0  0  0  0  0  0
  -28.5305  -13.1077   20.5698 C   0  0  0  0  0  0  0  0  0  0  0  0
  -22.9040  -16.2986   20.8463 C   0  0  0  0  0  0  0  0  0  0  0  0
  -18.5784  -18.0770   14.5245 C   0  0  0  0  0  0  0  0  0  0  0  0
  -22.0171  -18.2961   21.0880 C   0  0  0  0  0  0  0  0  0  0  0  0
  -24.4625  -18.2018   21.5974 C   0  0  0  0  0  0  0  0  0  0  0  0
  -24.9842  -27.1946   19.9412 C   0  0  0  0  0  0  0  0  0  0  0  0
  -27.9200  -25.8233   19.7890 C   0  0  0  0  0  0  0  0  0  0  0  0
  -29.7890  -23.0439   19.1344 C   0  0  0  0  0  0  0  0  0  0  0  0
  -17.0698  -17.2978   17.8663 C   0  0  0  0  0  0  0  0  0  0  0  0
  -24.8519  -32.0748   21.4322 C   0  0  0  0  0  0  0  0  0  0  0  0
  -24.6399  -25.1136   21.3222 C   0  0  0  0  0  0  0  0  0  0  0  0
  -26.0129  -24.5229   18.7706 C   0  0  0  0  0  0  0  0  0  0  0  0
  -25.8225  -31.2005   20.6425 C   0  0  0  0  0  0  0  0  0  0  0  0
  -17.2928  -17.6099   21.4061 C   0  0  0  0  0  0  0  0  0  0  0  0
  -25.0810  -30.4236   19.5593 C   0  0  0  0  0  0  0  0  0  0  0  0
  -18.7838  -17.4290   21.6960 C   0  0  0  0  0  0  0  0  0  0  0  0
  -16.8276  -16.7127   20.2612 C   0  0  0  0  0  0  0  0  0  0  0  0
  -19.0990  -16.6614   19.3064 C   0  0  0  0  0  0  0  0  0  0  0  0
  -24.0361  -29.4834   20.1720 C   0  0  1  0  0  0  0  0  0  0  0  0
  -25.6444  -26.0834   20.7074 C   0  0  1  0  0  0  0  0  0  0  0  0
  -19.6270  -17.5863   20.4163 C   0  0  2  0  0  0  0  0  0  0  0  0
  -22.7394  -17.7011   12.5761 C   0  0  0  0  0  0  0  0  0  0  0  0
  -21.0847  -17.6909   10.6742 C   0  0  0  0  0  0  0  0  0  0  0  0
  -20.5298  -15.0276   14.5137 C   0  0  0  0  0  0  0  0  0  0  0  0
  -18.8743  -15.0169   12.6126 C   0  0  0  0  0  0  0  0  0  0  0  0
  -32.1653  -22.2406   19.0598 C   0  0  0  0  0  0  0  0  0  0  0  0
  -28.3303  -27.2902   17.1451 C   0  0  0  0  0  0  0  0  0  0  0  0
  -30.2453  -25.7496   16.6677 C   0  0  0  0  0  0  0  0  0  0  0  0
  -30.3304  -27.2664   18.6463 C   0  0  0  0  0  0  0  0  0  0  0  0
  -29.2895  -21.0109   21.2263 C   0  0  0  0  0  0  0  0  0  0  0  0
  -17.4744  -17.8728   15.4863 C   0  0  0  0  0  0  0  0  0  0  0  0
  -18.9102  -21.0376   16.0421 C   0  0  0  0  0  0  0  0  0  0  0  0
  -20.4342  -21.1175   16.1439 C   0  0  0  0  0  0  0  0  0  0  0  0
  -18.4224  -20.6337   14.6461 C   0  0  0  0  0  0  0  0  0  0  0  0
  -20.8820  -21.4863   17.5519 C   0  0  0  0  0  0  0  0  0  1  0  0
  -21.3012  -17.3164   12.1586 C   0  0  0  0  0  0  0  0  0  0  0  0
  -19.2487  -15.6873   13.9542 C   0  0  0  0  0  0  0  0  0  0  0  0
  -28.7839  -25.2666   18.6832 C   0  0  1  0  0  0  0  0  0  0  0  0
  -30.9122  -22.3796   19.9101 C   0  0  2  0  0  0  0  0  0  0  0  0
  -29.3965  -26.3828   17.7908 C   0  0  0  0  0  0  0  0  0  0  0  0
  -21.6165  -16.1333   20.5316 N   0  0  0  0  0  0  0  0  0  0  0  0
  -18.9958  -19.3287   14.1540 N   0  0  0  0  0  0  0  0  0  0  0  0
  -21.1036  -17.3656   20.6883 N   0  0  0  0  0  0  0  0  0  0  0  0
  -26.5755  -25.4256   19.7885 N   0  0  0  0  0  0  0  0  0  0  0  0
  -17.6673  -16.9116   19.0775 N   0  0  0  0  0  0  0  0  0  0  0  0
  -21.6703  -19.5847   21.2926 N   0  0  0  0  0  0  0  0  0  0  0  0
  -25.5896  -17.3711   21.6612 N   0  0  0  0  0  0  0  0  0  0  0  0
  -24.6738  -28.3005   20.7093 N   0  0  0  0  0  0  0  0  0  0  0  0
  -29.7714  -24.4088   19.3292 N   0  0  0  0  0  0  0  0  0  0  0  0
  -17.9382  -17.4708   16.7955 N   0  0  0  0  0  0  0  0  0  0  0  0
  -30.4972  -21.0212   20.3613 N   0  3  0  0  0  0  0  0  0  0  0  0
  -24.5747  -19.4133   21.9023 O   0  0  0  0  0  0  0  0  0  0  0  0
  -24.7735  -27.0592   18.7416 O   0  0  0  0  0  0  0  0  0  0  0  0
  -28.4213  -26.5774   20.6266 O   0  0  0  0  0  0  0  0  0  0  0  0
  -29.0080  -22.4153   18.4235 O   0  0  0  0  0  0  0  0  0  0  0  0
  -15.8533  -17.4806   17.7495 O   0  0  0  0  0  0  0  0  0  0  0  0
  -26.4189  -11.9537   20.6614 O   0  0  0  0  0  0  0  0  0  0  0  0
  -22.3069  -21.5594   17.5784 O   0  0  0  0  0  0  0  0  0  1  0  0
  -31.3316  -12.7259   18.2797 F   0  0  0  0  0  0  0  0  0  0  0  0
  -28.1862  -13.8432   21.6357 F   0  0  0  0  0  0  0  0  0  0  0  0
  1  2  1  0  0  0  0
  1  5  2  0  0  0  0
  2  6  2  0  0  0  0
  3  8  2  0  0  0  0
  3 16  1  0  0  0  0
  4  9  1  0  0  0  0
  4 16  2  0  0  0  0
  5 18  1  0  0  0  0
  6 20  1  0  0  0  0
  7 10  2  0  0  0  0
  7 19  1  0  0  0  0
  8 24  1  0  0  0  0
  9 24  2  0  0  0  0
 10 25  1  0  0  0  0
 11 12  2  0  0  0  0
 11 26  1  0  0  0  0
 12 27  1  0  0  0  0
 13 21  1  0  0  0  0
 13 25  2  0  0  0  0
 14 27  2  0  0  0  0
 14 28  1  0  0  0  0
 15 22  2  0  0  0  0
 15 69  1  0  0  0  0
 16 29  1  0  0  0  0
 17 29  1  0  0  0  0
 17 31  2  0  0  0  0
 17 32  1  0  0  0  0
 18 20  2  0  0  0  0
 18 37  1  0  0  0  0
 19 21  2  0  0  0  0
 19 38  1  0  0  0  0
 20 46  1  0  0  0  0
 21 39  1  0  0  0  0
 22 23  1  0  0  0  0
 22 63  1  0  0  0  0
 23 30  2  0  0  0  0
 23 64  1  0  0  0  0
 24 84  1  0  0  0  0
 25 85  1  0  0  0  0
 26 28  2  0  0  0  0
 26 84  1  0  0  0  0
 27 86  1  0  0  0  0
 28 87  1  0  0  0  0
 29 68  2  0  0  0  0
 30 58  1  0  0  0  0
 30 69  1  0  0  0  0
 31 70  1  0  0  0  0
 31 73  1  0  0  0  0
 32 74  1  0  0  0  0
 32 79  2  0  0  0  0
 33 47  1  0  0  0  0
 33 75  1  0  0  0  0
 33 80  2  0  0  0  0
 34 65  1  0  0  0  0
 34 71  1  0  0  0  0
 34 81  2  0  0  0  0
 35 66  1  0  0  0  0
 35 76  1  0  0  0  0
 35 82  2  0  0  0  0
 36 72  1  0  0  0  0
 36 77  1  0  0  0  0
 36 83  2  0  0  0  0
 37 40  1  0  0  0  0
 38 47  1  0  0  0  0
 39 71  1  0  0  0  0
 40 42  1  0  0  0  0
 41 43  1  0  0  0  0
 41 44  1  0  0  0  0
 42 46  1  0  0  0  0
 43 48  1  0  0  0  0
 44 72  1  0  0  0  0
 45 48  1  0  0  0  0
 45 72  1  0  0  0  0
 46 75  1  0  0  0  0
 47 71  1  0  0  0  0
 48 70  1  0  0  0  0
 49 63  1  0  0  0  0
 50 63  1  0  0  0  0
 51 64  1  0  0  0  0
 52 64  1  0  0  0  0
 53 66  1  0  0  0  0
 54 67  1  0  0  0  0
 55 67  1  0  0  0  0
 56 67  1  0  0  0  0
 57 78  1  0  0  0  0
 58 77  1  0  0  0  0
 59 60  1  0  0  0  0
 59 61  1  0  0  0  0
 60 62  1  0  0  0  0
 61 69  1  0  0  0  0
 62 85  1  0  0  0  0
 65 67  1  0  0  0  0
 65 76  1  0  0  0  0
 66 78  1  0  0  0  0
 68 70  1  0  0  0  0
M  CHG  1  78   1
M  ISO  4  36 100  62 101  77 100  85 101
M  END
> <Batch ID>
0099

> <Smiles>
CNC(C)C(=O)NC(C(=O)N1Cc2cc([101O:1][101CH2:1]CCCn3cc(C(C)C)c(C(C)C)c3C[100NH:0][100C:0](=O)N3CCCC(n4nc(-c5ccc(Oc6ccc(F)cc6F)cc5)c(C(N)=O)c4N)C3)ccc2CC1C(=O)NC1CCCc2ccccc21)C(C)(C)C

> <Shape>
0.191

> <Color>
0.066

> <Negative vol penalty>
0.000

$$$$

  -OEChem-04052319313D

 85 93  0     1  0  0  0  0  0999 V2000
  -31.2739  -28.5804   27.5893 C   0  0  0  0  0  0  0  0  0  0  0  0
  -30.9156  -27.3294   27.0974 C   0  0  0  0  0  0  0  0  0  0  0  0
  -23.0965   -9.8212   19.9270 C   0  0  0  0  0  0  0  0  0  0  0  0
  -23.7983   -9.8775   22.2382 C   0  0  0  0  0  0  0  0  0  0  0  0
  -30.2860  -29.5041   27.9282 C   0  0  0  0  0  0  0  0  0  0  0  0
  -29.5690  -27.0009   26.9452 C   0  0  0  0  0  0  0  0  0  0  0  0
  -27.1063  -23.4979   22.5669 C   0  0  0  0  0  0  0  0  0  0  0  0
  -22.3742   -8.6540   20.1747 C   0  0  0  0  0  0  0  0  0  0  0  0
  -23.0759   -8.7102   22.4859 C   0  0  0  0  0  0  0  0  0  0  0  0
  -26.7247  -22.1571   22.5422 C   0  0  0  0  0  0  0  0  0  0  0  0
  -23.4594   -5.3890   21.9829 C   0  0  0  0  0  0  0  0  0  0  0  0
  -24.0808   -4.3886   22.7303 C   0  0  0  0  0  0  0  0  0  0  0  0
  -24.4559  -22.7996   23.0509 C   0  0  0  0  0  0  0  0  0  0  0  0
  -26.1532  -19.1144   20.6621 C   0  0  0  0  0  0  0  0  0  0  0  0
  -28.1476  -18.8561   22.0009 C   0  0  0  0  0  0  0  0  0  0  0  0
  -22.3335   -4.5443   24.3916 C   0  0  0  0  0  0  0  0  0  0  0  0
  -23.8086  -10.4329   20.9587 C   0  0  0  0  0  0  0  0  0  0  0  0
  -24.0934  -12.9637   20.8116 C   0  0  0  0  0  0  0  0  0  0  0  0
  -28.9268  -29.1903   27.7710 C   0  0  0  0  0  0  0  0  0  0  0  0
  -26.1661  -24.5004   22.8450 C   0  0  0  0  0  0  0  0  0  0  0  0
  -28.5619  -27.9207   27.2836 C   0  0  0  0  0  0  0  0  0  0  0  0
  -24.8275  -24.1525   23.0760 C   0  0  0  0  0  0  0  0  0  0  0  0
  -26.7896  -19.1592   21.9025 C   0  0  0  0  0  0  0  0  0  0  0  0
  -26.8747  -18.7664   19.5202 C   0  0  0  0  0  0  0  0  0  0  0  0
  -28.8692  -18.5081   20.8590 C   0  0  0  0  0  0  0  0  0  0  0  0
  -28.2327  -18.4632   19.6186 C   0  0  0  0  0  0  0  0  0  0  0  0
  -22.3638   -8.0985   21.4542 C   0  0  0  0  0  0  0  0  0  0  0  0
  -25.4000  -21.8076   22.7871 C   0  0  0  0  0  0  0  0  0  0  0  0
  -22.2750   -5.9671   22.4399 C   0  0  0  0  0  0  0  0  0  0  0  0
  -23.5179   -3.9662   23.9346 C   0  0  0  0  0  0  0  0  0  0  0  0
  -21.7121   -5.5447   23.6442 C   0  0  0  0  0  0  0  0  0  0  0  0
  -24.5555  -11.6384   20.7033 C   0  0  0  0  0  0  0  0  0  0  0  0
  -25.1762  -13.7343   20.4649 C   0  0  0  0  0  0  0  0  0  0  0  0
  -22.8009  -13.4544   21.1916 C   0  0  0  0  0  0  0  0  0  0  0  0
  -25.8269  -26.6866   25.1274 C   0  0  0  0  0  0  0  0  0  0  0  0
  -23.3603  -27.6793   23.2691 C   0  0  0  0  0  0  0  0  0  0  0  0
  -21.0361  -26.9168   20.8894 C   0  0  0  0  0  0  0  0  0  0  0  0
  -30.6278  -14.8874   20.7745 C   0  0  0  0  0  0  0  0  0  0  0  0
  -27.8939  -30.2040   28.1954 C   0  0  0  0  0  0  0  0  0  0  0  0
  -26.5882  -25.9441   22.8415 C   0  0  0  0  0  0  0  0  0  0  0  0
  -23.7755  -25.1924   23.3594 C   0  0  0  0  0  0  0  0  0  0  0  0
  -26.4972  -29.9149   27.6514 C   0  0  0  0  0  0  0  0  0  0  0  0
  -29.6073  -12.4442   18.3942 C   0  0  0  0  0  0  0  0  0  0  0  0
  -26.1422  -28.4442   27.8464 C   0  0  0  0  0  0  0  0  0  0  0  0
  -28.1668  -12.1219   18.7955 C   0  0  0  0  0  0  0  0  0  0  0  0
  -30.4885  -12.7032   19.6142 C   0  0  0  0  0  0  0  0  0  0  0  0
  -28.5358  -13.4070   20.9428 C   0  0  0  0  0  0  0  0  0  0  0  0
  -27.1124  -27.5363   27.0809 C   0  0  1  0  0  0  0  0  0  0  0  0
  -25.6514  -26.8425   23.6432 C   0  0  1  0  0  0  0  0  0  0  0  0
  -27.5959  -13.1931   19.7440 C   0  0  2  0  0  0  0  0  0  0  0  0
  -26.1698  -18.7269   18.2037 C   0  0  0  0  0  0  0  0  0  0  0  0
  -29.8773  -19.2368   17.8913 C   0  0  0  0  0  0  0  0  0  0  0  0
  -26.2817  -17.3008   24.3438 C   0  0  0  0  0  0  0  0  0  0  0  0
  -19.1333  -27.9241   19.6001 C   0  0  0  0  0  0  0  0  0  0  0  0
  -21.5801  -27.4708   25.7384 C   0  0  0  0  0  0  0  0  0  0  0  0
  -19.5884  -27.5508   24.2234 C   0  0  0  0  0  0  0  0  0  0  0  0
  -21.1605  -29.4853   24.3170 C   0  0  0  0  0  0  0  0  0  0  0  0
  -22.3960  -26.4604   18.3007 C   0  0  0  0  0  0  0  0  0  0  0  0
  -30.3224  -18.1880   20.9913 C   0  0  0  0  0  0  0  0  0  0  0  0
  -29.0061  -18.0906   18.3940 C   0  0  0  0  0  0  0  0  0  0  0  0
  -25.3109  -18.3476   23.8179 C   0  0  0  0  0  0  0  0  0  0  0  0
  -30.6116  -17.0555   21.9822 C   0  0  0  0  0  0  0  0  0  0  0  0
  -26.0079  -19.5356   23.1396 C   0  0  2  0  0  0  0  0  0  1  0  0
  -21.8900  -27.3492   23.1781 C   0  0  1  0  0  0  0  0  0  0  0  0
  -20.6260  -27.6337   19.6157 C   0  0  2  0  0  0  0  0  0  0  0  0
  -21.0747  -27.9440   24.3608 C   0  0  0  0  0  0  0  0  0  0  0  0
  -25.8323  -11.5674   20.3179 N   0  0  0  0  0  0  0  0  0  0  0  0
  -26.1818  -12.8578   20.1808 N   0  0  0  0  0  0  0  0  0  0  0  0
  -24.2389  -26.5898   23.3514 N   0  0  0  0  0  0  0  0  0  0  0  0
  -29.8917  -13.7301   20.4717 N   0  0  0  0  0  0  0  0  0  0  0  0
  -25.3567  -15.0693   20.3783 N   0  0  0  0  0  0  0  0  0  0  0  0
  -21.8027  -12.5258   21.5165 N   0  0  0  0  0  0  0  0  0  0  0  0
  -26.7846  -27.5210   25.6714 N   0  0  0  0  0  0  0  0  0  0  0  0
  -21.4509  -27.8014   21.8624 N   0  0  0  0  0  0  0  0  0  0  0  0
  -29.9858  -15.8129   21.5883 N   0  0  0  0  0  0  0  0  0  0  0  0
  -20.9554  -26.8017   18.4240 N   0  3  0  0  0  0  0  0  0  0  0  0
  -22.5342  -14.6797   21.2257 O   0  0  0  0  0  0  0  0  0  0  0  0
  -25.1428  -25.8708   25.7342 O   0  0  0  0  0  0  0  0  0  0  0  0
  -23.7166  -28.8603   23.2602 O   0  0  0  0  0  0  0  0  0  0  0  0
  -20.9893  -25.6947   21.0104 O   0  0  0  0  0  0  0  0  0  0  0  0
  -31.7703  -15.0840   20.3467 O   0  0  0  0  0  0  0  0  0  0  0  0
  -21.6589   -6.9597   21.6963 O   0  0  0  0  0  0  0  0  0  0  0  0
  -25.0250  -20.4996   22.7642 O   0  0  0  0  0  0  0  0  0  1  0  0
  -24.1139   -3.0044   24.6514 F   0  0  0  0  0  0  0  0  0  0  0  0
  -20.5738   -6.0955   24.0877 F   0  0  0  0  0  0  0  0  0  0  0  0
  1  2  1  0  0  0  0
  1  5  2  0  0  0  0
  2  6  2  0  0  0  0
  3  8  2  0  0  0  0
  3 17  1  0  0  0  0
  4  9  1  0  0  0  0
  4 17  2  0  0  0  0
  5 19  1  0  0  0  0
  6 21  1  0  0  0  0
  7 10  2  0  0  0  0
  7 20  1  0  0  0  0
  8 27  1  0  0  0  0
  9 27  2  0  0  0  0
 10 28  1  0  0  0  0
 11 12  2  0  0  0  0
 11 29  1  0  0  0  0
 12 30  1  0  0  0  0
 13 22  1  0  0  0  0
 13 28  2  0  0  0  0
 14 23  1  0  0  0  0
 14 24  2  0  0  0  0
 15 23  2  0  0  0  0
 15 25  1  0  0  0  0
 16 30  2  0  0  0  0
 16 31  1  0  0  0  0
 17 32  1  0  0  0  0
 18 32  1  0  0  0  0
 18 33  2  0  0  0  0
 18 34  1  0  0  0  0
 19 21  2  0  0  0  0
 19 39  1  0  0  0  0
 20 22  2  0  0  0  0
 20 40  1  0  0  0  0
 21 48  1  0  0  0  0
 22 41  1  0  0  0  0
 23 63  1  0  0  0  0
 24 26  1  0  0  0  0
 24 51  1  0  0  0  0
 25 26  2  0  0  0  0
 25 59  1  0  0  0  0
 26 60  1  0  0  0  0
 27 82  1  0  0  0  0
 28 83  1  0  0  0  0
 29 31  2  0  0  0  0
 29 82  1  0  0  0  0
 30 84  1  0  0  0  0
 31 85  1  0  0  0  0
 32 67  2  0  0  0  0
 33 68  1  0  0  0  0
 33 71  1  0  0  0  0
 34 72  1  0  0  0  0
 34 77  2  0  0  0  0
 35 49  1  0  0  0  0
 35 73  1  0  0  0  0
 35 78  2  0  0  0  0
 36 64  1  0  0  0  0
 36 69  1  0  0  0  0
 36 79  2  0  0  0  0
 37 65  1  0  0  0  0
 37 74  1  0  0  0  0
 37 80  2  0  0  0  0
 38 70  1  0  0  0  0
 38 75  1  0  0  0  0
 38 81  2  0  0  0  0
 39 42  1  0  0  0  0
 40 49  1  0  0  0  0
 41 69  1  0  0  0  0
 42 44  1  0  0  0  0
 43 45  1  0  0  0  0
 43 46  1  0  0  0  0
 44 48  1  0  0  0  0
 45 50  1  0  0  0  0
 46 70  1  0  0  0  0
 47 50  1  0  0  0  0
 47 70  1  0  0  0  0
 48 73  1  0  0  0  0
 49 69  1  0  0  0  0
 50 68  1  0  0  0  0
 52 60  1  0  0  0  0
 53 61  1  0  0  0  0
 54 65  1  0  0  0  0
 55 66  1  0  0  0  0
 56 66  1  0  0  0  0
 57 66  1  0  0  0  0
 58 76  1  0  0  0  0
 59 62  1  0  0  0  0
 61 63  1  0  0  0  0
 62 75  1  0  0  0  0
 63 83  1  0  0  0  0
 64 66  1  0  0  0  0
 64 74  1  0  0  0  0
 65 76  1  0  0  0  0
 67 68  1  0  0  0  0
M  CHG  1  76   1
M  ISO  4  38 100  63 101  75 100  83 101
M  END
> <Batch ID>
0099

> <Smiles>
CCc1c(C)cc([101CH:1](CC)[101O:1]c2ccc3c(c2)CN(C(=O)C(NC(=O)C(C)NC)C(C)(C)C)C(C(=O)NC2CCCc4ccccc42)C3)cc1CC[100NH:0][100C:0](=O)N1CCCC(n2nc(-c3ccc(Oc4ccc(F)cc4F)cc3)c(C(N)=O)c2N)C1

> <Shape>
0.247

> <Color>
0.218

> <Negative vol penalty>
0.000

$$$$

  -OEChem-04052319313D

 80 88  0     1  0  0  0  0  0999 V2000
  -29.8293  -36.4997   25.1143 C   0  0  0  0  0  0  0  0  0  0  0  0
  -30.1227  -35.3725   24.3536 C   0  0  0  0  0  0  0  0  0  0  0  0
  -28.0502  -11.9629   22.9997 C   0  0  0  0  0  0  0  0  0  0  0  0
  -26.6320  -12.9921   21.3364 C   0  0  0  0  0  0  0  0  0  0  0  0
  -28.7515  -36.4813   25.9986 C   0  0  0  0  0  0  0  0  0  0  0  0
  -29.3391  -34.2258   24.4775 C   0  0  0  0  0  0  0  0  0  0  0  0
  -27.8887  -30.2608   20.0412 C   0  0  0  0  0  0  0  0  0  0  0  0
  -26.9814  -11.1726   23.4221 C   0  0  0  0  0  0  0  0  0  0  0  0
  -25.5631  -12.2017   21.7588 C   0  0  0  0  0  0  0  0  0  0  0  0
  -28.4194  -29.0236   19.6785 C   0  0  0  0  0  0  0  0  0  0  0  0
  -24.5026   -9.0202   21.3419 C   0  0  0  0  0  0  0  0  0  0  0  0
  -23.7228   -8.4090   20.3601 C   0  0  0  0  0  0  0  0  0  0  0  0
  -26.7118  -27.9179   20.9750 C   0  0  0  0  0  0  0  0  0  0  0  0
  -21.7759   -9.5857   21.1738 C   0  0  0  0  0  0  0  0  0  0  0  0
  -27.8756  -12.8727   21.9569 C   0  0  0  0  0  0  0  0  0  0  0  0
  -29.9237  -13.3806   20.5235 C   0  0  0  0  0  0  0  0  0  0  0  0
  -27.9484  -35.3370   26.1263 C   0  0  0  0  0  0  0  0  0  0  0  0
  -26.7702  -30.3362   20.8837 C   0  0  0  0  0  0  0  0  0  0  0  0
  -28.2504  -34.1916   25.3653 C   0  0  0  0  0  0  0  0  0  0  0  0
  -26.1673  -29.1572   21.3448 C   0  0  0  0  0  0  0  0  0  0  0  0
  -25.7378  -11.2920   22.8017 C   0  0  0  0  0  0  0  0  0  0  0  0
  -27.8327  -27.8520   20.1478 C   0  0  0  0  0  0  0  0  0  0  0  0
  -23.9190   -9.9142   22.2397 C   0  0  0  0  0  0  0  0  0  0  0  0
  -22.3595   -8.6918   20.2760 C   0  0  0  0  0  0  0  0  0  0  0  0
  -22.5557  -10.1969   22.1557 C   0  0  0  0  0  0  0  0  0  0  0  0
  -28.9792  -13.6898   21.5205 C   0  0  0  0  0  0  0  0  0  0  0  0
  -30.7560  -14.4727   20.4884 C   0  0  0  0  0  0  0  0  0  0  0  0
  -30.0385  -12.2109   19.7024 C   0  0  0  0  0  0  0  0  0  0  0  0
  -26.2089  -31.5618   23.7623 C   0  0  0  0  0  0  0  0  0  0  0  0
  -23.1476  -30.7227   23.0939 C   0  0  0  0  0  0  0  0  0  0  0  0
  -21.0082  -28.7306   21.3328 C   0  0  0  0  0  0  0  0  0  0  0  0
  -30.0730  -20.0771   21.7450 C   0  0  0  0  0  0  0  0  0  0  0  0
  -26.8228  -35.3485   27.1301 C   0  0  0  0  0  0  0  0  0  0  0  0
  -26.1937  -31.6779   21.2439 C   0  0  0  0  0  0  0  0  0  0  0  0
  -24.9528  -29.1835   22.2352 C   0  0  0  0  0  0  0  0  0  0  0  0
  -25.8144  -34.2205   26.9274 C   0  0  0  0  0  0  0  0  0  0  0  0
  -32.4600  -17.9813   23.2491 C   0  0  0  0  0  0  0  0  0  0  0  0
  -26.5345  -32.8930   26.7126 C   0  0  0  0  0  0  0  0  0  0  0  0
  -31.9268  -16.5980   22.8777 C   0  0  0  0  0  0  0  0  0  0  0  0
  -29.0919  -22.6472   23.9378 C   0  0  0  0  0  0  0  0  0  0  0  0
  -31.3352  -18.9455   23.6300 C   0  0  0  0  0  0  0  0  0  0  0  0
  -30.2577  -21.6861   23.6923 C   0  0  0  0  0  0  0  0  0  0  0  0
  -30.4562  -22.4935   21.3605 C   0  0  0  0  0  0  0  0  0  0  0  0
  -29.7352  -17.6729   22.2371 C   0  0  0  0  0  0  0  0  0  0  0  0
  -27.4087  -32.9370   25.4535 C   0  0  1  0  0  0  0  0  0  0  0  0
  -25.3632  -31.6474   22.5233 C   0  0  1  0  0  0  0  0  0  0  0  0
  -29.1357  -23.8917   23.0329 C   0  0  2  0  0  0  0  0  0  0  0  0
  -29.2754  -23.4547   21.5535 C   0  0  1  0  0  0  0  0  0  0  0  0
  -30.8378  -16.6982   21.7947 C   0  0  2  0  0  0  0  0  0  0  0  0
  -30.0235  -25.2624   24.9255 C   0  0  0  0  0  0  0  0  0  0  0  0
  -18.5641  -28.2507   21.0275 C   0  0  0  0  0  0  0  0  0  0  0  0
  -23.1168  -29.2076   25.7422 C   0  0  0  0  0  0  0  0  0  0  0  0
  -21.0695  -28.0039   24.9497 C   0  0  0  0  0  0  0  0  0  0  0  0
  -21.0225  -30.4805   25.2441 C   0  0  0  0  0  0  0  0  0  0  0  0
  -21.0995  -29.4815   18.4716 C   0  0  0  0  0  0  0  0  0  0  0  0
  -30.2239  -24.8648   23.5023 C   0  0  0  0  0  0  0  0  0  0  0  0
  -29.3819  -24.6351   20.5879 C   0  0  0  0  0  0  0  0  0  0  0  0
  -28.1992  -25.5749   20.7277 C   0  0  0  0  0  0  0  0  0  1  0  0
  -22.3071  -29.4868   23.3065 C   0  0  1  0  0  0  0  0  0  0  0  0
  -19.7580  -29.0534   20.5345 C   0  0  2  0  0  0  0  0  0  0  0  0
  -21.9030  -29.2939   24.7954 C   0  0  0  0  0  0  0  0  0  0  0  0
  -29.1909  -14.8847   22.0785 N   0  0  0  0  0  0  0  0  0  0  0  0
  -30.2781  -15.3359   21.4301 N   0  0  0  0  0  0  0  0  0  0  0  0
  -24.4300  -30.5197   22.5646 N   0  0  0  0  0  0  0  0  0  0  0  0
  -30.3012  -18.9776   22.5862 N   0  0  0  0  0  0  0  0  0  0  0  0
  -30.3598  -21.3480   22.2666 N   0  0  0  0  0  0  0  0  0  0  0  0
  -31.8426  -14.7692   19.7442 N   0  0  0  0  0  0  0  0  0  0  0  0
  -29.0998  -11.1834   19.8682 N   0  0  0  0  0  0  0  0  0  0  0  0
  -26.5936  -32.7894   24.2668 N   0  0  0  0  0  0  0  0  0  0  0  0
  -21.1773  -29.5991   22.3904 N   0  0  0  0  0  0  0  0  0  0  0  0
  -19.9698  -28.7430   19.0924 N   0  3  0  0  0  0  0  0  0  0  0  0
  -30.9564  -12.0735   18.8585 O   0  0  0  0  0  0  0  0  0  0  0  0
  -26.4903  -30.4634   24.2271 O   0  0  0  0  0  0  0  0  0  0  0  0
  -22.6808  -31.8281   23.3800 O   0  0  0  0  0  0  0  0  0  0  0  0
  -21.7577  -27.7989   21.0490 O   0  0  0  0  0  0  0  0  0  0  0  0
  -29.6386  -19.9321   20.5955 O   0  0  0  0  0  0  0  0  0  0  0  0
  -24.6946  -10.5208   23.2134 O   0  0  0  0  0  0  0  0  0  0  0  0
  -28.3529  -26.6342   19.7933 O   0  0  0  0  0  0  0  0  0  1  0  0
  -21.6111   -8.1059   19.3321 F   0  0  0  0  0  0  0  0  0  0  0  0
  -21.9896  -11.0557   23.0146 F   0  0  0  0  0  0  0  0  0  0  0  0
  1  2  1  0  0  0  0
  1  5  2  0  0  0  0
  2  6  2  0  0  0  0
  3  8  2  0  0  0  0
  3 15  1  0  0  0  0
  4  9  1  0  0  0  0
  4 15  2  0  0  0  0
  5 17  1  0  0  0  0
  6 19  1  0  0  0  0
  7 10  2  0  0  0  0
  7 18  1  0  0  0  0
  8 21  1  0  0  0  0
  9 21  2  0  0  0  0
 10 22  1  0  0  0  0
 11 12  2  0  0  0  0
 11 23  1  0  0  0  0
 12 24  1  0  0  0  0
 13 20  1  0  0  0  0
 13 22  2  0  0  0  0
 14 24  2  0  0  0  0
 14 25  1  0  0  0  0
 15 26  1  0  0  0  0
 16 26  1  0  0  0  0
 16 27  2  0  0  0  0
 16 28  1  0  0  0  0
 17 19  2  0  0  0  0
 17 33  1  0  0  0  0
 18 20  2  0  0  0  0
 18 34  1  0  0  0  0
 19 45  1  0  0  0  0
 20 35  1  0  0  0  0
 21 77  1  0  0  0  0
 22 78  1  0  0  0  0
 23 25  2  0  0  0  0
 23 77  1  0  0  0  0
 24 79  1  0  0  0  0
 25 80  1  0  0  0  0
 26 62  2  0  0  0  0
 27 63  1  0  0  0  0
 27 67  1  0  0  0  0
 28 68  1  0  0  0  0
 28 72  2  0  0  0  0
 29 46  1  0  0  0  0
 29 69  1  0  0  0  0
 29 73  2  0  0  0  0
 30 59  1  0  0  0  0
 30 64  1  0  0  0  0
 30 74  2  0  0  0  0
 31 60  1  0  0  0  0
 31 70  1  0  0  0  0
 31 75  2  0  0  0  0
 32 65  1  0  0  0  0
 32 66  1  0  0  0  0
 32 76  2  0  0  0  0
 33 36  1  0  0  0  0
 34 46  1  0  0  0  0
 35 64  1  0  0  0  0
 36 38  1  0  0  0  0
 37 39  1  0  0  0  0
 37 41  1  0  0  0  0
 38 45  1  0  0  0  0
 39 49  1  0  0  0  0
 40 42  1  0  0  0  0
 40 47  1  0  0  0  0
 41 65  1  0  0  0  0
 42 66  1  0  0  0  0
 43 48  1  0  0  0  0
 43 66  1  0  0  0  0
 44 49  1  0  0  0  0
 44 65  1  0  0  0  0
 45 69  1  0  0  0  0
 46 64  1  0  0  0  0
 47 48  1  0  0  0  0
 47 56  1  0  0  0  0
 48 57  1  0  0  0  0
 49 63  1  0  0  0  0
 50 56  1  0  0  0  0
 51 60  1  0  0  0  0
 52 61  1  0  0  0  0
 53 61  1  0  0  0  0
 54 61  1  0  0  0  0
 55 71  1  0  0  0  0
 57 58  1  0  0  0  0
 58 78  1  0  0  0  0
 59 61  1  0  0  0  0
 59 70  1  0  0  0  0
 60 71  1  0  0  0  0
 62 63  1  0  0  0  0
M  CHG  1  71   1
M  ISO  4  32 100  58 101  66 100  78 101
M  END
> <Batch ID>
0099

> <Smiles>
CCC1CC[100N:0]([100C:0](=O)N2CCCC(n3nc(-c4ccc(Oc5ccc(F)cc5F)cc4)c(C(N)=O)c3N)C2)CC1C[101CH2:1][101O:1]c1ccc2c(c1)CN(C(=O)C(NC(=O)C(C)NC)C(C)(C)C)C(C(=O)NC1CCCc3ccccc31)C2

> <Shape>
0.277

> <Color>
0.102

> <Negative vol penalty>
0.000

$$$$

  -OEChem-04052319313D

 85 93  0     1  0  0  0  0  0999 V2000
  -17.2569  -28.6444   24.9672 C   0  0  0  0  0  0  0  0  0  0  0  0
  -17.6187  -27.3013   24.9877 C   0  0  0  0  0  0  0  0  0  0  0  0
  -23.2128   -9.6973   20.0134 C   0  0  0  0  0  0  0  0  0  0  0  0
  -23.7877   -9.9739   22.3437 C   0  0  0  0  0  0  0  0  0  0  0  0
  -18.0215  -29.5602   24.2458 C   0  0  0  0  0  0  0  0  0  0  0  0
  -18.7448  -26.8729   24.2858 C   0  0  0  0  0  0  0  0  0  0  0  0
  -22.6215  -22.4188   25.9099 C   0  0  0  0  0  0  0  0  0  0  0  0
  -22.4989   -8.5407   20.3268 C   0  0  0  0  0  0  0  0  0  0  0  0
  -23.0737   -8.8174   22.6571 C   0  0  0  0  0  0  0  0  0  0  0  0
  -22.7263  -21.0816   25.5294 C   0  0  0  0  0  0  0  0  0  0  0  0
  -23.1806   -5.3007   21.0063 C   0  0  0  0  0  0  0  0  0  0  0  0
  -23.3633   -4.1856   20.1886 C   0  0  0  0  0  0  0  0  0  0  0  0
  -31.0269  -19.8294   22.4176 C   0  0  0  0  0  0  0  0  0  0  0  0
  -24.3915  -21.6846   23.8915 C   0  0  0  0  0  0  0  0  0  0  0  0
  -21.0094   -4.1988   19.6445 C   0  0  0  0  0  0  0  0  0  0  0  0
  -31.8485  -18.9350   21.7506 C   0  0  0  0  0  0  0  0  0  0  0  0
  -23.8573  -10.4139   21.0218 C   0  0  0  0  0  0  0  0  0  0  0  0
  -24.1047  -12.9274   20.6632 C   0  0  0  0  0  0  0  0  0  0  0  0
  -19.1631  -29.1445   23.5425 C   0  0  0  0  0  0  0  0  0  0  0  0
  -23.3942  -23.4020   25.2755 C   0  0  0  0  0  0  0  0  0  0  0  0
  -19.5247  -27.7838   23.5531 C   0  0  0  0  0  0  0  0  0  0  0  0
  -24.2965  -23.0332   24.2676 C   0  0  0  0  0  0  0  0  0  0  0  0
  -29.7506  -19.4037   22.7683 C   0  0  0  0  0  0  0  0  0  0  0  0
  -29.3405  -18.1148   22.4459 C   0  0  0  0  0  0  0  0  0  0  0  0
  -22.4293   -8.1008   21.6486 C   0  0  0  0  0  0  0  0  0  0  0  0
  -23.6093  -20.7148   24.5181 C   0  0  0  0  0  0  0  0  0  0  0  0
  -21.9122   -5.8648   21.1432 C   0  0  0  0  0  0  0  0  0  0  0  0
  -22.2778   -3.6346   19.5076 C   0  0  0  0  0  0  0  0  0  0  0  0
  -20.8267   -5.3139   20.4623 C   0  0  0  0  0  0  0  0  0  0  0  0
  -24.5954  -11.6084   20.6986 C   0  0  0  0  0  0  0  0  0  0  0  0
  -30.2375  -17.2972   21.7774 C   0  0  0  0  0  0  0  0  0  0  0  0
  -25.1909  -13.6883   20.3058 C   0  0  0  0  0  0  0  0  0  0  0  0
  -22.7852  -13.4208   20.9297 C   0  0  0  0  0  0  0  0  0  0  0  0
  -22.7517  -25.9840   23.5365 C   0  0  0  0  0  0  0  0  0  0  0  0
  -25.9577  -26.4367   23.7336 C   0  0  0  0  0  0  0  0  0  0  0  0
  -29.0527  -25.0756   24.1978 C   0  0  0  0  0  0  0  0  0  0  0  0
  -30.5791  -15.0105   20.7772 C   0  0  0  0  0  0  0  0  0  0  0  0
  -19.9313  -30.1632   22.7383 C   0  0  0  0  0  0  0  0  0  0  0  0
  -23.2889  -24.8364   25.7160 C   0  0  0  0  0  0  0  0  0  0  0  0
  -25.1633  -24.0477   23.5691 C   0  0  0  0  0  0  0  0  0  0  0  0
  -21.3236  -29.6908   22.3275 C   0  0  0  0  0  0  0  0  0  0  0  0
  -29.7548  -12.3174   18.5989 C   0  0  0  0  0  0  0  0  0  0  0  0
  -21.2628  -28.2729   21.7683 C   0  0  0  0  0  0  0  0  0  0  0  0
  -28.2987  -12.0014   18.9480 C   0  0  0  0  0  0  0  0  0  0  0  0
  -30.5618  -12.7112   19.8348 C   0  0  0  0  0  0  0  0  0  0  0  0
  -28.5235  -13.4787   20.9862 C   0  0  0  0  0  0  0  0  0  0  0  0
  -20.7536  -27.2847   22.8246 C   0  0  1  0  0  0  0  0  0  0  0  0
  -23.7492  -25.8245   24.6487 C   0  0  1  0  0  0  0  0  0  0  0  0
  -27.6549  -13.1397   19.7638 C   0  0  2  0  0  0  0  0  0  0  0  0
  -28.8434  -20.3471   23.4871 C   0  0  0  0  0  0  0  0  0  0  0  0
  -31.4848  -25.6901   24.2663 C   0  0  0  0  0  0  0  0  0  0  0  0
  -26.6490  -15.4874   25.8401 C   0  0  0  0  0  0  0  0  0  0  0  0
  -25.9909  -26.6343   20.6890 C   0  0  0  0  0  0  0  0  0  0  0  0
  -28.4699  -26.2914   20.7633 C   0  0  0  0  0  0  0  0  0  0  0  0
  -27.4556  -28.2904   21.8579 C   0  0  0  0  0  0  0  0  0  0  0  0
  -29.3192  -24.1800   27.0060 C   0  0  0  0  0  0  0  0  0  0  0  0
  -27.9602  -17.6341   22.8200 C   0  0  0  0  0  0  0  0  0  0  0  0
  -27.9450  -16.7554   24.0792 C   0  0  0  0  0  0  0  0  0  0  0  0
  -24.2357  -17.1628   24.8209 C   0  0  0  0  0  0  0  0  0  0  0  0
  -23.4629  -18.4257   25.1463 C   0  0  0  0  0  0  0  0  0  1  0  0
  -27.1499  -26.0121   22.9106 C   0  0  1  0  0  0  0  0  0  0  0  0
  -30.2151  -25.4940   25.0800 C   0  0  2  0  0  0  0  0  0  0  0  0
  -26.5598  -16.2895   24.5475 C   0  0  2  0  0  0  0  0  0  0  0  0
  -27.2490  -26.7880   21.5668 C   0  0  0  0  0  0  0  0  0  0  0  0
  -31.4854  -17.6754   21.4203 N   0  0  0  0  0  0  0  0  0  0  0  0
  -25.8922  -11.5321   20.3883 N   0  0  0  0  0  0  0  0  0  0  0  0
  -26.2257  -12.8128   20.1544 N   0  0  0  0  0  0  0  0  0  0  0  0
  -25.0194  -25.4382   24.0310 N   0  0  0  0  0  0  0  0  0  0  0  0
  -29.8936  -13.7974   20.5549 N   0  0  0  0  0  0  0  0  0  0  0  0
  -25.3522  -15.0141   20.1094 N   0  0  0  0  0  0  0  0  0  0  0  0
  -21.7875  -12.5025   21.2841 N   0  0  0  0  0  0  0  0  0  0  0  0
  -29.8319  -15.9813   21.4434 N   0  0  0  0  0  0  0  0  0  0  0  0
  -21.8053  -26.9645   23.7657 N   0  0  0  0  0  0  0  0  0  0  0  0
  -28.3162  -26.1616   23.7743 N   0  0  0  0  0  0  0  0  0  0  0  0
  -30.4773  -24.4570   26.1177 N   0  3  0  0  0  0  0  0  0  0  0  0
  -25.6884  -17.4686   24.8014 N   0  3  0  0  0  0  0  0  0  0  0  0
  -22.4954  -14.6379   20.8398 O   0  0  0  0  0  0  0  0  0  0  0  0
  -22.8353  -25.2713   22.5431 O   0  0  0  0  0  0  0  0  0  0  0  0
  -25.8660  -27.6093   24.1052 O   0  0  0  0  0  0  0  0  0  0  0  0
  -28.8233  -23.9030   23.9100 O   0  0  0  0  0  0  0  0  0  0  0  0
  -31.7339  -15.1855   20.3800 O   0  0  0  0  0  0  0  0  0  0  0  0
  -21.7325   -6.9724   21.9549 O   0  0  0  0  0  0  0  0  0  0  0  0
  -23.7132  -19.4104   24.1443 O   0  0  0  0  0  0  0  0  0  1  0  0
  -22.4537   -2.5647   18.7212 F   0  0  0  0  0  0  0  0  0  0  0  0
  -19.6060   -5.8522   20.5889 F   0  0  0  0  0  0  0  0  0  0  0  0
  1  2  1  0  0  0  0
  1  5  2  0  0  0  0
  2  6  2  0  0  0  0
  3  8  2  0  0  0  0
  3 17  1  0  0  0  0
  4  9  1  0  0  0  0
  4 17  2  0  0  0  0
  5 19  1  0  0  0  0
  6 21  1  0  0  0  0
  7 10  2  0  0  0  0
  7 20  1  0  0  0  0
  8 25  1  0  0  0  0
  9 25  2  0  0  0  0
 10 26  1  0  0  0  0
 11 12  2  0  0  0  0
 11 27  1  0  0  0  0
 12 28  1  0  0  0  0
 13 16  1  0  0  0  0
 13 23  2  0  0  0  0
 14 22  1  0  0  0  0
 14 26  2  0  0  0  0
 15 28  2  0  0  0  0
 15 29  1  0  0  0  0
 16 65  2  0  0  0  0
 17 30  1  0  0  0  0
 18 30  1  0  0  0  0
 18 32  2  0  0  0  0
 18 33  1  0  0  0  0
 19 21  2  0  0  0  0
 19 38  1  0  0  0  0
 20 22  2  0  0  0  0
 20 39  1  0  0  0  0
 21 47  1  0  0  0  0
 22 40  1  0  0  0  0
 23 24  1  0  0  0  0
 23 50  1  0  0  0  0
 24 31  2  0  0  0  0
 24 57  1  0  0  0  0
 25 82  1  0  0  0  0
 26 83  1  0  0  0  0
 27 29  2  0  0  0  0
 27 82  1  0  0  0  0
 28 84  1  0  0  0  0
 29 85  1  0  0  0  0
 30 66  2  0  0  0  0
 31 65  1  0  0  0  0
 31 72  1  0  0  0  0
 32 67  1  0  0  0  0
 32 70  1  0  0  0  0
 33 71  1  0  0  0  0
 33 77  2  0  0  0  0
 34 48  1  0  0  0  0
 34 73  1  0  0  0  0
 34 78  2  0  0  0  0
 35 61  1  0  0  0  0
 35 68  1  0  0  0  0
 35 79  2  0  0  0  0
 36 62  1  0  0  0  0
 36 74  1  0  0  0  0
 36 80  2  0  0  0  0
 37 69  1  0  0  0  0
 37 72  1  0  0  0  0
 37 81  2  0  0  0  0
 38 41  1  0  0  0  0
 39 48  1  0  0  0  0
 40 68  1  0  0  0  0
 41 43  1  0  0  0  0
 42 44  1  0  0  0  0
 42 45  1  0  0  0  0
 43 47  1  0  0  0  0
 44 49  1  0  0  0  0
 45 69  1  0  0  0  0
 46 49  1  0  0  0  0
 46 69  1  0  0  0  0
 47 73  1  0  0  0  0
 48 68  1  0  0  0  0
 49 67  1  0  0  0  0
 51 62  1  0  0  0  0
 52 63  1  0  0  0  0
 53 64  1  0  0  0  0
 54 64  1  0  0  0  0
 55 64  1  0  0  0  0
 56 75  1  0  0  0  0
 57 58  1  0  0  0  0
 58 63  1  0  0  0  0
 59 60  1  0  0  0  0
 59 76  1  0  0  0  0
 60 83  1  0  0  0  0
 61 64  1  0  0  0  0
 61 74  1  0  0  0  0
 62 75  1  0  0  0  0
 63 76  1  0  0  0  0
 66 67  1  0  0  0  0
M  CHG  2  75   1  76   1
M  ISO  4  37 100  60 101  72 100  83 101
M  END
> <Batch ID>
0099

> <Smiles>
CNC(C)C(=O)NC(C(=O)N1Cc2cc([101O:1][101CH2:1]CNC(C)CCc3c(C)ccnc3[100NH:0][100C:0](=O)N3CCCC(n4nc(-c5ccc(Oc6ccc(F)cc6F)cc5)c(C(N)=O)c4N)C3)ccc2CC1C(=O)NC1CCCc2ccccc21)C(C)(C)C

> <Shape>
0.226

> <Color>
0.181

> <Negative vol penalty>
0.000

$$$$

  -OEChem-04052319313D

 80 88  0     1  0  0  0  0  0999 V2000
  -26.3357  -28.4925   27.9835 C   0  0  0  0  0  0  0  0  0  0  0  0
  -27.0635  -27.4678   27.3872 C   0  0  0  0  0  0  0  0  0  0  0  0
  -23.0017   -9.8911   19.9832 C   0  0  0  0  0  0  0  0  0  0  0  0
  -23.7257   -9.9478   22.2875 C   0  0  0  0  0  0  0  0  0  0  0  0
  -25.2891  -29.0980   27.2893 C   0  0  0  0  0  0  0  0  0  0  0  0
  -26.7445  -27.0473   26.0965 C   0  0  0  0  0  0  0  0  0  0  0  0
  -30.8426  -26.4248   23.1874 C   0  0  0  0  0  0  0  0  0  0  0  0
  -22.2358   -8.7567   20.2518 C   0  0  0  0  0  0  0  0  0  0  0  0
  -22.9598   -8.8134   22.5561 C   0  0  0  0  0  0  0  0  0  0  0  0
  -31.5859  -25.2603   23.3753 C   0  0  0  0  0  0  0  0  0  0  0  0
  -23.2065   -5.4736   22.0919 C   0  0  0  0  0  0  0  0  0  0  0  0
  -23.7943   -4.4585   22.8465 C   0  0  0  0  0  0  0  0  0  0  0  0
  -30.5224  -24.2774   21.4461 C   0  0  0  0  0  0  0  0  0  0  0  0
  -29.7588  -17.7020   22.6611 C   0  0  0  0  0  0  0  0  0  0  0  0
  -22.0694   -4.7041   24.5204 C   0  0  0  0  0  0  0  0  0  0  0  0
  -32.2651  -18.4664   21.8998 C   0  0  0  0  0  0  0  0  0  0  0  0
  -23.7468  -10.4866   21.0011 C   0  0  0  0  0  0  0  0  0  0  0  0
  -24.1305  -13.0020   20.8195 C   0  0  0  0  0  0  0  0  0  0  0  0
  -24.9633  -28.6913   25.9858 C   0  0  0  0  0  0  0  0  0  0  0  0
  -29.9241  -26.5204   22.1321 C   0  0  0  0  0  0  0  0  0  0  0  0
  -25.6917  -27.6471   25.3847 C   0  0  0  0  0  0  0  0  0  0  0  0
  -29.7706  -25.4451   21.2454 C   0  0  0  0  0  0  0  0  0  0  0  0
  -30.2473  -18.9390   23.0667 C   0  0  0  0  0  0  0  0  0  0  0  0
  -31.5234  -19.3360   22.6831 C   0  0  0  0  0  0  0  0  0  0  0  0
  -22.2148   -8.2179   21.5382 C   0  0  0  0  0  0  0  0  0  0  0  0
  -31.4238  -24.1853   22.5063 C   0  0  0  0  0  0  0  0  0  0  0  0
  -22.0501   -6.1040   22.5514 C   0  0  0  0  0  0  0  0  0  0  0  0
  -23.2258   -4.0737   24.0608 C   0  0  0  0  0  0  0  0  0  0  0  0
  -21.4816   -5.7192   23.7657 C   0  0  0  0  0  0  0  0  0  0  0  0
  -24.5386  -11.6581   20.7242 C   0  0  0  0  0  0  0  0  0  0  0  0
  -30.5794  -16.9056   21.8786 C   0  0  0  0  0  0  0  0  0  0  0  0
  -25.2400  -13.7245   20.4541 C   0  0  0  0  0  0  0  0  0  0  0  0
  -22.8620  -13.5485   21.2042 C   0  0  0  0  0  0  0  0  0  0  0  0
  -26.7793  -26.9342   21.9261 C   0  0  0  0  0  0  0  0  0  0  0  0
  -27.4038  -27.1156   18.7481 C   0  0  0  0  0  0  0  0  0  0  0  0
  -29.4770  -26.3303   16.1535 C   0  0  0  0  0  0  0  0  0  0  0  0
  -30.7188  -14.6896   20.6885 C   0  0  0  0  0  0  0  0  0  0  0  0
  -23.7932  -29.3436   25.2930 C   0  0  0  0  0  0  0  0  0  0  0  0
  -29.1495  -27.7934   21.9272 C   0  0  0  0  0  0  0  0  0  0  0  0
  -28.8124  -25.5049   20.0849 C   0  0  0  0  0  0  0  0  0  0  0  0
  -23.7607  -29.0942   23.7873 C   0  0  0  0  0  0  0  0  0  0  0  0
  -29.6032  -12.2308   18.3676 C   0  0  0  0  0  0  0  0  0  0  0  0
  -24.0076  -27.6196   23.4850 C   0  0  0  0  0  0  0  0  0  0  0  0
  -28.1526  -11.9731   18.7817 C   0  0  0  0  0  0  0  0  0  0  0  0
  -30.5030  -12.4775   19.5773 C   0  0  0  0  0  0  0  0  0  0  0  0
  -28.5864  -13.2682   20.9081 C   0  0  0  0  0  0  0  0  0  0  0  0
  -25.3919  -27.1799   23.9768 C   0  0  1  0  0  0  0  0  0  0  0  0
  -27.8680  -27.5903   21.1248 C   0  0  1  0  0  0  0  0  0  0  0  0
  -27.6295  -13.0785   19.7198 C   0  0  2  0  0  0  0  0  0  0  0  0
  -29.3880  -19.8216   23.9098 C   0  0  0  0  0  0  0  0  0  0  0  0
  -29.7034  -26.5826   13.6670 C   0  0  0  0  0  0  0  0  0  0  0  0
  -25.3051  -24.9389   18.3387 C   0  0  0  0  0  0  0  0  0  0  0  0
  -26.2361  -24.5702   16.0440 C   0  0  0  0  0  0  0  0  0  0  0  0
  -25.2441  -26.7786   16.6457 C   0  0  0  0  0  0  0  0  0  0  0  0
  -32.0022  -27.8505   16.4209 C   0  0  0  0  0  0  0  0  0  0  0  0
  -32.1031  -20.6673   23.0950 C   0  0  0  0  0  0  0  0  0  0  0  0
  -31.5476  -21.8222   22.2688 C   0  0  0  0  0  0  0  0  0  1  0  0
  -27.4841  -26.1203   17.6158 C   0  0  1  0  0  0  0  0  0  0  0  0
  -30.0437  -27.1742   15.0260 C   0  0  2  0  0  0  0  0  0  0  0  0
  -26.0841  -25.5998   17.1840 C   0  0  0  0  0  0  0  0  0  0  0  0
  -31.8245  -17.2571   21.4863 N   0  0  0  0  0  0  0  0  0  0  0  0
  -25.8082  -11.5315   20.3289 N   0  0  0  0  0  0  0  0  0  0  0  0
  -26.2074  -12.8052   20.1726 N   0  0  0  0  0  0  0  0  0  0  0  0
  -28.0732  -26.7687   19.9302 N   0  0  0  0  0  0  0  0  0  0  0  0
  -29.9468  -13.5400   20.4179 N   0  0  0  0  0  0  0  0  0  0  0  0
  -25.4727  -15.0501   20.3491 N   0  0  0  0  0  0  0  0  0  0  0  0
  -21.8306  -12.6645   21.5492 N   0  0  0  0  0  0  0  0  0  0  0  0
  -30.0735  -15.6462   21.4716 N   0  0  0  0  0  0  0  0  0  0  0  0
  -26.4197  -27.6315   23.0636 N   0  0  0  0  0  0  0  0  0  0  0  0
  -28.2333  -26.7753   16.5490 N   0  0  0  0  0  0  0  0  0  0  0  0
  -31.5268  -27.2642   15.1413 N   0  3  0  0  0  0  0  0  0  0  0  0
  -22.6445  -14.7837   21.2251 O   0  0  0  0  0  0  0  0  0  0  0  0
  -26.2999  -25.8745   21.5401 O   0  0  0  0  0  0  0  0  0  0  0  0
  -26.7765  -28.1654   18.5871 O   0  0  0  0  0  0  0  0  0  0  0  0
  -30.0760  -25.3701   16.6327 O   0  0  0  0  0  0  0  0  0  0  0  0
  -31.8575  -14.8283   20.2347 O   0  0  0  0  0  0  0  0  0  0  0  0
  -21.4673   -7.1111   21.8006 O   0  0  0  0  0  0  0  0  0  0  0  0
  -32.1475  -23.0473   22.6878 O   0  0  0  0  0  0  0  0  0  1  0  0
  -23.7895   -3.0978   24.7847 F   0  0  0  0  0  0  0  0  0  0  0  0
  -20.3701   -6.3204   24.2118 F   0  0  0  0  0  0  0  0  0  0  0  0
  1  2  1  0  0  0  0
  1  5  2  0  0  0  0
  2  6  2  0  0  0  0
  3  8  2  0  0  0  0
  3 17  1  0  0  0  0
  4  9  1  0  0  0  0
  4 17  2  0  0  0  0
  5 19  1  0  0  0  0
  6 21  1  0  0  0  0
  7 10  2  0  0  0  0
  7 20  1  0  0  0  0
  8 25  1  0  0  0  0
  9 25  2  0  0  0  0
 10 26  1  0  0  0  0
 11 12  2  0  0  0  0
 11 27  1  0  0  0  0
 12 28  1  0  0  0  0
 13 22  1  0  0  0  0
 13 26  2  0  0  0  0
 14 23  1  0  0  0  0
 14 31  2  0  0  0  0
 15 28  2  0  0  0  0
 15 29  1  0  0  0  0
 16 24  1  0  0  0  0
 16 61  2  0  0  0  0
 17 30  1  0  0  0  0
 18 30  1  0  0  0  0
 18 32  2  0  0  0  0
 18 33  1  0  0  0  0
 19 21  2  0  0  0  0
 19 38  1  0  0  0  0
 20 22  2  0  0  0  0
 20 39  1  0  0  0  0
 21 47  1  0  0  0  0
 22 40  1  0  0  0  0
 23 24  2  0  0  0  0
 23 50  1  0  0  0  0
 24 56  1  0  0  0  0
 25 77  1  0  0  0  0
 26 78  1  0  0  0  0
 27 29  2  0  0  0  0
 27 77  1  0  0  0  0
 28 79  1  0  0  0  0
 29 80  1  0  0  0  0
 30 62  2  0  0  0  0
 31 61  1  0  0  0  0
 31 68  1  0  0  0  0
 32 63  1  0  0  0  0
 32 66  1  0  0  0  0
 33 67  1  0  0  0  0
 33 72  2  0  0  0  0
 34 48  1  0  0  0  0
 34 69  1  0  0  0  0
 34 73  2  0  0  0  0
 35 58  1  0  0  0  0
 35 64  1  0  0  0  0
 35 74  2  0  0  0  0
 36 59  1  0  0  0  0
 36 70  1  0  0  0  0
 36 75  2  0  0  0  0
 37 65  1  0  0  0  0
 37 68  1  0  0  0  0
 37 76  2  0  0  0  0
 38 41  1  0  0  0  0
 39 48  1  0  0  0  0
 40 64  1  0  0  0  0
 41 43  1  0  0  0  0
 42 44  1  0  0  0  0
 42 45  1  0  0  0  0
 43 47  1  0  0  0  0
 44 49  1  0  0  0  0
 45 65  1  0  0  0  0
 46 49  1  0  0  0  0
 46 65  1  0  0  0  0
 47 69  1  0  0  0  0
 48 64  1  0  0  0  0
 49 63  1  0  0  0  0
 51 59  1  0  0  0  0
 52 60  1  0  0  0  0
 53 60  1  0  0  0  0
 54 60  1  0  0  0  0
 55 71  1  0  0  0  0
 56 57  1  0  0  0  0
 57 78  1  0  0  0  0
 58 60  1  0  0  0  0
 58 70  1  0  0  0  0
 59 71  1  0  0  0  0
 62 63  1  0  0  0  0
M  CHG  1  71   1
M  ISO  4  37 100  57 101  68 100  78 101
M  END
> <Batch ID>
0099

> <Smiles>
CNC(C)C(=O)NC(C(=O)N1Cc2cc([101O:1][101CH2:1]Cc3cnc([100NH:0][100C:0](=O)N4CCCC(n5nc(-c6ccc(Oc7ccc(F)cc7F)cc6)c(C(N)=O)c5N)C4)cc3C)ccc2CC1C(=O)NC1CCCc2ccccc21)C(C)(C)C

> <Shape>
0.239

> <Color>
0.202

> <Negative vol penalty>
0.000

$$$$

  -OEChem-04052319313D

 80 88  0     1  0  0  0  0  0999 V2000
  -23.3381  -20.0088   28.3939 C   0  0  0  0  0  0  0  0  0  0  0  0
  -23.3865  -19.0323   27.4041 C   0  0  0  0  0  0  0  0  0  0  0  0
  -27.8830  -23.6007   20.8387 C   0  0  0  0  0  0  0  0  0  0  0  0
  -28.8497  -23.4426   18.6302 C   0  0  0  0  0  0  0  0  0  0  0  0
  -22.5081  -21.1181   28.2370 C   0  0  0  0  0  0  0  0  0  0  0  0
  -22.6042  -19.1641   26.2574 C   0  0  0  0  0  0  0  0  0  0  0  0
  -25.1692  -18.0988   22.0229 C   0  0  0  0  0  0  0  0  0  0  0  0
  -27.8858  -24.9920   20.7404 C   0  0  0  0  0  0  0  0  0  0  0  0
  -28.8525  -24.8340   18.5319 C   0  0  0  0  0  0  0  0  0  0  0  0
  -25.3705  -16.7524   21.7221 C   0  0  0  0  0  0  0  0  0  0  0  0
  -27.3043  -28.5757   20.9255 C   0  0  0  0  0  0  0  0  0  0  0  0
  -26.1565  -29.2568   21.3307 C   0  0  0  0  0  0  0  0  0  0  0  0
  -23.5408  -16.8357   20.1522 C   0  0  0  0  0  0  0  0  0  0  0  0
  -24.8658  -28.0710   19.6679 C   0  0  0  0  0  0  0  0  0  0  0  0
  -28.3650  -22.8259   19.7837 C   0  0  0  0  0  0  0  0  0  0  0  0
  -27.3332  -20.5106   19.4967 C   0  0  0  0  0  0  0  0  0  0  0  0
  -21.7225  -21.2683   27.0834 C   0  0  0  0  0  0  0  0  0  0  0  0
  -24.1434  -18.8221   21.3975 C   0  0  0  0  0  0  0  0  0  0  0  0
  -21.7620  -20.2757   26.0856 C   0  0  0  0  0  0  0  0  0  0  0  0
  -23.3302  -18.1918   20.4449 C   0  0  0  0  0  0  0  0  0  0  0  0
  -28.3705  -25.6087   19.5870 C   0  0  0  0  0  0  0  0  0  0  0  0
  -24.5545  -16.1199   20.7888 C   0  0  0  0  0  0  0  0  0  0  0  0
  -27.2329  -27.6423   19.8913 C   0  0  0  0  0  0  0  0  0  0  0  0
  -24.9373  -29.0044   20.7020 C   0  0  0  0  0  0  0  0  0  0  0  0
  -26.0136  -27.3899   19.2626 C   0  0  0  0  0  0  0  0  0  0  0  0
  -28.3629  -21.3886   19.8848 C   0  0  0  0  0  0  0  0  0  0  0  0
  -27.8166  -19.2605   19.7969 C   0  0  0  0  0  0  0  0  0  0  0  0
  -26.0542  -20.7992   18.9167 C   0  0  0  0  0  0  0  0  0  0  0  0
  -21.5306  -20.3306   22.3982 C   0  0  0  0  0  0  0  0  0  0  0  0
  -21.3458  -21.2521   19.2936 C   0  0  0  0  0  0  0  0  0  0  0  0
  -21.6299  -20.6705   15.7441 C   0  0  0  0  0  0  0  0  0  0  0  0
  -31.9484  -15.5091   19.7884 C   0  0  0  0  0  0  0  0  0  0  0  0
  -20.8052  -22.4610   26.9800 C   0  0  0  0  0  0  0  0  0  0  0  0
  -23.9563  -20.2808   21.7133 C   0  0  0  0  0  0  0  0  0  0  0  0
  -22.2281  -18.9292   19.7307 C   0  0  0  0  0  0  0  0  0  0  0  0
  -20.2900  -22.7124   25.5652 C   0  0  0  0  0  0  0  0  0  0  0  0
  -29.0875  -10.5832   19.0744 C   0  0  0  0  0  0  0  0  0  0  0  0
  -31.8764  -17.8541   22.4665 C   0  0  0  0  0  0  0  0  0  0  0  0
  -19.8042  -21.4111   24.9349 C   0  0  0  0  0  0  0  0  0  0  0  0
  -27.6841  -11.1828   19.0607 C   0  0  0  0  0  0  0  0  0  0  0  0
  -30.0941  -11.4891   18.3705 C   0  0  0  0  0  0  0  0  0  0  0  0
  -30.8761  -18.9128   21.9988 C   0  0  0  0  0  0  0  0  0  0  0  0
  -28.6796  -13.5034   18.9448 C   0  0  0  0  0  0  0  0  0  0  0  0
  -32.7090  -17.3129   21.3064 C   0  0  0  0  0  0  0  0  0  0  0  0
  -30.9244  -17.8627   19.6980 C   0  0  0  0  0  0  0  0  0  0  0  0
  -20.9469  -20.3954   24.8161 C   0  0  1  0  0  0  0  0  0  0  0  0
  -22.5524  -20.7858   21.3951 C   0  0  1  0  0  0  0  0  0  0  0  0
  -27.6673  -12.5956   19.6581 C   0  0  1  0  0  0  0  0  0  0  0  0
  -30.0928  -12.9034   18.9641 C   0  0  2  0  0  0  0  0  0  0  0  0
  -30.0231  -18.3981   20.8238 C   0  0  2  0  0  0  0  0  0  0  0  0
  -21.3049  -22.2291   13.8044 C   0  0  0  0  0  0  0  0  0  0  0  0
  -18.4953  -20.1641   19.2705 C   0  0  0  0  0  0  0  0  0  0  0  0
  -18.5680  -20.2214   16.7685 C   0  0  0  0  0  0  0  0  0  0  0  0
  -18.7920  -22.3378   18.0698 C   0  0  0  0  0  0  0  0  0  0  0  0
  -24.3272  -20.0880   14.6746 C   0  0  0  0  0  0  0  0  0  0  0  0
  -26.2721  -13.1898   19.5878 C   0  0  0  0  0  0  0  0  0  0  0  0
  -31.0714  -13.8041   18.2126 C   0  0  0  0  0  0  0  0  0  0  0  0
  -26.0801  -14.3049   20.6044 C   0  0  0  0  0  0  0  0  0  1  0  0
  -20.7077  -20.6880   18.0471 C   0  0  1  0  0  0  0  0  0  0  0  0
  -22.3150  -21.5668   14.7283 C   0  0  2  0  0  0  0  0  0  0  0  0
  -19.1602  -20.8381   18.0537 C   0  0  0  0  0  0  0  0  0  0  0  0
  -29.4205  -20.7504   20.3929 N   0  0  0  0  0  0  0  0  0  0  0  0
  -29.0579  -19.4581   20.3262 N   0  0  0  0  0  0  0  0  0  0  0  0
  -22.0807  -20.3522   20.0783 N   0  0  0  0  0  0  0  0  0  0  0  0
  -31.8402  -16.8394   20.2261 N   0  0  0  0  0  0  0  0  0  0  0  0
  -27.2966  -18.0226   19.6571 N   0  0  0  0  0  0  0  0  0  0  0  0
  -25.7172  -22.1379   18.6742 N   0  0  0  0  0  0  0  0  0  0  0  0
  -21.8009  -20.7242   23.6949 N   0  0  0  0  0  0  0  0  0  0  0  0
  -21.3665  -21.3400   16.9204 N   0  0  0  0  0  0  0  0  0  0  0  0
  -31.0838  -15.1403   18.7651 N   0  0  0  0  0  0  0  0  0  0  0  0
  -23.2647  -20.7752   13.8962 N   0  3  0  0  0  0  0  0  0  0  0  0
  -25.2278  -19.8978   18.6373 O   0  0  0  0  0  0  0  0  0  0  0  0
  -20.5673  -19.6723   22.0233 O   0  0  0  0  0  0  0  0  0  0  0  0
  -21.2036  -22.4487   19.5573 O   0  0  0  0  0  0  0  0  0  0  0  0
  -21.3525  -19.4952   15.5155 O   0  0  0  0  0  0  0  0  0  0  0  0
  -32.7521  -14.7077   20.2772 O   0  0  0  0  0  0  0  0  0  0  0  0
  -28.3732  -26.9664   19.4906 O   0  0  0  0  0  0  0  0  0  0  0  0
  -24.7484  -14.8057   20.4938 O   0  0  0  0  0  0  0  0  0  1  0  0
  -23.8348  -29.6574   21.0924 F   0  0  0  0  0  0  0  0  0  0  0  0
  -25.9385  -26.4935   18.2694 F   0  0  0  0  0  0  0  0  0  0  0  0
  1  2  1  0  0  0  0
  1  5  2  0  0  0  0
  2  6  2  0  0  0  0
  3  8  2  0  0  0  0
  3 15  1  0  0  0  0
  4  9  1  0  0  0  0
  4 15  2  0  0  0  0
  5 17  1  0  0  0  0
  6 19  1  0  0  0  0
  7 10  2  0  0  0  0
  7 18  1  0  0  0  0
  8 21  1  0  0  0  0
  9 21  2  0  0  0  0
 10 22  1  0  0  0  0
 11 12  2  0  0  0  0
 11 23  1  0  0  0  0
 12 24  1  0  0  0  0
 13 20  1  0  0  0  0
 13 22  2  0  0  0  0
 14 24  2  0  0  0  0
 14 25  1  0  0  0  0
 15 26  1  0  0  0  0
 16 26  1  0  0  0  0
 16 27  2  0  0  0  0
 16 28  1  0  0  0  0
 17 19  2  0  0  0  0
 17 33  1  0  0  0  0
 18 20  2  0  0  0  0
 18 34  1  0  0  0  0
 19 46  1  0  0  0  0
 20 35  1  0  0  0  0
 21 77  1  0  0  0  0
 22 78  1  0  0  0  0
 23 25  2  0  0  0  0
 23 77  1  0  0  0  0
 24 79  1  0  0  0  0
 25 80  1  0  0  0  0
 26 62  2  0  0  0  0
 27 63  1  0  0  0  0
 27 66  1  0  0  0  0
 28 67  1  0  0  0  0
 28 72  2  0  0  0  0
 29 47  1  0  0  0  0
 29 68  1  0  0  0  0
 29 73  2  0  0  0  0
 30 59  1  0  0  0  0
 30 64  1  0  0  0  0
 30 74  2  0  0  0  0
 31 60  1  0  0  0  0
 31 69  1  0  0  0  0
 31 75  2  0  0  0  0
 32 65  1  0  0  0  0
 32 70  1  0  0  0  0
 32 76  2  0  0  0  0
 33 36  1  0  0  0  0
 34 47  1  0  0  0  0
 35 64  1  0  0  0  0
 36 39  1  0  0  0  0
 37 40  1  0  0  0  0
 37 41  1  0  0  0  0
 38 42  1  0  0  0  0
 38 44  1  0  0  0  0
 39 46  1  0  0  0  0
 40 48  1  0  0  0  0
 41 49  1  0  0  0  0
 42 50  1  0  0  0  0
 43 48  1  0  0  0  0
 43 49  1  0  0  0  0
 44 65  1  0  0  0  0
 45 50  1  0  0  0  0
 45 65  1  0  0  0  0
 46 68  1  0  0  0  0
 47 64  1  0  0  0  0
 48 56  1  0  0  0  0
 49 57  1  0  0  0  0
 50 63  1  0  0  0  0
 51 60  1  0  0  0  0
 52 61  1  0  0  0  0
 53 61  1  0  0  0  0
 54 61  1  0  0  0  0
 55 71  1  0  0  0  0
 56 58  1  0  0  0  0
 57 70  1  0  0  0  0
 58 78  1  0  0  0  0
 59 61  1  0  0  0  0
 59 69  1  0  0  0  0
 60 71  1  0  0  0  0
 62 63  1  0  0  0  0
M  CHG  1  71   1
M  ISO  4  32 100  58 101  70 100  78 101
M  END
> <Batch ID>
0099

> <Smiles>
CNC(C)C(=O)NC(C(=O)N1Cc2cc([101O:1][101CH2:1]CC3CCCC(C[100NH:0][100C:0](=O)N4CCCC(n5nc(-c6ccc(Oc7ccc(F)cc7F)cc6)c(C(N)=O)c5N)C4)C3)ccc2CC1C(=O)NC1CCCc2ccccc21)C(C)(C)C

> <Shape>
0.178

> <Color>
0.075

> <Negative vol penalty>
0.000

$$$$

  -OEChem-04052319313D

 88 96  0     1  0  0  0  0  0999 V2000
  -17.6957  -25.9440   22.7186 C   0  0  0  0  0  0  0  0  0  0  0  0
  -19.0150  -25.5104   22.6345 C   0  0  0  0  0  0  0  0  0  0  0  0
  -27.5967  -12.5644   20.2706 C   0  0  0  0  0  0  0  0  0  0  0  0
  -28.7681  -14.6344   19.8463 C   0  0  0  0  0  0  0  0  0  0  0  0
  -17.3688  -27.2514   22.3614 C   0  0  0  0  0  0  0  0  0  0  0  0
  -20.0079  -26.3838   22.1922 C   0  0  0  0  0  0  0  0  0  0  0  0
  -25.8261  -26.6085   24.0906 C   0  0  0  0  0  0  0  0  0  0  0  0
  -28.6166  -11.8569   19.6344 C   0  0  0  0  0  0  0  0  0  0  0  0
  -29.7880  -13.9269   19.2101 C   0  0  0  0  0  0  0  0  0  0  0  0
  -27.0070  -26.0931   23.5582 C   0  0  0  0  0  0  0  0  0  0  0  0
  -31.7312  -10.7693   20.3757 C   0  0  0  0  0  0  0  0  0  0  0  0
  -32.2023   -9.6124   20.9963 C   0  0  0  0  0  0  0  0  0  0  0  0
  -27.4568  -28.2199   22.5125 C   0  0  0  0  0  0  0  0  0  0  0  0
  -26.4615  -22.4596   19.5683 C   0  0  0  0  0  0  0  0  0  0  0  0
  -31.5599   -8.3136   19.0630 C   0  0  0  0  0  0  0  0  0  0  0  0
  -25.1219  -22.3194   17.1952 C   0  0  0  0  0  0  0  0  0  0  0  0
  -27.6724  -13.9532   20.3765 C   0  0  0  0  0  0  0  0  0  0  0  0
  -26.5354  -15.0123   22.3997 C   0  0  0  0  0  0  0  0  0  0  0  0
  -18.3597  -28.1442   21.9237 C   0  0  0  0  0  0  0  0  0  0  0  0
  -25.4455  -27.9324   23.8286 C   0  0  0  0  0  0  0  0  0  0  0  0
  -19.6937  -27.7040   21.8275 C   0  0  0  0  0  0  0  0  0  0  0  0
  -26.2718  -28.7505   23.0449 C   0  0  0  0  0  0  0  0  0  0  0  0
  -25.2229  -21.8296   19.5204 C   0  0  0  0  0  0  0  0  0  0  0  0
  -24.5338  -21.7539   18.3151 C   0  0  0  0  0  0  0  0  0  0  0  0
  -29.7123  -12.5381   19.1042 C   0  0  0  0  0  0  0  0  0  0  0  0
  -27.8211  -26.8979   22.7666 C   0  0  0  0  0  0  0  0  0  0  0  0
  -31.1744  -10.6983   19.0987 C   0  0  0  0  0  0  0  0  0  0  0  0
  -32.1167   -8.3845   20.3400 C   0  0  0  0  0  0  0  0  0  0  0  0
  -31.0888   -9.4705   18.4424 C   0  0  0  0  0  0  0  0  0  0  0  0
  -26.6189  -14.6848   21.0331 C   0  0  0  0  0  0  0  0  0  0  0  0
  -26.9634  -22.9933   18.3923 C   0  0  0  0  0  0  0  0  0  0  0  0
  -25.3550  -15.7050   22.5152 C   0  0  0  0  0  0  0  0  0  0  0  0
  -27.4437  -14.7170   23.4690 C   0  0  0  0  0  0  0  0  0  0  0  0
  -22.9744  -29.3114   22.3808 C   0  0  0  0  0  0  0  0  0  0  0  0
  -24.3607  -32.0370   23.4632 C   0  0  0  0  0  0  0  0  0  0  0  0
  -27.1926  -33.6306   24.5059 C   0  0  0  0  0  0  0  0  0  0  0  0
  -22.1088  -18.9056   18.6334 C   0  0  0  0  0  0  0  0  0  0  0  0
  -17.9506  -29.5337   21.5035 C   0  0  0  0  0  0  0  0  0  0  0  0
  -24.1820  -28.4814   24.4324 C   0  0  0  0  0  0  0  0  0  0  0  0
  -25.9184  -30.1847   22.7506 C   0  0  0  0  0  0  0  0  0  0  0  0
  -19.1209  -30.5085   21.4014 C   0  0  0  0  0  0  0  0  0  0  0  0
  -21.0251  -16.0844   20.5156 C   0  0  0  0  0  0  0  0  0  0  0  0
  -20.2817  -29.8717   20.6438 C   0  0  0  0  0  0  0  0  0  0  0  0
  -22.3283  -15.4353   20.9850 C   0  0  0  0  0  0  0  0  0  0  0  0
  -21.1593  -16.6680   19.1108 C   0  0  0  0  0  0  0  0  0  0  0  0
  -23.5897  -16.9534   19.4029 C   0  0  0  0  0  0  0  0  0  0  0  0
  -20.8028  -28.6292   21.3759 C   0  0  1  0  0  0  0  0  0  0  0  0
  -23.6342  -29.6884   23.6770 C   0  0  1  0  0  0  0  0  0  0  0  0
  -23.5203  -16.3998   20.8364 C   0  0  2  0  0  0  0  0  0  0  0  0
  -23.4186  -23.3640   21.5041 C   0  0  0  0  0  0  0  0  0  0  0  0
  -25.5382  -20.0992   21.3084 C   0  0  0  0  0  0  0  0  0  0  0  0
  -28.0198  -35.8665   25.2894 C   0  0  0  0  0  0  0  0  0  0  0  0
  -24.2781  -33.0703   20.5935 C   0  0  0  0  0  0  0  0  0  0  0  0
  -25.9294  -34.8324   21.2542 C   0  0  0  0  0  0  0  0  0  0  0  0
  -23.6800  -34.7670   22.3308 C   0  0  0  0  0  0  0  0  0  0  0  0
  -28.0276  -32.5338   27.1249 C   0  0  0  0  0  0  0  0  0  0  0  0
  -27.5969  -26.0520   18.1114 C   0  0  0  0  0  0  0  0  0  0  0  0
  -23.2043  -21.0915   18.2077 C   0  0  0  0  0  0  0  0  0  0  0  0
  -28.2970  -23.6806   18.4064 C   0  0  0  0  0  0  0  0  0  0  0  0
  -24.4130  -22.2797   21.9016 C   0  0  0  0  0  0  0  0  0  0  0  0
  -29.9579  -24.7601   20.7942 C   0  0  0  0  0  0  0  0  0  0  0  0
  -29.5731  -25.5036   19.5240 C   0  0  0  0  0  0  0  0  0  0  0  0
  -29.0037  -24.9997   21.9578 C   0  0  0  0  0  0  0  0  0  1  0  0
  -24.6544  -21.2438   20.7703 C   0  0  1  0  0  0  0  0  0  0  0  0
  -25.3894  -33.0007   22.9229 C   0  0  1  0  0  0  0  0  0  0  0  0
  -27.4661  -34.5140   25.7098 C   0  0  2  0  0  0  0  0  0  0  0  0
  -24.8252  -33.8900   21.7791 C   0  0  0  0  0  0  0  0  0  0  0  0
  -26.3233  -22.9394   17.2028 N   0  0  0  0  0  0  0  0  0  0  0  0
  -25.5747  -15.1323   20.3308 N   0  0  0  0  0  0  0  0  0  0  0  0
  -24.8237  -15.7482   21.2598 N   0  0  0  0  0  0  0  0  0  0  0  0
  -24.6697  -30.6734   23.3584 N   0  0  0  0  0  0  0  0  0  0  0  0
  -22.3072  -17.5752   19.0377 N   0  0  0  0  0  0  0  0  0  0  0  0
  -24.7300  -16.2751   23.5672 N   0  0  0  0  0  0  0  0  0  0  0  0
  -28.6094  -13.9964   23.1757 N   0  0  0  0  0  0  0  0  0  0  0  0
  -21.6301  -29.0143   22.4992 N   0  0  0  0  0  0  0  0  0  0  0  0
  -25.8897  -33.7496   24.0706 N   0  0  0  0  0  0  0  0  0  0  0  0
  -23.2485  -19.6997   18.5975 N   0  0  0  0  0  0  0  0  0  0  0  0
  -28.4538  -33.8630   26.6163 N   0  3  0  0  0  0  0  0  0  0  0  0
  -28.2489  -25.0522   19.0359 N   0  3  1  0  0  0  0  0  0  0  0  0
  -27.2199  -15.0672   24.6526 O   0  0  0  0  0  0  0  0  0  0  0  0
  -23.6357  -29.2928   21.3493 O   0  0  0  0  0  0  0  0  0  0  0  0
  -23.3243  -32.4780   23.9664 O   0  0  0  0  0  0  0  0  0  0  0  0
  -28.0501  -32.9101   23.9999 O   0  0  0  0  0  0  0  0  0  0  0  0
  -20.9975  -19.3541   18.3321 O   0  0  0  0  0  0  0  0  0  0  0  0
  -30.7078  -11.8479   18.4835 O   0  0  0  0  0  0  0  0  0  0  0  0
  -28.9740  -26.3971   22.2452 O   0  0  0  0  0  0  0  0  0  1  0  0
  -32.5706   -7.2739   20.9355 F   0  0  0  0  0  0  0  0  0  0  0  0
  -30.5559   -9.3963   17.2150 F   0  0  0  0  0  0  0  0  0  0  0  0
  1  2  1  0  0  0  0
  1  5  2  0  0  0  0
  2  6  2  0  0  0  0
  3  8  2  0  0  0  0
  3 17  1  0  0  0  0
  4  9  1  0  0  0  0
  4 17  2  0  0  0  0
  5 19  1  0  0  0  0
  6 21  1  0  0  0  0
  7 10  2  0  0  0  0
  7 20  1  0  0  0  0
  8 25  1  0  0  0  0
  9 25  2  0  0  0  0
 10 26  1  0  0  0  0
 11 12  2  0  0  0  0
 11 27  1  0  0  0  0
 12 28  1  0  0  0  0
 13 22  1  0  0  0  0
 13 26  2  0  0  0  0
 14 23  1  0  0  0  0
 14 31  2  0  0  0  0
 15 28  2  0  0  0  0
 15 29  1  0  0  0  0
 16 24  1  0  0  0  0
 16 68  2  0  0  0  0
 17 30  1  0  0  0  0
 18 30  1  0  0  0  0
 18 32  2  0  0  0  0
 18 33  1  0  0  0  0
 19 21  2  0  0  0  0
 19 38  1  0  0  0  0
 20 22  2  0  0  0  0
 20 39  1  0  0  0  0
 21 47  1  0  0  0  0
 22 40  1  0  0  0  0
 23 24  2  0  0  0  0
 23 64  1  0  0  0  0
 24 58  1  0  0  0  0
 25 85  1  0  0  0  0
 26 86  1  0  0  0  0
 27 29  2  0  0  0  0
 27 85  1  0  0  0  0
 28 87  1  0  0  0  0
 29 88  1  0  0  0  0
 30 69  2  0  0  0  0
 31 59  1  0  0  0  0
 31 68  1  0  0  0  0
 32 70  1  0  0  0  0
 32 73  1  0  0  0  0
 33 74  1  0  0  0  0
 33 80  2  0  0  0  0
 34 48  1  0  0  0  0
 34 75  1  0  0  0  0
 34 81  2  0  0  0  0
 35 65  1  0  0  0  0
 35 71  1  0  0  0  0
 35 82  2  0  0  0  0
 36 66  1  0  0  0  0
 36 76  1  0  0  0  0
 36 83  2  0  0  0  0
 37 72  1  0  0  0  0
 37 77  1  0  0  0  0
 37 84  2  0  0  0  0
 38 41  1  0  0  0  0
 39 48  1  0  0  0  0
 40 71  1  0  0  0  0
 41 43  1  0  0  0  0
 42 44  1  0  0  0  0
 42 45  1  0  0  0  0
 43 47  1  0  0  0  0
 44 49  1  0  0  0  0
 45 72  1  0  0  0  0
 46 49  1  0  0  0  0
 46 72  1  0  0  0  0
 47 75  1  0  0  0  0
 48 71  1  0  0  0  0
 49 70  1  0  0  0  0
 50 60  1  0  0  0  0
 51 64  1  0  0  0  0
 52 66  1  0  0  0  0
 53 67  1  0  0  0  0
 54 67  1  0  0  0  0
 55 67  1  0  0  0  0
 56 78  1  0  0  0  0
 57 79  1  0  0  0  0
 58 77  1  0  0  0  0
 59 79  1  0  0  0  0
 60 64  1  0  0  0  0
 61 62  1  0  0  0  0
 61 63  1  0  0  0  0
 62 79  1  0  0  0  0
 63 86  1  0  0  0  0
 65 67  1  0  0  0  0
 65 76  1  0  0  0  0
 66 78  1  0  0  0  0
 69 70  1  0  0  0  0
M  CHG  2  78   1  79   1
M  ISO  4  37 100  63 101  77 100  86 101
M  END
> <Batch ID>
0099

> <Smiles>
CCC(C)c1cc(CN(C)CC[101CH2:1][101O:1]c2ccc3c(c2)CN(C(=O)C(NC(=O)C(C)NC)C(C)(C)C)C(C(=O)NC2CCCc4ccccc42)C3)ncc1C[100NH:0][100C:0](=O)N1CCCC(n2nc(-c3ccc(Oc4ccc(F)cc4F)cc3)c(C(N)=O)c2N)C1

> <Shape>
0.207

> <Color>
0.083

> <Negative vol penalty>
0.000

$$$$

  -OEChem-04052319313D

 87 95  0     1  0  0  0  0  0999 V2000
  -28.3756  -28.4204   10.6350 C   0  0  0  0  0  0  0  0  0  0  0  0
  -28.4861  -27.5693   11.7299 C   0  0  0  0  0  0  0  0  0  0  0  0
  -23.0887   -9.9018   19.9792 C   0  0  0  0  0  0  0  0  0  0  0  0
  -23.8161   -9.9888   22.2815 C   0  0  0  0  0  0  0  0  0  0  0  0
  -27.1609  -29.0474   10.3608 C   0  0  0  0  0  0  0  0  0  0  0  0
  -27.3822  -27.3455   12.5519 C   0  0  0  0  0  0  0  0  0  0  0  0
  -26.7749  -22.4508   13.6998 C   0  0  0  0  0  0  0  0  0  0  0  0
  -22.3509   -8.7509   20.2558 C   0  0  0  0  0  0  0  0  0  0  0  0
  -23.0783   -8.8378   22.5581 C   0  0  0  0  0  0  0  0  0  0  0  0
  -27.6067  -21.9198   14.6846 C   0  0  0  0  0  0  0  0  0  0  0  0
  -23.4044   -5.5024   22.1118 C   0  0  0  0  0  0  0  0  0  0  0  0
  -24.0181   -4.5059   22.8707 C   0  0  0  0  0  0  0  0  0  0  0  0
  -25.8262  -22.1378   16.2975 C   0  0  0  0  0  0  0  0  0  0  0  0
  -30.2157  -18.9670   18.2126 C   0  0  0  0  0  0  0  0  0  0  0  0
  -22.2915   -4.7193   24.5471 C   0  0  0  0  0  0  0  0  0  0  0  0
  -29.0224  -18.9121   20.6659 C   0  0  0  0  0  0  0  0  0  0  0  0
  -23.8214  -10.5208   20.9920 C   0  0  0  0  0  0  0  0  0  0  0  0
  -24.1441  -13.0437   20.7957 C   0  0  0  0  0  0  0  0  0  0  0  0
  -26.0388  -28.8237   11.1742 C   0  0  0  0  0  0  0  0  0  0  0  0
  -25.4638  -22.8401   14.0094 C   0  0  0  0  0  0  0  0  0  0  0  0
  -26.1516  -27.9712   12.2891 C   0  0  0  0  0  0  0  0  0  0  0  0
  -24.9789  -22.6710   15.3142 C   0  0  0  0  0  0  0  0  0  0  0  0
  -29.9959  -17.7443   18.8370 C   0  0  0  0  0  0  0  0  0  0  0  0
  -29.3884  -17.7076   20.0871 C   0  0  0  0  0  0  0  0  0  0  0  0
  -22.3457   -8.2189   21.5452 C   0  0  0  0  0  0  0  0  0  0  0  0
  -27.1333  -21.7659   15.9844 C   0  0  0  0  0  0  0  0  0  0  0  0
  -22.2342   -6.1074   22.5705 C   0  0  0  0  0  0  0  0  0  0  0  0
  -23.4617   -4.1144   24.0884 C   0  0  0  0  0  0  0  0  0  0  0  0
  -21.6777   -5.7158   23.7882 C   0  0  0  0  0  0  0  0  0  0  0  0
  -24.5842  -11.7094   20.7068 C   0  0  0  0  0  0  0  0  0  0  0  0
  -29.8124  -20.1152   18.8752 C   0  0  0  0  0  0  0  0  0  0  0  0
  -25.2350  -13.7906   20.4237 C   0  0  0  0  0  0  0  0  0  0  0  0
  -22.8636  -13.5616   21.1803 C   0  0  0  0  0  0  0  0  0  0  0  0
  -23.8632  -25.5854   13.9395 C   0  0  0  0  0  0  0  0  0  0  0  0
  -21.3439  -23.6864   14.6940 C   0  0  0  0  0  0  0  0  0  0  0  0
  -20.2232  -20.7695   16.0660 C   0  0  0  0  0  0  0  0  0  0  0  0
  -30.8257  -14.5714   21.0958 C   0  0  0  0  0  0  0  0  0  0  0  0
  -24.7598  -29.5608   10.8654 C   0  0  0  0  0  0  0  0  0  0  0  0
  -24.5704  -23.3863   12.9296 C   0  0  0  0  0  0  0  0  0  0  0  0
  -23.5727  -23.0546   15.6935 C   0  0  0  0  0  0  0  0  0  0  0  0
  -23.5361  -28.9780   11.5678 C   0  0  0  0  0  0  0  0  0  0  0  0
  -29.6224  -12.4262   18.3296 C   0  0  0  0  0  0  0  0  0  0  0  0
  -23.8414  -28.7110   13.0383 C   0  0  0  0  0  0  0  0  0  0  0  0
  -28.1904  -12.1061   18.7551 C   0  0  0  0  0  0  0  0  0  0  0  0
  -30.5262  -12.6865   19.5308 C   0  0  0  0  0  0  0  0  0  0  0  0
  -28.5854  -13.4200   20.8760 C   0  0  0  0  0  0  0  0  0  0  0  0
  -24.9700  -27.6839   13.1898 C   0  0  1  0  0  0  0  0  0  0  0  0
  -23.4200  -24.2271   13.4745 C   0  0  1  0  0  0  0  0  0  0  0  0
  -27.6380  -13.1982   19.6875 C   0  0  2  0  0  0  0  0  0  0  0  0
  -30.4184  -16.4885   18.1492 C   0  0  0  0  0  0  0  0  0  0  0  0
  -29.1204  -25.1454   19.4715 C   0  0  0  0  0  0  0  0  0  0  0  0
  -32.4459  -21.6847   19.2134 C   0  0  0  0  0  0  0  0  0  0  0  0
  -18.1096  -19.5155   16.5734 C   0  0  0  0  0  0  0  0  0  0  0  0
  -20.8121  -25.5432   17.0560 C   0  0  0  0  0  0  0  0  0  0  0  0
  -19.3472  -23.7645   18.0349 C   0  0  0  0  0  0  0  0  0  0  0  0
  -18.7615  -24.7909   15.8381 C   0  0  0  0  0  0  0  0  0  0  0  0
  -31.2116  -16.8038   22.0691 C   0  0  0  0  0  0  0  0  0  0  0  0
  -21.0149  -18.5033   14.3349 C   0  0  0  0  0  0  0  0  0  0  0  0
  -29.1299  -16.4260   20.8004 C   0  0  0  0  0  0  0  0  0  0  0  0
  -29.6710  -24.0958   18.5148 C   0  0  0  0  0  0  0  0  0  0  0  0
  -31.5730  -21.7129   17.9619 C   0  0  0  0  0  0  0  0  0  0  0  0
  -29.4547  -22.6785   19.0653 C   0  0  0  0  0  0  0  0  0  0  0  0
  -29.3443  -21.4848   16.8141 C   0  0  0  0  0  0  0  0  0  1  0  0
  -20.7201  -23.1985   15.9792 C   0  0  1  0  0  0  0  0  0  0  0  0
  -19.2271  -19.7387   15.5664 C   0  0  2  0  0  0  0  0  0  0  0  0
  -30.0419  -21.5003   18.2087 C   0  0  2  0  0  0  0  0  0  0  0  0
  -19.9374  -24.3187   16.7207 C   0  0  0  0  0  0  0  0  0  0  0  0
  -29.2194  -20.1193   20.0901 N   0  0  0  0  0  0  0  0  0  0  0  0
  -25.8556  -11.6112   20.3093 N   0  0  0  0  0  0  0  0  0  0  0  0
  -26.2237  -12.8933   20.1451 N   0  0  0  0  0  0  0  0  0  0  0  0
  -22.7398  -23.5901   14.6040 N   0  0  0  0  0  0  0  0  0  0  0  0
  -29.9566  -13.6973   20.4225 N   0  0  0  0  0  0  0  0  0  0  0  0
  -25.4355  -15.1208   20.3108 N   0  0  0  0  0  0  0  0  0  0  0  0
  -21.8546  -12.6549   21.5326 N   0  0  0  0  0  0  0  0  0  0  0  0
  -24.4699  -26.3458   12.9580 N   0  0  0  0  0  0  0  0  0  0  0  0
  -19.9102  -22.0378   15.6250 N   0  0  0  0  0  0  0  0  0  0  0  0
  -30.3437  -15.8575   21.3826 N   0  0  0  0  0  0  0  0  0  0  0  0
  -19.9081  -18.4355   15.3236 N   0  3  0  0  0  0  0  0  0  0  0  0
  -22.6165  -14.7913   21.1948 O   0  0  0  0  0  0  0  0  0  0  0  0
  -23.6678  -25.9195   15.1022 O   0  0  0  0  0  0  0  0  0  0  0  0
  -20.6188  -24.1298   13.8000 O   0  0  0  0  0  0  0  0  0  0  0  0
  -21.1809  -20.4792   16.7796 O   0  0  0  0  0  0  0  0  0  0  0  0
  -31.9708  -14.2253   21.4135 O   0  0  0  0  0  0  0  0  0  0  0  0
  -21.6256   -7.0959   21.8155 O   0  0  0  0  0  0  0  0  0  0  0  0
  -27.9434  -21.2485   16.9477 O   0  0  0  0  0  0  0  0  0  1  0  0
  -24.0503   -3.1564   24.8164 F   0  0  0  0  0  0  0  0  0  0  0  0
  -20.5531   -6.2925   24.2335 F   0  0  0  0  0  0  0  0  0  0  0  0
  1  2  1  0  0  0  0
  1  5  2  0  0  0  0
  2  6  2  0  0  0  0
  3  8  2  0  0  0  0
  3 17  1  0  0  0  0
  4  9  1  0  0  0  0
  4 17  2  0  0  0  0
  5 19  1  0  0  0  0
  6 21  1  0  0  0  0
  7 10  2  0  0  0  0
  7 20  1  0  0  0  0
  8 25  1  0  0  0  0
  9 25  2  0  0  0  0
 10 26  1  0  0  0  0
 11 12  2  0  0  0  0
 11 27  1  0  0  0  0
 12 28  1  0  0  0  0
 13 22  1  0  0  0  0
 13 26  2  0  0  0  0
 14 23  2  0  0  0  0
 14 31  1  0  0  0  0
 15 28  2  0  0  0  0
 15 29  1  0  0  0  0
 16 24  2  0  0  0  0
 16 68  1  0  0  0  0
 17 30  1  0  0  0  0
 18 30  1  0  0  0  0
 18 32  2  0  0  0  0
 18 33  1  0  0  0  0
 19 21  2  0  0  0  0
 19 38  1  0  0  0  0
 20 22  2  0  0  0  0
 20 39  1  0  0  0  0
 21 47  1  0  0  0  0
 22 40  1  0  0  0  0
 23 24  1  0  0  0  0
 23 50  1  0  0  0  0
 24 59  1  0  0  0  0
 25 84  1  0  0  0  0
 26 85  1  0  0  0  0
 27 29  2  0  0  0  0
 27 84  1  0  0  0  0
 28 86  1  0  0  0  0
 29 87  1  0  0  0  0
 30 69  2  0  0  0  0
 31 66  1  0  0  0  0
 31 68  2  0  0  0  0
 32 70  1  0  0  0  0
 32 73  1  0  0  0  0
 33 74  1  0  0  0  0
 33 79  2  0  0  0  0
 34 48  1  0  0  0  0
 34 75  1  0  0  0  0
 34 80  2  0  0  0  0
 35 64  1  0  0  0  0
 35 71  1  0  0  0  0
 35 81  2  0  0  0  0
 36 65  1  0  0  0  0
 36 76  1  0  0  0  0
 36 82  2  0  0  0  0
 37 72  1  0  0  0  0
 37 77  1  0  0  0  0
 37 83  2  0  0  0  0
 38 41  1  0  0  0  0
 39 48  1  0  0  0  0
 40 71  1  0  0  0  0
 41 43  1  0  0  0  0
 42 44  1  0  0  0  0
 42 45  1  0  0  0  0
 43 47  1  0  0  0  0
 44 49  1  0  0  0  0
 45 72  1  0  0  0  0
 46 49  1  0  0  0  0
 46 72  1  0  0  0  0
 47 75  1  0  0  0  0
 48 71  1  0  0  0  0
 49 70  1  0  0  0  0
 51 60  1  0  0  0  0
 52 61  1  0  0  0  0
 53 65  1  0  0  0  0
 54 67  1  0  0  0  0
 55 67  1  0  0  0  0
 56 67  1  0  0  0  0
 57 77  1  0  0  0  0
 58 78  1  0  0  0  0
 59 77  1  0  0  0  0
 60 62  1  0  0  0  0
 61 66  1  0  0  0  0
 62 66  1  0  0  0  0
 63 66  1  0  0  0  0
 63 85  1  0  0  0  0
 64 67  1  0  0  0  0
 64 76  1  0  0  0  0
 65 78  1  0  0  0  0
 69 70  1  0  0  0  0
M  CHG  1  78   1
M  ISO  4  37 100  63 101  77 100  85 101
M  END
> <Batch ID>
0099

> <Smiles>
CCCC(CC)(c1cc(C)c(C[100N:0](C)[100C:0](=O)N2CCCC(n3nc(-c4ccc(Oc5ccc(F)cc5F)cc4)c(C(N)=O)c3N)C2)cn1)[101CH2:1][101O:1]c1ccc2c(c1)CN(C(=O)C(NC(=O)C(C)NC)C(C)(C)C)C(C(=O)NC1CCCc3ccccc31)C2

> <Shape>
0.224

> <Color>
0.194

> <Negative vol penalty>
0.000

$$$$

  -OEChem-04052319313D

 84 91  0     1  0  0  0  0  0999 V2000
  -16.8423  -28.7284   24.1139 C   0  0  0  0  0  0  0  0  0  0  0  0
  -17.4946  -27.8693   23.2353 C   0  0  0  0  0  0  0  0  0  0  0  0
  -26.6386  -11.0634   21.1585 C   0  0  0  0  0  0  0  0  0  0  0  0
  -25.5082  -12.6198   19.6967 C   0  0  0  0  0  0  0  0  0  0  0  0
  -17.2886  -30.0407   24.2640 C   0  0  0  0  0  0  0  0  0  0  0  0
  -18.5929  -28.3225   22.5054 C   0  0  0  0  0  0  0  0  0  0  0  0
  -22.4199  -25.0060   22.4937 C   0  0  0  0  0  0  0  0  0  0  0  0
  -25.4586  -10.3319   21.2922 C   0  0  0  0  0  0  0  0  0  0  0  0
  -24.3281  -11.8882   19.8304 C   0  0  0  0  0  0  0  0  0  0  0  0
  -22.3113  -23.9115   21.6370 C   0  0  0  0  0  0  0  0  0  0  0  0
  -23.7146   -8.0658   19.4877 C   0  0  0  0  0  0  0  0  0  0  0  0
  -23.7977   -6.6772   19.3858 C   0  0  0  0  0  0  0  0  0  0  0  0
  -23.7528  -25.0179   20.0505 C   0  0  0  0  0  0  0  0  0  0  0  0
  -22.9201   -6.4603   21.6263 C   0  0  0  0  0  0  0  0  0  0  0  0
  -26.6635  -12.2075   20.3608 C   0  0  0  0  0  0  0  0  0  0  0  0
  -28.8882  -12.7856   19.2545 C   0  0  0  0  0  0  0  0  0  0  0  0
  -18.3989  -30.5073   23.5428 C   0  0  0  0  0  0  0  0  0  0  0  0
  -23.1883  -26.1212   22.1299 C   0  0  0  0  0  0  0  0  0  0  0  0
  -19.0536  -29.6427   22.6450 C   0  0  0  0  0  0  0  0  0  0  0  0
  -23.8716  -26.1243   20.9055 C   0  0  0  0  0  0  0  0  0  0  0  0
  -24.3033  -10.7442   20.6282 C   0  0  0  0  0  0  0  0  0  0  0  0
  -22.9755  -23.9185   20.4139 C   0  0  0  0  0  0  0  0  0  0  0  0
  -23.2344   -8.6517   20.6589 C   0  0  0  0  0  0  0  0  0  0  0  0
  -23.4005   -5.8744   20.4551 C   0  0  0  0  0  0  0  0  0  0  0  0
  -22.8371   -7.8490   21.7282 C   0  0  0  0  0  0  0  0  0  0  0  0
  -27.8820  -12.9639   20.2228 C   0  0  0  0  0  0  0  0  0  0  0  0
  -29.8244  -13.7457   19.5513 C   0  0  0  0  0  0  0  0  0  0  0  0
  -28.9692  -11.8369   18.1825 C   0  0  0  0  0  0  0  0  0  0  0  0
  -22.5738  -29.1970   21.6143 C   0  0  0  0  0  0  0  0  0  0  0  0
  -29.4051  -19.0055   22.4271 C   0  0  0  0  0  0  0  0  0  0  0  0
  -25.8008  -29.3965   21.3520 C   0  0  0  0  0  0  0  0  0  0  0  0
  -28.7564  -27.8243   20.6890 C   0  0  0  0  0  0  0  0  0  0  0  0
  -18.8154  -31.9480   23.7032 C   0  0  0  0  0  0  0  0  0  0  0  0
  -23.3169  -27.2827   23.0769 C   0  0  0  0  0  0  0  0  0  0  0  0
  -24.7256  -27.2885   20.4768 C   0  0  0  0  0  0  0  0  0  0  0  0
  -20.2166  -32.2396   23.1725 C   0  0  0  0  0  0  0  0  0  0  0  0
  -31.5827  -16.2687   23.2066 C   0  0  0  0  0  0  0  0  0  0  0  0
  -20.4058  -31.6156   21.7935 C   0  0  0  0  0  0  0  0  0  0  0  0
  -30.9559  -15.0887   22.4649 C   0  0  0  0  0  0  0  0  0  0  0  0
  -30.5183  -17.2258   23.7339 C   0  0  0  0  0  0  0  0  0  0  0  0
  -28.9517  -16.5498   21.9421 C   0  0  0  0  0  0  0  0  0  0  0  0
  -20.2638  -30.0899   21.8541 C   0  0  1  0  0  0  0  0  0  0  0  0
  -23.7107  -28.5813   22.3798 C   0  0  1  0  0  0  0  0  0  0  0  0
  -29.9937  -15.5745   21.3665 C   0  0  2  0  0  0  0  0  0  0  0  0
  -24.9770  -20.8118   14.1084 C   0  0  0  0  0  0  0  0  0  0  0  0
  -29.2579  -19.3355   20.0023 C   0  0  0  0  0  0  0  0  0  0  0  0
  -31.2222  -28.2569   20.5155 C   0  0  0  0  0  0  0  0  0  0  0  0
  -26.5627  -22.6911   20.2989 C   0  0  0  0  0  0  0  0  0  0  0  0
  -26.9755  -20.7815   22.8684 C   0  0  0  0  0  0  0  0  0  0  0  0
  -25.3726  -30.7376   18.6449 C   0  0  0  0  0  0  0  0  0  0  0  0
  -27.7771  -30.2817   18.1170 C   0  0  0  0  0  0  0  0  0  0  0  0
  -27.1818  -31.7561   20.0391 C   0  0  0  0  0  0  0  0  0  0  0  0
  -29.3623  -25.9152   22.8679 C   0  0  0  0  0  0  0  0  0  0  0  0
  -25.3728  -20.0633   15.3711 C   0  0  0  0  0  0  0  0  0  0  0  0
  -24.8739  -20.7783   16.6262 C   0  0  0  0  0  0  0  0  0  0  0  0
  -25.2444  -20.0016   17.8809 C   0  0  0  0  0  0  0  0  0  0  0  0
  -23.2366  -20.4950   19.2687 C   0  0  0  0  0  0  0  0  0  0  0  0
  -25.4879  -20.3944   20.3280 C   0  0  0  0  0  0  0  0  0  0  0  0
  -22.6729  -21.5718   20.1747 C   0  0  0  0  0  0  0  0  0  1  0  0
  -28.4598  -19.3609   21.3072 C   0  0  2  0  0  0  0  0  0  0  0  0
  -26.7917  -29.2647   20.2206 C   0  0  1  0  0  0  0  0  0  0  0  0
  -30.0838  -27.8226   21.4255 C   0  0  2  0  0  0  0  0  0  0  0  0
  -26.8110  -21.1786   20.3459 C   0  0  2  0  0  0  0  0  0  0  0  0
  -27.7236  -20.7088   21.5271 C   0  0  1  0  0  0  0  0  0  0  0  0
  -26.7632  -30.4887   19.2623 C   0  0  0  0  0  0  0  0  0  0  0  0
  -28.1536  -13.9589   21.0714 N   0  0  0  0  0  0  0  0  0  0  0  0
  -29.3411  -14.4145   20.6373 N   0  0  0  0  0  0  0  0  0  0  0  0
  -24.8149  -28.4031   21.4346 N   0  0  0  0  0  0  0  0  0  0  0  0
  -29.6108  -17.6464   22.6648 N   0  0  0  0  0  0  0  0  0  0  0  0
  -31.0057  -14.0746   18.9868 N   0  0  0  0  0  0  0  0  0  0  0  0
  -27.9206  -10.9214   18.0198 N   0  0  0  0  0  0  0  0  0  0  0  0
  -21.4680  -29.4912   22.3889 N   0  0  0  0  0  0  0  0  0  0  0  0
  -28.0895  -29.0215   20.8410 N   0  0  0  0  0  0  0  0  0  0  0  0
  -30.3885  -26.4578   21.9408 N   0  3  0  0  0  0  0  0  0  0  0  0
  -24.6929  -20.7198   19.0877 N   0  3  1  0  0  0  0  0  0  0  0  0
  -29.9505  -11.7916   17.4023 O   0  0  0  0  0  0  0  0  0  0  0  0
  -22.6917  -29.3921   20.4102 O   0  0  0  0  0  0  0  0  0  0  0  0
  -29.9457  -19.9103   23.0685 O   0  0  0  0  0  0  0  0  0  0  0  0
  -25.9024  -30.3419   22.1377 O   0  0  0  0  0  0  0  0  0  0  0  0
  -28.3533  -26.8613   20.0404 O   0  0  0  0  0  0  0  0  0  0  0  0
  -23.1517  -10.0305   20.7582 O   0  0  0  0  0  0  0  0  0  0  0  0
  -22.8706  -22.8518   19.5755 O   0  0  0  0  0  0  0  0  0  1  0  0
  -23.4788   -4.5409   20.3566 F   0  0  0  0  0  0  0  0  0  0  0  0
  -22.3738   -8.4061   22.8555 F   0  0  0  0  0  0  0  0  0  0  0  0
  1  2  1  0  0  0  0
  1  5  2  0  0  0  0
  2  6  2  0  0  0  0
  3  8  2  0  0  0  0
  3 15  1  0  0  0  0
  4  9  1  0  0  0  0
  4 15  2  0  0  0  0
  5 17  1  0  0  0  0
  6 19  1  0  0  0  0
  7 10  2  0  0  0  0
  7 18  1  0  0  0  0
  8 21  1  0  0  0  0
  9 21  2  0  0  0  0
 10 22  1  0  0  0  0
 11 12  2  0  0  0  0
 11 23  1  0  0  0  0
 12 24  1  0  0  0  0
 13 20  1  0  0  0  0
 13 22  2  0  0  0  0
 14 24  2  0  0  0  0
 14 25  1  0  0  0  0
 15 26  1  0  0  0  0
 16 26  1  0  0  0  0
 16 27  2  0  0  0  0
 16 28  1  0  0  0  0
 17 19  2  0  0  0  0
 17 33  1  0  0  0  0
 18 20  2  0  0  0  0
 18 34  1  0  0  0  0
 19 42  1  0  0  0  0
 20 35  1  0  0  0  0
 21 81  1  0  0  0  0
 22 82  1  0  0  0  0
 23 25  2  0  0  0  0
 23 81  1  0  0  0  0
 24 83  1  0  0  0  0
 25 84  1  0  0  0  0
 26 66  2  0  0  0  0
 27 67  1  0  0  0  0
 27 70  1  0  0  0  0
 28 71  1  0  0  0  0
 28 76  2  0  0  0  0
 29 43  1  0  0  0  0
 29 72  1  0  0  0  0
 29 77  2  0  0  0  0
 30 60  1  0  0  0  0
 30 69  1  0  0  0  0
 30 78  2  0  0  0  0
 31 61  1  0  0  0  0
 31 68  1  0  0  0  0
 31 79  2  0  0  0  0
 32 62  1  0  0  0  0
 32 73  1  0  0  0  0
 32 80  2  0  0  0  0
 33 36  1  0  0  0  0
 34 43  1  0  0  0  0
 35 68  1  0  0  0  0
 36 38  1  0  0  0  0
 37 39  1  0  0  0  0
 37 40  1  0  0  0  0
 38 42  1  0  0  0  0
 39 44  1  0  0  0  0
 40 69  1  0  0  0  0
 41 44  1  0  0  0  0
 41 69  1  0  0  0  0
 42 72  1  0  0  0  0
 43 68  1  0  0  0  0
 44 67  1  0  0  0  0
 45 54  1  0  0  0  0
 46 60  1  0  0  0  0
 47 62  1  0  0  0  0
 48 63  1  0  0  0  0
 49 64  1  0  0  0  0
 50 65  1  0  0  0  0
 51 65  1  0  0  0  0
 52 65  1  0  0  0  0
 53 74  1  0  0  0  0
 54 55  1  0  0  0  0
 55 56  1  0  0  0  0
 56 75  1  0  0  0  0
 57 59  1  0  0  0  0
 57 75  1  0  0  0  0
 58 63  1  0  0  0  0
 58 75  1  0  0  0  0
 59 82  1  0  0  0  0
 60 64  1  0  0  0  0
 61 65  1  0  0  0  0
 61 73  1  0  0  0  0
 62 74  1  0  0  0  0
 63 64  1  0  0  0  0
 66 67  1  0  0  0  0
M  CHG  2  74   1  75   1
M  ISO  4  30 100  59 101  60 100  82 101
M  END
> <Batch ID>
0099

> <Smiles>
CCCCN(CC(C)C(C)[100CH:0](C)[100C:0](=O)N1CCCC(n2nc(-c3ccc(Oc4ccc(F)cc4F)cc3)c(C(N)=O)c2N)C1)C[101CH2:1][101O:1]c1ccc2c(c1)CN(C(=O)C(NC(=O)C(C)NC)C(C)(C)C)C(C(=O)NC1CCCc3ccccc31)C2

> <Shape>
0.275

> <Color>
0.067

> <Negative vol penalty>
0.000

$$$$

  -OEChem-04052319313D

 86 94  0     1  0  0  0  0  0999 V2000
  -16.5704  -28.3662   23.1672 C   0  0  0  0  0  0  0  0  0  0  0  0
  -17.4532  -28.0278   22.1466 C   0  0  0  0  0  0  0  0  0  0  0  0
  -27.3083  -15.0107   22.4681 C   0  0  0  0  0  0  0  0  0  0  0  0
  -26.9806  -15.7172   20.1811 C   0  0  0  0  0  0  0  0  0  0  0  0
  -16.9650  -29.2617   24.1603 C   0  0  0  0  0  0  0  0  0  0  0  0
  -18.7309  -28.5856   22.1180 C   0  0  0  0  0  0  0  0  0  0  0  0
  -23.8837  -25.8878   20.2007 C   0  0  0  0  0  0  0  0  0  0  0  0
  -26.7153  -13.7829   22.1739 C   0  0  0  0  0  0  0  0  0  0  0  0
  -26.3876  -14.4894   19.8868 C   0  0  0  0  0  0  0  0  0  0  0  0
  -24.5807  -25.9468   18.9947 C   0  0  0  0  0  0  0  0  0  0  0  0
  -23.5903  -12.5594   21.7720 C   0  0  0  0  0  0  0  0  0  0  0  0
  -22.6510  -12.0612   22.6748 C   0  0  0  0  0  0  0  0  0  0  0  0
  -26.0273  -27.6407   19.9205 C   0  0  0  0  0  0  0  0  0  0  0  0
  -24.0202  -10.1003   23.0173 C   0  0  0  0  0  0  0  0  0  0  0  0
  -31.7665  -24.5417   18.1741 C   0  0  0  0  0  0  0  0  0  0  0  0
  -27.4409  -15.9778   21.4717 C   0  0  0  0  0  0  0  0  0  0  0  0
  -29.4184  -17.5758   21.6811 C   0  0  0  0  0  0  0  0  0  0  0  0
  -18.2515  -29.8234   24.1492 C   0  0  0  0  0  0  0  0  0  0  0  0
  -24.2470  -26.7140   21.2739 C   0  0  0  0  0  0  0  0  0  0  0  0
  -19.1426  -29.4906   23.1111 C   0  0  0  0  0  0  0  0  0  0  0  0
  -25.3349  -27.5884   21.1400 C   0  0  0  0  0  0  0  0  0  0  0  0
  -32.6534  -24.7563   19.2060 C   0  0  0  0  0  0  0  0  0  0  0  0
  -31.8931  -25.0793   20.3570 C   0  0  0  0  0  0  0  0  0  0  0  0
  -26.2549  -13.5223   20.8832 C   0  0  0  0  0  0  0  0  0  0  0  0
  -25.6508  -26.8254   18.8535 C   0  0  0  0  0  0  0  0  0  0  0  0
  -24.7445  -11.8280   21.4917 C   0  0  0  0  0  0  0  0  0  0  0  0
  -22.8660  -10.8317   23.2975 C   0  0  0  0  0  0  0  0  0  0  0  0
  -24.9595  -10.5985   22.1144 C   0  0  0  0  0  0  0  0  0  0  0  0
  -28.0529  -17.2465   21.7752 C   0  0  0  0  0  0  0  0  0  0  0  0
  -30.5647  -25.0521   19.9934 C   0  0  0  0  0  0  0  0  0  0  0  0
  -29.4828  -18.8895   22.0768 C   0  0  0  0  0  0  0  0  0  0  0  0
  -30.5292  -16.7666   21.2724 C   0  0  0  0  0  0  0  0  0  0  0  0
  -22.8021  -29.0166   22.9214 C   0  0  0  0  0  0  0  0  0  0  0  0
  -25.4793  -28.8552   24.7459 C   0  0  0  0  0  0  0  0  0  0  0  0
  -28.7794  -28.0178   24.9804 C   0  0  0  0  0  0  0  0  0  0  0  0
  -27.5143  -24.1102   21.9577 C   0  0  0  0  0  0  0  0  0  0  0  0
  -18.6164  -30.8231   25.2178 C   0  0  0  0  0  0  0  0  0  0  0  0
  -23.5020  -26.6192   22.5771 C   0  0  0  0  0  0  0  0  0  0  0  0
  -25.7778  -28.4820   22.2686 C   0  0  0  0  0  0  0  0  0  0  0  0
  -20.1172  -31.0814   25.3234 C   0  0  0  0  0  0  0  0  0  0  0  0
  -26.0038  -21.8466   24.2535 C   0  0  0  0  0  0  0  0  0  0  0  0
  -20.7200  -31.2994   23.9392 C   0  0  0  0  0  0  0  0  0  0  0  0
  -26.5097  -20.4755   23.8018 C   0  0  0  0  0  0  0  0  0  0  0  0
  -25.7484  -22.7730   23.0667 C   0  0  0  0  0  0  0  0  0  0  0  0
  -27.3961  -21.5581   21.6945 C   0  0  0  0  0  0  0  0  0  0  0  0
  -20.5455  -30.0556   23.0594 C   0  0  1  0  0  0  0  0  0  0  0  0
  -23.6338  -27.8748   23.4335 C   0  0  1  0  0  0  0  0  0  0  0  0
  -27.7211  -20.6075   22.8593 C   0  0  2  0  0  0  0  0  0  0  0  0
  -32.4243  -25.3888   21.7005 C   0  0  0  0  0  0  0  0  0  0  0  0
  -34.7350  -25.6914   18.1355 C   0  0  0  0  0  0  0  0  0  0  0  0
  -34.6192  -23.2477   18.7438 C   0  0  0  0  0  0  0  0  0  0  0  0
  -31.0129  -27.6320   26.0574 C   0  0  0  0  0  0  0  0  0  0  0  0
  -27.7322  -24.3581   15.2367 C   0  0  0  0  0  0  0  0  0  0  0  0
  -25.7931  -31.8616   24.3299 C   0  0  0  0  0  0  0  0  0  0  0  0
  -28.1610  -31.6528   25.1159 C   0  0  0  0  0  0  0  0  0  0  0  0
  -26.2830  -31.0730   26.6521 C   0  0  0  0  0  0  0  0  0  0  0  0
  -28.0813  -25.2333   25.7001 C   0  0  0  0  0  0  0  0  0  0  0  0
  -29.3505  -25.3097   20.7963 C   0  0  0  0  0  0  0  0  0  0  0  0
  -28.9683  -25.7618   16.9065 C   0  0  0  0  0  0  0  0  0  0  0  0
  -29.2388  -24.5811   17.8493 C   0  0  0  0  0  0  0  0  0  0  0  0
  -26.3962  -25.6893   16.9017 C   0  0  0  0  0  0  0  0  0  1  0  0
  -34.1243  -24.6643   19.1167 C   0  0  0  0  0  0  0  0  0  0  0  0
  -26.8295  -29.5302   24.7252 C   0  0  1  0  0  0  0  0  0  0  0  0
  -29.5467  -27.2295   26.0264 C   0  0  2  0  0  0  0  0  0  0  0  0
  -27.6800  -25.6503   16.0618 C   0  0  2  0  0  0  0  0  0  0  0  0
  -26.7573  -31.0141   25.1837 C   0  0  0  0  0  0  0  0  0  0  0  0
  -27.3039  -18.2685   22.1978 N   0  0  0  0  0  0  0  0  0  0  0  0
  -30.4998  -24.7239   18.6644 N   0  0  0  0  0  0  0  0  0  0  0  0
  -28.2020  -19.2529   22.3727 N   0  0  0  0  0  0  0  0  0  0  0  0
  -25.0136  -28.3571   23.5208 N   0  0  0  0  0  0  0  0  0  0  0  0
  -26.9362  -22.8558   22.2134 N   0  0  0  0  0  0  0  0  0  0  0  0
  -30.5096  -19.7576   22.1971 N   0  0  0  0  0  0  0  0  0  0  0  0
  -30.2860  -15.4382   20.8976 N   0  0  0  0  0  0  0  0  0  0  0  0
  -21.5135  -29.0418   23.4196 N   0  0  0  0  0  0  0  0  0  0  0  0
  -27.7145  -28.6976   25.5327 N   0  0  0  0  0  0  0  0  0  0  0  0
  -28.6410  -24.0988   21.1446 N   0  0  0  0  0  0  0  0  0  0  0  0
  -29.4661  -25.7698   25.7371 N   0  3  0  0  0  0  0  0  0  0  0  0
  -31.7049  -17.2037   21.2562 O   0  0  0  0  0  0  0  0  0  0  0  0
  -23.2937  -29.8164   22.1337 O   0  0  0  0  0  0  0  0  0  0  0  0
  -24.8638  -28.7666   25.8112 O   0  0  0  0  0  0  0  0  0  0  0  0
  -29.0955  -28.0324   23.7928 O   0  0  0  0  0  0  0  0  0  0  0  0
  -27.0631  -25.1618   22.4241 O   0  0  0  0  0  0  0  0  0  0  0  0
  -25.6764  -12.3243   20.5956 O   0  0  0  0  0  0  0  0  0  0  0  0
  -26.3324  -26.8855   17.6772 O   0  0  0  0  0  0  0  0  0  1  0  0
  -21.9647  -10.3542   24.1657 F   0  0  0  0  0  0  0  0  0  0  0  0
  -26.0670   -9.8919   21.8500 F   0  0  0  0  0  0  0  0  0  0  0  0
  1  2  1  0  0  0  0
  1  5  2  0  0  0  0
  2  6  2  0  0  0  0
  3  8  2  0  0  0  0
  3 16  1  0  0  0  0
  4  9  1  0  0  0  0
  4 16  2  0  0  0  0
  5 18  1  0  0  0  0
  6 20  1  0  0  0  0
  7 10  2  0  0  0  0
  7 19  1  0  0  0  0
  8 24  1  0  0  0  0
  9 24  2  0  0  0  0
 10 25  1  0  0  0  0
 11 12  2  0  0  0  0
 11 26  1  0  0  0  0
 12 27  1  0  0  0  0
 13 21  1  0  0  0  0
 13 25  2  0  0  0  0
 14 27  2  0  0  0  0
 14 28  1  0  0  0  0
 15 22  2  0  0  0  0
 15 68  1  0  0  0  0
 16 29  1  0  0  0  0
 17 29  1  0  0  0  0
 17 31  2  0  0  0  0
 17 32  1  0  0  0  0
 18 20  2  0  0  0  0
 18 37  1  0  0  0  0
 19 21  2  0  0  0  0
 19 38  1  0  0  0  0
 20 46  1  0  0  0  0
 21 39  1  0  0  0  0
 22 23  1  0  0  0  0
 22 62  1  0  0  0  0
 23 30  2  0  0  0  0
 23 49  1  0  0  0  0
 24 83  1  0  0  0  0
 25 84  1  0  0  0  0
 26 28  2  0  0  0  0
 26 83  1  0  0  0  0
 27 85  1  0  0  0  0
 28 86  1  0  0  0  0
 29 67  2  0  0  0  0
 30 58  1  0  0  0  0
 30 68  1  0  0  0  0
 31 69  1  0  0  0  0
 31 72  1  0  0  0  0
 32 73  1  0  0  0  0
 32 78  2  0  0  0  0
 33 47  1  0  0  0  0
 33 74  1  0  0  0  0
 33 79  2  0  0  0  0
 34 63  1  0  0  0  0
 34 70  1  0  0  0  0
 34 80  2  0  0  0  0
 35 64  1  0  0  0  0
 35 75  1  0  0  0  0
 35 81  2  0  0  0  0
 36 71  1  0  0  0  0
 36 76  1  0  0  0  0
 36 82  2  0  0  0  0
 37 40  1  0  0  0  0
 38 47  1  0  0  0  0
 39 70  1  0  0  0  0
 40 42  1  0  0  0  0
 41 43  1  0  0  0  0
 41 44  1  0  0  0  0
 42 46  1  0  0  0  0
 43 48  1  0  0  0  0
 44 71  1  0  0  0  0
 45 48  1  0  0  0  0
 45 71  1  0  0  0  0
 46 74  1  0  0  0  0
 47 70  1  0  0  0  0
 48 69  1  0  0  0  0
 50 62  1  0  0  0  0
 51 62  1  0  0  0  0
 52 64  1  0  0  0  0
 53 65  1  0  0  0  0
 54 66  1  0  0  0  0
 55 66  1  0  0  0  0
 56 66  1  0  0  0  0
 57 77  1  0  0  0  0
 58 76  1  0  0  0  0
 59 60  1  0  0  0  0
 59 65  1  0  0  0  0
 60 68  1  0  0  0  0
 61 65  1  0  0  0  0
 61 84  1  0  0  0  0
 63 66  1  0  0  0  0
 63 75  1  0  0  0  0
 64 77  1  0  0  0  0
 67 69  1  0  0  0  0
M  CHG  1  77   1
M  ISO  4  36 100  61 101  76 100  84 101
M  END
> <Batch ID>
0099

> <Smiles>
CNC(C)C(=O)NC(C(=O)N1Cc2cc([101O:1][101CH2:1]C(C)CCn3cc(C(C)C)c(C)c3C[100NH:0][100C:0](=O)N3CCCC(n4nc(-c5ccc(Oc6ccc(F)cc6F)cc5)c(C(N)=O)c4N)C3)ccc2CC1C(=O)NC1CCCc2ccccc21)C(C)(C)C

> <Shape>
0.242

> <Color>
0.053

> <Negative vol penalty>
0.000

$$$$

  -OEChem-04052319313D

 81 89  0     1  0  0  0  0  0999 V2000
  -18.2269  -31.3661   22.4788 C   0  0  0  0  0  0  0  0  0  0  0  0
  -19.6147  -31.3932   22.3856 C   0  0  0  0  0  0  0  0  0  0  0  0
  -27.3936  -17.5776   19.8521 C   0  0  0  0  0  0  0  0  0  0  0  0
  -29.1793  -17.3432   21.4625 C   0  0  0  0  0  0  0  0  0  0  0  0
  -17.5640  -30.1503   22.6408 C   0  0  0  0  0  0  0  0  0  0  0  0
  -20.3405  -30.2046   22.4555 C   0  0  0  0  0  0  0  0  0  0  0  0
  -25.5111  -28.8667   19.4588 C   0  0  0  0  0  0  0  0  0  0  0  0
  -27.2569  -16.1903   19.8017 C   0  0  0  0  0  0  0  0  0  0  0  0
  -29.0426  -15.9559   21.4122 C   0  0  0  0  0  0  0  0  0  0  0  0
  -26.8518  -28.9017   19.8396 C   0  0  0  0  0  0  0  0  0  0  0  0
  -25.8497  -13.7561   21.6798 C   0  0  0  0  0  0  0  0  0  0  0  0
  -24.5589  -13.2298   21.7266 C   0  0  0  0  0  0  0  0  0  0  0  0
  -26.7592  -26.5482   20.3605 C   0  0  0  0  0  0  0  0  0  0  0  0
  -33.4426  -27.2523   22.2340 C   0  0  0  0  0  0  0  0  0  0  0  0
  -31.1423  -26.8570   22.8577 C   0  0  0  0  0  0  0  0  0  0  0  0
  -31.7601  -26.9633   20.5244 C   0  0  0  0  0  0  0  0  0  0  0  0
  -24.9015  -12.1976   19.5693 C   0  0  0  0  0  0  0  0  0  0  0  0
  -28.3548  -18.1540   20.6825 C   0  0  0  0  0  0  0  0  0  0  0  0
  -27.8327  -20.4761   21.6006 C   0  0  0  0  0  0  0  0  0  0  0  0
  -18.2813  -28.9452   22.7030 C   0  0  0  0  0  0  0  0  0  0  0  0
  -24.7802  -27.6725   19.5365 C   0  0  0  0  0  0  0  0  0  0  0  0
  -19.6866  -28.9717   22.6199 C   0  0  0  0  0  0  0  0  0  0  0  0
  -25.4101  -26.5000   19.9777 C   0  0  0  0  0  0  0  0  0  0  0  0
  -32.4699  -27.0851   23.2196 C   0  0  0  0  0  0  0  0  0  0  0  0
  -33.0877  -27.1915   20.8864 C   0  0  0  0  0  0  0  0  0  0  0  0
  -30.7874  -26.7961   21.5101 C   0  0  0  0  0  0  0  0  0  0  0  0
  -28.0814  -15.3795   20.5818 C   0  0  0  0  0  0  0  0  0  0  0  0
  -27.4753  -27.7431   20.2932 C   0  0  0  0  0  0  0  0  0  0  0  0
  -26.6665  -13.5033   20.5777 C   0  0  0  0  0  0  0  0  0  0  0  0
  -24.0847  -12.4505   20.6714 C   0  0  0  0  0  0  0  0  0  0  0  0
  -26.1924  -12.7240   19.5224 C   0  0  0  0  0  0  0  0  0  0  0  0
  -28.4969  -19.5869   20.7345 C   0  0  0  0  0  0  0  0  0  0  0  0
  -28.3107  -21.7158   21.2524 C   0  0  0  0  0  0  0  0  0  0  0  0
  -26.8700  -20.2056   22.6280 C   0  0  0  0  0  0  0  0  0  0  0  0
  -22.2152  -26.7134   21.1504 C   0  0  0  0  0  0  0  0  0  0  0  0
  -22.5457  -24.0501   19.3284 C   0  0  0  0  0  0  0  0  0  0  0  0
  -24.5918  -22.0418   17.4771 C   0  0  0  0  0  0  0  0  0  0  0  0
  -33.1681  -24.1969   19.6209 C   0  0  0  0  0  0  0  0  0  0  0  0
  -17.5239  -27.6602   22.9262 C   0  0  0  0  0  0  0  0  0  0  0  0
  -23.3420  -27.6453   19.0967 C   0  0  0  0  0  0  0  0  0  0  0  0
  -24.6752  -25.1879   20.0605 C   0  0  0  0  0  0  0  0  0  0  0  0
  -18.3417  -26.4093   22.6150 C   0  0  0  0  0  0  0  0  0  0  0  0
  -30.5041  -23.6058   17.2436 C   0  0  0  0  0  0  0  0  0  0  0  0
  -19.7298  -26.5100   23.2393 C   0  0  0  0  0  0  0  0  0  0  0  0
  -29.6455  -22.5875   17.9960 C   0  0  0  0  0  0  0  0  0  0  0  0
  -31.9903  -23.3687   17.4949 C   0  0  0  0  0  0  0  0  0  0  0  0
  -31.5217  -22.3455   19.6874 C   0  0  0  0  0  0  0  0  0  0  0  0
  -20.5073  -27.7011   22.6665 C   0  0  1  0  0  0  0  0  0  0  0  0
  -22.5533  -26.4890   19.7037 C   0  0  1  0  0  0  0  0  0  0  0  0
  -30.0078  -22.5458   19.4923 C   0  0  2  0  0  0  0  0  0  0  0  0
  -32.8501  -27.1499   24.6604 C   0  0  0  0  0  0  0  0  0  0  0  0
  -24.5842  -19.9163   16.1431 C   0  0  0  0  0  0  0  0  0  0  0  0
  -22.5234  -22.4302   21.9140 C   0  0  0  0  0  0  0  0  0  0  0  0
  -23.4542  -20.4946   20.6275 C   0  0  0  0  0  0  0  0  0  0  0  0
  -21.2136  -21.4196   20.0386 C   0  0  0  0  0  0  0  0  0  0  0  0
  -25.3755  -23.4577   14.9992 C   0  0  0  0  0  0  0  0  0  0  0  0
  -34.1275  -27.3698   19.8320 C   0  0  0  0  0  0  0  0  0  0  0  0
  -29.3591  -26.5507   21.1212 C   0  0  0  0  0  0  0  0  0  1  0  0
  -34.7934  -26.0585   19.3982 C   0  0  0  0  0  0  0  0  0  0  0  0
  -23.2902  -22.7443   19.4688 C   0  0  1  0  0  0  0  0  0  0  0  0
  -24.4224  -21.4278   16.0991 C   0  0  2  0  0  0  0  0  0  0  0  0
  -22.6339  -21.7972   20.5126 C   0  0  0  0  0  0  0  0  0  0  0  0
  -29.3328  -20.2088   19.8989 N   0  0  0  0  0  0  0  0  0  0  0  0
  -29.1972  -21.5021   20.2382 N   0  0  0  0  0  0  0  0  0  0  0  0
  -23.2690  -25.2139   19.6253 N   0  0  0  0  0  0  0  0  0  0  0  0
  -32.2712  -23.3590   18.9375 N   0  0  0  0  0  0  0  0  0  0  0  0
  -28.0548  -22.9569   21.7178 N   0  0  0  0  0  0  0  0  0  0  0  0
  -26.4902  -18.8757   22.8544 N   0  0  0  0  0  0  0  0  0  0  0  0
  -21.0234  -27.3829   21.3524 N   0  0  0  0  0  0  0  0  0  0  0  0
  -23.3833  -22.1811   18.1262 N   0  0  0  0  0  0  0  0  0  0  0  0
  -33.8431  -25.1244   18.8368 N   0  0  0  0  0  0  0  0  0  0  0  0
  -25.4357  -21.9818   15.1571 N   0  3  0  0  0  0  0  0  0  0  0  0
  -26.3493  -21.1180   23.3136 O   0  0  0  0  0  0  0  0  0  0  0  0
  -22.9783  -26.3077   22.0192 O   0  0  0  0  0  0  0  0  0  0  0  0
  -21.3680  -24.0383   18.9618 O   0  0  0  0  0  0  0  0  0  0  0  0
  -25.6870  -22.3622   17.9335 O   0  0  0  0  0  0  0  0  0  0  0  0
  -33.3501  -24.1273   20.8412 O   0  0  0  0  0  0  0  0  0  0  0  0
  -27.9481  -14.0259   20.5330 O   0  0  0  0  0  0  0  0  0  0  0  0
  -28.7837  -27.7747   20.6661 O   0  0  0  0  0  0  0  0  0  1  0  0
  -22.8456  -11.9439   20.7172 F   0  0  0  0  0  0  0  0  0  0  0  0
  -26.9728  -12.4766   18.4615 F   0  0  0  0  0  0  0  0  0  0  0  0
  1  2  1  0  0  0  0
  1  5  2  0  0  0  0
  2  6  2  0  0  0  0
  3  8  2  0  0  0  0
  3 18  1  0  0  0  0
  4  9  1  0  0  0  0
  4 18  2  0  0  0  0
  5 20  1  0  0  0  0
  6 22  1  0  0  0  0
  7 10  2  0  0  0  0
  7 21  1  0  0  0  0
  8 27  1  0  0  0  0
  9 27  2  0  0  0  0
 10 28  1  0  0  0  0
 11 12  2  0  0  0  0
 11 29  1  0  0  0  0
 12 30  1  0  0  0  0
 13 23  1  0  0  0  0
 13 28  2  0  0  0  0
 14 24  1  0  0  0  0
 14 25  2  0  0  0  0
 15 24  2  0  0  0  0
 15 26  1  0  0  0  0
 16 25  1  0  0  0  0
 16 26  2  0  0  0  0
 17 30  2  0  0  0  0
 17 31  1  0  0  0  0
 18 32  1  0  0  0  0
 19 32  1  0  0  0  0
 19 33  2  0  0  0  0
 19 34  1  0  0  0  0
 20 22  2  0  0  0  0
 20 39  1  0  0  0  0
 21 23  2  0  0  0  0
 21 40  1  0  0  0  0
 22 48  1  0  0  0  0
 23 41  1  0  0  0  0
 24 51  1  0  0  0  0
 25 57  1  0  0  0  0
 26 58  1  0  0  0  0
 27 78  1  0  0  0  0
 28 79  1  0  0  0  0
 29 31  2  0  0  0  0
 29 78  1  0  0  0  0
 30 80  1  0  0  0  0
 31 81  1  0  0  0  0
 32 63  2  0  0  0  0
 33 64  1  0  0  0  0
 33 67  1  0  0  0  0
 34 68  1  0  0  0  0
 34 73  2  0  0  0  0
 35 49  1  0  0  0  0
 35 69  1  0  0  0  0
 35 74  2  0  0  0  0
 36 60  1  0  0  0  0
 36 65  1  0  0  0  0
 36 75  2  0  0  0  0
 37 61  1  0  0  0  0
 37 70  1  0  0  0  0
 37 76  2  0  0  0  0
 38 66  1  0  0  0  0
 38 71  1  0  0  0  0
 38 77  2  0  0  0  0
 39 42  1  0  0  0  0
 40 49  1  0  0  0  0
 41 65  1  0  0  0  0
 42 44  1  0  0  0  0
 43 45  1  0  0  0  0
 43 46  1  0  0  0  0
 44 48  1  0  0  0  0
 45 50  1  0  0  0  0
 46 66  1  0  0  0  0
 47 50  1  0  0  0  0
 47 66  1  0  0  0  0
 48 69  1  0  0  0  0
 49 65  1  0  0  0  0
 50 64  1  0  0  0  0
 52 61  1  0  0  0  0
 53 62  1  0  0  0  0
 54 62  1  0  0  0  0
 55 62  1  0  0  0  0
 56 72  1  0  0  0  0
 57 59  1  0  0  0  0
 58 79  1  0  0  0  0
 59 71  1  0  0  0  0
 60 62  1  0  0  0  0
 60 70  1  0  0  0  0
 61 72  1  0  0  0  0
 63 64  1  0  0  0  0
M  CHG  1  72   1
M  ISO  4  38 100  58 101  71 100  79 101
M  END
> <Batch ID>
0099

> <Smiles>
CNC(C)C(=O)NC(C(=O)N1Cc2cc([101O:1][101CH2:1]c3cc(C)cc(CC[100NH:0][100C:0](=O)N4CCCC(n5nc(-c6ccc(Oc7ccc(F)cc7F)cc6)c(C(N)=O)c5N)C4)c3)ccc2CC1C(=O)NC1CCCc2ccccc21)C(C)(C)C

> <Shape>
0.229

> <Color>
0.073

> <Negative vol penalty>
0.000

$$$$

  -OEChem-04052319313D

 84 92  0     1  0  0  0  0  0999 V2000
  -32.4486  -24.4268   17.6866 C   0  0  0  0  0  0  0  0  0  0  0  0
  -31.5064  -23.9877   18.6112 C   0  0  0  0  0  0  0  0  0  0  0  0
  -23.7125  -12.6110   19.1229 C   0  0  0  0  0  0  0  0  0  0  0  0
  -25.2556  -12.0617   20.8989 C   0  0  0  0  0  0  0  0  0  0  0  0
  -32.9101  -25.7415   17.7341 C   0  0  0  0  0  0  0  0  0  0  0  0
  -31.0260  -24.8629   19.5846 C   0  0  0  0  0  0  0  0  0  0  0  0
  -25.9980  -24.5955   20.1264 C   0  0  0  0  0  0  0  0  0  0  0  0
  -23.7212  -11.2806   18.7038 C   0  0  0  0  0  0  0  0  0  0  0  0
  -25.2643  -10.7312   20.4799 C   0  0  0  0  0  0  0  0  0  0  0  0
  -25.4925  -23.5194   20.8546 C   0  0  0  0  0  0  0  0  0  0  0  0
  -25.4128   -7.1186   20.0993 C   0  0  0  0  0  0  0  0  0  0  0  0
  -25.3039   -6.1293   21.0766 C   0  0  0  0  0  0  0  0  0  0  0  0
  -25.2535  -24.9461   22.7851 C   0  0  0  0  0  0  0  0  0  0  0  0
  -23.1621   -7.0255   21.7451 C   0  0  0  0  0  0  0  0  0  0  0  0
  -28.1447  -19.5712   24.3589 C   0  0  0  0  0  0  0  0  0  0  0  0
  -24.4797  -13.0015   20.2205 C   0  0  0  0  0  0  0  0  0  0  0  0
  -23.6033  -14.9665   21.5910 C   0  0  0  0  0  0  0  0  0  0  0  0
  -32.4279  -26.6361   18.7025 C   0  0  0  0  0  0  0  0  0  0  0  0
  -26.1456  -25.8543   20.7262 C   0  0  0  0  0  0  0  0  0  0  0  0
  -31.4824  -26.1905   19.6459 C   0  0  0  0  0  0  0  0  0  0  0  0
  -25.7588  -26.0371   22.0616 C   0  0  0  0  0  0  0  0  0  0  0  0
  -29.4769  -19.7864   24.0828 C   0  0  0  0  0  0  0  0  0  0  0  0
  -29.6932  -21.1863   24.1073 C   0  0  0  0  0  0  0  0  0  0  0  0
  -24.4971  -10.3408   19.3823 C   0  0  0  0  0  0  0  0  0  0  0  0
  -25.1228  -23.6939   22.1850 C   0  0  0  0  0  0  0  0  0  0  0  0
  -24.3964   -8.0614   19.9450 C   0  0  0  0  0  0  0  0  0  0  0  0
  -24.1786   -6.0827   21.8994 C   0  0  0  0  0  0  0  0  0  0  0  0
  -23.2711   -8.0148   20.7678 C   0  0  0  0  0  0  0  0  0  0  0  0
  -24.4716  -14.3758   20.6535 C   0  0  0  0  0  0  0  0  0  0  0  0
  -28.4867  -21.7840   24.3978 C   0  0  0  0  0  0  0  0  0  0  0  0
  -24.0036  -16.2790   21.6503 C   0  0  0  0  0  0  0  0  0  0  0  0
  -22.5308  -14.3812   22.3412 C   0  0  0  0  0  0  0  0  0  0  0  0
  -28.6053  -27.7714   21.3418 C   0  0  0  0  0  0  0  0  0  0  0  0
  -26.2718  -29.8210   22.2777 C   0  0  0  0  0  0  0  0  0  0  0  0
  -23.0824  -30.2577   23.4109 C   0  0  0  0  0  0  0  0  0  0  0  0
  -29.2041  -19.0119   20.4940 C   0  0  0  0  0  0  0  0  0  0  0  0
  -32.9916  -28.0344   18.7439 C   0  0  0  0  0  0  0  0  0  0  0  0
  -26.6675  -27.0114   19.9192 C   0  0  0  0  0  0  0  0  0  0  0  0
  -25.8784  -27.3733   22.7461 C   0  0  0  0  0  0  0  0  0  0  0  0
  -32.1538  -29.0045   19.5729 C   0  0  0  0  0  0  0  0  0  0  0  0
  -26.0475  -19.6940   18.9948 C   0  0  0  0  0  0  0  0  0  0  0  0
  -31.7725  -28.3740   20.9085 C   0  0  0  0  0  0  0  0  0  0  0  0
  -25.2074  -18.4616   19.3345 C   0  0  0  0  0  0  0  0  0  0  0  0
  -27.5039  -19.3258   18.7200 C   0  0  0  0  0  0  0  0  0  0  0  0
  -27.3162  -17.3101   20.1254 C   0  0  0  0  0  0  0  0  0  0  0  0
  -30.9188  -27.1170   20.7014 C   0  0  1  0  0  0  0  0  0  0  0  0
  -27.2564  -28.1238   20.7813 C   0  0  1  0  0  0  0  0  0  0  0  0
  -25.8522  -17.6377   20.4653 C   0  0  2  0  0  0  0  0  0  0  0  0
  -30.9754  -21.8798   23.8660 C   0  0  0  0  0  0  0  0  0  0  0  0
  -28.1414  -23.2138   24.5452 C   0  0  0  0  0  0  0  0  0  0  0  0
  -21.4720  -32.0462   24.1216 C   0  0  0  0  0  0  0  0  0  0  0  0
  -25.7433  -20.3649   26.2317 C   0  0  0  0  0  0  0  0  0  0  0  0
  -27.7479  -30.0911   24.9344 C   0  0  0  0  0  0  0  0  0  0  0  0
  -25.6679  -31.0869   25.9092 C   0  0  0  0  0  0  0  0  0  0  0  0
  -26.8340  -32.2346   24.0262 C   0  0  0  0  0  0  0  0  0  0  0  0
  -21.1730  -29.5546   21.2618 C   0  0  0  0  0  0  0  0  0  0  0  0
  -30.4847  -18.7418   23.8121 C   0  0  0  0  0  0  0  0  0  0  0  0
  -25.1404  -20.4565   23.7830 C   0  0  0  0  0  0  0  0  0  0  0  0
  -30.8237  -18.5661   22.3208 C   0  0  0  0  0  0  0  0  0  0  0  0
  -25.0901  -21.3427   22.5408 C   0  0  0  0  0  0  0  0  0  1  0  0
  -25.5529  -30.1021   23.5751 C   0  0  1  0  0  0  0  0  0  0  0  0
  -21.9748  -31.1955   22.9657 C   0  0  2  0  0  0  0  0  0  0  0  0
  -26.0833  -20.9956   24.8759 C   0  0  2  0  0  0  0  0  0  0  0  0
  -26.4501  -30.8529   24.5992 C   0  0  0  0  0  0  0  0  0  0  0  0
  -25.3567  -15.2420   20.1532 N   0  0  0  0  0  0  0  0  0  0  0  0
  -27.5527  -20.7925   24.5490 N   0  0  0  0  0  0  0  0  0  0  0  0
  -25.0465  -16.3904   20.7785 N   0  0  0  0  0  0  0  0  0  0  0  0
  -26.4000  -28.4723   21.9168 N   0  0  0  0  0  0  0  0  0  0  0  0
  -28.0565  -18.5470   19.8308 N   0  0  0  0  0  0  0  0  0  0  0  0
  -23.5617  -17.3372   22.3626 N   0  0  0  0  0  0  0  0  0  0  0  0
  -22.2538  -13.0193   22.1596 N   0  0  0  0  0  0  0  0  0  0  0  0
  -29.5548  -27.4795   20.3812 N   0  0  0  0  0  0  0  0  0  0  0  0
  -24.3298  -30.8129   23.2184 N   0  0  0  0  0  0  0  0  0  0  0  0
  -29.6583  -18.2171   21.5393 N   0  0  0  0  0  0  0  0  0  0  0  0
  -20.8264  -30.4184   22.4197 N   0  3  0  0  0  0  0  0  0  0  0  0
  -21.8280  -15.0498   23.1364 O   0  0  0  0  0  0  0  0  0  0  0  0
  -28.7725  -27.7661   22.5557 O   0  0  0  0  0  0  0  0  0  0  0  0
  -26.6974  -30.7638   21.6056 O   0  0  0  0  0  0  0  0  0  0  0  0
  -22.8629  -29.1456   23.8857 O   0  0  0  0  0  0  0  0  0  0  0  0
  -29.7781  -20.0606   20.1814 O   0  0  0  0  0  0  0  0  0  0  0  0
  -24.5056   -9.0425   18.9738 O   0  0  0  0  0  0  0  0  0  0  0  0
  -24.6296  -22.6452   22.8983 O   0  0  0  0  0  0  0  0  0  1  0  0
  -24.0734   -5.1317   22.8368 F   0  0  0  0  0  0  0  0  0  0  0  0
  -22.2908   -8.9171   20.6235 F   0  0  0  0  0  0  0  0  0  0  0  0
  1  2  1  0  0  0  0
  1  5  2  0  0  0  0
  2  6  2  0  0  0  0
  3  8  2  0  0  0  0
  3 16  1  0  0  0  0
  4  9  1  0  0  0  0
  4 16  2  0  0  0  0
  5 18  1  0  0  0  0
  6 20  1  0  0  0  0
  7 10  2  0  0  0  0
  7 19  1  0  0  0  0
  8 24  1  0  0  0  0
  9 24  2  0  0  0  0
 10 25  1  0  0  0  0
 11 12  2  0  0  0  0
 11 26  1  0  0  0  0
 12 27  1  0  0  0  0
 13 21  1  0  0  0  0
 13 25  2  0  0  0  0
 14 27  2  0  0  0  0
 14 28  1  0  0  0  0
 15 22  2  0  0  0  0
 15 66  1  0  0  0  0
 16 29  1  0  0  0  0
 17 29  1  0  0  0  0
 17 31  2  0  0  0  0
 17 32  1  0  0  0  0
 18 20  2  0  0  0  0
 18 37  1  0  0  0  0
 19 21  2  0  0  0  0
 19 38  1  0  0  0  0
 20 46  1  0  0  0  0
 21 39  1  0  0  0  0
 22 23  1  0  0  0  0
 22 57  1  0  0  0  0
 23 30  2  0  0  0  0
 23 49  1  0  0  0  0
 24 81  1  0  0  0  0
 25 82  1  0  0  0  0
 26 28  2  0  0  0  0
 26 81  1  0  0  0  0
 27 83  1  0  0  0  0
 28 84  1  0  0  0  0
 29 65  2  0  0  0  0
 30 50  1  0  0  0  0
 30 66  1  0  0  0  0
 31 67  1  0  0  0  0
 31 70  1  0  0  0  0
 32 71  1  0  0  0  0
 32 76  2  0  0  0  0
 33 47  1  0  0  0  0
 33 72  1  0  0  0  0
 33 77  2  0  0  0  0
 34 61  1  0  0  0  0
 34 68  1  0  0  0  0
 34 78  2  0  0  0  0
 35 62  1  0  0  0  0
 35 73  1  0  0  0  0
 35 79  2  0  0  0  0
 36 69  1  0  0  0  0
 36 74  1  0  0  0  0
 36 80  2  0  0  0  0
 37 40  1  0  0  0  0
 38 47  1  0  0  0  0
 39 68  1  0  0  0  0
 40 42  1  0  0  0  0
 41 43  1  0  0  0  0
 41 44  1  0  0  0  0
 42 46  1  0  0  0  0
 43 48  1  0  0  0  0
 44 69  1  0  0  0  0
 45 48  1  0  0  0  0
 45 69  1  0  0  0  0
 46 72  1  0  0  0  0
 47 68  1  0  0  0  0
 48 67  1  0  0  0  0
 51 62  1  0  0  0  0
 52 63  1  0  0  0  0
 53 64  1  0  0  0  0
 54 64  1  0  0  0  0
 55 64  1  0  0  0  0
 56 75  1  0  0  0  0
 57 59  1  0  0  0  0
 58 60  1  0  0  0  0
 58 63  1  0  0  0  0
 59 74  1  0  0  0  0
 60 82  1  0  0  0  0
 61 64  1  0  0  0  0
 61 73  1  0  0  0  0
 62 75  1  0  0  0  0
 63 66  1  0  0  0  0
 65 67  1  0  0  0  0
M  CHG  1  75   1
M  ISO  4  36 100  60 101  74 100  82 101
M  END
> <Batch ID>
0099

> <Smiles>
CNC(C)C(=O)NC(C(=O)N1Cc2cc([101O:1][101CH2:1]CC(C)n3cc(CC[100NH:0][100C:0](=O)N4CCCC(n5nc(-c6ccc(Oc7ccc(F)cc7F)cc6)c(C(N)=O)c5N)C4)c(C)c3C)ccc2CC1C(=O)NC1CCCc2ccccc21)C(C)(C)C

> <Shape>
0.220

> <Color>
0.081

> <Negative vol penalty>
0.000

$$$$

  -OEChem-04052319313D

 91 99  0     1  0  0  0  0  0999 V2000
  -19.2234  -25.9880   25.1148 C   0  0  0  0  0  0  0  0  0  0  0  0
  -20.2307  -25.6553   24.2148 C   0  0  0  0  0  0  0  0  0  0  0  0
  -23.7285   -9.8221   21.8373 C   0  0  0  0  0  0  0  0  0  0  0  0
  -24.3349  -11.1305   23.7757 C   0  0  0  0  0  0  0  0  0  0  0  0
  -18.5397  -27.1955   24.9791 C   0  0  0  0  0  0  0  0  0  0  0  0
  -20.5543  -26.5296   23.1778 C   0  0  0  0  0  0  0  0  0  0  0  0
  -25.5535  -27.1047   22.6101 C   0  0  0  0  0  0  0  0  0  0  0  0
  -23.2019   -8.8339   22.6690 C   0  0  0  0  0  0  0  0  0  0  0  0
  -23.8082  -10.1423   24.6074 C   0  0  0  0  0  0  0  0  0  0  0  0
  -26.2414  -26.0843   21.9548 C   0  0  0  0  0  0  0  0  0  0  0  0
  -24.3715   -6.2972   24.5720 C   0  0  0  0  0  0  0  0  0  0  0  0
  -24.6874   -4.9702   24.2809 C   0  0  0  0  0  0  0  0  0  0  0  0
  -26.2341  -27.3901   19.9266 C   0  0  0  0  0  0  0  0  0  0  0  0
  -22.3398   -4.4728   24.0007 C   0  0  0  0  0  0  0  0  0  0  0  0
  -24.2950  -10.9704   22.3906 C   0  0  0  0  0  0  0  0  0  0  0  0
  -24.1610  -13.1017   20.9951 C   0  0  0  0  0  0  0  0  0  0  0  0
  -18.8616  -28.0894   23.9456 C   0  0  0  0  0  0  0  0  0  0  0  0
  -25.1905  -28.2728   21.9244 C   0  0  0  0  0  0  0  0  0  0  0  0
  -19.8734  -27.7496   23.0273 C   0  0  0  0  0  0  0  0  0  0  0  0
  -25.5438  -28.4249   20.5761 C   0  0  0  0  0  0  0  0  0  0  0  0
  -23.2418   -8.9940   24.0540 C   0  0  0  0  0  0  0  0  0  0  0  0
  -26.5793  -26.2257   20.6121 C   0  0  0  0  0  0  0  0  0  0  0  0
  -23.0397   -6.7120   24.5775 C   0  0  0  0  0  0  0  0  0  0  0  0
  -23.6716   -4.0579   23.9952 C   0  0  0  0  0  0  0  0  0  0  0  0
  -22.0239   -5.7998   24.2918 C   0  0  0  0  0  0  0  0  0  0  0  0
  -24.8397  -11.9913   21.5320 C   0  0  0  0  0  0  0  0  0  0  0  0
  -25.1119  -13.7601   20.2543 C   0  0  0  0  0  0  0  0  0  0  0  0
  -25.7773  -21.0656   20.6620 C   0  0  0  0  0  0  0  0  0  0  0  0
  -27.1251  -20.7593   18.7017 C   0  0  0  0  0  0  0  0  0  0  0  0
  -25.7878  -19.7549   20.9497 C   0  0  0  0  0  0  0  0  0  0  0  0
  -26.4613  -21.6000   19.5068 C   0  0  0  0  0  0  0  0  0  0  0  0
  -26.5332  -18.8123   20.0442 C   0  0  0  0  0  0  0  0  0  0  0  0
  -22.7932  -13.5022   21.1520 C   0  0  0  0  0  0  0  0  0  0  0  0
  -22.4361  -29.6833   21.1980 C   0  0  0  0  0  0  0  0  0  0  0  0
  -24.3792  -32.0366   20.0986 C   0  0  0  0  0  0  0  0  0  0  0  0
  -27.4471  -32.9409   18.9083 C   0  0  0  0  0  0  0  0  0  0  0  0
  -30.2837  -15.7701   19.6561 C   0  0  0  0  0  0  0  0  0  0  0  0
  -18.0627  -29.3615   23.8110 C   0  0  0  0  0  0  0  0  0  0  0  0
  -24.4720  -29.3755   22.6527 C   0  0  0  0  0  0  0  0  0  0  0  0
  -25.1952  -29.6679   19.8003 C   0  0  0  0  0  0  0  0  0  0  0  0
  -18.7211  -30.4015   22.9081 C   0  0  0  0  0  0  0  0  0  0  0  0
  -29.7612  -12.3402   18.8563 C   0  0  0  0  0  0  0  0  0  0  0  0
  -19.2109  -29.7540   21.6168 C   0  0  0  0  0  0  0  0  0  0  0  0
  -28.3817  -12.0340   19.4421 C   0  0  0  0  0  0  0  0  0  0  0  0
  -30.5467  -13.3082   19.7383 C   0  0  0  0  0  0  0  0  0  0  0  0
  -28.4617  -14.2560   20.6483 C   0  0  0  0  0  0  0  0  0  0  0  0
  -20.2701  -28.6829   21.9040 C   0  0  1  0  0  0  0  0  0  0  0  0
  -23.7009  -30.3042   21.7198 C   0  0  1  0  0  0  0  0  0  0  0  0
  -27.6102  -13.3276   19.7655 C   0  0  2  0  0  0  0  0  0  0  0  0
  -27.1228  -19.5472   23.6164 C   0  0  0  0  0  0  0  0  0  0  0  0
  -23.5948  -19.4349   21.9895 C   0  0  0  0  0  0  0  0  0  0  0  0
  -24.9423  -23.5028   19.0042 C   0  0  0  0  0  0  0  0  0  0  0  0
  -28.7231  -34.9276   18.0586 C   0  0  0  0  0  0  0  0  0  0  0  0
  -22.8872  -31.8561   17.4431 C   0  0  0  0  0  0  0  0  0  0  0  0
  -24.7648  -33.1274   16.3816 C   0  0  0  0  0  0  0  0  0  0  0  0
  -23.4102  -34.1849   18.1897 C   0  0  0  0  0  0  0  0  0  0  0  0
  -30.6504  -22.7306   20.1817 C   0  0  0  0  0  0  0  0  0  0  0  0
  -29.4429  -32.7355   21.0839 C   0  0  0  0  0  0  0  0  0  0  0  0
  -25.6279  -19.7796   23.4381 C   0  0  0  0  0  0  0  0  0  0  0  0
  -29.4327  -18.6489   18.2333 C   0  0  0  0  0  0  0  0  0  0  0  0
  -27.9247  -18.5739   18.0041 C   0  0  0  0  0  0  0  0  0  0  0  0
  -29.8685  -18.2167   19.6314 C   0  0  0  0  0  0  0  0  0  0  0  0
  -28.3482  -23.3371   20.9372 C   0  0  0  0  0  0  0  0  0  0  0  0
  -25.0904  -19.1709   22.1379 C   0  0  2  0  0  0  0  0  0  0  0  0
  -26.3878  -23.0812   19.2736 C   0  0  1  0  0  0  0  0  0  0  0  0
  -25.0422  -32.3458   18.7781 C   0  0  1  0  0  0  0  0  0  0  0  0
  -28.3726  -34.0865   19.2762 C   0  0  2  0  0  0  0  0  0  0  0  0
  -27.0229  -23.8969   20.4225 C   0  0  2  0  0  0  0  0  0  1  0  0
  -24.0311  -32.8542   17.7120 C   0  0  0  0  0  0  0  0  0  0  0  0
  -26.1226  -11.9436   21.1635 N   0  0  0  0  0  0  0  0  0  0  0  0
  -26.2577  -13.0322   20.3871 N   0  0  0  0  0  0  0  0  0  0  0  0
  -27.1734  -19.3983   18.9447 N   0  0  0  0  0  0  0  0  0  0  0  0
  -24.4870  -30.7152   20.5548 N   0  0  0  0  0  0  0  0  0  0  0  0
  -29.7600  -14.5146   20.0062 N   0  0  0  0  0  0  0  0  0  0  0  0
  -25.0713  -14.8847   19.5087 N   0  0  0  0  0  0  0  0  0  0  0  0
  -21.9527  -12.7117   21.9476 N   0  0  0  0  0  0  0  0  0  0  0  0
  -21.5489  -29.2993   22.1854 N   0  0  0  0  0  0  0  0  0  0  0  0
  -26.1213  -33.2824   19.0727 N   0  0  0  0  0  0  0  0  0  0  0  0
  -29.4708  -16.8609   19.9387 N   0  0  0  0  0  0  0  0  0  0  0  0
  -29.3066  -23.2410   19.8030 N   0  3  0  0  0  0  0  0  0  0  0  0
  -29.6373  -33.5621   19.8650 N   0  3  0  0  0  0  0  0  0  0  0  0
  -26.5470  -17.6086   20.3014 O   0  0  0  0  0  0  0  0  0  0  0  0
  -22.3261  -14.5215   20.5897 O   0  0  0  0  0  0  0  0  0  0  0  0
  -22.2763  -29.5628   19.9890 O   0  0  0  0  0  0  0  0  0  0  0  0
  -23.7934  -32.9360   20.7065 O   0  0  0  0  0  0  0  0  0  0  0  0
  -27.8589  -31.8531   18.5110 O   0  0  0  0  0  0  0  0  0  0  0  0
  -31.3912  -15.9081   19.1258 O   0  0  0  0  0  0  0  0  0  0  0  0
  -22.7278   -8.0300   24.8659 O   0  0  0  0  0  0  0  0  0  0  0  0
  -27.2502  -25.2310   19.9700 O   0  0  0  0  0  0  0  0  0  1  0  0
  -23.9752   -2.7840   23.7142 F   0  0  0  0  0  0  0  0  0  0  0  0
  -20.7427   -6.1927   24.2944 F   0  0  0  0  0  0  0  0  0  0  0  0
  1  2  1  0  0  0  0
  1  5  2  0  0  0  0
  2  6  2  0  0  0  0
  3  8  2  0  0  0  0
  3 15  1  0  0  0  0
  4  9  1  0  0  0  0
  4 15  2  0  0  0  0
  5 17  1  0  0  0  0
  6 19  1  0  0  0  0
  7 10  2  0  0  0  0
  7 18  1  0  0  0  0
  8 21  1  0  0  0  0
  9 21  2  0  0  0  0
 10 22  1  0  0  0  0
 11 12  2  0  0  0  0
 11 23  1  0  0  0  0
 12 24  1  0  0  0  0
 13 20  1  0  0  0  0
 13 22  2  0  0  0  0
 14 24  2  0  0  0  0
 14 25  1  0  0  0  0
 15 26  1  0  0  0  0
 16 26  1  0  0  0  0
 16 27  2  0  0  0  0
 16 33  1  0  0  0  0
 17 19  2  0  0  0  0
 17 38  1  0  0  0  0
 18 20  2  0  0  0  0
 18 39  1  0  0  0  0
 19 47  1  0  0  0  0
 20 40  1  0  0  0  0
 21 88  1  0  0  0  0
 22 89  1  0  0  0  0
 23 25  2  0  0  0  0
 23 88  1  0  0  0  0
 24 90  1  0  0  0  0
 25 91  1  0  0  0  0
 26 70  2  0  0  0  0
 27 71  1  0  0  0  0
 27 75  1  0  0  0  0
 28 30  2  0  0  0  0
 28 31  1  0  0  0  0
 29 31  2  0  0  0  0
 29 72  1  0  0  0  0
 30 32  1  0  0  0  0
 30 64  1  0  0  0  0
 31 65  1  0  0  0  0
 32 72  1  0  0  0  0
 32 82  2  0  0  0  0
 33 76  1  0  0  0  0
 33 83  2  0  0  0  0
 34 48  1  0  0  0  0
 34 77  1  0  0  0  0
 34 84  2  0  0  0  0
 35 66  1  0  0  0  0
 35 73  1  0  0  0  0
 35 85  2  0  0  0  0
 36 67  1  0  0  0  0
 36 78  1  0  0  0  0
 36 86  2  0  0  0  0
 37 74  1  0  0  0  0
 37 79  1  0  0  0  0
 37 87  2  0  0  0  0
 38 41  1  0  0  0  0
 39 48  1  0  0  0  0
 40 73  1  0  0  0  0
 41 43  1  0  0  0  0
 42 44  1  0  0  0  0
 42 45  1  0  0  0  0
 43 47  1  0  0  0  0
 44 49  1  0  0  0  0
 45 74  1  0  0  0  0
 46 49  1  0  0  0  0
 46 74  1  0  0  0  0
 47 77  1  0  0  0  0
 48 73  1  0  0  0  0
 49 71  1  0  0  0  0
 50 59  1  0  0  0  0
 51 64  1  0  0  0  0
 52 65  1  0  0  0  0
 53 67  1  0  0  0  0
 54 69  1  0  0  0  0
 55 69  1  0  0  0  0
 56 69  1  0  0  0  0
 57 80  1  0  0  0  0
 58 81  1  0  0  0  0
 59 64  1  0  0  0  0
 60 61  1  0  0  0  0
 60 62  1  0  0  0  0
 61 72  1  0  0  0  0
 62 79  1  0  0  0  0
 63 68  1  0  0  0  0
 63 80  1  0  0  0  0
 65 68  1  0  0  0  0
 66 69  1  0  0  0  0
 66 78  1  0  0  0  0
 67 81  1  0  0  0  0
 68 89  1  0  0  0  0
 70 71  1  0  0  0  0
M  CHG  2  80   1  81   1
M  ISO  4  37 100  68 101  79 100  89 101
M  END
> <Batch ID>
0099

> <Smiles>
CCC(C)c1cc(C(C)[101CH:1](CNC)[101O:1]c2ccc3c(c2)CN(C(=O)C(NC(=O)C(C)NC)C(C)(C)C)C(C(=O)NC2CCCc4ccccc42)C3)cn(CCC[100NH:0][100C:0](=O)N2CCCC(n3nc(-c4ccc(Oc5ccc(F)cc5F)cc4)c(C(N)=O)c3N)C2)c1=O

> <Shape>
0.270

> <Color>
0.135

> <Negative vol penalty>
0.000

$$$$

  -OEChem-04052319313D

 84 92  0     1  0  0  0  0  0999 V2000
  -32.4009  -14.5537   20.7150 C   0  0  0  0  0  0  0  0  0  0  0  0
  -31.5626  -15.6633   20.7525 C   0  0  0  0  0  0  0  0  0  0  0  0
  -27.3187  -28.6928   20.1132 C   0  0  0  0  0  0  0  0  0  0  0  0
  -25.6032  -27.0623   20.5987 C   0  0  0  0  0  0  0  0  0  0  0  0
  -31.8923  -13.3094   20.3449 C   0  0  0  0  0  0  0  0  0  0  0  0
  -30.2153  -15.5294   20.4190 C   0  0  0  0  0  0  0  0  0  0  0  0
  -25.4963  -18.5670   22.8706 C   0  0  0  0  0  0  0  0  0  0  0  0
  -26.3471  -29.5733   19.6375 C   0  0  0  0  0  0  0  0  0  0  0  0
  -24.6316  -27.9428   20.1231 C   0  0  0  0  0  0  0  0  0  0  0  0
  -24.7790  -19.6851   22.4475 C   0  0  0  0  0  0  0  0  0  0  0  0
  -21.6616  -29.9004   19.3712 C   0  0  0  0  0  0  0  0  0  0  0  0
  -20.4989  -30.0538   20.1263 C   0  0  0  0  0  0  0  0  0  0  0  0
  -23.1093  -18.2393   21.4775 C   0  0  0  0  0  0  0  0  0  0  0  0
  -21.8166  -30.8257   21.9985 C   0  0  0  0  0  0  0  0  0  0  0  0
  -25.2804  -19.2982   18.2493 C   0  0  0  0  0  0  0  0  0  0  0  0
  -26.9467  -27.4372   20.5938 C   0  0  0  0  0  0  0  0  0  0  0  0
  -28.4264  -26.4185   22.4050 C   0  0  0  0  0  0  0  0  0  0  0  0
  -30.5359  -13.1583   20.0160 C   0  0  0  0  0  0  0  0  0  0  0  0
  -25.0303  -17.2744   22.5903 C   0  0  0  0  0  0  0  0  0  0  0  0
  -29.6883  -14.2822   20.0429 C   0  0  0  0  0  0  0  0  0  0  0  0
  -23.8213  -17.1064   21.9003 C   0  0  0  0  0  0  0  0  0  0  0  0
  -26.5018  -19.4630   17.6344 C   0  0  0  0  0  0  0  0  0  0  0  0
  -26.3823  -20.5575   16.7428 C   0  0  0  0  0  0  0  0  0  0  0  0
  -25.0036  -29.1984   19.6425 C   0  0  0  0  0  0  0  0  0  0  0  0
  -23.5867  -19.5214   21.7484 C   0  0  0  0  0  0  0  0  0  0  0  0
  -22.9019  -30.2096   19.9298 C   0  0  0  0  0  0  0  0  0  0  0  0
  -20.5764  -30.5165   21.4399 C   0  0  0  0  0  0  0  0  0  0  0  0
  -22.9793  -30.6723   21.2434 C   0  0  0  0  0  0  0  0  0  0  0  0
  -27.9500  -26.5269   21.0847 C   0  0  0  0  0  0  0  0  0  0  0  0
  -25.0914  -21.0283   16.8402 C   0  0  0  0  0  0  0  0  0  0  0  0
  -29.3632  -25.4155   22.3507 C   0  0  0  0  0  0  0  0  0  0  0  0
  -28.0553  -27.1583   23.5758 C   0  0  0  0  0  0  0  0  0  0  0  0
  -26.1391  -14.8013   20.9296 C   0  0  0  0  0  0  0  0  0  0  0  0
  -23.5465  -13.3015   22.1753 C   0  0  0  0  0  0  0  0  0  0  0  0
  -20.4141  -13.5552   23.5059 C   0  0  0  0  0  0  0  0  0  0  0  0
  -30.1418  -20.7585   18.6687 C   0  0  0  0  0  0  0  0  0  0  0  0
  -30.0422  -11.8027   19.5764 C   0  0  0  0  0  0  0  0  0  0  0  0
  -25.8022  -16.0787   23.0769 C   0  0  0  0  0  0  0  0  0  0  0  0
  -23.2674  -15.7402   21.5919 C   0  0  0  0  0  0  0  0  0  0  0  0
  -28.5216  -11.6712   19.5999 C   0  0  0  0  0  0  0  0  0  0  0  0
  -32.4761  -23.3575   19.3565 C   0  0  0  0  0  0  0  0  0  0  0  0
  -27.8705  -12.8876   18.9492 C   0  0  0  0  0  0  0  0  0  0  0  0
  -31.6238  -24.4547   19.9965 C   0  0  0  0  0  0  0  0  0  0  0  0
  -31.7168  -22.6248   18.2526 C   0  0  0  0  0  0  0  0  0  0  0  0
  -29.5546  -23.1784   19.2978 C   0  0  0  0  0  0  0  0  0  0  0  0
  -28.2157  -14.1723   19.7120 C   0  0  1  0  0  0  0  0  0  0  0  0
  -25.4970  -14.8090   22.2880 C   0  0  1  0  0  0  0  0  0  0  0  0
  -30.2582  -23.9084   20.4547 C   0  0  2  0  0  0  0  0  0  0  0  0
  -27.4446  -21.0966   15.8687 C   0  0  0  0  0  0  0  0  0  0  0  0
  -24.4289  -22.1480   16.1383 C   0  0  0  0  0  0  0  0  0  0  0  0
  -18.5316  -12.1534   24.3940 C   0  0  0  0  0  0  0  0  0  0  0  0
  -23.6518  -22.8742   21.1115 C   0  0  0  0  0  0  0  0  0  0  0  0
  -22.7775  -12.5325   19.3245 C   0  0  0  0  0  0  0  0  0  0  0  0
  -20.4810  -11.9937   20.1636 C   0  0  0  0  0  0  0  0  0  0  0  0
  -22.4495  -10.7217   21.0180 C   0  0  0  0  0  0  0  0  0  0  0  0
  -20.5827  -14.8151   26.1786 C   0  0  0  0  0  0  0  0  0  0  0  0
  -27.7071  -18.6430   17.8691 C   0  0  0  0  0  0  0  0  0  0  0  0
  -22.7537  -21.5961   19.1331 C   0  0  0  0  0  0  0  0  0  0  0  0
  -22.9917  -20.4169   18.1789 C   0  0  0  0  0  0  0  0  0  0  0  0
  -28.4660  -18.9955   19.1612 C   0  0  0  0  0  0  0  0  0  0  0  0
  -22.1101  -13.1181   21.7489 C   0  0  1  0  0  0  0  0  0  0  0  0
  -19.7911  -12.9315   24.7418 C   0  0  2  0  0  0  0  0  0  0  0  0
  -23.5460  -21.5092   20.4435 C   0  0  2  0  0  0  0  0  0  1  0  0
  -21.9657  -12.1174   20.5677 C   0  0  0  0  0  0  0  0  0  0  0  0
  -28.5358  -25.6620   20.2525 N   0  0  0  0  0  0  0  0  0  0  0  0
  -24.4309  -20.2554   17.7591 N   0  0  0  0  0  0  0  0  0  0  0  0
  -29.3901  -25.0006   21.0517 N   0  0  0  0  0  0  0  0  0  0  0  0
  -24.0619  -14.6022   22.0832 N   0  0  0  0  0  0  0  0  0  0  0  0
  -30.4317  -22.1304   18.7526 N   0  0  0  0  0  0  0  0  0  0  0  0
  -30.1584  -24.8570   23.2877 N   0  0  0  0  0  0  0  0  0  0  0  0
  -27.0761  -28.1536   23.4547 N   0  0  0  0  0  0  0  0  0  0  0  0
  -27.4172  -14.2762   20.9144 N   0  0  0  0  0  0  0  0  0  0  0  0
  -21.3735  -12.7363   22.9489 N   0  0  0  0  0  0  0  0  0  0  0  0
  -28.9050  -20.3732   19.1712 N   0  0  0  0  0  0  0  0  0  0  0  0
  -19.4332  -13.9876   25.7305 N   0  3  0  0  0  0  0  0  0  0  0  0
  -28.5885  -26.9542   24.6928 O   0  0  0  0  0  0  0  0  0  0  0  0
  -25.5202  -15.2379   19.9663 O   0  0  0  0  0  0  0  0  0  0  0  0
  -24.1856  -12.3280   22.5822 O   0  0  0  0  0  0  0  0  0  0  0  0
  -20.0802  -14.6569   23.0754 O   0  0  0  0  0  0  0  0  0  0  0  0
  -30.9293  -19.9372   18.1868 O   0  0  0  0  0  0  0  0  0  0  0  0
  -24.0552  -30.0575   19.1786 O   0  0  0  0  0  0  0  0  0  0  0  0
  -22.8849  -20.6110   21.3337 O   0  0  0  0  0  0  0  0  0  1  0  0
  -19.4596  -30.6652   22.1644 F   0  0  0  0  0  0  0  0  0  0  0  0
  -24.1678  -30.9720   21.7851 F   0  0  0  0  0  0  0  0  0  0  0  0
  1  2  1  0  0  0  0
  1  5  2  0  0  0  0
  2  6  2  0  0  0  0
  3  8  2  0  0  0  0
  3 16  1  0  0  0  0
  4  9  1  0  0  0  0
  4 16  2  0  0  0  0
  5 18  1  0  0  0  0
  6 20  1  0  0  0  0
  7 10  2  0  0  0  0
  7 19  1  0  0  0  0
  8 24  1  0  0  0  0
  9 24  2  0  0  0  0
 10 25  1  0  0  0  0
 11 12  2  0  0  0  0
 11 26  1  0  0  0  0
 12 27  1  0  0  0  0
 13 21  1  0  0  0  0
 13 25  2  0  0  0  0
 14 27  2  0  0  0  0
 14 28  1  0  0  0  0
 15 22  2  0  0  0  0
 15 66  1  0  0  0  0
 16 29  1  0  0  0  0
 17 29  1  0  0  0  0
 17 31  2  0  0  0  0
 17 32  1  0  0  0  0
 18 20  2  0  0  0  0
 18 37  1  0  0  0  0
 19 21  2  0  0  0  0
 19 38  1  0  0  0  0
 20 46  1  0  0  0  0
 21 39  1  0  0  0  0
 22 23  1  0  0  0  0
 22 57  1  0  0  0  0
 23 30  2  0  0  0  0
 23 49  1  0  0  0  0
 24 81  1  0  0  0  0
 25 82  1  0  0  0  0
 26 28  2  0  0  0  0
 26 81  1  0  0  0  0
 27 83  1  0  0  0  0
 28 84  1  0  0  0  0
 29 65  2  0  0  0  0
 30 50  1  0  0  0  0
 30 66  1  0  0  0  0
 31 67  1  0  0  0  0
 31 70  1  0  0  0  0
 32 71  1  0  0  0  0
 32 76  2  0  0  0  0
 33 47  1  0  0  0  0
 33 72  1  0  0  0  0
 33 77  2  0  0  0  0
 34 61  1  0  0  0  0
 34 68  1  0  0  0  0
 34 78  2  0  0  0  0
 35 62  1  0  0  0  0
 35 73  1  0  0  0  0
 35 79  2  0  0  0  0
 36 69  1  0  0  0  0
 36 74  1  0  0  0  0
 36 80  2  0  0  0  0
 37 40  1  0  0  0  0
 38 47  1  0  0  0  0
 39 68  1  0  0  0  0
 40 42  1  0  0  0  0
 41 43  1  0  0  0  0
 41 44  1  0  0  0  0
 42 46  1  0  0  0  0
 43 48  1  0  0  0  0
 44 69  1  0  0  0  0
 45 48  1  0  0  0  0
 45 69  1  0  0  0  0
 46 72  1  0  0  0  0
 47 68  1  0  0  0  0
 48 67  1  0  0  0  0
 51 62  1  0  0  0  0
 52 63  1  0  0  0  0
 53 64  1  0  0  0  0
 54 64  1  0  0  0  0
 55 64  1  0  0  0  0
 56 75  1  0  0  0  0
 57 60  1  0  0  0  0
 58 59  1  0  0  0  0
 58 63  1  0  0  0  0
 59 66  1  0  0  0  0
 60 74  1  0  0  0  0
 61 64  1  0  0  0  0
 61 73  1  0  0  0  0
 62 75  1  0  0  0  0
 63 82  1  0  0  0  0
 65 67  1  0  0  0  0
M  CHG  1  75   1
M  ISO  4  36 100  63 101  74 100  82 101
M  END
> <Batch ID>
0099

> <Smiles>
CNC(C)C(=O)NC(C(=O)N1Cc2cc([101O:1][101CH:1](C)CCn3cc(CC[100NH:0][100C:0](=O)N4CCCC(n5nc(-c6ccc(Oc7ccc(F)cc7F)cc6)c(C(N)=O)c5N)C4)c(C)c3C)ccc2CC1C(=O)NC1CCCc2ccccc21)C(C)(C)C

> <Shape>
0.213

> <Color>
0.065

> <Negative vol penalty>
0.000

$$$$

  -OEChem-04052319313D

 90 98  0     1  0  0  0  0  0999 V2000
  -19.6336  -25.0329   24.8666 C   0  0  0  0  0  0  0  0  0  0  0  0
  -20.8174  -25.7258   25.0935 C   0  0  0  0  0  0  0  0  0  0  0  0
  -30.3943  -13.5186   19.9966 C   0  0  0  0  0  0  0  0  0  0  0  0
  -28.2469  -14.0077   19.0032 C   0  0  0  0  0  0  0  0  0  0  0  0
  -18.8180  -25.3867   23.7939 C   0  0  0  0  0  0  0  0  0  0  0  0
  -21.1801  -26.7804   24.2550 C   0  0  0  0  0  0  0  0  0  0  0  0
  -25.1265  -29.4143   25.5555 C   0  0  0  0  0  0  0  0  0  0  0  0
  -29.8528  -12.3896   20.6112 C   0  0  0  0  0  0  0  0  0  0  0  0
  -27.7055  -12.8787   19.6178 C   0  0  0  0  0  0  0  0  0  0  0  0
  -26.4268  -28.9199   25.4623 C   0  0  0  0  0  0  0  0  0  0  0  0
  -25.6683  -10.3269   21.2141 C   0  0  0  0  0  0  0  0  0  0  0  0
  -24.4268  -10.4598   21.8359 C   0  0  0  0  0  0  0  0  0  0  0  0
  -26.7804  -30.2413   23.4753 C   0  0  0  0  0  0  0  0  0  0  0  0
  -26.2895  -22.1354   23.2821 C   0  0  0  0  0  0  0  0  0  0  0  0
  -26.3815  -24.5451   23.4285 C   0  0  0  0  0  0  0  0  0  0  0  0
  -25.3448  -12.1400   23.3095 C   0  0  0  0  0  0  0  0  0  0  0  0
  -29.5913  -14.3277   19.1926 C   0  0  0  0  0  0  0  0  0  0  0  0
  -30.7532  -15.5645   17.2879 C   0  0  0  0  0  0  0  0  0  0  0  0
  -19.1778  -26.4382   22.9348 C   0  0  0  0  0  0  0  0  0  0  0  0
  -24.6390  -30.3191   24.6015 C   0  0  0  0  0  0  0  0  0  0  0  0
  -20.3584  -27.1682   23.1811 C   0  0  0  0  0  0  0  0  0  0  0  0
  -25.4744  -30.7477   23.5601 C   0  0  0  0  0  0  0  0  0  0  0  0
  -25.7559  -23.3388   23.7432 C   0  0  0  0  0  0  0  0  0  0  0  0
  -27.4487  -22.1383   22.5062 C   0  0  0  0  0  0  0  0  0  0  0  0
  -27.5407  -24.5481   22.6526 C   0  0  0  0  0  0  0  0  0  0  0  0
  -28.0743  -23.3446   22.1914 C   0  0  0  0  0  0  0  0  0  0  0  0
  -28.5084  -12.0696   20.4218 C   0  0  0  0  0  0  0  0  0  0  0  0
  -27.2530  -29.3312   24.4205 C   0  0  0  0  0  0  0  0  0  0  0  0
  -26.7481  -11.1005   21.6401 C   0  0  0  0  0  0  0  0  0  0  0  0
  -24.2650  -11.3664   22.8836 C   0  0  0  0  0  0  0  0  0  0  0  0
  -26.5863  -12.0070   22.6877 C   0  0  0  0  0  0  0  0  0  0  0  0
  -30.1500  -15.4944   18.5579 C   0  0  0  0  0  0  0  0  0  0  0  0
  -31.1153  -16.8824   17.1521 C   0  0  0  0  0  0  0  0  0  0  0  0
  -30.9671  -14.5308   16.3177 C   0  0  0  0  0  0  0  0  0  0  0  0
  -22.2746  -30.2820   22.4774 C   0  0  0  0  0  0  0  0  0  0  0  0
  -23.1526  -33.3721   22.0270 C   0  0  0  0  0  0  0  0  0  0  0  0
  -25.5872  -35.7535   22.2461 C   0  0  0  0  0  0  0  0  0  0  0  0
  -29.0549  -21.8375   19.3452 C   0  0  0  0  0  0  0  0  0  0  0  0
  -18.2542  -26.7841   21.7936 C   0  0  0  0  0  0  0  0  0  0  0  0
  -23.2429  -30.8636   24.7313 C   0  0  0  0  0  0  0  0  0  0  0  0
  -25.0057  -31.7330   22.5218 C   0  0  0  0  0  0  0  0  0  0  0  0
  -18.9343  -27.6124   20.7084 C   0  0  0  0  0  0  0  0  0  0  0  0
  -32.3817  -20.7106   19.7120 C   0  0  0  0  0  0  0  0  0  0  0  0
  -19.6695  -28.7875   21.3356 C   0  0  0  0  0  0  0  0  0  0  0  0
  -32.2443  -19.2352   19.3388 C   0  0  0  0  0  0  0  0  0  0  0  0
  -31.1989  -21.2046   20.5470 C   0  0  0  0  0  0  0  0  0  0  0  0
  -29.7422  -19.4677   19.5552 C   0  0  0  0  0  0  0  0  0  0  0  0
  -20.7885  -28.2988   22.2641 C   0  0  1  0  0  0  0  0  0  0  0  0
  -22.6802  -31.3856   23.4128 C   0  0  1  0  0  0  0  0  0  0  0  0
  -30.8882  -18.9620   18.6655 C   0  0  2  0  0  0  0  0  0  0  0  0
  -26.9900  -20.0563   21.1865 C   0  0  0  0  0  0  0  0  0  0  0  0
  -29.4527  -24.9454   18.3682 C   0  0  0  0  0  0  0  0  0  0  0  0
  -24.7026  -22.5846   25.9055 C   0  0  0  0  0  0  0  0  0  0  0  0
  -23.3025  -22.7647   23.8168 C   0  0  0  0  0  0  0  0  0  0  0  0
  -26.0193  -38.1788   21.7675 C   0  0  0  0  0  0  0  0  0  0  0  0
  -31.2124  -27.7753   23.9423 C   0  0  0  0  0  0  0  0  0  0  0  0
  -23.3896  -32.7402   19.0514 C   0  0  0  0  0  0  0  0  0  0  0  0
  -24.7043  -34.8534   18.7785 C   0  0  0  0  0  0  0  0  0  0  0  0
  -22.3400  -34.9506   19.5681 C   0  0  0  0  0  0  0  0  0  0  0  0
  -26.1344  -36.3379   25.0953 C   0  0  0  0  0  0  0  0  0  0  0  0
  -27.9992  -20.8360   22.0239 C   0  0  0  0  0  0  0  0  0  0  0  0
  -28.1976  -25.8659   22.3263 C   0  0  0  0  0  0  0  0  0  0  0  0
  -29.3169  -23.3475   21.3592 C   0  0  0  0  0  0  0  0  0  0  0  0
  -29.4109  -26.1934   23.2078 C   0  0  0  0  0  0  0  0  0  0  0  0
  -28.4358  -24.2210   19.2269 C   0  0  0  0  0  0  0  0  0  0  0  0
  -29.0798  -28.7383   23.0179 C   0  0  0  0  0  0  0  0  0  1  0  0
  -24.5170  -23.3356   24.5733 C   0  0  0  0  0  0  0  0  0  0  0  0
  -24.1326  -34.0846   21.1266 C   0  0  1  0  0  0  0  0  0  0  0  0
  -25.5690  -37.1640   22.8069 C   0  0  2  0  0  0  0  0  0  0  0  0
  -30.0677  -27.5663   22.9427 C   0  0  1  0  0  0  0  0  0  0  0  0
  -23.6501  -34.1371   19.6495 C   0  0  0  0  0  0  0  0  0  0  0  0
  -30.1283  -16.6739   19.1843 N   0  0  0  0  0  0  0  0  0  0  0  0
  -30.7226  -17.4976   18.3042 N   0  0  0  0  0  0  0  0  0  0  0  0
  -23.6306  -32.2318   22.6882 N   0  0  0  0  0  0  0  0  0  0  0  0
  -29.9241  -20.8818   19.8916 N   0  0  0  0  0  0  0  0  0  0  0  0
  -31.7283  -17.5635   16.1607 N   0  0  0  0  0  0  0  0  0  0  0  0
  -30.5332  -13.2324   16.6181 N   0  0  0  0  0  0  0  0  0  0  0  0
  -21.3210  -29.4269   22.9960 N   0  0  0  0  0  0  0  0  0  0  0  0
  -24.3612  -35.3943   21.7274 N   0  0  0  0  0  0  0  0  0  0  0  0
  -29.0351  -23.1053   19.9456 N   0  0  0  0  0  0  0  0  0  0  0  0
  -26.4756  -37.2646   23.9855 N   0  3  0  0  0  0  0  0  0  0  0  0
  -31.5411  -14.7485   15.2238 O   0  0  0  0  0  0  0  0  0  0  0  0
  -22.7877  -30.2122   21.3667 O   0  0  0  0  0  0  0  0  0  0  0  0
  -22.0074  -33.8150   22.1451 O   0  0  0  0  0  0  0  0  0  0  0  0
  -26.5899  -35.0429   22.2627 O   0  0  0  0  0  0  0  0  0  0  0  0
  -28.3294  -21.5713   18.3783 O   0  0  0  0  0  0  0  0  0  0  0  0
  -27.9798  -10.9679   21.0212 O   0  0  0  0  0  0  0  0  0  0  0  0
  -28.5223  -28.8497   24.3268 O   0  0  0  0  0  0  0  0  0  1  0  0
  -23.0724  -11.4950   23.4796 F   0  0  0  0  0  0  0  0  0  0  0  0
  -27.6196  -12.7538   23.1006 F   0  0  0  0  0  0  0  0  0  0  0  0
  1  2  1  0  0  0  0
  1  5  2  0  0  0  0
  2  6  2  0  0  0  0
  3  8  2  0  0  0  0
  3 17  1  0  0  0  0
  4  9  1  0  0  0  0
  4 17  2  0  0  0  0
  5 19  1  0  0  0  0
  6 21  1  0  0  0  0
  7 10  2  0  0  0  0
  7 20  1  0  0  0  0
  8 27  1  0  0  0  0
  9 27  2  0  0  0  0
 10 28  1  0  0  0  0
 11 12  2  0  0  0  0
 11 29  1  0  0  0  0
 12 30  1  0  0  0  0
 13 22  1  0  0  0  0
 13 28  2  0  0  0  0
 14 23  2  0  0  0  0
 14 24  1  0  0  0  0
 15 23  1  0  0  0  0
 15 25  2  0  0  0  0
 16 30  2  0  0  0  0
 16 31  1  0  0  0  0
 17 32  1  0  0  0  0
 18 32  1  0  0  0  0
 18 33  2  0  0  0  0
 18 34  1  0  0  0  0
 19 21  2  0  0  0  0
 19 39  1  0  0  0  0
 20 22  2  0  0  0  0
 20 40  1  0  0  0  0
 21 48  1  0  0  0  0
 22 41  1  0  0  0  0
 23 67  1  0  0  0  0
 24 26  2  0  0  0  0
 24 61  1  0  0  0  0
 25 26  1  0  0  0  0
 25 62  1  0  0  0  0
 26 63  1  0  0  0  0
 27 87  1  0  0  0  0
 28 88  1  0  0  0  0
 29 31  2  0  0  0  0
 29 87  1  0  0  0  0
 30 89  1  0  0  0  0
 31 90  1  0  0  0  0
 32 72  2  0  0  0  0
 33 73  1  0  0  0  0
 33 76  1  0  0  0  0
 34 77  1  0  0  0  0
 34 82  2  0  0  0  0
 35 49  1  0  0  0  0
 35 78  1  0  0  0  0
 35 83  2  0  0  0  0
 36 68  1  0  0  0  0
 36 74  1  0  0  0  0
 36 84  2  0  0  0  0
 37 69  1  0  0  0  0
 37 79  1  0  0  0  0
 37 85  2  0  0  0  0
 38 75  1  0  0  0  0
 38 80  1  0  0  0  0
 38 86  2  0  0  0  0
 39 42  1  0  0  0  0
 40 49  1  0  0  0  0
 41 74  1  0  0  0  0
 42 44  1  0  0  0  0
 43 45  1  0  0  0  0
 43 46  1  0  0  0  0
 44 48  1  0  0  0  0
 45 50  1  0  0  0  0
 46 75  1  0  0  0  0
 47 50  1  0  0  0  0
 47 75  1  0  0  0  0
 48 78  1  0  0  0  0
 49 74  1  0  0  0  0
 50 73  1  0  0  0  0
 51 61  1  0  0  0  0
 52 65  1  0  0  0  0
 53 67  1  0  0  0  0
 54 67  1  0  0  0  0
 55 69  1  0  0  0  0
 56 70  1  0  0  0  0
 57 71  1  0  0  0  0
 58 71  1  0  0  0  0
 59 71  1  0  0  0  0
 60 81  1  0  0  0  0
 62 64  1  0  0  0  0
 63 80  1  0  0  0  0
 64 70  1  0  0  0  0
 65 80  1  0  0  0  0
 66 70  1  0  0  0  0
 66 88  1  0  0  0  0
 68 71  1  0  0  0  0
 68 79  1  0  0  0  0
 69 81  1  0  0  0  0
 72 73  1  0  0  0  0
M  CHG  1  81   1
M  ISO  4  38 100  66 101  80 100  88 101
M  END
> <Batch ID>
0099

> <Smiles>
CCc1cc(C(C)C)cc(CCC(C)[101CH2:1][101O:1]c2ccc3c(c2)CN(C(=O)C(NC(=O)C(C)NC)C(C)(C)C)C(C(=O)NC2CCCc4ccccc42)C3)c1C[100N:0](CC)[100C:0](=O)N1CCCC(n2nc(-c3ccc(Oc4ccc(F)cc4F)cc3)c(C(N)=O)c2N)C1

> <Shape>
0.242

> <Color>
0.106

> <Negative vol penalty>
0.000

$$$$

  -OEChem-04052319313D

 85 93  0     1  0  0  0  0  0999 V2000
  -22.8756   -7.7763   22.0553 C   0  0  0  0  0  0  0  0  0  0  0  0
  -23.8732   -8.7029   21.7695 C   0  0  0  0  0  0  0  0  0  0  0  0
  -21.1764  -25.6808   22.3955 C   0  0  0  0  0  0  0  0  0  0  0  0
  -21.2040  -26.0872   20.0141 C   0  0  0  0  0  0  0  0  0  0  0  0
  -21.5346   -8.1346   21.9242 C   0  0  0  0  0  0  0  0  0  0  0  0
  -23.5303   -9.9881   21.3513 C   0  0  0  0  0  0  0  0  0  0  0  0
  -26.5009  -15.1896   22.6265 C   0  0  0  0  0  0  0  0  0  0  0  0
  -19.9450  -26.3288   22.4918 C   0  0  0  0  0  0  0  0  0  0  0  0
  -19.9725  -26.7352   20.1104 C   0  0  0  0  0  0  0  0  0  0  0  0
  -27.4222  -15.9453   21.9027 C   0  0  0  0  0  0  0  0  0  0  0  0
  -18.8036  -29.5093   22.5684 C   0  0  0  0  0  0  0  0  0  0  0  0
  -18.6327  -30.4234   23.6080 C   0  0  0  0  0  0  0  0  0  0  0  0
  -25.6360  -17.3689   21.1268 C   0  0  0  0  0  0  0  0  0  0  0  0
  -16.7941  -29.1088   24.4615 C   0  0  0  0  0  0  0  0  0  0  0  0
  -29.1060  -20.7225   19.3741 C   0  0  0  0  0  0  0  0  0  0  0  0
  -21.8060  -25.5601   21.1566 C   0  0  0  0  0  0  0  0  0  0  0  0
  -23.3026  -23.5210   20.8250 C   0  0  0  0  0  0  0  0  0  0  0  0
  -21.1750   -9.4280   21.5135 C   0  0  0  0  0  0  0  0  0  0  0  0
  -25.1364  -15.5119   22.5971 C   0  0  0  0  0  0  0  0  0  0  0  0
  -22.1832  -10.3638   21.2133 C   0  0  0  0  0  0  0  0  0  0  0  0
  -24.6997  -16.6173   21.8531 C   0  0  0  0  0  0  0  0  0  0  0  0
  -30.1309  -21.0038   18.4979 C   0  0  0  0  0  0  0  0  0  0  0  0
  -30.1806  -19.9499   17.5525 C   0  0  0  0  0  0  0  0  0  0  0  0
  -19.3430  -26.8559   21.3493 C   0  0  0  0  0  0  0  0  0  0  0  0
  -26.9895  -17.0333   21.1504 C   0  0  0  0  0  0  0  0  0  0  0  0
  -17.9697  -28.3950   22.4752 C   0  0  0  0  0  0  0  0  0  0  0  0
  -17.6280  -30.2231   24.5546 C   0  0  0  0  0  0  0  0  0  0  0  0
  -16.9650  -28.1947   23.4218 C   0  0  0  0  0  0  0  0  0  0  0  0
  -23.0783  -24.8914   21.0565 C   0  0  0  0  0  0  0  0  0  0  0  0
  -29.1843  -19.0567   17.8796 C   0  0  0  0  0  0  0  0  0  0  0  0
  -24.6701  -23.3933   20.8181 C   0  0  0  0  0  0  0  0  0  0  0  0
  -22.3591  -22.4586   20.6332 C   0  0  0  0  0  0  0  0  0  0  0  0
  -22.4997  -14.0211   21.6331 C   0  0  0  0  0  0  0  0  0  0  0  0
  -21.0314  -16.6037   22.9356 C   0  0  0  0  0  0  0  0  0  0  0  0
  -21.2278  -19.8763   23.8834 C   0  0  0  0  0  0  0  0  0  0  0  0
  -29.7175  -25.1831   19.2477 C   0  0  0  0  0  0  0  0  0  0  0  0
  -19.7127   -9.7544   21.3407 C   0  0  0  0  0  0  0  0  0  0  0  0
  -24.1588  -14.7030   23.4047 C   0  0  0  0  0  0  0  0  0  0  0  0
  -23.2484  -17.0172   21.8046 C   0  0  0  0  0  0  0  0  0  0  0  0
  -19.4292  -11.2518   21.2528 C   0  0  0  0  0  0  0  0  0  0  0  0
  -28.2892  -26.6655   22.1527 C   0  0  0  0  0  0  0  0  0  0  0  0
  -20.4050  -11.9244   20.2923 C   0  0  0  0  0  0  0  0  0  0  0  0
  -26.8241  -26.2284   22.1038 C   0  0  0  0  0  0  0  0  0  0  0  0
  -28.8425  -26.9422   20.7565 C   0  0  0  0  0  0  0  0  0  0  0  0
  -27.2070  -25.4015   19.7440 C   0  0  0  0  0  0  0  0  0  0  0  0
  -21.8509  -11.7754   20.7808 C   0  0  1  0  0  0  0  0  0  0  0  0
  -22.7262  -14.8107   22.8913 C   0  0  1  0  0  0  0  0  0  0  0  0
  -26.6209  -25.0571   21.1240 C   0  0  2  0  0  0  0  0  0  0  0  0
  -28.7911  -17.7871   17.2324 C   0  0  0  0  0  0  0  0  0  0  0  0
  -30.4230  -19.8341   15.0462 C   0  0  0  0  0  0  0  0  0  0  0  0
  -32.0328  -18.5814   16.5275 C   0  0  0  0  0  0  0  0  0  0  0  0
  -19.8541  -21.7237   24.8823 C   0  0  0  0  0  0  0  0  0  0  0  0
  -19.6009  -16.9798   20.2669 C   0  0  0  0  0  0  0  0  0  0  0  0
  -19.0118  -19.3034   20.9894 C   0  0  0  0  0  0  0  0  0  0  0  0
  -18.1642  -17.3449   22.2811 C   0  0  0  0  0  0  0  0  0  0  0  0
  -23.0341  -20.1155   26.2156 C   0  0  0  0  0  0  0  0  0  0  0  0
  -30.4422  -23.3610   17.7266 C   0  0  0  0  0  0  0  0  0  0  0  0
  -27.3795  -18.8775   19.6894 C   0  0  0  0  0  0  0  0  0  1  0  0
  -31.1255  -19.8286   16.4231 C   0  0  0  0  0  0  0  0  0  0  0  0
  -20.6113  -17.9627   22.4300 C   0  0  1  0  0  0  0  0  0  0  0  0
  -20.8168  -20.5806   25.1639 C   0  0  2  0  0  0  0  0  0  0  0  0
  -31.0101  -22.1892   18.5457 C   0  0  0  0  0  0  0  0  0  0  0  0
  -19.3742  -17.8893   21.4910 C   0  0  0  0  0  0  0  0  0  0  0  0
  -24.2125  -25.5846   21.1874 N   0  0  0  0  0  0  0  0  0  0  0  0
  -28.5375  -19.5367   18.9884 N   0  0  0  0  0  0  0  0  0  0  0  0
  -25.1626  -24.6460   21.0377 N   0  0  0  0  0  0  0  0  0  0  0  0
  -22.3303  -16.1913   22.6061 N   0  0  0  0  0  0  0  0  0  0  0  0
  -28.6193  -25.7921   19.8771 N   0  0  0  0  0  0  0  0  0  0  0  0
  -25.4873  -22.3327   20.6458 N   0  0  0  0  0  0  0  0  0  0  0  0
  -20.9919  -22.7644   20.6704 N   0  0  0  0  0  0  0  0  0  0  0  0
  -22.1214  -12.7103   21.8519 N   0  0  0  0  0  0  0  0  0  0  0  0
  -20.4158  -18.7955   23.6118 N   0  0  0  0  0  0  0  0  0  0  0  0
  -29.4186  -24.0955   18.4362 N   0  0  0  0  0  0  0  0  0  0  0  0
  -22.0139  -21.1343   25.8576 N   0  3  0  0  0  0  0  0  0  0  0  0
  -22.7177  -21.2704   20.4512 O   0  0  0  0  0  0  0  0  0  0  0  0
  -22.6552  -14.5617   20.5444 O   0  0  0  0  0  0  0  0  0  0  0  0
  -20.2389  -15.9359   23.6045 O   0  0  0  0  0  0  0  0  0  0  0  0
  -22.1721  -20.2501   23.1912 O   0  0  0  0  0  0  0  0  0  0  0  0
  -30.8788  -25.5760   19.4020 O   0  0  0  0  0  0  0  0  0  0  0  0
  -18.1412  -27.4880   21.4430 O   0  0  0  0  0  0  0  0  0  0  0  0
  -27.8866  -17.7722   20.4425 O   0  0  0  0  0  0  0  0  0  1  0  0
  -17.4649  -31.1002   25.5538 F   0  0  0  0  0  0  0  0  0  0  0  0
  -16.1616  -27.1255   23.3383 F   0  0  0  0  0  0  0  0  0  0  0  0
  -31.2229  -22.6592   19.8237 F   0  0  0  0  0  0  0  0  0  0  0  0
  -32.2801  -21.9452   18.0693 F   0  0  0  0  0  0  0  0  0  0  0  0
  1  2  1  0  0  0  0
  1  5  2  0  0  0  0
  2  6  2  0  0  0  0
  3  8  2  0  0  0  0
  3 16  1  0  0  0  0
  4  9  1  0  0  0  0
  4 16  2  0  0  0  0
  5 18  1  0  0  0  0
  6 20  1  0  0  0  0
  7 10  2  0  0  0  0
  7 19  1  0  0  0  0
  8 24  1  0  0  0  0
  9 24  2  0  0  0  0
 10 25  1  0  0  0  0
 11 12  2  0  0  0  0
 11 26  1  0  0  0  0
 12 27  1  0  0  0  0
 13 21  1  0  0  0  0
 13 25  2  0  0  0  0
 14 27  2  0  0  0  0
 14 28  1  0  0  0  0
 15 22  2  0  0  0  0
 15 65  1  0  0  0  0
 16 29  1  0  0  0  0
 17 29  1  0  0  0  0
 17 31  2  0  0  0  0
 17 32  1  0  0  0  0
 18 20  2  0  0  0  0
 18 37  1  0  0  0  0
 19 21  2  0  0  0  0
 19 38  1  0  0  0  0
 20 46  1  0  0  0  0
 21 39  1  0  0  0  0
 22 23  1  0  0  0  0
 22 62  1  0  0  0  0
 23 30  2  0  0  0  0
 23 59  1  0  0  0  0
 24 80  1  0  0  0  0
 25 81  1  0  0  0  0
 26 28  2  0  0  0  0
 26 80  1  0  0  0  0
 27 82  1  0  0  0  0
 28 83  1  0  0  0  0
 29 64  2  0  0  0  0
 30 49  1  0  0  0  0
 30 65  1  0  0  0  0
 31 66  1  0  0  0  0
 31 69  1  0  0  0  0
 32 70  1  0  0  0  0
 32 75  2  0  0  0  0
 33 47  1  0  0  0  0
 33 71  1  0  0  0  0
 33 76  2  0  0  0  0
 34 60  1  0  0  0  0
 34 67  1  0  0  0  0
 34 77  2  0  0  0  0
 35 61  1  0  0  0  0
 35 72  1  0  0  0  0
 35 78  2  0  0  0  0
 36 68  1  0  0  0  0
 36 73  1  0  0  0  0
 36 79  2  0  0  0  0
 37 40  1  0  0  0  0
 38 47  1  0  0  0  0
 39 67  1  0  0  0  0
 40 42  1  0  0  0  0
 41 43  1  0  0  0  0
 41 44  1  0  0  0  0
 42 46  1  0  0  0  0
 43 48  1  0  0  0  0
 44 68  1  0  0  0  0
 45 48  1  0  0  0  0
 45 68  1  0  0  0  0
 46 71  1  0  0  0  0
 47 67  1  0  0  0  0
 48 66  1  0  0  0  0
 50 59  1  0  0  0  0
 51 59  1  0  0  0  0
 52 61  1  0  0  0  0
 53 63  1  0  0  0  0
 54 63  1  0  0  0  0
 55 63  1  0  0  0  0
 56 74  1  0  0  0  0
 57 62  1  0  0  0  0
 57 73  1  0  0  0  0
 58 65  1  0  0  0  0
 58 81  1  0  0  0  0
 60 63  1  0  0  0  0
 60 72  1  0  0  0  0
 61 74  1  0  0  0  0
 62 84  1  0  0  0  0
 62 85  1  0  0  0  0
 64 66  1  0  0  0  0
M  CHG  1  74   1
M  ISO  4  36 100  58 101  73 100  81 101
M  END
> <Batch ID>
0099

> <Smiles>
CNC(C)C(=O)NC(C(=O)N1Cc2cc([101O:1][101CH2:1]n3cc(C(F)(F)C[100NH:0][100C:0](=O)N4CCCC(n5nc(-c6ccc(Oc7ccc(F)cc7F)cc6)c(C(N)=O)c5N)C4)c(C(C)C)c3C)ccc2CC1C(=O)NC1CCCc2ccccc21)C(C)(C)C

> <Shape>
0.187

> <Color>
0.086

> <Negative vol penalty>
0.000

$$$$

  -OEChem-04052319313D

 85 93  0     1  0  0  0  0  0999 V2000
  -31.4095  -21.4394   28.4946 C   0  0  0  0  0  0  0  0  0  0  0  0
  -30.7728  -21.3123   27.2642 C   0  0  0  0  0  0  0  0  0  0  0  0
  -23.2406   -9.7727   19.9317 C   0  0  0  0  0  0  0  0  0  0  0  0
  -23.5643  -10.0547   22.3092 C   0  0  0  0  0  0  0  0  0  0  0  0
  -30.6646  -21.7298   29.6369 C   0  0  0  0  0  0  0  0  0  0  0  0
  -29.3907  -21.4746   27.1755 C   0  0  0  0  0  0  0  0  0  0  0  0
  -28.0206  -24.3458   23.2354 C   0  0  0  0  0  0  0  0  0  0  0  0
  -22.4965   -8.6172   20.1700 C   0  0  0  0  0  0  0  0  0  0  0  0
  -22.8202   -8.8992   22.5476 C   0  0  0  0  0  0  0  0  0  0  0  0
  -28.0234  -23.7442   21.9777 C   0  0  0  0  0  0  0  0  0  0  0  0
  -23.3034   -5.5553   22.4240 C   0  0  0  0  0  0  0  0  0  0  0  0
  -23.8050   -4.6410   23.3504 C   0  0  0  0  0  0  0  0  0  0  0  0
  -25.6335  -23.4491   22.1202 C   0  0  0  0  0  0  0  0  0  0  0  0
  -21.8140   -4.9087   24.6926 C   0  0  0  0  0  0  0  0  0  0  0  0
  -28.4133  -18.3182   20.7191 C   0  0  0  0  0  0  0  0  0  0  0  0
  -23.7745  -10.4915   21.0013 C   0  0  0  0  0  0  0  0  0  0  0  0
  -24.0606  -13.0040   20.6652 C   0  0  0  0  0  0  0  0  0  0  0  0
  -29.2739  -21.9053   29.5605 C   0  0  0  0  0  0  0  0  0  0  0  0
  -26.8237  -24.4940   23.9508 C   0  0  0  0  0  0  0  0  0  0  0  0
  -28.6264  -21.7664   28.3180 C   0  0  0  0  0  0  0  0  0  0  0  0
  -25.6178  -24.0552   23.3857 C   0  0  0  0  0  0  0  0  0  0  0  0
  -27.2930  -19.1186   20.7604 C   0  0  0  0  0  0  0  0  0  0  0  0
  -26.8470  -19.1530   22.1047 C   0  0  0  0  0  0  0  0  0  0  0  0
  -22.2863   -8.1805   21.4780 C   0  0  0  0  0  0  0  0  0  0  0  0
  -26.8302  -23.2931   21.4211 C   0  0  0  0  0  0  0  0  0  0  0  0
  -22.0571   -6.1463   22.6320 C   0  0  0  0  0  0  0  0  0  0  0  0
  -23.0603   -4.3177   24.4847 C   0  0  0  0  0  0  0  0  0  0  0  0
  -21.3124   -5.8230   23.7662 C   0  0  0  0  0  0  0  0  0  0  0  0
  -24.5437  -11.6848   20.7557 C   0  0  0  0  0  0  0  0  0  0  0  0
  -27.7083  -18.3726   22.8439 C   0  0  0  0  0  0  0  0  0  0  0  0
  -25.1792  -13.7635   20.4237 C   0  0  0  0  0  0  0  0  0  0  0  0
  -22.7205  -13.4986   20.7886 C   0  0  0  0  0  0  0  0  0  0  0  0
  -25.7266  -23.4205   26.7343 C   0  0  0  0  0  0  0  0  0  0  0  0
  -23.2316  -25.3821   26.0640 C   0  0  0  0  0  0  0  0  0  0  0  0
  -21.3929  -27.0291   23.7075 C   0  0  0  0  0  0  0  0  0  0  0  0
  -30.8518  -13.5777   22.1178 C   0  0  0  0  0  0  0  0  0  0  0  0
  -28.5051  -22.1715   30.8304 C   0  0  0  0  0  0  0  0  0  0  0  0
  -26.8339  -25.1692   25.2949 C   0  0  0  0  0  0  0  0  0  0  0  0
  -24.3031  -24.2091   24.1041 C   0  0  0  0  0  0  0  0  0  0  0  0
  -27.0930  -22.6987   30.5884 C   0  0  0  0  0  0  0  0  0  0  0  0
  -29.7054  -12.8698   18.6702 C   0  0  0  0  0  0  0  0  0  0  0  0
  -26.3907  -21.8712   29.5166 C   0  0  0  0  0  0  0  0  0  0  0  0
  -28.2261  -12.5454   18.8710 C   0  0  0  0  0  0  0  0  0  0  0  0
  -30.5334  -12.5302   19.9058 C   0  0  0  0  0  0  0  0  0  0  0  0
  -28.5561  -12.8389   21.3581 C   0  0  0  0  0  0  0  0  0  0  0  0
  -27.1321  -21.9598   28.1772 C   0  0  1  0  0  0  0  0  0  0  0  0
  -25.6288  -24.8039   26.1562 C   0  0  1  0  0  0  0  0  0  0  0  0
  -27.6866  -13.2126   20.1482 C   0  0  2  0  0  0  0  0  0  0  0  0
  -25.6745  -19.8891   22.6210 C   0  0  0  0  0  0  0  0  0  0  0  0
  -27.7115  -18.0614   24.2890 C   0  0  0  0  0  0  0  0  0  0  0  0
  -26.1507  -18.8095   18.5492 C   0  0  0  0  0  0  0  0  0  0  0  0
  -19.3911  -28.5221   23.4601 C   0  0  0  0  0  0  0  0  0  0  0  0
  -21.3936  -22.9847   26.4929 C   0  0  0  0  0  0  0  0  0  0  0  0
  -19.5774  -24.2576   25.3313 C   0  0  0  0  0  0  0  0  0  0  0  0
  -20.5486  -25.1324   27.4559 C   0  0  0  0  0  0  0  0  0  0  0  0
  -31.3258  -15.1728   23.9373 C   0  0  0  0  0  0  0  0  0  0  0  0
  -23.0188  -29.2105   22.5428 C   0  0  0  0  0  0  0  0  0  0  0  0
  -27.6088  -20.8388   18.9006 C   0  0  0  0  0  0  0  0  0  0  0  0
  -29.7521  -17.0005   22.3590 C   0  0  0  0  0  0  0  0  0  0  0  0
  -29.3229  -15.5477   22.5467 C   0  0  0  0  0  0  0  0  0  0  0  0
  -28.0077  -21.9937   19.8146 C   0  0  0  0  0  0  0  0  0  1  0  0
  -26.6612  -19.8283   19.5754 C   0  0  2  0  0  0  0  0  0  0  0  0
  -21.9191  -25.2310   25.3337 C   0  0  1  0  0  0  0  0  0  0  0  0
  -20.9006  -28.4633   23.6352 C   0  0  2  0  0  0  0  0  0  0  0  0
  -20.8845  -24.3966   26.1405 C   0  0  0  0  0  0  0  0  0  0  0  0
  -25.8662  -11.6073   20.5853 N   0  0  0  0  0  0  0  0  0  0  0  0
  -28.6566  -17.8705   21.9914 N   0  0  0  0  0  0  0  0  0  0  0  0
  -26.2236  -12.8872   20.3853 N   0  0  0  0  0  0  0  0  0  0  0  0
  -24.3658  -24.8699   25.4182 N   0  0  0  0  0  0  0  0  0  0  0  0
  -29.9740  -13.1417   21.1117 N   0  0  0  0  0  0  0  0  0  0  0  0
  -25.3614  -15.0888   20.2424 N   0  0  0  0  0  0  0  0  0  0  0  0
  -21.6901  -12.5816   21.0369 N   0  0  0  0  0  0  0  0  0  0  0  0
  -26.8437  -23.2176   27.5221 N   0  0  0  0  0  0  0  0  0  0  0  0
  -21.4745  -26.5821   25.0094 N   0  0  0  0  0  0  0  0  0  0  0  0
  -30.4449  -14.6765   22.8896 N   0  0  0  0  0  0  0  0  0  0  0  0
  -21.5348  -29.1714   22.4875 N   0  3  0  0  0  0  0  0  0  0  0  0
  -22.4427  -14.7157   20.6655 O   0  0  0  0  0  0  0  0  0  0  0  0
  -24.8525  -22.5985   26.4854 O   0  0  0  0  0  0  0  0  0  0  0  0
  -23.2509  -25.9405   27.1638 O   0  0  0  0  0  0  0  0  0  0  0  0
  -21.6731  -26.3699   22.7088 O   0  0  0  0  0  0  0  0  0  0  0  0
  -31.9415  -13.0227   22.3087 O   0  0  0  0  0  0  0  0  0  0  0  0
  -21.5601   -7.0531   21.7109 O   0  0  0  0  0  0  0  0  0  0  0  0
  -26.8302  -22.7050   20.1940 O   0  0  0  0  0  0  0  0  0  1  0  0
  -23.5415   -3.4386   25.3734 F   0  0  0  0  0  0  0  0  0  0  0  0
  -20.1140   -6.3866   23.9708 F   0  0  0  0  0  0  0  0  0  0  0  0
  1  2  1  0  0  0  0
  1  5  2  0  0  0  0
  2  6  2  0  0  0  0
  3  8  2  0  0  0  0
  3 16  1  0  0  0  0
  4  9  1  0  0  0  0
  4 16  2  0  0  0  0
  5 18  1  0  0  0  0
  6 20  1  0  0  0  0
  7 10  2  0  0  0  0
  7 19  1  0  0  0  0
  8 24  1  0  0  0  0
  9 24  2  0  0  0  0
 10 25  1  0  0  0  0
 11 12  2  0  0  0  0
 11 26  1  0  0  0  0
 12 27  1  0  0  0  0
 13 21  1  0  0  0  0
 13 25  2  0  0  0  0
 14 27  2  0  0  0  0
 14 28  1  0  0  0  0
 15 22  2  0  0  0  0
 15 67  1  0  0  0  0
 16 29  1  0  0  0  0
 17 29  1  0  0  0  0
 17 31  2  0  0  0  0
 17 32  1  0  0  0  0
 18 20  2  0  0  0  0
 18 37  1  0  0  0  0
 19 21  2  0  0  0  0
 19 38  1  0  0  0  0
 20 46  1  0  0  0  0
 21 39  1  0  0  0  0
 22 23  1  0  0  0  0
 22 62  1  0  0  0  0
 23 30  2  0  0  0  0
 23 49  1  0  0  0  0
 24 82  1  0  0  0  0
 25 83  1  0  0  0  0
 26 28  2  0  0  0  0
 26 82  1  0  0  0  0
 27 84  1  0  0  0  0
 28 85  1  0  0  0  0
 29 66  2  0  0  0  0
 30 50  1  0  0  0  0
 30 67  1  0  0  0  0
 31 68  1  0  0  0  0
 31 71  1  0  0  0  0
 32 72  1  0  0  0  0
 32 77  2  0  0  0  0
 33 47  1  0  0  0  0
 33 73  1  0  0  0  0
 33 78  2  0  0  0  0
 34 63  1  0  0  0  0
 34 69  1  0  0  0  0
 34 79  2  0  0  0  0
 35 64  1  0  0  0  0
 35 74  1  0  0  0  0
 35 80  2  0  0  0  0
 36 70  1  0  0  0  0
 36 75  1  0  0  0  0
 36 81  2  0  0  0  0
 37 40  1  0  0  0  0
 38 47  1  0  0  0  0
 39 69  1  0  0  0  0
 40 42  1  0  0  0  0
 41 43  1  0  0  0  0
 41 44  1  0  0  0  0
 42 46  1  0  0  0  0
 43 48  1  0  0  0  0
 44 70  1  0  0  0  0
 45 48  1  0  0  0  0
 45 70  1  0  0  0  0
 46 73  1  0  0  0  0
 47 69  1  0  0  0  0
 48 68  1  0  0  0  0
 51 62  1  0  0  0  0
 52 64  1  0  0  0  0
 53 65  1  0  0  0  0
 54 65  1  0  0  0  0
 55 65  1  0  0  0  0
 56 75  1  0  0  0  0
 57 76  1  0  0  0  0
 58 61  1  0  0  0  0
 58 62  1  0  0  0  0
 59 60  1  0  0  0  0
 59 67  1  0  0  0  0
 60 75  1  0  0  0  0
 61 83  1  0  0  0  0
 63 65  1  0  0  0  0
 63 74  1  0  0  0  0
 64 76  1  0  0  0  0
 66 68  1  0  0  0  0
M  CHG  1  76   1
M  ISO  4  36 100  61 101  75 100  83 101
M  END
> <Batch ID>
0099

> <Smiles>
CNC(C)C(=O)NC(C(=O)N1Cc2cc([101O:1][101CH2:1]CC(C)c3cn(CC[100N:0](C)[100C:0](=O)N4CCCC(n5nc(-c6ccc(Oc7ccc(F)cc7F)cc6)c(C(N)=O)c5N)C4)c(C)c3C)ccc2CC1C(=O)NC1CCCc2ccccc21)C(C)(C)C

> <Shape>
0.221

> <Color>
0.207

> <Negative vol penalty>
0.000

$$$$

  -OEChem-04052319313D

 86 94  0     1  0  0  0  0  0999 V2000
  -18.4544  -24.6913   21.9028 C   0  0  0  0  0  0  0  0  0  0  0  0
  -19.8237  -24.7035   21.6574 C   0  0  0  0  0  0  0  0  0  0  0  0
  -24.2705  -10.3303   22.4929 C   0  0  0  0  0  0  0  0  0  0  0  0
  -25.2676   -8.2356   21.8184 C   0  0  0  0  0  0  0  0  0  0  0  0
  -17.7399  -25.8884   21.9206 C   0  0  0  0  0  0  0  0  0  0  0  0
  -20.4792  -25.9128   21.4286 C   0  0  0  0  0  0  0  0  0  0  0  0
  -24.8431  -26.2690   23.9732 C   0  0  0  0  0  0  0  0  0  0  0  0
  -23.0182   -9.7182   22.5428 C   0  0  0  0  0  0  0  0  0  0  0  0
  -24.0152   -7.6234   21.8684 C   0  0  0  0  0  0  0  0  0  0  0  0
  -25.9407  -25.5841   23.4537 C   0  0  0  0  0  0  0  0  0  0  0  0
  -21.9407   -6.3886   24.2331 C   0  0  0  0  0  0  0  0  0  0  0  0
  -21.8549   -5.1414   24.8517 C   0  0  0  0  0  0  0  0  0  0  0  0
  -26.7608  -27.6393   22.4930 C   0  0  0  0  0  0  0  0  0  0  0  0
  -21.0522   -4.1734   22.7887 C   0  0  0  0  0  0  0  0  0  0  0  0
  -25.3953   -9.5890   22.1307 C   0  0  0  0  0  0  0  0  0  0  0  0
  -27.6251  -10.3294   23.1243 C   0  0  0  0  0  0  0  0  0  0  0  0
  -18.3886  -27.1139   21.7016 C   0  0  0  0  0  0  0  0  0  0  0  0
  -24.6901  -27.6444   23.7468 C   0  0  0  0  0  0  0  0  0  0  0  0
  -19.7724  -27.1274   21.4423 C   0  0  0  0  0  0  0  0  0  0  0  0
  -25.6616  -28.3398   23.0128 C   0  0  0  0  0  0  0  0  0  0  0  0
  -22.8905   -8.3648   22.2306 C   0  0  0  0  0  0  0  0  0  0  0  0
  -26.8983  -26.2687   22.7111 C   0  0  0  0  0  0  0  0  0  0  0  0
  -21.5822   -6.5283   22.8923 C   0  0  0  0  0  0  0  0  0  0  0  0
  -21.4107   -4.0338   24.1295 C   0  0  0  0  0  0  0  0  0  0  0  0
  -21.1380   -5.4207   22.1701 C   0  0  0  0  0  0  0  0  0  0  0  0
  -26.6891  -10.2209   22.0784 C   0  0  0  0  0  0  0  0  0  0  0  0
  -28.6818  -11.0098   22.5703 C   0  0  0  0  0  0  0  0  0  0  0  0
  -27.5464   -9.8573   24.4758 C   0  0  0  0  0  0  0  0  0  0  0  0
  -22.5205  -29.4494   22.2844 C   0  0  0  0  0  0  0  0  0  0  0  0
  -24.2959  -31.8798   23.4941 C   0  0  0  0  0  0  0  0  0  0  0  0
  -27.3152  -32.9596   24.6623 C   0  0  0  0  0  0  0  0  0  0  0  0
  -30.4550  -15.2101   19.5371 C   0  0  0  0  0  0  0  0  0  0  0  0
  -17.5659  -28.3778   21.6837 C   0  0  0  0  0  0  0  0  0  0  0  0
  -23.5142  -28.3737   24.3366 C   0  0  0  0  0  0  0  0  0  0  0  0
  -25.5543  -29.8204   22.7586 C   0  0  0  0  0  0  0  0  0  0  0  0
  -18.4010  -29.6500   21.8033 C   0  0  0  0  0  0  0  0  0  0  0  0
  -29.5452  -12.1831   17.7934 C   0  0  0  0  0  0  0  0  0  0  0  0
  -19.5991  -29.5926   20.8608 C   0  0  0  0  0  0  0  0  0  0  0  0
  -28.7993  -11.3969   18.8712 C   0  0  0  0  0  0  0  0  0  0  0  0
  -29.2410  -18.0595   17.6642 C   0  0  0  0  0  0  0  0  0  0  0  0
  -29.2915  -13.6874   17.9030 C   0  0  0  0  0  0  0  0  0  0  0  0
  -29.5114  -16.5585   17.6370 C   0  0  0  0  0  0  0  0  0  0  0  0
  -31.8514  -16.9379   18.3452 C   0  0  0  0  0  0  0  0  0  0  0  0
  -28.8274  -13.4617   20.3219 C   0  0  0  0  0  0  0  0  0  0  0  0
  -20.5234  -28.4212   21.2142 C   0  0  1  0  0  0  0  0  0  0  0  0
  -23.1925  -29.6756   23.6092 C   0  0  1  0  0  0  0  0  0  0  0  0
  -31.6332  -18.4579   18.4035 C   0  0  2  0  0  0  0  0  0  0  0  0
  -29.1080  -11.9517   20.2731 C   0  0  1  0  0  0  0  0  0  0  0  0
  -30.5218  -18.8568   17.4163 C   0  0  2  0  0  0  0  0  0  0  0  0
  -28.4692  -35.0069   25.5423 C   0  0  0  0  0  0  0  0  0  0  0  0
  -33.9927  -18.8163   19.1834 C   0  0  0  0  0  0  0  0  0  0  0  0
  -33.4653  -18.8346   16.7287 C   0  0  0  0  0  0  0  0  0  0  0  0
  -24.4698  -32.9970   20.6601 C   0  0  0  0  0  0  0  0  0  0  0  0
  -26.3635  -34.4464   21.4223 C   0  0  0  0  0  0  0  0  0  0  0  0
  -24.1014  -34.7163   22.4384 C   0  0  0  0  0  0  0  0  0  0  0  0
  -27.8810  -31.6647   27.2627 C   0  0  0  0  0  0  0  0  0  0  0  0
  -29.6268  -20.8886   16.2887 C   0  0  0  0  0  0  0  0  0  0  0  0
  -28.5547  -22.4035   20.3063 C   0  0  0  0  0  0  0  0  0  0  0  0
  -29.4673  -22.0541   19.1300 C   0  0  0  0  0  0  0  0  0  0  0  0
  -28.7212  -23.8625   20.7252 C   0  0  0  0  0  0  0  0  0  0  0  0
  -29.3217  -20.5902   18.7420 C   0  0  0  0  0  0  0  0  0  0  0  0
  -27.7850  -24.2294   21.8679 C   0  0  0  0  0  0  0  0  0  1  0  0
  -25.4832  -32.6787   23.0133 C   0  0  1  0  0  0  0  0  0  0  0  0
  -27.6911  -33.7507   25.9021 C   0  0  2  0  0  0  0  0  0  0  0  0
  -32.9548  -19.1780   18.1249 C   0  0  0  0  0  0  0  0  0  0  0  0
  -25.1058  -33.6813   21.8865 C   0  0  0  0  0  0  0  0  0  0  0  0
  -27.1138  -10.7872   20.9457 N   0  0  0  0  0  0  0  0  0  0  0  0
  -28.3281  -11.2582   21.2767 N   0  0  0  0  0  0  0  0  0  0  0  0
  -24.3832  -30.4878   23.3508 N   0  0  0  0  0  0  0  0  0  0  0  0
  -29.5614  -14.1630   19.2665 N   0  0  0  0  0  0  0  0  0  0  0  0
  -30.5980  -16.1955   18.5457 N   0  0  0  0  0  0  0  0  0  0  0  0
  -29.8696  -11.4140   23.0684 N   0  0  0  0  0  0  0  0  0  0  0  0
  -26.3893   -9.1774   24.8798 N   0  0  0  0  0  0  0  0  0  0  0  0
  -21.3334  -28.7470   22.3684 N   0  0  0  0  0  0  0  0  0  0  0  0
  -26.0627  -33.3019   24.1983 N   0  0  0  0  0  0  0  0  0  0  0  0
  -28.5321  -32.9212   26.8107 N   0  3  0  0  0  0  0  0  0  0  0  0
  -30.2029  -20.3045   17.5531 N   0  3  1  0  0  0  0  0  0  0  0  0
  -28.4678  -10.0476   25.3055 O   0  0  0  0  0  0  0  0  0  0  0  0
  -23.0397  -29.8815   21.2620 O   0  0  0  0  0  0  0  0  0  0  0  0
  -23.3298  -32.4686   23.9855 O   0  0  0  0  0  0  0  0  0  0  0  0
  -28.0599  -32.1243   24.1540 O   0  0  0  0  0  0  0  0  0  0  0  0
  -31.0901  -15.2628   20.5978 O   0  0  0  0  0  0  0  0  0  0  0  0
  -21.6687   -7.7670   22.2794 O   0  0  0  0  0  0  0  0  0  0  0  0
  -27.9783  -25.5975   22.1986 O   0  0  0  0  0  0  0  0  0  1  0  0
  -21.3298   -2.8358   24.7232 F   0  0  0  0  0  0  0  0  0  0  0  0
  -20.7933   -5.5485   20.8814 F   0  0  0  0  0  0  0  0  0  0  0  0
  1  2  1  0  0  0  0
  1  5  2  0  0  0  0
  2  6  2  0  0  0  0
  3  8  2  0  0  0  0
  3 15  1  0  0  0  0
  4  9  1  0  0  0  0
  4 15  2  0  0  0  0
  5 17  1  0  0  0  0
  6 19  1  0  0  0  0
  7 10  2  0  0  0  0
  7 18  1  0  0  0  0
  8 21  1  0  0  0  0
  9 21  2  0  0  0  0
 10 22  1  0  0  0  0
 11 12  2  0  0  0  0
 11 23  1  0  0  0  0
 12 24  1  0  0  0  0
 13 20  1  0  0  0  0
 13 22  2  0  0  0  0
 14 24  2  0  0  0  0
 14 25  1  0  0  0  0
 15 26  1  0  0  0  0
 16 26  1  0  0  0  0
 16 27  2  0  0  0  0
 16 28  1  0  0  0  0
 17 19  2  0  0  0  0
 17 33  1  0  0  0  0
 18 20  2  0  0  0  0
 18 34  1  0  0  0  0
 19 45  1  0  0  0  0
 20 35  1  0  0  0  0
 21 83  1  0  0  0  0
 22 84  1  0  0  0  0
 23 25  2  0  0  0  0
 23 83  1  0  0  0  0
 24 85  1  0  0  0  0
 25 86  1  0  0  0  0
 26 67  2  0  0  0  0
 27 68  1  0  0  0  0
 27 72  1  0  0  0  0
 28 73  1  0  0  0  0
 28 78  2  0  0  0  0
 29 46  1  0  0  0  0
 29 74  1  0  0  0  0
 29 79  2  0  0  0  0
 30 63  1  0  0  0  0
 30 69  1  0  0  0  0
 30 80  2  0  0  0  0
 31 64  1  0  0  0  0
 31 75  1  0  0  0  0
 31 81  2  0  0  0  0
 32 70  1  0  0  0  0
 32 71  1  0  0  0  0
 32 82  2  0  0  0  0
 33 36  1  0  0  0  0
 34 46  1  0  0  0  0
 35 69  1  0  0  0  0
 36 38  1  0  0  0  0
 37 39  1  0  0  0  0
 37 41  1  0  0  0  0
 38 45  1  0  0  0  0
 39 48  1  0  0  0  0
 40 42  1  0  0  0  0
 40 49  1  0  0  0  0
 41 70  1  0  0  0  0
 42 71  1  0  0  0  0
 43 47  1  0  0  0  0
 43 71  1  0  0  0  0
 44 48  1  0  0  0  0
 44 70  1  0  0  0  0
 45 74  1  0  0  0  0
 46 69  1  0  0  0  0
 47 49  1  0  0  0  0
 47 65  1  0  0  0  0
 48 68  1  0  0  0  0
 49 77  1  0  0  0  0
 50 64  1  0  0  0  0
 51 65  1  0  0  0  0
 52 65  1  0  0  0  0
 53 66  1  0  0  0  0
 54 66  1  0  0  0  0
 55 66  1  0  0  0  0
 56 76  1  0  0  0  0
 57 77  1  0  0  0  0
 58 59  1  0  0  0  0
 58 60  1  0  0  0  0
 59 61  1  0  0  0  0
 60 62  1  0  0  0  0
 61 77  1  0  0  0  0
 62 84  1  0  0  0  0
 63 66  1  0  0  0  0
 63 75  1  0  0  0  0
 64 76  1  0  0  0  0
 67 68  1  0  0  0  0
M  CHG  2  76   1  77   1
M  ISO  4  32 100  62 101  71 100  84 101
M  END
> <Batch ID>
0099

> <Smiles>
CNC(C)C(=O)NC(C(=O)N1Cc2cc([101O:1][101CH2:1]CCCCN(C)C3CC[100N:0]([100C:0](=O)N4CCCC(n5nc(-c6ccc(Oc7ccc(F)cc7F)cc6)c(C(N)=O)c5N)C4)CC3C(C)C)ccc2CC1C(=O)NC1CCCc2ccccc21)C(C)(C)C

> <Shape>
0.277

> <Color>
0.093

> <Negative vol penalty>
0.000

$$$$

  -OEChem-04052319313D

 89 97  0     1  0  0  0  0  0999 V2000
  -17.2928  -30.7536   24.6322 C   0  0  0  0  0  0  0  0  0  0  0  0
  -17.6471  -29.4142   24.5065 C   0  0  0  0  0  0  0  0  0  0  0  0
  -27.1035  -12.5909   21.0337 C   0  0  0  0  0  0  0  0  0  0  0  0
  -25.7793  -14.5386   20.4952 C   0  0  0  0  0  0  0  0  0  0  0  0
  -17.8378  -31.7018   23.7674 C   0  0  0  0  0  0  0  0  0  0  0  0
  -18.5459  -29.0220   23.5151 C   0  0  0  0  0  0  0  0  0  0  0  0
  -22.7153  -24.5516   23.8856 C   0  0  0  0  0  0  0  0  0  0  0  0
  -25.9522  -11.9236   21.4515 C   0  0  0  0  0  0  0  0  0  0  0  0
  -24.6278  -13.8712   20.9130 C   0  0  0  0  0  0  0  0  0  0  0  0
  -22.7153  -23.2298   23.4422 C   0  0  0  0  0  0  0  0  0  0  0  0
  -23.3127   -9.5802   22.3215 C   0  0  0  0  0  0  0  0  0  0  0  0
  -23.1391   -8.2615   21.9016 C   0  0  0  0  0  0  0  0  0  0  0  0
  -23.8845  -23.9065   21.4436 C   0  0  0  0  0  0  0  0  0  0  0  0
  -27.8448  -20.5023   20.8171 C   0  0  0  0  0  0  0  0  0  0  0  0
  -23.1751   -8.9903   19.5984 C   0  0  0  0  0  0  0  0  0  0  0  0
  -26.7734  -22.0163   19.3283 C   0  0  0  0  0  0  0  0  0  0  0  0
  -27.0171  -13.8985   20.5556 C   0  0  0  0  0  0  0  0  0  0  0  0
  -28.7569  -14.6052   18.8290 C   0  0  0  0  0  0  0  0  0  0  0  0
  -18.7512  -31.3224   22.7711 C   0  0  0  0  0  0  0  0  0  0  0  0
  -23.2913  -25.5642   23.1050 C   0  0  0  0  0  0  0  0  0  0  0  0
  -19.1026  -29.9658   22.6353 C   0  0  0  0  0  0  0  0  0  0  0  0
  -23.8929  -25.2400   21.8806 C   0  0  0  0  0  0  0  0  0  0  0  0
  -29.0715  -20.9338   20.3248 C   0  0  0  0  0  0  0  0  0  0  0  0
  -24.7143  -12.5637   21.3911 C   0  0  0  0  0  0  0  0  0  0  0  0
  -23.2973  -22.9075   22.2197 C   0  0  0  0  0  0  0  0  0  0  0  0
  -23.4174  -10.6040   21.3799 C   0  0  0  0  0  0  0  0  0  0  0  0
  -26.6692  -21.0489   20.3147 C   0  0  0  0  0  0  0  0  0  0  0  0
  -23.0703   -7.9665   20.5400 C   0  0  0  0  0  0  0  0  0  0  0  0
  -23.3486  -10.3090   20.0184 C   0  0  0  0  0  0  0  0  0  0  0  0
  -28.2062  -14.5886   20.1245 C   0  0  0  0  0  0  0  0  0  0  0  0
  -29.0682  -21.9063   19.3378 C   0  0  0  0  0  0  0  0  0  0  0  0
  -29.8739  -15.3966   18.9409 C   0  0  0  0  0  0  0  0  0  0  0  0
  -28.2997  -13.9627   17.6316 C   0  0  0  0  0  0  0  0  0  0  0  0
  -22.2090  -28.1994   21.6952 C   0  0  0  0  0  0  0  0  0  0  0  0
  -25.3518  -28.6763   21.0492 C   0  0  0  0  0  0  0  0  0  0  0  0
  -28.4588  -27.3302   20.6235 C   0  0  0  0  0  0  0  0  0  0  0  0
  -31.1129  -19.6586   23.1645 C   0  0  0  0  0  0  0  0  0  0  0  0
  -19.2776  -32.3763   21.8295 C   0  0  0  0  0  0  0  0  0  0  0  0
  -23.3069  -26.9809   23.6099 C   0  0  0  0  0  0  0  0  0  0  0  0
  -24.5425  -26.2870   21.0144 C   0  0  0  0  0  0  0  0  0  0  0  0
  -20.5104  -31.9324   21.0462 C   0  0  0  0  0  0  0  0  0  0  0  0
  -33.1900  -16.7907   22.0864 C   0  0  0  0  0  0  0  0  0  0  0  0
  -20.3031  -30.5346   20.4718 C   0  0  0  0  0  0  0  0  0  0  0  0
  -32.1693  -15.8742   21.4142 C   0  0  0  0  0  0  0  0  0  0  0  0
  -32.5508  -17.6527   23.1709 C   0  0  0  0  0  0  0  0  0  0  0  0
  -30.3619  -17.5287   22.0275 C   0  0  0  0  0  0  0  0  0  0  0  0
  -20.0934  -29.5048   21.5885 C   0  0  1  0  0  0  0  0  0  0  0  0
  -23.4665  -28.0106   22.4956 C   0  0  1  0  0  0  0  0  0  0  0  0
  -30.9646  -16.6801   20.8979 C   0  0  2  0  0  0  0  0  0  0  0  0
  -31.4065  -24.0502   17.0148 C   0  0  0  0  0  0  0  0  0  0  0  0
  -30.4823  -20.5665   16.9056 C   0  0  0  0  0  0  0  0  0  0  0  0
  -30.8214  -27.9658   20.0652 C   0  0  0  0  0  0  0  0  0  0  0  0
  -31.3322  -23.0708   19.8091 C   0  0  0  0  0  0  0  0  0  0  0  0
  -24.5736  -28.9816   18.1147 C   0  0  0  0  0  0  0  0  0  0  0  0
  -26.9830  -28.6608   17.5146 C   0  0  0  0  0  0  0  0  0  0  0  0
  -26.2964  -30.6098   18.9119 C   0  0  0  0  0  0  0  0  0  0  0  0
  -30.1894  -21.9099   22.7663 C   0  0  0  0  0  0  0  0  0  0  0  0
  -29.4631  -26.3387   23.2249 C   0  0  0  0  0  0  0  0  0  0  0  0
  -30.3344  -20.3522   20.8589 C   0  0  0  0  0  0  0  0  0  0  0  0
  -30.1283  -23.4950   17.6375 C   0  0  0  0  0  0  0  0  0  0  0  0
  -31.1905  -21.2536   18.0701 C   0  0  0  0  0  0  0  0  0  0  0  0
  -24.0161  -19.3586   22.2317 C   0  0  0  0  0  0  0  0  0  0  0  0
  -23.3235  -20.5964   22.7799 C   0  0  0  0  0  0  0  0  0  1  0  0
  -25.4439  -19.6508   21.7979 C   0  0  0  0  0  0  0  0  0  0  0  0
  -26.2821  -28.2929   19.9238 C   0  0  1  0  0  0  0  0  0  0  0  0
  -29.8140  -27.7287   21.1795 C   0  0  2  0  0  0  0  0  0  0  0  0
  -30.3562  -22.4076   18.7713 C   0  0  0  0  0  0  0  0  0  0  0  0
  -26.0199  -29.1166   18.6314 C   0  0  0  0  0  0  0  0  0  0  0  0
  -27.9468  -22.4607   18.8251 N   0  0  0  0  0  0  0  0  0  0  0  0
  -28.9150  -15.3119   20.9954 N   0  0  0  0  0  0  0  0  0  0  0  0
  -29.9226  -15.7904   20.2458 N   0  0  0  0  0  0  0  0  0  0  0  0
  -24.5266  -27.6588   21.5486 N   0  0  0  0  0  0  0  0  0  0  0  0
  -31.3828  -18.3741   22.6645 N   0  0  0  0  0  0  0  0  0  0  0  0
  -30.8094  -15.7871   18.0494 N   0  0  0  0  0  0  0  0  0  0  0  0
  -27.1344  -13.1865   17.6931 N   0  0  0  0  0  0  0  0  0  0  0  0
  -21.3577  -29.1619   22.2037 N   0  0  0  0  0  0  0  0  0  0  0  0
  -27.6361  -28.4233   20.4511 N   0  0  0  0  0  0  0  0  0  0  0  0
  -30.4799  -20.5623   22.2977 N   0  0  0  0  0  0  0  0  0  0  0  0
  -30.3431  -26.6583   22.0714 N   0  3  0  0  0  0  0  0  0  0  0  0
  -28.9156  -14.0604   16.5432 O   0  0  0  0  0  0  0  0  0  0  0  0
  -22.0253  -27.5231   20.6900 O   0  0  0  0  0  0  0  0  0  0  0  0
  -25.3622  -29.8342   21.4745 O   0  0  0  0  0  0  0  0  0  0  0  0
  -28.1613  -26.1663   20.3643 O   0  0  0  0  0  0  0  0  0  0  0  0
  -31.4288  -19.9824   24.3166 O   0  0  0  0  0  0  0  0  0  0  0  0
  -23.5906  -11.9127   21.7985 O   0  0  0  0  0  0  0  0  0  0  0  0
  -23.2981  -21.6182   21.7842 O   0  0  0  0  0  0  0  0  0  1  0  0
  -25.4458  -20.6457   20.7831 O   0  0  0  0  0  0  0  0  0  0  0  0
  -22.9051   -6.6999   20.1368 F   0  0  0  0  0  0  0  0  0  0  0  0
  -23.4498  -11.2882   19.1091 F   0  0  0  0  0  0  0  0  0  0  0  0
  1  2  1  0  0  0  0
  1  5  2  0  0  0  0
  2  6  2  0  0  0  0
  3  8  2  0  0  0  0
  3 17  1  0  0  0  0
  4  9  1  0  0  0  0
  4 17  2  0  0  0  0
  5 19  1  0  0  0  0
  6 21  1  0  0  0  0
  7 10  2  0  0  0  0
  7 20  1  0  0  0  0
  8 24  1  0  0  0  0
  9 24  2  0  0  0  0
 10 25  1  0  0  0  0
 11 12  2  0  0  0  0
 11 26  1  0  0  0  0
 12 28  1  0  0  0  0
 13 22  1  0  0  0  0
 13 25  2  0  0  0  0
 14 23  1  0  0  0  0
 14 27  2  0  0  0  0
 15 28  2  0  0  0  0
 15 29  1  0  0  0  0
 16 27  1  0  0  0  0
 16 69  2  0  0  0  0
 17 30  1  0  0  0  0
 18 30  1  0  0  0  0
 18 32  2  0  0  0  0
 18 33  1  0  0  0  0
 19 21  2  0  0  0  0
 19 38  1  0  0  0  0
 20 22  2  0  0  0  0
 20 39  1  0  0  0  0
 21 47  1  0  0  0  0
 22 40  1  0  0  0  0
 23 31  2  0  0  0  0
 23 59  1  0  0  0  0
 24 85  1  0  0  0  0
 25 86  1  0  0  0  0
 26 29  2  0  0  0  0
 26 85  1  0  0  0  0
 27 87  1  0  0  0  0
 28 88  1  0  0  0  0
 29 89  1  0  0  0  0
 30 70  2  0  0  0  0
 31 67  1  0  0  0  0
 31 69  1  0  0  0  0
 32 71  1  0  0  0  0
 32 74  1  0  0  0  0
 33 75  1  0  0  0  0
 33 80  2  0  0  0  0
 34 48  1  0  0  0  0
 34 76  1  0  0  0  0
 34 81  2  0  0  0  0
 35 65  1  0  0  0  0
 35 72  1  0  0  0  0
 35 82  2  0  0  0  0
 36 66  1  0  0  0  0
 36 77  1  0  0  0  0
 36 83  2  0  0  0  0
 37 73  1  0  0  0  0
 37 78  1  0  0  0  0
 37 84  2  0  0  0  0
 38 41  1  0  0  0  0
 39 48  1  0  0  0  0
 40 72  1  0  0  0  0
 41 43  1  0  0  0  0
 42 44  1  0  0  0  0
 42 45  1  0  0  0  0
 43 47  1  0  0  0  0
 44 49  1  0  0  0  0
 45 73  1  0  0  0  0
 46 49  1  0  0  0  0
 46 73  1  0  0  0  0
 47 76  1  0  0  0  0
 48 72  1  0  0  0  0
 49 71  1  0  0  0  0
 50 60  1  0  0  0  0
 51 61  1  0  0  0  0
 52 66  1  0  0  0  0
 53 67  1  0  0  0  0
 54 68  1  0  0  0  0
 55 68  1  0  0  0  0
 56 68  1  0  0  0  0
 57 78  1  0  0  0  0
 58 79  1  0  0  0  0
 59 78  1  0  0  0  0
 60 67  1  0  0  0  0
 61 67  1  0  0  0  0
 62 63  1  0  0  0  0
 62 64  1  0  0  0  0
 63 86  1  0  0  0  0
 64 87  1  0  0  0  0
 65 68  1  0  0  0  0
 65 77  1  0  0  0  0
 66 79  1  0  0  0  0
 70 71  1  0  0  0  0
M  CHG  1  79   1
M  ISO  4  37 100  63 101  78 100  86 101
M  END
> <Batch ID>
0099

> <Smiles>
CCC(C)(CC)c1ncc(OCC[101CH2:1][101O:1]c2ccc3c(c2)CN(C(=O)C(NC(=O)C(C)NC)C(C)(C)C)C(C(=O)NC2CCCc4ccccc42)C3)cc1C[100N:0](C)[100C:0](=O)N1CCCC(n2nc(-c3ccc(Oc4ccc(F)cc4F)cc3)c(C(N)=O)c2N)C1

> <Shape>
0.261

> <Color>
0.064

> <Negative vol penalty>
0.000

$$$$

  -OEChem-04052319313D

 85 93  0     1  0  0  0  0  0999 V2000
  -32.7053  -19.7630   29.3664 C   0  0  0  0  0  0  0  0  0  0  0  0
  -32.3383  -19.7426   28.0246 C   0  0  0  0  0  0  0  0  0  0  0  0
  -23.0770   -9.8621   19.9453 C   0  0  0  0  0  0  0  0  0  0  0  0
  -23.8378   -9.8770   22.2384 C   0  0  0  0  0  0  0  0  0  0  0  0
  -32.3430  -20.8428   30.1706 C   0  0  0  0  0  0  0  0  0  0  0  0
  -31.6079  -20.8015   27.4865 C   0  0  0  0  0  0  0  0  0  0  0  0
  -33.3843  -22.2980   22.9865 C   0  0  0  0  0  0  0  0  0  0  0  0
  -22.3356   -8.7082   20.1987 C   0  0  0  0  0  0  0  0  0  0  0  0
  -23.0964   -8.7230   22.4918 C   0  0  0  0  0  0  0  0  0  0  0  0
  -33.0538  -21.5171   21.8798 C   0  0  0  0  0  0  0  0  0  0  0  0
  -19.8701   -7.9203   23.0978 C   0  0  0  0  0  0  0  0  0  0  0  0
  -19.1137   -7.8820   24.2691 C   0  0  0  0  0  0  0  0  0  0  0  0
  -31.3148  -23.0853   21.3002 C   0  0  0  0  0  0  0  0  0  0  0  0
  -28.1377  -19.1347   23.3997 C   0  0  0  0  0  0  0  0  0  0  0  0
  -28.8355  -20.0898   21.2932 C   0  0  0  0  0  0  0  0  0  0  0  0
  -20.3594   -5.9492   25.0104 C   0  0  0  0  0  0  0  0  0  0  0  0
  -23.8282  -10.4466   20.9651 C   0  0  0  0  0  0  0  0  0  0  0  0
  -24.1648  -12.9721   20.8380 C   0  0  0  0  0  0  0  0  0  0  0  0
  -31.6162  -21.9201   29.6397 C   0  0  0  0  0  0  0  0  0  0  0  0
  -32.6742  -23.4747   23.2650 C   0  0  0  0  0  0  0  0  0  0  0  0
  -31.2345  -21.8961   28.2846 C   0  0  0  0  0  0  0  0  0  0  0  0
  -31.6399  -23.8807   22.4096 C   0  0  0  0  0  0  0  0  0  0  0  0
  -28.0371  -20.1379   22.4359 C   0  0  0  0  0  0  0  0  0  0  0  0
  -29.0368  -18.0833   23.2209 C   0  0  0  0  0  0  0  0  0  0  0  0
  -29.7347  -19.0385   21.1143 C   0  0  0  0  0  0  0  0  0  0  0  0
  -29.8353  -18.0352   22.0782 C   0  0  0  0  0  0  0  0  0  0  0  0
  -22.3453   -8.1386   21.4720 C   0  0  0  0  0  0  0  0  0  0  0  0
  -32.0170  -21.9092   21.0381 C   0  0  0  0  0  0  0  0  0  0  0  0
  -20.8711   -6.9729   22.8828 C   0  0  0  0  0  0  0  0  0  0  0  0
  -19.3583   -6.8965   25.2255 C   0  0  0  0  0  0  0  0  0  0  0  0
  -21.1157   -5.9874   23.8391 C   0  0  0  0  0  0  0  0  0  0  0  0
  -24.5947  -11.6383   20.7038 C   0  0  0  0  0  0  0  0  0  0  0  0
  -25.2553  -13.7228   20.4722 C   0  0  0  0  0  0  0  0  0  0  0  0
  -22.8934  -13.4864   21.2560 C   0  0  0  0  0  0  0  0  0  0  0  0
  -30.8645  -24.4855   25.6748 C   0  0  0  0  0  0  0  0  0  0  0  0
  -30.8892  -27.2711   24.0128 C   0  0  0  0  0  0  0  0  0  0  0  0
  -31.2593  -28.8500   21.0100 C   0  0  0  0  0  0  0  0  0  0  0  0
  -30.7370  -14.7536   20.6556 C   0  0  0  0  0  0  0  0  0  0  0  0
  -31.2067  -23.0431   30.5594 C   0  0  0  0  0  0  0  0  0  0  0  0
  -33.0606  -24.3199   24.4476 C   0  0  0  0  0  0  0  0  0  0  0  0
  -30.8601  -25.1460   22.6532 C   0  0  0  0  0  0  0  0  0  0  0  0
  -30.7558  -24.3010   29.8216 C   0  0  0  0  0  0  0  0  0  0  0  0
  -29.6033  -12.3601   18.2758 C   0  0  0  0  0  0  0  0  0  0  0  0
  -29.7897  -23.9427   28.6968 C   0  0  0  0  0  0  0  0  0  0  0  0
  -28.1666  -12.0647   18.7101 C   0  0  0  0  0  0  0  0  0  0  0  0
  -30.5205  -12.5862   19.4757 C   0  0  0  0  0  0  0  0  0  0  0  0
  -28.6178  -13.3172   20.8611 C   0  0  0  0  0  0  0  0  0  0  0  0
  -30.4635  -23.0377   27.6582 C   0  0  1  0  0  0  0  0  0  0  0  0
  -31.9332  -25.2299   24.9255 C   0  0  1  0  0  0  0  0  0  0  0  0
  -27.6435  -13.1373   19.6843 C   0  0  2  0  0  0  0  0  0  0  0  0
  -29.1244  -17.0210   24.2675 C   0  0  0  0  0  0  0  0  0  0  0  0
  -25.9952  -21.3064   21.5309 C   0  0  0  0  0  0  0  0  0  0  0  0
  -27.7804  -22.6292   22.7218 C   0  0  0  0  0  0  0  0  0  0  0  0
  -31.1861  -31.1280   19.9600 C   0  0  0  0  0  0  0  0  0  0  0  0
  -32.9257  -19.3379   18.9909 C   0  0  0  0  0  0  0  0  0  0  0  0
  -27.8409  -27.2295   24.1412 C   0  0  0  0  0  0  0  0  0  0  0  0
  -27.8102  -28.9441   22.3170 C   0  0  0  0  0  0  0  0  0  0  0  0
  -28.8701  -29.4786   24.5110 C   0  0  0  0  0  0  0  0  0  0  0  0
  -34.0855  -28.6718   20.1498 C   0  0  0  0  0  0  0  0  0  0  0  0
  -30.5878  -19.0098   19.8681 C   0  0  0  0  0  0  0  0  0  0  0  0
  -30.7989  -16.9077   21.8865 C   0  0  0  0  0  0  0  0  0  0  0  0
  -27.0763  -21.2623   22.6274 C   0  0  0  0  0  0  0  0  0  0  0  0
  -30.0279  -27.8789   22.9322 C   0  0  1  0  0  0  0  0  0  0  0  0
  -32.0670  -30.0703   20.6064 C   0  0  2  0  0  0  0  0  0  0  0  0
  -31.9193  -19.7435   20.0603 C   0  0  2  0  0  0  0  0  0  1  0  0
  -28.6505  -28.3579   23.4716 C   0  0  0  0  0  0  0  0  0  0  0  0
  -25.8596  -11.5439   20.2852 N   0  0  0  0  0  0  0  0  0  0  0  0
  -26.2338  -12.8279   20.1532 N   0  0  0  0  0  0  0  0  0  0  0  0
  -31.2715  -25.9351   23.8260 N   0  0  0  0  0  0  0  0  0  0  0  0
  -29.9682  -13.6160   20.3591 N   0  0  0  0  0  0  0  0  0  0  0  0
  -25.4629  -15.0545   20.3954 N   0  0  0  0  0  0  0  0  0  0  0  0
  -21.8835  -12.5761   21.5962 N   0  0  0  0  0  0  0  0  0  0  0  0
  -31.3239  -23.8154   26.7925 N   0  0  0  0  0  0  0  0  0  0  0  0
  -30.8278  -28.9325   22.3170 N   0  0  0  0  0  0  0  0  0  0  0  0
  -30.1362  -15.6835   21.4953 N   0  0  0  0  0  0  0  0  0  0  0  0
  -33.1322  -29.6889   19.6364 N   0  3  0  0  0  0  0  0  0  0  0  0
  -22.6547  -14.7167   21.3100 O   0  0  0  0  0  0  0  0  0  0  0  0
  -29.7084  -24.5179   25.2696 O   0  0  0  0  0  0  0  0  0  0  0  0
  -31.2168  -27.9585   24.9832 O   0  0  0  0  0  0  0  0  0  0  0  0
  -31.0307  -27.9186   20.2414 O   0  0  0  0  0  0  0  0  0  0  0  0
  -31.8724  -14.9301   20.2010 O   0  0  0  0  0  0  0  0  0  0  0  0
  -21.6217   -7.0127   21.7197 O   0  0  0  0  0  0  0  0  0  0  0  0
  -31.6919  -21.1485   19.9576 O   0  0  0  0  0  0  0  0  0  1  0  0
  -18.6329   -6.8608   26.3509 F   0  0  0  0  0  0  0  0  0  0  0  0
  -22.0769   -5.0753   23.6386 F   0  0  0  0  0  0  0  0  0  0  0  0
  1  2  1  0  0  0  0
  1  5  2  0  0  0  0
  2  6  2  0  0  0  0
  3  8  2  0  0  0  0
  3 17  1  0  0  0  0
  4  9  1  0  0  0  0
  4 17  2  0  0  0  0
  5 19  1  0  0  0  0
  6 21  1  0  0  0  0
  7 10  2  0  0  0  0
  7 20  1  0  0  0  0
  8 27  1  0  0  0  0
  9 27  2  0  0  0  0
 10 28  1  0  0  0  0
 11 12  2  0  0  0  0
 11 29  1  0  0  0  0
 12 30  1  0  0  0  0
 13 22  1  0  0  0  0
 13 28  2  0  0  0  0
 14 23  1  0  0  0  0
 14 24  2  0  0  0  0
 15 23  2  0  0  0  0
 15 25  1  0  0  0  0
 16 30  2  0  0  0  0
 16 31  1  0  0  0  0
 17 32  1  0  0  0  0
 18 32  1  0  0  0  0
 18 33  2  0  0  0  0
 18 34  1  0  0  0  0
 19 21  2  0  0  0  0
 19 39  1  0  0  0  0
 20 22  2  0  0  0  0
 20 40  1  0  0  0  0
 21 48  1  0  0  0  0
 22 41  1  0  0  0  0
 23 62  1  0  0  0  0
 24 26  1  0  0  0  0
 24 51  1  0  0  0  0
 25 26  2  0  0  0  0
 25 60  1  0  0  0  0
 26 61  1  0  0  0  0
 27 82  1  0  0  0  0
 28 83  1  0  0  0  0
 29 31  2  0  0  0  0
 29 82  1  0  0  0  0
 30 84  1  0  0  0  0
 31 85  1  0  0  0  0
 32 67  2  0  0  0  0
 33 68  1  0  0  0  0
 33 71  1  0  0  0  0
 34 72  1  0  0  0  0
 34 77  2  0  0  0  0
 35 49  1  0  0  0  0
 35 73  1  0  0  0  0
 35 78  2  0  0  0  0
 36 63  1  0  0  0  0
 36 69  1  0  0  0  0
 36 79  2  0  0  0  0
 37 64  1  0  0  0  0
 37 74  1  0  0  0  0
 37 80  2  0  0  0  0
 38 70  1  0  0  0  0
 38 75  1  0  0  0  0
 38 81  2  0  0  0  0
 39 42  1  0  0  0  0
 40 49  1  0  0  0  0
 41 69  1  0  0  0  0
 42 44  1  0  0  0  0
 43 45  1  0  0  0  0
 43 46  1  0  0  0  0
 44 48  1  0  0  0  0
 45 50  1  0  0  0  0
 46 70  1  0  0  0  0
 47 50  1  0  0  0  0
 47 70  1  0  0  0  0
 48 73  1  0  0  0  0
 49 69  1  0  0  0  0
 50 68  1  0  0  0  0
 52 62  1  0  0  0  0
 53 62  1  0  0  0  0
 54 64  1  0  0  0  0
 55 65  1  0  0  0  0
 56 66  1  0  0  0  0
 57 66  1  0  0  0  0
 58 66  1  0  0  0  0
 59 76  1  0  0  0  0
 60 65  1  0  0  0  0
 61 75  1  0  0  0  0
 63 66  1  0  0  0  0
 63 74  1  0  0  0  0
 64 76  1  0  0  0  0
 65 83  1  0  0  0  0
 67 68  1  0  0  0  0
M  CHG  1  76   1
M  ISO  4  38 100  65 101  75 100  83 101
M  END
> <Batch ID>
0099

> <Smiles>
CNC(C)C(=O)NC(C(=O)N1Cc2cc([101O:1][101CH:1](C)Cc3cc(C(C)C)cc(C)c3C[100NH:0][100C:0](=O)N3CCCC(n4nc(-c5ccc(Oc6ccc(F)cc6F)cc5)c(C(N)=O)c4N)C3)ccc2CC1C(=O)NC1CCCc2ccccc21)C(C)(C)C

> <Shape>
0.204

> <Color>
0.196

> <Negative vol penalty>
0.000

$$$$

  -OEChem-04052319313D

 79 86  0     1  0  0  0  0  0999 V2000
  -27.6542  -32.8805   27.1374 C   0  0  0  0  0  0  0  0  0  0  0  0
  -27.8944  -31.8265   26.2618 C   0  0  0  0  0  0  0  0  0  0  0  0
  -27.0629  -12.7634   21.5939 C   0  0  0  0  0  0  0  0  0  0  0  0
  -25.1704  -13.3592   20.2153 C   0  0  0  0  0  0  0  0  0  0  0  0
  -26.3466  -33.1972   27.5032 C   0  0  0  0  0  0  0  0  0  0  0  0
  -26.8270  -31.0879   25.7522 C   0  0  0  0  0  0  0  0  0  0  0  0
  -27.2531  -30.2360   20.7785 C   0  0  0  0  0  0  0  0  0  0  0  0
  -26.2966  -11.7815   22.2216 C   0  0  0  0  0  0  0  0  0  0  0  0
  -24.4040  -12.3772   20.8430 C   0  0  0  0  0  0  0  0  0  0  0  0
  -28.1312  -29.2300   20.3777 C   0  0  0  0  0  0  0  0  0  0  0  0
  -24.0374   -9.0218   20.6774 C   0  0  0  0  0  0  0  0  0  0  0  0
  -23.2524   -8.1995   19.8692 C   0  0  0  0  0  0  0  0  0  0  0  0
  -26.2684  -27.7224   20.1012 C   0  0  0  0  0  0  0  0  0  0  0  0
  -21.2695   -8.9607   21.0207 C   0  0  0  0  0  0  0  0  0  0  0  0
  -26.4998  -13.5524   20.5908 C   0  0  0  0  0  0  0  0  0  0  0  0
  -28.0841  -14.4190   18.7890 C   0  0  0  0  0  0  0  0  0  0  0  0
  -25.2621  -32.4683   26.9903 C   0  0  0  0  0  0  0  0  0  0  0  0
  -25.8748  -29.9891   20.8542 C   0  0  0  0  0  0  0  0  0  0  0  0
  -25.5038  -31.3943   26.1125 C   0  0  0  0  0  0  0  0  0  0  0  0
  -25.3746  -28.7278   20.5008 C   0  0  0  0  0  0  0  0  0  0  0  0
  -24.9671  -11.5883   21.8462 C   0  0  0  0  0  0  0  0  0  0  0  0
  -27.6392  -27.9721   20.0418 C   0  0  0  0  0  0  0  0  0  0  0  0
  -23.4385   -9.8135   21.6573 C   0  0  0  0  0  0  0  0  0  0  0  0
  -21.8685   -8.1689   20.0408 C   0  0  0  0  0  0  0  0  0  0  0  0
  -22.0546   -9.7830   21.8289 C   0  0  0  0  0  0  0  0  0  0  0  0
  -27.2907  -14.5673   19.9424 C   0  0  0  0  0  0  0  0  0  0  0  0
  -28.6255  -15.6643   18.5823 C   0  0  0  0  0  0  0  0  0  0  0  0
  -28.3111  -13.2594   17.9769 C   0  0  0  0  0  0  0  0  0  0  0  0
  -23.7160  -30.0164   23.1871 C   0  0  0  0  0  0  0  0  0  0  0  0
  -21.6409  -29.5205   20.7437 C   0  0  0  0  0  0  0  0  0  0  0  0
  -21.5366  -27.5213   17.7421 C   0  0  0  0  0  0  0  0  0  0  0  0
  -26.8958  -21.0399   19.8928 C   0  0  0  0  0  0  0  0  0  0  0  0
  -23.8694  -32.8177   27.4517 C   0  0  0  0  0  0  0  0  0  0  0  0
  -24.9381  -31.0928   21.2627 C   0  0  0  0  0  0  0  0  0  0  0  0
  -23.9014  -28.4177   20.5459 C   0  0  0  0  0  0  0  0  0  0  0  0
  -22.7702  -32.2245   26.5741 C   0  0  0  0  0  0  0  0  0  0  0  0
  -29.9596  -19.6122   20.9159 C   0  0  0  0  0  0  0  0  0  0  0  0
  -23.0532  -30.7536   26.2854 C   0  0  0  0  0  0  0  0  0  0  0  0
  -29.6960  -18.1262   20.6762 C   0  0  0  0  0  0  0  0  0  0  0  0
  -28.7353  -20.3277   21.4899 C   0  0  0  0  0  0  0  0  0  0  0  0
  -27.2394  -18.6521   20.4519 C   0  0  0  0  0  0  0  0  0  0  0  0
  -24.3708  -30.5854   25.5191 C   0  0  1  0  0  0  0  0  0  0  0  0
  -23.6055  -30.5781   21.7979 C   0  0  1  0  0  0  0  0  0  0  0  0
  -28.4345  -17.9225   19.8193 C   0  0  2  0  0  0  0  0  0  0  0  0
  -20.3128  -27.8844   15.5816 C   0  0  0  0  0  0  0  0  0  0  0  0
  -29.5300  -26.0007   21.5652 C   0  0  0  0  0  0  0  0  0  0  0  0
  -19.4795  -27.7787   22.0105 C   0  0  0  0  0  0  0  0  0  0  0  0
  -19.1084  -26.7297   19.7677 C   0  0  0  0  0  0  0  0  0  0  0  0
  -18.7014  -29.1704   20.0838 C   0  0  0  0  0  0  0  0  0  0  0  0
  -28.4559  -22.8688   17.8078 C   0  0  0  0  0  0  0  0  0  0  0  0
  -27.2799  -25.0536   17.6432 C   0  0  0  0  0  0  0  0  0  0  0  0
  -27.0364  -22.7432   21.7593 C   0  0  0  0  0  0  0  0  0  0  0  0
  -24.0297  -27.3140   16.1607 C   0  0  0  0  0  0  0  0  0  0  0  0
  -28.9159  -24.6008   19.5625 C   0  0  0  0  0  0  0  0  0  0  0  0
  -26.6067  -23.4449   19.4336 C   0  0  0  0  0  0  0  0  0  0  0  0
  -21.0763  -28.3039   20.0507 C   0  0  1  0  0  0  0  0  0  0  0  0
  -21.6392  -28.0220   16.3127 C   0  0  2  0  0  0  0  0  0  0  0  0
  -28.5201  -25.7991   20.4395 C   0  0  2  0  0  0  0  0  0  1  0  0
  -19.6172  -27.9953   20.4902 C   0  0  0  0  0  0  0  0  0  0  0  0
  -27.8112  -24.0028   18.6377 C   0  0  0  0  0  0  0  0  0  0  0  0
  -27.3227  -15.8088   20.4341 N   0  0  0  0  0  0  0  0  0  0  0  0
  -28.1427  -16.4519   19.5856 N   0  0  0  0  0  0  0  0  0  0  0  0
  -23.0265  -29.5279   20.9575 N   0  0  0  0  0  0  0  0  0  0  0  0
  -27.5446  -20.0683   20.6690 N   0  0  0  0  0  0  0  0  0  0  0  0
  -29.4629  -16.1513   17.6420 N   0  0  0  0  0  0  0  0  0  0  0  0
  -27.6767  -12.0610   18.3312 N   0  0  0  0  0  0  0  0  0  0  0  0
  -24.1889  -30.9171   24.1222 N   0  0  0  0  0  0  0  0  0  0  0  0
  -21.2319  -28.5403   18.6196 N   0  0  0  0  0  0  0  0  0  0  0  0
  -26.9446  -22.3653   20.3504 N   0  0  0  0  0  0  0  0  0  0  0  0
  -22.6702  -27.2477   15.5653 N   0  3  0  0  0  0  0  0  0  0  0  0
  -29.0676  -13.2812   16.9765 O   0  0  0  0  0  0  0  0  0  0  0  0
  -23.3944  -28.8524   23.3955 O   0  0  0  0  0  0  0  0  0  0  0  0
  -20.8814  -30.4338   21.0763 O   0  0  0  0  0  0  0  0  0  0  0  0
  -21.7059  -26.3433   18.0490 O   0  0  0  0  0  0  0  0  0  0  0  0
  -26.2980  -20.7398   18.8513 O   0  0  0  0  0  0  0  0  0  0  0  0
  -24.2191  -10.6300   22.4583 O   0  0  0  0  0  0  0  0  0  0  0  0
  -28.4942  -26.9882   19.6509 O   0  0  0  0  0  0  0  0  0  1  0  0
  -21.1146   -7.3804   19.2636 F   0  0  0  0  0  0  0  0  0  0  0  0
  -21.4734  -10.5423   22.7678 F   0  0  0  0  0  0  0  0  0  0  0  0
  1  2  1  0  0  0  0
  1  5  2  0  0  0  0
  2  6  2  0  0  0  0
  3  8  2  0  0  0  0
  3 15  1  0  0  0  0
  4  9  1  0  0  0  0
  4 15  2  0  0  0  0
  5 17  1  0  0  0  0
  6 19  1  0  0  0  0
  7 10  2  0  0  0  0
  7 18  1  0  0  0  0
  8 21  1  0  0  0  0
  9 21  2  0  0  0  0
 10 22  1  0  0  0  0
 11 12  2  0  0  0  0
 11 23  1  0  0  0  0
 12 24  1  0  0  0  0
 13 20  1  0  0  0  0
 13 22  2  0  0  0  0
 14 24  2  0  0  0  0
 14 25  1  0  0  0  0
 15 26  1  0  0  0  0
 16 26  1  0  0  0  0
 16 27  2  0  0  0  0
 16 28  1  0  0  0  0
 17 19  2  0  0  0  0
 17 33  1  0  0  0  0
 18 20  2  0  0  0  0
 18 34  1  0  0  0  0
 19 42  1  0  0  0  0
 20 35  1  0  0  0  0
 21 76  1  0  0  0  0
 22 77  1  0  0  0  0
 23 25  2  0  0  0  0
 23 76  1  0  0  0  0
 24 78  1  0  0  0  0
 25 79  1  0  0  0  0
 26 61  2  0  0  0  0
 27 62  1  0  0  0  0
 27 65  1  0  0  0  0
 28 66  1  0  0  0  0
 28 71  2  0  0  0  0
 29 43  1  0  0  0  0
 29 67  1  0  0  0  0
 29 72  2  0  0  0  0
 30 56  1  0  0  0  0
 30 63  1  0  0  0  0
 30 73  2  0  0  0  0
 31 57  1  0  0  0  0
 31 68  1  0  0  0  0
 31 74  2  0  0  0  0
 32 64  1  0  0  0  0
 32 69  1  0  0  0  0
 32 75  2  0  0  0  0
 33 36  1  0  0  0  0
 34 43  1  0  0  0  0
 35 63  1  0  0  0  0
 36 38  1  0  0  0  0
 37 39  1  0  0  0  0
 37 40  1  0  0  0  0
 38 42  1  0  0  0  0
 39 44  1  0  0  0  0
 40 64  1  0  0  0  0
 41 44  1  0  0  0  0
 41 64  1  0  0  0  0
 42 67  1  0  0  0  0
 43 63  1  0  0  0  0
 44 62  1  0  0  0  0
 45 57  1  0  0  0  0
 46 58  1  0  0  0  0
 47 59  1  0  0  0  0
 48 59  1  0  0  0  0
 49 59  1  0  0  0  0
 50 60  1  0  0  0  0
 51 60  1  0  0  0  0
 52 69  1  0  0  0  0
 53 70  1  0  0  0  0
 54 58  1  0  0  0  0
 54 60  1  0  0  0  0
 55 60  1  0  0  0  0
 55 69  1  0  0  0  0
 56 59  1  0  0  0  0
 56 68  1  0  0  0  0
 57 70  1  0  0  0  0
 58 77  1  0  0  0  0
 61 62  1  0  0  0  0
M  CHG  1  70   1
M  ISO  4  32 100  58 101  69 100  77 101
M  END
> <Batch ID>
0099

> <Smiles>
CNC(C)C(=O)NC(C(=O)N1Cc2cc([101O:1][101CH:1](C)CC(C)(C)C[100N:0](C)[100C:0](=O)N3CCCC(n4nc(-c5ccc(Oc6ccc(F)cc6F)cc5)c(C(N)=O)c4N)C3)ccc2CC1C(=O)NC1CCCc2ccccc21)C(C)(C)C

> <Shape>
0.288

> <Color>
0.085

> <Negative vol penalty>
0.000

$$$$

  -OEChem-04052319313D

 85 93  0     1  0  0  0  0  0999 V2000
  -24.9658  -29.6718   23.7707 C   0  0  0  0  0  0  0  0  0  0  0  0
  -25.6450  -28.6909   23.0553 C   0  0  0  0  0  0  0  0  0  0  0  0
  -23.0675   -9.8508   19.9632 C   0  0  0  0  0  0  0  0  0  0  0  0
  -23.7933   -9.8940   22.2672 C   0  0  0  0  0  0  0  0  0  0  0  0
  -25.5085  -30.1718   24.9537 C   0  0  0  0  0  0  0  0  0  0  0  0
  -26.8679  -28.2101   23.5219 C   0  0  0  0  0  0  0  0  0  0  0  0
  -27.1959  -23.1630   23.2677 C   0  0  0  0  0  0  0  0  0  0  0  0
  -27.6330  -18.2746   21.8773 C   0  0  0  0  0  0  0  0  0  0  0  0
  -27.6944  -17.4846   23.0252 C   0  0  0  0  0  0  0  0  0  0  0  0
  -22.3003   -8.7160   20.2261 C   0  0  0  0  0  0  0  0  0  0  0  0
  -23.0260   -8.7592   22.5302 C   0  0  0  0  0  0  0  0  0  0  0  0
  -27.4612  -22.6043   22.0183 C   0  0  0  0  0  0  0  0  0  0  0  0
  -19.7760   -8.0292   23.1003 C   0  0  0  0  0  0  0  0  0  0  0  0
  -19.0012   -8.0272   24.2601 C   0  0  0  0  0  0  0  0  0  0  0  0
  -29.7814  -22.3547   22.6293 C   0  0  0  0  0  0  0  0  0  0  0  0
  -29.4716  -17.0311   20.9231 C   0  0  0  0  0  0  0  0  0  0  0  0
  -20.1980   -6.0852   25.0562 C   0  0  0  0  0  0  0  0  0  0  0  0
  -23.8141  -10.4398   20.9837 C   0  0  0  0  0  0  0  0  0  0  0  0
  -24.2012  -12.9556   20.8155 C   0  0  0  0  0  0  0  0  0  0  0  0
  -26.7340  -29.6900   25.4401 C   0  0  0  0  0  0  0  0  0  0  0  0
  -28.2252  -23.3321   24.2049 C   0  0  0  0  0  0  0  0  0  0  0  0
  -27.4282  -28.7051   24.7118 C   0  0  0  0  0  0  0  0  0  0  0  0
  -29.5261  -22.9134   23.8909 C   0  0  0  0  0  0  0  0  0  0  0  0
  -28.5216  -18.0478   20.8262 C   0  0  0  0  0  0  0  0  0  0  0  0
  -28.6444  -16.4678   23.1221 C   0  0  0  0  0  0  0  0  0  0  0  0
  -29.5330  -16.2410   22.0710 C   0  0  0  0  0  0  0  0  0  0  0  0
  -22.2795   -8.1702   21.5096 C   0  0  0  0  0  0  0  0  0  0  0  0
  -28.7547  -22.2027   21.6978 C   0  0  0  0  0  0  0  0  0  0  0  0
  -20.7618   -7.0592   22.9183 C   0  0  0  0  0  0  0  0  0  0  0  0
  -19.2122   -7.0552   25.2381 C   0  0  0  0  0  0  0  0  0  0  0  0
  -20.9728   -6.0873   23.8963 C   0  0  0  0  0  0  0  0  0  0  0  0
  -24.6073  -11.6117   20.7125 C   0  0  0  0  0  0  0  0  0  0  0  0
  -25.3113  -13.6786   20.4531 C   0  0  0  0  0  0  0  0  0  0  0  0
  -22.9337  -13.5017   21.2040 C   0  0  0  0  0  0  0  0  0  0  0  0
  -29.5495  -25.8309   25.6562 C   0  0  0  0  0  0  0  0  0  0  0  0
  -30.8267  -14.5438   20.8018 C   0  0  0  0  0  0  0  0  0  0  0  0
  -31.1496  -23.5357   27.2976 C   0  0  0  0  0  0  0  0  0  0  0  0
  -32.3165  -20.3304   27.4037 C   0  0  0  0  0  0  0  0  0  0  0  0
  -27.3037  -30.2949   26.6987 C   0  0  0  0  0  0  0  0  0  0  0  0
  -27.9174  -23.9118   25.5583 C   0  0  0  0  0  0  0  0  0  0  0  0
  -30.6624  -23.0544   24.8693 C   0  0  0  0  0  0  0  0  0  0  0  0
  -28.4229  -29.4641   27.3212 C   0  0  0  0  0  0  0  0  0  0  0  0
  -29.6595  -12.2144   18.3418 C   0  0  0  0  0  0  0  0  0  0  0  0
  -29.4199  -29.0260   26.2531 C   0  0  0  0  0  0  0  0  0  0  0  0
  -28.2177  -11.9374   18.7653 C   0  0  0  0  0  0  0  0  0  0  0  0
  -30.5655  -12.4271   19.5505 C   0  0  0  0  0  0  0  0  0  0  0  0
  -28.6546  -13.2238   20.9053 C   0  0  0  0  0  0  0  0  0  0  0  0
  -28.7451  -28.1405   25.1986 C   0  0  1  0  0  0  0  0  0  0  0  0
  -29.1416  -24.5098   26.2446 C   0  0  1  0  0  0  0  0  0  0  0  0
  -27.6997  -13.0334   19.7135 C   0  0  2  0  0  0  0  0  0  0  0  0
  -31.8853  -15.6264   22.7647 C   0  0  0  0  0  0  0  0  0  0  0  0
  -28.0911  -18.0553   18.3554 C   0  0  0  0  0  0  0  0  0  0  0  0
  -27.3905  -14.8441   24.5867 C   0  0  0  0  0  0  0  0  0  0  0  0
  -29.0231  -16.4670   25.6142 C   0  0  0  0  0  0  0  0  0  0  0  0
  -33.3830  -18.2713   28.3628 C   0  0  0  0  0  0  0  0  0  0  0  0
  -33.7360  -24.9437   26.4987 C   0  0  0  0  0  0  0  0  0  0  0  0
  -34.9816  -22.8684   27.1388 C   0  0  0  0  0  0  0  0  0  0  0  0
  -33.6820  -24.1219   28.8601 C   0  0  0  0  0  0  0  0  0  0  0  0
  -29.7426  -19.3684   28.5029 C   0  0  0  0  0  0  0  0  0  0  0  0
  -29.7546  -19.6935   19.3132 C   0  0  0  0  0  0  0  0  0  0  0  0
  -30.0784  -20.7071   20.4067 C   0  0  0  0  0  0  0  0  0  1  0  0
  -30.5587  -15.1585   22.1525 C   0  0  1  0  0  0  0  0  0  0  0  0
  -28.4549  -18.9086   19.5765 C   0  0  2  0  0  0  0  0  0  0  0  0
  -28.6917  -15.6357   24.3614 C   0  0  0  0  0  0  0  0  0  0  0  0
  -32.4471  -22.7893   27.1018 C   0  0  1  0  0  0  0  0  0  0  0  0
  -32.2381  -19.2651   28.4823 C   0  0  2  0  0  0  0  0  0  0  0  0
  -33.6908  -23.6798   27.3805 C   0  0  0  0  0  0  0  0  0  0  0  0
  -25.8764  -11.4855   20.3156 N   0  0  0  0  0  0  0  0  0  0  0  0
  -26.2773  -12.7595   20.1659 N   0  0  0  0  0  0  0  0  0  0  0  0
  -30.3123  -23.6327   26.1772 N   0  0  0  0  0  0  0  0  0  0  0  0
  -30.0276  -13.4599   20.4378 N   0  0  0  0  0  0  0  0  0  0  0  0
  -25.5457  -15.0044   20.3551 N   0  0  0  0  0  0  0  0  0  0  0  0
  -21.9013  -12.6172   21.5450 N   0  0  0  0  0  0  0  0  0  0  0  0
  -28.5637  -26.7978   25.7072 N   0  0  0  0  0  0  0  0  0  0  0  0
  -32.3641  -21.5992   27.9415 N   0  0  0  0  0  0  0  0  0  0  0  0
  -30.9535  -18.5168   28.3787 N   0  3  0  0  0  0  0  0  0  0  0  0
  -22.7178  -14.7371   21.2317 O   0  0  0  0  0  0  0  0  0  0  0  0
  -30.6757  -25.9635   25.1917 O   0  0  0  0  0  0  0  0  0  0  0  0
  -31.7181  -15.0163   20.0916 O   0  0  0  0  0  0  0  0  0  0  0  0
  -30.8853  -24.0088   28.4057 O   0  0  0  0  0  0  0  0  0  0  0  0
  -32.3375  -20.0636   26.2042 O   0  0  0  0  0  0  0  0  0  0  0  0
  -21.5307   -7.0631   21.7666 O   0  0  0  0  0  0  0  0  0  0  0  0
  -29.0165  -21.6577   20.4787 O   0  0  0  0  0  0  0  0  0  1  0  0
  -18.4691   -7.0543   26.3525 F   0  0  0  0  0  0  0  0  0  0  0  0
  -21.9191   -5.1535   23.7276 F   0  0  0  0  0  0  0  0  0  0  0  0
  1  2  1  0  0  0  0
  1  5  2  0  0  0  0
  2  6  2  0  0  0  0
  3 10  2  0  0  0  0
  3 18  1  0  0  0  0
  4 11  1  0  0  0  0
  4 18  2  0  0  0  0
  5 20  1  0  0  0  0
  6 22  1  0  0  0  0
  7 12  2  0  0  0  0
  7 21  1  0  0  0  0
  8  9  2  0  0  0  0
  8 24  1  0  0  0  0
  9 25  1  0  0  0  0
 10 27  1  0  0  0  0
 11 27  2  0  0  0  0
 12 28  1  0  0  0  0
 13 14  2  0  0  0  0
 13 29  1  0  0  0  0
 14 30  1  0  0  0  0
 15 23  1  0  0  0  0
 15 28  2  0  0  0  0
 16 24  2  0  0  0  0
 16 26  1  0  0  0  0
 17 30  2  0  0  0  0
 17 31  1  0  0  0  0
 18 32  1  0  0  0  0
 19 32  1  0  0  0  0
 19 33  2  0  0  0  0
 19 34  1  0  0  0  0
 20 22  2  0  0  0  0
 20 39  1  0  0  0  0
 21 23  2  0  0  0  0
 21 40  1  0  0  0  0
 22 48  1  0  0  0  0
 23 41  1  0  0  0  0
 24 63  1  0  0  0  0
 25 26  2  0  0  0  0
 25 64  1  0  0  0  0
 26 62  1  0  0  0  0
 27 82  1  0  0  0  0
 28 83  1  0  0  0  0
 29 31  2  0  0  0  0
 29 82  1  0  0  0  0
 30 84  1  0  0  0  0
 31 85  1  0  0  0  0
 32 68  2  0  0  0  0
 33 69  1  0  0  0  0
 33 72  1  0  0  0  0
 34 73  1  0  0  0  0
 34 77  2  0  0  0  0
 35 49  1  0  0  0  0
 35 74  1  0  0  0  0
 35 78  2  0  0  0  0
 36 62  1  0  0  0  0
 36 71  1  0  0  0  0
 36 79  2  0  0  0  0
 37 65  1  0  0  0  0
 37 70  1  0  0  0  0
 37 80  2  0  0  0  0
 38 66  1  0  0  0  0
 38 75  1  0  0  0  0
 38 81  2  0  0  0  0
 39 42  1  0  0  0  0
 40 49  1  0  0  0  0
 41 70  1  0  0  0  0
 42 44  1  0  0  0  0
 43 45  1  0  0  0  0
 43 46  1  0  0  0  0
 44 48  1  0  0  0  0
 45 50  1  0  0  0  0
 46 71  1  0  0  0  0
 47 50  1  0  0  0  0
 47 71  1  0  0  0  0
 48 74  1  0  0  0  0
 49 70  1  0  0  0  0
 50 69  1  0  0  0  0
 51 62  1  0  0  0  0
 52 63  1  0  0  0  0
 53 64  1  0  0  0  0
 54 64  1  0  0  0  0
 55 66  1  0  0  0  0
 56 67  1  0  0  0  0
 57 67  1  0  0  0  0
 58 67  1  0  0  0  0
 59 76  1  0  0  0  0
 60 61  1  0  0  0  0
 60 63  1  0  0  0  0
 61 83  1  0  0  0  0
 65 67  1  0  0  0  0
 65 75  1  0  0  0  0
 66 76  1  0  0  0  0
 68 69  1  0  0  0  0
M  CHG  1  76   1
M  ISO  4  36 100  61 101  62 100  83 101
M  END
> <Batch ID>
0099

> <Smiles>
CNC(C)C(=O)NC(C(=O)N1Cc2cc([101O:1][101CH2:1]CC(C)c3ccc(C(C)C)c([100CH:0](C)[100C:0](=O)N4CCCC(n5nc(-c6ccc(Oc7ccc(F)cc7F)cc6)c(C(N)=O)c5N)C4)c3)ccc2CC1C(=O)NC1CCCc2ccccc21)C(C)(C)C

> <Shape>
0.239

> <Color>
0.192

> <Negative vol penalty>
0.000

$$$$

  -OEChem-04052319313D

 88 97  0     1  0  0  0  0  0999 V2000
  -16.2437  -29.1437   23.3136 C   0  0  0  0  0  0  0  0  0  0  0  0
  -17.0573  -28.8777   22.2169 C   0  0  0  0  0  0  0  0  0  0  0  0
  -32.6794  -24.7851   15.5137 C   0  0  0  0  0  0  0  0  0  0  0  0
  -26.1808  -15.4410   20.5789 C   0  0  0  0  0  0  0  0  0  0  0  0
  -25.8139  -16.4039   18.3936 C   0  0  0  0  0  0  0  0  0  0  0  0
  -16.7330  -29.9040   24.3750 C   0  0  0  0  0  0  0  0  0  0  0  0
  -18.3603  -29.3728   22.1804 C   0  0  0  0  0  0  0  0  0  0  0  0
  -23.2628  -26.6569   19.7115 C   0  0  0  0  0  0  0  0  0  0  0  0
  -33.6398  -24.8424   16.5218 C   0  0  0  0  0  0  0  0  0  0  0  0
  -31.3210  -24.9442   15.8025 C   0  0  0  0  0  0  0  0  0  0  0  0
  -25.5181  -14.2806   20.1789 C   0  0  0  0  0  0  0  0  0  0  0  0
  -25.1513  -15.2435   17.9936 C   0  0  0  0  0  0  0  0  0  0  0  0
  -23.9035  -26.8149   18.4834 C   0  0  0  0  0  0  0  0  0  0  0  0
  -26.2100  -11.5211   18.3515 C   0  0  0  0  0  0  0  0  0  0  0  0
  -26.7927  -10.2966   18.6779 C   0  0  0  0  0  0  0  0  0  0  0  0
  -25.4820  -28.3242   19.5079 C   0  0  0  0  0  0  0  0  0  0  0  0
  -24.8239   -9.6973   19.9436 C   0  0  0  0  0  0  0  0  0  0  0  0
  -31.9048  -25.2248   18.1686 C   0  0  0  0  0  0  0  0  0  0  0  0
  -26.3287  -16.5026   19.6863 C   0  0  0  0  0  0  0  0  0  0  0  0
  -28.3890  -17.9762   19.9887 C   0  0  0  0  0  0  0  0  0  0  0  0
  -18.0459  -30.4005   24.3558 C   0  0  0  0  0  0  0  0  0  0  0  0
  -23.7209  -27.3411   20.8466 C   0  0  0  0  0  0  0  0  0  0  0  0
  -18.8672  -30.1416   23.2419 C   0  0  0  0  0  0  0  0  0  0  0  0
  -24.8468  -28.1712   20.7498 C   0  0  0  0  0  0  0  0  0  0  0  0
  -33.2684  -25.0614   17.8533 C   0  0  0  0  0  0  0  0  0  0  0  0
  -31.1871  -25.4567   19.3753 C   0  0  0  0  0  0  0  0  0  0  0  0
  -30.9645  -25.1626   17.1380 C   0  0  0  0  0  0  0  0  0  0  0  0
  -25.0034  -14.1819   18.8862 C   0  0  0  0  0  0  0  0  0  0  0  0
  -25.0115  -27.6509   18.3808 C   0  0  0  0  0  0  0  0  0  0  0  0
  -24.9343  -11.8338   18.8211 C   0  0  0  0  0  0  0  0  0  0  0  0
  -26.0997   -9.3847   19.4740 C   0  0  0  0  0  0  0  0  0  0  0  0
  -24.2413  -10.9219   19.6172 C   0  0  0  0  0  0  0  0  0  0  0  0
  -27.0126  -17.7018   20.0991 C   0  0  0  0  0  0  0  0  0  0  0  0
  -29.8499  -25.5297   19.0597 C   0  0  0  0  0  0  0  0  0  0  0  0
  -28.5316  -19.2353   20.5186 C   0  0  0  0  0  0  0  0  0  0  0  0
  -29.4442  -17.1655   19.4548 C   0  0  0  0  0  0  0  0  0  0  0  0
  -22.4826  -29.5149   22.8073 C   0  0  0  0  0  0  0  0  0  0  0  0
  -25.2312  -29.0238   24.4584 C   0  0  0  0  0  0  0  0  0  0  0  0
  -28.4888  -28.0069   24.4250 C   0  0  0  0  0  0  0  0  0  0  0  0
  -26.8224  -24.5235   21.0279 C   0  0  0  0  0  0  0  0  0  0  0  0
  -18.5148  -31.2574   25.5051 C   0  0  0  0  0  0  0  0  0  0  0  0
  -23.0349  -27.1391   22.1699 C   0  0  0  0  0  0  0  0  0  0  0  0
  -25.3906  -28.9123   21.9430 C   0  0  0  0  0  0  0  0  0  0  0  0
  -20.0306  -31.4295   25.5576 C   0  0  0  0  0  0  0  0  0  0  0  0
  -25.2771  -22.0977   23.1266 C   0  0  0  0  0  0  0  0  0  0  0  0
  -20.5776  -31.7695   24.1748 C   0  0  0  0  0  0  0  0  0  0  0  0
  -25.6992  -20.7614   22.5133 C   0  0  0  0  0  0  0  0  0  0  0  0
  -25.0294  -23.1572   22.0551 C   0  0  0  0  0  0  0  0  0  0  0  0
  -26.5688  -22.0227   20.5005 C   0  0  0  0  0  0  0  0  0  0  0  0
  -20.2945  -30.6403   23.1767 C   0  0  1  0  0  0  0  0  0  0  0  0
  -23.2750  -28.2847   23.1483 C   0  0  1  0  0  0  0  0  0  0  0  0
  -26.8841  -20.9382   21.5449 C   0  0  2  0  0  0  0  0  0  0  0  0
  -34.3517  -25.1117   18.8847 C   0  0  0  0  0  0  0  0  0  0  0  0
  -31.7614  -25.5970   20.7303 C   0  0  0  0  0  0  0  0  0  0  0  0
  -30.7471  -27.3970   25.3334 C   0  0  0  0  0  0  0  0  0  0  0  0
  -26.7819  -25.5000   14.4133 C   0  0  0  0  0  0  0  0  0  0  0  0
  -25.6865  -32.0390   24.3527 C   0  0  0  0  0  0  0  0  0  0  0  0
  -28.0744  -31.6304   24.9842 C   0  0  0  0  0  0  0  0  0  0  0  0
  -26.2434  -30.9762   26.5469 C   0  0  0  0  0  0  0  0  0  0  0  0
  -27.6766  -25.1971   24.8766 C   0  0  0  0  0  0  0  0  0  0  0  0
  -28.6770  -25.7553   19.9314 C   0  0  0  0  0  0  0  0  0  0  0  0
  -28.1702  -26.6494   16.1565 C   0  0  0  0  0  0  0  0  0  0  0  0
  -28.4212  -25.3601   16.9507 C   0  0  0  0  0  0  0  0  0  0  0  0
  -25.6006  -26.7024   16.2810 C   0  0  0  0  0  0  0  0  0  1  0  0
  -26.6133  -29.6308   24.4386 C   0  0  1  0  0  0  0  0  0  0  0  0
  -29.2615  -27.0717   25.3375 C   0  0  2  0  0  0  0  0  0  0  0  0
  -26.8388  -26.6942   15.3745 C   0  0  2  0  0  0  0  0  0  0  0  0
  -26.6432  -31.0567   25.0575 C   0  0  0  0  0  0  0  0  0  0  0  0
  -26.3297  -18.7057   20.6556 N   0  0  0  0  0  0  0  0  0  0  0  0
  -29.7256  -25.3509   17.7080 N   0  0  0  0  0  0  0  0  0  0  0  0
  -27.2808  -19.6232   20.8997 N   0  0  0  0  0  0  0  0  0  0  0  0
  -24.6814  -28.6871   23.2134 N   0  0  0  0  0  0  0  0  0  0  0  0
  -26.1914  -23.2768   21.1710 N   0  0  0  0  0  0  0  0  0  0  0  0
  -29.6037  -20.0373   20.6913 N   0  0  0  0  0  0  0  0  0  0  0  0
  -29.1230  -15.8977   18.9509 N   0  0  0  0  0  0  0  0  0  0  0  0
  -21.2225  -29.5473   23.3734 N   0  0  0  0  0  0  0  0  0  0  0  0
  -27.4896  -28.6723   25.1033 N   0  0  0  0  0  0  0  0  0  0  0  0
  -27.9199  -24.5479   20.1761 N   0  0  0  0  0  0  0  0  0  0  0  0
  -29.0886  -25.6585   24.8973 N   0  3  0  0  0  0  0  0  0  0  0  0
  -30.6390  -17.5473   19.4405 O   0  0  0  0  0  0  0  0  0  0  0  0
  -22.9784  -30.3721   22.0854 O   0  0  0  0  0  0  0  0  0  0  0  0
  -24.6634  -28.8480   25.5393 O   0  0  0  0  0  0  0  0  0  0  0  0
  -28.7482  -28.1371   23.2307 O   0  0  0  0  0  0  0  0  0  0  0  0
  -26.4396  -25.5384   21.6199 O   0  0  0  0  0  0  0  0  0  0  0  0
  -24.3569  -13.0496   18.4955 O   0  0  0  0  0  0  0  0  0  0  0  0
  -25.6384  -27.8074   17.1832 O   0  0  0  0  0  0  0  0  0  1  0  0
  -26.6587   -8.2081   19.7861 F   0  0  0  0  0  0  0  0  0  0  0  0
  -23.0150  -11.2161   20.0704 F   0  0  0  0  0  0  0  0  0  0  0  0
  1  2  1  0  0  0  0
  1  6  2  0  0  0  0
  2  7  2  0  0  0  0
  3  9  1  0  0  0  0
  3 10  2  0  0  0  0
  4 11  2  0  0  0  0
  4 19  1  0  0  0  0
  5 12  1  0  0  0  0
  5 19  2  0  0  0  0
  6 21  1  0  0  0  0
  7 23  1  0  0  0  0
  8 13  2  0  0  0  0
  8 22  1  0  0  0  0
  9 25  2  0  0  0  0
 10 27  1  0  0  0  0
 11 28  1  0  0  0  0
 12 28  2  0  0  0  0
 13 29  1  0  0  0  0
 14 15  2  0  0  0  0
 14 30  1  0  0  0  0
 15 31  1  0  0  0  0
 16 24  1  0  0  0  0
 16 29  2  0  0  0  0
 17 31  2  0  0  0  0
 17 32  1  0  0  0  0
 18 25  1  0  0  0  0
 18 26  1  0  0  0  0
 18 27  2  0  0  0  0
 19 33  1  0  0  0  0
 20 33  1  0  0  0  0
 20 35  2  0  0  0  0
 20 36  1  0  0  0  0
 21 23  2  0  0  0  0
 21 41  1  0  0  0  0
 22 24  2  0  0  0  0
 22 42  1  0  0  0  0
 23 50  1  0  0  0  0
 24 43  1  0  0  0  0
 25 53  1  0  0  0  0
 26 34  2  0  0  0  0
 26 54  1  0  0  0  0
 27 70  1  0  0  0  0
 28 85  1  0  0  0  0
 29 86  1  0  0  0  0
 30 32  2  0  0  0  0
 30 85  1  0  0  0  0
 31 87  1  0  0  0  0
 32 88  1  0  0  0  0
 33 69  2  0  0  0  0
 34 61  1  0  0  0  0
 34 70  1  0  0  0  0
 35 71  1  0  0  0  0
 35 74  1  0  0  0  0
 36 75  1  0  0  0  0
 36 80  2  0  0  0  0
 37 51  1  0  0  0  0
 37 76  1  0  0  0  0
 37 81  2  0  0  0  0
 38 65  1  0  0  0  0
 38 72  1  0  0  0  0
 38 82  2  0  0  0  0
 39 66  1  0  0  0  0
 39 77  1  0  0  0  0
 39 83  2  0  0  0  0
 40 73  1  0  0  0  0
 40 78  1  0  0  0  0
 40 84  2  0  0  0  0
 41 44  1  0  0  0  0
 42 51  1  0  0  0  0
 43 72  1  0  0  0  0
 44 46  1  0  0  0  0
 45 47  1  0  0  0  0
 45 48  1  0  0  0  0
 46 50  1  0  0  0  0
 47 52  1  0  0  0  0
 48 73  1  0  0  0  0
 49 52  1  0  0  0  0
 49 73  1  0  0  0  0
 50 76  1  0  0  0  0
 51 72  1  0  0  0  0
 52 71  1  0  0  0  0
 55 66  1  0  0  0  0
 56 67  1  0  0  0  0
 57 68  1  0  0  0  0
 58 68  1  0  0  0  0
 59 68  1  0  0  0  0
 60 79  1  0  0  0  0
 61 78  1  0  0  0  0
 62 63  1  0  0  0  0
 62 67  1  0  0  0  0
 63 70  1  0  0  0  0
 64 67  1  0  0  0  0
 64 86  1  0  0  0  0
 65 68  1  0  0  0  0
 65 77  1  0  0  0  0
 66 79  1  0  0  0  0
 69 71  1  0  0  0  0
M  CHG  1  79   1
M  ISO  4  40 100  64 101  78 100  86 101
M  END
> <Batch ID>
0099

> <Smiles>
CNC(C)C(=O)NC(C(=O)N1Cc2cc([101O:1][101CH2:1]C(C)CCn3c(C[100NH:0][100C:0](=O)N4CCCC(n5nc(-c6ccc(Oc7ccc(F)cc7F)cc6)c(C(N)=O)c5N)C4)c(C)c4c(C)cccc43)ccc2CC1C(=O)NC1CCCc2ccccc21)C(C)(C)C

> <Shape>
0.226

> <Color>
0.064

> <Negative vol penalty>
0.000

$$$$

  -OEChem-04052319313D

 80 87  0     1  0  0  0  0  0999 V2000
  -29.8021  -19.6120   26.9170 C   0  0  0  0  0  0  0  0  0  0  0  0
  -29.6454  -20.7946   26.2029 C   0  0  0  0  0  0  0  0  0  0  0  0
  -26.5789  -14.7542   21.4077 C   0  0  0  0  0  0  0  0  0  0  0  0
  -26.4228  -14.9808   19.0075 C   0  0  0  0  0  0  0  0  0  0  0  0
  -28.7675  -18.6794   26.9491 C   0  0  0  0  0  0  0  0  0  0  0  0
  -28.4498  -21.0503   25.5307 C   0  0  0  0  0  0  0  0  0  0  0  0
  -27.9272  -25.5088   23.5175 C   0  0  0  0  0  0  0  0  0  0  0  0
  -25.5355  -13.8287   21.3882 C   0  0  0  0  0  0  0  0  0  0  0  0
  -25.3794  -14.0552   18.9879 C   0  0  0  0  0  0  0  0  0  0  0  0
  -28.6282  -25.9094   22.3809 C   0  0  0  0  0  0  0  0  0  0  0  0
  -25.1242  -10.5536   20.6548 C   0  0  0  0  0  0  0  0  0  0  0  0
  -25.2735   -9.3924   21.4130 C   0  0  0  0  0  0  0  0  0  0  0  0
  -26.6416  -25.5898   21.0504 C   0  0  0  0  0  0  0  0  0  0  0  0
  -23.3044   -9.9714   22.6875 C   0  0  0  0  0  0  0  0  0  0  0  0
  -27.0225  -15.3303   20.2173 C   0  0  0  0  0  0  0  0  0  0  0  0
  -29.4771  -16.0186   20.1219 C   0  0  0  0  0  0  0  0  0  0  0  0
  -27.5636  -18.9191   26.2663 C   0  0  0  0  0  0  0  0  0  0  0  0
  -26.5788  -25.1346   23.4270 C   0  0  0  0  0  0  0  0  0  0  0  0
  -27.3849  -20.1322   25.5708 C   0  0  0  0  0  0  0  0  0  0  0  0
  -25.9250  -25.1873   22.1877 C   0  0  0  0  0  0  0  0  0  0  0  0
  -24.9358  -13.4792   20.1783 C   0  0  0  0  0  0  0  0  0  0  0  0
  -27.9862  -25.9472   21.1466 C   0  0  0  0  0  0  0  0  0  0  0  0
  -24.0651  -11.4239   20.9130 C   0  0  0  0  0  0  0  0  0  0  0  0
  -24.3636   -9.1013   22.4293 C   0  0  0  0  0  0  0  0  0  0  0  0
  -23.1551  -11.1327   21.9293 C   0  0  0  0  0  0  0  0  0  0  0  0
  -28.0999  -16.2868   20.2369 C   0  0  0  0  0  0  0  0  0  0  0  0
  -30.0749  -17.2527   20.1987 C   0  0  0  0  0  0  0  0  0  0  0  0
  -30.1553  -14.7658   19.9599 C   0  0  0  0  0  0  0  0  0  0  0  0
  -24.9485  -22.4657   23.9953 C   0  0  0  0  0  0  0  0  0  0  0  0
  -22.3883  -24.3626   23.3876 C   0  0  0  0  0  0  0  0  0  0  0  0
  -21.1498  -27.1622   21.8793 C   0  0  0  0  0  0  0  0  0  0  0  0
  -30.3568  -22.5040   18.6848 C   0  0  0  0  0  0  0  0  0  0  0  0
  -26.4737  -17.8789   26.3410 C   0  0  0  0  0  0  0  0  0  0  0  0
  -25.8294  -24.7304   24.6670 C   0  0  0  0  0  0  0  0  0  0  0  0
  -24.4731  -24.8150   22.0406 C   0  0  0  0  0  0  0  0  0  0  0  0
  -25.4263  -18.0354   25.2434 C   0  0  0  0  0  0  0  0  0  0  0  0
  -28.1696  -21.7629   21.4713 C   0  0  0  0  0  0  0  0  0  0  0  0
  -24.9509  -19.4792   25.1806 C   0  0  0  0  0  0  0  0  0  0  0  0
  -28.0725  -20.2387   21.3847 C   0  0  0  0  0  0  0  0  0  0  0  0
  -28.2058  -22.3943   20.0827 C   0  0  0  0  0  0  0  0  0  0  0  0
  -29.1955  -20.3566   19.1121 C   0  0  0  0  0  0  0  0  0  0  0  0
  -26.1048  -20.4183   24.8067 C   0  0  1  0  0  0  0  0  0  0  0  0
  -24.5993  -23.8781   24.3706 C   0  0  1  0  0  0  0  0  0  0  0  0
  -29.1777  -19.6571   20.4834 C   0  0  2  0  0  0  0  0  0  0  0  0
  -19.0121  -28.4289   21.5287 C   0  0  0  0  0  0  0  0  0  0  0  0
  -21.5047  -22.2958   21.3242 C   0  0  0  0  0  0  0  0  0  0  0  0
  -19.9562  -24.0150   20.3679 C   0  0  0  0  0  0  0  0  0  0  0  0
  -19.6533  -23.2357   22.7182 C   0  0  0  0  0  0  0  0  0  0  0  0
  -27.9158  -28.6957   17.1791 C   0  0  0  0  0  0  0  0  0  0  0  0
  -29.2204  -29.1147   19.2682 C   0  0  0  0  0  0  0  0  0  0  0  0
  -22.2134  -29.5635   23.2436 C   0  0  0  0  0  0  0  0  0  0  0  0
  -29.1491  -26.2067   15.6800 C   0  0  0  0  0  0  0  0  0  0  0  0
  -31.4067  -24.7258   18.3410 C   0  0  0  0  0  0  0  0  0  0  0  0
  -31.0563  -25.2425   16.9581 C   0  0  0  0  0  0  0  0  0  0  0  0
  -30.0605  -27.4149   17.6577 C   0  0  0  0  0  0  0  0  0  0  0  0
  -27.9182  -26.9782   19.0046 C   0  0  0  0  0  0  0  0  0  1  0  0
  -21.6058  -24.7390   22.1527 C   0  0  1  0  0  0  0  0  0  0  0  0
  -20.2512  -28.2710   22.3962 C   0  0  2  0  0  0  0  0  0  0  0  0
  -20.7079  -23.5766   21.6429 C   0  0  0  0  0  0  0  0  0  0  0  0
  -28.7782  -28.0276   18.2658 C   0  0  0  0  0  0  0  0  0  0  0  0
  -27.8382  -17.5892   20.3764 N   0  0  0  0  0  0  0  0  0  0  0  0
  -29.0590  -18.1502   20.3496 N   0  0  0  0  0  0  0  0  0  0  0  0
  -23.7851  -24.4204   23.2810 N   0  0  0  0  0  0  0  0  0  0  0  0
  -29.2912  -21.8103   19.2821 N   0  0  0  0  0  0  0  0  0  0  0  0
  -31.3651  -17.6469   20.1513 N   0  0  0  0  0  0  0  0  0  0  0  0
  -29.3888  -13.5939   19.8999 N   0  0  0  0  0  0  0  0  0  0  0  0
  -25.6675  -21.7882   24.9616 N   0  0  0  0  0  0  0  0  0  0  0  0
  -20.8745  -25.9560   22.4881 N   0  0  0  0  0  0  0  0  0  0  0  0
  -30.3704  -23.8785   18.8880 N   0  0  0  0  0  0  0  0  0  0  0  0
  -20.9844  -29.5684   22.4090 N   0  3  0  0  0  0  0  0  0  0  0  0
  -29.8121  -26.0937   17.0311 N   0  3  1  0  0  0  0  0  0  0  0  0
  -31.4051  -14.6863   19.8876 O   0  0  0  0  0  0  0  0  0  0  0  0
  -24.5908  -22.0227   22.9102 O   0  0  0  0  0  0  0  0  0  0  0  0
  -21.7824  -24.0363   24.4114 O   0  0  0  0  0  0  0  0  0  0  0  0
  -22.0075  -27.3466   21.0185 O   0  0  0  0  0  0  0  0  0  0  0  0
  -31.2348  -21.9393   18.0235 O   0  0  0  0  0  0  0  0  0  0  0  0
  -23.9178  -12.5759   20.1589 O   0  0  0  0  0  0  0  0  0  0  0  0
  -28.6683  -26.3373   20.0356 O   0  0  0  0  0  0  0  0  0  1  0  0
  -24.5061   -7.9853   23.1563 F   0  0  0  0  0  0  0  0  0  0  0  0
  -22.1349  -11.9643   22.1812 F   0  0  0  0  0  0  0  0  0  0  0  0
  1  2  1  0  0  0  0
  1  5  2  0  0  0  0
  2  6  2  0  0  0  0
  3  8  2  0  0  0  0
  3 15  1  0  0  0  0
  4  9  1  0  0  0  0
  4 15  2  0  0  0  0
  5 17  1  0  0  0  0
  6 19  1  0  0  0  0
  7 10  2  0  0  0  0
  7 18  1  0  0  0  0
  8 21  1  0  0  0  0
  9 21  2  0  0  0  0
 10 22  1  0  0  0  0
 11 12  2  0  0  0  0
 11 23  1  0  0  0  0
 12 24  1  0  0  0  0
 13 20  1  0  0  0  0
 13 22  2  0  0  0  0
 14 24  2  0  0  0  0
 14 25  1  0  0  0  0
 15 26  1  0  0  0  0
 16 26  1  0  0  0  0
 16 27  2  0  0  0  0
 16 28  1  0  0  0  0
 17 19  2  0  0  0  0
 17 33  1  0  0  0  0
 18 20  2  0  0  0  0
 18 34  1  0  0  0  0
 19 42  1  0  0  0  0
 20 35  1  0  0  0  0
 21 77  1  0  0  0  0
 22 78  1  0  0  0  0
 23 25  2  0  0  0  0
 23 77  1  0  0  0  0
 24 79  1  0  0  0  0
 25 80  1  0  0  0  0
 26 61  2  0  0  0  0
 27 62  1  0  0  0  0
 27 65  1  0  0  0  0
 28 66  1  0  0  0  0
 28 72  2  0  0  0  0
 29 43  1  0  0  0  0
 29 67  1  0  0  0  0
 29 73  2  0  0  0  0
 30 57  1  0  0  0  0
 30 63  1  0  0  0  0
 30 74  2  0  0  0  0
 31 58  1  0  0  0  0
 31 68  1  0  0  0  0
 31 75  2  0  0  0  0
 32 64  1  0  0  0  0
 32 69  1  0  0  0  0
 32 76  2  0  0  0  0
 33 36  1  0  0  0  0
 34 43  1  0  0  0  0
 35 63  1  0  0  0  0
 36 38  1  0  0  0  0
 37 39  1  0  0  0  0
 37 40  1  0  0  0  0
 38 42  1  0  0  0  0
 39 44  1  0  0  0  0
 40 64  1  0  0  0  0
 41 44  1  0  0  0  0
 41 64  1  0  0  0  0
 42 67  1  0  0  0  0
 43 63  1  0  0  0  0
 44 62  1  0  0  0  0
 45 58  1  0  0  0  0
 46 59  1  0  0  0  0
 47 59  1  0  0  0  0
 48 59  1  0  0  0  0
 49 60  1  0  0  0  0
 50 60  1  0  0  0  0
 51 70  1  0  0  0  0
 52 71  1  0  0  0  0
 53 54  1  0  0  0  0
 53 69  1  0  0  0  0
 54 71  1  0  0  0  0
 55 60  1  0  0  0  0
 55 71  1  0  0  0  0
 56 60  1  0  0  0  0
 56 78  1  0  0  0  0
 57 59  1  0  0  0  0
 57 68  1  0  0  0  0
 58 70  1  0  0  0  0
 61 62  1  0  0  0  0
M  CHG  2  70   1  71   1
M  ISO  4  32 100  56 101  69 100  78 101
M  END
> <Batch ID>
0099

> <Smiles>
CNC(C)C(=O)NC(C(=O)N1Cc2cc([101O:1][101CH2:1]C(C)(C)CN(C)CC[100NH:0][100C:0](=O)N3CCCC(n4nc(-c5ccc(Oc6ccc(F)cc6F)cc5)c(C(N)=O)c4N)C3)ccc2CC1C(=O)NC1CCCc2ccccc21)C(C)(C)C

> <Shape>
0.209

> <Color>
0.054

> <Negative vol penalty>
0.000

$$$$

  -OEChem-04052319313D

 85 93  0     1  0  0  0  0  0999 V2000
  -21.7730  -18.4037   24.1422 C   0  0  0  0  0  0  0  0  0  0  0  0
  -22.9102  -19.0419   23.6574 C   0  0  0  0  0  0  0  0  0  0  0  0
  -27.8727  -13.1970   22.5616 C   0  0  0  0  0  0  0  0  0  0  0  0
  -27.1052  -13.1622   20.2710 C   0  0  0  0  0  0  0  0  0  0  0  0
  -20.5095  -18.9141   23.8474 C   0  0  0  0  0  0  0  0  0  0  0  0
  -22.7844  -20.1902   22.8764 C   0  0  0  0  0  0  0  0  0  0  0  0
  -26.5630  -25.0088   22.7799 C   0  0  0  0  0  0  0  0  0  0  0  0
  -33.3946  -22.4895   18.4732 C   0  0  0  0  0  0  0  0  0  0  0  0
  -27.1892  -12.0064   22.8087 C   0  0  0  0  0  0  0  0  0  0  0  0
  -26.4217  -11.9716   20.5181 C   0  0  0  0  0  0  0  0  0  0  0  0
  -27.5986  -25.3716   21.9199 C   0  0  0  0  0  0  0  0  0  0  0  0
  -23.5234  -11.0191   21.9753 C   0  0  0  0  0  0  0  0  0  0  0  0
  -22.2188  -10.9090   21.4941 C   0  0  0  0  0  0  0  0  0  0  0  0
  -32.2636  -21.9379   17.8818 C   0  0  0  0  0  0  0  0  0  0  0  0
  -26.0731  -26.7733   20.6840 C   0  0  0  0  0  0  0  0  0  0  0  0
  -22.8719   -9.0038   20.1595 C   0  0  0  0  0  0  0  0  0  0  0  0
  -27.8306  -13.7749   21.2928 C   0  0  0  0  0  0  0  0  0  0  0  0
  -29.8633  -15.1467   20.5900 C   0  0  0  0  0  0  0  0  0  0  0  0
  -20.3685  -20.0748   23.0705 C   0  0  0  0  0  0  0  0  0  0  0  0
  -25.2700  -25.5179   22.5915 C   0  0  0  0  0  0  0  0  0  0  0  0
  -21.5177  -20.7159   22.5698 C   0  0  0  0  0  0  0  0  0  0  0  0
  -25.0234  -26.4174   21.5445 C   0  0  0  0  0  0  0  0  0  0  0  0
  -33.3458  -23.7826   18.9820 C   0  0  0  0  0  0  0  0  0  0  0  0
  -26.4637  -11.3938   21.7869 C   0  0  0  0  0  0  0  0  0  0  0  0
  -27.3531  -26.2517   20.8700 C   0  0  0  0  0  0  0  0  0  0  0  0
  -24.5023  -10.1217   21.5485 C   0  0  0  0  0  0  0  0  0  0  0  0
  -21.8930   -9.9013   20.5863 C   0  0  0  0  0  0  0  0  0  0  0  0
  -24.1765   -9.1140   20.6406 C   0  0  0  0  0  0  0  0  0  0  0  0
  -28.5360  -15.0050   21.0370 C   0  0  0  0  0  0  0  0  0  0  0  0
  -31.1176  -22.7146   17.8244 C   0  0  0  0  0  0  0  0  0  0  0  0
  -32.1514  -24.4768   18.8751 C   0  0  0  0  0  0  0  0  0  0  0  0
  -30.0539  -16.5042   20.5046 C   0  0  0  0  0  0  0  0  0  0  0  0
  -30.8370  -14.1411   20.2795 C   0  0  0  0  0  0  0  0  0  0  0  0
  -22.4283  -24.2438   21.9553 C   0  0  0  0  0  0  0  0  0  0  0  0
  -21.3984  -27.2875   22.3992 C   0  0  0  0  0  0  0  0  0  0  0  0
  -22.1253  -30.6220   22.3930 C   0  0  0  0  0  0  0  0  0  0  0  0
  -28.2868  -21.5822   19.0088 C   0  0  0  0  0  0  0  0  0  0  0  0
  -18.9803  -20.5620   22.7387 C   0  0  0  0  0  0  0  0  0  0  0  0
  -24.1698  -25.1376   23.5440 C   0  0  0  0  0  0  0  0  0  0  0  0
  -23.6576  -27.0079   21.3115 C   0  0  0  0  0  0  0  0  0  0  0  0
  -18.9466  -21.9963   22.2172 C   0  0  0  0  0  0  0  0  0  0  0  0
  -27.2040  -20.3395   22.1648 C   0  0  0  0  0  0  0  0  0  0  0  0
  -20.0232  -22.2042   21.1567 C   0  0  0  0  0  0  0  0  0  0  0  0
  -27.5577  -18.8521   22.1131 C   0  0  0  0  0  0  0  0  0  0  0  0
  -26.7419  -20.8572   20.8045 C   0  0  0  0  0  0  0  0  0  0  0  0
  -28.0277  -19.1062   19.6406 C   0  0  0  0  0  0  0  0  0  0  0  0
  -21.4231  -21.9779   21.7401 C   0  0  1  0  0  0  0  0  0  0  0  0
  -22.7763  -25.3156   22.9491 C   0  0  1  0  0  0  0  0  0  0  0  0
  -28.5526  -18.5515   20.9759 C   0  0  2  0  0  0  0  0  0  0  0  0
  -35.7328  -24.5125   18.6310 C   0  0  0  0  0  0  0  0  0  0  0  0
  -35.0081  -23.6052   20.8686 C   0  0  0  0  0  0  0  0  0  0  0  0
  -21.0694  -32.8690   22.7586 C   0  0  0  0  0  0  0  0  0  0  0  0
  -30.7718  -28.0457   19.2418 C   0  0  0  0  0  0  0  0  0  0  0  0
  -20.0594  -27.1006   19.6639 C   0  0  0  0  0  0  0  0  0  0  0  0
  -19.8566  -29.5960   19.6701 C   0  0  0  0  0  0  0  0  0  0  0  0
  -18.6942  -28.2477   21.4175 C   0  0  0  0  0  0  0  0  0  0  0  0
  -23.9373  -31.2352   24.6512 C   0  0  0  0  0  0  0  0  0  0  0  0
  -32.0383  -25.8828   19.4124 C   0  0  0  0  0  0  0  0  0  0  0  0
  -29.8848  -22.1534   17.1979 C   0  0  0  0  0  0  0  0  0  0  0  0
  -29.6473  -26.0402   20.2801 C   0  0  0  0  0  0  0  0  0  1  0  0
  -34.5546  -24.3794   19.6155 C   0  0  0  0  0  0  0  0  0  0  0  0
  -21.2089  -28.4925   21.5098 C   0  0  1  0  0  0  0  0  0  0  0  0
  -21.8304  -31.7191   23.3999 C   0  0  2  0  0  0  0  0  0  0  0  0
  -30.6467  -26.5170   19.2166 C   0  0  1  0  0  0  0  0  0  0  0  0
  -19.9802  -28.3468   20.5683 C   0  0  0  0  0  0  0  0  0  0  0  0
  -27.9264  -16.1789   21.2229 N   0  0  0  0  0  0  0  0  0  0  0  0
  -31.0320  -23.9743   18.3075 N   0  0  0  0  0  0  0  0  0  0  0  0
  -28.8751  -17.0711   20.8911 N   0  0  0  0  0  0  0  0  0  0  0  0
  -22.6133  -26.6005   22.2660 N   0  0  0  0  0  0  0  0  0  0  0  0
  -27.7304  -20.5413   19.7705 N   0  0  0  0  0  0  0  0  0  0  0  0
  -31.1131  -17.2564   20.1376 N   0  0  0  0  0  0  0  0  0  0  0  0
  -30.4755  -12.7945   20.4218 N   0  0  0  0  0  0  0  0  0  0  0  0
  -21.8392  -23.1266   22.5159 N   0  0  0  0  0  0  0  0  0  0  0  0
  -21.1481  -29.6492   22.3969 N   0  0  0  0  0  0  0  0  0  0  0  0
  -29.2204  -21.1966   18.0547 N   0  0  0  0  0  0  0  0  0  0  0  0
  -23.0994  -32.2547   23.9689 N   0  3  0  0  0  0  0  0  0  0  0  0
  -31.9986  -14.4284   19.9031 O   0  0  0  0  0  0  0  0  0  0  0  0
  -22.6745  -24.4181   20.7676 O   0  0  0  0  0  0  0  0  0  0  0  0
  -20.5045  -26.9719   23.1884 O   0  0  0  0  0  0  0  0  0  0  0  0
  -23.1208  -30.6293   21.6723 O   0  0  0  0  0  0  0  0  0  0  0  0
  -27.9785  -22.7677   19.1709 O   0  0  0  0  0  0  0  0  0  0  0  0
  -25.7969  -10.2319   22.0276 O   0  0  0  0  0  0  0  0  0  0  0  0
  -28.3620  -26.6070   20.0287 O   0  0  0  0  0  0  0  0  0  1  0  0
  -20.6398   -9.7947   20.1256 F   0  0  0  0  0  0  0  0  0  0  0  0
  -25.1123   -8.2482   20.2279 F   0  0  0  0  0  0  0  0  0  0  0  0
  1  2  1  0  0  0  0
  1  5  2  0  0  0  0
  2  6  2  0  0  0  0
  3  9  2  0  0  0  0
  3 17  1  0  0  0  0
  4 10  1  0  0  0  0
  4 17  2  0  0  0  0
  5 19  1  0  0  0  0
  6 21  1  0  0  0  0
  7 11  2  0  0  0  0
  7 20  1  0  0  0  0
  8 14  2  0  0  0  0
  8 23  1  0  0  0  0
  9 24  1  0  0  0  0
 10 24  2  0  0  0  0
 11 25  1  0  0  0  0
 12 13  2  0  0  0  0
 12 26  1  0  0  0  0
 13 27  1  0  0  0  0
 14 30  1  0  0  0  0
 15 22  1  0  0  0  0
 15 25  2  0  0  0  0
 16 27  2  0  0  0  0
 16 28  1  0  0  0  0
 17 29  1  0  0  0  0
 18 29  1  0  0  0  0
 18 32  2  0  0  0  0
 18 33  1  0  0  0  0
 19 21  2  0  0  0  0
 19 38  1  0  0  0  0
 20 22  2  0  0  0  0
 20 39  1  0  0  0  0
 21 47  1  0  0  0  0
 22 40  1  0  0  0  0
 23 31  2  0  0  0  0
 23 61  1  0  0  0  0
 24 82  1  0  0  0  0
 25 83  1  0  0  0  0
 26 28  2  0  0  0  0
 26 82  1  0  0  0  0
 27 84  1  0  0  0  0
 28 85  1  0  0  0  0
 29 66  2  0  0  0  0
 30 59  1  0  0  0  0
 30 67  2  0  0  0  0
 31 58  1  0  0  0  0
 31 67  1  0  0  0  0
 32 68  1  0  0  0  0
 32 71  1  0  0  0  0
 33 72  1  0  0  0  0
 33 77  2  0  0  0  0
 34 48  1  0  0  0  0
 34 73  1  0  0  0  0
 34 78  2  0  0  0  0
 35 62  1  0  0  0  0
 35 69  1  0  0  0  0
 35 79  2  0  0  0  0
 36 63  1  0  0  0  0
 36 74  1  0  0  0  0
 36 80  2  0  0  0  0
 37 70  1  0  0  0  0
 37 75  1  0  0  0  0
 37 81  2  0  0  0  0
 38 41  1  0  0  0  0
 39 48  1  0  0  0  0
 40 69  1  0  0  0  0
 41 43  1  0  0  0  0
 42 44  1  0  0  0  0
 42 45  1  0  0  0  0
 43 47  1  0  0  0  0
 44 49  1  0  0  0  0
 45 70  1  0  0  0  0
 46 49  1  0  0  0  0
 46 70  1  0  0  0  0
 47 73  1  0  0  0  0
 48 69  1  0  0  0  0
 49 68  1  0  0  0  0
 50 61  1  0  0  0  0
 51 61  1  0  0  0  0
 52 63  1  0  0  0  0
 53 64  1  0  0  0  0
 54 65  1  0  0  0  0
 55 65  1  0  0  0  0
 56 65  1  0  0  0  0
 57 76  1  0  0  0  0
 58 64  1  0  0  0  0
 59 75  1  0  0  0  0
 60 64  1  0  0  0  0
 60 83  1  0  0  0  0
 62 65  1  0  0  0  0
 62 74  1  0  0  0  0
 63 76  1  0  0  0  0
 66 68  1  0  0  0  0
M  CHG  1  76   1
M  ISO  4  37 100  60 101  75 100  83 101
M  END
> <Batch ID>
0099

> <Smiles>
CNC(C)C(=O)NC(C(=O)N1Cc2cc([101O:1][101CH2:1]C(C)Cc3nc(C[100NH:0][100C:0](=O)N4CCCC(n5nc(-c6ccc(Oc7ccc(F)cc7F)cc6)c(C(N)=O)c5N)C4)ccc3C(C)C)ccc2CC1C(=O)NC1CCCc2ccccc21)C(C)(C)C

> <Shape>
0.227

> <Color>
0.077

> <Negative vol penalty>
0.000

$$$$

  -OEChem-04052319313D

 83 91  0     1  0  0  0  0  0999 V2000
  -25.3107  -20.7564   17.6244 C   0  0  0  0  0  0  0  0  0  0  0  0
  -25.2529  -22.1360   17.7862 C   0  0  0  0  0  0  0  0  0  0  0  0
  -23.6176  -13.7488   19.4634 C   0  0  0  0  0  0  0  0  0  0  0  0
  -24.8899  -14.2098   21.4649 C   0  0  0  0  0  0  0  0  0  0  0  0
  -26.0846  -19.9885   18.4919 C   0  0  0  0  0  0  0  0  0  0  0  0
  -25.9784  -22.7495   18.8080 C   0  0  0  0  0  0  0  0  0  0  0  0
  -26.0398  -27.6685   18.8631 C   0  0  0  0  0  0  0  0  0  0  0  0
  -24.5845  -12.8274   19.0610 C   0  0  0  0  0  0  0  0  0  0  0  0
  -25.8567  -13.2883   21.0625 C   0  0  0  0  0  0  0  0  0  0  0  0
  -24.9295  -28.4321   19.2207 C   0  0  0  0  0  0  0  0  0  0  0  0
  -28.8387  -11.3225   20.3895 C   0  0  0  0  0  0  0  0  0  0  0  0
  -30.1778  -11.6942   20.5085 C   0  0  0  0  0  0  0  0  0  0  0  0
  -25.9263  -28.8615   21.3751 C   0  0  0  0  0  0  0  0  0  0  0  0
  -20.9605  -25.3965   22.1091 C   0  0  0  0  0  0  0  0  0  0  0  0
  -29.7933  -13.5566   19.0184 C   0  0  0  0  0  0  0  0  0  0  0  0
  -22.7190  -26.7525   22.4814 C   0  0  0  0  0  0  0  0  0  0  0  0
  -23.7704  -14.4400   20.6653 C   0  0  0  0  0  0  0  0  0  0  0  0
  -21.6307  -15.1397   21.8653 C   0  0  0  0  0  0  0  0  0  0  0  0
  -26.8098  -20.5924   19.5323 C   0  0  0  0  0  0  0  0  0  0  0  0
  -27.0985  -27.4863   19.7643 C   0  0  0  0  0  0  0  0  0  0  0  0
  -26.7843  -21.9942   19.6790 C   0  0  0  0  0  0  0  0  0  0  0  0
  -27.0500  -28.0972   21.0255 C   0  0  0  0  0  0  0  0  0  0  0  0
  -22.3640  -25.4343   22.2979 C   0  0  0  0  0  0  0  0  0  0  0  0
  -25.7040  -12.5972   19.8606 C   0  0  0  0  0  0  0  0  0  0  0  0
  -24.8713  -29.0264   20.4779 C   0  0  0  0  0  0  0  0  0  0  0  0
  -27.9769  -12.0678   19.5849 C   0  0  0  0  0  0  0  0  0  0  0  0
  -30.6551  -12.8113   19.8230 C   0  0  0  0  0  0  0  0  0  0  0  0
  -28.4542  -13.1849   18.8994 C   0  0  0  0  0  0  0  0  0  0  0  0
  -22.7723  -15.3923   21.0812 C   0  0  0  0  0  0  0  0  0  0  0  0
  -20.5005  -26.6928   22.1828 C   0  0  0  0  0  0  0  0  0  0  0  0
  -21.0136  -16.3616   21.9771 C   0  0  0  0  0  0  0  0  0  0  0  0
  -21.1694  -13.9103   22.4411 C   0  0  0  0  0  0  0  0  0  0  0  0
  -28.4101  -24.9754   21.2062 C   0  0  0  0  0  0  0  0  0  0  0  0
  -30.5629  -27.1771   22.2261 C   0  0  0  0  0  0  0  0  0  0  0  0
  -31.2600  -30.4471   22.9102 C   0  0  0  0  0  0  0  0  0  0  0  0
  -23.1197  -21.8706   21.7112 C   0  0  0  0  0  0  0  0  0  0  0  0
  -27.6374  -19.7144   20.4375 C   0  0  0  0  0  0  0  0  0  0  0  0
  -28.3011  -26.6817   19.3534 C   0  0  0  0  0  0  0  0  0  0  0  0
  -28.1696  -27.9491   22.0220 C   0  0  0  0  0  0  0  0  0  0  0  0
  -28.0109  -20.3973   21.7491 C   0  0  0  0  0  0  0  0  0  0  0  0
  -20.4724  -20.5102   19.6525 C   0  0  0  0  0  0  0  0  0  0  0  0
  -28.5858  -21.7781   21.4709 C   0  0  0  0  0  0  0  0  0  0  0  0
  -20.6617  -19.0075   19.8674 C   0  0  0  0  0  0  0  0  0  0  0  0
  -21.8145  -21.2337   19.5938 C   0  0  0  0  0  0  0  0  0  0  0  0
  -22.8776  -19.5095   20.9977 C   0  0  0  0  0  0  0  0  0  0  0  0
  -27.5408  -22.6802   20.8022 C   0  0  1  0  0  0  0  0  0  0  0  0
  -29.0903  -26.1381   20.5405 C   0  0  1  0  0  0  0  0  0  0  0  0
  -21.5565  -18.7244   21.0886 C   0  0  2  0  0  0  0  0  0  0  0  0
  -18.1747  -26.6913   23.1546 C   0  0  0  0  0  0  0  0  0  0  0  0
  -18.5018  -26.9491   20.6683 C   0  0  0  0  0  0  0  0  0  0  0  0
  -33.0918  -31.9334   23.7662 C   0  0  0  0  0  0  0  0  0  0  0  0
  -30.0098  -26.2173   25.0691 C   0  0  0  0  0  0  0  0  0  0  0  0
  -31.0981  -28.3084   25.9124 C   0  0  0  0  0  0  0  0  0  0  0  0
  -32.4183  -26.6709   24.5712 C   0  0  0  0  0  0  0  0  0  0  0  0
  -31.3575  -31.9794   20.3800 C   0  0  0  0  0  0  0  0  0  0  0  0
  -23.2780  -24.2763   22.2985 C   0  0  0  0  0  0  0  0  0  0  0  0
  -21.4227  -29.7571   21.2291 C   0  0  0  0  0  0  0  0  0  0  0  0
  -21.5351  -29.0083   22.5589 C   0  0  0  0  0  0  0  0  0  0  0  0
  -22.5363  -29.4137   20.2466 C   0  0  0  0  0  0  0  0  0  1  0  0
  -19.1258  -27.2195   22.0565 C   0  0  0  0  0  0  0  0  0  0  0  0
  -30.6715  -28.0921   23.4219 C   0  0  1  0  0  0  0  0  0  0  0  0
  -32.4396  -31.3256   22.5342 C   0  0  2  0  0  0  0  0  0  0  0  0
  -31.0273  -27.3235   24.7258 C   0  0  0  0  0  0  0  0  0  0  0  0
  -22.8766  -16.6741   20.7203 N   0  0  0  0  0  0  0  0  0  0  0  0
  -21.5782  -27.5085   22.4091 N   0  0  0  0  0  0  0  0  0  0  0  0
  -21.7926  -17.2378   21.2801 N   0  0  0  0  0  0  0  0  0  0  0  0
  -29.3211  -27.1476   21.5757 N   0  0  0  0  0  0  0  0  0  0  0  0
  -22.6097  -20.9371   20.7937 N   0  0  0  0  0  0  0  0  0  0  0  0
  -19.8861  -16.7614   22.6026 N   0  0  0  0  0  0  0  0  0  0  0  0
  -21.9237  -12.7484   22.2284 N   0  0  0  0  0  0  0  0  0  0  0  0
  -28.1810  -23.9019   20.3669 N   0  0  0  0  0  0  0  0  0  0  0  0
  -31.6323  -29.1277   23.0576 N   0  0  0  0  0  0  0  0  0  0  0  0
  -22.8271  -23.2020   21.4420 N   0  0  0  0  0  0  0  0  0  0  0  0
  -31.9964  -32.4339   21.6419 N   0  3  0  0  0  0  0  0  0  0  0  0
  -20.1107  -13.8410   23.1103 O   0  0  0  0  0  0  0  0  0  0  0  0
  -28.1163  -25.0464   22.3937 O   0  0  0  0  0  0  0  0  0  0  0  0
  -31.5459  -26.5184   21.8774 O   0  0  0  0  0  0  0  0  0  0  0  0
  -30.1228  -30.8880   23.0618 O   0  0  0  0  0  0  0  0  0  0  0  0
  -23.7827  -21.5416   22.7008 O   0  0  0  0  0  0  0  0  0  0  0  0
  -26.6475  -11.6980   19.4684 O   0  0  0  0  0  0  0  0  0  0  0  0
  -23.7885  -29.7718   20.8298 O   0  0  0  0  0  0  0  0  0  1  0  0
  -31.9408  -13.1690   19.9386 F   0  0  0  0  0  0  0  0  0  0  0  0
  -27.6307  -13.9055   18.1258 F   0  0  0  0  0  0  0  0  0  0  0  0
  1  2  1  0  0  0  0
  1  5  2  0  0  0  0
  2  6  2  0  0  0  0
  3  8  2  0  0  0  0
  3 17  1  0  0  0  0
  4  9  1  0  0  0  0
  4 17  2  0  0  0  0
  5 19  1  0  0  0  0
  6 21  1  0  0  0  0
  7 10  2  0  0  0  0
  7 20  1  0  0  0  0
  8 24  1  0  0  0  0
  9 24  2  0  0  0  0
 10 25  1  0  0  0  0
 11 12  2  0  0  0  0
 11 26  1  0  0  0  0
 12 27  1  0  0  0  0
 13 22  1  0  0  0  0
 13 25  2  0  0  0  0
 14 23  1  0  0  0  0
 14 30  2  0  0  0  0
 15 27  2  0  0  0  0
 15 28  1  0  0  0  0
 16 23  2  0  0  0  0
 16 65  1  0  0  0  0
 17 29  1  0  0  0  0
 18 29  1  0  0  0  0
 18 31  2  0  0  0  0
 18 32  1  0  0  0  0
 19 21  2  0  0  0  0
 19 37  1  0  0  0  0
 20 22  2  0  0  0  0
 20 38  1  0  0  0  0
 21 46  1  0  0  0  0
 22 39  1  0  0  0  0
 23 56  1  0  0  0  0
 24 80  1  0  0  0  0
 25 81  1  0  0  0  0
 26 28  2  0  0  0  0
 26 80  1  0  0  0  0
 27 82  1  0  0  0  0
 28 83  1  0  0  0  0
 29 64  2  0  0  0  0
 30 60  1  0  0  0  0
 30 65  1  0  0  0  0
 31 66  1  0  0  0  0
 31 69  1  0  0  0  0
 32 70  1  0  0  0  0
 32 75  2  0  0  0  0
 33 47  1  0  0  0  0
 33 71  1  0  0  0  0
 33 76  2  0  0  0  0
 34 61  1  0  0  0  0
 34 67  1  0  0  0  0
 34 77  2  0  0  0  0
 35 62  1  0  0  0  0
 35 72  1  0  0  0  0
 35 78  2  0  0  0  0
 36 68  1  0  0  0  0
 36 73  1  0  0  0  0
 36 79  2  0  0  0  0
 37 40  1  0  0  0  0
 38 47  1  0  0  0  0
 39 67  1  0  0  0  0
 40 42  1  0  0  0  0
 41 43  1  0  0  0  0
 41 44  1  0  0  0  0
 42 46  1  0  0  0  0
 43 48  1  0  0  0  0
 44 68  1  0  0  0  0
 45 48  1  0  0  0  0
 45 68  1  0  0  0  0
 46 71  1  0  0  0  0
 47 67  1  0  0  0  0
 48 66  1  0  0  0  0
 49 60  1  0  0  0  0
 50 60  1  0  0  0  0
 51 62  1  0  0  0  0
 52 63  1  0  0  0  0
 53 63  1  0  0  0  0
 54 63  1  0  0  0  0
 55 74  1  0  0  0  0
 56 73  1  0  0  0  0
 57 58  1  0  0  0  0
 57 59  1  0  0  0  0
 58 65  1  0  0  0  0
 59 81  1  0  0  0  0
 61 63  1  0  0  0  0
 61 72  1  0  0  0  0
 62 74  1  0  0  0  0
 64 66  1  0  0  0  0
M  CHG  1  74   1
M  ISO  4  36 100  59 101  73 100  81 101
M  END
> <Batch ID>
0099

> <Smiles>
CNC(C)C(=O)NC(C(=O)N1Cc2cc([101O:1][101CH2:1]CCn3cc(C[100NH:0][100C:0](=O)N4CCCC(n5nc(-c6ccc(Oc7ccc(F)cc7F)cc6)c(C(N)=O)c5N)C4)cc3C(C)C)ccc2CC1C(=O)NC1CCCc2ccccc21)C(C)(C)C

> <Shape>
0.220

> <Color>
0.063

> <Negative vol penalty>
0.000

$$$$

  -OEChem-04052319313D

 88 96  0     1  0  0  0  0  0999 V2000
  -23.9015  -15.5570   24.9015 C   0  0  0  0  0  0  0  0  0  0  0  0
  -24.2900  -16.8489   24.5616 C   0  0  0  0  0  0  0  0  0  0  0  0
  -29.2774  -17.8806   19.1208 C   0  0  0  0  0  0  0  0  0  0  0  0
  -30.7425  -18.3954   20.9717 C   0  0  0  0  0  0  0  0  0  0  0  0
  -23.5839  -14.6398   23.9006 C   0  0  0  0  0  0  0  0  0  0  0  0
  -24.3622  -17.2241   23.2206 C   0  0  0  0  0  0  0  0  0  0  0  0
  -23.0849  -22.7306   20.8642 C   0  0  0  0  0  0  0  0  0  0  0  0
  -29.7351  -16.5630   19.1249 C   0  0  0  0  0  0  0  0  0  0  0  0
  -31.2001  -17.0777   20.9758 C   0  0  0  0  0  0  0  0  0  0  0  0
  -23.8950  -23.8030   20.4934 C   0  0  0  0  0  0  0  0  0  0  0  0
  -30.2535  -12.9731   18.8824 C   0  0  0  0  0  0  0  0  0  0  0  0
  -29.3044  -11.9566   18.7751 C   0  0  0  0  0  0  0  0  0  0  0  0
  -23.8731  -23.0227   18.2110 C   0  0  0  0  0  0  0  0  0  0  0  0
  -27.6160  -28.5033   20.4692 C   0  0  0  0  0  0  0  0  0  0  0  0
  -28.2491  -12.7273   20.8072 C   0  0  0  0  0  0  0  0  0  0  0  0
  -29.7812  -18.7969   20.0442 C   0  0  0  0  0  0  0  0  0  0  0  0
  -28.2178  -20.6818   20.7586 C   0  0  0  0  0  0  0  0  0  0  0  0
  -23.6429  -15.0068   22.5469 C   0  0  0  0  0  0  0  0  0  0  0  0
  -22.6711  -21.7885   19.9115 C   0  0  0  0  0  0  0  0  0  0  0  0
  -24.0463  -16.3105   22.2006 C   0  0  0  0  0  0  0  0  0  0  0  0
  -23.0557  -21.9406   18.5717 C   0  0  0  0  0  0  0  0  0  0  0  0
  -26.2635  -28.7343   20.6938 C   0  0  0  0  0  0  0  0  0  0  0  0
  -25.8064  -28.9490   21.9893 C   0  0  0  0  0  0  0  0  0  0  0  0
  -30.6964  -16.1615   20.0525 C   0  0  0  0  0  0  0  0  0  0  0  0
  -24.2916  -23.9476   19.1672 C   0  0  0  0  0  0  0  0  0  0  0  0
  -30.2005  -13.8667   19.9522 C   0  0  0  0  0  0  0  0  0  0  0  0
  -28.3022  -11.8337   19.7374 C   0  0  0  0  0  0  0  0  0  0  0  0
  -29.1983  -13.7438   20.9146 C   0  0  0  0  0  0  0  0  0  0  0  0
  -29.3092  -20.1582   20.0400 C   0  0  0  0  0  0  0  0  0  0  0  0
  -28.4637  -28.4970   21.5651 C   0  0  0  0  0  0  0  0  0  0  0  0
  -26.7350  -28.9226   23.0173 C   0  0  0  0  0  0  0  0  0  0  0  0
  -28.1863  -22.0112   20.4149 C   0  0  0  0  0  0  0  0  0  0  0  0
  -27.3133  -20.0252   21.6566 C   0  0  0  0  0  0  0  0  0  0  0  0
  -23.0980  -18.6638   19.5144 C   0  0  0  0  0  0  0  0  0  0  0  0
  -21.0020  -19.0826   17.0743 C   0  0  0  0  0  0  0  0  0  0  0  0
  -19.5893  -21.1981   14.7993 C   0  0  0  0  0  0  0  0  0  0  0  0
  -30.7861  -26.8633   19.4963 C   0  0  0  0  0  0  0  0  0  0  0  0
  -23.3359  -13.9666   21.4988 C   0  0  0  0  0  0  0  0  0  0  0  0
  -21.7755  -20.6522   20.3226 C   0  0  0  0  0  0  0  0  0  0  0  0
  -22.6218  -20.9679   17.5068 C   0  0  0  0  0  0  0  0  0  0  0  0
  -23.0762  -14.5551   20.1144 C   0  0  0  0  0  0  0  0  0  0  0  0
  -30.6681  -24.5375   16.8031 C   0  0  0  0  0  0  0  0  0  0  0  0
  -24.1394  -15.5924   19.7672 C   0  0  0  0  0  0  0  0  0  0  0  0
  -30.2203  -23.2334   17.4654 C   0  0  0  0  0  0  0  0  0  0  0  0
  -31.5917  -25.3444   17.7130 C   0  0  0  0  0  0  0  0  0  0  0  0
  -30.6052  -24.3112   19.7212 C   0  0  0  0  0  0  0  0  0  0  0  0
  -24.1128  -16.7625   20.7579 C   0  0  1  0  0  0  0  0  0  0  0  0
  -21.8367  -19.4665   19.3646 C   0  0  1  0  0  0  0  0  0  0  0  0
  -29.6274  -23.4895   18.8640 C   0  0  2  0  0  0  0  0  0  0  0  0
  -24.3614  -29.2019   22.2603 C   0  0  0  0  0  0  0  0  0  0  0  0
  -17.9355  -21.2424   12.9125 C   0  0  0  0  0  0  0  0  0  0  0  0
  -25.8818  -30.7928   26.3311 C   0  0  0  0  0  0  0  0  0  0  0  0
  -27.7390  -31.2091   24.7060 C   0  0  0  0  0  0  0  0  0  0  0  0
  -24.3686  -27.4915   17.4863 C   0  0  0  0  0  0  0  0  0  0  0  0
  -23.0496  -17.7429   15.2514 C   0  0  0  0  0  0  0  0  0  0  0  0
  -21.7942  -18.6555   13.2869 C   0  0  0  0  0  0  0  0  0  0  0  0
  -20.6803  -17.0546   14.8422 C   0  0  0  0  0  0  0  0  0  0  0  0
  -17.8574  -23.1401   16.2093 C   0  0  0  0  0  0  0  0  0  0  0  0
  -26.3045  -29.1480   24.4299 C   0  0  0  0  0  0  0  0  0  0  0  0
  -29.9219  -28.2536   21.3616 C   0  0  0  0  0  0  0  0  0  0  0  0
  -24.9514  -26.1996   19.5533 C   0  0  0  0  0  0  0  0  0  1  0  0
  -25.3112  -28.7442   19.5135 C   0  0  2  0  0  0  0  0  0  0  0  0
  -21.1220  -19.4231   15.6085 C   0  0  1  0  0  0  0  0  0  0  0  0
  -18.1421  -21.4345   14.4069 C   0  0  2  0  0  0  0  0  0  0  0  0
  -26.3328  -30.6292   24.8775 C   0  0  0  0  0  0  0  0  0  0  0  0
  -25.3216  -27.4223   18.6910 C   0  0  2  0  0  0  0  0  0  0  0  0
  -21.6714  -18.2365   14.7674 C   0  0  0  0  0  0  0  0  0  0  0  0
  -29.9264  -21.0798   19.2958 N   0  0  0  0  0  0  0  0  0  0  0  0
  -28.0566  -28.7015   22.8380 N   0  0  0  0  0  0  0  0  0  0  0  0
  -29.2204  -22.1959   19.5449 N   0  0  0  0  0  0  0  0  0  0  0  0
  -21.7517  -19.8700   17.9596 N   0  0  0  0  0  0  0  0  0  0  0  0
  -30.9698  -25.5537   19.0227 N   0  0  0  0  0  0  0  0  0  0  0  0
  -27.3753  -23.0285   20.7750 N   0  0  0  0  0  0  0  0  0  0  0  0
  -27.4881  -18.6557   21.8981 N   0  0  0  0  0  0  0  0  0  0  0  0
  -23.0148  -17.6556   20.4558 N   0  0  0  0  0  0  0  0  0  0  0  0
  -19.8060  -19.8935   15.1897 N   0  0  0  0  0  0  0  0  0  0  0  0
  -30.1837  -26.9728   20.7436 N   0  0  0  0  0  0  0  0  0  0  0  0
  -25.6045  -29.9022   18.6046 N   0  3  0  0  0  0  0  0  0  0  0  0
  -17.7284  -22.8210   14.7641 N   0  3  0  0  0  0  0  0  0  0  0  0
  -26.3677  -20.6312   22.2153 O   0  0  0  0  0  0  0  0  0  0  0  0
  -24.0739  -18.9378   18.8258 O   0  0  0  0  0  0  0  0  0  0  0  0
  -20.2647  -18.1567   17.4217 O   0  0  0  0  0  0  0  0  0  0  0  0
  -20.4430  -22.0813   14.7598 O   0  0  0  0  0  0  0  0  0  0  0  0
  -31.1285  -27.8611   18.8528 O   0  0  0  0  0  0  0  0  0  0  0  0
  -31.1430  -14.8758   20.0569 O   0  0  0  0  0  0  0  0  0  0  0  0
  -25.0828  -24.9931   18.8028 O   0  0  0  0  0  0  0  0  0  1  0  0
  -27.3899  -10.8585   19.6334 F   0  0  0  0  0  0  0  0  0  0  0  0
  -29.1415  -14.6000   21.9439 F   0  0  0  0  0  0  0  0  0  0  0  0
  1  2  1  0  0  0  0
  1  5  2  0  0  0  0
  2  6  2  0  0  0  0
  3  8  2  0  0  0  0
  3 16  1  0  0  0  0
  4  9  1  0  0  0  0
  4 16  2  0  0  0  0
  5 18  1  0  0  0  0
  6 20  1  0  0  0  0
  7 10  2  0  0  0  0
  7 19  1  0  0  0  0
  8 24  1  0  0  0  0
  9 24  2  0  0  0  0
 10 25  1  0  0  0  0
 11 12  2  0  0  0  0
 11 26  1  0  0  0  0
 12 27  1  0  0  0  0
 13 21  1  0  0  0  0
 13 25  2  0  0  0  0
 14 22  1  0  0  0  0
 14 30  2  0  0  0  0
 15 27  2  0  0  0  0
 15 28  1  0  0  0  0
 16 29  1  0  0  0  0
 17 29  1  0  0  0  0
 17 32  2  0  0  0  0
 17 33  1  0  0  0  0
 18 20  2  0  0  0  0
 18 38  1  0  0  0  0
 19 21  2  0  0  0  0
 19 39  1  0  0  0  0
 20 47  1  0  0  0  0
 21 40  1  0  0  0  0
 22 23  2  0  0  0  0
 22 62  1  0  0  0  0
 23 31  1  0  0  0  0
 23 50  1  0  0  0  0
 24 85  1  0  0  0  0
 25 86  1  0  0  0  0
 26 28  2  0  0  0  0
 26 85  1  0  0  0  0
 27 87  1  0  0  0  0
 28 88  1  0  0  0  0
 29 68  2  0  0  0  0
 30 60  1  0  0  0  0
 30 69  1  0  0  0  0
 31 59  1  0  0  0  0
 31 69  2  0  0  0  0
 32 70  1  0  0  0  0
 32 73  1  0  0  0  0
 33 74  1  0  0  0  0
 33 80  2  0  0  0  0
 34 48  1  0  0  0  0
 34 75  1  0  0  0  0
 34 81  2  0  0  0  0
 35 63  1  0  0  0  0
 35 71  1  0  0  0  0
 35 82  2  0  0  0  0
 36 64  1  0  0  0  0
 36 76  1  0  0  0  0
 36 83  2  0  0  0  0
 37 72  1  0  0  0  0
 37 77  1  0  0  0  0
 37 84  2  0  0  0  0
 38 41  1  0  0  0  0
 39 48  1  0  0  0  0
 40 71  1  0  0  0  0
 41 43  1  0  0  0  0
 42 44  1  0  0  0  0
 42 45  1  0  0  0  0
 43 47  1  0  0  0  0
 44 49  1  0  0  0  0
 45 72  1  0  0  0  0
 46 49  1  0  0  0  0
 46 72  1  0  0  0  0
 47 75  1  0  0  0  0
 48 71  1  0  0  0  0
 49 70  1  0  0  0  0
 51 64  1  0  0  0  0
 52 65  1  0  0  0  0
 53 65  1  0  0  0  0
 54 66  1  0  0  0  0
 55 67  1  0  0  0  0
 56 67  1  0  0  0  0
 57 67  1  0  0  0  0
 58 79  1  0  0  0  0
 59 65  1  0  0  0  0
 60 77  1  0  0  0  0
 61 66  1  0  0  0  0
 61 86  1  0  0  0  0
 62 66  1  0  0  0  0
 62 78  1  0  0  0  0
 63 67  1  0  0  0  0
 63 76  1  0  0  0  0
 64 79  1  0  0  0  0
 68 70  1  0  0  0  0
M  CHG  2  78   1  79   1
M  ISO  4  37 100  61 101  77 100  86 101
M  END
> <Batch ID>
0099

> <Smiles>
CNC(C)C(=O)NC(C(=O)N1Cc2cc([101O:1][101CH2:1]C(C)C(N)c3cc(C[100NH:0][100C:0](=O)N4CCCC(n5nc(-c6ccc(Oc7ccc(F)cc7F)cc6)c(C(N)=O)c5N)C4)nc(CC(C)C)c3C)ccc2CC1C(=O)NC1CCCc2ccccc21)C(C)(C)C

> <Shape>
0.243

> <Color>
0.046

> <Negative vol penalty>
0.000

$$$$

  -OEChem-04052319313D

 83 90  0     1  0  0  0  0  0999 V2000
  -29.2879  -25.3961   22.4002 C   0  0  0  0  0  0  0  0  0  0  0  0
  -28.0393  -25.0650   21.8837 C   0  0  0  0  0  0  0  0  0  0  0  0
  -27.5400  -28.7799   20.4540 C   0  0  0  0  0  0  0  0  0  0  0  0
  -26.1495  -29.6238   18.6675 C   0  0  0  0  0  0  0  0  0  0  0  0
  -30.3716  -24.5412   22.2032 C   0  0  0  0  0  0  0  0  0  0  0  0
  -27.8739  -23.8793   21.1689 C   0  0  0  0  0  0  0  0  0  0  0  0
  -23.6925  -21.3628   22.5213 C   0  0  0  0  0  0  0  0  0  0  0  0
  -28.5092  -28.4061   19.5231 C   0  0  0  0  0  0  0  0  0  0  0  0
  -27.1187  -29.2501   17.7366 C   0  0  0  0  0  0  0  0  0  0  0  0
  -22.4786  -21.8276   22.0172 C   0  0  0  0  0  0  0  0  0  0  0  0
  -29.0161  -25.8825   17.3325 C   0  0  0  0  0  0  0  0  0  0  0  0
  -29.5912  -24.6191   17.4686 C   0  0  0  0  0  0  0  0  0  0  0  0
  -22.5252  -20.1028   20.3313 C   0  0  0  0  0  0  0  0  0  0  0  0
  -31.7678  -25.6370   17.7205 C   0  0  0  0  0  0  0  0  0  0  0  0
  -26.3601  -29.3887   20.0262 C   0  0  0  0  0  0  0  0  0  0  0  0
  -25.2509  -31.0096   21.6540 C   0  0  0  0  0  0  0  0  0  0  0  0
  -30.2171  -23.3397   21.4938 C   0  0  0  0  0  0  0  0  0  0  0  0
  -24.3384  -20.2695   21.9264 C   0  0  0  0  0  0  0  0  0  0  0  0
  -28.9568  -23.0081   20.9610 C   0  0  0  0  0  0  0  0  0  0  0  0
  -23.7459  -19.6245   20.8314 C   0  0  0  0  0  0  0  0  0  0  0  0
  -28.2986  -28.6412   18.1645 C   0  0  0  0  0  0  0  0  0  0  0  0
  -21.8962  -21.1994   20.9202 C   0  0  0  0  0  0  0  0  0  0  0  0
  -29.8168  -27.0232   17.3904 C   0  0  0  0  0  0  0  0  0  0  0  0
  -30.9670  -24.4963   17.6626 C   0  0  0  0  0  0  0  0  0  0  0  0
  -31.1926  -26.9004   17.5844 C   0  0  0  0  0  0  0  0  0  0  0  0
  -25.3582  -29.7744   20.9873 C   0  0  0  0  0  0  0  0  0  0  0  0
  -24.1414  -30.8736   22.4522 C   0  0  0  0  0  0  0  0  0  0  0  0
  -26.0799  -32.1757   21.5602 C   0  0  0  0  0  0  0  0  0  0  0  0
  -27.1304  -19.8337   20.4709 C   0  0  0  0  0  0  0  0  0  0  0  0
  -26.2137  -16.7222   20.4919 C   0  0  0  0  0  0  0  0  0  0  0  0
  -19.3118  -27.3218   22.0387 C   0  0  0  0  0  0  0  0  0  0  0  0
  -23.6685  -14.4525   20.6245 C   0  0  0  0  0  0  0  0  0  0  0  0
  -31.4284  -22.4705   21.2658 C   0  0  0  0  0  0  0  0  0  0  0  0
  -25.6341  -19.7636   22.4987 C   0  0  0  0  0  0  0  0  0  0  0  0
  -24.3887  -18.4341   20.1693 C   0  0  0  0  0  0  0  0  0  0  0  0
  -31.0847  -21.0520   20.8186 C   0  0  0  0  0  0  0  0  0  0  0  0
  -21.5848  -27.5889   24.7958 C   0  0  0  0  0  0  0  0  0  0  0  0
  -30.0370  -21.0808   19.7103 C   0  0  0  0  0  0  0  0  0  0  0  0
  -22.8113  -28.2661   24.1856 C   0  0  0  0  0  0  0  0  0  0  0  0
  -20.9122  -26.6496   23.7997 C   0  0  0  0  0  0  0  0  0  0  0  0
  -21.7654  -27.9781   21.8948 C   0  0  0  0  0  0  0  0  0  0  0  0
  -28.7319  -21.7188   20.2014 C   0  0  1  0  0  0  0  0  0  0  0  0
  -26.4586  -18.9634   21.4951 C   0  0  1  0  0  0  0  0  0  0  0  0
  -22.4569  -28.9591   22.8580 C   0  0  2  0  0  0  0  0  0  0  0  0
  -23.2278  -11.9824   20.5839 C   0  0  0  0  0  0  0  0  0  0  0  0
  -21.7379  -25.3156   18.1093 C   0  0  0  0  0  0  0  0  0  0  0  0
  -20.2905  -26.7341   16.6252 C   0  0  0  0  0  0  0  0  0  0  0  0
  -17.2577  -23.9023   18.8908 C   0  0  0  0  0  0  0  0  0  0  0  0
  -19.4581  -29.5222   20.9976 C   0  0  0  0  0  0  0  0  0  0  0  0
  -17.5887  -27.9514   20.4093 C   0  0  0  0  0  0  0  0  0  0  0  0
  -26.7102  -16.6855   17.4816 C   0  0  0  0  0  0  0  0  0  0  0  0
  -25.3816  -14.5670   17.3586 C   0  0  0  0  0  0  0  0  0  0  0  0
  -27.4884  -14.6403   18.6922 C   0  0  0  0  0  0  0  0  0  0  0  0
  -22.4426  -14.5096   23.3176 C   0  0  0  0  0  0  0  0  0  0  0  0
  -18.4991  -22.6513   20.6694 C   0  0  0  0  0  0  0  0  0  0  0  0
  -19.2624  -25.0024   20.0190 C   0  0  0  0  0  0  0  0  0  0  0  0
  -19.9915  -27.4099   19.6675 C   0  0  0  0  0  0  0  0  0  0  0  0
  -19.8107  -22.2602   21.3463 C   0  0  0  0  0  0  0  0  0  1  0  0
  -25.4326  -15.8314   19.5562 C   0  0  1  0  0  0  0  0  0  0  0  0
  -23.4787  -13.1996   21.4603 C   0  0  2  0  0  0  0  0  0  0  0  0
  -20.2974  -25.6873   17.7469 C   0  0  0  0  0  0  0  0  0  0  0  0
  -18.6378  -23.6791   19.5206 C   0  0  2  0  0  0  0  0  0  0  0  0
  -19.4327  -26.1356   18.9668 C   0  0  1  0  0  0  0  0  0  0  0  0
  -19.0794  -28.0576   20.7430 C   0  0  0  0  0  0  0  0  0  0  0  0
  -26.2418  -15.4547   18.2832 C   0  0  0  0  0  0  0  0  0  0  0  0
  -24.3940  -28.9169   21.3320 N   0  0  0  0  0  0  0  0  0  0  0  0
  -23.6702  -29.6142   22.2241 N   0  0  0  0  0  0  0  0  0  0  0  0
  -25.6581  -17.9809   20.7616 N   0  0  0  0  0  0  0  0  0  0  0  0
  -20.6120  -27.3395   22.5439 N   0  0  0  0  0  0  0  0  0  0  0  0
  -23.5327  -31.7097   23.3199 N   0  0  0  0  0  0  0  0  0  0  0  0
  -27.1793  -32.1457   20.6914 N   0  0  0  0  0  0  0  0  0  0  0  0
  -27.9825  -20.7796   21.0081 N   0  0  0  0  0  0  0  0  0  0  0  0
  -24.9993  -14.6863   20.3495 N   0  0  0  0  0  0  0  0  0  0  0  0
  -22.3187  -13.3625   22.3817 N   0  3  0  0  0  0  0  0  0  0  0  0
  -25.8620  -33.2076   22.2394 O   0  0  0  0  0  0  0  0  0  0  0  0
  -26.8943  -19.6589   19.2812 O   0  0  0  0  0  0  0  0  0  0  0  0
  -27.2740  -16.3133   20.9716 O   0  0  0  0  0  0  0  0  0  0  0  0
  -18.3642  -26.7514   22.5854 O   0  0  0  0  0  0  0  0  0  0  0  0
  -22.7298  -15.1517   20.2496 O   0  0  0  0  0  0  0  0  0  0  0  0
  -29.2442  -28.2769   17.2558 O   0  0  0  0  0  0  0  0  0  0  0  0
  -20.7026  -21.6550   20.4220 O   0  0  0  0  0  0  0  0  0  1  0  0
  -31.5190  -23.2830   17.7948 F   0  0  0  0  0  0  0  0  0  0  0  0
  -31.9669  -27.9927   17.6420 F   0  0  0  0  0  0  0  0  0  0  0  0
  1  2  1  0  0  0  0
  1  5  2  0  0  0  0
  2  6  2  0  0  0  0
  3  8  2  0  0  0  0
  3 15  1  0  0  0  0
  4  9  1  0  0  0  0
  4 15  2  0  0  0  0
  5 17  1  0  0  0  0
  6 19  1  0  0  0  0
  7 10  2  0  0  0  0
  7 18  1  0  0  0  0
  8 21  1  0  0  0  0
  9 21  2  0  0  0  0
 10 22  1  0  0  0  0
 11 12  2  0  0  0  0
 11 23  1  0  0  0  0
 12 24  1  0  0  0  0
 13 20  1  0  0  0  0
 13 22  2  0  0  0  0
 14 24  2  0  0  0  0
 14 25  1  0  0  0  0
 15 26  1  0  0  0  0
 16 26  1  0  0  0  0
 16 27  2  0  0  0  0
 16 28  1  0  0  0  0
 17 19  2  0  0  0  0
 17 33  1  0  0  0  0
 18 20  2  0  0  0  0
 18 34  1  0  0  0  0
 19 42  1  0  0  0  0
 20 35  1  0  0  0  0
 21 80  1  0  0  0  0
 22 81  1  0  0  0  0
 23 25  2  0  0  0  0
 23 80  1  0  0  0  0
 24 82  1  0  0  0  0
 25 83  1  0  0  0  0
 26 66  2  0  0  0  0
 27 67  1  0  0  0  0
 27 70  1  0  0  0  0
 28 71  1  0  0  0  0
 28 75  2  0  0  0  0
 29 43  1  0  0  0  0
 29 72  1  0  0  0  0
 29 76  2  0  0  0  0
 30 59  1  0  0  0  0
 30 68  1  0  0  0  0
 30 77  2  0  0  0  0
 31 64  1  0  0  0  0
 31 69  1  0  0  0  0
 31 78  2  0  0  0  0
 32 60  1  0  0  0  0
 32 73  1  0  0  0  0
 32 79  2  0  0  0  0
 33 36  1  0  0  0  0
 34 43  1  0  0  0  0
 35 68  1  0  0  0  0
 36 38  1  0  0  0  0
 37 39  1  0  0  0  0
 37 40  1  0  0  0  0
 38 42  1  0  0  0  0
 39 44  1  0  0  0  0
 40 69  1  0  0  0  0
 41 44  1  0  0  0  0
 41 69  1  0  0  0  0
 42 72  1  0  0  0  0
 43 68  1  0  0  0  0
 44 67  1  0  0  0  0
 45 60  1  0  0  0  0
 46 61  1  0  0  0  0
 47 61  1  0  0  0  0
 48 62  1  0  0  0  0
 49 64  1  0  0  0  0
 50 64  1  0  0  0  0
 51 65  1  0  0  0  0
 52 65  1  0  0  0  0
 53 65  1  0  0  0  0
 54 74  1  0  0  0  0
 55 58  1  0  0  0  0
 55 62  1  0  0  0  0
 56 62  1  0  0  0  0
 56 63  1  0  0  0  0
 57 63  1  0  0  0  0
 57 64  1  0  0  0  0
 58 81  1  0  0  0  0
 59 65  1  0  0  0  0
 59 73  1  0  0  0  0
 60 74  1  0  0  0  0
 61 63  1  0  0  0  0
 66 67  1  0  0  0  0
M  CHG  1  74   1
M  ISO  4  31 100  58 101  64 100  81 101
M  END
> <Batch ID>
0099

> <Smiles>
CNC(C)C(=O)NC(C(=O)N1Cc2cc([101O:1][101CH2:1]CC(C)CC(C[100C:0](C)(C)[100C:0](=O)N3CCCC(n4nc(-c5ccc(Oc6ccc(F)cc6F)cc5)c(C(N)=O)c4N)C3)C(C)C)ccc2CC1C(=O)NC1CCCc2ccccc21)C(C)(C)C

> <Shape>
0.215

> <Color>
0.052

> <Negative vol penalty>
0.000

$$$$

  -OEChem-04052319313D

 83 91  0     1  0  0  0  0  0999 V2000
  -25.5677  -10.9811   20.7439 C   0  0  0  0  0  0  0  0  0  0  0  0
  -26.5968  -11.9029   20.9072 C   0  0  0  0  0  0  0  0  0  0  0  0
  -26.3688  -28.2463   18.7951 C   0  0  0  0  0  0  0  0  0  0  0  0
  -26.8091  -27.4772   21.0427 C   0  0  0  0  0  0  0  0  0  0  0  0
  -24.3229  -11.4030   20.2786 C   0  0  0  0  0  0  0  0  0  0  0  0
  -26.3821  -13.2469   20.6042 C   0  0  0  0  0  0  0  0  0  0  0  0
  -28.2390  -16.3568   24.1433 C   0  0  0  0  0  0  0  0  0  0  0  0
  -25.2700  -28.9701   19.2579 C   0  0  0  0  0  0  0  0  0  0  0  0
  -25.7102  -28.2010   21.5056 C   0  0  0  0  0  0  0  0  0  0  0  0
  -29.6149  -16.5821   24.1345 C   0  0  0  0  0  0  0  0  0  0  0  0
  -24.9871  -31.4131   22.2672 C   0  0  0  0  0  0  0  0  0  0  0  0
  -25.1515  -32.1645   23.4308 C   0  0  0  0  0  0  0  0  0  0  0  0
  -32.0629  -14.4908   20.8789 C   0  0  0  0  0  0  0  0  0  0  0  0
  -29.2576  -18.6826   23.0034 C   0  0  0  0  0  0  0  0  0  0  0  0
  -23.4018  -30.8883   24.5020 C   0  0  0  0  0  0  0  0  0  0  0  0
  -32.7086  -15.4030   21.6840 C   0  0  0  0  0  0  0  0  0  0  0  0
  -27.1384  -27.4998   19.6874 C   0  0  0  0  0  0  0  0  0  0  0  0
  -29.6034  -27.2001   19.1030 C   0  0  0  0  0  0  0  0  0  0  0  0
  -24.0899  -12.7545   19.9789 C   0  0  0  0  0  0  0  0  0  0  0  0
  -27.3615  -17.2892   23.5715 C   0  0  0  0  0  0  0  0  0  0  0  0
  -25.1334  -13.6871   20.1332 C   0  0  0  0  0  0  0  0  0  0  0  0
  -27.8709  -18.4680   23.0085 C   0  0  0  0  0  0  0  0  0  0  0  0
  -31.4551  -15.2140   19.8231 C   0  0  0  0  0  0  0  0  0  0  0  0
  -24.9407  -28.9475   20.6132 C   0  0  0  0  0  0  0  0  0  0  0  0
  -30.1246  -17.7438   23.5620 C   0  0  0  0  0  0  0  0  0  0  0  0
  -24.0300  -30.3994   22.2209 C   0  0  0  0  0  0  0  0  0  0  0  0
  -24.3589  -31.9021   24.5482 C   0  0  0  0  0  0  0  0  0  0  0  0
  -23.2375  -30.1370   23.3383 C   0  0  0  0  0  0  0  0  0  0  0  0
  -28.2733  -26.7515   19.2098 C   0  0  0  0  0  0  0  0  0  0  0  0
  -31.7482  -16.5462   20.0150 C   0  0  0  0  0  0  0  0  0  0  0  0
  -30.2900  -26.1219   18.6004 C   0  0  0  0  0  0  0  0  0  0  0  0
  -30.1678  -28.4772   19.4289 C   0  0  0  0  0  0  0  0  0  0  0  0
  -25.2785  -17.2303   21.1712 C   0  0  0  0  0  0  0  0  0  0  0  0
  -24.5486  -20.2026   22.2458 C   0  0  0  0  0  0  0  0  0  0  0  0
  -25.5334  -22.9896   23.9516 C   0  0  0  0  0  0  0  0  0  0  0  0
  -29.2613  -20.3162   18.9006 C   0  0  0  0  0  0  0  0  0  0  0  0
  -22.7420  -13.1553   19.4338 C   0  0  0  0  0  0  0  0  0  0  0  0
  -25.8780  -17.0440   23.6129 C   0  0  0  0  0  0  0  0  0  0  0  0
  -26.9697  -19.5100   22.3997 C   0  0  0  0  0  0  0  0  0  0  0  0
  -22.4841  -14.6588   19.4918 C   0  0  0  0  0  0  0  0  0  0  0  0
  -29.6853  -22.2411   15.8654 C   0  0  0  0  0  0  0  0  0  0  0  0
  -23.6949  -15.4285   18.9740 C   0  0  0  0  0  0  0  0  0  0  0  0
  -29.4950  -23.6685   16.3814 C   0  0  0  0  0  0  0  0  0  0  0  0
  -28.7463  -21.2680   16.5721 C   0  0  0  0  0  0  0  0  0  0  0  0
  -28.6669  -22.7003   18.5761 C   0  0  0  0  0  0  0  0  0  0  0  0
  -24.9319  -15.1577   19.8388 C   0  0  1  0  0  0  0  0  0  0  0  0
  -25.1142  -17.8192   22.5438 C   0  0  1  0  0  0  0  0  0  0  0  0
  -29.6038  -23.7285   17.9166 C   0  0  2  0  0  0  0  0  0  0  0  0
  -30.6563  -14.6381   18.7233 C   0  0  0  0  0  0  0  0  0  0  0  0
  -24.7336  -25.2696   24.6293 C   0  0  0  0  0  0  0  0  0  0  0  0
  -25.0181  -21.2093   19.4040 C   0  0  0  0  0  0  0  0  0  0  0  0
  -25.1448  -23.5347   20.3232 C   0  0  0  0  0  0  0  0  0  0  0  0
  -23.0392  -22.2171   20.5541 C   0  0  0  0  0  0  0  0  0  0  0  0
  -33.4329  -17.7205   17.8111 C   0  0  0  0  0  0  0  0  0  0  0  0
  -25.7715  -22.3447   26.8303 C   0  0  0  0  0  0  0  0  0  0  0  0
  -33.0576  -17.9283   21.7347 C   0  0  0  0  0  0  0  0  0  0  0  0
  -29.8401  -17.9092   19.0696 C   0  0  0  0  0  0  0  0  0  0  0  0
  -31.9901  -18.7332   22.4679 C   0  0  0  0  0  0  0  0  0  1  0  0
  -31.3680  -17.7308   19.2164 C   0  0  2  0  0  0  0  0  0  0  0  0
  -25.0495  -21.5970   21.9564 C   0  0  1  0  0  0  0  0  0  0  0  0
  -24.8444  -23.8067   25.0297 C   0  0  2  0  0  0  0  0  0  0  0  0
  -24.5803  -22.1192   20.5691 C   0  0  0  0  0  0  0  0  0  0  0  0
  -28.1217  -25.4870   18.8073 N   0  0  0  0  0  0  0  0  0  0  0  0
  -32.5108  -16.6492   21.1490 N   0  0  0  0  0  0  0  0  0  0  0  0
  -29.3654  -25.1318   18.4426 N   0  0  0  0  0  0  0  0  0  0  0  0
  -25.5272  -19.2215   22.4590 N   0  0  0  0  0  0  0  0  0  0  0  0
  -28.9129  -21.3617   18.0294 N   0  0  0  0  0  0  0  0  0  0  0  0
  -31.5885  -25.9338   18.2825 N   0  0  0  0  0  0  0  0  0  0  0  0
  -29.3206  -29.4726   19.9347 N   0  0  0  0  0  0  0  0  0  0  0  0
  -24.8639  -15.9160   21.0696 N   0  0  0  0  0  0  0  0  0  0  0  0
  -24.6259  -22.4245   23.0808 N   0  0  0  0  0  0  0  0  0  0  0  0
  -29.4703  -19.0788   18.3039 N   0  0  0  0  0  0  0  0  0  0  0  0
  -31.9557  -17.7307   17.8245 N   0  3  0  0  0  0  0  0  0  0  0  0
  -25.6067  -23.7256   26.3077 N   0  3  0  0  0  0  0  0  0  0  0  0
  -31.3841  -28.7334   19.2608 O   0  0  0  0  0  0  0  0  0  0  0  0
  -25.7453  -17.9179   20.2707 O   0  0  0  0  0  0  0  0  0  0  0  0
  -23.3337  -19.9932   22.2885 O   0  0  0  0  0  0  0  0  0  0  0  0
  -26.7546  -22.8680   23.8863 O   0  0  0  0  0  0  0  0  0  0  0  0
  -29.3826  -20.4748   20.1201 O   0  0  0  0  0  0  0  0  0  0  0  0
  -23.8686  -29.6538   21.0652 O   0  0  0  0  0  0  0  0  0  0  0  0
  -31.4671  -17.9658   23.5515 O   0  0  0  0  0  0  0  0  0  1  0  0
  -24.5179  -32.6227   25.6661 F   0  0  0  0  0  0  0  0  0  0  0  0
  -22.3172  -29.1636   23.3003 F   0  0  0  0  0  0  0  0  0  0  0  0
  1  2  1  0  0  0  0
  1  5  2  0  0  0  0
  2  6  2  0  0  0  0
  3  8  2  0  0  0  0
  3 17  1  0  0  0  0
  4  9  1  0  0  0  0
  4 17  2  0  0  0  0
  5 19  1  0  0  0  0
  6 21  1  0  0  0  0
  7 10  2  0  0  0  0
  7 20  1  0  0  0  0
  8 24  1  0  0  0  0
  9 24  2  0  0  0  0
 10 25  1  0  0  0  0
 11 12  2  0  0  0  0
 11 26  1  0  0  0  0
 12 27  1  0  0  0  0
 13 16  2  0  0  0  0
 13 23  1  0  0  0  0
 14 22  1  0  0  0  0
 14 25  2  0  0  0  0
 15 27  2  0  0  0  0
 15 28  1  0  0  0  0
 16 64  1  0  0  0  0
 17 29  1  0  0  0  0
 18 29  1  0  0  0  0
 18 31  2  0  0  0  0
 18 32  1  0  0  0  0
 19 21  2  0  0  0  0
 19 37  1  0  0  0  0
 20 22  2  0  0  0  0
 20 38  1  0  0  0  0
 21 46  1  0  0  0  0
 22 39  1  0  0  0  0
 23 30  2  0  0  0  0
 23 49  1  0  0  0  0
 24 80  1  0  0  0  0
 25 81  1  0  0  0  0
 26 28  2  0  0  0  0
 26 80  1  0  0  0  0
 27 82  1  0  0  0  0
 28 83  1  0  0  0  0
 29 63  2  0  0  0  0
 30 59  1  0  0  0  0
 30 64  1  0  0  0  0
 31 65  1  0  0  0  0
 31 68  1  0  0  0  0
 32 69  1  0  0  0  0
 32 75  2  0  0  0  0
 33 47  1  0  0  0  0
 33 70  1  0  0  0  0
 33 76  2  0  0  0  0
 34 60  1  0  0  0  0
 34 66  1  0  0  0  0
 34 77  2  0  0  0  0
 35 61  1  0  0  0  0
 35 71  1  0  0  0  0
 35 78  2  0  0  0  0
 36 67  1  0  0  0  0
 36 72  1  0  0  0  0
 36 79  2  0  0  0  0
 37 40  1  0  0  0  0
 38 47  1  0  0  0  0
 39 66  1  0  0  0  0
 40 42  1  0  0  0  0
 41 43  1  0  0  0  0
 41 44  1  0  0  0  0
 42 46  1  0  0  0  0
 43 48  1  0  0  0  0
 44 67  1  0  0  0  0
 45 48  1  0  0  0  0
 45 67  1  0  0  0  0
 46 70  1  0  0  0  0
 47 66  1  0  0  0  0
 48 65  1  0  0  0  0
 50 61  1  0  0  0  0
 51 62  1  0  0  0  0
 52 62  1  0  0  0  0
 53 62  1  0  0  0  0
 54 73  1  0  0  0  0
 55 74  1  0  0  0  0
 56 58  1  0  0  0  0
 56 64  1  0  0  0  0
 57 59  1  0  0  0  0
 57 72  1  0  0  0  0
 58 81  1  0  0  0  0
 59 73  1  0  0  0  0
 60 62  1  0  0  0  0
 60 71  1  0  0  0  0
 61 74  1  0  0  0  0
 63 65  1  0  0  0  0
M  CHG  2  73   1  74   1
M  ISO  4  36 100  58 101  72 100  81 101
M  END
> <Batch ID>
0099

> <Smiles>
CNC(C)C(=O)NC(C(=O)N1Cc2cc([101O:1][101CH2:1]Cn3ccc(C)c3C(C[100NH:0][100C:0](=O)N3CCCC(n4nc(-c5ccc(Oc6ccc(F)cc6F)cc5)c(C(N)=O)c4N)C3)NC)ccc2CC1C(=O)NC1CCCc2ccccc21)C(C)(C)C

> <Shape>
0.213

> <Color>
0.062

> <Negative vol penalty>
0.000

$$$$

  -OEChem-04052319313D

 85 93  0     1  0  0  0  0  0999 V2000
  -21.6524  -28.2975   12.6207 C   0  0  0  0  0  0  0  0  0  0  0  0
  -22.5261  -27.4262   13.2632 C   0  0  0  0  0  0  0  0  0  0  0  0
  -23.0639   -9.8478   19.9448 C   0  0  0  0  0  0  0  0  0  0  0  0
  -23.8291   -9.8615   22.2363 C   0  0  0  0  0  0  0  0  0  0  0  0
  -21.1416  -29.4003   13.3040 C   0  0  0  0  0  0  0  0  0  0  0  0
  -22.8906  -27.6578   14.5890 C   0  0  0  0  0  0  0  0  0  0  0  0
  -22.7544  -23.4508   17.4047 C   0  0  0  0  0  0  0  0  0  0  0  0
  -22.3260   -8.6916   20.1980 C   0  0  0  0  0  0  0  0  0  0  0  0
  -23.0911   -8.7052   22.4896 C   0  0  0  0  0  0  0  0  0  0  0  0
  -23.8211  -22.5626   17.2742 C   0  0  0  0  0  0  0  0  0  0  0  0
  -19.8681   -7.8933   23.1008 C   0  0  0  0  0  0  0  0  0  0  0  0
  -19.1141   -7.8514   24.2735 C   0  0  0  0  0  0  0  0  0  0  0  0
  -24.7936  -23.4426   19.2988 C   0  0  0  0  0  0  0  0  0  0  0  0
  -29.3169  -18.6584   20.8785 C   0  0  0  0  0  0  0  0  0  0  0  0
  -20.3662   -5.9208   25.0096 C   0  0  0  0  0  0  0  0  0  0  0  0
  -31.3646  -19.3219   19.2015 C   0  0  0  0  0  0  0  0  0  0  0  0
  -23.8156  -10.4328   20.9639 C   0  0  0  0  0  0  0  0  0  0  0  0
  -24.1454  -12.9593   20.8397 C   0  0  0  0  0  0  0  0  0  0  0  0
  -21.4924  -29.6402   14.6419 C   0  0  0  0  0  0  0  0  0  0  0  0
  -22.7048  -24.3506   18.4790 C   0  0  0  0  0  0  0  0  0  0  0  0
  -22.3851  -28.7656   15.2904 C   0  0  0  0  0  0  0  0  0  0  0  0
  -23.7239  -24.3395   19.4420 C   0  0  0  0  0  0  0  0  0  0  0  0
  -29.1380  -19.6827   19.9554 C   0  0  0  0  0  0  0  0  0  0  0  0
  -30.1764  -20.0269   19.0973 C   0  0  0  0  0  0  0  0  0  0  0  0
  -22.3396   -8.1203   21.4704 C   0  0  0  0  0  0  0  0  0  0  0  0
  -24.8424  -22.5604   18.2198 C   0  0  0  0  0  0  0  0  0  0  0  0
  -20.8712   -6.9488   22.8824 C   0  0  0  0  0  0  0  0  0  0  0  0
  -19.3631   -6.8652   25.2279 C   0  0  0  0  0  0  0  0  0  0  0  0
  -21.1202   -5.9626   23.8369 C   0  0  0  0  0  0  0  0  0  0  0  0
  -24.5785  -11.6268   20.7028 C   0  0  0  0  0  0  0  0  0  0  0  0
  -30.5435  -18.0145   20.9029 C   0  0  0  0  0  0  0  0  0  0  0  0
  -25.2332  -13.7133   20.4728 C   0  0  0  0  0  0  0  0  0  0  0  0
  -22.8735  -13.4698   21.2608 C   0  0  0  0  0  0  0  0  0  0  0  0
  -22.6960  -27.5173   18.7542 C   0  0  0  0  0  0  0  0  0  0  0  0
  -22.2043  -26.8536   21.8911 C   0  0  0  0  0  0  0  0  0  0  0  0
  -22.5191  -24.6380   24.4677 C   0  0  0  0  0  0  0  0  0  0  0  0
  -30.7126  -14.7581   20.6470 C   0  0  0  0  0  0  0  0  0  0  0  0
  -20.9519  -30.8718   15.3244 C   0  0  0  0  0  0  0  0  0  0  0  0
  -21.5338  -25.2841   18.6200 C   0  0  0  0  0  0  0  0  0  0  0  0
  -23.7074  -25.2715   20.6250 C   0  0  0  0  0  0  0  0  0  0  0  0
  -21.0938  -30.8378   16.8440 C   0  0  0  0  0  0  0  0  0  0  0  0
  -29.5805  -12.3650   18.2662 C   0  0  0  0  0  0  0  0  0  0  0  0
  -22.4971  -30.3891   17.2392 C   0  0  0  0  0  0  0  0  0  0  0  0
  -28.1454  -12.0652   18.7028 C   0  0  0  0  0  0  0  0  0  0  0  0
  -30.4994  -12.5918   19.4646 C   0  0  0  0  0  0  0  0  0  0  0  0
  -28.5975  -13.3159   20.8546 C   0  0  0  0  0  0  0  0  0  0  0  0
  -22.7846  -28.9695   16.7358 C   0  0  1  0  0  0  0  0  0  0  0  0
  -21.8456  -26.5091   19.4741 C   0  0  1  0  0  0  0  0  0  0  0  0
  -27.6214  -13.1352   19.6795 C   0  0  2  0  0  0  0  0  0  0  0  0
  -27.1746  -20.5019   21.2992 C   0  0  0  0  0  0  0  0  0  0  0  0
  -30.1834  -20.6047   16.6438 C   0  0  0  0  0  0  0  0  0  0  0  0
  -31.0255  -22.2744   18.3343 C   0  0  0  0  0  0  0  0  0  0  0  0
  -22.0600  -24.3933   26.9226 C   0  0  0  0  0  0  0  0  0  0  0  0
  -24.6036  -28.6326   22.5147 C   0  0  0  0  0  0  0  0  0  0  0  0
  -24.6791  -27.6109   24.7991 C   0  0  0  0  0  0  0  0  0  0  0  0
  -22.6704  -28.9025   24.0782 C   0  0  0  0  0  0  0  0  0  0  0  0
  -20.7023  -22.3455   24.0175 C   0  0  0  0  0  0  0  0  0  0  0  0
  -30.7713  -16.9106   21.8808 C   0  0  0  0  0  0  0  0  0  0  0  0
  -26.8616  -19.7476   18.8770 C   0  0  0  0  0  0  0  0  0  0  0  0
  -27.8030  -20.4097   19.9025 C   0  0  2  0  0  0  0  0  0  0  0  0
  -30.0387  -21.1158   18.0906 C   0  0  0  0  0  0  0  0  0  0  0  0
  -23.0956  -26.6162   23.0861 C   0  0  1  0  0  0  0  0  0  0  0  0
  -21.5285  -24.1649   25.5161 C   0  0  2  0  0  0  0  0  0  0  0  0
  -23.7638  -27.9242   23.5963 C   0  0  0  0  0  0  0  0  0  0  0  0
  -31.5757  -18.3210   20.0853 N   0  0  0  0  0  0  0  0  0  0  0  0
  -25.8428  -11.5363   20.2817 N   0  0  0  0  0  0  0  0  0  0  0  0
  -26.2135  -12.8214   20.1507 N   0  0  0  0  0  0  0  0  0  0  0  0
  -22.5444  -26.1697   20.7154 N   0  0  0  0  0  0  0  0  0  0  0  0
  -29.9461  -13.6189   20.3505 N   0  0  0  0  0  0  0  0  0  0  0  0
  -25.4372  -15.0457   20.3975 N   0  0  0  0  0  0  0  0  0  0  0  0
  -21.8666  -12.5564   21.6017 N   0  0  0  0  0  0  0  0  0  0  0  0
  -22.1364  -27.9917   17.5832 N   0  0  0  0  0  0  0  0  0  0  0  0
  -22.2721  -25.9384   24.0815 N   0  0  0  0  0  0  0  0  0  0  0  0
  -30.1111  -15.6853   21.4892 N   0  0  0  0  0  0  0  0  0  0  0  0
  -25.5850  -20.4418   18.7866 N   0  0  0  0  0  0  0  0  0  1  0  0
  -21.2521  -22.7101   25.3486 N   0  3  0  0  0  0  0  0  0  0  0  0
  -22.6317  -14.6994   21.3171 O   0  0  0  0  0  0  0  0  0  0  0  0
  -23.7789  -27.8420   19.2270 O   0  0  0  0  0  0  0  0  0  0  0  0
  -21.2376  -27.6122   21.9990 O   0  0  0  0  0  0  0  0  0  0  0  0
  -23.4240  -23.9264   24.0372 O   0  0  0  0  0  0  0  0  0  0  0  0
  -31.8466  -14.9382   20.1905 O   0  0  0  0  0  0  0  0  0  0  0  0
  -21.6194   -6.9922   21.7180 O   0  0  0  0  0  0  0  0  0  0  0  0
  -25.8850  -21.6949   18.0945 O   0  0  0  0  0  0  0  0  0  1  0  0
  -18.6400   -6.8261   26.3547 F   0  0  0  0  0  0  0  0  0  0  0  0
  -22.0833   -5.0533   23.6333 F   0  0  0  0  0  0  0  0  0  0  0  0
  1  2  1  0  0  0  0
  1  5  2  0  0  0  0
  2  6  2  0  0  0  0
  3  8  2  0  0  0  0
  3 17  1  0  0  0  0
  4  9  1  0  0  0  0
  4 17  2  0  0  0  0
  5 19  1  0  0  0  0
  6 21  1  0  0  0  0
  7 10  2  0  0  0  0
  7 20  1  0  0  0  0
  8 25  1  0  0  0  0
  9 25  2  0  0  0  0
 10 26  1  0  0  0  0
 11 12  2  0  0  0  0
 11 27  1  0  0  0  0
 12 28  1  0  0  0  0
 13 22  1  0  0  0  0
 13 26  2  0  0  0  0
 14 23  1  0  0  0  0
 14 31  2  0  0  0  0
 15 28  2  0  0  0  0
 15 29  1  0  0  0  0
 16 24  1  0  0  0  0
 16 65  2  0  0  0  0
 17 30  1  0  0  0  0
 18 30  1  0  0  0  0
 18 32  2  0  0  0  0
 18 33  1  0  0  0  0
 19 21  2  0  0  0  0
 19 38  1  0  0  0  0
 20 22  2  0  0  0  0
 20 39  1  0  0  0  0
 21 47  1  0  0  0  0
 22 40  1  0  0  0  0
 23 24  2  0  0  0  0
 23 60  1  0  0  0  0
 24 61  1  0  0  0  0
 25 82  1  0  0  0  0
 26 83  1  0  0  0  0
 27 29  2  0  0  0  0
 27 82  1  0  0  0  0
 28 84  1  0  0  0  0
 29 85  1  0  0  0  0
 30 66  2  0  0  0  0
 31 58  1  0  0  0  0
 31 65  1  0  0  0  0
 32 67  1  0  0  0  0
 32 70  1  0  0  0  0
 33 71  1  0  0  0  0
 33 77  2  0  0  0  0
 34 48  1  0  0  0  0
 34 72  1  0  0  0  0
 34 78  2  0  0  0  0
 35 62  1  0  0  0  0
 35 68  1  0  0  0  0
 35 79  2  0  0  0  0
 36 63  1  0  0  0  0
 36 73  1  0  0  0  0
 36 80  2  0  0  0  0
 37 69  1  0  0  0  0
 37 74  1  0  0  0  0
 37 81  2  0  0  0  0
 38 41  1  0  0  0  0
 39 48  1  0  0  0  0
 40 68  1  0  0  0  0
 41 43  1  0  0  0  0
 42 44  1  0  0  0  0
 42 45  1  0  0  0  0
 43 47  1  0  0  0  0
 44 49  1  0  0  0  0
 45 69  1  0  0  0  0
 46 49  1  0  0  0  0
 46 69  1  0  0  0  0
 47 72  1  0  0  0  0
 48 68  1  0  0  0  0
 49 67  1  0  0  0  0
 50 60  1  0  0  0  0
 51 61  1  0  0  0  0
 52 61  1  0  0  0  0
 53 63  1  0  0  0  0
 54 64  1  0  0  0  0
 55 64  1  0  0  0  0
 56 64  1  0  0  0  0
 57 76  1  0  0  0  0
 58 74  1  0  0  0  0
 59 60  1  0  0  0  0
 59 75  1  0  0  0  0
 62 64  1  0  0  0  0
 62 73  1  0  0  0  0
 63 76  1  0  0  0  0
 66 67  1  0  0  0  0
 75 83  1  0  0  0  0
M  CHG  1  76   1
M  ISO  4  37 100  74 100  75 101  83 101
M  END
> <Batch ID>
0099

> <Smiles>
CNC(C)C(=O)NC(C(=O)N1Cc2cc([101O:1][101NH:1]CC(C)c3cc(C[100NH:0][100C:0](=O)N4CCCC(n5nc(-c6ccc(Oc7ccc(F)cc7F)cc6)c(C(N)=O)c5N)C4)ncc3C(C)C)ccc2CC1C(=O)NC1CCCc2ccccc21)C(C)(C)C

> <Shape>
0.235

> <Color>
0.195

> <Negative vol penalty>
0.000

$$$$

  -OEChem-04052319313D

 85 93  0     1  0  0  0  0  0999 V2000
  -24.8852  -10.6241   17.8265 C   0  0  0  0  0  0  0  0  0  0  0  0
  -24.7950  -11.8816   17.2381 C   0  0  0  0  0  0  0  0  0  0  0  0
  -29.3722  -26.7785   17.9742 C   0  0  0  0  0  0  0  0  0  0  0  0
  -28.6707  -25.2239   19.6854 C   0  0  0  0  0  0  0  0  0  0  0  0
  -24.9359  -10.5075   19.2149 C   0  0  0  0  0  0  0  0  0  0  0  0
  -24.7543  -13.0231   18.0380 C   0  0  0  0  0  0  0  0  0  0  0  0
  -26.8106  -19.8850   18.0825 C   0  0  0  0  0  0  0  0  0  0  0  0
  -30.6441  -26.2060   17.9755 C   0  0  0  0  0  0  0  0  0  0  0  0
  -29.9426  -24.6513   19.6866 C   0  0  0  0  0  0  0  0  0  0  0  0
  -26.2929  -21.1632   18.2875 C   0  0  0  0  0  0  0  0  0  0  0  0
  -33.9698  -24.9184   17.2707 C   0  0  0  0  0  0  0  0  0  0  0  0
  -34.5620  -24.6514   16.0364 C   0  0  0  0  0  0  0  0  0  0  0  0
  -26.4670  -20.8447   20.6723 C   0  0  0  0  0  0  0  0  0  0  0  0
  -18.9181  -28.7429   22.7609 C   0  0  0  0  0  0  0  0  0  0  0  0
  -32.7291  -23.1808   15.4752 C   0  0  0  0  0  0  0  0  0  0  0  0
  -18.8289  -26.6238   22.0051 C   0  0  0  0  0  0  0  0  0  0  0  0
  -28.3855  -26.2875   18.8292 C   0  0  0  0  0  0  0  0  0  0  0  0
  -25.9704  -26.5031   18.0363 C   0  0  0  0  0  0  0  0  0  0  0  0
  -24.9056  -11.6487   20.0319 C   0  0  0  0  0  0  0  0  0  0  0  0
  -27.1507  -19.0715   19.1729 C   0  0  0  0  0  0  0  0  0  0  0  0
  -24.8033  -12.9215   19.4387 C   0  0  0  0  0  0  0  0  0  0  0  0
  -26.9912  -19.5576   20.4785 C   0  0  0  0  0  0  0  0  0  0  0  0
  -18.1483  -27.8213   22.0092 C   0  0  0  0  0  0  0  0  0  0  0  0
  -30.9293  -25.1424   18.8316 C   0  0  0  0  0  0  0  0  0  0  0  0
  -26.1183  -21.6421   19.5825 C   0  0  0  0  0  0  0  0  0  0  0  0
  -32.7573  -24.3166   17.6074 C   0  0  0  0  0  0  0  0  0  0  0  0
  -33.9417  -23.7826   15.1386 C   0  0  0  0  0  0  0  0  0  0  0  0
  -32.1370  -23.4478   16.7096 C   0  0  0  0  0  0  0  0  0  0  0  0
  -27.0715  -26.8788   18.8288 C   0  0  0  0  0  0  0  0  0  0  0  0
  -20.0459  -28.0805   23.1931 C   0  0  0  0  0  0  0  0  0  0  0  0
  -24.9684  -27.3650   18.4098 C   0  0  0  0  0  0  0  0  0  0  0  0
  -25.8629  -25.4674   17.0506 C   0  0  0  0  0  0  0  0  0  0  0  0
  -26.1576  -16.2577   20.2683 C   0  0  0  0  0  0  0  0  0  0  0  0
  -28.6074  -16.6454   22.3588 C   0  0  0  0  0  0  0  0  0  0  0  0
  -30.7161  -18.7778   23.9877 C   0  0  0  0  0  0  0  0  0  0  0  0
  -22.9227  -30.0773   23.0973 C   0  0  0  0  0  0  0  0  0  0  0  0
  -24.9152  -11.4698   21.5294 C   0  0  0  0  0  0  0  0  0  0  0  0
  -27.7329  -17.7053   18.9346 C   0  0  0  0  0  0  0  0  0  0  0  0
  -27.3599  -18.7316   21.6827 C   0  0  0  0  0  0  0  0  0  0  0  0
  -25.2448  -12.7496   22.2935 C   0  0  0  0  0  0  0  0  0  0  0  0
  -24.8187  -31.7870   20.6156 C   0  0  0  0  0  0  0  0  0  0  0  0
  -24.4394  -13.9223   21.7434 C   0  0  0  0  0  0  0  0  0  0  0  0
  -25.4906  -30.6607   19.8282 C   0  0  0  0  0  0  0  0  0  0  0  0
  -24.7243  -31.4569   22.1036 C   0  0  0  0  0  0  0  0  0  0  0  0
  -24.7532  -29.0396   21.6246 C   0  0  0  0  0  0  0  0  0  0  0  0
  -24.7817  -14.1846   20.2718 C   0  0  1  0  0  0  0  0  0  0  0  0
  -27.5638  -16.7676   20.1260 C   0  0  1  0  0  0  0  0  0  0  0  0
  -24.8209  -29.3024   20.1104 C   0  0  2  0  0  0  0  0  0  0  0  0
  -16.9517  -29.1766   20.2528 C   0  0  0  0  0  0  0  0  0  0  0  0
  -15.7388  -28.4789   22.3497 C   0  0  0  0  0  0  0  0  0  0  0  0
  -32.5860  -18.8031   25.6611 C   0  0  0  0  0  0  0  0  0  0  0  0
  -26.5988  -16.1739   24.6067 C   0  0  0  0  0  0  0  0  0  0  0  0
  -28.2688  -17.1337   26.2061 C   0  0  0  0  0  0  0  0  0  0  0  0
  -28.8125  -15.0575   24.9346 C   0  0  0  0  0  0  0  0  0  0  0  0
  -32.5971  -19.9745   22.0412 C   0  0  0  0  0  0  0  0  0  0  0  0
  -21.1770  -28.5676   24.0096 C   0  0  0  0  0  0  0  0  0  0  0  0
  -22.9536  -24.4277   21.9953 C   0  0  0  0  0  0  0  0  0  0  0  0
  -21.8870  -25.4924   21.7309 C   0  0  0  0  0  0  0  0  0  0  0  0
  -23.8067  -24.1750   20.7488 C   0  0  0  0  0  0  0  0  0  0  0  0
  -21.0084  -25.7158   22.9638 C   0  0  0  0  0  0  0  0  0  0  0  0
  -24.8602  -23.0985   20.9797 C   0  0  0  0  0  0  0  0  0  1  0  0
  -16.8556  -28.0927   21.3519 C   0  0  0  0  0  0  0  0  0  0  0  0
  -28.7599  -17.2755   23.7222 C   0  0  1  0  0  0  0  0  0  0  0  0
  -32.2209  -18.7505   24.1858 C   0  0  2  0  0  0  0  0  0  0  0  0
  -28.1011  -16.4252   24.8449 C   0  0  0  0  0  0  0  0  0  0  0  0
  -26.7954  -27.9001   19.6442 N   0  0  0  0  0  0  0  0  0  0  0  0
  -19.9811  -26.7932   22.7275 N   0  0  0  0  0  0  0  0  0  0  0  0
  -25.5093  -28.1734   19.3659 N   0  0  0  0  0  0  0  0  0  0  0  0
  -27.9195  -17.3999   21.3979 N   0  0  0  0  0  0  0  0  0  0  0  0
  -24.0782  -30.1574   22.3027 N   0  0  0  0  0  0  0  0  0  0  0  0
  -23.6863  -27.5028   18.0104 N   0  0  0  0  0  0  0  0  0  0  0  0
  -26.9883  -24.6738   16.7899 N   0  0  0  0  0  0  0  0  0  0  0  0
  -26.0437  -14.8846   20.1634 N   0  0  0  0  0  0  0  0  0  0  0  0
  -30.1884  -17.5065   23.9077 N   0  0  0  0  0  0  0  0  0  0  0  0
  -22.3699  -28.8094   23.2291 N   0  0  0  0  0  0  0  0  0  0  0  0
  -32.8544  -19.9140   23.5031 N   0  3  0  0  0  0  0  0  0  0  0  0
  -24.8052  -25.2628   16.4081 O   0  0  0  0  0  0  0  0  0  0  0  0
  -25.2438  -17.0512   20.4605 O   0  0  0  0  0  0  0  0  0  0  0  0
  -29.0875  -15.5282   22.1518 O   0  0  0  0  0  0  0  0  0  0  0  0
  -30.0727  -19.8224   23.9152 O   0  0  0  0  0  0  0  0  0  0  0  0
  -22.4179  -31.0637   23.6442 O   0  0  0  0  0  0  0  0  0  0  0  0
  -32.1703  -24.5833   18.8329 O   0  0  0  0  0  0  0  0  0  0  0  0
  -25.6126  -22.8891   19.7854 O   0  0  0  0  0  0  0  0  0  1  0  0
  -34.5097  -23.5275   13.9527 F   0  0  0  0  0  0  0  0  0  0  0  0
  -30.9715  -22.8675   17.0269 F   0  0  0  0  0  0  0  0  0  0  0  0
  1  2  1  0  0  0  0
  1  5  2  0  0  0  0
  2  6  2  0  0  0  0
  3  8  2  0  0  0  0
  3 17  1  0  0  0  0
  4  9  1  0  0  0  0
  4 17  2  0  0  0  0
  5 19  1  0  0  0  0
  6 21  1  0  0  0  0
  7 10  2  0  0  0  0
  7 20  1  0  0  0  0
  8 24  1  0  0  0  0
  9 24  2  0  0  0  0
 10 25  1  0  0  0  0
 11 12  2  0  0  0  0
 11 26  1  0  0  0  0
 12 27  1  0  0  0  0
 13 22  1  0  0  0  0
 13 25  2  0  0  0  0
 14 23  1  0  0  0  0
 14 30  2  0  0  0  0
 15 27  2  0  0  0  0
 15 28  1  0  0  0  0
 16 23  2  0  0  0  0
 16 67  1  0  0  0  0
 17 29  1  0  0  0  0
 18 29  1  0  0  0  0
 18 31  2  0  0  0  0
 18 32  1  0  0  0  0
 19 21  2  0  0  0  0
 19 37  1  0  0  0  0
 20 22  2  0  0  0  0
 20 38  1  0  0  0  0
 21 46  1  0  0  0  0
 22 39  1  0  0  0  0
 23 62  1  0  0  0  0
 24 82  1  0  0  0  0
 25 83  1  0  0  0  0
 26 28  2  0  0  0  0
 26 82  1  0  0  0  0
 27 84  1  0  0  0  0
 28 85  1  0  0  0  0
 29 66  2  0  0  0  0
 30 56  1  0  0  0  0
 30 67  1  0  0  0  0
 31 68  1  0  0  0  0
 31 71  1  0  0  0  0
 32 72  1  0  0  0  0
 32 77  2  0  0  0  0
 33 47  1  0  0  0  0
 33 73  1  0  0  0  0
 33 78  2  0  0  0  0
 34 63  1  0  0  0  0
 34 69  1  0  0  0  0
 34 79  2  0  0  0  0
 35 64  1  0  0  0  0
 35 74  1  0  0  0  0
 35 80  2  0  0  0  0
 36 70  1  0  0  0  0
 36 75  1  0  0  0  0
 36 81  2  0  0  0  0
 37 40  1  0  0  0  0
 38 47  1  0  0  0  0
 39 69  1  0  0  0  0
 40 42  1  0  0  0  0
 41 43  1  0  0  0  0
 41 44  1  0  0  0  0
 42 46  1  0  0  0  0
 43 48  1  0  0  0  0
 44 70  1  0  0  0  0
 45 48  1  0  0  0  0
 45 70  1  0  0  0  0
 46 73  1  0  0  0  0
 47 69  1  0  0  0  0
 48 68  1  0  0  0  0
 49 62  1  0  0  0  0
 50 62  1  0  0  0  0
 51 64  1  0  0  0  0
 52 65  1  0  0  0  0
 53 65  1  0  0  0  0
 54 65  1  0  0  0  0
 55 76  1  0  0  0  0
 56 75  1  0  0  0  0
 57 58  1  0  0  0  0
 57 59  1  0  0  0  0
 58 60  1  0  0  0  0
 59 61  1  0  0  0  0
 60 67  1  0  0  0  0
 61 83  1  0  0  0  0
 63 65  1  0  0  0  0
 63 74  1  0  0  0  0
 64 76  1  0  0  0  0
 66 68  1  0  0  0  0
M  CHG  1  76   1
M  ISO  4  36 100  61 101  75 100  83 101
M  END
> <Batch ID>
0099

> <Smiles>
CNC(C)C(=O)NC(C(=O)N1Cc2cc([101O:1][101CH2:1]CCCCn3cc(C(C)C)cc3C[100NH:0][100C:0](=O)N3CCCC(n4nc(-c5ccc(Oc6ccc(F)cc6F)cc5)c(C(N)=O)c4N)C3)ccc2CC1C(=O)NC1CCCc2ccccc21)C(C)(C)C

> <Shape>
0.209

> <Color>
0.072

> <Negative vol penalty>
0.000

$$$$

  -OEChem-04052319313D

 89 97  0     1  0  0  0  0  0999 V2000
  -15.7182  -27.6627   21.9466 C   0  0  0  0  0  0  0  0  0  0  0  0
  -16.1134  -26.9035   20.8498 C   0  0  0  0  0  0  0  0  0  0  0  0
  -24.7296  -13.8411   19.5252 C   0  0  0  0  0  0  0  0  0  0  0  0
  -24.5675  -14.9719   21.6541 C   0  0  0  0  0  0  0  0  0  0  0  0
  -16.6659  -28.0875   22.8768 C   0  0  0  0  0  0  0  0  0  0  0  0
  -17.4568  -26.5697   20.6821 C   0  0  0  0  0  0  0  0  0  0  0  0
  -21.6328  -21.3358   18.1356 C   0  0  0  0  0  0  0  0  0  0  0  0
  -23.8586  -12.8528   19.9839 C   0  0  0  0  0  0  0  0  0  0  0  0
  -23.6965  -13.9837   22.1127 C   0  0  0  0  0  0  0  0  0  0  0  0
  -22.6979  -21.1385   17.2579 C   0  0  0  0  0  0  0  0  0  0  0  0
  -24.0178  -10.1137   21.9578 C   0  0  0  0  0  0  0  0  0  0  0  0
  -24.3526   -8.7847   21.6985 C   0  0  0  0  0  0  0  0  0  0  0  0
  -24.2353  -21.8605   18.9709 C   0  0  0  0  0  0  0  0  0  0  0  0
  -22.2971   -8.5086   20.4592 C   0  0  0  0  0  0  0  0  0  0  0  0
  -29.2827  -23.9787   18.3872 C   0  0  0  0  0  0  0  0  0  0  0  0
  -25.0841  -14.9007   20.3604 C   0  0  0  0  0  0  0  0  0  0  0  0
  -25.7971  -16.7748   18.7834 C   0  0  0  0  0  0  0  0  0  0  0  0
  -18.0202  -27.7505   22.7255 C   0  0  0  0  0  0  0  0  0  0  0  0
  -21.8603  -21.8081   19.4362 C   0  0  0  0  0  0  0  0  0  0  0  0
  -18.4238  -26.9915   21.6104 C   0  0  0  0  0  0  0  0  0  0  0  0
  -23.1716  -22.0605   19.8640 C   0  0  0  0  0  0  0  0  0  0  0  0
  -29.2399  -23.6548   19.7253 C   0  0  0  0  0  0  0  0  0  0  0  0
  -28.0241  -24.1636   20.2450 C   0  0  0  0  0  0  0  0  0  0  0  0
  -23.3421  -12.9241   21.2776 C   0  0  0  0  0  0  0  0  0  0  0  0
  -23.9992  -21.4036   17.6746 C   0  0  0  0  0  0  0  0  0  0  0  0
  -22.8226  -10.6402   21.4678 C   0  0  0  0  0  0  0  0  0  0  0  0
  -23.4923   -7.9822   20.9492 C   0  0  0  0  0  0  0  0  0  0  0  0
  -21.9623   -9.8377   20.7185 C   0  0  0  0  0  0  0  0  0  0  0  0
  -25.9842  -15.9216   19.8874 C   0  0  0  0  0  0  0  0  0  0  0  0
  -27.3609  -24.7828   19.2086 C   0  0  0  0  0  0  0  0  0  0  0  0
  -26.9275  -17.5545   18.7567 C   0  0  0  0  0  0  0  0  0  0  0  0
  -24.6996  -16.8555   17.8644 C   0  0  0  0  0  0  0  0  0  0  0  0
  -20.9988  -24.3984   21.0648 C   0  0  0  0  0  0  0  0  0  0  0  0
  -22.4204  -22.8439   23.5315 C   0  0  0  0  0  0  0  0  0  0  0  0
  -25.0238  -20.8055   24.9754 C   0  0  0  0  0  0  0  0  0  0  0  0
  -30.7662  -20.6519   21.3674 C   0  0  0  0  0  0  0  0  0  0  0  0
  -19.0150  -28.2725   23.7318 C   0  0  0  0  0  0  0  0  0  0  0  0
  -20.7030  -21.9903   20.3795 C   0  0  0  0  0  0  0  0  0  0  0  0
  -23.4711  -22.5498   21.2566 C   0  0  0  0  0  0  0  0  0  0  0  0
  -20.3638  -27.5595   23.6812 C   0  0  0  0  0  0  0  0  0  0  0  0
  -31.2809  -17.1296   21.2972 C   0  0  0  0  0  0  0  0  0  0  0  0
  -20.8444  -27.4279   22.2395 C   0  0  0  0  0  0  0  0  0  0  0  0
  -29.9321  -16.5719   20.8394 C   0  0  0  0  0  0  0  0  0  0  0  0
  -31.1100  -18.3460   22.2045 C   0  0  0  0  0  0  0  0  0  0  0  0
  -28.9278  -18.8677   21.1850 C   0  0  0  0  0  0  0  0  0  0  0  0
  -19.8681  -26.5881   21.4070 C   0  0  1  0  0  0  0  0  0  0  0  0
  -21.0045  -22.9646   21.5141 C   0  0  1  0  0  0  0  0  0  0  0  0
  -29.0499  -17.6739   20.2225 C   0  0  2  0  0  0  0  0  0  0  0  0
  -27.5522  -24.0522   21.6407 C   0  0  0  0  0  0  0  0  0  0  0  0
  -25.2961  -19.9166   27.3063 C   0  0  0  0  0  0  0  0  0  0  0  0
  -24.9966  -29.0466   20.4255 C   0  0  0  0  0  0  0  0  0  0  0  0
  -24.2488  -27.8316   18.3700 C   0  0  0  0  0  0  0  0  0  0  0  0
  -28.5993  -22.7951   15.0419 C   0  0  0  0  0  0  0  0  0  0  0  0
  -24.0985  -25.3522   23.9812 C   0  0  0  0  0  0  0  0  0  0  0  0
  -25.6497  -23.9781   25.3862 C   0  0  0  0  0  0  0  0  0  0  0  0
  -23.2688  -24.2631   26.0740 C   0  0  0  0  0  0  0  0  0  0  0  0
  -25.2597  -18.0180   24.0094 C   0  0  0  0  0  0  0  0  0  0  0  0
  -30.2770  -22.9136   20.4704 C   0  0  0  0  0  0  0  0  0  0  0  0
  -26.0561  -25.4774   19.1907 C   0  0  0  0  0  0  0  0  0  0  0  0
  -26.1306  -26.8898   19.8126 C   0  0  0  0  0  0  0  0  0  0  0  0
  -26.8156  -24.3166   15.9278 C   0  0  0  0  0  0  0  0  0  0  0  0
  -27.7948  -25.1983   16.7156 C   0  0  0  0  0  0  0  0  0  0  0  0
  -26.1790  -22.0314   14.9759 C   0  0  0  0  0  0  0  0  0  0  0  0
  -23.8195  -22.7880   24.0959 C   0  0  1  0  0  0  0  0  0  0  0  0
  -24.8384  -19.6076   25.8894 C   0  0  2  0  0  0  0  0  0  0  0  0
  -24.8026  -27.6693   19.7863 C   0  0  0  0  0  0  0  0  0  0  0  0
  -27.2375  -22.8395   15.7509 C   0  0  1  0  0  0  0  0  0  0  0  0
  -24.2036  -24.0880   24.8574 C   0  0  0  0  0  0  0  0  0  0  0  0
  -27.1424  -16.1385   20.5163 N   0  0  0  0  0  0  0  0  0  0  0  0
  -28.1352  -24.6639   18.0841 N   0  0  0  0  0  0  0  0  0  0  0  0
  -27.6933  -17.1369   19.8052 N   0  0  0  0  0  0  0  0  0  0  0  0
  -22.3053  -22.7184   22.1398 N   0  0  0  0  0  0  0  0  0  0  0  0
  -30.2647  -19.3541   21.5603 N   0  0  0  0  0  0  0  0  0  0  0  0
  -27.3313  -18.5496   17.9387 N   0  0  0  0  0  0  0  0  0  0  0  0
  -23.6368  -17.7177   18.1669 N   0  0  0  0  0  0  0  0  0  0  0  0
  -20.0452  -25.1798   21.6889 N   0  0  0  0  0  0  0  0  0  0  0  0
  -23.8838  -21.5782   24.9087 N   0  0  0  0  0  0  0  0  0  0  0  0
  -29.9025  -21.5440   20.7438 N   0  0  0  0  0  0  0  0  0  0  0  0
  -24.8815  -22.0566   15.6359 N   0  0  0  0  0  0  0  0  0  1  0  0
  -25.6228  -18.4451   25.3851 N   0  3  0  0  0  0  0  0  0  0  0  0
  -24.6548  -16.1707   16.8144 O   0  0  0  0  0  0  0  0  0  0  0  0
  -21.8012  -24.7687   20.2158 O   0  0  0  0  0  0  0  0  0  0  0  0
  -21.4644  -22.9862   24.2979 O   0  0  0  0  0  0  0  0  0  0  0  0
  -26.0759  -21.0349   24.3831 O   0  0  0  0  0  0  0  0  0  0  0  0
  -31.9016  -20.9891   21.7198 O   0  0  0  0  0  0  0  0  0  0  0  0
  -22.4920  -11.9601   21.7254 O   0  0  0  0  0  0  0  0  0  0  0  0
  -25.0406  -21.2125   16.8197 O   0  0  0  0  0  0  0  0  0  1  0  0
  -23.8147   -6.7064   20.6990 F   0  0  0  0  0  0  0  0  0  0  0  0
  -20.8133  -10.3382   20.2441 F   0  0  0  0  0  0  0  0  0  0  0  0
  1  2  1  0  0  0  0
  1  5  2  0  0  0  0
  2  6  2  0  0  0  0
  3  8  2  0  0  0  0
  3 16  1  0  0  0  0
  4  9  1  0  0  0  0
  4 16  2  0  0  0  0
  5 18  1  0  0  0  0
  6 20  1  0  0  0  0
  7 10  2  0  0  0  0
  7 19  1  0  0  0  0
  8 24  1  0  0  0  0
  9 24  2  0  0  0  0
 10 25  1  0  0  0  0
 11 12  2  0  0  0  0
 11 26  1  0  0  0  0
 12 27  1  0  0  0  0
 13 21  1  0  0  0  0
 13 25  2  0  0  0  0
 14 27  2  0  0  0  0
 14 28  1  0  0  0  0
 15 22  2  0  0  0  0
 15 70  1  0  0  0  0
 16 29  1  0  0  0  0
 17 29  1  0  0  0  0
 17 31  2  0  0  0  0
 17 32  1  0  0  0  0
 18 20  2  0  0  0  0
 18 37  1  0  0  0  0
 19 21  2  0  0  0  0
 19 38  1  0  0  0  0
 20 46  1  0  0  0  0
 21 39  1  0  0  0  0
 22 23  1  0  0  0  0
 22 58  1  0  0  0  0
 23 30  2  0  0  0  0
 23 49  1  0  0  0  0
 24 86  1  0  0  0  0
 25 87  1  0  0  0  0
 26 28  2  0  0  0  0
 26 86  1  0  0  0  0
 27 88  1  0  0  0  0
 28 89  1  0  0  0  0
 29 69  2  0  0  0  0
 30 59  1  0  0  0  0
 30 70  1  0  0  0  0
 31 71  1  0  0  0  0
 31 74  1  0  0  0  0
 32 75  1  0  0  0  0
 32 81  2  0  0  0  0
 33 47  1  0  0  0  0
 33 76  1  0  0  0  0
 33 82  2  0  0  0  0
 34 64  1  0  0  0  0
 34 72  1  0  0  0  0
 34 83  2  0  0  0  0
 35 65  1  0  0  0  0
 35 77  1  0  0  0  0
 35 84  2  0  0  0  0
 36 73  1  0  0  0  0
 36 78  1  0  0  0  0
 36 85  2  0  0  0  0
 37 40  1  0  0  0  0
 38 47  1  0  0  0  0
 39 72  1  0  0  0  0
 40 42  1  0  0  0  0
 41 43  1  0  0  0  0
 41 44  1  0  0  0  0
 42 46  1  0  0  0  0
 43 48  1  0  0  0  0
 44 73  1  0  0  0  0
 45 48  1  0  0  0  0
 45 73  1  0  0  0  0
 46 76  1  0  0  0  0
 47 72  1  0  0  0  0
 48 71  1  0  0  0  0
 50 65  1  0  0  0  0
 51 66  1  0  0  0  0
 52 66  1  0  0  0  0
 53 67  1  0  0  0  0
 54 68  1  0  0  0  0
 55 68  1  0  0  0  0
 56 68  1  0  0  0  0
 57 80  1  0  0  0  0
 58 78  1  0  0  0  0
 59 60  1  0  0  0  0
 60 66  1  0  0  0  0
 61 62  1  0  0  0  0
 61 67  1  0  0  0  0
 62 70  1  0  0  0  0
 63 67  1  0  0  0  0
 63 79  1  0  0  0  0
 64 68  1  0  0  0  0
 64 77  1  0  0  0  0
 65 80  1  0  0  0  0
 69 71  1  0  0  0  0
 79 87  1  0  0  0  0
M  CHG  1  80   1
M  ISO  4  36 100  78 100  79 101  87 101
M  END
> <Batch ID>
0099

> <Smiles>
CNC(C)C(=O)NC(C(=O)N1Cc2cc([101O:1][101NH:1]CC(C)CCn3cc(C[100NH:0][100C:0](=O)N4CCCC(n5nc(-c6ccc(Oc7ccc(F)cc7F)cc6)c(C(N)=O)c5N)C4)c(C)c3CCC(C)C)ccc2CC1C(=O)NC1CCCc2ccccc21)C(C)(C)C

> <Shape>
0.207

> <Color>
0.038

> <Negative vol penalty>
0.000

$$$$

  -OEChem-04052319313D

 88 96  0     1  0  0  0  0  0999 V2000
  -32.3786  -24.9932   15.8204 C   0  0  0  0  0  0  0  0  0  0  0  0
  -31.7077  -24.5362   16.9502 C   0  0  0  0  0  0  0  0  0  0  0  0
  -20.3715  -10.0300   20.9446 C   0  0  0  0  0  0  0  0  0  0  0  0
  -22.4448   -9.9064   22.1788 C   0  0  0  0  0  0  0  0  0  0  0  0
  -32.6262  -26.3560   15.6616 C   0  0  0  0  0  0  0  0  0  0  0  0
  -31.2849  -25.4419   17.9225 C   0  0  0  0  0  0  0  0  0  0  0  0
  -26.5541  -24.5422   19.4895 C   0  0  0  0  0  0  0  0  0  0  0  0
  -20.3345   -8.6378   20.8672 C   0  0  0  0  0  0  0  0  0  0  0  0
  -22.4078   -8.5142   22.1014 C   0  0  0  0  0  0  0  0  0  0  0  0
  -26.3708  -23.4969   20.3937 C   0  0  0  0  0  0  0  0  0  0  0  0
  -22.6731   -4.9150   22.5415 C   0  0  0  0  0  0  0  0  0  0  0  0
  -22.9586   -4.1926   23.6999 C   0  0  0  0  0  0  0  0  0  0  0  0
  -26.2735  -25.0882   22.2042 C   0  0  0  0  0  0  0  0  0  0  0  0
  -21.0969   -5.2507   24.8187 C   0  0  0  0  0  0  0  0  0  0  0  0
  -27.6721  -19.8233   23.0146 C   0  0  0  0  0  0  0  0  0  0  0  0
  -21.4266  -10.6644   21.6004 C   0  0  0  0  0  0  0  0  0  0  0  0
  -20.9131  -12.9131   22.6898 C   0  0  0  0  0  0  0  0  0  0  0  0
  -32.1977  -27.2799   16.6278 C   0  0  0  0  0  0  0  0  0  0  0  0
  -26.6095  -25.8697   19.9378 C   0  0  0  0  0  0  0  0  0  0  0  0
  -31.5281  -26.8183   17.7772 C   0  0  0  0  0  0  0  0  0  0  0  0
  -26.4550  -26.1487   21.3033 C   0  0  0  0  0  0  0  0  0  0  0  0
  -28.8777  -19.4123   22.4904 C   0  0  0  0  0  0  0  0  0  0  0  0
  -29.8816  -20.2567   23.0256 C   0  0  0  0  0  0  0  0  0  0  0  0
  -21.3527   -7.8799   21.4456 C   0  0  0  0  0  0  0  0  0  0  0  0
  -26.2334  -23.7696   21.7516 C   0  0  0  0  0  0  0  0  0  0  0  0
  -21.5995   -5.8054   22.5216 C   0  0  0  0  0  0  0  0  0  0  0  0
  -22.1706   -4.3603   24.8385 C   0  0  0  0  0  0  0  0  0  0  0  0
  -20.8114   -5.9732   23.6602 C   0  0  0  0  0  0  0  0  0  0  0  0
  -21.4656  -12.1025   21.6802 C   0  0  0  0  0  0  0  0  0  0  0  0
  -29.2588  -21.1579   23.8607 C   0  0  0  0  0  0  0  0  0  0  0  0
  -21.2191  -14.1959   22.3060 C   0  0  0  0  0  0  0  0  0  0  0  0
  -20.1883  -12.5399   23.8693 C   0  0  0  0  0  0  0  0  0  0  0  0
  -28.8048  -28.1677   19.8784 C   0  0  0  0  0  0  0  0  0  0  0  0
  -26.3921  -29.9668   21.0886 C   0  0  0  0  0  0  0  0  0  0  0  0
  -23.4425  -30.0830   22.8013 C   0  0  0  0  0  0  0  0  0  0  0  0
  -25.5529  -16.5025   18.8784 C   0  0  0  0  0  0  0  0  0  0  0  0
  -32.5299  -28.7384   16.4353 C   0  0  0  0  0  0  0  0  0  0  0  0
  -26.7810  -26.9879   18.9466 C   0  0  0  0  0  0  0  0  0  0  0  0
  -26.4867  -27.5581   21.8333 C   0  0  0  0  0  0  0  0  0  0  0  0
  -31.7186  -29.6712   17.3308 C   0  0  0  0  0  0  0  0  0  0  0  0
  -22.0404  -16.8422   18.4055 C   0  0  0  0  0  0  0  0  0  0  0  0
  -31.6986  -29.1510   18.7646 C   0  0  0  0  0  0  0  0  0  0  0  0
  -21.4449  -15.7391   19.2823 C   0  0  0  0  0  0  0  0  0  0  0  0
  -23.3484  -16.4001   17.7531 C   0  0  0  0  0  0  0  0  0  0  0  0
  -23.7707  -14.7861   19.5670 C   0  0  0  0  0  0  0  0  0  0  0  0
  -31.0319  -27.7723   18.8420 C   0  0  1  0  0  0  0  0  0  0  0  0
  -27.3364  -28.2627   19.5741 C   0  0  1  0  0  0  0  0  0  0  0  0
  -22.4795  -15.2046   20.2908 C   0  0  2  0  0  0  0  0  0  0  0  0
  -31.3299  -20.1859   22.7420 C   0  0  0  0  0  0  0  0  0  0  0  0
  -29.8258  -22.2558   24.6720 C   0  0  0  0  0  0  0  0  0  0  0  0
  -29.5555  -20.4375   18.2385 C   0  0  0  0  0  0  0  0  0  0  0  0
  -29.5714  -16.4415   23.3569 C   0  0  0  0  0  0  0  0  0  0  0  0
  -21.7301  -31.6999   23.6679 C   0  0  0  0  0  0  0  0  0  0  0  0
  -28.2768  -30.7420   23.3595 C   0  0  0  0  0  0  0  0  0  0  0  0
  -26.2843  -31.5441   24.6460 C   0  0  0  0  0  0  0  0  0  0  0  0
  -26.8808  -32.6193   22.4756 C   0  0  0  0  0  0  0  0  0  0  0  0
  -21.3013  -28.8797   21.1501 C   0  0  0  0  0  0  0  0  0  0  0  0
  -28.8459  -19.8956   19.4716 C   0  0  0  0  0  0  0  0  0  0  0  0
  -30.0279  -17.1234   22.0697 C   0  0  0  0  0  0  0  0  0  0  0  0
  -29.6804  -18.8040   20.1563 C   0  0  0  0  0  0  0  0  0  0  0  0
  -27.6855  -17.6197   21.1424 C   0  0  0  0  0  0  0  0  0  0  0  0
  -26.8979  -21.5965   24.5876 C   0  0  0  0  0  0  0  0  0  0  0  0
  -27.7078  -16.4907   20.1094 C   0  0  0  0  0  0  0  0  0  0  0  0
  -26.5565  -22.9426   23.9579 C   0  0  0  0  0  0  0  0  0  1  0  0
  -25.8930  -30.2920   22.4757 C   0  0  1  0  0  0  0  0  0  0  0  0
  -22.1366  -30.8005   22.5109 C   0  0  2  0  0  0  0  0  0  0  0  0
  -29.0853  -18.2378   21.4958 C   0  0  2  0  0  0  0  0  0  0  0  0
  -26.8350  -31.2725   23.2298 C   0  0  0  0  0  0  0  0  0  0  0  0
  -22.0761  -12.8109   20.7265 N   0  0  0  0  0  0  0  0  0  0  0  0
  -27.9159  -20.8849   23.8464 N   0  0  0  0  0  0  0  0  0  0  0  0
  -21.9090  -14.0802   21.1352 N   0  0  0  0  0  0  0  0  0  0  0  0
  -26.6630  -28.6166   20.8253 N   0  0  0  0  0  0  0  0  0  0  0  0
  -24.2865  -15.9057   18.7638 N   0  0  0  0  0  0  0  0  0  0  0  0
  -20.9624  -15.4003   22.8591 N   0  0  0  0  0  0  0  0  0  0  0  0
  -19.9620  -11.1782   24.1116 N   0  0  0  0  0  0  0  0  0  0  0  0
  -29.5922  -27.9026   18.7743 N   0  0  0  0  0  0  0  0  0  0  0  0
  -24.5277  -30.7804   22.3142 N   0  0  0  0  0  0  0  0  0  0  0  0
  -26.3779  -15.9780   19.8658 N   0  0  0  0  0  0  0  0  0  0  0  0
  -21.0446  -29.8139   22.2763 N   0  3  0  0  0  0  0  0  0  0  0  0
  -19.7399  -13.3898   24.6757 O   0  0  0  0  0  0  0  0  0  0  0  0
  -29.1946  -28.3249   21.0295 O   0  0  0  0  0  0  0  0  0  0  0  0
  -26.5294  -30.8763   20.2666 O   0  0  0  0  0  0  0  0  0  0  0  0
  -23.4949  -29.0129   23.4035 O   0  0  0  0  0  0  0  0  0  0  0  0
  -25.9190  -17.4373   18.1579 O   0  0  0  0  0  0  0  0  0  0  0  0
  -21.3169   -6.5214   21.3704 O   0  0  0  0  0  0  0  0  0  0  0  0
  -26.0538  -22.7441   22.6426 O   0  0  0  0  0  0  0  0  0  1  0  0
  -22.4439   -3.6653   25.9505 F   0  0  0  0  0  0  0  0  0  0  0  0
  -19.7780   -6.8262   23.6467 F   0  0  0  0  0  0  0  0  0  0  0  0
  1  2  1  0  0  0  0
  1  5  2  0  0  0  0
  2  6  2  0  0  0  0
  3  8  2  0  0  0  0
  3 16  1  0  0  0  0
  4  9  1  0  0  0  0
  4 16  2  0  0  0  0
  5 18  1  0  0  0  0
  6 20  1  0  0  0  0
  7 10  2  0  0  0  0
  7 19  1  0  0  0  0
  8 24  1  0  0  0  0
  9 24  2  0  0  0  0
 10 25  1  0  0  0  0
 11 12  2  0  0  0  0
 11 26  1  0  0  0  0
 12 27  1  0  0  0  0
 13 21  1  0  0  0  0
 13 25  2  0  0  0  0
 14 27  2  0  0  0  0
 14 28  1  0  0  0  0
 15 22  2  0  0  0  0
 15 70  1  0  0  0  0
 16 29  1  0  0  0  0
 17 29  1  0  0  0  0
 17 31  2  0  0  0  0
 17 32  1  0  0  0  0
 18 20  2  0  0  0  0
 18 37  1  0  0  0  0
 19 21  2  0  0  0  0
 19 38  1  0  0  0  0
 20 46  1  0  0  0  0
 21 39  1  0  0  0  0
 22 23  1  0  0  0  0
 22 67  1  0  0  0  0
 23 30  2  0  0  0  0
 23 49  1  0  0  0  0
 24 85  1  0  0  0  0
 25 86  1  0  0  0  0
 26 28  2  0  0  0  0
 26 85  1  0  0  0  0
 27 87  1  0  0  0  0
 28 88  1  0  0  0  0
 29 69  2  0  0  0  0
 30 50  1  0  0  0  0
 30 70  1  0  0  0  0
 31 71  1  0  0  0  0
 31 74  1  0  0  0  0
 32 75  1  0  0  0  0
 32 80  2  0  0  0  0
 33 47  1  0  0  0  0
 33 76  1  0  0  0  0
 33 81  2  0  0  0  0
 34 65  1  0  0  0  0
 34 72  1  0  0  0  0
 34 82  2  0  0  0  0
 35 66  1  0  0  0  0
 35 77  1  0  0  0  0
 35 83  2  0  0  0  0
 36 73  1  0  0  0  0
 36 78  1  0  0  0  0
 36 84  2  0  0  0  0
 37 40  1  0  0  0  0
 38 47  1  0  0  0  0
 39 72  1  0  0  0  0
 40 42  1  0  0  0  0
 41 43  1  0  0  0  0
 41 44  1  0  0  0  0
 42 46  1  0  0  0  0
 43 48  1  0  0  0  0
 44 73  1  0  0  0  0
 45 48  1  0  0  0  0
 45 73  1  0  0  0  0
 46 76  1  0  0  0  0
 47 72  1  0  0  0  0
 48 71  1  0  0  0  0
 51 58  1  0  0  0  0
 52 59  1  0  0  0  0
 53 66  1  0  0  0  0
 54 68  1  0  0  0  0
 55 68  1  0  0  0  0
 56 68  1  0  0  0  0
 57 79  1  0  0  0  0
 58 60  1  0  0  0  0
 59 67  1  0  0  0  0
 60 67  1  0  0  0  0
 61 63  1  0  0  0  0
 61 67  1  0  0  0  0
 62 64  1  0  0  0  0
 62 70  1  0  0  0  0
 63 78  1  0  0  0  0
 64 86  1  0  0  0  0
 65 68  1  0  0  0  0
 65 77  1  0  0  0  0
 66 79  1  0  0  0  0
 69 71  1  0  0  0  0
M  CHG  1  79   1
M  ISO  4  36 100  64 101  78 100  86 101
M  END
> <Batch ID>
0099

> <Smiles>
CCCC(CC)(CC[100NH:0][100C:0](=O)N1CCCC(n2nc(-c3ccc(Oc4ccc(F)cc4F)cc3)c(C(N)=O)c2N)C1)c1cn(C[101CH2:1][101O:1]c2ccc3c(c2)CN(C(=O)C(NC(=O)C(C)NC)C(C)(C)C)C(C(=O)NC2CCCc4ccccc42)C3)c(C)c1C

> <Shape>
0.237

> <Color>
0.066

> <Negative vol penalty>
0.000

$$$$

  -OEChem-04052319313D

 91 99  0     1  0  0  0  0  0999 V2000
  -35.3747  -19.6127   14.5965 C   0  0  0  0  0  0  0  0  0  0  0  0
  -34.0356  -19.5282   14.9605 C   0  0  0  0  0  0  0  0  0  0  0  0
  -35.3337  -16.3195   23.6937 C   0  0  0  0  0  0  0  0  0  0  0  0
  -23.2587   -9.6989   20.1473 C   0  0  0  0  0  0  0  0  0  0  0  0
  -23.9068  -10.0320   22.4508 C   0  0  0  0  0  0  0  0  0  0  0  0
  -36.2971  -20.1789   15.4740 C   0  0  0  0  0  0  0  0  0  0  0  0
  -33.6163  -20.0205   16.1969 C   0  0  0  0  0  0  0  0  0  0  0  0
  -28.1471  -19.8564   18.8780 C   0  0  0  0  0  0  0  0  0  0  0  0
  -35.7461  -16.1630   22.3704 C   0  0  0  0  0  0  0  0  0  0  0  0
  -34.0504  -15.9277   24.0753 C   0  0  0  0  0  0  0  0  0  0  0  0
  -22.5958   -8.5246   20.5036 C   0  0  0  0  0  0  0  0  0  0  0  0
  -23.2439   -8.8576   22.8071 C   0  0  0  0  0  0  0  0  0  0  0  0
  -27.4549  -19.0208   19.7534 C   0  0  0  0  0  0  0  0  0  0  0  0
  -23.8181   -5.5292   22.6579 C   0  0  0  0  0  0  0  0  0  0  0  0
  -24.4769   -4.6475   23.5147 C   0  0  0  0  0  0  0  0  0  0  0  0
  -28.1195  -20.4186   21.6036 C   0  0  0  0  0  0  0  0  0  0  0  0
  -22.6886   -4.8746   25.1234 C   0  0  0  0  0  0  0  0  0  0  0  0
  -23.9143  -10.4527   21.1209 C   0  0  0  0  0  0  0  0  0  0  0  0
  -24.0640  -12.9669   20.7161 C   0  0  0  0  0  0  0  0  0  0  0  0
  -35.8902  -20.6669   16.7267 C   0  0  0  0  0  0  0  0  0  0  0  0
  -28.8410  -20.9751   19.3610 C   0  0  0  0  0  0  0  0  0  0  0  0
  -34.5280  -20.6172   17.0865 C   0  0  0  0  0  0  0  0  0  0  0  0
  -28.8177  -21.2683   20.7320 C   0  0  0  0  0  0  0  0  0  0  0  0
  -34.8752  -15.6149   21.4287 C   0  0  0  0  0  0  0  0  0  0  0  0
  -33.1796  -15.3796   23.1335 C   0  0  0  0  0  0  0  0  0  0  0  0
  -33.5920  -15.2232   21.8102 C   0  0  0  0  0  0  0  0  0  0  0  0
  -22.5883   -8.1039   21.8335 C   0  0  0  0  0  0  0  0  0  0  0  0
  -27.4434  -19.3002   21.1168 C   0  0  0  0  0  0  0  0  0  0  0  0
  -22.5946   -6.0836   23.0338 C   0  0  0  0  0  0  0  0  0  0  0  0
  -23.9122   -4.3202   24.7474 C   0  0  0  0  0  0  0  0  0  0  0  0
  -22.0298   -5.7563   24.2665 C   0  0  0  0  0  0  0  0  0  0  0  0
  -24.5997  -11.6656   20.7533 C   0  0  0  0  0  0  0  0  0  0  0  0
  -25.1105  -13.7574   20.3082 C   0  0  0  0  0  0  0  0  0  0  0  0
  -22.7390  -13.4205   21.0229 C   0  0  0  0  0  0  0  0  0  0  0  0
  -31.8846  -21.8917   19.3779 C   0  0  0  0  0  0  0  0  0  0  0  0
  -30.6494  -24.6238   20.6158 C   0  0  0  0  0  0  0  0  0  0  0  0
  -28.1078  -26.1477   22.3084 C   0  0  0  0  0  0  0  0  0  0  0  0
  -30.2486  -15.3469   20.4960 C   0  0  0  0  0  0  0  0  0  0  0  0
  -36.9292  -21.2769   17.6342 C   0  0  0  0  0  0  0  0  0  0  0  0
  -29.5607  -21.8816   18.4004 C   0  0  0  0  0  0  0  0  0  0  0  0
  -29.5298  -22.4684   21.2986 C   0  0  0  0  0  0  0  0  0  0  0  0
  -36.4725  -21.3635   19.0869 C   0  0  0  0  0  0  0  0  0  0  0  0
  -29.6410  -12.5386   18.4426 C   0  0  0  0  0  0  0  0  0  0  0  0
  -35.0887  -21.9914   19.1602 C   0  0  0  0  0  0  0  0  0  0  0  0
  -28.2233  -12.1559   18.8650 C   0  0  0  0  0  0  0  0  0  0  0  0
  -30.4978  -12.9731   19.6332 C   0  0  0  0  0  0  0  0  0  0  0  0
  -28.4700  -13.6650   20.8709 C   0  0  0  0  0  0  0  0  0  0  0  0
  -34.0541  -21.1184   18.4387 C   0  0  1  0  0  0  0  0  0  0  0  0
  -30.6601  -22.7044   19.0649 C   0  0  1  0  0  0  0  0  0  0  0  0
  -27.5708  -13.2821   19.6854 C   0  0  2  0  0  0  0  0  0  0  0  0
  -35.7120  -14.0151   19.6889 C   0  0  0  0  0  0  0  0  0  0  0  0
  -31.9462  -16.6197   17.5972 C   0  0  0  0  0  0  0  0  0  0  0  0
  -27.3986  -28.3822   23.2035 C   0  0  0  0  0  0  0  0  0  0  0  0
  -32.6268  -24.3255   22.9204 C   0  0  0  0  0  0  0  0  0  0  0  0
  -31.2642  -25.9818   24.2120 C   0  0  0  0  0  0  0  0  0  0  0  0
  -32.3552  -26.6634   22.0748 C   0  0  0  0  0  0  0  0  0  0  0  0
  -25.6843  -26.1886   20.6103 C   0  0  0  0  0  0  0  0  0  0  0  0
  -29.3853  -17.1545   26.7567 C   0  0  0  0  0  0  0  0  0  0  0  0
  -35.3416  -15.4579   20.0182 C   0  0  0  0  0  0  0  0  0  0  0  0
  -31.7981  -14.9641   23.5722 C   0  0  0  0  0  0  0  0  0  0  0  0
  -32.6582  -14.6356   20.8004 C   0  0  0  0  0  0  0  0  0  0  0  0
  -31.5547  -17.4786   18.7916 C   0  0  0  0  0  0  0  0  0  0  0  0
  -30.9983  -16.0846   24.2497 C   0  0  0  0  0  0  0  0  0  0  0  0
  -26.9546  -16.9912   23.8402 C   0  0  0  0  0  0  0  0  0  0  0  0
  -32.0938  -16.9356   20.1096 C   0  0  0  0  0  0  0  0  0  0  0  0
  -29.6159  -15.6871   24.7582 C   0  0  0  0  0  0  0  0  0  0  0  0
  -27.4282  -16.7619   25.2676 C   0  0  0  0  0  0  0  0  0  0  0  0
  -27.2750  -18.3809   23.3037 C   0  0  0  0  0  0  0  0  0  1  0  0
  -30.3487  -25.1268   22.0071 C   0  0  1  0  0  0  0  0  0  0  0  0
  -27.3313  -27.4213   22.0267 C   0  0  2  0  0  0  0  0  0  0  0  0
  -31.6368  -25.5006   22.7935 C   0  0  0  0  0  0  0  0  0  0  0  0
  -25.8865  -11.6273   20.3973 N   0  0  0  0  0  0  0  0  0  0  0  0
  -26.1681  -12.9144   20.1324 N   0  0  0  0  0  0  0  0  0  0  0  0
  -30.2246  -23.3209   20.3197 N   0  0  0  0  0  0  0  0  0  0  0  0
  -29.8178  -14.0144   20.4154 N   0  0  0  0  0  0  0  0  0  0  0  0
  -25.2200  -15.0845   20.0863 N   0  0  0  0  0  0  0  0  0  0  0  0
  -21.7860  -12.4755   21.4269 N   0  0  0  0  0  0  0  0  0  0  0  0
  -32.8055  -21.8429   18.3488 N   0  0  0  0  0  0  0  0  0  0  0  0
  -29.4050  -26.2280   21.8479 N   0  0  0  0  0  0  0  0  0  0  0  0
  -31.6268  -15.5841   20.3846 N   0  0  0  0  0  0  0  0  0  0  0  0
  -25.8996  -27.1065   21.7584 N   0  3  0  0  0  0  0  0  0  0  0  0
  -28.9030  -16.8777   25.3531 N   0  3  1  0  0  0  0  0  0  0  0  0
  -22.4053  -14.6258   20.9254 O   0  0  0  0  0  0  0  0  0  0  0  0
  -31.9869  -21.3504   20.4725 O   0  0  0  0  0  0  0  0  0  0  0  0
  -31.2332  -25.3624   19.8188 O   0  0  0  0  0  0  0  0  0  0  0  0
  -27.6142  -25.1799   22.8831 O   0  0  0  0  0  0  0  0  0  0  0  0
  -29.4471  -16.2746   20.6665 O   0  0  0  0  0  0  0  0  0  0  0  0
  -21.9413   -6.9582   22.1816 O   0  0  0  0  0  0  0  0  0  0  0  0
  -26.7690  -18.4859   21.9735 O   0  0  0  0  0  0  0  0  0  1  0  0
  -24.5442   -3.4723   25.5695 F   0  0  0  0  0  0  0  0  0  0  0  0
  -20.8541   -6.2849   24.6326 F   0  0  0  0  0  0  0  0  0  0  0  0
  1  2  1  0  0  0  0
  1  6  2  0  0  0  0
  2  7  2  0  0  0  0
  3  9  1  0  0  0  0
  3 10  2  0  0  0  0
  4 11  2  0  0  0  0
  4 18  1  0  0  0  0
  5 12  1  0  0  0  0
  5 18  2  0  0  0  0
  6 20  1  0  0  0  0
  7 22  1  0  0  0  0
  8 13  2  0  0  0  0
  8 21  1  0  0  0  0
  9 24  2  0  0  0  0
 10 25  1  0  0  0  0
 11 27  1  0  0  0  0
 12 27  2  0  0  0  0
 13 28  1  0  0  0  0
 14 15  2  0  0  0  0
 14 29  1  0  0  0  0
 15 30  1  0  0  0  0
 16 23  1  0  0  0  0
 16 28  2  0  0  0  0
 17 30  2  0  0  0  0
 17 31  1  0  0  0  0
 18 32  1  0  0  0  0
 19 32  1  0  0  0  0
 19 33  2  0  0  0  0
 19 34  1  0  0  0  0
 20 22  2  0  0  0  0
 20 39  1  0  0  0  0
 21 23  2  0  0  0  0
 21 40  1  0  0  0  0
 22 48  1  0  0  0  0
 23 41  1  0  0  0  0
 24 26  1  0  0  0  0
 24 59  1  0  0  0  0
 25 26  2  0  0  0  0
 25 60  1  0  0  0  0
 26 61  1  0  0  0  0
 27 88  1  0  0  0  0
 28 89  1  0  0  0  0
 29 31  2  0  0  0  0
 29 88  1  0  0  0  0
 30 90  1  0  0  0  0
 31 91  1  0  0  0  0
 32 72  2  0  0  0  0
 33 73  1  0  0  0  0
 33 76  1  0  0  0  0
 34 77  1  0  0  0  0
 34 83  2  0  0  0  0
 35 49  1  0  0  0  0
 35 78  1  0  0  0  0
 35 84  2  0  0  0  0
 36 69  1  0  0  0  0
 36 74  1  0  0  0  0
 36 85  2  0  0  0  0
 37 70  1  0  0  0  0
 37 79  1  0  0  0  0
 37 86  2  0  0  0  0
 38 75  1  0  0  0  0
 38 80  1  0  0  0  0
 38 87  2  0  0  0  0
 39 42  1  0  0  0  0
 40 49  1  0  0  0  0
 41 74  1  0  0  0  0
 42 44  1  0  0  0  0
 43 45  1  0  0  0  0
 43 46  1  0  0  0  0
 44 48  1  0  0  0  0
 45 50  1  0  0  0  0
 46 75  1  0  0  0  0
 47 50  1  0  0  0  0
 47 75  1  0  0  0  0
 48 78  1  0  0  0  0
 49 74  1  0  0  0  0
 50 73  1  0  0  0  0
 51 59  1  0  0  0  0
 52 62  1  0  0  0  0
 53 70  1  0  0  0  0
 54 71  1  0  0  0  0
 55 71  1  0  0  0  0
 56 71  1  0  0  0  0
 57 81  1  0  0  0  0
 58 82  1  0  0  0  0
 60 63  1  0  0  0  0
 61 80  1  0  0  0  0
 62 65  1  0  0  0  0
 63 66  1  0  0  0  0
 64 67  1  0  0  0  0
 64 68  1  0  0  0  0
 65 80  1  0  0  0  0
 66 82  1  0  0  0  0
 67 82  1  0  0  0  0
 68 89  1  0  0  0  0
 69 71  1  0  0  0  0
 69 79  1  0  0  0  0
 70 81  1  0  0  0  0
 72 73  1  0  0  0  0
M  CHG  2  81   1  82   1
M  ISO  4  38 100  68 101  80 100  89 101
M  END
> <Batch ID>
0099

> <Smiles>
CCC[100N:0](Cc1c(CC)cccc1CCCN(C)CC[101CH2:1][101O:1]c1ccc2c(c1)CN(C(=O)C(NC(=O)C(C)NC)C(C)(C)C)C(C(=O)NC1CCCc3ccccc31)C2)[100C:0](=O)N1CCCC(n2nc(-c3ccc(Oc4ccc(F)cc4F)cc3)c(C(N)=O)c2N)C1

> <Shape>
0.230

> <Color>
0.170

> <Negative vol penalty>
0.000

$$$$

  -OEChem-04052319313D

 88 96  0     1  0  0  0  0  0999 V2000
  -25.4440   -5.7801   27.9194 C   0  0  0  0  0  0  0  0  0  0  0  0
  -26.5775   -6.4185   27.4266 C   0  0  0  0  0  0  0  0  0  0  0  0
  -22.8640  -10.0513   20.0415 C   0  0  0  0  0  0  0  0  0  0  0  0
  -24.3085   -9.4521   21.8831 C   0  0  0  0  0  0  0  0  0  0  0  0
  -25.4887   -5.1394   29.1570 C   0  0  0  0  0  0  0  0  0  0  0  0
  -27.7562   -6.4176   28.1716 C   0  0  0  0  0  0  0  0  0  0  0  0
  -31.8352   -5.3879   25.3526 C   0  0  0  0  0  0  0  0  0  0  0  0
  -29.9645  -11.5795   26.6692 C   0  0  0  0  0  0  0  0  0  0  0  0
  -30.2399  -12.3742   25.5565 C   0  0  0  0  0  0  0  0  0  0  0  0
  -22.1707   -8.8507   20.1947 C   0  0  0  0  0  0  0  0  0  0  0  0
  -23.6152   -8.2515   22.0363 C   0  0  0  0  0  0  0  0  0  0  0  0
  -32.3422   -6.4206   24.5651 C   0  0  0  0  0  0  0  0  0  0  0  0
  -20.7017   -7.2161   23.4001 C   0  0  0  0  0  0  0  0  0  0  0  0
  -20.3524   -6.8318   24.6947 C   0  0  0  0  0  0  0  0  0  0  0  0
  -34.0479   -6.8365   26.2194 C   0  0  0  0  0  0  0  0  0  0  0  0
  -32.0839  -10.4538   26.3899 C   0  0  0  0  0  0  0  0  0  0  0  0
  -21.6467   -4.8073   24.4428 C   0  0  0  0  0  0  0  0  0  0  0  0
  -23.9330  -10.3520   20.8857 C   0  0  0  0  0  0  0  0  0  0  0  0
  -24.1266  -12.8949   20.8263 C   0  0  0  0  0  0  0  0  0  0  0  0
  -26.6714   -5.1223   29.9131 C   0  0  0  0  0  0  0  0  0  0  0  0
  -32.4251   -5.0783   26.5865 C   0  0  0  0  0  0  0  0  0  0  0  0
  -27.8165   -5.7772   29.4210 C   0  0  0  0  0  0  0  0  0  0  0  0
  -33.5481   -5.7977   27.0195 C   0  0  0  0  0  0  0  0  0  0  0  0
  -30.8865  -10.6194   27.0860 C   0  0  0  0  0  0  0  0  0  0  0  0
  -31.4372  -12.2086   24.8603 C   0  0  0  0  0  0  0  0  0  0  0  0
  -32.3593  -11.2484   25.2770 C   0  0  0  0  0  0  0  0  0  0  0  0
  -22.5463   -7.9508   21.1921 C   0  0  0  0  0  0  0  0  0  0  0  0
  -33.4469   -7.1471   24.9998 C   0  0  0  0  0  0  0  0  0  0  0  0
  -21.5233   -6.3960   22.6268 C   0  0  0  0  0  0  0  0  0  0  0  0
  -20.8249   -5.6275   25.2161 C   0  0  0  0  0  0  0  0  0  0  0  0
  -21.9959   -5.1916   23.1482 C   0  0  0  0  0  0  0  0  0  0  0  0
  -24.6499  -11.5918   20.7276 C   0  0  0  0  0  0  0  0  0  0  0  0
  -25.2037  -13.7158   20.5968 C   0  0  0  0  0  0  0  0  0  0  0  0
  -22.7867  -13.3250   21.1010 C   0  0  0  0  0  0  0  0  0  0  0  0
  -31.4436   -5.0979   29.6098 C   0  0  0  0  0  0  0  0  0  0  0  0
  -34.3456   -3.7538   30.1524 C   0  0  0  0  0  0  0  0  0  0  0  0
  -37.5624   -3.2872   29.1125 C   0  0  0  0  0  0  0  0  0  0  0  0
  -31.1079  -12.9779   21.2652 C   0  0  0  0  0  0  0  0  0  0  0  0
  -26.6580   -4.4574   31.2667 C   0  0  0  0  0  0  0  0  0  0  0  0
  -31.8826   -3.9438   27.4117 C   0  0  0  0  0  0  0  0  0  0  0  0
  -34.2303   -5.4916   28.3269 C   0  0  0  0  0  0  0  0  0  0  0  0
  -28.0523   -4.1813   31.8235 C   0  0  0  0  0  0  0  0  0  0  0  0
  -29.3841  -13.8463   18.2734 C   0  0  0  0  0  0  0  0  0  0  0  0
  -28.9427   -5.4099   31.6665 C   0  0  0  0  0  0  0  0  0  0  0  0
  -27.9281  -13.4846   18.5720 C   0  0  0  0  0  0  0  0  0  0  0  0
  -30.3542  -12.8528   18.9088 C   0  0  0  0  0  0  0  0  0  0  0  0
  -28.7116  -12.2831   20.6556 C   0  0  0  0  0  0  0  0  0  0  0  0
  -29.1208   -5.7768   30.1883 C   0  0  1  0  0  0  0  0  0  0  0  0
  -32.2467   -4.0522   28.8892 C   0  0  1  0  0  0  0  0  0  0  0  0
  -27.6976  -13.2879   20.0825 C   0  0  2  0  0  0  0  0  0  0  0  0
  -31.7420  -14.5655   24.0156 C   0  0  0  0  0  0  0  0  0  0  0  0
  -39.7079   -2.1727   29.7848 C   0  0  0  0  0  0  0  0  0  0  0  0
  -30.9836   -9.0103   33.2738 C   0  0  0  0  0  0  0  0  0  0  0  0
  -30.6177  -11.3484   32.4615 C   0  0  0  0  0  0  0  0  0  0  0  0
  -34.8388   -5.9509   32.2114 C   0  0  0  0  0  0  0  0  0  0  0  0
  -37.2736   -5.3718   32.1432 C   0  0  0  0  0  0  0  0  0  0  0  0
  -35.6111   -3.6764   32.9075 C   0  0  0  0  0  0  0  0  0  0  0  0
  -37.5734   -1.5869   26.6902 C   0  0  0  0  0  0  0  0  0  0  0  0
  -30.5917   -9.7696   28.2755 C   0  0  0  0  0  0  0  0  0  0  0  0
  -33.6599  -11.0511   24.5401 C   0  0  0  0  0  0  0  0  0  0  0  0
  -31.0807  -10.3578   29.6128 C   0  0  0  0  0  0  0  0  0  0  0  0
  -33.5114  -10.2883   23.2219 C   0  0  0  0  0  0  0  0  0  0  0  0
  -30.8203   -9.4225   30.8006 C   0  0  0  0  0  0  0  0  0  0  0  0
  -33.0179   -8.8578   23.4044 C   0  0  0  0  0  0  0  0  0  1  0  0
  -31.7095  -13.0702   23.6712 C   0  0  2  0  0  0  0  0  0  0  0  0
  -35.7277   -4.2801   30.4552 C   0  0  1  0  0  0  0  0  0  0  0  0
  -38.4128   -2.0349   28.9996 C   0  0  2  0  0  0  0  0  0  0  0  0
  -31.2808  -10.0061   32.1498 C   0  0  0  0  0  0  0  0  0  0  0  0
  -35.8490   -4.8271   31.9055 C   0  0  0  0  0  0  0  0  0  0  0  0
  -25.9577  -11.5805   20.4564 N   0  0  0  0  0  0  0  0  0  0  0  0
  -26.2652  -12.8866   20.3826 N   0  0  0  0  0  0  0  0  0  0  0  0
  -33.6587   -4.3773   29.1010 N   0  0  0  0  0  0  0  0  0  0  0  0
  -30.0832  -12.7133   20.3416 N   0  0  0  0  0  0  0  0  0  0  0  0
  -25.3368  -15.0586   20.5593 N   0  0  0  0  0  0  0  0  0  0  0  0
  -22.4125  -13.5346   22.4353 N   0  0  0  0  0  0  0  0  0  0  0  0
  -30.0781   -4.8919   29.5597 N   0  0  0  0  0  0  0  0  0  0  0  0
  -36.6540   -3.1962   30.1459 N   0  0  0  0  0  0  0  0  0  0  0  0
  -30.7651  -12.8279   22.6034 N   0  0  0  0  0  0  0  0  0  0  0  0
  -38.7540   -1.7672   27.5738 N   0  3  0  0  0  0  0  0  0  0  0  0
  -21.9414  -13.5020   20.1912 O   0  0  0  0  0  0  0  0  0  0  0  0
  -32.0201   -6.0222   30.1709 O   0  0  0  0  0  0  0  0  0  0  0  0
  -33.8948   -2.8191   30.8193 O   0  0  0  0  0  0  0  0  0  0  0  0
  -37.6934   -4.2514   28.3617 O   0  0  0  0  0  0  0  0  0  0  0  0
  -32.2426  -13.3275   20.9228 O   0  0  0  0  0  0  0  0  0  0  0  0
  -21.8698   -6.7793   21.3420 O   0  0  0  0  0  0  0  0  0  0  0  0
  -33.9434   -8.1561   24.2335 O   0  0  0  0  0  0  0  0  0  1  0  0
  -20.4907   -5.2593   26.4598 F   0  0  0  0  0  0  0  0  0  0  0  0
  -22.7865   -4.4001   22.4106 F   0  0  0  0  0  0  0  0  0  0  0  0
  1  2  1  0  0  0  0
  1  5  2  0  0  0  0
  2  6  2  0  0  0  0
  3 10  2  0  0  0  0
  3 18  1  0  0  0  0
  4 11  1  0  0  0  0
  4 18  2  0  0  0  0
  5 20  1  0  0  0  0
  6 22  1  0  0  0  0
  7 12  2  0  0  0  0
  7 21  1  0  0  0  0
  8  9  2  0  0  0  0
  8 24  1  0  0  0  0
  9 25  1  0  0  0  0
 10 27  1  0  0  0  0
 11 27  2  0  0  0  0
 12 28  1  0  0  0  0
 13 14  2  0  0  0  0
 13 29  1  0  0  0  0
 14 30  1  0  0  0  0
 15 23  1  0  0  0  0
 15 28  2  0  0  0  0
 16 24  2  0  0  0  0
 16 26  1  0  0  0  0
 17 30  2  0  0  0  0
 17 31  1  0  0  0  0
 18 32  1  0  0  0  0
 19 32  1  0  0  0  0
 19 33  2  0  0  0  0
 19 34  1  0  0  0  0
 20 22  2  0  0  0  0
 20 39  1  0  0  0  0
 21 23  2  0  0  0  0
 21 40  1  0  0  0  0
 22 48  1  0  0  0  0
 23 41  1  0  0  0  0
 24 59  1  0  0  0  0
 25 26  2  0  0  0  0
 25 65  1  0  0  0  0
 26 60  1  0  0  0  0
 27 85  1  0  0  0  0
 28 86  1  0  0  0  0
 29 31  2  0  0  0  0
 29 85  1  0  0  0  0
 30 87  1  0  0  0  0
 31 88  1  0  0  0  0
 32 70  2  0  0  0  0
 33 71  1  0  0  0  0
 33 74  1  0  0  0  0
 34 75  1  0  0  0  0
 34 80  2  0  0  0  0
 35 49  1  0  0  0  0
 35 76  1  0  0  0  0
 35 81  2  0  0  0  0
 36 66  1  0  0  0  0
 36 72  1  0  0  0  0
 36 82  2  0  0  0  0
 37 67  1  0  0  0  0
 37 77  1  0  0  0  0
 37 83  2  0  0  0  0
 38 73  1  0  0  0  0
 38 78  1  0  0  0  0
 38 84  2  0  0  0  0
 39 42  1  0  0  0  0
 40 49  1  0  0  0  0
 41 72  1  0  0  0  0
 42 44  1  0  0  0  0
 43 45  1  0  0  0  0
 43 46  1  0  0  0  0
 44 48  1  0  0  0  0
 45 50  1  0  0  0  0
 46 73  1  0  0  0  0
 47 50  1  0  0  0  0
 47 73  1  0  0  0  0
 48 76  1  0  0  0  0
 49 72  1  0  0  0  0
 50 71  1  0  0  0  0
 51 65  1  0  0  0  0
 52 67  1  0  0  0  0
 53 68  1  0  0  0  0
 54 68  1  0  0  0  0
 55 69  1  0  0  0  0
 56 69  1  0  0  0  0
 57 69  1  0  0  0  0
 58 79  1  0  0  0  0
 59 61  1  0  0  0  0
 60 62  1  0  0  0  0
 61 63  1  0  0  0  0
 62 64  1  0  0  0  0
 63 68  1  0  0  0  0
 64 86  1  0  0  0  0
 65 78  1  0  0  0  0
 66 69  1  0  0  0  0
 66 77  1  0  0  0  0
 67 79  1  0  0  0  0
 70 71  1  0  0  0  0
M  CHG  1  79   1
M  ISO  4  38 100  64 101  78 100  86 101
M  END
> <Batch ID>
0099

> <Smiles>
CNC(C)C(=O)NC(C(=O)N1Cc2cc([101O:1][101CH2:1]CCc3cc(CCCC(C)C)ccc3C(C)[100NH:0][100C:0](=O)N3CCCC(n4nc(-c5ccc(Oc6ccc(F)cc6F)cc5)c(C(N)=O)c4N)C3)ccc2CC1C(=O)NC1CCCc2ccccc21)C(C)(C)C

> <Shape>
0.149

> <Color>
0.160

> <Negative vol penalty>
0.000

$$$$

  -OEChem-04052319313D

 87 95  0     1  0  0  0  0  0999 V2000
  -31.4739  -24.3417   17.5033 C   0  0  0  0  0  0  0  0  0  0  0  0
  -30.2403  -24.1468   18.1161 C   0  0  0  0  0  0  0  0  0  0  0  0
  -26.6807  -12.5826   21.4505 C   0  0  0  0  0  0  0  0  0  0  0  0
  -25.7813  -14.0632   19.7665 C   0  0  0  0  0  0  0  0  0  0  0  0
  -32.3320  -25.3378   17.9676 C   0  0  0  0  0  0  0  0  0  0  0  0
  -29.8644  -24.9471   19.1943 C   0  0  0  0  0  0  0  0  0  0  0  0
  -25.0841  -26.5783   18.8295 C   0  0  0  0  0  0  0  0  0  0  0  0
  -25.8509  -11.5588   20.9936 C   0  0  0  0  0  0  0  0  0  0  0  0
  -24.9514  -13.0394   19.3096 C   0  0  0  0  0  0  0  0  0  0  0  0
  -24.0757  -25.6736   19.1588 C   0  0  0  0  0  0  0  0  0  0  0  0
  -22.6064  -10.6607   21.2961 C   0  0  0  0  0  0  0  0  0  0  0  0
  -21.9234   -9.9065   22.2502 C   0  0  0  0  0  0  0  0  0  0  0  0
  -23.8706  -26.7022   21.3312 C   0  0  0  0  0  0  0  0  0  0  0  0
  -23.0248   -7.9072   21.4584 C   0  0  0  0  0  0  0  0  0  0  0  0
  -28.8128  -21.4900   20.8979 C   0  0  0  0  0  0  0  0  0  0  0  0
  -29.5295  -22.3018   22.8581 C   0  0  0  0  0  0  0  0  0  0  0  0
  -26.6459  -13.8348   20.8370 C   0  0  0  0  0  0  0  0  0  0  0  0
  -30.1746  -21.2904   20.9525 C   0  0  0  0  0  0  0  0  0  0  0  0
  -27.5242  -15.4580   22.5981 C   0  0  0  0  0  0  0  0  0  0  0  0
  -31.9623  -26.1570   19.0460 C   0  0  0  0  0  0  0  0  0  0  0  0
  -25.5016  -27.5464   19.7542 C   0  0  0  0  0  0  0  0  0  0  0  0
  -30.7188  -25.9541   19.6744 C   0  0  0  0  0  0  0  0  0  0  0  0
  -24.8827  -27.6196   21.0103 C   0  0  0  0  0  0  0  0  0  0  0  0
  -30.6281  -21.8041   22.1926 C   0  0  0  0  0  0  0  0  0  0  0  0
  -24.9862  -11.7872   19.9231 C   0  0  0  0  0  0  0  0  0  0  0  0
  -23.4708  -25.7336   20.4108 C   0  0  0  0  0  0  0  0  0  0  0  0
  -23.4986  -10.0381   20.4230 C   0  0  0  0  0  0  0  0  0  0  0  0
  -22.1326   -8.5298   22.3314 C   0  0  0  0  0  0  0  0  0  0  0  0
  -23.7078   -8.6614   20.5042 C   0  0  0  0  0  0  0  0  0  0  0  0
  -27.5024  -14.8930   21.3089 C   0  0  0  0  0  0  0  0  0  0  0  0
  -28.5059  -16.4166   22.5364 C   0  0  0  0  0  0  0  0  0  0  0  0
  -30.9608  -20.6551   19.8871 C   0  0  0  0  0  0  0  0  0  0  0  0
  -26.7283  -15.1442   23.7487 C   0  0  0  0  0  0  0  0  0  0  0  0
  -28.2354  -28.1987   21.2389 C   0  0  0  0  0  0  0  0  0  0  0  0
  -26.5941  -30.7913   22.2909 C   0  0  0  0  0  0  0  0  0  0  0  0
  -23.5744  -32.2290   22.9697 C   0  0  0  0  0  0  0  0  0  0  0  0
  -32.9431  -27.1894   19.5428 C   0  0  0  0  0  0  0  0  0  0  0  0
  -26.5721  -28.5322   19.3739 C   0  0  0  0  0  0  0  0  0  0  0  0
  -25.2804  -28.6530   22.0312 C   0  0  0  0  0  0  0  0  0  0  0  0
  -32.3121  -28.2417   20.4510 C   0  0  0  0  0  0  0  0  0  0  0  0
  -31.9915  -17.3562   18.9945 C   0  0  0  0  0  0  0  0  0  0  0  0
  -31.4187  -27.5794   21.4950 C   0  0  0  0  0  0  0  0  0  0  0  0
  -30.9078  -16.4658   19.6052 C   0  0  0  0  0  0  0  0  0  0  0  0
  -31.4154  -18.6735   18.4812 C   0  0  0  0  0  0  0  0  0  0  0  0
  -29.5491  -18.5429   20.0951 C   0  0  0  0  0  0  0  0  0  0  0  0
  -30.2649  -26.8183   20.8308 C   0  0  1  0  0  0  0  0  0  0  0  0
  -27.2739  -29.1473   20.5807 C   0  0  1  0  0  0  0  0  0  0  0  0
  -30.0961  -17.2263   20.6707 C   0  0  1  0  0  0  0  0  0  0  0  0
  -32.1996  -20.9858   23.9854 C   0  0  0  0  0  0  0  0  0  0  0  0
  -32.5717  -23.2376   22.9149 C   0  0  0  0  0  0  0  0  0  0  0  0
  -21.9413  -34.0231   23.6116 C   0  0  0  0  0  0  0  0  0  0  0  0
  -27.3648  -29.9722   25.1273 C   0  0  0  0  0  0  0  0  0  0  0  0
  -25.5812  -31.5080   25.9807 C   0  0  0  0  0  0  0  0  0  0  0  0
  -27.4990  -32.4288   24.6780 C   0  0  0  0  0  0  0  0  0  0  0  0
  -26.8909  -21.5133   24.7609 C   0  0  0  0  0  0  0  0  0  0  0  0
  -26.2991  -20.1342   22.7778 C   0  0  0  0  0  0  0  0  0  0  0  0
  -23.3269  -33.1660   20.1733 C   0  0  0  0  0  0  0  0  0  0  0  0
  -21.9077  -22.5479   21.0701 C   0  0  0  0  0  0  0  0  0  0  0  0
  -27.0169  -22.5075   22.4125 C   0  0  0  0  0  0  0  0  0  0  0  0
  -22.5829  -22.4688   22.4310 C   0  0  0  0  0  0  0  0  0  0  0  0
  -24.7517  -21.9796   23.5695 C   0  0  0  0  0  0  0  0  0  0  0  0
  -22.5449  -23.5614   20.1275 C   0  0  0  0  0  0  0  0  0  1  0  0
  -32.0180  -21.8114   22.6908 C   0  0  0  0  0  0  0  0  0  0  0  0
  -25.7177  -31.0903   23.4832 C   0  0  1  0  0  0  0  0  0  0  0  0
  -23.0039  -33.5900   22.6135 C   0  0  2  0  0  0  0  0  0  0  0  0
  -26.5343  -31.2290   24.7990 C   0  0  0  0  0  0  0  0  0  0  0  0
  -26.2266  -21.5616   23.3680 C   0  0  0  0  0  0  0  0  0  0  0  0
  -28.3990  -15.4467   20.4881 N   0  0  0  0  0  0  0  0  0  0  0  0
  -28.4316  -22.1055   22.0616 N   0  0  0  0  0  0  0  0  0  0  0  0
  -28.9932  -16.3696   21.2634 N   0  0  0  0  0  0  0  0  0  0  0  0
  -30.6434  -19.3431   19.5273 N   0  0  0  0  0  0  0  0  0  0  0  0
  -26.3363  -29.5905   21.6145 N   0  0  0  0  0  0  0  0  0  0  0  0
  -28.9911  -17.2868   23.4473 N   0  0  0  0  0  0  0  0  0  0  0  0
  -25.5210  -15.8318   23.9336 N   0  0  0  0  0  0  0  0  0  0  0  0
  -29.2335  -27.7382   20.4014 N   0  0  0  0  0  0  0  0  0  0  0  0
  -24.9427  -32.2757   23.1331 N   0  0  0  0  0  0  0  0  0  0  0  0
  -22.3879  -33.5546   21.2570 N   0  3  0  0  0  0  0  0  0  0  0  0
  -23.9916  -22.0315   22.2899 N   0  3  0  0  0  0  0  0  0  0  0  0
  -31.8599  -21.3356   19.3955 O   0  0  0  0  0  0  0  0  0  0  0  0
  -27.0853  -14.2915   24.5966 O   0  0  0  0  0  0  0  0  0  0  0  0
  -28.0840  -27.9073   22.4195 O   0  0  0  0  0  0  0  0  0  0  0  0
  -27.4703  -31.5970   21.9672 O   0  0  0  0  0  0  0  0  0  0  0  0
  -22.8755  -31.2258   23.0944 O   0  0  0  0  0  0  0  0  0  0  0  0
  -24.1765  -10.7883   19.4769 O   0  0  0  0  0  0  0  0  0  0  0  0
  -22.4868  -24.8513   20.7350 O   0  0  0  0  0  0  0  0  0  1  0  0
  -21.4778   -7.8060   23.2487 F   0  0  0  0  0  0  0  0  0  0  0  0
  -24.5645   -8.0579   19.6690 F   0  0  0  0  0  0  0  0  0  0  0  0
  1  2  1  0  0  0  0
  1  5  2  0  0  0  0
  2  6  2  0  0  0  0
  3  8  2  0  0  0  0
  3 17  1  0  0  0  0
  4  9  1  0  0  0  0
  4 17  2  0  0  0  0
  5 20  1  0  0  0  0
  6 22  1  0  0  0  0
  7 10  2  0  0  0  0
  7 21  1  0  0  0  0
  8 25  1  0  0  0  0
  9 25  2  0  0  0  0
 10 26  1  0  0  0  0
 11 12  2  0  0  0  0
 11 27  1  0  0  0  0
 12 28  1  0  0  0  0
 13 23  1  0  0  0  0
 13 26  2  0  0  0  0
 14 28  2  0  0  0  0
 14 29  1  0  0  0  0
 15 18  2  0  0  0  0
 15 69  1  0  0  0  0
 16 24  2  0  0  0  0
 16 69  1  0  0  0  0
 17 30  1  0  0  0  0
 18 24  1  0  0  0  0
 18 32  1  0  0  0  0
 19 30  1  0  0  0  0
 19 31  2  0  0  0  0
 19 33  1  0  0  0  0
 20 22  2  0  0  0  0
 20 37  1  0  0  0  0
 21 23  2  0  0  0  0
 21 38  1  0  0  0  0
 22 46  1  0  0  0  0
 23 39  1  0  0  0  0
 24 63  1  0  0  0  0
 25 84  1  0  0  0  0
 26 85  1  0  0  0  0
 27 29  2  0  0  0  0
 27 84  1  0  0  0  0
 28 86  1  0  0  0  0
 29 87  1  0  0  0  0
 30 68  2  0  0  0  0
 31 70  1  0  0  0  0
 31 73  1  0  0  0  0
 32 71  1  0  0  0  0
 32 79  2  0  0  0  0
 33 74  1  0  0  0  0
 33 80  2  0  0  0  0
 34 47  1  0  0  0  0
 34 75  1  0  0  0  0
 34 81  2  0  0  0  0
 35 64  1  0  0  0  0
 35 72  1  0  0  0  0
 35 82  2  0  0  0  0
 36 65  1  0  0  0  0
 36 76  1  0  0  0  0
 36 83  2  0  0  0  0
 37 40  1  0  0  0  0
 38 47  1  0  0  0  0
 39 72  1  0  0  0  0
 40 42  1  0  0  0  0
 41 43  1  0  0  0  0
 41 44  1  0  0  0  0
 42 46  1  0  0  0  0
 43 48  1  0  0  0  0
 44 71  1  0  0  0  0
 45 48  1  0  0  0  0
 45 71  1  0  0  0  0
 46 75  1  0  0  0  0
 47 72  1  0  0  0  0
 48 70  1  0  0  0  0
 49 63  1  0  0  0  0
 50 63  1  0  0  0  0
 51 65  1  0  0  0  0
 52 66  1  0  0  0  0
 53 66  1  0  0  0  0
 54 66  1  0  0  0  0
 55 67  1  0  0  0  0
 56 67  1  0  0  0  0
 57 77  1  0  0  0  0
 58 60  1  0  0  0  0
 58 62  1  0  0  0  0
 59 67  1  0  0  0  0
 59 69  1  0  0  0  0
 60 78  1  0  0  0  0
 61 67  1  0  0  0  0
 61 78  1  0  0  0  0
 62 85  1  0  0  0  0
 64 66  1  0  0  0  0
 64 76  1  0  0  0  0
 65 77  1  0  0  0  0
 68 70  1  0  0  0  0
M  CHG  2  77   1  78   1
M  ISO  4  18 100  32 100  62 101  85 101
M  END
> <Batch ID>
0099

> <Smiles>
CNC(C)C(=O)NC(C(=O)N1Cc2cc([101O:1][101CH2:1]CCNCC(C)(C)Cn3cc(C(C)C)[100c:0]([100C:0](=O)N4CCCC(n5nc(-c6ccc(Oc7ccc(F)cc7F)cc6)c(C(N)=O)c5N)C4)c3)ccc2CC1C(=O)NC1CCCc2ccccc21)C(C)(C)C

> <Shape>
0.261

> <Color>
0.061

> <Negative vol penalty>
0.000

$$$$

  -OEChem-04052319313D

 82 90  0     1  0  0  0  0  0999 V2000
  -20.9764  -20.1081   22.4936 C   0  0  0  0  0  0  0  0  0  0  0  0
  -22.2851  -20.2651   22.0485 C   0  0  0  0  0  0  0  0  0  0  0  0
  -27.7813  -12.2420   22.7522 C   0  0  0  0  0  0  0  0  0  0  0  0
  -27.4074  -11.6480   20.4404 C   0  0  0  0  0  0  0  0  0  0  0  0
  -20.0751  -21.1670   22.3920 C   0  0  0  0  0  0  0  0  0  0  0  0
  -22.6929  -21.4807   21.5005 C   0  0  0  0  0  0  0  0  0  0  0  0
  -28.2192  -24.0730   21.9958 C   0  0  0  0  0  0  0  0  0  0  0  0
  -26.8695  -11.2646   23.1508 C   0  0  0  0  0  0  0  0  0  0  0  0
  -26.4957  -10.6705   20.8390 C   0  0  0  0  0  0  0  0  0  0  0  0
  -29.3197  -24.1063   21.1406 C   0  0  0  0  0  0  0  0  0  0  0  0
  -23.2759  -10.5356   21.8616 C   0  0  0  0  0  0  0  0  0  0  0  0
  -22.0694  -10.4528   21.1666 C   0  0  0  0  0  0  0  0  0  0  0  0
  -28.5922  -26.2462   20.2974 C   0  0  0  0  0  0  0  0  0  0  0  0
  -22.5912   -8.1808   20.5318 C   0  0  0  0  0  0  0  0  0  0  0  0
  -30.0340  -23.4212   16.1386 C   0  0  0  0  0  0  0  0  0  0  0  0
  -28.0502  -12.4338   21.3970 C   0  0  0  0  0  0  0  0  0  0  0  0
  -30.3784  -13.2885   20.7999 C   0  0  0  0  0  0  0  0  0  0  0  0
  -20.4747  -22.3993   21.8513 C   0  0  0  0  0  0  0  0  0  0  0  0
  -27.2895  -25.1228   22.0005 C   0  0  0  0  0  0  0  0  0  0  0  0
  -21.7957  -22.5566   21.3903 C   0  0  0  0  0  0  0  0  0  0  0  0
  -27.4822  -26.2250   21.1555 C   0  0  0  0  0  0  0  0  0  0  0  0
  -30.1056  -22.0459   16.1143 C   0  0  0  0  0  0  0  0  0  0  0  0
  -31.2334  -21.6673   16.8836 C   0  0  0  0  0  0  0  0  0  0  0  0
  -26.2267  -10.4788   22.1942 C   0  0  0  0  0  0  0  0  0  0  0  0
  -29.5049  -25.1916   20.2891 C   0  0  0  0  0  0  0  0  0  0  0  0
  -24.1401   -9.4411   21.8917 C   0  0  0  0  0  0  0  0  0  0  0  0
  -21.7270   -9.2753   20.5017 C   0  0  0  0  0  0  0  0  0  0  0  0
  -23.7977   -8.2637   21.2269 C   0  0  0  0  0  0  0  0  0  0  0  0
  -28.9915  -13.4437   20.9845 C   0  0  0  0  0  0  0  0  0  0  0  0
  -31.8167  -22.8228   17.3547 C   0  0  0  0  0  0  0  0  0  0  0  0
  -30.8140  -14.5311   20.4093 C   0  0  0  0  0  0  0  0  0  0  0  0
  -31.1996  -12.1250   20.9665 C   0  0  0  0  0  0  0  0  0  0  0  0
  -24.1864  -25.3738   21.3591 C   0  0  0  0  0  0  0  0  0  0  0  0
  -24.6094  -28.4085   22.4237 C   0  0  0  0  0  0  0  0  0  0  0  0
  -26.7414  -31.0173   22.9677 C   0  0  0  0  0  0  0  0  0  0  0  0
  -28.0622  -18.9860   17.6823 C   0  0  0  0  0  0  0  0  0  0  0  0
  -19.4518  -23.4997   21.7185 C   0  0  0  0  0  0  0  0  0  0  0  0
  -26.1221  -25.0843   22.9482 C   0  0  0  0  0  0  0  0  0  0  0  0
  -26.5239  -27.3869   21.1367 C   0  0  0  0  0  0  0  0  0  0  0  0
  -20.0656  -24.8750   21.4698 C   0  0  0  0  0  0  0  0  0  0  0  0
  -29.7708  -19.1797   20.8668 C   0  0  0  0  0  0  0  0  0  0  0  0
  -21.1367  -24.7937   20.3868 C   0  0  0  0  0  0  0  0  0  0  0  0
  -29.8938  -17.7004   21.2364 C   0  0  0  0  0  0  0  0  0  0  0  0
  -28.4414  -19.4681   20.1756 C   0  0  0  0  0  0  0  0  0  0  0  0
  -28.3034  -17.1554   19.3355 C   0  0  0  0  0  0  0  0  0  0  0  0
  -22.2826  -23.8678   20.8126 C   0  0  1  0  0  0  0  0  0  0  0  0
  -24.9608  -25.9672   22.5018 C   0  0  1  0  0  0  0  0  0  0  0  0
  -29.6357  -16.7949   20.0175 C   0  0  2  0  0  0  0  0  0  0  0  0
  -31.7003  -20.2883   17.1355 C   0  0  0  0  0  0  0  0  0  0  0  0
  -33.0128  -23.0104   18.2029 C   0  0  0  0  0  0  0  0  0  0  0  0
  -26.7884  -33.3796   23.8129 C   0  0  0  0  0  0  0  0  0  0  0  0
  -23.3637  -29.3665   19.8083 C   0  0  0  0  0  0  0  0  0  0  0  0
  -24.2902  -31.6437   20.2821 C   0  0  0  0  0  0  0  0  0  0  0  0
  -22.6264  -30.6274   21.8383 C   0  0  0  0  0  0  0  0  0  0  0  0
  -28.6066  -30.3196   25.1570 C   0  0  0  0  0  0  0  0  0  0  0  0
  -29.1726  -21.1426   15.4115 C   0  0  0  0  0  0  0  0  0  0  0  0
  -31.3584  -25.3404   17.1704 C   0  0  0  0  0  0  0  0  0  0  0  0
  -27.8379  -20.9216   16.1459 C   0  0  0  0  0  0  0  0  0  0  0  0
  -30.4169  -25.9238   18.2184 C   0  0  0  0  0  0  0  0  0  1  0  0
  -24.9868  -29.7230   21.7843 C   0  0  1  0  0  0  0  0  0  0  0  0
  -26.9509  -31.9118   24.1761 C   0  0  2  0  0  0  0  0  0  0  0  0
  -23.8340  -30.3175   20.9270 C   0  0  0  0  0  0  0  0  0  0  0  0
  -28.5737  -14.6870   20.7321 N   0  0  0  0  0  0  0  0  0  0  0  0
  -31.0790  -23.8827   16.8958 N   0  0  0  0  0  0  0  0  0  0  0  0
  -29.7048  -15.3243   20.3850 N   0  0  0  0  0  0  0  0  0  0  0  0
  -25.3946  -27.2998   22.0772 N   0  0  0  0  0  0  0  0  0  0  0  0
  -28.2658  -18.5858   19.0134 N   0  0  0  0  0  0  0  0  0  0  0  0
  -32.0339  -15.0117   20.0878 N   0  0  0  0  0  0  0  0  0  0  0  0
  -30.5904  -10.9299   21.3729 N   0  0  0  0  0  0  0  0  0  0  0  0
  -23.1549  -24.5417   21.7504 N   0  0  0  0  0  0  0  0  0  0  0  0
  -25.4340  -30.5908   22.8684 N   0  0  0  0  0  0  0  0  0  0  0  0
  -28.0328  -20.3578   17.4632 N   0  0  0  0  0  0  0  0  0  0  0  0
  -28.3180  -31.7147   24.7358 N   0  3  0  0  0  0  0  0  0  0  0  0
  -32.4393  -12.1486   20.7770 O   0  0  0  0  0  0  0  0  0  0  0  0
  -24.5005  -25.6514   20.2076 O   0  0  0  0  0  0  0  0  0  0  0  0
  -23.6577  -28.3685   23.2075 O   0  0  0  0  0  0  0  0  0  0  0  0
  -27.6463  -30.7289   22.1875 O   0  0  0  0  0  0  0  0  0  0  0  0
  -27.9224  -18.1801   16.7560 O   0  0  0  0  0  0  0  0  0  0  0  0
  -25.3372   -9.5247   22.5829 O   0  0  0  0  0  0  0  0  0  0  0  0
  -30.5778  -25.2263   19.4528 O   0  0  0  0  0  0  0  0  0  1  0  0
  -20.5677   -9.1954   19.8356 F   0  0  0  0  0  0  0  0  0  0  0  0
  -24.6234   -7.2085   21.2532 F   0  0  0  0  0  0  0  0  0  0  0  0
  1  2  1  0  0  0  0
  1  5  2  0  0  0  0
  2  6  2  0  0  0  0
  3  8  2  0  0  0  0
  3 16  1  0  0  0  0
  4  9  1  0  0  0  0
  4 16  2  0  0  0  0
  5 18  1  0  0  0  0
  6 20  1  0  0  0  0
  7 10  2  0  0  0  0
  7 19  1  0  0  0  0
  8 24  1  0  0  0  0
  9 24  2  0  0  0  0
 10 25  1  0  0  0  0
 11 12  2  0  0  0  0
 11 26  1  0  0  0  0
 12 27  1  0  0  0  0
 13 21  1  0  0  0  0
 13 25  2  0  0  0  0
 14 27  2  0  0  0  0
 14 28  1  0  0  0  0
 15 22  2  0  0  0  0
 15 64  1  0  0  0  0
 16 29  1  0  0  0  0
 17 29  1  0  0  0  0
 17 31  2  0  0  0  0
 17 32  1  0  0  0  0
 18 20  2  0  0  0  0
 18 37  1  0  0  0  0
 19 21  2  0  0  0  0
 19 38  1  0  0  0  0
 20 46  1  0  0  0  0
 21 39  1  0  0  0  0
 22 23  1  0  0  0  0
 22 56  1  0  0  0  0
 23 30  2  0  0  0  0
 23 49  1  0  0  0  0
 24 79  1  0  0  0  0
 25 80  1  0  0  0  0
 26 28  2  0  0  0  0
 26 79  1  0  0  0  0
 27 81  1  0  0  0  0
 28 82  1  0  0  0  0
 29 63  2  0  0  0  0
 30 50  1  0  0  0  0
 30 64  1  0  0  0  0
 31 65  1  0  0  0  0
 31 68  1  0  0  0  0
 32 69  1  0  0  0  0
 32 74  2  0  0  0  0
 33 47  1  0  0  0  0
 33 70  1  0  0  0  0
 33 75  2  0  0  0  0
 34 60  1  0  0  0  0
 34 66  1  0  0  0  0
 34 76  2  0  0  0  0
 35 61  1  0  0  0  0
 35 71  1  0  0  0  0
 35 77  2  0  0  0  0
 36 67  1  0  0  0  0
 36 72  1  0  0  0  0
 36 78  2  0  0  0  0
 37 40  1  0  0  0  0
 38 47  1  0  0  0  0
 39 66  1  0  0  0  0
 40 42  1  0  0  0  0
 41 43  1  0  0  0  0
 41 44  1  0  0  0  0
 42 46  1  0  0  0  0
 43 48  1  0  0  0  0
 44 67  1  0  0  0  0
 45 48  1  0  0  0  0
 45 67  1  0  0  0  0
 46 70  1  0  0  0  0
 47 66  1  0  0  0  0
 48 65  1  0  0  0  0
 51 61  1  0  0  0  0
 52 62  1  0  0  0  0
 53 62  1  0  0  0  0
 54 62  1  0  0  0  0
 55 73  1  0  0  0  0
 56 58  1  0  0  0  0
 57 59  1  0  0  0  0
 57 64  1  0  0  0  0
 58 72  1  0  0  0  0
 59 80  1  0  0  0  0
 60 62  1  0  0  0  0
 60 71  1  0  0  0  0
 61 73  1  0  0  0  0
 63 65  1  0  0  0  0
M  CHG  1  73   1
M  ISO  4  36 100  59 101  72 100  80 101
M  END
> <Batch ID>
0099

> <Smiles>
CNC(C)C(=O)NC(C(=O)N1Cc2cc([101O:1][101CH2:1]Cn3cc(CC[100NH:0][100C:0](=O)N4CCCC(n5nc(-c6ccc(Oc7ccc(F)cc7F)cc6)c(C(N)=O)c5N)C4)c(C)c3C)ccc2CC1C(=O)NC1CCCc2ccccc21)C(C)(C)C

> <Shape>
0.248

> <Color>
0.070

> <Negative vol penalty>
0.000

$$$$

  -OEChem-04052319313D

 91 99  0     1  0  0  0  0  0999 V2000
  -28.4066  -29.0231   20.4126 C   0  0  0  0  0  0  0  0  0  0  0  0
  -27.8943  -27.8067   20.8523 C   0  0  0  0  0  0  0  0  0  0  0  0
  -23.2209   -9.8667   19.8737 C   0  0  0  0  0  0  0  0  0  0  0  0
  -23.7526   -9.8595   22.2305 C   0  0  0  0  0  0  0  0  0  0  0  0
  -27.5503  -30.1023   20.1986 C   0  0  0  0  0  0  0  0  0  0  0  0
  -26.5253  -27.6692   21.0792 C   0  0  0  0  0  0  0  0  0  0  0  0
  -24.6632  -23.3622   19.1745 C   0  0  0  0  0  0  0  0  0  0  0  0
  -27.1538  -18.2966   19.5536 C   0  0  0  0  0  0  0  0  0  0  0  0
  -27.4564  -17.5351   18.4248 C   0  0  0  0  0  0  0  0  0  0  0  0
  -22.4992   -8.6838   20.0329 C   0  0  0  0  0  0  0  0  0  0  0  0
  -23.0309   -8.6766   22.3897 C   0  0  0  0  0  0  0  0  0  0  0  0
  -24.8934  -22.1936   19.8992 C   0  0  0  0  0  0  0  0  0  0  0  0
  -23.4971   -5.3774   21.8160 C   0  0  0  0  0  0  0  0  0  0  0  0
  -24.0770   -4.3618   22.5761 C   0  0  0  0  0  0  0  0  0  0  0  0
  -22.6620  -22.3239   20.8065 C   0  0  0  0  0  0  0  0  0  0  0  0
  -29.4701  -16.7427   19.4991 C   0  0  0  0  0  0  0  0  0  0  0  0
  -22.2119   -4.4447   24.1098 C   0  0  0  0  0  0  0  0  0  0  0  0
  -23.8476  -10.4546   20.9725 C   0  0  0  0  0  0  0  0  0  0  0  0
  -24.1062  -12.9920   20.9228 C   0  0  0  0  0  0  0  0  0  0  0  0
  -26.1689  -29.9752   20.4138 C   0  0  0  0  0  0  0  0  0  0  0  0
  -23.4324  -24.0276   19.2690 C   0  0  0  0  0  0  0  0  0  0  0  0
  -25.6499  -28.7482   20.8692 C   0  0  0  0  0  0  0  0  0  0  0  0
  -22.4178  -23.4994   20.0800 C   0  0  0  0  0  0  0  0  0  0  0  0
  -28.0094  -18.2812   20.6551 C   0  0  0  0  0  0  0  0  0  0  0  0
  -29.1675  -17.5042   20.6279 C   0  0  0  0  0  0  0  0  0  0  0  0
  -28.6144  -16.7582   18.3975 C   0  0  0  0  0  0  0  0  0  0  0  0
  -22.4042   -8.0887   21.2909 C   0  0  0  0  0  0  0  0  0  0  0  0
  -23.8938  -21.6758   20.7175 C   0  0  0  0  0  0  0  0  0  0  0  0
  -22.2746   -5.9268   22.2028 C   0  0  0  0  0  0  0  0  0  0  0  0
  -23.4344   -3.8954   23.7230 C   0  0  0  0  0  0  0  0  0  0  0  0
  -21.6321   -5.4604   23.3496 C   0  0  0  0  0  0  0  0  0  0  0  0
  -24.5937  -11.6763   20.8086 C   0  0  0  0  0  0  0  0  0  0  0  0
  -25.2002  -13.7859   20.6793 C   0  0  0  0  0  0  0  0  0  0  0  0
  -22.7827  -13.4551   21.2224 C   0  0  0  0  0  0  0  0  0  0  0  0
  -22.5073  -26.9036   20.2570 C   0  0  0  0  0  0  0  0  0  0  0  0
  -19.6234  -25.9330   19.1330 C   0  0  0  0  0  0  0  0  0  0  0  0
  -17.5467  -23.3452   18.3348 C   0  0  0  0  0  0  0  0  0  0  0  0
  -29.6450  -14.7593   17.2868 C   0  0  0  0  0  0  0  0  0  0  0  0
  -25.2889  -31.1836   20.2141 C   0  0  0  0  0  0  0  0  0  0  0  0
  -23.1906  -25.2725   18.4602 C   0  0  0  0  0  0  0  0  0  0  0  0
  -21.0719  -24.1645   20.2005 C   0  0  0  0  0  0  0  0  0  0  0  0
  -23.8032  -30.8461   20.1188 C   0  0  0  0  0  0  0  0  0  0  0  0
  -30.1071  -12.6686   20.3048 C   0  0  0  0  0  0  0  0  0  0  0  0
  -23.4038  -29.8766   21.2266 C   0  0  0  0  0  0  0  0  0  0  0  0
  -28.6773  -12.2651   20.6602 C   0  0  0  0  0  0  0  0  0  0  0  0
  -30.2715  -12.9114   18.8076 C   0  0  0  0  0  0  0  0  0  0  0  0
  -27.8740  -13.5074   18.6125 C   0  0  0  0  0  0  0  0  0  0  0  0
  -24.1676  -28.5526   21.1028 C   0  0  1  0  0  0  0  0  0  0  0  0
  -22.0795  -26.1489   19.0303 C   0  0  1  0  0  0  0  0  0  0  0  0
  -27.6726  -13.2965   20.1206 C   0  0  1  0  0  0  0  0  0  0  0  0
  -15.2384  -22.8648   17.4755 C   0  0  0  0  0  0  0  0  0  0  0  0
  -18.4629  -26.6315   21.8670 C   0  0  0  0  0  0  0  0  0  0  0  0
  -16.4413  -25.2772   21.2775 C   0  0  0  0  0  0  0  0  0  0  0  0
  -17.0296  -27.2899   19.9262 C   0  0  0  0  0  0  0  0  0  0  0  0
  -28.7167  -16.5751   15.9183 C   0  0  0  0  0  0  0  0  0  0  0  0
  -18.6002  -21.9409   15.9522 C   0  0  0  0  0  0  0  0  0  0  0  0
  -33.4307  -20.8367   19.9744 C   0  0  0  0  0  0  0  0  0  0  0  0
  -34.1119  -19.2272   21.7481 C   0  0  0  0  0  0  0  0  0  0  0  0
  -25.4753  -21.2519   24.8696 C   0  0  0  0  0  0  0  0  0  0  0  0
  -27.6616  -19.1133   21.8636 C   0  0  0  0  0  0  0  0  0  0  0  0
  -30.0972  -17.4705   21.7963 C   0  0  0  0  0  0  0  0  0  0  0  0
  -27.0245  -18.3122   23.0068 C   0  0  0  0  0  0  0  0  0  0  0  0
  -31.5550  -17.8361   21.4592 C   0  0  0  0  0  0  0  0  0  0  0  0
  -26.6069  -19.1294   24.2255 C   0  0  0  0  0  0  0  0  0  0  0  0
  -31.7627  -19.2490   20.9226 C   0  0  0  0  0  0  0  0  0  0  0  0
  -24.2273  -19.5111   23.5991 C   0  0  0  0  0  0  0  0  0  0  0  0
  -23.4245  -20.3969   22.6669 C   0  0  0  0  0  0  0  0  0  1  0  0
  -18.4393  -25.2015   19.7175 C   0  0  1  0  0  0  0  0  0  0  0  0
  -16.6980  -23.0772   17.1050 C   0  0  2  0  0  0  0  0  0  0  0  0
  -17.6192  -26.0883   20.6965 C   0  0  0  0  0  0  0  0  0  0  0  0
  -25.8960  -11.6327   20.5151 N   0  0  0  0  0  0  0  0  0  0  0  0
  -26.2361  -12.9308   20.4428 N   0  0  0  0  0  0  0  0  0  0  0  0
  -20.8861  -25.3827   19.3948 N   0  0  0  0  0  0  0  0  0  0  0  0
  -29.2705  -13.8492   18.2965 N   0  0  0  0  0  0  0  0  0  0  0  0
  -25.3675  -15.1251   20.6464 N   0  0  0  0  0  0  0  0  0  0  0  0
  -21.7769  -12.5049   21.4456 N   0  0  0  0  0  0  0  0  0  0  0  0
  -23.5935  -27.7339   20.0565 N   0  0  0  0  0  0  0  0  0  0  0  0
  -17.6722  -24.6954   18.5844 N   0  0  0  0  0  0  0  0  0  0  0  0
  -28.9267  -15.9689   17.2311 N   0  0  0  0  0  0  0  0  0  0  0  0
  -17.1845  -21.8605   16.3951 N   0  3  0  0  0  0  0  0  0  0  0  0
  -33.1864  -19.4758   20.5812 N   0  3  0  0  0  0  0  0  0  0  0  0
  -25.5485  -20.1385   23.8542 N   0  3  1  0  0  0  0  0  0  0  0  0
  -22.4968  -14.6754   21.2739 O   0  0  0  0  0  0  0  0  0  0  0  0
  -21.8962  -26.7456   21.3074 O   0  0  0  0  0  0  0  0  0  0  0  0
  -19.4345  -26.9511   18.4625 O   0  0  0  0  0  0  0  0  0  0  0  0
  -18.0451  -22.4465   19.0089 O   0  0  0  0  0  0  0  0  0  0  0  0
  -30.5214  -14.4906   16.4559 O   0  0  0  0  0  0  0  0  0  0  0  0
  -21.6998   -6.9345   21.4466 O   0  0  0  0  0  0  0  0  0  0  0  0
  -24.1160  -20.5357   21.4264 O   0  0  0  0  0  0  0  0  0  1  0  0
  -23.9907   -2.9190   24.4520 F   0  0  0  0  0  0  0  0  0  0  0  0
  -20.4569   -5.9834   23.7255 F   0  0  0  0  0  0  0  0  0  0  0  0
  1  2  1  0  0  0  0
  1  5  2  0  0  0  0
  2  6  2  0  0  0  0
  3 10  2  0  0  0  0
  3 18  1  0  0  0  0
  4 11  1  0  0  0  0
  4 18  2  0  0  0  0
  5 20  1  0  0  0  0
  6 22  1  0  0  0  0
  7 12  2  0  0  0  0
  7 21  1  0  0  0  0
  8  9  2  0  0  0  0
  8 24  1  0  0  0  0
  9 26  1  0  0  0  0
 10 27  1  0  0  0  0
 11 27  2  0  0  0  0
 12 28  1  0  0  0  0
 13 14  2  0  0  0  0
 13 29  1  0  0  0  0
 14 30  1  0  0  0  0
 15 23  1  0  0  0  0
 15 28  2  0  0  0  0
 16 25  1  0  0  0  0
 16 26  2  0  0  0  0
 17 30  2  0  0  0  0
 17 31  1  0  0  0  0
 18 32  1  0  0  0  0
 19 32  1  0  0  0  0
 19 33  2  0  0  0  0
 19 34  1  0  0  0  0
 20 22  2  0  0  0  0
 20 39  1  0  0  0  0
 21 23  2  0  0  0  0
 21 40  1  0  0  0  0
 22 48  1  0  0  0  0
 23 41  1  0  0  0  0
 24 25  2  0  0  0  0
 24 60  1  0  0  0  0
 25 61  1  0  0  0  0
 26 79  1  0  0  0  0
 27 88  1  0  0  0  0
 28 89  1  0  0  0  0
 29 31  2  0  0  0  0
 29 88  1  0  0  0  0
 30 90  1  0  0  0  0
 31 91  1  0  0  0  0
 32 71  2  0  0  0  0
 33 72  1  0  0  0  0
 33 75  1  0  0  0  0
 34 76  1  0  0  0  0
 34 83  2  0  0  0  0
 35 49  1  0  0  0  0
 35 77  1  0  0  0  0
 35 84  2  0  0  0  0
 36 68  1  0  0  0  0
 36 73  1  0  0  0  0
 36 85  2  0  0  0  0
 37 69  1  0  0  0  0
 37 78  1  0  0  0  0
 37 86  2  0  0  0  0
 38 74  1  0  0  0  0
 38 79  1  0  0  0  0
 38 87  2  0  0  0  0
 39 42  1  0  0  0  0
 40 49  1  0  0  0  0
 41 73  1  0  0  0  0
 42 44  1  0  0  0  0
 43 45  1  0  0  0  0
 43 46  1  0  0  0  0
 44 48  1  0  0  0  0
 45 50  1  0  0  0  0
 46 74  1  0  0  0  0
 47 50  1  0  0  0  0
 47 74  1  0  0  0  0
 48 77  1  0  0  0  0
 49 73  1  0  0  0  0
 50 72  1  0  0  0  0
 51 69  1  0  0  0  0
 52 70  1  0  0  0  0
 53 70  1  0  0  0  0
 54 70  1  0  0  0  0
 55 79  1  0  0  0  0
 56 80  1  0  0  0  0
 57 81  1  0  0  0  0
 58 81  1  0  0  0  0
 59 82  1  0  0  0  0
 60 62  1  0  0  0  0
 61 63  1  0  0  0  0
 62 64  1  0  0  0  0
 63 65  1  0  0  0  0
 64 82  1  0  0  0  0
 65 81  1  0  0  0  0
 66 67  1  0  0  0  0
 66 82  1  0  0  0  0
 67 89  1  0  0  0  0
 68 70  1  0  0  0  0
 68 78  1  0  0  0  0
 69 80  1  0  0  0  0
 71 72  1  0  0  0  0
M  CHG  3  80   1  81   1  82   1
M  ISO  4  38 100  67 101  79 100  89 101
M  END
> <Batch ID>
0099

> <Smiles>
CNC(C)C(=O)NC(C(=O)N1Cc2cc([101O:1][101CH2:1]CN(C)CCCc3ccc([100N:0](C)[100C:0](=O)N4CCCC(n5nc(-c6ccc(Oc7ccc(F)cc7F)cc6)c(C(N)=O)c5N)C4)cc3CCCN(C)C)ccc2CC1C(=O)NC1CCCc2ccccc21)C(C)(C)C

> <Shape>
0.254

> <Color>
0.192

> <Negative vol penalty>
0.000

$$$$

  -OEChem-04052319313D

 89 97  0     1  0  0  0  0  0999 V2000
  -25.2313  -29.1938   19.9496 C   0  0  0  0  0  0  0  0  0  0  0  0
  -25.0117  -27.9746   19.3165 C   0  0  0  0  0  0  0  0  0  0  0  0
  -21.2094  -29.3355   24.4584 C   0  0  0  0  0  0  0  0  0  0  0  0
  -21.4173  -29.7133   22.0812 C   0  0  0  0  0  0  0  0  0  0  0  0
  -26.5206  -29.5527   20.3404 C   0  0  0  0  0  0  0  0  0  0  0  0
  -26.0816  -27.1142   19.0727 C   0  0  0  0  0  0  0  0  0  0  0  0
  -25.0129  -22.3050   20.2448 C   0  0  0  0  0  0  0  0  0  0  0  0
  -22.2250  -30.2619   24.6945 C   0  0  0  0  0  0  0  0  0  0  0  0
  -22.4330  -30.6398   22.3173 C   0  0  0  0  0  0  0  0  0  0  0  0
  -24.2370  -21.5857   19.3369 C   0  0  0  0  0  0  0  0  0  0  0  0
  -25.6009  -30.3474   24.5495 C   0  0  0  0  0  0  0  0  0  0  0  0
  -26.5916  -30.0016   25.4684 C   0  0  0  0  0  0  0  0  0  0  0  0
  -26.2311  -20.5428   18.4681 C   0  0  0  0  0  0  0  0  0  0  0  0
  -26.0038  -31.9145   26.8221 C   0  0  0  0  0  0  0  0  0  0  0  0
  -19.5787  -20.0672   16.9774 C   0  0  0  0  0  0  0  0  0  0  0  0
  -20.8055  -29.0611   23.1517 C   0  0  0  0  0  0  0  0  0  0  0  0
  -18.3747  -28.3590   22.8266 C   0  0  0  0  0  0  0  0  0  0  0  0
  -27.6054  -28.6920   20.1100 C   0  0  0  0  0  0  0  0  0  0  0  0
  -26.4072  -22.1565   20.2638 C   0  0  0  0  0  0  0  0  0  0  0  0
  -27.3869  -27.4626   19.4596 C   0  0  0  0  0  0  0  0  0  0  0  0
  -27.0223  -21.2594   19.3789 C   0  0  0  0  0  0  0  0  0  0  0  0
  -20.5349  -19.0810   16.8754 C   0  0  0  0  0  0  0  0  0  0  0  0
  -19.8889  -17.8404   17.1001 C   0  0  0  0  0  0  0  0  0  0  0  0
  -22.8368  -30.9141   23.6240 C   0  0  0  0  0  0  0  0  0  0  0  0
  -24.8463  -20.7066   18.4464 C   0  0  0  0  0  0  0  0  0  0  0  0
  -24.8115  -31.4768   24.7669 C   0  0  0  0  0  0  0  0  0  0  0  0
  -26.7931  -30.7851   26.6047 C   0  0  0  0  0  0  0  0  0  0  0  0
  -25.0130  -32.2603   25.9032 C   0  0  0  0  0  0  0  0  0  0  0  0
  -19.7568  -28.1038   22.9071 C   0  0  0  0  0  0  0  0  0  0  0  0
  -18.5574  -18.1061   17.3324 C   0  0  0  0  0  0  0  0  0  0  0  0
  -17.8124  -27.1301   22.5812 C   0  0  0  0  0  0  0  0  0  0  0  0
  -17.6628  -29.5962   22.9615 C   0  0  0  0  0  0  0  0  0  0  0  0
  -28.8765  -24.0950   19.7655 C   0  0  0  0  0  0  0  0  0  0  0  0
  -30.5950  -21.5148   20.7200 C   0  0  0  0  0  0  0  0  0  0  0  0
  -30.7735  -18.1262   21.0847 C   0  0  0  0  0  0  0  0  0  0  0  0
  -17.7149  -22.4112   19.8119 C   0  0  0  0  0  0  0  0  0  0  0  0
  -28.9881  -29.1442   20.5080 C   0  0  0  0  0  0  0  0  0  0  0  0
  -27.2276  -22.9196   21.2673 C   0  0  0  0  0  0  0  0  0  0  0  0
  -28.5136  -21.0487   19.3725 C   0  0  0  0  0  0  0  0  0  0  0  0
  -30.0109  -28.0117   20.5494 C   0  0  0  0  0  0  0  0  0  0  0  0
  -19.8263  -22.4925   22.7501 C   0  0  0  0  0  0  0  0  0  0  0  0
  -29.9008  -27.1469   19.2977 C   0  0  0  0  0  0  0  0  0  0  0  0
  -19.8798  -23.9927   23.0447 C   0  0  0  0  0  0  0  0  0  0  0  0
  -19.8350  -22.2235   21.2482 C   0  0  0  0  0  0  0  0  0  0  0  0
  -18.8038  -24.4135   20.7853 C   0  0  0  0  0  0  0  0  0  0  0  0
  -28.5180  -26.4914   19.1999 C   0  0  1  0  0  0  0  0  0  0  0  0
  -28.6873  -23.0744   20.8519 C   0  0  1  0  0  0  0  0  0  0  0  0
  -18.7750  -24.7524   22.2868 C   0  0  2  0  0  0  0  0  0  0  0  0
  -21.6024  -16.3422   18.1830 C   0  0  0  0  0  0  0  0  0  0  0  0
  -21.1314  -16.1401   15.7147 C   0  0  0  0  0  0  0  0  0  0  0  0
  -17.6547  -16.4648   18.9777 C   0  0  0  0  0  0  0  0  0  0  0  0
  -32.3193  -16.3069   21.8577 C   0  0  0  0  0  0  0  0  0  0  0  0
  -16.8316  -16.8775   15.1524 C   0  0  0  0  0  0  0  0  0  0  0  0
  -15.9883  -15.1906   16.7817 C   0  0  0  0  0  0  0  0  0  0  0  0
  -32.2024  -21.7880   18.1409 C   0  0  0  0  0  0  0  0  0  0  0  0
  -33.0477  -19.4594   18.5032 C   0  0  0  0  0  0  0  0  0  0  0  0
  -33.5648  -21.2450   20.1666 C   0  0  0  0  0  0  0  0  0  0  0  0
  -28.8915  -17.2670   23.2010 C   0  0  0  0  0  0  0  0  0  0  0  0
  -17.1297  -20.1666   17.4363 C   0  0  0  0  0  0  0  0  0  0  0  0
  -16.7381  -20.3188   18.9038 C   0  0  0  0  0  0  0  0  0  0  0  0
  -22.6807  -20.2159   17.5949 C   0  0  0  0  0  0  0  0  0  1  0  0
  -20.5237  -16.5062   17.0881 C   0  0  0  0  0  0  0  0  0  0  0  0
  -22.0009  -19.2957   16.5785 C   0  0  2  0  0  0  0  0  0  0  0  0
  -17.4372  -17.1857   17.6210 C   0  0  2  0  0  0  0  0  0  0  0  0
  -31.2138  -20.3258   20.0253 C   0  0  1  0  0  0  0  0  0  0  0  0
  -31.2032  -17.2603   22.2551 C   0  0  2  0  0  0  0  0  0  0  0  0
  -17.1430  -16.1505   16.4691 C   0  0  0  0  0  0  0  0  0  0  0  0
  -32.4792  -20.7097   19.2075 C   0  0  0  0  0  0  0  0  0  0  0  0
  -20.0544  -26.8141   22.7276 N   0  0  0  0  0  0  0  0  0  0  0  0
  -18.3803  -19.4629   17.2551 N   0  0  0  0  0  0  0  0  0  0  0  0
  -18.8514  -26.2479   22.5320 N   0  0  0  0  0  0  0  0  0  0  0  0
  -29.2731  -21.8225   20.3684 N   0  0  0  0  0  0  0  0  0  0  0  0
  -18.7480  -22.9611   20.5889 N   0  0  0  0  0  0  0  0  0  0  0  0
  -16.5356  -26.7289   22.4051 N   0  0  0  0  0  0  0  0  0  0  0  0
  -18.3952  -30.7646   23.2120 N   0  0  0  0  0  0  0  0  0  0  0  0
  -28.4304  -25.3599   20.0980 N   0  0  0  0  0  0  0  0  0  0  0  0
  -31.4520  -19.3263   21.0609 N   0  0  0  0  0  0  0  0  0  0  0  0
  -17.7382  -21.0292   19.6693 N   0  0  0  0  0  0  0  0  0  0  0  0
  -22.2254  -19.8640   15.2105 N   0  3  0  0  0  0  0  0  0  0  0  0
  -30.0526  -16.4552   22.7538 N   0  3  0  0  0  0  0  0  0  0  0  0
  -16.4128  -29.6610   22.8790 O   0  0  0  0  0  0  0  0  0  0  0  0
  -29.3905  -23.7601   18.7047 O   0  0  0  0  0  0  0  0  0  0  0  0
  -31.2577  -22.1428   21.5495 O   0  0  0  0  0  0  0  0  0  0  0  0
  -29.9237  -17.7718   20.2706 O   0  0  0  0  0  0  0  0  0  0  0  0
  -16.8332  -23.1006   19.2881 O   0  0  0  0  0  0  0  0  0  0  0  0
  -23.8278  -31.8183   23.8541 O   0  0  0  0  0  0  0  0  0  0  0  0
  -24.0913  -20.0037   17.5588 O   0  0  0  0  0  0  0  0  0  1  0  0
  -27.7436  -30.4521   27.4878 F   0  0  0  0  0  0  0  0  0  0  0  0
  -24.2570  -33.3458   26.1180 F   0  0  0  0  0  0  0  0  0  0  0  0
  1  2  1  0  0  0  0
  1  5  2  0  0  0  0
  2  6  2  0  0  0  0
  3  8  2  0  0  0  0
  3 16  1  0  0  0  0
  4  9  1  0  0  0  0
  4 16  2  0  0  0  0
  5 18  1  0  0  0  0
  6 20  1  0  0  0  0
  7 10  2  0  0  0  0
  7 19  1  0  0  0  0
  8 24  1  0  0  0  0
  9 24  2  0  0  0  0
 10 25  1  0  0  0  0
 11 12  2  0  0  0  0
 11 26  1  0  0  0  0
 12 27  1  0  0  0  0
 13 21  1  0  0  0  0
 13 25  2  0  0  0  0
 14 27  2  0  0  0  0
 14 28  1  0  0  0  0
 15 22  2  0  0  0  0
 15 70  1  0  0  0  0
 16 29  1  0  0  0  0
 17 29  1  0  0  0  0
 17 31  2  0  0  0  0
 17 32  1  0  0  0  0
 18 20  2  0  0  0  0
 18 37  1  0  0  0  0
 19 21  2  0  0  0  0
 19 38  1  0  0  0  0
 20 46  1  0  0  0  0
 21 39  1  0  0  0  0
 22 23  1  0  0  0  0
 22 63  1  0  0  0  0
 23 30  2  0  0  0  0
 23 62  1  0  0  0  0
 24 86  1  0  0  0  0
 25 87  1  0  0  0  0
 26 28  2  0  0  0  0
 26 86  1  0  0  0  0
 27 88  1  0  0  0  0
 28 89  1  0  0  0  0
 29 69  2  0  0  0  0
 30 64  1  0  0  0  0
 30 70  1  0  0  0  0
 31 71  1  0  0  0  0
 31 74  1  0  0  0  0
 32 75  1  0  0  0  0
 32 81  2  0  0  0  0
 33 47  1  0  0  0  0
 33 76  1  0  0  0  0
 33 82  2  0  0  0  0
 34 65  1  0  0  0  0
 34 72  1  0  0  0  0
 34 83  2  0  0  0  0
 35 66  1  0  0  0  0
 35 77  1  0  0  0  0
 35 84  2  0  0  0  0
 36 73  1  0  0  0  0
 36 78  1  0  0  0  0
 36 85  2  0  0  0  0
 37 40  1  0  0  0  0
 38 47  1  0  0  0  0
 39 72  1  0  0  0  0
 40 42  1  0  0  0  0
 41 43  1  0  0  0  0
 41 44  1  0  0  0  0
 42 46  1  0  0  0  0
 43 48  1  0  0  0  0
 44 73  1  0  0  0  0
 45 48  1  0  0  0  0
 45 73  1  0  0  0  0
 46 76  1  0  0  0  0
 47 72  1  0  0  0  0
 48 71  1  0  0  0  0
 49 62  1  0  0  0  0
 50 62  1  0  0  0  0
 51 64  1  0  0  0  0
 52 66  1  0  0  0  0
 53 67  1  0  0  0  0
 54 67  1  0  0  0  0
 55 68  1  0  0  0  0
 56 68  1  0  0  0  0
 57 68  1  0  0  0  0
 58 80  1  0  0  0  0
 59 60  1  0  0  0  0
 59 70  1  0  0  0  0
 60 78  1  0  0  0  0
 61 63  1  0  0  0  0
 61 87  1  0  0  0  0
 63 79  1  0  0  0  0
 64 67  1  0  0  0  0
 65 68  1  0  0  0  0
 65 77  1  0  0  0  0
 66 80  1  0  0  0  0
 69 71  1  0  0  0  0
M  CHG  2  79   1  80   1
M  ISO  4  36 100  61 101  78 100  87 101
M  END
> <Batch ID>
0099

> <Smiles>
CNC(C)C(=O)NC(C(=O)N1Cc2cc([101O:1][101CH2:1]C(N)c3cn(CC[100NH:0][100C:0](=O)N4CCCC(n5nc(-c6ccc(Oc7ccc(F)cc7F)cc6)c(C(N)=O)c5N)C4)c(C(C)C(C)C)c3C(C)C)ccc2CC1C(=O)NC1CCCc2ccccc21)C(C)(C)C

> <Shape>
0.237

> <Color>
0.065

> <Negative vol penalty>
0.000

$$$$

  -OEChem-04052319313D

 84 91  0     1  0  0  0  0  0999 V2000
  -26.4093  -38.1066   20.6851 C   0  0  0  0  0  0  0  0  0  0  0  0
  -27.0064  -37.0320   20.0339 C   0  0  0  0  0  0  0  0  0  0  0  0
  -23.7926  -15.4303   19.2592 C   0  0  0  0  0  0  0  0  0  0  0  0
  -24.1466  -14.9014   21.5898 C   0  0  0  0  0  0  0  0  0  0  0  0
  -25.7811  -37.9134   21.9147 C   0  0  0  0  0  0  0  0  0  0  0  0
  -26.9766  -35.7637   20.6125 C   0  0  0  0  0  0  0  0  0  0  0  0
  -26.6649  -28.8280   18.8473 C   0  0  0  0  0  0  0  0  0  0  0  0
  -23.0846  -14.2396   19.0965 C   0  0  0  0  0  0  0  0  0  0  0  0
  -23.4385  -13.7106   21.4272 C   0  0  0  0  0  0  0  0  0  0  0  0
  -27.3280  -27.6251   19.0858 C   0  0  0  0  0  0  0  0  0  0  0  0
  -22.0336  -10.3606   21.5414 C   0  0  0  0  0  0  0  0  0  0  0  0
  -22.5729   -9.2036   22.1036 C   0  0  0  0  0  0  0  0  0  0  0  0
  -26.1452  -27.3945   21.1756 C   0  0  0  0  0  0  0  0  0  0  0  0
  -24.5509   -9.4634   20.7409 C   0  0  0  0  0  0  0  0  0  0  0  0
  -24.3237  -15.7612   20.5058 C   0  0  0  0  0  0  0  0  0  0  0  0
  -24.5350  -18.2469   21.0387 C   0  0  0  0  0  0  0  0  0  0  0  0
  -25.7351  -36.6402   22.5041 C   0  0  0  0  0  0  0  0  0  0  0  0
  -25.7435  -29.3296   19.7778 C   0  0  0  0  0  0  0  0  0  0  0  0
  -26.3484  -35.5535   21.8518 C   0  0  0  0  0  0  0  0  0  0  0  0
  -25.4699  -28.6028   20.9453 C   0  0  0  0  0  0  0  0  0  0  0  0
  -22.9075  -13.3798   20.1805 C   0  0  0  0  0  0  0  0  0  0  0  0
  -27.0704  -26.9095   20.2515 C   0  0  0  0  0  0  0  0  0  0  0  0
  -22.7529  -11.0690   20.5788 C   0  0  0  0  0  0  0  0  0  0  0  0
  -23.8316   -8.7550   21.7034 C   0  0  0  0  0  0  0  0  0  0  0  0
  -24.0116  -10.6204   20.1786 C   0  0  0  0  0  0  0  0  0  0  0  0
  -25.0557  -16.9907   20.6744 C   0  0  0  0  0  0  0  0  0  0  0  0
  -25.6283  -19.0780   21.0621 C   0  0  0  0  0  0  0  0  0  0  0  0
  -23.1840  -18.6284   21.3300 C   0  0  0  0  0  0  0  0  0  0  0  0
  -25.5576  -31.9560   21.5585 C   0  0  0  0  0  0  0  0  0  0  0  0
  -22.6292  -30.7752   22.3016 C   0  0  0  0  0  0  0  0  0  0  0  0
  -20.5787  -28.0585   22.5509 C   0  0  0  0  0  0  0  0  0  0  0  0
  -31.2819  -18.2158   22.0112 C   0  0  0  0  0  0  0  0  0  0  0  0
  -25.0858  -36.4895   23.8570 C   0  0  0  0  0  0  0  0  0  0  0  0
  -25.0167  -30.6153   19.4931 C   0  0  0  0  0  0  0  0  0  0  0  0
  -24.4746  -29.0877   21.9664 C   0  0  0  0  0  0  0  0  0  0  0  0
  -24.7722  -35.0413   24.2242 C   0  0  0  0  0  0  0  0  0  0  0  0
  -29.9366  -19.6701   19.0876 C   0  0  0  0  0  0  0  0  0  0  0  0
  -25.9704  -34.1445   23.9297 C   0  0  0  0  0  0  0  0  0  0  0  0
  -28.4685  -19.2599   19.1935 C   0  0  0  0  0  0  0  0  0  0  0  0
  -30.8798  -18.5488   19.5274 C   0  0  0  0  0  0  0  0  0  0  0  0
  -29.1152  -17.6020   20.9809 C   0  0  0  0  0  0  0  0  0  0  0  0
  -26.3154  -34.1577   22.4356 C   0  0  1  0  0  0  0  0  0  0  0  0
  -24.4794  -31.2894   20.7518 C   0  0  1  0  0  0  0  0  0  0  0  0
  -28.1452  -18.7316   20.6019 C   0  0  2  0  0  0  0  0  0  0  0  0
  -18.2519  -27.4019   23.2232 C   0  0  0  0  0  0  0  0  0  0  0  0
  -23.4062  -31.0399   25.2403 C   0  0  0  0  0  0  0  0  0  0  0  0
  -21.4953  -29.5258   25.8098 C   0  0  0  0  0  0  0  0  0  0  0  0
  -21.0587  -31.7249   24.7161 C   0  0  0  0  0  0  0  0  0  0  0  0
  -33.7038  -22.6190   19.3843 C   0  0  0  0  0  0  0  0  0  0  0  0
  -34.3061  -24.6246   20.7717 C   0  0  0  0  0  0  0  0  0  0  0  0
  -33.4098  -17.6309   20.7724 C   0  0  0  0  0  0  0  0  0  0  0  0
  -19.9562  -27.0473   19.8401 C   0  0  0  0  0  0  0  0  0  0  0  0
  -34.6301  -23.1576   22.9937 C   0  0  0  0  0  0  0  0  0  0  0  0
  -31.2688  -24.4448   20.2552 C   0  0  0  0  0  0  0  0  0  0  0  0
  -29.8499  -24.6433   20.8025 C   0  0  0  0  0  0  0  0  0  0  0  0
  -32.0809  -23.5087   21.1605 C   0  0  0  0  0  0  0  0  0  0  0  0
  -34.2752  -20.0576   22.5248 C   0  0  0  0  0  0  0  0  0  0  0  0
  -33.4875  -18.8176   22.9338 C   0  0  0  0  0  0  0  0  0  0  0  0
  -33.3668  -21.2053   22.1028 C   0  0  0  0  0  0  0  0  0  0  0  0
  -29.0278  -25.5949   19.9415 C   0  0  0  0  0  0  0  0  0  1  0  0
  -22.0874  -29.8514   23.3656 C   0  0  1  0  0  0  0  0  0  0  0  0
  -19.1564  -27.8230   22.0755 C   0  0  2  0  0  0  0  0  0  0  0  0
  -22.0322  -30.5271   24.7648 C   0  0  0  0  0  0  0  0  0  0  0  0
  -33.5536  -23.2887   20.7518 C   0  0  0  0  0  0  0  0  0  0  0  0
  -26.3769  -17.0168   20.4801 N   0  0  0  0  0  0  0  0  0  0  0  0
  -26.6957  -18.2996   20.7232 N   0  0  0  0  0  0  0  0  0  0  0  0
  -23.7944  -30.3534   21.6457 N   0  0  0  0  0  0  0  0  0  0  0  0
  -30.5070  -18.0416   20.8550 N   0  0  0  0  0  0  0  0  0  0  0  0
  -25.7710  -20.3915   21.3392 N   0  0  0  0  0  0  0  0  0  0  0  0
  -22.1833  -17.6496   21.2592 N   0  0  0  0  0  0  0  0  0  0  0  0
  -25.3941  -33.3212   21.6967 N   0  0  0  0  0  0  0  0  0  0  0  0
  -20.7956  -29.3803   22.8781 N   0  0  0  0  0  0  0  0  0  0  0  0
  -32.6729  -18.2944   21.8462 N   0  0  0  0  0  0  0  0  0  0  0  0
  -19.1274  -26.7540   21.0376 N   0  3  0  0  0  0  0  0  0  0  0  0
  -34.2126  -22.4011   21.7633 N   0  3  1  0  0  0  0  0  0  0  0  0
  -22.8709  -19.8060   21.6279 O   0  0  0  0  0  0  0  0  0  0  0  0
  -26.4695  -31.2816   22.0225 O   0  0  0  0  0  0  0  0  0  0  0  0
  -22.0362  -31.8287   22.0563 O   0  0  0  0  0  0  0  0  0  0  0  0
  -21.4127  -27.1591   22.6282 O   0  0  0  0  0  0  0  0  0  0  0  0
  -30.7611  -18.2892   23.1316 O   0  0  0  0  0  0  0  0  0  0  0  0
  -22.2164  -12.2179   20.0222 O   0  0  0  0  0  0  0  0  0  0  0  0
  -27.7167  -25.7354   20.4871 O   0  0  0  0  0  0  0  0  0  1  0  0
  -24.3500   -7.6448   22.2445 F   0  0  0  0  0  0  0  0  0  0  0  0
  -24.7079  -11.2974   19.2552 F   0  0  0  0  0  0  0  0  0  0  0  0
  1  2  1  0  0  0  0
  1  5  2  0  0  0  0
  2  6  2  0  0  0  0
  3  8  2  0  0  0  0
  3 15  1  0  0  0  0
  4  9  1  0  0  0  0
  4 15  2  0  0  0  0
  5 17  1  0  0  0  0
  6 19  1  0  0  0  0
  7 10  2  0  0  0  0
  7 18  1  0  0  0  0
  8 21  1  0  0  0  0
  9 21  2  0  0  0  0
 10 22  1  0  0  0  0
 11 12  2  0  0  0  0
 11 23  1  0  0  0  0
 12 24  1  0  0  0  0
 13 20  1  0  0  0  0
 13 22  2  0  0  0  0
 14 24  2  0  0  0  0
 14 25  1  0  0  0  0
 15 26  1  0  0  0  0
 16 26  1  0  0  0  0
 16 27  2  0  0  0  0
 16 28  1  0  0  0  0
 17 19  2  0  0  0  0
 17 33  1  0  0  0  0
 18 20  2  0  0  0  0
 18 34  1  0  0  0  0
 19 42  1  0  0  0  0
 20 35  1  0  0  0  0
 21 81  1  0  0  0  0
 22 82  1  0  0  0  0
 23 25  2  0  0  0  0
 23 81  1  0  0  0  0
 24 83  1  0  0  0  0
 25 84  1  0  0  0  0
 26 65  2  0  0  0  0
 27 66  1  0  0  0  0
 27 69  1  0  0  0  0
 28 70  1  0  0  0  0
 28 76  2  0  0  0  0
 29 43  1  0  0  0  0
 29 71  1  0  0  0  0
 29 77  2  0  0  0  0
 30 61  1  0  0  0  0
 30 67  1  0  0  0  0
 30 78  2  0  0  0  0
 31 62  1  0  0  0  0
 31 72  1  0  0  0  0
 31 79  2  0  0  0  0
 32 68  1  0  0  0  0
 32 73  1  0  0  0  0
 32 80  2  0  0  0  0
 33 36  1  0  0  0  0
 34 43  1  0  0  0  0
 35 67  1  0  0  0  0
 36 38  1  0  0  0  0
 37 39  1  0  0  0  0
 37 40  1  0  0  0  0
 38 42  1  0  0  0  0
 39 44  1  0  0  0  0
 40 68  1  0  0  0  0
 41 44  1  0  0  0  0
 41 68  1  0  0  0  0
 42 71  1  0  0  0  0
 43 67  1  0  0  0  0
 44 66  1  0  0  0  0
 45 62  1  0  0  0  0
 46 63  1  0  0  0  0
 47 63  1  0  0  0  0
 48 63  1  0  0  0  0
 49 64  1  0  0  0  0
 50 64  1  0  0  0  0
 51 73  1  0  0  0  0
 52 74  1  0  0  0  0
 53 75  1  0  0  0  0
 54 55  1  0  0  0  0
 54 56  1  0  0  0  0
 55 60  1  0  0  0  0
 56 64  1  0  0  0  0
 57 58  1  0  0  0  0
 57 59  1  0  0  0  0
 58 73  1  0  0  0  0
 59 75  1  0  0  0  0
 60 82  1  0  0  0  0
 61 63  1  0  0  0  0
 61 72  1  0  0  0  0
 62 74  1  0  0  0  0
 64 75  1  0  0  0  0
 65 66  1  0  0  0  0
M  CHG  2  74   1  75   1
M  ISO  4  32 100  60 101  73 100  82 101
M  END
> <Batch ID>
0099

> <Smiles>
CNC(C)C(=O)NC(C(=O)N1Cc2cc([101O:1][101CH2:1]CCCC(C)(C)N(C)CCC[100N:0](C)[100C:0](=O)N3CCCC(n4nc(-c5ccc(Oc6ccc(F)cc6F)cc5)c(C(N)=O)c4N)C3)ccc2CC1C(=O)NC1CCCc2ccccc21)C(C)(C)C

> <Shape>
0.265

> <Color>
0.060

> <Negative vol penalty>
0.000

$$$$

  -OEChem-04052319313D

 86 94  0     1  0  0  0  0  0999 V2000
  -33.1271  -29.1364   15.5307 C   0  0  0  0  0  0  0  0  0  0  0  0
  -31.9783  -28.3644   15.3899 C   0  0  0  0  0  0  0  0  0  0  0  0
  -24.8874  -10.1685   22.1619 C   0  0  0  0  0  0  0  0  0  0  0  0
  -24.6602  -11.4747   24.1817 C   0  0  0  0  0  0  0  0  0  0  0  0
  -33.6050  -29.4474   16.8030 C   0  0  0  0  0  0  0  0  0  0  0  0
  -31.3074  -27.9020   16.5215 C   0  0  0  0  0  0  0  0  0  0  0  0
  -25.2625  -27.1683   17.1743 C   0  0  0  0  0  0  0  0  0  0  0  0
  -24.5621   -9.0131   22.8725 C   0  0  0  0  0  0  0  0  0  0  0  0
  -24.3348  -10.3193   24.8923 C   0  0  0  0  0  0  0  0  0  0  0  0
  -24.4373  -26.0490   17.0742 C   0  0  0  0  0  0  0  0  0  0  0  0
  -23.4386   -5.7736   24.0801 C   0  0  0  0  0  0  0  0  0  0  0  0
  -22.5255   -4.8921   23.5017 C   0  0  0  0  0  0  0  0  0  0  0  0
  -24.5470  -25.7615   19.4668 C   0  0  0  0  0  0  0  0  0  0  0  0
  -20.8552   -6.6376   23.4781 C   0  0  0  0  0  0  0  0  0  0  0  0
  -25.8454  -20.4427   20.5270 C   0  0  0  0  0  0  0  0  0  0  0  0
  -24.9366  -11.3993   22.8165 C   0  0  0  0  0  0  0  0  0  0  0  0
  -24.3858  -13.4626   21.4212 C   0  0  0  0  0  0  0  0  0  0  0  0
  -32.9342  -28.9966   17.9508 C   0  0  0  0  0  0  0  0  0  0  0  0
  -25.7459  -27.5868   18.4224 C   0  0  0  0  0  0  0  0  0  0  0  0
  -31.7776  -28.2060   17.8103 C   0  0  0  0  0  0  0  0  0  0  0  0
  -25.3762  -26.8879   19.5804 C   0  0  0  0  0  0  0  0  0  0  0  0
  -26.9261  -20.7844   21.3097 C   0  0  0  0  0  0  0  0  0  0  0  0
  -26.4964  -21.7925   22.2075 C   0  0  0  0  0  0  0  0  0  0  0  0
  -24.2857   -9.0885   24.2376 C   0  0  0  0  0  0  0  0  0  0  0  0
  -24.0817  -25.3438   18.2202 C   0  0  0  0  0  0  0  0  0  0  0  0
  -23.0600   -7.0872   24.3577 C   0  0  0  0  0  0  0  0  0  0  0  0
  -21.2338   -5.3240   23.2006 C   0  0  0  0  0  0  0  0  0  0  0  0
  -21.7684   -7.5191   24.0566 C   0  0  0  0  0  0  0  0  0  0  0  0
  -25.2731  -12.5930   22.0832 C   0  0  0  0  0  0  0  0  0  0  0  0
  -25.1661  -22.0361   21.9462 C   0  0  0  0  0  0  0  0  0  0  0  0
  -25.1942  -14.4347   20.8845 C   0  0  0  0  0  0  0  0  0  0  0  0
  -22.9585  -13.3976   21.3022 C   0  0  0  0  0  0  0  0  0  0  0  0
  -28.6303  -27.8974   19.7214 C   0  0  0  0  0  0  0  0  0  0  0  0
  -26.9586  -29.2186   22.1673 C   0  0  0  0  0  0  0  0  0  0  0  0
  -23.9918  -29.4992   23.8304 C   0  0  0  0  0  0  0  0  0  0  0  0
  -29.4515  -18.0157   21.3280 C   0  0  0  0  0  0  0  0  0  0  0  0
  -33.5154  -29.3185   19.3047 C   0  0  0  0  0  0  0  0  0  0  0  0
  -26.6135  -28.8119   18.5164 C   0  0  0  0  0  0  0  0  0  0  0  0
  -25.8520  -27.3082   20.9462 C   0  0  0  0  0  0  0  0  0  0  0  0
  -32.5351  -29.1040   20.4551 C   0  0  0  0  0  0  0  0  0  0  0  0
  -30.2282  -14.6559   20.4418 C   0  0  0  0  0  0  0  0  0  0  0  0
  -31.8268  -27.7609   20.3094 C   0  0  0  0  0  0  0  0  0  0  0  0
  -28.9377  -13.8910   20.7411 C   0  0  0  0  0  0  0  0  0  0  0  0
  -30.4767  -15.7646   21.4622 C   0  0  0  0  0  0  0  0  0  0  0  0
  -28.0650  -15.9415   21.9380 C   0  0  0  0  0  0  0  0  0  0  0  0
  -31.0081  -27.7066   19.0139 C   0  0  1  0  0  0  0  0  0  0  0  0
  -27.4657  -28.8449   19.7813 C   0  0  1  0  0  0  0  0  0  0  0  0
  -27.7427  -14.8495   20.9036 C   0  0  2  0  0  0  0  0  0  0  0  0
  -24.2270  -22.9841   22.5825 C   0  0  0  0  0  0  0  0  0  0  0  0
  -22.9443  -30.6236   25.8142 C   0  0  0  0  0  0  0  0  0  0  0  0
  -23.8636  -22.0318   17.4235 C   0  0  0  0  0  0  0  0  0  0  0  0
  -28.5434  -23.2065   22.6029 C   0  0  0  0  0  0  0  0  0  0  0  0
  -27.8938  -21.4394   24.2738 C   0  0  0  0  0  0  0  0  0  0  0  0
  -26.5886  -23.5484   24.1008 C   0  0  0  0  0  0  0  0  0  0  0  0
  -28.3427  -27.2300   24.0220 C   0  0  0  0  0  0  0  0  0  0  0  0
  -26.6052  -27.7399   25.7510 C   0  0  0  0  0  0  0  0  0  0  0  0
  -28.1286  -29.5439   24.9464 C   0  0  0  0  0  0  0  0  0  0  0  0
  -22.0474  -30.9446   22.1307 C   0  0  0  0  0  0  0  0  0  0  0  0
  -28.2794  -20.2005   21.2199 C   0  0  0  0  0  0  0  0  0  0  0  0
  -22.9219  -22.4726   19.7198 C   0  0  0  0  0  0  0  0  0  0  0  0
  -23.4038  -21.1407   20.3130 C   0  0  0  0  0  0  0  0  0  0  0  0
  -26.3016  -28.6923   23.4204 C   0  0  1  0  0  0  0  0  0  0  0  0
  -23.2235  -30.7126   24.3220 C   0  0  2  0  0  0  0  0  0  0  0  0
  -23.8084  -23.0104   18.5897 C   0  0  2  0  0  0  0  0  0  1  0  0
  -27.3209  -22.4610   23.2354 C   0  0  0  0  0  0  0  0  0  0  0  0
  -27.3369  -28.2922   24.5091 C   0  0  0  0  0  0  0  0  0  0  0  0
  -26.5476  -12.9785   21.9778 N   0  0  0  0  0  0  0  0  0  0  0  0
  -24.7810  -21.2097   20.9231 N   0  0  0  0  0  0  0  0  0  0  0  0
  -26.4670  -14.1011   21.2433 N   0  0  0  0  0  0  0  0  0  0  0  0
  -26.7033  -28.5087   20.9854 N   0  0  0  0  0  0  0  0  0  0  0  0
  -29.3063  -16.6392   21.5673 N   0  0  0  0  0  0  0  0  0  0  0  0
  -24.9333  -15.5337   20.1452 N   0  0  0  0  0  0  0  0  0  0  0  0
  -22.2848  -12.3320   21.9146 N   0  0  0  0  0  0  0  0  0  0  0  0
  -29.7718  -28.4434   19.1661 N   0  0  0  0  0  0  0  0  0  0  0  0
  -25.3534  -29.7164   23.8451 N   0  0  0  0  0  0  0  0  0  0  0  0
  -28.2914  -18.7718   21.4424 N   0  0  0  0  0  0  0  0  0  0  0  0
  -21.9213  -30.8261   23.6062 N   0  3  0  0  0  0  0  0  0  0  0  0
  -22.3015  -14.2499   20.6576 O   0  0  0  0  0  0  0  0  0  0  0  0
  -28.5031  -26.7560   20.1487 O   0  0  0  0  0  0  0  0  0  0  0  0
  -27.6664  -30.2267   22.2333 O   0  0  0  0  0  0  0  0  0  0  0  0
  -23.4395  -28.4611   23.4728 O   0  0  0  0  0  0  0  0  0  0  0  0
  -30.5338  -18.5316   21.0290 O   0  0  0  0  0  0  0  0  0  0  0  0
  -23.9680   -7.9614   24.9313 O   0  0  0  0  0  0  0  0  0  0  0  0
  -23.2769  -24.2506   18.1252 O   0  0  0  0  0  0  0  0  0  1  0  0
  -20.3575   -4.4778   22.6437 F   0  0  0  0  0  0  0  0  0  0  0  0
  -21.3993   -8.7802   24.3198 F   0  0  0  0  0  0  0  0  0  0  0  0
  1  2  1  0  0  0  0
  1  5  2  0  0  0  0
  2  6  2  0  0  0  0
  3  8  2  0  0  0  0
  3 16  1  0  0  0  0
  4  9  1  0  0  0  0
  4 16  2  0  0  0  0
  5 18  1  0  0  0  0
  6 20  1  0  0  0  0
  7 10  2  0  0  0  0
  7 19  1  0  0  0  0
  8 24  1  0  0  0  0
  9 24  2  0  0  0  0
 10 25  1  0  0  0  0
 11 12  2  0  0  0  0
 11 26  1  0  0  0  0
 12 27  1  0  0  0  0
 13 21  1  0  0  0  0
 13 25  2  0  0  0  0
 14 27  2  0  0  0  0
 14 28  1  0  0  0  0
 15 22  2  0  0  0  0
 15 68  1  0  0  0  0
 16 29  1  0  0  0  0
 17 29  1  0  0  0  0
 17 31  2  0  0  0  0
 17 32  1  0  0  0  0
 18 20  2  0  0  0  0
 18 37  1  0  0  0  0
 19 21  2  0  0  0  0
 19 38  1  0  0  0  0
 20 46  1  0  0  0  0
 21 39  1  0  0  0  0
 22 23  1  0  0  0  0
 22 59  1  0  0  0  0
 23 30  2  0  0  0  0
 23 65  1  0  0  0  0
 24 83  1  0  0  0  0
 25 84  1  0  0  0  0
 26 28  2  0  0  0  0
 26 83  1  0  0  0  0
 27 85  1  0  0  0  0
 28 86  1  0  0  0  0
 29 67  2  0  0  0  0
 30 49  1  0  0  0  0
 30 68  1  0  0  0  0
 31 69  1  0  0  0  0
 31 72  1  0  0  0  0
 32 73  1  0  0  0  0
 32 78  2  0  0  0  0
 33 47  1  0  0  0  0
 33 74  1  0  0  0  0
 33 79  2  0  0  0  0
 34 62  1  0  0  0  0
 34 70  1  0  0  0  0
 34 80  2  0  0  0  0
 35 63  1  0  0  0  0
 35 75  1  0  0  0  0
 35 81  2  0  0  0  0
 36 71  1  0  0  0  0
 36 76  1  0  0  0  0
 36 82  2  0  0  0  0
 37 40  1  0  0  0  0
 38 47  1  0  0  0  0
 39 70  1  0  0  0  0
 40 42  1  0  0  0  0
 41 43  1  0  0  0  0
 41 44  1  0  0  0  0
 42 46  1  0  0  0  0
 43 48  1  0  0  0  0
 44 71  1  0  0  0  0
 45 48  1  0  0  0  0
 45 71  1  0  0  0  0
 46 74  1  0  0  0  0
 47 70  1  0  0  0  0
 48 69  1  0  0  0  0
 50 63  1  0  0  0  0
 51 64  1  0  0  0  0
 52 65  1  0  0  0  0
 53 65  1  0  0  0  0
 54 65  1  0  0  0  0
 55 66  1  0  0  0  0
 56 66  1  0  0  0  0
 57 66  1  0  0  0  0
 58 77  1  0  0  0  0
 59 76  1  0  0  0  0
 60 61  1  0  0  0  0
 60 64  1  0  0  0  0
 61 68  1  0  0  0  0
 62 66  1  0  0  0  0
 62 75  1  0  0  0  0
 63 77  1  0  0  0  0
 64 84  1  0  0  0  0
 67 69  1  0  0  0  0
M  CHG  1  77   1
M  ISO  4  36 100  64 101  76 100  84 101
M  END
> <Batch ID>
0099

> <Smiles>
CNC(C)C(=O)NC(C(=O)N1Cc2cc([101O:1][101CH:1](C)CCn3cc(C[100NH:0][100C:0](=O)N4CCCC(n5nc(-c6ccc(Oc7ccc(F)cc7F)cc6)c(C(N)=O)c5N)C4)c(C(C)(C)C)c3C)ccc2CC1C(=O)NC1CCCc2ccccc21)C(C)(C)C

> <Shape>
0.209

> <Color>
0.127

> <Negative vol penalty>
0.000

$$$$

  -OEChem-04052319313D

 87 95  0     1  0  0  0  0  0999 V2000
  -25.6166  -17.7597   18.7512 C   0  0  0  0  0  0  0  0  0  0  0  0
  -24.8321  -18.9005   18.8867 C   0  0  0  0  0  0  0  0  0  0  0  0
  -23.2086  -14.0228   21.2001 C   0  0  0  0  0  0  0  0  0  0  0  0
  -25.0374  -15.0055   22.4357 C   0  0  0  0  0  0  0  0  0  0  0  0
  -26.8793  -17.7094   19.3403 C   0  0  0  0  0  0  0  0  0  0  0  0
  -25.3094  -19.9915   19.6122 C   0  0  0  0  0  0  0  0  0  0  0  0
  -24.2710  -25.9164   18.4622 C   0  0  0  0  0  0  0  0  0  0  0  0
  -18.6157  -27.3269   21.7090 C   0  0  0  0  0  0  0  0  0  0  0  0
  -24.0755  -13.0606   20.6821 C   0  0  0  0  0  0  0  0  0  0  0  0
  -25.9044  -14.0432   21.9178 C   0  0  0  0  0  0  0  0  0  0  0  0
  -23.3676  -26.8320   19.0001 C   0  0  0  0  0  0  0  0  0  0  0  0
  -27.5665  -13.4853   19.0270 C   0  0  0  0  0  0  0  0  0  0  0  0
  -28.8060  -13.9169   18.5546 C   0  0  0  0  0  0  0  0  0  0  0  0
  -18.9025  -26.1580   22.4052 C   0  0  0  0  0  0  0  0  0  0  0  0
  -25.0721  -27.6126   20.5182 C   0  0  0  0  0  0  0  0  0  0  0  0
  -29.9140  -12.4975   20.1654 C   0  0  0  0  0  0  0  0  0  0  0  0
  -23.6896  -14.9953   22.0768 C   0  0  0  0  0  0  0  0  0  0  0  0
  -22.0399  -15.9047   23.7970 C   0  0  0  0  0  0  0  0  0  0  0  0
  -27.3763  -18.8039   20.0653 C   0  0  0  0  0  0  0  0  0  0  0  0
  -25.5807  -25.8344   18.9565 C   0  0  0  0  0  0  0  0  0  0  0  0
  -26.5794  -19.9553   20.2127 C   0  0  0  0  0  0  0  0  0  0  0  0
  -25.9909  -26.6969   19.9831 C   0  0  0  0  0  0  0  0  0  0  0  0
  -19.5185  -28.3840   21.7345 C   0  0  0  0  0  0  0  0  0  0  0  0
  -25.4234  -13.0708   21.0410 C   0  0  0  0  0  0  0  0  0  0  0  0
  -23.7672  -27.6783   20.0302 C   0  0  0  0  0  0  0  0  0  0  0  0
  -27.5008  -12.5599   20.0686 C   0  0  0  0  0  0  0  0  0  0  0  0
  -29.9797  -13.4229   19.1237 C   0  0  0  0  0  0  0  0  0  0  0  0
  -28.6746  -12.0660   20.6378 C   0  0  0  0  0  0  0  0  0  0  0  0
  -22.7947  -15.9898   22.6118 C   0  0  0  0  0  0  0  0  0  0  0  0
  -20.0962  -26.0969   23.1060 C   0  0  0  0  0  0  0  0  0  0  0  0
  -20.6846  -28.2233   22.4654 C   0  0  0  0  0  0  0  0  0  0  0  0
  -21.3598  -17.0965   23.8573 C   0  0  0  0  0  0  0  0  0  0  0  0
  -21.9606  -14.8433   24.7576 C   0  0  0  0  0  0  0  0  0  0  0  0
  -27.3030  -23.5748   20.3818 C   0  0  0  0  0  0  0  0  0  0  0  0
  -29.6940  -25.7439   20.0655 C   0  0  0  0  0  0  0  0  0  0  0  0
  -30.6133  -29.0108   19.7068 C   0  0  0  0  0  0  0  0  0  0  0  0
  -21.2883  -22.5561   23.4896 C   0  0  0  0  0  0  0  0  0  0  0  0
  -28.7279  -18.6850   20.7239 C   0  0  0  0  0  0  0  0  0  0  0  0
  -26.5509  -24.8597   18.3473 C   0  0  0  0  0  0  0  0  0  0  0  0
  -27.3917  -26.6626   20.5353 C   0  0  0  0  0  0  0  0  0  0  0  0
  -29.3128  -20.0257   21.1604 C   0  0  0  0  0  0  0  0  0  0  0  0
  -20.7893  -20.7429   20.3976 C   0  0  0  0  0  0  0  0  0  0  0  0
  -28.2604  -20.8555   21.8888 C   0  0  0  0  0  0  0  0  0  0  0  0
  -21.2081  -19.3286   20.8033 C   0  0  0  0  0  0  0  0  0  0  0  0
  -21.6696  -21.7938   21.0676 C   0  0  0  0  0  0  0  0  0  0  0  0
  -22.1360  -20.2878   22.9618 C   0  0  0  0  0  0  0  0  0  0  0  0
  -27.0724  -21.1685   20.9711 C   0  0  1  0  0  0  0  0  0  0  0  0
  -27.7085  -24.5089   19.2769 C   0  0  1  0  0  0  0  0  0  0  0  0
  -21.2695  -19.1802   22.3351 C   0  0  2  0  0  0  0  0  0  0  0  0
  -21.8879  -29.8497   23.9616 C   0  0  0  0  0  0  0  0  0  0  0  0
  -32.6409  -30.4770   19.5145 C   0  0  0  0  0  0  0  0  0  0  0  0
  -30.1874  -25.4506   23.0622 C   0  0  0  0  0  0  0  0  0  0  0  0
  -31.5205  -27.5682   22.9794 C   0  0  0  0  0  0  0  0  0  0  0  0
  -32.2617  -25.5778   21.6710 C   0  0  0  0  0  0  0  0  0  0  0  0
  -29.8106  -29.9668   17.0234 C   0  0  0  0  0  0  0  0  0  0  0  0
  -15.6330  -31.4038   24.1247 C   0  0  0  0  0  0  0  0  0  0  0  0
  -17.9889  -32.1791   24.3475 C   0  0  0  0  0  0  0  0  0  0  0  0
  -19.2162  -29.6392   20.9916 C   0  0  0  0  0  0  0  0  0  0  0  0
  -20.4369  -24.8567   23.8629 C   0  0  0  0  0  0  0  0  0  0  0  0
  -18.6751  -30.7865   21.8683 C   0  0  0  0  0  0  0  0  0  0  0  0
  -17.3984  -30.4659   22.6395 C   0  0  0  0  0  0  0  0  0  0  0  0
  -23.0599  -28.9211   21.9305 C   0  0  0  0  0  0  0  0  0  1  0  0
  -21.7106  -29.3440   22.5272 C   0  0  1  0  0  0  0  0  0  0  0  0
  -30.2297  -26.8752   20.9094 C   0  0  1  0  0  0  0  0  0  0  0  0
  -31.5868  -29.6848   18.7567 C   0  0  2  0  0  0  0  0  0  0  0  0
  -31.0228  -26.3675   22.1466 C   0  0  0  0  0  0  0  0  0  0  0  0
  -22.6115  -17.1443   21.9656 N   0  0  0  0  0  0  0  0  0  0  0  0
  -20.9979  -27.1030   23.1542 N   0  0  0  0  0  0  0  0  0  0  0  0
  -21.7338  -17.7957   22.7476 N   0  0  0  0  0  0  0  0  0  0  0  0
  -28.3016  -25.6880   19.9109 N   0  0  0  0  0  0  0  0  0  0  0  0
  -21.6699  -21.6083   22.5256 N   0  0  0  0  0  0  0  0  0  0  0  0
  -20.4844  -17.6042   24.7508 N   0  0  0  0  0  0  0  0  0  0  0  0
  -22.7254  -13.6888   24.5423 N   0  0  0  0  0  0  0  0  0  0  0  0
  -27.4094  -22.2365   20.0545 N   0  0  0  0  0  0  0  0  0  0  0  0
  -31.0042  -27.7238   20.0103 N   0  0  0  0  0  0  0  0  0  0  0  0
  -20.8661  -23.7836   22.9939 N   0  0  0  0  0  0  0  0  0  0  0  0
  -30.8618  -30.6169   17.8476 N   0  3  0  0  0  0  0  0  0  0  0  0
  -16.9368  -31.6484   23.4033 N   0  3  0  0  0  0  0  0  0  0  0  0
  -21.2205  -14.9098   25.7683 O   0  0  0  0  0  0  0  0  0  0  0  0
  -26.9231  -24.0342   21.4525 O   0  0  0  0  0  0  0  0  0  0  0  0
  -30.4824  -24.9435   19.5562 O   0  0  0  0  0  0  0  0  0  0  0  0
  -29.6088  -29.5714   20.1396 O   0  0  0  0  0  0  0  0  0  0  0  0
  -21.3164  -22.3238   24.7030 O   0  0  0  0  0  0  0  0  0  0  0  0
  -26.2695  -12.1319   20.5360 O   0  0  0  0  0  0  0  0  0  0  0  0
  -22.8873  -28.5725   20.5575 O   0  0  0  0  0  0  0  0  0  1  0  0
  -31.1699  -13.8362   18.6690 F   0  0  0  0  0  0  0  0  0  0  0  0
  -28.6178  -11.1759   21.6379 F   0  0  0  0  0  0  0  0  0  0  0  0
  1  2  1  0  0  0  0
  1  5  2  0  0  0  0
  2  6  2  0  0  0  0
  3  9  2  0  0  0  0
  3 17  1  0  0  0  0
  4 10  1  0  0  0  0
  4 17  2  0  0  0  0
  5 19  1  0  0  0  0
  6 21  1  0  0  0  0
  7 11  2  0  0  0  0
  7 20  1  0  0  0  0
  8 14  2  0  0  0  0
  8 23  1  0  0  0  0
  9 24  1  0  0  0  0
 10 24  2  0  0  0  0
 11 25  1  0  0  0  0
 12 13  2  0  0  0  0
 12 26  1  0  0  0  0
 13 27  1  0  0  0  0
 14 30  1  0  0  0  0
 15 22  1  0  0  0  0
 15 25  2  0  0  0  0
 16 27  2  0  0  0  0
 16 28  1  0  0  0  0
 17 29  1  0  0  0  0
 18 29  1  0  0  0  0
 18 32  2  0  0  0  0
 18 33  1  0  0  0  0
 19 21  2  0  0  0  0
 19 38  1  0  0  0  0
 20 22  2  0  0  0  0
 20 39  1  0  0  0  0
 21 47  1  0  0  0  0
 22 40  1  0  0  0  0
 23 31  2  0  0  0  0
 23 58  1  0  0  0  0
 24 84  1  0  0  0  0
 25 85  1  0  0  0  0
 26 28  2  0  0  0  0
 26 84  1  0  0  0  0
 27 86  1  0  0  0  0
 28 87  1  0  0  0  0
 29 67  2  0  0  0  0
 30 59  1  0  0  0  0
 30 68  2  0  0  0  0
 31 63  1  0  0  0  0
 31 68  1  0  0  0  0
 32 69  1  0  0  0  0
 32 72  1  0  0  0  0
 33 73  1  0  0  0  0
 33 79  2  0  0  0  0
 34 48  1  0  0  0  0
 34 74  1  0  0  0  0
 34 80  2  0  0  0  0
 35 64  1  0  0  0  0
 35 70  1  0  0  0  0
 35 81  2  0  0  0  0
 36 65  1  0  0  0  0
 36 75  1  0  0  0  0
 36 82  2  0  0  0  0
 37 71  1  0  0  0  0
 37 76  1  0  0  0  0
 37 83  2  0  0  0  0
 38 41  1  0  0  0  0
 39 48  1  0  0  0  0
 40 70  1  0  0  0  0
 41 43  1  0  0  0  0
 42 44  1  0  0  0  0
 42 45  1  0  0  0  0
 43 47  1  0  0  0  0
 44 49  1  0  0  0  0
 45 71  1  0  0  0  0
 46 49  1  0  0  0  0
 46 71  1  0  0  0  0
 47 74  1  0  0  0  0
 48 70  1  0  0  0  0
 49 69  1  0  0  0  0
 50 63  1  0  0  0  0
 51 65  1  0  0  0  0
 52 66  1  0  0  0  0
 53 66  1  0  0  0  0
 54 66  1  0  0  0  0
 55 77  1  0  0  0  0
 56 78  1  0  0  0  0
 57 78  1  0  0  0  0
 58 60  1  0  0  0  0
 59 76  1  0  0  0  0
 60 61  1  0  0  0  0
 61 78  1  0  0  0  0
 62 63  1  0  0  0  0
 62 85  1  0  0  0  0
 64 66  1  0  0  0  0
 64 75  1  0  0  0  0
 65 77  1  0  0  0  0
 67 69  1  0  0  0  0
M  CHG  2  77   1  78   1
M  ISO  4  37 100  62 101  76 100  85 101
M  END
> <Batch ID>
0099

> <Smiles>
CNC(C)C(=O)NC(C(=O)N1Cc2cc([101O:1][101CH2:1]C(C)c3nc(C[100NH:0][100C:0](=O)N4CCCC(n5nc(-c6ccc(Oc7ccc(F)cc7F)cc6)c(C(N)=O)c5N)C4)ccc3CCCN(C)C)ccc2CC1C(=O)NC1CCCc2ccccc21)C(C)(C)C

> <Shape>
0.226

> <Color>
0.056

> <Negative vol penalty>
0.000

$$$$

  -OEChem-04052319313D

 84 92  0     1  0  0  0  0  0999 V2000
  -29.6058  -33.7415   23.6368 C   0  0  0  0  0  0  0  0  0  0  0  0
  -29.8934  -32.4241   23.2948 C   0  0  0  0  0  0  0  0  0  0  0  0
  -27.0800  -14.0127   22.2794 C   0  0  0  0  0  0  0  0  0  0  0  0
  -26.9735  -13.0431   20.0691 C   0  0  0  0  0  0  0  0  0  0  0  0
  -28.3186  -34.0897   24.0440 C   0  0  0  0  0  0  0  0  0  0  0  0
  -28.8942  -31.4537   23.3610 C   0  0  0  0  0  0  0  0  0  0  0  0
  -28.8471  -28.4334   19.2964 C   0  0  0  0  0  0  0  0  0  0  0  0
  -26.4424  -12.8883   22.8034 C   0  0  0  0  0  0  0  0  0  0  0  0
  -26.3359  -11.9186   20.5931 C   0  0  0  0  0  0  0  0  0  0  0  0
  -29.8105  -27.4272   19.2397 C   0  0  0  0  0  0  0  0  0  0  0  0
  -23.2256  -11.0642   21.6066 C   0  0  0  0  0  0  0  0  0  0  0  0
  -22.1140  -10.5720   20.9228 C   0  0  0  0  0  0  0  0  0  0  0  0
  -28.1717  -25.8242   19.9908 C   0  0  0  0  0  0  0  0  0  0  0  0
  -23.2426   -8.4589   20.6091 C   0  0  0  0  0  0  0  0  0  0  0  0
  -32.7722  -20.1173   17.8056 C   0  0  0  0  0  0  0  0  0  0  0  0
  -27.3455  -14.0901   20.9122 C   0  0  0  0  0  0  0  0  0  0  0  0
  -29.3890  -15.4495   20.2164 C   0  0  0  0  0  0  0  0  0  0  0  0
  -27.3007  -33.1250   24.1059 C   0  0  0  0  0  0  0  0  0  0  0  0
  -27.5394  -28.1442   19.7119 C   0  0  0  0  0  0  0  0  0  0  0  0
  -27.5925  -31.7891   23.7707 C   0  0  0  0  0  0  0  0  0  0  0  0
  -27.1929  -26.8281   20.0495 C   0  0  0  0  0  0  0  0  0  0  0  0
  -26.0703  -11.8412   21.9603 C   0  0  0  0  0  0  0  0  0  0  0  0
  -29.4736  -26.1229   19.5897 C   0  0  0  0  0  0  0  0  0  0  0  0
  -24.3458  -10.2538   21.7916 C   0  0  0  0  0  0  0  0  0  0  0  0
  -22.1225   -9.2693   20.4241 C   0  0  0  0  0  0  0  0  0  0  0  0
  -24.3543   -8.9512   21.2929 C   0  0  0  0  0  0  0  0  0  0  0  0
  -28.0037  -15.2517   20.3701 C   0  0  0  0  0  0  0  0  0  0  0  0
  -31.7317  -20.8929   17.3781 C   0  0  0  0  0  0  0  0  0  0  0  0
  -29.4975  -16.7011   19.6611 C   0  0  0  0  0  0  0  0  0  0  0  0
  -32.8297  -20.1788   15.5935 C   0  0  0  0  0  0  0  0  0  0  0  0
  -30.4801  -14.5797   20.5458 C   0  0  0  0  0  0  0  0  0  0  0  0
  -25.6932  -29.0810   22.1239 C   0  0  0  0  0  0  0  0  0  0  0  0
  -23.4387  -27.3528   20.5578 C   0  0  0  0  0  0  0  0  0  0  0  0
  -22.7208  -24.8332   18.3708 C   0  0  0  0  0  0  0  0  0  0  0  0
  -27.8473  -20.5473   15.9694 C   0  0  0  0  0  0  0  0  0  0  0  0
  -25.9364  -33.5398   24.5973 C   0  0  0  0  0  0  0  0  0  0  0  0
  -26.5050  -29.2358   19.7421 C   0  0  0  0  0  0  0  0  0  0  0  0
  -25.7978  -26.4615   20.4826 C   0  0  0  0  0  0  0  0  0  0  0  0
  -24.8407  -32.5251   24.2810 C   0  0  0  0  0  0  0  0  0  0  0  0
  -26.0341  -20.3327   19.0261 C   0  0  0  0  0  0  0  0  0  0  0  0
  -25.3018  -31.1143   24.6328 C   0  0  0  0  0  0  0  0  0  0  0  0
  -26.4944  -19.0056   19.6320 C   0  0  0  0  0  0  0  0  0  0  0  0
  -25.9261  -20.2512   17.5050 C   0  0  0  0  0  0  0  0  0  0  0  0
  -27.6038  -18.4475   17.4282 C   0  0  0  0  0  0  0  0  0  0  0  0
  -26.5292  -30.7128   23.8059 C   0  0  1  0  0  0  0  0  0  0  0  0
  -25.3364  -28.9260   20.6726 C   0  0  1  0  0  0  0  0  0  0  0  0
  -27.7815  -18.4968   18.9554 C   0  0  2  0  0  0  0  0  0  0  0  0
  -33.1810  -18.4483   13.7948 C   0  0  0  0  0  0  0  0  0  0  0  0
  -34.6620  -20.4861   13.8899 C   0  0  0  0  0  0  0  0  0  0  0  0
  -20.7865  -23.6297   17.3183 C   0  0  0  0  0  0  0  0  0  0  0  0
  -22.9554  -25.8506   23.1693 C   0  0  0  0  0  0  0  0  0  0  0  0
  -21.7557  -24.0905   21.8537 C   0  0  0  0  0  0  0  0  0  0  0  0
  -20.8804  -26.4260   21.8974 C   0  0  0  0  0  0  0  0  0  0  0  0
  -23.5568  -25.6312   15.6463 C   0  0  0  0  0  0  0  0  0  0  0  0
  -30.6723  -21.6257   18.1618 C   0  0  0  0  0  0  0  0  0  0  0  0
  -31.0623  -23.0575   18.5354 C   0  0  0  0  0  0  0  0  0  0  0  0
  -30.8755  -21.6212   15.1305 C   0  0  0  0  0  0  0  0  0  0  0  0
  -29.8346  -20.7056   14.4914 C   0  0  0  0  0  0  0  0  0  0  0  0
  -29.9527  -23.8180   19.2522 C   0  0  0  0  0  0  0  0  0  1  0  0
  -33.2511  -19.9382   14.1910 C   0  0  0  0  0  0  0  0  0  0  0  0
  -22.9820  -25.9142   20.5883 C   0  0  1  0  0  0  0  0  0  0  0  0
  -21.7825  -24.7706   17.1791 C   0  0  2  0  0  0  0  0  0  0  0  0
  -22.1702  -25.5773   21.8709 C   0  0  0  0  0  0  0  0  0  0  0  0
  -27.2838  -16.2941   19.9470 N   0  0  0  0  0  0  0  0  0  0  0  0
  -31.7918  -20.9140   16.0055 N   0  0  0  0  0  0  0  0  0  0  0  0
  -28.2204  -17.1591   19.5219 N   0  0  0  0  0  0  0  0  0  0  0  0
  -33.4343  -19.6886   16.6805 N   0  3  0  0  0  0  0  0  0  0  0  0
  -24.8234  -27.5651   20.5020 N   0  0  0  0  0  0  0  0  0  0  0  0
  -27.1799  -19.7637   16.9252 N   0  0  0  0  0  0  0  0  0  0  0  0
  -30.5598  -17.4436   19.2834 N   0  0  0  0  0  0  0  0  0  0  0  0
  -30.1911  -13.3293   21.1091 N   0  0  0  0  0  0  0  0  0  0  0  0
  -26.1355  -30.3456   22.4626 N   0  0  0  0  0  0  0  0  0  0  0  0
  -22.2535  -25.6907   19.3442 N   0  0  0  0  0  0  0  0  0  0  0  0
  -29.0317  -20.0145   15.4755 N   0  0  0  0  0  0  0  0  0  0  0  0
  -22.5556  -24.5687   15.9211 N   0  3  0  0  0  0  0  0  0  0  0  0
  -31.6766  -14.9084   20.3618 O   0  0  0  0  0  0  0  0  0  0  0  0
  -25.5745  -28.1246   22.8808 O   0  0  0  0  0  0  0  0  0  0  0  0
  -22.5974  -28.2549   20.5753 O   0  0  0  0  0  0  0  0  0  0  0  0
  -23.7621  -24.1833   18.4336 O   0  0  0  0  0  0  0  0  0  0  0  0
  -27.4220  -21.6433   15.5887 O   0  0  0  0  0  0  0  0  0  0  0  0
  -25.4483  -10.7437   22.4714 O   0  0  0  0  0  0  0  0  0  0  0  0
  -30.4121  -25.1390   19.5358 O   0  0  0  0  0  0  0  0  0  1  0  0
  -21.0543   -8.7963   19.7688 F   0  0  0  0  0  0  0  0  0  0  0  0
  -25.4270   -8.1675   21.4686 F   0  0  0  0  0  0  0  0  0  0  0  0
  1  2  1  0  0  0  0
  1  5  2  0  0  0  0
  2  6  2  0  0  0  0
  3  8  2  0  0  0  0
  3 16  1  0  0  0  0
  4  9  1  0  0  0  0
  4 16  2  0  0  0  0
  5 18  1  0  0  0  0
  6 20  1  0  0  0  0
  7 10  2  0  0  0  0
  7 19  1  0  0  0  0
  8 22  1  0  0  0  0
  9 22  2  0  0  0  0
 10 23  1  0  0  0  0
 11 12  2  0  0  0  0
 11 24  1  0  0  0  0
 12 25  1  0  0  0  0
 13 21  1  0  0  0  0
 13 23  2  0  0  0  0
 14 25  2  0  0  0  0
 14 26  1  0  0  0  0
 15 28  2  0  0  0  0
 15 67  1  0  0  0  0
 16 27  1  0  0  0  0
 17 27  1  0  0  0  0
 17 29  2  0  0  0  0
 17 31  1  0  0  0  0
 18 20  2  0  0  0  0
 18 36  1  0  0  0  0
 19 21  2  0  0  0  0
 19 37  1  0  0  0  0
 20 45  1  0  0  0  0
 21 38  1  0  0  0  0
 22 81  1  0  0  0  0
 23 82  1  0  0  0  0
 24 26  2  0  0  0  0
 24 81  1  0  0  0  0
 25 83  1  0  0  0  0
 26 84  1  0  0  0  0
 27 64  2  0  0  0  0
 28 55  1  0  0  0  0
 28 65  1  0  0  0  0
 29 66  1  0  0  0  0
 29 70  1  0  0  0  0
 30 60  1  0  0  0  0
 30 65  1  0  0  0  0
 30 67  2  0  0  0  0
 31 71  1  0  0  0  0
 31 76  2  0  0  0  0
 32 46  1  0  0  0  0
 32 72  1  0  0  0  0
 32 77  2  0  0  0  0
 33 61  1  0  0  0  0
 33 68  1  0  0  0  0
 33 78  2  0  0  0  0
 34 62  1  0  0  0  0
 34 73  1  0  0  0  0
 34 79  2  0  0  0  0
 35 69  1  0  0  0  0
 35 74  1  0  0  0  0
 35 80  2  0  0  0  0
 36 39  1  0  0  0  0
 37 46  1  0  0  0  0
 38 68  1  0  0  0  0
 39 41  1  0  0  0  0
 40 42  1  0  0  0  0
 40 43  1  0  0  0  0
 41 45  1  0  0  0  0
 42 47  1  0  0  0  0
 43 69  1  0  0  0  0
 44 47  1  0  0  0  0
 44 69  1  0  0  0  0
 45 72  1  0  0  0  0
 46 68  1  0  0  0  0
 47 66  1  0  0  0  0
 48 60  1  0  0  0  0
 49 60  1  0  0  0  0
 50 62  1  0  0  0  0
 51 63  1  0  0  0  0
 52 63  1  0  0  0  0
 53 63  1  0  0  0  0
 54 75  1  0  0  0  0
 55 56  1  0  0  0  0
 56 59  1  0  0  0  0
 57 58  1  0  0  0  0
 57 65  1  0  0  0  0
 58 74  1  0  0  0  0
 59 82  1  0  0  0  0
 61 63  1  0  0  0  0
 61 73  1  0  0  0  0
 62 75  1  0  0  0  0
 64 66  1  0  0  0  0
M  CHG  2  67   1  75   1
M  ISO  4  35 100  59 101  74 100  82 101
M  END
> <Batch ID>
0099

> <Smiles>
CNC(C)C(=O)NC(C(=O)N1Cc2cc([101O:1][101CH2:1]CCc3cnc(C(C)C)n3CC[100NH:0][100C:0](=O)N3CCCC(n4nc(-c5ccc(Oc6ccc(F)cc6F)cc5)c(C(N)=O)c4N)C3)ccc2CC1C(=O)NC1CCCc2ccccc21)C(C)(C)C

> <Shape>
0.231

> <Color>
0.074

> <Negative vol penalty>
0.000

$$$$

  -OEChem-04052319313D

 84 92  0     1  0  0  0  0  0999 V2000
  -17.3543  -26.6920   19.6656 C   0  0  0  0  0  0  0  0  0  0  0  0
  -18.6721  -26.6846   19.2198 C   0  0  0  0  0  0  0  0  0  0  0  0
  -26.2549  -13.8878   21.8625 C   0  0  0  0  0  0  0  0  0  0  0  0
  -24.7875  -15.2407   20.5010 C   0  0  0  0  0  0  0  0  0  0  0  0
  -17.0573  -27.1403   20.9520 C   0  0  0  0  0  0  0  0  0  0  0  0
  -19.6936  -27.1266   20.0598 C   0  0  0  0  0  0  0  0  0  0  0  0
  -25.4122  -24.9555   20.3593 C   0  0  0  0  0  0  0  0  0  0  0  0
  -30.9373  -24.0476   17.4640 C   0  0  0  0  0  0  0  0  0  0  0  0
  -25.2425  -12.9401   22.0120 C   0  0  0  0  0  0  0  0  0  0  0  0
  -23.7750  -14.2929   20.6505 C   0  0  0  0  0  0  0  0  0  0  0  0
  -26.6134  -25.3974   19.8065 C   0  0  0  0  0  0  0  0  0  0  0  0
  -23.1622   -9.9918   22.4535 C   0  0  0  0  0  0  0  0  0  0  0  0
  -23.5041   -8.6481   22.3013 C   0  0  0  0  0  0  0  0  0  0  0  0
  -31.4366  -25.2053   18.0503 C   0  0  0  0  0  0  0  0  0  0  0  0
  -27.1336  -26.5408   21.8659 C   0  0  0  0  0  0  0  0  0  0  0  0
  -24.2292   -9.0888   20.0392 C   0  0  0  0  0  0  0  0  0  0  0  0
  -26.0274  -15.0382   21.1070 C   0  0  0  0  0  0  0  0  0  0  0  0
  -28.0520  -16.0640   19.9426 C   0  0  0  0  0  0  0  0  0  0  0  0
  -18.0767  -27.5789   21.8116 C   0  0  0  0  0  0  0  0  0  0  0  0
  -25.0570  -25.3126   21.6680 C   0  0  0  0  0  0  0  0  0  0  0  0
  -19.4098  -27.5825   21.3584 C   0  0  0  0  0  0  0  0  0  0  0  0
  -25.9286  -26.1000   22.4339 C   0  0  0  0  0  0  0  0  0  0  0  0
  -30.2666  -23.1130   18.2450 C   0  0  0  0  0  0  0  0  0  0  0  0
  -24.0025  -13.1426   21.4060 C   0  0  0  0  0  0  0  0  0  0  0  0
  -27.4730  -26.1925   20.5588 C   0  0  0  0  0  0  0  0  0  0  0  0
  -23.3537  -10.8840   21.3985 C   0  0  0  0  0  0  0  0  0  0  0  0
  -24.0377   -8.1966   21.0942 C   0  0  0  0  0  0  0  0  0  0  0  0
  -23.8873  -10.4325   20.1914 C   0  0  0  0  0  0  0  0  0  0  0  0
  -27.0726  -16.0178   20.9527 C   0  0  0  0  0  0  0  0  0  0  0  0
  -31.2405  -25.3797   19.4108 C   0  0  0  0  0  0  0  0  0  0  0  0
  -30.1230  -23.3810   19.5968 C   0  0  0  0  0  0  0  0  0  0  0  0
  -28.8002  -17.1767   20.2404 C   0  0  0  0  0  0  0  0  0  0  0  0
  -28.2663  -15.1802   18.8341 C   0  0  0  0  0  0  0  0  0  0  0  0
  -22.6734  -26.9598   22.9752 C   0  0  0  0  0  0  0  0  0  0  0  0
  -24.0287  -25.9692   25.7508 C   0  0  0  0  0  0  0  0  0  0  0  0
  -26.8197  -24.8802   27.3852 C   0  0  0  0  0  0  0  0  0  0  0  0
  -29.1926  -22.5155   21.7720 C   0  0  0  0  0  0  0  0  0  0  0  0
  -17.7016  -28.0990   23.1767 C   0  0  0  0  0  0  0  0  0  0  0  0
  -23.7701  -24.8057   22.2590 C   0  0  0  0  0  0  0  0  0  0  0  0
  -25.6032  -26.4944   23.8506 C   0  0  0  0  0  0  0  0  0  0  0  0
  -18.8842  -28.1987   24.1367 C   0  0  0  0  0  0  0  0  0  0  0  0
  -28.8499  -20.1044   24.3693 C   0  0  0  0  0  0  0  0  0  0  0  0
  -20.0753  -28.8590   23.4497 C   0  0  0  0  0  0  0  0  0  0  0  0
  -28.4375  -18.8301   23.6289 C   0  0  0  0  0  0  0  0  0  0  0  0
  -28.2269  -21.3508   23.7432 C   0  0  0  0  0  0  0  0  0  0  0  0
  -28.0408  -20.2256   21.5596 C   0  0  0  0  0  0  0  0  0  0  0  0
  -20.5483  -28.0309   22.2488 C   0  0  1  0  0  0  0  0  0  0  0  0
  -23.2714  -25.6562   23.4232 C   0  0  1  0  0  0  0  0  0  0  0  0
  -28.6956  -18.9499   22.1141 C   0  0  2  0  0  0  0  0  0  0  0  0
  -30.8443  -20.9938   17.0086 C   0  0  0  0  0  0  0  0  0  0  0  0
  -28.6635  -22.1698   16.5437 C   0  0  0  0  0  0  0  0  0  0  0  0
  -28.2130  -23.9806   29.2685 C   0  0  0  0  0  0  0  0  0  0  0  0
  -31.4328  -29.0284   20.7296 C   0  0  0  0  0  0  0  0  0  0  0  0
  -24.0980  -28.8946   26.6154 C   0  0  0  0  0  0  0  0  0  0  0  0
  -25.7303  -28.2553   28.4029 C   0  0  0  0  0  0  0  0  0  0  0  0
  -23.4298  -27.2907   28.4141 C   0  0  0  0  0  0  0  0  0  0  0  0
  -26.2387  -22.0781   26.6305 C   0  0  0  0  0  0  0  0  0  0  0  0
  -31.7690  -26.6248   20.0808 C   0  0  0  0  0  0  0  0  0  0  0  0
  -29.4788  -27.4371   20.8485 C   0  0  0  0  0  0  0  0  0  1  0  0
  -29.7326  -21.8730   17.6125 C   0  0  0  0  0  0  0  0  0  0  0  0
  -25.0917  -26.5124   26.6751 C   0  0  1  0  0  0  0  0  0  0  0  0
  -27.0411  -23.7174   28.3357 C   0  0  2  0  0  0  0  0  0  0  0  0
  -30.7688  -27.7980   20.0984 C   0  0  1  0  0  0  0  0  0  0  0  0
  -24.5930  -27.7326   27.4995 C   0  0  0  0  0  0  0  0  0  0  0  0
  -27.1858  -17.0213   21.8270 N   0  0  0  0  0  0  0  0  0  0  0  0
  -30.5943  -24.4943   20.2020 N   0  0  0  0  0  0  0  0  0  0  0  0
  -28.2453  -17.7084   21.3671 N   0  0  0  0  0  0  0  0  0  0  0  0
  -24.3303  -25.9792   24.3816 N   0  0  0  0  0  0  0  0  0  0  0  0
  -28.5163  -21.3995   22.3084 N   0  0  0  0  0  0  0  0  0  0  0  0
  -29.8721  -17.7423   19.6458 N   0  0  0  0  0  0  0  0  0  0  0  0
  -27.4052  -14.0858   18.6761 N   0  0  0  0  0  0  0  0  0  0  0  0
  -29.4413  -22.4354   20.4022 N   0  0  0  0  0  0  0  0  0  0  0  0
  -21.3222  -26.8918   22.6938 N   0  0  0  0  0  0  0  0  0  0  0  0
  -25.5411  -25.3864   27.4866 N   0  0  0  0  0  0  0  0  0  0  0  0
  -27.3203  -22.4692   27.5709 N   0  3  0  0  0  0  0  0  0  0  0  0
  -29.2040  -15.3465   18.0177 O   0  0  0  0  0  0  0  0  0  0  0  0
  -23.3849  -27.9541   22.8924 O   0  0  0  0  0  0  0  0  0  0  0  0
  -22.9728  -25.5450   26.2268 O   0  0  0  0  0  0  0  0  0  0  0  0
  -27.6947  -25.3001   26.6312 O   0  0  0  0  0  0  0  0  0  0  0  0
  -29.5507  -23.4596   22.4808 O   0  0  0  0  0  0  0  0  0  0  0  0
  -23.0145  -12.2179   21.5514 O   0  0  0  0  0  0  0  0  0  0  0  0
  -28.6458  -26.6257   20.0214 O   0  0  0  0  0  0  0  0  0  1  0  0
  -24.3674   -6.9065   20.9487 F   0  0  0  0  0  0  0  0  0  0  0  0
  -24.0747  -11.2852   19.1747 F   0  0  0  0  0  0  0  0  0  0  0  0
  1  2  1  0  0  0  0
  1  5  2  0  0  0  0
  2  6  2  0  0  0  0
  3  9  2  0  0  0  0
  3 17  1  0  0  0  0
  4 10  1  0  0  0  0
  4 17  2  0  0  0  0
  5 19  1  0  0  0  0
  6 21  1  0  0  0  0
  7 11  2  0  0  0  0
  7 20  1  0  0  0  0
  8 14  2  0  0  0  0
  8 23  1  0  0  0  0
  9 24  1  0  0  0  0
 10 24  2  0  0  0  0
 11 25  1  0  0  0  0
 12 13  2  0  0  0  0
 12 26  1  0  0  0  0
 13 27  1  0  0  0  0
 14 30  1  0  0  0  0
 15 22  1  0  0  0  0
 15 25  2  0  0  0  0
 16 27  2  0  0  0  0
 16 28  1  0  0  0  0
 17 29  1  0  0  0  0
 18 29  1  0  0  0  0
 18 32  2  0  0  0  0
 18 33  1  0  0  0  0
 19 21  2  0  0  0  0
 19 38  1  0  0  0  0
 20 22  2  0  0  0  0
 20 39  1  0  0  0  0
 21 47  1  0  0  0  0
 22 40  1  0  0  0  0
 23 31  2  0  0  0  0
 23 60  1  0  0  0  0
 24 81  1  0  0  0  0
 25 82  1  0  0  0  0
 26 28  2  0  0  0  0
 26 81  1  0  0  0  0
 27 83  1  0  0  0  0
 28 84  1  0  0  0  0
 29 65  2  0  0  0  0
 30 58  1  0  0  0  0
 30 66  2  0  0  0  0
 31 66  1  0  0  0  0
 31 72  1  0  0  0  0
 32 67  1  0  0  0  0
 32 70  1  0  0  0  0
 33 71  1  0  0  0  0
 33 76  2  0  0  0  0
 34 48  1  0  0  0  0
 34 73  1  0  0  0  0
 34 77  2  0  0  0  0
 35 61  1  0  0  0  0
 35 68  1  0  0  0  0
 35 78  2  0  0  0  0
 36 62  1  0  0  0  0
 36 74  1  0  0  0  0
 36 79  2  0  0  0  0
 37 69  1  0  0  0  0
 37 72  1  0  0  0  0
 37 80  2  0  0  0  0
 38 41  1  0  0  0  0
 39 48  1  0  0  0  0
 40 68  1  0  0  0  0
 41 43  1  0  0  0  0
 42 44  1  0  0  0  0
 42 45  1  0  0  0  0
 43 47  1  0  0  0  0
 44 49  1  0  0  0  0
 45 69  1  0  0  0  0
 46 49  1  0  0  0  0
 46 69  1  0  0  0  0
 47 73  1  0  0  0  0
 48 68  1  0  0  0  0
 49 67  1  0  0  0  0
 50 60  1  0  0  0  0
 51 60  1  0  0  0  0
 52 62  1  0  0  0  0
 53 63  1  0  0  0  0
 54 64  1  0  0  0  0
 55 64  1  0  0  0  0
 56 64  1  0  0  0  0
 57 75  1  0  0  0  0
 58 63  1  0  0  0  0
 59 63  1  0  0  0  0
 59 82  1  0  0  0  0
 61 64  1  0  0  0  0
 61 74  1  0  0  0  0
 62 75  1  0  0  0  0
 65 67  1  0  0  0  0
M  CHG  1  75   1
M  ISO  4  37 100  59 101  72 100  82 101
M  END
> <Batch ID>
0099

> <Smiles>
CNC(C)C(=O)NC(C(=O)N1Cc2cc([101O:1][101CH2:1]C(C)Cc3ccc(C(C)C)c([100NH:0][100C:0](=O)N4CCCC(n5nc(-c6ccc(Oc7ccc(F)cc7F)cc6)c(C(N)=O)c5N)C4)n3)ccc2CC1C(=O)NC1CCCc2ccccc21)C(C)(C)C

> <Shape>
0.228

> <Color>
0.073

> <Negative vol penalty>
0.000

$$$$

  -OEChem-04052319313D

 84 92  0     1  0  0  0  0  0999 V2000
  -17.6376  -28.1402   22.6360 C   0  0  0  0  0  0  0  0  0  0  0  0
  -18.0397  -27.1632   21.7309 C   0  0  0  0  0  0  0  0  0  0  0  0
  -29.6003  -23.4693   18.7200 C   0  0  0  0  0  0  0  0  0  0  0  0
  -27.8771  -23.3189   20.4067 C   0  0  0  0  0  0  0  0  0  0  0  0
  -18.5472  -28.6462   23.5636 C   0  0  0  0  0  0  0  0  0  0  0  0
  -19.3520  -26.6925   21.7521 C   0  0  0  0  0  0  0  0  0  0  0  0
  -21.2383  -20.9920   20.5468 C   0  0  0  0  0  0  0  0  0  0  0  0
  -28.9955  -24.6155   18.2043 C   0  0  0  0  0  0  0  0  0  0  0  0
  -27.2724  -24.4652   19.8910 C   0  0  0  0  0  0  0  0  0  0  0  0
  -21.7759  -20.4041   19.4026 C   0  0  0  0  0  0  0  0  0  0  0  0
  -25.4750  -27.5582   19.2423 C   0  0  0  0  0  0  0  0  0  0  0  0
  -25.0505  -28.5314   20.1470 C   0  0  0  0  0  0  0  0  0  0  0  0
  -23.9981  -20.7613   20.2705 C   0  0  0  0  0  0  0  0  0  0  0  0
  -24.6110  -14.9563   18.7968 C   0  0  0  0  0  0  0  0  0  0  0  0
  -27.3189  -28.7839   20.9395 C   0  0  0  0  0  0  0  0  0  0  0  0
  -29.0411  -22.8209   19.8212 C   0  0  0  0  0  0  0  0  0  0  0  0
  -30.6515  -21.5729   21.3563 C   0  0  0  0  0  0  0  0  0  0  0  0
  -19.8687  -28.1744   23.6026 C   0  0  0  0  0  0  0  0  0  0  0  0
  -22.0783  -21.4797   21.5582 C   0  0  0  0  0  0  0  0  0  0  0  0
  -20.2806  -27.1936   22.6803 C   0  0  0  0  0  0  0  0  0  0  0  0
  -23.4686  -21.3527   21.4277 C   0  0  0  0  0  0  0  0  0  0  0  0
  -24.6122  -14.2851   20.0146 C   0  0  0  0  0  0  0  0  0  0  0  0
  -23.9102  -14.8119   21.0930 C   0  0  0  0  0  0  0  0  0  0  0  0
  -27.8316  -25.1135   18.7898 C   0  0  0  0  0  0  0  0  0  0  0  0
  -23.1561  -20.2913   19.2630 C   0  0  0  0  0  0  0  0  0  0  0  0
  -26.8214  -27.1979   19.1863 C   0  0  0  0  0  0  0  0  0  0  0  0
  -25.9725  -29.1442   20.9956 C   0  0  0  0  0  0  0  0  0  0  0  0
  -27.7433  -27.8108   20.0348 C   0  0  0  0  0  0  0  0  0  0  0  0
  -29.6650  -21.6365   20.3540 C   0  0  0  0  0  0  0  0  0  0  0  0
  -23.8980  -16.1411   18.7100 C   0  0  0  0  0  0  0  0  0  0  0  0
  -23.2287  -16.0033   20.9035 C   0  0  0  0  0  0  0  0  0  0  0  0
  -30.9085  -20.2314   21.5005 C   0  0  0  0  0  0  0  0  0  0  0  0
  -31.2792  -22.6318   22.0914 C   0  0  0  0  0  0  0  0  0  0  0  0
  -22.6186  -24.3369   22.8419 C   0  0  0  0  0  0  0  0  0  0  0  0
  -24.4728  -22.6350   24.8883 C   0  0  0  0  0  0  0  0  0  0  0  0
  -26.3037  -19.8158   25.4772 C   0  0  0  0  0  0  0  0  0  0  0  0
  -27.5923  -15.4577   20.4657 C   0  0  0  0  0  0  0  0  0  0  0  0
  -20.8288  -28.7855   24.5923 C   0  0  0  0  0  0  0  0  0  0  0  0
  -21.4820  -22.0870   22.7983 C   0  0  0  0  0  0  0  0  0  0  0  0
  -24.4132  -21.8420   22.4939 C   0  0  0  0  0  0  0  0  0  0  0  0
  -22.0995  -27.9642   24.7951 C   0  0  0  0  0  0  0  0  0  0  0  0
  -30.8540  -16.1231   19.0457 C   0  0  0  0  0  0  0  0  0  0  0  0
  -22.6759  -27.5320   23.4506 C   0  0  0  0  0  0  0  0  0  0  0  0
  -31.0064  -17.6199   19.3220 C   0  0  0  0  0  0  0  0  0  0  0  0
  -29.4140  -15.7716   18.6837 C   0  0  0  0  0  0  0  0  0  0  0  0
  -28.5546  -17.6880   19.9731 C   0  0  0  0  0  0  0  0  0  0  0  0
  -21.6889  -26.6397   22.6883 C   0  0  1  0  0  0  0  0  0  0  0  0
  -22.4459  -23.0138   23.5327 C   0  0  1  0  0  0  0  0  0  0  0  0
  -29.9836  -18.1039   20.3669 C   0  0  2  0  0  0  0  0  0  0  0  0
  -23.8916  -14.1127   22.4106 C   0  0  0  0  0  0  0  0  0  0  0  0
  -22.4554  -16.6175   22.0243 C   0  0  0  0  0  0  0  0  0  0  0  0
  -27.7341  -18.7257   27.2274 C   0  0  0  0  0  0  0  0  0  0  0  0
  -26.7583  -24.5359   24.2008 C   0  0  0  0  0  0  0  0  0  0  0  0
  -28.3460  -22.8758   25.1966 C   0  0  0  0  0  0  0  0  0  0  0  0
  -26.5944  -23.9345   26.6227 C   0  0  0  0  0  0  0  0  0  0  0  0
  -24.4851  -17.4898   25.6806 C   0  0  0  0  0  0  0  0  0  0  0  0
  -25.3743  -13.0073   20.1383 C   0  0  0  0  0  0  0  0  0  0  0  0
  -23.8730  -16.8956   17.4047 C   0  0  0  0  0  0  0  0  0  0  0  0
  -25.0016  -17.9191   17.2632 C   0  0  0  0  0  0  0  0  0  0  0  0
  -26.7238  -13.1650   20.8478 C   0  0  0  0  0  0  0  0  0  0  0  0
  -24.9313  -19.0416   18.2921 C   0  0  0  0  0  0  0  0  0  1  0  0
  -25.9183  -22.2004   24.9117 C   0  0  1  0  0  0  0  0  0  0  0  0
  -26.3309  -18.8605   26.6567 C   0  0  2  0  0  0  0  0  0  0  0  0
  -26.8868  -23.3791   25.2118 C   0  0  0  0  0  0  0  0  0  0  0  0
  -29.3191  -20.4313   19.8938 N   0  0  0  0  0  0  0  0  0  0  0  0
  -23.2043  -16.6839   19.7356 N   0  0  0  0  0  0  0  0  0  0  0  0
  -30.0924  -19.5977   20.6102 N   0  0  0  0  0  0  0  0  0  0  0  0
  -23.7819  -22.4340   23.6849 N   0  0  0  0  0  0  0  0  0  0  0  0
  -28.4931  -16.2432   19.7275 N   0  0  0  0  0  0  0  0  0  0  0  0
  -31.7507  -19.5438   22.3007 N   0  0  0  0  0  0  0  0  0  0  0  0
  -30.8976  -23.9524   21.8182 N   0  0  0  0  0  0  0  0  0  0  0  0
  -21.7019  -25.2965   23.2270 N   0  0  0  0  0  0  0  0  0  0  0  0
  -25.9989  -21.1023   25.8688 N   0  0  0  0  0  0  0  0  0  0  0  0
  -27.5915  -14.1006   20.1676 N   0  0  0  0  0  0  0  0  0  0  0  0
  -25.8613  -17.5091   26.2396 N   0  3  0  0  0  0  0  0  0  0  0  0
  -32.1646  -22.4144   22.9531 O   0  0  0  0  0  0  0  0  0  0  0  0
  -23.5179  -24.4773   22.0214 O   0  0  0  0  0  0  0  0  0  0  0  0
  -23.9730  -23.1279   25.9026 O   0  0  0  0  0  0  0  0  0  0  0  0
  -26.5336  -19.4574   24.3243 O   0  0  0  0  0  0  0  0  0  0  0  0
  -26.8472  -15.9302   21.3310 O   0  0  0  0  0  0  0  0  0  0  0  0
  -27.2413  -26.2322   18.2870 O   0  0  0  0  0  0  0  0  0  0  0  0
  -23.6834  -19.7185   18.1470 O   0  0  0  0  0  0  0  0  0  1  0  0
  -25.5650  -30.0798   21.8632 F   0  0  0  0  0  0  0  0  0  0  0  0
  -29.0382  -27.4696   19.9848 F   0  0  0  0  0  0  0  0  0  0  0  0
  1  2  1  0  0  0  0
  1  5  2  0  0  0  0
  2  6  2  0  0  0  0
  3  8  2  0  0  0  0
  3 16  1  0  0  0  0
  4  9  1  0  0  0  0
  4 16  2  0  0  0  0
  5 18  1  0  0  0  0
  6 20  1  0  0  0  0
  7 10  2  0  0  0  0
  7 19  1  0  0  0  0
  8 24  1  0  0  0  0
  9 24  2  0  0  0  0
 10 25  1  0  0  0  0
 11 12  2  0  0  0  0
 11 26  1  0  0  0  0
 12 27  1  0  0  0  0
 13 21  1  0  0  0  0
 13 25  2  0  0  0  0
 14 22  2  0  0  0  0
 14 30  1  0  0  0  0
 15 27  2  0  0  0  0
 15 28  1  0  0  0  0
 16 29  1  0  0  0  0
 17 29  1  0  0  0  0
 17 32  2  0  0  0  0
 17 33  1  0  0  0  0
 18 20  2  0  0  0  0
 18 38  1  0  0  0  0
 19 21  2  0  0  0  0
 19 39  1  0  0  0  0
 20 47  1  0  0  0  0
 21 40  1  0  0  0  0
 22 23  1  0  0  0  0
 22 57  1  0  0  0  0
 23 31  2  0  0  0  0
 23 50  1  0  0  0  0
 24 81  1  0  0  0  0
 25 82  1  0  0  0  0
 26 28  2  0  0  0  0
 26 81  1  0  0  0  0
 27 83  1  0  0  0  0
 28 84  1  0  0  0  0
 29 65  2  0  0  0  0
 30 58  1  0  0  0  0
 30 66  2  0  0  0  0
 31 51  1  0  0  0  0
 31 66  1  0  0  0  0
 32 67  1  0  0  0  0
 32 70  1  0  0  0  0
 33 71  1  0  0  0  0
 33 76  2  0  0  0  0
 34 48  1  0  0  0  0
 34 72  1  0  0  0  0
 34 77  2  0  0  0  0
 35 62  1  0  0  0  0
 35 68  1  0  0  0  0
 35 78  2  0  0  0  0
 36 63  1  0  0  0  0
 36 73  1  0  0  0  0
 36 79  2  0  0  0  0
 37 69  1  0  0  0  0
 37 74  1  0  0  0  0
 37 80  2  0  0  0  0
 38 41  1  0  0  0  0
 39 48  1  0  0  0  0
 40 68  1  0  0  0  0
 41 43  1  0  0  0  0
 42 44  1  0  0  0  0
 42 45  1  0  0  0  0
 43 47  1  0  0  0  0
 44 49  1  0  0  0  0
 45 69  1  0  0  0  0
 46 49  1  0  0  0  0
 46 69  1  0  0  0  0
 47 72  1  0  0  0  0
 48 68  1  0  0  0  0
 49 67  1  0  0  0  0
 52 63  1  0  0  0  0
 53 64  1  0  0  0  0
 54 64  1  0  0  0  0
 55 64  1  0  0  0  0
 56 75  1  0  0  0  0
 57 60  1  0  0  0  0
 58 59  1  0  0  0  0
 59 61  1  0  0  0  0
 60 74  1  0  0  0  0
 61 82  1  0  0  0  0
 62 64  1  0  0  0  0
 62 73  1  0  0  0  0
 63 75  1  0  0  0  0
 65 67  1  0  0  0  0
M  CHG  1  75   1
M  ISO  4  37 100  61 101  74 100  82 101
M  END
> <Batch ID>
0099

> <Smiles>
CNC(C)C(=O)NC(C(=O)N1Cc2cc([101O:1][101CH2:1]CCc3cc(CC[100NH:0][100C:0](=O)N4CCCC(n5nc(-c6ccc(Oc7ccc(F)cc7F)cc6)c(C(N)=O)c5N)C4)c(C)c(C)n3)ccc2CC1C(=O)NC1CCCc2ccccc21)C(C)(C)C

> <Shape>
0.199

> <Color>
0.053

> <Negative vol penalty>
0.000

$$$$

  -OEChem-04052319313D

 86 94  0     1  0  0  0  0  0999 V2000
  -27.1742  -24.2926   16.0368 C   0  0  0  0  0  0  0  0  0  0  0  0
  -25.9766  -24.7763   16.5537 C   0  0  0  0  0  0  0  0  0  0  0  0
  -26.5226  -13.4241   20.1937 C   0  0  0  0  0  0  0  0  0  0  0  0
  -24.1368  -13.6936   20.4629 C   0  0  0  0  0  0  0  0  0  0  0  0
  -28.3175  -24.2692   16.8345 C   0  0  0  0  0  0  0  0  0  0  0  0
  -25.9213  -25.2359   17.8690 C   0  0  0  0  0  0  0  0  0  0  0  0
  -23.3984  -29.6061   18.2953 C   0  0  0  0  0  0  0  0  0  0  0  0
  -26.4573  -12.1933   20.8466 C   0  0  0  0  0  0  0  0  0  0  0  0
  -24.0715  -12.4627   21.1159 C   0  0  0  0  0  0  0  0  0  0  0  0
  -22.0060  -29.5429   18.2666 C   0  0  0  0  0  0  0  0  0  0  0  0
  -23.2213   -9.2250   22.5344 C   0  0  0  0  0  0  0  0  0  0  0  0
  -22.1968   -8.3509   22.1713 C   0  0  0  0  0  0  0  0  0  0  0  0
  -21.9549  -29.7056   20.6728 C   0  0  0  0  0  0  0  0  0  0  0  0
  -23.0308   -8.3153   19.9041 C   0  0  0  0  0  0  0  0  0  0  0  0
  -25.3624  -14.1743   20.0018 C   0  0  0  0  0  0  0  0  0  0  0  0
  -25.3000  -15.6839   17.9464 C   0  0  0  0  0  0  0  0  0  0  0  0
  -28.2785  -24.7378   18.1572 C   0  0  0  0  0  0  0  0  0  0  0  0
  -24.0812  -29.7087   19.5159 C   0  0  0  0  0  0  0  0  0  0  0  0
  -27.0648  -25.2176   18.6856 C   0  0  0  0  0  0  0  0  0  0  0  0
  -23.3559  -29.7725   20.7142 C   0  0  0  0  0  0  0  0  0  0  0  0
  -20.2445  -21.3334   20.1496 C   0  0  0  0  0  0  0  0  0  0  0  0
  -19.5658  -21.8932   19.0289 C   0  0  0  0  0  0  0  0  0  0  0  0
  -25.2318  -11.7126   21.3077 C   0  0  0  0  0  0  0  0  0  0  0  0
  -21.2841  -29.5897   19.4556 C   0  0  0  0  0  0  0  0  0  0  0  0
  -24.1506   -9.6443   21.5824 C   0  0  0  0  0  0  0  0  0  0  0  0
  -22.1015   -7.8960   20.8561 C   0  0  0  0  0  0  0  0  0  0  0  0
  -24.0554   -9.1894   20.2672 C   0  0  0  0  0  0  0  0  0  0  0  0
  -25.4293  -15.4461   19.3279 C   0  0  0  0  0  0  0  0  0  0  0  0
  -21.1674  -22.2053   20.6841 C   0  0  0  0  0  0  0  0  0  0  0  0
  -19.9957  -23.1719   18.7496 C   0  0  0  0  0  0  0  0  0  0  0  0
  -25.4383  -17.0444   17.8178 C   0  0  0  0  0  0  0  0  0  0  0  0
  -25.0750  -14.7579   16.8752 C   0  0  0  0  0  0  0  0  0  0  0  0
  -26.1837  -27.9001   21.0690 C   0  0  0  0  0  0  0  0  0  0  0  0
  -26.2740  -30.4296   23.0977 C   0  0  0  0  0  0  0  0  0  0  0  0
  -24.7095  -33.1862   24.3628 C   0  0  0  0  0  0  0  0  0  0  0  0
  -24.5046  -21.6111   21.5760 C   0  0  0  0  0  0  0  0  0  0  0  0
  -29.5288  -24.6488   18.9960 C   0  0  0  0  0  0  0  0  0  0  0  0
  -25.5823  -29.8028   19.5281 C   0  0  0  0  0  0  0  0  0  0  0  0
  -24.0404  -29.9029   22.0495 C   0  0  0  0  0  0  0  0  0  0  0  0
  -29.4758  -25.5021   20.2606 C   0  0  0  0  0  0  0  0  0  0  0  0
  -27.5389  -20.8076   19.8954 C   0  0  0  0  0  0  0  0  0  0  0  0
  -28.1456  -25.3068   20.9812 C   0  0  0  0  0  0  0  0  0  0  0  0
  -27.3306  -19.3639   19.4348 C   0  0  0  0  0  0  0  0  0  0  0  0
  -26.8994  -21.0629   21.2585 C   0  0  0  0  0  0  0  0  0  0  0  0
  -25.2648  -19.2555   20.8906 C   0  0  0  0  0  0  0  0  0  0  0  0
  -26.9708  -25.7479   20.0998 C   0  0  1  0  0  0  0  0  0  0  0  0
  -26.1961  -29.3883   20.8619 C   0  0  1  0  0  0  0  0  0  0  0  0
  -25.8439  -18.9648   19.4954 C   0  0  2  0  0  0  0  0  0  0  0  0
  -19.9883  -19.9714   20.6810 C   0  0  0  0  0  0  0  0  0  0  0  0
  -18.5176  -21.1844   18.2531 C   0  0  0  0  0  0  0  0  0  0  0  0
  -25.0167  -35.0319   26.0350 C   0  0  0  0  0  0  0  0  0  0  0  0
  -17.0167  -29.2051   19.2703 C   0  0  0  0  0  0  0  0  0  0  0  0
  -25.6712  -28.4753   25.3620 C   0  0  0  0  0  0  0  0  0  0  0  0
  -25.0570  -30.4339   26.7955 C   0  0  0  0  0  0  0  0  0  0  0  0
  -27.3802  -30.2158   25.9135 C   0  0  0  0  0  0  0  0  0  0  0  0
  -24.5455  -35.2694   22.2671 C   0  0  0  0  0  0  0  0  0  0  0  0
  -22.0695  -22.0098   21.8414 C   0  0  0  0  0  0  0  0  0  0  0  0
  -19.5416  -24.1026   17.6639 C   0  0  0  0  0  0  0  0  0  0  0  0
  -17.3638  -27.2573   17.7300 C   0  0  0  0  0  0  0  0  0  0  0  0
  -18.2512  -26.1729   17.1276 C   0  0  0  0  0  0  0  0  0  0  0  0
  -19.3281  -28.7927   18.3626 C   0  0  0  0  0  0  0  0  0  1  0  0
  -25.5076  -30.8374   24.3328 C   0  0  1  0  0  0  0  0  0  0  0  0
  -25.1957  -34.6068   24.5859 C   0  0  2  0  0  0  0  0  0  0  0  0
  -18.0188  -28.1353   18.8181 C   0  0  1  0  0  0  0  0  0  0  0  0
  -25.8909  -29.9862   25.5761 C   0  0  0  0  0  0  0  0  0  0  0  0
  -25.6341  -16.5657   20.0269 N   0  0  0  0  0  0  0  0  0  0  0  0
  -25.6347  -17.5201   19.0808 N   0  0  0  0  0  0  0  0  0  0  0  0
  -25.5098  -29.9848   22.0096 N   0  0  0  0  0  0  0  0  0  0  0  0
  -25.4897  -20.6648   21.2484 N   0  0  0  0  0  0  0  0  0  0  0  0
  -25.4100  -17.8681   16.7486 N   0  0  0  0  0  0  0  0  0  0  0  0
  -24.9567  -13.3958   17.1833 N   0  0  0  0  0  0  0  0  0  0  0  0
  -26.8577  -27.1907   20.0933 N   0  0  0  0  0  0  0  0  0  0  0  0
  -25.7309  -32.2697   24.4973 N   0  0  0  0  0  0  0  0  0  0  0  0
  -23.1934  -21.1529   21.5359 N   0  0  0  0  0  0  0  0  0  0  0  0
  -24.4385  -35.5553   23.7210 N   0  3  0  0  0  0  0  0  0  0  0  0
  -18.6655  -25.1986   18.1634 N   0  3  0  0  0  0  0  0  0  0  0  0
  -24.9980  -15.1256   15.6783 O   0  0  0  0  0  0  0  0  0  0  0  0
  -25.6067  -27.4304   22.0427 O   0  0  0  0  0  0  0  0  0  0  0  0
  -27.5050  -30.5097   23.0959 O   0  0  0  0  0  0  0  0  0  0  0  0
  -23.5398  -32.9161   24.0996 O   0  0  0  0  0  0  0  0  0  0  0  0
  -24.7734  -22.7792   21.8765 O   0  0  0  0  0  0  0  0  0  0  0  0
  -25.1676  -10.5115   21.9447 O   0  0  0  0  0  0  0  0  0  0  0  0
  -19.9249  -29.5275   19.4304 O   0  0  0  0  0  0  0  0  0  1  0  0
  -21.1185   -7.0555   20.5078 F   0  0  0  0  0  0  0  0  0  0  0  0
  -24.9459   -9.5878   19.3485 F   0  0  0  0  0  0  0  0  0  0  0  0
  -21.2129  -23.6921   19.8359 S   0  0  0  0  0  0  0  0  0  0  0  0
  1  2  1  0  0  0  0
  1  5  2  0  0  0  0
  2  6  2  0  0  0  0
  3  8  2  0  0  0  0
  3 15  1  0  0  0  0
  4  9  1  0  0  0  0
  4 15  2  0  0  0  0
  5 17  1  0  0  0  0
  6 19  1  0  0  0  0
  7 10  2  0  0  0  0
  7 18  1  0  0  0  0
  8 23  1  0  0  0  0
  9 23  2  0  0  0  0
 10 24  1  0  0  0  0
 11 12  2  0  0  0  0
 11 25  1  0  0  0  0
 12 26  1  0  0  0  0
 13 20  1  0  0  0  0
 13 24  2  0  0  0  0
 14 26  2  0  0  0  0
 14 27  1  0  0  0  0
 15 28  1  0  0  0  0
 16 28  1  0  0  0  0
 16 31  2  0  0  0  0
 16 32  1  0  0  0  0
 17 19  2  0  0  0  0
 17 37  1  0  0  0  0
 18 20  2  0  0  0  0
 18 38  1  0  0  0  0
 19 46  1  0  0  0  0
 20 39  1  0  0  0  0
 21 22  1  0  0  0  0
 21 29  2  0  0  0  0
 21 49  1  0  0  0  0
 22 30  2  0  0  0  0
 22 50  1  0  0  0  0
 23 82  1  0  0  0  0
 24 83  1  0  0  0  0
 25 27  2  0  0  0  0
 25 82  1  0  0  0  0
 26 84  1  0  0  0  0
 27 85  1  0  0  0  0
 28 66  2  0  0  0  0
 29 57  1  0  0  0  0
 29 86  1  0  0  0  0
 30 58  1  0  0  0  0
 30 86  1  0  0  0  0
 31 67  1  0  0  0  0
 31 70  1  0  0  0  0
 32 71  1  0  0  0  0
 32 77  2  0  0  0  0
 33 47  1  0  0  0  0
 33 72  1  0  0  0  0
 33 78  2  0  0  0  0
 34 62  1  0  0  0  0
 34 68  1  0  0  0  0
 34 79  2  0  0  0  0
 35 63  1  0  0  0  0
 35 73  1  0  0  0  0
 35 80  2  0  0  0  0
 36 69  1  0  0  0  0
 36 74  1  0  0  0  0
 36 81  2  0  0  0  0
 37 40  1  0  0  0  0
 38 47  1  0  0  0  0
 39 68  1  0  0  0  0
 40 42  1  0  0  0  0
 41 43  1  0  0  0  0
 41 44  1  0  0  0  0
 42 46  1  0  0  0  0
 43 48  1  0  0  0  0
 44 69  1  0  0  0  0
 45 48  1  0  0  0  0
 45 69  1  0  0  0  0
 46 72  1  0  0  0  0
 47 68  1  0  0  0  0
 48 67  1  0  0  0  0
 51 63  1  0  0  0  0
 52 64  1  0  0  0  0
 53 65  1  0  0  0  0
 54 65  1  0  0  0  0
 55 65  1  0  0  0  0
 56 75  1  0  0  0  0
 57 74  1  0  0  0  0
 58 76  1  0  0  0  0
 59 60  1  0  0  0  0
 59 64  1  0  0  0  0
 60 76  1  0  0  0  0
 61 64  1  0  0  0  0
 61 83  1  0  0  0  0
 62 65  1  0  0  0  0
 62 73  1  0  0  0  0
 63 75  1  0  0  0  0
 66 67  1  0  0  0  0
M  CHG  2  75   1  76   1
M  ISO  4  36 100  61 101  74 100  83 101
M  END
> <Batch ID>
0099

> <Smiles>
CNC(C)C(=O)NC(C(=O)N1Cc2cc([101O:1][101CH2:1]C(C)CCNCc3sc(C[100NH:0][100C:0](=O)N4CCCC(n5nc(-c6ccc(Oc7ccc(F)cc7F)cc6)c(C(N)=O)c5N)C4)c(C)c3C)ccc2CC1C(=O)NC1CCCc2ccccc21)C(C)(C)C

> <Shape>
0.223

> <Color>
0.062

> <Negative vol penalty>
0.000

$$$$

  -OEChem-04052319313D

 84 92  0     1  0  0  0  0  0999 V2000
  -21.2346  -23.6608   19.8753 C   0  0  0  0  0  0  0  0  0  0  0  0
  -22.5226  -23.2486   19.5487 C   0  0  0  0  0  0  0  0  0  0  0  0
  -22.4629  -27.7803   20.9232 C   0  0  0  0  0  0  0  0  0  0  0  0
  -23.6580  -27.3638   22.9812 C   0  0  0  0  0  0  0  0  0  0  0  0
  -20.5122  -22.9780   20.8529 C   0  0  0  0  0  0  0  0  0  0  0  0
  -23.0893  -22.1539   20.2005 C   0  0  0  0  0  0  0  0  0  0  0  0
  -26.9177  -18.0188   17.8025 C   0  0  0  0  0  0  0  0  0  0  0  0
  -21.2519  -27.5820   21.5863 C   0  0  0  0  0  0  0  0  0  0  0  0
  -22.4470  -27.1655   23.6443 C   0  0  0  0  0  0  0  0  0  0  0  0
  -28.3051  -17.8884   17.8468 C   0  0  0  0  0  0  0  0  0  0  0  0
  -19.2231  -29.3361   23.6454 C   0  0  0  0  0  0  0  0  0  0  0  0
  -18.1948  -30.2469   23.4034 C   0  0  0  0  0  0  0  0  0  0  0  0
  -28.0957  -16.3538   19.6962 C   0  0  0  0  0  0  0  0  0  0  0  0
  -31.9779  -20.8097   20.9162 C   0  0  0  0  0  0  0  0  0  0  0  0
  -16.8018  -28.4545   22.5762 C   0  0  0  0  0  0  0  0  0  0  0  0
  -30.2521  -19.6524   21.7836 C   0  0  0  0  0  0  0  0  0  0  0  0
  -23.6660  -27.6711   21.6207 C   0  0  0  0  0  0  0  0  0  0  0  0
  -25.6119  -29.0896   20.7787 C   0  0  0  0  0  0  0  0  0  0  0  0
  -21.0668  -21.8685   21.5102 C   0  0  0  0  0  0  0  0  0  0  0  0
  -26.1081  -17.3249   18.7133 C   0  0  0  0  0  0  0  0  0  0  0  0
  -22.3742  -21.4564   21.1888 C   0  0  0  0  0  0  0  0  0  0  0  0
  -26.6982  -16.4751   19.6597 C   0  0  0  0  0  0  0  0  0  0  0  0
  -31.4601  -19.5096   21.1374 C   0  0  0  0  0  0  0  0  0  0  0  0
  -21.2439  -27.2746   22.9469 C   0  0  0  0  0  0  0  0  0  0  0  0
  -28.8945  -17.0580   18.7957 C   0  0  0  0  0  0  0  0  0  0  0  0
  -19.0408  -27.9845   23.3527 C   0  0  0  0  0  0  0  0  0  0  0  0
  -16.9842  -29.8062   22.8688 C   0  0  0  0  0  0  0  0  0  0  0  0
  -17.8302  -27.5437   22.8182 C   0  0  0  0  0  0  0  0  0  0  0  0
  -24.9173  -27.8753   20.9361 C   0  0  0  0  0  0  0  0  0  0  0  0
  -31.0705  -21.7073   21.4341 C   0  0  0  0  0  0  0  0  0  0  0  0
  -26.7333  -28.7531   20.0604 C   0  0  0  0  0  0  0  0  0  0  0  0
  -25.2739  -30.4042   21.2405 C   0  0  0  0  0  0  0  0  0  0  0  0
  -24.0551  -18.1721   20.9873 C   0  0  0  0  0  0  0  0  0  0  0  0
  -23.5022  -14.9791   21.1349 C   0  0  0  0  0  0  0  0  0  0  0  0
  -24.6410  -11.8124   20.5679 C   0  0  0  0  0  0  0  0  0  0  0  0
  -29.7868  -23.6420   19.4249 C   0  0  0  0  0  0  0  0  0  0  0  0
  -20.2653  -21.1912   22.5936 C   0  0  0  0  0  0  0  0  0  0  0  0
  -24.6117  -17.4557   18.6351 C   0  0  0  0  0  0  0  0  0  0  0  0
  -25.8725  -15.6926   20.6468 C   0  0  0  0  0  0  0  0  0  0  0  0
  -20.7967  -19.8111   22.9718 C   0  0  0  0  0  0  0  0  0  0  0  0
  -28.3044  -25.5862   16.8366 C   0  0  0  0  0  0  0  0  0  0  0  0
  -22.3102  -19.8541   23.1571 C   0  0  0  0  0  0  0  0  0  0  0  0
  -27.3309  -26.5029   17.5795 C   0  0  0  0  0  0  0  0  0  0  0  0
  -28.3691  -24.1988   17.4713 C   0  0  0  0  0  0  0  0  0  0  0  0
  -27.6914  -25.1086   19.6591 C   0  0  0  0  0  0  0  0  0  0  0  0
  -23.0140  -20.2583   21.8561 C   0  0  1  0  0  0  0  0  0  0  0  0
  -23.9118  -17.1009   19.9434 C   0  0  1  0  0  0  0  0  0  0  0  0
  -27.6338  -26.5364   19.0896 C   0  0  2  0  0  0  0  0  0  0  0  0
  -33.4451  -18.0147   21.4769 C   0  0  0  0  0  0  0  0  0  0  0  0
  -23.9794   -9.4054   20.8253 C   0  0  0  0  0  0  0  0  0  0  0  0
  -28.7565  -21.1327   24.0705 C   0  0  0  0  0  0  0  0  0  0  0  0
  -27.5721  -21.2250   21.8356 C   0  0  0  0  0  0  0  0  0  0  0  0
  -24.0694  -15.1459   24.1283 C   0  0  0  0  0  0  0  0  0  0  0  0
  -24.3321  -12.6562   24.1465 C   0  0  0  0  0  0  0  0  0  0  0  0
  -22.1445  -13.6731   23.5117 C   0  0  0  0  0  0  0  0  0  0  0  0
  -24.8025  -11.3355   17.6515 C   0  0  0  0  0  0  0  0  0  0  0  0
  -31.1134  -23.1838   21.4716 C   0  0  0  0  0  0  0  0  0  0  0  0
  -32.3269  -18.0702   19.2153 C   0  0  0  0  0  0  0  0  0  0  0  0
  -31.0221  -18.0536   18.4246 C   0  0  0  0  0  0  0  0  0  1  0  0
  -32.1151  -18.1992   20.7362 C   0  0  2  0  0  0  0  0  0  0  0  0
  -24.0941  -13.8263   21.9093 C   0  0  1  0  0  0  0  0  0  0  0  0
  -23.9922  -10.6129   19.9009 C   0  0  2  0  0  0  0  0  0  0  0  0
  -28.8557  -21.5498   22.6019 C   0  0  0  0  0  0  0  0  0  0  0  0
  -23.6760  -13.8415   23.4067 C   0  0  0  0  0  0  0  0  0  0  0  0
  -25.5447  -26.8444   20.3637 N   0  0  0  0  0  0  0  0  0  0  0  0
  -30.0256  -20.9926   21.9590 N   0  0  0  0  0  0  0  0  0  0  0  0
  -26.6454  -27.4101   19.8396 N   0  0  0  0  0  0  0  0  0  0  0  0
  -24.4139  -15.8588   20.5343 N   0  0  0  0  0  0  0  0  0  0  0  0
  -28.6613  -24.3008   18.9031 N   0  0  0  0  0  0  0  0  0  0  0  0
  -27.7760  -29.4780   19.6024 N   0  0  0  0  0  0  0  0  0  0  0  0
  -24.0854  -30.5731   21.9640 N   0  0  0  0  0  0  0  0  0  0  0  0
  -23.0679  -19.1379   20.9415 N   0  0  0  0  0  0  0  0  0  0  0  0
  -23.7102  -12.6142   21.1939 N   0  0  0  0  0  0  0  0  0  0  0  0
  -29.9945  -23.7957   20.7901 N   0  0  0  0  0  0  0  0  0  0  0  0
  -24.7321  -10.2471   18.6601 N   0  3  0  0  0  0  0  0  0  0  0  0
  -25.9958  -31.4024   21.0041 O   0  0  0  0  0  0  0  0  0  0  0  0
  -24.9911  -18.1249   21.7768 O   0  0  0  0  0  0  0  0  0  0  0  0
  -22.2760  -15.0908   21.0594 O   0  0  0  0  0  0  0  0  0  0  0  0
  -25.8528  -12.0156   20.5397 O   0  0  0  0  0  0  0  0  0  0  0  0
  -30.5530  -22.9714   18.7249 O   0  0  0  0  0  0  0  0  0  0  0  0
  -20.0624  -27.0813   23.5943 O   0  0  0  0  0  0  0  0  0  0  0  0
  -30.2484  -16.9294   18.8415 O   0  0  0  0  0  0  0  0  0  1  0  0
  -15.9962  -30.6807   22.6379 F   0  0  0  0  0  0  0  0  0  0  0  0
  -17.6488  -26.2463   22.5361 F   0  0  0  0  0  0  0  0  0  0  0  0
  1  2  1  0  0  0  0
  1  5  2  0  0  0  0
  2  6  2  0  0  0  0
  3  8  2  0  0  0  0
  3 17  1  0  0  0  0
  4  9  1  0  0  0  0
  4 17  2  0  0  0  0
  5 19  1  0  0  0  0
  6 21  1  0  0  0  0
  7 10  2  0  0  0  0
  7 20  1  0  0  0  0
  8 24  1  0  0  0  0
  9 24  2  0  0  0  0
 10 25  1  0  0  0  0
 11 12  2  0  0  0  0
 11 26  1  0  0  0  0
 12 27  1  0  0  0  0
 13 22  1  0  0  0  0
 13 25  2  0  0  0  0
 14 23  1  0  0  0  0
 14 30  2  0  0  0  0
 15 27  2  0  0  0  0
 15 28  1  0  0  0  0
 16 23  2  0  0  0  0
 16 66  1  0  0  0  0
 17 29  1  0  0  0  0
 18 29  1  0  0  0  0
 18 31  2  0  0  0  0
 18 32  1  0  0  0  0
 19 21  2  0  0  0  0
 19 37  1  0  0  0  0
 20 22  2  0  0  0  0
 20 38  1  0  0  0  0
 21 46  1  0  0  0  0
 22 39  1  0  0  0  0
 23 60  1  0  0  0  0
 24 81  1  0  0  0  0
 25 82  1  0  0  0  0
 26 28  2  0  0  0  0
 26 81  1  0  0  0  0
 27 83  1  0  0  0  0
 28 84  1  0  0  0  0
 29 65  2  0  0  0  0
 30 57  1  0  0  0  0
 30 66  1  0  0  0  0
 31 67  1  0  0  0  0
 31 70  1  0  0  0  0
 32 71  1  0  0  0  0
 32 76  2  0  0  0  0
 33 47  1  0  0  0  0
 33 72  1  0  0  0  0
 33 77  2  0  0  0  0
 34 61  1  0  0  0  0
 34 68  1  0  0  0  0
 34 78  2  0  0  0  0
 35 62  1  0  0  0  0
 35 73  1  0  0  0  0
 35 79  2  0  0  0  0
 36 69  1  0  0  0  0
 36 74  1  0  0  0  0
 36 80  2  0  0  0  0
 37 40  1  0  0  0  0
 38 47  1  0  0  0  0
 39 68  1  0  0  0  0
 40 42  1  0  0  0  0
 41 43  1  0  0  0  0
 41 44  1  0  0  0  0
 42 46  1  0  0  0  0
 43 48  1  0  0  0  0
 44 69  1  0  0  0  0
 45 48  1  0  0  0  0
 45 69  1  0  0  0  0
 46 72  1  0  0  0  0
 47 68  1  0  0  0  0
 48 67  1  0  0  0  0
 49 60  1  0  0  0  0
 50 62  1  0  0  0  0
 51 63  1  0  0  0  0
 52 63  1  0  0  0  0
 53 64  1  0  0  0  0
 54 64  1  0  0  0  0
 55 64  1  0  0  0  0
 56 75  1  0  0  0  0
 57 74  1  0  0  0  0
 58 59  1  0  0  0  0
 58 60  1  0  0  0  0
 59 82  1  0  0  0  0
 61 64  1  0  0  0  0
 61 73  1  0  0  0  0
 62 75  1  0  0  0  0
 63 66  1  0  0  0  0
 65 67  1  0  0  0  0
M  CHG  1  75   1
M  ISO  4  36 100  59 101  74 100  82 101
M  END
> <Batch ID>
0099

> <Smiles>
CNC(C)C(=O)NC(C(=O)N1Cc2cc([101O:1][101CH2:1]CC(C)c3cc(C[100NH:0][100C:0](=O)N4CCCC(n5nc(-c6ccc(Oc7ccc(F)cc7F)cc6)c(C(N)=O)c5N)C4)n(C(C)C)c3)ccc2CC1C(=O)NC1CCCc2ccccc21)C(C)(C)C

> <Shape>
0.225

> <Color>
0.064

> <Negative vol penalty>
0.000

$$$$

  -OEChem-04052319313D

 86 94  0     1  0  0  0  0  0999 V2000
  -18.1299  -32.9263   23.5850 C   0  0  0  0  0  0  0  0  0  0  0  0
  -19.3423  -33.0769   22.9197 C   0  0  0  0  0  0  0  0  0  0  0  0
  -27.3341  -17.8221   19.3278 C   0  0  0  0  0  0  0  0  0  0  0  0
  -29.5414  -18.7794   19.1085 C   0  0  0  0  0  0  0  0  0  0  0  0
  -17.9032  -31.7978   24.3718 C   0  0  0  0  0  0  0  0  0  0  0  0
  -20.3293  -32.0994   23.0416 C   0  0  0  0  0  0  0  0  0  0  0  0
  -25.6143  -29.0078   19.3231 C   0  0  0  0  0  0  0  0  0  0  0  0
  -27.8902  -16.6646   19.8724 C   0  0  0  0  0  0  0  0  0  0  0  0
  -30.0976  -17.6220   19.6531 C   0  0  0  0  0  0  0  0  0  0  0  0
  -26.9724  -28.7100   19.4260 C   0  0  0  0  0  0  0  0  0  0  0  0
  -29.4690  -13.8944   18.7509 C   0  0  0  0  0  0  0  0  0  0  0  0
  -28.9990  -12.6678   18.2819 C   0  0  0  0  0  0  0  0  0  0  0  0
  -26.4394  -26.7645   20.7489 C   0  0  0  0  0  0  0  0  0  0  0  0
  -29.1257  -27.1949   15.4576 C   0  0  0  0  0  0  0  0  0  0  0  0
  -30.2416  -25.0864   15.0761 C   0  0  0  0  0  0  0  0  0  0  0  0
  -28.2876  -12.0860   20.5163 C   0  0  0  0  0  0  0  0  0  0  0  0
  -28.1597  -18.8795   18.9458 C   0  0  0  0  0  0  0  0  0  0  0  0
  -27.1579  -21.2218   19.0782 C   0  0  0  0  0  0  0  0  0  0  0  0
  -18.8843  -30.8014   24.4957 C   0  0  0  0  0  0  0  0  0  0  0  0
  -24.6575  -28.1909   19.9425 C   0  0  0  0  0  0  0  0  0  0  0  0
  -20.1161  -30.9572   23.8318 C   0  0  0  0  0  0  0  0  0  0  0  0
  -25.0696  -27.0527   20.6502 C   0  0  0  0  0  0  0  0  0  0  0  0
  -29.6005  -25.9750   15.9392 C   0  0  0  0  0  0  0  0  0  0  0  0
  -29.2918  -27.5262   14.1129 C   0  0  0  0  0  0  0  0  0  0  0  0
  -30.4078  -25.4177   13.7313 C   0  0  0  0  0  0  0  0  0  0  0  0
  -29.9329  -26.6376   13.2497 C   0  0  0  0  0  0  0  0  0  0  0  0
  -29.2719  -16.5646   20.0351 C   0  0  0  0  0  0  0  0  0  0  0  0
  -27.3853  -27.5899   20.1414 C   0  0  0  0  0  0  0  0  0  0  0  0
  -29.3485  -14.2168   20.1027 C   0  0  0  0  0  0  0  0  0  0  0  0
  -28.4083  -11.7636   19.1645 C   0  0  0  0  0  0  0  0  0  0  0  0
  -28.7577  -13.3126   20.9854 C   0  0  0  0  0  0  0  0  0  0  0  0
  -27.5859  -20.0752   18.3826 C   0  0  0  0  0  0  0  0  0  0  0  0
  -26.6955  -22.0654   18.0979 C   0  0  0  0  0  0  0  0  0  0  0  0
  -27.1767  -21.4995   20.4847 C   0  0  0  0  0  0  0  0  0  0  0  0
  -22.4748  -28.6185   22.2133 C   0  0  0  0  0  0  0  0  0  0  0  0
  -21.6185  -25.5929   21.4165 C   0  0  0  0  0  0  0  0  0  0  0  0
  -22.5118  -22.5907   20.0617 C   0  0  0  0  0  0  0  0  0  0  0  0
  -27.9141  -22.5869   12.2589 C   0  0  0  0  0  0  0  0  0  0  0  0
  -18.6115  -29.6220   25.3954 C   0  0  0  0  0  0  0  0  0  0  0  0
  -23.1948  -28.5108   19.7996 C   0  0  0  0  0  0  0  0  0  0  0  0
  -24.0811  -26.1321   21.3165 C   0  0  0  0  0  0  0  0  0  0  0  0
  -19.5660  -28.4519   25.1718 C   0  0  0  0  0  0  0  0  0  0  0  0
  -24.7261  -22.0159   13.7379 C   0  0  0  0  0  0  0  0  0  0  0  0
  -21.0075  -28.9453   25.0981 C   0  0  0  0  0  0  0  0  0  0  0  0
  -25.0589  -21.5572   15.1587 C   0  0  0  0  0  0  0  0  0  0  0  0
  -25.7408  -21.4927   12.7237 C   0  0  0  0  0  0  0  0  0  0  0  0
  -27.4810  -21.3401   14.4622 C   0  0  0  0  0  0  0  0  0  0  0  0
  -21.2019  -29.9068   23.9194 C   0  0  1  0  0  0  0  0  0  0  0  0
  -22.3383  -27.8967   20.9026 C   0  0  1  0  0  0  0  0  0  0  0  0
  -26.5172  -21.8892   15.5280 C   0  0  2  0  0  0  0  0  0  0  0  0
  -28.7751  -28.8394   13.6226 C   0  0  0  0  0  0  0  0  0  0  0  0
  -30.1113  -26.9933   11.8081 C   0  0  0  0  0  0  0  0  0  0  0  0
  -22.2359  -20.2476   19.2067 C   0  0  0  0  0  0  0  0  0  0  0  0
  -30.8178  -24.1734   19.9222 C   0  0  0  0  0  0  0  0  0  0  0  0
  -21.8975  -24.8703   24.3677 C   0  0  0  0  0  0  0  0  0  0  0  0
  -21.9269  -22.4569   23.7023 C   0  0  0  0  0  0  0  0  0  0  0  0
  -19.9163  -23.8552   23.2279 C   0  0  0  0  0  0  0  0  0  0  0  0
  -21.8072  -23.5399   17.3485 C   0  0  0  0  0  0  0  0  0  0  0  0
  -29.4202  -25.6165   17.3931 C   0  0  0  0  0  0  0  0  0  0  0  0
  -31.0979  -24.4487   12.8276 C   0  0  0  0  0  0  0  0  0  0  0  0
  -30.5783  -26.0659   18.2948 C   0  0  0  0  0  0  0  0  0  0  0  0
  -30.1372  -23.6444   11.9453 C   0  0  0  0  0  0  0  0  0  0  0  0
  -29.0637  -25.9205   20.3700 C   0  0  0  0  0  0  0  0  0  1  0  0
  -22.0217  -24.2120   21.8743 C   0  0  1  0  0  0  0  0  0  0  0  0
  -21.8251  -21.7023   19.0401 C   0  0  2  0  0  0  0  0  0  0  0  0
  -30.4555  -25.6572   19.7794 C   0  0  1  0  0  0  0  0  0  0  0  0
  -21.4596  -23.8668   23.2822 C   0  0  0  0  0  0  0  0  0  0  0  0
  -27.4108  -20.1776   17.0624 N   0  0  0  0  0  0  0  0  0  0  0  0
  -26.8676  -21.3987   16.9207 N   0  0  0  0  0  0  0  0  0  0  0  0
  -22.6626  -26.4909   21.1534 N   0  0  0  0  0  0  0  0  0  0  0  0
  -27.1036  -21.8423   13.1317 N   0  0  0  0  0  0  0  0  0  0  0  0
  -26.1624  -23.3051   18.1368 N   0  0  0  0  0  0  0  0  0  0  0  0
  -27.6856  -20.5231   21.3518 N   0  0  0  0  0  0  0  0  0  0  0  0
  -21.2960  -29.1706   22.6770 N   0  0  0  0  0  0  0  0  0  0  0  0
  -21.6010  -23.2939   20.8214 N   0  0  0  0  0  0  0  0  0  0  0  0
  -29.1894  -22.8808   12.7258 N   0  0  0  0  0  0  0  0  0  0  0  0
  -22.1767  -22.1347   17.6580 N   0  3  0  0  0  0  0  0  0  0  0  0
  -26.7396  -22.5750   20.9600 O   0  0  0  0  0  0  0  0  0  0  0  0
  -23.5684  -28.6694   22.7640 O   0  0  0  0  0  0  0  0  0  0  0  0
  -20.4215  -25.8625   21.2898 O   0  0  0  0  0  0  0  0  0  0  0  0
  -23.7339  -22.6517   20.1769 O   0  0  0  0  0  0  0  0  0  0  0  0
  -27.5278  -22.9665   11.1482 O   0  0  0  0  0  0  0  0  0  0  0  0
  -29.8149  -15.4353   20.5667 O   0  0  0  0  0  0  0  0  0  0  0  0
  -28.7104  -27.2973   20.2439 O   0  0  0  0  0  0  0  0  0  1  0  0
  -27.9555  -10.5863   18.7137 F   0  0  0  0  0  0  0  0  0  0  0  0
  -28.6380  -13.6172   22.2849 F   0  0  0  0  0  0  0  0  0  0  0  0
  1  2  1  0  0  0  0
  1  5  2  0  0  0  0
  2  6  2  0  0  0  0
  3  8  2  0  0  0  0
  3 17  1  0  0  0  0
  4  9  1  0  0  0  0
  4 17  2  0  0  0  0
  5 19  1  0  0  0  0
  6 21  1  0  0  0  0
  7 10  2  0  0  0  0
  7 20  1  0  0  0  0
  8 27  1  0  0  0  0
  9 27  2  0  0  0  0
 10 28  1  0  0  0  0
 11 12  2  0  0  0  0
 11 29  1  0  0  0  0
 12 30  1  0  0  0  0
 13 22  1  0  0  0  0
 13 28  2  0  0  0  0
 14 23  1  0  0  0  0
 14 24  2  0  0  0  0
 15 23  2  0  0  0  0
 15 25  1  0  0  0  0
 16 30  2  0  0  0  0
 16 31  1  0  0  0  0
 17 32  1  0  0  0  0
 18 32  1  0  0  0  0
 18 33  2  0  0  0  0
 18 34  1  0  0  0  0
 19 21  2  0  0  0  0
 19 39  1  0  0  0  0
 20 22  2  0  0  0  0
 20 40  1  0  0  0  0
 21 48  1  0  0  0  0
 22 41  1  0  0  0  0
 23 59  1  0  0  0  0
 24 26  1  0  0  0  0
 24 51  1  0  0  0  0
 25 26  2  0  0  0  0
 25 60  1  0  0  0  0
 26 52  1  0  0  0  0
 27 83  1  0  0  0  0
 28 84  1  0  0  0  0
 29 31  2  0  0  0  0
 29 83  1  0  0  0  0
 30 85  1  0  0  0  0
 31 86  1  0  0  0  0
 32 68  2  0  0  0  0
 33 69  1  0  0  0  0
 33 72  1  0  0  0  0
 34 73  1  0  0  0  0
 34 78  2  0  0  0  0
 35 49  1  0  0  0  0
 35 74  1  0  0  0  0
 35 79  2  0  0  0  0
 36 64  1  0  0  0  0
 36 70  1  0  0  0  0
 36 80  2  0  0  0  0
 37 65  1  0  0  0  0
 37 75  1  0  0  0  0
 37 81  2  0  0  0  0
 38 71  1  0  0  0  0
 38 76  1  0  0  0  0
 38 82  2  0  0  0  0
 39 42  1  0  0  0  0
 40 49  1  0  0  0  0
 41 70  1  0  0  0  0
 42 44  1  0  0  0  0
 43 45  1  0  0  0  0
 43 46  1  0  0  0  0
 44 48  1  0  0  0  0
 45 50  1  0  0  0  0
 46 71  1  0  0  0  0
 47 50  1  0  0  0  0
 47 71  1  0  0  0  0
 48 74  1  0  0  0  0
 49 70  1  0  0  0  0
 50 69  1  0  0  0  0
 53 65  1  0  0  0  0
 54 66  1  0  0  0  0
 55 67  1  0  0  0  0
 56 67  1  0  0  0  0
 57 67  1  0  0  0  0
 58 77  1  0  0  0  0
 59 61  1  0  0  0  0
 60 62  1  0  0  0  0
 61 66  1  0  0  0  0
 62 76  1  0  0  0  0
 63 66  1  0  0  0  0
 63 84  1  0  0  0  0
 64 67  1  0  0  0  0
 64 75  1  0  0  0  0
 65 77  1  0  0  0  0
 68 69  1  0  0  0  0
M  CHG  1  77   1
M  ISO  4  38 100  63 101  76 100  84 101
M  END
> <Batch ID>
0099

> <Smiles>
CNC(C)C(=O)NC(C(=O)N1Cc2cc([101O:1][101CH2:1]C(C)CCc3cc(C)c(C)c(CC[100NH:0][100C:0](=O)N4CCCC(n5nc(-c6ccc(Oc7ccc(F)cc7F)cc6)c(C(N)=O)c5N)C4)c3)ccc2CC1C(=O)NC1CCCc2ccccc21)C(C)(C)C

> <Shape>
0.194

> <Color>
0.079

> <Negative vol penalty>
0.000

$$$$

  -OEChem-04052319313D

 82 89  0     1  0  0  0  0  0999 V2000
  -25.4286  -30.0696   27.7540 C   0  0  0  0  0  0  0  0  0  0  0  0
  -26.0356  -29.0378   27.0452 C   0  0  0  0  0  0  0  0  0  0  0  0
  -22.9905   -9.9083   19.9809 C   0  0  0  0  0  0  0  0  0  0  0  0
  -23.7229   -9.9464   22.2829 C   0  0  0  0  0  0  0  0  0  0  0  0
  -24.6359  -31.0012   27.0849 C   0  0  0  0  0  0  0  0  0  0  0  0
  -25.8493  -28.9364   25.6670 C   0  0  0  0  0  0  0  0  0  0  0  0
  -29.9257  -26.9829   21.5351 C   0  0  0  0  0  0  0  0  0  0  0  0
  -22.2203   -8.7757   20.2447 C   0  0  0  0  0  0  0  0  0  0  0  0
  -22.9527   -8.8138   22.5467 C   0  0  0  0  0  0  0  0  0  0  0  0
  -30.1074  -25.7521   20.9060 C   0  0  0  0  0  0  0  0  0  0  0  0
  -23.1822   -5.4760   22.0596 C   0  0  0  0  0  0  0  0  0  0  0  0
  -23.7680   -4.4532   22.8055 C   0  0  0  0  0  0  0  0  0  0  0  0
  -28.8372  -26.5392   19.0123 C   0  0  0  0  0  0  0  0  0  0  0  0
  -22.0502   -4.6957   24.4871 C   0  0  0  0  0  0  0  0  0  0  0  0
  -23.7419  -10.4936   21.0000 C   0  0  0  0  0  0  0  0  0  0  0  0
  -24.1367  -13.0084   20.8337 C   0  0  0  0  0  0  0  0  0  0  0  0
  -24.4477  -30.9168   25.6964 C   0  0  0  0  0  0  0  0  0  0  0  0
  -29.1879  -27.9992   20.9111 C   0  0  0  0  0  0  0  0  0  0  0  0
  -25.0523  -29.8670   24.9790 C   0  0  0  0  0  0  0  0  0  0  0  0
  -28.6497  -27.7830   19.6344 C   0  0  0  0  0  0  0  0  0  0  0  0
  -22.2013   -8.2285   21.5276 C   0  0  0  0  0  0  0  0  0  0  0  0
  -29.5606  -25.5291   19.6457 C   0  0  0  0  0  0  0  0  0  0  0  0
  -22.0304   -6.1087   22.5275 C   0  0  0  0  0  0  0  0  0  0  0  0
  -23.2020   -4.0631   24.0192 C   0  0  0  0  0  0  0  0  0  0  0  0
  -21.4645   -5.7186   23.7412 C   0  0  0  0  0  0  0  0  0  0  0  0
  -24.5382  -11.6632   20.7280 C   0  0  0  0  0  0  0  0  0  0  0  0
  -25.2482  -13.7281   20.4690 C   0  0  0  0  0  0  0  0  0  0  0  0
  -22.8721  -13.5582   21.2265 C   0  0  0  0  0  0  0  0  0  0  0  0
  -26.5145  -29.5754   21.5981 C   0  0  0  0  0  0  0  0  0  0  0  0
  -27.3277  -31.3121   18.9819 C   0  0  0  0  0  0  0  0  0  0  0  0
  -29.0241  -31.4749   16.0251 C   0  0  0  0  0  0  0  0  0  0  0  0
  -30.7490  -14.6397   20.7046 C   0  0  0  0  0  0  0  0  0  0  0  0
  -23.5437  -31.9196   25.0241 C   0  0  0  0  0  0  0  0  0  0  0  0
  -29.0236  -29.3305   21.5915 C   0  0  0  0  0  0  0  0  0  0  0  0
  -27.8667  -28.8483   18.9131 C   0  0  0  0  0  0  0  0  0  0  0  0
  -23.7010  -31.9598   23.5062 C   0  0  0  0  0  0  0  0  0  0  0  0
  -29.5915  -12.2308   18.3522 C   0  0  0  0  0  0  0  0  0  0  0  0
  -23.7113  -30.5462   22.9330 C   0  0  0  0  0  0  0  0  0  0  0  0
  -28.1432  -11.9751   18.7731 C   0  0  0  0  0  0  0  0  0  0  0  0
  -30.4985  -12.4574   19.5597 C   0  0  0  0  0  0  0  0  0  0  0  0
  -28.5957  -13.2547   20.9078 C   0  0  0  0  0  0  0  0  0  0  0  0
  -24.8943  -29.7379   23.4795 C   0  0  1  0  0  0  0  0  0  0  0  0
  -27.8186  -30.1163   21.0839 C   0  0  1  0  0  0  0  0  0  0  0  0
  -27.6323  -13.0760   19.7219 C   0  0  2  0  0  0  0  0  0  0  0  0
  -29.4679  -33.0106   14.0906 C   0  0  0  0  0  0  0  0  0  0  0  0
  -30.1459  -21.6692   17.8694 C   0  0  0  0  0  0  0  0  0  0  0  0
  -27.3825  -19.4764   19.1417 C   0  0  0  0  0  0  0  0  0  0  0  0
  -31.5329  -17.8094   19.6999 C   0  0  0  0  0  0  0  0  0  0  0  0
  -28.2134  -18.2405   21.7632 C   0  0  0  0  0  0  0  0  0  0  0  0
  -24.5402  -30.7319   17.8848 C   0  0  0  0  0  0  0  0  0  0  0  0
  -25.3560  -31.4452   15.6279 C   0  0  0  0  0  0  0  0  0  0  0  0
  -25.3392  -33.0731   17.5179 C   0  0  0  0  0  0  0  0  0  0  0  0
  -31.9340  -31.5015   16.5639 C   0  0  0  0  0  0  0  0  0  0  0  0
  -29.3746  -20.7281   20.1154 C   0  0  0  0  0  0  0  0  0  0  0  0
  -30.8441  -16.8132   21.8990 C   0  0  0  0  0  0  0  0  0  0  0  0
  -29.8678  -23.1811   19.8666 C   0  0  0  0  0  0  0  0  0  1  0  0
  -27.0483  -31.2101   17.5018 C   0  0  1  0  0  0  0  0  0  0  0  0
  -29.9496  -32.5328   15.4517 C   0  0  2  0  0  0  0  0  0  0  0  0
  -29.3397  -21.9306   19.1462 C   0  0  1  0  0  0  0  0  0  0  0  0
  -28.8622  -19.3834   19.5470 C   0  0  1  0  0  0  0  0  0  0  0  0
  -30.6126  -17.9820   20.9179 C   0  0  2  0  0  0  0  0  0  0  0  0
  -29.1097  -18.1726   20.5142 C   0  0  1  0  0  0  0  0  0  0  0  0
  -25.5840  -31.5941   17.1473 C   0  0  0  0  0  0  0  0  0  0  0  0
  -25.8057  -11.5334   20.3274 N   0  0  0  0  0  0  0  0  0  0  0  0
  -26.2103  -12.8062   20.1781 N   0  0  0  0  0  0  0  0  0  0  0  0
  -27.7282  -30.1310   19.6225 N   0  0  0  0  0  0  0  0  0  0  0  0
  -29.9586  -13.5146   20.4180 N   0  0  0  0  0  0  0  0  0  0  0  0
  -25.4867  -15.0533   20.3720 N   0  0  0  0  0  0  0  0  0  0  0  0
  -21.8379  -12.6767   21.5694 N   0  0  0  0  0  0  0  0  0  0  0  0
  -26.1185  -30.1159   22.8066 N   0  0  0  0  0  0  0  0  0  0  0  0
  -28.0579  -32.0282   16.8385 N   0  0  0  0  0  0  0  0  0  0  0  0
  -30.1590  -15.5974   21.5205 N   0  0  0  0  0  0  0  0  0  0  0  0
  -31.3277  -31.9869   15.2975 N   0  3  0  0  0  0  0  0  0  0  0  0
  -22.6604  -14.7942   21.2563 O   0  0  0  0  0  0  0  0  0  0  0  0
  -25.9113  -28.7312   20.9460 O   0  0  0  0  0  0  0  0  0  0  0  0
  -27.2023  -32.4012   19.5473 O   0  0  0  0  0  0  0  0  0  0  0  0
  -29.1438  -30.2779   15.7734 O   0  0  0  0  0  0  0  0  0  0  0  0
  -31.8937  -14.7830   20.2616 O   0  0  0  0  0  0  0  0  0  0  0  0
  -21.4496   -7.1235   21.7854 O   0  0  0  0  0  0  0  0  0  0  0  0
  -29.7372  -24.3199   19.0253 O   0  0  0  0  0  0  0  0  0  1  0  0
  -23.7637   -3.0798   24.7346 F   0  0  0  0  0  0  0  0  0  0  0  0
  -20.3574   -6.3219   24.1952 F   0  0  0  0  0  0  0  0  0  0  0  0
  1  2  1  0  0  0  0
  1  5  2  0  0  0  0
  2  6  2  0  0  0  0
  3  8  2  0  0  0  0
  3 15  1  0  0  0  0
  4  9  1  0  0  0  0
  4 15  2  0  0  0  0
  5 17  1  0  0  0  0
  6 19  1  0  0  0  0
  7 10  2  0  0  0  0
  7 18  1  0  0  0  0
  8 21  1  0  0  0  0
  9 21  2  0  0  0  0
 10 22  1  0  0  0  0
 11 12  2  0  0  0  0
 11 23  1  0  0  0  0
 12 24  1  0  0  0  0
 13 20  1  0  0  0  0
 13 22  2  0  0  0  0
 14 24  2  0  0  0  0
 14 25  1  0  0  0  0
 15 26  1  0  0  0  0
 16 26  1  0  0  0  0
 16 27  2  0  0  0  0
 16 28  1  0  0  0  0
 17 19  2  0  0  0  0
 17 33  1  0  0  0  0
 18 20  2  0  0  0  0
 18 34  1  0  0  0  0
 19 42  1  0  0  0  0
 20 35  1  0  0  0  0
 21 79  1  0  0  0  0
 22 80  1  0  0  0  0
 23 25  2  0  0  0  0
 23 79  1  0  0  0  0
 24 81  1  0  0  0  0
 25 82  1  0  0  0  0
 26 64  2  0  0  0  0
 27 65  1  0  0  0  0
 27 68  1  0  0  0  0
 28 69  1  0  0  0  0
 28 74  2  0  0  0  0
 29 43  1  0  0  0  0
 29 70  1  0  0  0  0
 29 75  2  0  0  0  0
 30 57  1  0  0  0  0
 30 66  1  0  0  0  0
 30 76  2  0  0  0  0
 31 58  1  0  0  0  0
 31 71  1  0  0  0  0
 31 77  2  0  0  0  0
 32 67  1  0  0  0  0
 32 72  1  0  0  0  0
 32 78  2  0  0  0  0
 33 36  1  0  0  0  0
 34 43  1  0  0  0  0
 35 66  1  0  0  0  0
 36 38  1  0  0  0  0
 37 39  1  0  0  0  0
 37 40  1  0  0  0  0
 38 42  1  0  0  0  0
 39 44  1  0  0  0  0
 40 67  1  0  0  0  0
 41 44  1  0  0  0  0
 41 67  1  0  0  0  0
 42 70  1  0  0  0  0
 43 66  1  0  0  0  0
 44 65  1  0  0  0  0
 45 58  1  0  0  0  0
 46 59  1  0  0  0  0
 47 60  1  0  0  0  0
 48 61  1  0  0  0  0
 49 62  1  0  0  0  0
 50 63  1  0  0  0  0
 51 63  1  0  0  0  0
 52 63  1  0  0  0  0
 53 73  1  0  0  0  0
 54 59  1  0  0  0  0
 54 60  1  0  0  0  0
 55 61  1  0  0  0  0
 55 72  1  0  0  0  0
 56 59  1  0  0  0  0
 56 80  1  0  0  0  0
 57 63  1  0  0  0  0
 57 71  1  0  0  0  0
 58 73  1  0  0  0  0
 60 62  1  0  0  0  0
 61 62  1  0  0  0  0
 64 65  1  0  0  0  0
M  CHG  1  73   1
M  ISO  4  32 100  56 101  72 100  80 101
M  END
> <Batch ID>
0099

> <Smiles>
CNC(C)C(=O)NC(C(=O)N1Cc2cc([101O:1][101CH2:1]C(C)CC(C)C(C)C(C)C[100NH:0][100C:0](=O)N3CCCC(n4nc(-c5ccc(Oc6ccc(F)cc6F)cc5)c(C(N)=O)c4N)C3)ccc2CC1C(=O)NC1CCCc2ccccc21)C(C)(C)C

> <Shape>
0.349

> <Color>
0.194

> <Negative vol penalty>
0.000

$$$$

  -OEChem-04052319313D

 87 95  0     1  0  0  0  0  0999 V2000
  -19.3630   -9.3011   21.8464 C   0  0  0  0  0  0  0  0  0  0  0  0
  -19.6282  -10.4755   22.5435 C   0  0  0  0  0  0  0  0  0  0  0  0
  -24.2223  -28.4990   19.7197 C   0  0  0  0  0  0  0  0  0  0  0  0
  -24.2746  -27.6917   21.9962 C   0  0  0  0  0  0  0  0  0  0  0  0
  -20.3975   -8.6281   21.1977 C   0  0  0  0  0  0  0  0  0  0  0  0
  -20.9284  -10.9769   22.5933 C   0  0  0  0  0  0  0  0  0  0  0  0
  -24.5164  -17.1711   22.8668 C   0  0  0  0  0  0  0  0  0  0  0  0
  -22.9070  -28.9261   19.9013 C   0  0  0  0  0  0  0  0  0  0  0  0
  -22.9592  -28.1189   22.1779 C   0  0  0  0  0  0  0  0  0  0  0  0
  -25.5057  -17.8108   23.6124 C   0  0  0  0  0  0  0  0  0  0  0  0
  -19.8559  -27.0332   21.3895 C   0  0  0  0  0  0  0  0  0  0  0  0
  -18.9732  -26.1606   22.0259 C   0  0  0  0  0  0  0  0  0  0  0  0
  -27.1992  -16.6060   22.3877 C   0  0  0  0  0  0  0  0  0  0  0  0
  -18.6105  -27.7967   23.7662 C   0  0  0  0  0  0  0  0  0  0  0  0
  -30.7780  -18.0795   25.8419 C   0  0  0  0  0  0  0  0  0  0  0  0
  -24.9062  -27.8817   20.7671 C   0  0  0  0  0  0  0  0  0  0  0  0
  -27.4393  -28.1792   20.8154 C   0  0  0  0  0  0  0  0  0  0  0  0
  -21.7093   -9.1267   21.2314 C   0  0  0  0  0  0  0  0  0  0  0  0
  -24.8613  -16.2344   21.8818 C   0  0  0  0  0  0  0  0  0  0  0  0
  -21.9817  -10.3092   21.9455 C   0  0  0  0  0  0  0  0  0  0  0  0
  -26.2125  -15.9578   21.6292 C   0  0  0  0  0  0  0  0  0  0  0  0
  -30.0768  -18.5721   24.7250 C   0  0  0  0  0  0  0  0  0  0  0  0
  -22.2754  -28.7361   21.1304 C   0  0  0  0  0  0  0  0  0  0  0  0
  -26.8472  -17.5261   23.3749 C   0  0  0  0  0  0  0  0  0  0  0  0
  -20.1160  -28.2875   21.9415 C   0  0  0  0  0  0  0  0  0  0  0  0
  -18.3505  -26.5424   23.2143 C   0  0  0  0  0  0  0  0  0  0  0  0
  -19.4933  -28.6693   23.1298 C   0  0  0  0  0  0  0  0  0  0  0  0
  -26.2647  -27.4398   20.5799 C   0  0  0  0  0  0  0  0  0  0  0  0
  -30.4116  -19.9030   24.6689 C   0  0  0  0  0  0  0  0  0  0  0  0
  -28.4583  -27.3186   20.4877 C   0  0  0  0  0  0  0  0  0  0  0  0
  -27.5953  -29.5238   21.2881 C   0  0  0  0  0  0  0  0  0  0  0  0
  -24.3079  -13.1355   21.4415 C   0  0  0  0  0  0  0  0  0  0  0  0
  -25.7566  -13.6800   18.5907 C   0  0  0  0  0  0  0  0  0  0  0  0
  -27.8962  -15.5960   16.7474 C   0  0  0  0  0  0  0  0  0  0  0  0
  -28.8577  -21.3466   20.3242 C   0  0  0  0  0  0  0  0  0  0  0  0
  -22.8029   -8.3390   20.5546 C   0  0  0  0  0  0  0  0  0  0  0  0
  -23.7832  -15.5729   21.0678 C   0  0  0  0  0  0  0  0  0  0  0  0
  -26.6361  -14.9753   20.5692 C   0  0  0  0  0  0  0  0  0  0  0  0
  -24.0864   -9.1376   20.3417 C   0  0  0  0  0  0  0  0  0  0  0  0
  -29.4536  -23.6063   17.6382 C   0  0  0  0  0  0  0  0  0  0  0  0
  -24.4637   -9.8907   21.6134 C   0  0  0  0  0  0  0  0  0  0  0  0
  -28.8099  -24.9118   18.1087 C   0  0  0  0  0  0  0  0  0  0  0  0
  -28.6501  -22.3874   18.0859 C   0  0  0  0  0  0  0  0  0  0  0  0
  -27.7291  -23.6313   20.0038 C   0  0  0  0  0  0  0  0  0  0  0  0
  -23.3746  -10.8980   22.0017 C   0  0  1  0  0  0  0  0  0  0  0  0
  -24.2303  -14.2551   20.4425 C   0  0  1  0  0  0  0  0  0  0  0  0
  -28.5336  -24.8863   19.6241 C   0  0  2  0  0  0  0  0  0  0  0  0
  -28.9094  -15.7710   14.4583 C   0  0  0  0  0  0  0  0  0  0  0  0
  -33.7280  -23.0441   27.8755 C   0  0  0  0  0  0  0  0  0  0  0  0
  -31.7556  -23.4780   29.3528 C   0  0  0  0  0  0  0  0  0  0  0  0
  -31.1758  -21.6659   22.9276 C   0  0  0  0  0  0  0  0  0  0  0  0
  -27.6496  -11.3812   19.2554 C   0  0  0  0  0  0  0  0  0  0  0  0
  -29.1745  -12.2068   17.4495 C   0  0  0  0  0  0  0  0  0  0  0  0
  -26.8709  -11.4376   16.8795 C   0  0  0  0  0  0  0  0  0  0  0  0
  -26.6824  -18.2556   16.2868 C   0  0  0  0  0  0  0  0  0  0  0  0
  -29.1689  -17.8093   23.8056 C   0  0  0  0  0  0  0  0  0  1  0  0
  -31.5424  -21.7824   27.5117 C   0  0  0  0  0  0  0  0  0  0  0  0
  -31.8884  -21.3666   26.0804 C   0  0  0  0  0  0  0  0  0  0  0  0
  -29.0023  -20.4405   22.6301 C   0  0  0  0  0  0  0  0  0  0  0  0
  -29.2232  -22.1432   24.4472 C   0  0  0  0  0  0  0  0  0  0  0  0
  -27.1798  -13.6362   18.0891 C   0  0  1  0  0  0  0  0  0  0  0  0
  -27.7656  -16.2036   15.3624 C   0  0  2  0  0  0  0  0  0  0  0  0
  -32.2012  -23.1070   27.9363 C   0  0  0  0  0  0  0  0  0  0  0  0
  -30.0084  -20.9699   23.7333 C   0  0  1  0  0  0  0  0  0  0  0  0
  -27.7110  -12.1826   17.9398 C   0  0  0  0  0  0  0  0  0  0  0  0
  -31.5036  -19.0209   26.4513 N   0  0  0  0  0  0  0  0  0  0  0  0
  -26.5132  -26.2045   20.1367 N   0  0  0  0  0  0  0  0  0  0  0  0
  -31.2602  -20.1182   25.7147 N   0  0  0  0  0  0  0  0  0  0  0  0
  -27.8556  -26.1612   20.0910 N   0  0  0  0  0  0  0  0  0  0  0  0
  -25.5448  -14.3497   19.8042 N   0  0  0  0  0  0  0  0  0  0  0  0
  -28.4240  -22.4230   19.5328 N   0  0  0  0  0  0  0  0  0  0  0  0
  -29.8021  -27.4465   20.5029 N   0  0  0  0  0  0  0  0  0  0  0  0
  -26.4435  -30.2681   21.5777 N   0  0  0  0  0  0  0  0  0  0  0  0
  -23.4591  -12.0794   21.1700 N   0  0  0  0  0  0  0  0  0  0  0  0
  -27.2008  -14.4100   16.8526 N   0  0  0  0  0  0  0  0  0  0  0  0
  -28.6098  -21.4633   21.6864 N   0  0  0  0  0  0  0  0  0  0  0  0
  -27.9590  -21.6507   25.0538 N   0  3  0  0  0  0  0  0  0  0  0  0
  -27.7702  -17.6914   15.4469 N   0  3  0  0  0  0  0  0  0  0  0  0
  -28.7223  -30.0552   21.4333 O   0  0  0  0  0  0  0  0  0  0  0  0
  -25.0816  -13.2225   22.3878 O   0  0  0  0  0  0  0  0  0  0  0  0
  -24.8646  -13.1462   17.9267 O   0  0  0  0  0  0  0  0  0  0  0  0
  -28.5528  -16.1192   17.6451 O   0  0  0  0  0  0  0  0  0  0  0  0
  -29.4285  -20.3574   19.8524 O   0  0  0  0  0  0  0  0  0  0  0  0
  -20.9920  -29.1530   21.3081 O   0  0  0  0  0  0  0  0  0  0  0  0
  -27.8148  -18.1486   24.1017 O   0  0  0  0  0  0  0  0  0  1  0  0
  -17.5017  -25.7049   23.8245 F   0  0  0  0  0  0  0  0  0  0  0  0
  -19.7383  -29.8735   23.6643 F   0  0  0  0  0  0  0  0  0  0  0  0
  1  2  1  0  0  0  0
  1  5  2  0  0  0  0
  2  6  2  0  0  0  0
  3  8  2  0  0  0  0
  3 16  1  0  0  0  0
  4  9  1  0  0  0  0
  4 16  2  0  0  0  0
  5 18  1  0  0  0  0
  6 20  1  0  0  0  0
  7 10  2  0  0  0  0
  7 19  1  0  0  0  0
  8 23  1  0  0  0  0
  9 23  2  0  0  0  0
 10 24  1  0  0  0  0
 11 12  2  0  0  0  0
 11 25  1  0  0  0  0
 12 26  1  0  0  0  0
 13 21  1  0  0  0  0
 13 24  2  0  0  0  0
 14 26  2  0  0  0  0
 14 27  1  0  0  0  0
 15 22  1  0  0  0  0
 15 66  2  0  0  0  0
 16 28  1  0  0  0  0
 17 28  1  0  0  0  0
 17 30  2  0  0  0  0
 17 31  1  0  0  0  0
 18 20  2  0  0  0  0
 18 36  1  0  0  0  0
 19 21  2  0  0  0  0
 19 37  1  0  0  0  0
 20 45  1  0  0  0  0
 21 38  1  0  0  0  0
 22 29  2  0  0  0  0
 22 56  1  0  0  0  0
 23 84  1  0  0  0  0
 24 85  1  0  0  0  0
 25 27  2  0  0  0  0
 25 84  1  0  0  0  0
 26 86  1  0  0  0  0
 27 87  1  0  0  0  0
 28 67  2  0  0  0  0
 29 64  1  0  0  0  0
 29 68  1  0  0  0  0
 30 69  1  0  0  0  0
 30 72  1  0  0  0  0
 31 73  1  0  0  0  0
 31 79  2  0  0  0  0
 32 46  1  0  0  0  0
 32 74  1  0  0  0  0
 32 80  2  0  0  0  0
 33 61  1  0  0  0  0
 33 70  1  0  0  0  0
 33 81  2  0  0  0  0
 34 62  1  0  0  0  0
 34 75  1  0  0  0  0
 34 82  2  0  0  0  0
 35 71  1  0  0  0  0
 35 76  1  0  0  0  0
 35 83  2  0  0  0  0
 36 39  1  0  0  0  0
 37 46  1  0  0  0  0
 38 70  1  0  0  0  0
 39 41  1  0  0  0  0
 40 42  1  0  0  0  0
 40 43  1  0  0  0  0
 41 45  1  0  0  0  0
 42 47  1  0  0  0  0
 43 71  1  0  0  0  0
 44 47  1  0  0  0  0
 44 71  1  0  0  0  0
 45 74  1  0  0  0  0
 46 70  1  0  0  0  0
 47 69  1  0  0  0  0
 48 62  1  0  0  0  0
 49 63  1  0  0  0  0
 50 63  1  0  0  0  0
 51 64  1  0  0  0  0
 52 65  1  0  0  0  0
 53 65  1  0  0  0  0
 54 65  1  0  0  0  0
 55 78  1  0  0  0  0
 56 85  1  0  0  0  0
 57 58  1  0  0  0  0
 57 63  1  0  0  0  0
 58 68  1  0  0  0  0
 59 64  1  0  0  0  0
 59 76  1  0  0  0  0
 60 64  1  0  0  0  0
 60 77  1  0  0  0  0
 61 65  1  0  0  0  0
 61 75  1  0  0  0  0
 62 78  1  0  0  0  0
 66 68  1  0  0  0  0
 67 69  1  0  0  0  0
M  CHG  2  77   1  78   1
M  ISO  4  35 100  56 101  76 100  85 101
M  END
> <Batch ID>
0099

> <Smiles>
CNC(C)C(=O)NC(C(=O)N1Cc2cc([101O:1][101CH2:1]c3cnn(CCC(C)C)c3C(C)(CN)C[100NH:0][100C:0](=O)N3CCCC(n4nc(-c5ccc(Oc6ccc(F)cc6F)cc5)c(C(N)=O)c4N)C3)ccc2CC1C(=O)NC1CCCc2ccccc21)C(C)(C)C

> <Shape>
0.247

> <Color>
0.053

> <Negative vol penalty>
0.000

$$$$

  -OEChem-04052319313D

 84 92  0     1  0  0  0  0  0999 V2000
  -27.6379  -34.5447   23.8743 C   0  0  0  0  0  0  0  0  0  0  0  0
  -27.0143  -33.7255   24.8099 C   0  0  0  0  0  0  0  0  0  0  0  0
  -24.6093  -15.9629   22.4221 C   0  0  0  0  0  0  0  0  0  0  0  0
  -25.6481  -16.8798   20.4429 C   0  0  0  0  0  0  0  0  0  0  0  0
  -27.4227  -34.3353   22.5127 C   0  0  0  0  0  0  0  0  0  0  0  0
  -26.1741  -32.6971   24.3845 C   0  0  0  0  0  0  0  0  0  0  0  0
  -24.0745  -26.0926   26.1980 C   0  0  0  0  0  0  0  0  0  0  0  0
  -25.0398  -14.6873   22.0571 C   0  0  0  0  0  0  0  0  0  0  0  0
  -26.0786  -15.6043   20.0779 C   0  0  0  0  0  0  0  0  0  0  0  0
  -22.9125  -25.3534   26.4151 C   0  0  0  0  0  0  0  0  0  0  0  0
  -28.5573  -13.4733   20.9356 C   0  0  0  0  0  0  0  0  0  0  0  0
  -29.8743  -13.3362   20.4974 C   0  0  0  0  0  0  0  0  0  0  0  0
  -22.6775  -25.0353   24.0354 C   0  0  0  0  0  0  0  0  0  0  0  0
  -20.3314  -27.6600   22.1058 C   0  0  0  0  0  0  0  0  0  0  0  0
  -29.0806  -12.5046   18.3724 C   0  0  0  0  0  0  0  0  0  0  0  0
  -18.4034  -26.5032   22.2258 C   0  0  0  0  0  0  0  0  0  0  0  0
  -24.9135  -17.0592   21.6150 C   0  0  0  0  0  0  0  0  0  0  0  0
  -25.1580  -19.3122   22.7861 C   0  0  0  0  0  0  0  0  0  0  0  0
  -26.5872  -33.2977   22.0702 C   0  0  0  0  0  0  0  0  0  0  0  0
  -24.5415  -26.3183   24.8951 C   0  0  0  0  0  0  0  0  0  0  0  0
  -25.9465  -32.4745   23.0158 C   0  0  0  0  0  0  0  0  0  0  0  0
  -23.8470  -25.7755   23.8046 C   0  0  0  0  0  0  0  0  0  0  0  0
  -19.5017  -26.7337   21.4271 C   0  0  0  0  0  0  0  0  0  0  0  0
  -25.7744  -14.5080   20.8850 C   0  0  0  0  0  0  0  0  0  0  0  0
  -22.2122  -24.8270   25.3336 C   0  0  0  0  0  0  0  0  0  0  0  0
  -27.5018  -13.1260   20.0923 C   0  0  0  0  0  0  0  0  0  0  0  0
  -30.1360  -12.8519   19.2157 C   0  0  0  0  0  0  0  0  0  0  0  0
  -27.7635  -12.6417   18.8107 C   0  0  0  0  0  0  0  0  0  0  0  0
  -24.4686  -18.3770   21.9912 C   0  0  0  0  0  0  0  0  0  0  0  0
  -19.7150  -27.9673   23.2987 C   0  0  0  0  0  0  0  0  0  0  0  0
  -24.3177  -20.3970   22.8467 C   0  0  0  0  0  0  0  0  0  0  0  0
  -26.4431  -19.2096   23.4136 C   0  0  0  0  0  0  0  0  0  0  0  0
  -25.0253  -28.8972   23.1010 C   0  0  0  0  0  0  0  0  0  0  0  0
  -26.3058  -26.7444   21.0398 C   0  0  0  0  0  0  0  0  0  0  0  0
  -26.4655  -23.5127   19.9547 C   0  0  0  0  0  0  0  0  0  0  0  0
  -21.0306  -24.0110   20.3808 C   0  0  0  0  0  0  0  0  0  0  0  0
  -26.3478  -33.1399   20.5895 C   0  0  0  0  0  0  0  0  0  0  0  0
  -25.8112  -27.0952   24.6793 C   0  0  0  0  0  0  0  0  0  0  0  0
  -24.3177  -25.9720   22.3874 C   0  0  0  0  0  0  0  0  0  0  0  0
  -25.7388  -31.7923   20.2111 C   0  0  0  0  0  0  0  0  0  0  0  0
  -19.4895  -20.9078   21.4260 C   0  0  0  0  0  0  0  0  0  0  0  0
  -24.5764  -31.4525   21.1386 C   0  0  0  0  0  0  0  0  0  0  0  0
  -20.7164  -20.0472   21.7330 C   0  0  0  0  0  0  0  0  0  0  0  0
  -19.7313  -21.8027   20.2140 C   0  0  0  0  0  0  0  0  0  0  0  0
  -22.1602  -21.8192   20.6307 C   0  0  0  0  0  0  0  0  0  0  0  0
  -25.0478  -31.3328   22.5929 C   0  0  1  0  0  0  0  0  0  0  0  0
  -25.9126  -27.6981   23.2816 C   0  0  1  0  0  0  0  0  0  0  0  0
  -21.9872  -20.9081   21.8595 C   0  0  2  0  0  0  0  0  0  0  0  0
  -20.1448  -28.8762   24.3814 C   0  0  0  0  0  0  0  0  0  0  0  0
  -27.2744  -21.5362   18.6369 C   0  0  0  0  0  0  0  0  0  0  0  0
  -18.6522  -22.6322   26.1527 C   0  0  0  0  0  0  0  0  0  0  0  0
  -24.4275  -27.8563   18.9078 C   0  0  0  0  0  0  0  0  0  0  0  0
  -24.8807  -25.8087   17.5401 C   0  0  0  0  0  0  0  0  0  0  0  0
  -26.7448  -27.3674   18.1043 C   0  0  0  0  0  0  0  0  0  0  0  0
  -28.5487  -22.8816   21.9599 C   0  0  0  0  0  0  0  0  0  0  0  0
  -19.7642  -26.1273   20.1081 C   0  0  0  0  0  0  0  0  0  0  0  0
  -18.0275  -26.4596   25.6890 C   0  0  0  0  0  0  0  0  0  0  0  0
  -18.2710  -25.0017   25.2854 C   0  0  0  0  0  0  0  0  0  0  0  0
  -17.5508  -27.2909   24.4944 C   0  0  0  0  0  0  0  0  0  0  0  0
  -20.2997  -24.4371   26.6923 C   0  0  0  0  0  0  0  0  0  1  0  0
  -25.7708  -25.8939   19.9132 C   0  0  1  0  0  0  0  0  0  0  0  0
  -27.6471  -22.6109   19.6464 C   0  0  2  0  0  0  0  0  0  0  0  0
  -18.8184  -24.1267   26.4337 C   0  0  2  0  0  0  0  0  0  0  0  0
  -25.4458  -26.7293   18.6428 C   0  0  0  0  0  0  0  0  0  0  0  0
  -23.2817  -18.8281   21.5767 N   0  0  0  0  0  0  0  0  0  0  0  0
  -18.5439  -27.2581   23.3610 N   0  0  0  0  0  0  0  0  0  0  0  0
  -23.2188  -20.0586   22.1132 N   0  0  0  0  0  0  0  0  0  0  0  0
  -25.5610  -26.7442   22.2277 N   0  0  0  0  0  0  0  0  0  0  0  0
  -20.9449  -22.6091   20.4061 N   0  0  0  0  0  0  0  0  0  0  0  0
  -24.4191  -21.5977   23.4553 N   0  0  0  0  0  0  0  0  0  0  0  0
  -27.1741  -18.0251   23.2494 N   0  0  0  0  0  0  0  0  0  0  0  0
  -25.7073  -30.0626   22.8075 N   0  0  0  0  0  0  0  0  0  0  0  0
  -26.7528  -24.8366   19.6980 N   0  0  0  0  0  0  0  0  0  0  0  0
  -19.8359  -24.6839   20.1556 N   0  0  0  0  0  0  0  0  0  0  0  0
  -28.1267  -21.9425   20.8890 N   0  3  0  0  0  0  0  0  0  0  0  0
  -26.9216  -20.1344   24.1131 O   0  0  0  0  0  0  0  0  0  0  0  0
  -23.8117  -28.7738   23.2177 O   0  0  0  0  0  0  0  0  0  0  0  0
  -27.3502  -27.3798   20.8745 O   0  0  0  0  0  0  0  0  0  0  0  0
  -25.3936  -23.0850   20.3773 O   0  0  0  0  0  0  0  0  0  0  0  0
  -22.0928  -24.6189   20.5518 O   0  0  0  0  0  0  0  0  0  0  0  0
  -26.1948  -13.2635   20.5286 O   0  0  0  0  0  0  0  0  0  0  0  0
  -21.0774  -24.1057   25.5426 O   0  0  0  0  0  0  0  0  0  1  0  0
  -31.4008  -12.7217   18.7944 F   0  0  0  0  0  0  0  0  0  0  0  0
  -26.7537  -12.3076   17.9955 F   0  0  0  0  0  0  0  0  0  0  0  0
  1  2  1  0  0  0  0
  1  5  2  0  0  0  0
  2  6  2  0  0  0  0
  3  8  2  0  0  0  0
  3 17  1  0  0  0  0
  4  9  1  0  0  0  0
  4 17  2  0  0  0  0
  5 19  1  0  0  0  0
  6 21  1  0  0  0  0
  7 10  2  0  0  0  0
  7 20  1  0  0  0  0
  8 24  1  0  0  0  0
  9 24  2  0  0  0  0
 10 25  1  0  0  0  0
 11 12  2  0  0  0  0
 11 26  1  0  0  0  0
 12 27  1  0  0  0  0
 13 22  1  0  0  0  0
 13 25  2  0  0  0  0
 14 23  1  0  0  0  0
 14 30  2  0  0  0  0
 15 27  2  0  0  0  0
 15 28  1  0  0  0  0
 16 23  2  0  0  0  0
 16 66  1  0  0  0  0
 17 29  1  0  0  0  0
 18 29  1  0  0  0  0
 18 31  2  0  0  0  0
 18 32  1  0  0  0  0
 19 21  2  0  0  0  0
 19 37  1  0  0  0  0
 20 22  2  0  0  0  0
 20 38  1  0  0  0  0
 21 46  1  0  0  0  0
 22 39  1  0  0  0  0
 23 56  1  0  0  0  0
 24 81  1  0  0  0  0
 25 82  1  0  0  0  0
 26 28  2  0  0  0  0
 26 81  1  0  0  0  0
 27 83  1  0  0  0  0
 28 84  1  0  0  0  0
 29 65  2  0  0  0  0
 30 49  1  0  0  0  0
 30 66  1  0  0  0  0
 31 67  1  0  0  0  0
 31 70  1  0  0  0  0
 32 71  1  0  0  0  0
 32 76  2  0  0  0  0
 33 47  1  0  0  0  0
 33 72  1  0  0  0  0
 33 77  2  0  0  0  0
 34 61  1  0  0  0  0
 34 68  1  0  0  0  0
 34 78  2  0  0  0  0
 35 62  1  0  0  0  0
 35 73  1  0  0  0  0
 35 79  2  0  0  0  0
 36 69  1  0  0  0  0
 36 74  1  0  0  0  0
 36 80  2  0  0  0  0
 37 40  1  0  0  0  0
 38 47  1  0  0  0  0
 39 68  1  0  0  0  0
 40 42  1  0  0  0  0
 41 43  1  0  0  0  0
 41 44  1  0  0  0  0
 42 46  1  0  0  0  0
 43 48  1  0  0  0  0
 44 69  1  0  0  0  0
 45 48  1  0  0  0  0
 45 69  1  0  0  0  0
 46 72  1  0  0  0  0
 47 68  1  0  0  0  0
 48 67  1  0  0  0  0
 50 62  1  0  0  0  0
 51 63  1  0  0  0  0
 52 64  1  0  0  0  0
 53 64  1  0  0  0  0
 54 64  1  0  0  0  0
 55 75  1  0  0  0  0
 56 74  1  0  0  0  0
 57 58  1  0  0  0  0
 57 59  1  0  0  0  0
 58 63  1  0  0  0  0
 59 66  1  0  0  0  0
 60 63  1  0  0  0  0
 60 82  1  0  0  0  0
 61 64  1  0  0  0  0
 61 73  1  0  0  0  0
 62 75  1  0  0  0  0
 65 67  1  0  0  0  0
M  CHG  1  75   1
M  ISO  4  36 100  60 101  74 100  82 101
M  END
> <Batch ID>
0099

> <Smiles>
CNC(C)C(=O)NC(C(=O)N1Cc2cc([101O:1][101CH2:1]C(C)CCCn3cc(C[100NH:0][100C:0](=O)N4CCCC(n5nc(-c6ccc(Oc7ccc(F)cc7F)cc6)c(C(N)=O)c5N)C4)cc3C)ccc2CC1C(=O)NC1CCCc2ccccc21)C(C)(C)C

> <Shape>
0.201

> <Color>
0.053

> <Negative vol penalty>
0.000

$$$$

  -OEChem-04052319313D

 87 95  0     1  0  0  0  0  0999 V2000
  -16.9496  -28.7815   24.3782 C   0  0  0  0  0  0  0  0  0  0  0  0
  -17.3674  -27.8055   23.4792 C   0  0  0  0  0  0  0  0  0  0  0  0
  -25.6118  -15.3621   22.5611 C   0  0  0  0  0  0  0  0  0  0  0  0
  -25.2839  -14.7592   20.2446 C   0  0  0  0  0  0  0  0  0  0  0  0
  -17.6060  -30.0107   24.4257 C   0  0  0  0  0  0  0  0  0  0  0  0
  -18.4411  -28.0586   22.6262 C   0  0  0  0  0  0  0  0  0  0  0  0
  -22.6325  -24.0350   20.6901 C   0  0  0  0  0  0  0  0  0  0  0  0
  -24.6119  -14.4649   22.9362 C   0  0  0  0  0  0  0  0  0  0  0  0
  -24.2840  -13.8619   20.6198 C   0  0  0  0  0  0  0  0  0  0  0  0
  -22.7575  -23.3063   19.5081 C   0  0  0  0  0  0  0  0  0  0  0  0
  -21.8940  -11.1487   21.0005 C   0  0  0  0  0  0  0  0  0  0  0  0
  -21.9064   -9.8817   20.4172 C   0  0  0  0  0  0  0  0  0  0  0  0
  -28.6041  -23.6171   11.8967 C   0  0  0  0  0  0  0  0  0  0  0  0
  -24.2385  -24.9959   18.6301 C   0  0  0  0  0  0  0  0  0  0  0  0
  -28.3466  -24.5980   14.0775 C   0  0  0  0  0  0  0  0  0  0  0  0
  -24.1038   -9.4795   21.3375 C   0  0  0  0  0  0  0  0  0  0  0  0
  -29.5920  -22.8091   12.4360 C   0  0  0  0  0  0  0  0  0  0  0  0
  -25.9478  -15.5093   21.2153 C   0  0  0  0  0  0  0  0  0  0  0  0
  -28.3571  -16.1715   20.7009 C   0  0  0  0  0  0  0  0  0  0  0  0
  -18.6944  -30.2754   23.5795 C   0  0  0  0  0  0  0  0  0  0  0  0
  -23.3021  -25.2571   20.8470 C   0  0  0  0  0  0  0  0  0  0  0  0
  -19.1117  -29.2930   22.6614 C   0  0  0  0  0  0  0  0  0  0  0  0
  -24.1224  -25.7369   19.8160 C   0  0  0  0  0  0  0  0  0  0  0  0
  -27.9743  -24.5259   12.7398 C   0  0  0  0  0  0  0  0  0  0  0  0
  -23.9480  -13.7148   21.9656 C   0  0  0  0  0  0  0  0  0  0  0  0
  -23.5583  -23.7881   18.4768 C   0  0  0  0  0  0  0  0  0  0  0  0
  -22.9866  -11.5811   21.7522 C   0  0  0  0  0  0  0  0  0  0  0  0
  -23.0113   -9.0471   20.5857 C   0  0  0  0  0  0  0  0  0  0  0  0
  -24.0914  -10.7465   21.9208 C   0  0  0  0  0  0  0  0  0  0  0  0
  -26.9802  -16.4364   20.8271 C   0  0  0  0  0  0  0  0  0  0  0  0
  -29.3459  -23.7459   14.5193 C   0  0  0  0  0  0  0  0  0  0  0  0
  -28.9030  -17.3700   20.3108 C   0  0  0  0  0  0  0  0  0  0  0  0
  -29.0781  -14.9512   20.9170 C   0  0  0  0  0  0  0  0  0  0  0  0
  -22.3955  -28.2679   21.3128 C   0  0  0  0  0  0  0  0  0  0  0  0
  -25.5845  -28.7688   21.6323 C   0  0  0  0  0  0  0  0  0  0  0  0
  -28.7630  -27.7372   20.9395 C   0  0  0  0  0  0  0  0  0  0  0  0
  -28.8470  -21.8022   17.1016 C   0  0  0  0  0  0  0  0  0  0  0  0
  -19.3423  -31.6363   23.6344 C   0  0  0  0  0  0  0  0  0  0  0  0
  -23.1781  -26.0180   22.1385 C   0  0  0  0  0  0  0  0  0  0  0  0
  -24.8784  -27.0335   19.9425 C   0  0  0  0  0  0  0  0  0  0  0  0
  -20.7094  -31.6877   22.9570 C   0  0  0  0  0  0  0  0  0  0  0  0
  -26.8885  -22.0071   20.1380 C   0  0  0  0  0  0  0  0  0  0  0  0
  -20.6565  -31.0025   21.5952 C   0  0  0  0  0  0  0  0  0  0  0  0
  -26.8539  -20.5421   20.5770 C   0  0  0  0  0  0  0  0  0  0  0  0
  -26.8025  -22.1313   18.6196 C   0  0  0  0  0  0  0  0  0  0  0  0
  -27.8143  -19.9047   18.3163 C   0  0  0  0  0  0  0  0  0  0  0  0
  -20.2881  -29.5207   21.7371 C   0  0  1  0  0  0  0  0  0  0  0  0
  -23.4969  -27.5026   21.9903 C   0  0  1  0  0  0  0  0  0  0  0  0
  -27.9206  -19.7109   19.8398 C   0  0  2  0  0  0  0  0  0  0  0  0
  -31.1634  -28.3721   21.3033 C   0  0  0  0  0  0  0  0  0  0  0  0
  -25.3294  -30.9420   19.5058 C   0  0  0  0  0  0  0  0  0  0  0  0
  -27.8168  -30.8675   19.2309 C   0  0  0  0  0  0  0  0  0  0  0  0
  -26.8251  -31.5283   21.4224 C   0  0  0  0  0  0  0  0  0  0  0  0
  -21.8614  -22.8377   14.9859 C   0  0  0  0  0  0  0  0  0  0  0  0
  -24.1195  -21.7559   14.6968 C   0  0  0  0  0  0  0  0  0  0  0  0
  -29.3236  -25.2313   22.4110 C   0  0  0  0  0  0  0  0  0  0  0  0
  -22.5418  -24.9472   13.4860 C   0  0  0  0  0  0  0  0  0  0  0  0
  -26.8925  -25.4297   12.2045 C   0  0  0  0  0  0  0  0  0  0  0  0
  -29.7709  -23.7959   15.9489 C   0  0  0  0  0  0  0  0  0  0  0  0
  -25.4812  -24.8361   12.3048 C   0  0  0  0  0  0  0  0  0  0  0  0
  -24.9892  -24.5527   13.7208 C   0  0  0  0  0  0  0  0  0  0  0  0
  -23.9151  -23.8215   16.1257 C   0  0  0  0  0  0  0  0  0  1  0  0
  -26.7126  -29.1112   20.6895 C   0  0  1  0  0  0  0  0  0  0  0  0
  -29.9831  -27.5685   21.8268 C   0  0  2  0  0  0  0  0  0  0  0  0
  -26.6553  -30.5887   20.2087 C   0  0  0  0  0  0  0  0  0  0  0  0
  -23.3709  -23.0738   14.9019 C   0  0  0  0  0  0  0  0  0  0  0  0
  -29.9806  -22.8503   13.7302 N   0  0  0  0  0  0  0  0  0  0  0  0
  -26.6706  -17.7037   20.5405 N   0  0  0  0  0  0  0  0  0  0  0  0
  -27.8606  -18.2458   20.2305 N   0  0  0  0  0  0  0  0  0  0  0  0
  -24.7198  -27.7441   21.2221 N   0  0  0  0  0  0  0  0  0  0  0  0
  -27.8563  -21.3315   17.9793 N   0  0  0  0  0  0  0  0  0  0  0  0
  -30.1682  -17.7495   20.0322 N   0  0  0  0  0  0  0  0  0  0  0  0
  -28.3624  -13.8138   21.3151 N   0  0  0  0  0  0  0  0  0  0  0  0
  -21.4343  -28.7550   22.1779 N   0  0  0  0  0  0  0  0  0  0  0  0
  -27.9461  -28.7558   21.3827 N   0  0  0  0  0  0  0  0  0  0  0  0
  -28.8129  -23.1642   16.8288 N   0  0  0  0  0  0  0  0  0  0  0  0
  -30.3826  -26.1342   21.8910 N   0  3  0  0  0  0  0  0  0  0  0  0
  -23.6238  -23.9247   13.6934 N   0  3  1  0  0  0  0  0  0  0  0  0
  -30.3224  -14.8759   20.7775 O   0  0  0  0  0  0  0  0  0  0  0  0
  -22.4170  -28.4075   20.0956 O   0  0  0  0  0  0  0  0  0  0  0  0
  -25.4787  -29.3827   22.6970 O   0  0  0  0  0  0  0  0  0  0  0  0
  -28.5571  -27.0379   19.9500 O   0  0  0  0  0  0  0  0  0  0  0  0
  -29.7026  -21.0638   16.6018 O   0  0  0  0  0  0  0  0  0  0  0  0
  -22.9724  -12.8390   22.3313 O   0  0  0  0  0  0  0  0  0  0  0  0
  -23.6815  -23.0790   17.3218 O   0  0  0  0  0  0  0  0  0  1  0  0
  -23.0224   -7.8299   20.0268 F   0  0  0  0  0  0  0  0  0  0  0  0
  -25.1434  -11.1560   22.6429 F   0  0  0  0  0  0  0  0  0  0  0  0
  1  2  1  0  0  0  0
  1  5  2  0  0  0  0
  2  6  2  0  0  0  0
  3  8  2  0  0  0  0
  3 18  1  0  0  0  0
  4  9  1  0  0  0  0
  4 18  2  0  0  0  0
  5 20  1  0  0  0  0
  6 22  1  0  0  0  0
  7 10  2  0  0  0  0
  7 21  1  0  0  0  0
  8 25  1  0  0  0  0
  9 25  2  0  0  0  0
 10 26  1  0  0  0  0
 11 12  2  0  0  0  0
 11 27  1  0  0  0  0
 12 28  1  0  0  0  0
 13 17  2  0  0  0  0
 13 24  1  0  0  0  0
 14 23  1  0  0  0  0
 14 26  2  0  0  0  0
 15 24  2  0  0  0  0
 15 31  1  0  0  0  0
 16 28  2  0  0  0  0
 16 29  1  0  0  0  0
 17 67  1  0  0  0  0
 18 30  1  0  0  0  0
 19 30  1  0  0  0  0
 19 32  2  0  0  0  0
 19 33  1  0  0  0  0
 20 22  2  0  0  0  0
 20 38  1  0  0  0  0
 21 23  2  0  0  0  0
 21 39  1  0  0  0  0
 22 47  1  0  0  0  0
 23 40  1  0  0  0  0
 24 58  1  0  0  0  0
 25 84  1  0  0  0  0
 26 85  1  0  0  0  0
 27 29  2  0  0  0  0
 27 84  1  0  0  0  0
 28 86  1  0  0  0  0
 29 87  1  0  0  0  0
 30 68  2  0  0  0  0
 31 59  1  0  0  0  0
 31 67  2  0  0  0  0
 32 69  1  0  0  0  0
 32 72  1  0  0  0  0
 33 73  1  0  0  0  0
 33 79  2  0  0  0  0
 34 48  1  0  0  0  0
 34 74  1  0  0  0  0
 34 80  2  0  0  0  0
 35 63  1  0  0  0  0
 35 70  1  0  0  0  0
 35 81  2  0  0  0  0
 36 64  1  0  0  0  0
 36 75  1  0  0  0  0
 36 82  2  0  0  0  0
 37 71  1  0  0  0  0
 37 76  1  0  0  0  0
 37 83  2  0  0  0  0
 38 41  1  0  0  0  0
 39 48  1  0  0  0  0
 40 70  1  0  0  0  0
 41 43  1  0  0  0  0
 42 44  1  0  0  0  0
 42 45  1  0  0  0  0
 43 47  1  0  0  0  0
 44 49  1  0  0  0  0
 45 71  1  0  0  0  0
 46 49  1  0  0  0  0
 46 71  1  0  0  0  0
 47 74  1  0  0  0  0
 48 70  1  0  0  0  0
 49 69  1  0  0  0  0
 50 64  1  0  0  0  0
 51 65  1  0  0  0  0
 52 65  1  0  0  0  0
 53 65  1  0  0  0  0
 54 66  1  0  0  0  0
 55 66  1  0  0  0  0
 56 77  1  0  0  0  0
 57 78  1  0  0  0  0
 58 60  1  0  0  0  0
 59 76  1  0  0  0  0
 60 61  1  0  0  0  0
 61 78  1  0  0  0  0
 62 66  1  0  0  0  0
 62 85  1  0  0  0  0
 63 65  1  0  0  0  0
 63 75  1  0  0  0  0
 64 77  1  0  0  0  0
 66 78  1  0  0  0  0
 68 69  1  0  0  0  0
M  CHG  2  77   1  78   1
M  ISO  4  37 100  62 101  76 100  85 101
M  END
> <Batch ID>
0099

> <Smiles>
CNC(C)C(=O)NC(C(=O)N1Cc2cc([101O:1][101CH2:1]C(C)(C)N(C)CCCc3ccnc(C[100NH:0][100C:0](=O)N4CCCC(n5nc(-c6ccc(Oc7ccc(F)cc7F)cc6)c(C(N)=O)c5N)C4)c3)ccc2CC1C(=O)NC1CCCc2ccccc21)C(C)(C)C

> <Shape>
0.234

> <Color>
0.069

> <Negative vol penalty>
0.000

$$$$

  -OEChem-04052319313D

 87 95  0     1  0  0  0  0  0999 V2000
  -29.7329  -25.0649   16.9729 C   0  0  0  0  0  0  0  0  0  0  0  0
  -28.5929  -24.9872   17.7664 C   0  0  0  0  0  0  0  0  0  0  0  0
  -24.4290  -12.0328   21.0150 C   0  0  0  0  0  0  0  0  0  0  0  0
  -22.5469  -13.5000   20.6386 C   0  0  0  0  0  0  0  0  0  0  0  0
  -30.7722  -25.9231   17.3299 C   0  0  0  0  0  0  0  0  0  0  0  0
  -28.4919  -25.7669   18.9180 C   0  0  0  0  0  0  0  0  0  0  0  0
  -23.9605  -27.9814   19.3738 C   0  0  0  0  0  0  0  0  0  0  0  0
  -23.6160  -11.1818   21.7635 C   0  0  0  0  0  0  0  0  0  0  0  0
  -21.7337  -12.6490   21.3871 C   0  0  0  0  0  0  0  0  0  0  0  0
  -22.9070  -27.1885   19.8269 C   0  0  0  0  0  0  0  0  0  0  0  0
  -21.9519   -8.4376   23.4710 C   0  0  0  0  0  0  0  0  0  0  0  0
  -22.0537   -7.0672   23.2319 C   0  0  0  0  0  0  0  0  0  0  0  0
  -23.1700  -28.1140   22.0390 C   0  0  0  0  0  0  0  0  0  0  0  0
  -21.5633  -20.5992   22.9041 C   0  0  0  0  0  0  0  0  0  0  0  0
  -21.4006   -7.4197   20.9327 C   0  0  0  0  0  0  0  0  0  0  0  0
  -22.2379  -19.8553   20.8888 C   0  0  0  0  0  0  0  0  0  0  0  0
  -23.8945  -13.1920   20.4526 C   0  0  0  0  0  0  0  0  0  0  0  0
  -24.9708  -14.0200   18.2930 C   0  0  0  0  0  0  0  0  0  0  0  0
  -30.6798  -26.7209   18.4812 C   0  0  0  0  0  0  0  0  0  0  0  0
  -24.6349  -28.8399   20.2538 C   0  0  0  0  0  0  0  0  0  0  0  0
  -29.5314  -26.6356   19.2915 C   0  0  0  0  0  0  0  0  0  0  0  0
  -24.2300  -28.9186   21.5940 C   0  0  0  0  0  0  0  0  0  0  0  0
  -21.5038  -19.5087   22.0017 C   0  0  0  0  0  0  0  0  0  0  0  0
  -22.2683  -11.4898   21.9495 C   0  0  0  0  0  0  0  0  0  0  0  0
  -22.5135  -27.2526   21.1604 C   0  0  0  0  0  0  0  0  0  0  0  0
  -21.5744   -9.2991   22.4409 C   0  0  0  0  0  0  0  0  0  0  0  0
  -21.7781   -6.5582   21.9628 C   0  0  0  0  0  0  0  0  0  0  0  0
  -21.2988   -8.7902   21.1718 C   0  0  0  0  0  0  0  0  0  0  0  0
  -24.7340  -14.0718   19.6798 C   0  0  0  0  0  0  0  0  0  0  0  0
  -22.3317  -21.5791   22.3152 C   0  0  0  0  0  0  0  0  0  0  0  0
  -25.8311  -15.0632   18.0524 C   0  0  0  0  0  0  0  0  0  0  0  0
  -24.4587  -13.1102   17.3102 C   0  0  0  0  0  0  0  0  0  0  0  0
  -27.6244  -29.0749   21.3079 C   0  0  0  0  0  0  0  0  0  0  0  0
  -26.5086  -31.7854   22.6973 C   0  0  0  0  0  0  0  0  0  0  0  0
  -23.8373  -33.5382   23.8966 C   0  0  0  0  0  0  0  0  0  0  0  0
  -26.8976  -20.2124   20.9159 C   0  0  0  0  0  0  0  0  0  0  0  0
  -31.8489  -27.5985   18.8521 C   0  0  0  0  0  0  0  0  0  0  0  0
  -25.7518  -29.7084   19.7433 C   0  0  0  0  0  0  0  0  0  0  0  0
  -24.9081  -29.8390   22.5745 C   0  0  0  0  0  0  0  0  0  0  0  0
  -31.5041  -28.6681   19.8852 C   0  0  0  0  0  0  0  0  0  0  0  0
  -29.2563  -17.6545   20.1604 C   0  0  0  0  0  0  0  0  0  0  0  0
  -30.7037  -28.0624   21.0338 C   0  0  0  0  0  0  0  0  0  0  0  0
  -28.3861  -16.4416   19.8264 C   0  0  0  0  0  0  0  0  0  0  0  0
  -28.6463  -18.4958   21.2794 C   0  0  0  0  0  0  0  0  0  0  0  0
  -26.3819  -17.7045   20.7136 C   0  0  0  0  0  0  0  0  0  0  0  0
  -29.3741  -27.4838   20.5349 C   0  0  1  0  0  0  0  0  0  0  0  0
  -26.7028  -30.1674   20.8443 C   0  0  1  0  0  0  0  0  0  0  0  0
  -26.9279  -16.8560   19.5524 C   0  0  2  0  0  0  0  0  0  0  0  0
  -21.7300  -17.0091   22.2348 C   0  0  0  0  0  0  0  0  0  0  0  0
  -19.6634  -17.9949   21.1800 C   0  0  0  0  0  0  0  0  0  0  0  0
  -23.5982  -22.8187   24.0860 C   0  0  0  0  0  0  0  0  0  0  0  0
  -23.2435  -35.7091   25.0067 C   0  0  0  0  0  0  0  0  0  0  0  0
  -19.2791  -24.7448   22.3909 C   0  0  0  0  0  0  0  0  0  0  0  0
  -27.5931  -30.7254   25.3450 C   0  0  0  0  0  0  0  0  0  0  0  0
  -26.1724  -32.4165   26.5240 C   0  0  0  0  0  0  0  0  0  0  0  0
  -27.9700  -33.1686   24.9666 C   0  0  0  0  0  0  0  0  0  0  0  0
  -22.1048  -34.3521   21.6395 C   0  0  0  0  0  0  0  0  0  0  0  0
  -21.5098  -23.8639   23.1260 C   0  0  0  0  0  0  0  0  0  0  0  0
  -23.5620  -21.8329   20.1437 C   0  0  0  0  0  0  0  0  0  0  0  0
  -25.0440  -21.8116   20.5089 C   0  0  0  0  0  0  0  0  0  0  0  0
  -21.2851  -25.2269   20.9515 C   0  0  0  0  0  0  0  0  0  1  0  0
  -20.7885  -18.2360   22.2136 C   0  0  0  0  0  0  0  0  0  0  0  0
  -22.7234  -22.9525   22.8321 C   0  0  2  0  0  0  0  0  0  0  0  0
  -25.8705  -32.1225   24.0233 C   0  0  1  0  0  0  0  0  0  0  0  0
  -23.3979  -34.9756   23.6835 C   0  0  2  0  0  0  0  0  0  0  0  0
  -20.6325  -24.2134   21.9012 C   0  0  2  0  0  0  0  0  0  0  0  0
  -26.8898  -32.0894   25.1970 C   0  0  0  0  0  0  0  0  0  0  0  0
  -25.3911  -15.0689   20.2781 N   0  0  0  0  0  0  0  0  0  0  0  0
  -22.7361  -21.1160   21.0904 N   0  0  0  0  0  0  0  0  0  0  0  0
  -26.0492  -15.6533   19.2625 N   0  0  0  0  0  0  0  0  0  0  0  0
  -25.9989  -30.6634   22.0287 N   0  0  0  0  0  0  0  0  0  0  0  0
  -27.2637  -18.8569   20.9568 N   0  0  0  0  0  0  0  0  0  0  0  0
  -26.4148  -15.5242   16.9258 N   0  0  0  0  0  0  0  0  0  0  0  0
  -23.5858  -12.0966   17.7286 N   0  0  0  0  0  0  0  0  0  0  0  0
  -28.4154  -28.5437   20.3071 N   0  0  0  0  0  0  0  0  0  0  0  0
  -25.2091  -33.4102   23.8424 N   0  0  0  0  0  0  0  0  0  0  0  0
  -25.5697  -20.4674   20.5961 N   0  0  0  0  0  0  0  0  0  0  0  0
  -22.0913  -35.0170   22.9679 N   0  3  0  0  0  0  0  0  0  0  0  0
  -24.7789  -13.1836   16.0996 O   0  0  0  0  0  0  0  0  0  0  0  0
  -27.6194  -28.7398   22.4866 O   0  0  0  0  0  0  0  0  0  0  0  0
  -27.4208  -32.4958   22.2672 O   0  0  0  0  0  0  0  0  0  0  0  0
  -23.0433  -32.6214   24.0954 O   0  0  0  0  0  0  0  0  0  0  0  0
  -27.6964  -21.1277   21.1421 O   0  0  0  0  0  0  0  0  0  0  0  0
  -21.4746  -10.6595   22.6796 O   0  0  0  0  0  0  0  0  0  0  0  0
  -21.4860  -26.4793   21.6054 O   0  0  0  0  0  0  0  0  0  1  0  0
  -21.8774   -5.2424   21.7330 F   0  0  0  0  0  0  0  0  0  0  0  0
  -20.9369   -9.6130   20.1779 F   0  0  0  0  0  0  0  0  0  0  0  0
  1  2  1  0  0  0  0
  1  5  2  0  0  0  0
  2  6  2  0  0  0  0
  3  8  2  0  0  0  0
  3 17  1  0  0  0  0
  4  9  1  0  0  0  0
  4 17  2  0  0  0  0
  5 19  1  0  0  0  0
  6 21  1  0  0  0  0
  7 10  2  0  0  0  0
  7 20  1  0  0  0  0
  8 24  1  0  0  0  0
  9 24  2  0  0  0  0
 10 25  1  0  0  0  0
 11 12  2  0  0  0  0
 11 26  1  0  0  0  0
 12 27  1  0  0  0  0
 13 22  1  0  0  0  0
 13 25  2  0  0  0  0
 14 23  1  0  0  0  0
 14 30  2  0  0  0  0
 15 27  2  0  0  0  0
 15 28  1  0  0  0  0
 16 23  2  0  0  0  0
 16 69  1  0  0  0  0
 17 29  1  0  0  0  0
 18 29  1  0  0  0  0
 18 31  2  0  0  0  0
 18 32  1  0  0  0  0
 19 21  2  0  0  0  0
 19 37  1  0  0  0  0
 20 22  2  0  0  0  0
 20 38  1  0  0  0  0
 21 46  1  0  0  0  0
 22 39  1  0  0  0  0
 23 62  1  0  0  0  0
 24 84  1  0  0  0  0
 25 85  1  0  0  0  0
 26 28  2  0  0  0  0
 26 84  1  0  0  0  0
 27 86  1  0  0  0  0
 28 87  1  0  0  0  0
 29 68  2  0  0  0  0
 30 63  1  0  0  0  0
 30 69  1  0  0  0  0
 31 70  1  0  0  0  0
 31 73  1  0  0  0  0
 32 74  1  0  0  0  0
 32 79  2  0  0  0  0
 33 47  1  0  0  0  0
 33 75  1  0  0  0  0
 33 80  2  0  0  0  0
 34 64  1  0  0  0  0
 34 71  1  0  0  0  0
 34 81  2  0  0  0  0
 35 65  1  0  0  0  0
 35 76  1  0  0  0  0
 35 82  2  0  0  0  0
 36 72  1  0  0  0  0
 36 77  1  0  0  0  0
 36 83  2  0  0  0  0
 37 40  1  0  0  0  0
 38 47  1  0  0  0  0
 39 71  1  0  0  0  0
 40 42  1  0  0  0  0
 41 43  1  0  0  0  0
 41 44  1  0  0  0  0
 42 46  1  0  0  0  0
 43 48  1  0  0  0  0
 44 72  1  0  0  0  0
 45 48  1  0  0  0  0
 45 72  1  0  0  0  0
 46 75  1  0  0  0  0
 47 71  1  0  0  0  0
 48 70  1  0  0  0  0
 49 62  1  0  0  0  0
 50 62  1  0  0  0  0
 51 63  1  0  0  0  0
 52 65  1  0  0  0  0
 53 66  1  0  0  0  0
 54 67  1  0  0  0  0
 55 67  1  0  0  0  0
 56 67  1  0  0  0  0
 57 78  1  0  0  0  0
 58 63  1  0  0  0  0
 58 66  1  0  0  0  0
 59 60  1  0  0  0  0
 59 69  1  0  0  0  0
 60 77  1  0  0  0  0
 61 66  1  0  0  0  0
 61 85  1  0  0  0  0
 64 67  1  0  0  0  0
 64 76  1  0  0  0  0
 65 78  1  0  0  0  0
 68 70  1  0  0  0  0
M  CHG  1  78   1
M  ISO  4  36 100  61 101  77 100  85 101
M  END
> <Batch ID>
0099

> <Smiles>
CNC(C)C(=O)NC(C(=O)N1Cc2cc([101O:1][101CH2:1]C(C)CC(C)c3cc(C(C)C)cn3CC[100NH:0][100C:0](=O)N3CCCC(n4nc(-c5ccc(Oc6ccc(F)cc6F)cc5)c(C(N)=O)c4N)C3)ccc2CC1C(=O)NC1CCCc2ccccc21)C(C)(C)C

> <Shape>
0.269

> <Color>
0.060

> <Negative vol penalty>
0.000

$$$$

  -OEChem-04052319313D

 86 94  0     1  0  0  0  0  0999 V2000
  -17.8414  -32.6944   23.1767 C   0  0  0  0  0  0  0  0  0  0  0  0
  -19.0962  -32.9076   22.6149 C   0  0  0  0  0  0  0  0  0  0  0  0
  -26.6310  -12.5037   21.7956 C   0  0  0  0  0  0  0  0  0  0  0  0
  -25.8001  -14.0621   20.1469 C   0  0  0  0  0  0  0  0  0  0  0  0
  -17.6014  -31.5445   23.9276 C   0  0  0  0  0  0  0  0  0  0  0  0
  -20.1120  -31.9714   22.8047 C   0  0  0  0  0  0  0  0  0  0  0  0
  -25.8126  -29.1700   19.4923 C   0  0  0  0  0  0  0  0  0  0  0  0
  -25.3720  -11.9074   21.8665 C   0  0  0  0  0  0  0  0  0  0  0  0
  -24.5411  -13.4657   20.2177 C   0  0  0  0  0  0  0  0  0  0  0  0
  -27.1696  -28.9290   19.7023 C   0  0  0  0  0  0  0  0  0  0  0  0
  -22.4715   -9.7440   22.2156 C   0  0  0  0  0  0  0  0  0  0  0  0
  -22.4128   -8.3504   22.2092 C   0  0  0  0  0  0  0  0  0  0  0  0
  -26.6169  -26.9409   20.9519 C   0  0  0  0  0  0  0  0  0  0  0  0
  -30.1755  -25.1830   18.1703 C   0  0  0  0  0  0  0  0  0  0  0  0
  -23.4915   -8.3148   20.0477 C   0  0  0  0  0  0  0  0  0  0  0  0
  -26.8450  -13.5811   20.9359 C   0  0  0  0  0  0  0  0  0  0  0  0
  -29.2033  -13.8511   20.0014 C   0  0  0  0  0  0  0  0  0  0  0  0
  -18.6120  -30.5890   24.1187 C   0  0  0  0  0  0  0  0  0  0  0  0
  -24.8455  -28.3029   20.0207 C   0  0  0  0  0  0  0  0  0  0  0  0
  -19.8857  -30.8082   23.5601 C   0  0  0  0  0  0  0  0  0  0  0  0
  -25.2483  -27.1718   20.7450 C   0  0  0  0  0  0  0  0  0  0  0  0
  -30.7460  -25.6932   19.3625 C   0  0  0  0  0  0  0  0  0  0  0  0
  -24.3271  -12.3884   21.0775 C   0  0  0  0  0  0  0  0  0  0  0  0
  -27.5719  -27.8159   20.4347 C   0  0  0  0  0  0  0  0  0  0  0  0
  -23.0402  -10.4230   21.1380 C   0  0  0  0  0  0  0  0  0  0  0  0
  -22.9228   -7.6358   21.1253 C   0  0  0  0  0  0  0  0  0  0  0  0
  -23.5503   -9.7084   20.0541 C   0  0  0  0  0  0  0  0  0  0  0  0
  -28.1451  -14.1979   20.8627 C   0  0  0  0  0  0  0  0  0  0  0  0
  -30.0560  -23.8193   18.3224 C   0  0  0  0  0  0  0  0  0  0  0  0
  -30.9579  -24.6257   20.2068 C   0  0  0  0  0  0  0  0  0  0  0  0
  -30.2095  -14.7290   20.3229 C   0  0  0  0  0  0  0  0  0  0  0  0
  -29.2706  -12.8271   19.0001 C   0  0  0  0  0  0  0  0  0  0  0  0
  -22.4687  -28.5994   22.1103 C   0  0  0  0  0  0  0  0  0  0  0  0
  -21.8138  -25.5535   21.2070 C   0  0  0  0  0  0  0  0  0  0  0  0
  -22.9455  -22.6148   19.8915 C   0  0  0  0  0  0  0  0  0  0  0  0
  -30.2255  -20.1940   22.7692 C   0  0  0  0  0  0  0  0  0  0  0  0
  -18.3191  -29.3845   24.9777 C   0  0  0  0  0  0  0  0  0  0  0  0
  -23.3866  -28.5623   19.7625 C   0  0  0  0  0  0  0  0  0  0  0  0
  -24.2504  -26.1991   21.3162 C   0  0  0  0  0  0  0  0  0  0  0  0
  -19.3391  -28.2600   24.8181 C   0  0  0  0  0  0  0  0  0  0  0  0
  -31.9079  -17.3003   23.9827 C   0  0  0  0  0  0  0  0  0  0  0  0
  -20.7587  -28.8158   24.8691 C   0  0  0  0  0  0  0  0  0  0  0  0
  -31.2298  -16.1458   23.2430 C   0  0  0  0  0  0  0  0  0  0  0  0
  -30.9143  -18.4044   24.3374 C   0  0  0  0  0  0  0  0  0  0  0  0
  -29.4507  -17.7648   22.4605 C   0  0  0  0  0  0  0  0  0  0  0  0
  -21.0059  -29.8039   23.7228 C   0  0  1  0  0  0  0  0  0  0  0  0
  -22.4711  -27.8940   20.7836 C   0  0  1  0  0  0  0  0  0  0  0  0
  -30.4231  -16.6524   22.0323 C   0  0  2  0  0  0  0  0  0  0  0  0
  -31.5270  -24.5882   21.5709 C   0  0  0  0  0  0  0  0  0  0  0  0
  -32.1074  -27.6926   18.6692 C   0  0  0  0  0  0  0  0  0  0  0  0
  -22.1863  -20.2943   19.3117 C   0  0  0  0  0  0  0  0  0  0  0  0
  -29.0458  -23.4505   16.0443 C   0  0  0  0  0  0  0  0  0  0  0  0
  -28.2997  -22.0433   17.9935 C   0  0  0  0  0  0  0  0  0  0  0  0
  -30.5301  -21.6772   16.9577 C   0  0  0  0  0  0  0  0  0  0  0  0
  -21.8834  -24.7951   24.1617 C   0  0  0  0  0  0  0  0  0  0  0  0
  -22.0729  -22.3964   23.4699 C   0  0  0  0  0  0  0  0  0  0  0  0
  -20.0480  -23.7151   22.8504 C   0  0  0  0  0  0  0  0  0  0  0  0
  -23.5733  -23.0006   17.0252 C   0  0  0  0  0  0  0  0  0  0  0  0
  -30.5859  -22.1524   20.1118 C   0  0  0  0  0  0  0  0  0  0  0  0
  -29.4631  -21.8720   21.1072 C   0  0  0  0  0  0  0  0  0  0  0  0
  -29.8014  -28.0276   19.6344 C   0  0  0  0  0  0  0  0  0  1  0  0
  -31.0623  -27.1527   19.6495 C   0  0  1  0  0  0  0  0  0  0  0  0
  -22.2387  -24.1838   21.6785 C   0  0  1  0  0  0  0  0  0  0  0  0
  -22.3838  -21.7148   18.8058 C   0  0  2  0  0  0  0  0  0  0  0  0
  -29.5254  -22.8056   17.3876 C   0  0  0  0  0  0  0  0  0  0  0  0
  -21.5798  -23.7918   23.0311 C   0  0  0  0  0  0  0  0  0  0  0  0
  -28.4507  -15.2165   21.6708 N   0  0  0  0  0  0  0  0  0  0  0  0
  -30.5350  -23.4916   19.5639 N   0  0  0  0  0  0  0  0  0  0  0  0
  -29.7123  -15.5173   21.3187 N   0  0  0  0  0  0  0  0  0  0  0  0
  -22.8354  -26.4995   21.0421 N   0  0  0  0  0  0  0  0  0  0  0  0
  -30.1833  -18.8414   23.1456 N   0  0  0  0  0  0  0  0  0  0  0  0
  -31.4622  -14.8958   19.8482 N   0  0  0  0  0  0  0  0  0  0  0  0
  -28.1467  -12.0142   18.7992 N   0  0  0  0  0  0  0  0  0  0  0  0
  -21.2330  -29.0929   22.4829 N   0  0  0  0  0  0  0  0  0  0  0  0
  -21.9459  -23.2659   20.5830 N   0  0  0  0  0  0  0  0  0  0  0  0
  -29.5104  -20.5224   21.6240 N   0  0  0  0  0  0  0  0  0  0  0  0
  -23.3083  -21.6733   17.6377 N   0  3  0  0  0  0  0  0  0  0  0  0
  -30.3027  -12.6278   18.3156 O   0  0  0  0  0  0  0  0  0  0  0  0
  -23.5106  -28.6879   22.7493 O   0  0  0  0  0  0  0  0  0  0  0  0
  -20.6204  -25.7737   20.9862 O   0  0  0  0  0  0  0  0  0  0  0  0
  -24.1503  -22.7261   20.1073 O   0  0  0  0  0  0  0  0  0  0  0  0
  -30.8583  -21.0450   23.4036 O   0  0  0  0  0  0  0  0  0  0  0  0
  -23.0986  -11.8066   21.1462 O   0  0  0  0  0  0  0  0  0  0  0  0
  -28.8958  -27.5786   20.6417 O   0  0  0  0  0  0  0  0  0  1  0  0
  -22.8677   -6.2975   21.1200 F   0  0  0  0  0  0  0  0  0  0  0  0
  -24.0989  -10.3552   19.0165 F   0  0  0  0  0  0  0  0  0  0  0  0
  1  2  1  0  0  0  0
  1  5  2  0  0  0  0
  2  6  2  0  0  0  0
  3  8  2  0  0  0  0
  3 16  1  0  0  0  0
  4  9  1  0  0  0  0
  4 16  2  0  0  0  0
  5 18  1  0  0  0  0
  6 20  1  0  0  0  0
  7 10  2  0  0  0  0
  7 19  1  0  0  0  0
  8 23  1  0  0  0  0
  9 23  2  0  0  0  0
 10 24  1  0  0  0  0
 11 12  2  0  0  0  0
 11 25  1  0  0  0  0
 12 26  1  0  0  0  0
 13 21  1  0  0  0  0
 13 24  2  0  0  0  0
 14 22  1  0  0  0  0
 14 29  2  0  0  0  0
 15 26  2  0  0  0  0
 15 27  1  0  0  0  0
 16 28  1  0  0  0  0
 17 28  1  0  0  0  0
 17 31  2  0  0  0  0
 17 32  1  0  0  0  0
 18 20  2  0  0  0  0
 18 37  1  0  0  0  0
 19 21  2  0  0  0  0
 19 38  1  0  0  0  0
 20 46  1  0  0  0  0
 21 39  1  0  0  0  0
 22 30  2  0  0  0  0
 22 62  1  0  0  0  0
 23 83  1  0  0  0  0
 24 84  1  0  0  0  0
 25 27  2  0  0  0  0
 25 83  1  0  0  0  0
 26 85  1  0  0  0  0
 27 86  1  0  0  0  0
 28 67  2  0  0  0  0
 29 65  1  0  0  0  0
 29 68  1  0  0  0  0
 30 49  1  0  0  0  0
 30 68  1  0  0  0  0
 31 69  1  0  0  0  0
 31 72  1  0  0  0  0
 32 73  1  0  0  0  0
 32 78  2  0  0  0  0
 33 47  1  0  0  0  0
 33 74  1  0  0  0  0
 33 79  2  0  0  0  0
 34 63  1  0  0  0  0
 34 70  1  0  0  0  0
 34 80  2  0  0  0  0
 35 64  1  0  0  0  0
 35 75  1  0  0  0  0
 35 81  2  0  0  0  0
 36 71  1  0  0  0  0
 36 76  1  0  0  0  0
 36 82  2  0  0  0  0
 37 40  1  0  0  0  0
 38 47  1  0  0  0  0
 39 70  1  0  0  0  0
 40 42  1  0  0  0  0
 41 43  1  0  0  0  0
 41 44  1  0  0  0  0
 42 46  1  0  0  0  0
 43 48  1  0  0  0  0
 44 71  1  0  0  0  0
 45 48  1  0  0  0  0
 45 71  1  0  0  0  0
 46 74  1  0  0  0  0
 47 70  1  0  0  0  0
 48 69  1  0  0  0  0
 50 62  1  0  0  0  0
 51 64  1  0  0  0  0
 52 65  1  0  0  0  0
 53 65  1  0  0  0  0
 54 65  1  0  0  0  0
 55 66  1  0  0  0  0
 56 66  1  0  0  0  0
 57 66  1  0  0  0  0
 58 77  1  0  0  0  0
 59 60  1  0  0  0  0
 59 68  1  0  0  0  0
 60 76  1  0  0  0  0
 61 62  1  0  0  0  0
 61 84  1  0  0  0  0
 63 66  1  0  0  0  0
 63 75  1  0  0  0  0
 64 77  1  0  0  0  0
 67 69  1  0  0  0  0
M  CHG  1  77   1
M  ISO  4  36 100  61 101  76 100  84 101
M  END
> <Batch ID>
0099

> <Smiles>
CNC(C)C(=O)NC(C(=O)N1Cc2cc([101O:1][101CH2:1]C(C)c3cc(C(C)(C)C)n(CC[100NH:0][100C:0](=O)N4CCCC(n5nc(-c6ccc(Oc7ccc(F)cc7F)cc6)c(C(N)=O)c5N)C4)c3C)ccc2CC1C(=O)NC1CCCc2ccccc21)C(C)(C)C

> <Shape>
0.298

> <Color>
0.104

> <Negative vol penalty>
0.000

$$$$

  -OEChem-04052319313D

 85 93  0     1  0  0  0  0  0999 V2000
  -17.7831  -24.9151   22.7454 C   0  0  0  0  0  0  0  0  0  0  0  0
  -19.1671  -24.7766   22.7715 C   0  0  0  0  0  0  0  0  0  0  0  0
  -23.2879   -9.7999   19.9132 C   0  0  0  0  0  0  0  0  0  0  0  0
  -23.7380   -9.9411   22.2827 C   0  0  0  0  0  0  0  0  0  0  0  0
  -17.0023  -24.2860   23.7141 C   0  0  0  0  0  0  0  0  0  0  0  0
  -19.7713  -24.0098   23.7672 C   0  0  0  0  0  0  0  0  0  0  0  0
  -24.7960  -20.5529   23.2118 C   0  0  0  0  0  0  0  0  0  0  0  0
  -22.5611   -8.6276   20.1211 C   0  0  0  0  0  0  0  0  0  0  0  0
  -23.0111   -8.7688   22.4907 C   0  0  0  0  0  0  0  0  0  0  0  0
  -26.1321  -20.7807   23.5387 C   0  0  0  0  0  0  0  0  0  0  0  0
  -19.7637   -7.8589   22.7073 C   0  0  0  0  0  0  0  0  0  0  0  0
  -18.8610   -7.8378   23.7704 C   0  0  0  0  0  0  0  0  0  0  0  0
  -25.8046  -19.6459   25.6421 C   0  0  0  0  0  0  0  0  0  0  0  0
  -20.0659   -5.9905   24.7568 C   0  0  0  0  0  0  0  0  0  0  0  0
  -30.2761  -17.6582   24.2167 C   0  0  0  0  0  0  0  0  0  0  0  0
  -30.2970  -18.4213   26.3219 C   0  0  0  0  0  0  0  0  0  0  0  0
  -23.8764  -10.4566   20.9941 C   0  0  0  0  0  0  0  0  0  0  0  0
  -24.1366  -12.9864   20.7948 C   0  0  0  0  0  0  0  0  0  0  0  0
  -17.5965  -23.5031   24.7165 C   0  0  0  0  0  0  0  0  0  0  0  0
  -23.9500  -19.8784   24.1038 C   0  0  0  0  0  0  0  0  0  0  0  0
  -18.9978  -23.3707   24.7511 C   0  0  0  0  0  0  0  0  0  0  0  0
  -24.4589  -19.4086   25.3231 C   0  0  0  0  0  0  0  0  0  0  0  0
  -30.2966  -16.5625   25.0512 C   0  0  0  0  0  0  0  0  0  0  0  0
  -30.3099  -17.0452   26.3830 C   0  0  0  0  0  0  0  0  0  0  0  0
  -22.4227   -8.1121   21.4098 C   0  0  0  0  0  0  0  0  0  0  0  0
  -26.6359  -20.3297   24.7552 C   0  0  0  0  0  0  0  0  0  0  0  0
  -20.8175   -6.9457   22.6689 C   0  0  0  0  0  0  0  0  0  0  0  0
  -19.0121   -6.9037   24.7952 C   0  0  0  0  0  0  0  0  0  0  0  0
  -20.9686   -6.0116   23.6936 C   0  0  0  0  0  0  0  0  0  0  0  0
  -24.6278  -11.6672   20.7799 C   0  0  0  0  0  0  0  0  0  0  0  0
  -25.2384  -13.7659   20.5399 C   0  0  0  0  0  0  0  0  0  0  0  0
  -22.8036  -13.4645   21.0190 C   0  0  0  0  0  0  0  0  0  0  0  0
  -21.2961  -20.6316   25.6828 C   0  0  0  0  0  0  0  0  0  0  0  0
  -21.3685  -17.4979   26.5178 C   0  0  0  0  0  0  0  0  0  0  0  0
  -23.2130  -14.6631   26.9741 C   0  0  0  0  0  0  0  0  0  0  0  0
  -31.1089  -12.9213   21.3616 C   0  0  0  0  0  0  0  0  0  0  0  0
  -16.7146  -22.8810   25.7700 C   0  0  0  0  0  0  0  0  0  0  0  0
  -22.5181  -19.6172   23.7248 C   0  0  0  0  0  0  0  0  0  0  0  0
  -23.5973  -18.6614   26.3068 C   0  0  0  0  0  0  0  0  0  0  0  0
  -17.4056  -21.7798   26.5701 C   0  0  0  0  0  0  0  0  0  0  0  0
  -29.4611  -13.6603   18.2931 C   0  0  0  0  0  0  0  0  0  0  0  0
  -18.7944  -22.2315   27.0109 C   0  0  0  0  0  0  0  0  0  0  0  0
  -27.9912  -13.3523   18.5838 C   0  0  0  0  0  0  0  0  0  0  0  0
  -30.3939  -12.6808   19.0020 C   0  0  0  0  0  0  0  0  0  0  0  0
  -28.7066  -12.2525   20.7465 C   0  0  0  0  0  0  0  0  0  0  0  0
  -19.6884  -22.5269   25.8005 C   0  0  1  0  0  0  0  0  0  0  0  0
  -21.6162  -19.3710   24.9304 C   0  0  1  0  0  0  0  0  0  0  0  0
  -27.7291  -13.2478   20.0983 C   0  0  2  0  0  0  0  0  0  0  0  0
  -27.7916  -16.0482   27.8897 C   0  0  0  0  0  0  0  0  0  0  0  0
  -31.6266  -16.4650   28.4373 C   0  0  0  0  0  0  0  0  0  0  0  0
  -23.0003  -12.2698   27.6980 C   0  0  0  0  0  0  0  0  0  0  0  0
  -21.1754  -18.3977   29.4269 C   0  0  0  0  0  0  0  0  0  0  0  0
  -21.9150  -16.1059   30.1120 C   0  0  0  0  0  0  0  0  0  0  0  0
  -19.7795  -16.4023   28.8572 C   0  0  0  0  0  0  0  0  0  0  0  0
  -24.1433  -13.6648   24.3479 C   0  0  0  0  0  0  0  0  0  0  0  0
  -30.3018  -15.1491   24.6243 C   0  0  0  0  0  0  0  0  0  0  0  0
  -29.1050  -16.4428   28.5542 C   0  0  0  0  0  0  0  0  0  0  0  0
  -31.6786  -14.6104   24.1663 C   0  0  0  0  0  0  0  0  0  0  0  0
  -30.2546  -20.2016   24.4859 C   0  0  0  0  0  0  0  0  0  0  0  0
  -31.6701  -13.1356   23.7695 C   0  0  0  0  0  0  0  0  0  0  0  0
  -28.8718  -20.6209   23.9990 C   0  0  0  0  0  0  0  0  0  1  0  0
  -30.3335  -16.2341   27.6162 C   0  0  1  0  0  0  0  0  0  0  0  0
  -21.9794  -16.7068   27.6491 C   0  0  1  0  0  0  0  0  0  0  0  0
  -22.9893  -13.2318   26.5203 C   0  0  2  0  0  0  0  0  0  0  0  0
  -21.2283  -16.9189   28.9938 C   0  0  0  0  0  0  0  0  0  0  0  0
  -25.9394  -11.6081   20.5348 N   0  0  0  0  0  0  0  0  0  0  0  0
  -30.2762  -18.7827   25.0001 N   0  0  0  0  0  0  0  0  0  0  0  0
  -26.2818  -12.8999   20.3932 N   0  0  0  0  0  0  0  0  0  0  0  0
  -22.2024  -18.4363   25.8932 N   0  0  0  0  0  0  0  0  0  0  0  0
  -30.0942  -12.6300   20.4350 N   0  0  0  0  0  0  0  0  0  0  0  0
  -25.4068  -15.1007   20.4291 N   0  0  0  0  0  0  0  0  0  0  0  0
  -21.7907  -12.5280   21.2665 N   0  0  0  0  0  0  0  0  0  0  0  0
  -20.1757  -21.2943   25.2193 N   0  0  0  0  0  0  0  0  0  0  0  0
  -22.0217  -15.3192   27.2007 N   0  0  0  0  0  0  0  0  0  0  0  0
  -30.7387  -12.8563   22.6993 N   0  0  0  0  0  0  0  0  0  0  0  0
  -24.0563  -12.8183   25.5656 N   0  3  0  0  0  0  0  0  0  0  0  0
  -22.5161  -14.6851   20.9842 O   0  0  0  0  0  0  0  0  0  0  0  0
  -22.0118  -20.9766   26.6158 O   0  0  0  0  0  0  0  0  0  0  0  0
  -20.1969  -17.2859   26.1953 O   0  0  0  0  0  0  0  0  0  0  0  0
  -24.3328  -15.1492   27.1170 O   0  0  0  0  0  0  0  0  0  0  0  0
  -32.2581  -13.2227   21.0217 O   0  0  0  0  0  0  0  0  0  0  0  0
  -21.7133   -6.9684   21.6131 O   0  0  0  0  0  0  0  0  0  0  0  0
  -27.9394  -20.5513   25.0771 O   0  0  0  0  0  0  0  0  0  1  0  0
  -18.1461   -6.8845   25.8169 F   0  0  0  0  0  0  0  0  0  0  0  0
  -21.9797   -5.1326   23.6628 F   0  0  0  0  0  0  0  0  0  0  0  0
  1  2  1  0  0  0  0
  1  5  2  0  0  0  0
  2  6  2  0  0  0  0
  3  8  2  0  0  0  0
  3 17  1  0  0  0  0
  4  9  1  0  0  0  0
  4 17  2  0  0  0  0
  5 19  1  0  0  0  0
  6 21  1  0  0  0  0
  7 10  2  0  0  0  0
  7 20  1  0  0  0  0
  8 25  1  0  0  0  0
  9 25  2  0  0  0  0
 10 26  1  0  0  0  0
 11 12  2  0  0  0  0
 11 27  1  0  0  0  0
 12 28  1  0  0  0  0
 13 22  1  0  0  0  0
 13 26  2  0  0  0  0
 14 28  2  0  0  0  0
 14 29  1  0  0  0  0
 15 23  2  0  0  0  0
 15 67  1  0  0  0  0
 16 24  2  0  0  0  0
 16 67  1  0  0  0  0
 17 30  1  0  0  0  0
 18 30  1  0  0  0  0
 18 31  2  0  0  0  0
 18 32  1  0  0  0  0
 19 21  2  0  0  0  0
 19 37  1  0  0  0  0
 20 22  2  0  0  0  0
 20 38  1  0  0  0  0
 21 46  1  0  0  0  0
 22 39  1  0  0  0  0
 23 24  1  0  0  0  0
 23 56  1  0  0  0  0
 24 62  1  0  0  0  0
 25 82  1  0  0  0  0
 26 83  1  0  0  0  0
 27 29  2  0  0  0  0
 27 82  1  0  0  0  0
 28 84  1  0  0  0  0
 29 85  1  0  0  0  0
 30 66  2  0  0  0  0
 31 68  1  0  0  0  0
 31 71  1  0  0  0  0
 32 72  1  0  0  0  0
 32 77  2  0  0  0  0
 33 47  1  0  0  0  0
 33 73  1  0  0  0  0
 33 78  2  0  0  0  0
 34 63  1  0  0  0  0
 34 69  1  0  0  0  0
 34 79  2  0  0  0  0
 35 64  1  0  0  0  0
 35 74  1  0  0  0  0
 35 80  2  0  0  0  0
 36 70  1  0  0  0  0
 36 75  1  0  0  0  0
 36 81  2  0  0  0  0
 37 40  1  0  0  0  0
 38 47  1  0  0  0  0
 39 69  1  0  0  0  0
 40 42  1  0  0  0  0
 41 43  1  0  0  0  0
 41 44  1  0  0  0  0
 42 46  1  0  0  0  0
 43 48  1  0  0  0  0
 44 70  1  0  0  0  0
 45 48  1  0  0  0  0
 45 70  1  0  0  0  0
 46 73  1  0  0  0  0
 47 69  1  0  0  0  0
 48 68  1  0  0  0  0
 49 57  1  0  0  0  0
 50 62  1  0  0  0  0
 51 64  1  0  0  0  0
 52 65  1  0  0  0  0
 53 65  1  0  0  0  0
 54 65  1  0  0  0  0
 55 76  1  0  0  0  0
 56 58  1  0  0  0  0
 57 62  1  0  0  0  0
 58 60  1  0  0  0  0
 59 61  1  0  0  0  0
 59 67  1  0  0  0  0
 60 75  1  0  0  0  0
 61 83  1  0  0  0  0
 63 65  1  0  0  0  0
 63 74  1  0  0  0  0
 64 76  1  0  0  0  0
 66 68  1  0  0  0  0
M  CHG  1  76   1
M  ISO  4  36 100  61 101  75 100  83 101
M  END
> <Batch ID>
0099

> <Smiles>
CCC(C)c1cn(C[101CH2:1][101O:1]c2ccc3c(c2)CN(C(=O)C(NC(=O)C(C)NC)C(C)(C)C)C(C(=O)NC2CCCc4ccccc42)C3)cc1CCC[100NH:0][100C:0](=O)N1CCCC(n2nc(-c3ccc(Oc4ccc(F)cc4F)cc3)c(C(N)=O)c2N)C1

> <Shape>
0.141

> <Color>
0.174

> <Negative vol penalty>
0.000

$$$$

  -OEChem-04052319313D

 85 93  0     1  0  0  0  0  0999 V2000
  -28.7633  -25.1179   13.6003 C   0  0  0  0  0  0  0  0  0  0  0  0
  -27.6028  -25.2309   14.3591 C   0  0  0  0  0  0  0  0  0  0  0  0
  -26.8550  -13.2464   19.6353 C   0  0  0  0  0  0  0  0  0  0  0  0
  -24.7280  -13.9227   20.5603 C   0  0  0  0  0  0  0  0  0  0  0  0
  -30.0083  -25.1210   14.2280 C   0  0  0  0  0  0  0  0  0  0  0  0
  -27.6865  -25.3460   15.7463 C   0  0  0  0  0  0  0  0  0  0  0  0
  -24.6244  -28.9353   17.5863 C   0  0  0  0  0  0  0  0  0  0  0  0
  -26.7143  -11.9921   20.2289 C   0  0  0  0  0  0  0  0  0  0  0  0
  -24.5873  -12.6683   21.1539 C   0  0  0  0  0  0  0  0  0  0  0  0
  -23.2712  -28.6201   17.7014 C   0  0  0  0  0  0  0  0  0  0  0  0
  -23.6897   -9.5517   20.2043 C   0  0  0  0  0  0  0  0  0  0  0  0
  -22.4503   -8.9208   20.0966 C   0  0  0  0  0  0  0  0  0  0  0  0
  -23.5770  -28.1938   20.0560 C   0  0  0  0  0  0  0  0  0  0  0  0
  -22.4271  -24.4255   18.8601 C   0  0  0  0  0  0  0  0  0  0  0  0
  -22.8266  -22.5935   17.3365 C   0  0  0  0  0  0  0  0  0  0  0  0
  -22.2566   -8.8905   22.5047 C   0  0  0  0  0  0  0  0  0  0  0  0
  -25.8619  -14.2118   19.8010 C   0  0  0  0  0  0  0  0  0  0  0  0
  -25.5727  -15.8959   17.9069 C   0  0  0  0  0  0  0  0  0  0  0  0
  -30.1077  -25.2460   15.6226 C   0  0  0  0  0  0  0  0  0  0  0  0
  -25.4677  -28.8714   18.7048 C   0  0  0  0  0  0  0  0  0  0  0  0
  -28.9340  -25.3495   16.3933 C   0  0  0  0  0  0  0  0  0  0  0  0
  -24.9400  -28.5111   19.9529 C   0  0  0  0  0  0  0  0  0  0  0  0
  -23.3094  -23.5427   18.2374 C   0  0  0  0  0  0  0  0  0  0  0  0
  -21.0618  -24.3590   18.5821 C   0  0  0  0  0  0  0  0  0  0  0  0
  -21.4613  -22.5271   17.0584 C   0  0  0  0  0  0  0  0  0  0  0  0
  -20.5789  -23.4098   17.6812 C   0  0  0  0  0  0  0  0  0  0  0  0
  -25.5805  -11.7030   20.9882 C   0  0  0  0  0  0  0  0  0  0  0  0
  -22.7478  -28.2465   18.9358 C   0  0  0  0  0  0  0  0  0  0  0  0
  -24.2126   -9.8519   21.4622 C   0  0  0  0  0  0  0  0  0  0  0  0
  -21.7338   -8.5902   21.2468 C   0  0  0  0  0  0  0  0  0  0  0  0
  -23.4960   -9.5213   22.6123 C   0  0  0  0  0  0  0  0  0  0  0  0
  -26.0069  -15.5079   19.1886 C   0  0  0  0  0  0  0  0  0  0  0  0
  -25.9453  -17.2137   17.8024 C   0  0  0  0  0  0  0  0  0  0  0  0
  -24.8931  -15.1332   16.9007 C   0  0  0  0  0  0  0  0  0  0  0  0
  -28.0410  -27.1740   19.4799 C   0  0  0  0  0  0  0  0  0  0  0  0
  -28.0630  -29.1195   22.0754 C   0  0  0  0  0  0  0  0  0  0  0  0
  -26.3152  -31.1517   24.1877 C   0  0  0  0  0  0  0  0  0  0  0  0
  -26.3507  -22.3427   19.9645 C   0  0  0  0  0  0  0  0  0  0  0  0
  -31.4736  -25.1968   16.2603 C   0  0  0  0  0  0  0  0  0  0  0  0
  -26.9196  -29.2403   18.5695 C   0  0  0  0  0  0  0  0  0  0  0  0
  -25.7989  -28.4467   21.1885 C   0  0  0  0  0  0  0  0  0  0  0  0
  -31.4915  -25.6996   17.7015 C   0  0  0  0  0  0  0  0  0  0  0  0
  -28.9431  -20.0307   20.7459 C   0  0  0  0  0  0  0  0  0  0  0  0
  -30.3377  -25.0922   18.4931 C   0  0  0  0  0  0  0  0  0  0  0  0
  -28.3721  -18.6800   20.3106 C   0  0  0  0  0  0  0  0  0  0  0  0
  -27.8634  -20.9371   21.3329 C   0  0  0  0  0  0  0  0  0  0  0  0
  -26.1142  -19.7862   20.0331 C   0  0  0  0  0  0  0  0  0  0  0  0
  -28.9848  -25.5012   17.8981 C   0  0  1  0  0  0  0  0  0  0  0  0
  -27.7927  -28.6437   19.6691 C   0  0  1  0  0  0  0  0  0  0  0  0
  -27.1549  -18.8584   19.3833 C   0  0  2  0  0  0  0  0  0  0  0  0
  -19.1151  -23.3391   17.3829 C   0  0  0  0  0  0  0  0  0  0  0  0
  -21.2434  -20.0641   16.5683 C   0  0  0  0  0  0  0  0  0  0  0  0
  -21.5484  -21.7034   14.6776 C   0  0  0  0  0  0  0  0  0  0  0  0
  -26.5970  -32.5711   26.2380 C   0  0  0  0  0  0  0  0  0  0  0  0
  -28.1320  -26.6056   23.8033 C   0  0  0  0  0  0  0  0  0  0  0  0
  -27.4600  -28.0161   25.7596 C   0  0  0  0  0  0  0  0  0  0  0  0
  -29.6201  -28.4545   24.5916 C   0  0  0  0  0  0  0  0  0  0  0  0
  -25.5051  -33.6042   22.7427 C   0  0  0  0  0  0  0  0  0  0  0  0
  -20.1295  -25.3255   19.2678 C   0  0  0  0  0  0  0  0  0  0  0  0
  -24.7690  -23.6133   18.5352 C   0  0  0  0  0  0  0  0  0  0  0  0
  -19.6572  -26.4694   18.3678 C   0  0  0  0  0  0  0  0  0  0  0  0
  -20.7888  -27.3790   17.9035 C   0  0  0  0  0  0  0  0  0  1  0  0
  -20.9696  -21.5015   16.0898 C   0  0  0  0  0  0  0  0  0  0  0  0
  -27.4483  -29.0706   23.4534 C   0  0  1  0  0  0  0  0  0  0  0  0
  -26.6074  -32.5440   24.7175 C   0  0  2  0  0  0  0  0  0  0  0  0
  -28.1490  -28.0359   24.3785 C   0  0  0  0  0  0  0  0  0  0  0  0
  -26.6094  -16.4991   19.8508 N   0  0  0  0  0  0  0  0  0  0  0  0
  -26.5566  -17.5229   18.9818 N   0  0  0  0  0  0  0  0  0  0  0  0
  -27.2135  -28.8105   21.0036 N   0  0  0  0  0  0  0  0  0  0  0  0
  -26.7383  -21.0660   20.4036 N   0  0  0  0  0  0  0  0  0  0  0  0
  -25.8065  -18.1266   16.8176 N   0  0  0  0  0  0  0  0  0  0  0  0
  -24.5858  -13.7930   17.1721 N   0  0  0  0  0  0  0  0  0  0  0  0
  -28.6527  -26.8564   18.2822 N   0  0  0  0  0  0  0  0  0  0  0  0
  -27.4730  -30.4384   23.9601 N   0  0  0  0  0  0  0  0  0  0  0  0
  -25.2795  -22.3751   19.0800 N   0  0  0  0  0  0  0  0  0  0  0  0
  -25.5869  -33.5111   24.2231 N   0  3  0  0  0  0  0  0  0  0  0  0
  -24.5827  -15.6210   15.7875 O   0  0  0  0  0  0  0  0  0  0  0  0
  -27.7040  -26.3865   20.3562 O   0  0  0  0  0  0  0  0  0  0  0  0
  -29.2512  -29.4276   21.9539 O   0  0  0  0  0  0  0  0  0  0  0  0
  -25.1738  -30.7370   23.9986 O   0  0  0  0  0  0  0  0  0  0  0  0
  -26.9207  -23.3767   20.3291 O   0  0  0  0  0  0  0  0  0  0  0  0
  -25.4428  -10.4790   21.5674 O   0  0  0  0  0  0  0  0  0  0  0  0
  -21.4275  -27.9377   19.0508 O   0  0  0  0  0  0  0  0  0  1  0  0
  -20.5430   -7.9858   21.1432 F   0  0  0  0  0  0  0  0  0  0  0  0
  -23.9927   -9.8083   23.8235 F   0  0  0  0  0  0  0  0  0  0  0  0
  1  2  1  0  0  0  0
  1  5  2  0  0  0  0
  2  6  2  0  0  0  0
  3  8  2  0  0  0  0
  3 17  1  0  0  0  0
  4  9  1  0  0  0  0
  4 17  2  0  0  0  0
  5 19  1  0  0  0  0
  6 21  1  0  0  0  0
  7 10  2  0  0  0  0
  7 20  1  0  0  0  0
  8 27  1  0  0  0  0
  9 27  2  0  0  0  0
 10 28  1  0  0  0  0
 11 12  2  0  0  0  0
 11 29  1  0  0  0  0
 12 30  1  0  0  0  0
 13 22  1  0  0  0  0
 13 28  2  0  0  0  0
 14 23  2  0  0  0  0
 14 24  1  0  0  0  0
 15 23  1  0  0  0  0
 15 25  2  0  0  0  0
 16 30  2  0  0  0  0
 16 31  1  0  0  0  0
 17 32  1  0  0  0  0
 18 32  1  0  0  0  0
 18 33  2  0  0  0  0
 18 34  1  0  0  0  0
 19 21  2  0  0  0  0
 19 39  1  0  0  0  0
 20 22  2  0  0  0  0
 20 40  1  0  0  0  0
 21 48  1  0  0  0  0
 22 41  1  0  0  0  0
 23 60  1  0  0  0  0
 24 26  2  0  0  0  0
 24 59  1  0  0  0  0
 25 26  1  0  0  0  0
 25 63  1  0  0  0  0
 26 51  1  0  0  0  0
 27 82  1  0  0  0  0
 28 83  1  0  0  0  0
 29 31  2  0  0  0  0
 29 82  1  0  0  0  0
 30 84  1  0  0  0  0
 31 85  1  0  0  0  0
 32 67  2  0  0  0  0
 33 68  1  0  0  0  0
 33 71  1  0  0  0  0
 34 72  1  0  0  0  0
 34 77  2  0  0  0  0
 35 49  1  0  0  0  0
 35 73  1  0  0  0  0
 35 78  2  0  0  0  0
 36 64  1  0  0  0  0
 36 69  1  0  0  0  0
 36 79  2  0  0  0  0
 37 65  1  0  0  0  0
 37 74  1  0  0  0  0
 37 80  2  0  0  0  0
 38 70  1  0  0  0  0
 38 75  1  0  0  0  0
 38 81  2  0  0  0  0
 39 42  1  0  0  0  0
 40 49  1  0  0  0  0
 41 69  1  0  0  0  0
 42 44  1  0  0  0  0
 43 45  1  0  0  0  0
 43 46  1  0  0  0  0
 44 48  1  0  0  0  0
 45 50  1  0  0  0  0
 46 70  1  0  0  0  0
 47 50  1  0  0  0  0
 47 70  1  0  0  0  0
 48 73  1  0  0  0  0
 49 69  1  0  0  0  0
 50 68  1  0  0  0  0
 52 63  1  0  0  0  0
 53 63  1  0  0  0  0
 54 65  1  0  0  0  0
 55 66  1  0  0  0  0
 56 66  1  0  0  0  0
 57 66  1  0  0  0  0
 58 76  1  0  0  0  0
 59 61  1  0  0  0  0
 60 75  1  0  0  0  0
 61 62  1  0  0  0  0
 62 83  1  0  0  0  0
 64 66  1  0  0  0  0
 64 74  1  0  0  0  0
 65 76  1  0  0  0  0
 67 68  1  0  0  0  0
M  CHG  1  76   1
M  ISO  4  38 100  62 101  75 100  83 101
M  END
> <Batch ID>
0099

> <Smiles>
CNC(C)C(=O)NC(C(=O)N1Cc2cc([101O:1][101CH2:1]CCc3cc(C[100NH:0][100C:0](=O)N4CCCC(n5nc(-c6ccc(Oc7ccc(F)cc7F)cc6)c(C(N)=O)c5N)C4)cc(C(C)C)c3C)ccc2CC1C(=O)NC1CCCc2ccccc21)C(C)(C)C

> <Shape>
0.211

> <Color>
0.073

> <Negative vol penalty>
0.000

$$$$

  -OEChem-04052319313D

 84 92  0     1  0  0  0  0  0999 V2000
  -20.5790  -23.1999   20.8833 C   0  0  0  0  0  0  0  0  0  0  0  0
  -21.9267  -22.9471   20.6485 C   0  0  0  0  0  0  0  0  0  0  0  0
  -29.0075  -19.1083   26.3211 C   0  0  0  0  0  0  0  0  0  0  0  0
  -22.3545  -28.4296   19.4865 C   0  0  0  0  0  0  0  0  0  0  0  0
  -22.5771  -27.7585   21.7967 C   0  0  0  0  0  0  0  0  0  0  0  0
  -19.8298  -22.3159   21.6586 C   0  0  0  0  0  0  0  0  0  0  0  0
  -22.5263  -21.8104   21.1898 C   0  0  0  0  0  0  0  0  0  0  0  0
  -26.9534  -18.4222   18.6547 C   0  0  0  0  0  0  0  0  0  0  0  0
  -28.4327  -19.9250   25.3535 C   0  0  0  0  0  0  0  0  0  0  0  0
  -20.9684  -28.4794   19.6346 C   0  0  0  0  0  0  0  0  0  0  0  0
  -21.1910  -27.8083   21.9448 C   0  0  0  0  0  0  0  0  0  0  0  0
  -28.3353  -18.3955   18.8376 C   0  0  0  0  0  0  0  0  0  0  0  0
  -18.8191  -30.1732   22.3943 C   0  0  0  0  0  0  0  0  0  0  0  0
  -18.3127  -30.7933   23.5365 C   0  0  0  0  0  0  0  0  0  0  0  0
  -28.0872  -16.5747   20.4004 C   0  0  0  0  0  0  0  0  0  0  0  0
  -17.2284  -28.7309   24.1754 C   0  0  0  0  0  0  0  0  0  0  0  0
  -30.1121  -18.3538   25.9601 C   0  0  0  0  0  0  0  0  0  0  0  0
  -23.1588  -28.0691   20.5676 C   0  0  0  0  0  0  0  0  0  0  0  0
  -25.5072  -29.0634   20.6311 C   0  0  0  0  0  0  0  0  0  0  0  0
  -20.4182  -21.1628   22.2016 C   0  0  0  0  0  0  0  0  0  0  0  0
  -26.1257  -17.5311   19.3526 C   0  0  0  0  0  0  0  0  0  0  0  0
  -21.7847  -20.9108   21.9741 C   0  0  0  0  0  0  0  0  0  0  0  0
  -26.6953  -16.5904   20.2226 C   0  0  0  0  0  0  0  0  0  0  0  0
  -28.9726  -19.9616   24.0727 C   0  0  0  0  0  0  0  0  0  0  0  0
  -20.3866  -28.1688   20.8637 C   0  0  0  0  0  0  0  0  0  0  0  0
  -28.9021  -17.4736   19.7128 C   0  0  0  0  0  0  0  0  0  0  0  0
  -18.5301  -28.8320   22.1426 C   0  0  0  0  0  0  0  0  0  0  0  0
  -17.5174  -30.0722   24.4271 C   0  0  0  0  0  0  0  0  0  0  0  0
  -17.7348  -28.1109   23.0331 C   0  0  0  0  0  0  0  0  0  0  0  0
  -24.5907  -28.0169   20.4152 C   0  0  0  0  0  0  0  0  0  0  0  0
  -30.0789  -19.1690   23.8125 C   0  0  0  0  0  0  0  0  0  0  0  0
  -26.7328  -28.5092   20.3529 C   0  0  0  0  0  0  0  0  0  0  0  0
  -25.2719  -30.4154   21.0461 C   0  0  0  0  0  0  0  0  0  0  0  0
  -23.7822  -17.8422   21.4774 C   0  0  0  0  0  0  0  0  0  0  0  0
  -23.5236  -14.6331   21.0814 C   0  0  0  0  0  0  0  0  0  0  0  0
  -25.0100  -11.6959   20.1813 C   0  0  0  0  0  0  0  0  0  0  0  0
  -28.7824  -22.8843   20.4561 C   0  0  0  0  0  0  0  0  0  0  0  0
  -19.5795  -20.2612   23.0725 C   0  0  0  0  0  0  0  0  0  0  0  0
  -24.6393  -17.5549   19.1240 C   0  0  0  0  0  0  0  0  0  0  0  0
  -25.8523  -15.5986   20.9803 C   0  0  0  0  0  0  0  0  0  0  0  0
  -20.1989  -18.8843   23.2984 C   0  0  0  0  0  0  0  0  0  0  0  0
  -28.7873  -25.1140   17.6803 C   0  0  0  0  0  0  0  0  0  0  0  0
  -21.6749  -19.0158   23.6602 C   0  0  0  0  0  0  0  0  0  0  0  0
  -27.7950  -26.2052   18.0859 C   0  0  0  0  0  0  0  0  0  0  0  0
  -28.3448  -23.7377   18.1721 C   0  0  0  0  0  0  0  0  0  0  0  0
  -27.0702  -24.7490   20.0231 C   0  0  0  0  0  0  0  0  0  0  0  0
  -22.4649  -19.6757   22.5235 C   0  0  1  0  0  0  0  0  0  0  0  0
  -23.8477  -16.9429   20.2756 C   0  0  1  0  0  0  0  0  0  0  0  0
  -27.5020  -26.1628   19.5977 C   0  0  2  0  0  0  0  0  0  0  0  0
  -24.5579   -9.2343   19.9983 C   0  0  0  0  0  0  0  0  0  0  0  0
  -32.9472  -20.0174   20.5406 C   0  0  0  0  0  0  0  0  0  0  0  0
  -23.7670  -14.3656   24.1111 C   0  0  0  0  0  0  0  0  0  0  0  0
  -24.2624  -11.9330   23.7866 C   0  0  0  0  0  0  0  0  0  0  0  0
  -22.0633  -12.8633   23.0647 C   0  0  0  0  0  0  0  0  0  0  0  0
  -25.5100  -11.7031   17.2643 C   0  0  0  0  0  0  0  0  0  0  0  0
  -28.3535  -20.8387   23.0382 C   0  0  0  0  0  0  0  0  0  0  0  0
  -29.1206  -22.1453   22.8010 C   0  0  0  0  0  0  0  0  0  0  0  0
  -31.7706  -18.4283   22.1346 C   0  0  0  0  0  0  0  0  0  0  0  0
  -30.9520  -18.6792   19.7410 C   0  0  0  0  0  0  0  0  0  1  0  0
  -24.1413  -13.4218   21.7373 C   0  0  1  0  0  0  0  0  0  0  0  0
  -24.5490  -10.5707   19.2725 C   0  0  2  0  0  0  0  0  0  0  0  0
  -32.1664  -18.7055   20.6775 C   0  0  1  0  0  0  0  0  0  0  0  0
  -23.5745  -13.1658   23.1623 C   0  0  0  0  0  0  0  0  0  0  0  0
  -30.6646  -18.3632   24.7263 N   0  0  0  0  0  0  0  0  0  0  0  0
  -25.1833  -26.8838   20.0294 N   0  0  0  0  0  0  0  0  0  0  0  0
  -26.4854  -27.2150   20.0006 N   0  0  0  0  0  0  0  0  0  0  0  0
  -24.4035  -15.6658   20.7277 N   0  0  0  0  0  0  0  0  0  0  0  0
  -28.0845  -23.7652   19.6134 N   0  0  0  0  0  0  0  0  0  0  0  0
  -27.9871  -29.0076   20.3775 N   0  0  0  0  0  0  0  0  0  0  0  0
  -23.9522  -30.8194   21.2898 N   0  0  0  0  0  0  0  0  0  0  0  0
  -30.6207  -19.2032   22.5376 N   0  0  0  0  0  0  0  0  0  0  0  0
  -22.7173  -18.7227   21.4639 N   0  0  0  0  0  0  0  0  0  0  0  0
  -23.9487  -12.3125   20.8094 N   0  0  0  0  0  0  0  0  0  0  0  0
  -28.4806  -22.9803   21.8090 N   0  0  0  0  0  0  0  0  0  0  0  0
  -25.4420  -10.4660   18.0840 N   0  3  0  0  0  0  0  0  0  0  0  0
  -26.2028  -31.2455   21.1804 O   0  0  0  0  0  0  0  0  0  0  0  0
  -24.6339  -17.7436   22.3530 O   0  0  0  0  0  0  0  0  0  0  0  0
  -22.3063  -14.6589   20.8836 O   0  0  0  0  0  0  0  0  0  0  0  0
  -26.1936  -11.9953   20.3228 O   0  0  0  0  0  0  0  0  0  0  0  0
  -29.6168  -22.0761   20.0346 O   0  0  0  0  0  0  0  0  0  0  0  0
  -19.0342  -28.2175   21.0085 O   0  0  0  0  0  0  0  0  0  0  0  0
  -30.2506  -17.4458   19.8937 O   0  0  0  0  0  0  0  0  0  1  0  0
  -17.0325  -30.6674   25.5247 F   0  0  0  0  0  0  0  0  0  0  0  0
  -17.4547  -26.8218   22.7973 F   0  0  0  0  0  0  0  0  0  0  0  0
  1  2  1  0  0  0  0
  1  6  2  0  0  0  0
  2  7  2  0  0  0  0
  3  9  2  0  0  0  0
  3 17  1  0  0  0  0
  4 10  2  0  0  0  0
  4 18  1  0  0  0  0
  5 11  1  0  0  0  0
  5 18  2  0  0  0  0
  6 20  1  0  0  0  0
  7 22  1  0  0  0  0
  8 12  2  0  0  0  0
  8 21  1  0  0  0  0
  9 24  1  0  0  0  0
 10 25  1  0  0  0  0
 11 25  2  0  0  0  0
 12 26  1  0  0  0  0
 13 14  2  0  0  0  0
 13 27  1  0  0  0  0
 14 28  1  0  0  0  0
 15 23  1  0  0  0  0
 15 26  2  0  0  0  0
 16 28  2  0  0  0  0
 16 29  1  0  0  0  0
 17 64  2  0  0  0  0
 18 30  1  0  0  0  0
 19 30  1  0  0  0  0
 19 32  2  0  0  0  0
 19 33  1  0  0  0  0
 20 22  2  0  0  0  0
 20 38  1  0  0  0  0
 21 23  2  0  0  0  0
 21 39  1  0  0  0  0
 22 47  1  0  0  0  0
 23 40  1  0  0  0  0
 24 31  2  0  0  0  0
 24 56  1  0  0  0  0
 25 81  1  0  0  0  0
 26 82  1  0  0  0  0
 27 29  2  0  0  0  0
 27 81  1  0  0  0  0
 28 83  1  0  0  0  0
 29 84  1  0  0  0  0
 30 65  2  0  0  0  0
 31 64  1  0  0  0  0
 31 71  1  0  0  0  0
 32 66  1  0  0  0  0
 32 69  1  0  0  0  0
 33 70  1  0  0  0  0
 33 76  2  0  0  0  0
 34 48  1  0  0  0  0
 34 72  1  0  0  0  0
 34 77  2  0  0  0  0
 35 60  1  0  0  0  0
 35 67  1  0  0  0  0
 35 78  2  0  0  0  0
 36 61  1  0  0  0  0
 36 73  1  0  0  0  0
 36 79  2  0  0  0  0
 37 68  1  0  0  0  0
 37 74  1  0  0  0  0
 37 80  2  0  0  0  0
 38 41  1  0  0  0  0
 39 48  1  0  0  0  0
 40 67  1  0  0  0  0
 41 43  1  0  0  0  0
 42 44  1  0  0  0  0
 42 45  1  0  0  0  0
 43 47  1  0  0  0  0
 44 49  1  0  0  0  0
 45 68  1  0  0  0  0
 46 49  1  0  0  0  0
 46 68  1  0  0  0  0
 47 72  1  0  0  0  0
 48 67  1  0  0  0  0
 49 66  1  0  0  0  0
 50 61  1  0  0  0  0
 51 62  1  0  0  0  0
 52 63  1  0  0  0  0
 53 63  1  0  0  0  0
 54 63  1  0  0  0  0
 55 75  1  0  0  0  0
 56 57  1  0  0  0  0
 57 74  1  0  0  0  0
 58 62  1  0  0  0  0
 58 71  1  0  0  0  0
 59 62  1  0  0  0  0
 59 82  1  0  0  0  0
 60 63  1  0  0  0  0
 60 73  1  0  0  0  0
 61 75  1  0  0  0  0
 65 66  1  0  0  0  0
M  CHG  1  75   1
M  ISO  4  37 100  59 101  74 100  82 101
M  END
> <Batch ID>
0099

> <Smiles>
CNC(C)C(=O)NC(C(=O)N1Cc2cc([101O:1][101CH2:1]C(C)CNc3ncccc3CC[100NH:0][100C:0](=O)N3CCCC(n4nc(-c5ccc(Oc6ccc(F)cc6F)cc5)c(C(N)=O)c4N)C3)ccc2CC1C(=O)NC1CCCc2ccccc21)C(C)(C)C

> <Shape>
0.223

> <Color>
0.086

> <Negative vol penalty>
0.000

$$$$

  -OEChem-04052319313D

 83 91  0     1  0  0  0  0  0999 V2000
  -20.3288  -29.3179   25.7050 C   0  0  0  0  0  0  0  0  0  0  0  0
  -20.9547  -28.0913   25.9032 C   0  0  0  0  0  0  0  0  0  0  0  0
  -31.2321  -22.3813   20.7968 C   0  0  0  0  0  0  0  0  0  0  0  0
  -29.0621  -22.6079   19.7591 C   0  0  0  0  0  0  0  0  0  0  0  0
  -19.5685  -29.5336   24.5564 C   0  0  0  0  0  0  0  0  0  0  0  0
  -20.8196  -27.0793   24.9535 C   0  0  0  0  0  0  0  0  0  0  0  0
  -24.4287  -21.5955   22.0867 C   0  0  0  0  0  0  0  0  0  0  0  0
  -31.5493  -23.6858   20.4184 C   0  0  0  0  0  0  0  0  0  0  0  0
  -29.3793  -23.9124   19.3807 C   0  0  0  0  0  0  0  0  0  0  0  0
  -24.2899  -20.2327   21.8275 C   0  0  0  0  0  0  0  0  0  0  0  0
  -29.4801  -27.4269   18.4552 C   0  0  0  0  0  0  0  0  0  0  0  0
  -28.5148  -28.4137   18.6549 C   0  0  0  0  0  0  0  0  0  0  0  0
  -23.0169  -20.7457   19.8438 C   0  0  0  0  0  0  0  0  0  0  0  0
  -25.6148  -12.0981   19.9879 C   0  0  0  0  0  0  0  0  0  0  0  0
  -28.5353  -27.9537   21.0267 C   0  0  0  0  0  0  0  0  0  0  0  0
  -23.9908  -12.6498   21.4466 C   0  0  0  0  0  0  0  0  0  0  0  0
  -29.9885  -21.8423   20.4671 C   0  0  0  0  0  0  0  0  0  0  0  0
  -29.0449  -20.0820   22.0540 C   0  0  0  0  0  0  0  0  0  0  0  0
  -19.4320  -28.5271   23.5874 C   0  0  0  0  0  0  0  0  0  0  0  0
  -23.8524  -22.5451   21.2308 C   0  0  0  0  0  0  0  0  0  0  0  0
  -20.0556  -27.2814   23.7915 C   0  0  0  0  0  0  0  0  0  0  0  0
  -23.1520  -22.1201   20.0929 C   0  0  0  0  0  0  0  0  0  0  0  0
  -24.4907  -11.6079   20.6971 C   0  0  0  0  0  0  0  0  0  0  0  0
  -30.6229  -24.4514   19.7104 C   0  0  0  0  0  0  0  0  0  0  0  0
  -23.5815  -19.8075   20.7075 C   0  0  0  0  0  0  0  0  0  0  0  0
  -29.9730  -26.7034   19.5411 C   0  0  0  0  0  0  0  0  0  0  0  0
  -28.0424  -28.6771   19.9407 C   0  0  0  0  0  0  0  0  0  0  0  0
  -29.5006  -26.9668   20.8269 C   0  0  0  0  0  0  0  0  0  0  0  0
  -29.6605  -20.4946   20.8571 C   0  0  0  0  0  0  0  0  0  0  0  0
  -25.7679  -13.4247   20.3258 C   0  0  0  0  0  0  0  0  0  0  0  0
  -28.9554  -18.7161   21.9410 C   0  0  0  0  0  0  0  0  0  0  0  0
  -28.5941  -20.8635   23.1683 C   0  0  0  0  0  0  0  0  0  0  0  0
  -21.6416  -24.8062   21.5530 C   0  0  0  0  0  0  0  0  0  0  0  0
  -22.5151  -25.5468   18.5180 C   0  0  0  0  0  0  0  0  0  0  0  0
  -23.8930  -24.5235   15.5683 C   0  0  0  0  0  0  0  0  0  0  0  0
  -27.7841  -14.1387   18.9949 C   0  0  0  0  0  0  0  0  0  0  0  0
  -18.5611  -28.7907   22.3846 C   0  0  0  0  0  0  0  0  0  0  0  0
  -24.0340  -24.0119   21.5098 C   0  0  0  0  0  0  0  0  0  0  0  0
  -22.5315  -23.0997   19.1317 C   0  0  0  0  0  0  0  0  0  0  0  0
  -18.7755  -27.7951   21.2474 C   0  0  0  0  0  0  0  0  0  0  0  0
  -31.0288  -15.5458   18.5836 C   0  0  0  0  0  0  0  0  0  0  0  0
  -18.7973  -26.3676   21.7846 C   0  0  0  0  0  0  0  0  0  0  0  0
  -30.9114  -16.9248   19.2369 C   0  0  0  0  0  0  0  0  0  0  0  0
  -29.7453  -15.1526   17.8544 C   0  0  0  0  0  0  0  0  0  0  0  0
  -28.4046  -16.6141   19.3158 C   0  0  0  0  0  0  0  0  0  0  0  0
  -19.9531  -26.1674   22.7723 C   0  0  1  0  0  0  0  0  0  0  0  0
  -22.9679  -24.8819   20.8509 C   0  0  1  0  0  0  0  0  0  0  0  0
  -29.6503  -17.0258   20.1172 C   0  0  2  0  0  0  0  0  0  0  0  0
  -24.9559   -9.1725   21.1509 C   0  0  0  0  0  0  0  0  0  0  0  0
  -23.4579   -9.8338   19.2342 C   0  0  0  0  0  0  0  0  0  0  0  0
  -24.4368  -25.3421   13.2592 C   0  0  0  0  0  0  0  0  0  0  0  0
  -22.3605  -15.7813   20.8525 C   0  0  0  0  0  0  0  0  0  0  0  0
  -19.5695  -25.3338   17.7514 C   0  0  0  0  0  0  0  0  0  0  0  0
  -20.2746  -25.2119   15.3522 C   0  0  0  0  0  0  0  0  0  0  0  0
  -20.7856  -27.2488   16.6986 C   0  0  0  0  0  0  0  0  0  0  0  0
  -26.7874  -24.0403   15.9530 C   0  0  0  0  0  0  0  0  0  0  0  0
  -24.5594  -15.1011   21.8482 C   0  0  0  0  0  0  0  0  0  0  0  0
  -24.0511  -17.5736   21.3744 C   0  0  0  0  0  0  0  0  0  1  0  0
  -23.9531  -10.2351   20.6435 C   0  0  0  0  0  0  0  0  0  0  0  0
  -22.0688  -25.1160   17.1418 C   0  0  1  0  0  0  0  0  0  0  0  0
  -24.9497  -25.1525   14.6783 C   0  0  2  0  0  0  0  0  0  0  0  0
  -23.8545  -16.1179   20.9247 C   0  0  2  0  0  0  0  0  0  0  0  0
  -20.6845  -25.7089   16.7550 C   0  0  0  0  0  0  0  0  0  0  0  0
  -29.9424  -19.4734   20.0436 N   0  0  0  0  0  0  0  0  0  0  0  0
  -24.7753  -13.7491   21.2133 N   0  0  0  0  0  0  0  0  0  0  0  0
  -29.5019  -18.4056   20.7306 N   0  0  0  0  0  0  0  0  0  0  0  0
  -22.7312  -24.5229   19.4512 N   0  0  0  0  0  0  0  0  0  0  0  0
  -28.5935  -15.2685   18.7514 N   0  0  0  0  0  0  0  0  0  0  0  0
  -28.4634  -17.7623   22.7599 N   0  0  0  0  0  0  0  0  0  0  0  0
  -28.7628  -22.2541   23.1209 N   0  0  0  0  0  0  0  0  0  0  0  0
  -26.7380  -14.3609   19.8898 N   0  0  0  0  0  0  0  0  0  0  0  0
  -21.2044  -26.0143   22.0616 N   0  0  0  0  0  0  0  0  0  0  0  0
  -23.1493  -25.4773   16.2305 N   0  0  0  0  0  0  0  0  0  0  0  0
  -26.1644  -24.2905   14.6277 N   0  3  0  0  0  0  0  0  0  0  0  0
  -28.0725  -20.3426   24.1833 O   0  0  0  0  0  0  0  0  0  0  0  0
  -21.0574  -23.7315   21.6264 O   0  0  0  0  0  0  0  0  0  0  0  0
  -22.6733  -26.7471   18.7543 O   0  0  0  0  0  0  0  0  0  0  0  0
  -23.7399  -23.3078   15.6634 O   0  0  0  0  0  0  0  0  0  0  0  0
  -28.0191  -13.0470   18.4706 O   0  0  0  0  0  0  0  0  0  0  0  0
  -30.9319  -25.7245   19.3413 O   0  0  0  0  0  0  0  0  0  0  0  0
  -23.4439  -18.4779   20.4526 O   0  0  0  0  0  0  0  0  0  1  0  0
  -27.1165  -29.6259   20.1325 F   0  0  0  0  0  0  0  0  0  0  0  0
  -29.9712  -26.2758   21.8742 F   0  0  0  0  0  0  0  0  0  0  0  0
  1  2  1  0  0  0  0
  1  5  2  0  0  0  0
  2  6  2  0  0  0  0
  3  8  2  0  0  0  0
  3 17  1  0  0  0  0
  4  9  1  0  0  0  0
  4 17  2  0  0  0  0
  5 19  1  0  0  0  0
  6 21  1  0  0  0  0
  7 10  2  0  0  0  0
  7 20  1  0  0  0  0
  8 24  1  0  0  0  0
  9 24  2  0  0  0  0
 10 25  1  0  0  0  0
 11 12  2  0  0  0  0
 11 26  1  0  0  0  0
 12 27  1  0  0  0  0
 13 22  1  0  0  0  0
 13 25  2  0  0  0  0
 14 23  1  0  0  0  0
 14 30  2  0  0  0  0
 15 27  2  0  0  0  0
 15 28  1  0  0  0  0
 16 23  2  0  0  0  0
 16 65  1  0  0  0  0
 17 29  1  0  0  0  0
 18 29  1  0  0  0  0
 18 31  2  0  0  0  0
 18 32  1  0  0  0  0
 19 21  2  0  0  0  0
 19 37  1  0  0  0  0
 20 22  2  0  0  0  0
 20 38  1  0  0  0  0
 21 46  1  0  0  0  0
 22 39  1  0  0  0  0
 23 59  1  0  0  0  0
 24 80  1  0  0  0  0
 25 81  1  0  0  0  0
 26 28  2  0  0  0  0
 26 80  1  0  0  0  0
 27 82  1  0  0  0  0
 28 83  1  0  0  0  0
 29 64  2  0  0  0  0
 30 65  1  0  0  0  0
 30 71  1  0  0  0  0
 31 66  1  0  0  0  0
 31 69  1  0  0  0  0
 32 70  1  0  0  0  0
 32 75  2  0  0  0  0
 33 47  1  0  0  0  0
 33 72  1  0  0  0  0
 33 76  2  0  0  0  0
 34 60  1  0  0  0  0
 34 67  1  0  0  0  0
 34 77  2  0  0  0  0
 35 61  1  0  0  0  0
 35 73  1  0  0  0  0
 35 78  2  0  0  0  0
 36 68  1  0  0  0  0
 36 71  1  0  0  0  0
 36 79  2  0  0  0  0
 37 40  1  0  0  0  0
 38 47  1  0  0  0  0
 39 67  1  0  0  0  0
 40 42  1  0  0  0  0
 41 43  1  0  0  0  0
 41 44  1  0  0  0  0
 42 46  1  0  0  0  0
 43 48  1  0  0  0  0
 44 68  1  0  0  0  0
 45 48  1  0  0  0  0
 45 68  1  0  0  0  0
 46 72  1  0  0  0  0
 47 67  1  0  0  0  0
 48 66  1  0  0  0  0
 49 59  1  0  0  0  0
 50 59  1  0  0  0  0
 51 61  1  0  0  0  0
 52 62  1  0  0  0  0
 53 63  1  0  0  0  0
 54 63  1  0  0  0  0
 55 63  1  0  0  0  0
 56 74  1  0  0  0  0
 57 62  1  0  0  0  0
 57 65  1  0  0  0  0
 58 62  1  0  0  0  0
 58 81  1  0  0  0  0
 60 63  1  0  0  0  0
 60 73  1  0  0  0  0
 61 74  1  0  0  0  0
 64 66  1  0  0  0  0
M  CHG  1  74   1
M  ISO  4  36 100  58 101  71 100  81 101
M  END
> <Batch ID>
0099

> <Smiles>
CNC(C)C(=O)NC(C(=O)N1Cc2cc([101O:1][101CH2:1]C(C)Cn3cc(C(C)C)cc3[100NH:0][100C:0](=O)N3CCCC(n4nc(-c5ccc(Oc6ccc(F)cc6F)cc5)c(C(N)=O)c4N)C3)ccc2CC1C(=O)NC1CCCc2ccccc21)C(C)(C)C

> <Shape>
0.214

> <Color>
0.058

> <Negative vol penalty>
0.000

$$$$

  -OEChem-04052319313D

 88 96  0     1  0  0  0  0  0999 V2000
  -23.1314  -23.5144   17.7494 C   0  0  0  0  0  0  0  0  0  0  0  0
  -24.2477  -22.8541   18.2527 C   0  0  0  0  0  0  0  0  0  0  0  0
  -24.0056  -30.8622   24.2210 C   0  0  0  0  0  0  0  0  0  0  0  0
  -26.1232  -30.2500   23.2321 C   0  0  0  0  0  0  0  0  0  0  0  0
  -21.8524  -23.0987   18.1170 C   0  0  0  0  0  0  0  0  0  0  0  0
  -24.0856  -21.7782   19.1248 C   0  0  0  0  0  0  0  0  0  0  0  0
  -27.0926  -17.8708   17.9696 C   0  0  0  0  0  0  0  0  0  0  0  0
  -24.6217  -31.9242   24.8829 C   0  0  0  0  0  0  0  0  0  0  0  0
  -26.7393  -31.3121   23.8940 C   0  0  0  0  0  0  0  0  0  0  0  0
  -28.4317  -17.9648   18.3461 C   0  0  0  0  0  0  0  0  0  0  0  0
  -25.6854  -35.0452   24.1343 C   0  0  0  0  0  0  0  0  0  0  0  0
  -25.0401  -36.2817   24.1170 C   0  0  0  0  0  0  0  0  0  0  0  0
  -27.9834  -16.5747   20.2659 C   0  0  0  0  0  0  0  0  0  0  0  0
  -29.3218  -21.9560   22.3606 C   0  0  0  0  0  0  0  0  0  0  0  0
  -27.9292  -22.9372   20.6476 C   0  0  0  0  0  0  0  0  0  0  0  0
  -24.9212  -36.2534   26.5299 C   0  0  0  0  0  0  0  0  0  0  0  0
  -24.7564  -30.0250   23.3957 C   0  0  0  0  0  0  0  0  0  0  0  0
  -23.5304  -28.9491   21.4342 C   0  0  0  0  0  0  0  0  0  0  0  0
  -21.6743  -22.0110   18.9865 C   0  0  0  0  0  0  0  0  0  0  0  0
  -26.1850  -17.1357   18.7457 C   0  0  0  0  0  0  0  0  0  0  0  0
  -22.8030  -21.3483   19.5055 C   0  0  0  0  0  0  0  0  0  0  0  0
  -26.6338  -16.4707   19.8957 C   0  0  0  0  0  0  0  0  0  0  0  0
  -28.0585  -22.1870   21.8164 C   0  0  0  0  0  0  0  0  0  0  0  0
  -30.4559  -22.4751   21.7360 C   0  0  0  0  0  0  0  0  0  0  0  0
  -30.3266  -23.2253   20.5671 C   0  0  0  0  0  0  0  0  0  0  0  0
  -25.9885  -32.1492   24.7194 C   0  0  0  0  0  0  0  0  0  0  0  0
  -28.8767  -17.3191   19.4959 C   0  0  0  0  0  0  0  0  0  0  0  0
  -25.9485  -34.4128   25.3494 C   0  0  0  0  0  0  0  0  0  0  0  0
  -29.0632  -23.4563   20.0229 C   0  0  0  0  0  0  0  0  0  0  0  0
  -24.6580  -36.8858   25.3148 C   0  0  0  0  0  0  0  0  0  0  0  0
  -25.5665  -35.0169   26.5472 C   0  0  0  0  0  0  0  0  0  0  0  0
  -24.1207  -28.9274   22.7121 C   0  0  0  0  0  0  0  0  0  0  0  0
  -23.0729  -27.6679   21.2455 C   0  0  0  0  0  0  0  0  0  0  0  0
  -23.4068  -30.0307   20.5012 C   0  0  0  0  0  0  0  0  0  0  0  0
  -23.5445  -17.8337   20.3718 C   0  0  0  0  0  0  0  0  0  0  0  0
  -23.4032  -14.6168   20.7643 C   0  0  0  0  0  0  0  0  0  0  0  0
  -25.0578  -11.6333   20.8513 C   0  0  0  0  0  0  0  0  0  0  0  0
  -24.7144  -22.3763   23.5161 C   0  0  0  0  0  0  0  0  0  0  0  0
  -20.2732  -21.6280   19.3924 C   0  0  0  0  0  0  0  0  0  0  0  0
  -24.7494  -17.0220   18.3115 C   0  0  0  0  0  0  0  0  0  0  0  0
  -25.7039  -15.6522   20.7523 C   0  0  0  0  0  0  0  0  0  0  0  0
  -20.1799  -20.2423   20.0261 C   0  0  0  0  0  0  0  0  0  0  0  0
  -21.4835  -23.8639   23.6732 C   0  0  0  0  0  0  0  0  0  0  0  0
  -21.2761  -20.0581   21.0707 C   0  0  0  0  0  0  0  0  0  0  0  0
  -21.7397  -25.3322   23.3294 C   0  0  0  0  0  0  0  0  0  0  0  0
  -22.6233  -23.2702   24.4981 C   0  0  0  0  0  0  0  0  0  0  0  0
  -24.2206  -24.8963   23.5613 C   0  0  0  0  0  0  0  0  0  0  0  0
  -22.6675  -20.1613   20.4343 C   0  0  1  0  0  0  0  0  0  0  0  0
  -23.8048  -16.6708   19.4567 C   0  0  1  0  0  0  0  0  0  0  0  0
  -23.1247  -25.5232   22.6825 C   0  0  2  0  0  0  0  0  0  0  0  0
  -31.5391  -23.7834   19.8929 C   0  0  0  0  0  0  0  0  0  0  0  0
  -31.9307  -22.8503   23.7405 C   0  0  0  0  0  0  0  0  0  0  0  0
  -24.6803   -9.1818   21.2322 C   0  0  0  0  0  0  0  0  0  0  0  0
  -23.1943  -15.1180   23.7668 C   0  0  0  0  0  0  0  0  0  0  0  0
  -23.7743  -12.7109   24.1383 C   0  0  0  0  0  0  0  0  0  0  0  0
  -21.6926  -13.3142   22.9033 C   0  0  0  0  0  0  0  0  0  0  0  0
  -25.9891  -10.9483   18.1269 C   0  0  0  0  0  0  0  0  0  0  0  0
  -28.9520  -23.4716   17.6474 C   0  0  0  0  0  0  0  0  0  0  0  0
  -26.8461  -21.6330   22.4852 C   0  0  0  0  0  0  0  0  0  0  0  0
  -32.4522  -18.1432   19.6078 C   0  0  0  0  0  0  0  0  0  0  0  0
  -32.5476  -18.6846   21.0263 C   0  0  0  0  0  0  0  0  0  0  0  0
  -32.1624  -20.7149   22.4292 C   0  0  0  0  0  0  0  0  0  0  0  0
  -31.0429  -18.1831   19.0298 C   0  0  0  0  0  0  0  0  0  1  0  0
  -31.8245  -22.2094   22.3517 C   0  0  1  0  0  0  0  0  0  0  0  0
  -23.9362  -13.6398   21.7842 C   0  0  1  0  0  0  0  0  0  0  0  0
  -24.7575  -10.2956   20.1995 C   0  0  2  0  0  0  0  0  0  0  0  0
  -23.1667  -13.7127   23.1333 C   0  0  0  0  0  0  0  0  0  0  0  0
  -24.0462  -27.7276   23.2941 N   0  0  0  0  0  0  0  0  0  0  0  0
  -23.4037  -26.9834   22.3779 N   0  0  0  0  0  0  0  0  0  0  0  0
  -24.3083  -15.5766   20.2894 N   0  0  0  0  0  0  0  0  0  0  0  0
  -23.9086  -23.4836   23.8287 N   0  0  0  0  0  0  0  0  0  0  0  0
  -22.4238  -27.0714   20.2232 N   0  0  0  0  0  0  0  0  0  0  0  0
  -23.9324  -31.2811   20.8543 N   0  0  0  0  0  0  0  0  0  0  0  0
  -22.9982  -18.9350   19.7407 N   0  0  0  0  0  0  0  0  0  0  0  0
  -23.9039  -12.3273   21.1480 N   0  0  0  0  0  0  0  0  0  0  0  0
  -25.9134  -22.6663   22.8765 N   0  0  0  0  0  0  0  0  0  0  0  0
  -25.8202   -9.9496   19.2136 N   0  3  0  0  0  0  0  0  0  0  0  0
  -32.1544  -20.1126   21.0673 N   0  3  0  0  0  0  0  0  0  0  0  0
  -22.8325  -29.8967   19.3941 O   0  0  0  0  0  0  0  0  0  0  0  0
  -23.8177  -17.7384   21.5626 O   0  0  0  0  0  0  0  0  0  0  0  0
  -22.2290  -14.5272   20.3969 O   0  0  0  0  0  0  0  0  0  0  0  0
  -26.2015  -12.0219   21.0781 O   0  0  0  0  0  0  0  0  0  0  0  0
  -24.3870  -21.2149   23.7821 O   0  0  0  0  0  0  0  0  0  0  0  0
  -26.5900  -33.1856   25.3649 O   0  0  0  0  0  0  0  0  0  0  0  0
  -28.9176  -24.1857   18.8814 O   0  0  0  0  0  0  0  0  0  0  0  0
  -30.1831  -17.4098   19.8660 O   0  0  0  0  0  0  0  0  0  1  0  0
  -24.0397  -38.0739   25.2981 F   0  0  0  0  0  0  0  0  0  0  0  0
  -25.8176  -34.4147   27.7177 F   0  0  0  0  0  0  0  0  0  0  0  0
  1  2  1  0  0  0  0
  1  5  2  0  0  0  0
  2  6  2  0  0  0  0
  3  8  2  0  0  0  0
  3 17  1  0  0  0  0
  4  9  1  0  0  0  0
  4 17  2  0  0  0  0
  5 19  1  0  0  0  0
  6 21  1  0  0  0  0
  7 10  2  0  0  0  0
  7 20  1  0  0  0  0
  8 26  1  0  0  0  0
  9 26  2  0  0  0  0
 10 27  1  0  0  0  0
 11 12  2  0  0  0  0
 11 28  1  0  0  0  0
 12 30  1  0  0  0  0
 13 22  1  0  0  0  0
 13 27  2  0  0  0  0
 14 23  2  0  0  0  0
 14 24  1  0  0  0  0
 15 23  1  0  0  0  0
 15 29  2  0  0  0  0
 16 30  2  0  0  0  0
 16 31  1  0  0  0  0
 17 32  1  0  0  0  0
 18 32  1  0  0  0  0
 18 33  2  0  0  0  0
 18 34  1  0  0  0  0
 19 21  2  0  0  0  0
 19 39  1  0  0  0  0
 20 22  2  0  0  0  0
 20 40  1  0  0  0  0
 21 48  1  0  0  0  0
 22 41  1  0  0  0  0
 23 59  1  0  0  0  0
 24 25  2  0  0  0  0
 24 64  1  0  0  0  0
 25 29  1  0  0  0  0
 25 51  1  0  0  0  0
 26 84  1  0  0  0  0
 27 86  1  0  0  0  0
 28 31  2  0  0  0  0
 28 84  1  0  0  0  0
 29 85  1  0  0  0  0
 30 87  1  0  0  0  0
 31 88  1  0  0  0  0
 32 68  2  0  0  0  0
 33 69  1  0  0  0  0
 33 72  1  0  0  0  0
 34 73  1  0  0  0  0
 34 79  2  0  0  0  0
 35 49  1  0  0  0  0
 35 74  1  0  0  0  0
 35 80  2  0  0  0  0
 36 65  1  0  0  0  0
 36 70  1  0  0  0  0
 36 81  2  0  0  0  0
 37 66  1  0  0  0  0
 37 75  1  0  0  0  0
 37 82  2  0  0  0  0
 38 71  1  0  0  0  0
 38 76  1  0  0  0  0
 38 83  2  0  0  0  0
 39 42  1  0  0  0  0
 40 49  1  0  0  0  0
 41 70  1  0  0  0  0
 42 44  1  0  0  0  0
 43 45  1  0  0  0  0
 43 46  1  0  0  0  0
 44 48  1  0  0  0  0
 45 50  1  0  0  0  0
 46 71  1  0  0  0  0
 47 50  1  0  0  0  0
 47 71  1  0  0  0  0
 48 74  1  0  0  0  0
 49 70  1  0  0  0  0
 50 69  1  0  0  0  0
 52 64  1  0  0  0  0
 53 66  1  0  0  0  0
 54 67  1  0  0  0  0
 55 67  1  0  0  0  0
 56 67  1  0  0  0  0
 57 77  1  0  0  0  0
 58 85  1  0  0  0  0
 59 76  1  0  0  0  0
 60 61  1  0  0  0  0
 60 63  1  0  0  0  0
 61 78  1  0  0  0  0
 62 64  1  0  0  0  0
 62 78  1  0  0  0  0
 63 86  1  0  0  0  0
 65 67  1  0  0  0  0
 65 75  1  0  0  0  0
 66 77  1  0  0  0  0
 68 69  1  0  0  0  0
M  CHG  2  77   1  78   1
M  ISO  4  38 100  63 101  76 100  86 101
M  END
> <Batch ID>
0099

> <Smiles>
CNC(C)C(=O)NC(C(=O)N1Cc2cc([101O:1][101CH2:1]CCNCC(C)c3cc(C[100NH:0][100C:0](=O)N4CCCC(n5nc(-c6ccc(Oc7ccc(F)cc7F)cc6)c(C(N)=O)c5N)C4)cc(OC)c3C)ccc2CC1C(=O)NC1CCCc2ccccc21)C(C)(C)C

> <Shape>
0.203

> <Color>
0.053

> <Negative vol penalty>
0.000

$$$$

  -OEChem-04052319313D

 80 87  0     1  0  0  0  0  0999 V2000
  -17.1139  -30.5542   23.5239 C   0  0  0  0  0  0  0  0  0  0  0  0
  -18.4107  -31.0347   23.6747 C   0  0  0  0  0  0  0  0  0  0  0  0
  -23.0578  -16.7661   22.6915 C   0  0  0  0  0  0  0  0  0  0  0  0
  -24.8875  -15.5881   21.6421 C   0  0  0  0  0  0  0  0  0  0  0  0
  -16.9019  -29.2214   23.1737 C   0  0  0  0  0  0  0  0  0  0  0  0
  -19.4964  -30.1824   23.4763 C   0  0  0  0  0  0  0  0  0  0  0  0
  -26.2532  -30.2091   21.0970 C   0  0  0  0  0  0  0  0  0  0  0  0
  -22.1566  -15.8506   22.1481 C   0  0  0  0  0  0  0  0  0  0  0  0
  -23.9864  -14.6725   21.0986 C   0  0  0  0  0  0  0  0  0  0  0  0
  -27.5340  -29.8209   21.4873 C   0  0  0  0  0  0  0  0  0  0  0  0
  -22.2026  -11.8151   19.7306 C   0  0  0  0  0  0  0  0  0  0  0  0
  -22.5279  -10.4608   19.8063 C   0  0  0  0  0  0  0  0  0  0  0  0
  -27.0488  -27.5578   20.8073 C   0  0  0  0  0  0  0  0  0  0  0  0
  -22.5791  -10.6079   22.2173 C   0  0  0  0  0  0  0  0  0  0  0  0
  -24.4233  -16.6349   22.4385 C   0  0  0  0  0  0  0  0  0  0  0  0
  -26.0110  -17.4930   24.2414 C   0  0  0  0  0  0  0  0  0  0  0  0
  -17.9857  -28.3548   22.9615 C   0  0  0  0  0  0  0  0  0  0  0  0
  -25.3552  -29.2708   20.5681 C   0  0  0  0  0  0  0  0  0  0  0  0
  -19.2987  -28.8365   23.1243 C   0  0  0  0  0  0  0  0  0  0  0  0
  -25.7580  -27.9372   20.4087 C   0  0  0  0  0  0  0  0  0  0  0  0
  -22.6209  -14.8038   21.3517 C   0  0  0  0  0  0  0  0  0  0  0  0
  -27.9311  -28.4945   21.3452 C   0  0  0  0  0  0  0  0  0  0  0  0
  -22.0656  -12.5658   20.8982 C   0  0  0  0  0  0  0  0  0  0  0  0
  -22.7161   -9.8572   21.0496 C   0  0  0  0  0  0  0  0  0  0  0  0
  -22.2538  -11.9622   22.1416 C   0  0  0  0  0  0  0  0  0  0  0  0
  -25.3546  -17.5806   22.9991 C   0  0  0  0  0  0  0  0  0  0  0  0
  -26.7798  -18.6294   24.3044 C   0  0  0  0  0  0  0  0  0  0  0  0
  -25.9327  -16.4753   25.2483 C   0  0  0  0  0  0  0  0  0  0  0  0
  -22.5153  -28.1428   21.4434 C   0  0  0  0  0  0  0  0  0  0  0  0
  -22.6641  -26.6359   18.5748 C   0  0  0  0  0  0  0  0  0  0  0  0
  -24.5969  -25.4023   16.0470 C   0  0  0  0  0  0  0  0  0  0  0  0
  -29.1159  -22.0368   20.0868 C   0  0  0  0  0  0  0  0  0  0  0  0
  -17.7060  -26.9102   22.6305 C   0  0  0  0  0  0  0  0  0  0  0  0
  -23.9863  -29.7110   20.1270 C   0  0  0  0  0  0  0  0  0  0  0  0
  -24.8387  -26.8952   19.8275 C   0  0  0  0  0  0  0  0  0  0  0  0
  -18.9173  -26.1677   22.0720 C   0  0  0  0  0  0  0  0  0  0  0  0
  -26.9171  -23.1496   22.7372 C   0  0  0  0  0  0  0  0  0  0  0  0
  -20.1554  -26.4557   22.9153 C   0  0  0  0  0  0  0  0  0  0  0  0
  -26.3290  -21.8230   23.2216 C   0  0  0  0  0  0  0  0  0  0  0  0
  -27.1013  -23.1523   21.2225 C   0  0  0  0  0  0  0  0  0  0  0  0
  -27.3402  -20.6997   21.1831 C   0  0  0  0  0  0  0  0  0  0  0  0
  -20.5026  -27.9491   22.8934 C   0  0  1  0  0  0  0  0  0  0  0  0
  -22.9777  -28.5674   20.0783 C   0  0  1  0  0  0  0  0  0  0  0  0
  -27.1507  -20.6254   22.7091 C   0  0  2  0  0  0  0  0  0  0  0  0
  -24.4354  -24.1918   13.8547 C   0  0  0  0  0  0  0  0  0  0  0  0
  -33.9969  -24.1583   21.8017 C   0  0  0  0  0  0  0  0  0  0  0  0
  -31.8774  -23.5692   23.0406 C   0  0  0  0  0  0  0  0  0  0  0  0
  -22.1217  -24.0256   20.0587 C   0  0  0  0  0  0  0  0  0  0  0  0
  -22.9047  -22.7892   18.0274 C   0  0  0  0  0  0  0  0  0  0  0  0
  -20.8993  -24.2663   17.8903 C   0  0  0  0  0  0  0  0  0  0  0  0
  -25.8470  -27.6494   14.5819 C   0  0  0  0  0  0  0  0  0  0  0  0
  -31.2854  -27.2012   21.0246 C   0  0  0  0  0  0  0  0  0  0  0  0
  -30.8135  -23.5054   19.0294 C   0  0  0  0  0  0  0  0  0  0  0  0
  -32.0330  -26.1078   20.2764 C   0  0  0  0  0  0  0  0  0  0  0  0
  -32.0114  -23.6391   19.9511 C   0  0  0  0  0  0  0  0  0  0  0  0
  -29.7719  -27.0250   21.0165 C   0  0  0  0  0  0  0  0  0  1  0  0
  -23.1943  -25.3078   18.0911 C   0  0  1  0  0  0  0  0  0  0  0  0
  -24.4969  -25.5484   14.5393 C   0  0  2  0  0  0  0  0  0  0  0  0
  -32.5901  -24.5965   22.1758 C   0  0  0  0  0  0  0  0  0  0  0  0
  -22.2969  -24.1162   18.5296 C   0  0  0  0  0  0  0  0  0  0  0  0
  -25.6781  -18.6855   22.3218 N   0  0  0  0  0  0  0  0  0  0  0  0
  -26.5461  -19.3025   23.1415 N   0  0  0  0  0  0  0  0  0  0  0  0
  -23.5083  -27.3736   19.4168 N   0  0  0  0  0  0  0  0  0  0  0  0
  -27.9074  -21.9975   20.8020 N   0  0  0  0  0  0  0  0  0  0  0  0
  -27.6262  -19.1085   25.2406 N   0  0  0  0  0  0  0  0  0  0  0  0
  -25.0941  -15.3752   25.0227 N   0  0  0  0  0  0  0  0  0  0  0  0
  -21.1579  -28.2975   21.6510 N   0  0  0  0  0  0  0  0  0  0  0  0
  -23.3556  -25.4342   16.6466 N   0  0  0  0  0  0  0  0  0  0  0  0
  -29.5812  -23.3042   19.7587 N   0  0  0  0  0  0  0  0  0  0  0  0
  -25.6779  -26.2883   14.0112 N   0  3  0  0  0  0  0  0  0  0  0  0
  -31.7951  -24.7880   20.9066 N   0  3  1  0  0  0  0  0  0  0  0  0
  -26.5746  -16.5477   26.3237 O   0  0  0  0  0  0  0  0  0  0  0  0
  -23.3294  -27.7058   22.2483 O   0  0  0  0  0  0  0  0  0  0  0  0
  -21.5453  -27.0085   18.2128 O   0  0  0  0  0  0  0  0  0  0  0  0
  -25.6686  -25.2691   16.6337 O   0  0  0  0  0  0  0  0  0  0  0  0
  -29.7376  -21.0173   19.7687 O   0  0  0  0  0  0  0  0  0  0  0  0
  -21.7419  -13.9101   20.8214 O   0  0  0  0  0  0  0  0  0  0  0  0
  -29.1805  -28.1127   21.7261 O   0  0  0  0  0  0  0  0  0  1  0  0
  -23.0269   -8.5564   21.1223 F   0  0  0  0  0  0  0  0  0  0  0  0
  -22.1224  -12.6780   23.2668 F   0  0  0  0  0  0  0  0  0  0  0  0
  1  2  1  0  0  0  0
  1  5  2  0  0  0  0
  2  6  2  0  0  0  0
  3  8  2  0  0  0  0
  3 15  1  0  0  0  0
  4  9  1  0  0  0  0
  4 15  2  0  0  0  0
  5 17  1  0  0  0  0
  6 19  1  0  0  0  0
  7 10  2  0  0  0  0
  7 18  1  0  0  0  0
  8 21  1  0  0  0  0
  9 21  2  0  0  0  0
 10 22  1  0  0  0  0
 11 12  2  0  0  0  0
 11 23  1  0  0  0  0
 12 24  1  0  0  0  0
 13 20  1  0  0  0  0
 13 22  2  0  0  0  0
 14 24  2  0  0  0  0
 14 25  1  0  0  0  0
 15 26  1  0  0  0  0
 16 26  1  0  0  0  0
 16 27  2  0  0  0  0
 16 28  1  0  0  0  0
 17 19  2  0  0  0  0
 17 33  1  0  0  0  0
 18 20  2  0  0  0  0
 18 34  1  0  0  0  0
 19 42  1  0  0  0  0
 20 35  1  0  0  0  0
 21 77  1  0  0  0  0
 22 78  1  0  0  0  0
 23 25  2  0  0  0  0
 23 77  1  0  0  0  0
 24 79  1  0  0  0  0
 25 80  1  0  0  0  0
 26 61  2  0  0  0  0
 27 62  1  0  0  0  0
 27 65  1  0  0  0  0
 28 66  1  0  0  0  0
 28 72  2  0  0  0  0
 29 43  1  0  0  0  0
 29 67  1  0  0  0  0
 29 73  2  0  0  0  0
 30 57  1  0  0  0  0
 30 63  1  0  0  0  0
 30 74  2  0  0  0  0
 31 58  1  0  0  0  0
 31 68  1  0  0  0  0
 31 75  2  0  0  0  0
 32 64  1  0  0  0  0
 32 69  1  0  0  0  0
 32 76  2  0  0  0  0
 33 36  1  0  0  0  0
 34 43  1  0  0  0  0
 35 63  1  0  0  0  0
 36 38  1  0  0  0  0
 37 39  1  0  0  0  0
 37 40  1  0  0  0  0
 38 42  1  0  0  0  0
 39 44  1  0  0  0  0
 40 64  1  0  0  0  0
 41 44  1  0  0  0  0
 41 64  1  0  0  0  0
 42 67  1  0  0  0  0
 43 63  1  0  0  0  0
 44 62  1  0  0  0  0
 45 58  1  0  0  0  0
 46 59  1  0  0  0  0
 47 59  1  0  0  0  0
 48 60  1  0  0  0  0
 49 60  1  0  0  0  0
 50 60  1  0  0  0  0
 51 70  1  0  0  0  0
 52 54  1  0  0  0  0
 52 56  1  0  0  0  0
 53 55  1  0  0  0  0
 53 69  1  0  0  0  0
 54 71  1  0  0  0  0
 55 71  1  0  0  0  0
 56 78  1  0  0  0  0
 57 60  1  0  0  0  0
 57 68  1  0  0  0  0
 58 70  1  0  0  0  0
 59 71  1  0  0  0  0
 61 62  1  0  0  0  0
M  CHG  2  70   1  71   1
M  ISO  4  32 100  56 101  69 100  78 101
M  END
> <Batch ID>
0099

> <Smiles>
CNC(C)C(=O)NC(C(=O)N1Cc2cc([101O:1][101CH2:1]CCN(CC[100NH:0][100C:0](=O)N3CCCC(n4nc(-c5ccc(Oc6ccc(F)cc6F)cc5)c(C(N)=O)c4N)C3)C(C)C)ccc2CC1C(=O)NC1CCCc2ccccc21)C(C)(C)C

> <Shape>
0.229

> <Color>
0.062

> <Negative vol penalty>
0.000

$$$$

  -OEChem-04052319313D

 83 91  0     1  0  0  0  0  0999 V2000
  -30.6275  -25.9698   32.7557 C   0  0  0  0  0  0  0  0  0  0  0  0
  -31.2867  -25.3673   31.6890 C   0  0  0  0  0  0  0  0  0  0  0  0
  -22.9361   -9.8819   20.0810 C   0  0  0  0  0  0  0  0  0  0  0  0
  -23.6163  -10.0842   22.3904 C   0  0  0  0  0  0  0  0  0  0  0  0
  -29.2718  -26.2781   32.6515 C   0  0  0  0  0  0  0  0  0  0  0  0
  -30.5901  -25.0718   30.5177 C   0  0  0  0  0  0  0  0  0  0  0  0
  -32.7611  -25.2671   24.7945 C   0  0  0  0  0  0  0  0  0  0  0  0
  -22.1344   -8.7898   20.4128 C   0  0  0  0  0  0  0  0  0  0  0  0
  -22.8144   -8.9922   22.7222 C   0  0  0  0  0  0  0  0  0  0  0  0
  -33.2432  -24.2767   23.9399 C   0  0  0  0  0  0  0  0  0  0  0  0
  -22.9787   -5.6224   22.5014 C   0  0  0  0  0  0  0  0  0  0  0  0
  -23.5236   -4.6490   23.3386 C   0  0  0  0  0  0  0  0  0  0  0  0
  -31.0660  -24.1102   22.9145 C   0  0  0  0  0  0  0  0  0  0  0  0
  -21.7738   -5.0581   24.9534 C   0  0  0  0  0  0  0  0  0  0  0  0
  -23.6772  -10.5291   21.0698 C   0  0  0  0  0  0  0  0  0  0  0  0
  -24.1331  -13.0143   20.7186 C   0  0  0  0  0  0  0  0  0  0  0  0
  -28.5606  -25.9950   31.4748 C   0  0  0  0  0  0  0  0  0  0  0  0
  -31.4227  -25.6795   24.7228 C   0  0  0  0  0  0  0  0  0  0  0  0
  -29.2233  -25.3753   30.3982 C   0  0  0  0  0  0  0  0  0  0  0  0
  -30.5700  -25.1079   23.7677 C   0  0  0  0  0  0  0  0  0  0  0  0
  -22.0735   -8.3450   21.7334 C   0  0  0  0  0  0  0  0  0  0  0  0
  -32.3948  -23.6960   23.0017 C   0  0  0  0  0  0  0  0  0  0  0  0
  -21.8313   -6.3139   22.8902 C   0  0  0  0  0  0  0  0  0  0  0  0
  -22.9212   -4.3668   24.5646 C   0  0  0  0  0  0  0  0  0  0  0  0
  -21.2288   -6.0317   24.1162 C   0  0  0  0  0  0  0  0  0  0  0  0
  -24.5060  -11.6569   20.7275 C   0  0  0  0  0  0  0  0  0  0  0  0
  -25.2689  -13.6798   20.3267 C   0  0  0  0  0  0  0  0  0  0  0  0
  -22.8728  -13.6195   21.0363 C   0  0  0  0  0  0  0  0  0  0  0  0
  -28.9522  -25.6372   26.7224 C   0  0  0  0  0  0  0  0  0  0  0  0
  -27.5083  -27.3230   24.3570 C   0  0  0  0  0  0  0  0  0  0  0  0
  -27.3665  -28.1266   21.0432 C   0  0  0  0  0  0  0  0  0  0  0  0
  -30.7822  -14.4913   20.6264 C   0  0  0  0  0  0  0  0  0  0  0  0
  -27.0851  -26.3036   31.4264 C   0  0  0  0  0  0  0  0  0  0  0  0
  -30.9251  -26.7680   25.6339 C   0  0  0  0  0  0  0  0  0  0  0  0
  -29.1301  -25.5297   23.6365 C   0  0  0  0  0  0  0  0  0  0  0  0
  -26.5079  -26.2991   30.0132 C   0  0  0  0  0  0  0  0  0  0  0  0
  -29.6241  -11.9308   18.4401 C   0  0  0  0  0  0  0  0  0  0  0  0
  -26.9814  -25.0680   29.2471 C   0  0  0  0  0  0  0  0  0  0  0  0
  -28.1612  -11.7392   18.8438 C   0  0  0  0  0  0  0  0  0  0  0  0
  -29.9246  -17.9275   21.7091 C   0  0  0  0  0  0  0  0  0  0  0  0
  -30.6459  -19.2288   22.0604 C   0  0  0  0  0  0  0  0  0  0  0  0
  -31.6875  -16.6118   22.9544 C   0  0  0  0  0  0  0  0  0  0  0  0
  -30.5082  -12.2319   19.6484 C   0  0  0  0  0  0  0  0  0  0  0  0
  -28.5937  -13.1719   20.8832 C   0  0  0  0  0  0  0  0  0  0  0  0
  -28.5079  -25.0617   29.1020 C   0  0  1  0  0  0  0  0  0  0  0  0
  -29.4109  -26.7466   25.8188 C   0  0  1  0  0  0  0  0  0  0  0  0
  -27.6539  -12.9214   19.6914 C   0  0  2  0  0  0  0  0  0  0  0  0
  -30.8996  -16.7488   21.6504 C   0  0  1  0  0  0  0  0  0  0  0  0
  -31.4342  -19.0864   23.3598 C   0  0  1  0  0  0  0  0  0  0  0  0
  -32.4125  -17.9116   23.3171 C   0  0  1  0  0  0  0  0  0  0  0  0
  -26.0546  -29.5010   19.4039 C   0  0  0  0  0  0  0  0  0  0  0  0
  -35.1535  -22.0801   21.7888 C   0  0  0  0  0  0  0  0  0  0  0  0
  -25.2612  -25.2601   24.4295 C   0  0  0  0  0  0  0  0  0  0  0  0
  -24.4995  -26.1142   22.2027 C   0  0  0  0  0  0  0  0  0  0  0  0
  -24.4957  -27.6284   24.1851 C   0  0  0  0  0  0  0  0  0  0  0  0
  -29.7385  -29.7436   20.3236 C   0  0  0  0  0  0  0  0  0  0  0  0
  -32.4950  -20.5751   25.0507 C   0  0  0  0  0  0  0  0  0  0  0  0
  -33.4157  -20.4616   22.7398 C   0  0  0  0  0  0  0  0  0  0  0  0
  -26.6982  -26.9691   23.1332 C   0  0  1  0  0  0  0  0  0  0  0  0
  -27.2564  -29.4648   20.3351 C   0  0  2  0  0  0  0  0  0  0  0  0
  -33.9157  -21.9003   22.6579 C   0  0  2  0  0  0  0  0  0  1  0  0
  -25.2652  -26.4834   23.4911 C   0  0  0  0  0  0  0  0  0  0  0  0
  -25.7791  -11.4695   20.3695 N   0  0  0  0  0  0  0  0  0  0  0  0
  -26.2160  -12.7180   20.1319 N   0  0  0  0  0  0  0  0  0  0  0  0
  -28.6891  -26.5932   24.5541 N   0  0  0  0  0  0  0  0  0  0  0  0
  -29.9730  -13.3640   20.4085 N   0  0  0  0  0  0  0  0  0  0  0  0
  -25.5397  -14.9881   20.1330 N   0  0  0  0  0  0  0  0  0  0  0  0
  -21.8110  -12.7894   21.4209 N   0  0  0  0  0  0  0  0  0  0  0  0
  -28.9204  -25.9786   28.0610 N   0  0  0  0  0  0  0  0  0  0  0  0
  -26.7325  -28.1429   22.2676 N   0  0  0  0  0  0  0  0  0  0  0  0
  -30.1957  -15.5219   21.3506 N   0  0  0  0  0  0  0  0  0  0  0  0
  -28.4827  -29.7273   19.5300 N   0  3  0  0  0  0  0  0  0  0  0  0
  -32.1999  -20.3669   23.5856 N   0  3  1  0  0  0  0  0  0  0  0  0
  -22.6888  -14.8583   20.9648 O   0  0  0  0  0  0  0  0  0  0  0  0
  -28.6482  -24.5522   26.2407 O   0  0  0  0  0  0  0  0  0  0  0  0
  -27.1117  -28.2189   25.1064 O   0  0  0  0  0  0  0  0  0  0  0  0
  -27.9528  -27.1620   20.5571 O   0  0  0  0  0  0  0  0  0  0  0  0
  -31.9397  -14.5754   20.2019 O   0  0  0  0  0  0  0  0  0  0  0  0
  -33.0158  -17.7186   24.5940 O   0  0  0  0  0  0  0  0  0  0  0  0
  -21.2910   -7.2795   22.0576 O   0  0  0  0  0  0  0  0  0  0  0  0
  -32.8626  -22.7286   22.1667 O   0  0  0  0  0  0  0  0  0  1  0  0
  -23.4438   -3.4308   25.3678 F   0  0  0  0  0  0  0  0  0  0  0  0
  -20.1257   -6.6918   24.4946 F   0  0  0  0  0  0  0  0  0  0  0  0
  1  2  1  0  0  0  0
  1  5  2  0  0  0  0
  2  6  2  0  0  0  0
  3  8  2  0  0  0  0
  3 15  1  0  0  0  0
  4  9  1  0  0  0  0
  4 15  2  0  0  0  0
  5 17  1  0  0  0  0
  6 19  1  0  0  0  0
  7 10  2  0  0  0  0
  7 18  1  0  0  0  0
  8 21  1  0  0  0  0
  9 21  2  0  0  0  0
 10 22  1  0  0  0  0
 11 12  2  0  0  0  0
 11 23  1  0  0  0  0
 12 24  1  0  0  0  0
 13 20  1  0  0  0  0
 13 22  2  0  0  0  0
 14 24  2  0  0  0  0
 14 25  1  0  0  0  0
 15 26  1  0  0  0  0
 16 26  1  0  0  0  0
 16 27  2  0  0  0  0
 16 28  1  0  0  0  0
 17 19  2  0  0  0  0
 17 33  1  0  0  0  0
 18 20  2  0  0  0  0
 18 34  1  0  0  0  0
 19 45  1  0  0  0  0
 20 35  1  0  0  0  0
 21 80  1  0  0  0  0
 22 81  1  0  0  0  0
 23 25  2  0  0  0  0
 23 80  1  0  0  0  0
 24 82  1  0  0  0  0
 25 83  1  0  0  0  0
 26 63  2  0  0  0  0
 27 64  1  0  0  0  0
 27 67  1  0  0  0  0
 28 68  1  0  0  0  0
 28 74  2  0  0  0  0
 29 46  1  0  0  0  0
 29 69  1  0  0  0  0
 29 75  2  0  0  0  0
 30 59  1  0  0  0  0
 30 65  1  0  0  0  0
 30 76  2  0  0  0  0
 31 60  1  0  0  0  0
 31 70  1  0  0  0  0
 31 77  2  0  0  0  0
 32 66  1  0  0  0  0
 32 71  1  0  0  0  0
 32 78  2  0  0  0  0
 33 36  1  0  0  0  0
 34 46  1  0  0  0  0
 35 65  1  0  0  0  0
 36 38  1  0  0  0  0
 37 39  1  0  0  0  0
 37 43  1  0  0  0  0
 38 45  1  0  0  0  0
 39 47  1  0  0  0  0
 40 41  1  0  0  0  0
 40 48  1  0  0  0  0
 41 49  1  0  0  0  0
 42 48  1  0  0  0  0
 42 50  1  0  0  0  0
 43 66  1  0  0  0  0
 44 47  1  0  0  0  0
 44 66  1  0  0  0  0
 45 69  1  0  0  0  0
 46 65  1  0  0  0  0
 47 64  1  0  0  0  0
 48 71  1  0  0  0  0
 49 50  1  0  0  0  0
 49 73  1  0  0  0  0
 50 79  1  0  0  0  0
 51 60  1  0  0  0  0
 52 61  1  0  0  0  0
 53 62  1  0  0  0  0
 54 62  1  0  0  0  0
 55 62  1  0  0  0  0
 56 72  1  0  0  0  0
 57 73  1  0  0  0  0
 58 61  1  0  0  0  0
 58 73  1  0  0  0  0
 59 62  1  0  0  0  0
 59 70  1  0  0  0  0
 60 72  1  0  0  0  0
 61 81  1  0  0  0  0
 63 64  1  0  0  0  0
M  CHG  2  72   1  73   1
M  ISO  4  32 100  61 101  71 100  81 101
M  END
> <Batch ID>
0099

> <Smiles>
CNC(C)C(=O)NC(C(=O)N1Cc2cc([101O:1][101CH:1](C)CN(C)C3CCC([100NH:0][100C:0](=O)N4CCCC(n5nc(-c6ccc(Oc7ccc(F)cc7F)cc6)c(C(N)=O)c5N)C4)CC3O)ccc2CC1C(=O)NC1CCCc2ccccc21)C(C)(C)C

> <Shape>
0.208

> <Color>
0.192

> <Negative vol penalty>
0.000

$$$$
