
  -OEChem-04052319333D

 82 89  0     1  0  0  0  0  0999 V2000
  -24.8134  -17.2395   26.7851 C   0  0  0  0  0  0  0  0  0  0  0  0
  -25.8706  -18.0958   26.4943 C   0  0  0  0  0  0  0  0  0  0  0  0
  -26.2621  -12.6343   21.6161 C   0  0  0  0  0  0  0  0  0  0  0  0
  -26.0260  -13.6319   19.4284 C   0  0  0  0  0  0  0  0  0  0  0  0
  -23.7003  -17.1982   25.9465 C   0  0  0  0  0  0  0  0  0  0  0  0
  -25.8158  -18.9105   25.3640 C   0  0  0  0  0  0  0  0  0  0  0  0
  -27.9219  -25.3398   23.0091 C   0  0  0  0  0  0  0  0  0  0  0  0
  -24.9490  -12.1693   21.5459 C   0  0  0  0  0  0  0  0  0  0  0  0
  -24.7128  -13.1668   19.3581 C   0  0  0  0  0  0  0  0  0  0  0  0
  -28.6044  -25.9262   21.9441 C   0  0  0  0  0  0  0  0  0  0  0  0
  -21.8376  -13.4229   21.9603 C   0  0  0  0  0  0  0  0  0  0  0  0
  -21.0313  -13.5878   23.0865 C   0  0  0  0  0  0  0  0  0  0  0  0
  -26.5963  -25.8280   20.6110 C   0  0  0  0  0  0  0  0  0  0  0  0
  -20.7335  -11.1941   23.2236 C   0  0  0  0  0  0  0  0  0  0  0  0
  -26.8006  -13.3657   20.5574 C   0  0  0  0  0  0  0  0  0  0  0  0
  -29.3196  -13.1797   20.1997 C   0  0  0  0  0  0  0  0  0  0  0  0
  -23.6276  -18.0200   24.8106 C   0  0  0  0  0  0  0  0  0  0  0  0
  -26.5721  -24.9825   22.8791 C   0  0  0  0  0  0  0  0  0  0  0  0
  -24.7013  -18.8793   24.5087 C   0  0  0  0  0  0  0  0  0  0  0  0
  -25.8983  -25.2395   21.6766 C   0  0  0  0  0  0  0  0  0  0  0  0
  -24.1743  -12.4355   20.4169 C   0  0  0  0  0  0  0  0  0  0  0  0
  -27.9424  -26.1678   20.7439 C   0  0  0  0  0  0  0  0  0  0  0  0
  -22.0917  -12.1437   21.4656 C   0  0  0  0  0  0  0  0  0  0  0  0
  -20.4793  -12.4734   23.7182 C   0  0  0  0  0  0  0  0  0  0  0  0
  -21.5397  -11.0293   22.0973 C   0  0  0  0  0  0  0  0  0  0  0  0
  -28.1569  -13.8468   20.6296 C   0  0  0  0  0  0  0  0  0  0  0  0
  -30.3415  -14.0516   20.4860 C   0  0  0  0  0  0  0  0  0  0  0  0
  -29.4631  -11.8874   19.5954 C   0  0  0  0  0  0  0  0  0  0  0  0
  -24.9509  -22.2520   23.0203 C   0  0  0  0  0  0  0  0  0  0  0  0
  -22.3814  -24.2171   22.7787 C   0  0  0  0  0  0  0  0  0  0  0  0
  -21.1190  -27.2259   21.7787 C   0  0  0  0  0  0  0  0  0  0  0  0
  -30.5655  -20.0001   21.1311 C   0  0  0  0  0  0  0  0  0  0  0  0
  -22.4247  -17.9060   23.9080 C   0  0  0  0  0  0  0  0  0  0  0  0
  -25.8429  -24.3752   24.0461 C   0  0  0  0  0  0  0  0  0  0  0  0
  -24.4441  -24.8933   21.4928 C   0  0  0  0  0  0  0  0  0  0  0  0
  -22.2801  -19.0737   22.9355 C   0  0  0  0  0  0  0  0  0  0  0  0
  -31.5390  -17.5492   23.5231 C   0  0  0  0  0  0  0  0  0  0  0  0
  -23.6170  -19.3818   22.2687 C   0  0  0  0  0  0  0  0  0  0  0  0
  -30.8875  -16.2622   23.0140 C   0  0  0  0  0  0  0  0  0  0  0  0
  -30.6505  -18.7668   23.2777 C   0  0  0  0  0  0  0  0  0  0  0  0
  -29.5551  -17.6512   21.3726 C   0  0  0  0  0  0  0  0  0  0  0  0
  -24.6680  -19.7965   23.3055 C   0  0  1  0  0  0  0  0  0  0  0  0
  -24.6081  -23.5811   23.6314 C   0  0  1  0  0  0  0  0  0  0  0  0
  -30.4378  -16.4035   21.5474 C   0  0  2  0  0  0  0  0  0  0  0  0
  -18.9761  -28.5280   21.6788 C   0  0  0  0  0  0  0  0  0  0  0  0
  -30.1201  -27.8500   17.4824 C   0  0  0  0  0  0  0  0  0  0  0  0
  -21.4641  -22.5213   20.4139 C   0  0  0  0  0  0  0  0  0  0  0  0
  -19.9004  -24.3720   19.7829 C   0  0  0  0  0  0  0  0  0  0  0  0
  -19.6357  -23.2107   21.9747 C   0  0  0  0  0  0  0  0  0  0  0  0
  -28.2595  -22.2349   19.4895 C   0  0  0  0  0  0  0  0  0  0  0  0
  -28.3236  -20.6432   17.5715 C   0  0  0  0  0  0  0  0  0  0  0  0
  -22.2050  -29.3687   23.5073 C   0  0  0  0  0  0  0  0  0  0  0  0
  -31.6476  -23.7436   18.0114 C   0  0  0  0  0  0  0  0  0  0  0  0
  -30.4145  -21.1024   18.9126 C   0  0  0  0  0  0  0  0  0  0  0  0
  -29.8437  -25.3252   17.3442 C   0  0  0  0  0  0  0  0  0  0  0  0
  -29.4185  -22.8717   17.3238 C   0  0  0  0  0  0  0  0  0  0  0  0
  -30.0069  -26.4832   19.6062 C   0  0  0  0  0  0  0  0  0  1  0  0
  -21.5790  -24.7923   21.6367 C   0  0  1  0  0  0  0  0  0  0  0  0
  -20.2291  -28.2307   22.4878 C   0  0  2  0  0  0  0  0  0  0  0  0
  -30.4355  -26.4986   18.1335 C   0  0  2  0  0  0  0  0  0  0  0  0
  -20.6727  -23.7289   20.9545 C   0  0  0  0  0  0  0  0  0  0  0  0
  -29.1283  -21.7263   18.3208 C   0  0  0  0  0  0  0  0  0  0  0  0
  -28.4150  -15.0497   21.1497 N   0  0  0  0  0  0  0  0  0  0  0  0
  -29.7517  -15.1452   21.0485 N   0  0  0  0  0  0  0  0  0  0  0  0
  -23.7763  -24.2956   22.6608 N   0  0  0  0  0  0  0  0  0  0  0  0
  -30.2606  -18.8437   21.8678 N   0  0  0  0  0  0  0  0  0  0  0  0
  -31.6780  -13.9818   20.3091 N   0  0  0  0  0  0  0  0  0  0  0  0
  -28.3101  -11.1226   19.3720 N   0  0  0  0  0  0  0  0  0  0  0  0
  -24.4566  -21.1672   23.7190 N   0  0  0  0  0  0  0  0  0  0  0  0
  -20.8535  -25.9344   22.1821 N   0  0  0  0  0  0  0  0  0  0  0  0
  -30.1662  -19.9882   19.8002 N   0  0  0  0  0  0  0  0  0  0  0  0
  -20.9626  -29.5097   22.7051 N   0  3  0  0  0  0  0  0  0  0  0  0
  -30.1638  -24.0176   17.9645 N   0  3  1  0  0  0  0  0  0  0  0  0
  -30.5822  -11.4178   19.2785 O   0  0  0  0  0  0  0  0  0  0  0  0
  -25.6135  -22.2136   21.9901 O   0  0  0  0  0  0  0  0  0  0  0  0
  -21.7922  -23.7230   23.7433 O   0  0  0  0  0  0  0  0  0  0  0  0
  -21.9626  -27.5536   20.9472 O   0  0  0  0  0  0  0  0  0  0  0  0
  -31.1549  -20.9691   21.6215 O   0  0  0  0  0  0  0  0  0  0  0  0
  -22.8930  -11.9816   20.3479 O   0  0  0  0  0  0  0  0  0  0  0  0
  -28.6064  -26.7395   19.7027 O   0  0  0  0  0  0  0  0  0  1  0  0
  -19.7064  -12.6317   24.8006 F   0  0  0  0  0  0  0  0  0  0  0  0
  -21.7812   -9.7977   21.6275 F   0  0  0  0  0  0  0  0  0  0  0  0
  1  2  1  0  0  0  0
  1  5  2  0  0  0  0
  2  6  2  0  0  0  0
  3  8  2  0  0  0  0
  3 15  1  0  0  0  0
  4  9  1  0  0  0  0
  4 15  2  0  0  0  0
  5 17  1  0  0  0  0
  6 19  1  0  0  0  0
  7 10  2  0  0  0  0
  7 18  1  0  0  0  0
  8 21  1  0  0  0  0
  9 21  2  0  0  0  0
 10 22  1  0  0  0  0
 11 12  2  0  0  0  0
 11 23  1  0  0  0  0
 12 24  1  0  0  0  0
 13 20  1  0  0  0  0
 13 22  2  0  0  0  0
 14 24  2  0  0  0  0
 14 25  1  0  0  0  0
 15 26  1  0  0  0  0
 16 26  1  0  0  0  0
 16 27  2  0  0  0  0
 16 28  1  0  0  0  0
 17 19  2  0  0  0  0
 17 33  1  0  0  0  0
 18 20  2  0  0  0  0
 18 34  1  0  0  0  0
 19 42  1  0  0  0  0
 20 35  1  0  0  0  0
 21 79  1  0  0  0  0
 22 80  1  0  0  0  0
 23 25  2  0  0  0  0
 23 79  1  0  0  0  0
 24 81  1  0  0  0  0
 25 82  1  0  0  0  0
 26 63  2  0  0  0  0
 27 64  1  0  0  0  0
 27 67  1  0  0  0  0
 28 68  1  0  0  0  0
 28 74  2  0  0  0  0
 29 43  1  0  0  0  0
 29 69  1  0  0  0  0
 29 75  2  0  0  0  0
 30 58  1  0  0  0  0
 30 65  1  0  0  0  0
 30 76  2  0  0  0  0
 31 59  1  0  0  0  0
 31 70  1  0  0  0  0
 31 77  2  0  0  0  0
 32 66  1  0  0  0  0
 32 71  1  0  0  0  0
 32 78  2  0  0  0  0
 33 36  1  0  0  0  0
 34 43  1  0  0  0  0
 35 65  1  0  0  0  0
 36 38  1  0  0  0  0
 37 39  1  0  0  0  0
 37 40  1  0  0  0  0
 38 42  1  0  0  0  0
 39 44  1  0  0  0  0
 40 66  1  0  0  0  0
 41 44  1  0  0  0  0
 41 66  1  0  0  0  0
 42 69  1  0  0  0  0
 43 65  1  0  0  0  0
 44 64  1  0  0  0  0
 45 59  1  0  0  0  0
 46 60  1  0  0  0  0
 47 61  1  0  0  0  0
 48 61  1  0  0  0  0
 49 61  1  0  0  0  0
 50 62  1  0  0  0  0
 51 62  1  0  0  0  0
 52 72  1  0  0  0  0
 53 73  1  0  0  0  0
 54 62  1  0  0  0  0
 54 71  1  0  0  0  0
 55 60  1  0  0  0  0
 55 73  1  0  0  0  0
 56 62  1  0  0  0  0
 56 73  1  0  0  0  0
 57 60  1  0  0  0  0
 57 80  1  0  0  0  0
 58 61  1  0  0  0  0
 58 70  1  0  0  0  0
 59 72  1  0  0  0  0
 63 64  1  0  0  0  0
M  CHG  2  72   1  73   1
M  ISO  4  32 100  57 101  71 100  80 101
M  END
> <Batch ID>
0100

> <Smiles>
CNC(C)C(=O)NC(C(=O)N1Cc2cc([101O:1][101CH2:1]C(C)CN(C)CC(C)(C)C[100NH:0][100C:0](=O)N3CCCC(n4nc(-c5ccc(Oc6ccc(F)cc6F)cc5)c(C(N)=O)c4N)C3)ccc2CC1C(=O)NC1CCCc2ccccc21)C(C)(C)C

> <Shape>
0.223

> <Color>
0.056

> <Negative vol penalty>
0.000

$$$$

  -OEChem-04052319333D

 79 86  0     1  0  0  0  0  0999 V2000
  -19.4483  -29.1663   26.0788 C   0  0  0  0  0  0  0  0  0  0  0  0
  -20.7780  -28.8930   25.7747 C   0  0  0  0  0  0  0  0  0  0  0  0
  -23.6447  -14.2237   21.6186 C   0  0  0  0  0  0  0  0  0  0  0  0
  -25.6225  -14.4126   20.2440 C   0  0  0  0  0  0  0  0  0  0  0  0
  -18.4411  -28.8011   25.1866 C   0  0  0  0  0  0  0  0  0  0  0  0
  -21.1012  -28.2533   24.5786 C   0  0  0  0  0  0  0  0  0  0  0  0
  -26.0833  -29.1769   21.1388 C   0  0  0  0  0  0  0  0  0  0  0  0
  -23.3675  -12.9809   21.0492 C   0  0  0  0  0  0  0  0  0  0  0  0
  -25.3454  -13.1697   19.6746 C   0  0  0  0  0  0  0  0  0  0  0  0
  -27.2907  -28.4880   21.0326 C   0  0  0  0  0  0  0  0  0  0  0  0
  -22.3358   -9.5958   20.2179 C   0  0  0  0  0  0  0  0  0  0  0  0
  -21.9612   -8.5596   21.0732 C   0  0  0  0  0  0  0  0  0  0  0  0
  -26.4263  -27.2779   19.1332 C   0  0  0  0  0  0  0  0  0  0  0  0
  -24.0704   -8.7559   22.2350 C   0  0  0  0  0  0  0  0  0  0  0  0
  -24.7721  -14.9396   21.2160 C   0  0  0  0  0  0  0  0  0  0  0  0
  -25.8322  -16.4799   22.9513 C   0  0  0  0  0  0  0  0  0  0  0  0
  -18.7528  -28.1653   23.9746 C   0  0  0  0  0  0  0  0  0  0  0  0
  -25.0327  -28.9133   20.2483 C   0  0  0  0  0  0  0  0  0  0  0  0
  -20.0971  -27.8780   23.6699 C   0  0  0  0  0  0  0  0  0  0  0  0
  -25.2074  -27.9667   19.2286 C   0  0  0  0  0  0  0  0  0  0  0  0
  -24.2179  -12.4539   20.0772 C   0  0  0  0  0  0  0  0  0  0  0  0
  -27.4613  -27.5362   20.0315 C   0  0  0  0  0  0  0  0  0  0  0  0
  -23.5778  -10.2120   20.3710 C   0  0  0  0  0  0  0  0  0  0  0  0
  -22.8284   -8.1397   22.0818 C   0  0  0  0  0  0  0  0  0  0  0  0
  -24.4451   -9.7921   21.3796 C   0  0  0  0  0  0  0  0  0  0  0  0
  -25.0586  -16.2237   21.8034 C   0  0  0  0  0  0  0  0  0  0  0  0
  -25.7990  -17.8460   23.0898 C   0  0  0  0  0  0  0  0  0  0  0  0
  -26.5193  -15.5649   23.8151 C   0  0  0  0  0  0  0  0  0  0  0  0
  -22.0646  -27.8145   20.5430 C   0  0  0  0  0  0  0  0  0  0  0  0
  -21.9048  -28.5213   17.3811 C   0  0  0  0  0  0  0  0  0  0  0  0
  -23.5562  -29.0132   14.4353 C   0  0  0  0  0  0  0  0  0  0  0  0
  -26.1161  -22.9690   20.8989 C   0  0  0  0  0  0  0  0  0  0  0  0
  -17.6261  -27.7471   23.0634 C   0  0  0  0  0  0  0  0  0  0  0  0
  -23.7459  -29.6841   20.3596 C   0  0  0  0  0  0  0  0  0  0  0  0
  -24.1177  -27.6613   18.2348 C   0  0  0  0  0  0  0  0  0  0  0  0
  -18.0821  -27.4091   21.6463 C   0  0  0  0  0  0  0  0  0  0  0  0
  -22.9617  -21.3239   20.7572 C   0  0  0  0  0  0  0  0  0  0  0  0
  -19.3121  -26.5076   21.6821 C   0  0  0  0  0  0  0  0  0  0  0  0
  -23.2909  -19.8711   21.1051 C   0  0  0  0  0  0  0  0  0  0  0  0
  -24.0684  -21.9699   19.9266 C   0  0  0  0  0  0  0  0  0  0  0  0
  -25.7467  -20.4276   20.8638 C   0  0  0  0  0  0  0  0  0  0  0  0
  -20.4895  -27.2078   22.3711 C   0  0  1  0  0  0  0  0  0  0  0  0
  -22.5623  -28.9671   19.7174 C   0  0  1  0  0  0  0  0  0  0  0  0
  -24.6856  -19.7507   21.7483 C   0  0  2  0  0  0  0  0  0  0  0  0
  -23.1530  -29.5398   12.0151 C   0  0  0  0  0  0  0  0  0  0  0  0
  -31.9907  -26.1998   22.7943 C   0  0  0  0  0  0  0  0  0  0  0  0
  -31.8078  -23.7499   22.4076 C   0  0  0  0  0  0  0  0  0  0  0  0
  -20.9713  -25.6540   16.9152 C   0  0  0  0  0  0  0  0  0  0  0  0
  -21.4986  -25.9509   14.4858 C   0  0  0  0  0  0  0  0  0  0  0  0
  -19.7608  -27.3773   15.5665 C   0  0  0  0  0  0  0  0  0  0  0  0
  -31.1663  -25.4410   19.8892 C   0  0  0  0  0  0  0  0  0  0  0  0
  -25.1282  -31.5154   14.5980 C   0  0  0  0  0  0  0  0  0  0  0  0
  -29.1960  -24.1491   20.7979 C   0  0  0  0  0  0  0  0  0  0  0  0
  -28.2118  -23.8198   21.9203 C   0  0  0  0  0  0  0  0  0  0  0  0
  -29.3747  -26.6421   21.1250 C   0  0  0  0  0  0  0  0  0  1  0  0
  -22.1994  -27.7747   16.1025 C   0  0  1  0  0  0  0  0  0  0  0  0
  -23.4506  -30.1114   13.3926 C   0  0  2  0  0  0  0  0  0  0  0  0
  -31.0229  -25.0720   22.4071 C   0  0  0  0  0  0  0  0  0  0  0  0
  -21.1276  -26.6934   15.7873 C   0  0  0  0  0  0  0  0  0  0  0  0
  -30.1910  -25.3200   21.0884 C   0  0  2  0  0  0  0  0  0  0  0  0
  -24.5696  -17.3377   21.2519 N   0  0  0  0  0  0  0  0  0  0  0  0
  -25.0370  -18.3071   22.0569 N   0  0  0  0  0  0  0  0  0  0  0  0
  -22.8758  -28.4369   18.3890 N   0  0  0  0  0  0  0  0  0  0  0  0
  -25.3648  -21.8224   20.5927 N   0  0  0  0  0  0  0  0  0  0  0  0
  -26.3476  -18.6858   23.9933 N   0  0  0  0  0  0  0  0  0  0  0  0
  -26.4497  -14.1948   23.5281 N   0  0  0  0  0  0  0  0  0  0  0  0
  -21.1048  -28.1625   21.4742 N   0  0  0  0  0  0  0  0  0  0  0  0
  -22.3496  -28.7878   15.0636 N   0  0  0  0  0  0  0  0  0  0  0  0
  -27.3299  -22.7405   21.5356 N   0  0  0  0  0  0  0  0  0  0  0  0
  -24.7260  -30.8787   13.3175 N   0  3  0  0  0  0  0  0  0  0  0  0
  -27.1620  -15.9495   24.8214 O   0  0  0  0  0  0  0  0  0  0  0  0
  -22.5167  -26.6923   20.3484 O   0  0  0  0  0  0  0  0  0  0  0  0
  -20.8552  -29.1619   17.4793 O   0  0  0  0  0  0  0  0  0  0  0  0
  -24.6032  -28.4126   14.6665 O   0  0  0  0  0  0  0  0  0  0  0  0
  -25.7312  -24.1120   20.6300 O   0  0  0  0  0  0  0  0  0  0  0  0
  -23.9480  -11.2411   19.5216 O   0  0  0  0  0  0  0  0  0  0  0  0
  -28.6480  -26.8565   19.9252 O   0  0  0  0  0  0  0  0  0  1  0  0
  -22.4679   -7.1457   22.9040 F   0  0  0  0  0  0  0  0  0  0  0  0
  -25.6390  -10.3811   21.5324 F   0  0  0  0  0  0  0  0  0  0  0  0
  1  2  1  0  0  0  0
  1  5  2  0  0  0  0
  2  6  2  0  0  0  0
  3  8  2  0  0  0  0
  3 15  1  0  0  0  0
  4  9  1  0  0  0  0
  4 15  2  0  0  0  0
  5 17  1  0  0  0  0
  6 19  1  0  0  0  0
  7 10  2  0  0  0  0
  7 18  1  0  0  0  0
  8 21  1  0  0  0  0
  9 21  2  0  0  0  0
 10 22  1  0  0  0  0
 11 12  2  0  0  0  0
 11 23  1  0  0  0  0
 12 24  1  0  0  0  0
 13 20  1  0  0  0  0
 13 22  2  0  0  0  0
 14 24  2  0  0  0  0
 14 25  1  0  0  0  0
 15 26  1  0  0  0  0
 16 26  1  0  0  0  0
 16 27  2  0  0  0  0
 16 28  1  0  0  0  0
 17 19  2  0  0  0  0
 17 33  1  0  0  0  0
 18 20  2  0  0  0  0
 18 34  1  0  0  0  0
 19 42  1  0  0  0  0
 20 35  1  0  0  0  0
 21 76  1  0  0  0  0
 22 77  1  0  0  0  0
 23 25  2  0  0  0  0
 23 76  1  0  0  0  0
 24 78  1  0  0  0  0
 25 79  1  0  0  0  0
 26 61  2  0  0  0  0
 27 62  1  0  0  0  0
 27 65  1  0  0  0  0
 28 66  1  0  0  0  0
 28 71  2  0  0  0  0
 29 43  1  0  0  0  0
 29 67  1  0  0  0  0
 29 72  2  0  0  0  0
 30 56  1  0  0  0  0
 30 63  1  0  0  0  0
 30 73  2  0  0  0  0
 31 57  1  0  0  0  0
 31 68  1  0  0  0  0
 31 74  2  0  0  0  0
 32 64  1  0  0  0  0
 32 69  1  0  0  0  0
 32 75  2  0  0  0  0
 33 36  1  0  0  0  0
 34 43  1  0  0  0  0
 35 63  1  0  0  0  0
 36 38  1  0  0  0  0
 37 39  1  0  0  0  0
 37 40  1  0  0  0  0
 38 42  1  0  0  0  0
 39 44  1  0  0  0  0
 40 64  1  0  0  0  0
 41 44  1  0  0  0  0
 41 64  1  0  0  0  0
 42 67  1  0  0  0  0
 43 63  1  0  0  0  0
 44 62  1  0  0  0  0
 45 57  1  0  0  0  0
 46 58  1  0  0  0  0
 47 58  1  0  0  0  0
 48 59  1  0  0  0  0
 49 59  1  0  0  0  0
 50 59  1  0  0  0  0
 51 60  1  0  0  0  0
 52 70  1  0  0  0  0
 53 54  1  0  0  0  0
 53 60  1  0  0  0  0
 54 69  1  0  0  0  0
 55 60  1  0  0  0  0
 55 77  1  0  0  0  0
 56 59  1  0  0  0  0
 56 68  1  0  0  0  0
 57 70  1  0  0  0  0
 58 60  1  0  0  0  0
 61 62  1  0  0  0  0
M  CHG  1  70   1
M  ISO  4  32 100  55 101  69 100  77 101
M  END
> <Batch ID>
0100

> <Smiles>
CNC(C)C(=O)NC(C(=O)N1Cc2cc([101O:1][101CH2:1]C(C)(CC[100NH:0][100C:0](=O)N3CCCC(n4nc(-c5ccc(Oc6ccc(F)cc6F)cc5)c(C(N)=O)c4N)C3)C(C)C)ccc2CC1C(=O)NC1CCCc2ccccc21)C(C)(C)C

> <Shape>
0.203

> <Color>
0.080

> <Negative vol penalty>
0.000

$$$$

  -OEChem-04052319333D

 87 95  0     1  0  0  0  0  0999 V2000
  -16.4603  -28.6891   23.4807 C   0  0  0  0  0  0  0  0  0  0  0  0
  -17.3683  -28.0645   22.6317 C   0  0  0  0  0  0  0  0  0  0  0  0
  -25.0161  -13.4776   19.7150 C   0  0  0  0  0  0  0  0  0  0  0  0
  -27.2627  -12.9003   20.3906 C   0  0  0  0  0  0  0  0  0  0  0  0
  -16.8694  -29.7656   24.2667 C   0  0  0  0  0  0  0  0  0  0  0  0
  -18.6858  -28.5167   22.5674 C   0  0  0  0  0  0  0  0  0  0  0  0
  -23.7062  -25.1187   21.6986 C   0  0  0  0  0  0  0  0  0  0  0  0
  -28.3353  -22.2362   22.3649 C   0  0  0  0  0  0  0  0  0  0  0  0
  -27.8777  -22.6051   21.1000 C   0  0  0  0  0  0  0  0  0  0  0  0
  -24.6497  -12.1335   19.7850 C   0  0  0  0  0  0  0  0  0  0  0  0
  -26.8963  -11.5563   20.4607 C   0  0  0  0  0  0  0  0  0  0  0  0
  -24.4709  -24.8479   20.5648 C   0  0  0  0  0  0  0  0  0  0  0  0
  -23.0290   -8.8985   20.1354 C   0  0  0  0  0  0  0  0  0  0  0  0
  -21.8211   -8.5873   20.7596 C   0  0  0  0  0  0  0  0  0  0  0  0
  -25.9941  -26.6154   21.1774 C   0  0  0  0  0  0  0  0  0  0  0  0
  -30.6044  -22.2075   21.5358 C   0  0  0  0  0  0  0  0  0  0  0  0
  -22.6233   -9.5840   22.8090 C   0  0  0  0  0  0  0  0  0  0  0  0
  -26.3227  -13.8610   20.0177 C   0  0  0  0  0  0  0  0  0  0  0  0
  -26.6367  -16.2034   20.9778 C   0  0  0  0  0  0  0  0  0  0  0  0
  -18.1950  -30.2251   24.2191 C   0  0  0  0  0  0  0  0  0  0  0  0
  -24.0743  -26.1488   22.5761 C   0  0  0  0  0  0  0  0  0  0  0  0
  -19.1127  -29.6012   23.3525 C   0  0  0  0  0  0  0  0  0  0  0  0
  -25.2338  -26.8955   22.3230 C   0  0  0  0  0  0  0  0  0  0  0  0
  -29.6987  -22.0374   22.5829 C   0  0  0  0  0  0  0  0  0  0  0  0
  -28.7835  -22.7752   20.0529 C   0  0  0  0  0  0  0  0  0  0  0  0
  -30.1468  -22.5764   20.2708 C   0  0  0  0  0  0  0  0  0  0  0  0
  -25.5898  -11.1729   20.1579 C   0  0  0  0  0  0  0  0  0  0  0  0
  -25.6135  -25.5982   20.3024 C   0  0  0  0  0  0  0  0  0  0  0  0
  -24.0341   -9.5524   20.8480 C   0  0  0  0  0  0  0  0  0  0  0  0
  -21.6182   -8.9301   22.0964 C   0  0  0  0  0  0  0  0  0  0  0  0
  -23.8313   -9.8951   22.1847 C   0  0  0  0  0  0  0  0  0  0  0  0
  -26.7019  -15.2491   19.9450 C   0  0  0  0  0  0  0  0  0  0  0  0
  -27.1067  -17.3606   20.4064 C   0  0  0  0  0  0  0  0  0  0  0  0
  -26.1911  -16.0570   22.3327 C   0  0  0  0  0  0  0  0  0  0  0  0
  -22.7280  -28.8619   23.5408 C   0  0  0  0  0  0  0  0  0  0  0  0
  -25.2796  -28.9618   25.5412 C   0  0  0  0  0  0  0  0  0  0  0  0
  -28.4851  -27.9927   26.1990 C   0  0  0  0  0  0  0  0  0  0  0  0
  -30.8088  -20.0596   17.2196 C   0  0  0  0  0  0  0  0  0  0  0  0
  -18.5787  -31.4223   25.0523 C   0  0  0  0  0  0  0  0  0  0  0  0
  -23.2536  -26.4108   23.8090 C   0  0  0  0  0  0  0  0  0  0  0  0
  -25.6833  -27.9989   23.2444 C   0  0  0  0  0  0  0  0  0  0  0  0
  -20.0872  -31.6011   25.2033 C   0  0  0  0  0  0  0  0  0  0  0  0
  -28.0723  -18.4881   15.5708 C   0  0  0  0  0  0  0  0  0  0  0  0
  -20.7806  -31.4487   23.8532 C   0  0  0  0  0  0  0  0  0  0  0  0
  -27.4708  -17.5799   16.6448 C   0  0  0  0  0  0  0  0  0  0  0  0
  -29.5946  -18.5522   15.6737 C   0  0  0  0  0  0  0  0  0  0  0  0
  -29.5087  -18.0177   18.0780 C   0  0  0  0  0  0  0  0  0  0  0  0
  -20.5567  -30.0469   23.2732 C   0  0  1  0  0  0  0  0  0  0  0  0
  -23.4372  -27.8213   24.3605 C   0  0  1  0  0  0  0  0  0  0  0  0
  -27.9715  -17.9653   18.0498 C   0  0  2  0  0  0  0  0  0  0  0  0
  -30.0053  -19.1172   23.5465 C   0  0  0  0  0  0  0  0  0  0  0  0
  -29.8979  -22.7386   24.9827 C   0  0  0  0  0  0  0  0  0  0  0  0
  -30.6184  -27.7279   27.4937 C   0  0  0  0  0  0  0  0  0  0  0  0
  -25.8531  -31.7598   24.4679 C   0  0  0  0  0  0  0  0  0  0  0  0
  -28.1501  -31.5898   25.4491 C   0  0  0  0  0  0  0  0  0  0  0  0
  -26.1505  -31.5089   26.9383 C   0  0  0  0  0  0  0  0  0  0  0  0
  -27.5300  -25.5058   27.4883 C   0  0  0  0  0  0  0  0  0  0  0  0
  -28.2649  -23.1731   18.6941 C   0  0  0  0  0  0  0  0  0  0  0  0
  -29.6219  -20.2879   24.4435 C   0  0  0  0  0  0  0  0  0  0  0  0
  -28.4988  -24.6463   18.3528 C   0  0  0  0  0  0  0  0  0  0  0  0
  -31.9631  -21.4836   18.8926 C   0  0  0  0  0  0  0  0  0  0  0  0
  -27.7603  -25.6053   19.2792 C   0  0  0  0  0  0  0  0  0  1  0  0
  -30.1876  -21.6425   23.9353 C   0  0  1  0  0  0  0  0  0  0  0  0
  -31.1350  -22.7523   19.1648 C   0  0  2  0  0  0  0  0  0  0  0  0
  -26.6781  -29.5248   25.4629 C   0  0  1  0  0  0  0  0  0  0  0  0
  -29.1288  -27.4244   27.4509 C   0  0  2  0  0  0  0  0  0  0  0  0
  -26.6987  -31.0764   25.5610 C   0  0  0  0  0  0  0  0  0  0  0  0
  -27.1759  -15.7561   18.8038 N   0  0  0  0  0  0  0  0  0  0  0  0
  -27.4127  -17.0415   19.1161 N   0  0  0  0  0  0  0  0  0  0  0  0
  -24.8440  -28.2209   24.4335 N   0  0  0  0  0  0  0  0  0  0  0  0
  -30.0036  -18.9243   17.0302 N   0  0  0  0  0  0  0  0  0  0  0  0
  -27.2840  -18.6097   20.8867 N   0  0  0  0  0  0  0  0  0  0  0  0
  -25.7400  -14.7992   22.7555 N   0  0  0  0  0  0  0  0  0  0  0  0
  -21.4200  -29.0861   23.9258 N   0  0  0  0  0  0  0  0  0  0  0  0
  -27.4486  -28.8501   26.5019 N   0  0  0  0  0  0  0  0  0  0  0  0
  -31.1457  -20.3451   18.5371 N   0  0  0  0  0  0  0  0  0  0  0  0
  -32.0935  -23.8862   19.4108 N   0  3  0  0  0  0  0  0  0  0  0  0
  -28.9488  -25.9459   27.5004 N   0  3  0  0  0  0  0  0  0  0  0  0
  -26.1775  -17.0172   23.1398 O   0  0  0  0  0  0  0  0  0  0  0  0
  -23.3240  -29.4210   22.6276 O   0  0  0  0  0  0  0  0  0  0  0  0
  -24.6014  -29.1656   26.5512 O   0  0  0  0  0  0  0  0  0  0  0  0
  -28.8662  -27.7076   25.0659 O   0  0  0  0  0  0  0  0  0  0  0  0
  -31.1941  -20.7694   16.2844 O   0  0  0  0  0  0  0  0  0  0  0  0
  -25.2325   -9.8613   20.2266 O   0  0  0  0  0  0  0  0  0  0  0  0
  -26.3613  -25.3364   19.1961 O   0  0  0  0  0  0  0  0  0  1  0  0
  -20.4576   -8.6325   22.6952 F   0  0  0  0  0  0  0  0  0  0  0  0
  -24.7928  -10.5245   22.8741 F   0  0  0  0  0  0  0  0  0  0  0  0
  1  2  1  0  0  0  0
  1  5  2  0  0  0  0
  2  6  2  0  0  0  0
  3 10  2  0  0  0  0
  3 18  1  0  0  0  0
  4 11  1  0  0  0  0
  4 18  2  0  0  0  0
  5 20  1  0  0  0  0
  6 22  1  0  0  0  0
  7 12  2  0  0  0  0
  7 21  1  0  0  0  0
  8  9  2  0  0  0  0
  8 24  1  0  0  0  0
  9 25  1  0  0  0  0
 10 27  1  0  0  0  0
 11 27  2  0  0  0  0
 12 28  1  0  0  0  0
 13 14  2  0  0  0  0
 13 29  1  0  0  0  0
 14 30  1  0  0  0  0
 15 23  1  0  0  0  0
 15 28  2  0  0  0  0
 16 24  2  0  0  0  0
 16 26  1  0  0  0  0
 17 30  2  0  0  0  0
 17 31  1  0  0  0  0
 18 32  1  0  0  0  0
 19 32  1  0  0  0  0
 19 33  2  0  0  0  0
 19 34  1  0  0  0  0
 20 22  2  0  0  0  0
 20 39  1  0  0  0  0
 21 23  2  0  0  0  0
 21 40  1  0  0  0  0
 22 48  1  0  0  0  0
 23 41  1  0  0  0  0
 24 63  1  0  0  0  0
 25 26  2  0  0  0  0
 25 58  1  0  0  0  0
 26 64  1  0  0  0  0
 27 84  1  0  0  0  0
 28 85  1  0  0  0  0
 29 31  2  0  0  0  0
 29 84  1  0  0  0  0
 30 86  1  0  0  0  0
 31 87  1  0  0  0  0
 32 68  2  0  0  0  0
 33 69  1  0  0  0  0
 33 72  1  0  0  0  0
 34 73  1  0  0  0  0
 34 79  2  0  0  0  0
 35 49  1  0  0  0  0
 35 74  1  0  0  0  0
 35 80  2  0  0  0  0
 36 65  1  0  0  0  0
 36 70  1  0  0  0  0
 36 81  2  0  0  0  0
 37 66  1  0  0  0  0
 37 75  1  0  0  0  0
 37 82  2  0  0  0  0
 38 71  1  0  0  0  0
 38 76  1  0  0  0  0
 38 83  2  0  0  0  0
 39 42  1  0  0  0  0
 40 49  1  0  0  0  0
 41 70  1  0  0  0  0
 42 44  1  0  0  0  0
 43 45  1  0  0  0  0
 43 46  1  0  0  0  0
 44 48  1  0  0  0  0
 45 50  1  0  0  0  0
 46 71  1  0  0  0  0
 47 50  1  0  0  0  0
 47 71  1  0  0  0  0
 48 74  1  0  0  0  0
 49 70  1  0  0  0  0
 50 69  1  0  0  0  0
 51 59  1  0  0  0  0
 52 63  1  0  0  0  0
 53 66  1  0  0  0  0
 54 67  1  0  0  0  0
 55 67  1  0  0  0  0
 56 67  1  0  0  0  0
 57 78  1  0  0  0  0
 58 60  1  0  0  0  0
 59 63  1  0  0  0  0
 60 62  1  0  0  0  0
 61 64  1  0  0  0  0
 61 76  1  0  0  0  0
 62 85  1  0  0  0  0
 64 77  1  0  0  0  0
 65 67  1  0  0  0  0
 65 75  1  0  0  0  0
 66 78  1  0  0  0  0
 68 69  1  0  0  0  0
M  CHG  2  77   1  78   1
M  ISO  4  38 100  62 101  76 100  85 101
M  END
> <Batch ID>
0100

> <Smiles>
CCC(C)c1ccc(CC[101CH2:1][101O:1]c2ccc3c(c2)CN(C(=O)C(NC(=O)C(C)NC)C(C)(C)C)C(C(=O)NC2CCCc4ccccc42)C3)c(C(N)C[100NH:0][100C:0](=O)N2CCCC(n3nc(-c4ccc(Oc5ccc(F)cc5F)cc4)c(C(N)=O)c3N)C2)c1

> <Shape>
0.227

> <Color>
0.068

> <Negative vol penalty>
0.000

$$$$

  -OEChem-04052319333D

 87 95  0     1  0  0  0  0  0999 V2000
  -29.6184  -24.2066   17.3870 C   0  0  0  0  0  0  0  0  0  0  0  0
  -28.3676  -24.7319   17.6911 C   0  0  0  0  0  0  0  0  0  0  0  0
  -25.3041  -13.5474   19.9244 C   0  0  0  0  0  0  0  0  0  0  0  0
  -23.4853  -14.9066   20.7501 C   0  0  0  0  0  0  0  0  0  0  0  0
  -30.7185  -24.5340   18.1768 C   0  0  0  0  0  0  0  0  0  0  0  0
  -28.2187  -25.5942   18.7779 C   0  0  0  0  0  0  0  0  0  0  0  0
  -23.8263  -27.7362   19.3457 C   0  0  0  0  0  0  0  0  0  0  0  0
  -24.8694  -12.4846   20.7163 C   0  0  0  0  0  0  0  0  0  0  0  0
  -23.0505  -13.8437   21.5420 C   0  0  0  0  0  0  0  0  0  0  0  0
  -22.6967  -27.0382   19.7707 C   0  0  0  0  0  0  0  0  0  0  0  0
  -24.0273   -9.2968   22.2472 C   0  0  0  0  0  0  0  0  0  0  0  0
  -23.9777   -8.0310   21.6634 C   0  0  0  0  0  0  0  0  0  0  0  0
  -22.9316  -28.0077   21.9671 C   0  0  0  0  0  0  0  0  0  0  0  0
  -22.4624  -22.8369   24.1018 C   0  0  0  0  0  0  0  0  0  0  0  0
  -23.4629  -23.3936   21.9744 C   0  0  0  0  0  0  0  0  0  0  0  0
  -22.4079   -8.8505   20.0198 C   0  0  0  0  0  0  0  0  0  0  0  0
  -24.6121  -14.7584   19.9414 C   0  0  0  0  0  0  0  0  0  0  0  0
  -24.6755  -16.1451   17.8011 C   0  0  0  0  0  0  0  0  0  0  0  0
  -30.5797  -25.3909   19.2811 C   0  0  0  0  0  0  0  0  0  0  0  0
  -24.5246  -28.5680   20.2327 C   0  0  0  0  0  0  0  0  0  0  0  0
  -29.3214  -25.9557   19.5728 C   0  0  0  0  0  0  0  0  0  0  0  0
  -24.0682  -28.7171   21.5501 C   0  0  0  0  0  0  0  0  0  0  0  0
  -22.3337  -23.2793   22.7852 C   0  0  0  0  0  0  0  0  0  0  0  0
  -23.7203  -22.5090   24.6076 C   0  0  0  0  0  0  0  0  0  0  0  0
  -24.7209  -23.0657   22.4801 C   0  0  0  0  0  0  0  0  0  0  0  0
  -24.8495  -22.6233   23.7968 C   0  0  0  0  0  0  0  0  0  0  0  0
  -23.7426  -12.6327   21.5250 C   0  0  0  0  0  0  0  0  0  0  0  0
  -22.2508  -27.1717   21.0824 C   0  0  0  0  0  0  0  0  0  0  0  0
  -23.2671  -10.3395   21.7174 C   0  0  0  0  0  0  0  0  0  0  0  0
  -23.1681   -7.8078   20.5497 C   0  0  0  0  0  0  0  0  0  0  0  0
  -22.4574  -10.1163   20.6037 C   0  0  0  0  0  0  0  0  0  0  0  0
  -25.0610  -15.8569   19.1241 C   0  0  0  0  0  0  0  0  0  0  0  0
  -25.3771  -17.2811   17.4789 C   0  0  0  0  0  0  0  0  0  0  0  0
  -23.7647  -15.4484   16.9405 C   0  0  0  0  0  0  0  0  0  0  0  0
  -27.4740  -28.6107   21.4170 C   0  0  0  0  0  0  0  0  0  0  0  0
  -26.5073  -31.4376   22.6805 C   0  0  0  0  0  0  0  0  0  0  0  0
  -23.9267  -33.4205   23.7079 C   0  0  0  0  0  0  0  0  0  0  0  0
  -27.7170  -21.7002   20.7725 C   0  0  0  0  0  0  0  0  0  0  0  0
  -31.8051  -25.7182   20.0975 C   0  0  0  0  0  0  0  0  0  0  0  0
  -25.7257  -29.3348   19.7512 C   0  0  0  0  0  0  0  0  0  0  0  0
  -24.7705  -29.6134   22.5360 C   0  0  0  0  0  0  0  0  0  0  0  0
  -31.4691  -26.2765   21.4765 C   0  0  0  0  0  0  0  0  0  0  0  0
  -29.4474  -19.5824   18.4927 C   0  0  0  0  0  0  0  0  0  0  0  0
  -30.4484  -27.3973   21.3488 C   0  0  0  0  0  0  0  0  0  0  0  0
  -28.4846  -18.4134   18.2767 C   0  0  0  0  0  0  0  0  0  0  0  0
  -29.4028  -20.0916   19.9317 C   0  0  0  0  0  0  0  0  0  0  0  0
  -27.0944  -19.2734   20.2071 C   0  0  0  0  0  0  0  0  0  0  0  0
  -29.1295  -26.8714   20.7683 C   0  0  1  0  0  0  0  0  0  0  0  0
  -26.6594  -29.7545   20.8824 C   0  0  1  0  0  0  0  0  0  0  0  0
  -27.0629  -18.7619   18.7567 C   0  0  2  0  0  0  0  0  0  0  0  0
  -23.8308  -22.0367   26.0205 C   0  0  0  0  0  0  0  0  0  0  0  0
  -28.1092  -22.9964   25.8317 C   0  0  0  0  0  0  0  0  0  0  0  0
  -20.5175  -21.2520   21.4055 C   0  0  0  0  0  0  0  0  0  0  0  0
  -23.4513  -35.6621   24.7309 C   0  0  0  0  0  0  0  0  0  0  0  0
  -27.3904  -30.3798   25.4029 C   0  0  0  0  0  0  0  0  0  0  0  0
  -26.0518  -32.2071   26.4693 C   0  0  0  0  0  0  0  0  0  0  0  0
  -27.9683  -32.7755   24.9770 C   0  0  0  0  0  0  0  0  0  0  0  0
  -22.3622  -34.2931   21.3521 C   0  0  0  0  0  0  0  0  0  0  0  0
  -26.1981  -22.2712   24.3392 C   0  0  0  0  0  0  0  0  0  0  0  0
  -25.9144  -23.1967   21.5913 C   0  0  0  0  0  0  0  0  0  0  0  0
  -26.7530  -23.3707   25.2549 C   0  0  0  0  0  0  0  0  0  0  0  0
  -20.0028  -22.4256   22.2308 C   0  0  0  0  0  0  0  0  0  0  0  0
  -20.3187  -24.8127   23.0020 C   0  0  0  0  0  0  0  0  0  0  0  0
  -21.0987  -26.1185   22.8766 C   0  0  0  0  0  0  0  0  0  1  0  0
  -20.9624  -23.6375   22.2340 C   0  0  1  0  0  0  0  0  0  0  0  0
  -25.8389  -31.8612   23.9661 C   0  0  1  0  0  0  0  0  0  0  0  0
  -23.6076  -34.8796   23.4363 C   0  0  2  0  0  0  0  0  0  0  0  0
  -26.8000  -31.7875   25.1860 C   0  0  0  0  0  0  0  0  0  0  0  0
  -25.9393  -16.7386   19.6090 N   0  0  0  0  0  0  0  0  0  0  0  0
  -26.1117  -17.5919   18.5852 N   0  0  0  0  0  0  0  0  0  0  0  0
  -25.9438  -30.3372   22.0193 N   0  0  0  0  0  0  0  0  0  0  0  0
  -28.0269  -20.4055   20.3244 N   0  0  0  0  0  0  0  0  0  0  0  0
  -25.4311  -18.0344   16.3600 N   0  0  0  0  0  0  0  0  0  0  0  0
  -23.1293  -14.2992   17.4303 N   0  0  0  0  0  0  0  0  0  0  0  0
  -28.2656  -27.9919   20.4684 N   0  0  0  0  0  0  0  0  0  0  0  0
  -25.2859  -33.1887   23.7205 N   0  0  0  0  0  0  0  0  0  0  0  0
  -26.3886  -21.9150   21.1187 N   0  0  0  0  0  0  0  0  0  0  0  0
  -22.3408  -34.9969   22.6603 N   0  3  0  0  0  0  0  0  0  0  0  0
  -23.5341  -15.8241   15.7661 O   0  0  0  0  0  0  0  0  0  0  0  0
  -27.3916  -28.3126   22.6028 O   0  0  0  0  0  0  0  0  0  0  0  0
  -27.4889  -32.0646   22.2741 O   0  0  0  0  0  0  0  0  0  0  0  0
  -23.0573  -32.5720   23.8942 O   0  0  0  0  0  0  0  0  0  0  0  0
  -28.5605  -22.5996   20.8527 O   0  0  0  0  0  0  0  0  0  0  0  0
  -23.3179  -11.5958   22.2977 O   0  0  0  0  0  0  0  0  0  0  0  0
  -21.1489  -26.4911   21.5000 O   0  0  0  0  0  0  0  0  0  1  0  0
  -23.1218   -6.5926   19.9883 F   0  0  0  0  0  0  0  0  0  0  0  0
  -21.7258  -11.1143   20.0895 F   0  0  0  0  0  0  0  0  0  0  0  0
  1  2  1  0  0  0  0
  1  5  2  0  0  0  0
  2  6  2  0  0  0  0
  3  8  2  0  0  0  0
  3 17  1  0  0  0  0
  4  9  1  0  0  0  0
  4 17  2  0  0  0  0
  5 19  1  0  0  0  0
  6 21  1  0  0  0  0
  7 10  2  0  0  0  0
  7 20  1  0  0  0  0
  8 27  1  0  0  0  0
  9 27  2  0  0  0  0
 10 28  1  0  0  0  0
 11 12  2  0  0  0  0
 11 29  1  0  0  0  0
 12 30  1  0  0  0  0
 13 22  1  0  0  0  0
 13 28  2  0  0  0  0
 14 23  1  0  0  0  0
 14 24  2  0  0  0  0
 15 23  2  0  0  0  0
 15 25  1  0  0  0  0
 16 30  2  0  0  0  0
 16 31  1  0  0  0  0
 17 32  1  0  0  0  0
 18 32  1  0  0  0  0
 18 33  2  0  0  0  0
 18 34  1  0  0  0  0
 19 21  2  0  0  0  0
 19 39  1  0  0  0  0
 20 22  2  0  0  0  0
 20 40  1  0  0  0  0
 21 48  1  0  0  0  0
 22 41  1  0  0  0  0
 23 65  1  0  0  0  0
 24 26  1  0  0  0  0
 24 51  1  0  0  0  0
 25 26  2  0  0  0  0
 25 60  1  0  0  0  0
 26 59  1  0  0  0  0
 27 84  1  0  0  0  0
 28 85  1  0  0  0  0
 29 31  2  0  0  0  0
 29 84  1  0  0  0  0
 30 86  1  0  0  0  0
 31 87  1  0  0  0  0
 32 69  2  0  0  0  0
 33 70  1  0  0  0  0
 33 73  1  0  0  0  0
 34 74  1  0  0  0  0
 34 79  2  0  0  0  0
 35 49  1  0  0  0  0
 35 75  1  0  0  0  0
 35 80  2  0  0  0  0
 36 66  1  0  0  0  0
 36 71  1  0  0  0  0
 36 81  2  0  0  0  0
 37 67  1  0  0  0  0
 37 76  1  0  0  0  0
 37 82  2  0  0  0  0
 38 72  1  0  0  0  0
 38 77  1  0  0  0  0
 38 83  2  0  0  0  0
 39 42  1  0  0  0  0
 40 49  1  0  0  0  0
 41 71  1  0  0  0  0
 42 44  1  0  0  0  0
 43 45  1  0  0  0  0
 43 46  1  0  0  0  0
 44 48  1  0  0  0  0
 45 50  1  0  0  0  0
 46 72  1  0  0  0  0
 47 50  1  0  0  0  0
 47 72  1  0  0  0  0
 48 75  1  0  0  0  0
 49 71  1  0  0  0  0
 50 70  1  0  0  0  0
 52 61  1  0  0  0  0
 53 62  1  0  0  0  0
 54 67  1  0  0  0  0
 55 68  1  0  0  0  0
 56 68  1  0  0  0  0
 57 68  1  0  0  0  0
 58 78  1  0  0  0  0
 59 61  1  0  0  0  0
 60 77  1  0  0  0  0
 62 65  1  0  0  0  0
 63 64  1  0  0  0  0
 63 65  1  0  0  0  0
 64 85  1  0  0  0  0
 66 68  1  0  0  0  0
 66 76  1  0  0  0  0
 67 78  1  0  0  0  0
 69 70  1  0  0  0  0
M  CHG  1  78   1
M  ISO  4  38 100  64 101  77 100  85 101
M  END
> <Batch ID>
0100

> <Smiles>
CCCc1c(C)cc(C(CC)C[101CH2:1][101O:1]c2ccc3c(c2)CN(C(=O)C(NC(=O)C(C)NC)C(C)(C)C)C(C(=O)NC2CCCc4ccccc42)C3)cc1C[100NH:0][100C:0](=O)N1CCCC(n2nc(-c3ccc(Oc4ccc(F)cc4F)cc3)c(C(N)=O)c2N)C1

> <Shape>
0.292

> <Color>
0.065

> <Negative vol penalty>
0.000

$$$$

  -OEChem-04052319333D

 84 92  0     1  0  0  0  0  0999 V2000
  -16.4792  -23.8278   22.8455 C   0  0  0  0  0  0  0  0  0  0  0  0
  -17.3784  -23.5037   21.8347 C   0  0  0  0  0  0  0  0  0  0  0  0
  -26.1635  -12.8398   19.6796 C   0  0  0  0  0  0  0  0  0  0  0  0
  -24.8416  -14.1259   21.2402 C   0  0  0  0  0  0  0  0  0  0  0  0
  -16.4479  -25.1233   23.3601 C   0  0  0  0  0  0  0  0  0  0  0  0
  -18.2461  -24.4752   21.3370 C   0  0  0  0  0  0  0  0  0  0  0  0
  -23.9854  -23.6283   19.3750 C   0  0  0  0  0  0  0  0  0  0  0  0
  -30.7473  -23.9088   18.7569 C   0  0  0  0  0  0  0  0  0  0  0  0
  -31.2054  -24.2202   17.4768 C   0  0  0  0  0  0  0  0  0  0  0  0
  -25.5821  -11.6646   20.1555 C   0  0  0  0  0  0  0  0  0  0  0  0
  -24.2601  -12.9507   21.7161 C   0  0  0  0  0  0  0  0  0  0  0  0
  -24.5279  -23.4765   18.0997 C   0  0  0  0  0  0  0  0  0  0  0  0
  -22.1630  -10.3196   23.0935 C   0  0  0  0  0  0  0  0  0  0  0  0
  -20.7812  -10.3097   23.2839 C   0  0  0  0  0  0  0  0  0  0  0  0
  -25.0511  -25.8308   18.0486 C   0  0  0  0  0  0  0  0  0  0  0  0
  -28.6252  -23.2199   17.8300 C   0  0  0  0  0  0  0  0  0  0  0  0
  -20.4546  -10.7904   20.9388 C   0  0  0  0  0  0  0  0  0  0  0  0
  -25.7933  -14.0704   20.2220 C   0  0  0  0  0  0  0  0  0  0  0  0
  -25.9342  -16.0940   18.6751 C   0  0  0  0  0  0  0  0  0  0  0  0
  -17.3222  -26.1087   22.8751 C   0  0  0  0  0  0  0  0  0  0  0  0
  -23.9618  -24.8867   19.9933 C   0  0  0  0  0  0  0  0  0  0  0  0
  -18.2255  -25.7854   21.8446 C   0  0  0  0  0  0  0  0  0  0  0  0
  -24.5101  -25.9954   19.3328 C   0  0  0  0  0  0  0  0  0  0  0  0
  -29.4572  -23.4086   18.9336 C   0  0  0  0  0  0  0  0  0  0  0  0
  -30.3734  -24.0315   16.3733 C   0  0  0  0  0  0  0  0  0  0  0  0
  -29.0833  -23.5313   16.5499 C   0  0  0  0  0  0  0  0  0  0  0  0
  -24.6304  -11.7201   21.1737 C   0  0  0  0  0  0  0  0  0  0  0  0
  -25.0583  -24.5784   17.4351 C   0  0  0  0  0  0  0  0  0  0  0  0
  -22.6906  -10.5649   21.8258 C   0  0  0  0  0  0  0  0  0  0  0  0
  -19.9271  -10.5451   22.2066 C   0  0  0  0  0  0  0  0  0  0  0  0
  -21.8364  -10.8003   20.7484 C   0  0  0  0  0  0  0  0  0  0  0  0
  -26.3940  -15.2847   19.7312 C   0  0  0  0  0  0  0  0  0  0  0  0
  -26.8466  -17.1183   18.6051 C   0  0  0  0  0  0  0  0  0  0  0  0
  -24.7851  -15.9343   17.8327 C   0  0  0  0  0  0  0  0  0  0  0  0
  -21.6733  -26.8345   21.0290 C   0  0  0  0  0  0  0  0  0  0  0  0
  -24.1837  -28.5475   22.1628 C   0  0  0  0  0  0  0  0  0  0  0  0
  -27.4995  -29.3232   21.9380 C   0  0  0  0  0  0  0  0  0  0  0  0
  -30.0340  -20.9741   21.0788 C   0  0  0  0  0  0  0  0  0  0  0  0
  -17.2189  -27.5074   23.4296 C   0  0  0  0  0  0  0  0  0  0  0  0
  -23.3972  -25.0287   21.3802 C   0  0  0  0  0  0  0  0  0  0  0  0
  -24.5274  -27.3641   19.9613 C   0  0  0  0  0  0  0  0  0  0  0  0
  -18.4286  -28.3811   23.1079 C   0  0  0  0  0  0  0  0  0  0  0  0
  -31.3499  -17.6743   20.8407 C   0  0  0  0  0  0  0  0  0  0  0  0
  -18.8070  -28.2480   21.6362 C   0  0  0  0  0  0  0  0  0  0  0  0
  -30.1391  -16.8250   20.4500 C   0  0  0  0  0  0  0  0  0  0  0  0
  -30.9656  -18.7960   21.8031 C   0  0  0  0  0  0  0  0  0  0  0  0
  -28.6544  -18.8117   20.9475 C   0  0  0  0  0  0  0  0  0  0  0  0
  -19.1997  -26.8053   21.2959 C   0  0  1  0  0  0  0  0  0  0  0  0
  -22.9604  -26.4540   21.7044 C   0  0  1  0  0  0  0  0  0  0  0  0
  -28.9822  -17.7017   19.9342 C   0  0  2  0  0  0  0  0  0  0  0  0
  -32.6604  -23.9144   13.2650 C   0  0  0  0  0  0  0  0  0  0  0  0
  -29.2552  -30.7855   22.9755 C   0  0  0  0  0  0  0  0  0  0  0  0
  -23.0425  -30.9614   20.6860 C   0  0  0  0  0  0  0  0  0  0  0  0
  -25.2623  -32.0877   20.9551 C   0  0  0  0  0  0  0  0  0  0  0  0
  -23.9316  -31.4602   22.9697 C   0  0  0  0  0  0  0  0  0  0  0  0
  -29.1123  -26.9886   22.7789 C   0  0  0  0  0  0  0  0  0  0  0  0
  -30.8855  -24.3731   15.0125 C   0  0  0  0  0  0  0  0  0  0  0  0
  -28.1659  -23.3194   15.3721 C   0  0  0  0  0  0  0  0  0  0  0  0
  -28.9675  -23.0762   20.3024 C   0  0  0  0  0  0  0  0  0  0  0  0
  -32.1596  -23.5904   14.6636 C   0  0  0  0  0  0  0  0  0  0  0  0
  -27.5544  -24.6119   14.8273 C   0  0  0  0  0  0  0  0  0  0  0  0
  -26.6464  -25.3186   15.8270 C   0  0  0  0  0  0  0  0  0  1  0  0
  -25.0611  -29.6478   21.6164 C   0  0  1  0  0  0  0  0  0  0  0  0
  -28.5851  -29.4205   22.9946 C   0  0  2  0  0  0  0  0  0  0  0  0
  -24.3225  -31.0140   21.5439 C   0  0  0  0  0  0  0  0  0  0  0  0
  -27.5117  -15.7542   20.2917 N   0  0  0  0  0  0  0  0  0  0  0  0
  -27.7620  -16.8697   19.5851 N   0  0  0  0  0  0  0  0  0  0  0  0
  -23.9580  -27.4531   21.3160 N   0  0  0  0  0  0  0  0  0  0  0  0
  -29.8644  -19.5907   21.2539 N   0  0  0  0  0  0  0  0  0  0  0  0
  -26.9472  -18.1983   17.8014 N   0  0  0  0  0  0  0  0  0  0  0  0
  -23.9532  -14.8257   18.0405 N   0  0  0  0  0  0  0  0  0  0  0  0
  -20.5417  -26.5241   21.7588 N   0  0  0  0  0  0  0  0  0  0  0  0
  -26.2623  -29.6611   22.4443 N   0  0  0  0  0  0  0  0  0  0  0  0
  -28.9435  -21.6513   20.5468 N   0  0  0  0  0  0  0  0  0  0  0  0
  -29.6282  -28.3816   22.7627 N   0  3  0  0  0  0  0  0  0  0  0  0
  -24.5133  -16.7417   16.9119 O   0  0  0  0  0  0  0  0  0  0  0  0
  -21.7045  -27.3714   19.9278 O   0  0  0  0  0  0  0  0  0  0  0  0
  -23.7216  -28.6519   23.3018 O   0  0  0  0  0  0  0  0  0  0  0  0
  -27.7269  -28.9852   20.7785 O   0  0  0  0  0  0  0  0  0  0  0  0
  -31.0817  -21.5612   21.3696 O   0  0  0  0  0  0  0  0  0  0  0  0
  -24.0626  -10.5736   21.6382 O   0  0  0  0  0  0  0  0  0  0  0  0
  -25.5878  -24.4331   16.1900 O   0  0  0  0  0  0  0  0  0  1  0  0
  -18.6001  -10.5341   22.3893 F   0  0  0  0  0  0  0  0  0  0  0  0
  -22.3374  -11.0354   19.5280 F   0  0  0  0  0  0  0  0  0  0  0  0
  1  2  1  0  0  0  0
  1  5  2  0  0  0  0
  2  6  2  0  0  0  0
  3 10  2  0  0  0  0
  3 18  1  0  0  0  0
  4 11  1  0  0  0  0
  4 18  2  0  0  0  0
  5 20  1  0  0  0  0
  6 22  1  0  0  0  0
  7 12  2  0  0  0  0
  7 21  1  0  0  0  0
  8  9  2  0  0  0  0
  8 24  1  0  0  0  0
  9 25  1  0  0  0  0
 10 27  1  0  0  0  0
 11 27  2  0  0  0  0
 12 28  1  0  0  0  0
 13 14  2  0  0  0  0
 13 29  1  0  0  0  0
 14 30  1  0  0  0  0
 15 23  1  0  0  0  0
 15 28  2  0  0  0  0
 16 24  2  0  0  0  0
 16 26  1  0  0  0  0
 17 30  2  0  0  0  0
 17 31  1  0  0  0  0
 18 32  1  0  0  0  0
 19 32  1  0  0  0  0
 19 33  2  0  0  0  0
 19 34  1  0  0  0  0
 20 22  2  0  0  0  0
 20 39  1  0  0  0  0
 21 23  2  0  0  0  0
 21 40  1  0  0  0  0
 22 48  1  0  0  0  0
 23 41  1  0  0  0  0
 24 59  1  0  0  0  0
 25 26  2  0  0  0  0
 25 57  1  0  0  0  0
 26 58  1  0  0  0  0
 27 81  1  0  0  0  0
 28 82  1  0  0  0  0
 29 31  2  0  0  0  0
 29 81  1  0  0  0  0
 30 83  1  0  0  0  0
 31 84  1  0  0  0  0
 32 66  2  0  0  0  0
 33 67  1  0  0  0  0
 33 70  1  0  0  0  0
 34 71  1  0  0  0  0
 34 76  2  0  0  0  0
 35 49  1  0  0  0  0
 35 72  1  0  0  0  0
 35 77  2  0  0  0  0
 36 63  1  0  0  0  0
 36 68  1  0  0  0  0
 36 78  2  0  0  0  0
 37 64  1  0  0  0  0
 37 73  1  0  0  0  0
 37 79  2  0  0  0  0
 38 69  1  0  0  0  0
 38 74  1  0  0  0  0
 38 80  2  0  0  0  0
 39 42  1  0  0  0  0
 40 49  1  0  0  0  0
 41 68  1  0  0  0  0
 42 44  1  0  0  0  0
 43 45  1  0  0  0  0
 43 46  1  0  0  0  0
 44 48  1  0  0  0  0
 45 50  1  0  0  0  0
 46 69  1  0  0  0  0
 47 50  1  0  0  0  0
 47 69  1  0  0  0  0
 48 72  1  0  0  0  0
 49 68  1  0  0  0  0
 50 67  1  0  0  0  0
 51 60  1  0  0  0  0
 52 64  1  0  0  0  0
 53 65  1  0  0  0  0
 54 65  1  0  0  0  0
 55 65  1  0  0  0  0
 56 75  1  0  0  0  0
 57 60  1  0  0  0  0
 58 61  1  0  0  0  0
 59 74  1  0  0  0  0
 61 62  1  0  0  0  0
 62 82  1  0  0  0  0
 63 65  1  0  0  0  0
 63 73  1  0  0  0  0
 64 75  1  0  0  0  0
 66 67  1  0  0  0  0
M  CHG  1  75   1
M  ISO  4  38 100  62 101  74 100  82 101
M  END
> <Batch ID>
0100

> <Smiles>
CCCc1ccc(C[100NH:0][100C:0](=O)N2CCCC(n3nc(-c4ccc(Oc5ccc(F)cc5F)cc4)c(C(N)=O)c3N)C2)cc1CC[101CH2:1][101O:1]c1ccc2c(c1)CN(C(=O)C(NC(=O)C(C)NC)C(C)(C)C)C(C(=O)NC1CCCc3ccccc31)C2

> <Shape>
0.246

> <Color>
0.039

> <Negative vol penalty>
0.000

$$$$

  -OEChem-04052319333D

 91 99  0     1  0  0  0  0  0999 V2000
  -27.0179  -21.5807   26.8282 C   0  0  0  0  0  0  0  0  0  0  0  0
  -26.7208  -22.8170   26.2638 C   0  0  0  0  0  0  0  0  0  0  0  0
  -24.7698  -13.7755   19.6527 C   0  0  0  0  0  0  0  0  0  0  0  0
  -25.6597  -14.3850   21.8145 C   0  0  0  0  0  0  0  0  0  0  0  0
  -26.4671  -20.4189   26.2889 C   0  0  0  0  0  0  0  0  0  0  0  0
  -25.8736  -22.8922   25.1588 C   0  0  0  0  0  0  0  0  0  0  0  0
  -22.4466  -26.5960   25.5868 C   0  0  0  0  0  0  0  0  0  0  0  0
  -24.8520  -12.4269   19.9991 C   0  0  0  0  0  0  0  0  0  0  0  0
  -25.7419  -13.0364   22.1609 C   0  0  0  0  0  0  0  0  0  0  0  0
  -22.8800  -27.8967   25.3339 C   0  0  0  0  0  0  0  0  0  0  0  0
  -24.4893   -8.8379   20.4493 C   0  0  0  0  0  0  0  0  0  0  0  0
  -23.3963   -8.0241   20.1516 C   0  0  0  0  0  0  0  0  0  0  0  0
  -21.9293  -27.7767   23.1201 C   0  0  0  0  0  0  0  0  0  0  0  0
  -21.9890   -9.4024   21.5504 C   0  0  0  0  0  0  0  0  0  0  0  0
  -25.4311  -26.7979   20.9039 C   0  0  0  0  0  0  0  0  0  0  0  0
  -25.1737  -14.7546   20.5604 C   0  0  0  0  0  0  0  0  0  0  0  0
  -23.9987  -17.0138   20.4081 C   0  0  0  0  0  0  0  0  0  0  0  0
  -25.6050  -20.4808   25.1827 C   0  0  0  0  0  0  0  0  0  0  0  0
  -21.7597  -25.8706   24.6027 C   0  0  0  0  0  0  0  0  0  0  0  0
  -25.3118  -21.7301   24.6033 C   0  0  0  0  0  0  0  0  0  0  0  0
  -21.4861  -26.4678   23.3639 C   0  0  0  0  0  0  0  0  0  0  0  0
  -26.1472  -26.2233   19.8770 C   0  0  0  0  0  0  0  0  0  0  0  0
  -26.7228  -27.2751   19.1224 C   0  0  0  0  0  0  0  0  0  0  0  0
  -25.3380  -12.0573   21.2532 C   0  0  0  0  0  0  0  0  0  0  0  0
  -22.6239  -28.4863   24.0995 C   0  0  0  0  0  0  0  0  0  0  0  0
  -24.3322   -9.9339   21.2976 C   0  0  0  0  0  0  0  0  0  0  0  0
  -22.1461   -8.3064   20.7021 C   0  0  0  0  0  0  0  0  0  0  0  0
  -23.0820  -10.2162   21.8482 C   0  0  0  0  0  0  0  0  0  0  0  0
  -25.0896  -16.1479   20.2029 C   0  0  0  0  0  0  0  0  0  0  0  0
  -26.3412  -28.4604   19.7112 C   0  0  0  0  0  0  0  0  0  0  0  0
  -24.4160  -18.2187   19.8975 C   0  0  0  0  0  0  0  0  0  0  0  0
  -22.7224  -16.7524   21.0067 C   0  0  0  0  0  0  0  0  0  0  0  0
  -22.3120  -23.1789   23.0048 C   0  0  0  0  0  0  0  0  0  0  0  0
  -19.3151  -23.6932   21.8750 C   0  0  0  0  0  0  0  0  0  0  0  0
  -16.8082  -25.9134   21.2173 C   0  0  0  0  0  0  0  0  0  0  0  0
  -28.3166  -22.1664   19.3094 C   0  0  0  0  0  0  0  0  0  0  0  0
  -25.0715  -19.1937   24.6053 C   0  0  0  0  0  0  0  0  0  0  0  0
  -21.2755  -24.4781   24.9005 C   0  0  0  0  0  0  0  0  0  0  0  0
  -20.7347  -25.7390   22.2809 C   0  0  0  0  0  0  0  0  0  0  0  0
  -23.8854  -19.3934   23.6653 C   0  0  0  0  0  0  0  0  0  0  0  0
  -28.4627  -19.3825   17.0946 C   0  0  0  0  0  0  0  0  0  0  0  0
  -24.1672  -20.5261   22.6833 C   0  0  0  0  0  0  0  0  0  0  0  0
  -27.5134  -18.3626   17.7260 C   0  0  0  0  0  0  0  0  0  0  0  0
  -29.2271  -20.1733   18.1540 C   0  0  0  0  0  0  0  0  0  0  0  0
  -27.4314  -19.8062   19.8016 C   0  0  0  0  0  0  0  0  0  0  0  0
  -24.3774  -21.8548   23.4195 C   0  0  1  0  0  0  0  0  0  0  0  0
  -21.0353  -23.6474   23.6437 C   0  0  1  0  0  0  0  0  0  0  0  0
  -26.5971  -19.0230   18.7736 C   0  0  2  0  0  0  0  0  0  0  0  0
  -26.6559  -29.8557   19.3379 C   0  0  0  0  0  0  0  0  0  0  0  0
  -25.0657  -27.9006   15.0151 C   0  0  0  0  0  0  0  0  0  0  0  0
  -20.5302  -31.1776   23.5874 C   0  0  0  0  0  0  0  0  0  0  0  0
  -29.0040  -27.6789   18.1624 C   0  0  0  0  0  0  0  0  0  0  0  0
  -14.4927  -26.0429   20.2585 C   0  0  0  0  0  0  0  0  0  0  0  0
  -23.1725  -29.8893   20.0454 C   0  0  0  0  0  0  0  0  0  0  0  0
  -20.4696  -23.4518   19.0609 C   0  0  0  0  0  0  0  0  0  0  0  0
  -18.3758  -24.5099   18.1864 C   0  0  0  0  0  0  0  0  0  0  0  0
  -18.2608  -22.3239   19.3826 C   0  0  0  0  0  0  0  0  0  0  0  0
  -23.3365  -31.7181   22.5658 C   0  0  0  0  0  0  0  0  0  0  0  0
  -15.6820  -26.9052   23.7682 C   0  0  0  0  0  0  0  0  0  0  0  0
  -26.2822  -24.7756   19.6198 C   0  0  0  0  0  0  0  0  0  0  0  0
  -25.6297  -27.2126   16.2489 C   0  0  0  0  0  0  0  0  0  0  0  0
  -21.2079  -30.4114   22.4565 C   0  0  0  0  0  0  0  0  0  0  0  0
  -26.9973  -27.7875   16.6327 C   0  0  0  0  0  0  0  0  0  0  0  0
  -24.9181  -29.1565   21.7317 C   0  0  0  0  0  0  0  0  0  0  0  0
  -27.2940  -24.0654   20.5372 C   0  0  0  0  0  0  0  0  0  0  0  0
  -27.5755  -27.1302   17.9245 C   0  0  2  0  0  0  0  0  0  0  0  0
  -18.7292  -24.4326   20.6964 C   0  0  1  0  0  0  0  0  0  0  0  0
  -15.3216  -25.8735   21.5222 C   0  0  2  0  0  0  0  0  0  0  0  0
  -23.4020  -29.3788   21.4759 C   0  0  1  0  0  0  0  0  0  0  0  0
  -18.9747  -23.6928   19.3511 C   0  0  0  0  0  0  0  0  0  0  0  0
  -22.7498  -30.2976   22.5635 C   0  0  1  0  0  0  0  0  0  1  0  0
  -26.1222  -16.7513   19.6083 N   0  0  0  0  0  0  0  0  0  0  0  0
  -25.5565  -28.1581   20.7934 N   0  0  0  0  0  0  0  0  0  0  0  0
  -25.6820  -18.0093   19.4353 N   0  0  0  0  0  0  0  0  0  0  0  0
  -20.2874  -24.3774   22.6181 N   0  0  0  0  0  0  0  0  0  0  0  0
  -28.3002  -20.7753   19.1155 N   0  0  0  0  0  0  0  0  0  0  0  0
  -23.8198  -19.4262   19.8033 N   0  0  0  0  0  0  0  0  0  0  0  0
  -22.4582  -15.4596   21.4791 N   0  0  0  0  0  0  0  0  0  0  0  0
  -23.1065  -22.4098   23.8335 N   0  0  0  0  0  0  0  0  0  0  0  0
  -17.3212  -24.6504   21.0103 N   0  0  0  0  0  0  0  0  0  0  0  0
  -27.4017  -22.6557   20.2337 N   0  0  0  0  0  0  0  0  0  0  0  0
  -14.9582  -26.9628   22.4721 N   0  3  0  0  0  0  0  0  0  0  0  0
  -21.8362  -17.6348   21.1045 O   0  0  0  0  0  0  0  0  0  0  0  0
  -22.5573  -23.4907   21.8454 O   0  0  0  0  0  0  0  0  0  0  0  0
  -18.9194  -22.5533   22.1312 O   0  0  0  0  0  0  0  0  0  0  0  0
  -17.4493  -26.9606   21.1642 O   0  0  0  0  0  0  0  0  0  0  0  0
  -29.0856  -22.9174   18.6997 O   0  0  0  0  0  0  0  0  0  0  0  0
  -25.4181  -10.7414   21.5916 O   0  0  0  0  0  0  0  0  0  0  0  0
  -23.0464  -29.7555   23.8498 O   0  0  0  0  0  0  0  0  0  1  0  0
  -21.0963   -7.5257   20.4149 F   0  0  0  0  0  0  0  0  0  0  0  0
  -22.9247  -11.2685   22.6629 F   0  0  0  0  0  0  0  0  0  0  0  0
  1  2  1  0  0  0  0
  1  5  2  0  0  0  0
  2  6  2  0  0  0  0
  3  8  2  0  0  0  0
  3 16  1  0  0  0  0
  4  9  1  0  0  0  0
  4 16  2  0  0  0  0
  5 18  1  0  0  0  0
  6 20  1  0  0  0  0
  7 10  2  0  0  0  0
  7 19  1  0  0  0  0
  8 24  1  0  0  0  0
  9 24  2  0  0  0  0
 10 25  1  0  0  0  0
 11 12  2  0  0  0  0
 11 26  1  0  0  0  0
 12 27  1  0  0  0  0
 13 21  1  0  0  0  0
 13 25  2  0  0  0  0
 14 27  2  0  0  0  0
 14 28  1  0  0  0  0
 15 22  2  0  0  0  0
 15 73  1  0  0  0  0
 16 29  1  0  0  0  0
 17 29  1  0  0  0  0
 17 31  2  0  0  0  0
 17 32  1  0  0  0  0
 18 20  2  0  0  0  0
 18 37  1  0  0  0  0
 19 21  2  0  0  0  0
 19 38  1  0  0  0  0
 20 46  1  0  0  0  0
 21 39  1  0  0  0  0
 22 23  1  0  0  0  0
 22 60  1  0  0  0  0
 23 30  2  0  0  0  0
 23 66  1  0  0  0  0
 24 88  1  0  0  0  0
 25 89  1  0  0  0  0
 26 28  2  0  0  0  0
 26 88  1  0  0  0  0
 27 90  1  0  0  0  0
 28 91  1  0  0  0  0
 29 72  2  0  0  0  0
 30 49  1  0  0  0  0
 30 73  1  0  0  0  0
 31 74  1  0  0  0  0
 31 77  1  0  0  0  0
 32 78  1  0  0  0  0
 32 83  2  0  0  0  0
 33 47  1  0  0  0  0
 33 79  1  0  0  0  0
 33 84  2  0  0  0  0
 34 67  1  0  0  0  0
 34 75  1  0  0  0  0
 34 85  2  0  0  0  0
 35 68  1  0  0  0  0
 35 80  1  0  0  0  0
 35 86  2  0  0  0  0
 36 76  1  0  0  0  0
 36 81  1  0  0  0  0
 36 87  2  0  0  0  0
 37 40  1  0  0  0  0
 38 47  1  0  0  0  0
 39 75  1  0  0  0  0
 40 42  1  0  0  0  0
 41 43  1  0  0  0  0
 41 44  1  0  0  0  0
 42 46  1  0  0  0  0
 43 48  1  0  0  0  0
 44 76  1  0  0  0  0
 45 48  1  0  0  0  0
 45 76  1  0  0  0  0
 46 79  1  0  0  0  0
 47 75  1  0  0  0  0
 48 74  1  0  0  0  0
 50 61  1  0  0  0  0
 51 62  1  0  0  0  0
 52 66  1  0  0  0  0
 53 68  1  0  0  0  0
 54 69  1  0  0  0  0
 55 70  1  0  0  0  0
 56 70  1  0  0  0  0
 57 70  1  0  0  0  0
 58 71  1  0  0  0  0
 59 82  1  0  0  0  0
 60 65  1  0  0  0  0
 61 63  1  0  0  0  0
 62 71  1  0  0  0  0
 63 66  1  0  0  0  0
 64 69  1  0  0  0  0
 64 73  1  0  0  0  0
 65 81  1  0  0  0  0
 67 70  1  0  0  0  0
 67 80  1  0  0  0  0
 68 82  1  0  0  0  0
 69 71  1  0  0  0  0
 71 89  1  0  0  0  0
 72 74  1  0  0  0  0
M  CHG  1  82   1
M  ISO  4  36 100  71 101  81 100  89 101
M  END
> <Batch ID>
0100

> <Smiles>
CCCC(C)c1c(CC[100NH:0][100C:0](=O)N2CCCC(n3nc(-c4ccc(Oc5ccc(F)cc5F)cc4)c(C(N)=O)c3N)C2)cn(CC(C)[101C:1](C)(CC)[101O:1]c2ccc3c(c2)CN(C(=O)C(NC(=O)C(C)NC)C(C)(C)C)C(C(=O)NC2CCCc4ccccc42)C3)c1C

> <Shape>
0.185

> <Color>
0.061

> <Negative vol penalty>
0.000

$$$$

  -OEChem-04052319333D

 83 90  0     1  0  0  0  0  0999 V2000
  -28.0332  -21.1901   27.8681 C   0  0  0  0  0  0  0  0  0  0  0  0
  -28.1330  -21.6392   26.5552 C   0  0  0  0  0  0  0  0  0  0  0  0
  -26.5064  -12.9219   21.6222 C   0  0  0  0  0  0  0  0  0  0  0  0
  -26.1199  -13.9042   19.4490 C   0  0  0  0  0  0  0  0  0  0  0  0
  -26.8004  -21.2111   28.5190 C   0  0  0  0  0  0  0  0  0  0  0  0
  -26.9997  -22.1085   25.8920 C   0  0  0  0  0  0  0  0  0  0  0  0
  -27.8752  -26.3979   23.3465 C   0  0  0  0  0  0  0  0  0  0  0  0
  -25.2426  -12.3332   21.5809 C   0  0  0  0  0  0  0  0  0  0  0  0
  -24.8561  -13.3155   19.4077 C   0  0  0  0  0  0  0  0  0  0  0  0
  -28.5367  -26.2891   22.1240 C   0  0  0  0  0  0  0  0  0  0  0  0
  -23.7920   -9.6473   20.1268 C   0  0  0  0  0  0  0  0  0  0  0  0
  -23.6867   -8.3104   20.5104 C   0  0  0  0  0  0  0  0  0  0  0  0
  -26.4251  -26.4714   20.9720 C   0  0  0  0  0  0  0  0  0  0  0  0
  -22.1558   -8.9363   22.2715 C   0  0  0  0  0  0  0  0  0  0  0  0
  -26.9451  -13.7074   20.5562 C   0  0  0  0  0  0  0  0  0  0  0  0
  -29.4603  -13.7663   20.1345 C   0  0  0  0  0  0  0  0  0  0  0  0
  -25.6533  -21.6899   27.8667 C   0  0  0  0  0  0  0  0  0  0  0  0
  -26.4802  -26.5335   23.3913 C   0  0  0  0  0  0  0  0  0  0  0  0
  -25.7501  -22.1346   26.5343 C   0  0  0  0  0  0  0  0  0  0  0  0
  -25.7485  -26.5843   22.1962 C   0  0  0  0  0  0  0  0  0  0  0  0
  -24.4174  -12.5300   20.4737 C   0  0  0  0  0  0  0  0  0  0  0  0
  -27.8113  -26.3230   20.9366 C   0  0  0  0  0  0  0  0  0  0  0  0
  -23.0792  -10.6288   20.8155 C   0  0  0  0  0  0  0  0  0  0  0  0
  -22.8686   -7.9549   21.5828 C   0  0  0  0  0  0  0  0  0  0  0  0
  -22.2611  -10.2733   21.8879 C   0  0  0  0  0  0  0  0  0  0  0  0
  -28.2504  -14.3162   20.5985 C   0  0  0  0  0  0  0  0  0  0  0  0
  -30.4009  -14.7308   20.4023 C   0  0  0  0  0  0  0  0  0  0  0  0
  -29.7117  -12.4971   19.5167 C   0  0  0  0  0  0  0  0  0  0  0  0
  -24.0962  -24.8081   24.5927 C   0  0  0  0  0  0  0  0  0  0  0  0
  -22.3094  -27.3572   23.6805 C   0  0  0  0  0  0  0  0  0  0  0  0
  -21.9639  -30.0725   21.6423 C   0  0  0  0  0  0  0  0  0  0  0  0
  -30.0697  -20.6697   21.0887 C   0  0  0  0  0  0  0  0  0  0  0  0
  -24.3334  -21.6491   28.5954 C   0  0  0  0  0  0  0  0  0  0  0  0
  -25.7843  -26.6765   24.7171 C   0  0  0  0  0  0  0  0  0  0  0  0
  -24.2514  -26.7487   22.1893 C   0  0  0  0  0  0  0  0  0  0  0  0
  -23.2531  -22.5114   27.9477 C   0  0  0  0  0  0  0  0  0  0  0  0
  -31.3345  -18.3104   23.4363 C   0  0  0  0  0  0  0  0  0  0  0  0
  -23.2171  -22.2793   26.4405 C   0  0  0  0  0  0  0  0  0  0  0  0
  -30.7966  -16.9696   22.9333 C   0  0  0  0  0  0  0  0  0  0  0  0
  -30.3274  -19.4384   23.2227 C   0  0  0  0  0  0  0  0  0  0  0  0
  -29.2958  -18.2333   21.3366 C   0  0  0  0  0  0  0  0  0  0  0  0
  -24.5482  -22.6741   25.7896 C   0  0  1  0  0  0  0  0  0  0  0  0
  -24.3085  -26.2940   24.6617 C   0  0  1  0  0  0  0  0  0  0  0  0
  -30.2982  -17.0752   21.4795 C   0  0  2  0  0  0  0  0  0  0  0  0
  -20.3791  -31.9420   21.1031 C   0  0  0  0  0  0  0  0  0  0  0  0
  -25.8679  -22.0758   20.4518 C   0  0  0  0  0  0  0  0  0  0  0  0
  -20.5282  -25.4044   22.1560 C   0  0  0  0  0  0  0  0  0  0  0  0
  -19.5799  -27.3546   20.9048 C   0  0  0  0  0  0  0  0  0  0  0  0
  -19.2954  -27.2044   23.3785 C   0  0  0  0  0  0  0  0  0  0  0  0
  -25.2341  -22.5257   16.5885 C   0  0  0  0  0  0  0  0  0  0  0  0
  -24.6626  -20.5776   18.0278 C   0  0  0  0  0  0  0  0  0  0  0  0
  -23.5465  -22.7814   18.4127 C   0  0  0  0  0  0  0  0  0  0  0  0
  -23.9492  -32.1305   22.4050 C   0  0  0  0  0  0  0  0  0  0  0  0
  -29.8482  -24.8184   18.3457 C   0  0  0  0  0  0  0  0  0  0  0  0
  -28.6799  -23.8959   17.9712 C   0  0  0  0  0  0  0  0  0  0  0  0
  -29.7572  -21.7645   18.8835 C   0  0  0  0  0  0  0  0  0  0  0  0
  -29.6599  -25.4531   19.7193 C   0  0  0  0  0  0  0  0  0  1  0  0
  -21.5718  -27.7508   22.4236 C   0  0  1  0  0  0  0  0  0  0  0  0
  -21.5755  -31.5101   21.9367 C   0  0  2  0  0  0  0  0  0  0  0  0
  -26.0490  -22.4897   18.9920 C   0  0  2  0  0  0  0  0  0  0  0  0
  -28.5375  -22.6878   18.9080 C   0  0  2  0  0  0  0  0  0  0  0  0
  -20.2718  -26.9235   22.2156 C   0  0  0  0  0  0  0  0  0  0  0  0
  -24.8786  -22.1072   18.0315 C   0  0  0  0  0  0  0  0  0  0  0  0
  -28.4052  -15.5355   21.1215 N   0  0  0  0  0  0  0  0  0  0  0  0
  -29.7235  -15.7596   20.9879 N   0  0  0  0  0  0  0  0  0  0  0  0
  -23.6161  -26.8781   23.5111 N   0  0  0  0  0  0  0  0  0  0  0  0
  -29.8960  -19.4852   21.8235 N   0  0  0  0  0  0  0  0  0  0  0  0
  -31.7329  -14.7907   20.1916 N   0  0  0  0  0  0  0  0  0  0  0  0
  -28.6320  -11.6263   19.3159 N   0  0  0  0  0  0  0  0  0  0  0  0
  -24.6387  -24.1124   25.6562 N   0  0  0  0  0  0  0  0  0  0  0  0
  -21.3559  -29.1910   22.5110 N   0  0  0  0  0  0  0  0  0  0  0  0
  -29.6396  -20.6268   19.7681 N   0  0  0  0  0  0  0  0  0  0  0  0
  -22.7124  -32.4257   21.6367 N   0  3  0  0  0  0  0  0  0  0  0  0
  -27.3311  -21.8961   18.5335 N   0  3  0  0  0  0  0  0  0  0  0  0
  -30.8623  -12.1390   19.1683 O   0  0  0  0  0  0  0  0  0  0  0  0
  -23.4841  -24.3286   23.6456 O   0  0  0  0  0  0  0  0  0  0  0  0
  -21.7494  -27.4773   24.7731 O   0  0  0  0  0  0  0  0  0  0  0  0
  -22.7271  -29.7621   20.7303 O   0  0  0  0  0  0  0  0  0  0  0  0
  -30.5758  -21.6881   21.5720 O   0  0  0  0  0  0  0  0  0  0  0  0
  -23.1842  -11.9555   20.4329 O   0  0  0  0  0  0  0  0  0  0  0  0
  -28.4545  -26.2164   19.7421 O   0  0  0  0  0  0  0  0  0  1  0  0
  -22.7664   -6.6709   21.9501 F   0  0  0  0  0  0  0  0  0  0  0  0
  -21.5729  -11.2116   22.5526 F   0  0  0  0  0  0  0  0  0  0  0  0
  1  2  1  0  0  0  0
  1  5  2  0  0  0  0
  2  6  2  0  0  0  0
  3  8  2  0  0  0  0
  3 15  1  0  0  0  0
  4  9  1  0  0  0  0
  4 15  2  0  0  0  0
  5 17  1  0  0  0  0
  6 19  1  0  0  0  0
  7 10  2  0  0  0  0
  7 18  1  0  0  0  0
  8 21  1  0  0  0  0
  9 21  2  0  0  0  0
 10 22  1  0  0  0  0
 11 12  2  0  0  0  0
 11 23  1  0  0  0  0
 12 24  1  0  0  0  0
 13 20  1  0  0  0  0
 13 22  2  0  0  0  0
 14 24  2  0  0  0  0
 14 25  1  0  0  0  0
 15 26  1  0  0  0  0
 16 26  1  0  0  0  0
 16 27  2  0  0  0  0
 16 28  1  0  0  0  0
 17 19  2  0  0  0  0
 17 33  1  0  0  0  0
 18 20  2  0  0  0  0
 18 34  1  0  0  0  0
 19 42  1  0  0  0  0
 20 35  1  0  0  0  0
 21 80  1  0  0  0  0
 22 81  1  0  0  0  0
 23 25  2  0  0  0  0
 23 80  1  0  0  0  0
 24 82  1  0  0  0  0
 25 83  1  0  0  0  0
 26 64  2  0  0  0  0
 27 65  1  0  0  0  0
 27 68  1  0  0  0  0
 28 69  1  0  0  0  0
 28 75  2  0  0  0  0
 29 43  1  0  0  0  0
 29 70  1  0  0  0  0
 29 76  2  0  0  0  0
 30 58  1  0  0  0  0
 30 66  1  0  0  0  0
 30 77  2  0  0  0  0
 31 59  1  0  0  0  0
 31 71  1  0  0  0  0
 31 78  2  0  0  0  0
 32 67  1  0  0  0  0
 32 72  1  0  0  0  0
 32 79  2  0  0  0  0
 33 36  1  0  0  0  0
 34 43  1  0  0  0  0
 35 66  1  0  0  0  0
 36 38  1  0  0  0  0
 37 39  1  0  0  0  0
 37 40  1  0  0  0  0
 38 42  1  0  0  0  0
 39 44  1  0  0  0  0
 40 67  1  0  0  0  0
 41 44  1  0  0  0  0
 41 67  1  0  0  0  0
 42 70  1  0  0  0  0
 43 66  1  0  0  0  0
 44 65  1  0  0  0  0
 45 59  1  0  0  0  0
 46 60  1  0  0  0  0
 47 62  1  0  0  0  0
 48 62  1  0  0  0  0
 49 62  1  0  0  0  0
 50 63  1  0  0  0  0
 51 63  1  0  0  0  0
 52 63  1  0  0  0  0
 53 73  1  0  0  0  0
 54 55  1  0  0  0  0
 54 57  1  0  0  0  0
 55 61  1  0  0  0  0
 56 61  1  0  0  0  0
 56 72  1  0  0  0  0
 57 81  1  0  0  0  0
 58 62  1  0  0  0  0
 58 71  1  0  0  0  0
 59 73  1  0  0  0  0
 60 63  1  0  0  0  0
 60 74  1  0  0  0  0
 61 74  1  0  0  0  0
 64 65  1  0  0  0  0
M  CHG  2  73   1  74   1
M  ISO  4  32 100  57 101  72 100  81 101
M  END
> <Batch ID>
0100

> <Smiles>
CNC(C)C(=O)NC(C(=O)N1Cc2cc([101O:1][101CH2:1]CCC(C[100NH:0][100C:0](=O)N3CCCC(n4nc(-c5ccc(Oc6ccc(F)cc6F)cc5)c(C(N)=O)c4N)C3)NC(C)C(C)(C)C)ccc2CC1C(=O)NC1CCCc2ccccc21)C(C)(C)C

> <Shape>
0.249

> <Color>
0.082

> <Negative vol penalty>
0.000

$$$$

  -OEChem-04052319333D

 93101  0     1  0  0  0  0  0999 V2000
  -24.4813  -16.9339   14.2307 C   0  0  0  0  0  0  0  0  0  0  0  0
  -24.9874  -16.0389   15.1679 C   0  0  0  0  0  0  0  0  0  0  0  0
  -25.7338  -29.3732   21.2492 C   0  0  0  0  0  0  0  0  0  0  0  0
  -25.3928  -27.3719   22.5591 C   0  0  0  0  0  0  0  0  0  0  0  0
  -23.7250  -18.0275   14.6503 C   0  0  0  0  0  0  0  0  0  0  0  0
  -24.7383  -16.2377   16.5255 C   0  0  0  0  0  0  0  0  0  0  0  0
  -23.3859  -11.9726   18.8972 C   0  0  0  0  0  0  0  0  0  0  0  0
  -24.4322  -29.7836   21.5374 C   0  0  0  0  0  0  0  0  0  0  0  0
  -24.0912  -27.7823   22.8473 C   0  0  0  0  0  0  0  0  0  0  0  0
  -24.4021  -11.0752   19.2224 C   0  0  0  0  0  0  0  0  0  0  0  0
  -21.0884  -27.8171   21.2940 C   0  0  0  0  0  0  0  0  0  0  0  0
  -20.0714  -26.8683   21.1884 C   0  0  0  0  0  0  0  0  0  0  0  0
  -24.3967  -11.9000   21.4893 C   0  0  0  0  0  0  0  0  0  0  0  0
  -29.9479  -11.9028   19.1202 C   0  0  0  0  0  0  0  0  0  0  0  0
  -19.5400  -27.1779   23.5248 C   0  0  0  0  0  0  0  0  0  0  0  0
  -26.2141  -28.1673   21.7600 C   0  0  0  0  0  0  0  0  0  0  0  0
  -28.7229  -28.0270   22.2003 C   0  0  0  0  0  0  0  0  0  0  0  0
  -23.4584  -18.2344   16.0129 C   0  0  0  0  0  0  0  0  0  0  0  0
  -22.8741  -12.8495   19.8645 C   0  0  0  0  0  0  0  0  0  0  0  0
  -23.9788  -17.3358   16.9638 C   0  0  0  0  0  0  0  0  0  0  0  0
  -23.3723  -12.8058   21.1745 C   0  0  0  0  0  0  0  0  0  0  0  0
  -29.0613  -11.9101   20.2252 C   0  0  0  0  0  0  0  0  0  0  0  0
  -23.6109  -28.9882   22.3364 C   0  0  0  0  0  0  0  0  0  0  0  0
  -24.9097  -11.0408   20.5179 C   0  0  0  0  0  0  0  0  0  0  0  0
  -21.3313  -28.4462   22.5150 C   0  0  0  0  0  0  0  0  0  0  0  0
  -19.2972  -26.5488   22.3038 C   0  0  0  0  0  0  0  0  0  0  0  0
  -20.5571  -28.1266   23.6304 C   0  0  0  0  0  0  0  0  0  0  0  0
  -27.5583  -27.7426   21.4622 C   0  0  0  0  0  0  0  0  0  0  0  0
  -29.9126  -13.1589   18.5562 C   0  0  0  0  0  0  0  0  0  0  0  0
  -28.5110  -13.1705   20.3026 C   0  0  0  0  0  0  0  0  0  0  0  0
  -29.7300  -27.4009   21.5073 C   0  0  0  0  0  0  0  0  0  0  0  0
  -28.8802  -28.7890   23.4046 C   0  0  0  0  0  0  0  0  0  0  0  0
  -22.7492  -16.0093   20.1858 C   0  0  0  0  0  0  0  0  0  0  0  0
  -20.9401  -15.2836   22.7786 C   0  0  0  0  0  0  0  0  0  0  0  0
  -20.0995  -13.0092   25.1802 C   0  0  0  0  0  0  0  0  0  0  0  0
  -29.8137  -22.7145   17.7815 C   0  0  0  0  0  0  0  0  0  0  0  0
  -22.6757  -19.4570   16.4220 C   0  0  0  0  0  0  0  0  0  0  0  0
  -21.7595  -13.7930   19.5044 C   0  0  0  0  0  0  0  0  0  0  0  0
  -22.8431  -13.7121   22.2547 C   0  0  0  0  0  0  0  0  0  0  0  0
  -22.1418  -19.3885   17.8505 C   0  0  0  0  0  0  0  0  0  0  0  0
  -30.9383  -26.0208   17.0885 C   0  0  0  0  0  0  0  0  0  0  0  0
  -23.2326  -18.9153   18.8060 C   0  0  0  0  0  0  0  0  0  0  0  0
  -30.3046  -26.8626   18.1974 C   0  0  0  0  0  0  0  0  0  0  0  0
  -30.0087  -24.8992   16.6303 C   0  0  0  0  0  0  0  0  0  0  0  0
  -28.8773  -24.8691   18.8195 C   0  0  0  0  0  0  0  0  0  0  0  0
  -23.7093  -17.5037   18.4434 C   0  0  1  0  0  0  0  0  0  0  0  0
  -21.6694  -14.9956   20.4388 C   0  0  1  0  0  0  0  0  0  0  0  0
  -29.7994  -25.9785   19.3534 C   0  0  2  0  0  0  0  0  0  0  0  0
  -27.5303  -13.7246   21.2603 C   0  0  0  0  0  0  0  0  0  0  0  0
  -30.0457  -10.3318   21.9074 C   0  0  0  0  0  0  0  0  0  0  0  0
  -30.2923  -12.9586   16.0724 C   0  0  0  0  0  0  0  0  0  0  0  0
  -32.1756  -13.6892   17.5806 C   0  0  0  0  0  0  0  0  0  0  0  0
  -18.6170  -12.7168   27.1836 C   0  0  0  0  0  0  0  0  0  0  0  0
  -29.6404  -16.4475   21.0540 C   0  0  0  0  0  0  0  0  0  0  0  0
  -22.8300  -17.0210   24.4277 C   0  0  0  0  0  0  0  0  0  0  0  0
  -21.9023  -15.9493   26.4915 C   0  0  0  0  0  0  0  0  0  0  0  0
  -20.4092  -17.2792   24.9999 C   0  0  0  0  0  0  0  0  0  0  0  0
  -28.4758  -19.6034   16.9788 C   0  0  0  0  0  0  0  0  0  0  0  0
  -27.0521  -20.3756   18.9029 C   0  0  0  0  0  0  0  0  0  0  0  0
  -18.6579  -10.7480   23.9281 C   0  0  0  0  0  0  0  0  0  0  0  0
  -28.1761   -9.5233   20.4179 C   0  0  0  0  0  0  0  0  0  0  0  0
  -28.7132  -15.3067   19.0141 C   0  0  0  0  0  0  0  0  0  0  0  0
  -29.5539  -20.6048   19.0625 C   0  0  0  0  0  0  0  0  0  0  0  0
  -29.7289  -17.6802   18.8382 C   0  0  0  0  0  0  0  0  0  0  0  0
  -26.8109   -9.8066   19.7981 C   0  0  0  0  0  0  0  0  0  1  0  0
  -28.7762  -10.7393   21.1498 C   0  0  2  0  0  0  0  0  0  0  0  0
  -30.6419  -13.6924   17.3873 C   0  0  0  0  0  0  0  0  0  0  0  0
  -21.2219  -15.0102   24.2362 C   0  0  1  0  0  0  0  0  0  0  0  0
  -18.7507  -12.5250   25.6809 C   0  0  2  0  0  0  0  0  0  0  0  0
  -29.7672  -16.3096   19.5321 C   0  0  1  0  0  0  0  0  0  0  0  0
  -21.6024  -16.2991   25.0182 C   0  0  0  0  0  0  0  0  0  0  0  0
  -28.3972  -19.7659   18.4989 C   0  0  0  0  0  0  0  0  0  0  0  0
  -27.8017  -26.9942   20.3830 N   0  0  0  0  0  0  0  0  0  0  0  0
  -29.0355  -13.9210   19.2829 N   0  0  0  0  0  0  0  0  0  0  0  0
  -29.1309  -26.8031   20.4378 N   0  0  0  0  0  0  0  0  0  0  0  0
  -21.7576  -14.6214   21.8518 N   0  0  0  0  0  0  0  0  0  0  0  0
  -29.5669  -24.0973   17.7738 N   0  0  0  0  0  0  0  0  0  0  0  0
  -31.0608  -27.3089   21.7146 N   0  0  0  0  0  0  0  0  0  0  0  0
  -27.7414  -29.3638   23.9851 N   0  0  0  0  0  0  0  0  0  0  0  0
  -22.7558  -16.5153   18.9000 N   0  0  0  0  0  0  0  0  0  0  0  0
  -20.0465  -14.3205   24.7569 N   0  0  0  0  0  0  0  0  0  0  0  0
  -29.3679  -22.0302   18.9057 N   0  0  0  0  0  0  0  0  0  0  0  0
  -18.5736  -11.0774   25.3743 N   0  3  0  0  0  0  0  0  0  0  0  0
  -28.4641  -18.4060   19.1018 N   0  3  0  0  0  0  0  0  0  0  0  0
  -29.9999  -28.9689   23.9408 O   0  0  0  0  0  0  0  0  0  0  0  0
  -23.5185  -16.3112   21.0907 O   0  0  0  0  0  0  0  0  0  0  0  0
  -20.0235  -16.0507   22.4734 O   0  0  0  0  0  0  0  0  0  0  0  0
  -21.1010  -12.2968   25.1693 O   0  0  0  0  0  0  0  0  0  0  0  0
  -30.3934  -22.1337   16.8576 O   0  0  0  0  0  0  0  0  0  0  0  0
  -22.3409  -29.3884   22.6181 O   0  0  0  0  0  0  0  0  0  0  0  0
  -25.9021  -10.1663   20.8378 O   0  0  0  0  0  0  0  0  0  1  0  0
  -18.3196  -25.6388   22.2018 F   0  0  0  0  0  0  0  0  0  0  0  0
  -20.7849  -28.7286   24.8058 F   0  0  0  0  0  0  0  0  0  0  0  0
  1  2  1  0  0  0  0
  1  5  2  0  0  0  0
  2  6  2  0  0  0  0
  3  8  2  0  0  0  0
  3 16  1  0  0  0  0
  4  9  1  0  0  0  0
  4 16  2  0  0  0  0
  5 18  1  0  0  0  0
  6 20  1  0  0  0  0
  7 10  2  0  0  0  0
  7 19  1  0  0  0  0
  8 23  1  0  0  0  0
  9 23  2  0  0  0  0
 10 24  1  0  0  0  0
 11 12  2  0  0  0  0
 11 25  1  0  0  0  0
 12 26  1  0  0  0  0
 13 21  1  0  0  0  0
 13 24  2  0  0  0  0
 14 22  1  0  0  0  0
 14 29  2  0  0  0  0
 15 26  2  0  0  0  0
 15 27  1  0  0  0  0
 16 28  1  0  0  0  0
 17 28  1  0  0  0  0
 17 31  2  0  0  0  0
 17 32  1  0  0  0  0
 18 20  2  0  0  0  0
 18 37  1  0  0  0  0
 19 21  2  0  0  0  0
 19 38  1  0  0  0  0
 20 46  1  0  0  0  0
 21 39  1  0  0  0  0
 22 30  2  0  0  0  0
 22 66  1  0  0  0  0
 23 90  1  0  0  0  0
 24 91  1  0  0  0  0
 25 27  2  0  0  0  0
 25 90  1  0  0  0  0
 26 92  1  0  0  0  0
 27 93  1  0  0  0  0
 28 73  2  0  0  0  0
 29 67  1  0  0  0  0
 29 74  1  0  0  0  0
 30 49  1  0  0  0  0
 30 74  1  0  0  0  0
 31 75  1  0  0  0  0
 31 78  1  0  0  0  0
 32 79  1  0  0  0  0
 32 85  2  0  0  0  0
 33 47  1  0  0  0  0
 33 80  1  0  0  0  0
 33 86  2  0  0  0  0
 34 68  1  0  0  0  0
 34 76  1  0  0  0  0
 34 87  2  0  0  0  0
 35 69  1  0  0  0  0
 35 81  1  0  0  0  0
 35 88  2  0  0  0  0
 36 77  1  0  0  0  0
 36 82  1  0  0  0  0
 36 89  2  0  0  0  0
 37 40  1  0  0  0  0
 38 47  1  0  0  0  0
 39 76  1  0  0  0  0
 40 42  1  0  0  0  0
 41 43  1  0  0  0  0
 41 44  1  0  0  0  0
 42 46  1  0  0  0  0
 43 48  1  0  0  0  0
 44 77  1  0  0  0  0
 45 48  1  0  0  0  0
 45 77  1  0  0  0  0
 46 80  1  0  0  0  0
 47 76  1  0  0  0  0
 48 75  1  0  0  0  0
 50 66  1  0  0  0  0
 51 67  1  0  0  0  0
 52 67  1  0  0  0  0
 53 69  1  0  0  0  0
 54 70  1  0  0  0  0
 55 71  1  0  0  0  0
 56 71  1  0  0  0  0
 57 71  1  0  0  0  0
 58 72  1  0  0  0  0
 59 72  1  0  0  0  0
 60 83  1  0  0  0  0
 61 65  1  0  0  0  0
 61 66  1  0  0  0  0
 62 70  1  0  0  0  0
 62 74  1  0  0  0  0
 63 72  1  0  0  0  0
 63 82  1  0  0  0  0
 64 70  1  0  0  0  0
 64 84  1  0  0  0  0
 65 91  1  0  0  0  0
 68 71  1  0  0  0  0
 68 81  1  0  0  0  0
 69 83  1  0  0  0  0
 72 84  1  0  0  0  0
 73 75  1  0  0  0  0
M  CHG  2  83   1  84   1
M  ISO  4  36 100  65 101  82 100  91 101
M  END
> <Batch ID>
0100

> <Smiles>
CNC(C)C(=O)NC(C(=O)N1Cc2cc([101O:1][101CH2:1]CC(C)c3cc(C(C)C)n(CC(C)CNC(C)(C)C[100NH:0][100C:0](=O)N4CCCC(n5nc(-c6ccc(Oc7ccc(F)cc7F)cc6)c(C(N)=O)c5N)C4)c3C)ccc2CC1C(=O)NC1CCCc2ccccc21)C(C)(C)C

> <Shape>
0.254

> <Color>
0.039

> <Negative vol penalty>
0.000

$$$$

  -OEChem-04052319333D

 82 90  0     1  0  0  0  0  0999 V2000
  -24.1470  -11.6209   20.4954 C   0  0  0  0  0  0  0  0  0  0  0  0
  -24.2077  -12.5096   21.5640 C   0  0  0  0  0  0  0  0  0  0  0  0
  -25.7528  -28.2819   21.0974 C   0  0  0  0  0  0  0  0  0  0  0  0
  -24.6926  -29.8549   19.6012 C   0  0  0  0  0  0  0  0  0  0  0  0
  -25.2520  -11.4601   19.6604 C   0  0  0  0  0  0  0  0  0  0  0  0
  -25.3738  -13.2372   21.7990 C   0  0  0  0  0  0  0  0  0  0  0  0
  -24.4512  -18.1132   22.8082 C   0  0  0  0  0  0  0  0  0  0  0  0
  -26.8210  -28.1570   20.2092 C   0  0  0  0  0  0  0  0  0  0  0  0
  -25.7609  -29.7301   18.7130 C   0  0  0  0  0  0  0  0  0  0  0  0
  -24.0067  -18.4246   24.0924 C   0  0  0  0  0  0  0  0  0  0  0  0
  -27.4789  -26.5356   17.3174 C   0  0  0  0  0  0  0  0  0  0  0  0
  -27.9467  -25.2503   17.0442 C   0  0  0  0  0  0  0  0  0  0  0  0
  -26.2413  -19.1055   24.6942 C   0  0  0  0  0  0  0  0  0  0  0  0
  -21.4597  -24.1842   26.1044 C   0  0  0  0  0  0  0  0  0  0  0  0
  -30.1240  -25.8621   17.8940 C   0  0  0  0  0  0  0  0  0  0  0  0
  -24.6885  -29.1308   20.7934 C   0  0  0  0  0  0  0  0  0  0  0  0
  -23.4603  -30.1816   22.7669 C   0  0  0  0  0  0  0  0  0  0  0  0
  -26.4289  -12.1932   19.8796 C   0  0  0  0  0  0  0  0  0  0  0  0
  -25.7986  -18.2856   22.4600 C   0  0  0  0  0  0  0  0  0  0  0  0
  -26.4960  -13.0850   20.9670 C   0  0  0  0  0  0  0  0  0  0  0  0
  -26.6998  -18.7980   23.4041 C   0  0  0  0  0  0  0  0  0  0  0  0
  -20.3722  -24.7728   25.4686 C   0  0  0  0  0  0  0  0  0  0  0  0
  -22.1901  -23.1980   25.4506 C   0  0  0  0  0  0  0  0  0  0  0  0
  -26.8251  -28.8811   19.0171 C   0  0  0  0  0  0  0  0  0  0  0  0
  -24.9024  -18.9181   25.0365 C   0  0  0  0  0  0  0  0  0  0  0  0
  -28.3336  -27.4842   17.8789 C   0  0  0  0  0  0  0  0  0  0  0  0
  -29.2692  -24.9135   17.3325 C   0  0  0  0  0  0  0  0  0  0  0  0
  -29.6562  -27.1475   18.1672 C   0  0  0  0  0  0  0  0  0  0  0  0
  -23.5845  -29.2598   21.7101 C   0  0  0  0  0  0  0  0  0  0  0  0
  -20.0587  -24.3433   24.1890 C   0  0  0  0  0  0  0  0  0  0  0  0
  -21.7953  -22.8391   24.1718 C   0  0  0  0  0  0  0  0  0  0  0  0
  -22.2404  -29.8962   23.3299 C   0  0  0  0  0  0  0  0  0  0  0  0
  -24.3665  -31.2044   23.2008 C   0  0  0  0  0  0  0  0  0  0  0  0
  -18.9258  -24.9161   23.4505 C   0  0  0  0  0  0  0  0  0  0  0  0
  -28.1359  -16.3509   21.5125 C   0  0  0  0  0  0  0  0  0  0  0  0
  -29.7572  -19.1344   21.1308 C   0  0  0  0  0  0  0  0  0  0  0  0
  -30.1236  -22.4157   21.9943 C   0  0  0  0  0  0  0  0  0  0  0  0
  -27.6137  -11.9506   18.9784 C   0  0  0  0  0  0  0  0  0  0  0  0
  -26.2567  -17.9702   21.0625 C   0  0  0  0  0  0  0  0  0  0  0  0
  -28.1525  -19.0205   23.0744 C   0  0  0  0  0  0  0  0  0  0  0  0
  -28.6828  -13.0362   19.0722 C   0  0  0  0  0  0  0  0  0  0  0  0
  -17.9280  -28.1250   22.2468 C   0  0  0  0  0  0  0  0  0  0  0  0
  -28.9812  -13.3669   20.5311 C   0  0  0  0  0  0  0  0  0  0  0  0
  -19.2544  -28.8619   22.0525 C   0  0  0  0  0  0  0  0  0  0  0  0
  -18.0531  -26.6412   21.9103 C   0  0  0  0  0  0  0  0  0  0  0  0
  -20.4670  -26.6750   22.4364 C   0  0  0  0  0  0  0  0  0  0  0  0
  -27.7346  -13.9105   21.2397 C   0  0  1  0  0  0  0  0  0  0  0  0
  -27.7554  -17.7001   20.9717 C   0  0  1  0  0  0  0  0  0  0  0  0
  -20.3970  -28.1639   22.8137 C   0  0  1  0  0  0  0  0  0  0  0  0
  -19.5858  -25.8294   26.1654 C   0  0  0  0  0  0  0  0  0  0  0  0
  -22.5428  -21.7855   23.4219 C   0  0  0  0  0  0  0  0  0  0  0  0
  -31.5614  -24.4225   21.5439 C   0  0  0  0  0  0  0  0  0  0  0  0
  -31.9578  -17.9472   22.8795 C   0  0  0  0  0  0  0  0  0  0  0  0
  -32.8746  -20.2583   23.1737 C   0  0  0  0  0  0  0  0  0  0  0  0
  -32.7795  -19.2362   20.9002 C   0  0  0  0  0  0  0  0  0  0  0  0
  -27.8314  -23.9675   20.9470 C   0  0  0  0  0  0  0  0  0  0  0  0
  -23.3699  -22.5549   26.1349 C   0  0  0  0  0  0  0  0  0  0  0  0
  -22.9812  -21.5274   27.2037 C   0  0  0  0  0  0  0  0  0  0  0  0
  -24.1880  -20.9431   27.9394 C   0  0  0  0  0  0  0  0  0  0  0  0
  -25.1566  -20.2689   26.9772 C   0  0  0  0  0  0  0  0  0  1  0  0
  -30.6369  -19.9887   22.0114 C   0  0  1  0  0  0  0  0  0  0  0  0
  -30.3024  -23.6653   21.1511 C   0  0  2  0  0  0  0  0  0  0  0  0
  -32.0353  -19.3517   22.2483 C   0  0  0  0  0  0  0  0  0  0  0  0
  -22.5279  -28.4494   21.6060 N   0  0  0  0  0  0  0  0  0  0  0  0
  -20.7447  -23.3883   23.5220 N   0  0  0  0  0  0  0  0  0  0  0  0
  -21.7282  -28.8609   22.6045 N   0  0  0  0  0  0  0  0  0  0  0  0
  -19.1609  -26.0350   22.6479 N   0  0  0  0  0  0  0  0  0  0  0  0
  -28.5533  -18.6912   21.6965 N   0  0  0  0  0  0  0  0  0  0  0  0
  -21.5667  -30.4322   24.3696 N   0  0  0  0  0  0  0  0  0  0  0  0
  -25.5761  -31.3620   22.5107 N   0  0  0  0  0  0  0  0  0  0  0  0
  -27.5110  -15.2940   20.8785 N   0  0  0  0  0  0  0  0  0  0  0  0
  -30.6787  -21.3078   21.3897 N   0  0  0  0  0  0  0  0  0  0  0  0
  -29.1346  -24.5756   21.3199 N   0  3  0  0  0  0  0  0  0  0  0  0
  -24.1185  -31.9454   24.1821 O   0  0  0  0  0  0  0  0  0  0  0  0
  -17.8385  -24.3633   23.6090 O   0  0  0  0  0  0  0  0  0  0  0  0
  -28.9381  -16.2743   22.4357 O   0  0  0  0  0  0  0  0  0  0  0  0
  -30.1213  -18.8761   19.9809 O   0  0  0  0  0  0  0  0  0  0  0  0
  -29.5521  -22.4225   23.0824 O   0  0  0  0  0  0  0  0  0  0  0  0
  -27.8675  -28.7597   18.1503 O   0  0  0  0  0  0  0  0  0  0  0  0
  -24.4713  -19.2222   26.2909 O   0  0  0  0  0  0  0  0  0  1  0  0
  -29.7179  -23.6787   17.0715 F   0  0  0  0  0  0  0  0  0  0  0  0
  -30.4817  -28.0542   18.7078 F   0  0  0  0  0  0  0  0  0  0  0  0
  1  2  1  0  0  0  0
  1  5  2  0  0  0  0
  2  6  2  0  0  0  0
  3  8  2  0  0  0  0
  3 16  1  0  0  0  0
  4  9  1  0  0  0  0
  4 16  2  0  0  0  0
  5 18  1  0  0  0  0
  6 20  1  0  0  0  0
  7 10  2  0  0  0  0
  7 19  1  0  0  0  0
  8 24  1  0  0  0  0
  9 24  2  0  0  0  0
 10 25  1  0  0  0  0
 11 12  2  0  0  0  0
 11 26  1  0  0  0  0
 12 27  1  0  0  0  0
 13 21  1  0  0  0  0
 13 25  2  0  0  0  0
 14 22  2  0  0  0  0
 14 23  1  0  0  0  0
 15 27  2  0  0  0  0
 15 28  1  0  0  0  0
 16 29  1  0  0  0  0
 17 29  1  0  0  0  0
 17 32  2  0  0  0  0
 17 33  1  0  0  0  0
 18 20  2  0  0  0  0
 18 38  1  0  0  0  0
 19 21  2  0  0  0  0
 19 39  1  0  0  0  0
 20 47  1  0  0  0  0
 21 40  1  0  0  0  0
 22 30  1  0  0  0  0
 22 50  1  0  0  0  0
 23 31  2  0  0  0  0
 23 57  1  0  0  0  0
 24 79  1  0  0  0  0
 25 80  1  0  0  0  0
 26 28  2  0  0  0  0
 26 79  1  0  0  0  0
 27 81  1  0  0  0  0
 28 82  1  0  0  0  0
 29 64  2  0  0  0  0
 30 34  1  0  0  0  0
 30 65  2  0  0  0  0
 31 51  1  0  0  0  0
 31 65  1  0  0  0  0
 32 66  1  0  0  0  0
 32 69  1  0  0  0  0
 33 70  1  0  0  0  0
 33 74  2  0  0  0  0
 34 67  1  0  0  0  0
 34 75  2  0  0  0  0
 35 48  1  0  0  0  0
 35 71  1  0  0  0  0
 35 76  2  0  0  0  0
 36 61  1  0  0  0  0
 36 68  1  0  0  0  0
 36 77  2  0  0  0  0
 37 62  1  0  0  0  0
 37 72  1  0  0  0  0
 37 78  2  0  0  0  0
 38 41  1  0  0  0  0
 39 48  1  0  0  0  0
 40 68  1  0  0  0  0
 41 43  1  0  0  0  0
 42 44  1  0  0  0  0
 42 45  1  0  0  0  0
 43 47  1  0  0  0  0
 44 49  1  0  0  0  0
 45 67  1  0  0  0  0
 46 49  1  0  0  0  0
 46 67  1  0  0  0  0
 47 71  1  0  0  0  0
 48 68  1  0  0  0  0
 49 66  1  0  0  0  0
 52 62  1  0  0  0  0
 53 63  1  0  0  0  0
 54 63  1  0  0  0  0
 55 63  1  0  0  0  0
 56 73  1  0  0  0  0
 57 58  1  0  0  0  0
 58 59  1  0  0  0  0
 59 60  1  0  0  0  0
 60 80  1  0  0  0  0
 61 63  1  0  0  0  0
 61 72  1  0  0  0  0
 62 73  1  0  0  0  0
 64 66  1  0  0  0  0
M  CHG  1  73   1
M  ISO  4  30 100  34 100  60 101  80 101
M  END
> <Batch ID>
0100

> <Smiles>
CNC(C)C(=O)NC(C(=O)N1Cc2cc([101O:1][101CH2:1]CCCc3cc(C)[100c:0]([100C:0](=O)N4CCCC(n5nc(-c6ccc(Oc7ccc(F)cc7F)cc6)c(C(N)=O)c5N)C4)nc3C)ccc2CC1C(=O)NC1CCCc2ccccc21)C(C)(C)C

> <Shape>
0.228

> <Color>
0.066

> <Negative vol penalty>
0.000

$$$$

  -OEChem-04052319333D

 86 94  0     1  0  0  0  0  0999 V2000
  -24.3191  -31.5230   24.9581 C   0  0  0  0  0  0  0  0  0  0  0  0
  -24.2123  -30.1645   24.6780 C   0  0  0  0  0  0  0  0  0  0  0  0
  -23.0244   -9.8454   19.9786 C   0  0  0  0  0  0  0  0  0  0  0  0
  -23.7316   -9.9280   22.2873 C   0  0  0  0  0  0  0  0  0  0  0  0
  -24.6801  -32.4153   23.9494 C   0  0  0  0  0  0  0  0  0  0  0  0
  -24.4652  -29.6976   23.3886 C   0  0  0  0  0  0  0  0  0  0  0  0
  -27.0270  -24.3535   21.8448 C   0  0  0  0  0  0  0  0  0  0  0  0
  -22.2670   -8.7063   20.2514 C   0  0  0  0  0  0  0  0  0  0  0  0
  -22.9742   -8.7890   22.5601 C   0  0  0  0  0  0  0  0  0  0  0  0
  -26.4839  -23.1363   21.4360 C   0  0  0  0  0  0  0  0  0  0  0  0
  -23.2546   -5.4478   22.1259 C   0  0  0  0  0  0  0  0  0  0  0  0
  -23.8463   -4.4445   22.8932 C   0  0  0  0  0  0  0  0  0  0  0  0
  -28.0507  -18.3320   21.6205 C   0  0  0  0  0  0  0  0  0  0  0  0
  -26.8714  -18.7735   20.9713 C   0  0  0  0  0  0  0  0  0  0  0  0
  -26.8324  -23.7613   19.1323 C   0  0  0  0  0  0  0  0  0  0  0  0
  -22.1076   -4.6883   24.5529 C   0  0  0  0  0  0  0  0  0  0  0  0
  -23.7568  -10.4562   20.9966 C   0  0  0  0  0  0  0  0  0  0  0  0
  -24.1189  -12.9735   20.7964 C   0  0  0  0  0  0  0  0  0  0  0  0
  -24.9470  -31.9579   22.6493 C   0  0  0  0  0  0  0  0  0  0  0  0
  -27.4677  -25.2899   20.8986 C   0  0  0  0  0  0  0  0  0  0  0  0
  -24.8287  -30.5848   22.3612 C   0  0  0  0  0  0  0  0  0  0  0  0
  -27.3832  -24.9886   19.5317 C   0  0  0  0  0  0  0  0  0  0  0  0
  -22.2418   -8.1781   21.5421 C   0  0  0  0  0  0  0  0  0  0  0  0
  -26.3838  -22.8413   20.0796 C   0  0  0  0  0  0  0  0  0  0  0  0
  -22.0893   -6.0714   22.5721 C   0  0  0  0  0  0  0  0  0  0  0  0
  -23.2728   -4.0647   24.1067 C   0  0  0  0  0  0  0  0  0  0  0  0
  -21.5158   -5.6916   23.7855 C   0  0  0  0  0  0  0  0  0  0  0  0
  -24.5399  -11.6326   20.7153 C   0  0  0  0  0  0  0  0  0  0  0  0
  -29.0688  -18.3689   20.6935 C   0  0  0  0  0  0  0  0  0  0  0  0
  -27.2047  -19.0665   19.6673 C   0  0  0  0  0  0  0  0  0  0  0  0
  -25.2243  -13.7030   20.4326 C   0  0  0  0  0  0  0  0  0  0  0  0
  -22.8428  -13.5115   21.1677 C   0  0  0  0  0  0  0  0  0  0  0  0
  -26.6438  -28.2628   20.1326 C   0  0  0  0  0  0  0  0  0  0  0  0
  -29.2184  -28.0556   18.1702 C   0  0  0  0  0  0  0  0  0  0  0  0
  -31.3647  -26.0735   16.4063 C   0  0  0  0  0  0  0  0  0  0  0  0
  -30.7092  -14.6941   20.7119 C   0  0  0  0  0  0  0  0  0  0  0  0
  -25.2877  -32.9662   21.5807 C   0  0  0  0  0  0  0  0  0  0  0  0
  -28.0758  -26.5872   21.3564 C   0  0  0  0  0  0  0  0  0  0  0  0
  -27.8606  -25.9514   18.4764 C   0  0  0  0  0  0  0  0  0  0  0  0
  -25.9038  -32.3439   20.3303 C   0  0  0  0  0  0  0  0  0  0  0  0
  -29.6099  -12.2345   18.3841 C   0  0  0  0  0  0  0  0  0  0  0  0
  -25.1055  -31.1192   19.8947 C   0  0  0  0  0  0  0  0  0  0  0  0
  -28.1609  -11.9650   18.7937 C   0  0  0  0  0  0  0  0  0  0  0  0
  -30.5009  -12.4916   19.5975 C   0  0  0  0  0  0  0  0  0  0  0  0
  -28.5730  -13.2826   20.9134 C   0  0  0  0  0  0  0  0  0  0  0  0
  -25.1192  -30.0368   20.9809 C   0  0  1  0  0  0  0  0  0  0  0  0
  -28.0197  -27.6811   20.2944 C   0  0  1  0  0  0  0  0  0  0  0  0
  -27.6249  -13.0728   19.7204 C   0  0  2  0  0  0  0  0  0  0  0  0
  -31.3732  -19.2377   21.2024 C   0  0  0  0  0  0  0  0  0  0  0  0
  -24.9034  -19.0432   18.6499 C   0  0  0  0  0  0  0  0  0  0  0  0
  -33.3439  -26.1937   14.8682 C   0  0  0  0  0  0  0  0  0  0  0  0
  -30.3367  -17.9291   16.2230 C   0  0  0  0  0  0  0  0  0  0  0  0
  -28.2185  -17.0078   17.1876 C   0  0  0  0  0  0  0  0  0  0  0  0
  -27.3860  -28.9039   15.8827 C   0  0  0  0  0  0  0  0  0  0  0  0
  -29.1307  -28.0972   14.2785 C   0  0  0  0  0  0  0  0  0  0  0  0
  -29.6519  -29.9618   15.8514 C   0  0  0  0  0  0  0  0  0  0  0  0
  -33.0672  -24.5523   18.2895 C   0  0  0  0  0  0  0  0  0  0  0  0
  -29.2870  -18.9979   18.2811 C   0  0  0  0  0  0  0  0  0  0  0  0
  -30.7618  -16.8863   21.8742 C   0  0  0  0  0  0  0  0  0  0  0  0
  -26.3350  -21.1101   18.4497 C   0  0  0  0  0  0  0  0  0  1  0  0
  -30.4957  -18.0147   20.8400 C   0  0  1  0  0  0  0  0  0  0  0  0
  -26.3335  -19.5774   18.5305 C   0  0  1  0  0  0  0  0  0  0  0  0
  -29.4442  -27.6066   16.7467 C   0  0  1  0  0  0  0  0  0  0  0  0
  -32.8797  -26.0648   16.3107 C   0  0  2  0  0  0  0  0  0  0  0  0
  -29.5486  -17.6903   17.5128 C   0  0  0  0  0  0  0  0  0  0  0  0
  -28.8923  -28.6248   15.7094 C   0  0  0  0  0  0  0  0  0  0  0  0
  -25.8132  -11.5143   20.3299 N   0  0  0  0  0  0  0  0  0  0  0  0
  -28.5429  -18.8166   19.5098 N   0  0  0  0  0  0  0  0  0  0  0  0
  -26.2019  -12.7903   20.1656 N   0  0  0  0  0  0  0  0  0  0  0  0
  -28.4417  -27.2092   18.9741 N   0  0  0  0  0  0  0  0  0  0  0  0
  -29.9374  -13.5539   20.4341 N   0  0  0  0  0  0  0  0  0  0  0  0
  -25.4456  -15.0298   20.3180 N   0  0  0  0  0  0  0  0  0  0  0  0
  -21.8171  -12.6210   21.5130 N   0  0  0  0  0  0  0  0  0  0  0  0
  -26.3812  -29.3283   20.9724 N   0  0  0  0  0  0  0  0  0  0  0  0
  -30.8739  -27.3436   16.6236 N   0  0  0  0  0  0  0  0  0  0  0  0
  -30.0975  -15.6556   21.5070 N   0  0  0  0  0  0  0  0  0  0  0  0
  -33.4267  -24.7959   16.8688 N   0  3  0  0  0  0  0  0  0  0  0  0
  -22.6139  -14.7448   21.1766 O   0  0  0  0  0  0  0  0  0  0  0  0
  -25.8778  -27.7817   19.3060 O   0  0  0  0  0  0  0  0  0  0  0  0
  -29.7188  -29.1148   18.5568 O   0  0  0  0  0  0  0  0  0  0  0  0
  -30.6845  -25.0559   16.2955 O   0  0  0  0  0  0  0  0  0  0  0  0
  -31.8565  -14.8466   20.2788 O   0  0  0  0  0  0  0  0  0  0  0  0
  -21.5026   -7.0668   21.8087 O   0  0  0  0  0  0  0  0  0  0  0  0
  -25.8534  -21.6542   19.6778 O   0  0  0  0  0  0  0  0  0  1  0  0
  -23.8403   -3.1001   24.8427 F   0  0  0  0  0  0  0  0  0  0  0  0
  -20.3958   -6.2863   24.2188 F   0  0  0  0  0  0  0  0  0  0  0  0
  1  2  1  0  0  0  0
  1  5  2  0  0  0  0
  2  6  2  0  0  0  0
  3  8  2  0  0  0  0
  3 17  1  0  0  0  0
  4  9  1  0  0  0  0
  4 17  2  0  0  0  0
  5 19  1  0  0  0  0
  6 21  1  0  0  0  0
  7 10  2  0  0  0  0
  7 20  1  0  0  0  0
  8 23  1  0  0  0  0
  9 23  2  0  0  0  0
 10 24  1  0  0  0  0
 11 12  2  0  0  0  0
 11 25  1  0  0  0  0
 12 26  1  0  0  0  0
 13 14  1  0  0  0  0
 13 29  2  0  0  0  0
 14 30  2  0  0  0  0
 15 22  1  0  0  0  0
 15 24  2  0  0  0  0
 16 26  2  0  0  0  0
 16 27  1  0  0  0  0
 17 28  1  0  0  0  0
 18 28  1  0  0  0  0
 18 31  2  0  0  0  0
 18 32  1  0  0  0  0
 19 21  2  0  0  0  0
 19 37  1  0  0  0  0
 20 22  2  0  0  0  0
 20 38  1  0  0  0  0
 21 46  1  0  0  0  0
 22 39  1  0  0  0  0
 23 83  1  0  0  0  0
 24 84  1  0  0  0  0
 25 27  2  0  0  0  0
 25 83  1  0  0  0  0
 26 85  1  0  0  0  0
 27 86  1  0  0  0  0
 28 67  2  0  0  0  0
 29 61  1  0  0  0  0
 29 68  1  0  0  0  0
 30 62  1  0  0  0  0
 30 68  1  0  0  0  0
 31 69  1  0  0  0  0
 31 72  1  0  0  0  0
 32 73  1  0  0  0  0
 32 78  2  0  0  0  0
 33 47  1  0  0  0  0
 33 74  1  0  0  0  0
 33 79  2  0  0  0  0
 34 63  1  0  0  0  0
 34 70  1  0  0  0  0
 34 80  2  0  0  0  0
 35 64  1  0  0  0  0
 35 75  1  0  0  0  0
 35 81  2  0  0  0  0
 36 71  1  0  0  0  0
 36 76  1  0  0  0  0
 36 82  2  0  0  0  0
 37 40  1  0  0  0  0
 38 47  1  0  0  0  0
 39 70  1  0  0  0  0
 40 42  1  0  0  0  0
 41 43  1  0  0  0  0
 41 44  1  0  0  0  0
 42 46  1  0  0  0  0
 43 48  1  0  0  0  0
 44 71  1  0  0  0  0
 45 48  1  0  0  0  0
 45 71  1  0  0  0  0
 46 74  1  0  0  0  0
 47 70  1  0  0  0  0
 48 69  1  0  0  0  0
 49 61  1  0  0  0  0
 50 62  1  0  0  0  0
 51 64  1  0  0  0  0
 52 65  1  0  0  0  0
 53 65  1  0  0  0  0
 54 66  1  0  0  0  0
 55 66  1  0  0  0  0
 56 66  1  0  0  0  0
 57 77  1  0  0  0  0
 58 65  1  0  0  0  0
 58 68  1  0  0  0  0
 59 61  1  0  0  0  0
 59 76  1  0  0  0  0
 60 62  1  0  0  0  0
 60 84  1  0  0  0  0
 63 66  1  0  0  0  0
 63 75  1  0  0  0  0
 64 77  1  0  0  0  0
 67 69  1  0  0  0  0
M  CHG  1  77   1
M  ISO  4  36 100  60 101  76 100  84 101
M  END
> <Batch ID>
0100

> <Smiles>
CNC(C)C(=O)NC(C(=O)N1Cc2cc([101O:1][101CH2:1]C(C)c3ccc(C(C)C[100NH:0][100C:0](=O)N4CCCC(n5nc(-c6ccc(Oc7ccc(F)cc7F)cc6)c(C(N)=O)c5N)C4)n3CC(C)C)ccc2CC1C(=O)NC1CCCc2ccccc21)C(C)(C)C

> <Shape>
0.321

> <Color>
0.196

> <Negative vol penalty>
0.000

$$$$

  -OEChem-04052319333D

 89 97  0     1  0  0  0  0  0999 V2000
  -16.8664  -29.1979   24.2007 C   0  0  0  0  0  0  0  0  0  0  0  0
  -17.4738  -28.1638   23.4957 C   0  0  0  0  0  0  0  0  0  0  0  0
  -22.1198  -10.3543   20.6870 C   0  0  0  0  0  0  0  0  0  0  0  0
  -24.1000   -9.6291   21.8659 C   0  0  0  0  0  0  0  0  0  0  0  0
  -17.3506  -30.4999   24.0815 C   0  0  0  0  0  0  0  0  0  0  0  0
  -18.5653  -28.4313   22.6702 C   0  0  0  0  0  0  0  0  0  0  0  0
  -22.3021  -25.0609   23.2373 C   0  0  0  0  0  0  0  0  0  0  0  0
  -27.3690  -21.4411   21.4631 C   0  0  0  0  0  0  0  0  0  0  0  0
  -28.7378  -21.4864   21.1986 C   0  0  0  0  0  0  0  0  0  0  0  0
  -21.6470   -9.0421   20.6739 C   0  0  0  0  0  0  0  0  0  0  0  0
  -23.6272   -8.3169   21.8529 C   0  0  0  0  0  0  0  0  0  0  0  0
  -22.1435  -23.8236   22.6146 C   0  0  0  0  0  0  0  0  0  0  0  0
  -21.3827   -6.4626   23.5688 C   0  0  0  0  0  0  0  0  0  0  0  0
  -21.4754   -5.7301   24.7522 C   0  0  0  0  0  0  0  0  0  0  0  0
  -23.5740  -24.5531   20.8143 C   0  0  0  0  0  0  0  0  0  0  0  0
  -27.5001  -19.0437   21.7314 C   0  0  0  0  0  0  0  0  0  0  0  0
  -22.8664   -4.1010   23.6350 C   0  0  0  0  0  0  0  0  0  0  0  0
  -23.3463  -10.6478   21.2830 C   0  0  0  0  0  0  0  0  0  0  0  0
  -23.6058  -12.9801   22.2835 C   0  0  0  0  0  0  0  0  0  0  0  0
  -18.4546  -30.7819   23.2615 C   0  0  0  0  0  0  0  0  0  0  0  0
  -23.0904  -26.0591   22.6468 C   0  0  0  0  0  0  0  0  0  0  0  0
  -19.0640  -29.7385   22.5388 C   0  0  0  0  0  0  0  0  0  0  0  0
  -23.7430  -25.8013   21.4328 C   0  0  0  0  0  0  0  0  0  0  0  0
  -26.7501  -20.2198   21.7296 C   0  0  0  0  0  0  0  0  0  0  0  0
  -29.4877  -20.3103   21.2005 C   0  0  0  0  0  0  0  0  0  0  0  0
  -28.8689  -19.0889   21.4669 C   0  0  0  0  0  0  0  0  0  0  0  0
  -22.4007   -8.0234   21.2568 C   0  0  0  0  0  0  0  0  0  0  0  0
  -22.7772  -23.5706   21.4015 C   0  0  0  0  0  0  0  0  0  0  0  0
  -22.0319   -6.0142   22.4184 C   0  0  0  0  0  0  0  0  0  0  0  0
  -22.2172   -4.5494   24.7854 C   0  0  0  0  0  0  0  0  0  0  0  0
  -22.7737   -4.8334   22.4516 C   0  0  0  0  0  0  0  0  0  0  0  0
  -23.8355  -12.0031   21.2963 C   0  0  0  0  0  0  0  0  0  0  0  0
  -24.2807  -14.0884   21.8333 C   0  0  0  0  0  0  0  0  0  0  0  0
  -22.8500  -12.8935   23.4988 C   0  0  0  0  0  0  0  0  0  0  0  0
  -22.5446  -28.9917   21.5487 C   0  0  0  0  0  0  0  0  0  0  0  0
  -25.7683  -29.0367   21.1907 C   0  0  0  0  0  0  0  0  0  0  0  0
  -28.6641  -27.2752   20.7932 C   0  0  0  0  0  0  0  0  0  0  0  0
  -28.8104  -16.4471   19.5830 C   0  0  0  0  0  0  0  0  0  0  0  0
  -18.9128  -32.2126   23.1277 C   0  0  0  0  0  0  0  0  0  0  0  0
  -23.2730  -27.3790   23.3445 C   0  0  0  0  0  0  0  0  0  0  0  0
  -24.6166  -26.8322   20.7675 C   0  0  0  0  0  0  0  0  0  0  0  0
  -20.3077  -32.3514   22.5234 C   0  0  0  0  0  0  0  0  0  0  0  0
  -26.4177  -15.0458   17.3496 C   0  0  0  0  0  0  0  0  0  0  0  0
  -20.4461  -31.4639   21.2905 C   0  0  0  0  0  0  0  0  0  0  0  0
  -25.5181  -14.2054   18.2576 C   0  0  0  0  0  0  0  0  0  0  0  0
  -27.8756  -15.0012   17.8020 C   0  0  0  0  0  0  0  0  0  0  0  0
  -27.1974  -14.5226   20.1225 C   0  0  0  0  0  0  0  0  0  0  0  0
  -20.2656  -29.9848   21.6525 C   0  0  1  0  0  0  0  0  0  0  0  0
  -23.6835  -28.5032   22.3984 C   0  0  1  0  0  0  0  0  0  0  0  0
  -25.7088  -14.5815   19.7393 C   0  0  2  0  0  0  0  0  0  0  0  0
  -31.2412  -20.5626   19.4262 C   0  0  0  0  0  0  0  0  0  0  0  0
  -20.7185  -19.5337   19.7122 C   0  0  0  0  0  0  0  0  0  0  0  0
  -31.1354  -27.5895   20.4910 C   0  0  0  0  0  0  0  0  0  0  0  0
  -29.1551  -17.2628   23.9354 C   0  0  0  0  0  0  0  0  0  0  0  0
  -31.0480  -16.1193   22.7827 C   0  0  0  0  0  0  0  0  0  0  0  0
  -25.3086  -29.8341   18.2816 C   0  0  0  0  0  0  0  0  0  0  0  0
  -27.6865  -29.2101   17.8076 C   0  0  0  0  0  0  0  0  0  0  0  0
  -27.1780  -31.0499   19.4137 C   0  0  0  0  0  0  0  0  0  0  0  0
  -29.2732  -25.8122   23.2928 C   0  0  0  0  0  0  0  0  0  0  0  0
  -25.2696  -20.1710   22.0151 C   0  0  0  0  0  0  0  0  0  0  0  0
  -30.9516  -20.3836   20.9134 C   0  0  0  0  0  0  0  0  0  0  0  0
  -22.2311  -19.6724   19.6119 C   0  0  0  0  0  0  0  0  0  0  0  0
  -24.4544  -19.9832   20.7309 C   0  0  0  0  0  0  0  0  0  0  0  0
  -22.4070  -21.2328   21.6338 C   0  0  0  0  0  0  0  0  0  1  0  0
  -29.6515  -17.8168   21.4739 C   0  0  1  0  0  0  0  0  0  0  0  0
  -26.7270  -28.6556   20.0886 C   0  0  1  0  0  0  0  0  0  0  0  0
  -30.0088  -27.3770   21.4903 C   0  0  2  0  0  0  0  0  0  0  0  0
  -30.2448  -17.4241   22.8658 C   0  0  0  0  0  0  0  0  0  0  0  0
  -22.9253  -19.9502   20.9651 C   0  0  1  0  0  0  0  0  0  0  0  0
  -26.7071  -29.6685   18.9092 C   0  0  0  0  0  0  0  0  0  0  0  0
  -24.5967  -12.4513   20.2945 N   0  0  0  0  0  0  0  0  0  0  0  0
  -24.8511  -13.7222   20.6498 N   0  0  0  0  0  0  0  0  0  0  0  0
  -24.7588  -28.1095   21.4858 N   0  0  0  0  0  0  0  0  0  0  0  0
  -27.9875  -15.3698   19.2154 N   0  0  0  0  0  0  0  0  0  0  0  0
  -24.4359  -15.3307   22.3382 N   0  0  0  0  0  0  0  0  0  0  0  0
  -22.2202  -11.6805   23.8089 N   0  0  0  0  0  0  0  0  0  0  0  0
  -21.4664  -29.4657   22.2714 N   0  0  0  0  0  0  0  0  0  0  0  0
  -28.0329  -28.4989   20.7197 N   0  0  0  0  0  0  0  0  0  0  0  0
  -28.8548  -16.7337   20.9419 N   0  0  0  0  0  0  0  0  0  0  0  0
  -30.2901  -26.1309   22.2577 N   0  3  0  0  0  0  0  0  0  0  0  0
  -22.7229  -13.8681   24.2782 O   0  0  0  0  0  0  0  0  0  0  0  0
  -22.6377  -28.9435   20.3277 O   0  0  0  0  0  0  0  0  0  0  0  0
  -25.9141  -30.1142   21.7733 O   0  0  0  0  0  0  0  0  0  0  0  0
  -28.2198  -26.2166   20.3543 O   0  0  0  0  0  0  0  0  0  0  0  0
  -29.4533  -17.1083   18.7605 O   0  0  0  0  0  0  0  0  0  0  0  0
  -21.9396   -6.7429   21.2445 O   0  0  0  0  0  0  0  0  0  0  0  0
  -22.6235  -22.3640   20.7912 O   0  0  0  0  0  0  0  0  0  1  0  0
  -22.3074   -3.8469   25.9223 F   0  0  0  0  0  0  0  0  0  0  0  0
  -23.4005   -4.3983   21.3499 F   0  0  0  0  0  0  0  0  0  0  0  0
  1  2  1  0  0  0  0
  1  5  2  0  0  0  0
  2  6  2  0  0  0  0
  3 10  2  0  0  0  0
  3 18  1  0  0  0  0
  4 11  1  0  0  0  0
  4 18  2  0  0  0  0
  5 20  1  0  0  0  0
  6 22  1  0  0  0  0
  7 12  2  0  0  0  0
  7 21  1  0  0  0  0
  8  9  2  0  0  0  0
  8 24  1  0  0  0  0
  9 25  1  0  0  0  0
 10 27  1  0  0  0  0
 11 27  2  0  0  0  0
 12 28  1  0  0  0  0
 13 14  2  0  0  0  0
 13 29  1  0  0  0  0
 14 30  1  0  0  0  0
 15 23  1  0  0  0  0
 15 28  2  0  0  0  0
 16 24  2  0  0  0  0
 16 26  1  0  0  0  0
 17 30  2  0  0  0  0
 17 31  1  0  0  0  0
 18 32  1  0  0  0  0
 19 32  1  0  0  0  0
 19 33  2  0  0  0  0
 19 34  1  0  0  0  0
 20 22  2  0  0  0  0
 20 39  1  0  0  0  0
 21 23  2  0  0  0  0
 21 40  1  0  0  0  0
 22 48  1  0  0  0  0
 23 41  1  0  0  0  0
 24 60  1  0  0  0  0
 25 26  2  0  0  0  0
 25 61  1  0  0  0  0
 26 65  1  0  0  0  0
 27 86  1  0  0  0  0
 28 87  1  0  0  0  0
 29 31  2  0  0  0  0
 29 86  1  0  0  0  0
 30 88  1  0  0  0  0
 31 89  1  0  0  0  0
 32 71  2  0  0  0  0
 33 72  1  0  0  0  0
 33 75  1  0  0  0  0
 34 76  1  0  0  0  0
 34 81  2  0  0  0  0
 35 49  1  0  0  0  0
 35 77  1  0  0  0  0
 35 82  2  0  0  0  0
 36 66  1  0  0  0  0
 36 73  1  0  0  0  0
 36 83  2  0  0  0  0
 37 67  1  0  0  0  0
 37 78  1  0  0  0  0
 37 84  2  0  0  0  0
 38 74  1  0  0  0  0
 38 79  1  0  0  0  0
 38 85  2  0  0  0  0
 39 42  1  0  0  0  0
 40 49  1  0  0  0  0
 41 73  1  0  0  0  0
 42 44  1  0  0  0  0
 43 45  1  0  0  0  0
 43 46  1  0  0  0  0
 44 48  1  0  0  0  0
 45 50  1  0  0  0  0
 46 74  1  0  0  0  0
 47 50  1  0  0  0  0
 47 74  1  0  0  0  0
 48 77  1  0  0  0  0
 49 73  1  0  0  0  0
 50 72  1  0  0  0  0
 51 61  1  0  0  0  0
 52 62  1  0  0  0  0
 53 67  1  0  0  0  0
 54 68  1  0  0  0  0
 55 68  1  0  0  0  0
 56 70  1  0  0  0  0
 57 70  1  0  0  0  0
 58 70  1  0  0  0  0
 59 80  1  0  0  0  0
 60 63  1  0  0  0  0
 62 69  1  0  0  0  0
 63 69  1  0  0  0  0
 64 69  1  0  0  0  0
 64 87  1  0  0  0  0
 65 68  1  0  0  0  0
 65 79  1  0  0  0  0
 66 70  1  0  0  0  0
 66 78  1  0  0  0  0
 67 80  1  0  0  0  0
 71 72  1  0  0  0  0
M  CHG  1  80   1
M  ISO  4  38 100  64 101  79 100  87 101
M  END
> <Batch ID>
0100

> <Smiles>
CCc1ccc(CCC(CC)[101CH2:1][101O:1]c2ccc3c(c2)CN(C(=O)C(NC(=O)C(C)NC)C(C)(C)C)C(C(=O)NC2CCCc4ccccc42)C3)cc1C([100NH:0][100C:0](=O)N1CCCC(n2nc(-c3ccc(Oc4ccc(F)cc4F)cc3)c(C(N)=O)c2N)C1)C(C)C

> <Shape>
0.285

> <Color>
0.106

> <Negative vol penalty>
0.000

$$$$

  -OEChem-04052319333D

 87 95  0     1  0  0  0  0  0999 V2000
  -27.7024  -10.3778   17.3782 C   0  0  0  0  0  0  0  0  0  0  0  0
  -26.6556  -11.2925   17.4313 C   0  0  0  0  0  0  0  0  0  0  0  0
  -26.3240  -29.4188   23.3490 C   0  0  0  0  0  0  0  0  0  0  0  0
  -25.6710  -28.4367   25.4575 C   0  0  0  0  0  0  0  0  0  0  0  0
  -28.8785  -10.6242   18.0853 C   0  0  0  0  0  0  0  0  0  0  0  0
  -26.7838  -12.4538   18.1925 C   0  0  0  0  0  0  0  0  0  0  0  0
  -24.4529  -17.9706   16.9131 C   0  0  0  0  0  0  0  0  0  0  0  0
  -27.3078  -30.1628   24.0002 C   0  0  0  0  0  0  0  0  0  0  0  0
  -26.6549  -29.1807   26.1088 C   0  0  0  0  0  0  0  0  0  0  0  0
  -23.3081  -18.6311   17.3569 C   0  0  0  0  0  0  0  0  0  0  0  0
  -27.4751  -32.9721   25.8722 C   0  0  0  0  0  0  0  0  0  0  0  0
  -27.5947  -34.3208   25.5372 C   0  0  0  0  0  0  0  0  0  0  0  0
  -24.6220  -19.7744   19.0259 C   0  0  0  0  0  0  0  0  0  0  0  0
  -29.8720  -33.9419   24.8247 C   0  0  0  0  0  0  0  0  0  0  0  0
  -19.3188  -21.7014   21.7432 C   0  0  0  0  0  0  0  0  0  0  0  0
  -25.5055  -28.5558   24.0776 C   0  0  0  0  0  0  0  0  0  0  0  0
  -24.6237  -26.5016   22.8487 C   0  0  0  0  0  0  0  0  0  0  0  0
  -29.0249  -11.7937   18.8478 C   0  0  0  0  0  0  0  0  0  0  0  0
  -25.6910  -18.1993   17.5305 C   0  0  0  0  0  0  0  0  0  0  0  0
  -27.9625  -12.7154   18.9116 C   0  0  0  0  0  0  0  0  0  0  0  0
  -25.7815  -19.1175   18.5864 C   0  0  0  0  0  0  0  0  0  0  0  0
  -18.6631  -22.6731   21.0045 C   0  0  0  0  0  0  0  0  0  0  0  0
  -19.2843  -23.1453   19.8536 C   0  0  0  0  0  0  0  0  0  0  0  0
  -20.5246  -22.6387   19.4819 C   0  0  0  0  0  0  0  0  0  0  0  0
  -27.4733  -30.0437   25.3801 C   0  0  0  0  0  0  0  0  0  0  0  0
  -23.3920  -19.5310   18.4153 C   0  0  0  0  0  0  0  0  0  0  0  0
  -28.5540  -32.1082   25.6835 C   0  0  0  0  0  0  0  0  0  0  0  0
  -28.7931  -34.8057   25.0135 C   0  0  0  0  0  0  0  0  0  0  0  0
  -29.7524  -32.5932   25.1597 C   0  0  0  0  0  0  0  0  0  0  0  0
  -24.4886  -27.7875   23.4056 C   0  0  0  0  0  0  0  0  0  0  0  0
  -21.0971  -21.6687   20.2889 C   0  0  0  0  0  0  0  0  0  0  0  0
  -23.3824  -26.2185   22.3334 C   0  0  0  0  0  0  0  0  0  0  0  0
  -25.7688  -25.6401   22.8016 C   0  0  0  0  0  0  0  0  0  0  0  0
  -27.7678  -16.3990   19.1272 C   0  0  0  0  0  0  0  0  0  0  0  0
  -29.5806  -19.0871   19.0274 C   0  0  0  0  0  0  0  0  0  0  0  0
  -29.7100  -22.4852   18.7385 C   0  0  0  0  0  0  0  0  0  0  0  0
  -17.8196  -26.1853   22.7796 C   0  0  0  0  0  0  0  0  0  0  0  0
  -30.2969  -11.9938   19.6331 C   0  0  0  0  0  0  0  0  0  0  0  0
  -26.9214  -17.4989   17.0226 C   0  0  0  0  0  0  0  0  0  0  0  0
  -27.0906  -19.4135   19.2699 C   0  0  0  0  0  0  0  0  0  0  0  0
  -30.4957  -13.4285   20.1153 C   0  0  0  0  0  0  0  0  0  0  0  0
  -19.3493  -29.1915   21.6397 C   0  0  0  0  0  0  0  0  0  0  0  0
  -29.2098  -13.9664   20.7350 C   0  0  0  0  0  0  0  0  0  0  0  0
  -20.8321  -28.9906   21.9573 C   0  0  0  0  0  0  0  0  0  0  0  0
  -18.4539  -28.5790   22.7145 C   0  0  0  0  0  0  0  0  0  0  0  0
  -20.2066  -26.9586   23.3278 C   0  0  0  0  0  0  0  0  0  0  0  0
  -28.0731  -13.9985   19.7063 C   0  0  1  0  0  0  0  0  0  0  0  0
  -28.0368  -17.4224   18.0605 C   0  0  1  0  0  0  0  0  0  0  0  0
  -21.1486  -27.5105   22.2441 C   0  0  2  0  0  0  0  0  0  0  0  0
  -21.2158  -23.1236   18.2519 C   0  0  0  0  0  0  0  0  0  0  0  0
  -31.3305  -24.4013   18.7316 C   0  0  0  0  0  0  0  0  0  0  0  0
  -16.0894  -25.6783   18.0490 C   0  0  0  0  0  0  0  0  0  0  0  0
  -15.7066  -23.8841   16.3532 C   0  0  0  0  0  0  0  0  0  0  0  0
  -17.7835  -25.2857   16.2554 C   0  0  0  0  0  0  0  0  0  0  0  0
  -29.8464  -18.8700   22.0593 C   0  0  0  0  0  0  0  0  0  0  0  0
  -30.6280  -21.2483   22.0912 C   0  0  0  0  0  0  0  0  0  0  0  0
  -31.9493  -19.5193   20.8716 C   0  0  0  0  0  0  0  0  0  0  0  0
  -28.9554  -23.2649   15.9850 C   0  0  0  0  0  0  0  0  0  0  0  0
  -17.3351  -23.1793   21.4509 C   0  0  0  0  0  0  0  0  0  0  0  0
  -18.6191  -24.1939   19.0207 C   0  0  0  0  0  0  0  0  0  0  0  0
  -22.4345  -21.0850   19.9398 C   0  0  0  0  0  0  0  0  0  1  0  0
  -17.4927  -23.6057   18.1510 C   0  0  0  0  0  0  0  0  0  0  0  0
  -17.3409  -23.7520   22.8741 C   0  0  0  0  0  0  0  0  0  0  0  0
  -29.7443  -20.2996   19.9118 C   0  0  1  0  0  0  0  0  0  0  0  0
  -30.5759  -23.3910   17.8815 C   0  0  2  0  0  0  0  0  0  0  0  0
  -16.7788  -24.5970   17.1934 C   0  0  0  0  0  0  0  0  0  0  0  0
  -30.5168  -19.9775   21.2221 C   0  0  0  0  0  0  0  0  0  0  0  0
  -20.5241  -21.1852   21.4139 N   0  0  0  0  0  0  0  0  0  0  0  0
  -23.2586  -28.2868   23.2578 N   0  0  0  0  0  0  0  0  0  0  0  0
  -22.6095  -27.3096   22.6021 N   0  0  0  0  0  0  0  0  0  0  0  0
  -28.2641  -18.6989   18.7411 N   0  0  0  0  0  0  0  0  0  0  0  0
  -18.8045  -27.1742   22.9374 N   0  0  0  0  0  0  0  0  0  0  0  0
  -22.8876  -25.1451   21.6810 N   0  0  0  0  0  0  0  0  0  0  0  0
  -26.9651  -26.0866   23.3792 N   0  0  0  0  0  0  0  0  0  0  0  0
  -28.2258  -15.1320   18.8196 N   0  0  0  0  0  0  0  0  0  0  0  0
  -30.3709  -21.3259   19.0856 N   0  0  0  0  0  0  0  0  0  0  0  0
  -18.2373  -24.8791   23.0035 N   0  0  0  0  0  0  0  0  0  0  0  0
  -29.7354  -24.1356   16.9018 N   0  3  0  0  0  0  0  0  0  0  0  0
  -25.7367  -24.5146   22.2487 O   0  0  0  0  0  0  0  0  0  0  0  0
  -27.1890  -16.7343   20.1540 O   0  0  0  0  0  0  0  0  0  0  0  0
  -30.5838  -18.5102   18.6005 O   0  0  0  0  0  0  0  0  0  0  0  0
  -28.5635  -22.7785   19.0701 O   0  0  0  0  0  0  0  0  0  0  0  0
  -16.6556  -26.4465   22.4573 O   0  0  0  0  0  0  0  0  0  0  0  0
  -28.4335  -30.7693   26.0158 O   0  0  0  0  0  0  0  0  0  0  0  0
  -22.2760  -20.1765   18.8509 O   0  0  0  0  0  0  0  0  0  1  0  0
  -28.9073  -36.1006   24.6904 F   0  0  0  0  0  0  0  0  0  0  0  0
  -30.7919  -31.7679   24.9751 F   0  0  0  0  0  0  0  0  0  0  0  0
  1  2  1  0  0  0  0
  1  5  2  0  0  0  0
  2  6  2  0  0  0  0
  3  8  2  0  0  0  0
  3 16  1  0  0  0  0
  4  9  1  0  0  0  0
  4 16  2  0  0  0  0
  5 18  1  0  0  0  0
  6 20  1  0  0  0  0
  7 10  2  0  0  0  0
  7 19  1  0  0  0  0
  8 25  1  0  0  0  0
  9 25  2  0  0  0  0
 10 26  1  0  0  0  0
 11 12  2  0  0  0  0
 11 27  1  0  0  0  0
 12 28  1  0  0  0  0
 13 21  1  0  0  0  0
 13 26  2  0  0  0  0
 14 28  2  0  0  0  0
 14 29  1  0  0  0  0
 15 22  1  0  0  0  0
 15 68  2  0  0  0  0
 16 30  1  0  0  0  0
 17 30  1  0  0  0  0
 17 32  2  0  0  0  0
 17 33  1  0  0  0  0
 18 20  2  0  0  0  0
 18 38  1  0  0  0  0
 19 21  2  0  0  0  0
 19 39  1  0  0  0  0
 20 47  1  0  0  0  0
 21 40  1  0  0  0  0
 22 23  2  0  0  0  0
 22 59  1  0  0  0  0
 23 24  1  0  0  0  0
 23 60  1  0  0  0  0
 24 31  2  0  0  0  0
 24 50  1  0  0  0  0
 25 84  1  0  0  0  0
 26 85  1  0  0  0  0
 27 29  2  0  0  0  0
 27 84  1  0  0  0  0
 28 86  1  0  0  0  0
 29 87  1  0  0  0  0
 30 69  2  0  0  0  0
 31 61  1  0  0  0  0
 31 68  1  0  0  0  0
 32 70  1  0  0  0  0
 32 73  1  0  0  0  0
 33 74  1  0  0  0  0
 33 79  2  0  0  0  0
 34 48  1  0  0  0  0
 34 75  1  0  0  0  0
 34 80  2  0  0  0  0
 35 64  1  0  0  0  0
 35 71  1  0  0  0  0
 35 81  2  0  0  0  0
 36 65  1  0  0  0  0
 36 76  1  0  0  0  0
 36 82  2  0  0  0  0
 37 72  1  0  0  0  0
 37 77  1  0  0  0  0
 37 83  2  0  0  0  0
 38 41  1  0  0  0  0
 39 48  1  0  0  0  0
 40 71  1  0  0  0  0
 41 43  1  0  0  0  0
 42 44  1  0  0  0  0
 42 45  1  0  0  0  0
 43 47  1  0  0  0  0
 44 49  1  0  0  0  0
 45 72  1  0  0  0  0
 46 49  1  0  0  0  0
 46 72  1  0  0  0  0
 47 75  1  0  0  0  0
 48 71  1  0  0  0  0
 49 70  1  0  0  0  0
 51 65  1  0  0  0  0
 52 66  1  0  0  0  0
 53 66  1  0  0  0  0
 54 66  1  0  0  0  0
 55 67  1  0  0  0  0
 56 67  1  0  0  0  0
 57 67  1  0  0  0  0
 58 78  1  0  0  0  0
 59 63  1  0  0  0  0
 60 62  1  0  0  0  0
 61 85  1  0  0  0  0
 62 66  1  0  0  0  0
 63 77  1  0  0  0  0
 64 67  1  0  0  0  0
 64 76  1  0  0  0  0
 65 78  1  0  0  0  0
 69 70  1  0  0  0  0
M  CHG  1  78   1
M  ISO  4  37 100  61 101  77 100  85 101
M  END
> <Batch ID>
0100

> <Smiles>
CNC(C)C(=O)NC(C(=O)N1Cc2cc([101O:1][101CH2:1]c3ncc(CC[100NH:0][100C:0](=O)N4CCCC(n5nc(-c6ccc(Oc7ccc(F)cc7F)cc6)c(C(N)=O)c5N)C4)c(CCC(C)(C)C)c3C)ccc2CC1C(=O)NC1CCCc2ccccc21)C(C)(C)C

> <Shape>
0.207

> <Color>
0.060

> <Negative vol penalty>
0.000

$$$$

  -OEChem-04052319333D

 90 98  0     1  0  0  0  0  0999 V2000
  -29.4205  -36.8387   22.2700 C   0  0  0  0  0  0  0  0  0  0  0  0
  -28.9616  -35.6315   21.7528 C   0  0  0  0  0  0  0  0  0  0  0  0
  -24.6764   -8.7511   21.8110 C   0  0  0  0  0  0  0  0  0  0  0  0
  -23.0801   -9.8767   20.3890 C   0  0  0  0  0  0  0  0  0  0  0  0
  -29.0802  -37.2135   23.5691 C   0  0  0  0  0  0  0  0  0  0  0  0
  -28.1631  -34.7977   22.5349 C   0  0  0  0  0  0  0  0  0  0  0  0
  -23.5820  -31.2196   20.6071 C   0  0  0  0  0  0  0  0  0  0  0  0
  -23.6296   -8.1555   22.5146 C   0  0  0  0  0  0  0  0  0  0  0  0
  -22.0333   -9.2810   21.0926 C   0  0  0  0  0  0  0  0  0  0  0  0
  -23.5151  -29.8585   20.3127 C   0  0  0  0  0  0  0  0  0  0  0  0
  -21.5008   -5.5629   22.0910 C   0  0  0  0  0  0  0  0  0  0  0  0
  -21.6046   -4.2020   22.3784 C   0  0  0  0  0  0  0  0  0  0  0  0
  -22.6768  -29.4256   22.5328 C   0  0  0  0  0  0  0  0  0  0  0  0
  -24.8530  -22.5491   19.2872 C   0  0  0  0  0  0  0  0  0  0  0  0
  -21.4870   -4.6921   24.7413 C   0  0  0  0  0  0  0  0  0  0  0  0
  -26.9420  -22.1529   20.9974 C   0  0  0  0  0  0  0  0  0  0  0  0
  -24.4016   -9.6117   20.7482 C   0  0  0  0  0  0  0  0  0  0  0  0
  -26.1390   -9.7216   18.8834 C   0  0  0  0  0  0  0  0  0  0  0  0
  -28.2691  -36.3884   24.3642 C   0  0  0  0  0  0  0  0  0  0  0  0
  -23.2065  -31.6935   21.8724 C   0  0  0  0  0  0  0  0  0  0  0  0
  -27.8128  -35.1612   23.8464 C   0  0  0  0  0  0  0  0  0  0  0  0
  -22.7375  -30.7935   22.8400 C   0  0  0  0  0  0  0  0  0  0  0  0
  -25.2008  -21.2527   19.6503 C   0  0  0  0  0  0  0  0  0  0  0  0
  -26.2640  -21.0422   20.5212 C   0  0  0  0  0  0  0  0  0  0  0  0
  -22.3081   -8.4204   22.1554 C   0  0  0  0  0  0  0  0  0  0  0  0
  -23.0652  -28.9610   21.2765 C   0  0  0  0  0  0  0  0  0  0  0  0
  -21.3902   -6.4885   23.1287 C   0  0  0  0  0  0  0  0  0  0  0  0
  -21.5976   -3.7665   23.7036 C   0  0  0  0  0  0  0  0  0  0  0  0
  -21.3832   -6.0530   24.4538 C   0  0  0  0  0  0  0  0  0  0  0  0
  -25.4825  -10.2277   20.0213 C   0  0  0  0  0  0  0  0  0  0  0  0
  -25.5939  -23.5922   19.8188 C   0  0  0  0  0  0  0  0  0  0  0  0
  -27.0807  -10.6738   18.5785 C   0  0  0  0  0  0  0  0  0  0  0  0
  -25.9172   -8.5001   18.1662 C   0  0  0  0  0  0  0  0  0  0  0  0
  -24.6997  -33.2090   24.2340 C   0  0  0  0  0  0  0  0  0  0  0  0
  -21.7223  -33.3309   25.5157 C   0  0  0  0  0  0  0  0  0  0  0  0
  -18.5825  -32.0039   25.6806 C   0  0  0  0  0  0  0  0  0  0  0  0
  -27.2124  -16.5324   19.9616 C   0  0  0  0  0  0  0  0  0  0  0  0
  -27.9669  -36.8139   25.7792 C   0  0  0  0  0  0  0  0  0  0  0  0
  -23.2592  -33.1678   22.1654 C   0  0  0  0  0  0  0  0  0  0  0  0
  -22.3033  -31.2537   24.2068 C   0  0  0  0  0  0  0  0  0  0  0  0
  -26.8074  -36.0481   26.4110 C   0  0  0  0  0  0  0  0  0  0  0  0
  -29.0662  -13.6460   21.6969 C   0  0  0  0  0  0  0  0  0  0  0  0
  -26.9545  -34.5513   26.1566 C   0  0  0  0  0  0  0  0  0  0  0  0
  -29.0290  -12.7535   20.4599 C   0  0  0  0  0  0  0  0  0  0  0  0
  -28.8034  -15.1026   21.3273 C   0  0  0  0  0  0  0  0  0  0  0  0
  -26.8521  -14.0840   20.1537 C   0  0  0  0  0  0  0  0  0  0  0  0
  -26.9241  -34.2413   24.6551 C   0  0  1  0  0  0  0  0  0  0  0  0
  -23.3388  -33.4781   23.6570 C   0  0  1  0  0  0  0  0  0  0  0  0
  -27.7386  -12.9392   19.6322 C   0  0  2  0  0  0  0  0  0  0  0  0
  -26.1785  -20.0624   23.4306 C   0  0  0  0  0  0  0  0  0  0  0  0
  -29.9825  -19.1514   18.8449 C   0  0  0  0  0  0  0  0  0  0  0  0
  -16.3794  -32.2954   26.8462 C   0  0  0  0  0  0  0  0  0  0  0  0
  -22.1987  -20.8286   20.1129 C   0  0  0  0  0  0  0  0  0  0  0  0
  -22.5096  -18.4714   19.3315 C   0  0  0  0  0  0  0  0  0  0  0  0
  -22.8912  -32.0687   28.0357 C   0  0  0  0  0  0  0  0  0  0  0  0
  -20.5580  -31.5199   28.7590 C   0  0  0  0  0  0  0  0  0  0  0  0
  -21.2406  -33.9000   28.4555 C   0  0  0  0  0  0  0  0  0  0  0  0
  -17.1686  -32.5097   23.1303 C   0  0  0  0  0  0  0  0  0  0  0  0
  -24.4219  -20.1066   19.0952 C   0  0  0  0  0  0  0  0  0  0  0  0
  -25.2456  -25.0114   19.4470 C   0  0  0  0  0  0  0  0  0  0  0  0
  -27.2093  -19.5908   22.4104 C   0  0  0  0  0  0  0  0  0  0  0  0
  -28.9831  -19.7953   19.7996 C   0  0  0  0  0  0  0  0  0  0  0  0
  -24.2250  -25.6608   20.3842 C   0  0  0  0  0  0  0  0  0  0  0  0
  -23.9437  -27.1215   20.0516 C   0  0  0  0  0  0  0  0  0  1  0  0
  -26.6791  -19.6753   20.9423 C   0  0  2  0  0  0  0  0  0  0  0  0
  -20.9105  -32.4360   26.4208 C   0  0  1  0  0  0  0  0  0  0  0  0
  -17.2108  -32.6517   25.6237 C   0  0  2  0  0  0  0  0  0  0  0  0
  -23.2042  -19.6855   19.9533 C   0  0  0  0  0  0  0  0  0  0  0  0
  -27.6910  -18.9700   19.9628 C   0  0  2  0  0  0  0  0  0  0  0  0
  -21.4100  -32.4719   27.8927 C   0  0  0  0  0  0  0  0  0  0  0  0
  -26.6333  -23.4270   20.6674 N   0  0  0  0  0  0  0  0  0  0  0  0
  -25.9664  -11.4095   20.4127 N   0  0  0  0  0  0  0  0  0  0  0  0
  -26.9370  -11.6539   19.5159 N   0  0  0  0  0  0  0  0  0  0  0  0
  -22.3792  -32.7043   24.4472 N   0  0  0  0  0  0  0  0  0  0  0  0
  -27.6375  -15.2827   20.4528 N   0  0  0  0  0  0  0  0  0  0  0  0
  -28.0096  -10.7597   17.6026 N   0  0  0  0  0  0  0  0  0  0  0  0
  -24.9093   -7.6356   18.6146 N   0  0  0  0  0  0  0  0  0  0  0  0
  -25.5657  -34.2831   24.1578 N   0  0  0  0  0  0  0  0  0  0  0  0
  -19.5187  -32.8394   26.2521 N   0  0  0  0  0  0  0  0  0  0  0  0
  -27.9863  -17.6154   20.3707 N   0  0  0  0  0  0  0  0  0  0  0  0
  -16.4756  -32.2020   24.4079 N   0  3  0  0  0  0  0  0  0  0  0  0
  -26.6038   -8.1769   17.1674 O   0  0  0  0  0  0  0  0  0  0  0  0
  -24.9455  -32.1087   24.7143 O   0  0  0  0  0  0  0  0  0  0  0  0
  -21.7661  -34.5423   25.7440 O   0  0  0  0  0  0  0  0  0  0  0  0
  -18.8008  -30.8686   25.2635 O   0  0  0  0  0  0  0  0  0  0  0  0
  -26.2298  -16.6699   19.2268 O   0  0  0  0  0  0  0  0  0  0  0  0
  -21.2864   -7.8392   22.8417 O   0  0  0  0  0  0  0  0  0  0  0  0
  -22.9995  -27.6318   20.9920 O   0  0  0  0  0  0  0  0  0  1  0  0
  -21.6958   -2.4594   23.9794 F   0  0  0  0  0  0  0  0  0  0  0  0
  -21.2760   -6.9374   25.4549 F   0  0  0  0  0  0  0  0  0  0  0  0
  1  2  1  0  0  0  0
  1  5  2  0  0  0  0
  2  6  2  0  0  0  0
  3  8  2  0  0  0  0
  3 17  1  0  0  0  0
  4  9  1  0  0  0  0
  4 17  2  0  0  0  0
  5 19  1  0  0  0  0
  6 21  1  0  0  0  0
  7 10  2  0  0  0  0
  7 20  1  0  0  0  0
  8 25  1  0  0  0  0
  9 25  2  0  0  0  0
 10 26  1  0  0  0  0
 11 12  2  0  0  0  0
 11 27  1  0  0  0  0
 12 28  1  0  0  0  0
 13 22  1  0  0  0  0
 13 26  2  0  0  0  0
 14 23  1  0  0  0  0
 14 31  2  0  0  0  0
 15 28  2  0  0  0  0
 15 29  1  0  0  0  0
 16 24  1  0  0  0  0
 16 71  2  0  0  0  0
 17 30  1  0  0  0  0
 18 30  1  0  0  0  0
 18 32  2  0  0  0  0
 18 33  1  0  0  0  0
 19 21  2  0  0  0  0
 19 38  1  0  0  0  0
 20 22  2  0  0  0  0
 20 39  1  0  0  0  0
 21 47  1  0  0  0  0
 22 40  1  0  0  0  0
 23 24  2  0  0  0  0
 23 59  1  0  0  0  0
 24 65  1  0  0  0  0
 25 87  1  0  0  0  0
 26 88  1  0  0  0  0
 27 29  2  0  0  0  0
 27 87  1  0  0  0  0
 28 89  1  0  0  0  0
 29 90  1  0  0  0  0
 30 72  2  0  0  0  0
 31 60  1  0  0  0  0
 31 71  1  0  0  0  0
 32 73  1  0  0  0  0
 32 76  1  0  0  0  0
 33 77  1  0  0  0  0
 33 82  2  0  0  0  0
 34 48  1  0  0  0  0
 34 78  1  0  0  0  0
 34 83  2  0  0  0  0
 35 66  1  0  0  0  0
 35 74  1  0  0  0  0
 35 84  2  0  0  0  0
 36 67  1  0  0  0  0
 36 79  1  0  0  0  0
 36 85  2  0  0  0  0
 37 75  1  0  0  0  0
 37 80  1  0  0  0  0
 37 86  2  0  0  0  0
 38 41  1  0  0  0  0
 39 48  1  0  0  0  0
 40 74  1  0  0  0  0
 41 43  1  0  0  0  0
 42 44  1  0  0  0  0
 42 45  1  0  0  0  0
 43 47  1  0  0  0  0
 44 49  1  0  0  0  0
 45 75  1  0  0  0  0
 46 49  1  0  0  0  0
 46 75  1  0  0  0  0
 47 78  1  0  0  0  0
 48 74  1  0  0  0  0
 49 73  1  0  0  0  0
 50 61  1  0  0  0  0
 51 62  1  0  0  0  0
 52 67  1  0  0  0  0
 53 68  1  0  0  0  0
 54 68  1  0  0  0  0
 55 70  1  0  0  0  0
 56 70  1  0  0  0  0
 57 70  1  0  0  0  0
 58 81  1  0  0  0  0
 59 68  1  0  0  0  0
 60 63  1  0  0  0  0
 61 65  1  0  0  0  0
 62 69  1  0  0  0  0
 63 64  1  0  0  0  0
 64 88  1  0  0  0  0
 65 69  1  0  0  0  0
 66 70  1  0  0  0  0
 66 79  1  0  0  0  0
 67 81  1  0  0  0  0
 69 80  1  0  0  0  0
 72 73  1  0  0  0  0
M  CHG  1  81   1
M  ISO  4  37 100  64 101  80 100  88 101
M  END
> <Batch ID>
0100

> <Smiles>
CCC([100NH:0][100C:0](=O)N1CCCC(n2nc(-c3ccc(Oc4ccc(F)cc4F)cc3)c(C(N)=O)c2N)C1)C(CC)c1cnc(CC[101CH2:1][101O:1]c2ccc3c(c2)CN(C(=O)C(NC(=O)C(C)NC)C(C)(C)C)C(C(=O)NC2CCCc4ccccc42)C3)cc1CC(C)C

> <Shape>
0.243

> <Color>
0.070

> <Negative vol penalty>
0.000

$$$$

  -OEChem-04052319333D

 91 99  0     1  0  0  0  0  0999 V2000
  -27.8756  -37.5786   26.1774 C   0  0  0  0  0  0  0  0  0  0  0  0
  -28.6056  -36.4560   25.8002 C   0  0  0  0  0  0  0  0  0  0  0  0
  -23.3724   -9.7026   19.8965 C   0  0  0  0  0  0  0  0  0  0  0  0
  -23.9291   -9.8703   22.2415 C   0  0  0  0  0  0  0  0  0  0  0  0
  -26.4914  -37.4925   26.3214 C   0  0  0  0  0  0  0  0  0  0  0  0
  -27.9520  -35.2464   25.5679 C   0  0  0  0  0  0  0  0  0  0  0  0
  -28.3488  -29.3834   21.4710 C   0  0  0  0  0  0  0  0  0  0  0  0
  -22.7366   -8.4841   20.1346 C   0  0  0  0  0  0  0  0  0  0  0  0
  -23.2932   -8.6519   22.4796 C   0  0  0  0  0  0  0  0  0  0  0  0
  -28.3675  -27.9935   21.5786 C   0  0  0  0  0  0  0  0  0  0  0  0
  -20.1285   -7.5267   22.8522 C   0  0  0  0  0  0  0  0  0  0  0  0
  -19.2831   -7.4439   23.9586 C   0  0  0  0  0  0  0  0  0  0  0  0
  -25.9637  -27.9828   21.7811 C   0  0  0  0  0  0  0  0  0  0  0  0
  -27.5000  -23.1397   20.9378 C   0  0  0  0  0  0  0  0  0  0  0  0
  -28.8576  -23.1025   22.9359 C   0  0  0  0  0  0  0  0  0  0  0  0
  -20.6559   -5.6799   24.8756 C   0  0  0  0  0  0  0  0  0  0  0  0
  -23.9687  -10.3957   20.9499 C   0  0  0  0  0  0  0  0  0  0  0  0
  -24.0495  -12.9375   20.7498 C   0  0  0  0  0  0  0  0  0  0  0  0
  -25.8194  -36.2837   26.0813 C   0  0  0  0  0  0  0  0  0  0  0  0
  -27.1363  -30.0855   21.5287 C   0  0  0  0  0  0  0  0  0  0  0  0
  -26.5578  -35.1437   25.7101 C   0  0  0  0  0  0  0  0  0  0  0  0
  -25.9321  -29.3814   21.6715 C   0  0  0  0  0  0  0  0  0  0  0  0
  -28.2694  -23.8109   21.8881 C   0  0  0  0  0  0  0  0  0  0  0  0
  -27.3187  -21.7601   21.0353 C   0  0  0  0  0  0  0  0  0  0  0  0
  -28.6764  -21.7228   23.0333 C   0  0  0  0  0  0  0  0  0  0  0  0
  -27.9069  -21.0516   22.0830 C   0  0  0  0  0  0  0  0  0  0  0  0
  -22.6969   -7.9588   21.4261 C   0  0  0  0  0  0  0  0  0  0  0  0
  -27.1751  -27.2932   21.7366 C   0  0  0  0  0  0  0  0  0  0  0  0
  -21.2376   -6.6860   22.7575 C   0  0  0  0  0  0  0  0  0  0  0  0
  -19.5468   -6.5206   24.9703 C   0  0  0  0  0  0  0  0  0  0  0  0
  -21.5013   -5.7627   23.7692 C   0  0  0  0  0  0  0  0  0  0  0  0
  -24.6262  -11.6541   20.7045 C   0  0  0  0  0  0  0  0  0  0  0  0
  -25.0829  -13.7892   20.4444 C   0  0  0  0  0  0  0  0  0  0  0  0
  -22.7004  -13.3252   21.0419 C   0  0  0  0  0  0  0  0  0  0  0  0
  -25.9029  -32.2758   23.4742 C   0  0  0  0  0  0  0  0  0  0  0  0
  -23.5174  -32.3211   21.2766 C   0  0  0  0  0  0  0  0  0  0  0  0
  -21.8295  -30.6908   18.7987 C   0  0  0  0  0  0  0  0  0  0  0  0
  -30.3914  -15.4077   21.0326 C   0  0  0  0  0  0  0  0  0  0  0  0
  -24.3276  -36.2274   26.2957 C   0  0  0  0  0  0  0  0  0  0  0  0
  -27.1307  -31.5827   21.3843 C   0  0  0  0  0  0  0  0  0  0  0  0
  -24.6020  -30.0865   21.7189 C   0  0  0  0  0  0  0  0  0  0  0  0
  -23.6676  -35.0030   25.6668 C   0  0  0  0  0  0  0  0  0  0  0  0
  -29.7208  -12.8335   18.6660 C   0  0  0  0  0  0  0  0  0  0  0  0
  -24.4603  -33.7417   25.9946 C   0  0  0  0  0  0  0  0  0  0  0  0
  -28.2910  -12.3992   18.9932 C   0  0  0  0  0  0  0  0  0  0  0  0
  -30.5037  -13.1939   19.9267 C   0  0  0  0  0  0  0  0  0  0  0  0
  -28.4239  -13.7592   21.1220 C   0  0  0  0  0  0  0  0  0  0  0  0
  -25.8820  -33.8200   25.4251 C   0  0  1  0  0  0  0  0  0  0  0  0
  -25.8834  -32.2351   21.9724 C   0  0  1  0  0  0  0  0  0  0  0  0
  -27.5776  -13.4393   19.8778 C   0  0  2  0  0  0  0  0  0  0  0  0
  -26.4910  -21.0650   20.0040 C   0  0  0  0  0  0  0  0  0  0  0  0
  -29.3171  -20.9873   24.1649 C   0  0  0  0  0  0  0  0  0  0  0  0
  -19.9025  -30.9686   17.2154 C   0  0  0  0  0  0  0  0  0  0  0  0
  -25.8011  -19.9861   24.6068 C   0  0  0  0  0  0  0  0  0  0  0  0
  -23.8889  -19.4537   23.0844 C   0  0  0  0  0  0  0  0  0  0  0  0
  -21.5656  -31.8264   23.5691 C   0  0  0  0  0  0  0  0  0  0  0  0
  -19.8448  -31.1753   21.8711 C   0  0  0  0  0  0  0  0  0  0  0  0
  -20.7816  -33.4872   21.8716 C   0  0  0  0  0  0  0  0  0  0  0  0
  -23.5847  -30.4181   16.4315 C   0  0  0  0  0  0  0  0  0  0  0  0
  -28.4638  -25.2950   21.7837 C   0  0  0  0  0  0  0  0  0  1  0  0
  -30.4363  -18.4375   19.7845 C   0  0  0  0  0  0  0  0  0  0  0  0
  -26.2350  -19.1130   22.2468 C   0  0  0  0  0  0  0  0  0  0  0  0
  -30.1229  -17.5932   22.1774 C   0  0  0  0  0  0  0  0  0  0  0  0
  -30.5396  -19.6974   18.9319 C   0  0  0  0  0  0  0  0  0  0  0  0
  -27.7127  -19.5724   22.1870 C   0  0  1  0  0  0  0  0  0  0  0  0
  -22.2245  -31.5653   21.0864 C   0  0  1  0  0  0  0  0  0  0  0  0
  -21.4016  -31.1339   17.4113 C   0  0  2  0  0  0  0  0  0  0  0  0
  -25.3278  -19.9735   23.1526 C   0  0  0  0  0  0  0  0  0  0  0  0
  -29.8173  -18.6982   21.1646 C   0  0  2  0  0  0  0  0  0  0  0  0
  -21.1292  -32.0001   22.1006 C   0  0  0  0  0  0  0  0  0  0  0  0
  -25.9251  -11.6830   20.3946 N   0  0  0  0  0  0  0  0  0  0  0  0
  -26.1731  -12.9950   20.2423 N   0  0  0  0  0  0  0  0  0  0  0  0
  -24.6494  -31.5514   21.5797 N   0  0  0  0  0  0  0  0  0  0  0  0
  -29.7736  -14.1855   20.7202 N   0  0  0  0  0  0  0  0  0  0  0  0
  -25.1562  -15.1325   20.3316 N   0  0  0  0  0  0  0  0  0  0  0  0
  -21.7657  -12.3228   21.3347 N   0  0  0  0  0  0  0  0  0  0  0  0
  -25.8721  -33.5521   24.0029 N   0  0  0  0  0  0  0  0  0  0  0  0
  -21.8489  -31.7443   19.6881 N   0  0  0  0  0  0  0  0  0  0  0  0
  -29.6274  -16.2934   21.7827 N   0  0  0  0  0  0  0  0  0  0  0  0
  -31.4342  -20.6679   19.6107 N   0  3  0  0  0  0  0  0  0  0  0  0
  -22.1030  -30.3295   16.3712 N   0  3  0  0  0  0  0  0  0  0  0  0
  -28.3503  -18.8335   21.0379 N   0  3  0  0  0  0  0  0  0  0  0  0
  -22.3308  -14.5238   21.0271 O   0  0  0  0  0  0  0  0  0  0  0  0
  -25.9414  -31.2269   24.1066 O   0  0  0  0  0  0  0  0  0  0  0  0
  -23.5241  -33.5485   21.1535 O   0  0  0  0  0  0  0  0  0  0  0  0
  -22.1143  -29.5258   19.0676 O   0  0  0  0  0  0  0  0  0  0  0  0
  -31.5368  -15.6909   20.6654 O   0  0  0  0  0  0  0  0  0  0  0  0
  -22.0764   -6.7700   21.6589 O   0  0  0  0  0  0  0  0  0  0  0  0
  -27.1906  -25.9366   21.8425 O   0  0  0  0  0  0  0  0  0  1  0  0
  -18.7357   -6.4423   26.0334 F   0  0  0  0  0  0  0  0  0  0  0  0
  -22.5659   -4.9533   23.6844 F   0  0  0  0  0  0  0  0  0  0  0  0
  1  2  1  0  0  0  0
  1  5  2  0  0  0  0
  2  6  2  0  0  0  0
  3  8  2  0  0  0  0
  3 17  1  0  0  0  0
  4  9  1  0  0  0  0
  4 17  2  0  0  0  0
  5 19  1  0  0  0  0
  6 21  1  0  0  0  0
  7 10  2  0  0  0  0
  7 20  1  0  0  0  0
  8 27  1  0  0  0  0
  9 27  2  0  0  0  0
 10 28  1  0  0  0  0
 11 12  2  0  0  0  0
 11 29  1  0  0  0  0
 12 30  1  0  0  0  0
 13 22  1  0  0  0  0
 13 28  2  0  0  0  0
 14 23  1  0  0  0  0
 14 24  2  0  0  0  0
 15 23  2  0  0  0  0
 15 25  1  0  0  0  0
 16 30  2  0  0  0  0
 16 31  1  0  0  0  0
 17 32  1  0  0  0  0
 18 32  1  0  0  0  0
 18 33  2  0  0  0  0
 18 34  1  0  0  0  0
 19 21  2  0  0  0  0
 19 39  1  0  0  0  0
 20 22  2  0  0  0  0
 20 40  1  0  0  0  0
 21 48  1  0  0  0  0
 22 41  1  0  0  0  0
 23 60  1  0  0  0  0
 24 26  1  0  0  0  0
 24 51  1  0  0  0  0
 25 26  2  0  0  0  0
 25 52  1  0  0  0  0
 26 65  1  0  0  0  0
 27 88  1  0  0  0  0
 28 89  1  0  0  0  0
 29 31  2  0  0  0  0
 29 88  1  0  0  0  0
 30 90  1  0  0  0  0
 31 91  1  0  0  0  0
 32 71  2  0  0  0  0
 33 72  1  0  0  0  0
 33 75  1  0  0  0  0
 34 76  1  0  0  0  0
 34 83  2  0  0  0  0
 35 49  1  0  0  0  0
 35 77  1  0  0  0  0
 35 84  2  0  0  0  0
 36 66  1  0  0  0  0
 36 73  1  0  0  0  0
 36 85  2  0  0  0  0
 37 67  1  0  0  0  0
 37 78  1  0  0  0  0
 37 86  2  0  0  0  0
 38 74  1  0  0  0  0
 38 79  1  0  0  0  0
 38 87  2  0  0  0  0
 39 42  1  0  0  0  0
 40 49  1  0  0  0  0
 41 73  1  0  0  0  0
 42 44  1  0  0  0  0
 43 45  1  0  0  0  0
 43 46  1  0  0  0  0
 44 48  1  0  0  0  0
 45 50  1  0  0  0  0
 46 74  1  0  0  0  0
 47 50  1  0  0  0  0
 47 74  1  0  0  0  0
 48 77  1  0  0  0  0
 49 73  1  0  0  0  0
 50 72  1  0  0  0  0
 53 67  1  0  0  0  0
 54 68  1  0  0  0  0
 55 68  1  0  0  0  0
 56 70  1  0  0  0  0
 57 70  1  0  0  0  0
 58 70  1  0  0  0  0
 59 81  1  0  0  0  0
 60 89  1  0  0  0  0
 61 64  1  0  0  0  0
 61 69  1  0  0  0  0
 62 65  1  0  0  0  0
 62 68  1  0  0  0  0
 63 69  1  0  0  0  0
 63 79  1  0  0  0  0
 64 80  1  0  0  0  0
 65 82  1  0  0  0  0
 66 70  1  0  0  0  0
 66 78  1  0  0  0  0
 67 81  1  0  0  0  0
 69 82  1  0  0  0  0
 71 72  1  0  0  0  0
M  CHG  3  80   1  81   1  82   1
M  ISO  4  38 100  60 101  79 100  89 101
M  END
> <Batch ID>
0100

> <Smiles>
CNC(C)C(=O)NC(C(=O)N1Cc2cc([101O:1][101CH2:1]c3cc(C)c(C(CC(C)C)NC(CCN)C[100NH:0][100C:0](=O)N4CCCC(n5nc(-c6ccc(Oc7ccc(F)cc7F)cc6)c(C(N)=O)c5N)C4)c(C)c3)ccc2CC1C(=O)NC1CCCc2ccccc21)C(C)(C)C

> <Shape>
0.322

> <Color>
0.174

> <Negative vol penalty>
0.000

$$$$

  -OEChem-04052319333D

 90 98  0     1  0  0  0  0  0999 V2000
  -30.2378  -25.3121   17.5375 C   0  0  0  0  0  0  0  0  0  0  0  0
  -28.8493  -25.3530   17.6137 C   0  0  0  0  0  0  0  0  0  0  0  0
  -27.1544  -14.9413   19.4837 C   0  0  0  0  0  0  0  0  0  0  0  0
  -24.7517  -14.8779   19.2386 C   0  0  0  0  0  0  0  0  0  0  0  0
  -31.0074  -25.7834   18.6003 C   0  0  0  0  0  0  0  0  0  0  0  0
  -28.2295  -25.8644   18.7534 C   0  0  0  0  0  0  0  0  0  0  0  0
  -22.9930  -29.0313   18.9891 C   0  0  0  0  0  0  0  0  0  0  0  0
  -27.1396  -13.6331   19.9674 C   0  0  0  0  0  0  0  0  0  0  0  0
  -24.7369  -13.5696   19.7222 C   0  0  0  0  0  0  0  0  0  0  0  0
  -21.6830  -28.6570   19.2851 C   0  0  0  0  0  0  0  0  0  0  0  0
  -24.9214  -12.0201   22.7215 C   0  0  0  0  0  0  0  0  0  0  0  0
  -23.9560  -11.6919   23.6733 C   0  0  0  0  0  0  0  0  0  0  0  0
  -22.0029  -29.3663   21.5685 C   0  0  0  0  0  0  0  0  0  0  0  0
  -19.3877  -21.4887   22.5021 C   0  0  0  0  0  0  0  0  0  0  0  0
  -23.0608  -10.0116   22.1858 C   0  0  0  0  0  0  0  0  0  0  0  0
  -19.7006  -20.6038   20.4555 C   0  0  0  0  0  0  0  0  0  0  0  0
  -25.9604  -15.5637   19.1194 C   0  0  0  0  0  0  0  0  0  0  0  0
  -26.1008  -17.3249   17.2793 C   0  0  0  0  0  0  0  0  0  0  0  0
  -30.3967  -26.3097   19.7495 C   0  0  0  0  0  0  0  0  0  0  0  0
  -23.8226  -29.5666   19.9848 C   0  0  0  0  0  0  0  0  0  0  0  0
  -28.9916  -26.3420   19.8331 C   0  0  0  0  0  0  0  0  0  0  0  0
  -23.3222  -29.7489   21.2819 C   0  0  0  0  0  0  0  0  0  0  0  0
  -20.1400  -21.5940   21.3063 C   0  0  0  0  0  0  0  0  0  0  0  0
  -25.9309  -12.9472   20.0866 C   0  0  0  0  0  0  0  0  0  0  0  0
  -21.1887  -28.8218   20.5757 C   0  0  0  0  0  0  0  0  0  0  0  0
  -24.9565  -11.3441   21.5019 C   0  0  0  0  0  0  0  0  0  0  0  0
  -23.0257  -10.6877   23.4055 C   0  0  0  0  0  0  0  0  0  0  0  0
  -24.0262  -10.3399   21.2341 C   0  0  0  0  0  0  0  0  0  0  0  0
  -25.9750  -16.9153   18.6202 C   0  0  0  0  0  0  0  0  0  0  0  0
  -18.5116  -20.4373   22.3458 C   0  0  0  0  0  0  0  0  0  0  0  0
  -26.0582  -18.6967   17.3339 C   0  0  0  0  0  0  0  0  0  0  0  0
  -26.2434  -16.5361   16.0906 C   0  0  0  0  0  0  0  0  0  0  0  0
  -26.5616  -28.6850   21.3357 C   0  0  0  0  0  0  0  0  0  0  0  0
  -26.3261  -31.5767   22.7866 C   0  0  0  0  0  0  0  0  0  0  0  0
  -24.3293  -34.1379   23.8355 C   0  0  0  0  0  0  0  0  0  0  0  0
  -23.6954  -22.5495   21.2613 C   0  0  0  0  0  0  0  0  0  0  0  0
  -31.2700  -26.7638   20.8923 C   0  0  0  0  0  0  0  0  0  0  0  0
  -25.2248  -29.9902   19.6428 C   0  0  0  0  0  0  0  0  0  0  0  0
  -24.1658  -30.3379   22.3819 C   0  0  0  0  0  0  0  0  0  0  0  0
  -30.5379  -27.6355   21.9093 C   0  0  0  0  0  0  0  0  0  0  0  0
  -27.0972  -22.3630   20.2269 C   0  0  0  0  0  0  0  0  0  0  0  0
  -29.1920  -27.0162   22.2725 C   0  0  0  0  0  0  0  0  0  0  0  0
  -27.2067  -20.9826   19.5769 C   0  0  0  0  0  0  0  0  0  0  0  0
  -26.1584  -22.3467   21.4313 C   0  0  0  0  0  0  0  0  0  0  0  0
  -24.9239  -20.4222   20.5115 C   0  0  0  0  0  0  0  0  0  0  0  0
  -28.2826  -26.9122   21.0423 C   0  0  1  0  0  0  0  0  0  0  0  0
  -26.1449  -30.0475   20.8584 C   0  0  1  0  0  0  0  0  0  0  0  0
  -25.8162  -20.4008   19.2587 C   0  0  2  0  0  0  0  0  0  0  0  0
  -17.5035  -19.8963   23.2808 C   0  0  0  0  0  0  0  0  0  0  0  0
  -24.4193  -36.3463   25.0237 C   0  0  0  0  0  0  0  0  0  0  0  0
  -15.8785  -17.9282   19.4064 C   0  0  0  0  0  0  0  0  0  0  0  0
  -16.7140  -20.2408   18.9379 C   0  0  0  0  0  0  0  0  0  0  0  0
  -26.6571  -30.1269   25.4510 C   0  0  0  0  0  0  0  0  0  0  0  0
  -25.8019  -32.1825   26.5962 C   0  0  0  0  0  0  0  0  0  0  0  0
  -27.9140  -32.2817   25.2726 C   0  0  0  0  0  0  0  0  0  0  0  0
  -18.5147  -26.2388   23.5509 C   0  0  0  0  0  0  0  0  0  0  0  0
  -17.1384  -27.8435   22.2192 C   0  0  0  0  0  0  0  0  0  0  0  0
  -23.2652  -35.5798   21.4802 C   0  0  0  0  0  0  0  0  0  0  0  0
  -20.9444  -23.4770   19.7742 C   0  0  0  0  0  0  0  0  0  0  0  0
  -17.9960  -18.7849   20.5300 C   0  0  0  0  0  0  0  0  0  0  0  0
  -19.6385  -24.2667   19.8116 C   0  0  0  0  0  0  0  0  0  0  0  0
  -18.4333  -26.0952   21.0128 C   0  0  0  0  0  0  0  0  0  0  0  0
  -19.6481  -28.0206   22.2006 C   0  0  0  0  0  0  0  0  0  1  0  0
  -21.2265  -22.6077   21.0154 C   0  0  2  0  0  0  0  0  0  0  0  0
  -25.7020  -32.0842   24.0641 C   0  0  1  0  0  0  0  0  0  0  0  0
  -24.4538  -35.6424   23.6761 C   0  0  2  0  0  0  0  0  0  0  0  0
  -16.5973  -19.1431   19.9972 C   0  0  0  0  0  0  0  0  0  0  0  0
  -26.5032  -31.6559   25.3259 C   0  0  0  0  0  0  0  0  0  0  0  0
  -18.4556  -27.0391   22.2366 C   0  0  0  0  0  0  0  0  0  0  0  0
  -25.8612  -17.9436   19.4650 N   0  0  0  0  0  0  0  0  0  0  0  0
  -18.7109  -19.9067   21.0980 N   0  0  0  0  0  0  0  0  0  0  0  0
  -25.9154  -19.0130   18.6529 N   0  0  0  0  0  0  0  0  0  0  0  0
  -25.5321  -30.7307   21.9994 N   0  0  0  0  0  0  0  0  0  0  0  0
  -24.8569  -21.7851   21.0620 N   0  0  0  0  0  0  0  0  0  0  0  0
  -26.1294  -19.6511   16.3819 N   0  0  0  0  0  0  0  0  0  0  0  0
  -26.2683  -15.1402   16.2140 N   0  0  0  0  0  0  0  0  0  0  0  0
  -27.7057  -28.2022   20.7297 N   0  0  0  0  0  0  0  0  0  0  0  0
  -25.5639  -33.5278   23.9056 N   0  0  0  0  0  0  0  0  0  0  0  0
  -22.5043  -21.9449   20.8784 N   0  0  0  0  0  0  0  0  0  0  0  0
  -23.3367  -36.1691   22.8420 N   0  3  0  0  0  0  0  0  0  0  0  0
  -19.6426  -25.2395   20.9381 N   0  3  0  0  0  0  0  0  0  0  0  0
  -26.3620  -17.0541   14.9543 O   0  0  0  0  0  0  0  0  0  0  0  0
  -25.8952  -28.1148   22.1915 O   0  0  0  0  0  0  0  0  0  0  0  0
  -27.4731  -31.9240   22.4943 O   0  0  0  0  0  0  0  0  0  0  0  0
  -23.2453  -33.5618   23.8958 O   0  0  0  0  0  0  0  0  0  0  0  0
  -23.7187  -23.6886   21.7397 O   0  0  0  0  0  0  0  0  0  0  0  0
  -25.9161  -11.6705   20.5583 O   0  0  0  0  0  0  0  0  0  0  0  0
  -19.9106  -28.4568   20.8676 O   0  0  0  0  0  0  0  0  0  1  0  0
  -22.0996  -10.3715   24.3201 F   0  0  0  0  0  0  0  0  0  0  0  0
  -24.0557   -9.6861   20.0646 F   0  0  0  0  0  0  0  0  0  0  0  0
  1  2  1  0  0  0  0
  1  5  2  0  0  0  0
  2  6  2  0  0  0  0
  3  8  2  0  0  0  0
  3 17  1  0  0  0  0
  4  9  1  0  0  0  0
  4 17  2  0  0  0  0
  5 19  1  0  0  0  0
  6 21  1  0  0  0  0
  7 10  2  0  0  0  0
  7 20  1  0  0  0  0
  8 24  1  0  0  0  0
  9 24  2  0  0  0  0
 10 25  1  0  0  0  0
 11 12  2  0  0  0  0
 11 26  1  0  0  0  0
 12 27  1  0  0  0  0
 13 22  1  0  0  0  0
 13 25  2  0  0  0  0
 14 23  1  0  0  0  0
 14 30  2  0  0  0  0
 15 27  2  0  0  0  0
 15 28  1  0  0  0  0
 16 23  2  0  0  0  0
 16 71  1  0  0  0  0
 17 29  1  0  0  0  0
 18 29  1  0  0  0  0
 18 31  2  0  0  0  0
 18 32  1  0  0  0  0
 19 21  2  0  0  0  0
 19 37  1  0  0  0  0
 20 22  2  0  0  0  0
 20 38  1  0  0  0  0
 21 46  1  0  0  0  0
 22 39  1  0  0  0  0
 23 64  1  0  0  0  0
 24 87  1  0  0  0  0
 25 88  1  0  0  0  0
 26 28  2  0  0  0  0
 26 87  1  0  0  0  0
 27 89  1  0  0  0  0
 28 90  1  0  0  0  0
 29 70  2  0  0  0  0
 30 49  1  0  0  0  0
 30 71  1  0  0  0  0
 31 72  1  0  0  0  0
 31 75  1  0  0  0  0
 32 76  1  0  0  0  0
 32 82  2  0  0  0  0
 33 47  1  0  0  0  0
 33 77  1  0  0  0  0
 33 83  2  0  0  0  0
 34 65  1  0  0  0  0
 34 73  1  0  0  0  0
 34 84  2  0  0  0  0
 35 66  1  0  0  0  0
 35 78  1  0  0  0  0
 35 85  2  0  0  0  0
 36 74  1  0  0  0  0
 36 79  1  0  0  0  0
 36 86  2  0  0  0  0
 37 40  1  0  0  0  0
 38 47  1  0  0  0  0
 39 73  1  0  0  0  0
 40 42  1  0  0  0  0
 41 43  1  0  0  0  0
 41 44  1  0  0  0  0
 42 46  1  0  0  0  0
 43 48  1  0  0  0  0
 44 74  1  0  0  0  0
 45 48  1  0  0  0  0
 45 74  1  0  0  0  0
 46 77  1  0  0  0  0
 47 73  1  0  0  0  0
 48 72  1  0  0  0  0
 50 66  1  0  0  0  0
 51 67  1  0  0  0  0
 52 67  1  0  0  0  0
 53 68  1  0  0  0  0
 54 68  1  0  0  0  0
 55 68  1  0  0  0  0
 56 69  1  0  0  0  0
 57 69  1  0  0  0  0
 58 80  1  0  0  0  0
 59 61  1  0  0  0  0
 59 64  1  0  0  0  0
 60 67  1  0  0  0  0
 60 71  1  0  0  0  0
 61 81  1  0  0  0  0
 62 69  1  0  0  0  0
 62 81  1  0  0  0  0
 63 69  1  0  0  0  0
 63 88  1  0  0  0  0
 64 79  1  0  0  0  0
 65 68  1  0  0  0  0
 65 78  1  0  0  0  0
 66 80  1  0  0  0  0
 70 72  1  0  0  0  0
M  CHG  2  80   1  81   1
M  ISO  4  36 100  63 101  79 100  88 101
M  END
> <Batch ID>
0100

> <Smiles>
CNC(C)C(=O)NC(C(=O)N1Cc2cc([101O:1][101CH2:1]C(C)(C)CNCCC([100NH:0][100C:0](=O)N3CCCC(n4nc(-c5ccc(Oc6ccc(F)cc6F)cc5)c(C(N)=O)c4N)C3)c3cc(C)n(CC(C)C)c3)ccc2CC1C(=O)NC1CCCc2ccccc21)C(C)(C)C

> <Shape>
0.276

> <Color>
0.071

> <Negative vol penalty>
0.000

$$$$

  -OEChem-04052319333D

 76 83  0     1  0  0  0  0  0999 V2000
  -23.6992   -8.5157   21.8889 C   0  0  0  0  0  0  0  0  0  0  0  0
  -24.8792   -9.1930   21.5987 C   0  0  0  0  0  0  0  0  0  0  0  0
  -26.2545  -27.9989   21.3502 C   0  0  0  0  0  0  0  0  0  0  0  0
  -25.9997  -28.1355   18.9515 C   0  0  0  0  0  0  0  0  0  0  0  0
  -22.4695   -9.1374   21.6762 C   0  0  0  0  0  0  0  0  0  0  0  0
  -24.8301  -10.4921   21.0945 C   0  0  0  0  0  0  0  0  0  0  0  0
  -28.7890  -15.0282   22.2155 C   0  0  0  0  0  0  0  0  0  0  0  0
  -25.4349  -29.1174   21.5010 C   0  0  0  0  0  0  0  0  0  0  0  0
  -25.1800  -29.2540   19.1023 C   0  0  0  0  0  0  0  0  0  0  0  0
  -29.8731  -15.5267   21.4943 C   0  0  0  0  0  0  0  0  0  0  0  0
  -25.7223  -32.4727   21.2118 C   0  0  0  0  0  0  0  0  0  0  0  0
  -26.1354  -33.4625   22.1035 C   0  0  0  0  0  0  0  0  0  0  0  0
  -28.4555  -17.2397   20.5588 C   0  0  0  0  0  0  0  0  0  0  0  0
  -24.1159  -33.1453   23.3912 C   0  0  0  0  0  0  0  0  0  0  0  0
  -26.5370  -27.5080   20.0754 C   0  0  0  0  0  0  0  0  0  0  0  0
  -26.9840  -25.0037   19.8844 C   0  0  0  0  0  0  0  0  0  0  0  0
  -22.4056  -10.4483   21.1782 C   0  0  0  0  0  0  0  0  0  0  0  0
  -27.5254  -15.6261   22.1051 C   0  0  0  0  0  0  0  0  0  0  0  0
  -23.5984  -11.1315   20.8736 C   0  0  0  0  0  0  0  0  0  0  0  0
  -27.3576  -16.7485   21.2815 C   0  0  0  0  0  0  0  0  0  0  0  0
  -24.8976  -29.7449   20.3771 C   0  0  0  0  0  0  0  0  0  0  0  0
  -29.7058  -16.6308   20.6636 C   0  0  0  0  0  0  0  0  0  0  0  0
  -24.5059  -31.8192   21.4097 C   0  0  0  0  0  0  0  0  0  0  0  0
  -25.3323  -33.7988   23.1932 C   0  0  0  0  0  0  0  0  0  0  0  0
  -23.7028  -32.1555   22.4994 C   0  0  0  0  0  0  0  0  0  0  0  0
  -27.3841  -26.3530   19.9189 C   0  0  0  0  0  0  0  0  0  0  0  0
  -28.1536  -24.3029   19.7194 C   0  0  0  0  0  0  0  0  0  0  0  0
  -25.6723  -24.4348   19.9918 C   0  0  0  0  0  0  0  0  0  0  0  0
  -24.6670  -14.6611   21.1042 C   0  0  0  0  0  0  0  0  0  0  0  0
  -23.7352  -17.5715   22.1921 C   0  0  0  0  0  0  0  0  0  0  0  0
  -24.5873  -20.7845   22.9650 C   0  0  0  0  0  0  0  0  0  0  0  0
  -33.1018  -23.6086   17.2337 C   0  0  0  0  0  0  0  0  0  0  0  0
  -21.0521  -11.0616   20.9201 C   0  0  0  0  0  0  0  0  0  0  0  0
  -26.3722  -15.0928   22.9102 C   0  0  0  0  0  0  0  0  0  0  0  0
  -26.0262  -17.4391   21.1438 C   0  0  0  0  0  0  0  0  0  0  0  0
  -21.0948  -12.5764   20.7362 C   0  0  0  0  0  0  0  0  0  0  0  0
  -32.9702  -25.8176   20.0229 C   0  0  0  0  0  0  0  0  0  0  0  0
  -22.2224  -12.9672   19.7862 C   0  0  0  0  0  0  0  0  0  0  0  0
  -31.4731  -26.0472   20.2374 C   0  0  0  0  0  0  0  0  0  0  0  0
  -33.3168  -25.7023   18.5401 C   0  0  0  0  0  0  0  0  0  0  0  0
  -31.0384  -24.9247   18.0125 C   0  0  0  0  0  0  0  0  0  0  0  0
  -23.5869  -12.5508   20.3486 C   0  0  1  0  0  0  0  0  0  0  0  0
  -25.0129  -15.4646   22.3258 C   0  0  1  0  0  0  0  0  0  0  0  0
  -30.6319  -24.9917   19.4946 C   0  0  2  0  0  0  0  0  0  0  0  0
  -23.6027  -22.9382   23.7953 C   0  0  0  0  0  0  0  0  0  0  0  0
  -22.5070  -18.0669   19.4432 C   0  0  0  0  0  0  0  0  0  0  0  0
  -22.3988  -20.5036   20.0078 C   0  0  0  0  0  0  0  0  0  0  0  0
  -21.1133  -18.8523   21.3654 C   0  0  0  0  0  0  0  0  0  0  0  0
  -26.3240  -20.7893   25.3615 C   0  0  0  0  0  0  0  0  0  0  0  0
  -31.5932  -19.8735   17.5173 C   0  0  0  0  0  0  0  0  0  0  0  0
  -32.9044  -20.3146   16.8603 C   0  0  0  0  0  0  0  0  0  0  0  0
  -31.8105  -18.6727   18.4361 C   0  0  0  0  0  0  0  0  0  0  0  0
  -32.7247  -21.5213   15.9452 C   0  0  0  0  0  0  0  0  0  0  0  0
  -30.5194  -18.2527   19.1263 C   0  0  0  0  0  0  0  0  0  1  0  0
  -23.6292  -18.9531   21.5930 C   0  0  1  0  0  0  0  0  0  0  0  0
  -24.2918  -21.6395   24.1841 C   0  0  2  0  0  0  0  0  0  0  0  0
  -22.4369  -19.0800   20.6032 C   0  0  0  0  0  0  0  0  0  0  0  0
  -28.7047  -26.5027   19.7867 N   0  0  0  0  0  0  0  0  0  0  0  0
  -29.1446  -25.2385   19.6675 N   0  0  0  0  0  0  0  0  0  0  0  0
  -24.9278  -16.8764   21.9465 N   0  0  0  0  0  0  0  0  0  0  0  0
  -32.4851  -24.6836   17.8948 N   0  0  0  0  0  0  0  0  0  0  0  0
  -28.4207  -22.9837   19.6151 N   0  0  0  0  0  0  0  0  0  0  0  0
  -24.5810  -25.2984   20.1577 N   0  0  0  0  0  0  0  0  0  0  0  0
  -24.0128  -13.4750   21.3776 N   0  0  0  0  0  0  0  0  0  0  0  0
  -23.5747  -19.8821   22.7165 N   0  0  0  0  0  0  0  0  0  0  0  0
  -32.2406  -22.6846   16.6546 N   0  0  0  0  0  0  0  0  0  0  0  0
  -25.5549  -21.9739   24.9007 N   0  3  0  0  0  0  0  0  0  0  0  0
  -25.4757  -23.1963   19.9587 O   0  0  0  0  0  0  0  0  0  0  0  0
  -24.9697  -15.0864   19.9955 O   0  0  0  0  0  0  0  0  0  0  0  0
  -22.7973  -17.1283   22.8596 O   0  0  0  0  0  0  0  0  0  0  0  0
  -25.6120  -20.9075   22.2977 O   0  0  0  0  0  0  0  0  0  0  0  0
  -34.3290  -23.4788   17.1693 O   0  0  0  0  0  0  0  0  0  0  0  0
  -24.0975  -30.8362   20.5239 O   0  0  0  0  0  0  0  0  0  0  0  0
  -30.7622  -17.1189   19.9581 O   0  0  0  0  0  0  0  0  0  1  0  0
  -25.7299  -34.7482   24.0503 F   0  0  0  0  0  0  0  0  0  0  0  0
  -22.5338  -31.5303   22.6954 F   0  0  0  0  0  0  0  0  0  0  0  0
  1  2  1  0  0  0  0
  1  5  2  0  0  0  0
  2  6  2  0  0  0  0
  3  8  2  0  0  0  0
  3 15  1  0  0  0  0
  4  9  1  0  0  0  0
  4 15  2  0  0  0  0
  5 17  1  0  0  0  0
  6 19  1  0  0  0  0
  7 10  2  0  0  0  0
  7 18  1  0  0  0  0
  8 21  1  0  0  0  0
  9 21  2  0  0  0  0
 10 22  1  0  0  0  0
 11 12  2  0  0  0  0
 11 23  1  0  0  0  0
 12 24  1  0  0  0  0
 13 20  1  0  0  0  0
 13 22  2  0  0  0  0
 14 24  2  0  0  0  0
 14 25  1  0  0  0  0
 15 26  1  0  0  0  0
 16 26  1  0  0  0  0
 16 27  2  0  0  0  0
 16 28  1  0  0  0  0
 17 19  2  0  0  0  0
 17 33  1  0  0  0  0
 18 20  2  0  0  0  0
 18 34  1  0  0  0  0
 19 42  1  0  0  0  0
 20 35  1  0  0  0  0
 21 73  1  0  0  0  0
 22 74  1  0  0  0  0
 23 25  2  0  0  0  0
 23 73  1  0  0  0  0
 24 75  1  0  0  0  0
 25 76  1  0  0  0  0
 26 58  2  0  0  0  0
 27 59  1  0  0  0  0
 27 62  1  0  0  0  0
 28 63  1  0  0  0  0
 28 68  2  0  0  0  0
 29 43  1  0  0  0  0
 29 64  1  0  0  0  0
 29 69  2  0  0  0  0
 30 55  1  0  0  0  0
 30 60  1  0  0  0  0
 30 70  2  0  0  0  0
 31 56  1  0  0  0  0
 31 65  1  0  0  0  0
 31 71  2  0  0  0  0
 32 61  1  0  0  0  0
 32 66  1  0  0  0  0
 32 72  2  0  0  0  0
 33 36  1  0  0  0  0
 34 43  1  0  0  0  0
 35 60  1  0  0  0  0
 36 38  1  0  0  0  0
 37 39  1  0  0  0  0
 37 40  1  0  0  0  0
 38 42  1  0  0  0  0
 39 44  1  0  0  0  0
 40 61  1  0  0  0  0
 41 44  1  0  0  0  0
 41 61  1  0  0  0  0
 42 64  1  0  0  0  0
 43 60  1  0  0  0  0
 44 59  1  0  0  0  0
 45 56  1  0  0  0  0
 46 57  1  0  0  0  0
 47 57  1  0  0  0  0
 48 57  1  0  0  0  0
 49 67  1  0  0  0  0
 50 51  1  0  0  0  0
 50 52  1  0  0  0  0
 51 53  1  0  0  0  0
 52 54  1  0  0  0  0
 53 66  1  0  0  0  0
 54 74  1  0  0  0  0
 55 57  1  0  0  0  0
 55 65  1  0  0  0  0
 56 67  1  0  0  0  0
 58 59  1  0  0  0  0
M  CHG  1  67   1
M  ISO  4  32 100  54 101  66 100  74 101
M  END
> <Batch ID>
0100

> <Smiles>
CNC(C)C(=O)NC(C(=O)N1Cc2cc([101O:1][101CH2:1]CCCC[100NH:0][100C:0](=O)N3CCCC(n4nc(-c5ccc(Oc6ccc(F)cc6F)cc5)c(C(N)=O)c4N)C3)ccc2CC1C(=O)NC1CCCc2ccccc21)C(C)(C)C

> <Shape>
0.204

> <Color>
0.079

> <Negative vol penalty>
0.000

$$$$

  -OEChem-04052319333D

 80 88  0     1  0  0  0  0  0999 V2000
  -26.0437  -33.0977   18.5280 C   0  0  0  0  0  0  0  0  0  0  0  0
  -26.6675  -31.9524   19.0123 C   0  0  0  0  0  0  0  0  0  0  0  0
  -23.1043   -9.8331   19.9343 C   0  0  0  0  0  0  0  0  0  0  0  0
  -23.8737   -9.8436   22.2245 C   0  0  0  0  0  0  0  0  0  0  0  0
  -25.1507  -33.0057   17.4613 C   0  0  0  0  0  0  0  0  0  0  0  0
  -26.3977  -30.7141   18.4307 C   0  0  0  0  0  0  0  0  0  0  0  0
  -30.3095  -26.0589   17.7010 C   0  0  0  0  0  0  0  0  0  0  0  0
  -29.1217  -18.7675   21.0195 C   0  0  0  0  0  0  0  0  0  0  0  0
  -28.8345  -19.8185   20.1486 C   0  0  0  0  0  0  0  0  0  0  0  0
  -22.3891   -8.6610   20.1799 C   0  0  0  0  0  0  0  0  0  0  0  0
  -23.1585   -8.6715   22.4701 C   0  0  0  0  0  0  0  0  0  0  0  0
  -30.5278  -24.8934   18.4343 C   0  0  0  0  0  0  0  0  0  0  0  0
  -19.9529   -7.7932   23.0809 C   0  0  0  0  0  0  0  0  0  0  0  0
  -19.2022   -7.7279   24.2547 C   0  0  0  0  0  0  0  0  0  0  0  0
  -29.0878  -23.6815   16.9253 C   0  0  0  0  0  0  0  0  0  0  0  0
  -31.3357  -18.5853   20.0696 C   0  0  0  0  0  0  0  0  0  0  0  0
  -20.4925   -5.8159   24.9734 C   0  0  0  0  0  0  0  0  0  0  0  0
  -23.8466  -10.4244   20.9566 C   0  0  0  0  0  0  0  0  0  0  0  0
  -24.1278  -12.9577   20.8514 C   0  0  0  0  0  0  0  0  0  0  0  0
  -24.8772  -31.7670   16.8601 C   0  0  0  0  0  0  0  0  0  0  0  0
  -29.4687  -26.0468   16.5789 C   0  0  0  0  0  0  0  0  0  0  0  0
  -25.4991  -30.6052   17.3558 C   0  0  0  0  0  0  0  0  0  0  0  0
  -28.8625  -24.8477   16.1780 C   0  0  0  0  0  0  0  0  0  0  0  0
  -30.3723  -18.1509   20.9800 C   0  0  0  0  0  0  0  0  0  0  0  0
  -29.7978  -20.2529   19.2381 C   0  0  0  0  0  0  0  0  0  0  0  0
  -31.0485  -19.6363   19.1986 C   0  0  0  0  0  0  0  0  0  0  0  0
  -22.4162   -8.0802   21.4478 C   0  0  0  0  0  0  0  0  0  0  0  0
  -29.9146  -23.7051   18.0482 C   0  0  0  0  0  0  0  0  0  0  0  0
  -20.9734   -6.8699   22.8533 C   0  0  0  0  0  0  0  0  0  0  0  0
  -19.4720   -6.7392   25.2009 C   0  0  0  0  0  0  0  0  0  0  0  0
  -21.2432   -5.8813   23.7996 C   0  0  0  0  0  0  0  0  0  0  0  0
  -24.5860  -11.6349   20.7033 C   0  0  0  0  0  0  0  0  0  0  0  0
  -25.2002  -13.7352   20.4884 C   0  0  0  0  0  0  0  0  0  0  0  0
  -22.8472  -13.4404   21.2789 C   0  0  0  0  0  0  0  0  0  0  0  0
  -26.7510  -27.4980   15.7966 C   0  0  0  0  0  0  0  0  0  0  0  0
  -27.2772  -26.0848   12.9246 C   0  0  0  0  0  0  0  0  0  0  0  0
  -28.7612  -23.5663   11.1635 C   0  0  0  0  0  0  0  0  0  0  0  0
  -30.6589  -14.8833   20.6605 C   0  0  0  0  0  0  0  0  0  0  0  0
  -23.8685  -31.7106   15.7402 C   0  0  0  0  0  0  0  0  0  0  0  0
  -29.2648  -27.3067   15.7829 C   0  0  0  0  0  0  0  0  0  0  0  0
  -27.9671  -24.7772   14.9690 C   0  0  0  0  0  0  0  0  0  0  0  0
  -23.9225  -30.4138   14.9366 C   0  0  0  0  0  0  0  0  0  0  0  0
  -29.5681  -12.4876   18.2632 C   0  0  0  0  0  0  0  0  0  0  0  0
  -23.9855  -29.2093   15.8705 C   0  0  0  0  0  0  0  0  0  0  0  0
  -28.1399  -12.1570   18.7002 C   0  0  0  0  0  0  0  0  0  0  0  0
  -30.4849  -12.7226   19.4616 C   0  0  0  0  0  0  0  0  0  0  0  0
  -28.5723  -13.3994   20.8608 C   0  0  0  0  0  0  0  0  0  0  0  0
  -25.2512  -29.2474   16.7353 C   0  0  1  0  0  0  0  0  0  0  0  0
  -27.9811  -27.2916   14.9588 C   0  0  1  0  0  0  0  0  0  0  0  0
  -27.5975  -13.2091   19.6861 C   0  0  2  0  0  0  0  0  0  0  0  0
  -32.0954  -20.0841   18.2321 C   0  0  0  0  0  0  0  0  0  0  0  0
  -28.9774  -22.6514    8.8368 C   0  0  0  0  0  0  0  0  0  0  0  0
  -24.4664  -24.9149   13.1260 C   0  0  0  0  0  0  0  0  0  0  0  0
  -25.0843  -23.2996   11.3158 C   0  0  0  0  0  0  0  0  0  0  0  0
  -25.0880  -25.7507   10.8524 C   0  0  0  0  0  0  0  0  0  0  0  0
  -31.6926  -23.9728   11.1513 C   0  0  0  0  0  0  0  0  0  0  0  0
  -30.6790  -17.0270   21.9110 C   0  0  0  0  0  0  0  0  0  0  0  0
  -29.4654  -21.3844   18.3105 C   0  0  0  0  0  0  0  0  0  1  0  0
  -26.9080  -24.7604   12.3011 C   0  0  1  0  0  0  0  0  0  0  0  0
  -29.5772  -23.5773    9.8835 C   0  0  2  0  0  0  0  0  0  0  0  0
  -25.4019  -24.6828   11.9228 C   0  0  0  0  0  0  0  0  0  0  0  0
  -25.8510  -11.5718   20.2791 N   0  0  0  0  0  0  0  0  0  0  0  0
  -26.1967  -12.8648   20.1575 N   0  0  0  0  0  0  0  0  0  0  0  0
  -27.7938  -26.0370   14.2272 N   0  0  0  0  0  0  0  0  0  0  0  0
  -29.9138  -13.7321   20.3565 N   0  0  0  0  0  0  0  0  0  0  0  0
  -25.3786  -15.0718   20.4231 N   0  0  0  0  0  0  0  0  0  0  0  0
  -21.8587  -12.5053   21.6146 N   0  0  0  0  0  0  0  0  0  0  0  0
  -26.4018  -28.8242   15.9662 N   0  0  0  0  0  0  0  0  0  0  0  0
  -27.8173  -24.5714   11.1760 N   0  0  0  0  0  0  0  0  0  0  0  0
  -30.0415  -15.7923   21.5110 N   0  0  0  0  0  0  0  0  0  0  0  0
  -30.9743  -23.1359   10.1561 N   0  3  0  0  0  0  0  0  0  0  0  0
  -22.5820  -14.6647   21.3452 O   0  0  0  0  0  0  0  0  0  0  0  0
  -26.1614  -26.5259   16.2541 O   0  0  0  0  0  0  0  0  0  0  0  0
  -27.1199  -27.1228   12.2770 O   0  0  0  0  0  0  0  0  0  0  0  0
  -28.9404  -22.7457   12.0607 O   0  0  0  0  0  0  0  0  0  0  0  0
  -31.7884  -15.0887   20.2033 O   0  0  0  0  0  0  0  0  0  0  0  0
  -21.7183   -6.9366   21.6879 O   0  0  0  0  0  0  0  0  0  0  0  0
  -30.1254  -22.5662   18.7626 O   0  0  0  0  0  0  0  0  0  1  0  0
  -18.7520   -6.6775   26.3288 F   0  0  0  0  0  0  0  0  0  0  0  0
  -22.2231   -4.9922   23.5871 F   0  0  0  0  0  0  0  0  0  0  0  0
  1  2  1  0  0  0  0
  1  5  2  0  0  0  0
  2  6  2  0  0  0  0
  3 10  2  0  0  0  0
  3 18  1  0  0  0  0
  4 11  1  0  0  0  0
  4 18  2  0  0  0  0
  5 20  1  0  0  0  0
  6 22  1  0  0  0  0
  7 12  2  0  0  0  0
  7 21  1  0  0  0  0
  8  9  2  0  0  0  0
  8 24  1  0  0  0  0
  9 25  1  0  0  0  0
 10 27  1  0  0  0  0
 11 27  2  0  0  0  0
 12 28  1  0  0  0  0
 13 14  2  0  0  0  0
 13 29  1  0  0  0  0
 14 30  1  0  0  0  0
 15 23  1  0  0  0  0
 15 28  2  0  0  0  0
 16 24  2  0  0  0  0
 16 26  1  0  0  0  0
 17 30  2  0  0  0  0
 17 31  1  0  0  0  0
 18 32  1  0  0  0  0
 19 32  1  0  0  0  0
 19 33  2  0  0  0  0
 19 34  1  0  0  0  0
 20 22  2  0  0  0  0
 20 39  1  0  0  0  0
 21 23  2  0  0  0  0
 21 40  1  0  0  0  0
 22 48  1  0  0  0  0
 23 41  1  0  0  0  0
 24 57  1  0  0  0  0
 25 26  2  0  0  0  0
 25 58  1  0  0  0  0
 26 51  1  0  0  0  0
 27 77  1  0  0  0  0
 28 78  1  0  0  0  0
 29 31  2  0  0  0  0
 29 77  1  0  0  0  0
 30 79  1  0  0  0  0
 31 80  1  0  0  0  0
 32 62  2  0  0  0  0
 33 63  1  0  0  0  0
 33 66  1  0  0  0  0
 34 67  1  0  0  0  0
 34 72  2  0  0  0  0
 35 49  1  0  0  0  0
 35 68  1  0  0  0  0
 35 73  2  0  0  0  0
 36 59  1  0  0  0  0
 36 64  1  0  0  0  0
 36 74  2  0  0  0  0
 37 60  1  0  0  0  0
 37 69  1  0  0  0  0
 37 75  2  0  0  0  0
 38 65  1  0  0  0  0
 38 70  1  0  0  0  0
 38 76  2  0  0  0  0
 39 42  1  0  0  0  0
 40 49  1  0  0  0  0
 41 64  1  0  0  0  0
 42 44  1  0  0  0  0
 43 45  1  0  0  0  0
 43 46  1  0  0  0  0
 44 48  1  0  0  0  0
 45 50  1  0  0  0  0
 46 65  1  0  0  0  0
 47 50  1  0  0  0  0
 47 65  1  0  0  0  0
 48 68  1  0  0  0  0
 49 64  1  0  0  0  0
 50 63  1  0  0  0  0
 52 60  1  0  0  0  0
 53 61  1  0  0  0  0
 54 61  1  0  0  0  0
 55 61  1  0  0  0  0
 56 71  1  0  0  0  0
 57 70  1  0  0  0  0
 58 78  1  0  0  0  0
 59 61  1  0  0  0  0
 59 69  1  0  0  0  0
 60 71  1  0  0  0  0
 62 63  1  0  0  0  0
M  CHG  1  71   1
M  ISO  4  38 100  58 101  70 100  78 101
M  END
> <Batch ID>
0100

> <Smiles>
CNC(C)C(=O)NC(C(=O)N1Cc2cc([101O:1][101CH2:1]c3ccc(C[100NH:0][100C:0](=O)N4CCCC(n5nc(-c6ccc(Oc7ccc(F)cc7F)cc6)c(C(N)=O)c5N)C4)cc3C)ccc2CC1C(=O)NC1CCCc2ccccc21)C(C)(C)C

> <Shape>
0.232

> <Color>
0.204

> <Negative vol penalty>
0.000

$$$$

  -OEChem-04052319333D

 89 97  0     1  0  0  0  0  0999 V2000
  -20.0554   -9.3905   23.2771 C   0  0  0  0  0  0  0  0  0  0  0  0
  -20.7932  -10.5310   23.5775 C   0  0  0  0  0  0  0  0  0  0  0  0
  -26.1253  -28.0385   18.9253 C   0  0  0  0  0  0  0  0  0  0  0  0
  -26.5664  -28.1532   21.2980 C   0  0  0  0  0  0  0  0  0  0  0  0
  -20.5648   -8.4468   22.3861 C   0  0  0  0  0  0  0  0  0  0  0  0
  -22.0415  -10.7279   22.9880 C   0  0  0  0  0  0  0  0  0  0  0  0
  -22.6688  -15.4618   21.3023 C   0  0  0  0  0  0  0  0  0  0  0  0
  -25.1219  -28.9972   19.0655 C   0  0  0  0  0  0  0  0  0  0  0  0
  -25.5630  -29.1119   21.4382 C   0  0  0  0  0  0  0  0  0  0  0  0
  -22.9696  -16.4402   22.2489 C   0  0  0  0  0  0  0  0  0  0  0  0
  -22.1869  -29.1782   21.6073 C   0  0  0  0  0  0  0  0  0  0  0  0
  -21.2938  -29.0311   22.6685 C   0  0  0  0  0  0  0  0  0  0  0  0
  -25.2992  -16.3076   21.6368 C   0  0  0  0  0  0  0  0  0  0  0  0
  -25.6638  -22.9585   26.4319 C   0  0  0  0  0  0  0  0  0  0  0  0
  -21.9788  -31.1767   23.5425 C   0  0  0  0  0  0  0  0  0  0  0  0
  -26.8476  -27.6165   20.0416 C   0  0  0  0  0  0  0  0  0  0  0  0
  -29.2476  -26.8544   19.6331 C   0  0  0  0  0  0  0  0  0  0  0  0
  -21.8157   -8.6369   21.7780 C   0  0  0  0  0  0  0  0  0  0  0  0
  -23.6842  -14.8903   20.5221 C   0  0  0  0  0  0  0  0  0  0  0  0
  -22.5687   -9.7852   22.0891 C   0  0  0  0  0  0  0  0  0  0  0  0
  -25.0083  -15.3241   20.6792 C   0  0  0  0  0  0  0  0  0  0  0  0
  -26.4435  -21.7839   26.2924 C   0  0  0  0  0  0  0  0  0  0  0  0
  -24.8407  -29.5339   20.3219 C   0  0  0  0  0  0  0  0  0  0  0  0
  -24.2853  -16.8612   22.4183 C   0  0  0  0  0  0  0  0  0  0  0  0
  -22.9761  -30.3246   21.5137 C   0  0  0  0  0  0  0  0  0  0  0  0
  -21.1897  -30.0303   23.6361 C   0  0  0  0  0  0  0  0  0  0  0  0
  -22.8720  -31.3238   22.4813 C   0  0  0  0  0  0  0  0  0  0  0  0
  -27.8839  -26.6258   19.8975 C   0  0  0  0  0  0  0  0  0  0  0  0
  -26.4761  -24.0296   26.1314 C   0  0  0  0  0  0  0  0  0  0  0  0
  -27.7087  -22.1730   25.9112 C   0  0  0  0  0  0  0  0  0  0  0  0
  -29.8043  -25.5995   19.5912 C   0  0  0  0  0  0  0  0  0  0  0  0
  -29.9485  -28.0906   19.4426 C   0  0  0  0  0  0  0  0  0  0  0  0
  -24.8546  -11.9569   20.1626 C   0  0  0  0  0  0  0  0  0  0  0  0
  -26.5843  -13.3570   17.8025 C   0  0  0  0  0  0  0  0  0  0  0  0
  -27.9391  -16.2077   16.5046 C   0  0  0  0  0  0  0  0  0  0  0  0
  -28.2314  -20.3580   22.0209 C   0  0  0  0  0  0  0  0  0  0  0  0
  -22.3457   -7.5660   20.8577 C   0  0  0  0  0  0  0  0  0  0  0  0
  -23.3395  -13.8552   19.4866 C   0  0  0  0  0  0  0  0  0  0  0  0
  -26.1321  -14.7566   19.8524 C   0  0  0  0  0  0  0  0  0  0  0  0
  -23.5108   -8.0319   19.9883 C   0  0  0  0  0  0  0  0  0  0  0  0
  -28.7193  -21.0544   18.5635 C   0  0  0  0  0  0  0  0  0  0  0  0
  -24.5344   -8.7889   20.8285 C   0  0  0  0  0  0  0  0  0  0  0  0
  -28.6835  -22.5819   18.4895 C   0  0  0  0  0  0  0  0  0  0  0  0
  -27.7345  -20.5164   19.5993 C   0  0  0  0  0  0  0  0  0  0  0  0
  -27.8410  -22.6227   20.8743 C   0  0  0  0  0  0  0  0  0  0  0  0
  -23.9157  -10.0464   21.4509 C   0  0  1  0  0  0  0  0  0  0  0  0
  -24.5245  -12.9730   19.1061 C   0  0  1  0  0  0  0  0  0  0  0  0
  -28.8574  -23.2150   19.8831 C   0  0  2  0  0  0  0  0  0  0  0  0
  -29.3996  -20.5793   26.8729 C   0  0  0  0  0  0  0  0  0  0  0  0
  -29.3312  -17.0307   14.5857 C   0  0  0  0  0  0  0  0  0  0  0  0
  -23.2494  -25.4665   25.2340 C   0  0  0  0  0  0  0  0  0  0  0  0
  -23.9678  -25.7198   22.8507 C   0  0  0  0  0  0  0  0  0  0  0  0
  -29.0844  -12.2199   19.1317 C   0  0  0  0  0  0  0  0  0  0  0  0
  -30.4495  -13.8199   17.7734 C   0  0  0  0  0  0  0  0  0  0  0  0
  -29.0740  -12.0779   16.6348 C   0  0  0  0  0  0  0  0  0  0  0  0
  -28.8607  -24.3449   25.4418 C   0  0  0  0  0  0  0  0  0  0  0  0
  -25.7694  -17.9723   15.5362 C   0  0  0  0  0  0  0  0  0  0  0  0
  -25.9679  -20.3712   26.5206 C   0  0  0  0  0  0  0  0  0  0  0  0
  -26.1705  -25.4749   26.1187 C   0  0  0  0  0  0  0  0  0  0  0  0
  -25.1038  -19.8174   25.3823 C   0  0  0  0  0  0  0  0  0  0  0  0
  -25.6634  -25.9600   24.7418 C   0  0  0  0  0  0  0  0  0  0  0  0
  -24.5678  -18.4135   25.6662 C   0  0  0  0  0  0  0  0  0  0  0  0
  -28.7333  -20.3625   24.4514 C   0  0  0  0  0  0  0  0  0  0  0  0
  -23.7482  -17.8813   24.4985 C   0  0  0  0  0  0  0  0  0  1  0  0
  -28.9108  -21.3598   25.6289 C   0  0  1  0  0  0  0  0  0  0  0  0
  -27.9243  -14.0480   17.7251 C   0  0  1  0  0  0  0  0  0  0  0  0
  -27.9216  -16.7822   15.0996 C   0  0  2  0  0  0  0  0  0  0  0  0
  -24.3937  -25.2466   24.2413 C   0  0  0  0  0  0  0  0  0  0  0  0
  -29.1124  -13.0509   17.8333 C   0  0  0  0  0  0  0  0  0  0  0  0
  -27.5920  -25.3278   20.0150 N   0  0  0  0  0  0  0  0  0  0  0  0
  -27.7169  -23.5401   25.8167 N   0  0  0  0  0  0  0  0  0  0  0  0
  -28.7800  -24.7294   19.8236 N   0  0  0  0  0  0  0  0  0  0  0  0
  -25.7453  -13.7426   18.8576 N   0  0  0  0  0  0  0  0  0  0  0  0
  -27.9536  -21.1559   20.8988 N   0  0  0  0  0  0  0  0  0  0  0  0
  -31.0650  -25.1664   19.3785 N   0  0  0  0  0  0  0  0  0  0  0  0
  -29.2241  -29.2880   19.5187 N   0  0  0  0  0  0  0  0  0  0  0  0
  -23.8131  -11.1004   20.4644 N   0  0  0  0  0  0  0  0  0  0  0  0
  -27.9102  -14.8292   16.4931 N   0  0  0  0  0  0  0  0  0  0  0  0
  -28.4323  -21.0443   23.2123 N   0  0  0  0  0  0  0  0  0  0  0  0
  -27.1787  -18.0740   15.0774 N   0  3  0  0  0  0  0  0  0  0  0  0
  -31.1777  -28.1313   19.1955 O   0  0  0  0  0  0  0  0  0  0  0  0
  -25.9720  -11.9495   20.6657 O   0  0  0  0  0  0  0  0  0  0  0  0
  -26.2900  -12.5116   16.9539 O   0  0  0  0  0  0  0  0  0  0  0  0
  -27.9786  -16.9114   17.5115 O   0  0  0  0  0  0  0  0  0  0  0  0
  -28.3008  -19.1255   21.9641 O   0  0  0  0  0  0  0  0  0  0  0  0
  -23.8618  -30.4695   20.4590 O   0  0  0  0  0  0  0  0  0  0  0  0
  -24.5818  -17.8155   23.3421 O   0  0  0  0  0  0  0  0  0  1  0  0
  -20.3309  -29.8896   24.6543 F   0  0  0  0  0  0  0  0  0  0  0  0
  -23.6267  -32.4279   22.3960 F   0  0  0  0  0  0  0  0  0  0  0  0
  1  2  1  0  0  0  0
  1  5  2  0  0  0  0
  2  6  2  0  0  0  0
  3  8  2  0  0  0  0
  3 16  1  0  0  0  0
  4  9  1  0  0  0  0
  4 16  2  0  0  0  0
  5 18  1  0  0  0  0
  6 20  1  0  0  0  0
  7 10  2  0  0  0  0
  7 19  1  0  0  0  0
  8 23  1  0  0  0  0
  9 23  2  0  0  0  0
 10 24  1  0  0  0  0
 11 12  2  0  0  0  0
 11 25  1  0  0  0  0
 12 26  1  0  0  0  0
 13 21  1  0  0  0  0
 13 24  2  0  0  0  0
 14 22  1  0  0  0  0
 14 29  2  0  0  0  0
 15 26  2  0  0  0  0
 15 27  1  0  0  0  0
 16 28  1  0  0  0  0
 17 28  1  0  0  0  0
 17 31  2  0  0  0  0
 17 32  1  0  0  0  0
 18 20  2  0  0  0  0
 18 37  1  0  0  0  0
 19 21  2  0  0  0  0
 19 38  1  0  0  0  0
 20 46  1  0  0  0  0
 21 39  1  0  0  0  0
 22 30  2  0  0  0  0
 22 58  1  0  0  0  0
 23 86  1  0  0  0  0
 24 87  1  0  0  0  0
 25 27  2  0  0  0  0
 25 86  1  0  0  0  0
 26 88  1  0  0  0  0
 27 89  1  0  0  0  0
 28 70  2  0  0  0  0
 29 59  1  0  0  0  0
 29 71  1  0  0  0  0
 30 65  1  0  0  0  0
 30 71  1  0  0  0  0
 31 72  1  0  0  0  0
 31 75  1  0  0  0  0
 32 76  1  0  0  0  0
 32 81  2  0  0  0  0
 33 47  1  0  0  0  0
 33 77  1  0  0  0  0
 33 82  2  0  0  0  0
 34 66  1  0  0  0  0
 34 73  1  0  0  0  0
 34 83  2  0  0  0  0
 35 67  1  0  0  0  0
 35 78  1  0  0  0  0
 35 84  2  0  0  0  0
 36 74  1  0  0  0  0
 36 79  1  0  0  0  0
 36 85  2  0  0  0  0
 37 40  1  0  0  0  0
 38 47  1  0  0  0  0
 39 73  1  0  0  0  0
 40 42  1  0  0  0  0
 41 43  1  0  0  0  0
 41 44  1  0  0  0  0
 42 46  1  0  0  0  0
 43 48  1  0  0  0  0
 44 74  1  0  0  0  0
 45 48  1  0  0  0  0
 45 74  1  0  0  0  0
 46 77  1  0  0  0  0
 47 73  1  0  0  0  0
 48 72  1  0  0  0  0
 49 65  1  0  0  0  0
 50 67  1  0  0  0  0
 51 68  1  0  0  0  0
 52 68  1  0  0  0  0
 53 69  1  0  0  0  0
 54 69  1  0  0  0  0
 55 69  1  0  0  0  0
 56 71  1  0  0  0  0
 57 80  1  0  0  0  0
 58 60  1  0  0  0  0
 59 61  1  0  0  0  0
 60 62  1  0  0  0  0
 61 68  1  0  0  0  0
 62 64  1  0  0  0  0
 63 65  1  0  0  0  0
 63 79  1  0  0  0  0
 64 87  1  0  0  0  0
 66 69  1  0  0  0  0
 66 78  1  0  0  0  0
 67 80  1  0  0  0  0
 70 72  1  0  0  0  0
M  CHG  1  80   1
M  ISO  4  36 100  64 101  79 100  87 101
M  END
> <Batch ID>
0100

> <Smiles>
CNC(C)C(=O)NC(C(=O)N1Cc2cc([101O:1][101CH2:1]CCCc3cc(CCC(C)C)n(C)c3C(C)C[100NH:0][100C:0](=O)N3CCCC(n4nc(-c5ccc(Oc6ccc(F)cc6F)cc5)c(C(N)=O)c4N)C3)ccc2CC1C(=O)NC1CCCc2ccccc21)C(C)(C)C

> <Shape>
0.234

> <Color>
0.069

> <Negative vol penalty>
0.000

$$$$

  -OEChem-04052319333D

 81 88  0     1  0  0  0  0  0999 V2000
  -17.8913  -27.8196   19.1611 C   0  0  0  0  0  0  0  0  0  0  0  0
  -19.2215  -28.0587   18.8310 C   0  0  0  0  0  0  0  0  0  0  0  0
  -27.2875  -17.1630   19.3878 C   0  0  0  0  0  0  0  0  0  0  0  0
  -28.2376  -17.7179   21.5387 C   0  0  0  0  0  0  0  0  0  0  0  0
  -17.5186  -27.6901   20.4984 C   0  0  0  0  0  0  0  0  0  0  0  0
  -20.1795  -28.1696   19.8382 C   0  0  0  0  0  0  0  0  0  0  0  0
  -24.4091  -25.5900   18.7884 C   0  0  0  0  0  0  0  0  0  0  0  0
  -27.2681  -15.8146   19.7442 C   0  0  0  0  0  0  0  0  0  0  0  0
  -28.2182  -16.3695   21.8951 C   0  0  0  0  0  0  0  0  0  0  0  0
  -25.3007  -26.1690   17.8864 C   0  0  0  0  0  0  0  0  0  0  0  0
  -25.3484  -13.7625   21.6248 C   0  0  0  0  0  0  0  0  0  0  0  0
  -24.1923  -13.0344   21.3440 C   0  0  0  0  0  0  0  0  0  0  0  0
  -26.6616  -26.9277   19.7281 C   0  0  0  0  0  0  0  0  0  0  0  0
  -25.4741  -11.5385   19.9453 C   0  0  0  0  0  0  0  0  0  0  0  0
  -27.7723  -18.1147   20.2851 C   0  0  0  0  0  0  0  0  0  0  0  0
  -26.7737  -20.4565   20.1230 C   0  0  0  0  0  0  0  0  0  0  0  0
  -18.4742  -27.7898   21.5219 C   0  0  0  0  0  0  0  0  0  0  0  0
  -24.6316  -25.6850   20.1696 C   0  0  0  0  0  0  0  0  0  0  0  0
  -19.8190  -28.0426   21.1904 C   0  0  0  0  0  0  0  0  0  0  0  0
  -25.7726  -26.3468   20.6454 C   0  0  0  0  0  0  0  0  0  0  0  0
  -27.7334  -15.4178   20.9978 C   0  0  0  0  0  0  0  0  0  0  0  0
  -26.4256  -26.8405   18.3563 C   0  0  0  0  0  0  0  0  0  0  0  0
  -26.5674  -13.3787   21.0657 C   0  0  0  0  0  0  0  0  0  0  0  0
  -24.2551  -11.9224   20.5043 C   0  0  0  0  0  0  0  0  0  0  0  0
  -26.6302  -12.2667   20.2260 C   0  0  0  0  0  0  0  0  0  0  0  0
  -27.7931  -19.5077   19.9173 C   0  0  0  0  0  0  0  0  0  0  0  0
  -27.2788  -21.6219   19.6002 C   0  0  0  0  0  0  0  0  0  0  0  0
  -25.4855  -20.2987   20.7323 C   0  0  0  0  0  0  0  0  0  0  0  0
  -23.0585  -26.9755   22.6117 C   0  0  0  0  0  0  0  0  0  0  0  0
  -25.3787  -25.5351   24.3621 C   0  0  0  0  0  0  0  0  0  0  0  0
  -28.5421  -24.2608   24.4894 C   0  0  0  0  0  0  0  0  0  0  0  0
  -31.3626  -25.2284   19.0881 C   0  0  0  0  0  0  0  0  0  0  0  0
  -18.0157  -27.6898   22.9553 C   0  0  0  0  0  0  0  0  0  0  0  0
  -23.6744  -25.0320   21.1286 C   0  0  0  0  0  0  0  0  0  0  0  0
  -26.0679  -26.4594   22.1180 C   0  0  0  0  0  0  0  0  0  0  0  0
  -19.1539  -27.4474   23.9433 C   0  0  0  0  0  0  0  0  0  0  0  0
  -31.3851  -22.4534   16.7651 C   0  0  0  0  0  0  0  0  0  0  0  0
  -20.3201  -28.3876   23.6553 C   0  0  0  0  0  0  0  0  0  0  0  0
  -30.3600  -21.5142   17.4033 C   0  0  0  0  0  0  0  0  0  0  0  0
  -32.2205  -23.1632   17.8265 C   0  0  0  0  0  0  0  0  0  0  0  0
  -30.3985  -22.9783   19.4757 C   0  0  0  0  0  0  0  0  0  0  0  0
  -20.8915  -28.1444   22.2532 C   0  0  1  0  0  0  0  0  0  0  0  0
  -23.7289  -25.6333   22.5296 C   0  0  1  0  0  0  0  0  0  0  0  0
  -29.5070  -22.2475   18.4553 C   0  0  2  0  0  0  0  0  0  0  0  0
  -30.1711  -23.1868   26.0674 C   0  0  0  0  0  0  0  0  0  0  0  0
  -28.4590  -29.1120   14.4141 C   0  0  0  0  0  0  0  0  0  0  0  0
  -31.7383  -29.7524   17.9126 C   0  0  0  0  0  0  0  0  0  0  0  0
  -31.1913  -27.9912   13.7484 C   0  0  0  0  0  0  0  0  0  0  0  0
  -25.9213  -28.2495   25.6456 C   0  0  0  0  0  0  0  0  0  0  0  0
  -28.1087  -27.3474   26.4638 C   0  0  0  0  0  0  0  0  0  0  0  0
  -25.9709  -26.3169   27.2320 C   0  0  0  0  0  0  0  0  0  0  0  0
  -28.6720  -21.7936   22.8600 C   0  0  0  0  0  0  0  0  0  0  0  0
  -28.8562  -26.9413   15.6803 C   0  0  0  0  0  0  0  0  0  0  0  0
  -31.7766  -27.8746   16.1813 C   0  0  0  0  0  0  0  0  0  0  0  0
  -32.4265  -27.4153   18.5956 C   0  0  0  0  0  0  0  0  0  0  0  0
  -27.4275  -26.7917   16.1999 C   0  0  0  0  0  0  0  0  0  1  0  0
  -26.7480  -25.9343   24.8568 C   0  0  1  0  0  0  0  0  0  0  0  0
  -29.0788  -22.9502   25.0361 C   0  0  2  0  0  0  0  0  0  0  0  0
  -29.3149  -28.4042   15.4754 C   0  0  1  0  0  0  0  0  0  0  0  0
  -31.5395  -28.2554   17.6592 C   0  0  1  0  0  0  0  0  0  0  0  0
  -30.8342  -28.5328   15.1416 C   0  0  2  0  0  0  0  0  0  0  0  0
  -26.6809  -26.9618   26.0218 C   0  0  0  0  0  0  0  0  0  0  0  0
  -28.8647  -20.0254   19.3109 N   0  0  0  0  0  0  0  0  0  0  0  0
  -28.5214  -21.3122   19.1311 N   0  0  0  0  0  0  0  0  0  0  0  0
  -25.0988  -25.8098   23.0160 N   0  0  0  0  0  0  0  0  0  0  0  0
  -31.3491  -23.8566   18.7856 N   0  0  0  0  0  0  0  0  0  0  0  0
  -26.7767  -22.8711   19.5006 N   0  0  0  0  0  0  0  0  0  0  0  0
  -25.1260  -19.0335   21.2166 N   0  0  0  0  0  0  0  0  0  0  0  0
  -21.7261  -26.9621   22.2456 N   0  0  0  0  0  0  0  0  0  0  0  0
  -27.4382  -24.6938   25.1931 N   0  0  0  0  0  0  0  0  0  0  0  0
  -32.2972  -25.9890   18.3962 N   0  0  0  0  0  0  0  0  0  0  0  0
  -29.6446  -22.1222   23.9337 N   0  3  0  0  0  0  0  0  0  0  0  0
  -24.6706  -21.2474   20.8292 O   0  0  0  0  0  0  0  0  0  0  0  0
  -23.7020  -27.9507   22.9812 O   0  0  0  0  0  0  0  0  0  0  0  0
  -24.5893  -24.9928   25.1395 O   0  0  0  0  0  0  0  0  0  0  0  0
  -29.0533  -24.8440   23.5360 O   0  0  0  0  0  0  0  0  0  0  0  0
  -30.5945  -25.7390   19.9105 O   0  0  0  0  0  0  0  0  0  0  0  0
  -27.7144  -14.1022   21.3460 O   0  0  0  0  0  0  0  0  0  0  0  0
  -27.3039  -27.4115   17.4713 O   0  0  0  0  0  0  0  0  0  1  0  0
  -23.1451  -11.2223   20.2361 F   0  0  0  0  0  0  0  0  0  0  0  0
  -27.7986  -11.8924   19.6870 F   0  0  0  0  0  0  0  0  0  0  0  0
  1  2  1  0  0  0  0
  1  5  2  0  0  0  0
  2  6  2  0  0  0  0
  3  8  2  0  0  0  0
  3 15  1  0  0  0  0
  4  9  1  0  0  0  0
  4 15  2  0  0  0  0
  5 17  1  0  0  0  0
  6 19  1  0  0  0  0
  7 10  2  0  0  0  0
  7 18  1  0  0  0  0
  8 21  1  0  0  0  0
  9 21  2  0  0  0  0
 10 22  1  0  0  0  0
 11 12  2  0  0  0  0
 11 23  1  0  0  0  0
 12 24  1  0  0  0  0
 13 20  1  0  0  0  0
 13 22  2  0  0  0  0
 14 24  2  0  0  0  0
 14 25  1  0  0  0  0
 15 26  1  0  0  0  0
 16 26  1  0  0  0  0
 16 27  2  0  0  0  0
 16 28  1  0  0  0  0
 17 19  2  0  0  0  0
 17 33  1  0  0  0  0
 18 20  2  0  0  0  0
 18 34  1  0  0  0  0
 19 42  1  0  0  0  0
 20 35  1  0  0  0  0
 21 78  1  0  0  0  0
 22 79  1  0  0  0  0
 23 25  2  0  0  0  0
 23 78  1  0  0  0  0
 24 80  1  0  0  0  0
 25 81  1  0  0  0  0
 26 63  2  0  0  0  0
 27 64  1  0  0  0  0
 27 67  1  0  0  0  0
 28 68  1  0  0  0  0
 28 73  2  0  0  0  0
 29 43  1  0  0  0  0
 29 69  1  0  0  0  0
 29 74  2  0  0  0  0
 30 57  1  0  0  0  0
 30 65  1  0  0  0  0
 30 75  2  0  0  0  0
 31 58  1  0  0  0  0
 31 70  1  0  0  0  0
 31 76  2  0  0  0  0
 32 66  1  0  0  0  0
 32 71  1  0  0  0  0
 32 77  2  0  0  0  0
 33 36  1  0  0  0  0
 34 43  1  0  0  0  0
 35 65  1  0  0  0  0
 36 38  1  0  0  0  0
 37 39  1  0  0  0  0
 37 40  1  0  0  0  0
 38 42  1  0  0  0  0
 39 44  1  0  0  0  0
 40 66  1  0  0  0  0
 41 44  1  0  0  0  0
 41 66  1  0  0  0  0
 42 69  1  0  0  0  0
 43 65  1  0  0  0  0
 44 64  1  0  0  0  0
 45 58  1  0  0  0  0
 46 59  1  0  0  0  0
 47 60  1  0  0  0  0
 48 61  1  0  0  0  0
 49 62  1  0  0  0  0
 50 62  1  0  0  0  0
 51 62  1  0  0  0  0
 52 72  1  0  0  0  0
 53 56  1  0  0  0  0
 53 59  1  0  0  0  0
 54 60  1  0  0  0  0
 54 61  1  0  0  0  0
 55 60  1  0  0  0  0
 55 71  1  0  0  0  0
 56 79  1  0  0  0  0
 57 62  1  0  0  0  0
 57 70  1  0  0  0  0
 58 72  1  0  0  0  0
 59 61  1  0  0  0  0
 63 64  1  0  0  0  0
M  CHG  1  72   1
M  ISO  4  32 100  56 101  71 100  79 101
M  END
> <Batch ID>
0100

> <Smiles>
CNC(C)C(=O)NC(C(=O)N1Cc2cc([101O:1][101CH2:1]CC(C)C(C)CC(C)C[100NH:0][100C:0](=O)N3CCCC(n4nc(-c5ccc(Oc6ccc(F)cc6F)cc5)c(C(N)=O)c4N)C3)ccc2CC1C(=O)NC1CCCc2ccccc21)C(C)(C)C

> <Shape>
0.179

> <Color>
0.063

> <Negative vol penalty>
0.000

$$$$

  -OEChem-04052319333D

 85 93  0     1  0  0  0  0  0999 V2000
  -29.3295  -21.5936   14.8206 C   0  0  0  0  0  0  0  0  0  0  0  0
  -28.2580  -21.7126   15.6984 C   0  0  0  0  0  0  0  0  0  0  0  0
  -28.6186  -16.1175   18.7339 C   0  0  0  0  0  0  0  0  0  0  0  0
  -28.5155  -16.6568   21.0867 C   0  0  0  0  0  0  0  0  0  0  0  0
  -30.3956  -22.4867   14.9030 C   0  0  0  0  0  0  0  0  0  0  0  0
  -28.2467  -22.7320   16.6512 C   0  0  0  0  0  0  0  0  0  0  0  0
  -24.1309  -23.2792   19.2901 C   0  0  0  0  0  0  0  0  0  0  0  0
  -29.5723  -17.1180   18.5463 C   0  0  0  0  0  0  0  0  0  0  0  0
  -29.4692  -17.6572   20.8992 C   0  0  0  0  0  0  0  0  0  0  0  0
  -23.7450  -22.3770   20.2805 C   0  0  0  0  0  0  0  0  0  0  0  0
  -29.5587  -20.8239   19.7182 C   0  0  0  0  0  0  0  0  0  0  0  0
  -29.3274  -22.0607   20.3201 C   0  0  0  0  0  0  0  0  0  0  0  0
  -24.4801  -23.9305   21.9734 C   0  0  0  0  0  0  0  0  0  0  0  0
  -23.3355  -19.9048   24.5486 C   0  0  0  0  0  0  0  0  0  0  0  0
  -21.5321  -18.8860   23.3050 C   0  0  0  0  0  0  0  0  0  0  0  0
  -31.3783  -21.8326   21.5767 C   0  0  0  0  0  0  0  0  0  0  0  0
  -28.0902  -15.8869   20.0040 C   0  0  0  0  0  0  0  0  0  0  0  0
  -27.3403  -13.5035   20.5183 C   0  0  0  0  0  0  0  0  0  0  0  0
  -30.4024  -23.5095   15.8657 C   0  0  0  0  0  0  0  0  0  0  0  0
  -24.7052  -24.5113   19.6342 C   0  0  0  0  0  0  0  0  0  0  0  0
  -29.3023  -23.6579   16.7346 C   0  0  0  0  0  0  0  0  0  0  0  0
  -24.8700  -24.8476   20.9855 C   0  0  0  0  0  0  0  0  0  0  0  0
  -22.6066  -19.7734   23.3667 C   0  0  0  0  0  0  0  0  0  0  0  0
  -22.9900  -19.1489   25.6688 C   0  0  0  0  0  0  0  0  0  0  0  0
  -21.1866  -18.1301   24.4252 C   0  0  0  0  0  0  0  0  0  0  0  0
  -21.9156  -18.2615   25.6071 C   0  0  0  0  0  0  0  0  0  0  0  0
  -29.9976  -17.8878   19.6290 C   0  0  0  0  0  0  0  0  0  0  0  0
  -23.9223  -22.7014   21.6224 C   0  0  0  0  0  0  0  0  0  0  0  0
  -30.6998  -20.0914   20.0455 C   0  0  0  0  0  0  0  0  0  0  0  0
  -30.2372  -22.5651   21.2494 C   0  0  0  0  0  0  0  0  0  0  0  0
  -31.6096  -20.5958   20.9748 C   0  0  0  0  0  0  0  0  0  0  0  0
  -27.1046  -14.8540   20.1983 C   0  0  0  0  0  0  0  0  0  0  0  0
  -26.0878  -12.9446   20.5924 C   0  0  0  0  0  0  0  0  0  0  0  0
  -28.5804  -12.8158   20.7298 C   0  0  0  0  0  0  0  0  0  0  0  0
  -27.5153  -25.9010   19.1091 C   0  0  0  0  0  0  0  0  0  0  0  0
  -26.0817  -28.4454   20.5208 C   0  0  0  0  0  0  0  0  0  0  0  0
  -23.6542  -29.6067   22.6197 C   0  0  0  0  0  0  0  0  0  0  0  0
  -20.6683  -15.2201   21.7332 C   0  0  0  0  0  0  0  0  0  0  0  0
  -31.5784  -24.4534   15.9056 C   0  0  0  0  0  0  0  0  0  0  0  0
  -25.0915  -25.4846   18.5544 C   0  0  0  0  0  0  0  0  0  0  0  0
  -25.4632  -26.1660   21.4079 C   0  0  0  0  0  0  0  0  0  0  0  0
  -31.6847  -25.2153   17.2225 C   0  0  0  0  0  0  0  0  0  0  0  0
  -21.6657  -13.4185   18.8287 C   0  0  0  0  0  0  0  0  0  0  0  0
  -30.3390  -25.8298   17.5777 C   0  0  0  0  0  0  0  0  0  0  0  0
  -23.1940  -13.4602   18.8792 C   0  0  0  0  0  0  0  0  0  0  0  0
  -21.0484  -14.7195   19.3371 C   0  0  0  0  0  0  0  0  0  0  0  0
  -23.0309  -15.1803   20.7268 C   0  0  0  0  0  0  0  0  0  0  0  0
  -29.2824  -24.7400   17.7990 C   0  0  1  0  0  0  0  0  0  0  0  0
  -26.1393  -26.4961   19.0087 C   0  0  1  0  0  0  0  0  0  0  0  0
  -23.6978  -13.8694   20.2763 C   0  0  2  0  0  0  0  0  0  0  0  0
  -23.7861  -19.3091   26.9228 C   0  0  0  0  0  0  0  0  0  0  0  0
  -22.7539  -31.7313   23.6059 C   0  0  0  0  0  0  0  0  0  0  0  0
  -19.9550  -19.1951   27.7724 C   0  0  0  0  0  0  0  0  0  0  0  0
  -20.8538  -17.3743   29.2356 C   0  0  0  0  0  0  0  0  0  0  0  0
  -28.4471  -28.5515   22.4453 C   0  0  0  0  0  0  0  0  0  0  0  0
  -27.0745  -30.0163   23.9415 C   0  0  0  0  0  0  0  0  0  0  0  0
  -27.6563  -30.7833   21.6403 C   0  0  0  0  0  0  0  0  0  0  0  0
  -21.0014  -29.1981   21.3727 C   0  0  0  0  0  0  0  0  0  0  0  0
  -20.0317  -17.1870   24.3332 C   0  0  0  0  0  0  0  0  0  0  0  0
  -21.5451  -17.4515   26.8085 C   0  0  0  0  0  0  0  0  0  0  0  0
  -22.9786  -20.5860   22.1615 C   0  0  0  0  0  0  0  0  0  1  0  0
  -20.4496  -15.7237   24.1534 C   0  0  0  0  0  0  0  0  0  0  0  0
  -25.9462  -28.9453   21.9388 C   0  0  1  0  0  0  0  0  0  0  0  0
  -22.6434  -30.7290   22.4676 C   0  0  2  0  0  0  0  0  0  0  0  0
  -21.1594  -18.2915   28.0488 C   0  0  0  0  0  0  0  0  0  0  0  0
  -27.2716  -29.5483   22.4838 C   0  0  0  0  0  0  0  0  0  0  0  0
  -25.8046  -15.1359   20.0772 N   0  0  0  0  0  0  0  0  0  0  0  0
  -25.2122  -13.9548   20.3224 N   0  0  0  0  0  0  0  0  0  0  0  0
  -25.8309  -27.0814   20.3151 N   0  0  0  0  0  0  0  0  0  0  0  0
  -21.5666  -15.0499   20.6668 N   0  0  0  0  0  0  0  0  0  0  0  0
  -25.6611  -11.6924   20.8614 N   0  0  0  0  0  0  0  0  0  0  0  0
  -29.7744  -13.5407   20.6152 N   0  0  0  0  0  0  0  0  0  0  0  0
  -27.9827  -25.3615   17.9258 N   0  0  0  0  0  0  0  0  0  0  0  0
  -24.8223  -29.8754   21.9381 N   0  0  0  0  0  0  0  0  0  0  0  0
  -21.2429  -15.5254   22.9609 N   0  0  0  0  0  0  0  0  0  0  0  0
  -21.2578  -30.1804   22.4572 N   0  3  0  0  0  0  0  0  0  0  0  0
  -28.6290  -11.5909   20.9959 O   0  0  0  0  0  0  0  0  0  0  0  0
  -28.1097  -25.9305   20.1803 O   0  0  0  0  0  0  0  0  0  0  0  0
  -26.3914  -29.2376   19.6274 O   0  0  0  0  0  0  0  0  0  0  0  0
  -23.4313  -28.5946   23.2804 O   0  0  0  0  0  0  0  0  0  0  0  0
  -19.4452  -15.1029   21.6021 O   0  0  0  0  0  0  0  0  0  0  0  0
  -30.9284  -18.8640   19.4464 O   0  0  0  0  0  0  0  0  0  0  0  0
  -23.5472  -21.8224   22.5911 O   0  0  0  0  0  0  0  0  0  1  0  0
  -30.0158  -23.7536   21.8262 F   0  0  0  0  0  0  0  0  0  0  0  0
  -32.7081  -19.8972   21.2924 F   0  0  0  0  0  0  0  0  0  0  0  0
  1  2  1  0  0  0  0
  1  5  2  0  0  0  0
  2  6  2  0  0  0  0
  3  8  2  0  0  0  0
  3 17  1  0  0  0  0
  4  9  1  0  0  0  0
  4 17  2  0  0  0  0
  5 19  1  0  0  0  0
  6 21  1  0  0  0  0
  7 10  2  0  0  0  0
  7 20  1  0  0  0  0
  8 27  1  0  0  0  0
  9 27  2  0  0  0  0
 10 28  1  0  0  0  0
 11 12  2  0  0  0  0
 11 29  1  0  0  0  0
 12 30  1  0  0  0  0
 13 22  1  0  0  0  0
 13 28  2  0  0  0  0
 14 23  1  0  0  0  0
 14 24  2  0  0  0  0
 15 23  2  0  0  0  0
 15 25  1  0  0  0  0
 16 30  2  0  0  0  0
 16 31  1  0  0  0  0
 17 32  1  0  0  0  0
 18 32  1  0  0  0  0
 18 33  2  0  0  0  0
 18 34  1  0  0  0  0
 19 21  2  0  0  0  0
 19 39  1  0  0  0  0
 20 22  2  0  0  0  0
 20 40  1  0  0  0  0
 21 48  1  0  0  0  0
 22 41  1  0  0  0  0
 23 61  1  0  0  0  0
 24 26  1  0  0  0  0
 24 51  1  0  0  0  0
 25 26  2  0  0  0  0
 25 59  1  0  0  0  0
 26 60  1  0  0  0  0
 27 82  1  0  0  0  0
 28 83  1  0  0  0  0
 29 31  2  0  0  0  0
 29 82  1  0  0  0  0
 30 84  1  0  0  0  0
 31 85  1  0  0  0  0
 32 67  2  0  0  0  0
 33 68  1  0  0  0  0
 33 71  1  0  0  0  0
 34 72  1  0  0  0  0
 34 77  2  0  0  0  0
 35 49  1  0  0  0  0
 35 73  1  0  0  0  0
 35 78  2  0  0  0  0
 36 63  1  0  0  0  0
 36 69  1  0  0  0  0
 36 79  2  0  0  0  0
 37 64  1  0  0  0  0
 37 74  1  0  0  0  0
 37 80  2  0  0  0  0
 38 70  1  0  0  0  0
 38 75  1  0  0  0  0
 38 81  2  0  0  0  0
 39 42  1  0  0  0  0
 40 49  1  0  0  0  0
 41 69  1  0  0  0  0
 42 44  1  0  0  0  0
 43 45  1  0  0  0  0
 43 46  1  0  0  0  0
 44 48  1  0  0  0  0
 45 50  1  0  0  0  0
 46 70  1  0  0  0  0
 47 50  1  0  0  0  0
 47 70  1  0  0  0  0
 48 73  1  0  0  0  0
 49 69  1  0  0  0  0
 50 68  1  0  0  0  0
 52 64  1  0  0  0  0
 53 65  1  0  0  0  0
 54 65  1  0  0  0  0
 55 66  1  0  0  0  0
 56 66  1  0  0  0  0
 57 66  1  0  0  0  0
 58 76  1  0  0  0  0
 59 62  1  0  0  0  0
 60 65  1  0  0  0  0
 61 83  1  0  0  0  0
 62 75  1  0  0  0  0
 63 66  1  0  0  0  0
 63 74  1  0  0  0  0
 64 76  1  0  0  0  0
 67 68  1  0  0  0  0
M  CHG  1  76   1
M  ISO  4  38 100  61 101  75 100  83 101
M  END
> <Batch ID>
0100

> <Smiles>
CNC(C)C(=O)NC(C(=O)N1Cc2cc([101O:1][101CH2:1]c3cc(C)c(CC(C)C)c(CC[100NH:0][100C:0](=O)N4CCCC(n5nc(-c6ccc(Oc7ccc(F)cc7F)cc6)c(C(N)=O)c5N)C4)c3)ccc2CC1C(=O)NC1CCCc2ccccc21)C(C)(C)C

> <Shape>
0.209

> <Color>
0.072

> <Negative vol penalty>
0.000

$$$$

  -OEChem-04052319333D

 82 89  0     1  0  0  0  0  0999 V2000
  -30.3242  -34.0251   26.6378 C   0  0  0  0  0  0  0  0  0  0  0  0
  -30.5402  -33.3925   25.4177 C   0  0  0  0  0  0  0  0  0  0  0  0
  -26.3347  -11.7363   21.1178 C   0  0  0  0  0  0  0  0  0  0  0  0
  -24.8456  -12.8788   19.5965 C   0  0  0  0  0  0  0  0  0  0  0  0
  -29.2875  -33.6008   27.4678 C   0  0  0  0  0  0  0  0  0  0  0  0
  -29.7202  -32.3343   25.0275 C   0  0  0  0  0  0  0  0  0  0  0  0
  -26.8700  -29.3445   19.1748 C   0  0  0  0  0  0  0  0  0  0  0  0
  -25.2510  -11.0451   21.6595 C   0  0  0  0  0  0  0  0  0  0  0  0
  -23.7619  -12.1875   20.1382 C   0  0  0  0  0  0  0  0  0  0  0  0
  -26.7631  -28.1076   18.5405 C   0  0  0  0  0  0  0  0  0  0  0  0
  -22.9237   -8.7142   23.1976 C   0  0  0  0  0  0  0  0  0  0  0  0
  -23.0707   -7.3440   23.4132 C   0  0  0  0  0  0  0  0  0  0  0  0
  -24.9534  -27.5119   20.0201 C   0  0  0  0  0  0  0  0  0  0  0  0
  -23.4754   -7.0163   21.0539 C   0  0  0  0  0  0  0  0  0  0  0  0
  -26.1320  -12.6532   20.0864 C   0  0  0  0  0  0  0  0  0  0  0  0
  -28.0557  -12.9723   18.4416 C   0  0  0  0  0  0  0  0  0  0  0  0
  -28.4483  -32.5432   27.0833 C   0  0  0  0  0  0  0  0  0  0  0  0
  -26.0253  -29.6707   20.2455 C   0  0  0  0  0  0  0  0  0  0  0  0
  -28.6721  -31.8945   25.8538 C   0  0  0  0  0  0  0  0  0  0  0  0
  -25.0499  -28.7546   20.6647 C   0  0  0  0  0  0  0  0  0  0  0  0
  -23.9646  -11.2707   21.1697 C   0  0  0  0  0  0  0  0  0  0  0  0
  -25.8066  -27.1899   18.9649 C   0  0  0  0  0  0  0  0  0  0  0  0
  -23.0524   -9.2355   21.9101 C   0  0  0  0  0  0  0  0  0  0  0  0
  -23.3466   -6.4950   22.3414 C   0  0  0  0  0  0  0  0  0  0  0  0
  -23.3283   -8.3865   20.8384 C   0  0  0  0  0  0  0  0  0  0  0  0
  -27.2509  -13.3680   19.5268 C   0  0  0  0  0  0  0  0  0  0  0  0
  -28.9716  -13.9867   18.3055 C   0  0  0  0  0  0  0  0  0  0  0  0
  -27.9818  -11.7932   17.6291 C   0  0  0  0  0  0  0  0  0  0  0  0
  -26.4624  -30.3691   23.3155 C   0  0  0  0  0  0  0  0  0  0  0  0
  -23.2750  -30.9658   23.2316 C   0  0  0  0  0  0  0  0  0  0  0  0
  -20.2607  -30.4038   21.7332 C   0  0  0  0  0  0  0  0  0  0  0  0
  -28.8883  -19.7835   19.8023 C   0  0  0  0  0  0  0  0  0  0  0  0
  -27.3703  -32.0888   28.0352 C   0  0  0  0  0  0  0  0  0  0  0  0
  -26.1355  -31.0196   20.9018 C   0  0  0  0  0  0  0  0  0  0  0  0
  -24.1053  -29.0643   21.7962 C   0  0  0  0  0  0  0  0  0  0  0  0
  -26.3119  -31.2052   27.3800 C   0  0  0  0  0  0  0  0  0  0  0  0
  -31.2542  -17.3365   20.8470 C   0  0  0  0  0  0  0  0  0  0  0  0
  -26.9708  -30.1316   26.5197 C   0  0  0  0  0  0  0  0  0  0  0  0
  -30.5691  -16.0062   20.5292 C   0  0  0  0  0  0  0  0  0  0  0  0
  -30.2538  -18.3864   21.3254 C   0  0  0  0  0  0  0  0  0  0  0  0
  -28.4227  -17.2760   20.1056 C   0  0  0  0  0  0  0  0  0  0  0  0
  -27.7884  -30.7592   25.3844 C   0  0  1  0  0  0  0  0  0  0  0  0
  -25.5655  -31.0440   22.3167 C   0  0  1  0  0  0  0  0  0  0  0  0
  -29.3831  -16.2024   19.5658 C   0  0  2  0  0  0  0  0  0  0  0  0
  -17.8300  -31.0011   21.9124 C   0  0  0  0  0  0  0  0  0  0  0  0
  -22.7422  -21.1092   20.4196 C   0  0  0  0  0  0  0  0  0  0  0  0
  -24.6460  -22.2804   21.5101 C   0  0  0  0  0  0  0  0  0  0  0  0
  -24.3628  -20.6841   17.9294 C   0  0  0  0  0  0  0  0  0  0  0  0
  -26.7240  -25.2799   16.2812 C   0  0  0  0  0  0  0  0  0  0  0  0
  -22.9820  -29.0547   25.5920 C   0  0  0  0  0  0  0  0  0  0  0  0
  -20.5262  -28.9535   25.1155 C   0  0  0  0  0  0  0  0  0  0  0  0
  -21.5844  -31.1230   25.7446 C   0  0  0  0  0  0  0  0  0  0  0  0
  -20.2507  -31.6536   19.0505 C   0  0  0  0  0  0  0  0  0  0  0  0
  -27.4426  -21.0472   18.2300 C   0  0  0  0  0  0  0  0  0  0  0  0
  -27.2247  -24.1313   18.5114 C   0  0  0  0  0  0  0  0  0  0  0  0
  -22.0276  -30.1456   23.4554 C   0  0  1  0  0  0  0  0  0  0  0  0
  -19.1676  -31.3553   21.2813 C   0  0  2  0  0  0  0  0  0  0  0  0
  -24.0358  -21.8951   20.1561 C   0  0  0  0  0  0  0  0  0  0  0  0
  -25.0351  -21.0969   19.2515 C   0  0  2  0  0  0  0  0  0  0  0  0
  -26.3888  -21.8327   19.0178 C   0  0  2  0  0  0  0  0  0  0  0  0
  -26.8921  -25.4318   17.7873 C   0  0  2  0  0  0  0  0  0  1  0  0
  -21.7990  -29.8123   24.9568 C   0  0  0  0  0  0  0  0  0  0  0  0
  -27.6231  -14.5421   20.0435 N   0  0  0  0  0  0  0  0  0  0  0  0
  -28.6717  -14.8928   19.2797 N   0  0  0  0  0  0  0  0  0  0  0  0
  -24.2568  -30.3938   22.4101 N   0  0  0  0  0  0  0  0  0  0  0  0
  -29.1550  -18.5252   20.3666 N   0  0  0  0  0  0  0  0  0  0  0  0
  -29.9963  -14.1829   17.4488 N   0  0  0  0  0  0  0  0  0  0  0  0
  -26.9796  -10.8532   17.9054 N   0  0  0  0  0  0  0  0  0  0  0  0
  -26.9156  -31.2039   24.3190 N   0  0  0  0  0  0  0  0  0  0  0  0
  -20.9349  -30.8868   22.8348 N   0  0  0  0  0  0  0  0  0  0  0  0
  -27.8340  -19.8261   18.8982 N   0  0  0  0  0  0  0  0  0  0  0  0
  -19.0163  -31.3042   19.7996 N   0  3  0  0  0  0  0  0  0  0  0  0
  -26.1637  -23.1157   18.2982 N   0  3  0  0  0  0  0  0  0  0  0  0
  -28.7910  -11.5717   16.6966 O   0  0  0  0  0  0  0  0  0  0  0  0
  -26.7227  -29.1786   23.1862 O   0  0  0  0  0  0  0  0  0  0  0  0
  -23.3717  -32.0761   23.7602 O   0  0  0  0  0  0  0  0  0  0  0  0
  -20.4910  -29.3371   21.1679 O   0  0  0  0  0  0  0  0  0  0  0  0
  -29.5447  -20.7931   20.0794 O   0  0  0  0  0  0  0  0  0  0  0  0
  -22.9069  -10.5962   21.6979 O   0  0  0  0  0  0  0  0  0  0  0  0
  -25.7006  -25.9816   18.3479 O   0  0  0  0  0  0  0  0  0  1  0  0
  -23.4893   -5.1794   22.5488 F   0  0  0  0  0  0  0  0  0  0  0  0
  -23.4544   -8.8816   19.5995 F   0  0  0  0  0  0  0  0  0  0  0  0
  1  2  1  0  0  0  0
  1  5  2  0  0  0  0
  2  6  2  0  0  0  0
  3  8  2  0  0  0  0
  3 15  1  0  0  0  0
  4  9  1  0  0  0  0
  4 15  2  0  0  0  0
  5 17  1  0  0  0  0
  6 19  1  0  0  0  0
  7 10  2  0  0  0  0
  7 18  1  0  0  0  0
  8 21  1  0  0  0  0
  9 21  2  0  0  0  0
 10 22  1  0  0  0  0
 11 12  2  0  0  0  0
 11 23  1  0  0  0  0
 12 24  1  0  0  0  0
 13 20  1  0  0  0  0
 13 22  2  0  0  0  0
 14 24  2  0  0  0  0
 14 25  1  0  0  0  0
 15 26  1  0  0  0  0
 16 26  1  0  0  0  0
 16 27  2  0  0  0  0
 16 28  1  0  0  0  0
 17 19  2  0  0  0  0
 17 33  1  0  0  0  0
 18 20  2  0  0  0  0
 18 34  1  0  0  0  0
 19 42  1  0  0  0  0
 20 35  1  0  0  0  0
 21 79  1  0  0  0  0
 22 80  1  0  0  0  0
 23 25  2  0  0  0  0
 23 79  1  0  0  0  0
 24 81  1  0  0  0  0
 25 82  1  0  0  0  0
 26 63  2  0  0  0  0
 27 64  1  0  0  0  0
 27 67  1  0  0  0  0
 28 68  1  0  0  0  0
 28 74  2  0  0  0  0
 29 43  1  0  0  0  0
 29 69  1  0  0  0  0
 29 75  2  0  0  0  0
 30 56  1  0  0  0  0
 30 65  1  0  0  0  0
 30 76  2  0  0  0  0
 31 57  1  0  0  0  0
 31 70  1  0  0  0  0
 31 77  2  0  0  0  0
 32 66  1  0  0  0  0
 32 71  1  0  0  0  0
 32 78  2  0  0  0  0
 33 36  1  0  0  0  0
 34 43  1  0  0  0  0
 35 65  1  0  0  0  0
 36 38  1  0  0  0  0
 37 39  1  0  0  0  0
 37 40  1  0  0  0  0
 38 42  1  0  0  0  0
 39 44  1  0  0  0  0
 40 66  1  0  0  0  0
 41 44  1  0  0  0  0
 41 66  1  0  0  0  0
 42 69  1  0  0  0  0
 43 65  1  0  0  0  0
 44 64  1  0  0  0  0
 45 57  1  0  0  0  0
 46 58  1  0  0  0  0
 47 58  1  0  0  0  0
 48 59  1  0  0  0  0
 49 61  1  0  0  0  0
 50 62  1  0  0  0  0
 51 62  1  0  0  0  0
 52 62  1  0  0  0  0
 53 72  1  0  0  0  0
 54 60  1  0  0  0  0
 54 71  1  0  0  0  0
 55 61  1  0  0  0  0
 55 73  1  0  0  0  0
 56 62  1  0  0  0  0
 56 70  1  0  0  0  0
 57 72  1  0  0  0  0
 58 59  1  0  0  0  0
 59 60  1  0  0  0  0
 60 73  1  0  0  0  0
 61 80  1  0  0  0  0
 63 64  1  0  0  0  0
M  CHG  2  72   1  73   1
M  ISO  4  32 100  61 101  71 100  80 101
M  END
> <Batch ID>
0100

> <Smiles>
CNC(C)C(=O)NC(C(=O)N1Cc2cc([101O:1][101CH:1](C)CNC(C[100NH:0][100C:0](=O)N3CCCC(n4nc(-c5ccc(Oc6ccc(F)cc6F)cc5)c(C(N)=O)c4N)C3)C(C)C(C)C)ccc2CC1C(=O)NC1CCCc2ccccc21)C(C)(C)C

> <Shape>
0.275

> <Color>
0.076

> <Negative vol penalty>
0.000

$$$$

  -OEChem-04052319333D

 85 93  0     1  0  0  0  0  0999 V2000
  -19.0638  -22.7253   23.6786 C   0  0  0  0  0  0  0  0  0  0  0  0
  -20.3771  -22.2793   23.5697 C   0  0  0  0  0  0  0  0  0  0  0  0
  -26.1196  -12.7051   21.6034 C   0  0  0  0  0  0  0  0  0  0  0  0
  -25.1930  -13.3692   19.4733 C   0  0  0  0  0  0  0  0  0  0  0  0
  -18.6568  -23.8664   22.9886 C   0  0  0  0  0  0  0  0  0  0  0  0
  -21.2839  -22.9737   22.7698 C   0  0  0  0  0  0  0  0  0  0  0  0
  -28.2346  -24.6638   22.3848 C   0  0  0  0  0  0  0  0  0  0  0  0
  -25.1809  -11.6772   21.6913 C   0  0  0  0  0  0  0  0  0  0  0  0
  -24.2542  -12.3412   19.5611 C   0  0  0  0  0  0  0  0  0  0  0  0
  -29.3094  -24.6069   21.4986 C   0  0  0  0  0  0  0  0  0  0  0  0
  -24.7505   -8.5800   20.4047 C   0  0  0  0  0  0  0  0  0  0  0  0
  -25.2019   -7.3224   20.8051 C   0  0  0  0  0  0  0  0  0  0  0  0
  -28.5146  -26.6106   20.4156 C   0  0  0  0  0  0  0  0  0  0  0  0
  -23.7117   -7.3926   22.7055 C   0  0  0  0  0  0  0  0  0  0  0  0
  -27.2184  -23.7310   17.9088 C   0  0  0  0  0  0  0  0  0  0  0  0
  -26.1256  -13.5512   20.4944 C   0  0  0  0  0  0  0  0  0  0  0  0
  -28.3765  -14.5476   19.8249 C   0  0  0  0  0  0  0  0  0  0  0  0
  -19.5617  -24.5807   22.1874 C   0  0  0  0  0  0  0  0  0  0  0  0
  -27.2841  -25.6901   22.2860 C   0  0  0  0  0  0  0  0  0  0  0  0
  -20.8883  -24.1247   22.0673 C   0  0  0  0  0  0  0  0  0  0  0  0
  -27.4301  -26.6796   21.3034 C   0  0  0  0  0  0  0  0  0  0  0  0
  -26.5819  -22.5272   17.7013 C   0  0  0  0  0  0  0  0  0  0  0  0
  -27.1982  -21.9098   16.5850 C   0  0  0  0  0  0  0  0  0  0  0  0
  -24.2482  -11.4952   20.6702 C   0  0  0  0  0  0  0  0  0  0  0  0
  -29.4480  -25.5787   20.5120 C   0  0  0  0  0  0  0  0  0  0  0  0
  -23.7798   -9.2440   21.1548 C   0  0  0  0  0  0  0  0  0  0  0  0
  -24.6825   -6.7287   21.9555 C   0  0  0  0  0  0  0  0  0  0  0  0
  -23.2604   -8.6503   22.3052 C   0  0  0  0  0  0  0  0  0  0  0  0
  -27.0947  -14.6135   20.4032 C   0  0  0  0  0  0  0  0  0  0  0  0
  -28.1926  -22.7549   16.1444 C   0  0  0  0  0  0  0  0  0  0  0  0
  -28.8939  -15.8089   19.9921 C   0  0  0  0  0  0  0  0  0  0  0  0
  -29.0401  -13.4449   19.1929 C   0  0  0  0  0  0  0  0  0  0  0  0
  -24.1595  -25.8062   21.7141 C   0  0  0  0  0  0  0  0  0  0  0  0
  -24.5508  -28.9579   22.3745 C   0  0  0  0  0  0  0  0  0  0  0  0
  -26.6437  -31.6496   22.5196 C   0  0  0  0  0  0  0  0  0  0  0  0
  -26.3682  -21.1950   20.6715 C   0  0  0  0  0  0  0  0  0  0  0  0
  -19.0632  -25.7815   21.4231 C   0  0  0  0  0  0  0  0  0  0  0  0
  -26.1452  -25.7524   23.2665 C   0  0  0  0  0  0  0  0  0  0  0  0
  -26.4482  -27.8137   21.1680 C   0  0  0  0  0  0  0  0  0  0  0  0
  -20.1827  -26.6740   20.8935 C   0  0  0  0  0  0  0  0  0  0  0  0
  -28.6467  -19.6029   22.8965 C   0  0  0  0  0  0  0  0  0  0  0  0
  -21.2664  -25.8324   20.2271 C   0  0  0  0  0  0  0  0  0  0  0  0
  -28.6229  -18.1377   22.4576 C   0  0  0  0  0  0  0  0  0  0  0  0
  -27.2687  -20.2502   22.7770 C   0  0  0  0  0  0  0  0  0  0  0  0
  -26.6157  -18.6611   21.0100 C   0  0  0  0  0  0  0  0  0  0  0  0
  -21.9079  -24.8651   21.2291 C   0  0  1  0  0  0  0  0  0  0  0  0
  -24.9539  -26.5522   22.7485 C   0  0  1  0  0  0  0  0  0  0  0  0
  -27.9946  -17.9811   21.0598 C   0  0  2  0  0  0  0  0  0  0  0  0
  -29.1411  -22.6075   15.0202 C   0  0  0  0  0  0  0  0  0  0  0  0
  -27.9942  -19.5733   16.0742 C   0  0  0  0  0  0  0  0  0  0  0  0
  -26.3488  -20.7084   14.5382 C   0  0  0  0  0  0  0  0  0  0  0  0
  -26.6666  -34.1003   23.0588 C   0  0  0  0  0  0  0  0  0  0  0  0
  -31.9182  -23.6569   19.1496 C   0  0  0  0  0  0  0  0  0  0  0  0
  -23.2117  -29.5565   19.6990 C   0  0  0  0  0  0  0  0  0  0  0  0
  -24.1046  -31.8904   19.8534 C   0  0  0  0  0  0  0  0  0  0  0  0
  -22.5070  -31.0515   21.5758 C   0  0  0  0  0  0  0  0  0  0  0  0
  -28.5844  -31.2656   24.7208 C   0  0  0  0  0  0  0  0  0  0  0  0
  -25.4635  -21.9899   18.5016 C   0  0  0  0  0  0  0  0  0  0  0  0
  -30.5439  -24.7691   17.3527 C   0  0  0  0  0  0  0  0  0  0  0  0
  -29.1234  -25.0416   16.8372 C   0  0  0  0  0  0  0  0  0  0  0  0
  -26.8419  -20.6009   15.9993 C   0  0  0  0  0  0  0  0  0  0  0  0
  -24.8828  -30.1870   21.5633 C   0  0  1  0  0  0  0  0  0  0  0  0
  -26.8692  -32.6932   23.5987 C   0  0  2  0  0  0  0  0  0  0  0  0
  -30.6049  -24.3595   18.8294 C   0  0  2  0  0  0  0  0  0  1  0  0
  -23.6941  -30.6490   20.6740 C   0  0  0  0  0  0  0  0  0  0  0  0
  -26.8150  -15.8211   20.9008 N   0  0  0  0  0  0  0  0  0  0  0  0
  -28.1959  -23.8587   16.9567 N   0  0  0  0  0  0  0  0  0  0  0  0
  -27.9283  -16.5256   20.6357 N   0  0  0  0  0  0  0  0  0  0  0  0
  -25.3482  -27.8274   22.1463 N   0  0  0  0  0  0  0  0  0  0  0  0
  -26.7295  -20.0675   21.4273 N   0  0  0  0  0  0  0  0  0  0  0  0
  -30.0761  -16.3637   19.6499 N   0  0  0  0  0  0  0  0  0  0  0  0
  -28.3648  -12.2199   19.1056 N   0  0  0  0  0  0  0  0  0  0  0  0
  -22.8481  -25.5659   22.0772 N   0  0  0  0  0  0  0  0  0  0  0  0
  -25.3429  -31.1923   22.5152 N   0  0  0  0  0  0  0  0  0  0  0  0
  -25.8717  -20.9334   19.4004 N   0  0  0  0  0  0  0  0  0  0  0  0
  -28.2554  -32.5912   24.1363 N   0  3  0  0  0  0  0  0  0  0  0  0
  -30.2039  -13.5385   18.7343 O   0  0  0  0  0  0  0  0  0  0  0  0
  -24.6963  -25.4745   20.6635 O   0  0  0  0  0  0  0  0  0  0  0  0
  -23.6228  -29.0014   23.1861 O   0  0  0  0  0  0  0  0  0  0  0  0
  -27.5317  -31.2800   21.7544 O   0  0  0  0  0  0  0  0  0  0  0  0
  -26.4850  -22.3497   21.0960 O   0  0  0  0  0  0  0  0  0  0  0  0
  -23.3322  -10.4921   20.7555 O   0  0  0  0  0  0  0  0  0  0  0  0
  -30.4957  -25.5252   19.6453 O   0  0  0  0  0  0  0  0  0  1  0  0
  -25.1149   -5.5204   22.3390 F   0  0  0  0  0  0  0  0  0  0  0  0
  -22.3268   -9.2828   23.0292 F   0  0  0  0  0  0  0  0  0  0  0  0
  1  2  1  0  0  0  0
  1  5  2  0  0  0  0
  2  6  2  0  0  0  0
  3  8  2  0  0  0  0
  3 16  1  0  0  0  0
  4  9  1  0  0  0  0
  4 16  2  0  0  0  0
  5 18  1  0  0  0  0
  6 20  1  0  0  0  0
  7 10  2  0  0  0  0
  7 19  1  0  0  0  0
  8 24  1  0  0  0  0
  9 24  2  0  0  0  0
 10 25  1  0  0  0  0
 11 12  2  0  0  0  0
 11 26  1  0  0  0  0
 12 27  1  0  0  0  0
 13 21  1  0  0  0  0
 13 25  2  0  0  0  0
 14 27  2  0  0  0  0
 14 28  1  0  0  0  0
 15 22  2  0  0  0  0
 15 67  1  0  0  0  0
 16 29  1  0  0  0  0
 17 29  1  0  0  0  0
 17 31  2  0  0  0  0
 17 32  1  0  0  0  0
 18 20  2  0  0  0  0
 18 37  1  0  0  0  0
 19 21  2  0  0  0  0
 19 38  1  0  0  0  0
 20 46  1  0  0  0  0
 21 39  1  0  0  0  0
 22 23  1  0  0  0  0
 22 58  1  0  0  0  0
 23 30  2  0  0  0  0
 23 61  1  0  0  0  0
 24 82  1  0  0  0  0
 25 83  1  0  0  0  0
 26 28  2  0  0  0  0
 26 82  1  0  0  0  0
 27 84  1  0  0  0  0
 28 85  1  0  0  0  0
 29 66  2  0  0  0  0
 30 49  1  0  0  0  0
 30 67  1  0  0  0  0
 31 68  1  0  0  0  0
 31 71  1  0  0  0  0
 32 72  1  0  0  0  0
 32 77  2  0  0  0  0
 33 47  1  0  0  0  0
 33 73  1  0  0  0  0
 33 78  2  0  0  0  0
 34 62  1  0  0  0  0
 34 69  1  0  0  0  0
 34 79  2  0  0  0  0
 35 63  1  0  0  0  0
 35 74  1  0  0  0  0
 35 80  2  0  0  0  0
 36 70  1  0  0  0  0
 36 75  1  0  0  0  0
 36 81  2  0  0  0  0
 37 40  1  0  0  0  0
 38 47  1  0  0  0  0
 39 69  1  0  0  0  0
 40 42  1  0  0  0  0
 41 43  1  0  0  0  0
 41 44  1  0  0  0  0
 42 46  1  0  0  0  0
 43 48  1  0  0  0  0
 44 70  1  0  0  0  0
 45 48  1  0  0  0  0
 45 70  1  0  0  0  0
 46 73  1  0  0  0  0
 47 69  1  0  0  0  0
 48 68  1  0  0  0  0
 50 61  1  0  0  0  0
 51 61  1  0  0  0  0
 52 63  1  0  0  0  0
 53 64  1  0  0  0  0
 54 65  1  0  0  0  0
 55 65  1  0  0  0  0
 56 65  1  0  0  0  0
 57 76  1  0  0  0  0
 58 75  1  0  0  0  0
 59 60  1  0  0  0  0
 59 64  1  0  0  0  0
 60 67  1  0  0  0  0
 62 65  1  0  0  0  0
 62 74  1  0  0  0  0
 63 76  1  0  0  0  0
 64 83  1  0  0  0  0
 66 68  1  0  0  0  0
M  CHG  1  76   1
M  ISO  4  36 100  64 101  75 100  83 101
M  END
> <Batch ID>
0100

> <Smiles>
CNC(C)C(=O)NC(C(=O)N1Cc2cc([101O:1][101CH:1](C)CCn3cc(C[100NH:0][100C:0](=O)N4CCCC(n5nc(-c6ccc(Oc7ccc(F)cc7F)cc6)c(C(N)=O)c5N)C4)c(C(C)C)c3C)ccc2CC1C(=O)NC1CCCc2ccccc21)C(C)(C)C

> <Shape>
0.237

> <Color>
0.058

> <Negative vol penalty>
0.000

$$$$

  -OEChem-04052319333D

 89 97  0     1  0  0  0  0  0999 V2000
  -18.5493  -33.4611   20.7922 C   0  0  0  0  0  0  0  0  0  0  0  0
  -19.8742  -33.2345   20.4334 C   0  0  0  0  0  0  0  0  0  0  0  0
  -24.0443  -12.4583   21.7821 C   0  0  0  0  0  0  0  0  0  0  0  0
  -26.1536  -11.7767   20.8212 C   0  0  0  0  0  0  0  0  0  0  0  0
  -18.0222  -32.8508   21.9296 C   0  0  0  0  0  0  0  0  0  0  0  0
  -20.6731  -32.3984   21.2125 C   0  0  0  0  0  0  0  0  0  0  0  0
  -25.0980  -28.6509   19.2421 C   0  0  0  0  0  0  0  0  0  0  0  0
  -23.6236  -11.1285   21.8018 C   0  0  0  0  0  0  0  0  0  0  0  0
  -25.7329  -10.4469   20.8410 C   0  0  0  0  0  0  0  0  0  0  0  0
  -26.4850  -28.7827   19.1908 C   0  0  0  0  0  0  0  0  0  0  0  0
  -24.1226   -8.3862   23.7159 C   0  0  0  0  0  0  0  0  0  0  0  0
  -23.5012   -7.9201   24.8744 C   0  0  0  0  0  0  0  0  0  0  0  0
  -26.6686  -27.6018   21.2862 C   0  0  0  0  0  0  0  0  0  0  0  0
  -29.8338  -21.5644   20.7013 C   0  0  0  0  0  0  0  0  0  0  0  0
  -29.0331  -23.8243   20.8917 C   0  0  0  0  0  0  0  0  0  0  0  0
  -21.5130   -7.4068   23.6013 C   0  0  0  0  0  0  0  0  0  0  0  0
  -25.3093  -12.7824   21.2917 C   0  0  0  0  0  0  0  0  0  0  0  0
  -26.4307  -14.8460   22.2875 C   0  0  0  0  0  0  0  0  0  0  0  0
  -18.8123  -31.9992   22.7176 C   0  0  0  0  0  0  0  0  0  0  0  0
  -24.4842  -28.0020   20.3231 C   0  0  0  0  0  0  0  0  0  0  0  0
  -20.1565  -31.7772   22.3622 C   0  0  0  0  0  0  0  0  0  0  0  0
  -25.2739  -27.4608   21.3476 C   0  0  0  0  0  0  0  0  0  0  0  0
  -29.4828  -22.6532   21.4916 C   0  0  0  0  0  0  0  0  0  0  0  0
  -24.4679  -10.1229   21.3313 C   0  0  0  0  0  0  0  0  0  0  0  0
  -27.2704  -28.2607   20.2144 C   0  0  0  0  0  0  0  0  0  0  0  0
  -23.4392   -8.3627   22.5001 C   0  0  0  0  0  0  0  0  0  0  0  0
  -22.1964   -7.4303   24.8171 C   0  0  0  0  0  0  0  0  0  0  0  0
  -22.1344   -7.8730   22.4428 C   0  0  0  0  0  0  0  0  0  0  0  0
  -25.7442  -14.1559   21.2705 C   0  0  0  0  0  0  0  0  0  0  0  0
  -29.7179  -21.6963   19.3269 C   0  0  0  0  0  0  0  0  0  0  0  0
  -28.9533  -23.8551   19.5088 C   0  0  0  0  0  0  0  0  0  0  0  0
  -26.6106  -16.1108   21.7831 C   0  0  0  0  0  0  0  0  0  0  0  0
  -26.8669  -14.3850   23.5731 C   0  0  0  0  0  0  0  0  0  0  0  0
  -22.4248  -28.8689   22.5838 C   0  0  0  0  0  0  0  0  0  0  0  0
  -22.5041  -25.7109   23.3211 C   0  0  0  0  0  0  0  0  0  0  0  0
  -24.2000  -22.7515   23.2096 C   0  0  0  0  0  0  0  0  0  0  0  0
  -27.9893  -19.5283   17.5920 C   0  0  0  0  0  0  0  0  0  0  0  0
  -18.2120  -31.3995   23.9645 C   0  0  0  0  0  0  0  0  0  0  0  0
  -22.9885  -27.8446   20.3502 C   0  0  0  0  0  0  0  0  0  0  0  0
  -24.6651  -26.7374   22.5200 C   0  0  0  0  0  0  0  0  0  0  0  0
  -19.0172  -30.2309   24.5269 C   0  0  0  0  0  0  0  0  0  0  0  0
  -24.6362  -18.3350   17.6915 C   0  0  0  0  0  0  0  0  0  0  0  0
  -20.5017  -30.5789   24.5737 C   0  0  0  0  0  0  0  0  0  0  0  0
  -24.6838  -17.1949   18.7102 C   0  0  0  0  0  0  0  0  0  0  0  0
  -25.9121  -18.3978   16.8547 C   0  0  0  0  0  0  0  0  0  0  0  0
  -27.2095  -17.3235   18.6537 C   0  0  0  0  0  0  0  0  0  0  0  0
  -21.0477  -30.8571   23.1680 C   0  0  1  0  0  0  0  0  0  0  0  0
  -22.4372  -27.6162   21.7542 C   0  0  1  0  0  0  0  0  0  0  0  0
  -25.9679  -17.2548   19.5592 C   0  0  2  0  0  0  0  0  0  0  0  0
  -27.6022  -24.8012   17.5860 C   0  0  0  0  0  0  0  0  0  0  0  0
  -24.0272  -20.3537   23.9295 C   0  0  0  0  0  0  0  0  0  0  0  0
  -30.6361  -25.6581   17.4916 C   0  0  0  0  0  0  0  0  0  0  0  0
  -30.2082  -27.9755   21.9225 C   0  0  0  0  0  0  0  0  0  0  0  0
  -31.0531  -22.2724   23.4242 C   0  0  0  0  0  0  0  0  0  0  0  0
  -28.6865  -21.4230   23.5407 C   0  0  0  0  0  0  0  0  0  0  0  0
  -29.1633  -23.8534   23.7572 C   0  0  0  0  0  0  0  0  0  0  0  0
  -23.1799  -26.5241   26.1832 C   0  0  0  0  0  0  0  0  0  0  0  0
  -23.9169  -24.1688   26.6044 C   0  0  0  0  0  0  0  0  0  0  0  0
  -21.5452  -24.6411   25.9921 C   0  0  0  0  0  0  0  0  0  0  0  0
  -24.3018  -21.7840   20.4145 C   0  0  0  0  0  0  0  0  0  0  0  0
  -30.0841  -20.5476   18.4476 C   0  0  0  0  0  0  0  0  0  0  0  0
  -30.3132  -26.7174   19.7415 C   0  0  0  0  0  0  0  0  0  0  0  0
  -28.4668  -25.1217   18.8175 C   0  0  2  0  0  0  0  0  0  0  0  0
  -23.3450  -24.8457   24.2283 C   0  0  1  0  0  0  0  0  0  0  0  0
  -23.7608  -21.3531   22.8146 C   0  0  2  0  0  0  0  0  0  0  0  0
  -29.5839  -26.1633   18.4901 C   0  0  2  0  0  0  0  0  0  0  0  0
  -29.3958  -27.3615   20.7888 C   0  0  2  0  0  0  0  0  0  1  0  0
  -29.5874  -22.5652   22.9765 C   0  0  0  0  0  0  0  0  0  0  0  0
  -23.0084  -25.0602   25.7310 C   0  0  0  0  0  0  0  0  0  0  0  0
  -25.5041  -14.9191   20.2009 N   0  0  0  0  0  0  0  0  0  0  0  0
  -29.2852  -22.8176   18.7081 N   0  0  0  0  0  0  0  0  0  0  0  0
  -26.0427  -16.1018   20.5431 N   0  0  0  0  0  0  0  0  0  0  0  0
  -23.1981  -26.6148   22.5042 N   0  0  0  0  0  0  0  0  0  0  0  0
  -27.0929  -18.4545   17.7198 N   0  0  0  0  0  0  0  0  0  0  0  0
  -27.1974  -17.2187   22.2838 N   0  0  0  0  0  0  0  0  0  0  0  0
  -26.6005  -13.0567   23.9323 N   0  0  0  0  0  0  0  0  0  0  0  0
  -21.2694  -29.6162   22.4572 N   0  0  0  0  0  0  0  0  0  0  0  0
  -23.1654  -23.4738   23.7657 N   0  0  0  0  0  0  0  0  0  0  0  0
  -29.0785  -19.5086   18.4545 N   0  0  0  0  0  0  0  0  0  0  0  0
  -24.4932  -20.9048   21.5966 N   0  3  0  0  0  0  0  0  0  0  0  0
  -27.4604  -15.1335   24.3861 O   0  0  0  0  0  0  0  0  0  0  0  0
  -23.3913  -29.1368   23.2880 O   0  0  0  0  0  0  0  0  0  0  0  0
  -21.2771  -25.5843   23.3314 O   0  0  0  0  0  0  0  0  0  0  0  0
  -25.3471  -23.1608   23.0449 O   0  0  0  0  0  0  0  0  0  0  0  0
  -27.8278  -20.4402   16.7738 O   0  0  0  0  0  0  0  0  0  0  0  0
  -24.0578   -8.8252   21.3507 O   0  0  0  0  0  0  0  0  0  0  0  0
  -28.6244  -28.3885   20.1671 O   0  0  0  0  0  0  0  0  0  1  0  0
  -21.6003   -6.9813   25.9294 F   0  0  0  0  0  0  0  0  0  0  0  0
  -21.4732   -7.8468   21.2775 F   0  0  0  0  0  0  0  0  0  0  0  0
  1  2  1  0  0  0  0
  1  5  2  0  0  0  0
  2  6  2  0  0  0  0
  3  8  2  0  0  0  0
  3 17  1  0  0  0  0
  4  9  1  0  0  0  0
  4 17  2  0  0  0  0
  5 19  1  0  0  0  0
  6 21  1  0  0  0  0
  7 10  2  0  0  0  0
  7 20  1  0  0  0  0
  8 24  1  0  0  0  0
  9 24  2  0  0  0  0
 10 25  1  0  0  0  0
 11 12  2  0  0  0  0
 11 26  1  0  0  0  0
 12 27  1  0  0  0  0
 13 22  1  0  0  0  0
 13 25  2  0  0  0  0
 14 23  1  0  0  0  0
 14 30  2  0  0  0  0
 15 23  2  0  0  0  0
 15 31  1  0  0  0  0
 16 27  2  0  0  0  0
 16 28  1  0  0  0  0
 17 29  1  0  0  0  0
 18 29  1  0  0  0  0
 18 32  2  0  0  0  0
 18 33  1  0  0  0  0
 19 21  2  0  0  0  0
 19 38  1  0  0  0  0
 20 22  2  0  0  0  0
 20 39  1  0  0  0  0
 21 47  1  0  0  0  0
 22 40  1  0  0  0  0
 23 68  1  0  0  0  0
 24 86  1  0  0  0  0
 25 87  1  0  0  0  0
 26 28  2  0  0  0  0
 26 86  1  0  0  0  0
 27 88  1  0  0  0  0
 28 89  1  0  0  0  0
 29 70  2  0  0  0  0
 30 61  1  0  0  0  0
 30 71  1  0  0  0  0
 31 63  1  0  0  0  0
 31 71  2  0  0  0  0
 32 72  1  0  0  0  0
 32 75  1  0  0  0  0
 33 76  1  0  0  0  0
 33 81  2  0  0  0  0
 34 48  1  0  0  0  0
 34 77  1  0  0  0  0
 34 82  2  0  0  0  0
 35 64  1  0  0  0  0
 35 73  1  0  0  0  0
 35 83  2  0  0  0  0
 36 65  1  0  0  0  0
 36 78  1  0  0  0  0
 36 84  2  0  0  0  0
 37 74  1  0  0  0  0
 37 79  1  0  0  0  0
 37 85  2  0  0  0  0
 38 41  1  0  0  0  0
 39 48  1  0  0  0  0
 40 73  1  0  0  0  0
 41 43  1  0  0  0  0
 42 44  1  0  0  0  0
 42 45  1  0  0  0  0
 43 47  1  0  0  0  0
 44 49  1  0  0  0  0
 45 74  1  0  0  0  0
 46 49  1  0  0  0  0
 46 74  1  0  0  0  0
 47 77  1  0  0  0  0
 48 73  1  0  0  0  0
 49 72  1  0  0  0  0
 50 63  1  0  0  0  0
 51 65  1  0  0  0  0
 52 66  1  0  0  0  0
 53 67  1  0  0  0  0
 54 68  1  0  0  0  0
 55 68  1  0  0  0  0
 56 68  1  0  0  0  0
 57 69  1  0  0  0  0
 58 69  1  0  0  0  0
 59 69  1  0  0  0  0
 60 80  1  0  0  0  0
 61 79  1  0  0  0  0
 62 66  1  0  0  0  0
 62 67  1  0  0  0  0
 63 66  1  0  0  0  0
 64 69  1  0  0  0  0
 64 78  1  0  0  0  0
 65 80  1  0  0  0  0
 67 87  1  0  0  0  0
 70 72  1  0  0  0  0
M  CHG  1  80   1
M  ISO  4  37 100  67 101  79 100  87 101
M  END
> <Batch ID>
0100

> <Smiles>
CNC(C)C(=O)NC(C(=O)N1Cc2cc([101O:1][101CH:1](C)CC(C)C(C)c3cc(C(C)(C)C)cc(C[100NH:0][100C:0](=O)N4CCCC(n5nc(-c6ccc(Oc7ccc(F)cc7F)cc6)c(C(N)=O)c5N)C4)n3)ccc2CC1C(=O)NC1CCCc2ccccc21)C(C)(C)C

> <Shape>
0.223

> <Color>
0.088

> <Negative vol penalty>
0.000

$$$$

  -OEChem-04052319333D

 83 91  0     1  0  0  0  0  0999 V2000
  -18.6183  -32.6622   20.0570 C   0  0  0  0  0  0  0  0  0  0  0  0
  -19.9143  -32.3151   19.6891 C   0  0  0  0  0  0  0  0  0  0  0  0
  -27.2650  -17.5739   20.0454 C   0  0  0  0  0  0  0  0  0  0  0  0
  -29.4224  -17.0386   20.9921 C   0  0  0  0  0  0  0  0  0  0  0  0
  -18.1456  -32.3389   21.3282 C   0  0  0  0  0  0  0  0  0  0  0  0
  -20.7387  -31.6455   20.5926 C   0  0  0  0  0  0  0  0  0  0  0  0
  -24.9542  -27.4007   19.2820 C   0  0  0  0  0  0  0  0  0  0  0  0
  -27.0232  -16.2173   19.8294 C   0  0  0  0  0  0  0  0  0  0  0  0
  -29.1806  -15.6820   20.7762 C   0  0  0  0  0  0  0  0  0  0  0  0
  -26.3384  -27.4690   19.1299 C   0  0  0  0  0  0  0  0  0  0  0  0
  -26.0599  -13.5377   21.6529 C   0  0  0  0  0  0  0  0  0  0  0  0
  -24.8057  -13.0389   22.0043 C   0  0  0  0  0  0  0  0  0  0  0  0
  -26.6185  -26.7776   21.4240 C   0  0  0  0  0  0  0  0  0  0  0  0
  -31.2082  -26.9657   19.8344 C   0  0  0  0  0  0  0  0  0  0  0  0
  -24.4301  -12.3693   19.7135 C   0  0  0  0  0  0  0  0  0  0  0  0
  -31.2611  -28.2265   17.8184 C   0  0  0  0  0  0  0  0  0  0  0  0
  -28.4647  -17.9846   20.6266 C   0  0  0  0  0  0  0  0  0  0  0  0
  -28.3970  -20.1343   21.9985 C   0  0  0  0  0  0  0  0  0  0  0  0
  -18.9614  -31.6565   22.2444 C   0  0  0  0  0  0  0  0  0  0  0  0
  -24.3907  -27.0303   20.5115 C   0  0  0  0  0  0  0  0  0  0  0  0
  -20.2769  -31.3140   21.8777 C   0  0  0  0  0  0  0  0  0  0  0  0
  -25.2270  -26.7029   21.5884 C   0  0  0  0  0  0  0  0  0  0  0  0
  -30.5191  -27.6048   18.8097 C   0  0  0  0  0  0  0  0  0  0  0  0
  -32.5986  -26.9678   19.8365 C   0  0  0  0  0  0  0  0  0  0  0  0
  -27.9809  -15.2713   20.1949 C   0  0  0  0  0  0  0  0  0  0  0  0
  -27.1707  -27.1603   20.2018 C   0  0  0  0  0  0  0  0  0  0  0  0
  -26.4993  -13.4524   20.3317 C   0  0  0  0  0  0  0  0  0  0  0  0
  -23.9907  -12.4547   21.0347 C   0  0  0  0  0  0  0  0  0  0  0  0
  -25.6844  -12.8682   19.3621 C   0  0  0  0  0  0  0  0  0  0  0  0
  -28.7154  -19.3859   20.8494 C   0  0  0  0  0  0  0  0  0  0  0  0
  -33.2476  -27.6179   18.7991 C   0  0  0  0  0  0  0  0  0  0  0  0
  -28.8376  -21.4038   21.7144 C   0  0  0  0  0  0  0  0  0  0  0  0
  -27.7601  -19.7190   23.2140 C   0  0  0  0  0  0  0  0  0  0  0  0
  -22.4882  -28.4498   22.6256 C   0  0  0  0  0  0  0  0  0  0  0  0
  -22.5396  -25.5339   24.0459 C   0  0  0  0  0  0  0  0  0  0  0  0
  -24.1588  -22.5660   24.5111 C   0  0  0  0  0  0  0  0  0  0  0  0
  -33.4095  -23.7168   18.7428 C   0  0  0  0  0  0  0  0  0  0  0  0
  -18.4223  -31.3704   23.6236 C   0  0  0  0  0  0  0  0  0  0  0  0
  -22.8961  -26.9356   20.6516 C   0  0  0  0  0  0  0  0  0  0  0  0
  -24.6722  -26.2800   22.9232 C   0  0  0  0  0  0  0  0  0  0  0  0
  -19.2327  -30.3284   24.3903 C   0  0  0  0  0  0  0  0  0  0  0  0
  -29.8966  -23.9005   17.5907 C   0  0  0  0  0  0  0  0  0  0  0  0
  -20.7248  -30.6258   24.2801 C   0  0  0  0  0  0  0  0  0  0  0  0
  -29.2295  -22.7717   18.3747 C   0  0  0  0  0  0  0  0  0  0  0  0
  -31.3769  -23.6234   17.3460 C   0  0  0  0  0  0  0  0  0  0  0  0
  -31.4814  -22.2060   19.3695 C   0  0  0  0  0  0  0  0  0  0  0  0
  -21.1931  -30.5653   22.8212 C   0  0  1  0  0  0  0  0  0  0  0  0
  -22.4234  -27.0444   22.0980 C   0  0  1  0  0  0  0  0  0  0  0  0
  -30.0000  -22.4758   19.6732 C   0  0  2  0  0  0  0  0  0  0  0  0
  -34.7402  -27.6519   18.7491 C   0  0  0  0  0  0  0  0  0  0  0  0
  -33.0682  -26.9331   22.3067 C   0  0  0  0  0  0  0  0  0  0  0  0
  -23.9747  -20.3958   25.7576 C   0  0  0  0  0  0  0  0  0  0  0  0
  -23.4011  -26.9386   26.6139 C   0  0  0  0  0  0  0  0  0  0  0  0
  -24.1083  -24.7113   27.5125 C   0  0  0  0  0  0  0  0  0  0  0  0
  -21.7160  -25.1188   26.9352 C   0  0  0  0  0  0  0  0  0  0  0  0
  -35.2452  -23.8102   20.3863 C   0  0  0  0  0  0  0  0  0  0  0  0
  -24.0738  -20.9984   22.0022 C   0  0  0  0  0  0  0  0  0  0  0  0
  -29.0191  -27.6200   18.7776 C   0  0  0  0  0  0  0  0  0  1  0  0
  -33.0608  -24.7662   21.0187 C   0  0  0  0  0  0  0  0  0  0  0  0
  -33.3431  -26.2865   20.9323 C   0  0  1  0  0  0  0  0  0  0  0  0
  -23.4128  -24.8629   25.0785 C   0  0  1  0  0  0  0  0  0  0  0  0
  -23.6656  -21.1311   24.4628 C   0  0  2  0  0  0  0  0  0  0  0  0
  -23.1703  -25.4177   26.5106 C   0  0  0  0  0  0  0  0  0  0  0  0
  -32.6124  -28.2496   17.7866 N   0  0  0  0  0  0  0  0  0  0  0  0
  -29.3120  -20.1189   19.9056 N   0  0  0  0  0  0  0  0  0  0  0  0
  -29.3719  -21.3412   20.4611 N   0  0  0  0  0  0  0  0  0  0  0  0
  -23.2044  -26.2087   23.0123 N   0  0  0  0  0  0  0  0  0  0  0  0
  -32.0760  -23.3027   18.5908 N   0  0  0  0  0  0  0  0  0  0  0  0
  -28.8161  -22.5564   22.4168 N   0  0  0  0  0  0  0  0  0  0  0  0
  -27.3712  -18.3784   23.3403 N   0  0  0  0  0  0  0  0  0  0  0  0
  -21.3445  -29.1903   22.3956 N   0  0  0  0  0  0  0  0  0  0  0  0
  -23.1754  -23.4297   24.9448 N   0  0  0  0  0  0  0  0  0  0  0  0
  -33.8440  -24.0094   20.0445 N   0  0  0  0  0  0  0  0  0  0  0  0
  -24.3147  -20.3978   23.3394 N   0  3  0  0  0  0  0  0  0  0  0  0
  -27.5274  -20.5168   24.1536 O   0  0  0  0  0  0  0  0  0  0  0  0
  -23.5003  -28.8334   23.2002 O   0  0  0  0  0  0  0  0  0  0  0  0
  -21.3128  -25.4559   24.1487 O   0  0  0  0  0  0  0  0  0  0  0  0
  -25.3032  -22.8879   24.1991 O   0  0  0  0  0  0  0  0  0  0  0  0
  -34.1657  -23.8284   17.7693 O   0  0  0  0  0  0  0  0  0  0  0  0
  -27.7451  -13.9474   19.9846 O   0  0  0  0  0  0  0  0  0  0  0  0
  -28.5221  -27.2267   20.0562 O   0  0  0  0  0  0  0  0  0  1  0  0
  -22.7869  -11.9743   21.3726 F   0  0  0  0  0  0  0  0  0  0  0  0
  -26.1015  -12.7823   18.0915 F   0  0  0  0  0  0  0  0  0  0  0  0
  1  2  1  0  0  0  0
  1  5  2  0  0  0  0
  2  6  2  0  0  0  0
  3  8  2  0  0  0  0
  3 17  1  0  0  0  0
  4  9  1  0  0  0  0
  4 17  2  0  0  0  0
  5 19  1  0  0  0  0
  6 21  1  0  0  0  0
  7 10  2  0  0  0  0
  7 20  1  0  0  0  0
  8 25  1  0  0  0  0
  9 25  2  0  0  0  0
 10 26  1  0  0  0  0
 11 12  2  0  0  0  0
 11 27  1  0  0  0  0
 12 28  1  0  0  0  0
 13 22  1  0  0  0  0
 13 26  2  0  0  0  0
 14 23  2  0  0  0  0
 14 24  1  0  0  0  0
 15 28  2  0  0  0  0
 15 29  1  0  0  0  0
 16 23  1  0  0  0  0
 16 64  2  0  0  0  0
 17 30  1  0  0  0  0
 18 30  1  0  0  0  0
 18 32  2  0  0  0  0
 18 33  1  0  0  0  0
 19 21  2  0  0  0  0
 19 38  1  0  0  0  0
 20 22  2  0  0  0  0
 20 39  1  0  0  0  0
 21 47  1  0  0  0  0
 22 40  1  0  0  0  0
 23 58  1  0  0  0  0
 24 31  2  0  0  0  0
 24 60  1  0  0  0  0
 25 80  1  0  0  0  0
 26 81  1  0  0  0  0
 27 29  2  0  0  0  0
 27 80  1  0  0  0  0
 28 82  1  0  0  0  0
 29 83  1  0  0  0  0
 30 65  2  0  0  0  0
 31 50  1  0  0  0  0
 31 64  1  0  0  0  0
 32 66  1  0  0  0  0
 32 69  1  0  0  0  0
 33 70  1  0  0  0  0
 33 75  2  0  0  0  0
 34 48  1  0  0  0  0
 34 71  1  0  0  0  0
 34 76  2  0  0  0  0
 35 61  1  0  0  0  0
 35 67  1  0  0  0  0
 35 77  2  0  0  0  0
 36 62  1  0  0  0  0
 36 72  1  0  0  0  0
 36 78  2  0  0  0  0
 37 68  1  0  0  0  0
 37 73  1  0  0  0  0
 37 79  2  0  0  0  0
 38 41  1  0  0  0  0
 39 48  1  0  0  0  0
 40 67  1  0  0  0  0
 41 43  1  0  0  0  0
 42 44  1  0  0  0  0
 42 45  1  0  0  0  0
 43 47  1  0  0  0  0
 44 49  1  0  0  0  0
 45 68  1  0  0  0  0
 46 49  1  0  0  0  0
 46 68  1  0  0  0  0
 47 71  1  0  0  0  0
 48 67  1  0  0  0  0
 49 66  1  0  0  0  0
 51 60  1  0  0  0  0
 52 62  1  0  0  0  0
 53 63  1  0  0  0  0
 54 63  1  0  0  0  0
 55 63  1  0  0  0  0
 56 73  1  0  0  0  0
 57 74  1  0  0  0  0
 58 81  1  0  0  0  0
 59 60  1  0  0  0  0
 59 73  1  0  0  0  0
 61 63  1  0  0  0  0
 61 72  1  0  0  0  0
 62 74  1  0  0  0  0
 65 66  1  0  0  0  0
M  CHG  1  74   1
M  ISO  4  37 100  58 101  73 100  81 101
M  END
> <Batch ID>
0100

> <Smiles>
CNC(C)C(=O)NC(C(=O)N1Cc2cc([101O:1][101CH2:1]c3cnc(C)c(C(C)C[100N:0](C)[100C:0](=O)N4CCCC(n5nc(-c6ccc(Oc7ccc(F)cc7F)cc6)c(C(N)=O)c5N)C4)c3)ccc2CC1C(=O)NC1CCCc2ccccc21)C(C)(C)C

> <Shape>
0.195

> <Color>
0.095

> <Negative vol penalty>
0.000

$$$$

  -OEChem-04052319333D

 82 89  0     1  0  0  0  0  0999 V2000
  -17.6341  -25.8127   22.7876 C   0  0  0  0  0  0  0  0  0  0  0  0
  -18.9029  -25.4631   22.3369 C   0  0  0  0  0  0  0  0  0  0  0  0
  -23.3903  -14.9922   21.2478 C   0  0  0  0  0  0  0  0  0  0  0  0
  -25.6909  -15.6490   21.5838 C   0  0  0  0  0  0  0  0  0  0  0  0
  -17.2354  -27.1487   22.7771 C   0  0  0  0  0  0  0  0  0  0  0  0
  -19.7735  -26.4493   21.8743 C   0  0  0  0  0  0  0  0  0  0  0  0
  -25.8665  -26.5608   22.4815 C   0  0  0  0  0  0  0  0  0  0  0  0
  -23.8083  -13.7097   20.8927 C   0  0  0  0  0  0  0  0  0  0  0  0
  -26.1089  -14.3665   21.2288 C   0  0  0  0  0  0  0  0  0  0  0  0
  -26.9020  -26.2120   21.6156 C   0  0  0  0  0  0  0  0  0  0  0  0
  -24.8499  -10.9043   22.4668 C   0  0  0  0  0  0  0  0  0  0  0  0
  -24.1626   -9.8228   23.0177 C   0  0  0  0  0  0  0  0  0  0  0  0
  -27.1088  -28.5193   20.9429 C   0  0  0  0  0  0  0  0  0  0  0  0
  -23.5606   -9.0757   20.8004 C   0  0  0  0  0  0  0  0  0  0  0  0
  -24.3316  -15.9619   21.5932 C   0  0  0  0  0  0  0  0  0  0  0  0
  -23.5800  -17.7505   23.2496 C   0  0  0  0  0  0  0  0  0  0  0  0
  -18.1050  -28.1528   22.3232 C   0  0  0  0  0  0  0  0  0  0  0  0
  -25.4364  -27.8921   22.5767 C   0  0  0  0  0  0  0  0  0  0  0  0
  -19.3856  -27.7998   21.8564 C   0  0  0  0  0  0  0  0  0  0  0  0
  -26.0694  -28.8829   21.8127 C   0  0  0  0  0  0  0  0  0  0  0  0
  -25.1676  -13.3969   20.8832 C   0  0  0  0  0  0  0  0  0  0  0  0
  -27.5214  -27.1908   20.8440 C   0  0  0  0  0  0  0  0  0  0  0  0
  -24.8924  -11.0716   21.0826 C   0  0  0  0  0  0  0  0  0  0  0  0
  -23.5180   -8.9085   22.1846 C   0  0  0  0  0  0  0  0  0  0  0  0
  -24.2479  -10.1573   20.2494 C   0  0  0  0  0  0  0  0  0  0  0  0
  -23.9005  -17.2871   21.9595 C   0  0  0  0  0  0  0  0  0  0  0  0
  -23.2322  -19.0664   23.0652 C   0  0  0  0  0  0  0  0  0  0  0  0
  -23.5954  -17.0539   24.5027 C   0  0  0  0  0  0  0  0  0  0  0  0
  -22.7062  -29.4141   21.9993 C   0  0  0  0  0  0  0  0  0  0  0  0
  -24.2940  -31.9368   23.2789 C   0  0  0  0  0  0  0  0  0  0  0  0
  -27.2844  -33.4226   23.9836 C   0  0  0  0  0  0  0  0  0  0  0  0
  -24.7524  -22.9939   18.9277 C   0  0  0  0  0  0  0  0  0  0  0  0
  -17.6122  -29.5778   22.2864 C   0  0  0  0  0  0  0  0  0  0  0  0
  -24.3360  -28.2564   23.5353 C   0  0  0  0  0  0  0  0  0  0  0  0
  -25.6586  -30.3297   21.8931 C   0  0  0  0  0  0  0  0  0  0  0  0
  -18.7306  -30.6052   22.1311 C   0  0  0  0  0  0  0  0  0  0  0  0
  -21.3746  -22.0257   19.7941 C   0  0  0  0  0  0  0  0  0  0  0  0
  -19.6969  -30.1801   21.0301 C   0  0  0  0  0  0  0  0  0  0  0  0
  -21.6196  -20.7341   20.5764 C   0  0  0  0  0  0  0  0  0  0  0  0
  -22.3446  -22.1554   18.6235 C   0  0  0  0  0  0  0  0  0  0  0  0
  -24.0304  -20.7836   19.7853 C   0  0  0  0  0  0  0  0  0  0  0  0
  -20.3675  -28.8437   21.3702 C   0  0  1  0  0  0  0  0  0  0  0  0
  -23.6344  -29.5613   23.1717 C   0  0  1  0  0  0  0  0  0  0  0  0
  -23.0960  -20.6044   20.9957 C   0  0  2  0  0  0  0  0  0  0  0  0
  -28.2615  -35.4985   25.0000 C   0  0  0  0  0  0  0  0  0  0  0  0
  -25.1625  -25.0700   15.4916 C   0  0  0  0  0  0  0  0  0  0  0  0
  -24.6113  -26.5748   18.0828 C   0  0  0  0  0  0  0  0  0  0  0  0
  -29.9037  -23.7646   17.9730 C   0  0  0  0  0  0  0  0  0  0  0  0
  -30.1610  -25.0069   15.7901 C   0  0  0  0  0  0  0  0  0  0  0  0
  -23.5815  -33.5030   20.7590 C   0  0  0  0  0  0  0  0  0  0  0  0
  -25.3360  -35.1753   21.3864 C   0  0  0  0  0  0  0  0  0  0  0  0
  -23.3785  -34.8015   22.8867 C   0  0  0  0  0  0  0  0  0  0  0  0
  -28.6758  -31.8766   26.0890 C   0  0  0  0  0  0  0  0  0  0  0  0
  -29.3186  -26.8089   17.7255 C   0  0  0  0  0  0  0  0  0  0  0  0
  -27.2691  -26.0384   16.5396 C   0  0  0  0  0  0  0  0  0  0  0  0
  -28.6852  -27.6447   18.8202 C   0  0  0  0  0  0  0  0  0  1  0  0
  -25.1778  -33.0321   22.7329 C   0  0  1  0  0  0  0  0  0  0  0  0
  -27.8150  -34.0667   25.2517 C   0  0  2  0  0  0  0  0  0  0  0  0
  -26.1189  -25.0305   16.6936 C   0  0  1  0  0  0  0  0  0  0  0  0
  -25.3286  -25.2278   18.0141 C   0  0  2  0  0  0  0  0  0  0  0  0
  -29.1922  -24.4851   16.8390 C   0  0  0  0  0  0  0  0  0  0  0  0
  -24.3751  -34.1005   21.9381 C   0  0  0  0  0  0  0  0  0  0  0  0
  -23.7679  -18.2317   21.0246 N   0  0  0  0  0  0  0  0  0  0  0  0
  -23.3601  -19.3018   21.7279 N   0  0  0  0  0  0  0  0  0  0  0  0
  -24.5737  -30.6348   22.8404 N   0  0  0  0  0  0  0  0  0  0  0  0
  -23.7328  -22.0418   19.0929 N   0  0  0  0  0  0  0  0  0  0  0  0
  -22.8323  -20.0334   23.9180 N   0  0  0  0  0  0  0  0  0  0  0  0
  -23.9781  -15.7056   24.5129 N   0  0  0  0  0  0  0  0  0  0  0  0
  -21.4211  -29.0399   22.3428 N   0  0  0  0  0  0  0  0  0  0  0  0
  -25.9175  -33.5655   23.8716 N   0  0  0  0  0  0  0  0  0  0  0  0
  -24.3899  -24.1546   18.2552 N   0  0  0  0  0  0  0  0  0  0  0  0
  -28.9784  -33.2969   25.7759 N   0  3  0  0  0  0  0  0  0  0  0  0
  -28.4358  -25.6559   17.4163 N   0  3  1  0  0  0  0  0  0  0  0  0
  -23.2634  -17.6060   25.5790 O   0  0  0  0  0  0  0  0  0  0  0  0
  -23.1246  -29.6258   20.8671 O   0  0  0  0  0  0  0  0  0  0  0  0
  -23.3932  -32.2250   24.0709 O   0  0  0  0  0  0  0  0  0  0  0  0
  -28.0103  -32.8532   23.1717 O   0  0  0  0  0  0  0  0  0  0  0  0
  -25.9002  -22.8246   19.3529 O   0  0  0  0  0  0  0  0  0  0  0  0
  -25.5758  -12.1454   20.5371 O   0  0  0  0  0  0  0  0  0  0  0  0
  -28.5319  -26.8528   19.9975 O   0  0  0  0  0  0  0  0  0  1  0  0
  -22.8594   -7.8691   22.7138 F   0  0  0  0  0  0  0  0  0  0  0  0
  -24.2863  -10.3121   18.9189 F   0  0  0  0  0  0  0  0  0  0  0  0
  1  2  1  0  0  0  0
  1  5  2  0  0  0  0
  2  6  2  0  0  0  0
  3  8  2  0  0  0  0
  3 15  1  0  0  0  0
  4  9  1  0  0  0  0
  4 15  2  0  0  0  0
  5 17  1  0  0  0  0
  6 19  1  0  0  0  0
  7 10  2  0  0  0  0
  7 18  1  0  0  0  0
  8 21  1  0  0  0  0
  9 21  2  0  0  0  0
 10 22  1  0  0  0  0
 11 12  2  0  0  0  0
 11 23  1  0  0  0  0
 12 24  1  0  0  0  0
 13 20  1  0  0  0  0
 13 22  2  0  0  0  0
 14 24  2  0  0  0  0
 14 25  1  0  0  0  0
 15 26  1  0  0  0  0
 16 26  1  0  0  0  0
 16 27  2  0  0  0  0
 16 28  1  0  0  0  0
 17 19  2  0  0  0  0
 17 33  1  0  0  0  0
 18 20  2  0  0  0  0
 18 34  1  0  0  0  0
 19 42  1  0  0  0  0
 20 35  1  0  0  0  0
 21 79  1  0  0  0  0
 22 80  1  0  0  0  0
 23 25  2  0  0  0  0
 23 79  1  0  0  0  0
 24 81  1  0  0  0  0
 25 82  1  0  0  0  0
 26 63  2  0  0  0  0
 27 64  1  0  0  0  0
 27 67  1  0  0  0  0
 28 68  1  0  0  0  0
 28 74  2  0  0  0  0
 29 43  1  0  0  0  0
 29 69  1  0  0  0  0
 29 75  2  0  0  0  0
 30 57  1  0  0  0  0
 30 65  1  0  0  0  0
 30 76  2  0  0  0  0
 31 58  1  0  0  0  0
 31 70  1  0  0  0  0
 31 77  2  0  0  0  0
 32 66  1  0  0  0  0
 32 71  1  0  0  0  0
 32 78  2  0  0  0  0
 33 36  1  0  0  0  0
 34 43  1  0  0  0  0
 35 65  1  0  0  0  0
 36 38  1  0  0  0  0
 37 39  1  0  0  0  0
 37 40  1  0  0  0  0
 38 42  1  0  0  0  0
 39 44  1  0  0  0  0
 40 66  1  0  0  0  0
 41 44  1  0  0  0  0
 41 66  1  0  0  0  0
 42 69  1  0  0  0  0
 43 65  1  0  0  0  0
 44 64  1  0  0  0  0
 45 58  1  0  0  0  0
 46 59  1  0  0  0  0
 47 60  1  0  0  0  0
 48 61  1  0  0  0  0
 49 61  1  0  0  0  0
 50 62  1  0  0  0  0
 51 62  1  0  0  0  0
 52 62  1  0  0  0  0
 53 72  1  0  0  0  0
 54 56  1  0  0  0  0
 54 73  1  0  0  0  0
 55 59  1  0  0  0  0
 55 73  1  0  0  0  0
 56 80  1  0  0  0  0
 57 62  1  0  0  0  0
 57 70  1  0  0  0  0
 58 72  1  0  0  0  0
 59 60  1  0  0  0  0
 60 71  1  0  0  0  0
 61 73  1  0  0  0  0
 63 64  1  0  0  0  0
M  CHG  2  72   1  73   1
M  ISO  4  32 100  56 101  71 100  80 101
M  END
> <Batch ID>
0100

> <Smiles>
CNC(C)C(=O)NC(C(=O)N1Cc2cc([101O:1][101CH2:1]CN(CC(C)C(C)[100NH:0][100C:0](=O)N3CCCC(n4nc(-c5ccc(Oc6ccc(F)cc6F)cc5)c(C(N)=O)c4N)C3)C(C)C)ccc2CC1C(=O)NC1CCCc2ccccc21)C(C)(C)C

> <Shape>
0.233

> <Color>
0.090

> <Negative vol penalty>
0.000

$$$$

  -OEChem-04052319333D

 93102  0     1  0  0  0  0  0999 V2000
  -16.8759  -29.6631   24.5532 C   0  0  0  0  0  0  0  0  0  0  0  0
  -17.2886  -28.4706   23.9674 C   0  0  0  0  0  0  0  0  0  0  0  0
  -25.6573  -18.7504   16.7656 C   0  0  0  0  0  0  0  0  0  0  0  0
  -30.7683  -22.7820   18.3745 C   0  0  0  0  0  0  0  0  0  0  0  0
  -28.7440  -22.0176   17.2998 C   0  0  0  0  0  0  0  0  0  0  0  0
  -17.4797  -30.8647   24.1853 C   0  0  0  0  0  0  0  0  0  0  0  0
  -18.3047  -28.4793   23.0124 C   0  0  0  0  0  0  0  0  0  0  0  0
  -22.5615  -24.1664   22.1266 C   0  0  0  0  0  0  0  0  0  0  0  0
  -24.9943  -19.9617   16.5670 C   0  0  0  0  0  0  0  0  0  0  0  0
  -31.1513  -23.4236   17.1967 C   0  0  0  0  0  0  0  0  0  0  0  0
  -29.1270  -22.6593   16.1220 C   0  0  0  0  0  0  0  0  0  0  0  0
  -22.6567  -23.1157   21.2152 C   0  0  0  0  0  0  0  0  0  0  0  0
  -32.4901  -25.5652   14.5821 C   0  0  0  0  0  0  0  0  0  0  0  0
  -32.9893  -26.8636   14.6838 C   0  0  0  0  0  0  0  0  0  0  0  0
  -25.7249  -16.5051   17.7438 C   0  0  0  0  0  0  0  0  0  0  0  0
  -23.2108  -16.9228   18.8761 C   0  0  0  0  0  0  0  0  0  0  0  0
  -24.0153  -24.4950   19.7762 C   0  0  0  0  0  0  0  0  0  0  0  0
  -30.9042  -27.5884   15.6657 C   0  0  0  0  0  0  0  0  0  0  0  0
  -25.0720  -17.7306   17.5335 C   0  0  0  0  0  0  0  0  0  0  0  0
  -23.7961  -17.9426   18.1081 C   0  0  0  0  0  0  0  0  0  0  0  0
  -29.5647  -22.0789   18.4261 C   0  0  0  0  0  0  0  0  0  0  0  0
  -28.4059  -21.9547   20.6953 C   0  0  0  0  0  0  0  0  0  0  0  0
  -18.5103  -30.8870   23.2324 C   0  0  0  0  0  0  0  0  0  0  0  0
  -23.1844  -25.3950   21.8641 C   0  0  0  0  0  0  0  0  0  0  0  0
  -18.9219  -29.6826   22.6304 C   0  0  0  0  0  0  0  0  0  0  0  0
  -23.9286  -25.5589   20.6870 C   0  0  0  0  0  0  0  0  0  0  0  0
  -23.7396  -20.1702   17.1320 C   0  0  0  0  0  0  0  0  0  0  0  0
  -25.1285  -15.5030   18.5096 C   0  0  0  0  0  0  0  0  0  0  0  0
  -23.8739  -15.7114   19.0747 C   0  0  0  0  0  0  0  0  0  0  0  0
  -23.1432  -19.1680   17.8978 C   0  0  0  0  0  0  0  0  0  0  0  0
  -30.3307  -23.3623   16.0705 C   0  0  0  0  0  0  0  0  0  0  0  0
  -23.3813  -23.2808   20.0384 C   0  0  0  0  0  0  0  0  0  0  0  0
  -31.1979  -25.2783   15.0221 C   0  0  0  0  0  0  0  0  0  0  0  0
  -32.1964  -27.8752   15.2256 C   0  0  0  0  0  0  0  0  0  0  0  0
  -30.4049  -26.2899   15.5639 C   0  0  0  0  0  0  0  0  0  0  0  0
  -29.1688  -21.4154   19.6422 C   0  0  0  0  0  0  0  0  0  0  0  0
  -28.3072  -20.9319   21.6067 C   0  0  0  0  0  0  0  0  0  0  0  0
  -27.8371  -23.2632   20.8369 C   0  0  0  0  0  0  0  0  0  0  0  0
  -22.1730  -28.3802   21.4527 C   0  0  0  0  0  0  0  0  0  0  0  0
  -25.3494  -29.0365   21.4055 C   0  0  0  0  0  0  0  0  0  0  0  0
  -28.5296  -27.9250   20.8600 C   0  0  0  0  0  0  0  0  0  0  0  0
  -28.6183  -14.9740   21.0990 C   0  0  0  0  0  0  0  0  0  0  0  0
  -19.1004  -32.2160   22.8322 C   0  0  0  0  0  0  0  0  0  0  0  0
  -23.0945  -26.5098   22.8699 C   0  0  0  0  0  0  0  0  0  0  0  0
  -24.6330  -26.8513   20.3676 C   0  0  0  0  0  0  0  0  0  0  0  0
  -20.4270  -32.0938   22.0869 C   0  0  0  0  0  0  0  0  0  0  0  0
  -30.6477  -17.0564   23.1537 C   0  0  0  0  0  0  0  0  0  0  0  0
  -20.3336  -31.0252   21.0024 C   0  0  0  0  0  0  0  0  0  0  0  0
  -30.4300  -18.4583   22.5818 C   0  0  0  0  0  0  0  0  0  0  0  0
  -30.6624  -15.9950   22.0558 C   0  0  0  0  0  0  0  0  0  0  0  0
  -29.2668  -17.4078   20.5963 C   0  0  0  0  0  0  0  0  0  0  0  0
  -20.0379  -29.6481   21.6088 C   0  0  1  0  0  0  0  0  0  0  0  0
  -23.3402  -27.8863   22.2597 C   0  0  1  0  0  0  0  0  0  0  0  0
  -29.1885  -18.5057   21.6708 C   0  0  2  0  0  0  0  0  0  0  0  0
  -30.9158  -28.7021   20.8637 C   0  0  0  0  0  0  0  0  0  0  0  0
  -21.9864  -13.5760   17.9418 C   0  0  0  0  0  0  0  0  0  0  0  0
  -21.2399  -13.1290   20.2884 C   0  0  0  0  0  0  0  0  0  0  0  0
  -20.6338  -17.5290   17.2533 C   0  0  0  0  0  0  0  0  0  0  0  0
  -19.2813  -19.3887   18.2414 C   0  0  0  0  0  0  0  0  0  0  0  0
  -24.8902  -30.4512   18.7413 C   0  0  0  0  0  0  0  0  0  0  0  0
  -27.3609  -30.3606   18.3468 C   0  0  0  0  0  0  0  0  0  0  0  0
  -26.4563  -31.6318   20.2932 C   0  0  0  0  0  0  0  0  0  0  0  0
  -29.2742  -26.0019   22.9827 C   0  0  0  0  0  0  0  0  0  0  0  0
  -23.0481  -21.4910   16.8968 C   0  0  0  0  0  0  0  0  0  0  0  0
  -25.8557  -14.2134   18.7082 C   0  0  0  0  0  0  0  0  0  0  0  0
  -23.2174  -14.6518   19.8979 C   0  0  0  0  0  0  0  0  0  0  0  0
  -21.7898  -19.4359   18.4869 C   0  0  0  0  0  0  0  0  0  0  0  0
  -26.5330  -14.0975   20.0779 C   0  0  0  0  0  0  0  0  0  0  0  0
  -23.6141  -22.6055   17.7700 C   0  0  0  0  0  0  0  0  0  1  0  0
  -26.4113  -29.1043   20.3346 C   0  0  1  0  0  0  0  0  0  0  0  0
  -29.8003  -28.0661   21.6786 C   0  0  2  0  0  0  0  0  0  0  0  0
  -21.8544  -14.1681   19.3473 C   0  0  0  0  0  0  0  0  0  0  0  0
  -20.6112  -19.0252   17.5763 C   0  0  0  0  0  0  0  0  0  0  0  0
  -26.2649  -30.3631   19.4338 C   0  0  0  0  0  0  0  0  0  0  0  0
  -29.5293  -20.1484   19.8631 N   0  0  0  0  0  0  0  0  0  0  0  0
  -28.9907  -19.8831   21.0654 N   0  0  0  0  0  0  0  0  0  0  0  0
  -24.5101  -27.9137   21.3795 N   0  0  0  0  0  0  0  0  0  0  0  0
  -29.4573  -16.0931   21.2288 N   0  0  0  0  0  0  0  0  0  0  0  0
  -27.7034  -20.8364   22.8103 N   0  0  0  0  0  0  0  0  0  0  0  0
  -28.0342  -24.1925   19.8064 N   0  0  0  0  0  0  0  0  0  0  0  0
  -21.2376  -29.0828   22.1881 N   0  0  0  0  0  0  0  0  0  0  0  0
  -27.6933  -29.0089   21.0243 N   0  0  0  0  0  0  0  0  0  0  0  0
  -27.4941  -15.1542   20.3024 N   0  0  0  0  0  0  0  0  0  0  0  0
  -30.2646  -26.7303   22.1487 N   0  3  0  0  0  0  0  0  0  0  0  0
  -27.1877  -23.6037   21.8547 O   0  0  0  0  0  0  0  0  0  0  0  0
  -22.1254  -28.1428   20.2514 O   0  0  0  0  0  0  0  0  0  0  0  0
  -25.2722  -29.9427   22.2388 O   0  0  0  0  0  0  0  0  0  0  0  0
  -28.3035  -26.9524   20.1434 O   0  0  0  0  0  0  0  0  0  0  0  0
  -28.8508  -13.8959   21.6563 O   0  0  0  0  0  0  0  0  0  0  0  0
  -30.7040  -23.9885   14.9211 O   0  0  0  0  0  0  0  0  0  0  0  0
  -23.4753  -22.2570   19.1469 O   0  0  0  0  0  0  0  0  0  1  0  0
  -32.6764  -29.1218   15.3246 F   0  0  0  0  0  0  0  0  0  0  0  0
  -29.1632  -26.0201   15.9894 F   0  0  0  0  0  0  0  0  0  0  0  0
  1  2  1  0  0  0  0
  1  6  2  0  0  0  0
  2  7  2  0  0  0  0
  3  9  2  0  0  0  0
  3 19  1  0  0  0  0
  4 10  2  0  0  0  0
  4 21  1  0  0  0  0
  5 11  1  0  0  0  0
  5 21  2  0  0  0  0
  6 23  1  0  0  0  0
  7 25  1  0  0  0  0
  8 12  2  0  0  0  0
  8 24  1  0  0  0  0
  9 27  1  0  0  0  0
 10 31  1  0  0  0  0
 11 31  2  0  0  0  0
 12 32  1  0  0  0  0
 13 14  2  0  0  0  0
 13 33  1  0  0  0  0
 14 34  1  0  0  0  0
 15 19  1  0  0  0  0
 15 28  2  0  0  0  0
 16 20  1  0  0  0  0
 16 29  2  0  0  0  0
 17 26  1  0  0  0  0
 17 32  2  0  0  0  0
 18 34  2  0  0  0  0
 18 35  1  0  0  0  0
 19 20  2  0  0  0  0
 20 30  1  0  0  0  0
 21 36  1  0  0  0  0
 22 36  1  0  0  0  0
 22 37  2  0  0  0  0
 22 38  1  0  0  0  0
 23 25  2  0  0  0  0
 23 43  1  0  0  0  0
 24 26  2  0  0  0  0
 24 44  1  0  0  0  0
 25 52  1  0  0  0  0
 26 45  1  0  0  0  0
 27 30  2  0  0  0  0
 27 64  1  0  0  0  0
 28 29  1  0  0  0  0
 28 65  1  0  0  0  0
 29 66  1  0  0  0  0
 30 67  1  0  0  0  0
 31 90  1  0  0  0  0
 32 91  1  0  0  0  0
 33 35  2  0  0  0  0
 33 90  1  0  0  0  0
 34 92  1  0  0  0  0
 35 93  1  0  0  0  0
 36 75  2  0  0  0  0
 37 76  1  0  0  0  0
 37 79  1  0  0  0  0
 38 80  1  0  0  0  0
 38 85  2  0  0  0  0
 39 53  1  0  0  0  0
 39 81  1  0  0  0  0
 39 86  2  0  0  0  0
 40 70  1  0  0  0  0
 40 77  1  0  0  0  0
 40 87  2  0  0  0  0
 41 71  1  0  0  0  0
 41 82  1  0  0  0  0
 41 88  2  0  0  0  0
 42 78  1  0  0  0  0
 42 83  1  0  0  0  0
 42 89  2  0  0  0  0
 43 46  1  0  0  0  0
 44 53  1  0  0  0  0
 45 77  1  0  0  0  0
 46 48  1  0  0  0  0
 47 49  1  0  0  0  0
 47 50  1  0  0  0  0
 48 52  1  0  0  0  0
 49 54  1  0  0  0  0
 50 78  1  0  0  0  0
 51 54  1  0  0  0  0
 51 78  1  0  0  0  0
 52 81  1  0  0  0  0
 53 77  1  0  0  0  0
 54 76  1  0  0  0  0
 55 71  1  0  0  0  0
 56 72  1  0  0  0  0
 57 72  1  0  0  0  0
 58 73  1  0  0  0  0
 59 73  1  0  0  0  0
 60 74  1  0  0  0  0
 61 74  1  0  0  0  0
 62 74  1  0  0  0  0
 63 84  1  0  0  0  0
 64 69  1  0  0  0  0
 65 68  1  0  0  0  0
 66 72  1  0  0  0  0
 67 73  1  0  0  0  0
 68 83  1  0  0  0  0
 69 91  1  0  0  0  0
 70 74  1  0  0  0  0
 70 82  1  0  0  0  0
 71 84  1  0  0  0  0
 75 76  1  0  0  0  0
M  CHG  1  84   1
M  ISO  4  42 100  69 101  83 100  91 101
M  END
> <Batch ID>
0100

> <Smiles>
CNC(C)C(=O)NC(C(=O)N1Cc2cc([101O:1][101CH2:1]Cc3ccc4cc(CC[100NH:0][100C:0](=O)N5CCCC(n6nc(-c7ccc(Oc8ccc(F)cc8F)cc7)c(C(N)=O)c6N)C5)c(CC(C)C)cc4c3CC(C)C)ccc2CC1C(=O)NC1CCCc2ccccc21)C(C)(C)C

> <Shape>
0.209

> <Color>
0.068

> <Negative vol penalty>
0.000

$$$$

  -OEChem-04052319333D

 76 83  0     1  0  0  0  0  0999 V2000
  -20.8626  -33.4254   19.2735 C   0  0  0  0  0  0  0  0  0  0  0  0
  -22.1123  -32.8346   19.4300 C   0  0  0  0  0  0  0  0  0  0  0  0
  -25.5993  -15.5108   20.1531 C   0  0  0  0  0  0  0  0  0  0  0  0
  -24.1035  -17.3033   19.5312 C   0  0  0  0  0  0  0  0  0  0  0  0
  -19.8489  -33.1639   20.1944 C   0  0  0  0  0  0  0  0  0  0  0  0
  -22.3494  -31.9826   20.5080 C   0  0  0  0  0  0  0  0  0  0  0  0
  -24.8138  -27.7718   19.1511 C   0  0  0  0  0  0  0  0  0  0  0  0
  -24.5063  -14.7260   20.5203 C   0  0  0  0  0  0  0  0  0  0  0  0
  -23.0104  -16.5184   19.8983 C   0  0  0  0  0  0  0  0  0  0  0  0
  -26.1881  -27.8778   18.9419 C   0  0  0  0  0  0  0  0  0  0  0  0
  -22.1637  -12.8392   18.9759 C   0  0  0  0  0  0  0  0  0  0  0  0
  -22.1514  -11.5086   18.5575 C   0  0  0  0  0  0  0  0  0  0  0  0
  -26.5869  -26.9607   21.1371 C   0  0  0  0  0  0  0  0  0  0  0  0
  -22.0782  -10.7849   20.8614 C   0  0  0  0  0  0  0  0  0  0  0  0
  -25.3980  -16.7995   19.6586 C   0  0  0  0  0  0  0  0  0  0  0  0
  -27.1366  -17.6806   18.0129 C   0  0  0  0  0  0  0  0  0  0  0  0
  -20.0708  -32.3006   21.2789 C   0  0  0  0  0  0  0  0  0  0  0  0
  -24.3147  -27.2688   20.3612 C   0  0  0  0  0  0  0  0  0  0  0  0
  -21.3381  -31.7102   21.4450 C   0  0  0  0  0  0  0  0  0  0  0  0
  -25.2059  -26.8469   21.3582 C   0  0  0  0  0  0  0  0  0  0  0  0
  -23.2118  -15.2298   20.3928 C   0  0  0  0  0  0  0  0  0  0  0  0
  -27.0749  -27.4749   19.9361 C   0  0  0  0  0  0  0  0  0  0  0  0
  -22.1334  -13.1426   20.3370 C   0  0  0  0  0  0  0  0  0  0  0  0
  -22.1086  -10.4815   19.5003 C   0  0  0  0  0  0  0  0  0  0  0  0
  -22.0906  -12.1155   21.2798 C   0  0  0  0  0  0  0  0  0  0  0  0
  -26.5268  -17.6110   19.2798 C   0  0  0  0  0  0  0  0  0  0  0  0
  -28.1559  -18.5874   18.1718 C   0  0  0  0  0  0  0  0  0  0  0  0
  -26.8109  -16.9875   16.8007 C   0  0  0  0  0  0  0  0  0  0  0  0
  -22.5008  -28.4339   22.6969 C   0  0  0  0  0  0  0  0  0  0  0  0
  -22.6541  -25.3896   23.8063 C   0  0  0  0  0  0  0  0  0  0  0  0
  -24.3276  -22.4165   23.8876 C   0  0  0  0  0  0  0  0  0  0  0  0
  -29.9888  -23.4135   19.9873 C   0  0  0  0  0  0  0  0  0  0  0  0
  -18.9587  -32.0854   22.2747 C   0  0  0  0  0  0  0  0  0  0  0  0
  -22.8298  -27.1359   20.5608 C   0  0  0  0  0  0  0  0  0  0  0  0
  -24.7212  -26.2810   22.6672 C   0  0  0  0  0  0  0  0  0  0  0  0
  -19.1777  -30.8763   23.1805 C   0  0  0  0  0  0  0  0  0  0  0  0
  -30.0824  -20.6788   22.3558 C   0  0  0  0  0  0  0  0  0  0  0  0
  -20.6028  -30.8679   23.7244 C   0  0  0  0  0  0  0  0  0  0  0  0
  -29.2090  -19.6378   21.6532 C   0  0  0  0  0  0  0  0  0  0  0  0
  -29.5419  -22.0894   22.1413 C   0  0  0  0  0  0  0  0  0  0  0  0
  -28.4979  -21.4338   20.0073 C   0  0  0  0  0  0  0  0  0  0  0  0
  -21.6265  -30.7609   22.5877 C   0  0  1  0  0  0  0  0  0  0  0  0
  -22.4265  -27.0888   22.0314 C   0  0  1  0  0  0  0  0  0  0  0  0
  -29.0044  -19.9888   20.1675 C   0  0  2  0  0  0  0  0  0  0  0  0
  -24.2289  -20.1277   24.9119 C   0  0  0  0  0  0  0  0  0  0  0  0
  -23.6229  -26.5388   26.4616 C   0  0  0  0  0  0  0  0  0  0  0  0
  -24.3981  -24.2433   27.0925 C   0  0  0  0  0  0  0  0  0  0  0  0
  -21.9761  -24.6686   26.6731 C   0  0  0  0  0  0  0  0  0  0  0  0
  -32.3163  -26.0846   21.2159 C   0  0  0  0  0  0  0  0  0  0  0  0
  -32.4662  -24.8535   19.0462 C   0  0  0  0  0  0  0  0  0  0  0  0
  -24.1392  -21.1119   21.2378 C   0  0  0  0  0  0  0  0  0  0  0  0
  -30.4821  -26.3739   19.5327 C   0  0  0  0  0  0  0  0  0  0  0  0
  -29.2478  -26.6248   20.3960 C   0  0  0  0  0  0  0  0  0  1  0  0
  -23.5839  -24.6311   24.7223 C   0  0  1  0  0  0  0  0  0  0  0  0
  -23.8491  -20.9862   23.7154 C   0  0  2  0  0  0  0  0  0  0  0  0
  -23.4047  -25.0329   26.2136 C   0  0  0  0  0  0  0  0  0  0  0  0
  -31.5035  -25.3743   20.1222 C   0  0  0  0  0  0  0  0  0  0  0  0
  -27.1100  -18.4098   20.1774 N   0  0  0  0  0  0  0  0  0  0  0  0
  -28.0971  -18.9899   19.4736 N   0  0  0  0  0  0  0  0  0  0  0  0
  -23.2604  -26.1771   22.8173 N   0  0  0  0  0  0  0  0  0  0  0  0
  -29.3880  -22.3668   20.7062 N   0  0  0  0  0  0  0  0  0  0  0  0
  -29.0878  -19.0717   17.3236 N   0  0  0  0  0  0  0  0  0  0  0  0
  -25.7333  -16.0914   16.8124 N   0  0  0  0  0  0  0  0  0  0  0  0
  -21.7067  -29.3984   22.1063 N   0  0  0  0  0  0  0  0  0  0  0  0
  -23.3566  -23.2153   24.4534 N   0  0  0  0  0  0  0  0  0  0  0  0
  -30.8116  -24.2564   20.7244 N   0  0  0  0  0  0  0  0  0  0  0  0
  -24.4514  -20.3820   22.4935 N   0  3  0  0  0  0  0  0  0  0  0  0
  -27.4665  -17.1456   15.7430 O   0  0  0  0  0  0  0  0  0  0  0  0
  -23.2238  -28.5852   23.6747 O   0  0  0  0  0  0  0  0  0  0  0  0
  -21.4347  -25.2816   23.9580 O   0  0  0  0  0  0  0  0  0  0  0  0
  -25.4518  -22.7871   23.5569 O   0  0  0  0  0  0  0  0  0  0  0  0
  -29.8096  -23.5815   18.7762 O   0  0  0  0  0  0  0  0  0  0  0  0
  -22.1449  -14.4641   20.7507 O   0  0  0  0  0  0  0  0  0  0  0  0
  -28.4168  -27.5779   19.7348 O   0  0  0  0  0  0  0  0  0  1  0  0
  -22.0951   -9.2038   19.0983 F   0  0  0  0  0  0  0  0  0  0  0  0
  -22.0601  -12.4009   22.5888 F   0  0  0  0  0  0  0  0  0  0  0  0
  1  2  1  0  0  0  0
  1  5  2  0  0  0  0
  2  6  2  0  0  0  0
  3  8  2  0  0  0  0
  3 15  1  0  0  0  0
  4  9  1  0  0  0  0
  4 15  2  0  0  0  0
  5 17  1  0  0  0  0
  6 19  1  0  0  0  0
  7 10  2  0  0  0  0
  7 18  1  0  0  0  0
  8 21  1  0  0  0  0
  9 21  2  0  0  0  0
 10 22  1  0  0  0  0
 11 12  2  0  0  0  0
 11 23  1  0  0  0  0
 12 24  1  0  0  0  0
 13 20  1  0  0  0  0
 13 22  2  0  0  0  0
 14 24  2  0  0  0  0
 14 25  1  0  0  0  0
 15 26  1  0  0  0  0
 16 26  1  0  0  0  0
 16 27  2  0  0  0  0
 16 28  1  0  0  0  0
 17 19  2  0  0  0  0
 17 33  1  0  0  0  0
 18 20  2  0  0  0  0
 18 34  1  0  0  0  0
 19 42  1  0  0  0  0
 20 35  1  0  0  0  0
 21 73  1  0  0  0  0
 22 74  1  0  0  0  0
 23 25  2  0  0  0  0
 23 73  1  0  0  0  0
 24 75  1  0  0  0  0
 25 76  1  0  0  0  0
 26 58  2  0  0  0  0
 27 59  1  0  0  0  0
 27 62  1  0  0  0  0
 28 63  1  0  0  0  0
 28 68  2  0  0  0  0
 29 43  1  0  0  0  0
 29 64  1  0  0  0  0
 29 69  2  0  0  0  0
 30 54  1  0  0  0  0
 30 60  1  0  0  0  0
 30 70  2  0  0  0  0
 31 55  1  0  0  0  0
 31 65  1  0  0  0  0
 31 71  2  0  0  0  0
 32 61  1  0  0  0  0
 32 66  1  0  0  0  0
 32 72  2  0  0  0  0
 33 36  1  0  0  0  0
 34 43  1  0  0  0  0
 35 60  1  0  0  0  0
 36 38  1  0  0  0  0
 37 39  1  0  0  0  0
 37 40  1  0  0  0  0
 38 42  1  0  0  0  0
 39 44  1  0  0  0  0
 40 61  1  0  0  0  0
 41 44  1  0  0  0  0
 41 61  1  0  0  0  0
 42 64  1  0  0  0  0
 43 60  1  0  0  0  0
 44 59  1  0  0  0  0
 45 55  1  0  0  0  0
 46 56  1  0  0  0  0
 47 56  1  0  0  0  0
 48 56  1  0  0  0  0
 49 57  1  0  0  0  0
 50 57  1  0  0  0  0
 51 67  1  0  0  0  0
 52 53  1  0  0  0  0
 52 57  1  0  0  0  0
 53 74  1  0  0  0  0
 54 56  1  0  0  0  0
 54 65  1  0  0  0  0
 55 67  1  0  0  0  0
 57 66  1  0  0  0  0
 58 59  1  0  0  0  0
M  CHG  1  67   1
M  ISO  4  32 100  53 101  66 100  74 101
M  END
> <Batch ID>
0100

> <Smiles>
CNC(C)C(=O)NC(C(=O)N1Cc2cc([101O:1][101CH2:1]CC(C)(C)[100NH:0][100C:0](=O)N3CCCC(n4nc(-c5ccc(Oc6ccc(F)cc6F)cc5)c(C(N)=O)c4N)C3)ccc2CC1C(=O)NC1CCCc2ccccc21)C(C)(C)C

> <Shape>
0.190

> <Color>
0.076

> <Negative vol penalty>
0.000

$$$$

  -OEChem-04052319333D

 85 93  0     1  0  0  0  0  0999 V2000
  -17.2325  -30.1764   24.1280 C   0  0  0  0  0  0  0  0  0  0  0  0
  -18.5880  -30.4797   24.2056 C   0  0  0  0  0  0  0  0  0  0  0  0
  -23.3397  -14.4002   21.4530 C   0  0  0  0  0  0  0  0  0  0  0  0
  -25.6574  -14.6670   22.0806 C   0  0  0  0  0  0  0  0  0  0  0  0
  -16.8175  -28.9959   23.5131 C   0  0  0  0  0  0  0  0  0  0  0  0
  -19.5295  -29.6020   23.6692 C   0  0  0  0  0  0  0  0  0  0  0  0
  -25.9309  -29.5638   20.4542 C   0  0  0  0  0  0  0  0  0  0  0  0
  -23.6196  -13.1255   20.9608 C   0  0  0  0  0  0  0  0  0  0  0  0
  -25.9374  -13.3922   21.5885 C   0  0  0  0  0  0  0  0  0  0  0  0
  -27.1883  -28.9717   20.5649 C   0  0  0  0  0  0  0  0  0  0  0  0
  -24.1045  -10.0226   22.2137 C   0  0  0  0  0  0  0  0  0  0  0  0
  -23.2246   -8.9922   22.5448 C   0  0  0  0  0  0  0  0  0  0  0  0
  -26.3507  -27.0000   19.4558 C   0  0  0  0  0  0  0  0  0  0  0  0
  -22.7711   -8.6260   20.2002 C   0  0  0  0  0  0  0  0  0  0  0  0
  -27.9033  -25.7820   24.2636 C   0  0  0  0  0  0  0  0  0  0  0  0
  -24.3585  -15.1710   22.0129 C   0  0  0  0  0  0  0  0  0  0  0  0
  -23.6769  -16.8272   23.8294 C   0  0  0  0  0  0  0  0  0  0  0  0
  -17.7538  -28.1079   22.9604 C   0  0  0  0  0  0  0  0  0  0  0  0
  -24.8694  -28.8730   19.8522 C   0  0  0  0  0  0  0  0  0  0  0  0
  -19.1267  -28.4078   23.0475 C   0  0  0  0  0  0  0  0  0  0  0  0
  -25.0815  -27.5865   19.3364 C   0  0  0  0  0  0  0  0  0  0  0  0
  -27.3142  -24.5888   24.6193 C   0  0  0  0  0  0  0  0  0  0  0  0
  -28.3377  -23.7420   25.1118 C   0  0  0  0  0  0  0  0  0  0  0  0
  -24.9185  -12.6215   21.0286 C   0  0  0  0  0  0  0  0  0  0  0  0
  -27.3976  -27.6884   20.0682 C   0  0  0  0  0  0  0  0  0  0  0  0
  -24.3176  -10.3548   20.8758 C   0  0  0  0  0  0  0  0  0  0  0  0
  -22.5579   -8.2938   21.5381 C   0  0  0  0  0  0  0  0  0  0  0  0
  -23.6509   -9.6564   19.8691 C   0  0  0  0  0  0  0  0  0  0  0  0
  -24.0701  -16.4881   22.5209 C   0  0  0  0  0  0  0  0  0  0  0  0
  -29.5210  -24.4436   25.0423 C   0  0  0  0  0  0  0  0  0  0  0  0
  -23.5285  -18.1923   23.8005 C   0  0  0  0  0  0  0  0  0  0  0  0
  -23.4648  -15.9836   24.9692 C   0  0  0  0  0  0  0  0  0  0  0  0
  -22.0249  -27.8418   20.8264 C   0  0  0  0  0  0  0  0  0  0  0  0
  -21.6650  -27.0735   17.6955 C   0  0  0  0  0  0  0  0  0  0  0  0
  -23.1359  -26.3156   14.7107 C   0  0  0  0  0  0  0  0  0  0  0  0
  -25.3392  -23.2539   22.3013 C   0  0  0  0  0  0  0  0  0  0  0  0
  -17.2602  -26.8213   22.3475 C   0  0  0  0  0  0  0  0  0  0  0  0
  -23.5261  -29.5361   19.7167 C   0  0  0  0  0  0  0  0  0  0  0  0
  -23.9802  -26.8106   18.6631 C   0  0  0  0  0  0  0  0  0  0  0  0
  -18.2994  -26.1256   21.4722 C   0  0  0  0  0  0  0  0  0  0  0  0
  -23.4589  -21.4144   19.9018 C   0  0  0  0  0  0  0  0  0  0  0  0
  -19.6495  -26.0795   22.1806 C   0  0  0  0  0  0  0  0  0  0  0  0
  -23.4234  -19.9963   20.4740 C   0  0  0  0  0  0  0  0  0  0  0  0
  -24.7949  -22.1009   20.1774 C   0  0  0  0  0  0  0  0  0  0  0  0
  -25.1688  -20.6947   22.1666 C   0  0  0  0  0  0  0  0  0  0  0  0
  -20.1768  -27.4930   22.4554 C   0  0  1  0  0  0  0  0  0  0  0  0
  -22.3829  -28.5406   19.5453 C   0  0  1  0  0  0  0  0  0  0  0  0
  -23.8209  -19.9820   21.9623 C   0  0  2  0  0  0  0  0  0  0  0  0
  -28.1696  -22.3608   25.6089 C   0  0  0  0  0  0  0  0  0  0  0  0
  -30.8917  -24.0424   25.4237 C   0  0  0  0  0  0  0  0  0  0  0  0
  -22.5821  -25.6979   12.3423 C   0  0  0  0  0  0  0  0  0  0  0  0
  -32.0943  -27.7540   22.8861 C   0  0  0  0  0  0  0  0  0  0  0  0
  -31.2187  -25.8729   20.5622 C   0  0  0  0  0  0  0  0  0  0  0  0
  -20.9670  -24.2440   18.5992 C   0  0  0  0  0  0  0  0  0  0  0  0
  -21.3590  -23.4719   16.2501 C   0  0  0  0  0  0  0  0  0  0  0  0
  -19.5519  -25.1222   16.7335 C   0  0  0  0  0  0  0  0  0  0  0  0
  -24.4881  -28.7225   13.6443 C   0  0  0  0  0  0  0  0  0  0  0  0
  -25.8786  -24.2634   24.5034 C   0  0  0  0  0  0  0  0  0  0  0  0
  -30.2493  -26.7810   24.2750 C   0  0  0  0  0  0  0  0  0  0  0  0
  -29.4261  -27.4867   21.2932 C   0  0  0  0  0  0  0  0  0  1  0  0
  -21.9675  -25.8593   16.8510 C   0  0  1  0  0  0  0  0  0  0  0  0
  -22.8888  -26.8341   13.3055 C   0  0  2  0  0  0  0  0  0  0  0  0
  -31.1289  -26.5678   23.0188 C   0  0  1  0  0  0  0  0  0  0  0  0
  -30.3066  -26.3038   21.7222 C   0  0  2  0  0  0  0  0  0  0  0  0
  -20.9818  -24.6879   17.1228 C   0  0  0  0  0  0  0  0  0  0  0  0
  -24.1653  -17.5520   21.7191 N   0  0  0  0  0  0  0  0  0  0  0  0
  -29.2448  -25.6825   24.5254 N   0  0  0  0  0  0  0  0  0  0  0  0
  -23.8297  -18.5731   22.5259 N   0  0  0  0  0  0  0  0  0  0  0  0
  -22.6830  -27.4993   18.5604 N   0  0  0  0  0  0  0  0  0  0  0  0
  -25.1125  -22.0542   21.6068 N   0  0  0  0  0  0  0  0  0  0  0  0
  -23.1709  -19.0922   24.7411 N   0  0  0  0  0  0  0  0  0  0  0  0
  -23.6620  -14.6035   24.8249 N   0  0  0  0  0  0  0  0  0  0  0  0
  -20.7290  -28.0699   21.2485 N   0  0  0  0  0  0  0  0  0  0  0  0
  -21.9825  -26.3185   15.4664 N   0  0  0  0  0  0  0  0  0  0  0  0
  -25.6278  -23.1205   23.6540 N   0  0  0  0  0  0  0  0  0  0  0  0
  -24.0874  -27.5644   12.8046 N   0  3  0  0  0  0  0  0  0  0  0  0
  -23.0951  -16.4383   26.0783 O   0  0  0  0  0  0  0  0  0  0  0  0
  -22.8618  -27.1459   21.3894 O   0  0  0  0  0  0  0  0  0  0  0  0
  -20.5686  -27.6282   17.5863 O   0  0  0  0  0  0  0  0  0  0  0  0
  -24.2407  -25.9416   15.0980 O   0  0  0  0  0  0  0  0  0  0  0  0
  -25.2831  -24.3621   21.7575 O   0  0  0  0  0  0  0  0  0  0  0  0
  -25.1920  -11.3775   20.5486 O   0  0  0  0  0  0  0  0  0  0  0  0
  -28.6237  -27.1079   20.1756 O   0  0  0  0  0  0  0  0  0  1  0  0
  -21.7142   -7.3033   21.8562 F   0  0  0  0  0  0  0  0  0  0  0  0
  -23.8525   -9.9702   18.5819 F   0  0  0  0  0  0  0  0  0  0  0  0
  1  2  1  0  0  0  0
  1  5  2  0  0  0  0
  2  6  2  0  0  0  0
  3  8  2  0  0  0  0
  3 16  1  0  0  0  0
  4  9  1  0  0  0  0
  4 16  2  0  0  0  0
  5 18  1  0  0  0  0
  6 20  1  0  0  0  0
  7 10  2  0  0  0  0
  7 19  1  0  0  0  0
  8 24  1  0  0  0  0
  9 24  2  0  0  0  0
 10 25  1  0  0  0  0
 11 12  2  0  0  0  0
 11 26  1  0  0  0  0
 12 27  1  0  0  0  0
 13 21  1  0  0  0  0
 13 25  2  0  0  0  0
 14 27  2  0  0  0  0
 14 28  1  0  0  0  0
 15 22  2  0  0  0  0
 15 67  1  0  0  0  0
 16 29  1  0  0  0  0
 17 29  1  0  0  0  0
 17 31  2  0  0  0  0
 17 32  1  0  0  0  0
 18 20  2  0  0  0  0
 18 37  1  0  0  0  0
 19 21  2  0  0  0  0
 19 38  1  0  0  0  0
 20 46  1  0  0  0  0
 21 39  1  0  0  0  0
 22 23  1  0  0  0  0
 22 58  1  0  0  0  0
 23 30  2  0  0  0  0
 23 49  1  0  0  0  0
 24 82  1  0  0  0  0
 25 83  1  0  0  0  0
 26 28  2  0  0  0  0
 26 82  1  0  0  0  0
 27 84  1  0  0  0  0
 28 85  1  0  0  0  0
 29 66  2  0  0  0  0
 30 50  1  0  0  0  0
 30 67  1  0  0  0  0
 31 68  1  0  0  0  0
 31 71  1  0  0  0  0
 32 72  1  0  0  0  0
 32 77  2  0  0  0  0
 33 47  1  0  0  0  0
 33 73  1  0  0  0  0
 33 78  2  0  0  0  0
 34 61  1  0  0  0  0
 34 69  1  0  0  0  0
 34 79  2  0  0  0  0
 35 62  1  0  0  0  0
 35 74  1  0  0  0  0
 35 80  2  0  0  0  0
 36 70  1  0  0  0  0
 36 75  1  0  0  0  0
 36 81  2  0  0  0  0
 37 40  1  0  0  0  0
 38 47  1  0  0  0  0
 39 69  1  0  0  0  0
 40 42  1  0  0  0  0
 41 43  1  0  0  0  0
 41 44  1  0  0  0  0
 42 46  1  0  0  0  0
 43 48  1  0  0  0  0
 44 70  1  0  0  0  0
 45 48  1  0  0  0  0
 45 70  1  0  0  0  0
 46 73  1  0  0  0  0
 47 69  1  0  0  0  0
 48 68  1  0  0  0  0
 51 62  1  0  0  0  0
 52 63  1  0  0  0  0
 53 64  1  0  0  0  0
 54 65  1  0  0  0  0
 55 65  1  0  0  0  0
 56 65  1  0  0  0  0
 57 76  1  0  0  0  0
 58 75  1  0  0  0  0
 59 63  1  0  0  0  0
 59 67  1  0  0  0  0
 60 64  1  0  0  0  0
 60 83  1  0  0  0  0
 61 65  1  0  0  0  0
 61 74  1  0  0  0  0
 62 76  1  0  0  0  0
 63 64  1  0  0  0  0
 66 68  1  0  0  0  0
M  CHG  1  76   1
M  ISO  4  36 100  60 101  75 100  83 101
M  END
> <Batch ID>
0100

> <Smiles>
CNC(C)C(=O)NC(C(=O)N1Cc2cc([101O:1][101CH2:1]C(C)C(C)Cn3cc(C[100NH:0][100C:0](=O)N4CCCC(n5nc(-c6ccc(Oc7ccc(F)cc7F)cc6)c(C(N)=O)c5N)C4)c(C)c3C)ccc2CC1C(=O)NC1CCCc2ccccc21)C(C)(C)C

> <Shape>
0.192

> <Color>
0.092

> <Negative vol penalty>
0.000

$$$$

  -OEChem-04052319333D

 84 92  0     1  0  0  0  0  0999 V2000
  -16.9335  -25.3296   24.2031 C   0  0  0  0  0  0  0  0  0  0  0  0
  -17.8091  -24.6865   23.3342 C   0  0  0  0  0  0  0  0  0  0  0  0
  -30.5669  -21.3681   21.6525 C   0  0  0  0  0  0  0  0  0  0  0  0
  -28.3640  -21.7084   20.7205 C   0  0  0  0  0  0  0  0  0  0  0  0
  -16.9678  -26.7182   24.3242 C   0  0  0  0  0  0  0  0  0  0  0  0
  -18.7188  -25.4317   22.5849 C   0  0  0  0  0  0  0  0  0  0  0  0
  -23.3620  -23.4104   22.5964 C   0  0  0  0  0  0  0  0  0  0  0  0
  -31.0577  -22.4174   20.8757 C   0  0  0  0  0  0  0  0  0  0  0  0
  -28.8548  -22.7578   19.9436 C   0  0  0  0  0  0  0  0  0  0  0  0
  -23.5820  -22.3158   21.7614 C   0  0  0  0  0  0  0  0  0  0  0  0
  -29.6029  -25.2917   17.4477 C   0  0  0  0  0  0  0  0  0  0  0  0
  -29.2182  -25.3415   16.1079 C   0  0  0  0  0  0  0  0  0  0  0  0
  -24.6205  -23.7690   20.1400 C   0  0  0  0  0  0  0  0  0  0  0  0
  -22.3432  -12.7523   19.6767 C   0  0  0  0  0  0  0  0  0  0  0  0
  -22.1932  -14.8259   18.4460 C   0  0  0  0  0  0  0  0  0  0  0  0
  -30.2268  -23.1775   15.7378 C   0  0  0  0  0  0  0  0  0  0  0  0
  -29.2200  -21.0135   21.5749 C   0  0  0  0  0  0  0  0  0  0  0  0
  -28.1755  -20.0114   23.6755 C   0  0  0  0  0  0  0  0  0  0  0  0
  -17.8849  -27.4800   23.5832 C   0  0  0  0  0  0  0  0  0  0  0  0
  -23.7605  -24.6964   22.2040 C   0  0  0  0  0  0  0  0  0  0  0  0
  -18.7645  -26.8319   22.6951 C   0  0  0  0  0  0  0  0  0  0  0  0
  -24.4067  -24.8779   20.9729 C   0  0  0  0  0  0  0  0  0  0  0  0
  -21.6472  -13.5951   18.8102 C   0  0  0  0  0  0  0  0  0  0  0  0
  -23.5852  -13.1403   20.1791 C   0  0  0  0  0  0  0  0  0  0  0  0
  -23.4353  -15.2139   18.9485 C   0  0  0  0  0  0  0  0  0  0  0  0
  -24.1313  -14.3711   19.8150 C   0  0  0  0  0  0  0  0  0  0  0  0
  -30.2017  -23.1123   20.0212 C   0  0  0  0  0  0  0  0  0  0  0  0
  -24.2087  -22.4954   20.5317 C   0  0  0  0  0  0  0  0  0  0  0  0
  -30.2997  -24.1848   17.9326 C   0  0  0  0  0  0  0  0  0  0  0  0
  -29.5301  -24.2844   15.2530 C   0  0  0  0  0  0  0  0  0  0  0  0
  -30.6116  -23.1277   17.0776 C   0  0  0  0  0  0  0  0  0  0  0  0
  -28.7125  -19.9293   22.3768 C   0  0  0  0  0  0  0  0  0  0  0  0
  -27.8411  -18.7172   23.9912 C   0  0  0  0  0  0  0  0  0  0  0  0
  -27.9950  -21.1553   24.5209 C   0  0  0  0  0  0  0  0  0  0  0  0
  -22.2528  -27.4367   21.6373 C   0  0  0  0  0  0  0  0  0  0  0  0
  -25.2716  -28.5855   21.3386 C   0  0  0  0  0  0  0  0  0  0  0  0
  -28.5593  -27.9545   20.6753 C   0  0  0  0  0  0  0  0  0  0  0  0
  -26.4552  -13.9366   20.6852 C   0  0  0  0  0  0  0  0  0  0  0  0
  -17.8525  -28.9823   23.7124 C   0  0  0  0  0  0  0  0  0  0  0  0
  -23.5400  -25.8628   23.1278 C   0  0  0  0  0  0  0  0  0  0  0  0
  -24.8720  -26.2349   20.5140 C   0  0  0  0  0  0  0  0  0  0  0  0
  -19.1004  -29.6681   23.1621 C   0  0  0  0  0  0  0  0  0  0  0  0
  -29.0970  -14.1910   23.0586 C   0  0  0  0  0  0  0  0  0  0  0  0
  -19.4618  -29.1004   21.7932 C   0  0  0  0  0  0  0  0  0  0  0  0
  -29.2453  -15.6986   23.2758 C   0  0  0  0  0  0  0  0  0  0  0  0
  -28.7619  -13.8576   21.6059 C   0  0  0  0  0  0  0  0  0  0  0  0
  -27.7505  -16.0793   21.2739 C   0  0  0  0  0  0  0  0  0  0  0  0
  -19.7825  -27.6036   21.8838 C   0  0  1  0  0  0  0  0  0  0  0  0
  -23.5249  -27.2048   22.4026 C   0  0  1  0  0  0  0  0  0  0  0  0
  -28.0241  -16.4685   22.7359 C   0  0  2  0  0  0  0  0  0  0  0  0
  -20.3192  -13.1804   18.2733 C   0  0  0  0  0  0  0  0  0  0  0  0
  -24.3066  -12.2159   21.1060 C   0  0  0  0  0  0  0  0  0  0  0  0
  -30.7823  -29.1002   20.4688 C   0  0  0  0  0  0  0  0  0  0  0  0
  -25.8372  -18.9890   18.9427 C   0  0  0  0  0  0  0  0  0  0  0  0
  -24.4511  -29.6807   18.6115 C   0  0  0  0  0  0  0  0  0  0  0  0
  -26.8798  -29.9531   18.0678 C   0  0  0  0  0  0  0  0  0  0  0  0
  -25.8789  -31.2220   19.9680 C   0  0  0  0  0  0  0  0  0  0  0  0
  -29.7169  -26.3595   22.8832 C   0  0  0  0  0  0  0  0  0  0  0  0
  -23.9998  -16.5504   18.5360 C   0  0  0  0  0  0  0  0  0  0  0  0
  -23.8114  -17.6571   19.5828 C   0  0  0  0  0  0  0  0  0  0  0  0
  -23.9822  -20.1543   20.1800 C   0  0  0  0  0  0  0  0  0  1  0  0
  -26.2519  -28.7322   20.2000 C   0  0  1  0  0  0  0  0  0  0  0  0
  -29.8295  -28.3648   21.3982 C   0  0  2  0  0  0  0  0  0  0  0  0
  -24.3207  -19.0543   19.1648 C   0  0  1  0  0  0  0  0  0  0  0  0
  -25.8551  -29.8716   19.2193 C   0  0  0  0  0  0  0  0  0  0  0  0
  -28.7209  -18.6816   21.9002 N   0  0  0  0  0  0  0  0  0  0  0  0
  -28.1850  -17.9677   22.9049 N   0  0  0  0  0  0  0  0  0  0  0  0
  -24.6280  -27.3449   21.4498 N   0  0  0  0  0  0  0  0  0  0  0  0
  -27.5923  -14.6206   21.1646 N   0  0  0  0  0  0  0  0  0  0  0  0
  -27.2894  -18.1586   25.0894 N   0  0  0  0  0  0  0  0  0  0  0  0
  -28.3929  -22.4104   24.0406 N   0  0  0  0  0  0  0  0  0  0  0  0
  -25.3931  -14.7654   20.3251 N   0  0  0  0  0  0  0  0  0  0  0  0
  -21.1128  -27.4032   22.4174 N   0  0  0  0  0  0  0  0  0  0  0  0
  -27.5657  -28.9008   20.8116 N   0  0  0  0  0  0  0  0  0  0  0  0
  -30.5303  -27.1644   21.9358 N   0  3  0  0  0  0  0  0  0  0  0  0
  -27.5108  -21.0647   25.6745 O   0  0  0  0  0  0  0  0  0  0  0  0
  -22.3020  -27.6330   20.4286 O   0  0  0  0  0  0  0  0  0  0  0  0
  -25.0892  -29.5343   22.1055 O   0  0  0  0  0  0  0  0  0  0  0  0
  -28.4597  -26.9018   20.0489 O   0  0  0  0  0  0  0  0  0  0  0  0
  -26.4157  -12.7050   20.6259 O   0  0  0  0  0  0  0  0  0  0  0  0
  -30.6803  -24.1365   19.2632 O   0  0  0  0  0  0  0  0  0  0  0  0
  -24.4241  -21.4288   19.7145 O   0  0  0  0  0  0  0  0  0  1  0  0
  -29.1592  -24.3317   13.9667 F   0  0  0  0  0  0  0  0  0  0  0  0
  -31.2797  -22.0611   17.5379 F   0  0  0  0  0  0  0  0  0  0  0  0
  1  2  1  0  0  0  0
  1  5  2  0  0  0  0
  2  6  2  0  0  0  0
  3  8  2  0  0  0  0
  3 17  1  0  0  0  0
  4  9  1  0  0  0  0
  4 17  2  0  0  0  0
  5 19  1  0  0  0  0
  6 21  1  0  0  0  0
  7 10  2  0  0  0  0
  7 20  1  0  0  0  0
  8 27  1  0  0  0  0
  9 27  2  0  0  0  0
 10 28  1  0  0  0  0
 11 12  2  0  0  0  0
 11 29  1  0  0  0  0
 12 30  1  0  0  0  0
 13 22  1  0  0  0  0
 13 28  2  0  0  0  0
 14 23  1  0  0  0  0
 14 24  2  0  0  0  0
 15 23  2  0  0  0  0
 15 25  1  0  0  0  0
 16 30  2  0  0  0  0
 16 31  1  0  0  0  0
 17 32  1  0  0  0  0
 18 32  1  0  0  0  0
 18 33  2  0  0  0  0
 18 34  1  0  0  0  0
 19 21  2  0  0  0  0
 19 39  1  0  0  0  0
 20 22  2  0  0  0  0
 20 40  1  0  0  0  0
 21 48  1  0  0  0  0
 22 41  1  0  0  0  0
 23 51  1  0  0  0  0
 24 26  1  0  0  0  0
 24 52  1  0  0  0  0
 25 26  2  0  0  0  0
 25 59  1  0  0  0  0
 26 72  1  0  0  0  0
 27 81  1  0  0  0  0
 28 82  1  0  0  0  0
 29 31  2  0  0  0  0
 29 81  1  0  0  0  0
 30 83  1  0  0  0  0
 31 84  1  0  0  0  0
 32 66  2  0  0  0  0
 33 67  1  0  0  0  0
 33 70  1  0  0  0  0
 34 71  1  0  0  0  0
 34 76  2  0  0  0  0
 35 49  1  0  0  0  0
 35 73  1  0  0  0  0
 35 77  2  0  0  0  0
 36 62  1  0  0  0  0
 36 68  1  0  0  0  0
 36 78  2  0  0  0  0
 37 63  1  0  0  0  0
 37 74  1  0  0  0  0
 37 79  2  0  0  0  0
 38 69  1  0  0  0  0
 38 72  1  0  0  0  0
 38 80  2  0  0  0  0
 39 42  1  0  0  0  0
 40 49  1  0  0  0  0
 41 68  1  0  0  0  0
 42 44  1  0  0  0  0
 43 45  1  0  0  0  0
 43 46  1  0  0  0  0
 44 48  1  0  0  0  0
 45 50  1  0  0  0  0
 46 69  1  0  0  0  0
 47 50  1  0  0  0  0
 47 69  1  0  0  0  0
 48 73  1  0  0  0  0
 49 68  1  0  0  0  0
 50 67  1  0  0  0  0
 53 63  1  0  0  0  0
 54 64  1  0  0  0  0
 55 65  1  0  0  0  0
 56 65  1  0  0  0  0
 57 65  1  0  0  0  0
 58 75  1  0  0  0  0
 59 60  1  0  0  0  0
 60 64  1  0  0  0  0
 61 64  1  0  0  0  0
 61 82  1  0  0  0  0
 62 65  1  0  0  0  0
 62 74  1  0  0  0  0
 63 75  1  0  0  0  0
 66 67  1  0  0  0  0
M  CHG  1  75   1
M  ISO  4  38 100  61 101  72 100  82 101
M  END
> <Batch ID>
0100

> <Smiles>
CNC(C)C(=O)NC(C(=O)N1Cc2cc([101O:1][101CH2:1]C(C)CCc3cc(C)cc(C)c3[100NH:0][100C:0](=O)N3CCCC(n4nc(-c5ccc(Oc6ccc(F)cc6F)cc5)c(C(N)=O)c4N)C3)ccc2CC1C(=O)NC1CCCc2ccccc21)C(C)(C)C

> <Shape>
0.216

> <Color>
0.056

> <Negative vol penalty>
0.000

$$$$

  -OEChem-04052319333D

 86 94  0     1  0  0  0  0  0999 V2000
  -33.9899  -17.2998   27.2298 C   0  0  0  0  0  0  0  0  0  0  0  0
  -33.4395  -17.8264   26.0657 C   0  0  0  0  0  0  0  0  0  0  0  0
  -23.1214   -9.9071   19.9735 C   0  0  0  0  0  0  0  0  0  0  0  0
  -23.9541   -9.9375   22.2413 C   0  0  0  0  0  0  0  0  0  0  0  0
  -34.2430  -18.1329   28.3187 C   0  0  0  0  0  0  0  0  0  0  0  0
  -33.1410  -19.1864   25.9902 C   0  0  0  0  0  0  0  0  0  0  0  0
  -34.6386  -21.2647   21.6218 C   0  0  0  0  0  0  0  0  0  0  0  0
  -22.4087   -8.7406   20.2508 C   0  0  0  0  0  0  0  0  0  0  0  0
  -23.2414   -8.7710   22.5186 C   0  0  0  0  0  0  0  0  0  0  0  0
  -33.8417  -21.0349   20.5012 C   0  0  0  0  0  0  0  0  0  0  0  0
  -20.0504   -7.9125   23.2269 C   0  0  0  0  0  0  0  0  0  0  0  0
  -19.3323   -7.8622   24.4216 C   0  0  0  0  0  0  0  0  0  0  0  0
  -32.8455  -23.2154   20.7699 C   0  0  0  0  0  0  0  0  0  0  0  0
  -30.0820  -19.0574   18.1125 C   0  0  0  0  0  0  0  0  0  0  0  0
  -20.6345   -5.9521   25.1238 C   0  0  0  0  0  0  0  0  0  0  0  0
  -23.8942  -10.5055   20.9688 C   0  0  0  0  0  0  0  0  0  0  0  0
  -24.1823  -13.0364   20.8300 C   0  0  0  0  0  0  0  0  0  0  0  0
  -33.9564  -19.5056   28.2531 C   0  0  0  0  0  0  0  0  0  0  0  0
  -34.5370  -22.4692   22.3326 C   0  0  0  0  0  0  0  0  0  0  0  0
  -33.3892  -20.0384   27.0797 C   0  0  0  0  0  0  0  0  0  0  0  0
  -33.6441  -23.4590   21.8977 C   0  0  0  0  0  0  0  0  0  0  0  0
  -29.8942  -17.8281   18.7345 C   0  0  0  0  0  0  0  0  0  0  0  0
  -29.3445  -17.7776   20.0106 C   0  0  0  0  0  0  0  0  0  0  0  0
  -22.4687   -8.1725   21.5233 C   0  0  0  0  0  0  0  0  0  0  0  0
  -32.9429  -22.0091   20.0768 C   0  0  0  0  0  0  0  0  0  0  0  0
  -21.0606   -6.9826   22.9806 C   0  0  0  0  0  0  0  0  0  0  0  0
  -19.6244   -6.8820   25.3701 C   0  0  0  0  0  0  0  0  0  0  0  0
  -21.3526   -6.0024   23.9291 C   0  0  0  0  0  0  0  0  0  0  0  0
  -24.6310  -11.7102   20.6828 C   0  0  0  0  0  0  0  0  0  0  0  0
  -29.7066  -20.1980   18.8038 C   0  0  0  0  0  0  0  0  0  0  0  0
  -29.0023  -18.9756   20.6170 C   0  0  0  0  0  0  0  0  0  0  0  0
  -25.2473  -13.8057   20.4296 C   0  0  0  0  0  0  0  0  0  0  0  0
  -22.9160  -13.5289   21.2879 C   0  0  0  0  0  0  0  0  0  0  0  0
  -33.7209  -23.2601   25.3011 C   0  0  0  0  0  0  0  0  0  0  0  0
  -34.6383  -26.2221   24.3484 C   0  0  0  0  0  0  0  0  0  0  0  0
  -35.1494  -28.4106   21.7802 C   0  0  0  0  0  0  0  0  0  0  0  0
  -30.8552  -14.6302   20.8651 C   0  0  0  0  0  0  0  0  0  0  0  0
  -34.2035  -20.3579   29.4726 C   0  0  0  0  0  0  0  0  0  0  0  0
  -35.4228  -22.7124   23.5236 C   0  0  0  0  0  0  0  0  0  0  0  0
  -33.5114  -24.7773   22.6140 C   0  0  0  0  0  0  0  0  0  0  0  0
  -34.2061  -21.8558   29.1785 C   0  0  0  0  0  0  0  0  0  0  0  0
  -29.5460  -12.5502   18.0971 C   0  0  0  0  0  0  0  0  0  0  0  0
  -33.0133  -22.2303   28.3046 C   0  0  0  0  0  0  0  0  0  0  0  0
  -28.1386  -12.2021   18.5789 C   0  0  0  0  0  0  0  0  0  0  0  0
  -30.5021  -12.7868   19.2623 C   0  0  0  0  0  0  0  0  0  0  0  0
  -28.6186  -13.4602   20.7160 C   0  0  0  0  0  0  0  0  0  0  0  0
  -33.0746  -21.5130   26.9506 C   0  0  1  0  0  0  0  0  0  0  0  0
  -34.8684  -23.7684   24.4749 C   0  0  1  0  0  0  0  0  0  0  0  0
  -27.6192  -13.2614   19.5666 C   0  0  2  0  0  0  0  0  0  0  0  0
  -30.2921  -16.5821   18.0145 C   0  0  0  0  0  0  0  0  0  0  0  0
  -27.8124  -20.3431   22.3492 C   0  0  0  0  0  0  0  0  0  0  0  0
  -27.5609  -21.5607   17.1040 C   0  0  0  0  0  0  0  0  0  0  0  0
  -35.8652  -30.7706   21.3161 C   0  0  0  0  0  0  0  0  0  0  0  0
  -31.9125  -27.2291   25.2791 C   0  0  0  0  0  0  0  0  0  0  0  0
  -32.3087  -29.3159   23.9537 C   0  0  0  0  0  0  0  0  0  0  0  0
  -33.8289  -28.7335   25.8438 C   0  0  0  0  0  0  0  0  0  0  0  0
  -31.2636  -16.8385   21.8830 C   0  0  0  0  0  0  0  0  0  0  0  0
  -37.4685  -27.5145   20.1747 C   0  0  0  0  0  0  0  0  0  0  0  0
  -29.1291  -16.4732   20.7015 C   0  0  0  0  0  0  0  0  0  0  0  0
  -28.4063  -18.9854   21.9868 C   0  0  0  0  0  0  0  0  0  0  0  0
  -28.5646  -22.3183   17.9650 C   0  0  0  0  0  0  0  0  0  0  0  0
  -30.8858  -22.4223   18.9571 C   0  0  0  0  0  0  0  0  0  1  0  0
  -29.8961  -21.5616   18.1539 C   0  0  1  0  0  0  0  0  0  0  0  0
  -33.9484  -27.3981   23.7003 C   0  0  1  0  0  0  0  0  0  0  0  0
  -36.3163  -29.3248   21.4529 C   0  0  2  0  0  0  0  0  0  0  0  0
  -33.0005  -28.1436   24.6816 C   0  0  0  0  0  0  0  0  0  0  0  0
  -25.8835  -11.6376   20.2244 N   0  0  0  0  0  0  0  0  0  0  0  0
  -29.1697  -20.1887   20.0444 N   0  0  0  0  0  0  0  0  0  0  0  0
  -26.2308  -12.9278   20.0801 N   0  0  0  0  0  0  0  0  0  0  0  0
  -34.3947  -24.9652   23.7767 N   0  0  0  0  0  0  0  0  0  0  0  0
  -29.9644  -13.7656   20.2079 N   0  0  0  0  0  0  0  0  0  0  0  0
  -25.4291  -15.1408   20.3457 N   0  0  0  0  0  0  0  0  0  0  0  0
  -21.9335  -12.6014   21.6603 N   0  0  0  0  0  0  0  0  0  0  0  0
  -34.0309  -22.1606   26.0785 N   0  0  0  0  0  0  0  0  0  0  0  0
  -35.0053  -28.2332   23.1400 N   0  0  0  0  0  0  0  0  0  0  0  0
  -30.3742  -15.9022   21.2105 N   0  0  0  0  0  0  0  0  0  0  0  0
  -36.9569  -28.9092   20.1731 N   0  3  0  0  0  0  0  0  0  0  0  0
  -22.6576  -14.7549   21.3490 O   0  0  0  0  0  0  0  0  0  0  0  0
  -32.6350  -23.8247   25.2391 O   0  0  0  0  0  0  0  0  0  0  0  0
  -35.3720  -26.4125   25.3215 O   0  0  0  0  0  0  0  0  0  0  0  0
  -34.4348  -27.9074   20.9161 O   0  0  0  0  0  0  0  0  0  0  0  0
  -32.0171  -14.2882   21.1196 O   0  0  0  0  0  0  0  0  0  0  0  0
  -21.7731   -7.0344   21.7943 O   0  0  0  0  0  0  0  0  0  0  0  0
  -32.1634  -21.7871   18.9836 O   0  0  0  0  0  0  0  0  0  1  0  0
  -18.9357   -6.8347   26.5180 F   0  0  0  0  0  0  0  0  0  0  0  0
  -22.3227   -5.1071   23.6986 F   0  0  0  0  0  0  0  0  0  0  0  0
  1  2  1  0  0  0  0
  1  5  2  0  0  0  0
  2  6  2  0  0  0  0
  3  8  2  0  0  0  0
  3 16  1  0  0  0  0
  4  9  1  0  0  0  0
  4 16  2  0  0  0  0
  5 18  1  0  0  0  0
  6 20  1  0  0  0  0
  7 10  2  0  0  0  0
  7 19  1  0  0  0  0
  8 24  1  0  0  0  0
  9 24  2  0  0  0  0
 10 25  1  0  0  0  0
 11 12  2  0  0  0  0
 11 26  1  0  0  0  0
 12 27  1  0  0  0  0
 13 21  1  0  0  0  0
 13 25  2  0  0  0  0
 14 22  2  0  0  0  0
 14 30  1  0  0  0  0
 15 27  2  0  0  0  0
 15 28  1  0  0  0  0
 16 29  1  0  0  0  0
 17 29  1  0  0  0  0
 17 32  2  0  0  0  0
 17 33  1  0  0  0  0
 18 20  2  0  0  0  0
 18 38  1  0  0  0  0
 19 21  2  0  0  0  0
 19 39  1  0  0  0  0
 20 47  1  0  0  0  0
 21 40  1  0  0  0  0
 22 23  1  0  0  0  0
 22 50  1  0  0  0  0
 23 31  2  0  0  0  0
 23 59  1  0  0  0  0
 24 83  1  0  0  0  0
 25 84  1  0  0  0  0
 26 28  2  0  0  0  0
 26 83  1  0  0  0  0
 27 85  1  0  0  0  0
 28 86  1  0  0  0  0
 29 67  2  0  0  0  0
 30 63  1  0  0  0  0
 30 68  2  0  0  0  0
 31 60  1  0  0  0  0
 31 68  1  0  0  0  0
 32 69  1  0  0  0  0
 32 72  1  0  0  0  0
 33 73  1  0  0  0  0
 33 78  2  0  0  0  0
 34 48  1  0  0  0  0
 34 74  1  0  0  0  0
 34 79  2  0  0  0  0
 35 64  1  0  0  0  0
 35 70  1  0  0  0  0
 35 80  2  0  0  0  0
 36 65  1  0  0  0  0
 36 75  1  0  0  0  0
 36 81  2  0  0  0  0
 37 71  1  0  0  0  0
 37 76  1  0  0  0  0
 37 82  2  0  0  0  0
 38 41  1  0  0  0  0
 39 48  1  0  0  0  0
 40 70  1  0  0  0  0
 41 43  1  0  0  0  0
 42 44  1  0  0  0  0
 42 45  1  0  0  0  0
 43 47  1  0  0  0  0
 44 49  1  0  0  0  0
 45 71  1  0  0  0  0
 46 49  1  0  0  0  0
 46 71  1  0  0  0  0
 47 74  1  0  0  0  0
 48 70  1  0  0  0  0
 49 69  1  0  0  0  0
 51 60  1  0  0  0  0
 52 61  1  0  0  0  0
 53 65  1  0  0  0  0
 54 66  1  0  0  0  0
 55 66  1  0  0  0  0
 56 66  1  0  0  0  0
 57 76  1  0  0  0  0
 58 77  1  0  0  0  0
 59 76  1  0  0  0  0
 61 63  1  0  0  0  0
 62 63  1  0  0  0  0
 62 84  1  0  0  0  0
 64 66  1  0  0  0  0
 64 75  1  0  0  0  0
 65 77  1  0  0  0  0
 67 69  1  0  0  0  0
M  CHG  1  77   1
M  ISO  4  37 100  62 101  76 100  84 101
M  END
> <Batch ID>
0100

> <Smiles>
CCc1nc(C(CC)[101CH2:1][101O:1]c2ccc3c(c2)CN(C(=O)C(NC(=O)C(C)NC)C(C)(C)C)C(C(=O)NC2CCCc4ccccc42)C3)cc(C)c1C[100N:0](C)[100C:0](=O)N1CCCC(n2nc(-c3ccc(Oc4ccc(F)cc4F)cc3)c(C(N)=O)c2N)C1

> <Shape>
0.214

> <Color>
0.195

> <Negative vol penalty>
0.000

$$$$

  -OEChem-04052319333D

 86 95  0     1  0  0  0  0  0999 V2000
  -24.2281  -22.4271   26.0678 C   0  0  0  0  0  0  0  0  0  0  0  0
  -24.4898  -22.6052   24.7140 C   0  0  0  0  0  0  0  0  0  0  0  0
  -23.0707   -9.8696   19.9423 C   0  0  0  0  0  0  0  0  0  0  0  0
  -23.8330   -9.8755   22.2349 C   0  0  0  0  0  0  0  0  0  0  0  0
  -23.5609  -21.2829   26.5001 C   0  0  0  0  0  0  0  0  0  0  0  0
  -24.0740  -21.6451   23.7909 C   0  0  0  0  0  0  0  0  0  0  0  0
  -24.6399  -22.7327   19.0265 C   0  0  0  0  0  0  0  0  0  0  0  0
  -22.3273   -8.7161   20.1925 C   0  0  0  0  0  0  0  0  0  0  0  0
  -23.0896   -8.7221   22.4851 C   0  0  0  0  0  0  0  0  0  0  0  0
  -25.8866  -22.7625   18.4031 C   0  0  0  0  0  0  0  0  0  0  0  0
  -22.9005   -5.3976   20.4810 C   0  0  0  0  0  0  0  0  0  0  0  0
  -22.9665   -4.3685   19.5418 C   0  0  0  0  0  0  0  0  0  0  0  0
  -25.4190  -20.6288   17.3794 C   0  0  0  0  0  0  0  0  0  0  0  0
  -29.2314  -19.7128   19.9275 C   0  0  0  0  0  0  0  0  0  0  0  0
  -20.5816   -4.5341   19.1928 C   0  0  0  0  0  0  0  0  0  0  0  0
  -31.6040  -18.3711   20.0576 C   0  0  0  0  0  0  0  0  0  0  0  0
  -23.8236  -10.4492   20.9635 C   0  0  0  0  0  0  0  0  0  0  0  0
  -24.1649  -12.9745   20.8444 C   0  0  0  0  0  0  0  0  0  0  0  0
  -23.1480  -20.3028   25.5826 C   0  0  0  0  0  0  0  0  0  0  0  0
  -23.7764  -21.6438   18.8394 C   0  0  0  0  0  0  0  0  0  0  0  0
  -23.3781  -20.4949   24.2050 C   0  0  0  0  0  0  0  0  0  0  0  0
  -24.1609  -20.5888   17.9995 C   0  0  0  0  0  0  0  0  0  0  0  0
  -29.3855  -18.6878   20.8543 C   0  0  0  0  0  0  0  0  0  0  0  0
  -30.5913  -17.9992   20.9270 C   0  0  0  0  0  0  0  0  0  0  0  0
  -22.3367   -8.1424   21.4638 C   0  0  0  0  0  0  0  0  0  0  0  0
  -26.2775  -21.7092   17.5817 C   0  0  0  0  0  0  0  0  0  0  0  0
  -21.6750   -5.9949   20.7762 C   0  0  0  0  0  0  0  0  0  0  0  0
  -21.8071   -3.9368   18.8977 C   0  0  0  0  0  0  0  0  0  0  0  0
  -20.5156   -5.5632   20.1321 C   0  0  0  0  0  0  0  0  0  0  0  0
  -24.5922  -11.6404   20.7055 C   0  0  0  0  0  0  0  0  0  0  0  0
  -30.3051  -20.0081   19.1030 C   0  0  0  0  0  0  0  0  0  0  0  0
  -25.2565  -13.7243   20.4803 C   0  0  0  0  0  0  0  0  0  0  0  0
  -22.8947  -13.4899   21.2650 C   0  0  0  0  0  0  0  0  0  0  0  0
  -22.4888  -19.4489   20.7442 C   0  0  0  0  0  0  0  0  0  0  0  0
  -20.8860  -18.6138   18.0505 C   0  0  0  0  0  0  0  0  0  0  0  0
  -20.7594  -18.6033   14.6401 C   0  0  0  0  0  0  0  0  0  0  0  0
  -30.7402  -14.7443   20.6633 C   0  0  0  0  0  0  0  0  0  0  0  0
  -22.4228  -19.0875   26.1043 C   0  0  0  0  0  0  0  0  0  0  0  0
  -22.4240  -21.6393   19.4976 C   0  0  0  0  0  0  0  0  0  0  0  0
  -23.2623  -19.4062   17.7498 C   0  0  0  0  0  0  0  0  0  0  0  0
  -22.4173  -17.9277   25.1138 C   0  0  0  0  0  0  0  0  0  0  0  0
  -26.7875  -18.9025   23.3354 C   0  0  0  0  0  0  0  0  0  0  0  0
  -29.6005  -12.3608   18.2765 C   0  0  0  0  0  0  0  0  0  0  0  0
  -28.3046  -18.6353   23.3359 C   0  0  0  0  0  0  0  0  0  0  0  0
  -26.9282  -19.2499   21.8409 C   0  0  0  0  0  0  0  0  0  0  0  0
  -21.9741  -18.4169   23.7431 C   0  0  0  0  0  0  0  0  0  0  0  0
  -28.1636  -12.0666   18.7108 C   0  0  0  0  0  0  0  0  0  0  0  0
  -30.5189  -12.5812   19.4765 C   0  0  0  0  0  0  0  0  0  0  0  0
  -28.6185  -13.3112   20.8655 C   0  0  0  0  0  0  0  0  0  0  0  0
  -28.1800  -18.3216   21.8142 C   0  0  0  0  0  0  0  0  0  0  0  0
  -22.9623  -19.4495   23.1860 C   0  0  1  0  0  0  0  0  0  0  0  0
  -21.8361  -20.2393   19.6456 C   0  0  1  0  0  0  0  0  0  0  0  0
  -27.6431  -13.1370   19.6889 C   0  0  2  0  0  0  0  0  0  0  0  0
  -19.3447  -17.8135   12.7238 C   0  0  0  0  0  0  0  0  0  0  0  0
  -30.0780  -21.6399   15.6301 C   0  0  0  0  0  0  0  0  0  0  0  0
  -21.8915  -15.7660   18.4851 C   0  0  0  0  0  0  0  0  0  0  0  0
  -21.2711  -15.2593   16.1130 C   0  0  0  0  0  0  0  0  0  0  0  0
  -19.5080  -15.9293   17.7456 C   0  0  0  0  0  0  0  0  0  0  0  0
  -20.3321  -21.3651   13.6659 C   0  0  0  0  0  0  0  0  0  0  0  0
  -30.8071  -16.8942   21.9012 C   0  0  0  0  0  0  0  0  0  0  0  0
  -30.1738  -21.1149   18.0850 C   0  0  0  0  0  0  0  0  0  0  0  0
  -28.1199  -20.4786   16.7171 C   0  0  0  0  0  0  0  0  0  1  0  0
  -21.1424  -17.6651   16.9045 C   0  0  1  0  0  0  0  0  0  0  0  0
  -19.6466  -18.9633   13.6723 C   0  0  2  0  0  0  0  0  0  0  0  0
  -29.6462  -20.6448   16.7147 C   0  0  1  0  0  0  0  0  0  0  0  0
  -20.9712  -16.1762   17.3181 C   0  0  0  0  0  0  0  0  0  0  0  0
  -31.4915  -19.3614   19.1441 N   0  0  0  0  0  0  0  0  0  0  0  0
  -25.8566  -11.5450   20.2858 N   0  0  0  0  0  0  0  0  0  0  0  0
  -26.2332  -12.8287   20.1578 N   0  0  0  0  0  0  0  0  0  0  0  0
  -21.9525  -19.4451   18.4209 N   0  0  0  0  0  0  0  0  0  0  0  0
  -29.9691  -13.6091   20.3636 N   0  0  0  0  0  0  0  0  0  0  0  0
  -25.4666  -15.0559   20.4078 N   0  0  0  0  0  0  0  0  0  0  0  0
  -21.8833  -12.5803   21.6029 N   0  0  0  0  0  0  0  0  0  0  0  0
  -22.4034  -20.0404   21.9901 N   0  0  0  0  0  0  0  0  0  0  0  0
  -20.2639  -18.0887   15.8195 N   0  0  0  0  0  0  0  0  0  0  0  0
  -30.1418  -15.6725   21.5064 N   0  0  0  0  0  0  0  0  0  0  0  0
  -20.0302  -20.1532   12.8613 N   0  3  0  0  0  0  0  0  0  0  0  0
  -22.6583  -14.7204   21.3232 O   0  0  0  0  0  0  0  0  0  0  0  0
  -23.0287  -18.3806   20.4811 O   0  0  0  0  0  0  0  0  0  0  0  0
  -19.7778  -18.6221   18.5922 O   0  0  0  0  0  0  0  0  0  0  0  0
  -21.9493  -18.7593   14.3748 O   0  0  0  0  0  0  0  0  0  0  0  0
  -31.8757  -14.9202   20.2085 O   0  0  0  0  0  0  0  0  0  0  0  0
  -21.6112   -7.0170   21.7084 O   0  0  0  0  0  0  0  0  0  0  0  0
  -27.4941  -21.7354   16.9726 O   0  0  0  0  0  0  0  0  0  1  0  0
  -21.8709   -2.9496   17.9946 F   0  0  0  0  0  0  0  0  0  0  0  0
  -19.3356   -6.1340   20.4106 F   0  0  0  0  0  0  0  0  0  0  0  0
  1  2  1  0  0  0  0
  1  5  2  0  0  0  0
  2  6  2  0  0  0  0
  3  8  2  0  0  0  0
  3 17  1  0  0  0  0
  4  9  1  0  0  0  0
  4 17  2  0  0  0  0
  5 19  1  0  0  0  0
  6 21  1  0  0  0  0
  7 10  2  0  0  0  0
  7 20  1  0  0  0  0
  8 25  1  0  0  0  0
  9 25  2  0  0  0  0
 10 26  1  0  0  0  0
 11 12  2  0  0  0  0
 11 27  1  0  0  0  0
 12 28  1  0  0  0  0
 13 22  1  0  0  0  0
 13 26  2  0  0  0  0
 14 23  2  0  0  0  0
 14 31  1  0  0  0  0
 15 28  2  0  0  0  0
 15 29  1  0  0  0  0
 16 24  2  0  0  0  0
 16 67  1  0  0  0  0
 17 30  1  0  0  0  0
 18 30  1  0  0  0  0
 18 32  2  0  0  0  0
 18 33  1  0  0  0  0
 19 21  2  0  0  0  0
 19 38  1  0  0  0  0
 20 22  2  0  0  0  0
 20 39  1  0  0  0  0
 21 51  1  0  0  0  0
 22 40  1  0  0  0  0
 23 24  1  0  0  0  0
 23 50  1  0  0  0  0
 24 60  1  0  0  0  0
 25 83  1  0  0  0  0
 26 84  1  0  0  0  0
 27 29  2  0  0  0  0
 27 83  1  0  0  0  0
 28 85  1  0  0  0  0
 29 86  1  0  0  0  0
 30 68  2  0  0  0  0
 31 61  1  0  0  0  0
 31 67  2  0  0  0  0
 32 69  1  0  0  0  0
 32 72  1  0  0  0  0
 33 73  1  0  0  0  0
 33 78  2  0  0  0  0
 34 52  1  0  0  0  0
 34 74  1  0  0  0  0
 34 79  2  0  0  0  0
 35 63  1  0  0  0  0
 35 70  1  0  0  0  0
 35 80  2  0  0  0  0
 36 64  1  0  0  0  0
 36 75  1  0  0  0  0
 36 81  2  0  0  0  0
 37 71  1  0  0  0  0
 37 76  1  0  0  0  0
 37 82  2  0  0  0  0
 38 41  1  0  0  0  0
 39 52  1  0  0  0  0
 40 70  1  0  0  0  0
 41 46  1  0  0  0  0
 42 44  1  0  0  0  0
 42 45  1  0  0  0  0
 43 47  1  0  0  0  0
 43 48  1  0  0  0  0
 44 50  1  0  0  0  0
 45 50  1  0  0  0  0
 46 51  1  0  0  0  0
 47 53  1  0  0  0  0
 48 71  1  0  0  0  0
 49 53  1  0  0  0  0
 49 71  1  0  0  0  0
 51 74  1  0  0  0  0
 52 70  1  0  0  0  0
 53 69  1  0  0  0  0
 54 64  1  0  0  0  0
 55 65  1  0  0  0  0
 56 66  1  0  0  0  0
 57 66  1  0  0  0  0
 58 66  1  0  0  0  0
 59 77  1  0  0  0  0
 60 76  1  0  0  0  0
 61 65  1  0  0  0  0
 62 65  1  0  0  0  0
 62 84  1  0  0  0  0
 63 66  1  0  0  0  0
 63 75  1  0  0  0  0
 64 77  1  0  0  0  0
 68 69  1  0  0  0  0
M  CHG  1  77   1
M  ISO  4  37 100  62 101  76 100  84 101
M  END
> <Batch ID>
0100

> <Smiles>
CNC(C)C(=O)NC(C(=O)N1Cc2cc([101O:1][101CH2:1]C(C)Cc3cc(C4CCC4)c(C[100NH:0][100C:0](=O)N4CCCC(n5nc(-c6ccc(Oc7ccc(F)cc7F)cc6)c(C(N)=O)c5N)C4)cn3)ccc2CC1C(=O)NC1CCCc2ccccc21)C(C)(C)C

> <Shape>
0.174

> <Color>
0.188

> <Negative vol penalty>
0.000

$$$$

  -OEChem-04052319333D

 90 98  0     1  0  0  0  0  0999 V2000
  -32.3763  -13.7581   21.0382 C   0  0  0  0  0  0  0  0  0  0  0  0
  -31.6223  -14.8791   21.3702 C   0  0  0  0  0  0  0  0  0  0  0  0
  -29.8688  -25.8718   19.3267 C   0  0  0  0  0  0  0  0  0  0  0  0
  -27.9510  -25.1004   20.5773 C   0  0  0  0  0  0  0  0  0  0  0  0
  -31.7927  -12.7142   20.3215 C   0  0  0  0  0  0  0  0  0  0  0  0
  -30.2846  -14.9575   20.9846 C   0  0  0  0  0  0  0  0  0  0  0  0
  -25.7035  -17.5728   24.0958 C   0  0  0  0  0  0  0  0  0  0  0  0
  -21.5673  -24.1312   24.4909 C   0  0  0  0  0  0  0  0  0  0  0  0
  -22.3377  -22.9809   24.6607 C   0  0  0  0  0  0  0  0  0  0  0  0
  -30.5421  -24.6883   19.6290 C   0  0  0  0  0  0  0  0  0  0  0  0
  -28.6243  -23.9168   20.8796 C   0  0  0  0  0  0  0  0  0  0  0  0
  -25.0907  -18.8207   23.9908 C   0  0  0  0  0  0  0  0  0  0  0  0
  -29.7029  -20.5382   21.6794 C   0  0  0  0  0  0  0  0  0  0  0  0
  -29.0000  -19.3403   21.5506 C   0  0  0  0  0  0  0  0  0  0  0  0
  -23.3615  -17.8495   22.6177 C   0  0  0  0  0  0  0  0  0  0  0  0
  -28.6465  -19.7999   19.2052 C   0  0  0  0  0  0  0  0  0  0  0  0
  -28.5733  -26.0780   19.8009 C   0  0  0  0  0  0  0  0  0  0  0  0
  -27.5526  -27.7918   18.2107 C   0  0  0  0  0  0  0  0  0  0  0  0
  -30.4445  -12.7755   19.9353 C   0  0  0  0  0  0  0  0  0  0  0  0
  -25.1549  -16.4541   23.4523 C   0  0  0  0  0  0  0  0  0  0  0  0
  -29.6828  -13.9141   20.2608 C   0  0  0  0  0  0  0  0  0  0  0  0
  -23.9678  -16.5880   22.7181 C   0  0  0  0  0  0  0  0  0  0  0  0
  -21.5831  -24.8074   23.2710 C   0  0  0  0  0  0  0  0  0  0  0  0
  -23.1240  -22.5068   23.6106 C   0  0  0  0  0  0  0  0  0  0  0  0
  -23.1399  -23.1830   22.3907 C   0  0  0  0  0  0  0  0  0  0  0  0
  -22.3694  -24.3333   22.2209 C   0  0  0  0  0  0  0  0  0  0  0  0
  -29.9198  -23.7107   20.4054 C   0  0  0  0  0  0  0  0  0  0  0  0
  -23.9211  -18.9598   23.2493 C   0  0  0  0  0  0  0  0  0  0  0  0
  -29.8776  -21.3670   20.5711 C   0  0  0  0  0  0  0  0  0  0  0  0
  -28.4718  -18.9712   20.3136 C   0  0  0  0  0  0  0  0  0  0  0  0
  -29.3494  -20.9978   19.3340 C   0  0  0  0  0  0  0  0  0  0  0  0
  -27.8775  -27.3007   19.4894 C   0  0  0  0  0  0  0  0  0  0  0  0
  -26.9001  -28.9758   18.4533 C   0  0  0  0  0  0  0  0  0  0  0  0
  -27.8169  -27.2282   16.9192 C   0  0  0  0  0  0  0  0  0  0  0  0
  -26.1470  -14.4603   21.1843 C   0  0  0  0  0  0  0  0  0  0  0  0
  -23.3980  -12.8951   21.9019 C   0  0  0  0  0  0  0  0  0  0  0  0
  -20.2383  -13.0283   23.1847 C   0  0  0  0  0  0  0  0  0  0  0  0
  -23.8114  -31.0417   23.1483 C   0  0  0  0  0  0  0  0  0  0  0  0
  -29.8705  -11.6435   19.1206 C   0  0  0  0  0  0  0  0  0  0  0  0
  -25.8134  -15.1096   23.5974 C   0  0  0  0  0  0  0  0  0  0  0  0
  -23.3275  -15.4140   22.0251 C   0  0  0  0  0  0  0  0  0  0  0  0
  -28.3447  -11.6388   19.0746 C   0  0  0  0  0  0  0  0  0  0  0  0
  -26.6671  -32.5386   21.6381 C   0  0  0  0  0  0  0  0  0  0  0  0
  -27.8152  -13.0387   18.7804 C   0  0  0  0  0  0  0  0  0  0  0  0
  -27.2718  -31.4103   20.8008 C   0  0  0  0  0  0  0  0  0  0  0  0
  -26.0796  -32.0171   22.9476 C   0  0  0  0  0  0  0  0  0  0  0  0
  -25.7125  -29.7897   21.9588 C   0  0  0  0  0  0  0  0  0  0  0  0
  -28.2219  -14.0251   19.8819 C   0  0  1  0  0  0  0  0  0  0  0  0
  -25.4488  -14.1416   22.4760 C   0  0  1  0  0  0  0  0  0  0  0  0
  -26.2677  -30.2587   20.6031 C   0  0  2  0  0  0  0  0  0  0  0  0
  -23.9850  -22.6740   21.2661 C   0  0  0  0  0  0  0  0  0  0  0  0
  -18.2195  -11.5972   23.6016 C   0  0  0  0  0  0  0  0  0  0  0  0
  -20.4740  -23.7161   19.8907 C   0  0  0  0  0  0  0  0  0  0  0  0
  -22.0157  -25.0246   18.4160 C   0  0  0  0  0  0  0  0  0  0  0  0
  -21.5699  -27.4615   25.0365 C   0  0  0  0  0  0  0  0  0  0  0  0
  -22.6985  -13.0216   18.9346 C   0  0  0  0  0  0  0  0  0  0  0  0
  -20.3338  -12.4643   19.5397 C   0  0  0  0  0  0  0  0  0  0  0  0
  -22.1627  -10.8436   20.0408 C   0  0  0  0  0  0  0  0  0  0  0  0
  -20.8561  -28.5171   21.2947 C   0  0  0  0  0  0  0  0  0  0  0  0
  -19.3439  -28.7621   23.2548 C   0  0  0  0  0  0  0  0  0  0  0  0
  -20.3841  -13.4715   26.1073 C   0  0  0  0  0  0  0  0  0  0  0  0
  -20.7485  -26.0366   23.1155 C   0  0  0  0  0  0  0  0  0  0  0  0
  -22.3834  -25.0598   20.9134 C   0  0  0  0  0  0  0  0  0  0  0  0
  -23.9447  -21.2683   23.8204 C   0  0  0  0  0  0  0  0  0  1  0  0
  -21.5900  -29.9403   23.2562 C   0  0  0  0  0  0  0  0  0  0  0  0
  -21.9717  -12.9595   21.4113 C   0  0  1  0  0  0  0  0  0  0  0  0
  -19.5173  -12.1384   24.1810 C   0  0  2  0  0  0  0  0  0  0  0  0
  -21.9108  -24.2121   19.7090 C   0  0  0  0  0  0  0  0  0  0  0  0
  -21.4694  -27.3663   23.5015 C   0  0  1  0  0  0  0  0  0  0  0  0
  -21.8045  -12.3449   19.9929 C   0  0  0  0  0  0  0  0  0  0  0  0
  -20.8312  -28.6543   22.8361 C   0  0  0  0  0  0  0  0  0  0  0  0
  -27.4655  -28.1068   20.4714 N   0  0  0  0  0  0  0  0  0  0  0  0
  -26.8751  -29.1166   19.8097 N   0  0  0  0  0  0  0  0  0  0  0  0
  -24.0125  -14.1216   22.1914 N   0  0  0  0  0  0  0  0  0  0  0  0
  -25.1343  -30.9280   22.6902 N   0  0  0  0  0  0  0  0  0  0  0  0
  -26.3510  -29.8999   17.6366 N   0  0  0  0  0  0  0  0  0  0  0  0
  -26.8653  -26.3646   16.3596 N   0  0  0  0  0  0  0  0  0  0  0  0
  -27.3818  -13.8551   21.0479 N   0  0  0  0  0  0  0  0  0  0  0  0
  -21.1572  -12.3205   22.4392 N   0  0  0  0  0  0  0  0  0  0  0  0
  -22.9794  -29.9677   22.8566 N   0  0  0  0  0  0  0  0  0  0  0  0
  -19.1965  -12.9018   25.4200 N   0  3  0  0  0  0  0  0  0  0  0  0
  -28.8733  -27.4698   16.2875 O   0  0  0  0  0  0  0  0  0  0  0  0
  -25.6049  -15.1993   20.3708 O   0  0  0  0  0  0  0  0  0  0  0  0
  -23.9442  -11.7966   22.0305 O   0  0  0  0  0  0  0  0  0  0  0  0
  -20.0067  -14.2304   23.0759 O   0  0  0  0  0  0  0  0  0  0  0  0
  -23.4006  -32.0295   23.7666 O   0  0  0  0  0  0  0  0  0  0  0  0
  -30.5764  -22.5555   20.7004 O   0  0  0  0  0  0  0  0  0  0  0  0
  -23.3214  -20.1768   23.1447 O   0  0  0  0  0  0  0  0  0  1  0  0
  -27.7981  -17.8201   20.1897 F   0  0  0  0  0  0  0  0  0  0  0  0
  -29.5150  -21.7894   18.2654 F   0  0  0  0  0  0  0  0  0  0  0  0
  1  2  1  0  0  0  0
  1  5  2  0  0  0  0
  2  6  2  0  0  0  0
  3 10  2  0  0  0  0
  3 17  1  0  0  0  0
  4 11  1  0  0  0  0
  4 17  2  0  0  0  0
  5 19  1  0  0  0  0
  6 21  1  0  0  0  0
  7 12  2  0  0  0  0
  7 20  1  0  0  0  0
  8  9  2  0  0  0  0
  8 23  1  0  0  0  0
  9 24  1  0  0  0  0
 10 27  1  0  0  0  0
 11 27  2  0  0  0  0
 12 28  1  0  0  0  0
 13 14  2  0  0  0  0
 13 29  1  0  0  0  0
 14 30  1  0  0  0  0
 15 22  1  0  0  0  0
 15 28  2  0  0  0  0
 16 30  2  0  0  0  0
 16 31  1  0  0  0  0
 17 32  1  0  0  0  0
 18 32  1  0  0  0  0
 18 33  2  0  0  0  0
 18 34  1  0  0  0  0
 19 21  2  0  0  0  0
 19 39  1  0  0  0  0
 20 22  2  0  0  0  0
 20 40  1  0  0  0  0
 21 48  1  0  0  0  0
 22 41  1  0  0  0  0
 23 26  2  0  0  0  0
 23 62  1  0  0  0  0
 24 25  2  0  0  0  0
 24 64  1  0  0  0  0
 25 26  1  0  0  0  0
 25 51  1  0  0  0  0
 26 63  1  0  0  0  0
 27 87  1  0  0  0  0
 28 88  1  0  0  0  0
 29 31  2  0  0  0  0
 29 87  1  0  0  0  0
 30 89  1  0  0  0  0
 31 90  1  0  0  0  0
 32 72  2  0  0  0  0
 33 73  1  0  0  0  0
 33 76  1  0  0  0  0
 34 77  1  0  0  0  0
 34 82  2  0  0  0  0
 35 49  1  0  0  0  0
 35 78  1  0  0  0  0
 35 83  2  0  0  0  0
 36 66  1  0  0  0  0
 36 74  1  0  0  0  0
 36 84  2  0  0  0  0
 37 67  1  0  0  0  0
 37 79  1  0  0  0  0
 37 85  2  0  0  0  0
 38 75  1  0  0  0  0
 38 80  1  0  0  0  0
 38 86  2  0  0  0  0
 39 42  1  0  0  0  0
 40 49  1  0  0  0  0
 41 74  1  0  0  0  0
 42 44  1  0  0  0  0
 43 45  1  0  0  0  0
 43 46  1  0  0  0  0
 44 48  1  0  0  0  0
 45 50  1  0  0  0  0
 46 75  1  0  0  0  0
 47 50  1  0  0  0  0
 47 75  1  0  0  0  0
 48 78  1  0  0  0  0
 49 74  1  0  0  0  0
 50 73  1  0  0  0  0
 52 67  1  0  0  0  0
 53 68  1  0  0  0  0
 54 68  1  0  0  0  0
 55 69  1  0  0  0  0
 56 70  1  0  0  0  0
 57 70  1  0  0  0  0
 58 70  1  0  0  0  0
 59 71  1  0  0  0  0
 60 71  1  0  0  0  0
 61 81  1  0  0  0  0
 62 69  1  0  0  0  0
 63 68  1  0  0  0  0
 64 88  1  0  0  0  0
 65 71  1  0  0  0  0
 65 80  1  0  0  0  0
 66 70  1  0  0  0  0
 66 79  1  0  0  0  0
 67 81  1  0  0  0  0
 69 71  1  0  0  0  0
 72 73  1  0  0  0  0
M  CHG  1  81   1
M  ISO  4  38 100  64 101  80 100  88 101
M  END
> <Batch ID>
0100

> <Smiles>
CNC(C)C(=O)NC(C(=O)N1Cc2cc([101O:1][101CH2:1]c3ccc(CC(C)C(C)(C)C[100NH:0][100C:0](=O)N4CCCC(n5nc(-c6ccc(Oc7ccc(F)cc7F)cc6)c(C(N)=O)c5N)C4)c(CC(C)C)c3C)ccc2CC1C(=O)NC1CCCc2ccccc21)C(C)(C)C

> <Shape>
0.266

> <Color>
0.064

> <Negative vol penalty>
0.000

$$$$

  -OEChem-04052319333D

 82 90  0     1  0  0  0  0  0999 V2000
  -15.2578  -20.7146   18.1574 C   0  0  0  0  0  0  0  0  0  0  0  0
  -16.6300  -20.9315   18.2320 C   0  0  0  0  0  0  0  0  0  0  0  0
  -23.0722   -9.8702   19.9432 C   0  0  0  0  0  0  0  0  0  0  0  0
  -23.8342   -9.8776   22.2359 C   0  0  0  0  0  0  0  0  0  0  0  0
  -14.7615  -19.4135   18.0899 C   0  0  0  0  0  0  0  0  0  0  0  0
  -17.5067  -19.8472   18.2402 C   0  0  0  0  0  0  0  0  0  0  0  0
  -23.0876  -19.6061   15.7300 C   0  0  0  0  0  0  0  0  0  0  0  0
  -22.3287   -8.7170   20.1940 C   0  0  0  0  0  0  0  0  0  0  0  0
  -23.0907   -8.7243   22.4867 C   0  0  0  0  0  0  0  0  0  0  0  0
  -24.3651  -19.7595   16.2670 C   0  0  0  0  0  0  0  0  0  0  0  0
  -20.5150   -5.5657   20.1377 C   0  0  0  0  0  0  0  0  0  0  0  0
  -20.5775   -4.5351   19.1999 C   0  0  0  0  0  0  0  0  0  0  0  0
  -24.5564  -17.3643   16.4805 C   0  0  0  0  0  0  0  0  0  0  0  0
  -28.5648  -17.8798   19.4866 C   0  0  0  0  0  0  0  0  0  0  0  0
  -22.9627   -4.3654   19.5454 C   0  0  0  0  0  0  0  0  0  0  0  0
  -23.8250  -10.4505   20.9641 C   0  0  0  0  0  0  0  0  0  0  0  0
  -24.1663  -12.9757   20.8435 C   0  0  0  0  0  0  0  0  0  0  0  0
  -15.6330  -18.3130   18.0875 C   0  0  0  0  0  0  0  0  0  0  0  0
  -22.5297  -18.3290   15.5741 C   0  0  0  0  0  0  0  0  0  0  0  0
  -17.0215  -18.5300   18.1739 C   0  0  0  0  0  0  0  0  0  0  0  0
  -23.2727  -17.1972   15.9389 C   0  0  0  0  0  0  0  0  0  0  0  0
  -29.8116  -18.2302   19.9925 C   0  0  0  0  0  0  0  0  0  0  0  0
  -22.3380   -8.1440   21.4658 C   0  0  0  0  0  0  0  0  0  0  0  0
  -25.0985  -18.6386   16.6450 C   0  0  0  0  0  0  0  0  0  0  0  0
  -21.6763   -5.9962   20.7794 C   0  0  0  0  0  0  0  0  0  0  0  0
  -21.8013   -3.9350   18.9037 C   0  0  0  0  0  0  0  0  0  0  0  0
  -22.9001   -5.3960   20.4833 C   0  0  0  0  0  0  0  0  0  0  0  0
  -30.8150  -18.6484   19.1255 C   0  0  0  0  0  0  0  0  0  0  0  0
  -24.5937  -11.6414   20.7055 C   0  0  0  0  0  0  0  0  0  0  0  0
  -28.3735  -17.9643   18.1169 C   0  0  0  0  0  0  0  0  0  0  0  0
  -30.5231  -18.6983   17.7719 C   0  0  0  0  0  0  0  0  0  0  0  0
  -25.2580  -13.7253   20.4791 C   0  0  0  0  0  0  0  0  0  0  0  0
  -22.8962  -13.4913   21.2635 C   0  0  0  0  0  0  0  0  0  0  0  0
  -19.9791  -16.8372   16.7455 C   0  0  0  0  0  0  0  0  0  0  0  0
  -20.8646  -14.5142   14.6618 C   0  0  0  0  0  0  0  0  0  0  0  0
  -23.3495  -13.0579   12.8311 C   0  0  0  0  0  0  0  0  0  0  0  0
  -30.7418  -14.7451   20.6621 C   0  0  0  0  0  0  0  0  0  0  0  0
  -15.0475  -16.9233   18.0608 C   0  0  0  0  0  0  0  0  0  0  0  0
  -21.1611  -18.1791   14.9684 C   0  0  0  0  0  0  0  0  0  0  0  0
  -22.7271  -15.8032   15.7731 C   0  0  0  0  0  0  0  0  0  0  0  0
  -16.0616  -15.8420   17.6966 C   0  0  0  0  0  0  0  0  0  0  0  0
  -29.6023  -12.3602   18.2767 C   0  0  0  0  0  0  0  0  0  0  0  0
  -17.3521  -16.0323   18.4872 C   0  0  0  0  0  0  0  0  0  0  0  0
  -28.1653  -12.0663   18.7110 C   0  0  0  0  0  0  0  0  0  0  0  0
  -30.5205  -12.5813   19.4767 C   0  0  0  0  0  0  0  0  0  0  0  0
  -28.6200  -13.3122   20.8650 C   0  0  0  0  0  0  0  0  0  0  0  0
  -18.0056  -17.3805   18.1602 C   0  0  1  0  0  0  0  0  0  0  0  0
  -20.4881  -16.8591   15.3320 C   0  0  1  0  0  0  0  0  0  0  0  0
  -27.6448  -13.1374   19.6883 C   0  0  2  0  0  0  0  0  0  0  0  0
  -31.5490  -19.1373   16.7777 C   0  0  0  0  0  0  0  0  0  0  0  0
  -23.7770  -11.1528   11.2547 C   0  0  0  0  0  0  0  0  0  0  0  0
  -20.8151  -12.5645   17.0084 C   0  0  0  0  0  0  0  0  0  0  0  0
  -22.1350  -10.9593   15.6122 C   0  0  0  0  0  0  0  0  0  0  0  0
  -19.8557  -11.6626   14.8822 C   0  0  0  0  0  0  0  0  0  0  0  0
  -24.1672  -14.8897   10.6552 C   0  0  0  0  0  0  0  0  0  0  0  0
  -30.0294  -18.1431   21.4683 C   0  0  0  0  0  0  0  0  0  0  0  0
  -27.0406  -17.5943   17.5358 C   0  0  0  0  0  0  0  0  0  1  0  0
  -30.8085  -16.8959   21.8987 C   0  0  0  0  0  0  0  0  0  0  0  0
  -21.7694  -13.3075   14.7273 C   0  0  1  0  0  0  0  0  0  0  0  0
  -23.4073  -12.6228   11.3779 C   0  0  2  0  0  0  0  0  0  0  0  0
  -21.1536  -12.1497   15.5626 C   0  0  0  0  0  0  0  0  0  0  0  0
  -25.8581  -11.5457   20.2860 N   0  0  0  0  0  0  0  0  0  0  0  0
  -29.3240  -18.3659   17.2434 N   0  0  0  0  0  0  0  0  0  0  0  0
  -26.2347  -12.8293   20.1572 N   0  0  0  0  0  0  0  0  0  0  0  0
  -21.3819  -15.7089   15.1822 N   0  0  0  0  0  0  0  0  0  0  0  0
  -29.9707  -13.6098   20.3631 N   0  0  0  0  0  0  0  0  0  0  0  0
  -25.4682  -15.0567   20.4057 N   0  0  0  0  0  0  0  0  0  0  0  0
  -21.8847  -12.5821   21.6019 N   0  0  0  0  0  0  0  0  0  0  0  0
  -18.6901  -17.3147   16.8868 N   0  0  0  0  0  0  0  0  0  0  0  0
  -22.0748  -12.9509   13.3460 N   0  0  0  0  0  0  0  0  0  0  0  0
  -30.1433  -15.6740   21.5046 N   0  0  0  0  0  0  0  0  0  0  0  0
  -24.4204  -13.4260   10.6367 N   0  3  0  0  0  0  0  0  0  0  0  0
  -22.6598  -14.7219   21.3209 O   0  0  0  0  0  0  0  0  0  0  0  0
  -20.7017  -16.4167   17.6415 O   0  0  0  0  0  0  0  0  0  0  0  0
  -19.7430  -14.4026   14.1607 O   0  0  0  0  0  0  0  0  0  0  0  0
  -24.3371  -13.4497   13.4489 O   0  0  0  0  0  0  0  0  0  0  0  0
  -31.8773  -14.9207   20.2074 O   0  0  0  0  0  0  0  0  0  0  0  0
  -21.6124   -7.0189   21.7109 O   0  0  0  0  0  0  0  0  0  0  0  0
  -26.3454  -18.7856   17.1701 O   0  0  0  0  0  0  0  0  0  1  0  0
  -21.8610   -2.9443   18.0042 F   0  0  0  0  0  0  0  0  0  0  0  0
  -24.0190   -5.8045   21.0974 F   0  0  0  0  0  0  0  0  0  0  0  0
  -32.3731  -19.0901   19.7213 Cl  0  0  0  0  0  0  0  0  0  0  0  0
  1  2  1  0  0  0  0
  1  5  2  0  0  0  0
  2  6  2  0  0  0  0
  3  8  2  0  0  0  0
  3 16  1  0  0  0  0
  4  9  1  0  0  0  0
  4 16  2  0  0  0  0
  5 18  1  0  0  0  0
  6 20  1  0  0  0  0
  7 10  2  0  0  0  0
  7 19  1  0  0  0  0
  8 23  1  0  0  0  0
  9 23  2  0  0  0  0
 10 24  1  0  0  0  0
 11 12  2  0  0  0  0
 11 25  1  0  0  0  0
 12 26  1  0  0  0  0
 13 21  1  0  0  0  0
 13 24  2  0  0  0  0
 14 22  2  0  0  0  0
 14 30  1  0  0  0  0
 15 26  2  0  0  0  0
 15 27  1  0  0  0  0
 16 29  1  0  0  0  0
 17 29  1  0  0  0  0
 17 32  2  0  0  0  0
 17 33  1  0  0  0  0
 18 20  2  0  0  0  0
 18 38  1  0  0  0  0
 19 21  2  0  0  0  0
 19 39  1  0  0  0  0
 20 47  1  0  0  0  0
 21 40  1  0  0  0  0
 22 28  1  0  0  0  0
 22 56  1  0  0  0  0
 23 78  1  0  0  0  0
 24 79  1  0  0  0  0
 25 27  2  0  0  0  0
 25 78  1  0  0  0  0
 26 80  1  0  0  0  0
 27 81  1  0  0  0  0
 28 31  2  0  0  0  0
 28 82  1  0  0  0  0
 29 62  2  0  0  0  0
 30 57  1  0  0  0  0
 30 63  2  0  0  0  0
 31 50  1  0  0  0  0
 31 63  1  0  0  0  0
 32 64  1  0  0  0  0
 32 67  1  0  0  0  0
 33 68  1  0  0  0  0
 33 73  2  0  0  0  0
 34 48  1  0  0  0  0
 34 69  1  0  0  0  0
 34 74  2  0  0  0  0
 35 59  1  0  0  0  0
 35 65  1  0  0  0  0
 35 75  2  0  0  0  0
 36 60  1  0  0  0  0
 36 70  1  0  0  0  0
 36 76  2  0  0  0  0
 37 66  1  0  0  0  0
 37 71  1  0  0  0  0
 37 77  2  0  0  0  0
 38 41  1  0  0  0  0
 39 48  1  0  0  0  0
 40 65  1  0  0  0  0
 41 43  1  0  0  0  0
 42 44  1  0  0  0  0
 42 45  1  0  0  0  0
 43 47  1  0  0  0  0
 44 49  1  0  0  0  0
 45 66  1  0  0  0  0
 46 49  1  0  0  0  0
 46 66  1  0  0  0  0
 47 69  1  0  0  0  0
 48 65  1  0  0  0  0
 49 64  1  0  0  0  0
 51 60  1  0  0  0  0
 52 61  1  0  0  0  0
 53 61  1  0  0  0  0
 54 61  1  0  0  0  0
 55 72  1  0  0  0  0
 56 58  1  0  0  0  0
 57 79  1  0  0  0  0
 58 71  1  0  0  0  0
 59 61  1  0  0  0  0
 59 70  1  0  0  0  0
 60 72  1  0  0  0  0
 62 64  1  0  0  0  0
M  CHG  1  72   1
M  ISO  4  37 100  57 101  71 100  79 101
M  END
> <Batch ID>
0100

> <Smiles>
CNC(C)C(=O)NC(C(=O)N1Cc2cc([101O:1][101CH2:1]c3cc(CC[100NH:0][100C:0](=O)N4CCCC(n5nc(-c6ccc(Oc7ccc(F)cc7F)cc6)c(C(N)=O)c5N)C4)c(Cl)c(C)n3)ccc2CC1C(=O)NC1CCCc2ccccc21)C(C)(C)C

> <Shape>
0.177

> <Color>
0.196

> <Negative vol penalty>
0.000

$$$$

  -OEChem-04052319333D

 85 93  0     1  0  0  0  0  0999 V2000
  -34.4209   -9.4633   20.3052 C   0  0  0  0  0  0  0  0  0  0  0  0
  -34.3282  -10.8431   20.4569 C   0  0  0  0  0  0  0  0  0  0  0  0
  -22.9887  -28.0180   25.1091 C   0  0  0  0  0  0  0  0  0  0  0  0
  -24.6455  -28.7021   23.4892 C   0  0  0  0  0  0  0  0  0  0  0  0
  -33.4330   -8.7722   19.6050 C   0  0  0  0  0  0  0  0  0  0  0  0
  -33.2479  -11.5327   19.9076 C   0  0  0  0  0  0  0  0  0  0  0  0
  -30.4630  -16.4664   22.2331 C   0  0  0  0  0  0  0  0  0  0  0  0
  -23.4843  -28.9576   26.0129 C   0  0  0  0  0  0  0  0  0  0  0  0
  -25.1411  -29.6419   24.3931 C   0  0  0  0  0  0  0  0  0  0  0  0
  -30.5845  -17.8282   21.9599 C   0  0  0  0  0  0  0  0  0  0  0  0
  -24.2959  -32.7229   25.4947 C   0  0  0  0  0  0  0  0  0  0  0  0
  -24.5689  -34.0028   25.0121 C   0  0  0  0  0  0  0  0  0  0  0  0
  -28.6954  -17.6908   20.4660 C   0  0  0  0  0  0  0  0  0  0  0  0
  -29.5951  -25.0167   21.0953 C   0  0  0  0  0  0  0  0  0  0  0  0
  -26.8837  -33.7522   25.6572 C   0  0  0  0  0  0  0  0  0  0  0  0
  -23.5693  -27.8902   23.8472 C   0  0  0  0  0  0  0  0  0  0  0  0
  -22.0436  -27.1120   21.9566 C   0  0  0  0  0  0  0  0  0  0  0  0
  -32.3351   -9.4525   19.0551 C   0  0  0  0  0  0  0  0  0  0  0  0
  -29.4619  -15.7031   21.6155 C   0  0  0  0  0  0  0  0  0  0  0  0
  -32.2451  -10.8502   19.1982 C   0  0  0  0  0  0  0  0  0  0  0  0
  -28.5617  -16.3201   20.7351 C   0  0  0  0  0  0  0  0  0  0  0  0
  -29.3347  -23.9928   20.2015 C   0  0  0  0  0  0  0  0  0  0  0  0
  -24.5605  -29.7696   25.6549 C   0  0  0  0  0  0  0  0  0  0  0  0
  -29.7025  -18.4400   21.0740 C   0  0  0  0  0  0  0  0  0  0  0  0
  -25.3167  -31.9576   26.0586 C   0  0  0  0  0  0  0  0  0  0  0  0
  -25.8628  -34.5174   25.0933 C   0  0  0  0  0  0  0  0  0  0  0  0
  -26.6106  -32.4723   26.1398 C   0  0  0  0  0  0  0  0  0  0  0  0
  -23.0582  -26.9193   22.9133 C   0  0  0  0  0  0  0  0  0  0  0  0
  -28.9526  -26.2229   20.9009 C   0  0  0  0  0  0  0  0  0  0  0  0
  -28.4489  -24.2429   19.1727 C   0  0  0  0  0  0  0  0  0  0  0  0
  -21.9305  -25.8969   21.3264 C   0  0  0  0  0  0  0  0  0  0  0  0
  -21.2724  -28.2847   21.6638 C   0  0  0  0  0  0  0  0  0  0  0  0
  -29.4373  -13.2106   19.6430 C   0  0  0  0  0  0  0  0  0  0  0  0
  -26.2346  -13.3436   20.1405 C   0  0  0  0  0  0  0  0  0  0  0  0
  -23.5139  -15.2077   21.0180 C   0  0  0  0  0  0  0  0  0  0  0  0
  -25.7373  -21.3432   20.5372 C   0  0  0  0  0  0  0  0  0  0  0  0
  -31.3165   -8.6686   18.2659 C   0  0  0  0  0  0  0  0  0  0  0  0
  -29.3274  -14.2409   21.9414 C   0  0  0  0  0  0  0  0  0  0  0  0
  -27.4569  -15.5493   20.0614 C   0  0  0  0  0  0  0  0  0  0  0  0
  -30.0105   -9.4249   18.0362 C   0  0  0  0  0  0  0  0  0  0  0  0
  -22.5356  -21.2126   22.0893 C   0  0  0  0  0  0  0  0  0  0  0  0
  -30.2936  -10.8508   17.5742 C   0  0  0  0  0  0  0  0  0  0  0  0
  -22.2149  -22.6777   22.3901 C   0  0  0  0  0  0  0  0  0  0  0  0
  -24.0216  -20.9113   22.2711 C   0  0  0  0  0  0  0  0  0  0  0  0
  -24.6090  -23.2616   21.8190 C   0  0  0  0  0  0  0  0  0  0  0  0
  -31.0757  -11.6305   18.6381 C   0  0  1  0  0  0  0  0  0  0  0  0
  -28.5921  -13.4532   20.8614 C   0  0  1  0  0  0  0  0  0  0  0  0
  -23.1316  -23.6270   21.5952 C   0  0  2  0  0  0  0  0  0  0  0  0
  -29.1987  -27.3579   21.8349 C   0  0  0  0  0  0  0  0  0  0  0  0
  -21.0249  -15.0504   21.2960 C   0  0  0  0  0  0  0  0  0  0  0  0
  -29.3357  -22.6428   17.3425 C   0  0  0  0  0  0  0  0  0  0  0  0
  -27.1253  -23.7432   17.1001 C   0  0  0  0  0  0  0  0  0  0  0  0
  -25.8934  -13.4252   17.1095 C   0  0  0  0  0  0  0  0  0  0  0  0
  -23.5437  -14.2130   17.4651 C   0  0  0  0  0  0  0  0  0  0  0  0
  -24.2467  -11.9721   18.3060 C   0  0  0  0  0  0  0  0  0  0  0  0
  -23.6757  -15.8857   23.8943 C   0  0  0  0  0  0  0  0  0  0  0  0
  -30.0096  -22.6548   20.3686 C   0  0  0  0  0  0  0  0  0  0  0  0
  -29.7272  -21.9865   21.7159 C   0  0  0  0  0  0  0  0  0  0  0  0
  -27.4275  -21.9356   18.8192 C   0  0  0  0  0  0  0  0  0  0  0  0
  -30.3429  -20.5978   21.8418 C   0  0  0  0  0  0  0  0  0  1  0  0
  -25.0783  -14.0525   19.4776 C   0  0  1  0  0  0  0  0  0  0  0  0
  -22.3757  -14.9354   21.9849 C   0  0  2  0  0  0  0  0  0  0  0  0
  -28.1204  -23.1879   18.1711 C   0  0  0  0  0  0  0  0  0  0  0  0
  -24.7124  -13.4301   18.1006 C   0  0  0  0  0  0  0  0  0  0  0  0
  -23.5542  -25.6792   22.8961 N   0  0  0  0  0  0  0  0  0  0  0  0
  -28.0905  -26.4396   19.8851 N   0  0  0  0  0  0  0  0  0  0  0  0
  -27.8344  -25.4332   19.0069 N   0  0  0  0  0  0  0  0  0  0  0  0
  -22.8483  -25.0818   21.9210 N   0  0  0  0  0  0  0  0  0  0  0  0
  -27.3705  -14.1210   20.4076 N   0  0  0  0  0  0  0  0  0  0  0  0
  -24.8357  -21.8456   21.4899 N   0  0  0  0  0  0  0  0  0  0  0  0
  -21.1365  -25.4568   20.3273 N   0  0  0  0  0  0  0  0  0  0  0  0
  -21.5169  -29.4479   22.4063 N   0  0  0  0  0  0  0  0  0  0  0  0
  -30.1933  -12.0556   19.7036 N   0  0  0  0  0  0  0  0  0  0  0  0
  -23.9865  -14.0458   20.4454 N   0  0  0  0  0  0  0  0  0  0  0  0
  -26.4652  -22.2969   19.8362 N   0  0  0  0  0  0  0  0  0  0  0  0
  -22.4117  -15.9073   23.1141 N   0  3  0  0  0  0  0  0  0  0  0  0
  -20.3811  -28.2958   20.7812 O   0  0  0  0  0  0  0  0  0  0  0  0
  -29.4047  -14.0113   18.7159 O   0  0  0  0  0  0  0  0  0  0  0  0
  -26.1311  -12.1461   20.4178 O   0  0  0  0  0  0  0  0  0  0  0  0
  -23.9386  -16.3383   20.7905 O   0  0  0  0  0  0  0  0  0  0  0  0
  -25.8790  -20.1344   20.3232 O   0  0  0  0  0  0  0  0  0  0  0  0
  -25.0442  -30.6868   26.5366 O   0  0  0  0  0  0  0  0  0  0  0  0
  -29.8193  -19.7688   20.8050 O   0  0  0  0  0  0  0  0  0  1  0  0
  -26.1252  -35.7459   24.6284 F   0  0  0  0  0  0  0  0  0  0  0  0
  -27.5957  -31.7414   26.6795 F   0  0  0  0  0  0  0  0  0  0  0  0
  1  2  1  0  0  0  0
  1  5  2  0  0  0  0
  2  6  2  0  0  0  0
  3  8  2  0  0  0  0
  3 16  1  0  0  0  0
  4  9  1  0  0  0  0
  4 16  2  0  0  0  0
  5 18  1  0  0  0  0
  6 20  1  0  0  0  0
  7 10  2  0  0  0  0
  7 19  1  0  0  0  0
  8 23  1  0  0  0  0
  9 23  2  0  0  0  0
 10 24  1  0  0  0  0
 11 12  2  0  0  0  0
 11 25  1  0  0  0  0
 12 26  1  0  0  0  0
 13 21  1  0  0  0  0
 13 24  2  0  0  0  0
 14 22  1  0  0  0  0
 14 29  2  0  0  0  0
 15 26  2  0  0  0  0
 15 27  1  0  0  0  0
 16 28  1  0  0  0  0
 17 28  1  0  0  0  0
 17 31  2  0  0  0  0
 17 32  1  0  0  0  0
 18 20  2  0  0  0  0
 18 37  1  0  0  0  0
 19 21  2  0  0  0  0
 19 38  1  0  0  0  0
 20 46  1  0  0  0  0
 21 39  1  0  0  0  0
 22 30  2  0  0  0  0
 22 57  1  0  0  0  0
 23 82  1  0  0  0  0
 24 83  1  0  0  0  0
 25 27  2  0  0  0  0
 25 82  1  0  0  0  0
 26 84  1  0  0  0  0
 27 85  1  0  0  0  0
 28 65  2  0  0  0  0
 29 49  1  0  0  0  0
 29 66  1  0  0  0  0
 30 63  1  0  0  0  0
 30 67  1  0  0  0  0
 31 68  1  0  0  0  0
 31 71  1  0  0  0  0
 32 72  1  0  0  0  0
 32 77  2  0  0  0  0
 33 47  1  0  0  0  0
 33 73  1  0  0  0  0
 33 78  2  0  0  0  0
 34 61  1  0  0  0  0
 34 69  1  0  0  0  0
 34 79  2  0  0  0  0
 35 62  1  0  0  0  0
 35 74  1  0  0  0  0
 35 80  2  0  0  0  0
 36 70  1  0  0  0  0
 36 75  1  0  0  0  0
 36 81  2  0  0  0  0
 37 40  1  0  0  0  0
 38 47  1  0  0  0  0
 39 69  1  0  0  0  0
 40 42  1  0  0  0  0
 41 43  1  0  0  0  0
 41 44  1  0  0  0  0
 42 46  1  0  0  0  0
 43 48  1  0  0  0  0
 44 70  1  0  0  0  0
 45 48  1  0  0  0  0
 45 70  1  0  0  0  0
 46 73  1  0  0  0  0
 47 69  1  0  0  0  0
 48 68  1  0  0  0  0
 50 62  1  0  0  0  0
 51 63  1  0  0  0  0
 52 63  1  0  0  0  0
 53 64  1  0  0  0  0
 54 64  1  0  0  0  0
 55 64  1  0  0  0  0
 56 76  1  0  0  0  0
 57 58  1  0  0  0  0
 58 60  1  0  0  0  0
 59 63  1  0  0  0  0
 59 75  1  0  0  0  0
 60 83  1  0  0  0  0
 61 64  1  0  0  0  0
 61 74  1  0  0  0  0
 62 76  1  0  0  0  0
 65 68  1  0  0  0  0
 66 67  2  0  0  0  0
M  CHG  1  76   1
M  ISO  4  36 100  60 101  75 100  83 101
M  END
> <Batch ID>
0100

> <Smiles>
CNC(C)C(=O)NC(C(=O)N1Cc2cc([101O:1][101CH2:1]CCc3cc(C)nnc3C(C)(C)C[100NH:0][100C:0](=O)N3CCCC(n4nc(-c5ccc(Oc6ccc(F)cc6F)cc5)c(C(N)=O)c4N)C3)ccc2CC1C(=O)NC1CCCc2ccccc21)C(C)(C)C

> <Shape>
0.244

> <Color>
0.054

> <Negative vol penalty>
0.000

$$$$

  -OEChem-04052319333D

 92100  0     1  0  0  0  0  0999 V2000
  -19.5479  -25.6508   18.5559 C   0  0  0  0  0  0  0  0  0  0  0  0
  -20.0064  -24.3582   18.7888 C   0  0  0  0  0  0  0  0  0  0  0  0
  -23.0020   -9.8946   19.9810 C   0  0  0  0  0  0  0  0  0  0  0  0
  -23.7351   -9.9405   22.2826 C   0  0  0  0  0  0  0  0  0  0  0  0
  -19.9622  -26.6955   19.3810 C   0  0  0  0  0  0  0  0  0  0  0  0
  -20.8804  -24.1096   19.8466 C   0  0  0  0  0  0  0  0  0  0  0  0
  -21.1058  -19.0786   23.3314 C   0  0  0  0  0  0  0  0  0  0  0  0
  -22.2383   -8.7581   20.2469 C   0  0  0  0  0  0  0  0  0  0  0  0
  -22.9714   -8.8040   22.5486 C   0  0  0  0  0  0  0  0  0  0  0  0
  -21.9228  -17.9494   23.2967 C   0  0  0  0  0  0  0  0  0  0  0  0
  -23.2196   -5.4668   22.0667 C   0  0  0  0  0  0  0  0  0  0  0  0
  -23.8114   -4.4485   22.8140 C   0  0  0  0  0  0  0  0  0  0  0  0
  -23.3593  -18.9450   24.9594 C   0  0  0  0  0  0  0  0  0  0  0  0
  -29.5502  -17.8751   28.2780 C   0  0  0  0  0  0  0  0  0  0  0  0
  -31.2135  -17.3491   26.6067 C   0  0  0  0  0  0  0  0  0  0  0  0
  -22.0930   -4.6840   24.4959 C   0  0  0  0  0  0  0  0  0  0  0  0
  -23.7505  -10.4858   20.9988 C   0  0  0  0  0  0  0  0  0  0  0  0
  -24.1310  -13.0025   20.8283 C   0  0  0  0  0  0  0  0  0  0  0  0
  -20.8341  -26.4580   20.4553 C   0  0  0  0  0  0  0  0  0  0  0  0
  -21.4160  -20.1559   24.1738 C   0  0  0  0  0  0  0  0  0  0  0  0
  -21.3078  -25.1523   20.6861 C   0  0  0  0  0  0  0  0  0  0  0  0
  -22.5432  -20.0856   25.0048 C   0  0  0  0  0  0  0  0  0  0  0  0
  -30.8833  -17.8421   27.8691 C   0  0  0  0  0  0  0  0  0  0  0  0
  -28.5472  -17.4150   27.4247 C   0  0  0  0  0  0  0  0  0  0  0  0
  -30.2107  -16.8890   25.7533 C   0  0  0  0  0  0  0  0  0  0  0  0
  -28.8775  -16.9220   26.1623 C   0  0  0  0  0  0  0  0  0  0  0  0
  -22.2229   -8.2128   21.5307 C   0  0  0  0  0  0  0  0  0  0  0  0
  -23.0513  -17.8837   24.1086 C   0  0  0  0  0  0  0  0  0  0  0  0
  -22.0645   -6.0937   22.5341 C   0  0  0  0  0  0  0  0  0  0  0  0
  -23.2481   -4.0571   24.0286 C   0  0  0  0  0  0  0  0  0  0  0  0
  -21.5012   -5.7023   23.7486 C   0  0  0  0  0  0  0  0  0  0  0  0
  -24.5400  -11.6594   20.7246 C   0  0  0  0  0  0  0  0  0  0  0  0
  -25.2383  -13.7279   20.4620 C   0  0  0  0  0  0  0  0  0  0  0  0
  -22.8635  -13.5457   21.2207 C   0  0  0  0  0  0  0  0  0  0  0  0
  -22.1336  -23.2198   23.7252 C   0  0  0  0  0  0  0  0  0  0  0  0
  -21.9939  -23.3239   26.9644 C   0  0  0  0  0  0  0  0  0  0  0  0
  -22.2114  -21.6476   29.9290 C   0  0  0  0  0  0  0  0  0  0  0  0
  -30.7339  -14.6709   20.6938 C   0  0  0  0  0  0  0  0  0  0  0  0
  -21.2914  -27.6271   21.2912 C   0  0  0  0  0  0  0  0  0  0  0  0
  -20.5098  -21.3556   24.2191 C   0  0  0  0  0  0  0  0  0  0  0  0
  -22.9089  -21.2068   25.9417 C   0  0  0  0  0  0  0  0  0  0  0  0
  -21.9235  -27.2165   22.6187 C   0  0  0  0  0  0  0  0  0  0  0  0
  -29.5890  -12.2517   18.3458 C   0  0  0  0  0  0  0  0  0  0  0  0
  -22.9252  -26.0860   22.4059 C   0  0  0  0  0  0  0  0  0  0  0  0
  -28.1425  -11.9885   18.7677 C   0  0  0  0  0  0  0  0  0  0  0  0
  -30.4953  -12.4853   19.5525 C   0  0  0  0  0  0  0  0  0  0  0  0
  -28.5886  -13.2740   20.9001 C   0  0  0  0  0  0  0  0  0  0  0  0
  -22.2371  -24.8386   21.8385 C   0  0  1  0  0  0  0  0  0  0  0  0
  -21.2054  -22.6105   24.7376 C   0  0  1  0  0  0  0  0  0  0  0  0
  -27.6257  -13.0880   19.7149 C   0  0  2  0  0  0  0  0  0  0  0  0
  -31.9552  -18.3347   28.7818 C   0  0  0  0  0  0  0  0  0  0  0  0
  -26.8066  -16.3409   28.8749 C   0  0  0  0  0  0  0  0  0  0  0  0
  -22.0898  -22.0081   32.4095 C   0  0  0  0  0  0  0  0  0  0  0  0
  -26.5909  -10.3265   25.9323 C   0  0  0  0  0  0  0  0  0  0  0  0
  -28.0366  -11.2798   24.1270 C   0  0  0  0  0  0  0  0  0  0  0  0
  -24.7872  -24.5511   26.9206 C   0  0  0  0  0  0  0  0  0  0  0  0
  -24.9873  -24.0099   29.3568 C   0  0  0  0  0  0  0  0  0  0  0  0
  -23.2193  -25.5850   28.5720 C   0  0  0  0  0  0  0  0  0  0  0  0
  -19.8954  -19.8247   30.1974 C   0  0  0  0  0  0  0  0  0  0  0  0
  -27.1284  -17.4616   27.8913 C   0  0  0  0  0  0  0  0  0  0  0  0
  -30.5945  -16.3661   24.4071 C   0  0  0  0  0  0  0  0  0  0  0  0
  -30.3760  -17.3622   23.2528 C   0  0  0  0  0  0  0  0  0  0  0  0
  -26.8337  -12.8221   25.7684 C   0  0  0  0  0  0  0  0  0  0  0  0
  -27.7146  -14.0305   25.4195 C   0  0  0  0  0  0  0  0  0  0  0  0
  -25.7343  -15.4591   24.7722 C   0  0  0  0  0  0  0  0  0  0  0  0
  -30.8172  -16.8468   21.8846 C   0  0  0  0  0  0  0  0  0  0  0  0
  -24.9905  -16.7813   24.9335 C   0  0  0  0  0  0  0  0  0  1  0  0
  -22.9844  -23.1153   28.0844 C   0  0  1  0  0  0  0  0  0  0  0  0
  -21.3136  -21.6452   31.1531 C   0  0  2  0  0  0  0  0  0  0  0  0
  -27.5404  -11.4687   25.5613 C   0  0  0  0  0  0  0  0  0  0  0  0
  -26.9929  -15.3704   25.6460 C   0  0  2  0  0  0  0  0  0  0  0  0
  -23.9890  -24.2948   28.2145 C   0  0  0  0  0  0  0  0  0  0  0  0
  -25.8081  -11.5361   20.3236 N   0  0  0  0  0  0  0  0  0  0  0  0
  -26.2054  -12.8110   20.1721 N   0  0  0  0  0  0  0  0  0  0  0  0
  -21.9950  -22.3611   25.9452 N   0  0  0  0  0  0  0  0  0  0  0  0
  -29.9497  -13.5408   20.4093 N   0  0  0  0  0  0  0  0  0  0  0  0
  -25.4692  -15.0542   20.3627 N   0  0  0  0  0  0  0  0  0  0  0  0
  -21.8344  -12.6589   21.5655 N   0  0  0  0  0  0  0  0  0  0  0  0
  -27.8834  -16.4656   25.3167 N   0  0  0  0  0  0  0  0  0  0  0  0
  -21.5273  -24.1332   22.8840 N   0  0  0  0  0  0  0  0  0  0  0  0
  -22.1953  -22.8673   29.2862 N   0  0  0  0  0  0  0  0  0  0  0  0
  -30.1388  -15.6265   21.5083 N   0  0  0  0  0  0  0  0  0  0  0  0
  -20.7072  -20.2978   31.3481 N   0  3  0  0  0  0  0  0  0  0  0  0
  -22.6448  -14.7806   21.2486 O   0  0  0  0  0  0  0  0  0  0  0  0
  -23.3129  -22.8871   23.7095 O   0  0  0  0  0  0  0  0  0  0  0  0
  -21.2419  -24.3013   26.9963 O   0  0  0  0  0  0  0  0  0  0  0  0
  -22.8649  -20.6668   29.5803 O   0  0  0  0  0  0  0  0  0  0  0  0
  -31.8776  -14.8199   20.2501 O   0  0  0  0  0  0  0  0  0  0  0  0
  -21.4776   -7.1040   21.7906 O   0  0  0  0  0  0  0  0  0  0  0  0
  -23.8565  -16.7751   24.0760 O   0  0  0  0  0  0  0  0  0  1  0  0
  -23.8157   -3.0782   24.7453 F   0  0  0  0  0  0  0  0  0  0  0  0
  -20.3909   -6.3001   24.2021 F   0  0  0  0  0  0  0  0  0  0  0  0
  1  2  1  0  0  0  0
  1  5  2  0  0  0  0
  2  6  2  0  0  0  0
  3  8  2  0  0  0  0
  3 17  1  0  0  0  0
  4  9  1  0  0  0  0
  4 17  2  0  0  0  0
  5 19  1  0  0  0  0
  6 21  1  0  0  0  0
  7 10  2  0  0  0  0
  7 20  1  0  0  0  0
  8 27  1  0  0  0  0
  9 27  2  0  0  0  0
 10 28  1  0  0  0  0
 11 12  2  0  0  0  0
 11 29  1  0  0  0  0
 12 30  1  0  0  0  0
 13 22  1  0  0  0  0
 13 28  2  0  0  0  0
 14 23  2  0  0  0  0
 14 24  1  0  0  0  0
 15 23  1  0  0  0  0
 15 25  2  0  0  0  0
 16 30  2  0  0  0  0
 16 31  1  0  0  0  0
 17 32  1  0  0  0  0
 18 32  1  0  0  0  0
 18 33  2  0  0  0  0
 18 34  1  0  0  0  0
 19 21  2  0  0  0  0
 19 39  1  0  0  0  0
 20 22  2  0  0  0  0
 20 40  1  0  0  0  0
 21 48  1  0  0  0  0
 22 41  1  0  0  0  0
 23 51  1  0  0  0  0
 24 26  2  0  0  0  0
 24 60  1  0  0  0  0
 25 26  1  0  0  0  0
 25 61  1  0  0  0  0
 26 79  1  0  0  0  0
 27 89  1  0  0  0  0
 28 90  1  0  0  0  0
 29 31  2  0  0  0  0
 29 89  1  0  0  0  0
 30 91  1  0  0  0  0
 31 92  1  0  0  0  0
 32 73  2  0  0  0  0
 33 74  1  0  0  0  0
 33 77  1  0  0  0  0
 34 78  1  0  0  0  0
 34 84  2  0  0  0  0
 35 49  1  0  0  0  0
 35 80  1  0  0  0  0
 35 85  2  0  0  0  0
 36 68  1  0  0  0  0
 36 75  1  0  0  0  0
 36 86  2  0  0  0  0
 37 69  1  0  0  0  0
 37 81  1  0  0  0  0
 37 87  2  0  0  0  0
 38 76  1  0  0  0  0
 38 82  1  0  0  0  0
 38 88  2  0  0  0  0
 39 42  1  0  0  0  0
 40 49  1  0  0  0  0
 41 75  1  0  0  0  0
 42 44  1  0  0  0  0
 43 45  1  0  0  0  0
 43 46  1  0  0  0  0
 44 48  1  0  0  0  0
 45 50  1  0  0  0  0
 46 76  1  0  0  0  0
 47 50  1  0  0  0  0
 47 76  1  0  0  0  0
 48 80  1  0  0  0  0
 49 75  1  0  0  0  0
 50 74  1  0  0  0  0
 52 60  1  0  0  0  0
 53 69  1  0  0  0  0
 54 70  1  0  0  0  0
 55 70  1  0  0  0  0
 56 72  1  0  0  0  0
 57 72  1  0  0  0  0
 58 72  1  0  0  0  0
 59 83  1  0  0  0  0
 61 62  1  0  0  0  0
 62 66  1  0  0  0  0
 63 64  1  0  0  0  0
 63 70  1  0  0  0  0
 64 71  1  0  0  0  0
 65 67  1  0  0  0  0
 65 71  1  0  0  0  0
 66 82  1  0  0  0  0
 67 90  1  0  0  0  0
 68 72  1  0  0  0  0
 68 81  1  0  0  0  0
 69 83  1  0  0  0  0
 71 79  1  0  0  0  0
 73 74  1  0  0  0  0
M  CHG  1  83   1
M  ISO  4  38 100  67 101  82 100  90 101
M  END
> <Batch ID>
0100

> <Smiles>
CCc1cc(C)cc(CCC[100NH:0][100C:0](=O)N2CCCC(n3nc(-c4ccc(Oc5ccc(F)cc5F)cc4)c(C(N)=O)c3N)C2)c1NC(CCC(C)C)C[101CH2:1][101O:1]c1ccc2c(c1)CN(C(=O)C(NC(=O)C(C)NC)C(C)(C)C)C(C(=O)NC1CCCc3ccccc31)C2

> <Shape>
0.182

> <Color>
0.193

> <Negative vol penalty>
0.000

$$$$

  -OEChem-04052319333D

 80 88  0     1  0  0  0  0  0999 V2000
  -29.3959  -11.3210   18.9623 C   0  0  0  0  0  0  0  0  0  0  0  0
  -29.4158  -12.7065   18.8378 C   0  0  0  0  0  0  0  0  0  0  0  0
  -20.6787  -24.7698   23.6895 C   0  0  0  0  0  0  0  0  0  0  0  0
  -20.7532  -26.2145   21.7545 C   0  0  0  0  0  0  0  0  0  0  0  0
  -28.2433  -10.6793   19.4135 C   0  0  0  0  0  0  0  0  0  0  0  0
  -28.2827  -13.4510   19.1635 C   0  0  0  0  0  0  0  0  0  0  0  0
  -29.3794  -17.5492   21.9287 C   0  0  0  0  0  0  0  0  0  0  0  0
  -19.4669  -25.3448   24.0722 C   0  0  0  0  0  0  0  0  0  0  0  0
  -19.5413  -26.7895   22.1372 C   0  0  0  0  0  0  0  0  0  0  0  0
  -29.9010  -18.6519   21.2536 C   0  0  0  0  0  0  0  0  0  0  0  0
  -18.4708  -29.0898   24.3718 C   0  0  0  0  0  0  0  0  0  0  0  0
  -18.3668  -30.4797   24.3166 C   0  0  0  0  0  0  0  0  0  0  0  0
  -27.7202  -19.6830   21.2652 C   0  0  0  0  0  0  0  0  0  0  0  0
  -30.2736  -23.7894   19.8604 C   0  0  0  0  0  0  0  0  0  0  0  0
  -16.5444  -30.2808   22.7430 C   0  0  0  0  0  0  0  0  0  0  0  0
  -30.7073  -24.8557   17.7792 C   0  0  0  0  0  0  0  0  0  0  0  0
  -29.2413  -23.0878   17.8360 C   0  0  0  0  0  0  0  0  0  0  0  0
  -21.3219  -25.2047   22.5307 C   0  0  0  0  0  0  0  0  0  0  0  0
  -22.7586  -23.4900   21.3046 C   0  0  0  0  0  0  0  0  0  0  0  0
  -27.0986  -11.4171   19.7541 C   0  0  0  0  0  0  0  0  0  0  0  0
  -28.0197  -17.5003   22.2680 C   0  0  0  0  0  0  0  0  0  0  0  0
  -27.1132  -12.8184   19.6184 C   0  0  0  0  0  0  0  0  0  0  0  0
  -27.1844  -18.5797   21.9468 C   0  0  0  0  0  0  0  0  0  0  0  0
  -30.9405  -24.7760   19.1427 C   0  0  0  0  0  0  0  0  0  0  0  0
  -29.4060  -22.9250   19.2021 C   0  0  0  0  0  0  0  0  0  0  0  0
  -18.8982  -26.3546   23.2961 C   0  0  0  0  0  0  0  0  0  0  0  0
  -29.0708  -19.7178   20.9192 C   0  0  0  0  0  0  0  0  0  0  0  0
  -17.6116  -28.2954   23.6126 C   0  0  0  0  0  0  0  0  0  0  0  0
  -17.4036  -31.0752   23.5022 C   0  0  0  0  0  0  0  0  0  0  0  0
  -16.6484  -28.8909   22.7982 C   0  0  0  0  0  0  0  0  0  0  0  0
  -22.5741  -24.6116   22.1351 C   0  0  0  0  0  0  0  0  0  0  0  0
  -24.1214  -23.3324   21.2383 C   0  0  0  0  0  0  0  0  0  0  0  0
  -21.7852  -22.6645   20.6514 C   0  0  0  0  0  0  0  0  0  0  0  0
  -25.5869  -15.5981   21.5150 C   0  0  0  0  0  0  0  0  0  0  0  0
  -24.0166  -17.3810   23.7235 C   0  0  0  0  0  0  0  0  0  0  0  0
  -23.7792  -20.3248   25.4336 C   0  0  0  0  0  0  0  0  0  0  0  0
  -28.8500  -26.4902   20.9538 C   0  0  0  0  0  0  0  0  0  0  0  0
  -25.8607  -10.6754   20.1924 C   0  0  0  0  0  0  0  0  0  0  0  0
  -27.4782  -16.3154   23.0199 C   0  0  0  0  0  0  0  0  0  0  0  0
  -25.7218  -18.5850   22.3065 C   0  0  0  0  0  0  0  0  0  0  0  0
  -24.8256  -11.5669   20.8735 C   0  0  0  0  0  0  0  0  0  0  0  0
  -27.9389  -24.7969   24.0197 C   0  0  0  0  0  0  0  0  0  0  0  0
  -24.6156  -12.8485   20.0733 C   0  0  0  0  0  0  0  0  0  0  0  0
  -26.4683  -24.4659   23.7589 C   0  0  0  0  0  0  0  0  0  0  0  0
  -28.3097  -26.1596   23.4420 C   0  0  0  0  0  0  0  0  0  0  0  0
  -26.5503  -25.9819   21.7255 C   0  0  0  0  0  0  0  0  0  0  0  0
  -25.9121  -13.6627   19.9855 C   0  0  1  0  0  0  0  0  0  0  0  0
  -25.9705  -16.1451   22.8609 C   0  0  1  0  0  0  0  0  0  0  0  0
  -26.1186  -24.6064   22.2655 C   0  0  2  0  0  0  0  0  0  0  0  0
  -22.3690  -21.5014   27.1437 C   0  0  0  0  0  0  0  0  0  0  0  0
  -21.8861  -17.9046   21.6028 C   0  0  0  0  0  0  0  0  0  0  0  0
  -21.0443  -19.7930   23.0147 C   0  0  0  0  0  0  0  0  0  0  0  0
  -20.9895  -17.4595   23.8947 C   0  0  0  0  0  0  0  0  0  0  0  0
  -26.0484  -20.5489   27.3203 C   0  0  0  0  0  0  0  0  0  0  0  0
  -31.8742  -25.7168   19.8178 C   0  0  0  0  0  0  0  0  0  0  0  0
  -28.6698  -21.8515   19.9483 C   0  0  0  0  0  0  0  0  0  1  0  0
  -31.1985  -26.9955   20.3322 C   0  0  0  0  0  0  0  0  0  0  0  0
  -23.2077  -18.6552   23.6899 C   0  0  1  0  0  0  0  0  0  0  0  0
  -23.5855  -20.6192   26.9102 C   0  0  2  0  0  0  0  0  0  0  0  0
  -21.8090  -18.4524   23.0419 C   0  0  0  0  0  0  0  0  0  0  0  0
  -29.8718  -24.0341   17.1050 N   0  0  0  0  0  0  0  0  0  0  0  0
  -23.7274  -25.1297   22.5657 N   0  0  0  0  0  0  0  0  0  0  0  0
  -24.6497  -24.3301   22.0036 N   0  0  0  0  0  0  0  0  0  0  0  0
  -25.2382  -17.4010   23.0358 N   0  0  0  0  0  0  0  0  0  0  0  0
  -27.9683  -26.2211   22.0138 N   0  0  0  0  0  0  0  0  0  0  0  0
  -24.9074  -22.4391   20.6007 N   0  0  0  0  0  0  0  0  0  0  0  0
  -20.4278  -22.9667   20.8257 N   0  0  0  0  0  0  0  0  0  0  0  0
  -26.1499  -14.3697   21.2257 N   0  0  0  0  0  0  0  0  0  0  0  0
  -23.1646  -19.1476   25.0626 N   0  0  0  0  0  0  0  0  0  0  0  0
  -30.1739  -26.7123   21.3125 N   0  0  0  0  0  0  0  0  0  0  0  0
  -24.7830  -21.3144   27.4612 N   0  3  0  0  0  0  0  0  0  0  0  0
  -22.1091  -21.6779   19.9476 O   0  0  0  0  0  0  0  0  0  0  0  0
  -24.8347  -16.2421   20.7931 O   0  0  0  0  0  0  0  0  0  0  0  0
  -23.5838  -16.4061   24.3432 O   0  0  0  0  0  0  0  0  0  0  0  0
  -24.4093  -21.0670   24.6835 O   0  0  0  0  0  0  0  0  0  0  0  0
  -28.4853  -26.5248   19.7736 O   0  0  0  0  0  0  0  0  0  0  0  0
  -17.7155  -26.9157   23.6691 O   0  0  0  0  0  0  0  0  0  0  0  0
  -29.5772  -20.7950   20.2596 O   0  0  0  0  0  0  0  0  0  1  0  0
  -17.3029  -32.4099   23.4505 F   0  0  0  0  0  0  0  0  0  0  0  0
  -15.8194  -28.1330   22.0674 F   0  0  0  0  0  0  0  0  0  0  0  0
  1  2  1  0  0  0  0
  1  5  2  0  0  0  0
  2  6  2  0  0  0  0
  3  8  2  0  0  0  0
  3 18  1  0  0  0  0
  4  9  1  0  0  0  0
  4 18  2  0  0  0  0
  5 20  1  0  0  0  0
  6 22  1  0  0  0  0
  7 10  2  0  0  0  0
  7 21  1  0  0  0  0
  8 26  1  0  0  0  0
  9 26  2  0  0  0  0
 10 27  1  0  0  0  0
 11 12  2  0  0  0  0
 11 28  1  0  0  0  0
 12 29  1  0  0  0  0
 13 23  1  0  0  0  0
 13 27  2  0  0  0  0
 14 24  1  0  0  0  0
 14 25  2  0  0  0  0
 15 29  2  0  0  0  0
 15 30  1  0  0  0  0
 16 24  2  0  0  0  0
 16 61  1  0  0  0  0
 17 25  1  0  0  0  0
 17 61  2  0  0  0  0
 18 31  1  0  0  0  0
 19 31  1  0  0  0  0
 19 32  2  0  0  0  0
 19 33  1  0  0  0  0
 20 22  2  0  0  0  0
 20 38  1  0  0  0  0
 21 23  2  0  0  0  0
 21 39  1  0  0  0  0
 22 47  1  0  0  0  0
 23 40  1  0  0  0  0
 24 55  1  0  0  0  0
 25 56  1  0  0  0  0
 26 77  1  0  0  0  0
 27 78  1  0  0  0  0
 28 30  2  0  0  0  0
 28 77  1  0  0  0  0
 29 79  1  0  0  0  0
 30 80  1  0  0  0  0
 31 62  2  0  0  0  0
 32 63  1  0  0  0  0
 32 66  1  0  0  0  0
 33 67  1  0  0  0  0
 33 72  2  0  0  0  0
 34 48  1  0  0  0  0
 34 68  1  0  0  0  0
 34 73  2  0  0  0  0
 35 58  1  0  0  0  0
 35 64  1  0  0  0  0
 35 74  2  0  0  0  0
 36 59  1  0  0  0  0
 36 69  1  0  0  0  0
 36 75  2  0  0  0  0
 37 65  1  0  0  0  0
 37 70  1  0  0  0  0
 37 76  2  0  0  0  0
 38 41  1  0  0  0  0
 39 48  1  0  0  0  0
 40 64  1  0  0  0  0
 41 43  1  0  0  0  0
 42 44  1  0  0  0  0
 42 45  1  0  0  0  0
 43 47  1  0  0  0  0
 44 49  1  0  0  0  0
 45 65  1  0  0  0  0
 46 49  1  0  0  0  0
 46 65  1  0  0  0  0
 47 68  1  0  0  0  0
 48 64  1  0  0  0  0
 49 63  1  0  0  0  0
 50 59  1  0  0  0  0
 51 60  1  0  0  0  0
 52 60  1  0  0  0  0
 53 60  1  0  0  0  0
 54 71  1  0  0  0  0
 55 57  1  0  0  0  0
 56 78  1  0  0  0  0
 57 70  1  0  0  0  0
 58 60  1  0  0  0  0
 58 69  1  0  0  0  0
 59 71  1  0  0  0  0
 62 63  1  0  0  0  0
M  CHG  1  71   1
M  ISO  4  37 100  56 101  70 100  78 101
M  END
> <Batch ID>
0100

> <Smiles>
CNC(C)C(=O)NC(C(=O)N1Cc2cc([101O:1][101CH2:1]c3cncc(CC[100NH:0][100C:0](=O)N4CCCC(n5nc(-c6ccc(Oc7ccc(F)cc7F)cc6)c(C(N)=O)c5N)C4)c3)ccc2CC1C(=O)NC1CCCc2ccccc21)C(C)(C)C

> <Shape>
0.218

> <Color>
0.069

> <Negative vol penalty>
0.000

$$$$

  -OEChem-04052319333D

 85 93  0     1  0  0  0  0  0999 V2000
  -29.7928  -26.1005   16.1781 C   0  0  0  0  0  0  0  0  0  0  0  0
  -29.2176  -24.9893   16.7861 C   0  0  0  0  0  0  0  0  0  0  0  0
  -26.4614  -12.4754   21.5831 C   0  0  0  0  0  0  0  0  0  0  0  0
  -25.5690  -13.7281   19.7200 C   0  0  0  0  0  0  0  0  0  0  0  0
  -29.8166  -27.3245   16.8452 C   0  0  0  0  0  0  0  0  0  0  0  0
  -28.6669  -25.1012   18.0623 C   0  0  0  0  0  0  0  0  0  0  0  0
  -23.3620  -22.4839   22.1027 C   0  0  0  0  0  0  0  0  0  0  0  0
  -25.2759  -11.7445   21.6595 C   0  0  0  0  0  0  0  0  0  0  0  0
  -24.3835  -12.9971   19.7963 C   0  0  0  0  0  0  0  0  0  0  0  0
  -23.1461  -21.8979   23.3492 C   0  0  0  0  0  0  0  0  0  0  0  0
  -23.8358   -9.1564   20.0283 C   0  0  0  0  0  0  0  0  0  0  0  0
  -23.9356   -7.7736   20.1812 C   0  0  0  0  0  0  0  0  0  0  0  0
  -23.1735  -24.0816   24.3738 C   0  0  0  0  0  0  0  0  0  0  0  0
  -22.7217   -7.9165   22.2652 C   0  0  0  0  0  0  0  0  0  0  0  0
  -26.6079  -13.4673   20.6134 C   0  0  0  0  0  0  0  0  0  0  0  0
  -28.9764  -13.9111   19.7762 C   0  0  0  0  0  0  0  0  0  0  0  0
  -29.2573  -27.4539   18.1263 C   0  0  0  0  0  0  0  0  0  0  0  0
  -23.4964  -23.8747   21.9837 C   0  0  0  0  0  0  0  0  0  0  0  0
  -28.6845  -26.3278   18.7478 C   0  0  0  0  0  0  0  0  0  0  0  0
  -23.3885  -24.6830   23.1243 C   0  0  0  0  0  0  0  0  0  0  0  0
  -24.2370  -12.0053   20.7661 C   0  0  0  0  0  0  0  0  0  0  0  0
  -23.0547  -22.6965   24.4854 C   0  0  0  0  0  0  0  0  0  0  0  0
  -23.1790   -9.9193   20.9938 C   0  0  0  0  0  0  0  0  0  0  0  0
  -23.3786   -7.1536   21.2996 C   0  0  0  0  0  0  0  0  0  0  0  0
  -22.6220   -9.2993   22.1123 C   0  0  0  0  0  0  0  0  0  0  0  0
  -27.8321  -14.2232   20.5344 C   0  0  0  0  0  0  0  0  0  0  0  0
  -29.8540  -14.9336   20.0422 C   0  0  0  0  0  0  0  0  0  0  0  0
  -29.2240  -12.7965   18.9088 C   0  0  0  0  0  0  0  0  0  0  0  0
  -28.5858  -23.4075   25.5270 C   0  0  0  0  0  0  0  0  0  0  0  0
  -25.8057  -25.8299   21.0100 C   0  0  0  0  0  0  0  0  0  0  0  0
  -23.5182  -28.0961   21.4030 C   0  0  0  0  0  0  0  0  0  0  0  0
  -20.6194  -29.0524   22.9291 C   0  0  0  0  0  0  0  0  0  0  0  0
  -29.2116  -20.4721   21.5801 C   0  0  0  0  0  0  0  0  0  0  0  0
  -29.3489  -28.7861   18.8273 C   0  0  0  0  0  0  0  0  0  0  0  0
  -23.7024  -24.4934   20.6282 C   0  0  0  0  0  0  0  0  0  0  0  0
  -23.5055  -26.1826   23.0474 C   0  0  0  0  0  0  0  0  0  0  0  0
  -28.4095  -28.9105   20.0241 C   0  0  0  0  0  0  0  0  0  0  0  0
  -30.9987  -23.5702   22.5471 C   0  0  0  0  0  0  0  0  0  0  0  0
  -31.0176  -18.0934   23.4319 C   0  0  0  0  0  0  0  0  0  0  0  0
  -28.4906  -27.6632   20.8984 C   0  0  0  0  0  0  0  0  0  0  0  0
  -30.1901  -24.0535   23.7479 C   0  0  0  0  0  0  0  0  0  0  0  0
  -30.5125  -16.7861   22.8224 C   0  0  0  0  0  0  0  0  0  0  0  0
  -30.1453  -22.7563   21.5801 C   0  0  0  0  0  0  0  0  0  0  0  0
  -29.8930  -19.1149   23.6089 C   0  0  0  0  0  0  0  0  0  0  0  0
  -28.6338  -22.0978   23.4230 C   0  0  0  0  0  0  0  0  0  0  0  0
  -28.6189  -18.0736   21.7620 C   0  0  0  0  0  0  0  0  0  0  0  0
  -28.0547  -26.4153   20.1210 C   0  0  1  0  0  0  0  0  0  0  0  0
  -29.4668  -22.8902   24.4296 C   0  0  2  0  0  0  0  0  0  0  0  0
  -24.3375  -25.8789   20.6942 C   0  0  1  0  0  0  0  0  0  0  0  0
  -29.7373  -17.0482   21.5190 C   0  0  2  0  0  0  0  0  0  0  0  0
  -19.0137  -30.9750   23.0794 C   0  0  0  0  0  0  0  0  0  0  0  0
  -22.2018  -19.8659   26.2022 C   0  0  0  0  0  0  0  0  0  0  0  0
  -25.4930  -29.6038   23.1742 C   0  0  0  0  0  0  0  0  0  0  0  0
  -23.5753  -30.9639   24.0350 C   0  0  0  0  0  0  0  0  0  0  0  0
  -24.1758  -31.0492   21.6153 C   0  0  0  0  0  0  0  0  0  0  0  0
  -18.3809  -27.4144   21.8972 C   0  0  0  0  0  0  0  0  0  0  0  0
  -25.5282  -21.7999   26.7810 C   0  0  0  0  0  0  0  0  0  0  0  0
  -26.5068  -21.8322   27.9593 C   0  0  0  0  0  0  0  0  0  0  0  0
  -24.3738  -20.8263   27.0461 C   0  0  0  0  0  0  0  0  0  0  0  0
  -27.6370  -22.8359   27.7532 C   0  0  0  0  0  0  0  0  0  0  0  0
  -23.0691  -28.9749   22.5453 C   0  0  1  0  0  0  0  0  0  0  0  0
  -19.3460  -29.6676   22.3773 C   0  0  2  0  0  0  0  0  0  0  0  0
  -23.3587  -20.8087   25.8995 C   0  0  2  0  0  0  0  0  0  1  0  0
  -24.0780  -30.1196   22.8445 C   0  0  0  0  0  0  0  0  0  0  0  0
  -27.9675  -15.3553   21.2300 N   0  0  0  0  0  0  0  0  0  0  0  0
  -29.2073  -15.7635   20.9101 N   0  0  0  0  0  0  0  0  0  0  0  0
  -23.7128  -26.7398   21.7005 N   0  0  0  0  0  0  0  0  0  0  0  0
  -29.4381  -21.6761   22.2676 N   0  0  0  0  0  0  0  0  0  0  0  0
  -29.1564  -19.3017   22.3516 N   0  0  0  0  0  0  0  0  0  0  0  0
  -31.1081  -15.1947   19.6162 N   0  0  0  0  0  0  0  0  0  0  0  0
  -28.2146  -11.8376   18.7485 N   0  0  0  0  0  0  0  0  0  0  0  0
  -26.6120  -26.3605   20.0211 N   0  0  0  0  0  0  0  0  0  0  0  0
  -28.4405  -22.5362   26.5897 N   0  0  0  0  0  0  0  0  0  0  0  0
  -21.7276  -29.4351   22.2033 N   0  0  0  0  0  0  0  0  0  0  0  0
  -18.1992  -28.7330   22.5570 N   0  3  0  0  0  0  0  0  0  0  0  0
  -30.3143  -12.6467   18.3070 O   0  0  0  0  0  0  0  0  0  0  0  0
  -28.0754  -24.5164   25.4201 O   0  0  0  0  0  0  0  0  0  0  0  0
  -26.1793  -25.3479   22.0729 O   0  0  0  0  0  0  0  0  0  0  0  0
  -23.6833  -28.5932   20.2862 O   0  0  0  0  0  0  0  0  0  0  0  0
  -20.6305  -28.3100   23.9085 O   0  0  0  0  0  0  0  0  0  0  0  0
  -29.0705  -20.4457   20.3511 O   0  0  0  0  0  0  0  0  0  0  0  0
  -23.0801  -11.2920   20.8402 O   0  0  0  0  0  0  0  0  0  0  0  0
  -22.8433  -22.1237   25.7107 O   0  0  0  0  0  0  0  0  0  1  0  0
  -23.4732   -5.8255   21.4456 F   0  0  0  0  0  0  0  0  0  0  0  0
  -21.9888  -10.0268   23.0427 F   0  0  0  0  0  0  0  0  0  0  0  0
  1  2  1  0  0  0  0
  1  5  2  0  0  0  0
  2  6  2  0  0  0  0
  3  8  2  0  0  0  0
  3 15  1  0  0  0  0
  4  9  1  0  0  0  0
  4 15  2  0  0  0  0
  5 17  1  0  0  0  0
  6 19  1  0  0  0  0
  7 10  2  0  0  0  0
  7 18  1  0  0  0  0
  8 21  1  0  0  0  0
  9 21  2  0  0  0  0
 10 22  1  0  0  0  0
 11 12  2  0  0  0  0
 11 23  1  0  0  0  0
 12 24  1  0  0  0  0
 13 20  1  0  0  0  0
 13 22  2  0  0  0  0
 14 24  2  0  0  0  0
 14 25  1  0  0  0  0
 15 26  1  0  0  0  0
 16 26  1  0  0  0  0
 16 27  2  0  0  0  0
 16 28  1  0  0  0  0
 17 19  2  0  0  0  0
 17 34  1  0  0  0  0
 18 20  2  0  0  0  0
 18 35  1  0  0  0  0
 19 47  1  0  0  0  0
 20 36  1  0  0  0  0
 21 82  1  0  0  0  0
 22 83  1  0  0  0  0
 23 25  2  0  0  0  0
 23 82  1  0  0  0  0
 24 84  1  0  0  0  0
 25 85  1  0  0  0  0
 26 65  2  0  0  0  0
 27 66  1  0  0  0  0
 27 70  1  0  0  0  0
 28 71  1  0  0  0  0
 28 76  2  0  0  0  0
 29 48  1  0  0  0  0
 29 73  1  0  0  0  0
 29 77  2  0  0  0  0
 30 49  1  0  0  0  0
 30 72  1  0  0  0  0
 30 78  2  0  0  0  0
 31 61  1  0  0  0  0
 31 67  1  0  0  0  0
 31 79  2  0  0  0  0
 32 62  1  0  0  0  0
 32 74  1  0  0  0  0
 32 80  2  0  0  0  0
 33 68  1  0  0  0  0
 33 69  1  0  0  0  0
 33 81  2  0  0  0  0
 34 37  1  0  0  0  0
 35 49  1  0  0  0  0
 36 67  1  0  0  0  0
 37 40  1  0  0  0  0
 38 41  1  0  0  0  0
 38 43  1  0  0  0  0
 39 42  1  0  0  0  0
 39 44  1  0  0  0  0
 40 47  1  0  0  0  0
 41 48  1  0  0  0  0
 42 50  1  0  0  0  0
 43 68  1  0  0  0  0
 44 69  1  0  0  0  0
 45 48  1  0  0  0  0
 45 68  1  0  0  0  0
 46 50  1  0  0  0  0
 46 69  1  0  0  0  0
 47 72  1  0  0  0  0
 49 67  1  0  0  0  0
 50 66  1  0  0  0  0
 51 62  1  0  0  0  0
 52 63  1  0  0  0  0
 53 64  1  0  0  0  0
 54 64  1  0  0  0  0
 55 64  1  0  0  0  0
 56 75  1  0  0  0  0
 57 58  1  0  0  0  0
 57 59  1  0  0  0  0
 58 60  1  0  0  0  0
 59 63  1  0  0  0  0
 60 73  1  0  0  0  0
 61 64  1  0  0  0  0
 61 74  1  0  0  0  0
 62 75  1  0  0  0  0
 63 83  1  0  0  0  0
 65 66  1  0  0  0  0
M  CHG  1  75   1
M  ISO  4  33 100  63 101  68 100  83 101
M  END
> <Batch ID>
0100

> <Smiles>
CNC(C)C(=O)NC(C(=O)N1Cc2cc([101O:1][101CH:1](C)CCCCNC(=O)C3CCC[100N:0]([100C:0](=O)N4CCCC(n5nc(-c6ccc(Oc7ccc(F)cc7F)cc6)c(C(N)=O)c5N)C4)C3)ccc2CC1C(=O)NC1CCCc2ccccc21)C(C)(C)C

> <Shape>
0.250

> <Color>
0.071

> <Negative vol penalty>
0.000

$$$$

  -OEChem-04052319333D

 88 96  0     1  0  0  0  0  0999 V2000
  -37.3468  -12.4488   23.1016 C   0  0  0  0  0  0  0  0  0  0  0  0
  -36.7927  -13.7137   22.9330 C   0  0  0  0  0  0  0  0  0  0  0  0
  -24.7672  -31.1096   20.6322 C   0  0  0  0  0  0  0  0  0  0  0  0
  -24.0033  -29.5017   22.2657 C   0  0  0  0  0  0  0  0  0  0  0  0
  -36.8089  -11.3570   22.4215 C   0  0  0  0  0  0  0  0  0  0  0  0
  -35.7010  -13.8877   22.0831 C   0  0  0  0  0  0  0  0  0  0  0  0
  -31.0595  -17.8164   22.8097 C   0  0  0  0  0  0  0  0  0  0  0  0
  -23.9639  -32.0873   21.2190 C   0  0  0  0  0  0  0  0  0  0  0  0
  -23.2001  -30.4795   22.8526 C   0  0  0  0  0  0  0  0  0  0  0  0
  -30.8034  -19.0759   22.2695 C   0  0  0  0  0  0  0  0  0  0  0  0
  -20.6746  -32.4571   24.5615 C   0  0  0  0  0  0  0  0  0  0  0  0
  -19.3673  -32.1060   24.8983 C   0  0  0  0  0  0  0  0  0  0  0  0
  -29.4362  -18.0588   20.5620 C   0  0  0  0  0  0  0  0  0  0  0  0
  -26.8350  -21.5328   19.6620 C   0  0  0  0  0  0  0  0  0  0  0  0
  -18.9075  -31.5964   22.5818 C   0  0  0  0  0  0  0  0  0  0  0  0
  -26.3849  -22.2802   21.7377 C   0  0  0  0  0  0  0  0  0  0  0  0
  -24.7868  -29.8167   21.1555 C   0  0  0  0  0  0  0  0  0  0  0  0
  -26.9515  -28.4974   20.8703 C   0  0  0  0  0  0  0  0  0  0  0  0
  -35.7039  -11.5161   21.5703 C   0  0  0  0  0  0  0  0  0  0  0  0
  -30.5138  -16.6657   22.2226 C   0  0  0  0  0  0  0  0  0  0  0  0
  -35.1486  -12.7973   21.3899 C   0  0  0  0  0  0  0  0  0  0  0  0
  -29.6848  -16.7861   21.0982 C   0  0  0  0  0  0  0  0  0  0  0  0
  -27.3886  -22.1676   20.8011 C   0  0  0  0  0  0  0  0  0  0  0  0
  -23.1804  -31.7723   22.3292 C   0  0  0  0  0  0  0  0  0  0  0  0
  -29.9940  -19.1970   21.1437 C   0  0  0  0  0  0  0  0  0  0  0  0
  -21.0983  -32.3780   23.2349 C   0  0  0  0  0  0  0  0  0  0  0  0
  -18.4838  -31.6756   23.9085 C   0  0  0  0  0  0  0  0  0  0  0  0
  -20.2147  -31.9476   22.2450 C   0  0  0  0  0  0  0  0  0  0  0  0
  -25.6160  -28.8061   20.5495 C   0  0  0  0  0  0  0  0  0  0  0  0
  -25.5098  -21.2769   19.9371 C   0  0  0  0  0  0  0  0  0  0  0  0
  -27.2814  -27.4727   20.0172 C   0  0  0  0  0  0  0  0  0  0  0  0
  -27.8164  -29.0842   21.8517 C   0  0  0  0  0  0  0  0  0  0  0  0
  -31.7154  -14.0569   20.8611 C   0  0  0  0  0  0  0  0  0  0  0  0
  -28.6080  -13.1278   20.8053 C   0  0  0  0  0  0  0  0  0  0  0  0
  -25.3153  -14.0248   20.8151 C   0  0  0  0  0  0  0  0  0  0  0  0
  -24.0273  -23.3370   17.1611 C   0  0  0  0  0  0  0  0  0  0  0  0
  -35.1868  -10.3145   20.8198 C   0  0  0  0  0  0  0  0  0  0  0  0
  -30.7779  -15.3168   22.8334 C   0  0  0  0  0  0  0  0  0  0  0  0
  -29.0583  -15.5836   20.4425 C   0  0  0  0  0  0  0  0  0  0  0  0
  -33.7947  -10.5189   20.2277 C   0  0  0  0  0  0  0  0  0  0  0  0
  -26.2319  -25.7160   15.6925 C   0  0  0  0  0  0  0  0  0  0  0  0
  -33.7094  -11.8660   19.5171 C   0  0  0  0  0  0  0  0  0  0  0  0
  -26.4445  -26.7499   16.7997 C   0  0  0  0  0  0  0  0  0  0  0  0
  -24.8040  -25.1746   15.6926 C   0  0  0  0  0  0  0  0  0  0  0  0
  -24.5585  -25.6701   18.0942 C   0  0  0  0  0  0  0  0  0  0  0  0
  -33.9485  -13.0221   20.4958 C   0  0  1  0  0  0  0  0  0  0  0  0
  -30.5881  -14.1674   21.8484 C   0  0  1  0  0  0  0  0  0  0  0  0
  -25.9992  -26.2039   18.1697 C   0  0  2  0  0  0  0  0  0  0  0  0
  -23.5544  -25.3909   23.0405 C   0  0  0  0  0  0  0  0  0  0  0  0
  -28.9003  -23.8896   21.8409 C   0  0  0  0  0  0  0  0  0  0  0  0
  -23.0066  -13.0456   20.7237 C   0  0  0  0  0  0  0  0  0  0  0  0
  -22.3398  -22.6315   23.5116 C   0  0  0  0  0  0  0  0  0  0  0  0
  -23.8266  -19.3267   19.6919 C   0  0  0  0  0  0  0  0  0  0  0  0
  -25.0715  -20.1802   17.7228 C   0  0  0  0  0  0  0  0  0  0  0  0
  -28.9420  -12.6256   17.8143 C   0  0  0  0  0  0  0  0  0  0  0  0
  -26.4468  -12.5802   17.6141 C   0  0  0  0  0  0  0  0  0  0  0  0
  -27.6143  -10.8844   19.0226 C   0  0  0  0  0  0  0  0  0  0  0  0
  -24.6109  -15.1422   23.4635 C   0  0  0  0  0  0  0  0  0  0  0  0
  -23.7982  -24.1947   22.1301 C   0  0  0  0  0  0  0  0  0  0  0  0
  -23.9725  -21.6643   21.8814 C   0  0  0  0  0  0  0  0  0  0  0  0
  -23.2726  -21.5954   18.7600 C   0  0  0  0  0  0  0  0  0  0  0  0
  -29.7340  -21.5316   21.5150 C   0  0  0  0  0  0  0  0  0  1  0  0
  -28.8257  -22.6381   20.9617 C   0  0  1  0  0  0  0  0  0  0  0  0
  -27.4653  -13.2757   19.8299 C   0  0  1  0  0  0  0  0  0  0  0  0
  -24.1358  -13.5187   21.6258 C   0  0  2  0  0  0  0  0  0  0  0  0
  -23.7083  -22.8348   22.8523 C   0  0  2  0  0  0  0  0  0  0  0  0
  -24.4749  -20.6343   19.1008 C   0  0  0  0  0  0  0  0  0  0  0  0
  -27.6303  -12.3642   18.5812 C   0  0  0  0  0  0  0  0  0  0  0  0
  -25.1308  -28.0398   19.5690 N   0  0  0  0  0  0  0  0  0  0  0  0
  -25.2473  -21.7357   21.2015 N   0  0  0  0  0  0  0  0  0  0  0  0
  -26.1671  -27.2394   19.2663 N   0  0  0  0  0  0  0  0  0  0  0  0
  -29.3516  -14.2859   21.0730 N   0  0  0  0  0  0  0  0  0  0  0  0
  -24.4445  -24.6709   17.0204 N   0  0  0  0  0  0  0  0  0  0  0  0
  -28.4132  -26.7577   19.8437 N   0  0  0  0  0  0  0  0  0  0  0  0
  -27.3173  -30.1272   22.6439 N   0  0  0  0  0  0  0  0  0  0  0  0
  -32.7634  -13.2650   21.2902 N   0  0  0  0  0  0  0  0  0  0  0  0
  -26.2448  -13.0314   20.5910 N   0  0  0  0  0  0  0  0  0  0  0  0
  -23.7114  -22.9388   18.4543 N   0  0  0  0  0  0  0  0  0  0  0  0
  -23.6115  -14.5996   22.5076 N   0  3  0  0  0  0  0  0  0  0  0  0
  -29.0020  -28.7063   22.0100 O   0  0  0  0  0  0  0  0  0  0  0  0
  -31.6394  -14.6452   19.7888 O   0  0  0  0  0  0  0  0  0  0  0  0
  -28.8281  -12.0270   21.3165 O   0  0  0  0  0  0  0  0  0  0  0  0
  -25.4014  -15.1844   20.4171 O   0  0  0  0  0  0  0  0  0  0  0  0
  -23.9477  -22.5571   16.2059 O   0  0  0  0  0  0  0  0  0  0  0  0
  -22.3966  -32.7262   22.9022 O   0  0  0  0  0  0  0  0  0  0  0  0
  -29.7429  -20.4251   20.6140 O   0  0  0  0  0  0  0  0  0  1  0  0
  -17.2289  -31.3369   24.2322 F   0  0  0  0  0  0  0  0  0  0  0  0
  -20.6164  -31.8683   20.9690 F   0  0  0  0  0  0  0  0  0  0  0  0
  1  2  1  0  0  0  0
  1  5  2  0  0  0  0
  2  6  2  0  0  0  0
  3  8  2  0  0  0  0
  3 17  1  0  0  0  0
  4  9  1  0  0  0  0
  4 17  2  0  0  0  0
  5 19  1  0  0  0  0
  6 21  1  0  0  0  0
  7 10  2  0  0  0  0
  7 20  1  0  0  0  0
  8 24  1  0  0  0  0
  9 24  2  0  0  0  0
 10 25  1  0  0  0  0
 11 12  2  0  0  0  0
 11 26  1  0  0  0  0
 12 27  1  0  0  0  0
 13 22  1  0  0  0  0
 13 25  2  0  0  0  0
 14 23  1  0  0  0  0
 14 30  2  0  0  0  0
 15 27  2  0  0  0  0
 15 28  1  0  0  0  0
 16 23  2  0  0  0  0
 16 70  1  0  0  0  0
 17 29  1  0  0  0  0
 18 29  1  0  0  0  0
 18 31  2  0  0  0  0
 18 32  1  0  0  0  0
 19 21  2  0  0  0  0
 19 37  1  0  0  0  0
 20 22  2  0  0  0  0
 20 38  1  0  0  0  0
 21 46  1  0  0  0  0
 22 39  1  0  0  0  0
 23 63  1  0  0  0  0
 24 85  1  0  0  0  0
 25 86  1  0  0  0  0
 26 28  2  0  0  0  0
 26 85  1  0  0  0  0
 27 87  1  0  0  0  0
 28 88  1  0  0  0  0
 29 69  2  0  0  0  0
 30 67  1  0  0  0  0
 30 70  1  0  0  0  0
 31 71  1  0  0  0  0
 31 74  1  0  0  0  0
 32 75  1  0  0  0  0
 32 80  2  0  0  0  0
 33 47  1  0  0  0  0
 33 76  1  0  0  0  0
 33 81  2  0  0  0  0
 34 64  1  0  0  0  0
 34 72  1  0  0  0  0
 34 82  2  0  0  0  0
 35 65  1  0  0  0  0
 35 77  1  0  0  0  0
 35 83  2  0  0  0  0
 36 73  1  0  0  0  0
 36 78  1  0  0  0  0
 36 84  2  0  0  0  0
 37 40  1  0  0  0  0
 38 47  1  0  0  0  0
 39 72  1  0  0  0  0
 40 42  1  0  0  0  0
 41 43  1  0  0  0  0
 41 44  1  0  0  0  0
 42 46  1  0  0  0  0
 43 48  1  0  0  0  0
 44 73  1  0  0  0  0
 45 48  1  0  0  0  0
 45 73  1  0  0  0  0
 46 76  1  0  0  0  0
 47 72  1  0  0  0  0
 48 71  1  0  0  0  0
 49 59  1  0  0  0  0
 50 63  1  0  0  0  0
 51 65  1  0  0  0  0
 52 66  1  0  0  0  0
 53 67  1  0  0  0  0
 54 67  1  0  0  0  0
 55 68  1  0  0  0  0
 56 68  1  0  0  0  0
 57 68  1  0  0  0  0
 58 79  1  0  0  0  0
 59 66  1  0  0  0  0
 60 66  1  0  0  0  0
 60 70  1  0  0  0  0
 61 67  1  0  0  0  0
 61 78  1  0  0  0  0
 62 63  1  0  0  0  0
 62 86  1  0  0  0  0
 64 68  1  0  0  0  0
 64 77  1  0  0  0  0
 65 79  1  0  0  0  0
 69 71  1  0  0  0  0
M  CHG  1  79   1
M  ISO  4  36 100  62 101  78 100  86 101
M  END
> <Batch ID>
0100

> <Smiles>
CCC(C)Cn1cc(C(C)[101CH2:1][101O:1]c2ccc3c(c2)CN(C(=O)C(NC(=O)C(C)NC)C(C)(C)C)C(C(=O)NC2CCCc4ccccc42)C3)cc1C(C)(C)C[100NH:0][100C:0](=O)N1CCCC(n2nc(-c3ccc(Oc4ccc(F)cc4F)cc3)c(C(N)=O)c2N)C1

> <Shape>
0.233

> <Color>
0.087

> <Negative vol penalty>
0.000

$$$$

  -OEChem-04052319333D

 86 94  0     1  0  0  0  0  0999 V2000
  -19.6417  -21.2386   22.8087 C   0  0  0  0  0  0  0  0  0  0  0  0
  -21.0096  -20.9868   22.7788 C   0  0  0  0  0  0  0  0  0  0  0  0
  -27.5144  -13.5473   22.6366 C   0  0  0  0  0  0  0  0  0  0  0  0
  -26.8180  -13.1666   20.3547 C   0  0  0  0  0  0  0  0  0  0  0  0
  -19.1251  -22.3553   22.1531 C   0  0  0  0  0  0  0  0  0  0  0  0
  -21.8616  -21.8512   22.0922 C   0  0  0  0  0  0  0  0  0  0  0  0
  -28.5091  -24.5085   22.3483 C   0  0  0  0  0  0  0  0  0  0  0  0
  -26.8757  -12.3705   23.0278 C   0  0  0  0  0  0  0  0  0  0  0  0
  -26.1794  -11.9898   20.7459 C   0  0  0  0  0  0  0  0  0  0  0  0
  -29.6403  -24.6594   21.5474 C   0  0  0  0  0  0  0  0  0  0  0  0
  -24.0602   -9.0728   21.2041 C   0  0  0  0  0  0  0  0  0  0  0  0
  -22.7780   -8.8355   20.7090 C   0  0  0  0  0  0  0  0  0  0  0  0
  -28.6450  -26.6007   20.5178 C   0  0  0  0  0  0  0  0  0  0  0  0
  -32.7670  -23.6563   17.8123 C   0  0  0  0  0  0  0  0  0  0  0  0
  -31.6018  -21.6593   17.1115 C   0  0  0  0  0  0  0  0  0  0  0  0
  -30.5413  -23.8183   16.8864 C   0  0  0  0  0  0  0  0  0  0  0  0
  -21.9984  -10.8703   21.7526 C   0  0  0  0  0  0  0  0  0  0  0  0
  -27.4854  -13.9453   21.3000 C   0  0  0  0  0  0  0  0  0  0  0  0
  -29.4772  -15.3028   20.4648 C   0  0  0  0  0  0  0  0  0  0  0  0
  -19.9723  -23.2391   21.4662 C   0  0  0  0  0  0  0  0  0  0  0  0
  -27.4310  -25.3977   22.2320 C   0  0  0  0  0  0  0  0  0  0  0  0
  -21.3556  -22.9801   21.4256 C   0  0  0  0  0  0  0  0  0  0  0  0
  -27.5024  -26.4604   21.3202 C   0  0  0  0  0  0  0  0  0  0  0  0
  -32.7321  -22.2710   17.6538 C   0  0  0  0  0  0  0  0  0  0  0  0
  -31.6715  -24.4300   17.4286 C   0  0  0  0  0  0  0  0  0  0  0  0
  -30.5064  -22.4329   16.7278 C   0  0  0  0  0  0  0  0  0  0  0  0
  -26.2083  -11.5918   22.0825 C   0  0  0  0  0  0  0  0  0  0  0  0
  -29.7072  -25.7039   20.6300 C   0  0  0  0  0  0  0  0  0  0  0  0
  -24.3115  -10.2088   21.9736 C   0  0  0  0  0  0  0  0  0  0  0  0
  -21.7471   -9.7343   20.9831 C   0  0  0  0  0  0  0  0  0  0  0  0
  -23.2806  -11.1075   22.2478 C   0  0  0  0  0  0  0  0  0  0  0  0
  -28.1444  -15.1611   20.8954 C   0  0  0  0  0  0  0  0  0  0  0  0
  -29.6115  -16.6437   20.1992 C   0  0  0  0  0  0  0  0  0  0  0  0
  -30.5022  -14.3111   20.3179 C   0  0  0  0  0  0  0  0  0  0  0  0
  -24.3696  -25.1176   21.4238 C   0  0  0  0  0  0  0  0  0  0  0  0
  -24.2592  -28.2428   22.2863 C   0  0  0  0  0  0  0  0  0  0  0  0
  -25.9306  -31.1828   22.7439 C   0  0  0  0  0  0  0  0  0  0  0  0
  -27.6727  -21.3838   17.9816 C   0  0  0  0  0  0  0  0  0  0  0  0
  -19.3621  -24.4071   20.7327 C   0  0  0  0  0  0  0  0  0  0  0  0
  -26.2291  -25.2371   23.1220 C   0  0  0  0  0  0  0  0  0  0  0  0
  -26.3804  -27.4541   21.1710 C   0  0  0  0  0  0  0  0  0  0  0  0
  -20.3767  -25.4789   20.3428 C   0  0  0  0  0  0  0  0  0  0  0  0
  -26.5506  -20.5309   21.2512 C   0  0  0  0  0  0  0  0  0  0  0  0
  -21.6135  -24.8411   19.7180 C   0  0  0  0  0  0  0  0  0  0  0  0
  -26.9695  -19.0685   21.4118 C   0  0  0  0  0  0  0  0  0  0  0  0
  -26.1075  -20.8374   19.8223 C   0  0  0  0  0  0  0  0  0  0  0  0
  -27.5018  -19.0069   18.9396 C   0  0  0  0  0  0  0  0  0  0  0  0
  -22.3150  -23.9079   20.7123 C   0  0  1  0  0  0  0  0  0  0  0  0
  -24.9748  -25.8967   22.5571 C   0  0  1  0  0  0  0  0  0  0  0  0
  -28.0099  -18.6634   20.3503 C   0  0  2  0  0  0  0  0  0  0  0  0
  -34.5365  -20.6908   16.8786 C   0  0  0  0  0  0  0  0  0  0  0  0
  -33.5587  -20.4512   19.1898 C   0  0  0  0  0  0  0  0  0  0  0  0
  -31.6067  -26.6515   16.2486 C   0  0  0  0  0  0  0  0  0  0  0  0
  -25.5652  -33.5722   23.4180 C   0  0  0  0  0  0  0  0  0  0  0  0
  -23.0387  -28.8251   19.5511 C   0  0  0  0  0  0  0  0  0  0  0  0
  -23.5759  -31.2449   19.9040 C   0  0  0  0  0  0  0  0  0  0  0  0
  -21.9981  -30.0814   21.4467 C   0  0  0  0  0  0  0  0  0  0  0  0
  -27.7475  -30.9270   25.0661 C   0  0  0  0  0  0  0  0  0  0  0  0
  -29.6195  -21.0024   14.8585 C   0  0  0  0  0  0  0  0  0  0  0  0
  -30.6175  -26.4368   18.5587 C   0  0  0  0  0  0  0  0  0  1  0  0
  -33.9038  -21.4443   18.0639 C   0  0  0  0  0  0  0  0  0  0  0  0
  -31.7091  -25.9404   17.6008 C   0  0  1  0  0  0  0  0  0  0  0  0
  -29.2980  -21.7785   16.1481 C   0  0  1  0  0  0  0  0  0  0  0  0
  -24.4680  -29.5567   21.5729 C   0  0  1  0  0  0  0  0  0  0  0  0
  -25.9286  -32.1742   23.8935 C   0  0  2  0  0  0  0  0  0  0  0  0
  -23.2907  -29.9073   20.6199 C   0  0  0  0  0  0  0  0  0  0  0  0
  -27.4796  -16.3195   20.9045 N   0  0  0  0  0  0  0  0  0  0  0  0
  -28.3984  -17.2019   20.4764 N   0  0  0  0  0  0  0  0  0  0  0  0
  -25.2239  -27.2510   22.0592 N   0  0  0  0  0  0  0  0  0  0  0  0
  -27.1392  -20.4309   18.8650 N   0  0  0  0  0  0  0  0  0  0  0  0
  -30.6478  -17.3879   19.7580 N   0  0  0  0  0  0  0  0  0  0  0  0
  -30.1950  -12.9807   20.6344 N   0  0  0  0  0  0  0  0  0  0  0  0
  -23.0838  -24.6748   21.6691 N   0  0  0  0  0  0  0  0  0  0  0  0
  -24.7120  -30.5511   22.6122 N   0  0  0  0  0  0  0  0  0  0  0  0
  -28.6502  -20.9166   17.1116 N   0  0  0  0  0  0  0  0  0  0  0  0
  -28.3830  -20.4059   14.2909 N   0  3  0  0  0  0  0  0  0  0  0  0
  -27.2741  -32.2299   24.5318 N   0  3  0  0  0  0  0  0  0  0  0  0
  -31.6611  -14.5988   19.9335 O   0  0  0  0  0  0  0  0  0  0  0  0
  -25.0203  -24.9333   20.4020 O   0  0  0  0  0  0  0  0  0  0  0  0
  -23.2800  -28.1039   23.0236 O   0  0  0  0  0  0  0  0  0  0  0  0
  -26.9136  -30.9908   22.0316 O   0  0  0  0  0  0  0  0  0  0  0  0
  -27.3089  -22.5647   17.9727 O   0  0  0  0  0  0  0  0  0  0  0  0
  -25.5852  -10.4434   22.4639 O   0  0  0  0  0  0  0  0  0  0  0  0
  -30.8099  -25.8531   19.8466 O   0  0  0  0  0  0  0  0  0  1  0  0
  -20.5162   -9.5071   20.5063 F   0  0  0  0  0  0  0  0  0  0  0  0
  -23.5163  -12.2012   22.9855 F   0  0  0  0  0  0  0  0  0  0  0  0
  1  2  1  0  0  0  0
  1  5  2  0  0  0  0
  2  6  2  0  0  0  0
  3  8  2  0  0  0  0
  3 18  1  0  0  0  0
  4  9  1  0  0  0  0
  4 18  2  0  0  0  0
  5 20  1  0  0  0  0
  6 22  1  0  0  0  0
  7 10  2  0  0  0  0
  7 21  1  0  0  0  0
  8 27  1  0  0  0  0
  9 27  2  0  0  0  0
 10 28  1  0  0  0  0
 11 12  2  0  0  0  0
 11 29  1  0  0  0  0
 12 30  1  0  0  0  0
 13 23  1  0  0  0  0
 13 28  2  0  0  0  0
 14 24  2  0  0  0  0
 14 25  1  0  0  0  0
 15 24  1  0  0  0  0
 15 26  2  0  0  0  0
 16 25  2  0  0  0  0
 16 26  1  0  0  0  0
 17 30  2  0  0  0  0
 17 31  1  0  0  0  0
 18 32  1  0  0  0  0
 19 32  1  0  0  0  0
 19 33  2  0  0  0  0
 19 34  1  0  0  0  0
 20 22  2  0  0  0  0
 20 39  1  0  0  0  0
 21 23  2  0  0  0  0
 21 40  1  0  0  0  0
 22 48  1  0  0  0  0
 23 41  1  0  0  0  0
 24 61  1  0  0  0  0
 25 62  1  0  0  0  0
 26 63  1  0  0  0  0
 27 83  1  0  0  0  0
 28 84  1  0  0  0  0
 29 31  2  0  0  0  0
 29 83  1  0  0  0  0
 30 85  1  0  0  0  0
 31 86  1  0  0  0  0
 32 67  2  0  0  0  0
 33 68  1  0  0  0  0
 33 71  1  0  0  0  0
 34 72  1  0  0  0  0
 34 78  2  0  0  0  0
 35 49  1  0  0  0  0
 35 73  1  0  0  0  0
 35 79  2  0  0  0  0
 36 64  1  0  0  0  0
 36 69  1  0  0  0  0
 36 80  2  0  0  0  0
 37 65  1  0  0  0  0
 37 74  1  0  0  0  0
 37 81  2  0  0  0  0
 38 70  1  0  0  0  0
 38 75  1  0  0  0  0
 38 82  2  0  0  0  0
 39 42  1  0  0  0  0
 40 49  1  0  0  0  0
 41 69  1  0  0  0  0
 42 44  1  0  0  0  0
 43 45  1  0  0  0  0
 43 46  1  0  0  0  0
 44 48  1  0  0  0  0
 45 50  1  0  0  0  0
 46 70  1  0  0  0  0
 47 50  1  0  0  0  0
 47 70  1  0  0  0  0
 48 73  1  0  0  0  0
 49 69  1  0  0  0  0
 50 68  1  0  0  0  0
 51 61  1  0  0  0  0
 52 61  1  0  0  0  0
 53 62  1  0  0  0  0
 54 65  1  0  0  0  0
 55 66  1  0  0  0  0
 56 66  1  0  0  0  0
 57 66  1  0  0  0  0
 58 77  1  0  0  0  0
 59 63  1  0  0  0  0
 59 76  1  0  0  0  0
 60 62  1  0  0  0  0
 60 84  1  0  0  0  0
 63 75  1  0  0  0  0
 64 66  1  0  0  0  0
 64 74  1  0  0  0  0
 65 77  1  0  0  0  0
 67 68  1  0  0  0  0
M  CHG  2  76   1  77   1
M  ISO  4  38 100  60 101  75 100  84 101
M  END
> <Batch ID>
0100

> <Smiles>
CNC(C)C(=O)NC(C(=O)N1Cc2cc([101O:1][101CH2:1]C(C)c3cc(C(C)C)cc(C(CN)[100NH:0][100C:0](=O)N4CCCC(n5nc(-c6ccc(Oc7ccc(F)cc7F)cc6)c(C(N)=O)c5N)C4)c3)ccc2CC1C(=O)NC1CCCc2ccccc21)C(C)(C)C

> <Shape>
0.238

> <Color>
0.065

> <Negative vol penalty>
0.000

$$$$

  -OEChem-04052319333D

 86 94  0     1  0  0  0  0  0999 V2000
  -28.5380  -35.3683   22.4418 C   0  0  0  0  0  0  0  0  0  0  0  0
  -28.7190  -33.9929   22.3378 C   0  0  0  0  0  0  0  0  0  0  0  0
  -26.5276  -13.3506   19.9883 C   0  0  0  0  0  0  0  0  0  0  0  0
  -25.1213  -15.1790   20.7069 C   0  0  0  0  0  0  0  0  0  0  0  0
  -27.3815  -35.8753   23.0329 C   0  0  0  0  0  0  0  0  0  0  0  0
  -27.7440  -33.1236   22.8259 C   0  0  0  0  0  0  0  0  0  0  0  0
  -26.7328  -29.3395   19.6161 C   0  0  0  0  0  0  0  0  0  0  0  0
  -25.4033  -12.5345   19.8642 C   0  0  0  0  0  0  0  0  0  0  0  0
  -23.9969  -14.3629   20.5827 C   0  0  0  0  0  0  0  0  0  0  0  0
  -27.6415  -28.2831   19.5706 C   0  0  0  0  0  0  0  0  0  0  0  0
  -23.3749  -10.7621   21.9059 C   0  0  0  0  0  0  0  0  0  0  0  0
  -23.4545   -9.4679   22.4199 C   0  0  0  0  0  0  0  0  0  0  0  0
  -26.1869  -26.9787   20.9854 C   0  0  0  0  0  0  0  0  0  0  0  0
  -23.0213   -8.5677   20.2201 C   0  0  0  0  0  0  0  0  0  0  0  0
  -26.9442  -21.0418   22.9370 C   0  0  0  0  0  0  0  0  0  0  0  0
  -26.3867  -14.6728   20.4097 C   0  0  0  0  0  0  0  0  0  0  0  0
  -28.1137  -16.3409   19.5480 C   0  0  0  0  0  0  0  0  0  0  0  0
  -26.3874  -35.0119   23.5197 C   0  0  0  0  0  0  0  0  0  0  0  0
  -25.5474  -29.2272   20.3567 C   0  0  0  0  0  0  0  0  0  0  0  0
  -26.5738  -33.6195   23.4252 C   0  0  0  0  0  0  0  0  0  0  0  0
  -25.2636  -28.0341   21.0366 C   0  0  0  0  0  0  0  0  0  0  0  0
  -26.9130  -21.5964   21.6676 C   0  0  0  0  0  0  0  0  0  0  0  0
  -28.1191  -21.7429   20.9916 C   0  0  0  0  0  0  0  0  0  0  0  0
  -29.3029  -21.3360   21.5970 C   0  0  0  0  0  0  0  0  0  0  0  0
  -24.1379  -13.0407   20.1614 C   0  0  0  0  0  0  0  0  0  0  0  0
  -27.3700  -27.1036   20.2576 C   0  0  0  0  0  0  0  0  0  0  0  0
  -23.1184  -10.9592   20.5491 C   0  0  0  0  0  0  0  0  0  0  0  0
  -23.2777   -8.3706   21.5770 C   0  0  0  0  0  0  0  0  0  0  0  0
  -22.9417   -9.8619   19.7062 C   0  0  0  0  0  0  0  0  0  0  0  0
  -27.5478  -15.5161   20.5386 C   0  0  0  0  0  0  0  0  0  0  0  0
  -29.2271  -20.7933   22.8696 C   0  0  0  0  0  0  0  0  0  0  0  0
  -29.1912  -16.9284   20.1646 C   0  0  0  0  0  0  0  0  0  0  0  0
  -27.7020  -16.5568   18.1916 C   0  0  0  0  0  0  0  0  0  0  0  0
  -24.3072  -30.7584   22.8509 C   0  0  0  0  0  0  0  0  0  0  0  0
  -21.7293  -28.8936   22.2192 C   0  0  0  0  0  0  0  0  0  0  0  0
  -20.4953  -26.0288   20.8345 C   0  0  0  0  0  0  0  0  0  0  0  0
  -30.3801  -18.8731   25.6317 C   0  0  0  0  0  0  0  0  0  0  0  0
  -25.1759  -35.6062   24.1933 C   0  0  0  0  0  0  0  0  0  0  0  0
  -24.5648  -30.3659   20.3739 C   0  0  0  0  0  0  0  0  0  0  0  0
  -23.9956  -27.8556   21.8296 C   0  0  0  0  0  0  0  0  0  0  0  0
  -24.0201  -34.6210   24.3475 C   0  0  0  0  0  0  0  0  0  0  0  0
  -31.9589  -15.8876   24.1165 C   0  0  0  0  0  0  0  0  0  0  0  0
  -24.5247  -33.2863   24.8867 C   0  0  0  0  0  0  0  0  0  0  0  0
  -30.9869  -15.5308   22.9931 C   0  0  0  0  0  0  0  0  0  0  0  0
  -31.2559  -16.5938   25.2717 C   0  0  0  0  0  0  0  0  0  0  0  0
  -29.5113  -17.4409   23.7377 C   0  0  0  0  0  0  0  0  0  0  0  0
  -25.5276  -32.6446   23.9204 C   0  0  1  0  0  0  0  0  0  0  0  0
  -23.6305  -30.3308   21.5794 C   0  0  1  0  0  0  0  0  0  0  0  0
  -30.1961  -16.7695   22.5378 C   0  0  2  0  0  0  0  0  0  0  0  0
  -30.6126  -21.4783   20.8970 C   0  0  0  0  0  0  0  0  0  0  0  0
  -23.4616  -21.2421   19.9741 C   0  0  0  0  0  0  0  0  0  0  0  0
  -18.3539  -24.7616   20.5096 C   0  0  0  0  0  0  0  0  0  0  0  0
  -21.8206  -27.9967   25.1342 C   0  0  0  0  0  0  0  0  0  0  0  0
  -20.3262  -26.0842   24.5199 C   0  0  0  0  0  0  0  0  0  0  0  0
  -19.5227  -28.4300   24.2476 C   0  0  0  0  0  0  0  0  0  0  0  0
  -30.1504  -21.3214   25.8121 C   0  0  0  0  0  0  0  0  0  0  0  0
  -20.7104  -26.1922   17.8873 C   0  0  0  0  0  0  0  0  0  0  0  0
  -25.6147  -22.0146   21.0686 C   0  0  0  0  0  0  0  0  0  0  0  0
  -28.1407  -22.3408   19.6076 C   0  0  0  0  0  0  0  0  0  0  0  0
  -30.4653  -20.3392   23.5712 C   0  0  0  0  0  0  0  0  0  0  0  0
  -24.8014  -20.8165   20.5537 C   0  0  0  0  0  0  0  0  0  0  0  0
  -28.6289  -23.7906   19.5705 C   0  0  0  0  0  0  0  0  0  0  0  0
  -27.7220  -24.7526   20.3291 C   0  0  0  0  0  0  0  0  0  1  0  0
  -21.2669  -27.5248   22.6569 C   0  0  1  0  0  0  0  0  0  0  0  0
  -19.3121  -25.7825   19.9160 C   0  0  2  0  0  0  0  0  0  0  0  0
  -20.7590  -27.5127   24.1264 C   0  0  0  0  0  0  0  0  0  0  0  0
  -28.0742  -20.6350   23.5576 N   0  0  0  0  0  0  0  0  0  0  0  0
  -28.2111  -15.5718   21.6966 N   0  0  0  0  0  0  0  0  0  0  0  0
  -29.2049  -16.4386   21.4375 N   0  0  0  0  0  0  0  0  0  0  0  0
  -23.0694  -29.0000   21.8210 N   0  0  0  0  0  0  0  0  0  0  0  0
  -30.4770  -17.7414   24.8054 N   0  0  0  0  0  0  0  0  0  0  0  0
  -30.1188  -17.8110   19.7369 N   0  0  0  0  0  0  0  0  0  0  0  0
  -26.5733  -15.8734   17.7191 N   0  0  0  0  0  0  0  0  0  0  0  0
  -24.8356  -32.0344   22.8054 N   0  0  0  0  0  0  0  0  0  0  0  0
  -20.2736  -27.0970   21.6778 N   0  0  0  0  0  0  0  0  0  0  0  0
  -30.2431  -20.1176   24.9983 N   0  0  0  0  0  0  0  0  0  0  0  0
  -19.7788  -25.2761   18.5944 N   0  3  0  0  0  0  0  0  0  0  0  0
  -28.3266  -17.3202   17.4166 O   0  0  0  0  0  0  0  0  0  0  0  0
  -24.3457  -29.9883   23.8034 O   0  0  0  0  0  0  0  0  0  0  0  0
  -20.9289  -29.8322   22.2235 O   0  0  0  0  0  0  0  0  0  0  0  0
  -21.5129  -25.3401   20.8092 O   0  0  0  0  0  0  0  0  0  0  0  0
  -30.4237  -18.7775   26.8649 O   0  0  0  0  0  0  0  0  0  0  0  0
  -23.0405  -12.2447   20.0402 O   0  0  0  0  0  0  0  0  0  0  0  0
  -28.2557  -26.0712   20.2154 O   0  0  0  0  0  0  0  0  0  1  0  0
  -23.3557   -7.1278   22.0704 F   0  0  0  0  0  0  0  0  0  0  0  0
  -22.6962  -10.0450   18.4015 F   0  0  0  0  0  0  0  0  0  0  0  0
  1  2  1  0  0  0  0
  1  5  2  0  0  0  0
  2  6  2  0  0  0  0
  3  8  2  0  0  0  0
  3 16  1  0  0  0  0
  4  9  1  0  0  0  0
  4 16  2  0  0  0  0
  5 18  1  0  0  0  0
  6 20  1  0  0  0  0
  7 10  2  0  0  0  0
  7 19  1  0  0  0  0
  8 25  1  0  0  0  0
  9 25  2  0  0  0  0
 10 26  1  0  0  0  0
 11 12  2  0  0  0  0
 11 27  1  0  0  0  0
 12 28  1  0  0  0  0
 13 21  1  0  0  0  0
 13 26  2  0  0  0  0
 14 28  2  0  0  0  0
 14 29  1  0  0  0  0
 15 22  1  0  0  0  0
 15 67  2  0  0  0  0
 16 30  1  0  0  0  0
 17 30  1  0  0  0  0
 17 32  2  0  0  0  0
 17 33  1  0  0  0  0
 18 20  2  0  0  0  0
 18 38  1  0  0  0  0
 19 21  2  0  0  0  0
 19 39  1  0  0  0  0
 20 47  1  0  0  0  0
 21 40  1  0  0  0  0
 22 23  2  0  0  0  0
 22 58  1  0  0  0  0
 23 24  1  0  0  0  0
 23 59  1  0  0  0  0
 24 31  2  0  0  0  0
 24 50  1  0  0  0  0
 25 83  1  0  0  0  0
 26 84  1  0  0  0  0
 27 29  2  0  0  0  0
 27 83  1  0  0  0  0
 28 85  1  0  0  0  0
 29 86  1  0  0  0  0
 30 68  2  0  0  0  0
 31 60  1  0  0  0  0
 31 67  1  0  0  0  0
 32 69  1  0  0  0  0
 32 72  1  0  0  0  0
 33 73  1  0  0  0  0
 33 78  2  0  0  0  0
 34 48  1  0  0  0  0
 34 74  1  0  0  0  0
 34 79  2  0  0  0  0
 35 64  1  0  0  0  0
 35 70  1  0  0  0  0
 35 80  2  0  0  0  0
 36 65  1  0  0  0  0
 36 75  1  0  0  0  0
 36 81  2  0  0  0  0
 37 71  1  0  0  0  0
 37 76  1  0  0  0  0
 37 82  2  0  0  0  0
 38 41  1  0  0  0  0
 39 48  1  0  0  0  0
 40 70  1  0  0  0  0
 41 43  1  0  0  0  0
 42 44  1  0  0  0  0
 42 45  1  0  0  0  0
 43 47  1  0  0  0  0
 44 49  1  0  0  0  0
 45 71  1  0  0  0  0
 46 49  1  0  0  0  0
 46 71  1  0  0  0  0
 47 74  1  0  0  0  0
 48 70  1  0  0  0  0
 49 69  1  0  0  0  0
 51 61  1  0  0  0  0
 52 65  1  0  0  0  0
 53 66  1  0  0  0  0
 54 66  1  0  0  0  0
 55 66  1  0  0  0  0
 56 76  1  0  0  0  0
 57 77  1  0  0  0  0
 58 61  1  0  0  0  0
 59 62  1  0  0  0  0
 60 76  1  0  0  0  0
 62 63  1  0  0  0  0
 63 84  1  0  0  0  0
 64 66  1  0  0  0  0
 64 75  1  0  0  0  0
 65 77  1  0  0  0  0
 68 69  1  0  0  0  0
M  CHG  1  77   1
M  ISO  4  37 100  63 101  76 100  84 101
M  END
> <Batch ID>
0100

> <Smiles>
CCCc1cnc(C[100N:0](C)[100C:0](=O)N2CCCC(n3nc(-c4ccc(Oc5ccc(F)cc5F)cc4)c(C(N)=O)c3N)C2)c(C)c1CC[101CH2:1][101O:1]c1ccc2c(c1)CN(C(=O)C(NC(=O)C(C)NC)C(C)(C)C)C(C(=O)NC1CCCc3ccccc31)C2

> <Shape>
0.298

> <Color>
0.073

> <Negative vol penalty>
0.000

$$$$

  -OEChem-04052319333D

 87 94  0     1  0  0  0  0  0999 V2000
  -18.4244  -21.0984   20.2421 C   0  0  0  0  0  0  0  0  0  0  0  0
  -19.5026  -20.2634   19.9665 C   0  0  0  0  0  0  0  0  0  0  0  0
  -27.5068  -23.5670   20.5824 C   0  0  0  0  0  0  0  0  0  0  0  0
  -28.9495  -23.5689   18.6444 C   0  0  0  0  0  0  0  0  0  0  0  0
  -18.5787  -22.1654   21.1261 C   0  0  0  0  0  0  0  0  0  0  0  0
  -20.7360  -20.4957   20.5741 C   0  0  0  0  0  0  0  0  0  0  0  0
  -22.8655  -16.2510   22.3326 C   0  0  0  0  0  0  0  0  0  0  0  0
  -27.6047  -24.9564   20.6566 C   0  0  0  0  0  0  0  0  0  0  0  0
  -29.0473  -24.9584   18.7186 C   0  0  0  0  0  0  0  0  0  0  0  0
  -23.4882  -15.4188   21.4034 C   0  0  0  0  0  0  0  0  0  0  0  0
  -26.2553  -27.6355   19.0963 C   0  0  0  0  0  0  0  0  0  0  0  0
  -25.0812  -28.3576   19.3098 C   0  0  0  0  0  0  0  0  0  0  0  0
  -25.6327  -16.3199   22.0424 C   0  0  0  0  0  0  0  0  0  0  0  0
  -26.0065  -29.2584   21.3517 C   0  0  0  0  0  0  0  0  0  0  0  0
  -28.1792  -22.8732   19.5763 C   0  0  0  0  0  0  0  0  0  0  0  0
  -27.1230  -20.6895   18.7868 C   0  0  0  0  0  0  0  0  0  0  0  0
  -19.8120  -22.4052   21.7523 C   0  0  0  0  0  0  0  0  0  0  0  0
  -23.6221  -17.1332   23.1174 C   0  0  0  0  0  0  0  0  0  0  0  0
  -20.9072  -21.5678   21.4664 C   0  0  0  0  0  0  0  0  0  0  0  0
  -25.0175  -17.1604   22.9826 C   0  0  0  0  0  0  0  0  0  0  0  0
  -28.3749  -25.6521   19.7247 C   0  0  0  0  0  0  0  0  0  0  0  0
  -24.8717  -15.4552   21.2561 C   0  0  0  0  0  0  0  0  0  0  0  0
  -27.3051  -27.7248   20.0105 C   0  0  0  0  0  0  0  0  0  0  0  0
  -24.9568  -29.1690   20.4375 C   0  0  0  0  0  0  0  0  0  0  0  0
  -27.1806  -28.5363   21.1382 C   0  0  0  0  0  0  0  0  0  0  0  0
  -28.0790  -21.4379   19.4994 C   0  0  0  0  0  0  0  0  0  0  0  0
  -27.4580  -19.3806   19.0338 C   0  0  0  0  0  0  0  0  0  0  0  0
  -26.0300  -21.1373   17.9741 C   0  0  0  0  0  0  0  0  0  0  0  0
  -23.7510  -20.2917   23.4507 C   0  0  0  0  0  0  0  0  0  0  0  0
  -25.8078  -19.5637   25.8511 C   0  0  0  0  0  0  0  0  0  0  0  0
  -28.0075  -17.3332   27.2050 C   0  0  0  0  0  0  0  0  0  0  0  0
  -31.2785  -15.3389   19.4971 C   0  0  0  0  0  0  0  0  0  0  0  0
  -19.9432  -23.5993   22.6642 C   0  0  0  0  0  0  0  0  0  0  0  0
  -22.9378  -18.0053   24.1341 C   0  0  0  0  0  0  0  0  0  0  0  0
  -25.8769  -18.0750   23.8153 C   0  0  0  0  0  0  0  0  0  0  0  0
  -21.1826  -23.5527   23.5542 C   0  0  0  0  0  0  0  0  0  0  0  0
  -30.7099  -17.3849   22.3549 C   0  0  0  0  0  0  0  0  0  0  0  0
  -22.4124  -23.1694   22.7372 C   0  0  0  0  0  0  0  0  0  0  0  0
  -29.9017  -18.5624   21.8068 C   0  0  0  0  0  0  0  0  0  0  0  0
  -31.7593  -16.9062   21.3542 C   0  0  0  0  0  0  0  0  0  0  0  0
  -30.4272  -17.7619   19.4655 C   0  0  0  0  0  0  0  0  0  0  0  0
  -22.2544  -21.7725   22.1247 C   0  0  1  0  0  0  0  0  0  0  0  0
  -23.7583  -19.2331   24.5170 C   0  0  1  0  0  0  0  0  0  0  0  0
  -29.3186  -18.2437   20.4170 C   0  0  2  0  0  0  0  0  0  0  0  0
  -29.5620  -17.0341   29.1521 C   0  0  0  0  0  0  0  0  0  0  0  0
  -26.1356  -11.8110   20.5305 C   0  0  0  0  0  0  0  0  0  0  0  0
  -31.0399   -9.6564   16.9374 C   0  0  0  0  0  0  0  0  0  0  0  0
  -29.9113  -10.1366   19.1442 C   0  0  0  0  0  0  0  0  0  0  0  0
  -25.4087  -14.2157   15.6632 C   0  0  0  0  0  0  0  0  0  0  0  0
  -27.1996  -15.1230   14.1821 C   0  0  0  0  0  0  0  0  0  0  0  0
  -26.9413  -15.9865   16.5223 C   0  0  0  0  0  0  0  0  0  0  0  0
  -27.8126  -21.4517   24.5374 C   0  0  0  0  0  0  0  0  0  0  0  0
  -29.6076  -20.4055   25.9345 C   0  0  0  0  0  0  0  0  0  0  0  0
  -27.7153  -21.6046   27.0317 C   0  0  0  0  0  0  0  0  0  0  0  0
  -26.5277  -14.9591   28.1707 C   0  0  0  0  0  0  0  0  0  0  0  0
  -26.9972  -12.8974   18.4443 C   0  0  0  0  0  0  0  0  0  0  0  0
  -27.7927  -13.5932   16.1343 C   0  0  0  0  0  0  0  0  0  0  0  0
  -30.7030  -13.8848   17.5700 C   0  0  0  0  0  0  0  0  0  0  0  0
  -26.8085  -14.2174   20.6459 C   0  0  0  0  0  0  0  0  0  1  0  0
  -27.2994  -19.3555   25.9546 C   0  0  1  0  0  0  0  0  0  0  0  0
  -28.1580  -16.7978   28.6175 C   0  0  2  0  0  0  0  0  0  0  0  0
  -27.1097  -12.8643   19.9876 C   0  0  1  0  0  0  0  0  0  0  0  0
  -28.1416  -13.5931   17.6551 C   0  0  2  0  0  0  0  0  0  0  0  0
  -30.6213  -10.7242   17.9351 C   0  0  0  0  0  0  0  0  0  0  0  0
  -29.5345  -12.9730   17.9576 C   0  0  1  0  0  0  0  0  0  0  0  0
  -26.8607  -14.7369   15.6333 C   0  0  0  0  0  0  0  0  0  0  0  0
  -28.0927  -20.6884   25.8473 C   0  0  0  0  0  0  0  0  0  0  0  0
  -28.9554  -20.6685   20.1504 N   0  0  0  0  0  0  0  0  0  0  0  0
  -28.5515  -19.4229   19.8480 N   0  0  0  0  0  0  0  0  0  0  0  0
  -25.1606  -18.9129   24.7912 N   0  0  0  0  0  0  0  0  0  0  0  0
  -31.1411  -16.6196   20.0574 N   0  0  0  0  0  0  0  0  0  0  0  0
  -26.9210  -18.2090   18.6320 N   0  0  0  0  0  0  0  0  0  0  0  0
  -25.8285  -22.5164   17.8264 N   0  0  0  0  0  0  0  0  0  0  0  0
  -22.4899  -20.7528   23.1243 N   0  0  0  0  0  0  0  0  0  0  0  0
  -27.5243  -18.6246   27.1970 N   0  0  0  0  0  0  0  0  0  0  0  0
  -30.6565  -15.1497   18.2690 N   0  0  0  0  0  0  0  0  0  0  0  0
  -27.8837  -15.3333   28.6483 N   0  3  0  0  0  0  0  0  0  0  0  0
  -29.6948  -11.6651   17.2564 N   0  3  0  0  0  0  0  0  0  0  0  0
  -25.2451  -20.3383   17.4094 O   0  0  0  0  0  0  0  0  0  0  0  0
  -24.8111  -20.6637   22.9614 O   0  0  0  0  0  0  0  0  0  0  0  0
  -25.2367  -20.2717   26.6843 O   0  0  0  0  0  0  0  0  0  0  0  0
  -28.2937  -16.6732   26.2084 O   0  0  0  0  0  0  0  0  0  0  0  0
  -31.9042  -14.4297   20.0528 O   0  0  0  0  0  0  0  0  0  0  0  0
  -28.4704  -27.0079   19.7967 O   0  0  0  0  0  0  0  0  0  0  0  0
  -25.4865  -14.6383   20.3425 O   0  0  0  0  0  0  0  0  0  1  0  0
  -23.8298  -29.8636   20.6416 F   0  0  0  0  0  0  0  0  0  0  0  0
  -28.1861  -28.6270   22.0194 F   0  0  0  0  0  0  0  0  0  0  0  0
  1  2  1  0  0  0  0
  1  5  2  0  0  0  0
  2  6  2  0  0  0  0
  3  8  2  0  0  0  0
  3 15  1  0  0  0  0
  4  9  1  0  0  0  0
  4 15  2  0  0  0  0
  5 17  1  0  0  0  0
  6 19  1  0  0  0  0
  7 10  2  0  0  0  0
  7 18  1  0  0  0  0
  8 21  1  0  0  0  0
  9 21  2  0  0  0  0
 10 22  1  0  0  0  0
 11 12  2  0  0  0  0
 11 23  1  0  0  0  0
 12 24  1  0  0  0  0
 13 20  1  0  0  0  0
 13 22  2  0  0  0  0
 14 24  2  0  0  0  0
 14 25  1  0  0  0  0
 15 26  1  0  0  0  0
 16 26  1  0  0  0  0
 16 27  2  0  0  0  0
 16 28  1  0  0  0  0
 17 19  2  0  0  0  0
 17 33  1  0  0  0  0
 18 20  2  0  0  0  0
 18 34  1  0  0  0  0
 19 42  1  0  0  0  0
 20 35  1  0  0  0  0
 21 84  1  0  0  0  0
 22 85  1  0  0  0  0
 23 25  2  0  0  0  0
 23 84  1  0  0  0  0
 24 86  1  0  0  0  0
 25 87  1  0  0  0  0
 26 68  2  0  0  0  0
 27 69  1  0  0  0  0
 27 72  1  0  0  0  0
 28 73  1  0  0  0  0
 28 79  2  0  0  0  0
 29 43  1  0  0  0  0
 29 74  1  0  0  0  0
 29 80  2  0  0  0  0
 30 60  1  0  0  0  0
 30 70  1  0  0  0  0
 30 81  2  0  0  0  0
 31 61  1  0  0  0  0
 31 75  1  0  0  0  0
 31 82  2  0  0  0  0
 32 71  1  0  0  0  0
 32 76  1  0  0  0  0
 32 83  2  0  0  0  0
 33 36  1  0  0  0  0
 34 43  1  0  0  0  0
 35 70  1  0  0  0  0
 36 38  1  0  0  0  0
 37 39  1  0  0  0  0
 37 40  1  0  0  0  0
 38 42  1  0  0  0  0
 39 44  1  0  0  0  0
 40 71  1  0  0  0  0
 41 44  1  0  0  0  0
 41 71  1  0  0  0  0
 42 74  1  0  0  0  0
 43 70  1  0  0  0  0
 44 69  1  0  0  0  0
 45 61  1  0  0  0  0
 46 62  1  0  0  0  0
 47 64  1  0  0  0  0
 48 64  1  0  0  0  0
 49 66  1  0  0  0  0
 50 66  1  0  0  0  0
 51 66  1  0  0  0  0
 52 67  1  0  0  0  0
 53 67  1  0  0  0  0
 54 67  1  0  0  0  0
 55 77  1  0  0  0  0
 56 62  1  0  0  0  0
 56 63  1  0  0  0  0
 57 63  1  0  0  0  0
 57 66  1  0  0  0  0
 58 65  1  0  0  0  0
 58 76  1  0  0  0  0
 59 62  1  0  0  0  0
 59 85  1  0  0  0  0
 60 67  1  0  0  0  0
 60 75  1  0  0  0  0
 61 77  1  0  0  0  0
 63 65  1  0  0  0  0
 64 78  1  0  0  0  0
 65 78  1  0  0  0  0
 68 69  1  0  0  0  0
M  CHG  2  77   1  78   1
M  ISO  4  32 100  59 101  76 100  85 101
M  END
> <Batch ID>
0100

> <Smiles>
CNC(C)C(=O)NC(C(=O)N1Cc2cc([101O:1][101CH2:1]C(C)CC(CC(C)(C)C)C(C[100NH:0][100C:0](=O)N3CCCC(n4nc(-c5ccc(Oc6ccc(F)cc6F)cc5)c(C(N)=O)c4N)C3)NC(C)C)ccc2CC1C(=O)NC1CCCc2ccccc21)C(C)(C)C

> <Shape>
0.182

> <Color>
0.078

> <Negative vol penalty>
0.000

$$$$

  -OEChem-04052319333D

 83 91  0     1  0  0  0  0  0999 V2000
  -26.1737  -34.6955   25.2020 C   0  0  0  0  0  0  0  0  0  0  0  0
  -26.7333  -34.4044   23.9630 C   0  0  0  0  0  0  0  0  0  0  0  0
  -24.2264   -9.0471   21.3511 C   0  0  0  0  0  0  0  0  0  0  0  0
  -24.6106  -10.3273   23.3637 C   0  0  0  0  0  0  0  0  0  0  0  0
  -25.7773  -33.6589   26.0444 C   0  0  0  0  0  0  0  0  0  0  0  0
  -26.8858  -33.0770   23.5611 C   0  0  0  0  0  0  0  0  0  0  0  0
  -28.8991  -26.9866   18.7818 C   0  0  0  0  0  0  0  0  0  0  0  0
  -24.0377   -7.8976   22.1183 C   0  0  0  0  0  0  0  0  0  0  0  0
  -24.4218   -9.1778   24.1309 C   0  0  0  0  0  0  0  0  0  0  0  0
  -29.1529  -25.6160   18.7528 C   0  0  0  0  0  0  0  0  0  0  0  0
  -21.5792   -6.5310   23.9947 C   0  0  0  0  0  0  0  0  0  0  0  0
  -20.4973   -5.7099   23.6770 C   0  0  0  0  0  0  0  0  0  0  0  0
  -27.0268  -25.2060   19.8158 C   0  0  0  0  0  0  0  0  0  0  0  0
  -29.5725  -20.7483   17.5361 C   0  0  0  0  0  0  0  0  0  0  0  0
  -22.0131   -3.8774   23.2511 C   0  0  0  0  0  0  0  0  0  0  0  0
  -24.5129  -10.2620   21.9738 C   0  0  0  0  0  0  0  0  0  0  0  0
  -23.7265  -12.3752   20.7807 C   0  0  0  0  0  0  0  0  0  0  0  0
  -25.9369  -32.3182   25.6569 C   0  0  0  0  0  0  0  0  0  0  0  0
  -27.7099  -27.4792   19.3384 C   0  0  0  0  0  0  0  0  0  0  0  0
  -26.4700  -32.0171   24.3871 C   0  0  0  0  0  0  0  0  0  0  0  0
  -26.7584  -26.5829   19.8463 C   0  0  0  0  0  0  0  0  0  0  0  0
  -29.6427  -19.3614   17.6050 C   0  0  0  0  0  0  0  0  0  0  0  0
  -29.9026  -18.7437   18.8233 C   0  0  0  0  0  0  0  0  0  0  0  0
  -24.1354   -7.9629   23.5082 C   0  0  0  0  0  0  0  0  0  0  0  0
  -28.2177  -24.7256   19.2718 C   0  0  0  0  0  0  0  0  0  0  0  0
  -22.8780   -6.0253   23.9406 C   0  0  0  0  0  0  0  0  0  0  0  0
  -20.7142   -4.3831   23.3052 C   0  0  0  0  0  0  0  0  0  0  0  0
  -23.0950   -4.6985   23.5689 C   0  0  0  0  0  0  0  0  0  0  0  0
  -24.7085  -11.4496   21.1818 C   0  0  0  0  0  0  0  0  0  0  0  0
  -29.7680  -21.4664   18.7048 C   0  0  0  0  0  0  0  0  0  0  0  0
  -30.0835  -19.5516   19.9344 C   0  0  0  0  0  0  0  0  0  0  0  0
  -24.4163  -13.3139   20.0530 C   0  0  0  0  0  0  0  0  0  0  0  0
  -22.3169  -12.3856   21.0426 C   0  0  0  0  0  0  0  0  0  0  0  0
  -26.9108  -29.4238   21.7521 C   0  0  0  0  0  0  0  0  0  0  0  0
  -28.7429  -16.6784   19.5642 C   0  0  0  0  0  0  0  0  0  0  0  0
  -23.8892  -28.9442   20.4508 C   0  0  0  0  0  0  0  0  0  0  0  0
  -22.8127  -32.1204   21.0775 C   0  0  0  0  0  0  0  0  0  0  0  0
  -25.4836  -31.2358   26.6046 C   0  0  0  0  0  0  0  0  0  0  0  0
  -27.4420  -28.9599   19.3325 C   0  0  0  0  0  0  0  0  0  0  0  0
  -25.4657  -27.0609   20.4506 C   0  0  0  0  0  0  0  0  0  0  0  0
  -26.0889  -29.8730   26.2837 C   0  0  0  0  0  0  0  0  0  0  0  0
  -29.1465  -13.2984   18.2836 C   0  0  0  0  0  0  0  0  0  0  0  0
  -25.9165  -29.5631   24.8042 C   0  0  0  0  0  0  0  0  0  0  0  0
  -27.9547  -12.5856   18.9212 C   0  0  0  0  0  0  0  0  0  0  0  0
  -29.7274  -14.3614   19.2125 C   0  0  0  0  0  0  0  0  0  0  0  0
  -27.5325  -14.6561   20.3169 C   0  0  0  0  0  0  0  0  0  0  0  0
  -26.6738  -30.5804   23.9413 C   0  0  1  0  0  0  0  0  0  0  0  0
  -26.3839  -29.3926   20.3454 C   0  0  1  0  0  0  0  0  0  0  0  0
  -26.8984  -13.5969   19.3999 C   0  0  2  0  0  0  0  0  0  0  0  0
  -30.3641  -18.9459   21.2708 C   0  0  0  0  0  0  0  0  0  0  0  0
  -21.1930  -34.0139   21.3747 C   0  0  0  0  0  0  0  0  0  0  0  0
  -30.4581  -17.4566   14.3018 C   0  0  0  0  0  0  0  0  0  0  0  0
  -31.4219  -19.5922   15.1815 C   0  0  0  0  0  0  0  0  0  0  0  0
  -24.0906  -29.1130   17.4117 C   0  0  0  0  0  0  0  0  0  0  0  0
  -22.7082  -31.1982   17.5065 C   0  0  0  0  0  0  0  0  0  0  0  0
  -21.7540  -29.0342   18.2998 C   0  0  0  0  0  0  0  0  0  0  0  0
  -22.4136  -31.4830   23.9399 C   0  0  0  0  0  0  0  0  0  0  0  0
  -29.9812  -17.2577   18.9279 C   0  0  0  0  0  0  0  0  0  0  0  0
  -29.4389  -18.5616   16.3609 C   0  0  0  0  0  0  0  0  0  0  0  0
  -29.6981  -22.9648   18.6686 C   0  0  0  0  0  0  0  0  0  1  0  0
  -23.5222  -30.1921   19.6873 C   0  0  1  0  0  0  0  0  0  0  0  0
  -21.6306  -32.6451   21.8723 C   0  0  2  0  0  0  0  0  0  0  0  0
  -30.7349  -18.2786   15.5631 C   0  0  0  0  0  0  0  0  0  0  0  0
  -23.0431  -29.8825   18.2409 C   0  0  0  0  0  0  0  0  0  0  0  0
  -25.9291  -11.7710   20.7449 N   0  0  0  0  0  0  0  0  0  0  0  0
  -30.0226  -20.9018   19.9064 N   0  0  0  0  0  0  0  0  0  0  0  0
  -25.7187  -12.9090   20.0617 N   0  0  0  0  0  0  0  0  0  0  0  0
  -25.2147  -28.5041   20.3445 N   0  0  0  0  0  0  0  0  0  0  0  0
  -28.6846  -15.2884   19.6680 N   0  0  0  0  0  0  0  0  0  0  0  0
  -24.0297  -14.4377   19.4127 N   0  0  0  0  0  0  0  0  0  0  0  0
  -21.7718  -11.3454   21.8075 N   0  0  0  0  0  0  0  0  0  0  0  0
  -26.3178  -30.3804   22.5539 N   0  0  0  0  0  0  0  0  0  0  0  0
  -22.5399  -30.8964   20.5043 N   0  0  0  0  0  0  0  0  0  0  0  0
  -21.9868  -32.7612   23.3147 N   0  3  0  0  0  0  0  0  0  0  0  0
  -21.5605  -13.2818   20.5974 O   0  0  0  0  0  0  0  0  0  0  0  0
  -27.7892  -28.6373   22.0858 O   0  0  0  0  0  0  0  0  0  0  0  0
  -27.8539  -17.4399   19.9540 O   0  0  0  0  0  0  0  0  0  0  0  0
  -23.0244  -28.3692   21.1177 O   0  0  0  0  0  0  0  0  0  0  0  0
  -23.8710  -32.7365   20.9725 O   0  0  0  0  0  0  0  0  0  0  0  0
  -23.9510   -6.8415   24.2571 O   0  0  0  0  0  0  0  0  0  0  0  0
  -28.4626  -23.3873   19.2442 O   0  0  0  0  0  0  0  0  0  1  0  0
  -19.6751   -3.5943   23.0016 F   0  0  0  0  0  0  0  0  0  0  0  0
  -24.3404   -4.2067   23.5162 F   0  0  0  0  0  0  0  0  0  0  0  0
  1  2  1  0  0  0  0
  1  5  2  0  0  0  0
  2  6  2  0  0  0  0
  3  8  2  0  0  0  0
  3 16  1  0  0  0  0
  4  9  1  0  0  0  0
  4 16  2  0  0  0  0
  5 18  1  0  0  0  0
  6 20  1  0  0  0  0
  7 10  2  0  0  0  0
  7 19  1  0  0  0  0
  8 24  1  0  0  0  0
  9 24  2  0  0  0  0
 10 25  1  0  0  0  0
 11 12  2  0  0  0  0
 11 26  1  0  0  0  0
 12 27  1  0  0  0  0
 13 21  1  0  0  0  0
 13 25  2  0  0  0  0
 14 22  2  0  0  0  0
 14 30  1  0  0  0  0
 15 27  2  0  0  0  0
 15 28  1  0  0  0  0
 16 29  1  0  0  0  0
 17 29  1  0  0  0  0
 17 32  2  0  0  0  0
 17 33  1  0  0  0  0
 18 20  2  0  0  0  0
 18 38  1  0  0  0  0
 19 21  2  0  0  0  0
 19 39  1  0  0  0  0
 20 47  1  0  0  0  0
 21 40  1  0  0  0  0
 22 23  1  0  0  0  0
 22 59  1  0  0  0  0
 23 31  2  0  0  0  0
 23 58  1  0  0  0  0
 24 80  1  0  0  0  0
 25 81  1  0  0  0  0
 26 28  2  0  0  0  0
 26 80  1  0  0  0  0
 27 82  1  0  0  0  0
 28 83  1  0  0  0  0
 29 65  2  0  0  0  0
 30 60  1  0  0  0  0
 30 66  2  0  0  0  0
 31 50  1  0  0  0  0
 31 66  1  0  0  0  0
 32 67  1  0  0  0  0
 32 70  1  0  0  0  0
 33 71  1  0  0  0  0
 33 75  2  0  0  0  0
 34 48  1  0  0  0  0
 34 72  1  0  0  0  0
 34 76  2  0  0  0  0
 35 58  1  0  0  0  0
 35 69  1  0  0  0  0
 35 77  2  0  0  0  0
 36 61  1  0  0  0  0
 36 68  1  0  0  0  0
 36 78  2  0  0  0  0
 37 62  1  0  0  0  0
 37 73  1  0  0  0  0
 37 79  2  0  0  0  0
 38 41  1  0  0  0  0
 39 48  1  0  0  0  0
 40 68  1  0  0  0  0
 41 43  1  0  0  0  0
 42 44  1  0  0  0  0
 42 45  1  0  0  0  0
 43 47  1  0  0  0  0
 44 49  1  0  0  0  0
 45 69  1  0  0  0  0
 46 49  1  0  0  0  0
 46 69  1  0  0  0  0
 47 72  1  0  0  0  0
 48 68  1  0  0  0  0
 49 67  1  0  0  0  0
 51 62  1  0  0  0  0
 52 63  1  0  0  0  0
 53 63  1  0  0  0  0
 54 64  1  0  0  0  0
 55 64  1  0  0  0  0
 56 64  1  0  0  0  0
 57 74  1  0  0  0  0
 59 63  1  0  0  0  0
 60 81  1  0  0  0  0
 61 64  1  0  0  0  0
 61 73  1  0  0  0  0
 62 74  1  0  0  0  0
 65 67  1  0  0  0  0
M  CHG  1  74   1
M  ISO  4  35 100  58 100  60 101  81 101
M  END
> <Batch ID>
0100

> <Smiles>
CNC(C)C(=O)NC(C(=O)N1Cc2cc([101O:1][101CH2:1]c3cc(CC(C)C)c([100CH2:0][100C:0](=O)N4CCCC(n5nc(-c6ccc(Oc7ccc(F)cc7F)cc6)c(C(N)=O)c5N)C4)c(C)n3)ccc2CC1C(=O)NC1CCCc2ccccc21)C(C)(C)C

> <Shape>
0.327

> <Color>
0.100

> <Negative vol penalty>
0.000

$$$$

  -OEChem-04052319333D

 84 92  0     1  0  0  0  0  0999 V2000
  -32.1582  -24.9917   18.5557 C   0  0  0  0  0  0  0  0  0  0  0  0
  -30.8049  -25.2381   18.3540 C   0  0  0  0  0  0  0  0  0  0  0  0
  -27.4557  -14.4915   19.0752 C   0  0  0  0  0  0  0  0  0  0  0  0
  -25.3853  -15.1549   20.1288 C   0  0  0  0  0  0  0  0  0  0  0  0
  -32.7458  -25.3088   19.7786 C   0  0  0  0  0  0  0  0  0  0  0  0
  -30.0414  -25.8127   19.3707 C   0  0  0  0  0  0  0  0  0  0  0  0
  -24.0696  -26.9888   19.6575 C   0  0  0  0  0  0  0  0  0  0  0  0
  -27.2444  -13.1761   19.4881 C   0  0  0  0  0  0  0  0  0  0  0  0
  -25.1739  -13.8394   20.5417 C   0  0  0  0  0  0  0  0  0  0  0  0
  -22.9141  -26.3454   20.0987 C   0  0  0  0  0  0  0  0  0  0  0  0
  -24.0745  -10.9489   19.1791 C   0  0  0  0  0  0  0  0  0  0  0  0
  -22.7973  -10.4148   19.0081 C   0  0  0  0  0  0  0  0  0  0  0  0
  -23.0641  -27.5274   22.1962 C   0  0  0  0  0  0  0  0  0  0  0  0
  -22.6294  -10.0535   21.3910 C   0  0  0  0  0  0  0  0  0  0  0  0
  -23.5586  -23.4062   22.9775 C   0  0  0  0  0  0  0  0  0  0  0  0
  -26.5262  -15.4810   19.3956 C   0  0  0  0  0  0  0  0  0  0  0  0
  -26.3203  -17.4318   17.7648 C   0  0  0  0  0  0  0  0  0  0  0  0
  -31.9856  -25.8759   20.8146 C   0  0  0  0  0  0  0  0  0  0  0  0
  -24.7383  -27.8997   20.4880 C   0  0  0  0  0  0  0  0  0  0  0  0
  -30.6214  -26.1619   20.6037 C   0  0  0  0  0  0  0  0  0  0  0  0
  -24.2264  -28.1829   21.7623 C   0  0  0  0  0  0  0  0  0  0  0  0
  -24.5886  -22.7839   23.6478 C   0  0  0  0  0  0  0  0  0  0  0  0
  -24.0154  -21.7770   24.4632 C   0  0  0  0  0  0  0  0  0  0  0  0
  -26.1035  -12.8500   20.2214 C   0  0  0  0  0  0  0  0  0  0  0  0
  -22.4128  -26.6125   21.3693 C   0  0  0  0  0  0  0  0  0  0  0  0
  -24.6291  -11.0352   20.4561 C   0  0  0  0  0  0  0  0  0  0  0  0
  -22.0748   -9.9672   20.1141 C   0  0  0  0  0  0  0  0  0  0  0  0
  -23.9066  -10.5876   21.5620 C   0  0  0  0  0  0  0  0  0  0  0  0
  -26.7442  -16.8401   18.9698 C   0  0  0  0  0  0  0  0  0  0  0  0
  -22.6526  -21.8146   24.2662 C   0  0  0  0  0  0  0  0  0  0  0  0
  -26.7726  -18.7265   17.8403 C   0  0  0  0  0  0  0  0  0  0  0  0
  -25.5836  -16.8621   16.6747 C   0  0  0  0  0  0  0  0  0  0  0  0
  -27.6332  -28.0376   21.7934 C   0  0  0  0  0  0  0  0  0  0  0  0
  -26.6463  -30.9839   22.7251 C   0  0  0  0  0  0  0  0  0  0  0  0
  -24.0473  -33.0790   23.4336 C   0  0  0  0  0  0  0  0  0  0  0  0
  -28.1060  -22.3178   22.4419 C   0  0  0  0  0  0  0  0  0  0  0  0
  -32.6741  -26.2066   22.1153 C   0  0  0  0  0  0  0  0  0  0  0  0
  -25.9686  -28.6054   19.9871 C   0  0  0  0  0  0  0  0  0  0  0  0
  -24.8955  -29.1677   22.6847 C   0  0  0  0  0  0  0  0  0  0  0  0
  -31.6990  -26.3962   23.2727 C   0  0  0  0  0  0  0  0  0  0  0  0
  -30.2629  -21.3668   19.7735 C   0  0  0  0  0  0  0  0  0  0  0  0
  -30.5832  -27.3454   22.8621 C   0  0  0  0  0  0  0  0  0  0  0  0
  -29.5674  -20.1522   19.1562 C   0  0  0  0  0  0  0  0  0  0  0  0
  -30.0987  -21.4001   21.2914 C   0  0  0  0  0  0  0  0  0  0  0  0
  -28.0092  -20.1012   21.1482 C   0  0  0  0  0  0  0  0  0  0  0  0
  -29.7643  -26.7579   21.7058 C   0  0  1  0  0  0  0  0  0  0  0  0
  -26.8568  -29.1286   21.1117 C   0  0  1  0  0  0  0  0  0  0  0  0
  -28.0995  -20.0542   19.6133 C   0  0  2  0  0  0  0  0  0  0  0  0
  -24.7428  -20.8554   25.3602 C   0  0  0  0  0  0  0  0  0  0  0  0
  -21.5798  -20.9897   24.8611 C   0  0  0  0  0  0  0  0  0  0  0  0
  -23.5546  -35.4151   24.2065 C   0  0  0  0  0  0  0  0  0  0  0  0
  -27.3962  -30.1962   25.5760 C   0  0  0  0  0  0  0  0  0  0  0  0
  -26.0343  -32.1310   26.3945 C   0  0  0  0  0  0  0  0  0  0  0  0
  -28.0211  -32.5330   24.9406 C   0  0  0  0  0  0  0  0  0  0  0  0
  -18.9547  -24.6104   22.8816 C   0  0  0  0  0  0  0  0  0  0  0  0
  -20.2129  -24.3072   25.0147 C   0  0  0  0  0  0  0  0  0  0  0  0
  -22.5983  -33.7243   20.9350 C   0  0  0  0  0  0  0  0  0  0  0  0
  -26.0228  -23.1146   23.5303 C   0  0  0  0  0  0  0  0  0  0  0  0
  -21.0185  -23.2005   22.8522 C   0  0  0  0  0  0  0  0  0  0  0  0
  -21.1703  -25.7525   23.2057 C   0  0  0  0  0  0  0  0  0  1  0  0
  -25.9273  -31.5387   23.9310 C   0  0  1  0  0  0  0  0  0  0  0  0
  -23.7581  -34.5061   23.0044 C   0  0  2  0  0  0  0  0  0  0  0  0
  -26.8330  -31.5797   25.1941 C   0  0  0  0  0  0  0  0  0  0  0  0
  -20.3677  -24.4639   23.4908 C   0  0  0  0  0  0  0  0  0  0  0  0
  -27.4144  -17.6892   19.7533 N   0  0  0  0  0  0  0  0  0  0  0  0
  -22.3865  -22.8085   23.3610 N   0  0  0  0  0  0  0  0  0  0  0  0
  -27.4151  -18.8275   19.0391 N   0  0  0  0  0  0  0  0  0  0  0  0
  -26.0991  -29.8273   22.1518 N   0  0  0  0  0  0  0  0  0  0  0  0
  -28.6836  -21.3052   21.6583 N   0  0  0  0  0  0  0  0  0  0  0  0
  -26.6794  -19.7769   16.9975 N   0  0  0  0  0  0  0  0  0  0  0  0
  -25.1970  -15.5176   16.7598 N   0  0  0  0  0  0  0  0  0  0  0  0
  -28.8562  -27.7682   21.2093 N   0  0  0  0  0  0  0  0  0  0  0  0
  -25.4017  -32.8393   23.5302 N   0  0  0  0  0  0  0  0  0  0  0  0
  -26.7586  -22.1537   22.7391 N   0  0  0  0  0  0  0  0  0  0  0  0
  -22.5280  -34.5552   22.1645 N   0  3  0  0  0  0  0  0  0  0  0  0
  -25.2913  -17.5210   15.6481 O   0  0  0  0  0  0  0  0  0  0  0  0
  -27.1586  -27.4825   22.7773 O   0  0  0  0  0  0  0  0  0  0  0  0
  -27.6523  -31.5596   22.3030 O   0  0  0  0  0  0  0  0  0  0  0  0
  -23.1604  -32.2601   23.6641 O   0  0  0  0  0  0  0  0  0  0  0  0
  -28.7425  -23.2984   22.8422 O   0  0  0  0  0  0  0  0  0  0  0  0
  -25.8969  -11.5664   20.6243 O   0  0  0  0  0  0  0  0  0  0  0  0
  -21.2854  -25.9854   21.8026 O   0  0  0  0  0  0  0  0  0  1  0  0
  -20.8477   -9.4557   19.9499 F   0  0  0  0  0  0  0  0  0  0  0  0
  -24.4337  -10.6690   22.7914 F   0  0  0  0  0  0  0  0  0  0  0  0
  1  2  1  0  0  0  0
  1  5  2  0  0  0  0
  2  6  2  0  0  0  0
  3  8  2  0  0  0  0
  3 16  1  0  0  0  0
  4  9  1  0  0  0  0
  4 16  2  0  0  0  0
  5 18  1  0  0  0  0
  6 20  1  0  0  0  0
  7 10  2  0  0  0  0
  7 19  1  0  0  0  0
  8 24  1  0  0  0  0
  9 24  2  0  0  0  0
 10 25  1  0  0  0  0
 11 12  2  0  0  0  0
 11 26  1  0  0  0  0
 12 27  1  0  0  0  0
 13 21  1  0  0  0  0
 13 25  2  0  0  0  0
 14 27  2  0  0  0  0
 14 28  1  0  0  0  0
 15 22  2  0  0  0  0
 15 66  1  0  0  0  0
 16 29  1  0  0  0  0
 17 29  1  0  0  0  0
 17 31  2  0  0  0  0
 17 32  1  0  0  0  0
 18 20  2  0  0  0  0
 18 37  1  0  0  0  0
 19 21  2  0  0  0  0
 19 38  1  0  0  0  0
 20 46  1  0  0  0  0
 21 39  1  0  0  0  0
 22 23  1  0  0  0  0
 22 58  1  0  0  0  0
 23 30  2  0  0  0  0
 23 49  1  0  0  0  0
 24 81  1  0  0  0  0
 25 82  1  0  0  0  0
 26 28  2  0  0  0  0
 26 81  1  0  0  0  0
 27 83  1  0  0  0  0
 28 84  1  0  0  0  0
 29 65  2  0  0  0  0
 30 50  1  0  0  0  0
 30 66  1  0  0  0  0
 31 67  1  0  0  0  0
 31 70  1  0  0  0  0
 32 71  1  0  0  0  0
 32 76  2  0  0  0  0
 33 47  1  0  0  0  0
 33 72  1  0  0  0  0
 33 77  2  0  0  0  0
 34 61  1  0  0  0  0
 34 68  1  0  0  0  0
 34 78  2  0  0  0  0
 35 62  1  0  0  0  0
 35 73  1  0  0  0  0
 35 79  2  0  0  0  0
 36 69  1  0  0  0  0
 36 74  1  0  0  0  0
 36 80  2  0  0  0  0
 37 40  1  0  0  0  0
 38 47  1  0  0  0  0
 39 68  1  0  0  0  0
 40 42  1  0  0  0  0
 41 43  1  0  0  0  0
 41 44  1  0  0  0  0
 42 46  1  0  0  0  0
 43 48  1  0  0  0  0
 44 69  1  0  0  0  0
 45 48  1  0  0  0  0
 45 69  1  0  0  0  0
 46 72  1  0  0  0  0
 47 68  1  0  0  0  0
 48 67  1  0  0  0  0
 51 62  1  0  0  0  0
 52 63  1  0  0  0  0
 53 63  1  0  0  0  0
 54 63  1  0  0  0  0
 55 64  1  0  0  0  0
 56 64  1  0  0  0  0
 57 75  1  0  0  0  0
 58 74  1  0  0  0  0
 59 64  1  0  0  0  0
 59 66  1  0  0  0  0
 60 64  1  0  0  0  0
 60 82  1  0  0  0  0
 61 63  1  0  0  0  0
 61 73  1  0  0  0  0
 62 75  1  0  0  0  0
 65 67  1  0  0  0  0
M  CHG  1  75   1
M  ISO  4  36 100  60 101  74 100  82 101
M  END
> <Batch ID>
0100

> <Smiles>
CNC(C)C(=O)NC(C(=O)N1Cc2cc([101O:1][101CH2:1]C(C)(C)Cn3cc(C[100NH:0][100C:0](=O)N4CCCC(n5nc(-c6ccc(Oc7ccc(F)cc7F)cc6)c(C(N)=O)c5N)C4)c(C)c3C)ccc2CC1C(=O)NC1CCCc2ccccc21)C(C)(C)C

> <Shape>
0.256

> <Color>
0.060

> <Negative vol penalty>
0.000

$$$$

  -OEChem-04052319333D

 76 83  0     1  0  0  0  0  0999 V2000
  -25.4160  -19.7204   25.4397 C   0  0  0  0  0  0  0  0  0  0  0  0
  -26.2804  -20.6612   24.8916 C   0  0  0  0  0  0  0  0  0  0  0  0
  -27.0998  -14.4956   21.6874 C   0  0  0  0  0  0  0  0  0  0  0  0
  -27.4992  -14.3354   19.3100 C   0  0  0  0  0  0  0  0  0  0  0  0
  -24.0392  -19.8751   25.2921 C   0  0  0  0  0  0  0  0  0  0  0  0
  -25.7682  -21.7632   24.2060 C   0  0  0  0  0  0  0  0  0  0  0  0
  -28.9802  -25.2199   22.8139 C   0  0  0  0  0  0  0  0  0  0  0  0
  -26.5133  -13.2301   21.6742 C   0  0  0  0  0  0  0  0  0  0  0  0
  -26.9128  -13.0698   19.2968 C   0  0  0  0  0  0  0  0  0  0  0  0
  -29.8941  -25.0265   21.7789 C   0  0  0  0  0  0  0  0  0  0  0  0
  -23.5407  -11.8717   20.8124 C   0  0  0  0  0  0  0  0  0  0  0  0
  -22.3442  -11.7054   21.5097 C   0  0  0  0  0  0  0  0  0  0  0  0
  -28.5235  -26.3774   20.3243 C   0  0  0  0  0  0  0  0  0  0  0  0
  -23.3872  -10.0265   22.8991 C   0  0  0  0  0  0  0  0  0  0  0  0
  -27.5927  -15.0483   20.5053 C   0  0  0  0  0  0  0  0  0  0  0  0
  -29.5564  -16.6616   20.7256 C   0  0  0  0  0  0  0  0  0  0  0  0
  -23.5111  -20.9732   24.5935 C   0  0  0  0  0  0  0  0  0  0  0  0
  -27.8236  -25.9857   22.6083 C   0  0  0  0  0  0  0  0  0  0  0  0
  -24.3810  -21.9497   24.0669 C   0  0  0  0  0  0  0  0  0  0  0  0
  -27.5978  -26.5811   21.3591 C   0  0  0  0  0  0  0  0  0  0  0  0
  -26.4199  -12.5172   20.4789 C   0  0  0  0  0  0  0  0  0  0  0  0
  -29.6644  -25.6029   20.5331 C   0  0  0  0  0  0  0  0  0  0  0  0
  -24.6605  -11.1153   21.1584 C   0  0  0  0  0  0  0  0  0  0  0  0
  -22.2674  -10.7828   22.5530 C   0  0  0  0  0  0  0  0  0  0  0  0
  -24.5838  -10.1928   22.2017 C   0  0  0  0  0  0  0  0  0  0  0  0
  -28.1980  -16.3557   20.5182 C   0  0  0  0  0  0  0  0  0  0  0  0
  -29.6166  -18.0312   20.6426 C   0  0  0  0  0  0  0  0  0  0  0  0
  -30.6648  -15.7859   20.9713 C   0  0  0  0  0  0  0  0  0  0  0  0
  -24.7003  -25.4061   22.7200 C   0  0  0  0  0  0  0  0  0  0  0  0
  -24.4844  -28.6103   22.2633 C   0  0  0  0  0  0  0  0  0  0  0  0
  -25.9315  -31.4756   21.1046 C   0  0  0  0  0  0  0  0  0  0  0  0
  -28.2144  -22.8218   18.1466 C   0  0  0  0  0  0  0  0  0  0  0  0
  -22.0127  -21.0957   24.4704 C   0  0  0  0  0  0  0  0  0  0  0  0
  -26.8610  -26.2069   23.7427 C   0  0  0  0  0  0  0  0  0  0  0  0
  -26.3817  -27.4288   21.0929 C   0  0  0  0  0  0  0  0  0  0  0  0
  -21.5833  -22.0458   23.3572 C   0  0  0  0  0  0  0  0  0  0  0  0
  -25.9253  -21.4877   20.5249 C   0  0  0  0  0  0  0  0  0  0  0  0
  -22.3407  -23.3600   23.4746 C   0  0  0  0  0  0  0  0  0  0  0  0
  -26.4208  -20.0576   20.7473 C   0  0  0  0  0  0  0  0  0  0  0  0
  -26.0987  -21.9256   19.0723 C   0  0  0  0  0  0  0  0  0  0  0  0
  -27.9600  -20.3408   18.7600 C   0  0  0  0  0  0  0  0  0  0  0  0
  -23.8476  -23.1402   23.2907 C   0  0  1  0  0  0  0  0  0  0  0  0
  -25.4586  -26.5798   23.2722 C   0  0  1  0  0  0  0  0  0  0  0  0
  -27.8574  -19.8740   20.2221 C   0  0  2  0  0  0  0  0  0  0  0  0
  -25.4964  -33.9322   20.8341 C   0  0  0  0  0  0  0  0  0  0  0  0
  -22.6568  -28.0230   19.8917 C   0  0  0  0  0  0  0  0  0  0  0  0
  -23.0275  -30.3735   19.1132 C   0  0  0  0  0  0  0  0  0  0  0  0
  -21.9335  -29.9484   21.3143 C   0  0  0  0  0  0  0  0  0  0  0  0
  -32.5579  -24.8808   17.4539 C   0  0  0  0  0  0  0  0  0  0  0  0
  -32.4956  -22.4743   18.1632 C   0  0  0  0  0  0  0  0  0  0  0  0
  -28.2198  -32.1901   22.8402 C   0  0  0  0  0  0  0  0  0  0  0  0
  -30.4005  -23.5722   17.2427 C   0  0  0  0  0  0  0  0  0  0  0  0
  -31.2888  -24.1917   19.5203 C   0  0  0  0  0  0  0  0  0  1  0  0
  -24.4112  -29.5158   21.0577 C   0  0  1  0  0  0  0  0  0  0  0  0
  -26.0830  -32.8512   21.7286 C   0  0  2  0  0  0  0  0  0  0  0  0
  -23.0293  -29.4476   20.3483 C   0  0  0  0  0  0  0  0  0  0  0  0
  -31.6832  -23.7797   18.0831 C   0  0  0  0  0  0  0  0  0  0  0  0
  -27.4492  -17.4436   20.3185 N   0  0  0  0  0  0  0  0  0  0  0  0
  -28.3402  -18.4464   20.4002 N   0  0  0  0  0  0  0  0  0  0  0  0
  -25.4668  -27.6104   22.2320 N   0  0  0  0  0  0  0  0  0  0  0  0
  -27.4831  -21.7272   18.6366 N   0  0  0  0  0  0  0  0  0  0  0  0
  -30.6362  -18.9089   20.7540 N   0  0  0  0  0  0  0  0  0  0  0  0
  -30.4268  -14.4058   21.0251 N   0  0  0  0  0  0  0  0  0  0  0  0
  -24.5462  -24.3644   23.6149 N   0  0  0  0  0  0  0  0  0  0  0  0
  -24.7779  -30.8483   21.5250 N   0  0  0  0  0  0  0  0  0  0  0  0
  -29.5210  -22.5482   17.7610 N   0  0  0  0  0  0  0  0  0  0  0  0
  -27.5228  -33.1605   21.9573 N   0  3  0  0  0  0  0  0  0  0  0  0
  -31.8289  -16.2157   21.1546 O   0  0  0  0  0  0  0  0  0  0  0  0
  -24.2844  -25.4433   21.5679 O   0  0  0  0  0  0  0  0  0  0  0  0
  -23.7036  -28.7882   23.2016 O   0  0  0  0  0  0  0  0  0  0  0  0
  -26.7525  -31.0062   20.3197 O   0  0  0  0  0  0  0  0  0  0  0  0
  -27.7399  -23.9597   18.0641 O   0  0  0  0  0  0  0  0  0  0  0  0
  -25.8479  -11.2822   20.4657 O   0  0  0  0  0  0  0  0  0  0  0  0
  -30.5545  -25.4153   19.5210 O   0  0  0  0  0  0  0  0  0  1  0  0
  -21.1187  -10.6243   23.2236 F   0  0  0  0  0  0  0  0  0  0  0  0
  -25.6565   -9.4641   22.5395 F   0  0  0  0  0  0  0  0  0  0  0  0
  1  2  1  0  0  0  0
  1  5  2  0  0  0  0
  2  6  2  0  0  0  0
  3  8  2  0  0  0  0
  3 15  1  0  0  0  0
  4  9  1  0  0  0  0
  4 15  2  0  0  0  0
  5 17  1  0  0  0  0
  6 19  1  0  0  0  0
  7 10  2  0  0  0  0
  7 18  1  0  0  0  0
  8 21  1  0  0  0  0
  9 21  2  0  0  0  0
 10 22  1  0  0  0  0
 11 12  2  0  0  0  0
 11 23  1  0  0  0  0
 12 24  1  0  0  0  0
 13 20  1  0  0  0  0
 13 22  2  0  0  0  0
 14 24  2  0  0  0  0
 14 25  1  0  0  0  0
 15 26  1  0  0  0  0
 16 26  1  0  0  0  0
 16 27  2  0  0  0  0
 16 28  1  0  0  0  0
 17 19  2  0  0  0  0
 17 33  1  0  0  0  0
 18 20  2  0  0  0  0
 18 34  1  0  0  0  0
 19 42  1  0  0  0  0
 20 35  1  0  0  0  0
 21 73  1  0  0  0  0
 22 74  1  0  0  0  0
 23 25  2  0  0  0  0
 23 73  1  0  0  0  0
 24 75  1  0  0  0  0
 25 76  1  0  0  0  0
 26 58  2  0  0  0  0
 27 59  1  0  0  0  0
 27 62  1  0  0  0  0
 28 63  1  0  0  0  0
 28 68  2  0  0  0  0
 29 43  1  0  0  0  0
 29 64  1  0  0  0  0
 29 69  2  0  0  0  0
 30 54  1  0  0  0  0
 30 60  1  0  0  0  0
 30 70  2  0  0  0  0
 31 55  1  0  0  0  0
 31 65  1  0  0  0  0
 31 71  2  0  0  0  0
 32 61  1  0  0  0  0
 32 66  1  0  0  0  0
 32 72  2  0  0  0  0
 33 36  1  0  0  0  0
 34 43  1  0  0  0  0
 35 60  1  0  0  0  0
 36 38  1  0  0  0  0
 37 39  1  0  0  0  0
 37 40  1  0  0  0  0
 38 42  1  0  0  0  0
 39 44  1  0  0  0  0
 40 61  1  0  0  0  0
 41 44  1  0  0  0  0
 41 61  1  0  0  0  0
 42 64  1  0  0  0  0
 43 60  1  0  0  0  0
 44 59  1  0  0  0  0
 45 55  1  0  0  0  0
 46 56  1  0  0  0  0
 47 56  1  0  0  0  0
 48 56  1  0  0  0  0
 49 57  1  0  0  0  0
 50 57  1  0  0  0  0
 51 67  1  0  0  0  0
 52 57  1  0  0  0  0
 52 66  1  0  0  0  0
 53 57  1  0  0  0  0
 53 74  1  0  0  0  0
 54 56  1  0  0  0  0
 54 65  1  0  0  0  0
 55 67  1  0  0  0  0
 58 59  1  0  0  0  0
M  CHG  1  67   1
M  ISO  4  32 100  53 101  66 100  74 101
M  END
> <Batch ID>
0100

> <Smiles>
CNC(C)C(=O)NC(C(=O)N1Cc2cc([101O:1][101CH2:1]C(C)(C)C[100NH:0][100C:0](=O)N3CCCC(n4nc(-c5ccc(Oc6ccc(F)cc6F)cc5)c(C(N)=O)c4N)C3)ccc2CC1C(=O)NC1CCCc2ccccc21)C(C)(C)C

> <Shape>
0.221

> <Color>
0.058

> <Negative vol penalty>
0.000

$$$$

  -OEChem-04052319333D

 75 82  0     1  0  0  0  0  0999 V2000
  -20.5593  -18.1061   27.8988 C   0  0  0  0  0  0  0  0  0  0  0  0
  -21.9140  -18.1780   27.5901 C   0  0  0  0  0  0  0  0  0  0  0  0
  -23.1976   -9.8534   19.9553 C   0  0  0  0  0  0  0  0  0  0  0  0
  -23.9054   -9.9359   22.2638 C   0  0  0  0  0  0  0  0  0  0  0  0
  -20.0550  -16.9880   28.5616 C   0  0  0  0  0  0  0  0  0  0  0  0
  -22.7653  -17.1323   27.9452 C   0  0  0  0  0  0  0  0  0  0  0  0
  -25.9355  -15.8539   24.2088 C   0  0  0  0  0  0  0  0  0  0  0  0
  -22.5043   -8.6703   20.2101 C   0  0  0  0  0  0  0  0  0  0  0  0
  -23.2120   -8.7527   22.5186 C   0  0  0  0  0  0  0  0  0  0  0  0
  -27.0426  -16.6761   24.0039 C   0  0  0  0  0  0  0  0  0  0  0  0
  -20.2504   -5.8209   20.3370 C   0  0  0  0  0  0  0  0  0  0  0  0
  -18.9596   -5.7018   19.8220 C   0  0  0  0  0  0  0  0  0  0  0  0
  -28.4225  -15.1087   25.2116 C   0  0  0  0  0  0  0  0  0  0  0  0
  -18.2733   -7.6374   21.0947 C   0  0  0  0  0  0  0  0  0  0  0  0
  -23.8982  -10.4863   20.9821 C   0  0  0  0  0  0  0  0  0  0  0  0
  -24.1217  -13.0225   20.8239 C   0  0  0  0  0  0  0  0  0  0  0  0
  -20.8989  -15.9237   28.9165 C   0  0  0  0  0  0  0  0  0  0  0  0
  -26.0615  -14.6562   24.9272 C   0  0  0  0  0  0  0  0  0  0  0  0
  -22.2720  -15.9995   28.6147 C   0  0  0  0  0  0  0  0  0  0  0  0
  -27.3159  -14.2718   25.4220 C   0  0  0  0  0  0  0  0  0  0  0  0
  -22.5115   -8.1199   21.4917 C   0  0  0  0  0  0  0  0  0  0  0  0
  -28.2858  -16.3050   24.5078 C   0  0  0  0  0  0  0  0  0  0  0  0
  -20.5526   -6.8482   21.2310 C   0  0  0  0  0  0  0  0  0  0  0  0
  -17.9711   -6.6101   20.2008 C   0  0  0  0  0  0  0  0  0  0  0  0
  -19.5641   -7.7564   21.6097 C   0  0  0  0  0  0  0  0  0  0  0  0
  -24.6151  -11.7082   20.7194 C   0  0  0  0  0  0  0  0  0  0  0  0
  -25.1846  -13.8174   20.4705 C   0  0  0  0  0  0  0  0  0  0  0  0
  -22.8191  -13.4837   21.2063 C   0  0  0  0  0  0  0  0  0  0  0  0
  -24.8246  -13.5180   27.6250 C   0  0  0  0  0  0  0  0  0  0  0  0
  -26.3618  -10.8060   26.7281 C   0  0  0  0  0  0  0  0  0  0  0  0
  -28.8800   -9.3613   24.9342 C   0  0  0  0  0  0  0  0  0  0  0  0
  -30.9478  -14.0534   20.9647 C   0  0  0  0  0  0  0  0  0  0  0  0
  -20.3164  -14.7569   29.6741 C   0  0  0  0  0  0  0  0  0  0  0  0
  -24.8630  -13.7674   25.1166 C   0  0  0  0  0  0  0  0  0  0  0  0
  -27.5084  -12.9861   26.1825 C   0  0  0  0  0  0  0  0  0  0  0  0
  -21.2177  -13.5249   29.6822 C   0  0  0  0  0  0  0  0  0  0  0  0
  -29.3605  -13.1190   17.9177 C   0  0  0  0  0  0  0  0  0  0  0  0
  -22.6540  -13.9165   30.0149 C   0  0  0  0  0  0  0  0  0  0  0  0
  -27.9291  -12.7821   18.3393 C   0  0  0  0  0  0  0  0  0  0  0  0
  -30.3757  -12.6921   18.9757 C   0  0  0  0  0  0  0  0  0  0  0  0
  -28.6784  -12.8695   20.7538 C   0  0  0  0  0  0  0  0  0  0  0  0
  -23.2228  -14.8744   28.9613 C   0  0  1  0  0  0  0  0  0  0  0  0
  -25.0023  -12.8216   26.3055 C   0  0  1  0  0  0  0  0  0  0  0  0
  -27.6142  -13.3315   19.7437 C   0  0  2  0  0  0  0  0  0  0  0  0
  -30.2677   -7.5279   23.9290 C   0  0  0  0  0  0  0  0  0  0  0  0
  -29.6157  -18.8646   22.6992 C   0  0  0  0  0  0  0  0  0  0  0  0
  -27.6875  -10.7976   29.4763 C   0  0  0  0  0  0  0  0  0  0  0  0
  -29.3610   -9.1616   28.5869 C   0  0  0  0  0  0  0  0  0  0  0  0
  -26.9441   -8.5501   28.6698 C   0  0  0  0  0  0  0  0  0  0  0  0
  -27.1643   -9.2243   22.5266 C   0  0  0  0  0  0  0  0  0  0  0  0
  -31.1723  -16.8755   22.7016 C   0  0  0  0  0  0  0  0  0  0  0  0
  -31.3687  -15.3927   23.0112 C   0  0  0  0  0  0  0  0  0  0  0  0
  -27.7390  -10.2320   26.9577 C   0  0  1  0  0  0  0  0  0  0  0  0
  -28.8910   -8.1710   23.9920 C   0  0  2  0  0  0  0  0  0  0  0  0
  -29.7427  -17.3690   22.9582 C   0  0  1  0  0  0  0  0  0  1  0  0
  -27.9292   -9.7106   28.4100 C   0  0  0  0  0  0  0  0  0  0  0  0
  -25.8920  -11.6663   20.3299 N   0  0  0  0  0  0  0  0  0  0  0  0
  -26.2100  -12.9641   20.1865 N   0  0  0  0  0  0  0  0  0  0  0  0
  -26.3050  -12.1541   26.3470 N   0  0  0  0  0  0  0  0  0  0  0  0
  -30.0204  -13.2476   20.2838 N   0  0  0  0  0  0  0  0  0  0  0  0
  -25.3328  -15.1560   20.3780 N   0  0  0  0  0  0  0  0  0  0  0  0
  -21.8445  -12.5327   21.5383 N   0  0  0  0  0  0  0  0  0  0  0  0
  -23.6026  -14.1468   27.7693 N   0  0  0  0  0  0  0  0  0  0  0  0
  -27.9351   -9.2172   25.9280 N   0  0  0  0  0  0  0  0  0  0  0  0
  -30.5288  -14.5445   22.1951 N   0  0  0  0  0  0  0  0  0  0  0  0
  -28.5074   -8.5960   22.6161 N   0  3  0  0  0  0  0  0  0  0  0  0
  -22.5232  -14.7023   21.2364 O   0  0  0  0  0  0  0  0  0  0  0  0
  -25.7286  -13.4859   28.4517 O   0  0  0  0  0  0  0  0  0  0  0  0
  -25.3731  -10.0829   26.8744 O   0  0  0  0  0  0  0  0  0  0  0  0
  -29.6366  -10.3210   24.8039 O   0  0  0  0  0  0  0  0  0  0  0  0
  -32.0644  -14.3200   20.5073 O   0  0  0  0  0  0  0  0  0  0  0  0
  -21.8348   -6.9655   21.7408 O   0  0  0  0  0  0  0  0  0  0  0  0
  -29.3680  -17.1059   24.3098 O   0  0  0  0  0  0  0  0  0  1  0  0
  -16.7320   -6.4966   19.7049 F   0  0  0  0  0  0  0  0  0  0  0  0
  -19.8488   -8.7461   22.4672 F   0  0  0  0  0  0  0  0  0  0  0  0
  1  2  1  0  0  0  0
  1  5  2  0  0  0  0
  2  6  2  0  0  0  0
  3  8  2  0  0  0  0
  3 15  1  0  0  0  0
  4  9  1  0  0  0  0
  4 15  2  0  0  0  0
  5 17  1  0  0  0  0
  6 19  1  0  0  0  0
  7 10  2  0  0  0  0
  7 18  1  0  0  0  0
  8 21  1  0  0  0  0
  9 21  2  0  0  0  0
 10 22  1  0  0  0  0
 11 12  2  0  0  0  0
 11 23  1  0  0  0  0
 12 24  1  0  0  0  0
 13 20  1  0  0  0  0
 13 22  2  0  0  0  0
 14 24  2  0  0  0  0
 14 25  1  0  0  0  0
 15 26  1  0  0  0  0
 16 26  1  0  0  0  0
 16 27  2  0  0  0  0
 16 28  1  0  0  0  0
 17 19  2  0  0  0  0
 17 33  1  0  0  0  0
 18 20  2  0  0  0  0
 18 34  1  0  0  0  0
 19 42  1  0  0  0  0
 20 35  1  0  0  0  0
 21 72  1  0  0  0  0
 22 73  1  0  0  0  0
 23 25  2  0  0  0  0
 23 72  1  0  0  0  0
 24 74  1  0  0  0  0
 25 75  1  0  0  0  0
 26 57  2  0  0  0  0
 27 58  1  0  0  0  0
 27 61  1  0  0  0  0
 28 62  1  0  0  0  0
 28 67  2  0  0  0  0
 29 43  1  0  0  0  0
 29 63  1  0  0  0  0
 29 68  2  0  0  0  0
 30 53  1  0  0  0  0
 30 59  1  0  0  0  0
 30 69  2  0  0  0  0
 31 54  1  0  0  0  0
 31 64  1  0  0  0  0
 31 70  2  0  0  0  0
 32 60  1  0  0  0  0
 32 65  1  0  0  0  0
 32 71  2  0  0  0  0
 33 36  1  0  0  0  0
 34 43  1  0  0  0  0
 35 59  1  0  0  0  0
 36 38  1  0  0  0  0
 37 39  1  0  0  0  0
 37 40  1  0  0  0  0
 38 42  1  0  0  0  0
 39 44  1  0  0  0  0
 40 60  1  0  0  0  0
 41 44  1  0  0  0  0
 41 60  1  0  0  0  0
 42 63  1  0  0  0  0
 43 59  1  0  0  0  0
 44 58  1  0  0  0  0
 45 54  1  0  0  0  0
 46 55  1  0  0  0  0
 47 56  1  0  0  0  0
 48 56  1  0  0  0  0
 49 56  1  0  0  0  0
 50 66  1  0  0  0  0
 51 52  1  0  0  0  0
 51 55  1  0  0  0  0
 52 65  1  0  0  0  0
 53 56  1  0  0  0  0
 53 64  1  0  0  0  0
 54 66  1  0  0  0  0
 55 73  1  0  0  0  0
 57 58  1  0  0  0  0
M  CHG  1  66   1
M  ISO  4  32 100  55 101  65 100  73 101
M  END
> <Batch ID>
0100

> <Smiles>
CNC(C)C(=O)NC(C(=O)N1Cc2cc([101O:1][101CH:1](C)CC[100NH:0][100C:0](=O)N3CCCC(n4nc(-c5ccc(Oc6ccc(F)cc6F)cc5)c(C(N)=O)c4N)C3)ccc2CC1C(=O)NC1CCCc2ccccc21)C(C)(C)C

> <Shape>
0.150

> <Color>
0.197

> <Negative vol penalty>
0.000

$$$$

  -OEChem-04052319333D

 90 98  0     1  0  0  0  0  0999 V2000
  -19.6630  -24.6254   23.8552 C   0  0  0  0  0  0  0  0  0  0  0  0
  -20.8995  -24.9070   23.2832 C   0  0  0  0  0  0  0  0  0  0  0  0
  -23.5735   -9.9148   22.0535 C   0  0  0  0  0  0  0  0  0  0  0  0
  -23.7282  -11.9527   23.3420 C   0  0  0  0  0  0  0  0  0  0  0  0
  -18.6375  -25.5681   23.7949 C   0  0  0  0  0  0  0  0  0  0  0  0
  -21.1109  -26.1310   22.6496 C   0  0  0  0  0  0  0  0  0  0  0  0
  -25.5455  -28.2288   23.9059 C   0  0  0  0  0  0  0  0  0  0  0  0
  -29.5808  -21.8510   18.3124 C   0  0  0  0  0  0  0  0  0  0  0  0
  -29.7239  -20.4670   18.2152 C   0  0  0  0  0  0  0  0  0  0  0  0
  -22.8985   -9.2995   23.1077 C   0  0  0  0  0  0  0  0  0  0  0  0
  -23.0531  -11.3374   24.3962 C   0  0  0  0  0  0  0  0  0  0  0  0
  -26.6878  -27.7204   23.2891 C   0  0  0  0  0  0  0  0  0  0  0  0
  -23.6778   -7.8907   26.0796 C   0  0  0  0  0  0  0  0  0  0  0  0
  -24.0718   -6.6009   26.4355 C   0  0  0  0  0  0  0  0  0  0  0  0
  -26.6702  -29.5727   21.7437 C   0  0  0  0  0  0  0  0  0  0  0  0
  -31.5962  -21.9663   19.6397 C   0  0  0  0  0  0  0  0  0  0  0  0
  -21.8475   -5.7890   25.9552 C   0  0  0  0  0  0  0  0  0  0  0  0
  -23.9885  -11.2414   22.1707 C   0  0  0  0  0  0  0  0  0  0  0  0
  -24.1190  -12.5965   20.0133 C   0  0  0  0  0  0  0  0  0  0  0  0
  -18.8394  -26.8081   23.1687 C   0  0  0  0  0  0  0  0  0  0  0  0
  -24.9497  -29.4090   23.4386 C   0  0  0  0  0  0  0  0  0  0  0  0
  -20.0867  -27.0906   22.5797 C   0  0  0  0  0  0  0  0  0  0  0  0
  -25.5219  -30.0952   22.3580 C   0  0  0  0  0  0  0  0  0  0  0  0
  -30.5170  -22.6007   19.0246 C   0  0  0  0  0  0  0  0  0  0  0  0
  -30.8031  -19.8325   18.8304 C   0  0  0  0  0  0  0  0  0  0  0  0
  -31.7393  -20.5822   19.5426 C   0  0  0  0  0  0  0  0  0  0  0  0
  -22.6383  -10.0107   24.2790 C   0  0  0  0  0  0  0  0  0  0  0  0
  -27.2487  -28.3908   22.2059 C   0  0  0  0  0  0  0  0  0  0  0  0
  -22.3687   -8.1298   25.6616 C   0  0  0  0  0  0  0  0  0  0  0  0
  -23.1566   -5.5500   26.3733 C   0  0  0  0  0  0  0  0  0  0  0  0
  -21.4536   -7.0789   25.5993 C   0  0  0  0  0  0  0  0  0  0  0  0
  -24.6863  -11.8773   21.0823 C   0  0  0  0  0  0  0  0  0  0  0  0
  -25.1947  -12.9938   19.2574 C   0  0  0  0  0  0  0  0  0  0  0  0
  -22.7426  -12.8802   19.7291 C   0  0  0  0  0  0  0  0  0  0  0  0
  -22.1157  -30.1562   22.2081 C   0  0  0  0  0  0  0  0  0  0  0  0
  -23.2656  -33.1832   22.4008 C   0  0  0  0  0  0  0  0  0  0  0  0
  -25.9791  -35.2487   22.5336 C   0  0  0  0  0  0  0  0  0  0  0  0
  -30.3764  -15.3301   19.3502 C   0  0  0  0  0  0  0  0  0  0  0  0
  -17.6860  -27.7765   23.0871 C   0  0  0  0  0  0  0  0  0  0  0  0
  -23.7332  -29.9586   24.1318 C   0  0  0  0  0  0  0  0  0  0  0  0
  -24.9324  -31.3770   21.8308 C   0  0  0  0  0  0  0  0  0  0  0  0
  -18.1087  -29.1980   22.7254 C   0  0  0  0  0  0  0  0  0  0  0  0
  -30.0563  -11.6438   19.4522 C   0  0  0  0  0  0  0  0  0  0  0  0
  -19.0820  -29.1830   21.5510 C   0  0  0  0  0  0  0  0  0  0  0  0
  -28.5994  -11.4474   19.8680 C   0  0  0  0  0  0  0  0  0  0  0  0
  -30.6250  -12.9570   19.9812 C   0  0  0  0  0  0  0  0  0  0  0  0
  -28.3642  -13.9573   20.0278 C   0  0  0  0  0  0  0  0  0  0  0  0
  -20.3623  -28.4170   21.9053 C   0  0  1  0  0  0  0  0  0  0  0  0
  -22.9125  -30.8925   23.2477 C   0  0  1  0  0  0  0  0  0  0  0  0
  -27.7468  -12.6653   19.4718 C   0  0  2  0  0  0  0  0  0  0  0  0
  -32.8850  -20.1112   21.7379 C   0  0  0  0  0  0  0  0  0  0  0  0
  -34.2515  -20.3994   19.6391 C   0  0  0  0  0  0  0  0  0  0  0  0
  -26.6029  -37.6767   22.6486 C   0  0  0  0  0  0  0  0  0  0  0  0
  -28.6837  -17.8397   19.8447 C   0  0  0  0  0  0  0  0  0  0  0  0
  -22.5917  -33.4941   19.4412 C   0  0  0  0  0  0  0  0  0  0  0  0
  -24.0674  -35.5159   19.3891 C   0  0  0  0  0  0  0  0  0  0  0  0
  -22.0458  -35.4868   20.8503 C   0  0  0  0  0  0  0  0  0  0  0  0
  -28.9233  -15.5712   17.3729 C   0  0  0  0  0  0  0  0  0  0  0  0
  -27.3582  -34.8910   25.1276 C   0  0  0  0  0  0  0  0  0  0  0  0
  -30.3618  -24.0970   19.1299 C   0  0  0  0  0  0  0  0  0  0  0  0
  -29.5381  -24.5503   20.3404 C   0  0  0  0  0  0  0  0  0  0  0  0
  -29.3268  -26.0643   20.3876 C   0  0  0  0  0  0  0  0  0  0  0  0
  -28.5398  -26.4806   21.6228 C   0  0  0  0  0  0  0  0  0  1  0  0
  -31.8505  -17.9637   17.5186 C   0  0  0  0  0  0  0  0  0  0  0  0
  -30.9347  -18.3494   18.7135 C   0  0  2  0  0  0  0  0  0  0  0  0
  -32.9026  -19.9246   20.2097 C   0  0  0  0  0  0  0  0  0  0  0  0
  -24.0539  -34.0878   21.4846 C   0  0  1  0  0  0  0  0  0  0  0  0
  -26.3139  -36.4146   23.4463 C   0  0  2  0  0  0  0  0  0  0  0  0
  -29.5591  -17.6079   18.6112 C   0  0  1  0  0  0  0  0  0  0  0  0
  -23.1999  -34.6210   20.2998 C   0  0  0  0  0  0  0  0  0  0  0  0
  -26.0191  -11.8193   21.0149 N   0  0  0  0  0  0  0  0  0  0  0  0
  -26.2981  -12.5071   19.8946 N   0  0  0  0  0  0  0  0  0  0  0  0
  -23.7394  -31.8708   22.5382 N   0  0  0  0  0  0  0  0  0  0  0  0
  -29.7727  -14.0925   19.6273 N   0  0  0  0  0  0  0  0  0  0  0  0
  -25.2951  -13.7084   18.1165 N   0  0  0  0  0  0  0  0  0  0  0  0
  -21.7651  -12.3968   20.6096 N   0  0  0  0  0  0  0  0  0  0  0  0
  -21.2284  -29.2335   22.7285 N   0  0  0  0  0  0  0  0  0  0  0  0
  -24.6202  -35.1326   22.3308 N   0  0  0  0  0  0  0  0  0  0  0  0
  -29.7263  -16.1674   18.4311 N   0  0  0  0  0  0  0  0  0  0  0  0
  -27.5118  -36.0971   24.2740 N   0  3  0  0  0  0  0  0  0  0  0  0
  -22.3889  -13.5287   18.7153 O   0  0  0  0  0  0  0  0  0  0  0  0
  -22.2918  -30.4077   21.0218 O   0  0  0  0  0  0  0  0  0  0  0  0
  -22.2704  -33.6270   22.9790 O   0  0  0  0  0  0  0  0  0  0  0  0
  -26.8375  -34.5166   22.0460 O   0  0  0  0  0  0  0  0  0  0  0  0
  -31.4412  -15.6633   19.8862 O   0  0  0  0  0  0  0  0  0  0  0  0
  -31.1105  -18.0765   16.3065 O   0  0  0  0  0  0  0  0  0  0  0  0
  -21.9794   -9.4107   25.3078 O   0  0  0  0  0  0  0  0  0  0  0  0
  -28.3633  -27.8965   21.6016 O   0  0  0  0  0  0  0  0  0  1  0  0
  -23.5355   -4.3111   26.7137 F   0  0  0  0  0  0  0  0  0  0  0  0
  -20.1949   -7.3022   25.1974 F   0  0  0  0  0  0  0  0  0  0  0  0
  1  2  1  0  0  0  0
  1  5  2  0  0  0  0
  2  6  2  0  0  0  0
  3 10  2  0  0  0  0
  3 18  1  0  0  0  0
  4 11  1  0  0  0  0
  4 18  2  0  0  0  0
  5 20  1  0  0  0  0
  6 22  1  0  0  0  0
  7 12  2  0  0  0  0
  7 21  1  0  0  0  0
  8  9  2  0  0  0  0
  8 24  1  0  0  0  0
  9 25  1  0  0  0  0
 10 27  1  0  0  0  0
 11 27  2  0  0  0  0
 12 28  1  0  0  0  0
 13 14  2  0  0  0  0
 13 29  1  0  0  0  0
 14 30  1  0  0  0  0
 15 23  1  0  0  0  0
 15 28  2  0  0  0  0
 16 24  2  0  0  0  0
 16 26  1  0  0  0  0
 17 30  2  0  0  0  0
 17 31  1  0  0  0  0
 18 32  1  0  0  0  0
 19 32  1  0  0  0  0
 19 33  2  0  0  0  0
 19 34  1  0  0  0  0
 20 22  2  0  0  0  0
 20 39  1  0  0  0  0
 21 23  2  0  0  0  0
 21 40  1  0  0  0  0
 22 48  1  0  0  0  0
 23 41  1  0  0  0  0
 24 60  1  0  0  0  0
 25 26  2  0  0  0  0
 25 65  1  0  0  0  0
 26 66  1  0  0  0  0
 27 87  1  0  0  0  0
 28 88  1  0  0  0  0
 29 31  2  0  0  0  0
 29 87  1  0  0  0  0
 30 89  1  0  0  0  0
 31 90  1  0  0  0  0
 32 71  2  0  0  0  0
 33 72  1  0  0  0  0
 33 75  1  0  0  0  0
 34 76  1  0  0  0  0
 34 81  2  0  0  0  0
 35 49  1  0  0  0  0
 35 77  1  0  0  0  0
 35 82  2  0  0  0  0
 36 67  1  0  0  0  0
 36 73  1  0  0  0  0
 36 83  2  0  0  0  0
 37 68  1  0  0  0  0
 37 78  1  0  0  0  0
 37 84  2  0  0  0  0
 38 74  1  0  0  0  0
 38 79  1  0  0  0  0
 38 85  2  0  0  0  0
 39 42  1  0  0  0  0
 40 49  1  0  0  0  0
 41 73  1  0  0  0  0
 42 44  1  0  0  0  0
 43 45  1  0  0  0  0
 43 46  1  0  0  0  0
 44 48  1  0  0  0  0
 45 50  1  0  0  0  0
 46 74  1  0  0  0  0
 47 50  1  0  0  0  0
 47 74  1  0  0  0  0
 48 77  1  0  0  0  0
 49 73  1  0  0  0  0
 50 72  1  0  0  0  0
 51 66  1  0  0  0  0
 52 66  1  0  0  0  0
 53 68  1  0  0  0  0
 54 69  1  0  0  0  0
 55 70  1  0  0  0  0
 56 70  1  0  0  0  0
 57 70  1  0  0  0  0
 58 79  1  0  0  0  0
 59 80  1  0  0  0  0
 60 61  1  0  0  0  0
 61 62  1  0  0  0  0
 62 63  1  0  0  0  0
 63 88  1  0  0  0  0
 64 65  1  0  0  0  0
 64 86  1  0  0  0  0
 65 69  1  0  0  0  0
 67 70  1  0  0  0  0
 67 78  1  0  0  0  0
 68 80  1  0  0  0  0
 69 79  1  0  0  0  0
 71 72  1  0  0  0  0
M  CHG  1  80   1
M  ISO  4  38 100  63 101  79 100  88 101
M  END
> <Batch ID>
0100

> <Smiles>
CNC(C)C(=O)NC(C(=O)N1Cc2cc([101O:1][101CH2:1]CCCc3ccc(C(CO)C(C)[100N:0](C)[100C:0](=O)N4CCCC(n5nc(-c6ccc(Oc7ccc(F)cc7F)cc6)c(C(N)=O)c5N)C4)c(C(C)C)c3)ccc2CC1C(=O)NC1CCCc2ccccc21)C(C)(C)C

> <Shape>
0.278

> <Color>
0.108

> <Negative vol penalty>
0.000

$$$$

  -OEChem-04052319333D

 81 89  0     1  0  0  0  0  0999 V2000
  -28.5850  -30.7239   13.3445 C   0  0  0  0  0  0  0  0  0  0  0  0
  -28.8192  -29.6536   14.2018 C   0  0  0  0  0  0  0  0  0  0  0  0
  -23.0348  -10.0362   19.8915 C   0  0  0  0  0  0  0  0  0  0  0  0
  -24.1063   -9.7882   22.0427 C   0  0  0  0  0  0  0  0  0  0  0  0
  -28.3064  -31.9861   13.8672 C   0  0  0  0  0  0  0  0  0  0  0  0
  -28.7760  -29.8451   15.5824 C   0  0  0  0  0  0  0  0  0  0  0  0
  -26.2073  -26.1925   17.9709 C   0  0  0  0  0  0  0  0  0  0  0  0
  -22.3560   -8.8342   20.0910 C   0  0  0  0  0  0  0  0  0  0  0  0
  -23.4274   -8.5861   22.2422 C   0  0  0  0  0  0  0  0  0  0  0  0
  -26.8622  -24.9775   18.1672 C   0  0  0  0  0  0  0  0  0  0  0  0
  -21.7026   -5.6329   23.4758 C   0  0  0  0  0  0  0  0  0  0  0  0
  -21.1177   -5.4169   24.7235 C   0  0  0  0  0  0  0  0  0  0  0  0
  -27.3475  -25.6136   20.4430 C   0  0  0  0  0  0  0  0  0  0  0  0
  -19.7453   -7.3820   24.4204 C   0  0  0  0  0  0  0  0  0  0  0  0
  -23.9100  -10.5132   20.8674 C   0  0  0  0  0  0  0  0  0  0  0  0
  -24.1817  -13.0448   21.0249 C   0  0  0  0  0  0  0  0  0  0  0  0
  -28.2503  -32.1911   15.2548 C   0  0  0  0  0  0  0  0  0  0  0  0
  -26.1268  -27.1334   19.0076 C   0  0  0  0  0  0  0  0  0  0  0  0
  -28.4978  -31.1115   16.1241 C   0  0  0  0  0  0  0  0  0  0  0  0
  -26.6887  -26.8388   20.2581 C   0  0  0  0  0  0  0  0  0  0  0  0
  -22.5523   -8.1091   21.2663 C   0  0  0  0  0  0  0  0  0  0  0  0
  -27.4349  -24.6891   19.4025 C   0  0  0  0  0  0  0  0  0  0  0  0
  -21.3088   -6.7235   22.7003 C   0  0  0  0  0  0  0  0  0  0  0  0
  -20.1391   -6.2914   25.1958 C   0  0  0  0  0  0  0  0  0  0  0  0
  -20.3302   -7.5981   23.1727 C   0  0  0  0  0  0  0  0  0  0  0  0
  -24.6120  -11.7546   20.6616 C   0  0  0  0  0  0  0  0  0  0  0  0
  -25.1976  -13.8736   20.6154 C   0  0  0  0  0  0  0  0  0  0  0  0
  -22.9720  -13.4573   21.6746 C   0  0  0  0  0  0  0  0  0  0  0  0
  -27.1619  -30.1103   19.4204 C   0  0  0  0  0  0  0  0  0  0  0  0
  -25.4455  -29.9118   22.1658 C   0  0  0  0  0  0  0  0  0  0  0  0
  -24.0634  -27.9376   24.5822 C   0  0  0  0  0  0  0  0  0  0  0  0
  -30.8269  -14.6912   20.5674 C   0  0  0  0  0  0  0  0  0  0  0  0
  -27.9921  -33.5837   15.7730 C   0  0  0  0  0  0  0  0  0  0  0  0
  -25.3937  -28.4282   18.7880 C   0  0  0  0  0  0  0  0  0  0  0  0
  -26.6123  -27.8065   21.4096 C   0  0  0  0  0  0  0  0  0  0  0  0
  -27.5950  -33.6214   17.2465 C   0  0  0  0  0  0  0  0  0  0  0  0
  -29.2179  -12.9898   17.6939 C   0  0  0  0  0  0  0  0  0  0  0  0
  -28.5249  -32.7386   18.0728 C   0  0  0  0  0  0  0  0  0  0  0  0
  -27.8723  -12.5606   18.2757 C   0  0  0  0  0  0  0  0  0  0  0  0
  -31.6349  -18.0260   21.0801 C   0  0  0  0  0  0  0  0  0  0  0  0
  -29.3457  -17.8419   20.0275 C   0  0  0  0  0  0  0  0  0  0  0  0
  -30.2954  -13.0863   18.7693 C   0  0  0  0  0  0  0  0  0  0  0  0
  -31.3459  -16.7429   21.8545 C   0  0  0  0  0  0  0  0  0  0  0  0
  -29.1118  -16.5435   20.8053 C   0  0  0  0  0  0  0  0  0  0  0  0
  -28.5804  -13.5399   20.4942 C   0  0  0  0  0  0  0  0  0  0  0  0
  -28.4352  -31.2740   17.6273 C   0  0  1  0  0  0  0  0  0  0  0  0
  -25.8186  -29.5273   19.7569 C   0  0  1  0  0  0  0  0  0  0  0  0
  -27.4630  -13.4765   19.4420 C   0  0  2  0  0  0  0  0  0  0  0  0
  -30.3301  -18.7520   20.7589 C   0  0  0  0  0  0  0  0  0  0  0  0
  -22.7538  -28.0647   26.7191 C   0  0  0  0  0  0  0  0  0  0  0  0
  -27.9653  -30.7719   23.6560 C   0  0  0  0  0  0  0  0  0  0  0  0
  -26.9003  -29.9724   25.7761 C   0  0  0  0  0  0  0  0  0  0  0  0
  -25.8539  -31.8292   24.4799 C   0  0  0  0  0  0  0  0  0  0  0  0
  -21.8091  -26.4067   23.4275 C   0  0  0  0  0  0  0  0  0  0  0  0
  -29.5392  -20.9429   19.8572 C   0  0  0  0  0  0  0  0  0  0  0  0
  -28.7028  -22.9126   18.4578 C   0  0  0  0  0  0  0  0  0  1  0  0
  -25.7373  -29.4696   23.5794 C   0  0  1  0  0  0  0  0  0  0  0  0
  -22.6796  -27.9289   25.2062 C   0  0  2  0  0  0  0  0  0  0  0  0
  -29.9024  -22.0918   18.9204 C   0  0  1  0  0  0  0  0  0  0  0  0
  -26.6175  -30.4931   24.3508 C   0  0  0  0  0  0  0  0  0  0  0  0
  -25.8079  -11.7583   20.0669 N   0  0  0  0  0  0  0  0  0  0  0  0
  -26.1378  -13.0610   20.0533 N   0  0  0  0  0  0  0  0  0  0  0  0
  -25.8904  -29.0617   21.1434 N   0  0  0  0  0  0  0  0  0  0  0  0
  -29.8653  -13.9235   19.8894 N   0  0  0  0  0  0  0  0  0  0  0  0
  -30.3902  -15.8969   21.1369 N   0  0  0  0  0  0  0  0  0  0  0  0
  -25.3694  -15.2107   20.6849 N   0  0  0  0  0  0  0  0  0  0  0  0
  -22.0351  -12.4764   22.0273 N   0  0  0  0  0  0  0  0  0  0  0  0
  -27.2362  -30.6581   18.1540 N   0  0  0  0  0  0  0  0  0  0  0  0
  -24.4434  -29.2068   24.2001 N   0  0  0  0  0  0  0  0  0  0  0  0
  -30.6282  -19.9308   19.9050 N   0  3  0  0  0  0  0  0  0  0  0  0
  -21.9734  -26.6571   24.8826 N   0  3  0  0  0  0  0  0  0  0  0  0
  -22.7217  -14.6618   21.9198 O   0  0  0  0  0  0  0  0  0  0  0  0
  -28.0638  -30.0676   20.2490 O   0  0  0  0  0  0  0  0  0  0  0  0
  -24.8388  -30.9689   21.9758 O   0  0  0  0  0  0  0  0  0  0  0  0
  -24.7411  -26.9208   24.4505 O   0  0  0  0  0  0  0  0  0  0  0  0
  -32.0044  -14.3214   20.6558 O   0  0  0  0  0  0  0  0  0  0  0  0
  -30.8240  -22.9667   19.5730 O   0  0  0  0  0  0  0  0  0  0  0  0
  -21.8898   -6.9362   21.4614 O   0  0  0  0  0  0  0  0  0  0  0  0
  -28.0793  -23.4969   19.5978 O   0  0  0  0  0  0  0  0  0  1  0  0
  -19.5764   -6.0830   26.3934 F   0  0  0  0  0  0  0  0  0  0  0  0
  -19.9470   -8.6469   22.4318 F   0  0  0  0  0  0  0  0  0  0  0  0
  1  2  1  0  0  0  0
  1  5  2  0  0  0  0
  2  6  2  0  0  0  0
  3  8  2  0  0  0  0
  3 15  1  0  0  0  0
  4  9  1  0  0  0  0
  4 15  2  0  0  0  0
  5 17  1  0  0  0  0
  6 19  1  0  0  0  0
  7 10  2  0  0  0  0
  7 18  1  0  0  0  0
  8 21  1  0  0  0  0
  9 21  2  0  0  0  0
 10 22  1  0  0  0  0
 11 12  2  0  0  0  0
 11 23  1  0  0  0  0
 12 24  1  0  0  0  0
 13 20  1  0  0  0  0
 13 22  2  0  0  0  0
 14 24  2  0  0  0  0
 14 25  1  0  0  0  0
 15 26  1  0  0  0  0
 16 26  1  0  0  0  0
 16 27  2  0  0  0  0
 16 28  1  0  0  0  0
 17 19  2  0  0  0  0
 17 33  1  0  0  0  0
 18 20  2  0  0  0  0
 18 34  1  0  0  0  0
 19 46  1  0  0  0  0
 20 35  1  0  0  0  0
 21 78  1  0  0  0  0
 22 79  1  0  0  0  0
 23 25  2  0  0  0  0
 23 78  1  0  0  0  0
 24 80  1  0  0  0  0
 25 81  1  0  0  0  0
 26 61  2  0  0  0  0
 27 62  1  0  0  0  0
 27 66  1  0  0  0  0
 28 67  1  0  0  0  0
 28 72  2  0  0  0  0
 29 47  1  0  0  0  0
 29 68  1  0  0  0  0
 29 73  2  0  0  0  0
 30 57  1  0  0  0  0
 30 63  1  0  0  0  0
 30 74  2  0  0  0  0
 31 58  1  0  0  0  0
 31 69  1  0  0  0  0
 31 75  2  0  0  0  0
 32 64  1  0  0  0  0
 32 65  1  0  0  0  0
 32 76  2  0  0  0  0
 33 36  1  0  0  0  0
 34 47  1  0  0  0  0
 35 63  1  0  0  0  0
 36 38  1  0  0  0  0
 37 39  1  0  0  0  0
 37 42  1  0  0  0  0
 38 46  1  0  0  0  0
 39 48  1  0  0  0  0
 40 43  1  0  0  0  0
 40 49  1  0  0  0  0
 41 44  1  0  0  0  0
 41 49  1  0  0  0  0
 42 64  1  0  0  0  0
 43 65  1  0  0  0  0
 44 65  1  0  0  0  0
 45 48  1  0  0  0  0
 45 64  1  0  0  0  0
 46 68  1  0  0  0  0
 47 63  1  0  0  0  0
 48 62  1  0  0  0  0
 49 70  1  0  0  0  0
 50 58  1  0  0  0  0
 51 60  1  0  0  0  0
 52 60  1  0  0  0  0
 53 60  1  0  0  0  0
 54 71  1  0  0  0  0
 55 59  1  0  0  0  0
 55 70  1  0  0  0  0
 56 59  1  0  0  0  0
 56 79  1  0  0  0  0
 57 60  1  0  0  0  0
 57 69  1  0  0  0  0
 58 71  1  0  0  0  0
 59 77  1  0  0  0  0
 61 62  1  0  0  0  0
M  CHG  2  70   1  71   1
M  ISO  4  32 100  56 101  65 100  79 101
M  END
> <Batch ID>
0100

> <Smiles>
CNC(C)C(=O)NC(C(=O)N1Cc2cc([101O:1][101CH2:1]C(O)CNC3CC[100N:0]([100C:0](=O)N4CCCC(n5nc(-c6ccc(Oc7ccc(F)cc7F)cc6)c(C(N)=O)c5N)C4)CC3)ccc2CC1C(=O)NC1CCCc2ccccc21)C(C)(C)C

> <Shape>
0.318

> <Color>
0.196

> <Negative vol penalty>
0.000

$$$$

  -OEChem-04052319333D

 84 92  0     1  0  0  0  0  0999 V2000
  -26.9216  -18.7729   18.5614 C   0  0  0  0  0  0  0  0  0  0  0  0
  -26.2846  -19.9629   18.2280 C   0  0  0  0  0  0  0  0  0  0  0  0
  -23.5237  -14.1665   19.4952 C   0  0  0  0  0  0  0  0  0  0  0  0
  -24.8051  -14.5155   21.5135 C   0  0  0  0  0  0  0  0  0  0  0  0
  -27.8183  -18.7417   19.6272 C   0  0  0  0  0  0  0  0  0  0  0  0
  -26.5531  -21.1246   18.9527 C   0  0  0  0  0  0  0  0  0  0  0  0
  -24.1124  -26.6936   18.5564 C   0  0  0  0  0  0  0  0  0  0  0  0
  -19.0997  -27.8592   21.9481 C   0  0  0  0  0  0  0  0  0  0  0  0
  -18.4436  -26.6332   21.8382 C   0  0  0  0  0  0  0  0  0  0  0  0
  -24.4525  -13.2169   19.0697 C   0  0  0  0  0  0  0  0  0  0  0  0
  -25.7339  -13.5658   21.0880 C   0  0  0  0  0  0  0  0  0  0  0  0
  -23.0614  -27.4004   19.1392 C   0  0  0  0  0  0  0  0  0  0  0  0
  -28.6331  -11.4953   20.3686 C   0  0  0  0  0  0  0  0  0  0  0  0
  -29.9862  -11.8063   20.5028 C   0  0  0  0  0  0  0  0  0  0  0  0
  -24.6033  -28.3848   20.7116 C   0  0  0  0  0  0  0  0  0  0  0  0
  -20.7970  -26.8277   23.3237 C   0  0  0  0  0  0  0  0  0  0  0  0
  -29.6877  -13.7254   19.0658 C   0  0  0  0  0  0  0  0  0  0  0  0
  -23.7000  -14.8159   20.7171 C   0  0  0  0  0  0  0  0  0  0  0  0
  -21.5863  -15.5710   21.9295 C   0  0  0  0  0  0  0  0  0  0  0  0
  -28.0880  -19.9012   20.3727 C   0  0  0  0  0  0  0  0  0  0  0  0
  -25.4172  -26.8190   19.0547 C   0  0  0  0  0  0  0  0  0  0  0  0
  -27.4731  -21.1188   20.0168 C   0  0  0  0  0  0  0  0  0  0  0  0
  -25.6695  -27.6805   20.1318 C   0  0  0  0  0  0  0  0  0  0  0  0
  -20.2764  -27.9564   22.6909 C   0  0  0  0  0  0  0  0  0  0  0  0
  -18.9642  -25.5044   22.4711 C   0  0  0  0  0  0  0  0  0  0  0  0
  -20.1409  -25.6016   23.2139 C   0  0  0  0  0  0  0  0  0  0  0  0
  -25.5576  -12.9165   19.8660 C   0  0  0  0  0  0  0  0  0  0  0  0
  -23.3063  -28.2439   20.2188 C   0  0  0  0  0  0  0  0  0  0  0  0
  -27.8073  -12.2993   19.5829 C   0  0  0  0  0  0  0  0  0  0  0  0
  -30.5135  -12.9213   19.8515 C   0  0  0  0  0  0  0  0  0  0  0  0
  -28.3346  -13.4144   18.9315 C   0  0  0  0  0  0  0  0  0  0  0  0
  -22.7412  -15.7974   21.1569 C   0  0  0  0  0  0  0  0  0  0  0  0
  -21.0210  -16.8143   22.0745 C   0  0  0  0  0  0  0  0  0  0  0  0
  -21.0708  -14.3463   22.4680 C   0  0  0  0  0  0  0  0  0  0  0  0
  -27.5206  -24.8258   20.3612 C   0  0  0  0  0  0  0  0  0  0  0  0
  -29.4837  -27.4022   20.1865 C   0  0  0  0  0  0  0  0  0  0  0  0
  -29.8022  -30.7961   20.0215 C   0  0  0  0  0  0  0  0  0  0  0  0
  -21.4814  -22.1436   23.2290 C   0  0  0  0  0  0  0  0  0  0  0  0
  -29.0732  -19.8126   21.5115 C   0  0  0  0  0  0  0  0  0  0  0  0
  -26.5443  -26.0702   18.3979 C   0  0  0  0  0  0  0  0  0  0  0  0
  -27.0556  -27.8658   20.6912 C   0  0  0  0  0  0  0  0  0  0  0  0
  -28.9567  -20.9765   22.4903 C   0  0  0  0  0  0  0  0  0  0  0  0
  -22.0768  -21.2006   19.7861 C   0  0  0  0  0  0  0  0  0  0  0  0
  -28.9493  -22.2950   21.7314 C   0  0  0  0  0  0  0  0  0  0  0  0
  -22.2075  -19.6811   19.9052 C   0  0  0  0  0  0  0  0  0  0  0  0
  -22.7055  -21.9052   20.9846 C   0  0  0  0  0  0  0  0  0  0  0  0
  -22.3040  -19.9476   22.4270 C   0  0  0  0  0  0  0  0  0  0  0  0
  -27.7264  -22.3880   20.8101 C   0  0  1  0  0  0  0  0  0  0  0  0
  -27.7489  -25.8793   19.3144 C   0  0  1  0  0  0  0  0  0  0  0  0
  -21.6674  -19.1765   21.2564 C   0  0  2  0  0  0  0  0  0  0  0  0
  -17.0098  -24.1320   23.2348 C   0  0  0  0  0  0  0  0  0  0  0  0
  -19.7261  -29.9591   24.9352 C   0  0  0  0  0  0  0  0  0  0  0  0
  -31.5339  -32.6099   19.9278 C   0  0  0  0  0  0  0  0  0  0  0  0
  -30.0309  -27.0304   23.1651 C   0  0  0  0  0  0  0  0  0  0  0  0
  -30.9631  -29.3535   23.2129 C   0  0  0  0  0  0  0  0  0  0  0  0
  -32.0446  -27.6063   21.7985 C   0  0  0  0  0  0  0  0  0  0  0  0
  -28.8330  -31.7455   17.3912 C   0  0  0  0  0  0  0  0  0  0  0  0
  -18.2436  -24.2028   22.3401 C   0  0  0  0  0  0  0  0  0  0  0  0
  -20.7167  -24.4067   23.9004 C   0  0  0  0  0  0  0  0  0  0  0  0
  -21.0867  -29.7872   24.2704 C   0  0  0  0  0  0  0  0  0  0  0  0
  -22.3937  -29.2289   22.1817 C   0  0  0  0  0  0  0  0  0  1  0  0
  -20.9920  -29.2948   22.8111 C   0  0  1  0  0  0  0  0  0  0  0  0
  -29.8109  -28.5608   21.0974 C   0  0  1  0  0  0  0  0  0  0  0  0
  -30.6363  -31.6868   19.1185 C   0  0  2  0  0  0  0  0  0  0  0  0
  -30.6858  -28.1330   22.3094 C   0  0  0  0  0  0  0  0  0  0  0  0
  -22.9013  -17.0834   20.8336 N   0  0  0  0  0  0  0  0  0  0  0  0
  -21.8395  -17.6762   21.4057 N   0  0  0  0  0  0  0  0  0  0  0  0
  -28.1233  -27.1072   20.0189 N   0  0  0  0  0  0  0  0  0  0  0  0
  -22.1349  -21.3923   22.2382 N   0  0  0  0  0  0  0  0  0  0  0  0
  -19.9085  -17.2434   22.7074 N   0  0  0  0  0  0  0  0  0  0  0  0
  -21.7762  -13.1600   22.2244 N   0  0  0  0  0  0  0  0  0  0  0  0
  -27.8638  -23.5492   19.9589 N   0  0  0  0  0  0  0  0  0  0  0  0
  -30.4181  -29.5845   20.2539 N   0  0  0  0  0  0  0  0  0  0  0  0
  -21.3689  -23.5054   22.9767 N   0  0  0  0  0  0  0  0  0  0  0  0
  -29.7534  -32.5248   18.2587 N   0  3  0  0  0  0  0  0  0  0  0  0
  -20.0070  -14.3028   23.1314 O   0  0  0  0  0  0  0  0  0  0  0  0
  -27.0679  -25.1476   21.4536 O   0  0  0  0  0  0  0  0  0  0  0  0
  -30.4011  -26.7864   19.6381 O   0  0  0  0  0  0  0  0  0  0  0  0
  -28.7149  -31.1421   20.4782 O   0  0  0  0  0  0  0  0  0  0  0  0
  -21.0266  -21.6374   24.2605 O   0  0  0  0  0  0  0  0  0  0  0  0
  -26.4640  -11.9897   19.4513 O   0  0  0  0  0  0  0  0  0  0  0  0
  -22.2821  -28.9345   20.7898 O   0  0  0  0  0  0  0  0  0  1  0  0
  -31.8126  -13.2207   19.9817 F   0  0  0  0  0  0  0  0  0  0  0  0
  -27.5459  -14.1912   18.1763 F   0  0  0  0  0  0  0  0  0  0  0  0
  1  2  1  0  0  0  0
  1  5  2  0  0  0  0
  2  6  2  0  0  0  0
  3 10  2  0  0  0  0
  3 18  1  0  0  0  0
  4 11  1  0  0  0  0
  4 18  2  0  0  0  0
  5 20  1  0  0  0  0
  6 22  1  0  0  0  0
  7 12  2  0  0  0  0
  7 21  1  0  0  0  0
  8  9  2  0  0  0  0
  8 24  1  0  0  0  0
  9 25  1  0  0  0  0
 10 27  1  0  0  0  0
 11 27  2  0  0  0  0
 12 28  1  0  0  0  0
 13 14  2  0  0  0  0
 13 29  1  0  0  0  0
 14 30  1  0  0  0  0
 15 23  1  0  0  0  0
 15 28  2  0  0  0  0
 16 24  2  0  0  0  0
 16 26  1  0  0  0  0
 17 30  2  0  0  0  0
 17 31  1  0  0  0  0
 18 32  1  0  0  0  0
 19 32  1  0  0  0  0
 19 33  2  0  0  0  0
 19 34  1  0  0  0  0
 20 22  2  0  0  0  0
 20 39  1  0  0  0  0
 21 23  2  0  0  0  0
 21 40  1  0  0  0  0
 22 48  1  0  0  0  0
 23 41  1  0  0  0  0
 24 62  1  0  0  0  0
 25 26  2  0  0  0  0
 25 58  1  0  0  0  0
 26 59  1  0  0  0  0
 27 81  1  0  0  0  0
 28 82  1  0  0  0  0
 29 31  2  0  0  0  0
 29 81  1  0  0  0  0
 30 83  1  0  0  0  0
 31 84  1  0  0  0  0
 32 66  2  0  0  0  0
 33 67  1  0  0  0  0
 33 70  1  0  0  0  0
 34 71  1  0  0  0  0
 34 76  2  0  0  0  0
 35 49  1  0  0  0  0
 35 72  1  0  0  0  0
 35 77  2  0  0  0  0
 36 63  1  0  0  0  0
 36 68  1  0  0  0  0
 36 78  2  0  0  0  0
 37 64  1  0  0  0  0
 37 73  1  0  0  0  0
 37 79  2  0  0  0  0
 38 69  1  0  0  0  0
 38 74  1  0  0  0  0
 38 80  2  0  0  0  0
 39 42  1  0  0  0  0
 40 49  1  0  0  0  0
 41 68  1  0  0  0  0
 42 44  1  0  0  0  0
 43 45  1  0  0  0  0
 43 46  1  0  0  0  0
 44 48  1  0  0  0  0
 45 50  1  0  0  0  0
 46 69  1  0  0  0  0
 47 50  1  0  0  0  0
 47 69  1  0  0  0  0
 48 72  1  0  0  0  0
 49 68  1  0  0  0  0
 50 67  1  0  0  0  0
 51 58  1  0  0  0  0
 52 60  1  0  0  0  0
 53 64  1  0  0  0  0
 54 65  1  0  0  0  0
 55 65  1  0  0  0  0
 56 65  1  0  0  0  0
 57 75  1  0  0  0  0
 59 74  1  0  0  0  0
 60 62  1  0  0  0  0
 61 62  1  0  0  0  0
 61 82  1  0  0  0  0
 63 65  1  0  0  0  0
 63 73  1  0  0  0  0
 64 75  1  0  0  0  0
 66 67  1  0  0  0  0
M  CHG  1  75   1
M  ISO  4  38 100  61 101  74 100  82 101
M  END
> <Batch ID>
0100

> <Smiles>
CCc1ccc(C(CC)[101CH2:1][101O:1]c2ccc3c(c2)CN(C(=O)C(NC(=O)C(C)NC)C(C)(C)C)C(C(=O)NC2CCCc4ccccc42)C3)cc1C[100NH:0][100C:0](=O)N1CCCC(n2nc(-c3ccc(Oc4ccc(F)cc4F)cc3)c(C(N)=O)c2N)C1

> <Shape>
0.243

> <Color>
0.050

> <Negative vol penalty>
0.000

$$$$

  -OEChem-04052319333D

 80 88  0     1  0  0  0  0  0999 V2000
  -32.2837  -14.8586   20.8970 C   0  0  0  0  0  0  0  0  0  0  0  0
  -31.3481  -15.8881   20.9079 C   0  0  0  0  0  0  0  0  0  0  0  0
  -25.1964  -30.6240   20.2888 C   0  0  0  0  0  0  0  0  0  0  0  0
  -24.0955  -29.0023   21.7012 C   0  0  0  0  0  0  0  0  0  0  0  0
  -31.9035  -13.5768   20.5017 C   0  0  0  0  0  0  0  0  0  0  0  0
  -30.0318  -15.6366   20.5224 C   0  0  0  0  0  0  0  0  0  0  0  0
  -24.9695  -18.2177   22.8065 C   0  0  0  0  0  0  0  0  0  0  0  0
  -24.9282  -31.6220   21.2255 C   0  0  0  0  0  0  0  0  0  0  0  0
  -23.8273  -30.0003   22.6381 C   0  0  0  0  0  0  0  0  0  0  0  0
  -24.1708  -19.2703   22.3618 C   0  0  0  0  0  0  0  0  0  0  0  0
  -26.1937  -32.6695   24.1809 C   0  0  0  0  0  0  0  0  0  0  0  0
  -27.2266  -33.5491   24.5047 C   0  0  0  0  0  0  0  0  0  0  0  0
  -22.6758  -17.6886   21.3214 C   0  0  0  0  0  0  0  0  0  0  0  0
  -20.4502  -21.4171   18.7060 C   0  0  0  0  0  0  0  0  0  0  0  0
  -25.8858  -35.4064   23.7367 C   0  0  0  0  0  0  0  0  0  0  0  0
  -19.6326  -21.6766   20.9243 C   0  0  0  0  0  0  0  0  0  0  0  0
  -24.7800  -29.3141   20.5266 C   0  0  0  0  0  0  0  0  0  0  0  0
  -26.1948  -27.4569   19.4984 C   0  0  0  0  0  0  0  0  0  0  0  0
  -30.5796  -13.3073   20.1203 C   0  0  0  0  0  0  0  0  0  0  0  0
  -24.6327  -16.8909   22.5022 C   0  0  0  0  0  0  0  0  0  0  0  0
  -29.6338  -14.3503   20.1203 C   0  0  0  0  0  0  0  0  0  0  0  0
  -23.4705  -16.6207   21.7656 C   0  0  0  0  0  0  0  0  0  0  0  0
  -20.3783  -20.9470   20.0126 C   0  0  0  0  0  0  0  0  0  0  0  0
  -19.7835  -22.5860   18.3560 C   0  0  0  0  0  0  0  0  0  0  0  0
  -24.2436  -31.3102   22.4002 C   0  0  0  0  0  0  0  0  0  0  0  0
  -23.0254  -19.0060   21.6167 C   0  0  0  0  0  0  0  0  0  0  0  0
  -25.0068  -33.1583   23.6349 C   0  0  0  0  0  0  0  0  0  0  0  0
  -27.0727  -34.9175   24.2827 C   0  0  0  0  0  0  0  0  0  0  0  0
  -24.8529  -34.5267   23.4128 C   0  0  0  0  0  0  0  0  0  0  0  0
  -25.0563  -28.2828   19.5590 C   0  0  0  0  0  0  0  0  0  0  0  0
  -19.0642  -23.2422   19.3418 C   0  0  0  0  0  0  0  0  0  0  0  0
  -25.9775  -26.6523   18.4067 C   0  0  0  0  0  0  0  0  0  0  0  0
  -27.3457  -27.4203   20.3527 C   0  0  0  0  0  0  0  0  0  0  0  0
  -26.0214  -14.5412   20.8730 C   0  0  0  0  0  0  0  0  0  0  0  0
  -23.5293  -12.8044   22.0112 C   0  0  0  0  0  0  0  0  0  0  0  0
  -20.3389  -12.7647   23.2222 C   0  0  0  0  0  0  0  0  0  0  0  0
  -21.0074  -24.8319   15.6075 C   0  0  0  0  0  0  0  0  0  0  0  0
  -30.2269  -11.9165   19.6555 C   0  0  0  0  0  0  0  0  0  0  0  0
  -25.4902  -15.7652   23.0121 C   0  0  0  0  0  0  0  0  0  0  0  0
  -23.0540  -15.2129   21.4295 C   0  0  0  0  0  0  0  0  0  0  0  0
  -28.7244  -11.6489   19.6201 C   0  0  0  0  0  0  0  0  0  0  0  0
  -23.7438  -26.6038   14.1760 C   0  0  0  0  0  0  0  0  0  0  0  0
  -27.9914  -12.8072   18.9510 C   0  0  0  0  0  0  0  0  0  0  0  0
  -24.4932  -27.1605   15.3878 C   0  0  0  0  0  0  0  0  0  0  0  0
  -22.2325  -26.6110   14.3949 C   0  0  0  0  0  0  0  0  0  0  0  0
  -22.5313  -26.4930   16.8384 C   0  0  0  0  0  0  0  0  0  0  0  0
  -28.1906  -14.1113   19.7327 C   0  0  1  0  0  0  0  0  0  0  0  0
  -25.3305  -14.4799   22.2059 C   0  0  1  0  0  0  0  0  0  0  0  0
  -24.0616  -26.4541   16.6870 C   0  0  2  0  0  0  0  0  0  0  0  0
  -18.3274  -24.5021   19.0233 C   0  0  0  0  0  0  0  0  0  0  0  0
  -18.5582  -11.1922   24.0306 C   0  0  0  0  0  0  0  0  0  0  0  0
  -22.9407  -11.9932   19.1293 C   0  0  0  0  0  0  0  0  0  0  0  0
  -20.6720  -11.2434   19.8773 C   0  0  0  0  0  0  0  0  0  0  0  0
  -22.7134  -10.1462   20.8002 C   0  0  0  0  0  0  0  0  0  0  0  0
  -20.2925  -14.0123   25.9055 C   0  0  0  0  0  0  0  0  0  0  0  0
  -19.8578  -23.0962   16.9584 C   0  0  0  0  0  0  0  0  0  0  0  0
  -21.0853  -19.6886   20.4223 C   0  0  0  0  0  0  0  0  0  1  0  0
  -22.1323  -12.4963   21.5292 C   0  0  1  0  0  0  0  0  0  0  0  0
  -19.7285  -12.0773   24.4302 C   0  0  2  0  0  0  0  0  0  0  0  0
  -22.1232  -11.4965   20.3385 C   0  0  0  0  0  0  0  0  0  0  0  0
  -18.9713  -22.8162   20.6215 N   0  0  0  0  0  0  0  0  0  0  0  0
  -24.1809  -28.0265   18.5833 N   0  0  0  0  0  0  0  0  0  0  0  0
  -24.7694  -27.0306   17.8993 N   0  0  0  0  0  0  0  0  0  0  0  0
  -23.9286  -14.1468   21.9452 N   0  0  0  0  0  0  0  0  0  0  0  0
  -21.8898  -25.9243   15.6426 N   0  0  0  0  0  0  0  0  0  0  0  0
  -26.7040  -25.6651   17.8409 N   0  0  0  0  0  0  0  0  0  0  0  0
  -27.4079  -28.3163   21.4286 N   0  0  0  0  0  0  0  0  0  0  0  0
  -27.3412  -14.1331   20.9042 N   0  0  0  0  0  0  0  0  0  0  0  0
  -21.3884  -12.0399   22.6983 N   0  0  0  0  0  0  0  0  0  0  0  0
  -20.7409  -24.2343   16.8333 N   0  0  0  0  0  0  0  0  0  0  0  0
  -19.2399  -13.0887   25.4097 N   0  3  0  0  0  0  0  0  0  0  0  0
  -28.2984  -26.6280   20.1577 O   0  0  0  0  0  0  0  0  0  0  0  0
  -25.4024  -14.9285   19.8889 O   0  0  0  0  0  0  0  0  0  0  0  0
  -24.2376  -11.8888   22.4375 O   0  0  0  0  0  0  0  0  0  0  0  0
  -19.9236  -13.8354   22.7846 O   0  0  0  0  0  0  0  0  0  0  0  0
  -20.4993  -24.4165   14.5606 O   0  0  0  0  0  0  0  0  0  0  0  0
  -23.9819  -32.2838   23.3146 O   0  0  0  0  0  0  0  0  0  0  0  0
  -22.2444  -20.0317   21.1808 O   0  0  0  0  0  0  0  0  0  1  0  0
  -28.0641  -35.7623   24.5951 F   0  0  0  0  0  0  0  0  0  0  0  0
  -23.7145  -35.0023   22.8896 F   0  0  0  0  0  0  0  0  0  0  0  0
  1  2  1  0  0  0  0
  1  5  2  0  0  0  0
  2  6  2  0  0  0  0
  3  8  2  0  0  0  0
  3 17  1  0  0  0  0
  4  9  1  0  0  0  0
  4 17  2  0  0  0  0
  5 19  1  0  0  0  0
  6 21  1  0  0  0  0
  7 10  2  0  0  0  0
  7 20  1  0  0  0  0
  8 25  1  0  0  0  0
  9 25  2  0  0  0  0
 10 26  1  0  0  0  0
 11 12  2  0  0  0  0
 11 27  1  0  0  0  0
 12 28  1  0  0  0  0
 13 22  1  0  0  0  0
 13 26  2  0  0  0  0
 14 23  2  0  0  0  0
 14 24  1  0  0  0  0
 15 28  2  0  0  0  0
 15 29  1  0  0  0  0
 16 23  1  0  0  0  0
 16 61  2  0  0  0  0
 17 30  1  0  0  0  0
 18 30  1  0  0  0  0
 18 32  2  0  0  0  0
 18 33  1  0  0  0  0
 19 21  2  0  0  0  0
 19 38  1  0  0  0  0
 20 22  2  0  0  0  0
 20 39  1  0  0  0  0
 21 47  1  0  0  0  0
 22 40  1  0  0  0  0
 23 57  1  0  0  0  0
 24 31  2  0  0  0  0
 24 56  1  0  0  0  0
 25 77  1  0  0  0  0
 26 78  1  0  0  0  0
 27 29  2  0  0  0  0
 27 77  1  0  0  0  0
 28 79  1  0  0  0  0
 29 80  1  0  0  0  0
 30 62  2  0  0  0  0
 31 50  1  0  0  0  0
 31 61  1  0  0  0  0
 32 63  1  0  0  0  0
 32 66  1  0  0  0  0
 33 67  1  0  0  0  0
 33 72  2  0  0  0  0
 34 48  1  0  0  0  0
 34 68  1  0  0  0  0
 34 73  2  0  0  0  0
 35 58  1  0  0  0  0
 35 64  1  0  0  0  0
 35 74  2  0  0  0  0
 36 59  1  0  0  0  0
 36 69  1  0  0  0  0
 36 75  2  0  0  0  0
 37 65  1  0  0  0  0
 37 70  1  0  0  0  0
 37 76  2  0  0  0  0
 38 41  1  0  0  0  0
 39 48  1  0  0  0  0
 40 64  1  0  0  0  0
 41 43  1  0  0  0  0
 42 44  1  0  0  0  0
 42 45  1  0  0  0  0
 43 47  1  0  0  0  0
 44 49  1  0  0  0  0
 45 65  1  0  0  0  0
 46 49  1  0  0  0  0
 46 65  1  0  0  0  0
 47 68  1  0  0  0  0
 48 64  1  0  0  0  0
 49 63  1  0  0  0  0
 51 59  1  0  0  0  0
 52 60  1  0  0  0  0
 53 60  1  0  0  0  0
 54 60  1  0  0  0  0
 55 71  1  0  0  0  0
 56 70  1  0  0  0  0
 57 78  1  0  0  0  0
 58 60  1  0  0  0  0
 58 69  1  0  0  0  0
 59 71  1  0  0  0  0
 62 63  1  0  0  0  0
M  CHG  1  71   1
M  ISO  4  37 100  57 101  70 100  78 101
M  END
> <Batch ID>
0100

> <Smiles>
CNC(C)C(=O)NC(C(=O)N1Cc2cc([101O:1][101CH2:1]c3cnc(C)c(C[100NH:0][100C:0](=O)N4CCCC(n5nc(-c6ccc(Oc7ccc(F)cc7F)cc6)c(C(N)=O)c5N)C4)c3)ccc2CC1C(=O)NC1CCCc2ccccc21)C(C)(C)C

> <Shape>
0.220

> <Color>
0.083

> <Negative vol penalty>
0.000

$$$$

  -OEChem-04052319333D

 93101  0     1  0  0  0  0  0999 V2000
  -20.2058  -34.0933   23.8434 C   0  0  0  0  0  0  0  0  0  0  0  0
  -21.4902  -33.6765   23.5087 C   0  0  0  0  0  0  0  0  0  0  0  0
  -27.0875  -12.7508   21.1697 C   0  0  0  0  0  0  0  0  0  0  0  0
  -26.7043  -13.4686   18.8948 C   0  0  0  0  0  0  0  0  0  0  0  0
  -19.2277  -33.1505   24.1567 C   0  0  0  0  0  0  0  0  0  0  0  0
  -21.7975  -32.3165   23.4882 C   0  0  0  0  0  0  0  0  0  0  0  0
  -25.6573  -29.4714   19.6786 C   0  0  0  0  0  0  0  0  0  0  0  0
  -26.3318  -11.6022   20.9345 C   0  0  0  0  0  0  0  0  0  0  0  0
  -25.9486  -12.3200   18.6596 C   0  0  0  0  0  0  0  0  0  0  0  0
  -26.9834  -29.0645   19.8182 C   0  0  0  0  0  0  0  0  0  0  0  0
  -23.0618  -10.7676   20.7477 C   0  0  0  0  0  0  0  0  0  0  0  0
  -22.1278  -10.3978   21.7154 C   0  0  0  0  0  0  0  0  0  0  0  0
  -26.2348  -26.8519   20.4210 C   0  0  0  0  0  0  0  0  0  0  0  0
  -33.0061  -25.3258   21.1261 C   0  0  0  0  0  0  0  0  0  0  0  0
  -30.8295  -25.6757   22.1144 C   0  0  0  0  0  0  0  0  0  0  0  0
  -23.2667   -8.2873   22.0082 C   0  0  0  0  0  0  0  0  0  0  0  0
  -27.2737  -13.6841   20.1498 C   0  0  0  0  0  0  0  0  0  0  0  0
  -29.4404  -15.0292   20.2084 C   0  0  0  0  0  0  0  0  0  0  0  0
  -19.5205  -31.7778   24.1306 C   0  0  0  0  0  0  0  0  0  0  0  0
  -24.6079  -28.5730   19.9201 C   0  0  0  0  0  0  0  0  0  0  0  0
  -20.8226  -31.3545   23.8027 C   0  0  0  0  0  0  0  0  0  0  0  0
  -24.8962  -27.2492   20.2812 C   0  0  0  0  0  0  0  0  0  0  0  0
  -32.1997  -25.4566   22.2566 C   0  0  0  0  0  0  0  0  0  0  0  0
  -32.4424  -25.4144   19.8532 C   0  0  0  0  0  0  0  0  0  0  0  0
  -30.2657  -25.7642   20.8416 C   0  0  0  0  0  0  0  0  0  0  0  0
  -31.0722  -25.6335   19.7110 C   0  0  0  0  0  0  0  0  0  0  0  0
  -25.7624  -11.3868   19.6796 C   0  0  0  0  0  0  0  0  0  0  0  0
  -27.2723  -27.7554   20.1923 C   0  0  0  0  0  0  0  0  0  0  0  0
  -24.0982   -9.8971   20.4101 C   0  0  0  0  0  0  0  0  0  0  0  0
  -22.2303   -9.1577   22.3457 C   0  0  0  0  0  0  0  0  0  0  0  0
  -24.2007   -8.6570   21.0404 C   0  0  0  0  0  0  0  0  0  0  0  0
  -28.0537  -14.8710   20.3922 C   0  0  0  0  0  0  0  0  0  0  0  0
  -29.6894  -16.3291   20.5757 C   0  0  0  0  0  0  0  0  0  0  0  0
  -30.4162  -14.0856   19.7467 C   0  0  0  0  0  0  0  0  0  0  0  0
  -22.1958  -28.4446   21.9862 C   0  0  0  0  0  0  0  0  0  0  0  0
  -21.3311  -25.8655   20.2190 C   0  0  0  0  0  0  0  0  0  0  0  0
  -22.2682  -23.3572   18.1030 C   0  0  0  0  0  0  0  0  0  0  0  0
  -28.3684  -21.7505   20.4841 C   0  0  0  0  0  0  0  0  0  0  0  0
  -18.4430  -30.7982   24.5228 C   0  0  0  0  0  0  0  0  0  0  0  0
  -23.1833  -29.0202   19.7391 C   0  0  0  0  0  0  0  0  0  0  0  0
  -23.8064  -26.2404   20.5322 C   0  0  0  0  0  0  0  0  0  0  0  0
  -18.7491  -29.3598   24.1132 C   0  0  0  0  0  0  0  0  0  0  0  0
  -26.7414  -19.7132   22.9088 C   0  0  0  0  0  0  0  0  0  0  0  0
  -20.1830  -28.9933   24.4822 C   0  0  0  0  0  0  0  0  0  0  0  0
  -27.0469  -18.2858   22.4516 C   0  0  0  0  0  0  0  0  0  0  0  0
  -26.5264  -20.6517   21.7235 C   0  0  0  0  0  0  0  0  0  0  0  0
  -27.9236  -19.2297   20.2745 C   0  0  0  0  0  0  0  0  0  0  0  0
  -21.1879  -29.8870   23.7453 C   0  0  1  0  0  0  0  0  0  0  0  0
  -22.1851  -28.1623   20.5105 C   0  0  1  0  0  0  0  0  0  0  0  0
  -28.2033  -18.2583   21.4341 C   0  0  2  0  0  0  0  0  0  0  0  0
  -34.7348  -25.8012   18.9142 C   0  0  0  0  0  0  0  0  0  0  0  0
  -21.3466  -21.3828   16.8583 C   0  0  0  0  0  0  0  0  0  0  0  0
  -21.2449  -24.2700   22.8185 C   0  0  0  0  0  0  0  0  0  0  0  0
  -21.2659  -22.1731   21.4507 C   0  0  0  0  0  0  0  0  0  0  0  0
  -19.3730  -23.7832   21.2331 C   0  0  0  0  0  0  0  0  0  0  0  0
  -30.8482  -23.4484   15.3260 C   0  0  0  0  0  0  0  0  0  0  0  0
  -29.1679  -25.2794   15.7525 C   0  0  0  0  0  0  0  0  0  0  0  0
  -31.6316  -25.8143   15.7093 C   0  0  0  0  0  0  0  0  0  0  0  0
  -30.3446  -21.1647   25.0933 C   0  0  0  0  0  0  0  0  0  0  0  0
  -23.0170  -24.5125   15.4832 C   0  0  0  0  0  0  0  0  0  0  0  0
  -32.8025  -25.3626   23.6174 C   0  0  0  0  0  0  0  0  0  0  0  0
  -33.3278  -25.2698   18.6587 C   0  0  0  0  0  0  0  0  0  0  0  0
  -30.4680  -25.7279   18.3462 C   0  0  0  0  0  0  0  0  0  0  0  0
  -28.7893  -26.0002   20.7158 C   0  0  0  0  0  0  0  0  0  1  0  0
  -32.8384  -23.9370   24.2019 C   0  0  0  0  0  0  0  0  0  0  0  0
  -30.2600  -22.7034   19.1906 C   0  0  0  0  0  0  0  0  0  0  0  0
  -31.4812  -23.2504   24.3207 C   0  0  0  0  0  0  0  0  0  0  0  0
  -29.7280  -23.3846   17.9435 C   0  0  0  0  0  0  0  0  0  0  0  0
  -21.6307  -24.3867   20.2683 C   0  0  1  0  0  0  0  0  0  0  0  0
  -21.6723  -22.8669   16.7958 C   0  0  2  0  0  0  0  0  0  0  0  0
  -20.8994  -23.6725   21.4399 C   0  0  0  0  0  0  0  0  0  0  0  0
  -30.5752  -24.7649   16.0520 C   0  0  0  0  0  0  0  0  0  0  0  0
  -27.4631  -15.9816   20.8416 N   0  0  0  0  0  0  0  0  0  0  0  0
  -28.4837  -16.8500   20.9433 N   0  0  0  0  0  0  0  0  0  0  0  0
  -22.4293  -26.7276   20.3484 N   0  0  0  0  0  0  0  0  0  0  0  0
  -27.6591  -20.5793   20.7974 N   0  0  0  0  0  0  0  0  0  0  0  0
  -30.8199  -17.0658   20.6170 N   0  0  0  0  0  0  0  0  0  0  0  0
  -29.9897  -12.7933   19.4116 N   0  0  0  0  0  0  0  0  0  0  0  0
  -21.3361  -29.4553   22.3719 N   0  0  0  0  0  0  0  0  0  0  0  0
  -21.3015  -23.8594   18.9484 N   0  0  0  0  0  0  0  0  0  0  0  0
  -29.4316  -21.5925   19.6035 N   0  0  0  0  0  0  0  0  0  0  0  0
  -31.6233  -21.9128   24.9416 N   0  3  0  0  0  0  0  0  0  0  0  0
  -22.6279  -23.0915   15.6745 N   0  3  0  0  0  0  0  0  0  0  0  0
  -30.6593  -24.4970   17.5333 N   0  3  1  0  0  0  0  0  0  0  0  0
  -31.6330  -14.3748   19.6504 O   0  0  0  0  0  0  0  0  0  0  0  0
  -22.9287  -27.7926   22.7208 O   0  0  0  0  0  0  0  0  0  0  0  0
  -20.1666  -26.2418   20.0641 O   0  0  0  0  0  0  0  0  0  0  0  0
  -23.4705  -23.2971   18.3511 O   0  0  0  0  0  0  0  0  0  0  0  0
  -28.0792  -22.8543   20.9584 O   0  0  0  0  0  0  0  0  0  0  0  0
  -25.0252  -10.2660   19.4497 O   0  0  0  0  0  0  0  0  0  0  0  0
  -28.5659  -27.3558   20.3299 O   0  0  0  0  0  0  0  0  0  1  0  0
  -21.3342   -8.8034   23.2761 F   0  0  0  0  0  0  0  0  0  0  0  0
  -25.1949   -7.8171   20.7212 F   0  0  0  0  0  0  0  0  0  0  0  0
  1  2  1  0  0  0  0
  1  5  2  0  0  0  0
  2  6  2  0  0  0  0
  3  8  2  0  0  0  0
  3 17  1  0  0  0  0
  4  9  1  0  0  0  0
  4 17  2  0  0  0  0
  5 19  1  0  0  0  0
  6 21  1  0  0  0  0
  7 10  2  0  0  0  0
  7 20  1  0  0  0  0
  8 27  1  0  0  0  0
  9 27  2  0  0  0  0
 10 28  1  0  0  0  0
 11 12  2  0  0  0  0
 11 29  1  0  0  0  0
 12 30  1  0  0  0  0
 13 22  1  0  0  0  0
 13 28  2  0  0  0  0
 14 23  2  0  0  0  0
 14 24  1  0  0  0  0
 15 23  1  0  0  0  0
 15 25  2  0  0  0  0
 16 30  2  0  0  0  0
 16 31  1  0  0  0  0
 17 32  1  0  0  0  0
 18 32  1  0  0  0  0
 18 33  2  0  0  0  0
 18 34  1  0  0  0  0
 19 21  2  0  0  0  0
 19 39  1  0  0  0  0
 20 22  2  0  0  0  0
 20 40  1  0  0  0  0
 21 48  1  0  0  0  0
 22 41  1  0  0  0  0
 23 61  1  0  0  0  0
 24 26  2  0  0  0  0
 24 62  1  0  0  0  0
 25 26  1  0  0  0  0
 25 64  1  0  0  0  0
 26 63  1  0  0  0  0
 27 90  1  0  0  0  0
 28 91  1  0  0  0  0
 29 31  2  0  0  0  0
 29 90  1  0  0  0  0
 30 92  1  0  0  0  0
 31 93  1  0  0  0  0
 32 73  2  0  0  0  0
 33 74  1  0  0  0  0
 33 77  1  0  0  0  0
 34 78  1  0  0  0  0
 34 85  2  0  0  0  0
 35 49  1  0  0  0  0
 35 79  1  0  0  0  0
 35 86  2  0  0  0  0
 36 69  1  0  0  0  0
 36 75  1  0  0  0  0
 36 87  2  0  0  0  0
 37 70  1  0  0  0  0
 37 80  1  0  0  0  0
 37 88  2  0  0  0  0
 38 76  1  0  0  0  0
 38 81  1  0  0  0  0
 38 89  2  0  0  0  0
 39 42  1  0  0  0  0
 40 49  1  0  0  0  0
 41 75  1  0  0  0  0
 42 44  1  0  0  0  0
 43 45  1  0  0  0  0
 43 46  1  0  0  0  0
 44 48  1  0  0  0  0
 45 50  1  0  0  0  0
 46 76  1  0  0  0  0
 47 50  1  0  0  0  0
 47 76  1  0  0  0  0
 48 79  1  0  0  0  0
 49 75  1  0  0  0  0
 50 74  1  0  0  0  0
 51 62  1  0  0  0  0
 52 70  1  0  0  0  0
 53 71  1  0  0  0  0
 54 71  1  0  0  0  0
 55 71  1  0  0  0  0
 56 72  1  0  0  0  0
 57 72  1  0  0  0  0
 58 72  1  0  0  0  0
 59 82  1  0  0  0  0
 60 83  1  0  0  0  0
 61 65  1  0  0  0  0
 63 84  1  0  0  0  0
 64 91  1  0  0  0  0
 65 67  1  0  0  0  0
 66 68  1  0  0  0  0
 66 81  1  0  0  0  0
 67 82  1  0  0  0  0
 68 84  1  0  0  0  0
 69 71  1  0  0  0  0
 69 80  1  0  0  0  0
 70 83  1  0  0  0  0
 72 84  1  0  0  0  0
 73 74  1  0  0  0  0
M  CHG  3  82   1  83   1  84   1
M  ISO  4  38 100  64 101  81 100  91 101
M  END
> <Batch ID>
0100

> <Smiles>
CCc1cc(CCCNC)cc([101CH2:1][101O:1]c2ccc3c(c2)CN(C(=O)C(NC(=O)C(C)NC)C(C)(C)C)C(C(=O)NC2CCCc4ccccc42)C3)c1CN(CC[100NH:0][100C:0](=O)N1CCCC(n2nc(-c3ccc(Oc4ccc(F)cc4F)cc3)c(C(N)=O)c2N)C1)C(C)(C)C

> <Shape>
0.262

> <Color>
0.089

> <Negative vol penalty>
0.000

$$$$

  -OEChem-04052319333D

 90 98  0     1  0  0  0  0  0999 V2000
  -40.3335  -29.2579   24.5359 C   0  0  0  0  0  0  0  0  0  0  0  0
  -39.6995  -28.0349   24.3415 C   0  0  0  0  0  0  0  0  0  0  0  0
  -23.0662   -9.8736   19.9488 C   0  0  0  0  0  0  0  0  0  0  0  0
  -23.8601   -9.8722   22.2306 C   0  0  0  0  0  0  0  0  0  0  0  0
  -39.6072  -30.4431   24.4288 C   0  0  0  0  0  0  0  0  0  0  0  0
  -38.3384  -27.9965   24.0409 C   0  0  0  0  0  0  0  0  0  0  0  0
  -35.4857  -23.9892   20.3926 C   0  0  0  0  0  0  0  0  0  0  0  0
  -22.3289   -8.7175   20.2046 C   0  0  0  0  0  0  0  0  0  0  0  0
  -23.1227   -8.7162   22.4865 C   0  0  0  0  0  0  0  0  0  0  0  0
  -34.7555  -22.8321   20.6600 C   0  0  0  0  0  0  0  0  0  0  0  0
  -19.9057   -7.9079   23.1332 C   0  0  0  0  0  0  0  0  0  0  0  0
  -19.1663   -7.8609   24.3150 C   0  0  0  0  0  0  0  0  0  0  0  0
  -32.7098  -24.1062   20.5561 C   0  0  0  0  0  0  0  0  0  0  0  0
  -25.8036  -15.8364   26.3114 C   0  0  0  0  0  0  0  0  0  0  0  0
  -27.0186  -16.6795   28.2218 C   0  0  0  0  0  0  0  0  0  0  0  0
  -20.4231   -5.9232   25.0243 C   0  0  0  0  0  0  0  0  0  0  0  0
  -23.8319  -10.4509   20.9618 C   0  0  0  0  0  0  0  0  0  0  0  0
  -24.1660  -12.9774   20.8480 C   0  0  0  0  0  0  0  0  0  0  0  0
  -38.2386  -30.4196   24.1172 C   0  0  0  0  0  0  0  0  0  0  0  0
  -34.8331  -25.2177   20.2154 C   0  0  0  0  0  0  0  0  0  0  0  0
  -37.5928  -29.1825   23.9308 C   0  0  0  0  0  0  0  0  0  0  0  0
  -33.4338  -25.2770   20.2840 C   0  0  0  0  0  0  0  0  0  0  0  0
  -25.9465  -15.9605   27.6933 C   0  0  0  0  0  0  0  0  0  0  0  0
  -26.7329  -16.4312   25.4579 C   0  0  0  0  0  0  0  0  0  0  0  0
  -27.9478  -17.2743   27.3683 C   0  0  0  0  0  0  0  0  0  0  0  0
  -27.8050  -17.1502   25.9864 C   0  0  0  0  0  0  0  0  0  0  0  0
  -22.3571   -8.1388   21.4734 C   0  0  0  0  0  0  0  0  0  0  0  0
  -33.3676  -22.8909   20.7447 C   0  0  0  0  0  0  0  0  0  0  0  0
  -20.9038   -6.9625   22.8969 C   0  0  0  0  0  0  0  0  0  0  0  0
  -19.4250   -6.8686   25.2606 C   0  0  0  0  0  0  0  0  0  0  0  0
  -21.1625   -5.9702   23.8424 C   0  0  0  0  0  0  0  0  0  0  0  0
  -24.5943  -11.6448   20.6980 C   0  0  0  0  0  0  0  0  0  0  0  0
  -25.2508  -13.7311   20.4719 C   0  0  0  0  0  0  0  0  0  0  0  0
  -22.9006  -13.4883   21.2880 C   0  0  0  0  0  0  0  0  0  0  0  0
  -34.8679  -28.0145   21.7254 C   0  0  0  0  0  0  0  0  0  0  0  0
  -30.7568  -14.6958   20.6798 C   0  0  0  0  0  0  0  0  0  0  0  0
  -32.9797  -28.9319   19.2525 C   0  0  0  0  0  0  0  0  0  0  0  0
  -30.8006  -28.0358   16.7836 C   0  0  0  0  0  0  0  0  0  0  0  0
  -37.4849  -31.7247   24.0585 C   0  0  0  0  0  0  0  0  0  0  0  0
  -35.6334  -26.4519   19.9011 C   0  0  0  0  0  0  0  0  0  0  0  0
  -32.6840  -26.5674   20.0814 C   0  0  0  0  0  0  0  0  0  0  0  0
  -36.1282  -31.6140   23.3676 C   0  0  0  0  0  0  0  0  0  0  0  0
  -29.5605  -12.4075   18.1953 C   0  0  0  0  0  0  0  0  0  0  0  0
  -35.3645  -30.3982   23.8826 C   0  0  0  0  0  0  0  0  0  0  0  0
  -28.1375  -12.0913   18.6540 C   0  0  0  0  0  0  0  0  0  0  0  0
  -30.4982  -12.6070   19.3819 C   0  0  0  0  0  0  0  0  0  0  0  0
  -28.6142  -13.3309   20.8130 C   0  0  0  0  0  0  0  0  0  0  0  0
  -36.1232  -29.1007   23.5788 C   0  0  1  0  0  0  0  0  0  0  0  0
  -34.9000  -27.7439   20.2478 C   0  0  1  0  0  0  0  0  0  0  0  0
  -27.6277  -13.1523   19.6453 C   0  0  2  0  0  0  0  0  0  0  0  0
  -24.9533  -15.3240   28.6058 C   0  0  0  0  0  0  0  0  0  0  0  0
  -26.5565  -16.2842   23.9817 C   0  0  0  0  0  0  0  0  0  0  0  0
  -29.0870  -18.0390   27.9595 C   0  0  0  0  0  0  0  0  0  0  0  0
  -29.3467  -16.6736   20.7861 C   0  0  0  0  0  0  0  0  0  0  0  0
  -29.3949  -29.0106   14.9474 C   0  0  0  0  0  0  0  0  0  0  0  0
  -32.0593  -15.2387   23.2260 C   0  0  0  0  0  0  0  0  0  0  0  0
  -30.9599  -29.9085   21.3205 C   0  0  0  0  0  0  0  0  0  0  0  0
  -29.2385  -29.9785   19.5038 C   0  0  0  0  0  0  0  0  0  0  0  0
  -31.2624  -31.4295   19.3585 C   0  0  0  0  0  0  0  0  0  0  0  0
  -32.2487  -26.5059   14.7048 C   0  0  0  0  0  0  0  0  0  0  0  0
  -28.8041  -17.7902   25.0681 C   0  0  0  0  0  0  0  0  0  0  0  0
  -32.8458  -18.9124   23.4568 C   0  0  0  0  0  0  0  0  0  0  0  0
  -32.2227  -19.9905   22.5722 C   0  0  0  0  0  0  0  0  0  0  0  0
  -31.8223  -18.1297   24.2929 C   0  0  0  0  0  0  0  0  0  0  0  0
  -33.2847  -20.7603   21.7980 C   0  0  0  0  0  0  0  0  0  1  0  0
  -30.1405  -15.6841   21.6376 C   0  0  2  0  0  0  0  0  0  0  0  0
  -31.4935  -28.9393   18.9877 C   0  0  1  0  0  0  0  0  0  0  0  0
  -30.7402  -28.4020   15.3116 C   0  0  2  0  0  0  0  0  0  0  0  0
  -31.2465  -16.3381   22.5149 C   0  0  1  0  0  0  0  0  0  0  0  0
  -30.7113  -17.4188   23.4987 C   0  0  1  0  0  0  0  0  0  0  0  0
  -30.7525  -30.0398   19.7984 C   0  0  0  0  0  0  0  0  0  0  0  0
  -25.8530  -11.5539   20.2606 N   0  0  0  0  0  0  0  0  0  0  0  0
  -26.2249  -12.8389   20.1324 N   0  0  0  0  0  0  0  0  0  0  0  0
  -33.5115  -27.7479   19.7827 N   0  0  0  0  0  0  0  0  0  0  0  0
  -29.9678  -13.6060   20.3114 N   0  0  0  0  0  0  0  0  0  0  0  0
  -25.4570  -15.0634   20.4017 N   0  0  0  0  0  0  0  0  0  0  0  0
  -21.8960  -12.5752   21.6362 N   0  0  0  0  0  0  0  0  0  0  0  0
  -35.9549  -28.7301   22.1900 N   0  0  0  0  0  0  0  0  0  0  0  0
  -31.3370  -29.0549   17.5418 N   0  0  0  0  0  0  0  0  0  0  0  0
  -30.9526  -27.1921   14.4677 N   0  3  0  0  0  0  0  0  0  0  0  0
  -29.7405  -16.8137   24.4556 N   0  3  0  0  0  0  0  0  0  0  0  0
  -22.6623  -14.7180   21.3544 O   0  0  0  0  0  0  0  0  0  0  0  0
  -33.9259  -27.6057   22.3942 O   0  0  0  0  0  0  0  0  0  0  0  0
  -31.9043  -14.8899   20.2700 O   0  0  0  0  0  0  0  0  0  0  0  0
  -33.6454  -29.9370   18.9916 O   0  0  0  0  0  0  0  0  0  0  0  0
  -30.4075  -26.9554   17.2179 O   0  0  0  0  0  0  0  0  0  0  0  0
  -21.6375   -7.0109   21.7234 O   0  0  0  0  0  0  0  0  0  0  0  0
  -32.6472  -21.7548   21.0081 O   0  0  0  0  0  0  0  0  0  1  0  0
  -18.7160   -6.8246   26.3961 F   0  0  0  0  0  0  0  0  0  0  0  0
  -22.1208   -5.0599   23.6215 F   0  0  0  0  0  0  0  0  0  0  0  0
  1  2  1  0  0  0  0
  1  5  2  0  0  0  0
  2  6  2  0  0  0  0
  3  8  2  0  0  0  0
  3 17  1  0  0  0  0
  4  9  1  0  0  0  0
  4 17  2  0  0  0  0
  5 19  1  0  0  0  0
  6 21  1  0  0  0  0
  7 10  2  0  0  0  0
  7 20  1  0  0  0  0
  8 27  1  0  0  0  0
  9 27  2  0  0  0  0
 10 28  1  0  0  0  0
 11 12  2  0  0  0  0
 11 29  1  0  0  0  0
 12 30  1  0  0  0  0
 13 22  1  0  0  0  0
 13 28  2  0  0  0  0
 14 23  1  0  0  0  0
 14 24  2  0  0  0  0
 15 23  2  0  0  0  0
 15 25  1  0  0  0  0
 16 30  2  0  0  0  0
 16 31  1  0  0  0  0
 17 32  1  0  0  0  0
 18 32  1  0  0  0  0
 18 33  2  0  0  0  0
 18 34  1  0  0  0  0
 19 21  2  0  0  0  0
 19 39  1  0  0  0  0
 20 22  2  0  0  0  0
 20 40  1  0  0  0  0
 21 48  1  0  0  0  0
 22 41  1  0  0  0  0
 23 51  1  0  0  0  0
 24 26  1  0  0  0  0
 24 52  1  0  0  0  0
 25 26  2  0  0  0  0
 25 53  1  0  0  0  0
 26 61  1  0  0  0  0
 27 87  1  0  0  0  0
 28 88  1  0  0  0  0
 29 31  2  0  0  0  0
 29 87  1  0  0  0  0
 30 89  1  0  0  0  0
 31 90  1  0  0  0  0
 32 72  2  0  0  0  0
 33 73  1  0  0  0  0
 33 76  1  0  0  0  0
 34 77  1  0  0  0  0
 34 82  2  0  0  0  0
 35 49  1  0  0  0  0
 35 78  1  0  0  0  0
 35 83  2  0  0  0  0
 36 66  1  0  0  0  0
 36 75  1  0  0  0  0
 36 84  2  0  0  0  0
 37 67  1  0  0  0  0
 37 74  1  0  0  0  0
 37 85  2  0  0  0  0
 38 68  1  0  0  0  0
 38 79  1  0  0  0  0
 38 86  2  0  0  0  0
 39 42  1  0  0  0  0
 40 49  1  0  0  0  0
 41 74  1  0  0  0  0
 42 44  1  0  0  0  0
 43 45  1  0  0  0  0
 43 46  1  0  0  0  0
 44 48  1  0  0  0  0
 45 50  1  0  0  0  0
 46 75  1  0  0  0  0
 47 50  1  0  0  0  0
 47 75  1  0  0  0  0
 48 78  1  0  0  0  0
 49 74  1  0  0  0  0
 50 73  1  0  0  0  0
 54 66  1  0  0  0  0
 55 68  1  0  0  0  0
 56 69  1  0  0  0  0
 57 71  1  0  0  0  0
 58 71  1  0  0  0  0
 59 71  1  0  0  0  0
 60 80  1  0  0  0  0
 61 81  1  0  0  0  0
 62 63  1  0  0  0  0
 62 64  1  0  0  0  0
 63 65  1  0  0  0  0
 64 70  1  0  0  0  0
 65 88  1  0  0  0  0
 66 69  1  0  0  0  0
 67 71  1  0  0  0  0
 67 79  1  0  0  0  0
 68 80  1  0  0  0  0
 69 70  1  0  0  0  0
 70 81  1  0  0  0  0
 72 73  1  0  0  0  0
M  CHG  2  80   1  81   1
M  ISO  4  36 100  65 101  66 100  88 101
M  END
> <Batch ID>
0100

> <Smiles>
CNC(C)C(=O)NC(C(=O)N1Cc2cc([101O:1][101CH2:1]CCCC(NCc3c(C)cc(C)cc3C)C(C)[100CH:0](C)[100C:0](=O)N3CCCC(n4nc(-c5ccc(Oc6ccc(F)cc6F)cc5)c(C(N)=O)c4N)C3)ccc2CC1C(=O)NC1CCCc2ccccc21)C(C)(C)C

> <Shape>
0.175

> <Color>
0.187

> <Negative vol penalty>
0.000

$$$$

  -OEChem-04052319333D

 89 97  0     1  0  0  0  0  0999 V2000
  -21.2126  -13.1425   21.0027 C   0  0  0  0  0  0  0  0  0  0  0  0
  -21.5892  -14.4030   21.4552 C   0  0  0  0  0  0  0  0  0  0  0  0
  -30.0652  -26.0809   21.3643 C   0  0  0  0  0  0  0  0  0  0  0  0
  -28.9733  -25.1248   23.2958 C   0  0  0  0  0  0  0  0  0  0  0  0
  -22.1871  -12.2098   20.6501 C   0  0  0  0  0  0  0  0  0  0  0  0
  -22.9407  -14.7311   21.5565 C   0  0  0  0  0  0  0  0  0  0  0  0
  -23.9654  -19.3353   19.7137 C   0  0  0  0  0  0  0  0  0  0  0  0
  -31.3095  -25.8072   21.9322 C   0  0  0  0  0  0  0  0  0  0  0  0
  -30.2176  -24.8510   23.8637 C   0  0  0  0  0  0  0  0  0  0  0  0
  -23.6471  -20.4285   20.5184 C   0  0  0  0  0  0  0  0  0  0  0  0
  -33.3196  -27.1525   24.2931 C   0  0  0  0  0  0  0  0  0  0  0  0
  -34.2878  -28.1554   24.2450 C   0  0  0  0  0  0  0  0  0  0  0  0
  -25.9557  -20.5923   21.1987 C   0  0  0  0  0  0  0  0  0  0  0  0
  -35.7413  -26.6918   22.9871 C   0  0  0  0  0  0  0  0  0  0  0  0
  -19.9258  -26.9458   21.6512 C   0  0  0  0  0  0  0  0  0  0  0  0
  -28.8971  -25.7397   22.0462 C   0  0  0  0  0  0  0  0  0  0  0  0
  -26.8575  -25.1832   20.6187 C   0  0  0  0  0  0  0  0  0  0  0  0
  -23.5511  -12.5300   20.7380 C   0  0  0  0  0  0  0  0  0  0  0  0
  -25.2814  -18.8548   19.6539 C   0  0  0  0  0  0  0  0  0  0  0  0
  -23.9344  -13.8013   21.2061 C   0  0  0  0  0  0  0  0  0  0  0  0
  -26.2886  -19.4944   20.3906 C   0  0  0  0  0  0  0  0  0  0  0  0
  -20.5654  -27.0664   22.8744 C   0  0  0  0  0  0  0  0  0  0  0  0
  -20.0790  -28.0094   23.7729 C   0  0  0  0  0  0  0  0  0  0  0  0
  -18.9834  -28.7920   23.4257 C   0  0  0  0  0  0  0  0  0  0  0  0
  -31.3857  -25.1923   23.1819 C   0  0  0  0  0  0  0  0  0  0  0  0
  -24.6417  -21.0554   21.2632 C   0  0  0  0  0  0  0  0  0  0  0  0
  -33.5622  -25.9192   23.6883 C   0  0  0  0  0  0  0  0  0  0  0  0
  -35.4987  -27.9251   23.5920 C   0  0  0  0  0  0  0  0  0  0  0  0
  -34.7731  -25.6889   23.0352 C   0  0  0  0  0  0  0  0  0  0  0  0
  -27.6115  -26.0227   21.4603 C   0  0  0  0  0  0  0  0  0  0  0  0
  -18.4148  -28.5943   22.1778 C   0  0  0  0  0  0  0  0  0  0  0  0
  -25.7245  -25.9069   20.3375 C   0  0  0  0  0  0  0  0  0  0  0  0
  -27.1546  -23.8668   20.1344 C   0  0  0  0  0  0  0  0  0  0  0  0
  -26.7029  -16.1097   20.3938 C   0  0  0  0  0  0  0  0  0  0  0  0
  -29.2883  -17.5361   19.0510 C   0  0  0  0  0  0  0  0  0  0  0  0
  -30.8827  -20.4298   18.1959 C   0  0  0  0  0  0  0  0  0  0  0  0
  -22.8798  -30.3138   23.2251 C   0  0  0  0  0  0  0  0  0  0  0  0
  -24.5688  -11.4725   20.3906 C   0  0  0  0  0  0  0  0  0  0  0  0
  -25.6135  -17.6912   18.7605 C   0  0  0  0  0  0  0  0  0  0  0  0
  -27.7206  -19.0300   20.3455 C   0  0  0  0  0  0  0  0  0  0  0  0
  -25.9736  -12.0280   20.1710 C   0  0  0  0  0  0  0  0  0  0  0  0
  -24.1689  -30.4109   19.9076 C   0  0  0  0  0  0  0  0  0  0  0  0
  -26.3428  -13.0020   21.2853 C   0  0  0  0  0  0  0  0  0  0  0  0
  -25.1293  -29.2215   19.8534 C   0  0  0  0  0  0  0  0  0  0  0  0
  -24.1918  -31.0930   21.2737 C   0  0  0  0  0  0  0  0  0  0  0  0
  -24.9152  -29.0048   22.3646 C   0  0  0  0  0  0  0  0  0  0  0  0
  -25.3899  -14.2033   21.3062 C   0  0  1  0  0  0  0  0  0  0  0  0
  -26.8905  -16.9661   19.1735 C   0  0  1  0  0  0  0  0  0  0  0  0
  -24.8859  -28.2504   21.0243 C   0  0  2  0  0  0  0  0  0  0  0  0
  -16.9852  -29.5090   24.7846 C   0  0  0  0  0  0  0  0  0  0  0  0
  -18.5332  -31.2426   23.8081 C   0  0  0  0  0  0  0  0  0  0  0  0
  -15.9902  -28.5394   21.4907 C   0  0  0  0  0  0  0  0  0  0  0  0
  -17.5391  -30.2704   20.5110 C   0  0  0  0  0  0  0  0  0  0  0  0
  -32.9985  -21.2769   17.1455 C   0  0  0  0  0  0  0  0  0  0  0  0
  -30.8114  -16.9102   21.6198 C   0  0  0  0  0  0  0  0  0  0  0  0
  -32.5483  -18.5684   20.9115 C   0  0  0  0  0  0  0  0  0  0  0  0
  -32.1165  -16.5451   19.5179 C   0  0  0  0  0  0  0  0  0  0  0  0
  -29.4007  -21.7554   16.0038 C   0  0  0  0  0  0  0  0  0  0  0  0
  -21.7498  -26.1904   23.1962 C   0  0  0  0  0  0  0  0  0  0  0  0
  -20.7333  -28.1795   25.1066 C   0  0  0  0  0  0  0  0  0  0  0  0
  -21.9244  -25.0081   22.2364 C   0  0  0  0  0  0  0  0  0  0  0  0
  -23.0835  -24.0886   22.6238 C   0  0  0  0  0  0  0  0  0  0  0  0
  -21.6581  -29.3985   25.1818 C   0  0  0  0  0  0  0  0  0  0  0  0
  -23.2509  -22.9499   21.6270 C   0  0  0  0  0  0  0  0  0  1  0  0
  -18.4371  -29.8111   24.3685 C   0  0  0  0  0  0  0  0  0  0  0  0
  -17.2365  -29.4058   21.7484 C   0  0  0  0  0  0  0  0  0  0  0  0
  -30.4102  -18.4103   19.5571 C   0  0  1  0  0  0  0  0  0  0  0  0
  -31.5536  -20.8670   16.9063 C   0  0  2  0  0  0  0  0  0  0  0  0
  -31.4443  -17.6163   20.4041 C   0  0  0  0  0  0  0  0  0  0  0  0
  -18.8593  -27.6881   21.2784 N   0  0  0  0  0  0  0  0  0  0  0  0
  -27.0084  -27.1905   21.6981 N   0  0  0  0  0  0  0  0  0  0  0  0
  -25.8635  -27.0900   21.0016 N   0  0  0  0  0  0  0  0  0  0  0  0
  -27.9939  -17.8845   19.4620 N   0  0  0  0  0  0  0  0  0  0  0  0
  -23.9530  -30.1176   22.3403 N   0  0  0  0  0  0  0  0  0  0  0  0
  -24.6329  -25.6403   19.5893 N   0  0  0  0  0  0  0  0  0  0  0  0
  -28.3623  -23.2696   20.5206 N   0  0  0  0  0  0  0  0  0  0  0  0
  -25.7310  -15.1373   20.2547 N   0  0  0  0  0  0  0  0  0  0  0  0
  -30.9769  -19.0671   18.3841 N   0  0  0  0  0  0  0  0  0  0  0  0
  -22.7203  -29.3391   24.2025 N   0  0  0  0  0  0  0  0  0  0  0  0
  -30.8286  -22.0256   16.3121 N   0  3  0  0  0  0  0  0  0  0  0  0
  -26.3798  -23.2452   19.3683 O   0  0  0  0  0  0  0  0  0  0  0  0
  -27.3901  -16.3149   21.3875 O   0  0  0  0  0  0  0  0  0  0  0  0
  -29.5502  -16.5835   18.3123 O   0  0  0  0  0  0  0  0  0  0  0  0
  -30.3335  -21.2188   18.9617 O   0  0  0  0  0  0  0  0  0  0  0  0
  -22.1170  -31.2827   23.1463 O   0  0  0  0  0  0  0  0  0  0  0  0
  -32.5997  -24.9248   23.7362 O   0  0  0  0  0  0  0  0  0  0  0  0
  -24.3337  -22.1222   22.0499 O   0  0  0  0  0  0  0  0  0  1  0  0
  -36.4278  -28.8888   23.5445 F   0  0  0  0  0  0  0  0  0  0  0  0
  -35.0114  -24.5065   22.4512 F   0  0  0  0  0  0  0  0  0  0  0  0
  1  2  1  0  0  0  0
  1  5  2  0  0  0  0
  2  6  2  0  0  0  0
  3  8  2  0  0  0  0
  3 16  1  0  0  0  0
  4  9  1  0  0  0  0
  4 16  2  0  0  0  0
  5 18  1  0  0  0  0
  6 20  1  0  0  0  0
  7 10  2  0  0  0  0
  7 19  1  0  0  0  0
  8 25  1  0  0  0  0
  9 25  2  0  0  0  0
 10 26  1  0  0  0  0
 11 12  2  0  0  0  0
 11 27  1  0  0  0  0
 12 28  1  0  0  0  0
 13 21  1  0  0  0  0
 13 26  2  0  0  0  0
 14 28  2  0  0  0  0
 14 29  1  0  0  0  0
 15 22  1  0  0  0  0
 15 70  2  0  0  0  0
 16 30  1  0  0  0  0
 17 30  1  0  0  0  0
 17 32  2  0  0  0  0
 17 33  1  0  0  0  0
 18 20  2  0  0  0  0
 18 38  1  0  0  0  0
 19 21  2  0  0  0  0
 19 39  1  0  0  0  0
 20 47  1  0  0  0  0
 21 40  1  0  0  0  0
 22 23  2  0  0  0  0
 22 59  1  0  0  0  0
 23 24  1  0  0  0  0
 23 60  1  0  0  0  0
 24 31  2  0  0  0  0
 24 65  1  0  0  0  0
 25 86  1  0  0  0  0
 26 87  1  0  0  0  0
 27 29  2  0  0  0  0
 27 86  1  0  0  0  0
 28 88  1  0  0  0  0
 29 89  1  0  0  0  0
 30 71  2  0  0  0  0
 31 66  1  0  0  0  0
 31 70  1  0  0  0  0
 32 72  1  0  0  0  0
 32 75  1  0  0  0  0
 33 76  1  0  0  0  0
 33 81  2  0  0  0  0
 34 48  1  0  0  0  0
 34 77  1  0  0  0  0
 34 82  2  0  0  0  0
 35 67  1  0  0  0  0
 35 73  1  0  0  0  0
 35 83  2  0  0  0  0
 36 68  1  0  0  0  0
 36 78  1  0  0  0  0
 36 84  2  0  0  0  0
 37 74  1  0  0  0  0
 37 79  1  0  0  0  0
 37 85  2  0  0  0  0
 38 41  1  0  0  0  0
 39 48  1  0  0  0  0
 40 73  1  0  0  0  0
 41 43  1  0  0  0  0
 42 44  1  0  0  0  0
 42 45  1  0  0  0  0
 43 47  1  0  0  0  0
 44 49  1  0  0  0  0
 45 74  1  0  0  0  0
 46 49  1  0  0  0  0
 46 74  1  0  0  0  0
 47 77  1  0  0  0  0
 48 73  1  0  0  0  0
 49 72  1  0  0  0  0
 50 65  1  0  0  0  0
 51 65  1  0  0  0  0
 52 66  1  0  0  0  0
 53 66  1  0  0  0  0
 54 68  1  0  0  0  0
 55 69  1  0  0  0  0
 56 69  1  0  0  0  0
 57 69  1  0  0  0  0
 58 80  1  0  0  0  0
 59 61  1  0  0  0  0
 60 63  1  0  0  0  0
 61 62  1  0  0  0  0
 62 64  1  0  0  0  0
 63 79  1  0  0  0  0
 64 87  1  0  0  0  0
 67 69  1  0  0  0  0
 67 78  1  0  0  0  0
 68 80  1  0  0  0  0
 71 72  1  0  0  0  0
M  CHG  1  80   1
M  ISO  4  37 100  64 101  79 100  87 101
M  END
> <Batch ID>
0100

> <Smiles>
CNC(C)C(=O)NC(C(=O)N1Cc2cc([101O:1][101CH2:1]CCCc3cnc(C(C)C)c(C(C)C)c3CC[100NH:0][100C:0](=O)N3CCCC(n4nc(-c5ccc(Oc6ccc(F)cc6F)cc5)c(C(N)=O)c4N)C3)ccc2CC1C(=O)NC1CCCc2ccccc21)C(C)(C)C

> <Shape>
0.220

> <Color>
0.068

> <Negative vol penalty>
0.000

$$$$

  -OEChem-04052319333D

 86 94  0     1  0  0  0  0  0999 V2000
  -17.5970  -15.7021   24.3465 C   0  0  0  0  0  0  0  0  0  0  0  0
  -18.8846  -16.1014   24.6901 C   0  0  0  0  0  0  0  0  0  0  0  0
  -24.2057  -14.1654   20.5489 C   0  0  0  0  0  0  0  0  0  0  0  0
  -26.3286  -14.0910   21.6999 C   0  0  0  0  0  0  0  0  0  0  0  0
  -16.9470  -16.3011   23.2682 C   0  0  0  0  0  0  0  0  0  0  0  0
  -19.5234  -17.0992   23.9548 C   0  0  0  0  0  0  0  0  0  0  0  0
  -24.1846  -22.4841   24.7249 C   0  0  0  0  0  0  0  0  0  0  0  0
  -28.4441  -26.3753   21.4818 C   0  0  0  0  0  0  0  0  0  0  0  0
  -29.7218  -26.7505   21.0667 C   0  0  0  0  0  0  0  0  0  0  0  0
  -24.2664  -12.7865   20.3477 C   0  0  0  0  0  0  0  0  0  0  0  0
  -26.3894  -12.7120   21.4987 C   0  0  0  0  0  0  0  0  0  0  0  0
  -25.3718  -22.9677   24.1767 C   0  0  0  0  0  0  0  0  0  0  0  0
  -23.6892   -9.2324   19.8471 C   0  0  0  0  0  0  0  0  0  0  0  0
  -22.5346   -8.4896   20.0935 C   0  0  0  0  0  0  0  0  0  0  0  0
  -24.1213  -23.9870   22.3832 C   0  0  0  0  0  0  0  0  0  0  0  0
  -28.3673  -24.7059   19.7371 C   0  0  0  0  0  0  0  0  0  0  0  0
  -22.5451   -9.2353   22.3915 C   0  0  0  0  0  0  0  0  0  0  0  0
  -25.2368  -14.8176   21.2249 C   0  0  0  0  0  0  0  0  0  0  0  0
  -24.6048  -16.9175   22.5283 C   0  0  0  0  0  0  0  0  0  0  0  0
  -17.5746  -17.3135   22.5253 C   0  0  0  0  0  0  0  0  0  0  0  0
  -22.9558  -22.7395   24.0993 C   0  0  0  0  0  0  0  0  0  0  0  0
  -18.8818  -17.7114   22.8647 C   0  0  0  0  0  0  0  0  0  0  0  0
  -22.9197  -23.5077   22.9268 C   0  0  0  0  0  0  0  0  0  0  0  0
  -27.7669  -25.3530   20.8171 C   0  0  0  0  0  0  0  0  0  0  0  0
  -30.3222  -26.1035   19.9867 C   0  0  0  0  0  0  0  0  0  0  0  0
  -29.6450  -25.0811   19.3218 C   0  0  0  0  0  0  0  0  0  0  0  0
  -25.3582  -12.0598   20.8226 C   0  0  0  0  0  0  0  0  0  0  0  0
  -25.3405  -23.7168   23.0041 C   0  0  0  0  0  0  0  0  0  0  0  0
  -24.2718   -9.9766   20.8730 C   0  0  0  0  0  0  0  0  0  0  0  0
  -21.9625   -8.4911   21.3656 C   0  0  0  0  0  0  0  0  0  0  0  0
  -23.6998   -9.9781   22.1451 C   0  0  0  0  0  0  0  0  0  0  0  0
  -25.1750  -16.2421   21.4326 C   0  0  0  0  0  0  0  0  0  0  0  0
  -24.8023  -18.2483   22.2519 C   0  0  0  0  0  0  0  0  0  0  0  0
  -23.9549  -16.3891   23.6919 C   0  0  0  0  0  0  0  0  0  0  0  0
  -20.6827  -20.9371   22.8002 C   0  0  0  0  0  0  0  0  0  0  0  0
  -19.1228  -23.7702   22.5490 C   0  0  0  0  0  0  0  0  0  0  0  0
  -19.9541  -27.1630   21.6461 C   0  0  0  0  0  0  0  0  0  0  0  0
  -28.8705  -21.0288   19.0000 C   0  0  0  0  0  0  0  0  0  0  0  0
  -16.8502  -17.8984   21.3388 C   0  0  0  0  0  0  0  0  0  0  0  0
  -21.6816  -22.2334   24.7179 C   0  0  0  0  0  0  0  0  0  0  0  0
  -21.6246  -23.8270   22.2275 C   0  0  0  0  0  0  0  0  0  0  0  0
  -17.4530  -19.2104   20.8433 C   0  0  0  0  0  0  0  0  0  0  0  0
  -25.2847  -21.2787   18.5788 C   0  0  0  0  0  0  0  0  0  0  0  0
  -18.9703  -19.0945   20.7375 C   0  0  0  0  0  0  0  0  0  0  0  0
  -24.7996  -20.0668   19.3764 C   0  0  0  0  0  0  0  0  0  0  0  0
  -26.5819  -20.9692   17.8374 C   0  0  0  0  0  0  0  0  0  0  0  0
  -27.2039  -19.2654   19.5058 C   0  0  0  0  0  0  0  0  0  0  0  0
  -19.5984  -18.8077   22.1067 C   0  0  1  0  0  0  0  0  0  0  0  0
  -20.5360  -22.1185   23.7170 C   0  0  1  0  0  0  0  0  0  0  0  0
  -25.9078  -19.5213   20.2963 C   0  0  2  0  0  0  0  0  0  0  0  0
  -18.8962  -29.3365   22.3200 C   0  0  0  0  0  0  0  0  0  0  0  0
  -32.2302  -27.6800   20.4553 C   0  0  0  0  0  0  0  0  0  0  0  0
  -31.6902  -27.0292   18.0844 C   0  0  0  0  0  0  0  0  0  0  0  0
  -32.7823  -25.4051   19.6177 C   0  0  0  0  0  0  0  0  0  0  0  0
  -17.5141  -23.4516   19.9760 C   0  0  0  0  0  0  0  0  0  0  0  0
  -17.7172  -25.9222   19.6254 C   0  0  0  0  0  0  0  0  0  0  0  0
  -16.5267  -25.0430   21.6334 C   0  0  0  0  0  0  0  0  0  0  0  0
  -22.5260  -28.2411   22.6370 C   0  0  0  0  0  0  0  0  0  0  0  0
  -30.2678  -24.3744   18.1628 C   0  0  0  0  0  0  0  0  0  0  0  0
  -26.3923  -24.9499   21.2636 C   0  0  0  0  0  0  0  0  0  1  0  0
  -31.4885  -22.2170   17.4796 C   0  0  0  0  0  0  0  0  0  0  0  0
  -19.0450  -24.8590   21.5062 C   0  0  1  0  0  0  0  0  0  0  0  0
  -20.0317  -28.3584   22.5784 C   0  0  2  0  0  0  0  0  0  0  0  0
  -30.4362  -22.8545   18.3900 C   0  0  2  0  0  0  0  0  0  0  0  0
  -31.6904  -26.5233   19.5596 C   0  0  0  0  0  0  0  0  0  0  0  0
  -17.7240  -24.8028   20.6882 C   0  0  0  0  0  0  0  0  0  0  0  0
  -25.6954  -17.0751   20.5275 N   0  0  0  0  0  0  0  0  0  0  0  0
  -25.4530  -18.2877   21.0539 N   0  0  0  0  0  0  0  0  0  0  0  0
  -20.4062  -23.3044   22.8679 N   0  0  0  0  0  0  0  0  0  0  0  0
  -27.6009  -20.4721   18.7726 N   0  0  0  0  0  0  0  0  0  0  0  0
  -24.4809  -19.3770   22.9191 N   0  0  0  0  0  0  0  0  0  0  0  0
  -23.8370  -14.9982   23.8178 N   0  0  0  0  0  0  0  0  0  0  0  0
  -19.6564  -20.0171   22.8995 N   0  0  0  0  0  0  0  0  0  0  0  0
  -19.2569  -26.1173   22.2133 N   0  0  0  0  0  0  0  0  0  0  0  0
  -29.1711  -22.1661   18.2606 N   0  0  0  0  0  0  0  0  0  0  0  0
  -31.1229  -22.3611   16.0491 N   0  3  0  0  0  0  0  0  0  0  0  0
  -21.3234  -29.0780   22.3917 N   0  3  0  0  0  0  0  0  0  0  0  0
  -23.4778  -17.1290   24.5855 O   0  0  0  0  0  0  0  0  0  0  0  0
  -21.6542  -20.8663   22.0566 O   0  0  0  0  0  0  0  0  0  0  0  0
  -18.0837  -23.3534   23.0669 O   0  0  0  0  0  0  0  0  0  0  0  0
  -20.4581  -27.1586   20.5252 O   0  0  0  0  0  0  0  0  0  0  0  0
  -29.6751  -20.5505   19.8068 O   0  0  0  0  0  0  0  0  0  0  0  0
  -25.4177  -10.7142   20.6267 O   0  0  0  0  0  0  0  0  0  0  0  0
  -26.4979  -24.1895   22.4665 O   0  0  0  0  0  0  0  0  0  1  0  0
  -20.8528   -7.7790   21.6016 F   0  0  0  0  0  0  0  0  0  0  0  0
  -24.2543  -10.6921   23.1344 F   0  0  0  0  0  0  0  0  0  0  0  0
  1  2  1  0  0  0  0
  1  5  2  0  0  0  0
  2  6  2  0  0  0  0
  3 10  2  0  0  0  0
  3 18  1  0  0  0  0
  4 11  1  0  0  0  0
  4 18  2  0  0  0  0
  5 20  1  0  0  0  0
  6 22  1  0  0  0  0
  7 12  2  0  0  0  0
  7 21  1  0  0  0  0
  8  9  2  0  0  0  0
  8 24  1  0  0  0  0
  9 25  1  0  0  0  0
 10 27  1  0  0  0  0
 11 27  2  0  0  0  0
 12 28  1  0  0  0  0
 13 14  2  0  0  0  0
 13 29  1  0  0  0  0
 14 30  1  0  0  0  0
 15 23  1  0  0  0  0
 15 28  2  0  0  0  0
 16 24  2  0  0  0  0
 16 26  1  0  0  0  0
 17 30  2  0  0  0  0
 17 31  1  0  0  0  0
 18 32  1  0  0  0  0
 19 32  1  0  0  0  0
 19 33  2  0  0  0  0
 19 34  1  0  0  0  0
 20 22  2  0  0  0  0
 20 39  1  0  0  0  0
 21 23  2  0  0  0  0
 21 40  1  0  0  0  0
 22 48  1  0  0  0  0
 23 41  1  0  0  0  0
 24 60  1  0  0  0  0
 25 26  2  0  0  0  0
 25 65  1  0  0  0  0
 26 59  1  0  0  0  0
 27 83  1  0  0  0  0
 28 84  1  0  0  0  0
 29 31  2  0  0  0  0
 29 83  1  0  0  0  0
 30 85  1  0  0  0  0
 31 86  1  0  0  0  0
 32 67  2  0  0  0  0
 33 68  1  0  0  0  0
 33 71  1  0  0  0  0
 34 72  1  0  0  0  0
 34 78  2  0  0  0  0
 35 49  1  0  0  0  0
 35 73  1  0  0  0  0
 35 79  2  0  0  0  0
 36 62  1  0  0  0  0
 36 69  1  0  0  0  0
 36 80  2  0  0  0  0
 37 63  1  0  0  0  0
 37 74  1  0  0  0  0
 37 81  2  0  0  0  0
 38 70  1  0  0  0  0
 38 75  1  0  0  0  0
 38 82  2  0  0  0  0
 39 42  1  0  0  0  0
 40 49  1  0  0  0  0
 41 69  1  0  0  0  0
 42 44  1  0  0  0  0
 43 45  1  0  0  0  0
 43 46  1  0  0  0  0
 44 48  1  0  0  0  0
 45 50  1  0  0  0  0
 46 70  1  0  0  0  0
 47 50  1  0  0  0  0
 47 70  1  0  0  0  0
 48 73  1  0  0  0  0
 49 69  1  0  0  0  0
 50 68  1  0  0  0  0
 51 63  1  0  0  0  0
 52 65  1  0  0  0  0
 53 65  1  0  0  0  0
 54 65  1  0  0  0  0
 55 66  1  0  0  0  0
 56 66  1  0  0  0  0
 57 66  1  0  0  0  0
 58 77  1  0  0  0  0
 59 64  1  0  0  0  0
 60 84  1  0  0  0  0
 61 64  1  0  0  0  0
 61 76  1  0  0  0  0
 62 66  1  0  0  0  0
 62 74  1  0  0  0  0
 63 77  1  0  0  0  0
 64 75  1  0  0  0  0
 67 68  1  0  0  0  0
M  CHG  2  76   1  77   1
M  ISO  4  38 100  60 101  75 100  84 101
M  END
> <Batch ID>
0100

> <Smiles>
CNC(C)C(=O)NC(C(=O)N1Cc2cc([101O:1][101CH2:1]c3ccc(C(C)(C)C)c(CC(CN)[100NH:0][100C:0](=O)N4CCCC(n5nc(-c6ccc(Oc7ccc(F)cc7F)cc6)c(C(N)=O)c5N)C4)c3)ccc2CC1C(=O)NC1CCCc2ccccc21)C(C)(C)C

> <Shape>
0.178

> <Color>
0.067

> <Negative vol penalty>
0.000

$$$$

  -OEChem-04052319333D

 88 96  0     1  0  0  0  0  0999 V2000
  -22.4108  -29.0511   24.9132 C   0  0  0  0  0  0  0  0  0  0  0  0
  -22.6874  -27.6991   25.0892 C   0  0  0  0  0  0  0  0  0  0  0  0
  -28.5231  -27.4791   19.5068 C   0  0  0  0  0  0  0  0  0  0  0  0
  -29.0457  -26.6334   21.7088 C   0  0  0  0  0  0  0  0  0  0  0  0
  -21.4082  -29.4470   24.0288 C   0  0  0  0  0  0  0  0  0  0  0  0
  -21.9609  -26.7421   24.3816 C   0  0  0  0  0  0  0  0  0  0  0  0
  -24.9112  -23.1281   22.4118 C   0  0  0  0  0  0  0  0  0  0  0  0
  -27.7617  -28.4982   20.0790 C   0  0  0  0  0  0  0  0  0  0  0  0
  -28.2844  -27.6525   22.2809 C   0  0  0  0  0  0  0  0  0  0  0  0
  -25.3640  -22.1337   23.2777 C   0  0  0  0  0  0  0  0  0  0  0  0
  -24.6847  -28.8475   21.4335 C   0  0  0  0  0  0  0  0  0  0  0  0
  -23.4348  -29.1134   20.8745 C   0  0  0  0  0  0  0  0  0  0  0  0
  -23.6410  -20.6523   22.4677 C   0  0  0  0  0  0  0  0  0  0  0  0
  -27.3999  -16.3889   21.8654 C   0  0  0  0  0  0  0  0  0  0  0  0
  -24.1332  -31.3747   20.3886 C   0  0  0  0  0  0  0  0  0  0  0  0
  -26.5279  -15.6451   19.7815 C   0  0  0  0  0  0  0  0  0  0  0  0
  -29.1651  -26.5466   20.3218 C   0  0  0  0  0  0  0  0  0  0  0  0
  -31.3236  -25.5294   19.4197 C   0  0  0  0  0  0  0  0  0  0  0  0
  -20.6756  -28.4947   23.3027 C   0  0  0  0  0  0  0  0  0  0  0  0
  -23.8111  -22.8954   21.5738 C   0  0  0  0  0  0  0  0  0  0  0  0
  -20.9467  -27.1255   23.4876 C   0  0  0  0  0  0  0  0  0  0  0  0
  -23.1778  -21.6446   21.5903 C   0  0  0  0  0  0  0  0  0  0  0  0
  -27.5754  -16.1995   20.4992 C   0  0  0  0  0  0  0  0  0  0  0  0
  -26.1992  -16.0233   22.4638 C   0  0  0  0  0  0  0  0  0  0  0  0
  -27.6424  -28.5849   21.4660 C   0  0  0  0  0  0  0  0  0  0  0  0
  -24.7272  -20.8965   23.3078 C   0  0  0  0  0  0  0  0  0  0  0  0
  -25.6589  -29.8452   21.4701 C   0  0  0  0  0  0  0  0  0  0  0  0
  -23.1590  -30.3770   20.3521 C   0  0  0  0  0  0  0  0  0  0  0  0
  -25.3831  -31.1088   20.9476 C   0  0  0  0  0  0  0  0  0  0  0  0
  -29.9512  -25.4933   19.7313 C   0  0  0  0  0  0  0  0  0  0  0  0
  -25.2132  -15.4770   21.6580 C   0  0  0  0  0  0  0  0  0  0  0  0
  -31.5865  -24.2927   18.8832 C   0  0  0  0  0  0  0  0  0  0  0  0
  -32.2756  -26.5864   19.5992 C   0  0  0  0  0  0  0  0  0  0  0  0
  -20.9201  -24.1786   21.2588 C   0  0  0  0  0  0  0  0  0  0  0  0
  -20.7531  -22.2091   18.6867 C   0  0  0  0  0  0  0  0  0  0  0  0
  -21.8472  -19.3748   17.1321 C   0  0  0  0  0  0  0  0  0  0  0  0
  -28.9733  -19.0500   19.6183 C   0  0  0  0  0  0  0  0  0  0  0  0
  -19.5695  -28.9687   22.3937 C   0  0  0  0  0  0  0  0  0  0  0  0
  -23.3516  -23.9694   20.6263 C   0  0  0  0  0  0  0  0  0  0  0  0
  -22.0054  -21.3375   20.6961 C   0  0  0  0  0  0  0  0  0  0  0  0
  -19.0996  -27.9078   21.4017 C   0  0  0  0  0  0  0  0  0  0  0  0
  -29.4878  -20.7391   16.4593 C   0  0  0  0  0  0  0  0  0  0  0  0
  -18.8881  -26.5726   22.1084 C   0  0  0  0  0  0  0  0  0  0  0  0
  -29.7976  -22.1636   16.9230 C   0  0  0  0  0  0  0  0  0  0  0  0
  -28.4211  -20.0916   17.3374 C   0  0  0  0  0  0  0  0  0  0  0  0
  -29.0553  -21.5006   19.2574 C   0  0  0  0  0  0  0  0  0  0  0  0
  -20.1972  -26.0585   22.7196 C   0  0  1  0  0  0  0  0  0  0  0  0
  -21.9011  -23.7975   20.1863 C   0  0  1  0  0  0  0  0  0  0  0  0
  -30.1429  -22.2018   18.4235 C   0  0  2  0  0  0  0  0  0  0  0  0
  -26.9199  -13.9030   24.5367 C   0  0  0  0  0  0  0  0  0  0  0  0
  -21.4985  -18.0060   15.0579 C   0  0  0  0  0  0  0  0  0  0  0  0
  -20.5075  -14.0969   20.5611 C   0  0  0  0  0  0  0  0  0  0  0  0
  -21.5960  -13.0733   22.5681 C   0  0  0  0  0  0  0  0  0  0  0  0
  -18.1456  -21.1256   19.8430 C   0  0  0  0  0  0  0  0  0  0  0  0
  -18.3498  -19.1724   18.2900 C   0  0  0  0  0  0  0  0  0  0  0  0
  -18.1217  -21.4788   17.3673 C   0  0  0  0  0  0  0  0  0  0  0  0
  -24.6548  -19.7482   16.2739 C   0  0  0  0  0  0  0  0  0  0  0  0
  -28.8471  -16.5808   19.8289 C   0  0  0  0  0  0  0  0  0  0  0  0
  -23.9027  -15.0665   22.2460 C   0  0  0  0  0  0  0  0  0  0  0  0
  -27.0074  -15.4029   24.7943 C   0  0  0  0  0  0  0  0  0  0  0  0
  -22.8453  -14.7960   21.1607 C   0  0  0  0  0  0  0  0  0  0  0  0
  -26.0848  -17.7157   24.3561 C   0  0  0  0  0  0  0  0  0  0  0  0
  -24.9828  -18.5714   23.7375 C   0  0  0  0  0  0  0  0  0  1  0  0
  -26.0012  -16.2259   23.9579 C   0  0  1  0  0  0  0  0  0  0  0  0
  -20.2969  -20.7887   18.4557 C   0  0  1  0  0  0  0  0  0  0  0  0
  -22.3047  -19.1201   15.7072 C   0  0  2  0  0  0  0  0  0  0  0  0
  -21.4836  -14.3379   21.7155 C   0  0  0  0  0  0  0  0  0  0  0  0
  -18.7493  -20.6475   18.5074 C   0  0  0  0  0  0  0  0  0  0  0  0
  -25.3471  -15.2776   20.3276 N   0  0  0  0  0  0  0  0  0  0  0  0
  -29.3820  -24.3262   19.4187 N   0  0  0  0  0  0  0  0  0  0  0  0
  -30.4017  -23.6174   18.9049 N   0  0  0  0  0  0  0  0  0  0  0  0
  -21.5894  -22.4222   19.7918 N   0  0  0  0  0  0  0  0  0  0  0  0
  -28.8195  -20.1444   18.7511 N   0  0  0  0  0  0  0  0  0  0  0  0
  -32.7132  -23.7279   18.3996 N   0  0  0  0  0  0  0  0  0  0  0  0
  -31.8374  -27.7913   20.1652 N   0  0  0  0  0  0  0  0  0  0  0  0
  -21.0422  -25.4842   21.6947 N   0  0  0  0  0  0  0  0  0  0  0  0
  -20.8934  -20.3687   17.1923 N   0  0  0  0  0  0  0  0  0  0  0  0
  -28.7245  -17.8010   19.0626 N   0  0  0  0  0  0  0  0  0  0  0  0
  -23.7435  -18.7325   15.6867 N   0  3  0  0  0  0  0  0  0  0  0  0
  -33.4756  -26.4717   19.2523 O   0  0  0  0  0  0  0  0  0  0  0  0
  -20.1113  -23.3500   21.6600 O   0  0  0  0  0  0  0  0  0  0  0  0
  -20.3869  -23.0956   17.9111 O   0  0  0  0  0  0  0  0  0  0  0  0
  -22.2888  -18.7516   18.0950 O   0  0  0  0  0  0  0  0  0  0  0  0
  -29.3128  -19.1761   20.7998 O   0  0  0  0  0  0  0  0  0  0  0  0
  -26.8997  -29.5794   22.0246 O   0  0  0  0  0  0  0  0  0  0  0  0
  -25.1667  -19.9243   24.1525 O   0  0  0  0  0  0  0  0  0  1  0  0
  -21.9591  -30.6318   19.8139 F   0  0  0  0  0  0  0  0  0  0  0  0
  -26.3154  -32.0709   20.9788 F   0  0  0  0  0  0  0  0  0  0  0  0
  1  2  1  0  0  0  0
  1  5  2  0  0  0  0
  2  6  2  0  0  0  0
  3  8  2  0  0  0  0
  3 17  1  0  0  0  0
  4  9  1  0  0  0  0
  4 17  2  0  0  0  0
  5 19  1  0  0  0  0
  6 21  1  0  0  0  0
  7 10  2  0  0  0  0
  7 20  1  0  0  0  0
  8 25  1  0  0  0  0
  9 25  2  0  0  0  0
 10 26  1  0  0  0  0
 11 12  2  0  0  0  0
 11 27  1  0  0  0  0
 12 28  1  0  0  0  0
 13 22  1  0  0  0  0
 13 26  2  0  0  0  0
 14 23  2  0  0  0  0
 14 24  1  0  0  0  0
 15 28  2  0  0  0  0
 15 29  1  0  0  0  0
 16 23  1  0  0  0  0
 16 69  2  0  0  0  0
 17 30  1  0  0  0  0
 18 30  1  0  0  0  0
 18 32  2  0  0  0  0
 18 33  1  0  0  0  0
 19 21  2  0  0  0  0
 19 38  1  0  0  0  0
 20 22  2  0  0  0  0
 20 39  1  0  0  0  0
 21 47  1  0  0  0  0
 22 40  1  0  0  0  0
 23 58  1  0  0  0  0
 24 31  2  0  0  0  0
 24 64  1  0  0  0  0
 25 85  1  0  0  0  0
 26 86  1  0  0  0  0
 27 29  2  0  0  0  0
 27 85  1  0  0  0  0
 28 87  1  0  0  0  0
 29 88  1  0  0  0  0
 30 70  2  0  0  0  0
 31 59  1  0  0  0  0
 31 69  1  0  0  0  0
 32 71  1  0  0  0  0
 32 74  1  0  0  0  0
 33 75  1  0  0  0  0
 33 80  2  0  0  0  0
 34 48  1  0  0  0  0
 34 76  1  0  0  0  0
 34 81  2  0  0  0  0
 35 65  1  0  0  0  0
 35 72  1  0  0  0  0
 35 82  2  0  0  0  0
 36 66  1  0  0  0  0
 36 77  1  0  0  0  0
 36 83  2  0  0  0  0
 37 73  1  0  0  0  0
 37 78  1  0  0  0  0
 37 84  2  0  0  0  0
 38 41  1  0  0  0  0
 39 48  1  0  0  0  0
 40 72  1  0  0  0  0
 41 43  1  0  0  0  0
 42 44  1  0  0  0  0
 42 45  1  0  0  0  0
 43 47  1  0  0  0  0
 44 49  1  0  0  0  0
 45 73  1  0  0  0  0
 46 49  1  0  0  0  0
 46 73  1  0  0  0  0
 47 76  1  0  0  0  0
 48 72  1  0  0  0  0
 49 71  1  0  0  0  0
 50 60  1  0  0  0  0
 51 66  1  0  0  0  0
 52 67  1  0  0  0  0
 53 67  1  0  0  0  0
 54 68  1  0  0  0  0
 55 68  1  0  0  0  0
 56 68  1  0  0  0  0
 57 79  1  0  0  0  0
 58 78  1  0  0  0  0
 59 61  1  0  0  0  0
 60 64  1  0  0  0  0
 61 67  1  0  0  0  0
 62 63  1  0  0  0  0
 62 64  1  0  0  0  0
 63 86  1  0  0  0  0
 65 68  1  0  0  0  0
 65 77  1  0  0  0  0
 66 79  1  0  0  0  0
 70 71  1  0  0  0  0
M  CHG  1  79   1
M  ISO  4  37 100  63 101  78 100  86 101
M  END
> <Batch ID>
0100

> <Smiles>
CCC(C[101CH2:1][101O:1]c1ccc2c(c1)CN(C(=O)C(NC(=O)C(C)NC)C(C)(C)C)C(C(=O)NC1CCCc3ccccc31)C2)c1cc(C[100NH:0][100C:0](=O)N2CCCC(n3nc(-c4ccc(Oc5ccc(F)cc5F)cc4)c(C(N)=O)c3N)C2)cnc1CCC(C)C

> <Shape>
0.213

> <Color>
0.053

> <Negative vol penalty>
0.000

$$$$

  -OEChem-04052319333D

 86 94  0     1  0  0  0  0  0999 V2000
  -38.8372  -24.8416   17.0899 C   0  0  0  0  0  0  0  0  0  0  0  0
  -37.5833  -24.3863   17.4847 C   0  0  0  0  0  0  0  0  0  0  0  0
  -22.7306  -10.0900   20.2252 C   0  0  0  0  0  0  0  0  0  0  0  0
  -24.2884   -9.5454   21.9898 C   0  0  0  0  0  0  0  0  0  0  0  0
  -39.4219  -25.9251   17.7441 C   0  0  0  0  0  0  0  0  0  0  0  0
  -36.9138  -25.0136   18.5348 C   0  0  0  0  0  0  0  0  0  0  0  0
  -32.0227  -25.8307   17.5081 C   0  0  0  0  0  0  0  0  0  0  0  0
  -22.0309   -8.9103   20.4788 C   0  0  0  0  0  0  0  0  0  0  0  0
  -23.5887   -8.3657   22.2434 C   0  0  0  0  0  0  0  0  0  0  0  0
  -31.1587  -24.7419   17.6172 C   0  0  0  0  0  0  0  0  0  0  0  0
  -23.3435   -5.2754   20.8940 C   0  0  0  0  0  0  0  0  0  0  0  0
  -24.0852   -4.1078   21.0729 C   0  0  0  0  0  0  0  0  0  0  0  0
  -30.4531  -25.5270   19.7863 C   0  0  0  0  0  0  0  0  0  0  0  0
  -23.1671   -3.8651   23.2945 C   0  0  0  0  0  0  0  0  0  0  0  0
  -23.8594  -10.4076   20.9807 C   0  0  0  0  0  0  0  0  0  0  0  0
  -24.0878  -12.9415   20.7941 C   0  0  0  0  0  0  0  0  0  0  0  0
  -38.7550  -26.5722   18.7964 C   0  0  0  0  0  0  0  0  0  0  0  0
  -32.1166  -26.7714   18.5437 C   0  0  0  0  0  0  0  0  0  0  0  0
  -37.4907  -26.1060   19.2046 C   0  0  0  0  0  0  0  0  0  0  0  0
  -31.3171  -26.6282   19.6867 C   0  0  0  0  0  0  0  0  0  0  0  0
  -22.4599   -8.0481   21.4879 C   0  0  0  0  0  0  0  0  0  0  0  0
  -30.3758  -24.5884   18.7576 C   0  0  0  0  0  0  0  0  0  0  0  0
  -22.5136   -5.7380   21.9153 C   0  0  0  0  0  0  0  0  0  0  0  0
  -23.9970   -3.4026   22.2732 C   0  0  0  0  0  0  0  0  0  0  0  0
  -22.4254   -5.0328   23.1155 C   0  0  0  0  0  0  0  0  0  0  0  0
  -24.5829  -11.6258   20.7189 C   0  0  0  0  0  0  0  0  0  0  0  0
  -25.1591  -13.7314   20.4556 C   0  0  0  0  0  0  0  0  0  0  0  0
  -22.7766  -13.4078   21.1392 C   0  0  0  0  0  0  0  0  0  0  0  0
  -34.4378  -27.7488   20.4828 C   0  0  0  0  0  0  0  0  0  0  0  0
  -32.2155  -29.9215   21.4116 C   0  0  0  0  0  0  0  0  0  0  0  0
  -28.6775  -29.9320   22.1185 C   0  0  0  0  0  0  0  0  0  0  0  0
  -30.6166  -14.7357   21.3566 C   0  0  0  0  0  0  0  0  0  0  0  0
  -39.4477  -27.7095   19.5045 C   0  0  0  0  0  0  0  0  0  0  0  0
  -33.0338  -27.9548   18.3990 C   0  0  0  0  0  0  0  0  0  0  0  0
  -31.3657  -27.6213   20.8180 C   0  0  0  0  0  0  0  0  0  0  0  0
  -38.5092  -28.5554   20.3612 C   0  0  0  0  0  0  0  0  0  0  0  0
  -29.6519  -12.5404   18.4857 C   0  0  0  0  0  0  0  0  0  0  0  0
  -37.6079  -27.6619   21.2074 C   0  0  0  0  0  0  0  0  0  0  0  0
  -28.2204  -12.1698   18.8704 C   0  0  0  0  0  0  0  0  0  0  0  0
  -32.3741  -19.9183   19.9009 C   0  0  0  0  0  0  0  0  0  0  0  0
  -30.5018  -12.8145   19.7206 C   0  0  0  0  0  0  0  0  0  0  0  0
  -28.5065  -13.5011   21.0106 C   0  0  0  0  0  0  0  0  0  0  0  0
  -31.1757  -20.5840   20.5631 C   0  0  0  0  0  0  0  0  0  0  0  0
  -29.6498  -19.5253   18.8692 C   0  0  0  0  0  0  0  0  0  0  0  0
  -36.7223  -26.7759   20.3230 C   0  0  1  0  0  0  0  0  0  0  0  0
  -33.4269  -28.5731   19.7371 C   0  0  1  0  0  0  0  0  0  0  0  0
  -32.0138  -18.6063   19.1859 C   0  0  2  0  0  0  0  0  0  0  0  0
  -30.8506  -18.8525   18.1971 C   0  0  1  0  0  0  0  0  0  0  0  0
  -27.6052  -13.2355   19.7933 C   0  0  2  0  0  0  0  0  0  0  0  0
  -26.9902  -31.7838   21.9734 C   0  0  0  0  0  0  0  0  0  0  0  0
  -29.3426  -17.9044   16.4278 C   0  0  0  0  0  0  0  0  0  0  0  0
  -31.6009  -16.8842   16.8312 C   0  0  0  0  0  0  0  0  0  0  0  0
  -32.8349  -30.3267   24.3717 C   0  0  0  0  0  0  0  0  0  0  0  0
  -30.4044  -30.7975   24.7443 C   0  0  0  0  0  0  0  0  0  0  0  0
  -31.7468  -32.2828   23.2563 C   0  0  0  0  0  0  0  0  0  0  0  0
  -32.7297  -13.7302   20.3957 C   0  0  0  0  0  0  0  0  0  0  0  0
  -26.9292  -28.3552   20.3251 C   0  0  0  0  0  0  0  0  0  0  0  0
  -31.7420  -17.4896   20.2014 C   0  0  0  0  0  0  0  0  0  0  0  0
  -33.0463  -16.8691   20.6926 C   0  0  0  0  0  0  0  0  0  0  0  0
  -32.8097  -15.7928   21.7468 C   0  0  0  0  0  0  0  0  0  0  0  0
  -28.9283  -21.5612   20.1146 C   0  0  0  0  0  0  0  0  0  0  0  0
  -29.2719  -23.0362   20.1817 C   0  0  0  0  0  0  0  0  0  1  0  0
  -31.1339  -29.9615   22.4640 C   0  0  1  0  0  0  0  0  0  0  0  0
  -27.5849  -30.5687   21.2787 C   0  0  2  0  0  0  0  0  0  0  0  0
  -30.4048  -17.5802   17.4746 C   0  0  0  0  0  0  0  0  0  0  0  0
  -31.5384  -30.8176   23.6973 C   0  0  0  0  0  0  0  0  0  0  0  0
  -25.8687  -11.5784   20.3605 N   0  0  0  0  0  0  0  0  0  0  0  0
  -26.1906  -12.8742   20.2075 N   0  0  0  0  0  0  0  0  0  0  0  0
  -32.2828  -28.7580   20.6322 N   0  0  0  0  0  0  0  0  0  0  0  0
  -29.8770  -13.8130   20.5985 N   0  0  0  0  0  0  0  0  0  0  0  0
  -25.3101  -15.0686   20.3488 N   0  0  0  0  0  0  0  0  0  0  0  0
  -21.7940  -12.4616   21.4606 N   0  0  0  0  0  0  0  0  0  0  0  0
  -35.6150  -27.5401   19.7898 N   0  0  0  0  0  0  0  0  0  0  0  0
  -29.9244  -30.4198   21.7892 N   0  0  0  0  0  0  0  0  0  0  0  0
  -32.0139  -14.6840   21.2399 N   0  0  0  0  0  0  0  0  0  0  0  0
  -30.0936  -20.8057   19.5362 N   0  3  1  0  0  0  0  0  0  0  0  0
  -26.4901  -29.5900   21.0247 N   0  3  0  0  0  0  0  0  0  0  0  0
  -22.4806  -14.6268   21.1461 O   0  0  0  0  0  0  0  0  0  0  0  0
  -34.1703  -27.3340   21.6045 O   0  0  0  0  0  0  0  0  0  0  0  0
  -32.9682  -30.8900   21.2810 O   0  0  0  0  0  0  0  0  0  0  0  0
  -28.4474  -29.0891   22.9829 O   0  0  0  0  0  0  0  0  0  0  0  0
  -30.0595  -15.5650   22.0872 O   0  0  0  0  0  0  0  0  0  0  0  0
  -21.7773   -6.8970   21.7357 O   0  0  0  0  0  0  0  0  0  0  0  0
  -29.5322  -23.5263   18.8670 O   0  0  0  0  0  0  0  0  0  1  0  0
  -24.7081   -2.2805   22.4443 F   0  0  0  0  0  0  0  0  0  0  0  0
  -21.6289   -5.4716   24.0998 F   0  0  0  0  0  0  0  0  0  0  0  0
  1  2  1  0  0  0  0
  1  5  2  0  0  0  0
  2  6  2  0  0  0  0
  3  8  2  0  0  0  0
  3 15  1  0  0  0  0
  4  9  1  0  0  0  0
  4 15  2  0  0  0  0
  5 17  1  0  0  0  0
  6 19  1  0  0  0  0
  7 10  2  0  0  0  0
  7 18  1  0  0  0  0
  8 21  1  0  0  0  0
  9 21  2  0  0  0  0
 10 22  1  0  0  0  0
 11 12  2  0  0  0  0
 11 23  1  0  0  0  0
 12 24  1  0  0  0  0
 13 20  1  0  0  0  0
 13 22  2  0  0  0  0
 14 24  2  0  0  0  0
 14 25  1  0  0  0  0
 15 26  1  0  0  0  0
 16 26  1  0  0  0  0
 16 27  2  0  0  0  0
 16 28  1  0  0  0  0
 17 19  2  0  0  0  0
 17 33  1  0  0  0  0
 18 20  2  0  0  0  0
 18 34  1  0  0  0  0
 19 45  1  0  0  0  0
 20 35  1  0  0  0  0
 21 83  1  0  0  0  0
 22 84  1  0  0  0  0
 23 25  2  0  0  0  0
 23 83  1  0  0  0  0
 24 85  1  0  0  0  0
 25 86  1  0  0  0  0
 26 67  2  0  0  0  0
 27 68  1  0  0  0  0
 27 71  1  0  0  0  0
 28 72  1  0  0  0  0
 28 78  2  0  0  0  0
 29 46  1  0  0  0  0
 29 73  1  0  0  0  0
 29 79  2  0  0  0  0
 30 63  1  0  0  0  0
 30 69  1  0  0  0  0
 30 80  2  0  0  0  0
 31 64  1  0  0  0  0
 31 74  1  0  0  0  0
 31 81  2  0  0  0  0
 32 70  1  0  0  0  0
 32 75  1  0  0  0  0
 32 82  2  0  0  0  0
 33 36  1  0  0  0  0
 34 46  1  0  0  0  0
 35 69  1  0  0  0  0
 36 38  1  0  0  0  0
 37 39  1  0  0  0  0
 37 41  1  0  0  0  0
 38 45  1  0  0  0  0
 39 49  1  0  0  0  0
 40 43  1  0  0  0  0
 40 47  1  0  0  0  0
 41 70  1  0  0  0  0
 42 49  1  0  0  0  0
 42 70  1  0  0  0  0
 43 76  1  0  0  0  0
 44 48  1  0  0  0  0
 44 76  1  0  0  0  0
 45 73  1  0  0  0  0
 46 69  1  0  0  0  0
 47 48  1  0  0  0  0
 47 58  1  0  0  0  0
 48 65  1  0  0  0  0
 49 68  1  0  0  0  0
 50 64  1  0  0  0  0
 51 65  1  0  0  0  0
 52 65  1  0  0  0  0
 53 66  1  0  0  0  0
 54 66  1  0  0  0  0
 55 66  1  0  0  0  0
 56 75  1  0  0  0  0
 57 77  1  0  0  0  0
 58 59  1  0  0  0  0
 59 60  1  0  0  0  0
 60 75  1  0  0  0  0
 61 62  1  0  0  0  0
 61 76  1  0  0  0  0
 62 84  1  0  0  0  0
 63 66  1  0  0  0  0
 63 74  1  0  0  0  0
 64 77  1  0  0  0  0
 67 68  1  0  0  0  0
M  CHG  2  76   1  77   1
M  ISO  4  32 100  62 101  75 100  84 101
M  END
> <Batch ID>
0100

> <Smiles>
CNC(C)C(=O)NC(C(=O)N1Cc2cc([101O:1][101CH2:1]CN3CCC(CCC[100N:0](C)[100C:0](=O)N4CCCC(n5nc(-c6ccc(Oc7ccc(F)cc7F)cc6)c(C(N)=O)c5N)C4)C(C(C)C)C3)ccc2CC1C(=O)NC1CCCc2ccccc21)C(C)(C)C

> <Shape>
0.267

> <Color>
0.182

> <Negative vol penalty>
0.000

$$$$

  -OEChem-04052319333D

 91 99  0     1  0  0  0  0  0999 V2000
  -27.1371  -24.0795   17.0276 C   0  0  0  0  0  0  0  0  0  0  0  0
  -25.9954  -24.4359   17.7382 C   0  0  0  0  0  0  0  0  0  0  0  0
  -27.0384  -13.1794   20.3467 C   0  0  0  0  0  0  0  0  0  0  0  0
  -24.7215  -13.8503   20.4853 C   0  0  0  0  0  0  0  0  0  0  0  0
  -28.3932  -24.4767   17.4840 C   0  0  0  0  0  0  0  0  0  0  0  0
  -26.1093  -25.1887   18.9064 C   0  0  0  0  0  0  0  0  0  0  0  0
  -22.7314  -28.9552   19.1273 C   0  0  0  0  0  0  0  0  0  0  0  0
  -21.0831  -25.3645   22.4908 C   0  0  0  0  0  0  0  0  0  0  0  0
  -26.7265  -11.9727   20.9730 C   0  0  0  0  0  0  0  0  0  0  0  0
  -24.4096  -12.6436   21.1115 C   0  0  0  0  0  0  0  0  0  0  0  0
  -21.4251  -28.6190   19.4799 C   0  0  0  0  0  0  0  0  0  0  0  0
  -22.9392   -9.5876   22.4220 C   0  0  0  0  0  0  0  0  0  0  0  0
  -21.8041   -8.9042   21.9859 C   0  0  0  0  0  0  0  0  0  0  0  0
  -22.0107  -24.3524   22.2707 C   0  0  0  0  0  0  0  0  0  0  0  0
  -21.8490  -29.3623   21.7353 C   0  0  0  0  0  0  0  0  0  0  0  0
  -22.7518   -8.7445   19.7693 C   0  0  0  0  0  0  0  0  0  0  0  0
  -26.0359  -14.1182   20.1029 C   0  0  0  0  0  0  0  0  0  0  0  0
  -26.3522  -15.6324   18.0744 C   0  0  0  0  0  0  0  0  0  0  0  0
  -28.5218  -25.2431   18.6531 C   0  0  0  0  0  0  0  0  0  0  0  0
  -23.6111  -29.4882   20.0804 C   0  0  0  0  0  0  0  0  0  0  0  0
  -27.3684  -25.5954   19.3796 C   0  0  0  0  0  0  0  0  0  0  0  0
  -23.1651  -29.7068   21.3916 C   0  0  0  0  0  0  0  0  0  0  0  0
  -19.7241  -25.0888   22.3882 C   0  0  0  0  0  0  0  0  0  0  0  0
  -25.4121  -11.7048   21.3554 C   0  0  0  0  0  0  0  0  0  0  0  0
  -20.9845  -28.8199   20.7847 C   0  0  0  0  0  0  0  0  0  0  0  0
  -23.9806   -9.8494   21.5316 C   0  0  0  0  0  0  0  0  0  0  0  0
  -21.7104   -8.4827   20.6596 C   0  0  0  0  0  0  0  0  0  0  0  0
  -23.8869   -9.4279   20.2053 C   0  0  0  0  0  0  0  0  0  0  0  0
  -26.3576  -15.3651   19.4566 C   0  0  0  0  0  0  0  0  0  0  0  0
  -21.5318  -23.0916   21.9533 C   0  0  0  0  0  0  0  0  0  0  0  0
  -19.3476  -23.7950   22.0653 C   0  0  0  0  0  0  0  0  0  0  0  0
  -26.7271  -16.9502   17.9781 C   0  0  0  0  0  0  0  0  0  0  0  0
  -26.0363  -14.7669   16.9759 C   0  0  0  0  0  0  0  0  0  0  0  0
  -26.3777  -28.5642   21.3437 C   0  0  0  0  0  0  0  0  0  0  0  0
  -26.2674  -31.4872   22.7460 C   0  0  0  0  0  0  0  0  0  0  0  0
  -24.3743  -34.1160   23.8195 C   0  0  0  0  0  0  0  0  0  0  0  0
  -26.3644  -21.5796   21.7581 C   0  0  0  0  0  0  0  0  0  0  0  0
  -29.9041  -25.6088   19.1329 C   0  0  0  0  0  0  0  0  0  0  0  0
  -25.0089  -29.8705   19.6775 C   0  0  0  0  0  0  0  0  0  0  0  0
  -24.0641  -30.2950   22.4473 C   0  0  0  0  0  0  0  0  0  0  0  0
  -29.9117  -26.7231   20.1762 C   0  0  0  0  0  0  0  0  0  0  0  0
  -29.3113  -20.2829   20.2378 C   0  0  0  0  0  0  0  0  0  0  0  0
  -28.8566  -26.4600   21.2460 C   0  0  0  0  0  0  0  0  0  0  0  0
  -28.8880  -18.8996   19.7405 C   0  0  0  0  0  0  0  0  0  0  0  0
  -28.6456  -20.6328   21.5669 C   0  0  0  0  0  0  0  0  0  0  0  0
  -26.7519  -19.1342   21.0750 C   0  0  0  0  0  0  0  0  0  0  0  0
  -27.4492  -26.4325   20.6378 C   0  0  1  0  0  0  0  0  0  0  0  0
  -25.9760  -29.9275   20.8560 C   0  0  1  0  0  0  0  0  0  0  0  0
  -27.3541  -18.7599   19.7099 C   0  0  2  0  0  0  0  0  0  0  0  0
  -22.5828  -22.3944   19.1215 C   0  0  0  0  0  0  0  0  0  0  0  0
  -22.3036  -21.0826   24.1705 C   0  0  0  0  0  0  0  0  0  0  0  0
  -24.5628  -36.3432   24.9603 C   0  0  0  0  0  0  0  0  0  0  0  0
  -15.8533  -21.9303   18.9728 C   0  0  0  0  0  0  0  0  0  0  0  0
  -15.6533  -21.4246   21.4150 C   0  0  0  0  0  0  0  0  0  0  0  0
  -26.6652  -30.0793   25.4236 C   0  0  0  0  0  0  0  0  0  0  0  0
  -25.9040  -32.1762   26.5601 C   0  0  0  0  0  0  0  0  0  0  0  0
  -27.9657  -32.1986   25.1560 C   0  0  0  0  0  0  0  0  0  0  0  0
  -23.2559  -35.5400   21.4785 C   0  0  0  0  0  0  0  0  0  0  0  0
  -18.7134  -26.1825   22.6245 C   0  0  0  0  0  0  0  0  0  0  0  0
  -17.9018  -23.4402   21.9445 C   0  0  0  0  0  0  0  0  0  0  0  0
  -22.3457  -21.3879   20.2443 C   0  0  0  0  0  0  0  0  0  0  0  0
  -22.2073  -20.7564   22.6827 C   0  0  0  0  0  0  0  0  0  0  0  0
  -18.0909  -26.7339   21.3400 C   0  0  0  0  0  0  0  0  0  0  0  0
  -17.5612  -22.8815   20.5512 C   0  0  0  0  0  0  0  0  0  0  0  0
  -24.0213  -22.3863   21.8924 C   0  0  0  0  0  0  0  0  0  0  0  0
  -19.1011  -27.4136   20.4229 C   0  0  0  0  0  0  0  0  0  1  0  0
  -25.7051  -32.0335   24.0360 C   0  0  1  0  0  0  0  0  0  0  0  0
  -24.5287  -35.6138   23.6263 C   0  0  2  0  0  0  0  0  0  0  0  0
  -16.0864  -22.4699   20.3862 C   0  0  0  0  0  0  0  0  0  0  0  0
  -22.4994  -21.9813   21.7123 C   0  0  0  0  0  0  0  0  0  0  0  0
  -26.5434  -31.6090   25.2748 C   0  0  0  0  0  0  0  0  0  0  0  0
  -26.7085  -16.4277   20.1859 N   0  0  0  0  0  0  0  0  0  0  0  0
  -20.2195  -22.7857   21.8445 N   0  0  0  0  0  0  0  0  0  0  0  0
  -26.9270  -17.3755   19.2584 N   0  0  0  0  0  0  0  0  0  0  0  0
  -25.4238  -30.6467   22.0059 N   0  0  0  0  0  0  0  0  0  0  0  0
  -27.1917  -20.4816   21.4700 N   0  0  0  0  0  0  0  0  0  0  0  0
  -26.9022  -17.7751   16.9238 N   0  0  0  0  0  0  0  0  0  0  0  0
  -25.6701  -13.4426   17.2525 N   0  0  0  0  0  0  0  0  0  0  0  0
  -26.9829  -27.7784   20.3816 N   0  0  0  0  0  0  0  0  0  0  0  0
  -25.5957  -33.4770   23.8548 N   0  0  0  0  0  0  0  0  0  0  0  0
  -24.9991  -21.3525   21.6357 N   0  0  0  0  0  0  0  0  0  0  0  0
  -23.3936  -36.1524   22.8250 N   0  3  0  0  0  0  0  0  0  0  0  0
  -26.0934  -15.1517   15.7833 O   0  0  0  0  0  0  0  0  0  0  0  0
  -26.1565  -28.2493   22.5071 O   0  0  0  0  0  0  0  0  0  0  0  0
  -27.4104  -31.8006   22.4039 O   0  0  0  0  0  0  0  0  0  0  0  0
  -23.2799  -33.5682   23.9319 O   0  0  0  0  0  0  0  0  0  0  0  0
  -26.8098  -22.6822   22.0940 O   0  0  0  0  0  0  0  0  0  0  0  0
  -25.1073  -10.5273   21.9663 O   0  0  0  0  0  0  0  0  0  0  0  0
  -19.7102  -28.4920   21.1317 O   0  0  0  0  0  0  0  0  0  1  0  0
  -20.6209   -7.8251   20.2414 F   0  0  0  0  0  0  0  0  0  0  0  0
  -24.8846   -9.6755   19.3457 F   0  0  0  0  0  0  0  0  0  0  0  0
  1  2  1  0  0  0  0
  1  5  2  0  0  0  0
  2  6  2  0  0  0  0
  3  9  2  0  0  0  0
  3 17  1  0  0  0  0
  4 10  1  0  0  0  0
  4 17  2  0  0  0  0
  5 19  1  0  0  0  0
  6 21  1  0  0  0  0
  7 11  2  0  0  0  0
  7 20  1  0  0  0  0
  8 14  2  0  0  0  0
  8 23  1  0  0  0  0
  9 24  1  0  0  0  0
 10 24  2  0  0  0  0
 11 25  1  0  0  0  0
 12 13  2  0  0  0  0
 12 26  1  0  0  0  0
 13 27  1  0  0  0  0
 14 30  1  0  0  0  0
 15 22  1  0  0  0  0
 15 25  2  0  0  0  0
 16 27  2  0  0  0  0
 16 28  1  0  0  0  0
 17 29  1  0  0  0  0
 18 29  1  0  0  0  0
 18 32  2  0  0  0  0
 18 33  1  0  0  0  0
 19 21  2  0  0  0  0
 19 38  1  0  0  0  0
 20 22  2  0  0  0  0
 20 39  1  0  0  0  0
 21 47  1  0  0  0  0
 22 40  1  0  0  0  0
 23 31  2  0  0  0  0
 23 59  1  0  0  0  0
 24 88  1  0  0  0  0
 25 89  1  0  0  0  0
 26 28  2  0  0  0  0
 26 88  1  0  0  0  0
 27 90  1  0  0  0  0
 28 91  1  0  0  0  0
 29 72  2  0  0  0  0
 30 70  1  0  0  0  0
 30 73  2  0  0  0  0
 31 60  1  0  0  0  0
 31 73  1  0  0  0  0
 32 74  1  0  0  0  0
 32 77  1  0  0  0  0
 33 78  1  0  0  0  0
 33 83  2  0  0  0  0
 34 48  1  0  0  0  0
 34 79  1  0  0  0  0
 34 84  2  0  0  0  0
 35 67  1  0  0  0  0
 35 75  1  0  0  0  0
 35 85  2  0  0  0  0
 36 68  1  0  0  0  0
 36 80  1  0  0  0  0
 36 86  2  0  0  0  0
 37 76  1  0  0  0  0
 37 81  1  0  0  0  0
 37 87  2  0  0  0  0
 38 41  1  0  0  0  0
 39 48  1  0  0  0  0
 40 75  1  0  0  0  0
 41 43  1  0  0  0  0
 42 44  1  0  0  0  0
 42 45  1  0  0  0  0
 43 47  1  0  0  0  0
 44 49  1  0  0  0  0
 45 76  1  0  0  0  0
 46 49  1  0  0  0  0
 46 76  1  0  0  0  0
 47 79  1  0  0  0  0
 48 75  1  0  0  0  0
 49 74  1  0  0  0  0
 50 61  1  0  0  0  0
 51 62  1  0  0  0  0
 52 68  1  0  0  0  0
 53 69  1  0  0  0  0
 54 69  1  0  0  0  0
 55 71  1  0  0  0  0
 56 71  1  0  0  0  0
 57 71  1  0  0  0  0
 58 82  1  0  0  0  0
 59 63  1  0  0  0  0
 60 64  1  0  0  0  0
 61 70  1  0  0  0  0
 62 70  1  0  0  0  0
 63 66  1  0  0  0  0
 64 69  1  0  0  0  0
 65 70  1  0  0  0  0
 65 81  1  0  0  0  0
 66 89  1  0  0  0  0
 67 71  1  0  0  0  0
 67 80  1  0  0  0  0
 68 82  1  0  0  0  0
 72 74  1  0  0  0  0
M  CHG  1  82   1
M  ISO  4  37 100  66 101  81 100  89 101
M  END
> <Batch ID>
0100

> <Smiles>
CCC(CC)(C[100NH:0][100C:0](=O)N1CCCC(n2nc(-c3ccc(Oc4ccc(F)cc4F)cc3)c(C(N)=O)c2N)C1)c1ccc(CC[101CH2:1][101O:1]c2ccc3c(c2)CN(C(=O)C(NC(=O)C(C)NC)C(C)(C)C)C(C(=O)NC2CCCc4ccccc42)C3)c(CCC(C)C)n1

> <Shape>
0.304

> <Color>
0.082

> <Negative vol penalty>
0.000

$$$$

  -OEChem-04052319333D

 83 91  0     1  0  0  0  0  0999 V2000
  -28.8519  -31.3368   27.0928 C   0  0  0  0  0  0  0  0  0  0  0  0
  -28.7002  -30.3317   26.1430 C   0  0  0  0  0  0  0  0  0  0  0  0
  -21.8620  -13.4080   21.5082 C   0  0  0  0  0  0  0  0  0  0  0  0
  -21.9906  -13.0320   19.1251 C   0  0  0  0  0  0  0  0  0  0  0  0
  -27.7350  -32.0309   27.5561 C   0  0  0  0  0  0  0  0  0  0  0  0
  -27.4311  -30.0193   25.6567 C   0  0  0  0  0  0  0  0  0  0  0  0
  -27.3632  -29.4566   20.6245 C   0  0  0  0  0  0  0  0  0  0  0  0
  -20.4915  -13.6421   21.3974 C   0  0  0  0  0  0  0  0  0  0  0  0
  -20.6200  -13.2661   19.0142 C   0  0  0  0  0  0  0  0  0  0  0  0
  -27.8478  -28.2541   20.1116 C   0  0  0  0  0  0  0  0  0  0  0  0
  -17.6688  -11.8078   21.0803 C   0  0  0  0  0  0  0  0  0  0  0  0
  -16.8298  -11.2006   22.0146 C   0  0  0  0  0  0  0  0  0  0  0  0
  -25.5851  -27.4563   19.8606 C   0  0  0  0  0  0  0  0  0  0  0  0
  -16.0533  -13.3739   22.7296 C   0  0  0  0  0  0  0  0  0  0  0  0
  -22.6117  -13.1030   20.3721 C   0  0  0  0  0  0  0  0  0  0  0  0
  -24.6638  -11.6268   20.7148 C   0  0  0  0  0  0  0  0  0  0  0  0
  -26.4528  -31.7334   27.0682 C   0  0  0  0  0  0  0  0  0  0  0  0
  -25.9840  -29.6641   20.7697 C   0  0  0  0  0  0  0  0  0  0  0  0
  -26.2959  -30.7091   26.1150 C   0  0  0  0  0  0  0  0  0  0  0  0
  -25.0855  -28.6633   20.3732 C   0  0  0  0  0  0  0  0  0  0  0  0
  -19.8704  -13.5711   20.1504 C   0  0  0  0  0  0  0  0  0  0  0  0
  -26.9588  -27.2527   19.7323 C   0  0  0  0  0  0  0  0  0  0  0  0
  -17.7001  -13.1980   20.9706 C   0  0  0  0  0  0  0  0  0  0  0  0
  -16.0220  -11.9836   22.8393 C   0  0  0  0  0  0  0  0  0  0  0  0
  -16.8923  -13.9810   21.7952 C   0  0  0  0  0  0  0  0  0  0  0  0
  -24.0276  -12.8616   20.4858 C   0  0  0  0  0  0  0  0  0  0  0  0
  -26.0032  -11.9299   20.7384 C   0  0  0  0  0  0  0  0  0  0  0  0
  -24.0948  -10.3225   20.8903 C   0  0  0  0  0  0  0  0  0  0  0  0
  -24.0444  -30.2109   23.2279 C   0  0  0  0  0  0  0  0  0  0  0  0
  -21.8288  -30.6009   20.8909 C   0  0  0  0  0  0  0  0  0  0  0  0
  -20.8411  -29.9298   17.6939 C   0  0  0  0  0  0  0  0  0  0  0  0
  -28.7777  -16.9997   21.9605 C   0  0  0  0  0  0  0  0  0  0  0  0
  -25.2699  -32.4787   27.6339 C   0  0  0  0  0  0  0  0  0  0  0  0
  -25.4763  -30.9771   21.2995 C   0  0  0  0  0  0  0  0  0  0  0  0
  -23.5948  -28.8443   20.4899 C   0  0  0  0  0  0  0  0  0  0  0  0
  -24.0042  -32.3417   26.7916 C   0  0  0  0  0  0  0  0  0  0  0  0
  -29.0399  -15.0567   18.9295 C   0  0  0  0  0  0  0  0  0  0  0  0
  -23.7791  -30.8849   26.3992 C   0  0  0  0  0  0  0  0  0  0  0  0
  -27.8258  -14.1335   19.0273 C   0  0  0  0  0  0  0  0  0  0  0  0
  -30.6613  -19.3690   19.9757 C   0  0  0  0  0  0  0  0  0  0  0  0
  -28.7519  -16.4445   19.5042 C   0  0  0  0  0  0  0  0  0  0  0  0
  -30.5042  -17.9047   20.3733 C   0  0  0  0  0  0  0  0  0  0  0  0
  -30.6259  -18.5119   22.7686 C   0  0  0  0  0  0  0  0  0  0  0  0
  -27.0101  -15.5011   20.9851 C   0  0  0  0  0  0  0  0  0  0  0  0
  -24.9386  -30.3581   25.5451 C   0  0  1  0  0  0  0  0  0  0  0  0
  -24.0703  -30.8822   21.8838 C   0  0  1  0  0  0  0  0  0  0  0  0
  -30.7733  -20.0032   22.4279 C   0  0  2  0  0  0  0  0  0  0  0  0
  -27.2863  -14.0808   20.4676 C   0  0  1  0  0  0  0  0  0  0  0  0
  -31.4265  -20.1527   21.0423 C   0  0  2  0  0  0  0  0  0  0  0  0
  -31.5662  -20.7068   23.5320 C   0  0  0  0  0  0  0  0  0  0  0  0
  -18.9660  -30.3549   16.0811 C   0  0  0  0  0  0  0  0  0  0  0  0
  -20.1123  -28.5413   22.3475 C   0  0  0  0  0  0  0  0  0  0  0  0
  -18.7472  -28.3068   20.2620 C   0  0  0  0  0  0  0  0  0  0  0  0
  -18.8484  -30.5011   21.4440 C   0  0  0  0  0  0  0  0  0  0  0  0
  -22.6330  -31.3294   15.7994 C   0  0  0  0  0  0  0  0  0  0  0  0
  -32.5662  -21.8821   19.6600 C   0  0  0  0  0  0  0  0  0  0  0  0
  -30.0911  -23.5846   20.1644 C   0  0  0  0  0  0  0  0  0  0  0  0
  -28.7407  -24.1174   19.6912 C   0  0  0  0  0  0  0  0  0  0  0  0
  -30.1254  -22.0643   20.1180 C   0  0  0  0  0  0  0  0  0  0  0  0
  -28.7054  -25.6391   19.6911 C   0  0  0  0  0  0  0  0  0  1  0  0
  -20.8710  -29.6890   20.1628 C   0  0  1  0  0  0  0  0  0  0  0  0
  -20.3169  -30.8320   16.5912 C   0  0  2  0  0  0  0  0  0  0  0  0
  -19.6728  -29.2551   21.0536 C   0  0  0  0  0  0  0  0  0  0  0  0
  -24.8918  -13.8737   20.3723 N   0  0  0  0  0  0  0  0  0  0  0  0
  -26.0847  -13.2754   20.5306 N   0  0  0  0  0  0  0  0  0  0  0  0
  -23.1478  -30.1432   21.0196 N   0  0  0  0  0  0  0  0  0  0  0  0
  -28.2028  -16.3418   20.8628 N   0  0  0  0  0  0  0  0  0  0  0  0
  -29.9231  -17.7737   21.7087 N   0  0  0  0  0  0  0  0  0  0  0  0
  -27.1075  -11.1740   20.9165 N   0  0  0  0  0  0  0  0  0  0  0  0
  -22.7007  -10.1890   20.8369 N   0  0  0  0  0  0  0  0  0  0  0  0
  -24.8216  -30.8362   24.1841 N   0  0  0  0  0  0  0  0  0  0  0  0
  -20.4856  -30.3915   18.9436 N   0  0  0  0  0  0  0  0  0  0  0  0
  -21.2697  -30.8569   15.4456 N   0  3  0  0  0  0  0  0  0  0  0  0
  -31.4569  -21.5845   20.6360 N   0  3  1  0  0  0  0  0  0  0  0  0
  -24.8009   -9.3082   21.1050 O   0  0  0  0  0  0  0  0  0  0  0  0
  -23.3680  -29.2014   23.3860 O   0  0  0  0  0  0  0  0  0  0  0  0
  -21.4233  -31.6828   21.3231 O   0  0  0  0  0  0  0  0  0  0  0  0
  -21.4968  -28.9150   17.4689 O   0  0  0  0  0  0  0  0  0  0  0  0
  -28.3008  -16.9013   23.0980 O   0  0  0  0  0  0  0  0  0  0  0  0
  -18.5330  -13.7992   20.0419 O   0  0  0  0  0  0  0  0  0  0  0  0
  -27.4326  -26.0691   19.2284 O   0  0  0  0  0  0  0  0  0  1  0  0
  -15.2153  -11.4004   23.7354 F   0  0  0  0  0  0  0  0  0  0  0  0
  -16.9172  -15.3170   21.6936 F   0  0  0  0  0  0  0  0  0  0  0  0
  1  2  1  0  0  0  0
  1  5  2  0  0  0  0
  2  6  2  0  0  0  0
  3  8  2  0  0  0  0
  3 15  1  0  0  0  0
  4  9  1  0  0  0  0
  4 15  2  0  0  0  0
  5 17  1  0  0  0  0
  6 19  1  0  0  0  0
  7 10  2  0  0  0  0
  7 18  1  0  0  0  0
  8 21  1  0  0  0  0
  9 21  2  0  0  0  0
 10 22  1  0  0  0  0
 11 12  2  0  0  0  0
 11 23  1  0  0  0  0
 12 24  1  0  0  0  0
 13 20  1  0  0  0  0
 13 22  2  0  0  0  0
 14 24  2  0  0  0  0
 14 25  1  0  0  0  0
 15 26  1  0  0  0  0
 16 26  1  0  0  0  0
 16 27  2  0  0  0  0
 16 28  1  0  0  0  0
 17 19  2  0  0  0  0
 17 33  1  0  0  0  0
 18 20  2  0  0  0  0
 18 34  1  0  0  0  0
 19 45  1  0  0  0  0
 20 35  1  0  0  0  0
 21 80  1  0  0  0  0
 22 81  1  0  0  0  0
 23 25  2  0  0  0  0
 23 80  1  0  0  0  0
 24 82  1  0  0  0  0
 25 83  1  0  0  0  0
 26 64  2  0  0  0  0
 27 65  1  0  0  0  0
 27 69  1  0  0  0  0
 28 70  1  0  0  0  0
 28 75  2  0  0  0  0
 29 46  1  0  0  0  0
 29 71  1  0  0  0  0
 29 76  2  0  0  0  0
 30 61  1  0  0  0  0
 30 66  1  0  0  0  0
 30 77  2  0  0  0  0
 31 62  1  0  0  0  0
 31 72  1  0  0  0  0
 31 78  2  0  0  0  0
 32 67  1  0  0  0  0
 32 68  1  0  0  0  0
 32 79  2  0  0  0  0
 33 36  1  0  0  0  0
 34 46  1  0  0  0  0
 35 66  1  0  0  0  0
 36 38  1  0  0  0  0
 37 39  1  0  0  0  0
 37 41  1  0  0  0  0
 38 45  1  0  0  0  0
 39 48  1  0  0  0  0
 40 42  1  0  0  0  0
 40 49  1  0  0  0  0
 41 67  1  0  0  0  0
 42 68  1  0  0  0  0
 43 47  1  0  0  0  0
 43 68  1  0  0  0  0
 44 48  1  0  0  0  0
 44 67  1  0  0  0  0
 45 71  1  0  0  0  0
 46 66  1  0  0  0  0
 47 49  1  0  0  0  0
 47 50  1  0  0  0  0
 48 65  1  0  0  0  0
 49 74  1  0  0  0  0
 51 62  1  0  0  0  0
 52 63  1  0  0  0  0
 53 63  1  0  0  0  0
 54 63  1  0  0  0  0
 55 73  1  0  0  0  0
 56 74  1  0  0  0  0
 57 58  1  0  0  0  0
 57 59  1  0  0  0  0
 58 60  1  0  0  0  0
 59 74  1  0  0  0  0
 60 81  1  0  0  0  0
 61 63  1  0  0  0  0
 61 72  1  0  0  0  0
 62 73  1  0  0  0  0
 64 65  1  0  0  0  0
M  CHG  2  73   1  74   1
M  ISO  4  32 100  60 101  68 100  81 101
M  END
> <Batch ID>
0100

> <Smiles>
CNC(C)C(=O)NC(C(=O)N1Cc2cc([101O:1][101CH2:1]CCCN(C)C3CC[100N:0]([100C:0](=O)N4CCCC(n5nc(-c6ccc(Oc7ccc(F)cc7F)cc6)c(C(N)=O)c5N)C4)CC3C)ccc2CC1C(=O)NC1CCCc2ccccc21)C(C)(C)C

> <Shape>
0.260

> <Color>
0.078

> <Negative vol penalty>
0.000

$$$$

  -OEChem-04052319333D

 88 96  0     1  0  0  0  0  0999 V2000
  -26.9258  -33.6800   26.9162 C   0  0  0  0  0  0  0  0  0  0  0  0
  -27.3029  -32.5723   26.1639 C   0  0  0  0  0  0  0  0  0  0  0  0
  -26.4973  -12.5140   21.5958 C   0  0  0  0  0  0  0  0  0  0  0  0
  -26.1391  -13.3955   19.3751 C   0  0  0  0  0  0  0  0  0  0  0  0
  -25.5771  -33.9170   27.1781 C   0  0  0  0  0  0  0  0  0  0  0  0
  -26.3314  -31.7002   25.6739 C   0  0  0  0  0  0  0  0  0  0  0  0
  -27.1299  -30.4206   20.8396 C   0  0  0  0  0  0  0  0  0  0  0  0
  -25.2071  -11.9840   21.5936 C   0  0  0  0  0  0  0  0  0  0  0  0
  -24.8489  -12.8654   19.3728 C   0  0  0  0  0  0  0  0  0  0  0  0
  -28.1086  -29.4599   20.5886 C   0  0  0  0  0  0  0  0  0  0  0  0
  -23.6210   -9.2951   20.2946 C   0  0  0  0  0  0  0  0  0  0  0  0
  -23.4568   -7.9871   20.7504 C   0  0  0  0  0  0  0  0  0  0  0  0
  -26.3927  -27.7793   20.3641 C   0  0  0  0  0  0  0  0  0  0  0  0
  -31.2480  -22.9519   17.3976 C   0  0  0  0  0  0  0  0  0  0  0  0
  -21.9712   -8.7777   22.4839 C   0  0  0  0  0  0  0  0  0  0  0  0
  -28.8270  -22.0902   18.3151 C   0  0  0  0  0  0  0  0  0  0  0  0
  -26.9633  -13.2198   20.4866 C   0  0  0  0  0  0  0  0  0  0  0  0
  -29.4750  -13.1378   20.0479 C   0  0  0  0  0  0  0  0  0  0  0  0
  -24.5879  -33.0527   26.6829 C   0  0  0  0  0  0  0  0  0  0  0  0
  -25.7736  -30.0651   20.8656 C   0  0  0  0  0  0  0  0  0  0  0  0
  -24.9683  -31.9251   25.9305 C   0  0  0  0  0  0  0  0  0  0  0  0
  -25.3986  -28.7378   20.6132 C   0  0  0  0  0  0  0  0  0  0  0  0
  -31.1637  -21.7305   18.0568 C   0  0  0  0  0  0  0  0  0  0  0  0
  -29.9339  -21.2842   18.5274 C   0  0  0  0  0  0  0  0  0  0  0  0
  -24.3829  -12.1597   20.4821 C   0  0  0  0  0  0  0  0  0  0  0  0
  -27.7403  -28.1385   20.3536 C   0  0  0  0  0  0  0  0  0  0  0  0
  -22.9604  -10.3444   20.9336 C   0  0  0  0  0  0  0  0  0  0  0  0
  -22.6319   -7.7283   21.8450 C   0  0  0  0  0  0  0  0  0  0  0  0
  -22.1355  -10.0857   22.0282 C   0  0  0  0  0  0  0  0  0  0  0  0
  -28.2958  -13.7681   20.4885 C   0  0  0  0  0  0  0  0  0  0  0  0
  -30.0823  -23.6830   17.2357 C   0  0  0  0  0  0  0  0  0  0  0  0
  -30.4616  -14.0701   20.2579 C   0  0  0  0  0  0  0  0  0  0  0  0
  -29.6618  -11.8270   19.4979 C   0  0  0  0  0  0  0  0  0  0  0  0
  -23.4799  -30.1285   23.0653 C   0  0  0  0  0  0  0  0  0  0  0  0
  -30.2993  -20.0639   20.6565 C   0  0  0  0  0  0  0  0  0  0  0  0
  -21.6056  -29.2278   20.5757 C   0  0  0  0  0  0  0  0  0  0  0  0
  -21.3756  -27.7463   17.5099 C   0  0  0  0  0  0  0  0  0  0  0  0
  -23.1460  -33.3240   27.0320 C   0  0  0  0  0  0  0  0  0  0  0  0
  -24.7284  -31.1184   21.1115 C   0  0  0  0  0  0  0  0  0  0  0  0
  -23.9549  -28.3086   20.6099 C   0  0  0  0  0  0  0  0  0  0  0  0
  -22.1539  -32.5584   26.1602 C   0  0  0  0  0  0  0  0  0  0  0  0
  -31.6013  -17.7586   23.0710 C   0  0  0  0  0  0  0  0  0  0  0  0
  -22.5707  -31.0965   26.0349 C   0  0  0  0  0  0  0  0  0  0  0  0
  -30.9858  -16.4219   22.6594 C   0  0  0  0  0  0  0  0  0  0  0  0
  -30.6405  -18.9166   22.8202 C   0  0  0  0  0  0  0  0  0  0  0  0
  -29.5277  -17.6643   20.9995 C   0  0  0  0  0  0  0  0  0  0  0  0
  -23.9422  -30.9697   25.3608 C   0  0  1  0  0  0  0  0  0  0  0  0
  -23.4107  -30.5446   21.6231 C   0  0  1  0  0  0  0  0  0  0  0  0
  -30.4772  -16.4711   21.2078 C   0  0  2  0  0  0  0  0  0  0  0  0
  -33.7884  -28.1949   17.3476 C   0  0  0  0  0  0  0  0  0  0  0  0
  -33.4524  -21.6420   19.1094 C   0  0  0  0  0  0  0  0  0  0  0  0
  -33.0307  -20.4838   16.9104 C   0  0  0  0  0  0  0  0  0  0  0  0
  -29.3175  -24.9627   15.2237 C   0  0  0  0  0  0  0  0  0  0  0  0
  -19.7057  -27.1237   15.7432 C   0  0  0  0  0  0  0  0  0  0  0  0
  -20.6657  -26.8870   22.2925 C   0  0  0  0  0  0  0  0  0  0  0  0
  -19.7794  -25.8089   20.2139 C   0  0  0  0  0  0  0  0  0  0  0  0
  -18.8598  -28.0014   20.9691 C   0  0  0  0  0  0  0  0  0  0  0  0
  -22.6990  -29.4588   15.4912 C   0  0  0  0  0  0  0  0  0  0  0  0
  -29.7872  -19.9849   19.2403 C   0  0  0  0  0  0  0  0  0  0  0  0
  -32.2910  -27.9687   17.4989 C   0  0  0  0  0  0  0  0  0  0  0  0
  -32.0009  -26.7496   18.3784 C   0  0  0  0  0  0  0  0  0  0  0  0
  -29.6577  -26.2044   17.3955 C   0  0  0  0  0  0  0  0  0  0  0  0
  -29.8911  -27.6393   19.4700 C   0  0  0  0  0  0  0  0  0  1  0  0
  -32.4017  -20.9183   18.2471 C   0  0  0  0  0  0  0  0  0  0  0  0
  -30.1360  -25.0222   16.5206 C   0  0  1  0  0  0  0  0  0  0  0  0
  -21.1838  -27.9072   19.9780 C   0  0  1  0  0  0  0  0  0  0  0  0
  -20.6841  -28.1812   16.2303 C   0  0  2  0  0  0  0  0  0  0  0  0
  -30.5069  -26.4846   18.6614 C   0  0  2  0  0  0  0  0  0  0  0  0
  -20.1496  -27.1585   20.8653 C   0  0  0  0  0  0  0  0  0  0  0  0
  -28.8696  -23.2823   17.6791 N   0  0  0  0  0  0  0  0  0  0  0  0
  -28.5115  -15.0049   20.9441 N   0  0  0  0  0  0  0  0  0  0  0  0
  -29.8377  -15.1594   20.7910 N   0  0  0  0  0  0  0  0  0  0  0  0
  -22.9704  -29.3739   20.8616 N   0  0  0  0  0  0  0  0  0  0  0  0
  -30.1628  -18.9154   21.4363 N   0  0  0  0  0  0  0  0  0  0  0  0
  -31.7932  -14.0560   20.0367 N   0  0  0  0  0  0  0  0  0  0  0  0
  -28.5411  -10.9983   19.3506 N   0  0  0  0  0  0  0  0  0  0  0  0
  -23.8209  -31.1509   23.9301 N   0  0  0  0  0  0  0  0  0  0  0  0
  -20.7118  -28.2018   18.6293 N   0  0  0  0  0  0  0  0  0  0  0  0
  -21.6877  -28.4235   15.1557 N   0  3  0  0  0  0  0  0  0  0  0  0
  -30.7916  -11.3971   19.1628 O   0  0  0  0  0  0  0  0  0  0  0  0
  -23.2401  -28.9662   23.3709 O   0  0  0  0  0  0  0  0  0  0  0  0
  -30.8079  -21.1150   21.0550 O   0  0  0  0  0  0  0  0  0  0  0  0
  -20.7565  -30.1003   20.7746 O   0  0  0  0  0  0  0  0  0  0  0  0
  -22.4000  -27.0672   17.5157 O   0  0  0  0  0  0  0  0  0  0  0  0
  -23.1239  -11.6424   20.4794 O   0  0  0  0  0  0  0  0  0  0  0  0
  -28.6936  -27.1987   20.1089 O   0  0  0  0  0  0  0  0  0  1  0  0
  -22.4730   -6.4720   22.2816 F   0  0  0  0  0  0  0  0  0  0  0  0
  -21.4973  -11.0895   22.6453 F   0  0  0  0  0  0  0  0  0  0  0  0
  1  2  1  0  0  0  0
  1  5  2  0  0  0  0
  2  6  2  0  0  0  0
  3  8  2  0  0  0  0
  3 17  1  0  0  0  0
  4  9  1  0  0  0  0
  4 17  2  0  0  0  0
  5 19  1  0  0  0  0
  6 21  1  0  0  0  0
  7 10  2  0  0  0  0
  7 20  1  0  0  0  0
  8 25  1  0  0  0  0
  9 25  2  0  0  0  0
 10 26  1  0  0  0  0
 11 12  2  0  0  0  0
 11 27  1  0  0  0  0
 12 28  1  0  0  0  0
 13 22  1  0  0  0  0
 13 26  2  0  0  0  0
 14 23  2  0  0  0  0
 14 31  1  0  0  0  0
 15 28  2  0  0  0  0
 15 29  1  0  0  0  0
 16 24  2  0  0  0  0
 16 70  1  0  0  0  0
 17 30  1  0  0  0  0
 18 30  1  0  0  0  0
 18 32  2  0  0  0  0
 18 33  1  0  0  0  0
 19 21  2  0  0  0  0
 19 38  1  0  0  0  0
 20 22  2  0  0  0  0
 20 39  1  0  0  0  0
 21 47  1  0  0  0  0
 22 40  1  0  0  0  0
 23 24  1  0  0  0  0
 23 64  1  0  0  0  0
 24 59  1  0  0  0  0
 25 85  1  0  0  0  0
 26 86  1  0  0  0  0
 27 29  2  0  0  0  0
 27 85  1  0  0  0  0
 28 87  1  0  0  0  0
 29 88  1  0  0  0  0
 30 71  2  0  0  0  0
 31 65  1  0  0  0  0
 31 70  2  0  0  0  0
 32 72  1  0  0  0  0
 32 75  1  0  0  0  0
 33 76  1  0  0  0  0
 33 80  2  0  0  0  0
 34 48  1  0  0  0  0
 34 77  1  0  0  0  0
 34 81  2  0  0  0  0
 35 59  1  0  0  0  0
 35 74  1  0  0  0  0
 35 82  2  0  0  0  0
 36 66  1  0  0  0  0
 36 73  1  0  0  0  0
 36 83  2  0  0  0  0
 37 67  1  0  0  0  0
 37 78  1  0  0  0  0
 37 84  2  0  0  0  0
 38 41  1  0  0  0  0
 39 48  1  0  0  0  0
 40 73  1  0  0  0  0
 41 43  1  0  0  0  0
 42 44  1  0  0  0  0
 42 45  1  0  0  0  0
 43 47  1  0  0  0  0
 44 49  1  0  0  0  0
 45 74  1  0  0  0  0
 46 49  1  0  0  0  0
 46 74  1  0  0  0  0
 47 77  1  0  0  0  0
 48 73  1  0  0  0  0
 49 72  1  0  0  0  0
 50 60  1  0  0  0  0
 51 64  1  0  0  0  0
 52 64  1  0  0  0  0
 53 65  1  0  0  0  0
 54 67  1  0  0  0  0
 55 69  1  0  0  0  0
 56 69  1  0  0  0  0
 57 69  1  0  0  0  0
 58 79  1  0  0  0  0
 60 61  1  0  0  0  0
 61 68  1  0  0  0  0
 62 65  1  0  0  0  0
 62 68  1  0  0  0  0
 63 68  1  0  0  0  0
 63 86  1  0  0  0  0
 66 69  1  0  0  0  0
 66 78  1  0  0  0  0
 67 79  1  0  0  0  0
 71 72  1  0  0  0  0
M  CHG  1  79   1
M  ISO  4  35 100  59 100  63 101  86 101
M  END
> <Batch ID>
0100

> <Smiles>
CCCC(CC(C)c1cc(C(C)C)c([100CH2:0][100C:0](=O)N2CCCC(n3nc(-c4ccc(Oc5ccc(F)cc5F)cc4)c(C(N)=O)c3N)C2)cn1)[101CH2:1][101O:1]c1ccc2c(c1)CN(C(=O)C(NC(=O)C(C)NC)C(C)(C)C)C(C(=O)NC1CCCc3ccccc31)C2

> <Shape>
0.345

> <Color>
0.099

> <Negative vol penalty>
0.000

$$$$

  -OEChem-04052319333D

 87 95  0     1  0  0  0  0  0999 V2000
  -28.5517  -32.8887   23.0341 C   0  0  0  0  0  0  0  0  0  0  0  0
  -28.5609  -31.4983   22.9861 C   0  0  0  0  0  0  0  0  0  0  0  0
  -25.1775  -13.7888   21.8453 C   0  0  0  0  0  0  0  0  0  0  0  0
  -25.8146  -13.2843   19.5701 C   0  0  0  0  0  0  0  0  0  0  0  0
  -27.3634  -33.5680   23.2997 C   0  0  0  0  0  0  0  0  0  0  0  0
  -27.3821  -30.7864   23.2049 C   0  0  0  0  0  0  0  0  0  0  0  0
  -26.7219  -27.0455   19.8560 C   0  0  0  0  0  0  0  0  0  0  0  0
  -24.5727  -12.5366   21.9537 C   0  0  0  0  0  0  0  0  0  0  0  0
  -25.2099  -12.0320   19.6784 C   0  0  0  0  0  0  0  0  0  0  0  0
  -27.4559  -25.8768   20.0539 C   0  0  0  0  0  0  0  0  0  0  0  0
  -25.5429   -9.3372   22.4590 C   0  0  0  0  0  0  0  0  0  0  0  0
  -25.7857   -8.5980   23.6167 C   0  0  0  0  0  0  0  0  0  0  0  0
  -25.5183  -24.8346   21.0431 C   0  0  0  0  0  0  0  0  0  0  0  0
  -30.7823  -24.5430   19.5106 C   0  0  0  0  0  0  0  0  0  0  0  0
  -23.4202   -8.5900   24.1079 C   0  0  0  0  0  0  0  0  0  0  0  0
  -25.7984  -14.1627   20.6535 C   0  0  0  0  0  0  0  0  0  0  0  0
  -27.7582  -15.7848   20.8416 C   0  0  0  0  0  0  0  0  0  0  0  0
  -26.1674  -32.8643   23.5123 C   0  0  0  0  0  0  0  0  0  0  0  0
  -25.3814  -27.1213   20.2607 C   0  0  0  0  0  0  0  0  0  0  0  0
  -26.1770  -31.4569   23.4749 C   0  0  0  0  0  0  0  0  0  0  0  0
  -24.7687  -26.0045   20.8468 C   0  0  0  0  0  0  0  0  0  0  0  0
  -31.3813  -24.5161   18.2561 C   0  0  0  0  0  0  0  0  0  0  0  0
  -30.8395  -23.7240   17.2500 C   0  0  0  0  0  0  0  0  0  0  0  0
  -24.5889  -11.6582   20.8703 C   0  0  0  0  0  0  0  0  0  0  0  0
  -26.8550  -24.7721   20.6502 C   0  0  0  0  0  0  0  0  0  0  0  0
  -24.2387   -9.7029   22.1258 C   0  0  0  0  0  0  0  0  0  0  0  0
  -24.7244   -8.2244   24.4411 C   0  0  0  0  0  0  0  0  0  0  0  0
  -23.1773   -9.3293   22.9502 C   0  0  0  0  0  0  0  0  0  0  0  0
  -26.4228  -15.4563   20.5407 C   0  0  0  0  0  0  0  0  0  0  0  0
  -29.6521  -23.7658   19.7065 C   0  0  0  0  0  0  0  0  0  0  0  0
  -29.7068  -22.9833   17.5471 C   0  0  0  0  0  0  0  0  0  0  0  0
  -27.8513  -17.1278   20.5690 C   0  0  0  0  0  0  0  0  0  0  0  0
  -28.8197  -14.9506   21.3243 C   0  0  0  0  0  0  0  0  0  0  0  0
  -23.7624  -28.9017   22.3374 C   0  0  0  0  0  0  0  0  0  0  0  0
  -21.2033  -27.3723   21.0592 C   0  0  0  0  0  0  0  0  0  0  0  0
  -19.9851  -24.6440   19.4100 C   0  0  0  0  0  0  0  0  0  0  0  0
  -26.7980  -21.5100   17.2778 C   0  0  0  0  0  0  0  0  0  0  0  0
  -24.9173  -33.6406   23.8428 C   0  0  0  0  0  0  0  0  0  0  0  0
  -24.5957  -28.3802   20.0158 C   0  0  0  0  0  0  0  0  0  0  0  0
  -23.3266  -26.0277   21.2806 C   0  0  0  0  0  0  0  0  0  0  0  0
  -23.6360  -32.8247   23.6924 C   0  0  0  0  0  0  0  0  0  0  0  0
  -24.2543  -20.5420   19.5733 C   0  0  0  0  0  0  0  0  0  0  0  0
  -23.7937  -31.4573   24.3499 C   0  0  0  0  0  0  0  0  0  0  0  0
  -24.6986  -19.1578   20.0492 C   0  0  0  0  0  0  0  0  0  0  0  0
  -24.5830  -20.7641   18.0986 C   0  0  0  0  0  0  0  0  0  0  0  0
  -26.4376  -19.1450   18.2122 C   0  0  0  0  0  0  0  0  0  0  0  0
  -24.9136  -30.6500   23.6823 C   0  0  1  0  0  0  0  0  0  0  0  0
  -23.3855  -28.5175   20.9345 C   0  0  1  0  0  0  0  0  0  0  0  0
  -26.1778  -18.8955   19.7077 C   0  0  2  0  0  0  0  0  0  0  0  0
  -31.4592  -23.6771   15.8939 C   0  0  0  0  0  0  0  0  0  0  0  0
  -28.7073  -22.6226   23.3215 C   0  0  0  0  0  0  0  0  0  0  0  0
  -17.8465  -23.6606   18.5401 C   0  0  0  0  0  0  0  0  0  0  0  0
  -36.3368  -24.7867   19.0445 C   0  0  0  0  0  0  0  0  0  0  0  0
  -35.4344  -25.7106   16.9015 C   0  0  0  0  0  0  0  0  0  0  0  0
  -20.4114  -26.5878   23.8995 C   0  0  0  0  0  0  0  0  0  0  0  0
  -18.8768  -24.8679   22.9222 C   0  0  0  0  0  0  0  0  0  0  0  0
  -18.5045  -27.2870   22.4404 C   0  0  0  0  0  0  0  0  0  0  0  0
  -20.9764  -24.6600   16.6215 C   0  0  0  0  0  0  0  0  0  0  0  0
  -32.6022  -25.3415   18.0169 C   0  0  0  0  0  0  0  0  0  0  0  0
  -29.0782  -22.1147   16.5069 C   0  0  0  0  0  0  0  0  0  0  0  0
  -29.4530  -22.6550   21.9957 C   0  0  0  0  0  0  0  0  0  0  0  0
  -33.8588  -24.7039   18.6372 C   0  0  0  0  0  0  0  0  0  0  0  0
  -28.9736  -23.7709   21.0565 C   0  0  2  0  0  0  0  0  0  1  0  0
  -20.4582  -26.0955   21.3655 C   0  0  1  0  0  0  0  0  0  0  0  0
  -19.0577  -24.5207   18.2145 C   0  0  2  0  0  0  0  0  0  0  0  0
  -35.1523  -25.5023   18.3901 C   0  0  0  0  0  0  0  0  0  0  0  0
  -19.5905  -26.2095   22.6506 C   0  0  0  0  0  0  0  0  0  0  0  0
  -25.7181  -16.5061   20.1101 N   0  0  0  0  0  0  0  0  0  0  0  0
  -29.0970  -22.9838   18.7536 N   0  0  0  0  0  0  0  0  0  0  0  0
  -26.6140  -17.5073   20.1385 N   0  0  0  0  0  0  0  0  0  0  0  0
  -22.6021  -27.2837   21.0255 N   0  0  0  0  0  0  0  0  0  0  0  0
  -26.0009  -20.5003   17.8418 N   0  0  0  0  0  0  0  0  0  0  0  0
  -28.8699  -18.0092   20.6580 N   0  0  0  0  0  0  0  0  0  0  0  0
  -28.5525  -13.5936   21.5512 N   0  0  0  0  0  0  0  0  0  0  0  0
  -24.4563  -30.0933   22.4272 N   0  0  0  0  0  0  0  0  0  0  0  0
  -19.7029  -25.7649   20.1619 N   0  0  0  0  0  0  0  0  0  0  0  0
  -28.1320  -21.1794   17.0732 N   0  0  0  0  0  0  0  0  0  0  0  0
  -19.7759  -23.9046   17.0632 N   0  3  0  0  0  0  0  0  0  0  0  0
  -29.9667  -15.3988   21.5634 O   0  0  0  0  0  0  0  0  0  0  0  0
  -23.4458  -28.1718   23.2694 O   0  0  0  0  0  0  0  0  0  0  0  0
  -20.5672  -28.4083   20.8502 O   0  0  0  0  0  0  0  0  0  0  0  0
  -20.8689  -23.8257   19.6546 O   0  0  0  0  0  0  0  0  0  0  0  0
  -26.3550  -22.6255   16.9837 O   0  0  0  0  0  0  0  0  0  0  0  0
  -23.9991  -10.4361   20.9757 O   0  0  0  0  0  0  0  0  0  0  0  0
  -27.5694  -23.6304   20.8452 O   0  0  0  0  0  0  0  0  0  1  0  0
  -24.9576   -7.5132   25.5520 F   0  0  0  0  0  0  0  0  0  0  0  0
  -21.9221   -9.6767   22.6347 F   0  0  0  0  0  0  0  0  0  0  0  0
  1  2  1  0  0  0  0
  1  5  2  0  0  0  0
  2  6  2  0  0  0  0
  3  8  2  0  0  0  0
  3 16  1  0  0  0  0
  4  9  1  0  0  0  0
  4 16  2  0  0  0  0
  5 18  1  0  0  0  0
  6 20  1  0  0  0  0
  7 10  2  0  0  0  0
  7 19  1  0  0  0  0
  8 24  1  0  0  0  0
  9 24  2  0  0  0  0
 10 25  1  0  0  0  0
 11 12  2  0  0  0  0
 11 26  1  0  0  0  0
 12 27  1  0  0  0  0
 13 21  1  0  0  0  0
 13 25  2  0  0  0  0
 14 22  2  0  0  0  0
 14 30  1  0  0  0  0
 15 27  2  0  0  0  0
 15 28  1  0  0  0  0
 16 29  1  0  0  0  0
 17 29  1  0  0  0  0
 17 32  2  0  0  0  0
 17 33  1  0  0  0  0
 18 20  2  0  0  0  0
 18 38  1  0  0  0  0
 19 21  2  0  0  0  0
 19 39  1  0  0  0  0
 20 47  1  0  0  0  0
 21 40  1  0  0  0  0
 22 23  1  0  0  0  0
 22 59  1  0  0  0  0
 23 31  2  0  0  0  0
 23 50  1  0  0  0  0
 24 84  1  0  0  0  0
 25 85  1  0  0  0  0
 26 28  2  0  0  0  0
 26 84  1  0  0  0  0
 27 86  1  0  0  0  0
 28 87  1  0  0  0  0
 29 68  2  0  0  0  0
 30 63  1  0  0  0  0
 30 69  2  0  0  0  0
 31 60  1  0  0  0  0
 31 69  1  0  0  0  0
 32 70  1  0  0  0  0
 32 73  1  0  0  0  0
 33 74  1  0  0  0  0
 33 79  2  0  0  0  0
 34 48  1  0  0  0  0
 34 75  1  0  0  0  0
 34 80  2  0  0  0  0
 35 64  1  0  0  0  0
 35 71  1  0  0  0  0
 35 81  2  0  0  0  0
 36 65  1  0  0  0  0
 36 76  1  0  0  0  0
 36 82  2  0  0  0  0
 37 72  1  0  0  0  0
 37 77  1  0  0  0  0
 37 83  2  0  0  0  0
 38 41  1  0  0  0  0
 39 48  1  0  0  0  0
 40 71  1  0  0  0  0
 41 43  1  0  0  0  0
 42 44  1  0  0  0  0
 42 45  1  0  0  0  0
 43 47  1  0  0  0  0
 44 49  1  0  0  0  0
 45 72  1  0  0  0  0
 46 49  1  0  0  0  0
 46 72  1  0  0  0  0
 47 75  1  0  0  0  0
 48 71  1  0  0  0  0
 49 70  1  0  0  0  0
 51 61  1  0  0  0  0
 52 65  1  0  0  0  0
 53 66  1  0  0  0  0
 54 66  1  0  0  0  0
 55 67  1  0  0  0  0
 56 67  1  0  0  0  0
 57 67  1  0  0  0  0
 58 78  1  0  0  0  0
 59 62  1  0  0  0  0
 60 77  1  0  0  0  0
 61 63  1  0  0  0  0
 62 66  1  0  0  0  0
 63 85  1  0  0  0  0
 64 67  1  0  0  0  0
 64 76  1  0  0  0  0
 65 78  1  0  0  0  0
 68 70  1  0  0  0  0
M  CHG  1  78   1
M  ISO  4  37 100  63 101  77 100  85 101
M  END
> <Batch ID>
0100

> <Smiles>
CC[101CH:1](c1cc(CCC(C)C)c(C)c(C[100NH:0][100C:0](=O)N2CCCC(n3nc(-c4ccc(Oc5ccc(F)cc5F)cc4)c(C(N)=O)c3N)C2)n1)[101O:1]c1ccc2c(c1)CN(C(=O)C(NC(=O)C(C)NC)C(C)(C)C)C(C(=O)NC1CCCc3ccccc31)C2

> <Shape>
0.248

> <Color>
0.051

> <Negative vol penalty>
0.000

$$$$

  -OEChem-04052319333D

 95103  0     1  0  0  0  0  0999 V2000
  -25.5028  -32.5741   17.9922 C   0  0  0  0  0  0  0  0  0  0  0  0
  -26.3012  -31.4384   17.9008 C   0  0  0  0  0  0  0  0  0  0  0  0
  -23.3344   -9.6677   20.0352 C   0  0  0  0  0  0  0  0  0  0  0  0
  -23.7028  -10.0047   22.3991 C   0  0  0  0  0  0  0  0  0  0  0  0
  -24.7236  -32.7875   19.1285 C   0  0  0  0  0  0  0  0  0  0  0  0
  -26.3215  -30.5159   18.9462 C   0  0  0  0  0  0  0  0  0  0  0  0
  -26.9150  -24.4382   18.4819 C   0  0  0  0  0  0  0  0  0  0  0  0
  -22.6142   -8.5060   20.3131 C   0  0  0  0  0  0  0  0  0  0  0  0
  -22.9826   -8.8430   22.6770 C   0  0  0  0  0  0  0  0  0  0  0  0
  -28.0111  -23.5890   18.6275 C   0  0  0  0  0  0  0  0  0  0  0  0
  -23.2851   -5.2937   21.1229 C   0  0  0  0  0  0  0  0  0  0  0  0
  -23.5546   -4.1645   20.3497 C   0  0  0  0  0  0  0  0  0  0  0  0
  -27.3744  -23.1695   20.9161 C   0  0  0  0  0  0  0  0  0  0  0  0
  -27.6097  -17.9212   22.5969 C   0  0  0  0  0  0  0  0  0  0  0  0
  -21.2561   -4.1251   19.6063 C   0  0  0  0  0  0  0  0  0  0  0  0
  -23.8788  -10.4171   21.0782 C   0  0  0  0  0  0  0  0  0  0  0  0
  -24.1173  -12.9262   20.6843 C   0  0  0  0  0  0  0  0  0  0  0  0
  -24.7270  -31.8622   20.1843 C   0  0  0  0  0  0  0  0  0  0  0  0
  -26.0451  -24.6684   19.5574 C   0  0  0  0  0  0  0  0  0  0  0  0
  -25.5426  -30.7177   20.0983 C   0  0  0  0  0  0  0  0  0  0  0  0
  -26.2666  -24.0201   20.7809 C   0  0  0  0  0  0  0  0  0  0  0  0
  -27.8408  -17.8434   23.9924 C   0  0  0  0  0  0  0  0  0  0  0  0
  -22.4382   -8.0936   21.6339 C   0  0  0  0  0  0  0  0  0  0  0  0
  -28.2426  -22.9567   19.8456 C   0  0  0  0  0  0  0  0  0  0  0  0
  -22.0011   -5.8386   21.1379 C   0  0  0  0  0  0  0  0  0  0  0  0
  -22.5401   -3.5802   19.5914 C   0  0  0  0  0  0  0  0  0  0  0  0
  -20.9866   -5.2543   20.3795 C   0  0  0  0  0  0  0  0  0  0  0  0
  -24.6234  -11.6170   20.7918 C   0  0  0  0  0  0  0  0  0  0  0  0
  -28.4940  -17.0606   21.9849 C   0  0  0  0  0  0  0  0  0  0  0  0
  -28.8595  -16.9376   24.1908 C   0  0  0  0  0  0  0  0  0  0  0  0
  -25.2182  -13.6979   20.4035 C   0  0  0  0  0  0  0  0  0  0  0  0
  -22.7722  -13.4022   20.8255 C   0  0  0  0  0  0  0  0  0  0  0  0
  -25.1926  -27.2230   21.2460 C   0  0  0  0  0  0  0  0  0  0  0  0
  -23.0930  -25.1492   22.5925 C   0  0  0  0  0  0  0  0  0  0  0  0
  -22.2858  -21.9178   23.3367 C   0  0  0  0  0  0  0  0  0  0  0  0
  -31.1158  -12.4651   21.5157 C   0  0  0  0  0  0  0  0  0  0  0  0
  -23.9042  -32.1595   21.4127 C   0  0  0  0  0  0  0  0  0  0  0  0
  -24.8522  -25.5664   19.3762 C   0  0  0  0  0  0  0  0  0  0  0  0
  -25.3509  -24.2178   21.9603 C   0  0  0  0  0  0  0  0  0  0  0  0
  -23.6960  -30.9458   22.3148 C   0  0  0  0  0  0  0  0  0  0  0  0
  -29.5218  -13.4918   18.3366 C   0  0  0  0  0  0  0  0  0  0  0  0
  -25.0135  -30.2072   22.5284 C   0  0  0  0  0  0  0  0  0  0  0  0
  -28.0493  -13.1669   18.5822 C   0  0  0  0  0  0  0  0  0  0  0  0
  -30.4451  -12.5840   19.1434 C   0  0  0  0  0  0  0  0  0  0  0  0
  -28.6860  -12.2531   20.8494 C   0  0  0  0  0  0  0  0  0  0  0  0
  -25.5727  -29.6815   21.2008 C   0  0  1  0  0  0  0  0  0  0  0  0
  -24.3233  -26.1300   20.6915 C   0  0  1  0  0  0  0  0  0  0  0  0
  -27.7280  -13.1807   20.0868 C   0  0  2  0  0  0  0  0  0  0  0  0
  -28.7197  -20.6600   24.9957 C   0  0  0  0  0  0  0  0  0  0  0  0
  -20.5258  -20.5396   24.4769 C   0  0  0  0  0  0  0  0  0  0  0  0
  -32.9242  -17.4074   27.1077 C   0  0  0  0  0  0  0  0  0  0  0  0
  -30.7170  -17.0158   28.2190 C   0  0  0  0  0  0  0  0  0  0  0  0
  -31.5287  -20.2638   20.1912 C   0  0  0  0  0  0  0  0  0  0  0  0
  -26.3542  -17.7312   26.1061 C   0  0  0  0  0  0  0  0  0  0  0  0
  -25.9942  -19.4870   24.3941 C   0  0  0  0  0  0  0  0  0  0  0  0
  -24.2005  -25.9870   25.3094 C   0  0  0  0  0  0  0  0  0  0  0  0
  -23.1237  -23.9541   26.2973 C   0  0  0  0  0  0  0  0  0  0  0  0
  -21.7153  -25.7172   25.2340 C   0  0  0  0  0  0  0  0  0  0  0  0
  -31.9517  -13.0075   23.7710 C   0  0  0  0  0  0  0  0  0  0  0  0
  -21.6378  -20.4685   20.8390 C   0  0  0  0  0  0  0  0  0  0  0  0
  -28.6832  -16.7494   20.5215 C   0  0  0  0  0  0  0  0  0  0  0  0
  -29.4956  -16.4787   25.4441 C   0  0  0  0  0  0  0  0  0  0  0  0
  -28.0438  -19.5916   25.8503 C   0  0  0  0  0  0  0  0  0  0  0  0
  -29.7022  -17.6590   19.8232 C   0  0  0  0  0  0  0  0  0  0  0  0
  -30.8790  -17.1266   25.6754 C   0  0  0  0  0  0  0  0  0  0  0  0
  -29.3064  -19.1405   19.8655 C   0  0  0  0  0  0  0  0  0  0  0  0
  -30.2970  -15.4960   22.7349 C   0  0  0  0  0  0  0  0  0  0  0  0
  -29.8532  -14.0630   23.0174 C   0  0  0  0  0  0  0  0  0  0  0  0
  -29.7555  -21.4302   18.8274 C   0  0  0  0  0  0  0  0  0  1  0  0
  -23.1264  -24.2105   23.7744 C   0  0  1  0  0  0  0  0  0  0  0  0
  -20.9973  -21.1350   23.1594 C   0  0  2  0  0  0  0  0  0  0  0  0
  -31.5685  -16.7068   26.9869 C   0  0  0  0  0  0  0  0  0  0  0  0
  -30.3521  -20.0740   19.2250 C   0  0  1  0  0  0  0  0  0  0  0  0
  -27.1178  -18.5973   25.0359 C   0  0  0  0  0  0  0  0  0  0  0  0
  -23.0600  -24.9648   25.1323 C   0  0  0  0  0  0  0  0  0  0  0  0
  -25.9431  -11.5565   20.5953 N   0  0  0  0  0  0  0  0  0  0  0  0
  -29.2489  -16.4684   22.9635 N   0  0  0  0  0  0  0  0  0  0  0  0
  -26.2756  -12.8375   20.3613 N   0  0  0  0  0  0  0  0  0  0  0  0
  -24.2018  -25.1102   21.7353 N   0  0  0  0  0  0  0  0  0  0  0  0
  -30.0904  -12.5824   20.5631 N   0  0  0  0  0  0  0  0  0  0  0  0
  -25.3753  -15.0218   20.1910 N   0  0  0  0  0  0  0  0  0  0  0  0
  -21.7621  -12.4746   21.1144 N   0  0  0  0  0  0  0  0  0  0  0  0
  -24.8657  -28.4866   20.7923 N   0  0  0  0  0  0  0  0  0  0  0  0
  -22.0432  -23.2553   23.5678 N   0  0  0  0  0  0  0  0  0  0  0  0
  -30.9124  -13.0911   22.7548 N   0  0  0  0  0  0  0  0  0  0  0  0
  -21.1959  -20.0242   22.1859 N   0  3  0  0  0  0  0  0  0  0  0  0
  -22.4724  -14.6119   20.6831 O   0  0  0  0  0  0  0  0  0  0  0  0
  -26.0924  -26.9409   22.0286 O   0  0  0  0  0  0  0  0  0  0  0  0
  -22.1158  -25.8846   22.4318 O   0  0  0  0  0  0  0  0  0  0  0  0
  -23.3964  -21.3944   23.2799 O   0  0  0  0  0  0  0  0  0  0  0  0
  -32.1581  -11.8447   21.2691 O   0  0  0  0  0  0  0  0  0  0  0  0
  -21.7353   -6.9602   21.9054 O   0  0  0  0  0  0  0  0  0  0  0  0
  -29.3120  -22.1278   19.9906 O   0  0  0  0  0  0  0  0  0  1  0  0
  -22.7994   -2.4968   18.8477 F   0  0  0  0  0  0  0  0  0  0  0  0
  -19.7514   -5.7739   20.3889 F   0  0  0  0  0  0  0  0  0  0  0  0
  1  2  1  0  0  0  0
  1  5  2  0  0  0  0
  2  6  2  0  0  0  0
  3  8  2  0  0  0  0
  3 16  1  0  0  0  0
  4  9  1  0  0  0  0
  4 16  2  0  0  0  0
  5 18  1  0  0  0  0
  6 20  1  0  0  0  0
  7 10  2  0  0  0  0
  7 19  1  0  0  0  0
  8 23  1  0  0  0  0
  9 23  2  0  0  0  0
 10 24  1  0  0  0  0
 11 12  2  0  0  0  0
 11 25  1  0  0  0  0
 12 26  1  0  0  0  0
 13 21  1  0  0  0  0
 13 24  2  0  0  0  0
 14 22  1  0  0  0  0
 14 29  2  0  0  0  0
 15 26  2  0  0  0  0
 15 27  1  0  0  0  0
 16 28  1  0  0  0  0
 17 28  1  0  0  0  0
 17 31  2  0  0  0  0
 17 32  1  0  0  0  0
 18 20  2  0  0  0  0
 18 37  1  0  0  0  0
 19 21  2  0  0  0  0
 19 38  1  0  0  0  0
 20 46  1  0  0  0  0
 21 39  1  0  0  0  0
 22 30  2  0  0  0  0
 22 74  1  0  0  0  0
 23 92  1  0  0  0  0
 24 93  1  0  0  0  0
 25 27  2  0  0  0  0
 25 92  1  0  0  0  0
 26 94  1  0  0  0  0
 27 95  1  0  0  0  0
 28 76  2  0  0  0  0
 29 61  1  0  0  0  0
 29 77  1  0  0  0  0
 30 62  1  0  0  0  0
 30 77  1  0  0  0  0
 31 78  1  0  0  0  0
 31 81  1  0  0  0  0
 32 82  1  0  0  0  0
 32 87  2  0  0  0  0
 33 47  1  0  0  0  0
 33 83  1  0  0  0  0
 33 88  2  0  0  0  0
 34 70  1  0  0  0  0
 34 79  1  0  0  0  0
 34 89  2  0  0  0  0
 35 71  1  0  0  0  0
 35 84  1  0  0  0  0
 35 90  2  0  0  0  0
 36 80  1  0  0  0  0
 36 85  1  0  0  0  0
 36 91  2  0  0  0  0
 37 40  1  0  0  0  0
 38 47  1  0  0  0  0
 39 79  1  0  0  0  0
 40 42  1  0  0  0  0
 41 43  1  0  0  0  0
 41 44  1  0  0  0  0
 42 46  1  0  0  0  0
 43 48  1  0  0  0  0
 44 80  1  0  0  0  0
 45 48  1  0  0  0  0
 45 80  1  0  0  0  0
 46 83  1  0  0  0  0
 47 79  1  0  0  0  0
 48 78  1  0  0  0  0
 49 63  1  0  0  0  0
 50 71  1  0  0  0  0
 51 72  1  0  0  0  0
 52 72  1  0  0  0  0
 53 73  1  0  0  0  0
 54 74  1  0  0  0  0
 55 74  1  0  0  0  0
 56 75  1  0  0  0  0
 57 75  1  0  0  0  0
 58 75  1  0  0  0  0
 59 85  1  0  0  0  0
 60 86  1  0  0  0  0
 61 64  1  0  0  0  0
 62 65  1  0  0  0  0
 63 74  1  0  0  0  0
 64 66  1  0  0  0  0
 65 72  1  0  0  0  0
 66 73  1  0  0  0  0
 67 68  1  0  0  0  0
 67 77  1  0  0  0  0
 68 85  1  0  0  0  0
 69 73  1  0  0  0  0
 69 93  1  0  0  0  0
 70 75  1  0  0  0  0
 70 84  1  0  0  0  0
 71 86  1  0  0  0  0
 76 78  1  0  0  0  0
M  CHG  1  86   1
M  ISO  4  36 100  69 101  85 100  93 101
M  END
> <Batch ID>
0100

> <Smiles>
CCC(C)(C)c1cc(CCCC(C)[101CH2:1][101O:1]c2ccc3c(c2)CN(C(=O)C(NC(=O)C(C)NC)C(C)(C)C)C(C(=O)NC2CCCc4ccccc42)C3)n(CC[100N:0](C)[100C:0](=O)N2CCCC(n3nc(-c4ccc(Oc5ccc(F)cc5F)cc4)c(C(N)=O)c3N)C2)c1CCC(C)C

> <Shape>
0.223

> <Color>
0.174

> <Negative vol penalty>
0.000

$$$$

  -OEChem-04052319333D

 86 94  0     1  0  0  0  0  0999 V2000
  -27.8116  -24.8866   11.3369 C   0  0  0  0  0  0  0  0  0  0  0  0
  -27.4592  -23.9782   12.3299 C   0  0  0  0  0  0  0  0  0  0  0  0
  -22.9736   -9.9542   19.9993 C   0  0  0  0  0  0  0  0  0  0  0  0
  -24.2845   -9.5839   21.9947 C   0  0  0  0  0  0  0  0  0  0  0  0
  -28.3745  -26.1139   11.6845 C   0  0  0  0  0  0  0  0  0  0  0  0
  -27.6704  -24.2961   13.6711 C   0  0  0  0  0  0  0  0  0  0  0  0
  -24.1668  -22.6919   18.4310 C   0  0  0  0  0  0  0  0  0  0  0  0
  -22.3283   -8.7335   20.1967 C   0  0  0  0  0  0  0  0  0  0  0  0
  -23.6391   -8.3631   22.1921 C   0  0  0  0  0  0  0  0  0  0  0  0
  -24.2734  -21.6680   19.3712 C   0  0  0  0  0  0  0  0  0  0  0  0
  -20.6737   -7.2819   23.3998 C   0  0  0  0  0  0  0  0  0  0  0  0
  -20.2352   -6.9836   24.6898 C   0  0  0  0  0  0  0  0  0  0  0  0
  -25.3402  -23.1950   20.9041 C   0  0  0  0  0  0  0  0  0  0  0  0
  -29.8424  -19.3509   18.8334 C   0  0  0  0  0  0  0  0  0  0  0  0
  -28.4265  -20.5150   20.4073 C   0  0  0  0  0  0  0  0  0  0  0  0
  -21.6417   -5.0194   24.7137 C   0  0  0  0  0  0  0  0  0  0  0  0
  -23.9518  -10.3794   20.8983 C   0  0  0  0  0  0  0  0  0  0  0  0
  -24.0276  -12.9163   20.6411 C   0  0  0  0  0  0  0  0  0  0  0  0
  -28.5839  -26.4510   13.0310 C   0  0  0  0  0  0  0  0  0  0  0  0
  -24.6567  -23.9744   18.7166 C   0  0  0  0  0  0  0  0  0  0  0  0
  -28.2379  -25.5286   14.0369 C   0  0  0  0  0  0  0  0  0  0  0  0
  -25.2363  -24.2340   19.9668 C   0  0  0  0  0  0  0  0  0  0  0  0
  -29.2515  -20.5318   19.2827 C   0  0  0  0  0  0  0  0  0  0  0  0
  -29.6082  -18.1531   19.5087 C   0  0  0  0  0  0  0  0  0  0  0  0
  -28.1924  -19.3172   21.0827 C   0  0  0  0  0  0  0  0  0  0  0  0
  -28.7833  -18.1362   20.6334 C   0  0  0  0  0  0  0  0  0  0  0  0
  -22.6609   -7.9380   21.2931 C   0  0  0  0  0  0  0  0  0  0  0  0
  -24.8628  -21.9187   20.6069 C   0  0  0  0  0  0  0  0  0  0  0  0
  -21.5962   -6.4489   22.7666 C   0  0  0  0  0  0  0  0  0  0  0  0
  -20.7192   -5.8524   25.3468 C   0  0  0  0  0  0  0  0  0  0  0  0
  -22.0802   -5.3177   23.4236 C   0  0  0  0  0  0  0  0  0  0  0  0
  -24.6192  -11.6400   20.6946 C   0  0  0  0  0  0  0  0  0  0  0  0
  -25.0796  -13.7739   20.4307 C   0  0  0  0  0  0  0  0  0  0  0  0
  -22.6502  -13.2929   20.7702 C   0  0  0  0  0  0  0  0  0  0  0  0
  -26.8973  -25.8499   17.4651 C   0  0  0  0  0  0  0  0  0  0  0  0
  -25.7228  -28.0082   19.5827 C   0  0  0  0  0  0  0  0  0  0  0  0
  -24.0485  -28.5900   22.4991 C   0  0  0  0  0  0  0  0  0  0  0  0
  -30.3399  -15.2149   22.0337 C   0  0  0  0  0  0  0  0  0  0  0  0
  -29.2389  -27.7702   13.3557 C   0  0  0  0  0  0  0  0  0  0  0  0
  -24.5100  -25.0749   17.7018 C   0  0  0  0  0  0  0  0  0  0  0  0
  -25.7596  -25.5988   20.3302 C   0  0  0  0  0  0  0  0  0  0  0  0
  -29.0841  -28.1838   14.8170 C   0  0  0  0  0  0  0  0  0  0  0  0
  -29.8936  -12.8692   19.2053 C   0  0  0  0  0  0  0  0  0  0  0  0
  -29.3990  -27.0108   15.7400 C   0  0  0  0  0  0  0  0  0  0  0  0
  -28.4521  -12.3973   19.3882 C   0  0  0  0  0  0  0  0  0  0  0  0
  -30.5334  -13.2655   20.5324 C   0  0  0  0  0  0  0  0  0  0  0  0
  -28.3145  -13.8062   21.4802 C   0  0  0  0  0  0  0  0  0  0  0  0
  -28.4286  -25.8472   15.5039 C   0  0  1  0  0  0  0  0  0  0  0  0
  -25.5069  -26.2117   17.9048 C   0  0  1  0  0  0  0  0  0  0  0  0
  -27.6256  -13.4435   20.1560 C   0  0  2  0  0  0  0  0  0  0  0  0
  -30.2539  -16.9025   19.0078 C   0  0  0  0  0  0  0  0  0  0  0  0
  -28.9881  -21.7791   17.1082 C   0  0  0  0  0  0  0  0  0  0  0  0
  -30.9868  -22.2197   18.5799 C   0  0  0  0  0  0  0  0  0  0  0  0
  -22.9141  -29.9055   24.3102 C   0  0  0  0  0  0  0  0  0  0  0  0
  -28.5745  -28.3683   20.6064 C   0  0  0  0  0  0  0  0  0  0  0  0
  -27.6289  -29.4693   22.6465 C   0  0  0  0  0  0  0  0  0  0  0  0
  -27.2649  -30.4888   20.3991 C   0  0  0  0  0  0  0  0  0  0  0  0
  -30.2992  -17.5029   22.9518 C   0  0  0  0  0  0  0  0  0  0  0  0
  -21.4475  -28.5082   21.0895 C   0  0  0  0  0  0  0  0  0  0  0  0
  -27.2968  -19.3260   22.2957 C   0  0  0  0  0  0  0  0  0  0  0  0
  -28.5328  -16.8518   21.3575 C   0  0  0  0  0  0  0  0  0  0  0  0
  -25.8969  -18.7671   22.0318 C   0  0  0  0  0  0  0  0  0  0  0  0
  -25.0976  -19.5899   21.0281 C   0  0  0  0  0  0  0  0  0  1  0  0
  -29.5013  -21.8124   18.5603 C   0  0  0  0  0  0  0  0  0  0  0  0
  -26.0253  -28.3734   21.0159 C   0  0  1  0  0  0  0  0  0  0  0  0
  -22.9092  -29.5352   22.8352 C   0  0  2  0  0  0  0  0  0  0  0  0
  -27.3654  -29.1487   21.1597 C   0  0  0  0  0  0  0  0  0  0  0  0
  -25.9443  -11.6787   20.5312 N   0  0  0  0  0  0  0  0  0  0  0  0
  -26.1940  -12.9897   20.3728 N   0  0  0  0  0  0  0  0  0  0  0  0
  -25.5987  -26.6401   19.3020 N   0  0  0  0  0  0  0  0  0  0  0  0
  -29.7062  -14.2278   21.2611 N   0  0  0  0  0  0  0  0  0  0  0  0
  -25.1508  -15.1147   20.2913 N   0  0  0  0  0  0  0  0  0  0  0  0
  -22.1550  -13.5874   22.0479 N   0  0  0  0  0  0  0  0  0  0  0  0
  -27.1537  -26.1165   16.1337 N   0  0  0  0  0  0  0  0  0  0  0  0
  -24.8592  -29.0997   21.5070 N   0  0  0  0  0  0  0  0  0  0  0  0
  -29.6769  -16.4440   22.1699 N   0  0  0  0  0  0  0  0  0  0  0  0
  -21.5989  -28.9020   22.5139 N   0  3  0  0  0  0  0  0  0  0  0  0
  -21.8772  -13.3502   19.7839 O   0  0  0  0  0  0  0  0  0  0  0  0
  -27.6801  -25.3660   18.2743 O   0  0  0  0  0  0  0  0  0  0  0  0
  -25.5940  -28.9041   18.7446 O   0  0  0  0  0  0  0  0  0  0  0  0
  -24.2059  -27.5094   23.0630 O   0  0  0  0  0  0  0  0  0  0  0  0
  -31.4401  -15.0126   22.5633 O   0  0  0  0  0  0  0  0  0  0  0  0
  -22.0312   -6.7469   21.4861 O   0  0  0  0  0  0  0  0  0  0  0  0
  -24.9687  -20.9209   21.5262 O   0  0  0  0  0  0  0  0  0  1  0  0
  -20.2991   -5.5669   26.5862 F   0  0  0  0  0  0  0  0  0  0  0  0
  -22.9674   -4.5143   22.8209 F   0  0  0  0  0  0  0  0  0  0  0  0
  1  2  1  0  0  0  0
  1  5  2  0  0  0  0
  2  6  2  0  0  0  0
  3  8  2  0  0  0  0
  3 17  1  0  0  0  0
  4  9  1  0  0  0  0
  4 17  2  0  0  0  0
  5 19  1  0  0  0  0
  6 21  1  0  0  0  0
  7 10  2  0  0  0  0
  7 20  1  0  0  0  0
  8 27  1  0  0  0  0
  9 27  2  0  0  0  0
 10 28  1  0  0  0  0
 11 12  2  0  0  0  0
 11 29  1  0  0  0  0
 12 30  1  0  0  0  0
 13 22  1  0  0  0  0
 13 28  2  0  0  0  0
 14 23  1  0  0  0  0
 14 24  2  0  0  0  0
 15 23  2  0  0  0  0
 15 25  1  0  0  0  0
 16 30  2  0  0  0  0
 16 31  1  0  0  0  0
 17 32  1  0  0  0  0
 18 32  1  0  0  0  0
 18 33  2  0  0  0  0
 18 34  1  0  0  0  0
 19 21  2  0  0  0  0
 19 39  1  0  0  0  0
 20 22  2  0  0  0  0
 20 40  1  0  0  0  0
 21 48  1  0  0  0  0
 22 41  1  0  0  0  0
 23 64  1  0  0  0  0
 24 26  1  0  0  0  0
 24 51  1  0  0  0  0
 25 26  2  0  0  0  0
 25 60  1  0  0  0  0
 26 61  1  0  0  0  0
 27 83  1  0  0  0  0
 28 84  1  0  0  0  0
 29 31  2  0  0  0  0
 29 83  1  0  0  0  0
 30 85  1  0  0  0  0
 31 86  1  0  0  0  0
 32 68  2  0  0  0  0
 33 69  1  0  0  0  0
 33 72  1  0  0  0  0
 34 73  1  0  0  0  0
 34 78  2  0  0  0  0
 35 49  1  0  0  0  0
 35 74  1  0  0  0  0
 35 79  2  0  0  0  0
 36 65  1  0  0  0  0
 36 70  1  0  0  0  0
 36 80  2  0  0  0  0
 37 66  1  0  0  0  0
 37 75  1  0  0  0  0
 37 81  2  0  0  0  0
 38 71  1  0  0  0  0
 38 76  1  0  0  0  0
 38 82  2  0  0  0  0
 39 42  1  0  0  0  0
 40 49  1  0  0  0  0
 41 70  1  0  0  0  0
 42 44  1  0  0  0  0
 43 45  1  0  0  0  0
 43 46  1  0  0  0  0
 44 48  1  0  0  0  0
 45 50  1  0  0  0  0
 46 71  1  0  0  0  0
 47 50  1  0  0  0  0
 47 71  1  0  0  0  0
 48 74  1  0  0  0  0
 49 70  1  0  0  0  0
 50 69  1  0  0  0  0
 52 64  1  0  0  0  0
 53 64  1  0  0  0  0
 54 66  1  0  0  0  0
 55 67  1  0  0  0  0
 56 67  1  0  0  0  0
 57 67  1  0  0  0  0
 58 76  1  0  0  0  0
 59 77  1  0  0  0  0
 60 62  1  0  0  0  0
 61 76  1  0  0  0  0
 62 63  1  0  0  0  0
 63 84  1  0  0  0  0
 65 67  1  0  0  0  0
 65 75  1  0  0  0  0
 66 77  1  0  0  0  0
 68 69  1  0  0  0  0
M  CHG  1  77   1
M  ISO  4  38 100  63 101  76 100  84 101
M  END
> <Batch ID>
0100

> <Smiles>
CNC(C)C(=O)NC(C(=O)N1Cc2cc([101O:1][101CH2:1]CCc3cc(C(C)C)cc(C)c3C[100N:0](C)[100C:0](=O)N3CCCC(n4nc(-c5ccc(Oc6ccc(F)cc6F)cc5)c(C(N)=O)c4N)C3)ccc2CC1C(=O)NC1CCCc2ccccc21)C(C)(C)C

> <Shape>
0.304

> <Color>
0.169

> <Negative vol penalty>
0.000

$$$$

  -OEChem-04052319333D

 88 96  0     1  0  0  0  0  0999 V2000
  -20.2356  -20.7129   22.6051 C   0  0  0  0  0  0  0  0  0  0  0  0
  -21.5279  -20.7789   22.0940 C   0  0  0  0  0  0  0  0  0  0  0  0
  -26.9860  -13.0715   20.9578 C   0  0  0  0  0  0  0  0  0  0  0  0
  -27.1312  -13.2006   18.5496 C   0  0  0  0  0  0  0  0  0  0  0  0
  -19.4153  -21.8398   22.5709 C   0  0  0  0  0  0  0  0  0  0  0  0
  -22.0002  -21.9716   21.5474 C   0  0  0  0  0  0  0  0  0  0  0  0
  -27.7296  -24.1206   21.7958 C   0  0  0  0  0  0  0  0  0  0  0  0
  -26.3530  -11.8330   20.8533 C   0  0  0  0  0  0  0  0  0  0  0  0
  -26.4982  -11.9620   18.4451 C   0  0  0  0  0  0  0  0  0  0  0  0
  -28.7838  -24.0885   20.8840 C   0  0  0  0  0  0  0  0  0  0  0  0
  -24.3753   -8.8021   21.2087 C   0  0  0  0  0  0  0  0  0  0  0  0
  -23.2527   -8.5765   22.0052 C   0  0  0  0  0  0  0  0  0  0  0  0
  -28.1824  -26.2962   20.1201 C   0  0  0  0  0  0  0  0  0  0  0  0
  -22.1325  -10.4415   20.9543 C   0  0  0  0  0  0  0  0  0  0  0  0
  -27.9740  -23.0545   16.2917 C   0  0  0  0  0  0  0  0  0  0  0  0
  -27.3750  -13.7554   19.8060 C   0  0  0  0  0  0  0  0  0  0  0  0
  -29.4118  -15.2778   20.0095 C   0  0  0  0  0  0  0  0  0  0  0  0
  -19.8812  -23.0496   22.0324 C   0  0  0  0  0  0  0  0  0  0  0  0
  -26.8858  -25.2382   21.8692 C   0  0  0  0  0  0  0  0  0  0  0  0
  -21.1849  -23.1154   21.5048 C   0  0  0  0  0  0  0  0  0  0  0  0
  -27.1198  -26.3411   21.0355 C   0  0  0  0  0  0  0  0  0  0  0  0
  -27.3715  -22.1157   15.4835 C   0  0  0  0  0  0  0  0  0  0  0  0
  -28.1556  -22.0029   14.3090 C   0  0  0  0  0  0  0  0  0  0  0  0
  -26.1091  -11.2782   19.5969 C   0  0  0  0  0  0  0  0  0  0  0  0
  -29.0086  -25.1752   20.0440 C   0  0  0  0  0  0  0  0  0  0  0  0
  -24.3766   -9.8474   20.2851 C   0  0  0  0  0  0  0  0  0  0  0  0
  -22.1313   -9.3962   21.8780 C   0  0  0  0  0  0  0  0  0  0  0  0
  -23.2552  -10.6671   20.1579 C   0  0  0  0  0  0  0  0  0  0  0  0
  -28.0284  -15.0351   19.9133 C   0  0  0  0  0  0  0  0  0  0  0  0
  -29.2136  -22.8760   14.4352 C   0  0  0  0  0  0  0  0  0  0  0  0
  -29.5157  -16.6451   20.0883 C   0  0  0  0  0  0  0  0  0  0  0  0
  -30.5050  -14.3504   20.0262 C   0  0  0  0  0  0  0  0  0  0  0  0
  -23.7827  -25.7408   21.3982 C   0  0  0  0  0  0  0  0  0  0  0  0
  -24.4948  -28.7096   22.4944 C   0  0  0  0  0  0  0  0  0  0  0  0
  -26.8485  -31.1342   22.9720 C   0  0  0  0  0  0  0  0  0  0  0  0
  -25.9776  -21.1155   18.2583 C   0  0  0  0  0  0  0  0  0  0  0  0
  -18.9415  -24.2279   21.9745 C   0  0  0  0  0  0  0  0  0  0  0  0
  -25.7693  -25.2683   22.8767 C   0  0  0  0  0  0  0  0  0  0  0  0
  -26.2551  -27.5732   21.0889 C   0  0  0  0  0  0  0  0  0  0  0  0
  -19.6468  -25.5573   21.7187 C   0  0  0  0  0  0  0  0  0  0  0  0
  -27.1108  -20.5037   21.5777 C   0  0  0  0  0  0  0  0  0  0  0  0
  -20.6511  -25.4183   20.5790 C   0  0  0  0  0  0  0  0  0  0  0  0
  -27.5993  -19.0547   21.5362 C   0  0  0  0  0  0  0  0  0  0  0  0
  -25.8782  -20.7091   20.6999 C   0  0  0  0  0  0  0  0  0  0  0  0
  -26.5202  -18.8141   19.2610 C   0  0  0  0  0  0  0  0  0  0  0  0
  -21.7419  -24.3980   20.9263 C   0  0  1  0  0  0  0  0  0  0  0  0
  -24.6588  -26.2474   22.5089 C   0  0  1  0  0  0  0  0  0  0  0  0
  -27.7948  -18.5702   20.0870 C   0  0  2  0  0  0  0  0  0  0  0  0
  -29.1640  -25.0540   12.2325 C   0  0  0  0  0  0  0  0  0  0  0  0
  -26.5546  -21.4308   12.4481 C   0  0  0  0  0  0  0  0  0  0  0  0
  -27.9235  -19.6149   13.5359 C   0  0  0  0  0  0  0  0  0  0  0  0
  -31.2265  -21.9200   13.2842 C   0  0  0  0  0  0  0  0  0  0  0  0
  -27.1226  -33.4665   23.8567 C   0  0  0  0  0  0  0  0  0  0  0  0
  -32.2678  -24.9053   17.2834 C   0  0  0  0  0  0  0  0  0  0  0  0
  -23.1942  -29.8186   19.9669 C   0  0  0  0  0  0  0  0  0  0  0  0
  -24.3181  -32.0068   20.4324 C   0  0  0  0  0  0  0  0  0  0  0  0
  -22.6629  -31.0866   22.0560 C   0  0  0  0  0  0  0  0  0  0  0  0
  -28.7642  -30.2467   25.0460 C   0  0  0  0  0  0  0  0  0  0  0  0
  -26.1352  -21.3708   15.7948 C   0  0  0  0  0  0  0  0  0  0  0  0
  -29.8926  -23.7202   12.1211 C   0  0  0  0  0  0  0  0  0  0  0  0
  -30.0361  -24.5509   16.1957 C   0  0  0  0  0  0  0  0  0  0  0  0
  -30.4176  -23.8693   18.6422 C   0  0  0  0  0  0  0  0  0  1  0  0
  -27.8899  -21.1137   13.1593 C   0  0  0  0  0  0  0  0  0  0  0  0
  -30.3299  -23.1621   13.5094 C   0  0  1  0  0  0  0  0  0  0  0  0
  -24.9398  -30.0052   21.8600 C   0  0  1  0  0  0  0  0  0  0  0  0
  -27.1890  -31.9828   24.1838 C   0  0  2  0  0  0  0  0  0  0  0  0
  -31.0311  -24.0002   17.2398 C   0  0  2  0  0  0  0  0  0  0  0  0
  -23.7940  -30.7055   21.0762 C   0  0  0  0  0  0  0  0  0  0  0  0
  -27.3055  -16.1581   19.9294 N   0  0  0  0  0  0  0  0  0  0  0  0
  -29.0930  -23.5096   15.6444 N   0  0  0  0  0  0  0  0  0  0  0  0
  -28.2381  -17.1197   20.0367 N   0  0  0  0  0  0  0  0  0  0  0  0
  -25.1724  -27.5519   22.0863 N   0  0  0  0  0  0  0  0  0  0  0  0
  -26.1302  -20.2306   19.3385 N   0  0  0  0  0  0  0  0  0  0  0  0
  -30.5745  -17.4757   20.1959 N   0  0  0  0  0  0  0  0  0  0  0  0
  -30.2208  -12.9809   19.9364 N   0  0  0  0  0  0  0  0  0  0  0  0
  -22.7112  -24.9818   21.8285 N   0  0  0  0  0  0  0  0  0  0  0  0
  -25.5084  -30.8117   22.9346 N   0  0  0  0  0  0  0  0  0  0  0  0
  -26.2423  -20.5830   17.0025 N   0  0  0  0  0  0  0  0  0  0  0  0
  -28.5636  -31.6689   24.6663 N   0  3  0  0  0  0  0  0  0  0  0  0
  -31.6975  -14.7240   20.1345 O   0  0  0  0  0  0  0  0  0  0  0  0
  -24.0576  -26.0193   20.2370 O   0  0  0  0  0  0  0  0  0  0  0  0
  -23.5846  -28.7251   23.3268 O   0  0  0  0  0  0  0  0  0  0  0  0
  -27.6867  -30.7949   22.1397 O   0  0  0  0  0  0  0  0  0  0  0  0
  -25.6364  -22.2943   18.4029 O   0  0  0  0  0  0  0  0  0  0  0  0
  -25.4917  -10.0696   19.4945 O   0  0  0  0  0  0  0  0  0  0  0  0
  -30.0364  -25.1462   19.1526 O   0  0  0  0  0  0  0  0  0  1  0  0
  -21.0527   -9.1785   22.6418 F   0  0  0  0  0  0  0  0  0  0  0  0
  -23.2501  -11.6721   19.2715 F   0  0  0  0  0  0  0  0  0  0  0  0
  1  2  1  0  0  0  0
  1  5  2  0  0  0  0
  2  6  2  0  0  0  0
  3  8  2  0  0  0  0
  3 16  1  0  0  0  0
  4  9  1  0  0  0  0
  4 16  2  0  0  0  0
  5 18  1  0  0  0  0
  6 20  1  0  0  0  0
  7 10  2  0  0  0  0
  7 19  1  0  0  0  0
  8 24  1  0  0  0  0
  9 24  2  0  0  0  0
 10 25  1  0  0  0  0
 11 12  2  0  0  0  0
 11 26  1  0  0  0  0
 12 27  1  0  0  0  0
 13 21  1  0  0  0  0
 13 25  2  0  0  0  0
 14 27  2  0  0  0  0
 14 28  1  0  0  0  0
 15 22  2  0  0  0  0
 15 70  1  0  0  0  0
 16 29  1  0  0  0  0
 17 29  1  0  0  0  0
 17 31  2  0  0  0  0
 17 32  1  0  0  0  0
 18 20  2  0  0  0  0
 18 37  1  0  0  0  0
 19 21  2  0  0  0  0
 19 38  1  0  0  0  0
 20 46  1  0  0  0  0
 21 39  1  0  0  0  0
 22 23  1  0  0  0  0
 22 59  1  0  0  0  0
 23 30  2  0  0  0  0
 23 63  1  0  0  0  0
 24 85  1  0  0  0  0
 25 86  1  0  0  0  0
 26 28  2  0  0  0  0
 26 85  1  0  0  0  0
 27 87  1  0  0  0  0
 28 88  1  0  0  0  0
 29 69  2  0  0  0  0
 30 64  1  0  0  0  0
 30 70  1  0  0  0  0
 31 71  1  0  0  0  0
 31 74  1  0  0  0  0
 32 75  1  0  0  0  0
 32 80  2  0  0  0  0
 33 47  1  0  0  0  0
 33 76  1  0  0  0  0
 33 81  2  0  0  0  0
 34 65  1  0  0  0  0
 34 72  1  0  0  0  0
 34 82  2  0  0  0  0
 35 66  1  0  0  0  0
 35 77  1  0  0  0  0
 35 83  2  0  0  0  0
 36 73  1  0  0  0  0
 36 78  1  0  0  0  0
 36 84  2  0  0  0  0
 37 40  1  0  0  0  0
 38 47  1  0  0  0  0
 39 72  1  0  0  0  0
 40 42  1  0  0  0  0
 41 43  1  0  0  0  0
 41 44  1  0  0  0  0
 42 46  1  0  0  0  0
 43 48  1  0  0  0  0
 44 73  1  0  0  0  0
 45 48  1  0  0  0  0
 45 73  1  0  0  0  0
 46 76  1  0  0  0  0
 47 72  1  0  0  0  0
 48 71  1  0  0  0  0
 49 60  1  0  0  0  0
 50 63  1  0  0  0  0
 51 63  1  0  0  0  0
 52 64  1  0  0  0  0
 53 66  1  0  0  0  0
 54 67  1  0  0  0  0
 55 68  1  0  0  0  0
 56 68  1  0  0  0  0
 57 68  1  0  0  0  0
 58 79  1  0  0  0  0
 59 78  1  0  0  0  0
 60 64  1  0  0  0  0
 61 67  1  0  0  0  0
 61 70  1  0  0  0  0
 62 67  1  0  0  0  0
 62 86  1  0  0  0  0
 65 68  1  0  0  0  0
 65 77  1  0  0  0  0
 66 79  1  0  0  0  0
 69 71  1  0  0  0  0
M  CHG  1  79   1
M  ISO  4  36 100  62 101  78 100  86 101
M  END
> <Batch ID>
0100

> <Smiles>
CCC(C)c1c(C(C)C)c(C[100NH:0][100C:0](=O)N2CCCC(n3nc(-c4ccc(Oc5ccc(F)cc5F)cc4)c(C(N)=O)c3N)C2)cn1CC(C)[101CH2:1][101O:1]c1ccc2c(c1)CN(C(=O)C(NC(=O)C(C)NC)C(C)(C)C)C(C(=O)NC1CCCc3ccccc31)C2

> <Shape>
0.226

> <Color>
0.079

> <Negative vol penalty>
0.000

$$$$

  -OEChem-04052319333D

 85 93  0     1  0  0  0  0  0999 V2000
  -17.0029  -24.5379   23.2576 C   0  0  0  0  0  0  0  0  0  0  0  0
  -17.8655  -24.1348   22.2433 C   0  0  0  0  0  0  0  0  0  0  0  0
  -24.5412   -8.9847   21.5040 C   0  0  0  0  0  0  0  0  0  0  0  0
  -22.6994  -10.4449   20.9448 C   0  0  0  0  0  0  0  0  0  0  0  0
  -17.0843  -25.8334   23.7666 C   0  0  0  0  0  0  0  0  0  0  0  0
  -18.8094  -25.0274   21.7366 C   0  0  0  0  0  0  0  0  0  0  0  0
  -23.3785  -22.9153   21.1818 C   0  0  0  0  0  0  0  0  0  0  0  0
  -23.6677   -7.8980   21.5433 C   0  0  0  0  0  0  0  0  0  0  0  0
  -21.8258   -9.3581   20.9841 C   0  0  0  0  0  0  0  0  0  0  0  0
  -23.5697  -22.0940   20.0715 C   0  0  0  0  0  0  0  0  0  0  0  0
  -21.4017   -6.6006   23.6897 C   0  0  0  0  0  0  0  0  0  0  0  0
  -21.5191   -5.7142   24.7602 C   0  0  0  0  0  0  0  0  0  0  0  0
  -24.6773  -23.9069   18.9288 C   0  0  0  0  0  0  0  0  0  0  0  0
  -26.8712  -19.3193   20.2415 C   0  0  0  0  0  0  0  0  0  0  0  0
  -21.9800   -3.9125   23.2180 C   0  0  0  0  0  0  0  0  0  0  0  0
  -24.0570  -10.2582   21.2048 C   0  0  0  0  0  0  0  0  0  0  0  0
  -25.6744  -11.8574   20.0496 C   0  0  0  0  0  0  0  0  0  0  0  0
  -18.0362  -26.7393   23.2725 C   0  0  0  0  0  0  0  0  0  0  0  0
  -23.8263  -24.2442   21.1697 C   0  0  0  0  0  0  0  0  0  0  0  0
  -18.9028  -26.3366   22.2385 C   0  0  0  0  0  0  0  0  0  0  0  0
  -24.4928  -24.7423   20.0411 C   0  0  0  0  0  0  0  0  0  0  0  0
  -27.2632  -20.5186   19.6571 C   0  0  0  0  0  0  0  0  0  0  0  0
  -27.7927  -21.5311   20.4494 C   0  0  0  0  0  0  0  0  0  0  0  0
  -22.3100   -8.0847   21.2834 C   0  0  0  0  0  0  0  0  0  0  0  0
  -24.2166  -22.5906   18.9437 C   0  0  0  0  0  0  0  0  0  0  0  0
  -21.5735   -6.1430   22.3832 C   0  0  0  0  0  0  0  0  0  0  0  0
  -21.8082   -4.3702   24.5244 C   0  0  0  0  0  0  0  0  0  0  0  0
  -21.8626   -4.7990   22.1474 C   0  0  0  0  0  0  0  0  0  0  0  0
  -24.9587  -11.3813   21.1645 C   0  0  0  0  0  0  0  0  0  0  0  0
  -27.9085  -21.2966   21.8100 C   0  0  0  0  0  0  0  0  0  0  0  0
  -27.0283  -19.1837   21.6114 C   0  0  0  0  0  0  0  0  0  0  0  0
  -26.3808  -12.9334   20.5290 C   0  0  0  0  0  0  0  0  0  0  0  0
  -25.6984  -11.3706   18.7013 C   0  0  0  0  0  0  0  0  0  0  0  0
  -22.4222  -27.0866   21.3994 C   0  0  0  0  0  0  0  0  0  0  0  0
  -25.4827  -28.1608   21.4419 C   0  0  0  0  0  0  0  0  0  0  0  0
  -28.7537  -27.6222   20.6313 C   0  0  0  0  0  0  0  0  0  0  0  0
  -26.6913  -17.6039   23.5445 C   0  0  0  0  0  0  0  0  0  0  0  0
  -18.0549  -28.1439   23.8214 C   0  0  0  0  0  0  0  0  0  0  0  0
  -23.6360  -25.1091   22.3855 C   0  0  0  0  0  0  0  0  0  0  0  0
  -25.0106  -26.1555   19.9854 C   0  0  0  0  0  0  0  0  0  0  0  0
  -19.3324  -28.9107   23.4892 C   0  0  0  0  0  0  0  0  0  0  0  0
  -27.1427  -14.5243   25.2735 C   0  0  0  0  0  0  0  0  0  0  0  0
  -19.6895  -28.7402   22.0161 C   0  0  0  0  0  0  0  0  0  0  0  0
  -26.6736  -13.4712   24.2669 C   0  0  0  0  0  0  0  0  0  0  0  0
  -26.2968  -15.7943   25.2013 C   0  0  0  0  0  0  0  0  0  0  0  0
  -25.7054  -15.3304   22.8552 C   0  0  0  0  0  0  0  0  0  0  0  0
  -19.9566  -27.2680   21.6800 C   0  0  1  0  0  0  0  0  0  0  0  0
  -23.6764  -26.6011   22.0695 C   0  0  1  0  0  0  0  0  0  0  0  0
  -26.5681  -14.0579   22.8455 C   0  0  2  0  0  0  0  0  0  0  0  0
  -29.5672  -22.7194   19.1357 C   0  0  0  0  0  0  0  0  0  0  0  0
  -28.8097  -21.8027   24.0943 C   0  0  0  0  0  0  0  0  0  0  0  0
  -31.2287  -28.0280   20.5457 C   0  0  0  0  0  0  0  0  0  0  0  0
  -23.4139  -19.6535   17.4009 C   0  0  0  0  0  0  0  0  0  0  0  0
  -24.7329  -30.0117   19.1349 C   0  0  0  0  0  0  0  0  0  0  0  0
  -27.1758  -30.3368   18.6936 C   0  0  0  0  0  0  0  0  0  0  0  0
  -26.1979  -31.0529   20.8739 C   0  0  0  0  0  0  0  0  0  0  0  0
  -29.1992  -26.1540   23.1621 C   0  0  0  0  0  0  0  0  0  0  0  0
  -27.1041  -20.6965   18.1683 C   0  0  0  0  0  0  0  0  0  0  0  0
  -28.2229  -22.8279   19.8505 C   0  0  0  0  0  0  0  0  0  0  0  0
  -28.4692  -22.3483   22.7111 C   0  0  0  0  0  0  0  0  0  0  0  0
  -25.9135  -19.9281   17.5766 C   0  0  0  0  0  0  0  0  0  0  0  0
  -26.4808  -28.5870   20.3925 C   0  0  1  0  0  0  0  0  0  0  0  0
  -30.0290  -27.7642   21.4424 C   0  0  2  0  0  0  0  0  0  0  0  0
  -24.5484  -20.3922   18.0994 C   0  0  1  0  0  0  0  0  0  1  0  0
  -26.1355  -29.9710   19.7737 C   0  0  0  0  0  0  0  0  0  0  0  0
  -25.1895  -12.0962   22.2690 N   0  0  0  0  0  0  0  0  0  0  0  0
  -27.5386  -20.1449   22.4136 N   0  0  0  0  0  0  0  0  0  0  0  0
  -26.0581  -13.0323   21.8505 N   0  0  0  0  0  0  0  0  0  0  0  0
  -24.7947  -26.9640   21.1967 N   0  0  0  0  0  0  0  0  0  0  0  0
  -26.2456  -16.2951   23.8260 N   0  0  0  0  0  0  0  0  0  0  0  0
  -27.2403  -13.7950   19.9448 N   0  0  0  0  0  0  0  0  0  0  0  0
  -24.9129  -10.2554   18.3794 N   0  0  0  0  0  0  0  0  0  0  0  0
  -26.6256  -17.9581   22.1973 N   0  0  0  0  0  0  0  0  0  0  0  0
  -21.2727  -26.8760   22.1368 N   0  0  0  0  0  0  0  0  0  0  0  0
  -27.7924  -28.5273   21.0285 N   0  0  0  0  0  0  0  0  0  0  0  0
  -30.2888  -26.5204   22.2212 N   0  3  0  0  0  0  0  0  0  0  0  0
  -26.4084  -11.8987   17.8121 O   0  0  0  0  0  0  0  0  0  0  0  0
  -22.4924  -27.6146   20.2958 O   0  0  0  0  0  0  0  0  0  0  0  0
  -25.3247  -28.8602   22.4456 O   0  0  0  0  0  0  0  0  0  0  0  0
  -28.6247  -26.7938   19.7326 O   0  0  0  0  0  0  0  0  0  0  0  0
  -27.1265  -18.3455   24.4291 O   0  0  0  0  0  0  0  0  0  0  0  0
  -21.4574   -7.0244   21.3215 O   0  0  0  0  0  0  0  0  0  0  0  0
  -24.4040  -21.7913   17.8584 O   0  0  0  0  0  0  0  0  0  1  0  0
  -21.9224   -3.5194   25.5527 F   0  0  0  0  0  0  0  0  0  0  0  0
  -22.0299   -4.3537   20.8946 F   0  0  0  0  0  0  0  0  0  0  0  0
  1  2  1  0  0  0  0
  1  5  2  0  0  0  0
  2  6  2  0  0  0  0
  3  8  2  0  0  0  0
  3 16  1  0  0  0  0
  4  9  1  0  0  0  0
  4 16  2  0  0  0  0
  5 18  1  0  0  0  0
  6 20  1  0  0  0  0
  7 10  2  0  0  0  0
  7 19  1  0  0  0  0
  8 24  1  0  0  0  0
  9 24  2  0  0  0  0
 10 25  1  0  0  0  0
 11 12  2  0  0  0  0
 11 26  1  0  0  0  0
 12 27  1  0  0  0  0
 13 21  1  0  0  0  0
 13 25  2  0  0  0  0
 14 22  2  0  0  0  0
 14 31  1  0  0  0  0
 15 27  2  0  0  0  0
 15 28  1  0  0  0  0
 16 29  1  0  0  0  0
 17 29  1  0  0  0  0
 17 32  2  0  0  0  0
 17 33  1  0  0  0  0
 18 20  2  0  0  0  0
 18 38  1  0  0  0  0
 19 21  2  0  0  0  0
 19 39  1  0  0  0  0
 20 47  1  0  0  0  0
 21 40  1  0  0  0  0
 22 23  1  0  0  0  0
 22 58  1  0  0  0  0
 23 30  2  0  0  0  0
 23 59  1  0  0  0  0
 24 82  1  0  0  0  0
 25 83  1  0  0  0  0
 26 28  2  0  0  0  0
 26 82  1  0  0  0  0
 27 84  1  0  0  0  0
 28 85  1  0  0  0  0
 29 66  2  0  0  0  0
 30 60  1  0  0  0  0
 30 67  1  0  0  0  0
 31 67  2  0  0  0  0
 31 73  1  0  0  0  0
 32 68  1  0  0  0  0
 32 71  1  0  0  0  0
 33 72  1  0  0  0  0
 33 77  2  0  0  0  0
 34 48  1  0  0  0  0
 34 74  1  0  0  0  0
 34 78  2  0  0  0  0
 35 62  1  0  0  0  0
 35 69  1  0  0  0  0
 35 79  2  0  0  0  0
 36 63  1  0  0  0  0
 36 75  1  0  0  0  0
 36 80  2  0  0  0  0
 37 70  1  0  0  0  0
 37 73  1  0  0  0  0
 37 81  2  0  0  0  0
 38 41  1  0  0  0  0
 39 48  1  0  0  0  0
 40 69  1  0  0  0  0
 41 43  1  0  0  0  0
 42 44  1  0  0  0  0
 42 45  1  0  0  0  0
 43 47  1  0  0  0  0
 44 49  1  0  0  0  0
 45 70  1  0  0  0  0
 46 49  1  0  0  0  0
 46 70  1  0  0  0  0
 47 74  1  0  0  0  0
 48 69  1  0  0  0  0
 49 68  1  0  0  0  0
 50 59  1  0  0  0  0
 51 60  1  0  0  0  0
 52 63  1  0  0  0  0
 53 64  1  0  0  0  0
 54 65  1  0  0  0  0
 55 65  1  0  0  0  0
 56 65  1  0  0  0  0
 57 76  1  0  0  0  0
 58 61  1  0  0  0  0
 61 64  1  0  0  0  0
 62 65  1  0  0  0  0
 62 75  1  0  0  0  0
 63 76  1  0  0  0  0
 64 83  1  0  0  0  0
 66 68  1  0  0  0  0
M  CHG  1  76   1
M  ISO  4  37 100  64 101  73 100  83 101
M  END
> <Batch ID>
0100

> <Smiles>
CCc1nc([100NH:0][100C:0](=O)N2CCCC(n3nc(-c4ccc(Oc5ccc(F)cc5F)cc4)c(C(N)=O)c3N)C2)cc(CC[101CH:1](C)[101O:1]c2ccc3c(c2)CN(C(=O)C(NC(=O)C(C)NC)C(C)(C)C)C(C(=O)NC2CCCc4ccccc42)C3)c1CC

> <Shape>
0.255

> <Color>
0.101

> <Negative vol penalty>
0.000

$$$$

  -OEChem-04052319333D

 83 91  0     1  0  0  0  0  0999 V2000
  -23.2210   -7.4460   21.9371 C   0  0  0  0  0  0  0  0  0  0  0  0
  -24.4122   -8.0872   22.2618 C   0  0  0  0  0  0  0  0  0  0  0  0
  -24.4712  -25.2852   23.9940 C   0  0  0  0  0  0  0  0  0  0  0  0
  -23.9924  -25.8492   21.6940 C   0  0  0  0  0  0  0  0  0  0  0  0
  -22.4457   -7.9133   20.8767 C   0  0  0  0  0  0  0  0  0  0  0  0
  -24.8293   -9.1954   21.5255 C   0  0  0  0  0  0  0  0  0  0  0  0
  -28.3622  -15.3829   22.2676 C   0  0  0  0  0  0  0  0  0  0  0  0
  -23.1066  -25.3030   24.2824 C   0  0  0  0  0  0  0  0  0  0  0  0
  -22.6278  -25.8669   21.9825 C   0  0  0  0  0  0  0  0  0  0  0  0
  -29.4211  -16.0929   21.7033 C   0  0  0  0  0  0  0  0  0  0  0  0
  -20.4145  -27.9736   23.4295 C   0  0  0  0  0  0  0  0  0  0  0  0
  -19.6605  -29.0358   22.9308 C   0  0  0  0  0  0  0  0  0  0  0  0
  -27.9609  -16.8596   19.9428 C   0  0  0  0  0  0  0  0  0  0  0  0
  -18.2857  -27.4799   21.6953 C   0  0  0  0  0  0  0  0  0  0  0  0
  -24.9141  -25.5584   22.6998 C   0  0  0  0  0  0  0  0  0  0  0  0
  -27.2084  -24.4546   22.5400 C   0  0  0  0  0  0  0  0  0  0  0  0
  -22.8487   -9.0337   20.1332 C   0  0  0  0  0  0  0  0  0  0  0  0
  -27.0953  -15.3971   21.6666 C   0  0  0  0  0  0  0  0  0  0  0  0
  -24.0593   -9.6774   20.4534 C   0  0  0  0  0  0  0  0  0  0  0  0
  -26.8870  -16.1510   20.5029 C   0  0  0  0  0  0  0  0  0  0  0  0
  -22.1849  -25.5938   23.2767 C   0  0  0  0  0  0  0  0  0  0  0  0
  -29.2212  -16.8291   20.5392 C   0  0  0  0  0  0  0  0  0  0  0  0
  -20.1042  -26.6645   23.0611 C   0  0  0  0  0  0  0  0  0  0  0  0
  -18.5961  -28.7890   22.0637 C   0  0  0  0  0  0  0  0  0  0  0  0
  -19.0398  -26.4177   22.1941 C   0  0  0  0  0  0  0  0  0  0  0  0
  -26.3236  -25.5408   22.4014 C   0  0  0  0  0  0  0  0  0  0  0  0
  -28.4231  -24.9466   22.1289 C   0  0  0  0  0  0  0  0  0  0  0  0
  -26.9549  -23.1202   22.9992 C   0  0  0  0  0  0  0  0  0  0  0  0
  -25.1934  -13.1934   20.3897 C   0  0  0  0  0  0  0  0  0  0  0  0
  -23.1053  -15.6682   20.1953 C   0  0  0  0  0  0  0  0  0  0  0  0
  -22.6181  -19.0424   20.0396 C   0  0  0  0  0  0  0  0  0  0  0  0
  -30.2414  -28.7917   18.0068 C   0  0  0  0  0  0  0  0  0  0  0  0
  -22.0011   -9.4734   18.9658 C   0  0  0  0  0  0  0  0  0  0  0  0
  -25.9568  -14.6475   22.3026 C   0  0  0  0  0  0  0  0  0  0  0  0
  -25.5410  -16.2154   19.8300 C   0  0  0  0  0  0  0  0  0  0  0  0
  -22.3261  -10.8812   18.4731 C   0  0  0  0  0  0  0  0  0  0  0  0
  -30.3961  -29.4450   21.6469 C   0  0  0  0  0  0  0  0  0  0  0  0
  -23.8344  -11.0650   18.3392 C   0  0  0  0  0  0  0  0  0  0  0  0
  -29.2265  -22.9717   18.4108 C   0  0  0  0  0  0  0  0  0  0  0  0
  -31.6770  -23.2454   17.8655 C   0  0  0  0  0  0  0  0  0  0  0  0
  -29.5331  -21.6586   19.1288 C   0  0  0  0  0  0  0  0  0  0  0  0
  -31.9834  -21.9324   18.5838 C   0  0  0  0  0  0  0  0  0  0  0  0
  -29.3854  -28.4460   22.2079 C   0  0  0  0  0  0  0  0  0  0  0  0
  -30.0486  -29.8636   20.2216 C   0  0  0  0  0  0  0  0  0  0  0  0
  -28.8709  -27.7226   19.8430 C   0  0  0  0  0  0  0  0  0  0  0  0
  -24.5330  -10.8977   19.6940 C   0  0  1  0  0  0  0  0  0  0  0  0
  -24.8366  -14.3173   21.3211 C   0  0  1  0  0  0  0  0  0  0  0  0
  -30.4271  -23.9262   18.4373 C   0  0  0  0  0  0  0  0  0  0  0  0
  -30.7830  -20.9780   18.5567 C   0  0  0  0  0  0  0  0  0  0  0  0
  -29.2179  -27.2448   21.2611 C   0  0  2  0  0  0  0  0  0  0  0  0
  -20.8022  -20.7638   19.8481 C   0  0  0  0  0  0  0  0  0  0  0  0
  -32.3658  -19.0454   18.7743 C   0  0  0  0  0  0  0  0  0  0  0  0
  -22.8070  -15.0201   17.2287 C   0  0  0  0  0  0  0  0  0  0  0  0
  -21.7746  -17.2786   16.9105 C   0  0  0  0  0  0  0  0  0  0  0  0
  -20.6695  -15.6013   18.3896 C   0  0  0  0  0  0  0  0  0  0  0  0
  -31.0927  -27.6532   15.9922 C   0  0  0  0  0  0  0  0  0  0  0  0
  -23.3369  -20.2584   22.6403 C   0  0  0  0  0  0  0  0  0  0  0  0
  -30.1134  -25.2091   17.6699 C   0  0  0  0  0  0  0  0  0  0  0  0
  -30.9899  -26.3765   18.1005 C   0  0  0  0  0  0  0  0  0  0  0  0
  -29.9256  -18.7100   19.2655 C   0  0  0  0  0  0  0  0  0  1  0  0
  -22.7960  -16.7276   19.1653 C   0  0  1  0  0  0  0  0  0  0  0  0
  -21.6766  -19.9603   20.7982 C   0  0  2  0  0  0  0  0  0  0  0  0
  -31.0969  -19.6944   19.3228 C   0  0  2  0  0  0  0  0  0  0  0  0
  -22.0377  -16.1543   17.9349 C   0  0  0  0  0  0  0  0  0  0  0  0
  -26.9250  -26.6399   21.9386 N   0  0  0  0  0  0  0  0  0  0  0  0
  -28.2008  -26.2470   21.7828 N   0  0  0  0  0  0  0  0  0  0  0  0
  -24.4610  -15.4604   20.4866 N   0  0  0  0  0  0  0  0  0  0  0  0
  -29.8525  -28.7021   19.3535 N   0  0  0  0  0  0  0  0  0  0  0  0
  -29.6490  -24.3894   22.0333 N   0  0  0  0  0  0  0  0  0  0  0  0
  -26.5879  -22.1483   22.0585 N   0  0  0  0  0  0  0  0  0  0  0  0
  -24.3689  -12.0898   20.4979 N   0  0  0  0  0  0  0  0  0  0  0  0
  -22.0788  -17.7848   19.8697 N   0  0  0  0  0  0  0  0  0  0  0  0
  -30.6686  -27.6091   17.3843 N   0  0  0  0  0  0  0  0  0  0  0  0
  -22.4509  -20.9127   21.6433 N   0  3  0  0  0  0  0  0  0  0  0  0
  -27.0351  -22.8031   24.2102 O   0  0  0  0  0  0  0  0  0  0  0  0
  -26.1453  -13.3189   19.6283 O   0  0  0  0  0  0  0  0  0  0  0  0
  -22.1780  -15.0529   20.7273 O   0  0  0  0  0  0  0  0  0  0  0  0
  -23.7201  -19.4059   19.6346 O   0  0  0  0  0  0  0  0  0  0  0  0
  -30.2176  -29.8694   17.3984 O   0  0  0  0  0  0  0  0  0  0  0  0
  -20.8533  -25.6110   23.5577 O   0  0  0  0  0  0  0  0  0  0  0  0
  -30.2532  -17.5225   19.9860 O   0  0  0  0  0  0  0  0  0  1  0  0
  -17.8711  -29.8090   21.5861 F   0  0  0  0  0  0  0  0  0  0  0  0
  -18.7362  -25.1621   21.8375 F   0  0  0  0  0  0  0  0  0  0  0  0
  1  2  1  0  0  0  0
  1  5  2  0  0  0  0
  2  6  2  0  0  0  0
  3  8  2  0  0  0  0
  3 15  1  0  0  0  0
  4  9  1  0  0  0  0
  4 15  2  0  0  0  0
  5 17  1  0  0  0  0
  6 19  1  0  0  0  0
  7 10  2  0  0  0  0
  7 18  1  0  0  0  0
  8 21  1  0  0  0  0
  9 21  2  0  0  0  0
 10 22  1  0  0  0  0
 11 12  2  0  0  0  0
 11 23  1  0  0  0  0
 12 24  1  0  0  0  0
 13 20  1  0  0  0  0
 13 22  2  0  0  0  0
 14 24  2  0  0  0  0
 14 25  1  0  0  0  0
 15 26  1  0  0  0  0
 16 26  1  0  0  0  0
 16 27  2  0  0  0  0
 16 28  1  0  0  0  0
 17 19  2  0  0  0  0
 17 33  1  0  0  0  0
 18 20  2  0  0  0  0
 18 34  1  0  0  0  0
 19 46  1  0  0  0  0
 20 35  1  0  0  0  0
 21 80  1  0  0  0  0
 22 81  1  0  0  0  0
 23 25  2  0  0  0  0
 23 80  1  0  0  0  0
 24 82  1  0  0  0  0
 25 83  1  0  0  0  0
 26 65  2  0  0  0  0
 27 66  1  0  0  0  0
 27 69  1  0  0  0  0
 28 70  1  0  0  0  0
 28 75  2  0  0  0  0
 29 47  1  0  0  0  0
 29 71  1  0  0  0  0
 29 76  2  0  0  0  0
 30 61  1  0  0  0  0
 30 67  1  0  0  0  0
 30 77  2  0  0  0  0
 31 62  1  0  0  0  0
 31 72  1  0  0  0  0
 31 78  2  0  0  0  0
 32 68  1  0  0  0  0
 32 73  1  0  0  0  0
 32 79  2  0  0  0  0
 33 36  1  0  0  0  0
 34 47  1  0  0  0  0
 35 67  1  0  0  0  0
 36 38  1  0  0  0  0
 37 43  1  0  0  0  0
 37 44  1  0  0  0  0
 38 46  1  0  0  0  0
 39 41  1  0  0  0  0
 39 48  1  0  0  0  0
 40 42  1  0  0  0  0
 40 48  1  0  0  0  0
 41 49  1  0  0  0  0
 42 49  1  0  0  0  0
 43 50  1  0  0  0  0
 44 68  1  0  0  0  0
 45 50  1  0  0  0  0
 45 68  1  0  0  0  0
 46 71  1  0  0  0  0
 47 67  1  0  0  0  0
 48 58  1  0  0  0  0
 49 63  1  0  0  0  0
 50 66  1  0  0  0  0
 51 62  1  0  0  0  0
 52 63  1  0  0  0  0
 53 64  1  0  0  0  0
 54 64  1  0  0  0  0
 55 64  1  0  0  0  0
 56 73  1  0  0  0  0
 57 74  1  0  0  0  0
 58 59  1  0  0  0  0
 59 73  1  0  0  0  0
 60 63  1  0  0  0  0
 60 81  1  0  0  0  0
 61 64  1  0  0  0  0
 61 72  1  0  0  0  0
 62 74  1  0  0  0  0
 65 66  1  0  0  0  0
M  CHG  1  74   1
M  ISO  4  32 100  60 101  73 100  81 101
M  END
> <Batch ID>
0100

> <Smiles>
CNC(C)C(=O)NC(C(=O)N1Cc2cc([101O:1][101CH2:1]C(C)C3CCC(CC[100N:0](C)[100C:0](=O)N4CCCC(n5nc(-c6ccc(Oc7ccc(F)cc7F)cc6)c(C(N)=O)c5N)C4)CC3)ccc2CC1C(=O)NC1CCCc2ccccc21)C(C)(C)C

> <Shape>
0.208

> <Color>
0.065

> <Negative vol penalty>
0.000

$$$$

  -OEChem-04052319333D

 86 94  0     1  0  0  0  0  0999 V2000
  -20.3830  -31.7598   22.0962 C   0  0  0  0  0  0  0  0  0  0  0  0
  -21.6207  -31.1246   22.0961 C   0  0  0  0  0  0  0  0  0  0  0  0
  -25.3841  -13.3482   21.1682 C   0  0  0  0  0  0  0  0  0  0  0  0
  -26.3645  -12.9515   18.9960 C   0  0  0  0  0  0  0  0  0  0  0  0
  -19.2170  -31.0118   22.2545 C   0  0  0  0  0  0  0  0  0  0  0  0
  -21.6933  -29.7412   22.2554 C   0  0  0  0  0  0  0  0  0  0  0  0
  -24.9091  -27.5765   18.9970 C   0  0  0  0  0  0  0  0  0  0  0  0
  -24.4728  -12.3159   20.9455 C   0  0  0  0  0  0  0  0  0  0  0  0
  -25.4532  -11.9192   18.7732 C   0  0  0  0  0  0  0  0  0  0  0  0
  -26.2696  -27.6738   19.2855 C   0  0  0  0  0  0  0  0  0  0  0  0
  -24.4604   -8.9366   21.0586 C   0  0  0  0  0  0  0  0  0  0  0  0
  -24.2423   -8.0295   22.0955 C   0  0  0  0  0  0  0  0  0  0  0  0
  -26.2363  -25.4300   20.1706 C   0  0  0  0  0  0  0  0  0  0  0  0
  -21.9044   -8.6375   22.1358 C   0  0  0  0  0  0  0  0  0  0  0  0
  -30.0706  -25.1235   17.5393 C   0  0  0  0  0  0  0  0  0  0  0  0
  -26.3299  -13.6660   20.1934 C   0  0  0  0  0  0  0  0  0  0  0  0
  -28.5439  -14.6304   21.0155 C   0  0  0  0  0  0  0  0  0  0  0  0
  -19.2747  -29.6175   22.4061 C   0  0  0  0  0  0  0  0  0  0  0  0
  -24.1983  -26.4072   19.3036 C   0  0  0  0  0  0  0  0  0  0  0  0
  -20.5271  -28.9741   22.4172 C   0  0  0  0  0  0  0  0  0  0  0  0
  -24.8673  -25.3195   19.8826 C   0  0  0  0  0  0  0  0  0  0  0  0
  -30.2400  -23.7580   17.4754 C   0  0  0  0  0  0  0  0  0  0  0  0
  -30.7947  -23.3423   18.7109 C   0  0  0  0  0  0  0  0  0  0  0  0
  -24.5074  -11.6014   19.7480 C   0  0  0  0  0  0  0  0  0  0  0  0
  -26.9328  -26.6016   19.8750 C   0  0  0  0  0  0  0  0  0  0  0  0
  -23.4005   -9.6943   20.5604 C   0  0  0  0  0  0  0  0  0  0  0  0
  -22.9643   -7.8799   22.6341 C   0  0  0  0  0  0  0  0  0  0  0  0
  -22.1225   -9.5447   21.0989 C   0  0  0  0  0  0  0  0  0  0  0  0
  -27.2711  -14.7326   20.4227 C   0  0  0  0  0  0  0  0  0  0  0  0
  -30.9473  -24.4664   19.4923 C   0  0  0  0  0  0  0  0  0  0  0  0
  -29.0334  -15.9136   21.0012 C   0  0  0  0  0  0  0  0  0  0  0  0
  -29.2230  -13.4785   21.5328 C   0  0  0  0  0  0  0  0  0  0  0  0
  -21.7457  -25.7052   21.1998 C   0  0  0  0  0  0  0  0  0  0  0  0
  -21.9987  -22.7912   19.7974 C   0  0  0  0  0  0  0  0  0  0  0  0
  -23.7180  -20.9973   17.8644 C   0  0  0  0  0  0  0  0  0  0  0  0
  -27.8931  -20.5194   17.4880 C   0  0  0  0  0  0  0  0  0  0  0  0
  -17.9903  -28.8569   22.6214 C   0  0  0  0  0  0  0  0  0  0  0  0
  -22.7370  -26.3083   18.9616 C   0  0  0  0  0  0  0  0  0  0  0  0
  -24.1543  -24.0345   20.2130 C   0  0  0  0  0  0  0  0  0  0  0  0
  -18.1307  -27.3517   22.4091 C   0  0  0  0  0  0  0  0  0  0  0  0
  -27.5863  -20.4749   21.0937 C   0  0  0  0  0  0  0  0  0  0  0  0
  -19.3725  -26.8256   23.1219 C   0  0  0  0  0  0  0  0  0  0  0  0
  -27.5928  -18.9723   21.3810 C   0  0  0  0  0  0  0  0  0  0  0  0
  -26.8268  -20.7886   19.8081 C   0  0  0  0  0  0  0  0  0  0  0  0
  -27.3280  -18.5565   18.8917 C   0  0  0  0  0  0  0  0  0  0  0  0
  -20.6453  -27.4725   22.5625 C   0  0  1  0  0  0  0  0  0  0  0  0
  -21.9997  -25.2589   19.7877 C   0  0  1  0  0  0  0  0  0  0  0  0
  -28.1000  -18.1719   20.1669 C   0  0  2  0  0  0  0  0  0  0  0  0
  -31.1458  -21.9590   19.0934 C   0  0  0  0  0  0  0  0  0  0  0  0
  -32.8225  -27.4849   18.3187 C   0  0  0  0  0  0  0  0  0  0  0  0
  -32.9566  -24.1802   20.9871 C   0  0  0  0  0  0  0  0  0  0  0  0
  -30.6367  -23.8495   21.9166 C   0  0  0  0  0  0  0  0  0  0  0  0
  -24.3921  -18.8222   16.8101 C   0  0  0  0  0  0  0  0  0  0  0  0
  -22.1499  -21.5943   22.5999 C   0  0  0  0  0  0  0  0  0  0  0  0
  -23.0252  -19.4840   21.5759 C   0  0  0  0  0  0  0  0  0  0  0  0
  -20.7427  -20.3004   20.9875 C   0  0  0  0  0  0  0  0  0  0  0  0
  -23.1135  -21.9950   15.1445 C   0  0  0  0  0  0  0  0  0  0  0  0
  -29.9022  -22.8965   16.3248 C   0  0  0  0  0  0  0  0  0  0  0  0
  -31.3599  -27.9111   18.3658 C   0  0  0  0  0  0  0  0  0  0  0  0
  -28.4018  -22.5767   16.1974 C   0  0  0  0  0  0  0  0  0  0  0  0
  -29.0485  -27.5305   19.3120 C   0  0  0  0  0  0  0  0  0  1  0  0
  -31.4768  -24.6092   20.8650 C   0  0  0  0  0  0  0  0  0  0  0  0
  -22.7658  -21.5252   20.0936 C   0  0  1  0  0  0  0  0  0  0  0  0
  -23.5306  -20.0685   16.6785 C   0  0  2  0  0  0  0  0  0  0  0  0
  -30.4868  -26.9900   19.2435 C   0  0  1  0  0  0  0  0  0  0  0  0
  -22.1842  -20.7507   21.3099 C   0  0  0  0  0  0  0  0  0  0  0  0
  -26.9708  -15.9821   20.0584 N   0  0  0  0  0  0  0  0  0  0  0  0
  -30.5036  -25.5432   18.7699 N   0  0  0  0  0  0  0  0  0  0  0  0
  -28.0618  -16.6768   20.4234 N   0  0  0  0  0  0  0  0  0  0  0  0
  -22.7245  -23.9889   19.8652 N   0  0  0  0  0  0  0  0  0  0  0  0
  -27.3708  -20.0083   18.6877 N   0  0  0  0  0  0  0  0  0  0  0  0
  -30.1958  -16.4524   21.4266 N   0  0  0  0  0  0  0  0  0  0  0  0
  -28.5763  -12.2368   21.4686 N   0  0  0  0  0  0  0  0  0  0  0  0
  -21.0056  -26.8680   21.2978 N   0  0  0  0  0  0  0  0  0  0  0  0
  -22.7853  -20.7597   18.8517 N   0  0  0  0  0  0  0  0  0  0  0  0
  -27.8911  -21.9039   17.3711 N   0  0  0  0  0  0  0  0  0  0  0  0
  -23.8996  -20.7634   15.4128 N   0  3  0  0  0  0  0  0  0  0  0  0
  -30.3626  -13.5510   22.0521 O   0  0  0  0  0  0  0  0  0  0  0  0
  -22.1873  -25.0429   22.1315 O   0  0  0  0  0  0  0  0  0  0  0  0
  -20.8014  -22.7195   19.5092 O   0  0  0  0  0  0  0  0  0  0  0  0
  -24.6056  -21.8461   17.9120 O   0  0  0  0  0  0  0  0  0  0  0  0
  -28.3341  -19.7952   16.5890 O   0  0  0  0  0  0  0  0  0  0  0  0
  -23.6185  -10.5939   19.5304 O   0  0  0  0  0  0  0  0  0  0  0  0
  -28.2606  -26.6942   20.1583 O   0  0  0  0  0  0  0  0  0  1  0  0
  -22.7548   -7.0076   23.6287 F   0  0  0  0  0  0  0  0  0  0  0  0
  -21.1001  -10.2690   20.6236 F   0  0  0  0  0  0  0  0  0  0  0  0
  1  2  1  0  0  0  0
  1  5  2  0  0  0  0
  2  6  2  0  0  0  0
  3  8  2  0  0  0  0
  3 16  1  0  0  0  0
  4  9  1  0  0  0  0
  4 16  2  0  0  0  0
  5 18  1  0  0  0  0
  6 20  1  0  0  0  0
  7 10  2  0  0  0  0
  7 19  1  0  0  0  0
  8 24  1  0  0  0  0
  9 24  2  0  0  0  0
 10 25  1  0  0  0  0
 11 12  2  0  0  0  0
 11 26  1  0  0  0  0
 12 27  1  0  0  0  0
 13 21  1  0  0  0  0
 13 25  2  0  0  0  0
 14 27  2  0  0  0  0
 14 28  1  0  0  0  0
 15 22  2  0  0  0  0
 15 68  1  0  0  0  0
 16 29  1  0  0  0  0
 17 29  1  0  0  0  0
 17 31  2  0  0  0  0
 17 32  1  0  0  0  0
 18 20  2  0  0  0  0
 18 37  1  0  0  0  0
 19 21  2  0  0  0  0
 19 38  1  0  0  0  0
 20 46  1  0  0  0  0
 21 39  1  0  0  0  0
 22 23  1  0  0  0  0
 22 58  1  0  0  0  0
 23 30  2  0  0  0  0
 23 49  1  0  0  0  0
 24 83  1  0  0  0  0
 25 84  1  0  0  0  0
 26 28  2  0  0  0  0
 26 83  1  0  0  0  0
 27 85  1  0  0  0  0
 28 86  1  0  0  0  0
 29 67  2  0  0  0  0
 30 62  1  0  0  0  0
 30 68  1  0  0  0  0
 31 69  1  0  0  0  0
 31 72  1  0  0  0  0
 32 73  1  0  0  0  0
 32 78  2  0  0  0  0
 33 47  1  0  0  0  0
 33 74  1  0  0  0  0
 33 79  2  0  0  0  0
 34 63  1  0  0  0  0
 34 70  1  0  0  0  0
 34 80  2  0  0  0  0
 35 64  1  0  0  0  0
 35 75  1  0  0  0  0
 35 81  2  0  0  0  0
 36 71  1  0  0  0  0
 36 76  1  0  0  0  0
 36 82  2  0  0  0  0
 37 40  1  0  0  0  0
 38 47  1  0  0  0  0
 39 70  1  0  0  0  0
 40 42  1  0  0  0  0
 41 43  1  0  0  0  0
 41 44  1  0  0  0  0
 42 46  1  0  0  0  0
 43 48  1  0  0  0  0
 44 71  1  0  0  0  0
 45 48  1  0  0  0  0
 45 71  1  0  0  0  0
 46 74  1  0  0  0  0
 47 70  1  0  0  0  0
 48 69  1  0  0  0  0
 50 59  1  0  0  0  0
 51 62  1  0  0  0  0
 52 62  1  0  0  0  0
 53 64  1  0  0  0  0
 54 66  1  0  0  0  0
 55 66  1  0  0  0  0
 56 66  1  0  0  0  0
 57 77  1  0  0  0  0
 58 60  1  0  0  0  0
 59 65  1  0  0  0  0
 60 76  1  0  0  0  0
 61 65  1  0  0  0  0
 61 84  1  0  0  0  0
 63 66  1  0  0  0  0
 63 75  1  0  0  0  0
 64 77  1  0  0  0  0
 65 68  1  0  0  0  0
 67 69  1  0  0  0  0
M  CHG  1  77   1
M  ISO  4  36 100  61 101  76 100  84 101
M  END
> <Batch ID>
0100

> <Smiles>
CCC(n1cc(CC[100NH:0][100C:0](=O)N2CCCC(n3nc(-c4ccc(Oc5ccc(F)cc5F)cc4)c(C(N)=O)c3N)C2)c(C)c1C(C)C)[101CH2:1][101O:1]c1ccc2c(c1)CN(C(=O)C(NC(=O)C(C)NC)C(C)(C)C)C(C(=O)NC1CCCc3ccccc31)C2

> <Shape>
0.263

> <Color>
0.059

> <Negative vol penalty>
0.000

$$$$

  -OEChem-04052319333D

 85 93  0     1  0  0  0  0  0999 V2000
  -17.7151  -27.6555   25.7106 C   0  0  0  0  0  0  0  0  0  0  0  0
  -18.6782  -26.7827   25.2144 C   0  0  0  0  0  0  0  0  0  0  0  0
  -26.8282  -12.4950   21.8715 C   0  0  0  0  0  0  0  0  0  0  0  0
  -26.0675  -14.2215   20.3624 C   0  0  0  0  0  0  0  0  0  0  0  0
  -17.4375  -28.8429   25.0345 C   0  0  0  0  0  0  0  0  0  0  0  0
  -19.3634  -27.0963   24.0411 C   0  0  0  0  0  0  0  0  0  0  0  0
  -25.1983  -25.7843   22.7228 C   0  0  0  0  0  0  0  0  0  0  0  0
  -25.5315  -11.9862   21.9432 C   0  0  0  0  0  0  0  0  0  0  0  0
  -24.7707  -13.7127   20.4340 C   0  0  0  0  0  0  0  0  0  0  0  0
  -25.7844  -24.7634   21.9758 C   0  0  0  0  0  0  0  0  0  0  0  0
  -23.5032  -10.0595   20.0440 C   0  0  0  0  0  0  0  0  0  0  0  0
  -23.3423   -8.6778   19.9401 C   0  0  0  0  0  0  0  0  0  0  0  0
  -25.8696  -26.2239   20.0578 C   0  0  0  0  0  0  0  0  0  0  0  0
  -30.2039  -24.0260   20.4113 C   0  0  0  0  0  0  0  0  0  0  0  0
  -29.4998  -21.7263   20.3989 C   0  0  0  0  0  0  0  0  0  0  0  0
  -22.3299   -8.6308   22.1333 C   0  0  0  0  0  0  0  0  0  0  0  0
  -27.0963  -13.6127   21.0812 C   0  0  0  0  0  0  0  0  0  0  0  0
  -29.4406  -13.7799   20.0894 C   0  0  0  0  0  0  0  0  0  0  0  0
  -18.1265  -29.1757   23.8576 C   0  0  0  0  0  0  0  0  0  0  0  0
  -24.9330  -27.0313   22.1388 C   0  0  0  0  0  0  0  0  0  0  0  0
  -19.0937  -28.2886   23.3479 C   0  0  0  0  0  0  0  0  0  0  0  0
  -25.2824  -27.2598   20.8002 C   0  0  0  0  0  0  0  0  0  0  0  0
  -29.4663  -22.9972   19.8360 C   0  0  0  0  0  0  0  0  0  0  0  0
  -24.5027  -12.5950   21.2244 C   0  0  0  0  0  0  0  0  0  0  0  0
  -26.1175  -24.9822   20.6423 C   0  0  0  0  0  0  0  0  0  0  0  0
  -23.0776  -10.7268   21.1926 C   0  0  0  0  0  0  0  0  0  0  0  0
  -22.7556   -7.9635   20.9847 C   0  0  0  0  0  0  0  0  0  0  0  0
  -22.4909  -10.0125   22.2372 C   0  0  0  0  0  0  0  0  0  0  0  0
  -28.4355  -14.1391   21.0073 C   0  0  0  0  0  0  0  0  0  0  0  0
  -30.9529  -23.7344   21.5399 C   0  0  0  0  0  0  0  0  0  0  0  0
  -30.2804  -21.5376   21.5280 C   0  0  0  0  0  0  0  0  0  0  0  0
  -30.5171  -14.5590   20.4367 C   0  0  0  0  0  0  0  0  0  0  0  0
  -29.4044  -12.8273   19.0184 C   0  0  0  0  0  0  0  0  0  0  0  0
  -22.3072  -28.7328   21.5789 C   0  0  0  0  0  0  0  0  0  0  0  0
  -24.4395  -30.9867   20.6325 C   0  0  0  0  0  0  0  0  0  0  0  0
  -27.5615  -31.7101   19.4593 C   0  0  0  0  0  0  0  0  0  0  0  0
  -31.0179  -19.8229   23.2198 C   0  0  0  0  0  0  0  0  0  0  0  0
  -17.7584  -30.4479   23.1360 C   0  0  0  0  0  0  0  0  0  0  0  0
  -24.3247  -28.1307   22.9656 C   0  0  0  0  0  0  0  0  0  0  0  0
  -25.0369  -28.5871   20.1320 C   0  0  0  0  0  0  0  0  0  0  0  0
  -18.7942  -30.8837   22.1029 C   0  0  0  0  0  0  0  0  0  0  0  0
  -32.4982  -16.7404   24.2117 C   0  0  0  0  0  0  0  0  0  0  0  0
  -19.2195  -29.6993   21.2409 C   0  0  0  0  0  0  0  0  0  0  0  0
  -31.7199  -15.6913   23.4144 C   0  0  0  0  0  0  0  0  0  0  0  0
  -31.5992  -17.8885   24.6672 C   0  0  0  0  0  0  0  0  0  0  0  0
  -30.0427  -17.4798   22.8019 C   0  0  0  0  0  0  0  0  0  0  0  0
  -19.8758  -28.6053   22.0917 C   0  0  1  0  0  0  0  0  0  0  0  0
  -23.6285  -29.1959   22.1241 C   0  0  1  0  0  0  0  0  0  0  0  0
  -30.9192  -16.3360   22.2661 C   0  0  2  0  0  0  0  0  0  0  0  0
  -28.9997  -33.6387   18.7455 C   0  0  0  0  0  0  0  0  0  0  0  0
  -27.8579  -22.0163   18.0668 C   0  0  0  0  0  0  0  0  0  0  0  0
  -29.5410  -23.7318   17.4330 C   0  0  0  0  0  0  0  0  0  0  0  0
  -30.8491  -25.9918   22.6531 C   0  0  0  0  0  0  0  0  0  0  0  0
  -32.8128  -25.3981   21.1945 C   0  0  0  0  0  0  0  0  0  0  0  0
  -32.5677  -24.3816   23.4501 C   0  0  0  0  0  0  0  0  0  0  0  0
  -22.9058  -31.1529   18.0000 C   0  0  0  0  0  0  0  0  0  0  0  0
  -24.8766  -32.3352   17.0069 C   0  0  0  0  0  0  0  0  0  0  0  0
  -23.6436  -33.3589   18.9185 C   0  0  0  0  0  0  0  0  0  0  0  0
  -29.5569  -31.1550   21.5734 C   0  0  0  0  0  0  0  0  0  0  0  0
  -27.5750  -24.3785   18.8626 C   0  0  0  0  0  0  0  0  0  1  0  0
  -25.1117  -31.3417   19.3283 C   0  0  1  0  0  0  0  0  0  0  0  0
  -28.5901  -32.7364   19.8991 C   0  0  2  0  0  0  0  0  0  0  0  0
  -28.6157  -23.2644   18.5800 C   0  0  0  0  0  0  0  0  0  0  0  0
  -31.7576  -24.8139   22.1836 C   0  0  0  0  0  0  0  0  0  0  0  0
  -24.1374  -32.0214   18.3252 C   0  0  0  0  0  0  0  0  0  0  0  0
  -28.8376  -15.0735   21.8728 N   0  0  0  0  0  0  0  0  0  0  0  0
  -31.0103  -22.5124   22.1152 N   0  0  0  0  0  0  0  0  0  0  0  0
  -30.1074  -15.3080   21.5003 N   0  0  0  0  0  0  0  0  0  0  0  0
  -24.4343  -29.6285   20.9805 N   0  0  0  0  0  0  0  0  0  0  0  0
  -30.8756  -18.4529   23.5259 N   0  0  0  0  0  0  0  0  0  0  0  0
  -31.7647  -14.6695   19.9330 N   0  0  0  0  0  0  0  0  0  0  0  0
  -28.2187  -12.1127   18.7997 N   0  0  0  0  0  0  0  0  0  0  0  0
  -30.3081  -20.2388   22.0938 N   0  0  0  0  0  0  0  0  0  0  0  0
  -21.2372  -28.9695   22.4208 N   0  0  0  0  0  0  0  0  0  0  0  0
  -26.2736  -32.1527   19.6754 N   0  0  0  0  0  0  0  0  0  0  0  0
  -29.8097  -32.0568   20.4202 N   0  3  0  0  0  0  0  0  0  0  0  0
  -30.3993  -12.6042   18.2878 O   0  0  0  0  0  0  0  0  0  0  0  0
  -22.2615  -28.2017   20.4756 O   0  0  0  0  0  0  0  0  0  0  0  0
  -23.9437  -31.8823   21.3208 O   0  0  0  0  0  0  0  0  0  0  0  0
  -27.8697  -30.6259   18.9694 O   0  0  0  0  0  0  0  0  0  0  0  0
  -31.7393  -20.5661   23.8900 O   0  0  0  0  0  0  0  0  0  0  0  0
  -23.2373  -12.0986   21.2938 O   0  0  0  0  0  0  0  0  0  0  0  0
  -26.6892  -23.9872   19.9107 O   0  0  0  0  0  0  0  0  0  1  0  0
  -22.5998   -6.6370   20.8842 F   0  0  0  0  0  0  0  0  0  0  0  0
  -22.0789  -10.6483   23.3426 F   0  0  0  0  0  0  0  0  0  0  0  0
  1  2  1  0  0  0  0
  1  5  2  0  0  0  0
  2  6  2  0  0  0  0
  3  8  2  0  0  0  0
  3 17  1  0  0  0  0
  4  9  1  0  0  0  0
  4 17  2  0  0  0  0
  5 19  1  0  0  0  0
  6 21  1  0  0  0  0
  7 10  2  0  0  0  0
  7 20  1  0  0  0  0
  8 24  1  0  0  0  0
  9 24  2  0  0  0  0
 10 25  1  0  0  0  0
 11 12  2  0  0  0  0
 11 26  1  0  0  0  0
 12 27  1  0  0  0  0
 13 22  1  0  0  0  0
 13 25  2  0  0  0  0
 14 23  2  0  0  0  0
 14 30  1  0  0  0  0
 15 23  1  0  0  0  0
 15 31  2  0  0  0  0
 16 27  2  0  0  0  0
 16 28  1  0  0  0  0
 17 29  1  0  0  0  0
 18 29  1  0  0  0  0
 18 32  2  0  0  0  0
 18 33  1  0  0  0  0
 19 21  2  0  0  0  0
 19 38  1  0  0  0  0
 20 22  2  0  0  0  0
 20 39  1  0  0  0  0
 21 47  1  0  0  0  0
 22 40  1  0  0  0  0
 23 63  1  0  0  0  0
 24 82  1  0  0  0  0
 25 83  1  0  0  0  0
 26 28  2  0  0  0  0
 26 82  1  0  0  0  0
 27 84  1  0  0  0  0
 28 85  1  0  0  0  0
 29 66  2  0  0  0  0
 30 64  1  0  0  0  0
 30 67  2  0  0  0  0
 31 67  1  0  0  0  0
 31 73  1  0  0  0  0
 32 68  1  0  0  0  0
 32 71  1  0  0  0  0
 33 72  1  0  0  0  0
 33 77  2  0  0  0  0
 34 48  1  0  0  0  0
 34 74  1  0  0  0  0
 34 78  2  0  0  0  0
 35 61  1  0  0  0  0
 35 69  1  0  0  0  0
 35 79  2  0  0  0  0
 36 62  1  0  0  0  0
 36 75  1  0  0  0  0
 36 80  2  0  0  0  0
 37 70  1  0  0  0  0
 37 73  1  0  0  0  0
 37 81  2  0  0  0  0
 38 41  1  0  0  0  0
 39 48  1  0  0  0  0
 40 69  1  0  0  0  0
 41 43  1  0  0  0  0
 42 44  1  0  0  0  0
 42 45  1  0  0  0  0
 43 47  1  0  0  0  0
 44 49  1  0  0  0  0
 45 70  1  0  0  0  0
 46 49  1  0  0  0  0
 46 70  1  0  0  0  0
 47 74  1  0  0  0  0
 48 69  1  0  0  0  0
 49 68  1  0  0  0  0
 50 62  1  0  0  0  0
 51 63  1  0  0  0  0
 52 63  1  0  0  0  0
 53 64  1  0  0  0  0
 54 64  1  0  0  0  0
 55 64  1  0  0  0  0
 56 65  1  0  0  0  0
 57 65  1  0  0  0  0
 58 65  1  0  0  0  0
 59 76  1  0  0  0  0
 60 63  1  0  0  0  0
 60 83  1  0  0  0  0
 61 65  1  0  0  0  0
 61 75  1  0  0  0  0
 62 76  1  0  0  0  0
 66 68  1  0  0  0  0
M  CHG  1  76   1
M  ISO  4  37 100  60 101  73 100  83 101
M  END
> <Batch ID>
0100

> <Smiles>
CNC(C)C(=O)NC(C(=O)N1Cc2cc([101O:1][101CH2:1]C(C)(C)c3cc([100NH:0][100C:0](=O)N4CCCC(n5nc(-c6ccc(Oc7ccc(F)cc7F)cc6)c(C(N)=O)c5N)C4)nc(C(C)(C)C)c3)ccc2CC1C(=O)NC1CCCc2ccccc21)C(C)(C)C

> <Shape>
0.261

> <Color>
0.066

> <Negative vol penalty>
0.000

$$$$

  -OEChem-04052319333D

 87 95  0     1  0  0  0  0  0999 V2000
  -29.6869  -35.5199   21.8609 C   0  0  0  0  0  0  0  0  0  0  0  0
  -29.9943  -34.5881   20.8747 C   0  0  0  0  0  0  0  0  0  0  0  0
  -23.1508   -9.7807   19.8854 C   0  0  0  0  0  0  0  0  0  0  0  0
  -23.8847   -9.7702   22.1872 C   0  0  0  0  0  0  0  0  0  0  0  0
  -29.2092  -35.0913   23.0987 C   0  0  0  0  0  0  0  0  0  0  0  0
  -29.8253  -33.2270   21.1260 C   0  0  0  0  0  0  0  0  0  0  0  0
  -28.0807  -27.1143   17.8233 C   0  0  0  0  0  0  0  0  0  0  0  0
  -29.7767  -20.1005   15.9424 C   0  0  0  0  0  0  0  0  0  0  0  0
  -30.1945  -20.9931   16.9295 C   0  0  0  0  0  0  0  0  0  0  0  0
  -22.4521   -8.5932   20.1027 C   0  0  0  0  0  0  0  0  0  0  0  0
  -23.1859   -8.5827   22.4045 C   0  0  0  0  0  0  0  0  0  0  0  0
  -28.5522  -25.8147   17.6434 C   0  0  0  0  0  0  0  0  0  0  0  0
  -19.9868   -7.6416   22.9525 C   0  0  0  0  0  0  0  0  0  0  0  0
  -19.2194   -7.5462   24.1133 C   0  0  0  0  0  0  0  0  0  0  0  0
  -27.6451  -25.1948   19.7910 C   0  0  0  0  0  0  0  0  0  0  0  0
  -20.5309   -5.6458   24.8241 C   0  0  0  0  0  0  0  0  0  0  0  0
  -23.8672  -10.3692   20.9276 C   0  0  0  0  0  0  0  0  0  0  0  0
  -24.1067  -12.9081   20.8638 C   0  0  0  0  0  0  0  0  0  0  0  0
  -29.0251  -33.7247   23.3620 C   0  0  0  0  0  0  0  0  0  0  0  0
  -27.3962  -27.4673   18.9952 C   0  0  0  0  0  0  0  0  0  0  0  0
  -29.3460  -32.7796   22.3689 C   0  0  0  0  0  0  0  0  0  0  0  0
  -27.1637  -26.4989   19.9822 C   0  0  0  0  0  0  0  0  0  0  0  0
  -28.9112  -19.0561   16.2677 C   0  0  0  0  0  0  0  0  0  0  0  0
  -29.7470  -20.8412   18.2418 C   0  0  0  0  0  0  0  0  0  0  0  0
  -28.4636  -18.9042   17.5800 C   0  0  0  0  0  0  0  0  0  0  0  0
  -28.8815  -19.7967   18.5671 C   0  0  0  0  0  0  0  0  0  0  0  0
  -22.4696   -7.9942   21.3623 C   0  0  0  0  0  0  0  0  0  0  0  0
  -28.3370  -24.8554   18.6286 C   0  0  0  0  0  0  0  0  0  0  0  0
  -21.0262   -6.7391   22.7274 C   0  0  0  0  0  0  0  0  0  0  0  0
  -19.4914   -6.5483   25.0491 C   0  0  0  0  0  0  0  0  0  0  0  0
  -21.2983   -5.7412   23.6632 C   0  0  0  0  0  0  0  0  0  0  0  0
  -24.5896  -11.5955   20.7036 C   0  0  0  0  0  0  0  0  0  0  0  0
  -25.1711  -13.7089   20.5290 C   0  0  0  0  0  0  0  0  0  0  0  0
  -22.8117  -13.3628   21.2783 C   0  0  0  0  0  0  0  0  0  0  0  0
  -27.9128  -29.5265   21.3609 C   0  0  0  0  0  0  0  0  0  0  0  0
  -24.9542  -28.5874   22.3028 C   0  0  0  0  0  0  0  0  0  0  0  0
  -22.5189  -26.1972   22.2478 C   0  0  0  0  0  0  0  0  0  0  0  0
  -30.6062  -14.9460   20.8028 C   0  0  0  0  0  0  0  0  0  0  0  0
  -28.5511  -33.3067   24.7314 C   0  0  0  0  0  0  0  0  0  0  0  0
  -26.8705  -28.8667   19.1622 C   0  0  0  0  0  0  0  0  0  0  0  0
  -26.4167  -26.8218   21.2496 C   0  0  0  0  0  0  0  0  0  0  0  0
  -28.0453  -31.8676   24.7878 C   0  0  0  0  0  0  0  0  0  0  0  0
  -29.5932  -12.5682   18.3540 C   0  0  0  0  0  0  0  0  0  0  0  0
  -29.0186  -30.9314   24.0785 C   0  0  0  0  0  0  0  0  0  0  0  0
  -28.1644  -12.2071   18.7639 C   0  0  0  0  0  0  0  0  0  0  0  0
  -30.4874  -12.8007   19.5699 C   0  0  0  0  0  0  0  0  0  0  0  0
  -28.5423  -13.4243   20.9489 C   0  0  0  0  0  0  0  0  0  0  0  0
  -29.1527  -31.2958   22.5951 C   0  0  1  0  0  0  0  0  0  0  0  0
  -26.6354  -29.2465   20.6209 C   0  0  1  0  0  0  0  0  0  0  0  0
  -27.5890  -13.2352   19.7565 C   0  0  2  0  0  0  0  0  0  0  0  0
  -28.4787  -18.1145   15.1916 C   0  0  0  0  0  0  0  0  0  0  0  0
  -27.5345  -17.7839   17.9257 C   0  0  0  0  0  0  0  0  0  0  0  0
  -20.2280  -25.6982   23.1423 C   0  0  0  0  0  0  0  0  0  0  0  0
  -26.1605  -27.9563   25.0335 C   0  0  0  0  0  0  0  0  0  0  0  0
  -24.1131  -26.6110   25.5495 C   0  0  0  0  0  0  0  0  0  0  0  0
  -23.9175  -29.0594   25.1136 C   0  0  0  0  0  0  0  0  0  0  0  0
  -21.3654  -26.0345   19.5272 C   0  0  0  0  0  0  0  0  0  0  0  0
  -30.2161  -21.8198   19.2909 C   0  0  0  0  0  0  0  0  0  0  0  0
  -28.4038  -19.6345   19.9755 C   0  0  0  0  0  0  0  0  0  0  0  0
  -30.5705  -17.0709   22.0845 C   0  0  0  0  0  0  0  0  0  0  0  0
  -29.1534  -22.8592   19.6308 C   0  0  0  0  0  0  0  0  0  1  0  0
  -24.4120  -27.4938   23.1910 C   0  0  1  0  0  0  0  0  0  0  0  0
  -21.0258  -26.2863   21.9889 C   0  0  2  0  0  0  0  0  0  0  0  0
  -28.7840  -18.2796   20.6250 C   0  0  1  0  0  0  0  0  0  0  0  0
  -30.2445  -18.2262   21.1344 C   0  0  2  0  0  0  0  0  0  0  0  0
  -24.6666  -27.7742   24.6990 C   0  0  0  0  0  0  0  0  0  0  0  0
  -25.8619  -11.5601   20.2983 N   0  0  0  0  0  0  0  0  0  0  0  0
  -26.1873  -12.8604   20.2010 N   0  0  0  0  0  0  0  0  0  0  0  0
  -25.9280  -28.2054   21.3691 N   0  0  0  0  0  0  0  0  0  0  0  0
  -29.8856  -13.7870   20.4704 N   0  0  0  0  0  0  0  0  0  0  0  0
  -25.3277  -15.0491   20.4859 N   0  0  0  0  0  0  0  0  0  0  0  0
  -21.8342  -12.4063   21.5848 N   0  0  0  0  0  0  0  0  0  0  0  0
  -27.8347  -17.9755   21.7043 N   0  0  0  0  0  0  0  0  0  0  0  0
  -28.0082  -30.8150   21.8511 N   0  0  0  0  0  0  0  0  0  0  0  0
  -23.0038  -27.3439   22.8405 N   0  0  0  0  0  0  0  0  0  0  0  0
  -29.9604  -15.8317   21.6567 N   0  0  0  0  0  0  0  0  0  0  0  0
  -31.1507  -18.1203   19.9444 N   0  3  0  0  0  0  0  0  0  0  0  0
  -20.6705  -25.5452   20.7457 N   0  3  0  0  0  0  0  0  0  0  0  0
  -22.5246  -14.5813   21.3583 O   0  0  0  0  0  0  0  0  0  0  0  0
  -28.7493  -28.6388   21.4797 O   0  0  0  0  0  0  0  0  0  0  0  0
  -24.5243  -29.7368   22.4278 O   0  0  0  0  0  0  0  0  0  0  0  0
  -23.1875  -25.2078   21.9571 O   0  0  0  0  0  0  0  0  0  0  0  0
  -31.7389  -15.1771   20.3663 O   0  0  0  0  0  0  0  0  0  0  0  0
  -21.7877   -6.8356   21.5748 O   0  0  0  0  0  0  0  0  0  0  0  0
  -28.7968  -23.5863   18.4559 O   0  0  0  0  0  0  0  0  0  1  0  0
  -18.7554   -6.4578   26.1646 F   0  0  0  0  0  0  0  0  0  0  0  0
  -22.2963   -4.8720   23.4531 F   0  0  0  0  0  0  0  0  0  0  0  0
  1  2  1  0  0  0  0
  1  5  2  0  0  0  0
  2  6  2  0  0  0  0
  3 10  2  0  0  0  0
  3 17  1  0  0  0  0
  4 11  1  0  0  0  0
  4 17  2  0  0  0  0
  5 19  1  0  0  0  0
  6 21  1  0  0  0  0
  7 12  2  0  0  0  0
  7 20  1  0  0  0  0
  8  9  2  0  0  0  0
  8 23  1  0  0  0  0
  9 24  1  0  0  0  0
 10 27  1  0  0  0  0
 11 27  2  0  0  0  0
 12 28  1  0  0  0  0
 13 14  2  0  0  0  0
 13 29  1  0  0  0  0
 14 30  1  0  0  0  0
 15 22  1  0  0  0  0
 15 28  2  0  0  0  0
 16 30  2  0  0  0  0
 16 31  1  0  0  0  0
 17 32  1  0  0  0  0
 18 32  1  0  0  0  0
 18 33  2  0  0  0  0
 18 34  1  0  0  0  0
 19 21  2  0  0  0  0
 19 39  1  0  0  0  0
 20 22  2  0  0  0  0
 20 40  1  0  0  0  0
 21 48  1  0  0  0  0
 22 41  1  0  0  0  0
 23 25  2  0  0  0  0
 23 51  1  0  0  0  0
 24 26  2  0  0  0  0
 24 58  1  0  0  0  0
 25 26  1  0  0  0  0
 25 52  1  0  0  0  0
 26 59  1  0  0  0  0
 27 84  1  0  0  0  0
 28 85  1  0  0  0  0
 29 31  2  0  0  0  0
 29 84  1  0  0  0  0
 30 86  1  0  0  0  0
 31 87  1  0  0  0  0
 32 67  2  0  0  0  0
 33 68  1  0  0  0  0
 33 71  1  0  0  0  0
 34 72  1  0  0  0  0
 34 79  2  0  0  0  0
 35 49  1  0  0  0  0
 35 74  1  0  0  0  0
 35 80  2  0  0  0  0
 36 62  1  0  0  0  0
 36 69  1  0  0  0  0
 36 81  2  0  0  0  0
 37 63  1  0  0  0  0
 37 75  1  0  0  0  0
 37 82  2  0  0  0  0
 38 70  1  0  0  0  0
 38 76  1  0  0  0  0
 38 83  2  0  0  0  0
 39 42  1  0  0  0  0
 40 49  1  0  0  0  0
 41 69  1  0  0  0  0
 42 44  1  0  0  0  0
 43 45  1  0  0  0  0
 43 46  1  0  0  0  0
 44 48  1  0  0  0  0
 45 50  1  0  0  0  0
 46 70  1  0  0  0  0
 47 50  1  0  0  0  0
 47 70  1  0  0  0  0
 48 74  1  0  0  0  0
 49 69  1  0  0  0  0
 50 68  1  0  0  0  0
 53 63  1  0  0  0  0
 54 66  1  0  0  0  0
 55 66  1  0  0  0  0
 56 66  1  0  0  0  0
 57 78  1  0  0  0  0
 58 61  1  0  0  0  0
 59 64  1  0  0  0  0
 60 65  1  0  0  0  0
 60 76  1  0  0  0  0
 61 85  1  0  0  0  0
 62 66  1  0  0  0  0
 62 75  1  0  0  0  0
 63 78  1  0  0  0  0
 64 65  1  0  0  0  0
 64 73  1  0  0  0  0
 65 77  1  0  0  0  0
 67 68  1  0  0  0  0
M  CHG  2  77   1  78   1
M  ISO  4  38 100  61 101  76 100  85 101
M  END
> <Batch ID>
0100

> <Smiles>
CNC(C)C(=O)NC(C(=O)N1Cc2cc([101O:1][101CH2:1]Cc3ccc(C)c(C)c3CC(N)C(N)C[100NH:0][100C:0](=O)N3CCCC(n4nc(-c5ccc(Oc6ccc(F)cc6F)cc5)c(C(N)=O)c4N)C3)ccc2CC1C(=O)NC1CCCc2ccccc21)C(C)(C)C

> <Shape>
0.324

> <Color>
0.205

> <Negative vol penalty>
0.000

$$$$

  -OEChem-04052319333D

 81 88  0     1  0  0  0  0  0999 V2000
  -27.7586  -32.8153   20.7735 C   0  0  0  0  0  0  0  0  0  0  0  0
  -28.1034  -31.5502   21.2383 C   0  0  0  0  0  0  0  0  0  0  0  0
  -23.0676   -9.8468   19.9594 C   0  0  0  0  0  0  0  0  0  0  0  0
  -23.8192   -9.8814   22.2553 C   0  0  0  0  0  0  0  0  0  0  0  0
  -26.4160  -33.1560   20.6138 C   0  0  0  0  0  0  0  0  0  0  0  0
  -27.1058  -30.6254   21.5449 C   0  0  0  0  0  0  0  0  0  0  0  0
  -28.1191  -26.0043   19.7384 C   0  0  0  0  0  0  0  0  0  0  0  0
  -22.3164   -8.7014   20.2225 C   0  0  0  0  0  0  0  0  0  0  0  0
  -23.0679   -8.7360   22.5184 C   0  0  0  0  0  0  0  0  0  0  0  0
  -29.0412  -25.2328   20.4442 C   0  0  0  0  0  0  0  0  0  0  0  0
  -19.8332   -7.9645   23.1200 C   0  0  0  0  0  0  0  0  0  0  0  0
  -19.0718   -7.9450   24.2885 C   0  0  0  0  0  0  0  0  0  0  0  0
  -27.2282  -24.0260   21.4816 C   0  0  0  0  0  0  0  0  0  0  0  0
  -20.2997   -6.0111   25.0563 C   0  0  0  0  0  0  0  0  0  0  0  0
  -23.8190  -10.4368   20.9758 C   0  0  0  0  0  0  0  0  0  0  0  0
  -24.1754  -12.9582   20.8220 C   0  0  0  0  0  0  0  0  0  0  0  0
  -25.4017  -32.2316   20.9094 C   0  0  0  0  0  0  0  0  0  0  0  0
  -26.7422  -25.7994   19.9073 C   0  0  0  0  0  0  0  0  0  0  0  0
  -25.7484  -30.9545   21.3904 C   0  0  0  0  0  0  0  0  0  0  0  0
  -26.2908  -24.7945   20.7748 C   0  0  0  0  0  0  0  0  0  0  0  0
  -22.3165   -8.1460   21.5021 C   0  0  0  0  0  0  0  0  0  0  0  0
  -28.5958  -24.2454   21.3182 C   0  0  0  0  0  0  0  0  0  0  0  0
  -20.8278   -7.0072   22.9195 C   0  0  0  0  0  0  0  0  0  0  0  0
  -19.3050   -6.9683   25.2567 C   0  0  0  0  0  0  0  0  0  0  0  0
  -21.0611   -6.0306   23.8877 C   0  0  0  0  0  0  0  0  0  0  0  0
  -24.5957  -11.6198   20.7044 C   0  0  0  0  0  0  0  0  0  0  0  0
  -25.2730  -13.6965   20.4525 C   0  0  0  0  0  0  0  0  0  0  0  0
  -22.9063  -13.4868   21.2290 C   0  0  0  0  0  0  0  0  0  0  0  0
  -24.3227  -27.5733   20.9578 C   0  0  0  0  0  0  0  0  0  0  0  0
  -28.6858  -18.1727   22.0713 C   0  0  0  0  0  0  0  0  0  0  0  0
  -22.5523  -25.0288   20.0019 C   0  0  0  0  0  0  0  0  0  0  0  0
  -22.4144  -21.6880   19.3184 C   0  0  0  0  0  0  0  0  0  0  0  0
  -30.7616  -14.6877   20.6471 C   0  0  0  0  0  0  0  0  0  0  0  0
  -23.9633  -32.6616   20.7660 C   0  0  0  0  0  0  0  0  0  0  0  0
  -25.7607  -26.6221   19.1184 C   0  0  0  0  0  0  0  0  0  0  0  0
  -24.8234  -24.5212   20.9764 C   0  0  0  0  0  0  0  0  0  0  0  0
  -22.9772  -31.4964   20.7569 C   0  0  0  0  0  0  0  0  0  0  0  0
  -29.6194  -12.2766   18.2893 C   0  0  0  0  0  0  0  0  0  0  0  0
  -23.2964  -30.5182   21.8830 C   0  0  0  0  0  0  0  0  0  0  0  0
  -28.1788  -11.9969   18.7210 C   0  0  0  0  0  0  0  0  0  0  0  0
  -30.5334  -12.5090   19.4905 C   0  0  0  0  0  0  0  0  0  0  0  0
  -28.6307  -13.2698   20.8597 C   0  0  0  0  0  0  0  0  0  0  0  0
  -24.6957  -29.9154   21.7101 C   0  0  1  0  0  0  0  0  0  0  0  0
  -24.3756  -26.6733   19.7557 C   0  0  1  0  0  0  0  0  0  0  0  0
  -27.6599  -13.0842   19.6810 C   0  0  2  0  0  0  0  0  0  0  0  0
  -28.5910  -18.1764   23.5797 C   0  0  0  0  0  0  0  0  0  0  0  0
  -20.8209  -19.8895   18.5947 C   0  0  0  0  0  0  0  0  0  0  0  0
  -29.9377  -18.1357   19.8790 C   0  0  0  0  0  0  0  0  0  0  0  0
  -21.3408  -24.9788   22.8018 C   0  0  0  0  0  0  0  0  0  0  0  0
  -20.5149  -22.6633   22.3275 C   0  0  0  0  0  0  0  0  0  0  0  0
  -19.7069  -24.5803   20.9509 C   0  0  0  0  0  0  0  0  0  0  0  0
  -23.9824  -21.1215   16.8732 C   0  0  0  0  0  0  0  0  0  0  0  0
  -30.3708  -20.7296   21.4418 C   0  0  0  0  0  0  0  0  0  0  0  0
  -31.2808  -21.8967   21.8326 C   0  0  0  0  0  0  0  0  0  0  0  0
  -30.9321  -19.3632   21.8618 C   0  0  0  0  0  0  0  0  0  0  0  0
  -30.8350  -16.8548   21.8543 C   0  0  0  0  0  0  0  0  0  0  0  0
  -30.7576  -23.2569   21.3909 C   0  0  0  0  0  0  0  0  0  1  0  0
  -22.0769  -23.7522   20.6525 C   0  0  1  0  0  0  0  0  0  0  0  0
  -21.8387  -20.9239   18.1398 C   0  0  2  0  0  0  0  0  0  0  0  0
  -30.0864  -18.1373   21.4153 C   0  0  1  0  0  0  0  0  0  0  0  0
  -20.9376  -23.9998   21.6811 C   0  0  0  0  0  0  0  0  0  0  0  0
  -25.8615  -11.5111   20.2922 N   0  0  0  0  0  0  0  0  0  0  0  0
  -26.2460  -12.7907   20.1475 N   0  0  0  0  0  0  0  0  0  0  0  0
  -23.9029  -25.3563   20.1872 N   0  0  0  0  0  0  0  0  0  0  0  0
  -29.9854  -13.5528   20.3601 N   0  0  0  0  0  0  0  0  0  0  0  0
  -25.4911  -15.0256   20.3618 N   0  0  0  0  0  0  0  0  0  0  0  0
  -21.8881  -12.5880   21.5751 N   0  0  0  0  0  0  0  0  0  0  0  0
  -24.6793  -28.8825   20.6966 N   0  0  0  0  0  0  0  0  0  0  0  0
  -21.7143  -22.8501   19.5648 N   0  0  0  0  0  0  0  0  0  0  0  0
  -30.1646  -15.6314   21.4739 N   0  0  0  0  0  0  0  0  0  0  0  0
  -22.9237  -20.2212   17.3983 N   0  3  0  0  0  0  0  0  0  0  0  0
  -22.6767  -14.7193   21.2685 O   0  0  0  0  0  0  0  0  0  0  0  0
  -23.9820  -27.1142   22.0417 O   0  0  0  0  0  0  0  0  0  0  0  0
  -27.6532  -18.1949   21.3969 O   0  0  0  0  0  0  0  0  0  0  0  0
  -21.7563  -25.7066   19.3472 O   0  0  0  0  0  0  0  0  0  0  0  0
  -23.3854  -21.2916   19.9590 O   0  0  0  0  0  0  0  0  0  0  0  0
  -31.9002  -14.8506   20.1953 O   0  0  0  0  0  0  0  0  0  0  0  0
  -21.5834   -7.0284   21.7593 O   0  0  0  0  0  0  0  0  0  0  0  0
  -29.5000  -23.4861   22.0137 O   0  0  0  0  0  0  0  0  0  1  0  0
  -18.5748   -6.9507   26.3794 F   0  0  0  0  0  0  0  0  0  0  0  0
  -22.0160   -5.1091   23.7013 F   0  0  0  0  0  0  0  0  0  0  0  0
  1  2  1  0  0  0  0
  1  5  2  0  0  0  0
  2  6  2  0  0  0  0
  3  8  2  0  0  0  0
  3 15  1  0  0  0  0
  4  9  1  0  0  0  0
  4 15  2  0  0  0  0
  5 17  1  0  0  0  0
  6 19  1  0  0  0  0
  7 10  2  0  0  0  0
  7 18  1  0  0  0  0
  8 21  1  0  0  0  0
  9 21  2  0  0  0  0
 10 22  1  0  0  0  0
 11 12  2  0  0  0  0
 11 23  1  0  0  0  0
 12 24  1  0  0  0  0
 13 20  1  0  0  0  0
 13 22  2  0  0  0  0
 14 24  2  0  0  0  0
 14 25  1  0  0  0  0
 15 26  1  0  0  0  0
 16 26  1  0  0  0  0
 16 27  2  0  0  0  0
 16 28  1  0  0  0  0
 17 19  2  0  0  0  0
 17 34  1  0  0  0  0
 18 20  2  0  0  0  0
 18 35  1  0  0  0  0
 19 43  1  0  0  0  0
 20 36  1  0  0  0  0
 21 78  1  0  0  0  0
 22 79  1  0  0  0  0
 23 25  2  0  0  0  0
 23 78  1  0  0  0  0
 24 80  1  0  0  0  0
 25 81  1  0  0  0  0
 26 62  2  0  0  0  0
 27 63  1  0  0  0  0
 27 66  1  0  0  0  0
 28 67  1  0  0  0  0
 28 72  2  0  0  0  0
 29 44  1  0  0  0  0
 29 68  1  0  0  0  0
 29 73  2  0  0  0  0
 30 46  1  0  0  0  0
 30 60  1  0  0  0  0
 30 74  2  0  0  0  0
 31 58  1  0  0  0  0
 31 64  1  0  0  0  0
 31 75  2  0  0  0  0
 32 59  1  0  0  0  0
 32 69  1  0  0  0  0
 32 76  2  0  0  0  0
 33 65  1  0  0  0  0
 33 70  1  0  0  0  0
 33 77  2  0  0  0  0
 34 37  1  0  0  0  0
 35 44  1  0  0  0  0
 36 64  1  0  0  0  0
 37 39  1  0  0  0  0
 38 40  1  0  0  0  0
 38 41  1  0  0  0  0
 39 43  1  0  0  0  0
 40 45  1  0  0  0  0
 41 65  1  0  0  0  0
 42 45  1  0  0  0  0
 42 65  1  0  0  0  0
 43 68  1  0  0  0  0
 44 64  1  0  0  0  0
 45 63  1  0  0  0  0
 47 59  1  0  0  0  0
 48 60  1  0  0  0  0
 49 61  1  0  0  0  0
 50 61  1  0  0  0  0
 51 61  1  0  0  0  0
 52 71  1  0  0  0  0
 53 54  1  0  0  0  0
 53 55  1  0  0  0  0
 54 57  1  0  0  0  0
 55 60  1  0  0  0  0
 56 60  1  0  0  0  0
 56 70  1  0  0  0  0
 57 79  1  0  0  0  0
 58 61  1  0  0  0  0
 58 69  1  0  0  0  0
 59 71  1  0  0  0  0
 62 63  1  0  0  0  0
M  CHG  1  71   1
M  ISO  4  33 100  57 101  70 100  79 101
M  END
> <Batch ID>
0100

> <Smiles>
CNC(C)C(=O)NC(C(=O)N1Cc2cc([101O:1][101CH2:1]CCCC(C)(C[100NH:0][100C:0](=O)N3CCCC(n4nc(-c5ccc(Oc6ccc(F)cc6F)cc5)c(C(N)=O)c4N)C3)C(C)=O)ccc2CC1C(=O)NC1CCCc2ccccc21)C(C)(C)C

> <Shape>
0.284

> <Color>
0.196

> <Negative vol penalty>
0.000

$$$$

  -OEChem-04052319333D

 82 90  0     1  0  0  0  0  0999 V2000
  -16.8025  -21.5961   27.7490 C   0  0  0  0  0  0  0  0  0  0  0  0
  -18.1834  -21.7186   27.8655 C   0  0  0  0  0  0  0  0  0  0  0  0
  -23.2011   -9.8505   19.9537 C   0  0  0  0  0  0  0  0  0  0  0  0
  -23.9129   -9.9306   22.2611 C   0  0  0  0  0  0  0  0  0  0  0  0
  -16.2566  -20.8105   26.7347 C   0  0  0  0  0  0  0  0  0  0  0  0
  -19.0192  -21.0545   26.9684 C   0  0  0  0  0  0  0  0  0  0  0  0
  -25.3318  -21.7537   23.6549 C   0  0  0  0  0  0  0  0  0  0  0  0
  -22.5098   -8.6661   20.2081 C   0  0  0  0  0  0  0  0  0  0  0  0
  -23.2216   -8.7461   22.5155 C   0  0  0  0  0  0  0  0  0  0  0  0
  -26.5216  -21.0575   23.4461 C   0  0  0  0  0  0  0  0  0  0  0  0
  -20.0248   -7.7993   23.0678 C   0  0  0  0  0  0  0  0  0  0  0  0
  -19.2471   -7.7402   24.2242 C   0  0  0  0  0  0  0  0  0  0  0  0
  -32.2294  -17.4647   21.9235 C   0  0  0  0  0  0  0  0  0  0  0  0
  -25.4649  -19.7917   21.6853 C   0  0  0  0  0  0  0  0  0  0  0  0
  -20.5668   -5.8781   25.0166 C   0  0  0  0  0  0  0  0  0  0  0  0
  -32.0686  -18.8056   21.6139 C   0  0  0  0  0  0  0  0  0  0  0  0
  -23.9028  -10.4828   20.9802 C   0  0  0  0  0  0  0  0  0  0  0  0
  -24.1227  -13.0196   20.8253 C   0  0  0  0  0  0  0  0  0  0  0  0
  -17.0860  -20.1443   25.8188 C   0  0  0  0  0  0  0  0  0  0  0  0
  -24.1946  -21.4660   22.8865 C   0  0  0  0  0  0  0  0  0  0  0  0
  -18.4840  -20.2582   25.9417 C   0  0  0  0  0  0  0  0  0  0  0  0
  -24.2626  -20.4874   21.8846 C   0  0  0  0  0  0  0  0  0  0  0  0
  -31.2249  -16.8405   22.6546 C   0  0  0  0  0  0  0  0  0  0  0  0
  -30.1061  -17.5661   23.0484 C   0  0  0  0  0  0  0  0  0  0  0  0
  -22.5200   -8.1139   21.4889 C   0  0  0  0  0  0  0  0  0  0  0  0
  -26.5874  -20.0744   22.4631 C   0  0  0  0  0  0  0  0  0  0  0  0
  -21.0736   -6.8977   22.8858 C   0  0  0  0  0  0  0  0  0  0  0  0
  -19.5181   -6.7796   25.1986 C   0  0  0  0  0  0  0  0  0  0  0  0
  -21.3446   -5.9372   23.8602 C   0  0  0  0  0  0  0  0  0  0  0  0
  -24.6176  -11.7060   20.7180 C   0  0  0  0  0  0  0  0  0  0  0  0
  -30.0404  -18.9025   22.6887 C   0  0  0  0  0  0  0  0  0  0  0  0
  -25.1839  -13.8163   20.4711 C   0  0  0  0  0  0  0  0  0  0  0  0
  -22.8201  -13.4784   21.2107 C   0  0  0  0  0  0  0  0  0  0  0  0
  -21.2726  -20.3874   23.5211 C   0  0  0  0  0  0  0  0  0  0  0  0
  -20.7866  -20.9956   20.3721 C   0  0  0  0  0  0  0  0  0  0  0  0
  -22.1243  -21.3893   17.2572 C   0  0  0  0  0  0  0  0  0  0  0  0
  -30.9477  -14.0591   20.9553 C   0  0  0  0  0  0  0  0  0  0  0  0
  -16.4508  -19.2684   24.7681 C   0  0  0  0  0  0  0  0  0  0  0  0
  -22.9264  -22.2445   23.1060 C   0  0  0  0  0  0  0  0  0  0  0  0
  -23.0758  -20.1549   21.0189 C   0  0  0  0  0  0  0  0  0  0  0  0
  -17.3978  -18.8989   23.6293 C   0  0  0  0  0  0  0  0  0  0  0  0
  -29.3561  -13.1270   17.9098 C   0  0  0  0  0  0  0  0  0  0  0  0
  -18.7462  -18.4476   24.1814 C   0  0  0  0  0  0  0  0  0  0  0  0
  -27.9259  -12.7877   18.3335 C   0  0  0  0  0  0  0  0  0  0  0  0
  -30.3737  -12.7000   18.9653 C   0  0  0  0  0  0  0  0  0  0  0  0
  -28.6794  -12.8725   20.7467 C   0  0  0  0  0  0  0  0  0  0  0  0
  -19.4231  -19.5733   24.9727 C   0  0  1  0  0  0  0  0  0  0  0  0
  -21.6826  -21.5119   22.6126 C   0  0  1  0  0  0  0  0  0  0  0  0
  -27.6128  -13.3346   19.7392 C   0  0  2  0  0  0  0  0  0  0  0  0
  -27.6685  -16.9249   23.0815 C   0  0  0  0  0  0  0  0  0  0  0  0
  -28.8343  -17.5589   25.2248 C   0  0  0  0  0  0  0  0  0  0  0  0
  -21.4729  -21.8414   14.8763 C   0  0  0  0  0  0  0  0  0  0  0  0
  -19.8092  -18.1184   20.0957 C   0  0  0  0  0  0  0  0  0  0  0  0
  -20.0823  -18.3373   17.6167 C   0  0  0  0  0  0  0  0  0  0  0  0
  -18.4660  -19.8029   18.8259 C   0  0  0  0  0  0  0  0  0  0  0  0
  -23.7054  -23.8898   17.1776 C   0  0  0  0  0  0  0  0  0  0  0  0
  -31.3704  -15.3960   23.0030 C   0  0  0  0  0  0  0  0  0  0  0  0
  -28.8578  -19.7365   23.0854 C   0  0  0  0  0  0  0  0  0  1  0  0
  -29.0128  -16.9227   23.8334 C   0  0  0  0  0  0  0  0  0  0  0  0
  -20.9471  -20.2083   19.0940 C   0  0  1  0  0  0  0  0  0  0  0  0
  -21.9117  -22.4547   16.1970 C   0  0  2  0  0  0  0  0  0  0  0  0
  -19.8481  -19.1214   18.9255 C   0  0  0  0  0  0  0  0  0  0  0  0
  -30.9961  -19.5433   21.9790 N   0  0  0  0  0  0  0  0  0  0  0  0
  -25.8939  -11.6663   20.3261 N   0  0  0  0  0  0  0  0  0  0  0  0
  -26.2099  -12.9648   20.1841 N   0  0  0  0  0  0  0  0  0  0  0  0
  -21.8567  -20.9393   21.2762 N   0  0  0  0  0  0  0  0  0  0  0  0
  -30.0200  -13.2531   20.2749 N   0  0  0  0  0  0  0  0  0  0  0  0
  -25.3302  -15.1553   20.3803 N   0  0  0  0  0  0  0  0  0  0  0  0
  -21.8474  -12.5257   21.5431 N   0  0  0  0  0  0  0  0  0  0  0  0
  -20.0145  -20.5393   24.0719 N   0  0  0  0  0  0  0  0  0  0  0  0
  -20.9893  -21.1879   18.0137 N   0  0  0  0  0  0  0  0  0  0  0  0
  -30.5302  -14.5478   22.1872 N   0  0  0  0  0  0  0  0  0  0  0  0
  -23.1727  -23.2148   15.9662 N   0  3  0  0  0  0  0  0  0  0  0  0
  -22.5227  -14.6966   21.2431 O   0  0  0  0  0  0  0  0  0  0  0  0
  -22.0404  -19.4506   23.7073 O   0  0  0  0  0  0  0  0  0  0  0  0
  -19.7530  -21.6426   20.5581 O   0  0  0  0  0  0  0  0  0  0  0  0
  -23.1896  -20.7926   17.3977 O   0  0  0  0  0  0  0  0  0  0  0  0
  -32.0630  -14.3278   20.4963 O   0  0  0  0  0  0  0  0  0  0  0  0
  -21.8453   -6.9582   21.7375 O   0  0  0  0  0  0  0  0  0  0  0  0
  -27.7473  -19.3929   22.2577 O   0  0  0  0  0  0  0  0  0  1  0  0
  -18.7721   -6.7240   26.3097 F   0  0  0  0  0  0  0  0  0  0  0  0
  -22.3515   -5.0691   23.6915 F   0  0  0  0  0  0  0  0  0  0  0  0
  1  2  1  0  0  0  0
  1  5  2  0  0  0  0
  2  6  2  0  0  0  0
  3  8  2  0  0  0  0
  3 17  1  0  0  0  0
  4  9  1  0  0  0  0
  4 17  2  0  0  0  0
  5 19  1  0  0  0  0
  6 21  1  0  0  0  0
  7 10  2  0  0  0  0
  7 20  1  0  0  0  0
  8 25  1  0  0  0  0
  9 25  2  0  0  0  0
 10 26  1  0  0  0  0
 11 12  2  0  0  0  0
 11 27  1  0  0  0  0
 12 28  1  0  0  0  0
 13 16  1  0  0  0  0
 13 23  2  0  0  0  0
 14 22  1  0  0  0  0
 14 26  2  0  0  0  0
 15 28  2  0  0  0  0
 15 29  1  0  0  0  0
 16 63  2  0  0  0  0
 17 30  1  0  0  0  0
 18 30  1  0  0  0  0
 18 32  2  0  0  0  0
 18 33  1  0  0  0  0
 19 21  2  0  0  0  0
 19 38  1  0  0  0  0
 20 22  2  0  0  0  0
 20 39  1  0  0  0  0
 21 47  1  0  0  0  0
 22 40  1  0  0  0  0
 23 24  1  0  0  0  0
 23 57  1  0  0  0  0
 24 31  2  0  0  0  0
 24 59  1  0  0  0  0
 25 79  1  0  0  0  0
 26 80  1  0  0  0  0
 27 29  2  0  0  0  0
 27 79  1  0  0  0  0
 28 81  1  0  0  0  0
 29 82  1  0  0  0  0
 30 64  2  0  0  0  0
 31 58  1  0  0  0  0
 31 63  1  0  0  0  0
 32 65  1  0  0  0  0
 32 68  1  0  0  0  0
 33 69  1  0  0  0  0
 33 74  2  0  0  0  0
 34 48  1  0  0  0  0
 34 70  1  0  0  0  0
 34 75  2  0  0  0  0
 35 60  1  0  0  0  0
 35 66  1  0  0  0  0
 35 76  2  0  0  0  0
 36 61  1  0  0  0  0
 36 71  1  0  0  0  0
 36 77  2  0  0  0  0
 37 67  1  0  0  0  0
 37 72  1  0  0  0  0
 37 78  2  0  0  0  0
 38 41  1  0  0  0  0
 39 48  1  0  0  0  0
 40 66  1  0  0  0  0
 41 43  1  0  0  0  0
 42 44  1  0  0  0  0
 42 45  1  0  0  0  0
 43 47  1  0  0  0  0
 44 49  1  0  0  0  0
 45 67  1  0  0  0  0
 46 49  1  0  0  0  0
 46 67  1  0  0  0  0
 47 70  1  0  0  0  0
 48 66  1  0  0  0  0
 49 65  1  0  0  0  0
 50 59  1  0  0  0  0
 51 59  1  0  0  0  0
 52 61  1  0  0  0  0
 53 62  1  0  0  0  0
 54 62  1  0  0  0  0
 55 62  1  0  0  0  0
 56 73  1  0  0  0  0
 57 72  1  0  0  0  0
 58 80  1  0  0  0  0
 60 62  1  0  0  0  0
 60 71  1  0  0  0  0
 61 73  1  0  0  0  0
 64 65  1  0  0  0  0
M  CHG  1  73   1
M  ISO  4  37 100  58 101  72 100  80 101
M  END
> <Batch ID>
0100

> <Smiles>
CNC(C)C(=O)NC(C(=O)N1Cc2cc([101O:1][101CH2:1]c3nccc(C[100NH:0][100C:0](=O)N4CCCC(n5nc(-c6ccc(Oc7ccc(F)cc7F)cc6)c(C(N)=O)c5N)C4)c3C(C)C)ccc2CC1C(=O)NC1CCCc2ccccc21)C(C)(C)C

> <Shape>
0.175

> <Color>
0.185

> <Negative vol penalty>
0.000

$$$$

  -OEChem-04052319333D

 87 95  0     1  0  0  0  0  0999 V2000
  -29.9506  -24.7936   17.8259 C   0  0  0  0  0  0  0  0  0  0  0  0
  -28.5657  -24.9153   17.8779 C   0  0  0  0  0  0  0  0  0  0  0  0
  -23.8874  -15.2107   22.7141 C   0  0  0  0  0  0  0  0  0  0  0  0
  -24.4890  -16.4409   20.7237 C   0  0  0  0  0  0  0  0  0  0  0  0
  -30.7303  -25.2586   18.8840 C   0  0  0  0  0  0  0  0  0  0  0  0
  -27.9597  -25.5012   18.9887 C   0  0  0  0  0  0  0  0  0  0  0  0
  -22.9087  -28.9642   19.0277 C   0  0  0  0  0  0  0  0  0  0  0  0
  -24.5387  -14.0832   22.2141 C   0  0  0  0  0  0  0  0  0  0  0  0
  -25.1404  -15.3134   20.2237 C   0  0  0  0  0  0  0  0  0  0  0  0
  -21.5754  -28.6751   19.3151 C   0  0  0  0  0  0  0  0  0  0  0  0
  -25.7358  -10.7731   21.3010 C   0  0  0  0  0  0  0  0  0  0  0  0
  -25.0821   -9.5453   21.4048 C   0  0  0  0  0  0  0  0  0  0  0  0
  -21.9022  -29.4466   21.5773 C   0  0  0  0  0  0  0  0  0  0  0  0
  -23.2579  -10.4040   20.0736 C   0  0  0  0  0  0  0  0  0  0  0  0
  -23.8625  -16.3896   21.9689 C   0  0  0  0  0  0  0  0  0  0  0  0
  -23.7439  -18.5736   23.2818 C   0  0  0  0  0  0  0  0  0  0  0  0
  -30.1341  -25.8593   20.0040 C   0  0  0  0  0  0  0  0  0  0  0  0
  -23.7530  -29.4873   20.0175 C   0  0  0  0  0  0  0  0  0  0  0  0
  -28.7321  -25.9735   20.0634 C   0  0  0  0  0  0  0  0  0  0  0  0
  -23.2451  -29.7438   21.2991 C   0  0  0  0  0  0  0  0  0  0  0  0
  -25.1653  -14.1345   20.9690 C   0  0  0  0  0  0  0  0  0  0  0  0
  -21.0728  -28.9136   20.5909 C   0  0  0  0  0  0  0  0  0  0  0  0
  -25.1506  -11.8164   20.5836 C   0  0  0  0  0  0  0  0  0  0  0  0
  -23.8432   -9.3607   20.7910 C   0  0  0  0  0  0  0  0  0  0  0  0
  -23.9117  -11.6319   19.9699 C   0  0  0  0  0  0  0  0  0  0  0  0
  -23.1893  -17.5545   22.4845 C   0  0  0  0  0  0  0  0  0  0  0  0
  -21.7639  -23.9964   20.1113 C   0  0  0  0  0  0  0  0  0  0  0  0
  -20.4412  -23.7679   20.3969 C   0  0  0  0  0  0  0  0  0  0  0  0
  -22.7028  -19.4417   23.5027 C   0  0  0  0  0  0  0  0  0  0  0  0
  -25.0808  -18.7222   23.7783 C   0  0  0  0  0  0  0  0  0  0  0  0
  -26.4177  -28.5020   21.4431 C   0  0  0  0  0  0  0  0  0  0  0  0
  -26.3261  -31.4524   22.7880 C   0  0  0  0  0  0  0  0  0  0  0  0
  -24.4632  -34.1578   23.7138 C   0  0  0  0  0  0  0  0  0  0  0  0
  -17.6767  -20.6351   20.4753 C   0  0  0  0  0  0  0  0  0  0  0  0
  -31.0153  -26.3041   21.1444 C   0  0  0  0  0  0  0  0  0  0  0  0
  -25.1818  -29.8188   19.6840 C   0  0  0  0  0  0  0  0  0  0  0  0
  -24.1049  -30.3235   22.3915 C   0  0  0  0  0  0  0  0  0  0  0  0
  -30.3193  -27.2516   22.1181 C   0  0  0  0  0  0  0  0  0  0  0  0
  -17.9329  -19.5550   23.8583 C   0  0  0  0  0  0  0  0  0  0  0  0
  -28.9354  -26.7224   22.4807 C   0  0  0  0  0  0  0  0  0  0  0  0
  -19.3592  -19.0118   23.9617 C   0  0  0  0  0  0  0  0  0  0  0  0
  -17.3107  -19.2513   22.4971 C   0  0  0  0  0  0  0  0  0  0  0  0
  -19.5357  -19.1499   21.4421 C   0  0  0  0  0  0  0  0  0  0  0  0
  -28.0392  -26.6257   21.2401 C   0  0  1  0  0  0  0  0  0  0  0  0
  -26.0860  -29.8677   20.9117 C   0  0  1  0  0  0  0  0  0  0  0  0
  -20.2251  -19.4805   22.7769 C   0  0  2  0  0  0  0  0  0  0  0  0
  -23.5544  -25.5902   20.8907 C   0  0  0  0  0  0  0  0  0  0  0  0
  -23.9858  -23.1064   20.9019 C   0  0  0  0  0  0  0  0  0  0  0  0
  -24.6615  -36.3989   24.8255 C   0  0  0  0  0  0  0  0  0  0  0  0
  -17.0475  -27.9217   21.5828 C   0  0  0  0  0  0  0  0  0  0  0  0
  -26.5358  -30.0827   25.5065 C   0  0  0  0  0  0  0  0  0  0  0  0
  -25.7824  -32.2229   26.5650 C   0  0  0  0  0  0  0  0  0  0  0  0
  -27.9155  -32.1555   25.2735 C   0  0  0  0  0  0  0  0  0  0  0  0
  -23.5167  -35.5721   21.2925 C   0  0  0  0  0  0  0  0  0  0  0  0
  -19.6837  -23.6422   21.6948 C   0  0  0  0  0  0  0  0  0  0  0  0
  -19.4220  -24.9843   22.3899 C   0  0  0  0  0  0  0  0  0  0  0  0
  -18.6085  -25.9554   21.5246 C   0  0  0  0  0  0  0  0  0  0  0  0
  -18.4770  -23.4210   18.8550 C   0  0  0  0  0  0  0  0  0  0  0  0
  -18.1999  -21.9748   18.4527 C   0  0  0  0  0  0  0  0  0  0  0  0
  -19.4659  -28.2590   22.2174 C   0  0  0  0  0  0  0  0  0  1  0  0
  -22.8926  -24.1965   21.0301 C   0  0  0  0  0  0  0  0  0  0  0  0
  -25.7135  -32.0396   24.0366 C   0  0  1  0  0  0  0  0  0  0  0  0
  -24.6752  -35.6463   23.5040 C   0  0  2  0  0  0  0  0  0  0  0  0
  -18.2818  -27.2839   22.2340 C   0  0  1  0  0  0  0  0  0  0  0  0
  -26.4709  -31.6124   25.3256 C   0  0  0  0  0  0  0  0  0  0  0  0
  -21.8961  -17.7552   22.2171 N   0  0  0  0  0  0  0  0  0  0  0  0
  -21.9437  -24.0210   18.7561 N   0  0  0  0  0  0  0  0  0  0  0  0
  -20.7627  -23.8139   18.1838 N   0  0  0  0  0  0  0  0  0  0  0  0
  -19.8632  -23.6626   19.1693 N   0  0  0  0  0  0  0  0  0  0  0  0
  -21.6295  -18.9104   22.8500 N   0  0  0  0  0  0  0  0  0  0  0  0
  -25.4967  -30.6248   22.0179 N   0  0  0  0  0  0  0  0  0  0  0  0
  -18.1806  -19.7226   21.4168 N   0  0  0  0  0  0  0  0  0  0  0  0
  -22.6098  -20.6001   24.1896 N   0  0  0  0  0  0  0  0  0  0  0  0
  -26.0260  -17.7385   23.4569 N   0  0  0  0  0  0  0  0  0  0  0  0
  -27.5412  -27.9341   20.8732 N   0  0  0  0  0  0  0  0  0  0  0  0
  -25.6599  -33.4822   23.8254 N   0  0  0  0  0  0  0  0  0  0  0  0
  -18.5689  -21.0355   19.4882 N   0  0  0  0  0  0  0  0  0  0  0  0
  -23.6020  -36.2048   22.6339 N   0  3  0  0  0  0  0  0  0  0  0  0
  -25.4227  -19.6899   24.4995 O   0  0  0  0  0  0  0  0  0  0  0  0
  -25.7078  -28.0011   22.3073 O   0  0  0  0  0  0  0  0  0  0  0  0
  -27.4950  -31.7239   22.5026 O   0  0  0  0  0  0  0  0  0  0  0  0
  -23.3474  -33.6463   23.7765 O   0  0  0  0  0  0  0  0  0  0  0  0
  -16.5190  -21.0655   20.5148 O   0  0  0  0  0  0  0  0  0  0  0  0
  -25.8012  -13.0345   20.4809 O   0  0  0  0  0  0  0  0  0  0  0  0
  -19.7720  -28.6318   20.8743 O   0  0  0  0  0  0  0  0  0  1  0  0
  -23.2163   -8.1811   20.8894 F   0  0  0  0  0  0  0  0  0  0  0  0
  -23.3450  -12.6301   19.2783 F   0  0  0  0  0  0  0  0  0  0  0  0
  1  2  1  0  0  0  0
  1  5  2  0  0  0  0
  2  6  2  0  0  0  0
  3  8  2  0  0  0  0
  3 15  1  0  0  0  0
  4  9  1  0  0  0  0
  4 15  2  0  0  0  0
  5 17  1  0  0  0  0
  6 19  1  0  0  0  0
  7 10  2  0  0  0  0
  7 18  1  0  0  0  0
  8 21  1  0  0  0  0
  9 21  2  0  0  0  0
 10 22  1  0  0  0  0
 11 12  2  0  0  0  0
 11 23  1  0  0  0  0
 12 24  1  0  0  0  0
 13 20  1  0  0  0  0
 13 22  2  0  0  0  0
 14 24  2  0  0  0  0
 14 25  1  0  0  0  0
 15 26  1  0  0  0  0
 16 26  1  0  0  0  0
 16 29  2  0  0  0  0
 16 30  1  0  0  0  0
 17 19  2  0  0  0  0
 17 35  1  0  0  0  0
 18 20  2  0  0  0  0
 18 36  1  0  0  0  0
 19 44  1  0  0  0  0
 20 37  1  0  0  0  0
 21 84  1  0  0  0  0
 22 85  1  0  0  0  0
 23 25  2  0  0  0  0
 23 84  1  0  0  0  0
 24 86  1  0  0  0  0
 25 87  1  0  0  0  0
 26 66  2  0  0  0  0
 27 28  2  0  0  0  0
 27 61  1  0  0  0  0
 27 67  1  0  0  0  0
 28 55  1  0  0  0  0
 28 69  1  0  0  0  0
 29 70  1  0  0  0  0
 29 73  1  0  0  0  0
 30 74  1  0  0  0  0
 30 79  2  0  0  0  0
 31 45  1  0  0  0  0
 31 75  1  0  0  0  0
 31 80  2  0  0  0  0
 32 62  1  0  0  0  0
 32 71  1  0  0  0  0
 32 81  2  0  0  0  0
 33 63  1  0  0  0  0
 33 76  1  0  0  0  0
 33 82  2  0  0  0  0
 34 72  1  0  0  0  0
 34 77  1  0  0  0  0
 34 83  2  0  0  0  0
 35 38  1  0  0  0  0
 36 45  1  0  0  0  0
 37 71  1  0  0  0  0
 38 40  1  0  0  0  0
 39 41  1  0  0  0  0
 39 42  1  0  0  0  0
 40 44  1  0  0  0  0
 41 46  1  0  0  0  0
 42 72  1  0  0  0  0
 43 46  1  0  0  0  0
 43 72  1  0  0  0  0
 44 75  1  0  0  0  0
 45 71  1  0  0  0  0
 46 70  1  0  0  0  0
 47 61  1  0  0  0  0
 48 61  1  0  0  0  0
 49 63  1  0  0  0  0
 50 64  1  0  0  0  0
 51 65  1  0  0  0  0
 52 65  1  0  0  0  0
 53 65  1  0  0  0  0
 54 78  1  0  0  0  0
 55 56  1  0  0  0  0
 56 57  1  0  0  0  0
 57 64  1  0  0  0  0
 58 59  1  0  0  0  0
 58 69  1  0  0  0  0
 59 77  1  0  0  0  0
 60 64  1  0  0  0  0
 60 85  1  0  0  0  0
 62 65  1  0  0  0  0
 62 76  1  0  0  0  0
 63 78  1  0  0  0  0
 66 70  1  0  0  0  0
 67 68  2  0  0  0  0
 68 69  1  0  0  0  0
M  CHG  1  78   1
M  ISO  4  34 100  60 101  77 100  85 101
M  END
> <Batch ID>
0100

> <Smiles>
CNC(C)C(=O)NC(C(=O)N1Cc2cc([101O:1][101CH2:1]C(C)CCCc3c(C(C)C)nnn3CC[100NH:0][100C:0](=O)N3CCCC(n4nc(-c5ccc(Oc6ccc(F)cc6F)cc5)c(C(N)=O)c4N)C3)ccc2CC1C(=O)NC1CCCc2ccccc21)C(C)(C)C

> <Shape>
0.264

> <Color>
0.051

> <Negative vol penalty>
0.000

$$$$

  -OEChem-04052319333D

 89 97  0     1  0  0  0  0  0999 V2000
  -25.1659  -30.8046   20.2152 C   0  0  0  0  0  0  0  0  0  0  0  0
  -25.2746  -29.5087   19.7237 C   0  0  0  0  0  0  0  0  0  0  0  0
  -29.9322  -23.5227   20.9136 C   0  0  0  0  0  0  0  0  0  0  0  0
  -27.6697  -23.0563   20.2059 C   0  0  0  0  0  0  0  0  0  0  0  0
  -24.6342  -31.0222   21.4845 C   0  0  0  0  0  0  0  0  0  0  0  0
  -24.8408  -28.4309   20.4964 C   0  0  0  0  0  0  0  0  0  0  0  0
  -24.6351  -21.2776   20.9407 C   0  0  0  0  0  0  0  0  0  0  0  0
  -23.8067  -13.2207   21.1556 C   0  0  0  0  0  0  0  0  0  0  0  0
  -24.0925  -12.6091   19.9351 C   0  0  0  0  0  0  0  0  0  0  0  0
  -29.7235  -24.8827   20.6845 C   0  0  0  0  0  0  0  0  0  0  0  0
  -27.4610  -24.4163   19.9768 C   0  0  0  0  0  0  0  0  0  0  0  0
  -24.9951  -20.1759   21.7156 C   0  0  0  0  0  0  0  0  0  0  0  0
  -28.2199  -27.4715   22.2561 C   0  0  0  0  0  0  0  0  0  0  0  0
  -28.6617  -28.3680   23.2290 C   0  0  0  0  0  0  0  0  0  0  0  0
  -23.1453  -20.6217   23.1983 C   0  0  0  0  0  0  0  0  0  0  0  0
  -26.1397  -13.7919   21.4158 C   0  0  0  0  0  0  0  0  0  0  0  0
  -30.1121  -29.4154   21.6053 C   0  0  0  0  0  0  0  0  0  0  0  0
  -28.9053  -22.6095   20.6742 C   0  0  0  0  0  0  0  0  0  0  0  0
  -28.8915  -20.4985   22.1064 C   0  0  0  0  0  0  0  0  0  0  0  0
  -24.2054  -29.9450   22.2775 C   0  0  0  0  0  0  0  0  0  0  0  0
  -23.5321  -22.0674   21.2956 C   0  0  0  0  0  0  0  0  0  0  0  0
  -24.2792  -28.6318   21.7703 C   0  0  0  0  0  0  0  0  0  0  0  0
  -22.7718  -21.7314   22.4249 C   0  0  0  0  0  0  0  0  0  0  0  0
  -24.8303  -13.8122   21.8960 C   0  0  0  0  0  0  0  0  0  0  0  0
  -25.4019  -12.5889   19.4548 C   0  0  0  0  0  0  0  0  0  0  0  0
  -26.4255  -13.1803   20.1952 C   0  0  0  0  0  0  0  0  0  0  0  0
  -28.4880  -25.3295   20.2162 C   0  0  0  0  0  0  0  0  0  0  0  0
  -24.2520  -19.8495   22.8462 C   0  0  0  0  0  0  0  0  0  0  0  0
  -28.7242  -27.5468   20.9577 C   0  0  0  0  0  0  0  0  0  0  0  0
  -29.6078  -29.3400   22.9036 C   0  0  0  0  0  0  0  0  0  0  0  0
  -29.6702  -28.5188   20.6323 C   0  0  0  0  0  0  0  0  0  0  0  0
  -29.1204  -21.2044   20.9102 C   0  0  0  0  0  0  0  0  0  0  0  0
  -29.2484  -19.2045   21.8152 C   0  0  0  0  0  0  0  0  0  0  0  0
  -28.4001  -20.9702   23.3681 C   0  0  0  0  0  0  0  0  0  0  0  0
  -23.1246  -25.1096   22.1220 C   0  0  0  0  0  0  0  0  0  0  0  0
  -19.9819  -24.3141   22.0073 C   0  0  0  0  0  0  0  0  0  0  0  0
  -17.6028  -21.8737   22.1825 C   0  0  0  0  0  0  0  0  0  0  0  0
  -29.1906  -14.7914   18.3996 C   0  0  0  0  0  0  0  0  0  0  0  0
  -23.6305  -30.2383   23.6409 C   0  0  0  0  0  0  0  0  0  0  0  0
  -23.1408  -23.2368   20.4343 C   0  0  0  0  0  0  0  0  0  0  0  0
  -21.5667  -22.5352   22.8374 C   0  0  0  0  0  0  0  0  0  0  0  0
  -23.6119  -29.0164   24.5535 C   0  0  0  0  0  0  0  0  0  0  0  0
  -31.6701  -17.2785   17.8136 C   0  0  0  0  0  0  0  0  0  0  0  0
  -22.9962  -27.8319   23.8238 C   0  0  0  0  0  0  0  0  0  0  0  0
  -31.2055  -18.4647   18.6604 C   0  0  0  0  0  0  0  0  0  0  0  0
  -30.4907  -16.5262   17.2010 C   0  0  0  0  0  0  0  0  0  0  0  0
  -28.9997  -17.2780   19.0136 C   0  0  0  0  0  0  0  0  0  0  0  0
  -23.8421  -27.4417   22.6051 C   0  0  1  0  0  0  0  0  0  0  0  0
  -22.3060  -24.2743   21.1787 C   0  0  1  0  0  0  0  0  0  0  0  0
  -30.1512  -18.0343   19.6979 C   0  0  2  0  0  0  0  0  0  0  0  0
  -25.8812  -12.9358   17.0184 C   0  0  0  0  0  0  0  0  0  0  0  0
  -15.1180  -21.5347   22.0902 C   0  0  0  0  0  0  0  0  0  0  0  0
  -28.3100  -11.1508   21.2178 C   0  0  0  0  0  0  0  0  0  0  0  0
  -19.7294  -25.4112   24.8432 C   0  0  0  0  0  0  0  0  0  0  0  0
  -17.5426  -24.2080   25.0393 C   0  0  0  0  0  0  0  0  0  0  0  0
  -17.8304  -25.9972   23.3251 C   0  0  0  0  0  0  0  0  0  0  0  0
  -17.8128  -20.1264   19.8031 C   0  0  0  0  0  0  0  0  0  0  0  0
  -31.2891  -12.1021   20.8461 C   0  0  0  0  0  0  0  0  0  0  0  0
  -29.9824  -10.9375   19.0750 C   0  0  0  0  0  0  0  0  0  0  0  0
  -24.5211  -14.4729   23.2158 C   0  0  0  0  0  0  0  0  0  0  0  0
  -25.6838  -11.9271   18.1459 C   0  0  0  0  0  0  0  0  0  0  0  0
  -24.1705  -15.9602   23.0965 C   0  0  0  0  0  0  0  0  0  0  0  0
  -23.9357  -16.6304   24.4510 C   0  0  0  0  0  0  0  0  0  0  0  0
  -23.5514  -18.0950   24.2908 C   0  0  0  0  0  0  0  0  0  1  0  0
  -27.8350  -13.1705   19.7012 C   0  0  2  0  0  0  0  0  0  0  0  0
  -18.9801  -23.7696   22.9967 C   0  0  1  0  0  0  0  0  0  0  0  0
  -16.4129  -21.5612   21.2931 C   0  0  2  0  0  0  0  0  0  0  0  0
  -28.8332  -12.4725   20.6637 C   0  0  2  0  0  0  0  0  0  0  0  0
  -18.5444  -24.8323   24.0446 C   0  0  0  0  0  0  0  0  0  0  0  0
  -29.5868  -20.4237   19.9319 N   0  0  0  0  0  0  0  0  0  0  0  0
  -29.6539  -19.2138   20.5130 N   0  0  0  0  0  0  0  0  0  0  0  0
  -21.2281  -23.6729   21.9665 N   0  0  0  0  0  0  0  0  0  0  0  0
  -29.5286  -16.1452   18.2379 N   0  0  0  0  0  0  0  0  0  0  0  0
  -29.2519  -18.0711   22.5485 N   0  0  0  0  0  0  0  0  0  0  0  0
  -28.0811  -22.3290   23.4951 N   0  0  0  0  0  0  0  0  0  0  0  0
  -23.1217  -26.4592   21.8255 N   0  0  0  0  0  0  0  0  0  0  0  0
  -17.8816  -23.2238   22.2068 N   0  0  0  0  0  0  0  0  0  0  0  0
  -28.2764  -14.5161   19.4091 N   0  0  0  0  0  0  0  0  0  0  0  0
  -16.5895  -20.2338   20.6391 N   0  3  0  0  0  0  0  0  0  0  0  0
  -30.1010  -12.1715   19.9266 N   0  3  0  0  0  0  0  0  0  0  0  0
  -28.2639  -20.2124   24.3584 O   0  0  0  0  0  0  0  0  0  0  0  0
  -23.7139  -24.5698   23.0510 O   0  0  0  0  0  0  0  0  0  0  0  0
  -19.6677  -25.2686   21.2918 O   0  0  0  0  0  0  0  0  0  0  0  0
  -18.2206  -21.0072   22.7973 O   0  0  0  0  0  0  0  0  0  0  0  0
  -29.6722  -13.8939   17.6999 O   0  0  0  0  0  0  0  0  0  0  0  0
  -28.2840  -26.6565   19.9927 O   0  0  0  0  0  0  0  0  0  0  0  0
  -24.6016  -18.7750   23.6046 O   0  0  0  0  0  0  0  0  0  1  0  0
  -30.0308  -30.2018   23.8376 F   0  0  0  0  0  0  0  0  0  0  0  0
  -30.1575  -28.5969   19.3864 F   0  0  0  0  0  0  0  0  0  0  0  0
  1  2  1  0  0  0  0
  1  5  2  0  0  0  0
  2  6  2  0  0  0  0
  3 10  2  0  0  0  0
  3 18  1  0  0  0  0
  4 11  1  0  0  0  0
  4 18  2  0  0  0  0
  5 20  1  0  0  0  0
  6 22  1  0  0  0  0
  7 12  2  0  0  0  0
  7 21  1  0  0  0  0
  8  9  2  0  0  0  0
  8 24  1  0  0  0  0
  9 25  1  0  0  0  0
 10 27  1  0  0  0  0
 11 27  2  0  0  0  0
 12 28  1  0  0  0  0
 13 14  2  0  0  0  0
 13 29  1  0  0  0  0
 14 30  1  0  0  0  0
 15 23  1  0  0  0  0
 15 28  2  0  0  0  0
 16 24  2  0  0  0  0
 16 26  1  0  0  0  0
 17 30  2  0  0  0  0
 17 31  1  0  0  0  0
 18 32  1  0  0  0  0
 19 32  1  0  0  0  0
 19 33  2  0  0  0  0
 19 34  1  0  0  0  0
 20 22  2  0  0  0  0
 20 39  1  0  0  0  0
 21 23  2  0  0  0  0
 21 40  1  0  0  0  0
 22 48  1  0  0  0  0
 23 41  1  0  0  0  0
 24 60  1  0  0  0  0
 25 26  2  0  0  0  0
 25 61  1  0  0  0  0
 26 65  1  0  0  0  0
 27 86  1  0  0  0  0
 28 87  1  0  0  0  0
 29 31  2  0  0  0  0
 29 86  1  0  0  0  0
 30 88  1  0  0  0  0
 31 89  1  0  0  0  0
 32 70  2  0  0  0  0
 33 71  1  0  0  0  0
 33 74  1  0  0  0  0
 34 75  1  0  0  0  0
 34 81  2  0  0  0  0
 35 49  1  0  0  0  0
 35 76  1  0  0  0  0
 35 82  2  0  0  0  0
 36 66  1  0  0  0  0
 36 72  1  0  0  0  0
 36 83  2  0  0  0  0
 37 67  1  0  0  0  0
 37 77  1  0  0  0  0
 37 84  2  0  0  0  0
 38 73  1  0  0  0  0
 38 78  1  0  0  0  0
 38 85  2  0  0  0  0
 39 42  1  0  0  0  0
 40 49  1  0  0  0  0
 41 72  1  0  0  0  0
 42 44  1  0  0  0  0
 43 45  1  0  0  0  0
 43 46  1  0  0  0  0
 44 48  1  0  0  0  0
 45 50  1  0  0  0  0
 46 73  1  0  0  0  0
 47 50  1  0  0  0  0
 47 73  1  0  0  0  0
 48 76  1  0  0  0  0
 49 72  1  0  0  0  0
 50 71  1  0  0  0  0
 51 61  1  0  0  0  0
 52 67  1  0  0  0  0
 53 68  1  0  0  0  0
 54 69  1  0  0  0  0
 55 69  1  0  0  0  0
 56 69  1  0  0  0  0
 57 79  1  0  0  0  0
 58 80  1  0  0  0  0
 59 80  1  0  0  0  0
 60 62  1  0  0  0  0
 62 63  1  0  0  0  0
 63 64  1  0  0  0  0
 64 87  1  0  0  0  0
 65 68  1  0  0  0  0
 65 78  1  0  0  0  0
 66 69  1  0  0  0  0
 66 77  1  0  0  0  0
 67 79  1  0  0  0  0
 68 80  1  0  0  0  0
 70 71  1  0  0  0  0
M  CHG  2  79   1  80   1
M  ISO  4  38 100  64 101  78 100  87 101
M  END
> <Batch ID>
0100

> <Smiles>
CCc1ccc(CCC[101CH2:1][101O:1]c2ccc3c(c2)CN(C(=O)C(NC(=O)C(C)NC)C(C)(C)C)C(C(=O)NC2CCCc4ccccc42)C3)cc1C([100NH:0][100C:0](=O)N1CCCC(n2nc(-c3ccc(Oc4ccc(F)cc4F)cc3)c(C(N)=O)c2N)C1)C(C)N(C)C

> <Shape>
0.202

> <Color>
0.066

> <Negative vol penalty>
0.000

$$$$

  -OEChem-04052319333D

 83 90  0     1  0  0  0  0  0999 V2000
  -28.5810  -11.2518   20.9025 C   0  0  0  0  0  0  0  0  0  0  0  0
  -28.9809  -12.5535   20.6176 C   0  0  0  0  0  0  0  0  0  0  0  0
  -20.7856  -28.5776   21.4423 C   0  0  0  0  0  0  0  0  0  0  0  0
  -22.1155  -27.3844   23.0685 C   0  0  0  0  0  0  0  0  0  0  0  0
  -27.2327  -10.9054   20.8252 C   0  0  0  0  0  0  0  0  0  0  0  0
  -28.0328  -13.5093   20.2543 C   0  0  0  0  0  0  0  0  0  0  0  0
  -28.1165  -19.4802   21.6132 C   0  0  0  0  0  0  0  0  0  0  0  0
  -19.6654  -27.8334   21.8123 C   0  0  0  0  0  0  0  0  0  0  0  0
  -20.9954  -26.6402   23.4386 C   0  0  0  0  0  0  0  0  0  0  0  0
  -28.5150  -20.6018   20.8874 C   0  0  0  0  0  0  0  0  0  0  0  0
  -18.4226  -24.7452   21.2265 C   0  0  0  0  0  0  0  0  0  0  0  0
  -17.6217  -24.2306   20.2071 C   0  0  0  0  0  0  0  0  0  0  0  0
  -26.2278  -20.9725   20.2161 C   0  0  0  0  0  0  0  0  0  0  0  0
  -15.7370  -25.4812   21.0564 C   0  0  0  0  0  0  0  0  0  0  0  0
  -22.0107  -28.3531   22.0704 C   0  0  0  0  0  0  0  0  0  0  0  0
  -23.5955  -30.3451   22.2370 C   0  0  0  0  0  0  0  0  0  0  0  0
  -26.2664  -11.8597   20.4702 C   0  0  0  0  0  0  0  0  0  0  0  0
  -26.7701  -19.0893   21.6371 C   0  0  0  0  0  0  0  0  0  0  0  0
  -26.6705  -13.1749   20.1709 C   0  0  0  0  0  0  0  0  0  0  0  0
  -25.8145  -19.8470   20.9451 C   0  0  0  0  0  0  0  0  0  0  0  0
  -19.7703  -26.8647   22.8105 C   0  0  0  0  0  0  0  0  0  0  0  0
  -27.5711  -21.3465   20.1863 C   0  0  0  0  0  0  0  0  0  0  0  0
  -17.8807  -25.6278   22.1610 C   0  0  0  0  0  0  0  0  0  0  0  0
  -16.2789  -24.5986   20.1220 C   0  0  0  0  0  0  0  0  0  0  0  0
  -16.5380  -25.9958   22.0759 C   0  0  0  0  0  0  0  0  0  0  0  0
  -23.1683  -29.1212   21.6881 C   0  0  0  0  0  0  0  0  0  0  0  0
  -24.7345  -30.6570   21.5356 C   0  0  0  0  0  0  0  0  0  0  0  0
  -23.0148  -31.1299   23.2870 C   0  0  0  0  0  0  0  0  0  0  0  0
  -25.1669  -16.5076   20.7051 C   0  0  0  0  0  0  0  0  0  0  0  0
  -22.6776  -18.0135   22.1396 C   0  0  0  0  0  0  0  0  0  0  0  0
  -21.2818  -20.9446   23.1918 C   0  0  0  0  0  0  0  0  0  0  0  0
  -28.6690  -27.2748   18.7184 C   0  0  0  0  0  0  0  0  0  0  0  0
  -24.8265  -11.4264   20.3541 C   0  0  0  0  0  0  0  0  0  0  0  0
  -26.3525  -17.8923   22.4466 C   0  0  0  0  0  0  0  0  0  0  0  0
  -24.3535  -19.4812   20.9552 C   0  0  0  0  0  0  0  0  0  0  0  0
  -23.8403  -12.5912   20.3260 C   0  0  0  0  0  0  0  0  0  0  0  0
  -26.7977  -30.0108   17.2656 C   0  0  0  0  0  0  0  0  0  0  0  0
  -24.3165  -13.6708   19.3592 C   0  0  0  0  0  0  0  0  0  0  0  0
  -25.6888  -30.2047   18.3014 C   0  0  0  0  0  0  0  0  0  0  0  0
  -27.1360  -28.5335   17.0879 C   0  0  0  0  0  0  0  0  0  0  0  0
  -26.4022  -28.0235   19.3846 C   0  0  0  0  0  0  0  0  0  0  0  0
  -25.6688  -14.2460   19.7973 C   0  0  1  0  0  0  0  0  0  0  0  0
  -25.0310  -17.2881   21.9818 C   0  0  1  0  0  0  0  0  0  0  0  0
  -26.0299  -29.4976   19.6265 C   0  0  2  0  0  0  0  0  0  0  0  0
  -19.2229  -21.8616   24.2951 C   0  0  0  0  0  0  0  0  0  0  0  0
  -29.8278  -21.7171   13.7727 C   0  0  0  0  0  0  0  0  0  0  0  0
  -27.9970  -23.3789   14.2191 C   0  0  0  0  0  0  0  0  0  0  0  0
  -32.2741  -24.4666   17.7592 C   0  0  0  0  0  0  0  0  0  0  0  0
  -31.2069  -25.5791   15.0486 C   0  0  0  0  0  0  0  0  0  0  0  0
  -21.1318  -17.6749   19.5309 C   0  0  0  0  0  0  0  0  0  0  0  0
  -19.5092  -19.3966   20.3500 C   0  0  0  0  0  0  0  0  0  0  0  0
  -19.7908  -17.2563   21.5999 C   0  0  0  0  0  0  0  0  0  0  0  0
  -22.8375  -22.0085   25.4736 C   0  0  0  0  0  0  0  0  0  0  0  0
  -28.0662  -23.4934   17.2984 C   0  0  0  0  0  0  0  0  0  0  0  0
  -29.2539  -22.6360   16.8367 C   0  0  0  0  0  0  0  0  0  0  0  0
  -30.9114  -26.5872   17.9086 C   0  0  0  0  0  0  0  0  0  0  0  0
  -27.1948  -22.7698   18.3185 C   0  0  0  0  0  0  0  0  0  1  0  0
  -21.6223  -18.9966   21.6938 C   0  0  1  0  0  0  0  0  0  0  0  0
  -20.6342  -21.3367   24.5076 C   0  0  2  0  0  0  0  0  0  0  0  0
  -29.5034  -23.1179   14.3122 C   0  0  0  0  0  0  0  0  0  0  0  0
  -30.8873  -25.0893   17.5431 C   0  0  1  0  0  0  0  0  0  0  0  0
  -30.3280  -24.8688   16.0938 C   0  0  2  0  0  0  0  0  0  0  0  0
  -30.1021  -23.3478   15.7410 C   0  0  1  0  0  0  0  0  0  0  0  0
  -20.5413  -18.3371   20.7917 C   0  0  0  0  0  0  0  0  0  0  0  0
  -23.9704  -28.6853   20.7131 N   0  0  0  0  0  0  0  0  0  0  0  0
  -24.9131  -29.6407   20.6437 N   0  0  0  0  0  0  0  0  0  0  0  0
  -23.9957  -18.2988   21.7562 N   0  0  0  0  0  0  0  0  0  0  0  0
  -27.4694  -27.9245   18.3833 N   0  0  0  0  0  0  0  0  0  0  0  0
  -25.5906  -31.6987   21.6008 N   0  0  0  0  0  0  0  0  0  0  0  0
  -21.8444  -30.6633   23.9008 N   0  0  0  0  0  0  0  0  0  0  0  0
  -25.4916  -15.1773   20.8907 N   0  0  0  0  0  0  0  0  0  0  0  0
  -21.0948  -19.6081   22.9088 N   0  0  0  0  0  0  0  0  0  0  0  0
  -29.6252  -27.2181   17.7119 N   0  0  0  0  0  0  0  0  0  0  0  0
  -21.4338  -22.3980   25.1824 N   0  3  0  0  0  0  0  0  0  0  0  0
  -23.5098  -32.2210   23.6585 O   0  0  0  0  0  0  0  0  0  0  0  0
  -24.9889  -17.0703   19.6311 O   0  0  0  0  0  0  0  0  0  0  0  0
  -22.3457  -17.0324   22.8097 O   0  0  0  0  0  0  0  0  0  0  0  0
  -21.8893  -21.7448   22.4838 O   0  0  0  0  0  0  0  0  0  0  0  0
  -28.8751  -26.7859   19.8345 O   0  0  0  0  0  0  0  0  0  0  0  0
  -18.6774  -26.1385   23.1720 O   0  0  0  0  0  0  0  0  0  0  0  0
  -27.9603  -22.4497   19.4711 O   0  0  0  0  0  0  0  0  0  1  0  0
  -15.5103  -24.1055   19.1421 F   0  0  0  0  0  0  0  0  0  0  0  0
  -16.0121  -26.8442   22.9700 F   0  0  0  0  0  0  0  0  0  0  0  0
  1  2  1  0  0  0  0
  1  5  2  0  0  0  0
  2  6  2  0  0  0  0
  3  8  2  0  0  0  0
  3 15  1  0  0  0  0
  4  9  1  0  0  0  0
  4 15  2  0  0  0  0
  5 17  1  0  0  0  0
  6 19  1  0  0  0  0
  7 10  2  0  0  0  0
  7 18  1  0  0  0  0
  8 21  1  0  0  0  0
  9 21  2  0  0  0  0
 10 22  1  0  0  0  0
 11 12  2  0  0  0  0
 11 23  1  0  0  0  0
 12 24  1  0  0  0  0
 13 20  1  0  0  0  0
 13 22  2  0  0  0  0
 14 24  2  0  0  0  0
 14 25  1  0  0  0  0
 15 26  1  0  0  0  0
 16 26  1  0  0  0  0
 16 27  2  0  0  0  0
 16 28  1  0  0  0  0
 17 19  2  0  0  0  0
 17 33  1  0  0  0  0
 18 20  2  0  0  0  0
 18 34  1  0  0  0  0
 19 42  1  0  0  0  0
 20 35  1  0  0  0  0
 21 80  1  0  0  0  0
 22 81  1  0  0  0  0
 23 25  2  0  0  0  0
 23 80  1  0  0  0  0
 24 82  1  0  0  0  0
 25 83  1  0  0  0  0
 26 65  2  0  0  0  0
 27 66  1  0  0  0  0
 27 69  1  0  0  0  0
 28 70  1  0  0  0  0
 28 75  2  0  0  0  0
 29 43  1  0  0  0  0
 29 71  1  0  0  0  0
 29 76  2  0  0  0  0
 30 58  1  0  0  0  0
 30 67  1  0  0  0  0
 30 77  2  0  0  0  0
 31 59  1  0  0  0  0
 31 72  1  0  0  0  0
 31 78  2  0  0  0  0
 32 68  1  0  0  0  0
 32 73  1  0  0  0  0
 32 79  2  0  0  0  0
 33 36  1  0  0  0  0
 34 43  1  0  0  0  0
 35 67  1  0  0  0  0
 36 38  1  0  0  0  0
 37 39  1  0  0  0  0
 37 40  1  0  0  0  0
 38 42  1  0  0  0  0
 39 44  1  0  0  0  0
 40 68  1  0  0  0  0
 41 44  1  0  0  0  0
 41 68  1  0  0  0  0
 42 71  1  0  0  0  0
 43 67  1  0  0  0  0
 44 66  1  0  0  0  0
 45 59  1  0  0  0  0
 46 60  1  0  0  0  0
 47 60  1  0  0  0  0
 48 61  1  0  0  0  0
 49 62  1  0  0  0  0
 50 64  1  0  0  0  0
 51 64  1  0  0  0  0
 52 64  1  0  0  0  0
 53 74  1  0  0  0  0
 54 55  1  0  0  0  0
 54 57  1  0  0  0  0
 55 63  1  0  0  0  0
 56 61  1  0  0  0  0
 56 73  1  0  0  0  0
 57 81  1  0  0  0  0
 58 64  1  0  0  0  0
 58 72  1  0  0  0  0
 59 74  1  0  0  0  0
 60 63  1  0  0  0  0
 61 62  1  0  0  0  0
 62 63  1  0  0  0  0
 65 66  1  0  0  0  0
M  CHG  1  74   1
M  ISO  4  32 100  57 101  73 100  81 101
M  END
> <Batch ID>
0100

> <Smiles>
CNC(C)C(=O)NC(C(=O)N1Cc2cc([101O:1][101CH2:1]CCC(C(C)C)C(C)C(C)C[100NH:0][100C:0](=O)N3CCCC(n4nc(-c5ccc(Oc6ccc(F)cc6F)cc5)c(C(N)=O)c4N)C3)ccc2CC1C(=O)NC1CCCc2ccccc21)C(C)(C)C

> <Shape>
0.212

> <Color>
0.063

> <Negative vol penalty>
0.000

$$$$

  -OEChem-04052319333D

 81 88  0     1  0  0  0  0  0999 V2000
  -24.7275  -22.8562   27.1820 C   0  0  0  0  0  0  0  0  0  0  0  0
  -25.2474  -22.7260   25.8982 C   0  0  0  0  0  0  0  0  0  0  0  0
  -24.3468   -9.2301   21.4454 C   0  0  0  0  0  0  0  0  0  0  0  0
  -24.6680  -10.5895   23.4166 C   0  0  0  0  0  0  0  0  0  0  0  0
  -23.7452  -23.8109   27.4415 C   0  0  0  0  0  0  0  0  0  0  0  0
  -24.7844  -23.5498   24.8728 C   0  0  0  0  0  0  0  0  0  0  0  0
  -28.5399  -25.4142   22.0329 C   0  0  0  0  0  0  0  0  0  0  0  0
  -24.0992   -8.1193   22.2518 C   0  0  0  0  0  0  0  0  0  0  0  0
  -24.4203   -9.4787   24.2231 C   0  0  0  0  0  0  0  0  0  0  0  0
  -29.1038  -24.5624   21.0841 C   0  0  0  0  0  0  0  0  0  0  0  0
  -23.0270   -5.0065   23.7933 C   0  0  0  0  0  0  0  0  0  0  0  0
  -21.9453   -4.1915   23.4601 C   0  0  0  0  0  0  0  0  0  0  0  0
  -27.7784  -25.6116   19.3632 C   0  0  0  0  0  0  0  0  0  0  0  0
  -20.4473   -6.0669   23.7358 C   0  0  0  0  0  0  0  0  0  0  0  0
  -24.6313  -10.4653   22.0278 C   0  0  0  0  0  0  0  0  0  0  0  0
  -23.9449  -12.5392   20.7105 C   0  0  0  0  0  0  0  0  0  0  0  0
  -23.2768  -24.6534   26.4210 C   0  0  0  0  0  0  0  0  0  0  0  0
  -27.5813  -26.3653   21.6551 C   0  0  0  0  0  0  0  0  0  0  0  0
  -23.7939  -24.5158   25.1186 C   0  0  0  0  0  0  0  0  0  0  0  0
  -27.2057  -26.4759   20.3087 C   0  0  0  0  0  0  0  0  0  0  0  0
  -24.1359   -8.2435   23.6406 C   0  0  0  0  0  0  0  0  0  0  0  0
  -28.7210  -24.6590   19.7495 C   0  0  0  0  0  0  0  0  0  0  0  0
  -22.8190   -6.3518   24.0979 C   0  0  0  0  0  0  0  0  0  0  0  0
  -20.6554   -4.7216   23.4313 C   0  0  0  0  0  0  0  0  0  0  0  0
  -21.5291   -6.8820   24.0691 C   0  0  0  0  0  0  0  0  0  0  0  0
  -24.8877  -11.6130   21.1953 C   0  0  0  0  0  0  0  0  0  0  0  0
  -24.6867  -13.4313   19.9754 C   0  0  0  0  0  0  0  0  0  0  0  0
  -22.5256  -12.5887   20.9070 C   0  0  0  0  0  0  0  0  0  0  0  0
  -24.5322  -26.8892   22.3847 C   0  0  0  0  0  0  0  0  0  0  0  0
  -24.9710  -29.5657   20.6053 C   0  0  0  0  0  0  0  0  0  0  0  0
  -26.7254  -31.1551   18.1471 C   0  0  0  0  0  0  0  0  0  0  0  0
  -30.6774  -14.6490   20.3844 C   0  0  0  0  0  0  0  0  0  0  0  0
  -22.1800  -25.6385   26.7390 C   0  0  0  0  0  0  0  0  0  0  0  0
  -27.0021  -27.2947   22.6862 C   0  0  0  0  0  0  0  0  0  0  0  0
  -26.1956  -27.4939   19.8482 C   0  0  0  0  0  0  0  0  0  0  0  0
  -22.0120  -26.7257   25.6807 C   0  0  0  0  0  0  0  0  0  0  0  0
  -28.6930  -13.7536   17.3907 C   0  0  0  0  0  0  0  0  0  0  0  0
  -22.0070  -26.1142   24.2833 C   0  0  0  0  0  0  0  0  0  0  0  0
  -27.4440  -13.1166   17.9974 C   0  0  0  0  0  0  0  0  0  0  0  0
  -29.9113  -13.5848   18.2935 C   0  0  0  0  0  0  0  0  0  0  0  0
  -28.4568  -13.4438   20.2881 C   0  0  0  0  0  0  0  0  0  0  0  0
  -23.3350  -25.4077   23.9855 C   0  0  1  0  0  0  0  0  0  0  0  0
  -25.6555  -27.8808   22.2733 C   0  0  1  0  0  0  0  0  0  0  0  0
  -27.2010  -13.6367   19.4249 C   0  0  2  0  0  0  0  0  0  0  0  0
  -26.8273  -33.3226   16.8865 C   0  0  0  0  0  0  0  0  0  0  0  0
  -28.1523  -21.4598   17.5635 C   0  0  0  0  0  0  0  0  0  0  0  0
  -31.6589  -20.0764   18.5450 C   0  0  0  0  0  0  0  0  0  0  0  0
  -22.5378  -28.7248   18.9676 C   0  0  0  0  0  0  0  0  0  0  0  0
  -23.2502  -30.3518   17.2030 C   0  0  0  0  0  0  0  0  0  0  0  0
  -22.6541  -31.1692   19.4832 C   0  0  0  0  0  0  0  0  0  0  0  0
  -31.3575  -16.2864   22.0979 C   0  0  0  0  0  0  0  0  0  0  0  0
  -29.4679  -31.7180   19.1065 C   0  0  0  0  0  0  0  0  0  0  0  0
  -29.0408  -17.7510   21.2067 C   0  0  0  0  0  0  0  0  0  0  0  0
  -28.9918  -16.2393   21.4004 C   0  0  0  0  0  0  0  0  0  0  0  0
  -29.5973  -18.1405   19.8431 C   0  0  0  0  0  0  0  0  0  0  0  0
  -29.6730  -22.5340   19.2662 C   0  0  0  0  0  0  0  0  0  1  0  0
  -24.8225  -29.9142   19.1440 C   0  0  1  0  0  0  0  0  0  0  0  0
  -27.3424  -32.5408   18.0849 C   0  0  2  0  0  0  0  0  0  0  0  0
  -29.5902  -21.5359   18.1008 C   0  0  1  0  0  0  0  0  0  0  0  0
  -30.1392  -20.1301   18.4337 C   0  0  2  0  0  0  0  0  0  0  0  0
  -23.3338  -30.0194   18.7081 C   0  0  0  0  0  0  0  0  0  0  0  0
  -26.1333  -11.8909   20.8013 N   0  0  0  0  0  0  0  0  0  0  0  0
  -25.9784  -13.0018   20.0610 N   0  0  0  0  0  0  0  0  0  0  0  0
  -25.6533  -28.3756   20.8951 N   0  0  0  0  0  0  0  0  0  0  0  0
  -29.6391  -14.0470   19.6549 N   0  0  0  0  0  0  0  0  0  0  0  0
  -24.3536  -14.5334   19.2705 N   0  0  0  0  0  0  0  0  0  0  0  0
  -21.9244  -11.5939   21.6901 N   0  0  0  0  0  0  0  0  0  0  0  0
  -24.3594  -26.3753   23.6557 N   0  0  0  0  0  0  0  0  0  0  0  0
  -25.5940  -31.1347   18.9350 N   0  0  0  0  0  0  0  0  0  0  0  0
  -30.3156  -15.6253   21.3250 N   0  0  0  0  0  0  0  0  0  0  0  0
  -28.8257  -32.4430   17.9801 N   0  3  0  0  0  0  0  0  0  0  0  0
  -29.5679  -19.6200   19.7121 N   0  3  0  0  0  0  0  0  0  0  0  0
  -21.8094  -13.4792   20.3897 O   0  0  0  0  0  0  0  0  0  0  0  0
  -23.8702  -26.6121   21.3914 O   0  0  0  0  0  0  0  0  0  0  0  0
  -24.5053  -30.3252   21.4585 O   0  0  0  0  0  0  0  0  0  0  0  0
  -27.1976  -30.1884   17.5529 O   0  0  0  0  0  0  0  0  0  0  0  0
  -31.8611  -14.3388   20.1985 O   0  0  0  0  0  0  0  0  0  0  0  0
  -23.8941   -7.1598   24.4278 O   0  0  0  0  0  0  0  0  0  0  0  0
  -29.2694  -23.8284   18.8215 O   0  0  0  0  0  0  0  0  0  1  0  0
  -19.6169   -3.9392   23.1098 F   0  0  0  0  0  0  0  0  0  0  0  0
  -21.3231   -8.1739   24.3596 F   0  0  0  0  0  0  0  0  0  0  0  0
  1  2  1  0  0  0  0
  1  5  2  0  0  0  0
  2  6  2  0  0  0  0
  3  8  2  0  0  0  0
  3 15  1  0  0  0  0
  4  9  1  0  0  0  0
  4 15  2  0  0  0  0
  5 17  1  0  0  0  0
  6 19  1  0  0  0  0
  7 10  2  0  0  0  0
  7 18  1  0  0  0  0
  8 21  1  0  0  0  0
  9 21  2  0  0  0  0
 10 22  1  0  0  0  0
 11 12  2  0  0  0  0
 11 23  1  0  0  0  0
 12 24  1  0  0  0  0
 13 20  1  0  0  0  0
 13 22  2  0  0  0  0
 14 24  2  0  0  0  0
 14 25  1  0  0  0  0
 15 26  1  0  0  0  0
 16 26  1  0  0  0  0
 16 27  2  0  0  0  0
 16 28  1  0  0  0  0
 17 19  2  0  0  0  0
 17 33  1  0  0  0  0
 18 20  2  0  0  0  0
 18 34  1  0  0  0  0
 19 42  1  0  0  0  0
 20 35  1  0  0  0  0
 21 78  1  0  0  0  0
 22 79  1  0  0  0  0
 23 25  2  0  0  0  0
 23 78  1  0  0  0  0
 24 80  1  0  0  0  0
 25 81  1  0  0  0  0
 26 62  2  0  0  0  0
 27 63  1  0  0  0  0
 27 66  1  0  0  0  0
 28 67  1  0  0  0  0
 28 73  2  0  0  0  0
 29 43  1  0  0  0  0
 29 68  1  0  0  0  0
 29 74  2  0  0  0  0
 30 57  1  0  0  0  0
 30 64  1  0  0  0  0
 30 75  2  0  0  0  0
 31 58  1  0  0  0  0
 31 69  1  0  0  0  0
 31 76  2  0  0  0  0
 32 65  1  0  0  0  0
 32 70  1  0  0  0  0
 32 77  2  0  0  0  0
 33 36  1  0  0  0  0
 34 43  1  0  0  0  0
 35 64  1  0  0  0  0
 36 38  1  0  0  0  0
 37 39  1  0  0  0  0
 37 40  1  0  0  0  0
 38 42  1  0  0  0  0
 39 44  1  0  0  0  0
 40 65  1  0  0  0  0
 41 44  1  0  0  0  0
 41 65  1  0  0  0  0
 42 68  1  0  0  0  0
 43 64  1  0  0  0  0
 44 63  1  0  0  0  0
 45 58  1  0  0  0  0
 46 59  1  0  0  0  0
 47 60  1  0  0  0  0
 48 61  1  0  0  0  0
 49 61  1  0  0  0  0
 50 61  1  0  0  0  0
 51 70  1  0  0  0  0
 52 71  1  0  0  0  0
 53 54  1  0  0  0  0
 53 55  1  0  0  0  0
 54 70  1  0  0  0  0
 55 72  1  0  0  0  0
 56 59  1  0  0  0  0
 56 79  1  0  0  0  0
 57 61  1  0  0  0  0
 57 69  1  0  0  0  0
 58 71  1  0  0  0  0
 59 60  1  0  0  0  0
 60 72  1  0  0  0  0
 62 63  1  0  0  0  0
M  CHG  2  71   1  72   1
M  ISO  4  32 100  56 101  70 100  79 101
M  END
> <Batch ID>
0100

> <Smiles>
CNC(C)C(=O)NC(C(=O)N1Cc2cc([101O:1][101CH2:1]C(C)C(C)NCCC[100N:0](C)[100C:0](=O)N3CCCC(n4nc(-c5ccc(Oc6ccc(F)cc6F)cc5)c(C(N)=O)c4N)C3)ccc2CC1C(=O)NC1CCCc2ccccc21)C(C)(C)C

> <Shape>
0.246

> <Color>
0.097

> <Negative vol penalty>
0.000

$$$$

  -OEChem-04052319333D

 89 97  0     1  0  0  0  0  0999 V2000
  -25.2197  -28.7910   20.1777 C   0  0  0  0  0  0  0  0  0  0  0  0
  -24.9099  -27.4614   19.9100 C   0  0  0  0  0  0  0  0  0  0  0  0
  -20.2088  -23.7606   25.9238 C   0  0  0  0  0  0  0  0  0  0  0  0
  -19.5751  -22.0281   24.3637 C   0  0  0  0  0  0  0  0  0  0  0  0
  -26.5350  -29.2372   20.0564 C   0  0  0  0  0  0  0  0  0  0  0  0
  -25.9152  -26.5775   19.5196 C   0  0  0  0  0  0  0  0  0  0  0  0
  -25.6339  -22.1304   21.9258 C   0  0  0  0  0  0  0  0  0  0  0  0
  -19.4344  -24.6805   25.2169 C   0  0  0  0  0  0  0  0  0  0  0  0
  -18.8006  -22.9480   23.6568 C   0  0  0  0  0  0  0  0  0  0  0  0
  -24.6734  -21.2242   21.4786 C   0  0  0  0  0  0  0  0  0  0  0  0
  -17.9100  -27.5669   23.6143 C   0  0  0  0  0  0  0  0  0  0  0  0
  -18.4663  -28.8186   23.3510 C   0  0  0  0  0  0  0  0  0  0  0  0
  -26.3761  -20.0336   20.2528 C   0  0  0  0  0  0  0  0  0  0  0  0
  -23.5802  -15.9913   22.3352 C   0  0  0  0  0  0  0  0  0  0  0  0
  -20.2592  -27.7632   22.1226 C   0  0  0  0  0  0  0  0  0  0  0  0
  -24.3195  -16.1211   20.0784 C   0  0  0  0  0  0  0  0  0  0  0  0
  -20.2792  -22.4344   25.4972 C   0  0  0  0  0  0  0  0  0  0  0  0
  -20.6663  -20.6697   27.2982 C   0  0  0  0  0  0  0  0  0  0  0  0
  -27.5586  -28.3560   19.6737 C   0  0  0  0  0  0  0  0  0  0  0  0
  -26.9730  -22.0012   21.5304 C   0  0  0  0  0  0  0  0  0  0  0  0
  -27.2452  -27.0126   19.3918 C   0  0  0  0  0  0  0  0  0  0  0  0
  -27.3521  -20.9381   20.6984 C   0  0  0  0  0  0  0  0  0  0  0  0
  -23.4667  -16.5677   21.0750 C   0  0  0  0  0  0  0  0  0  0  0  0
  -24.5295  -14.9999   22.5573 C   0  0  0  0  0  0  0  0  0  0  0  0
  -18.7303  -24.2742   24.0834 C   0  0  0  0  0  0  0  0  0  0  0  0
  -25.0439  -20.1773   20.6397 C   0  0  0  0  0  0  0  0  0  0  0  0
  -18.5283  -26.4133   23.1319 C   0  0  0  0  0  0  0  0  0  0  0  0
  -19.6409  -28.9167   22.6051 C   0  0  0  0  0  0  0  0  0  0  0  0
  -19.7029  -26.5115   22.3860 C   0  0  0  0  0  0  0  0  0  0  0  0
  -21.0795  -21.4838   26.2266 C   0  0  0  0  0  0  0  0  0  0  0  0
  -25.3345  -14.6234   21.4943 C   0  0  0  0  0  0  0  0  0  0  0  0
  -21.7878  -19.9530   27.6372 C   0  0  0  0  0  0  0  0  0  0  0  0
  -19.3834  -20.5702   27.9306 C   0  0  0  0  0  0  0  0  0  0  0  0
  -29.0111  -23.8051   19.8884 C   0  0  0  0  0  0  0  0  0  0  0  0
  -31.1335  -21.5091   20.7520 C   0  0  0  0  0  0  0  0  0  0  0  0
  -31.6760  -18.2830   21.7242 C   0  0  0  0  0  0  0  0  0  0  0  0
  -26.3970  -17.4443   25.1926 C   0  0  0  0  0  0  0  0  0  0  0  0
  -28.9575  -28.8955   19.5103 C   0  0  0  0  0  0  0  0  0  0  0  0
  -28.0017  -22.9715   22.0430 C   0  0  0  0  0  0  0  0  0  0  0  0
  -28.7802  -20.7434   20.2613 C   0  0  0  0  0  0  0  0  0  0  0  0
  -30.0271  -27.8077   19.4545 C   0  0  0  0  0  0  0  0  0  0  0  0
  -26.6452  -20.5423   26.9296 C   0  0  0  0  0  0  0  0  0  0  0  0
  -29.6030  -26.6901   18.5069 C   0  0  0  0  0  0  0  0  0  0  0  0
  -25.1969  -21.0253   27.0250 C   0  0  0  0  0  0  0  0  0  0  0  0
  -26.9168  -19.8308   25.6060 C   0  0  0  0  0  0  0  0  0  0  0  0
  -24.5417  -19.2093   25.3904 C   0  0  0  0  0  0  0  0  0  0  0  0
  -28.3122  -26.0176   18.9898 C   0  0  1  0  0  0  0  0  0  0  0  0
  -29.2455  -23.0441   21.1626 C   0  0  1  0  0  0  0  0  0  0  0  0
  -24.2048  -19.8839   26.7312 C   0  0  2  0  0  0  0  0  0  0  0  0
  -32.9507  -16.2763   22.5276 C   0  0  0  0  0  0  0  0  0  0  0  0
  -28.3331  -15.0499   21.0120 C   0  0  0  0  0  0  0  0  0  0  0  0
  -28.5842  -12.5600   20.9825 C   0  0  0  0  0  0  0  0  0  0  0  0
  -20.9444  -13.5113   24.9124 C   0  0  0  0  0  0  0  0  0  0  0  0
  -22.6311  -12.0276   23.8133 C   0  0  0  0  0  0  0  0  0  0  0  0
  -31.8404  -21.2271   17.7972 C   0  0  0  0  0  0  0  0  0  0  0  0
  -32.9329  -19.0405   18.3389 C   0  0  0  0  0  0  0  0  0  0  0  0
  -33.7990  -21.1499   19.3504 C   0  0  0  0  0  0  0  0  0  0  0  0
  -31.2533  -19.0065   24.5627 C   0  0  0  0  0  0  0  0  0  0  0  0
  -22.4461  -17.6454   20.8007 C   0  0  0  0  0  0  0  0  0  0  0  0
  -26.3711  -13.5629   21.6742 C   0  0  0  0  0  0  0  0  0  0  0  0
  -23.3125  -14.3265   24.6961 C   0  0  0  0  0  0  0  0  0  0  0  0
  -25.7177  -15.0912   24.7916 C   0  0  0  0  0  0  0  0  0  0  0  0
  -22.9957  -19.0439   21.0599 C   0  0  0  0  0  0  0  0  0  1  0  0
  -24.6575  -14.3795   23.9056 C   0  0  2  0  0  0  0  0  0  0  0  0
  -31.5972  -20.2026   20.1546 C   0  0  1  0  0  0  0  0  0  0  0  0
  -32.5113  -17.6966   22.8479 C   0  0  2  0  0  0  0  0  0  0  0  0
  -27.6125  -13.7223   20.7639 C   0  0  0  0  0  0  0  0  0  0  0  0
  -22.2020  -13.4781   24.0386 C   0  0  0  0  0  0  0  0  0  0  0  0
  -32.5150  -20.4095   18.9168 C   0  0  0  0  0  0  0  0  0  0  0  0
  -25.2538  -15.1604   20.2562 N   0  0  0  0  0  0  0  0  0  0  0  0
  -22.3633  -21.3021   25.9062 N   0  0  0  0  0  0  0  0  0  0  0  0
  -22.7666  -20.3656   26.7817 N   0  0  0  0  0  0  0  0  0  0  0  0
  -29.7481  -21.7219   20.7840 N   0  0  0  0  0  0  0  0  0  0  0  0
  -25.9424  -18.7588   25.3883 N   0  0  0  0  0  0  0  0  0  0  0  0
  -22.0225  -19.0165   28.5808 N   0  0  0  0  0  0  0  0  0  0  0  0
  -18.3408  -21.3786   27.4575 N   0  0  0  0  0  0  0  0  0  0  0  0
  -28.5934  -25.1083   20.0800 N   0  0  0  0  0  0  0  0  0  0  0  0
  -32.2197  -19.4547   21.2416 N   0  0  0  0  0  0  0  0  0  0  0  0
  -25.4074  -16.4880   24.9998 N   0  0  0  0  0  0  0  0  0  0  0  0
  -31.7291  -17.6718   24.1162 N   0  3  0  0  0  0  0  0  0  0  0  0
  -19.1723  -19.7995   28.8975 O   0  0  0  0  0  0  0  0  0  0  0  0
  -29.1968  -23.2514   18.8111 O   0  0  0  0  0  0  0  0  0  0  0  0
  -31.9695  -22.3082   21.1813 O   0  0  0  0  0  0  0  0  0  0  0  0
  -30.6464  -17.7527   21.3129 O   0  0  0  0  0  0  0  0  0  0  0  0
  -27.5957  -17.1441   25.1951 O   0  0  0  0  0  0  0  0  0  0  0  0
  -17.9743  -25.1714   23.3935 O   0  0  0  0  0  0  0  0  0  0  0  0
  -24.1082  -19.2917   20.2013 O   0  0  0  0  0  0  0  0  0  1  0  0
  -20.1742  -30.1189   22.3509 F   0  0  0  0  0  0  0  0  0  0  0  0
  -20.3008  -25.4069   21.9188 F   0  0  0  0  0  0  0  0  0  0  0  0
  1  2  1  0  0  0  0
  1  5  2  0  0  0  0
  2  6  2  0  0  0  0
  3  8  2  0  0  0  0
  3 17  1  0  0  0  0
  4  9  1  0  0  0  0
  4 17  2  0  0  0  0
  5 19  1  0  0  0  0
  6 21  1  0  0  0  0
  7 10  2  0  0  0  0
  7 20  1  0  0  0  0
  8 25  1  0  0  0  0
  9 25  2  0  0  0  0
 10 26  1  0  0  0  0
 11 12  2  0  0  0  0
 11 27  1  0  0  0  0
 12 28  1  0  0  0  0
 13 22  1  0  0  0  0
 13 26  2  0  0  0  0
 14 23  2  0  0  0  0
 14 24  1  0  0  0  0
 15 28  2  0  0  0  0
 15 29  1  0  0  0  0
 16 23  1  0  0  0  0
 16 70  2  0  0  0  0
 17 30  1  0  0  0  0
 18 30  1  0  0  0  0
 18 32  2  0  0  0  0
 18 33  1  0  0  0  0
 19 21  2  0  0  0  0
 19 38  1  0  0  0  0
 20 22  2  0  0  0  0
 20 39  1  0  0  0  0
 21 47  1  0  0  0  0
 22 40  1  0  0  0  0
 23 59  1  0  0  0  0
 24 31  2  0  0  0  0
 24 64  1  0  0  0  0
 25 86  1  0  0  0  0
 26 87  1  0  0  0  0
 27 29  2  0  0  0  0
 27 86  1  0  0  0  0
 28 88  1  0  0  0  0
 29 89  1  0  0  0  0
 30 71  2  0  0  0  0
 31 60  1  0  0  0  0
 31 70  1  0  0  0  0
 32 72  1  0  0  0  0
 32 75  1  0  0  0  0
 33 76  1  0  0  0  0
 33 81  2  0  0  0  0
 34 48  1  0  0  0  0
 34 77  1  0  0  0  0
 34 82  2  0  0  0  0
 35 65  1  0  0  0  0
 35 73  1  0  0  0  0
 35 83  2  0  0  0  0
 36 66  1  0  0  0  0
 36 78  1  0  0  0  0
 36 84  2  0  0  0  0
 37 74  1  0  0  0  0
 37 79  1  0  0  0  0
 37 85  2  0  0  0  0
 38 41  1  0  0  0  0
 39 48  1  0  0  0  0
 40 73  1  0  0  0  0
 41 43  1  0  0  0  0
 42 44  1  0  0  0  0
 42 45  1  0  0  0  0
 43 47  1  0  0  0  0
 44 49  1  0  0  0  0
 45 74  1  0  0  0  0
 46 49  1  0  0  0  0
 46 74  1  0  0  0  0
 47 77  1  0  0  0  0
 48 73  1  0  0  0  0
 49 72  1  0  0  0  0
 50 66  1  0  0  0  0
 51 67  1  0  0  0  0
 52 67  1  0  0  0  0
 53 68  1  0  0  0  0
 54 68  1  0  0  0  0
 55 69  1  0  0  0  0
 56 69  1  0  0  0  0
 57 69  1  0  0  0  0
 58 80  1  0  0  0  0
 59 63  1  0  0  0  0
 60 67  1  0  0  0  0
 61 64  1  0  0  0  0
 61 68  1  0  0  0  0
 62 64  1  0  0  0  0
 62 79  1  0  0  0  0
 63 87  1  0  0  0  0
 65 69  1  0  0  0  0
 65 78  1  0  0  0  0
 66 80  1  0  0  0  0
 71 72  1  0  0  0  0
M  CHG  1  80   1
M  ISO  4  37 100  63 101  79 100  87 101
M  END
> <Batch ID>
0100

> <Smiles>
CNC(C)C(=O)NC(C(=O)N1Cc2cc([101O:1][101CH2:1]Cc3cnc(CC(C)C)c(C(C[100NH:0][100C:0](=O)N4CCCC(n5nc(-c6ccc(Oc7ccc(F)cc7F)cc6)c(C(N)=O)c5N)C4)CC(C)C)c3)ccc2CC1C(=O)NC1CCCc2ccccc21)C(C)(C)C

> <Shape>
0.173

> <Color>
0.068

> <Negative vol penalty>
0.000

$$$$

  -OEChem-04052319333D

 86 94  0     1  0  0  0  0  0999 V2000
  -29.3154  -30.5384   25.0986 C   0  0  0  0  0  0  0  0  0  0  0  0
  -28.7854  -29.2522   25.0828 C   0  0  0  0  0  0  0  0  0  0  0  0
  -23.0511   -9.9834   19.8968 C   0  0  0  0  0  0  0  0  0  0  0  0
  -23.8563   -9.8745   22.1721 C   0  0  0  0  0  0  0  0  0  0  0  0
  -29.5862  -31.1944   23.8985 C   0  0  0  0  0  0  0  0  0  0  0  0
  -28.5248  -28.6217   23.8667 C   0  0  0  0  0  0  0  0  0  0  0  0
  -30.1002  -23.8094   23.7968 C   0  0  0  0  0  0  0  0  0  0  0  0
  -22.2995   -8.8274   20.1075 C   0  0  0  0  0  0  0  0  0  0  0  0
  -23.1046   -8.7186   22.3828 C   0  0  0  0  0  0  0  0  0  0  0  0
  -29.3027  -22.8688   24.4471 C   0  0  0  0  0  0  0  0  0  0  0  0
  -19.8868   -6.1087   20.1557 C   0  0  0  0  0  0  0  0  0  0  0  0
  -18.5712   -6.0971   19.6923 C   0  0  0  0  0  0  0  0  0  0  0  0
  -28.3658  -22.2052   22.3256 C   0  0  0  0  0  0  0  0  0  0  0  0
  -26.4622  -19.0436   20.9204 C   0  0  0  0  0  0  0  0  0  0  0  0
  -28.4675  -18.6962   22.2223 C   0  0  0  0  0  0  0  0  0  0  0  0
  -28.5209  -18.4153   19.8233 C   0  0  0  0  0  0  0  0  0  0  0  0
  -18.0541   -7.9813   21.1133 C   0  0  0  0  0  0  0  0  0  0  0  0
  -23.8296  -10.5069   20.9291 C   0  0  0  0  0  0  0  0  0  0  0  0
  -24.1972  -13.0313   20.9207 C   0  0  0  0  0  0  0  0  0  0  0  0
  -29.3378  -30.5678   22.6671 C   0  0  0  0  0  0  0  0  0  0  0  0
  -30.0285  -23.9627   22.4047 C   0  0  0  0  0  0  0  0  0  0  0  0
  -28.7912  -29.2704   22.6489 C   0  0  0  0  0  0  0  0  0  0  0  0
  -29.1653  -23.1467   21.6597 C   0  0  0  0  0  0  0  0  0  0  0  0
  -27.1128  -19.0214   22.1540 C   0  0  0  0  0  0  0  0  0  0  0  0
  -27.1662  -18.7405   19.7550 C   0  0  0  0  0  0  0  0  0  0  0  0
  -29.1716  -18.3931   21.0569 C   0  0  0  0  0  0  0  0  0  0  0  0
  -22.3262   -8.1950   21.3504 C   0  0  0  0  0  0  0  0  0  0  0  0
  -28.4332  -22.0685   23.7119 C   0  0  0  0  0  0  0  0  0  0  0  0
  -20.2860   -7.0565   21.0980 C   0  0  0  0  0  0  0  0  0  0  0  0
  -17.6549   -7.0334   20.1711 C   0  0  0  0  0  0  0  0  0  0  0  0
  -19.3697   -7.9928   21.5768 C   0  0  0  0  0  0  0  0  0  0  0  0
  -24.6067  -11.7007   20.7119 C   0  0  0  0  0  0  0  0  0  0  0  0
  -25.2903  -13.7858   20.5708 C   0  0  0  0  0  0  0  0  0  0  0  0
  -22.9411  -13.5398   21.3890 C   0  0  0  0  0  0  0  0  0  0  0  0
  -29.2201  -26.3337   20.4479 C   0  0  0  0  0  0  0  0  0  0  0  0
  -30.2235  -24.2659   18.1588 C   0  0  0  0  0  0  0  0  0  0  0  0
  -30.8072  -21.0350   17.2276 C   0  0  0  0  0  0  0  0  0  0  0  0
  -30.7877  -14.7386   20.6953 C   0  0  0  0  0  0  0  0  0  0  0  0
  -29.6025  -31.3350   21.3958 C   0  0  0  0  0  0  0  0  0  0  0  0
  -30.9149  -24.9634   21.7153 C   0  0  0  0  0  0  0  0  0  0  0  0
  -29.0655  -23.2579   20.1609 C   0  0  0  0  0  0  0  0  0  0  0  0
  -29.6478  -30.4532   20.1505 C   0  0  0  0  0  0  0  0  0  0  0  0
  -29.5764  -12.4809   18.2230 C   0  0  0  0  0  0  0  0  0  0  0  0
  -28.4700  -29.4839   20.1396 C   0  0  0  0  0  0  0  0  0  0  0  0
  -28.1447  -12.1819   18.6708 C   0  0  0  0  0  0  0  0  0  0  0  0
  -30.5196  -12.6355   19.4140 C   0  0  0  0  0  0  0  0  0  0  0  0
  -28.6540  -13.3199   20.8717 C   0  0  0  0  0  0  0  0  0  0  0  0
  -28.5180  -28.5437   21.3500 C   0  0  1  0  0  0  0  0  0  0  0  0
  -30.3852  -25.3899   20.3497 C   0  0  1  0  0  0  0  0  0  0  0  0
  -27.6548  -13.2110   19.7072 C   0  0  2  0  0  0  0  0  0  0  0  0
  -25.9323  -20.1629   18.0793 C   0  0  0  0  0  0  0  0  0  0  0  0
  -25.3338  -17.7291   18.3503 C   0  0  0  0  0  0  0  0  0  0  0  0
  -31.5892  -19.1302   15.7932 C   0  0  0  0  0  0  0  0  0  0  0  0
  -25.2902  -21.2206   24.7274 C   0  0  0  0  0  0  0  0  0  0  0  0
  -27.5221  -24.6595   16.7959 C   0  0  0  0  0  0  0  0  0  0  0  0
  -27.9820  -22.6021   15.4454 C   0  0  0  0  0  0  0  0  0  0  0  0
  -29.4765  -24.5885   15.2371 C   0  0  0  0  0  0  0  0  0  0  0  0
  -33.5321  -21.1348   18.3783 C   0  0  0  0  0  0  0  0  0  0  0  0
  -26.3499  -19.3500   23.4156 C   0  0  0  0  0  0  0  0  0  0  0  0
  -30.9021  -16.8277   22.0301 C   0  0  0  0  0  0  0  0  0  0  0  0
  -26.4711  -18.7644   18.4356 C   0  0  0  0  0  0  0  0  0  0  0  0
  -30.6202  -18.0454   21.1303 C   0  0  2  0  0  0  0  0  0  0  0  0
  -29.5694  -23.1822   17.3361 C   0  0  1  0  0  0  0  0  0  0  0  0
  -32.0004  -20.3804   16.5552 C   0  0  2  0  0  0  0  0  0  0  0  0
  -26.3937  -20.8457   23.7463 C   0  0  2  0  0  0  0  0  0  1  0  0
  -28.6377  -23.7571   16.2321 C   0  0  0  0  0  0  0  0  0  0  0  0
  -25.8618  -11.6117   20.2640 N   0  0  0  0  0  0  0  0  0  0  0  0
  -26.2505  -12.8959   20.1883 N   0  0  0  0  0  0  0  0  0  0  0  0
  -29.9481  -24.2554   19.5335 N   0  0  0  0  0  0  0  0  0  0  0  0
  -29.9982  -13.6268   20.3582 N   0  0  0  0  0  0  0  0  0  0  0  0
  -25.5141  -15.1170   20.5561 N   0  0  0  0  0  0  0  0  0  0  0  0
  -21.9260  -12.6262   21.7038 N   0  0  0  0  0  0  0  0  0  0  0  0
  -29.4960  -27.4980   21.1391 N   0  0  0  0  0  0  0  0  0  0  0  0
  -30.6516  -22.3457   16.8287 N   0  0  0  0  0  0  0  0  0  0  0  0
  -30.2158  -15.6328   21.5920 N   0  0  0  0  0  0  0  0  0  0  0  0
  -31.4742  -19.1857   21.6175 N   0  3  0  0  0  0  0  0  0  0  0  0
  -33.0215  -19.9971   17.5708 N   0  3  0  0  0  0  0  0  0  0  0  0
  -22.7198  -14.7687   21.5088 O   0  0  0  0  0  0  0  0  0  0  0  0
  -28.1506  -26.0288   19.9334 O   0  0  0  0  0  0  0  0  0  0  0  0
  -30.9575  -25.0870   17.6033 O   0  0  0  0  0  0  0  0  0  0  0  0
  -30.0831  -20.4417   18.0241 O   0  0  0  0  0  0  0  0  0  0  0  0
  -31.9164  -14.9235   20.2274 O   0  0  0  0  0  0  0  0  0  0  0  0
  -21.5927   -7.0672   21.5564 O   0  0  0  0  0  0  0  0  0  0  0  0
  -27.6531  -21.1501   24.3443 O   0  0  0  0  0  0  0  0  0  1  0  0
  -16.3920   -7.0232   19.7248 F   0  0  0  0  0  0  0  0  0  0  0  0
  -19.7477   -8.9066   22.4812 F   0  0  0  0  0  0  0  0  0  0  0  0
  1  2  1  0  0  0  0
  1  5  2  0  0  0  0
  2  6  2  0  0  0  0
  3  8  2  0  0  0  0
  3 18  1  0  0  0  0
  4  9  1  0  0  0  0
  4 18  2  0  0  0  0
  5 20  1  0  0  0  0
  6 22  1  0  0  0  0
  7 10  2  0  0  0  0
  7 21  1  0  0  0  0
  8 27  1  0  0  0  0
  9 27  2  0  0  0  0
 10 28  1  0  0  0  0
 11 12  2  0  0  0  0
 11 29  1  0  0  0  0
 12 30  1  0  0  0  0
 13 23  1  0  0  0  0
 13 28  2  0  0  0  0
 14 24  1  0  0  0  0
 14 25  2  0  0  0  0
 15 24  2  0  0  0  0
 15 26  1  0  0  0  0
 16 25  1  0  0  0  0
 16 26  2  0  0  0  0
 17 30  2  0  0  0  0
 17 31  1  0  0  0  0
 18 32  1  0  0  0  0
 19 32  1  0  0  0  0
 19 33  2  0  0  0  0
 19 34  1  0  0  0  0
 20 22  2  0  0  0  0
 20 39  1  0  0  0  0
 21 23  2  0  0  0  0
 21 40  1  0  0  0  0
 22 48  1  0  0  0  0
 23 41  1  0  0  0  0
 24 59  1  0  0  0  0
 25 61  1  0  0  0  0
 26 62  1  0  0  0  0
 27 83  1  0  0  0  0
 28 84  1  0  0  0  0
 29 31  2  0  0  0  0
 29 83  1  0  0  0  0
 30 85  1  0  0  0  0
 31 86  1  0  0  0  0
 32 67  2  0  0  0  0
 33 68  1  0  0  0  0
 33 71  1  0  0  0  0
 34 72  1  0  0  0  0
 34 78  2  0  0  0  0
 35 49  1  0  0  0  0
 35 73  1  0  0  0  0
 35 79  2  0  0  0  0
 36 63  1  0  0  0  0
 36 69  1  0  0  0  0
 36 80  2  0  0  0  0
 37 64  1  0  0  0  0
 37 74  1  0  0  0  0
 37 81  2  0  0  0  0
 38 70  1  0  0  0  0
 38 75  1  0  0  0  0
 38 82  2  0  0  0  0
 39 42  1  0  0  0  0
 40 49  1  0  0  0  0
 41 69  1  0  0  0  0
 42 44  1  0  0  0  0
 43 45  1  0  0  0  0
 43 46  1  0  0  0  0
 44 48  1  0  0  0  0
 45 50  1  0  0  0  0
 46 70  1  0  0  0  0
 47 50  1  0  0  0  0
 47 70  1  0  0  0  0
 48 73  1  0  0  0  0
 49 69  1  0  0  0  0
 50 68  1  0  0  0  0
 51 61  1  0  0  0  0
 52 61  1  0  0  0  0
 53 64  1  0  0  0  0
 54 65  1  0  0  0  0
 55 66  1  0  0  0  0
 56 66  1  0  0  0  0
 57 66  1  0  0  0  0
 58 77  1  0  0  0  0
 59 65  1  0  0  0  0
 60 62  1  0  0  0  0
 60 75  1  0  0  0  0
 62 76  1  0  0  0  0
 63 66  1  0  0  0  0
 63 74  1  0  0  0  0
 64 77  1  0  0  0  0
 65 84  1  0  0  0  0
 67 68  1  0  0  0  0
M  CHG  2  76   1  77   1
M  ISO  4  38 100  65 101  75 100  84 101
M  END
> <Batch ID>
0100

> <Smiles>
CNC(C)C(=O)NC(C(=O)N1Cc2cc([101O:1][101CH:1](C)Cc3cc(C(C)C)cc(C(N)C[100NH:0][100C:0](=O)N4CCCC(n5nc(-c6ccc(Oc7ccc(F)cc7F)cc6)c(C(N)=O)c5N)C4)c3)ccc2CC1C(=O)NC1CCCc2ccccc21)C(C)(C)C

> <Shape>
0.264

> <Color>
0.200

> <Negative vol penalty>
0.000

$$$$

  -OEChem-04052319333D

 81 88  0     1  0  0  0  0  0999 V2000
  -31.1552  -26.1818   17.6051 C   0  0  0  0  0  0  0  0  0  0  0  0
  -29.7832  -25.9837   17.7221 C   0  0  0  0  0  0  0  0  0  0  0  0
  -29.1090  -18.2787   18.9017 C   0  0  0  0  0  0  0  0  0  0  0  0
  -27.0511  -17.0459   18.6151 C   0  0  0  0  0  0  0  0  0  0  0  0
  -31.8582  -26.8080   18.6336 C   0  0  0  0  0  0  0  0  0  0  0  0
  -29.1134  -26.4108   18.8682 C   0  0  0  0  0  0  0  0  0  0  0  0
  -23.4138  -28.6281   19.1906 C   0  0  0  0  0  0  0  0  0  0  0  0
  -29.6561  -17.2029   19.6010 C   0  0  0  0  0  0  0  0  0  0  0  0
  -27.5981  -15.9701   19.3144 C   0  0  0  0  0  0  0  0  0  0  0  0
  -22.1969  -28.0408   19.5342 C   0  0  0  0  0  0  0  0  0  0  0  0
  -29.7326  -13.4246   18.6937 C   0  0  0  0  0  0  0  0  0  0  0  0
  -29.5461  -12.1476   18.1646 C   0  0  0  0  0  0  0  0  0  0  0  0
  -22.4473  -28.8565   21.7906 C   0  0  0  0  0  0  0  0  0  0  0  0
  -28.3920  -11.4812   20.1799 C   0  0  0  0  0  0  0  0  0  0  0  0
  -27.8065  -18.2002   18.4088 C   0  0  0  0  0  0  0  0  0  0  0  0
  -27.2965  -19.5404   16.2989 C   0  0  0  0  0  0  0  0  0  0  0  0
  -31.1951  -27.2516   19.7887 C   0  0  0  0  0  0  0  0  0  0  0  0
  -24.1631  -29.3259   20.1488 C   0  0  0  0  0  0  0  0  0  0  0  0
  -29.8084  -27.0423   19.9137 C   0  0  0  0  0  0  0  0  0  0  0  0
  -23.6721  -29.4539   21.4560 C   0  0  0  0  0  0  0  0  0  0  0  0
  -28.9006  -16.0486   19.8073 C   0  0  0  0  0  0  0  0  0  0  0  0
  -21.7149  -28.1525   20.8351 C   0  0  0  0  0  0  0  0  0  0  0  0
  -29.2489  -13.7300   19.9659 C   0  0  0  0  0  0  0  0  0  0  0  0
  -28.8758  -11.1759   18.9077 C   0  0  0  0  0  0  0  0  0  0  0  0
  -28.5786  -12.7583   20.7090 C   0  0  0  0  0  0  0  0  0  0  0  0
  -27.2406  -19.3113   17.6868 C   0  0  0  0  0  0  0  0  0  0  0  0
  -26.6148  -20.7189   16.1177 C   0  0  0  0  0  0  0  0  0  0  0  0
  -27.9097  -18.7578   15.2659 C   0  0  0  0  0  0  0  0  0  0  0  0
  -27.0474  -28.9689   21.4361 C   0  0  0  0  0  0  0  0  0  0  0  0
  -26.3501  -31.8144   22.8287 C   0  0  0  0  0  0  0  0  0  0  0  0
  -23.9661  -34.0186   23.8798 C   0  0  0  0  0  0  0  0  0  0  0  0
  -22.1556  -23.6737   18.0677 C   0  0  0  0  0  0  0  0  0  0  0  0
  -32.0053  -27.8809   20.8943 C   0  0  0  0  0  0  0  0  0  0  0  0
  -25.4610  -29.9764   19.7555 C   0  0  0  0  0  0  0  0  0  0  0  0
  -24.4284  -30.2097   22.5167 C   0  0  0  0  0  0  0  0  0  0  0  0
  -31.1591  -28.6399   21.9131 C   0  0  0  0  0  0  0  0  0  0  0  0
  -25.3837  -24.5253   19.0062 C   0  0  0  0  0  0  0  0  0  0  0  0
  -29.9512  -27.8070   22.3304 C   0  0  0  0  0  0  0  0  0  0  0  0
  -26.2111  -23.2960   18.6334 C   0  0  0  0  0  0  0  0  0  0  0  0
  -24.0432  -24.1177   19.6061 C   0  0  0  0  0  0  0  0  0  0  0  0
  -24.0435  -21.9970   18.3319 C   0  0  0  0  0  0  0  0  0  0  0  0
  -29.0424  -27.5137   21.1307 C   0  0  1  0  0  0  0  0  0  0  0  0
  -26.3881  -30.2252   20.9413 C   0  0  1  0  0  0  0  0  0  0  0  0
  -25.4132  -22.3516   17.7174 C   0  0  2  0  0  0  0  0  0  0  0  0
  -20.8836  -22.2852   15.3798 C   0  0  0  0  0  0  0  0  0  0  0  0
  -23.7013  -36.2407   25.0154 C   0  0  0  0  0  0  0  0  0  0  0  0
  -17.9319  -23.4255   21.6656 C   0  0  0  0  0  0  0  0  0  0  0  0
  -26.9966  -30.5168   25.5135 C   0  0  0  0  0  0  0  0  0  0  0  0
  -25.8268  -32.4235   26.6379 C   0  0  0  0  0  0  0  0  0  0  0  0
  -27.8547  -32.8510   25.2495 C   0  0  0  0  0  0  0  0  0  0  0  0
  -22.6072  -35.1900   21.5261 C   0  0  0  0  0  0  0  0  0  0  0  0
  -20.8434  -23.0257   21.5560 C   0  0  0  0  0  0  0  0  0  0  0  0
  -19.3132  -25.5217   21.3862 C   0  0  0  0  0  0  0  0  0  0  0  0
  -20.3025  -22.9223   16.6259 C   0  0  0  0  0  0  0  0  0  0  0  0
  -20.7311  -21.6852   18.7170 C   0  0  0  0  0  0  0  0  0  0  0  0
  -19.5837  -22.1447   19.5970 C   0  0  0  0  0  0  0  0  0  0  0  0
  -20.1495  -26.4011   20.4631 C   0  0  0  0  0  0  0  0  0  1  0  0
  -25.6804  -32.2406   24.1128 C   0  0  1  0  0  0  0  0  0  0  0  0
  -23.8229  -35.5170   23.6833 C   0  0  2  0  0  0  0  0  0  0  0  0
  -18.8255  -24.2286   20.7298 C   0  0  1  0  0  0  0  0  0  0  0  0
  -26.5761  -31.9920   25.3592 C   0  0  0  0  0  0  0  0  0  0  0  0
  -26.5761  -20.2677   18.3409 N   0  0  0  0  0  0  0  0  0  0  0  0
  -26.2082  -21.1091   17.3597 N   0  0  0  0  0  0  0  0  0  0  0  0
  -25.6954  -30.8227   22.0847 N   0  0  0  0  0  0  0  0  0  0  0  0
  -23.3149  -23.2170   18.7121 N   0  0  0  0  0  0  0  0  0  0  0  0
  -26.3296  -21.4492   15.0187 N   0  0  0  0  0  0  0  0  0  0  0  0
  -28.5691  -17.5747   15.6263 N   0  0  0  0  0  0  0  0  0  0  0  0
  -28.2421  -28.6753   20.8069 N   0  0  0  0  0  0  0  0  0  0  0  0
  -25.2893  -33.6337   23.9263 N   0  0  0  0  0  0  0  0  0  0  0  0
  -21.1631  -22.7237   17.7834 N   0  0  0  0  0  0  0  0  0  0  0  0
  -22.6102  -35.8195   22.8717 N   0  3  0  0  0  0  0  0  0  0  0  0
  -19.9909  -23.3762   20.3640 N   0  3  1  0  0  0  0  0  0  0  0  0
  -27.8881  -19.1060   14.0610 O   0  0  0  0  0  0  0  0  0  0  0  0
  -26.5126  -28.3153   22.3240 O   0  0  0  0  0  0  0  0  0  0  0  0
  -27.4113  -32.3471   22.4944 O   0  0  0  0  0  0  0  0  0  0  0  0
  -23.0006  -33.2654   23.9855 O   0  0  0  0  0  0  0  0  0  0  0  0
  -22.0106  -24.8662   17.7691 O   0  0  0  0  0  0  0  0  0  0  0  0
  -29.4342  -14.9986   20.4895 O   0  0  0  0  0  0  0  0  0  0  0  0
  -20.5277  -27.5796   21.1733 O   0  0  0  0  0  0  0  0  0  1  0  0
  -28.6954   -9.9500   18.3989 F   0  0  0  0  0  0  0  0  0  0  0  0
  -28.1106  -13.0461   21.9313 F   0  0  0  0  0  0  0  0  0  0  0  0
  1  2  1  0  0  0  0
  1  5  2  0  0  0  0
  2  6  2  0  0  0  0
  3  8  2  0  0  0  0
  3 15  1  0  0  0  0
  4  9  1  0  0  0  0
  4 15  2  0  0  0  0
  5 17  1  0  0  0  0
  6 19  1  0  0  0  0
  7 10  2  0  0  0  0
  7 18  1  0  0  0  0
  8 21  1  0  0  0  0
  9 21  2  0  0  0  0
 10 22  1  0  0  0  0
 11 12  2  0  0  0  0
 11 23  1  0  0  0  0
 12 24  1  0  0  0  0
 13 20  1  0  0  0  0
 13 22  2  0  0  0  0
 14 24  2  0  0  0  0
 14 25  1  0  0  0  0
 15 26  1  0  0  0  0
 16 26  1  0  0  0  0
 16 27  2  0  0  0  0
 16 28  1  0  0  0  0
 17 19  2  0  0  0  0
 17 33  1  0  0  0  0
 18 20  2  0  0  0  0
 18 34  1  0  0  0  0
 19 42  1  0  0  0  0
 20 35  1  0  0  0  0
 21 78  1  0  0  0  0
 22 79  1  0  0  0  0
 23 25  2  0  0  0  0
 23 78  1  0  0  0  0
 24 80  1  0  0  0  0
 25 81  1  0  0  0  0
 26 62  2  0  0  0  0
 27 63  1  0  0  0  0
 27 66  1  0  0  0  0
 28 67  1  0  0  0  0
 28 73  2  0  0  0  0
 29 43  1  0  0  0  0
 29 68  1  0  0  0  0
 29 74  2  0  0  0  0
 30 58  1  0  0  0  0
 30 64  1  0  0  0  0
 30 75  2  0  0  0  0
 31 59  1  0  0  0  0
 31 69  1  0  0  0  0
 31 76  2  0  0  0  0
 32 65  1  0  0  0  0
 32 70  1  0  0  0  0
 32 77  2  0  0  0  0
 33 36  1  0  0  0  0
 34 43  1  0  0  0  0
 35 64  1  0  0  0  0
 36 38  1  0  0  0  0
 37 39  1  0  0  0  0
 37 40  1  0  0  0  0
 38 42  1  0  0  0  0
 39 44  1  0  0  0  0
 40 65  1  0  0  0  0
 41 44  1  0  0  0  0
 41 65  1  0  0  0  0
 42 68  1  0  0  0  0
 43 64  1  0  0  0  0
 44 63  1  0  0  0  0
 45 54  1  0  0  0  0
 46 59  1  0  0  0  0
 47 60  1  0  0  0  0
 48 61  1  0  0  0  0
 49 61  1  0  0  0  0
 50 61  1  0  0  0  0
 51 71  1  0  0  0  0
 52 72  1  0  0  0  0
 53 57  1  0  0  0  0
 53 60  1  0  0  0  0
 54 70  1  0  0  0  0
 55 56  1  0  0  0  0
 55 70  1  0  0  0  0
 56 72  1  0  0  0  0
 57 79  1  0  0  0  0
 58 61  1  0  0  0  0
 58 69  1  0  0  0  0
 59 71  1  0  0  0  0
 60 72  1  0  0  0  0
 62 63  1  0  0  0  0
M  CHG  2  71   1  72   1
M  ISO  4  32 100  57 101  70 100  79 101
M  END
> <Batch ID>
0100

> <Smiles>
CC[100N:0](CCN(C)C(C)C[101CH2:1][101O:1]c1ccc2c(c1)CN(C(=O)C(NC(=O)C(C)NC)C(C)(C)C)C(C(=O)NC1CCCc3ccccc31)C2)[100C:0](=O)N1CCCC(n2nc(-c3ccc(Oc4ccc(F)cc4F)cc3)c(C(N)=O)c2N)C1

> <Shape>
0.256

> <Color>
0.069

> <Negative vol penalty>
0.000

$$$$

  -OEChem-04052319333D

 81 88  0     1  0  0  0  0  0999 V2000
  -15.9206  -22.0265   25.6787 C   0  0  0  0  0  0  0  0  0  0  0  0
  -16.7753  -21.4296   24.7575 C   0  0  0  0  0  0  0  0  0  0  0  0
  -23.0620   -9.8826   19.9420 C   0  0  0  0  0  0  0  0  0  0  0  0
  -23.8443   -9.8682   22.2278 C   0  0  0  0  0  0  0  0  0  0  0  0
  -16.3743  -23.0847   26.4650 C   0  0  0  0  0  0  0  0  0  0  0  0
  -18.0840  -21.8914   24.6212 C   0  0  0  0  0  0  0  0  0  0  0  0
  -24.6937  -19.5740   23.1189 C   0  0  0  0  0  0  0  0  0  0  0  0
  -22.3179   -8.7291   20.1894 C   0  0  0  0  0  0  0  0  0  0  0  0
  -23.1000   -8.7147   22.4753 C   0  0  0  0  0  0  0  0  0  0  0  0
  -25.7645  -19.8492   22.2695 C   0  0  0  0  0  0  0  0  0  0  0  0
  -19.8760   -7.9193   23.1025 C   0  0  0  0  0  0  0  0  0  0  0  0
  -19.1304   -7.8712   24.2803 C   0  0  0  0  0  0  0  0  0  0  0  0
  -26.4627  -21.6319   23.7371 C   0  0  0  0  0  0  0  0  0  0  0  0
  -20.3743   -5.9246   24.9881 C   0  0  0  0  0  0  0  0  0  0  0  0
  -23.8253  -10.4522   20.9612 C   0  0  0  0  0  0  0  0  0  0  0  0
  -24.1721  -12.9774   20.8594 C   0  0  0  0  0  0  0  0  0  0  0  0
  -17.6921  -23.5533   26.3452 C   0  0  0  0  0  0  0  0  0  0  0  0
  -24.4928  -20.3340   24.2801 C   0  0  0  0  0  0  0  0  0  0  0  0
  -18.5553  -22.9577   25.4057 C   0  0  0  0  0  0  0  0  0  0  0  0
  -25.3901  -21.3626   24.6009 C   0  0  0  0  0  0  0  0  0  0  0  0
  -22.3368   -8.1452   21.4560 C   0  0  0  0  0  0  0  0  0  0  0  0
  -26.6475  -20.8802   22.5770 C   0  0  0  0  0  0  0  0  0  0  0  0
  -20.8707   -6.9701   22.8674 C   0  0  0  0  0  0  0  0  0  0  0  0
  -19.3795   -6.8739   25.2232 C   0  0  0  0  0  0  0  0  0  0  0  0
  -21.1198   -5.9728   23.8102 C   0  0  0  0  0  0  0  0  0  0  0  0
  -24.5947  -11.6434   20.7061 C   0  0  0  0  0  0  0  0  0  0  0  0
  -25.2624  -13.7274   20.4918 C   0  0  0  0  0  0  0  0  0  0  0  0
  -22.9070  -13.4926   21.2951 C   0  0  0  0  0  0  0  0  0  0  0  0
  -22.1786  -22.2357   25.3439 C   0  0  0  0  0  0  0  0  0  0  0  0
  -23.9842  -22.2769   28.0383 C   0  0  0  0  0  0  0  0  0  0  0  0
  -27.0575  -21.8966   29.4725 C   0  0  0  0  0  0  0  0  0  0  0  0
  -30.7502  -14.7320   20.6353 C   0  0  0  0  0  0  0  0  0  0  0  0
  -18.1229  -24.7308   27.1833 C   0  0  0  0  0  0  0  0  0  0  0  0
  -23.3484  -20.0071   25.1999 C   0  0  0  0  0  0  0  0  0  0  0  0
  -25.2302  -22.1948   25.8461 C   0  0  0  0  0  0  0  0  0  0  0  0
  -19.6372  -24.9149   27.2425 C   0  0  0  0  0  0  0  0  0  0  0  0
  -29.5836  -12.3706   18.2395 C   0  0  0  0  0  0  0  0  0  0  0  0
  -20.2436  -24.8017   25.8474 C   0  0  0  0  0  0  0  0  0  0  0  0
  -28.1498  -12.0766   18.6840 C   0  0  0  0  0  0  0  0  0  0  0  0
  -30.5129  -12.5791   19.4332 C   0  0  0  0  0  0  0  0  0  0  0  0
  -28.6266  -13.3027   20.8445 C   0  0  0  0  0  0  0  0  0  0  0  0
  -19.9894  -23.4141   25.2463 C   0  0  1  0  0  0  0  0  0  0  0  0
  -22.9432  -21.1785   26.0892 C   0  0  1  0  0  0  0  0  0  0  0  0
  -27.6406  -13.1405   19.6750 C   0  0  2  0  0  0  0  0  0  0  0  0
  -28.2275  -22.0309   31.6885 C   0  0  0  0  0  0  0  0  0  0  0  0
  -29.1975  -18.0748   25.2733 C   0  0  0  0  0  0  0  0  0  0  0  0
  -29.5420  -15.7526   24.4009 C   0  0  0  0  0  0  0  0  0  0  0  0
  -23.9184  -25.3236   27.8858 C   0  0  0  0  0  0  0  0  0  0  0  0
  -25.8307  -25.3762   29.5009 C   0  0  0  0  0  0  0  0  0  0  0  0
  -23.6460  -24.3883   30.1891 C   0  0  0  0  0  0  0  0  0  0  0  0
  -27.8470  -19.0466   29.3593 C   0  0  0  0  0  0  0  0  0  0  0  0
  -31.8810  -19.2738   23.2250 C   0  0  0  0  0  0  0  0  0  0  0  0
  -30.0785  -21.2560   21.5219 C   0  0  0  0  0  0  0  0  0  0  0  0
  -30.8333  -16.8718   21.8897 C   0  0  0  0  0  0  0  0  0  0  0  0
  -30.2381  -19.7469   21.4146 C   0  0  0  0  0  0  0  0  0  0  0  0
  -28.8725  -21.6878   22.3471 C   0  0  0  0  0  0  0  0  0  1  0  0
  -25.1133  -23.1351   28.5556 C   0  0  1  0  0  0  0  0  0  0  0  0
  -27.5077  -21.1261   30.7006 C   0  0  2  0  0  0  0  0  0  0  0  0
  -30.0002  -17.2116   24.2950 C   0  0  0  0  0  0  0  0  0  0  0  0
  -29.9764  -17.7177   22.8339 C   0  0  1  0  0  0  0  0  0  0  0  0
  -24.6293  -24.5416   29.0083 C   0  0  0  0  0  0  0  0  0  0  0  0
  -25.8552  -11.5482   20.2747 N   0  0  0  0  0  0  0  0  0  0  0  0
  -26.2339  -12.8319   20.1536 N   0  0  0  0  0  0  0  0  0  0  0  0
  -24.0921  -21.8406   26.7103 N   0  0  0  0  0  0  0  0  0  0  0  0
  -29.9735  -13.6013   20.3333 N   0  0  0  0  0  0  0  0  0  0  0  0
  -25.4753  -15.0590   20.4281 N   0  0  0  0  0  0  0  0  0  0  0  0
  -21.8962  -12.5830   21.6344 N   0  0  0  0  0  0  0  0  0  0  0  0
  -20.8968  -22.4420   25.8172 N   0  0  0  0  0  0  0  0  0  0  0  0
  -25.7662  -22.3611   29.6059 N   0  0  0  0  0  0  0  0  0  0  0  0
  -30.1615  -15.6550   21.4910 N   0  0  0  0  0  0  0  0  0  0  0  0
  -28.4334  -20.0252   30.3108 N   0  3  0  0  0  0  0  0  0  0  0  0
  -30.4524  -19.1483   22.7529 N   0  3  1  0  0  0  0  0  0  0  0  0
  -22.6743  -14.7232   21.3652 O   0  0  0  0  0  0  0  0  0  0  0  0
  -22.7125  -22.8219   24.4095 O   0  0  0  0  0  0  0  0  0  0  0  0
  -23.0447  -21.9978   28.7874 O   0  0  0  0  0  0  0  0  0  0  0  0
  -27.7806  -22.0723   28.4943 O   0  0  0  0  0  0  0  0  0  0  0  0
  -31.8821  -14.9087   20.1721 O   0  0  0  0  0  0  0  0  0  0  0  0
  -21.6106   -7.0197   21.6978 O   0  0  0  0  0  0  0  0  0  0  0  0
  -27.6930  -21.1514   21.7493 O   0  0  0  0  0  0  0  0  0  1  0  0
  -18.6645   -6.8287   26.3549 F   0  0  0  0  0  0  0  0  0  0  0  0
  -22.0749   -5.0588   23.5904 F   0  0  0  0  0  0  0  0  0  0  0  0
  1  2  1  0  0  0  0
  1  5  2  0  0  0  0
  2  6  2  0  0  0  0
  3  8  2  0  0  0  0
  3 15  1  0  0  0  0
  4  9  1  0  0  0  0
  4 15  2  0  0  0  0
  5 17  1  0  0  0  0
  6 19  1  0  0  0  0
  7 10  2  0  0  0  0
  7 18  1  0  0  0  0
  8 21  1  0  0  0  0
  9 21  2  0  0  0  0
 10 22  1  0  0  0  0
 11 12  2  0  0  0  0
 11 23  1  0  0  0  0
 12 24  1  0  0  0  0
 13 20  1  0  0  0  0
 13 22  2  0  0  0  0
 14 24  2  0  0  0  0
 14 25  1  0  0  0  0
 15 26  1  0  0  0  0
 16 26  1  0  0  0  0
 16 27  2  0  0  0  0
 16 28  1  0  0  0  0
 17 19  2  0  0  0  0
 17 33  1  0  0  0  0
 18 20  2  0  0  0  0
 18 34  1  0  0  0  0
 19 42  1  0  0  0  0
 20 35  1  0  0  0  0
 21 78  1  0  0  0  0
 22 79  1  0  0  0  0
 23 25  2  0  0  0  0
 23 78  1  0  0  0  0
 24 80  1  0  0  0  0
 25 81  1  0  0  0  0
 26 62  2  0  0  0  0
 27 63  1  0  0  0  0
 27 66  1  0  0  0  0
 28 67  1  0  0  0  0
 28 73  2  0  0  0  0
 29 43  1  0  0  0  0
 29 68  1  0  0  0  0
 29 74  2  0  0  0  0
 30 57  1  0  0  0  0
 30 64  1  0  0  0  0
 30 75  2  0  0  0  0
 31 58  1  0  0  0  0
 31 69  1  0  0  0  0
 31 76  2  0  0  0  0
 32 65  1  0  0  0  0
 32 70  1  0  0  0  0
 32 77  2  0  0  0  0
 33 36  1  0  0  0  0
 34 43  1  0  0  0  0
 35 64  1  0  0  0  0
 36 38  1  0  0  0  0
 37 39  1  0  0  0  0
 37 40  1  0  0  0  0
 38 42  1  0  0  0  0
 39 44  1  0  0  0  0
 40 65  1  0  0  0  0
 41 44  1  0  0  0  0
 41 65  1  0  0  0  0
 42 68  1  0  0  0  0
 43 64  1  0  0  0  0
 44 63  1  0  0  0  0
 45 58  1  0  0  0  0
 46 59  1  0  0  0  0
 47 59  1  0  0  0  0
 48 61  1  0  0  0  0
 49 61  1  0  0  0  0
 50 61  1  0  0  0  0
 51 71  1  0  0  0  0
 52 72  1  0  0  0  0
 53 55  1  0  0  0  0
 53 56  1  0  0  0  0
 54 60  1  0  0  0  0
 54 70  1  0  0  0  0
 55 72  1  0  0  0  0
 56 79  1  0  0  0  0
 57 61  1  0  0  0  0
 57 69  1  0  0  0  0
 58 71  1  0  0  0  0
 59 60  1  0  0  0  0
 60 72  1  0  0  0  0
 62 63  1  0  0  0  0
M  CHG  2  71   1  72   1
M  ISO  4  32 100  56 101  70 100  79 101
M  END
> <Batch ID>
0100

> <Smiles>
CNC(C)C(=O)NC(C(=O)N1Cc2cc([101O:1][101CH2:1]CCN(C)C(C[100NH:0][100C:0](=O)N3CCCC(n4nc(-c5ccc(Oc6ccc(F)cc6F)cc5)c(C(N)=O)c4N)C3)C(C)C)ccc2CC1C(=O)NC1CCCc2ccccc21)C(C)(C)C

> <Shape>
0.183

> <Color>
0.191

> <Negative vol penalty>
0.000

$$$$

  -OEChem-04052319333D

 82 89  0     1  0  0  0  0  0999 V2000
  -18.9128  -31.5755   23.4157 C   0  0  0  0  0  0  0  0  0  0  0  0
  -20.2757  -31.4026   23.1966 C   0  0  0  0  0  0  0  0  0  0  0  0
  -25.7059  -13.7654   21.4081 C   0  0  0  0  0  0  0  0  0  0  0  0
  -25.3688  -14.3368   19.0850 C   0  0  0  0  0  0  0  0  0  0  0  0
  -18.0559  -30.4766   23.3716 C   0  0  0  0  0  0  0  0  0  0  0  0
  -20.7826  -30.1303   22.9344 C   0  0  0  0  0  0  0  0  0  0  0  0
  -25.4515  -28.7190   19.2310 C   0  0  0  0  0  0  0  0  0  0  0  0
  -24.7004  -12.8029   21.3174 C   0  0  0  0  0  0  0  0  0  0  0  0
  -24.3633  -13.3742   18.9942 C   0  0  0  0  0  0  0  0  0  0  0  0
  -26.7972  -28.4513   19.4784 C   0  0  0  0  0  0  0  0  0  0  0  0
  -24.3646   -9.6563   20.1263 C   0  0  0  0  0  0  0  0  0  0  0  0
  -24.6129   -8.4044   20.6890 C   0  0  0  0  0  0  0  0  0  0  0  0
  -26.3204  -26.0866   19.4789 C   0  0  0  0  0  0  0  0  0  0  0  0
  -22.7197   -8.6911   22.1624 C   0  0  0  0  0  0  0  0  0  0  0  0
  -26.0400  -14.5324   20.2919 C   0  0  0  0  0  0  0  0  0  0  0  0
  -28.4528  -15.3468   20.1412 C   0  0  0  0  0  0  0  0  0  0  0  0
  -18.5512  -29.1916   23.0991 C   0  0  0  0  0  0  0  0  0  0  0  0
  -24.5267  -27.6712   19.1163 C   0  0  0  0  0  0  0  0  0  0  0  0
  -19.9317  -29.0129   22.8880 C   0  0  0  0  0  0  0  0  0  0  0  0
  -24.9640  -26.3436   19.2274 C   0  0  0  0  0  0  0  0  0  0  0  0
  -24.0292  -12.6073   20.1104 C   0  0  0  0  0  0  0  0  0  0  0  0
  -27.2314  -27.1350   19.6052 C   0  0  0  0  0  0  0  0  0  0  0  0
  -23.2939  -10.4257   20.5816 C   0  0  0  0  0  0  0  0  0  0  0  0
  -23.7905   -7.9218   21.7070 C   0  0  0  0  0  0  0  0  0  0  0  0
  -22.4714   -9.9431   21.5996 C   0  0  0  0  0  0  0  0  0  0  0  0
  -27.0782  -15.5272   20.3852 C   0  0  0  0  0  0  0  0  0  0  0  0
  -29.0064  -16.5839   20.3642 C   0  0  0  0  0  0  0  0  0  0  0  0
  -29.1656  -14.1666   19.7480 C   0  0  0  0  0  0  0  0  0  0  0  0
  -21.9311  -26.7844   20.7225 C   0  0  0  0  0  0  0  0  0  0  0  0
  -21.6786  -24.5983   18.3393 C   0  0  0  0  0  0  0  0  0  0  0  0
  -23.2259  -22.7750   15.9045 C   0  0  0  0  0  0  0  0  0  0  0  0
  -28.9300  -22.1310   19.7568 C   0  0  0  0  0  0  0  0  0  0  0  0
  -17.5929  -28.0271   23.1085 C   0  0  0  0  0  0  0  0  0  0  0  0
  -23.0833  -27.9757   18.8227 C   0  0  0  0  0  0  0  0  0  0  0  0
  -24.0148  -25.1820   19.0924 C   0  0  0  0  0  0  0  0  0  0  0  0
  -18.1569  -26.7688   22.4538 C   0  0  0  0  0  0  0  0  0  0  0  0
  -27.0240  -20.7538   22.4301 C   0  0  0  0  0  0  0  0  0  0  0  0
  -19.5750  -26.5000   22.9474 C   0  0  0  0  0  0  0  0  0  0  0  0
  -26.9764  -19.2582   22.1129 C   0  0  0  0  0  0  0  0  0  0  0  0
  -26.9597  -21.6021   21.1619 C   0  0  0  0  0  0  0  0  0  0  0  0
  -27.9211  -19.7700   19.8229 C   0  0  0  0  0  0  0  0  0  0  0  0
  -20.5161  -27.6523   22.5760 C   0  0  1  0  0  0  0  0  0  0  0  0
  -22.1393  -26.8507   19.2360 C   0  0  1  0  0  0  0  0  0  0  0  0
  -28.0396  -18.8728   21.0667 C   0  0  2  0  0  0  0  0  0  0  0  0
  -22.7649  -21.0456   14.1455 C   0  0  0  0  0  0  0  0  0  0  0  0
  -31.4229  -26.4158   20.2204 C   0  0  0  0  0  0  0  0  0  0  0  0
  -32.8856  -26.2777   16.7580 C   0  0  0  0  0  0  0  0  0  0  0  0
  -21.5211  -22.4479   20.4983 C   0  0  0  0  0  0  0  0  0  0  0  0
  -22.0182  -20.7406   18.7359 C   0  0  0  0  0  0  0  0  0  0  0  0
  -19.9461  -22.1210   18.5833 C   0  0  0  0  0  0  0  0  0  0  0  0
  -32.7275  -23.3579   15.9225 C   0  0  0  0  0  0  0  0  0  0  0  0
  -30.8127  -24.6841   15.0195 C   0  0  0  0  0  0  0  0  0  0  0  0
  -24.1019  -24.5836   13.7319 C   0  0  0  0  0  0  0  0  0  0  0  0
  -30.4450  -23.1573   17.0102 C   0  0  0  0  0  0  0  0  0  0  0  0
  -30.5921  -26.1122   17.8249 C   0  0  0  0  0  0  0  0  0  0  0  0
  -30.9129  -22.5022   18.3112 C   0  0  0  0  0  0  0  0  0  0  0  0
  -29.4993  -27.7983   19.3361 C   0  0  0  0  0  0  0  0  0  1  0  0
  -22.1874  -23.1943   18.1182 C   0  0  1  0  0  0  0  0  0  0  0  0
  -22.8706  -22.5321   14.4488 C   0  0  2  0  0  0  0  0  0  0  0  0
  -30.8283  -27.1053   18.9879 C   0  0  1  0  0  0  0  0  0  0  0  0
  -31.8274  -25.3108   17.3205 C   0  0  1  0  0  0  0  0  0  0  0  0
  -21.4360  -22.1477   18.9884 C   0  0  0  0  0  0  0  0  0  0  0  0
  -31.4482  -24.1356   16.3142 C   0  0  0  0  0  0  0  0  0  0  0  0
  -26.7769  -16.7801   20.7366 N   0  0  0  0  0  0  0  0  0  0  0  0
  -27.9700  -17.3982   20.7150 N   0  0  0  0  0  0  0  0  0  0  0  0
  -22.6124  -25.5314   18.8118 N   0  0  0  0  0  0  0  0  0  0  0  0
  -27.9948  -21.1870   20.2120 N   0  0  0  0  0  0  0  0  0  0  0  0
  -30.2736  -17.0436   20.2926 N   0  0  0  0  0  0  0  0  0  0  0  0
  -28.4428  -12.9803   19.5619 N   0  0  0  0  0  0  0  0  0  0  0  0
  -20.8903  -27.5695   21.1805 N   0  0  0  0  0  0  0  0  0  0  0  0
  -22.1010  -22.9502   16.6824 N   0  0  0  0  0  0  0  0  0  0  0  0
  -29.8808  -21.6532   18.8632 N   0  0  0  0  0  0  0  0  0  0  0  0
  -23.9092  -23.1210   13.5569 N   0  3  0  0  0  0  0  0  0  0  0  0
  -30.4091  -14.1601   19.5829 O   0  0  0  0  0  0  0  0  0  0  0  0
  -22.6598  -26.0724   21.4035 O   0  0  0  0  0  0  0  0  0  0  0  0
  -20.4980  -24.8592   18.0949 O   0  0  0  0  0  0  0  0  0  0  0  0
  -24.3852  -22.8025   16.3116 O   0  0  0  0  0  0  0  0  0  0  0  0
  -28.9219  -23.3109   20.1238 O   0  0  0  0  0  0  0  0  0  0  0  0
  -23.0482  -11.6680   20.0214 O   0  0  0  0  0  0  0  0  0  0  0  0
  -28.5535  -26.8691   19.8491 O   0  0  0  0  0  0  0  0  0  1  0  0
  -24.0282   -6.7189   22.2463 F   0  0  0  0  0  0  0  0  0  0  0  0
  -21.4406  -10.6771   22.0404 F   0  0  0  0  0  0  0  0  0  0  0  0
  1  2  1  0  0  0  0
  1  5  2  0  0  0  0
  2  6  2  0  0  0  0
  3  8  2  0  0  0  0
  3 15  1  0  0  0  0
  4  9  1  0  0  0  0
  4 15  2  0  0  0  0
  5 17  1  0  0  0  0
  6 19  1  0  0  0  0
  7 10  2  0  0  0  0
  7 18  1  0  0  0  0
  8 21  1  0  0  0  0
  9 21  2  0  0  0  0
 10 22  1  0  0  0  0
 11 12  2  0  0  0  0
 11 23  1  0  0  0  0
 12 24  1  0  0  0  0
 13 20  1  0  0  0  0
 13 22  2  0  0  0  0
 14 24  2  0  0  0  0
 14 25  1  0  0  0  0
 15 26  1  0  0  0  0
 16 26  1  0  0  0  0
 16 27  2  0  0  0  0
 16 28  1  0  0  0  0
 17 19  2  0  0  0  0
 17 33  1  0  0  0  0
 18 20  2  0  0  0  0
 18 34  1  0  0  0  0
 19 42  1  0  0  0  0
 20 35  1  0  0  0  0
 21 79  1  0  0  0  0
 22 80  1  0  0  0  0
 23 25  2  0  0  0  0
 23 79  1  0  0  0  0
 24 81  1  0  0  0  0
 25 82  1  0  0  0  0
 26 64  2  0  0  0  0
 27 65  1  0  0  0  0
 27 68  1  0  0  0  0
 28 69  1  0  0  0  0
 28 74  2  0  0  0  0
 29 43  1  0  0  0  0
 29 70  1  0  0  0  0
 29 75  2  0  0  0  0
 30 58  1  0  0  0  0
 30 66  1  0  0  0  0
 30 76  2  0  0  0  0
 31 59  1  0  0  0  0
 31 71  1  0  0  0  0
 31 77  2  0  0  0  0
 32 67  1  0  0  0  0
 32 72  1  0  0  0  0
 32 78  2  0  0  0  0
 33 36  1  0  0  0  0
 34 43  1  0  0  0  0
 35 66  1  0  0  0  0
 36 38  1  0  0  0  0
 37 39  1  0  0  0  0
 37 40  1  0  0  0  0
 38 42  1  0  0  0  0
 39 44  1  0  0  0  0
 40 67  1  0  0  0  0
 41 44  1  0  0  0  0
 41 67  1  0  0  0  0
 42 70  1  0  0  0  0
 43 66  1  0  0  0  0
 44 65  1  0  0  0  0
 45 59  1  0  0  0  0
 46 60  1  0  0  0  0
 47 61  1  0  0  0  0
 48 62  1  0  0  0  0
 49 62  1  0  0  0  0
 50 62  1  0  0  0  0
 51 63  1  0  0  0  0
 52 63  1  0  0  0  0
 53 73  1  0  0  0  0
 54 56  1  0  0  0  0
 54 63  1  0  0  0  0
 55 60  1  0  0  0  0
 55 61  1  0  0  0  0
 56 72  1  0  0  0  0
 57 60  1  0  0  0  0
 57 80  1  0  0  0  0
 58 62  1  0  0  0  0
 58 71  1  0  0  0  0
 59 73  1  0  0  0  0
 61 63  1  0  0  0  0
 64 65  1  0  0  0  0
M  CHG  1  73   1
M  ISO  4  32 100  57 101  72 100  80 101
M  END
> <Batch ID>
0100

> <Smiles>
CNC(C)C(=O)NC(C(=O)N1Cc2cc([101O:1][101CH2:1]C(C)CC(C)C(C)(C)CC[100NH:0][100C:0](=O)N3CCCC(n4nc(-c5ccc(Oc6ccc(F)cc6F)cc5)c(C(N)=O)c4N)C3)ccc2CC1C(=O)NC1CCCc2ccccc21)C(C)(C)C

> <Shape>
0.272

> <Color>
0.078

> <Negative vol penalty>
0.000

$$$$

  -OEChem-04052319333D

 83 91  0     1  0  0  0  0  0999 V2000
  -32.0486  -25.7393   14.8858 C   0  0  0  0  0  0  0  0  0  0  0  0
  -30.9573  -24.8771   14.8556 C   0  0  0  0  0  0  0  0  0  0  0  0
  -27.9937  -17.0224   21.3464 C   0  0  0  0  0  0  0  0  0  0  0  0
  -27.1101  -17.3020   19.1152 C   0  0  0  0  0  0  0  0  0  0  0  0
  -32.4505  -26.3113   16.0921 C   0  0  0  0  0  0  0  0  0  0  0  0
  -30.2678  -24.5854   16.0321 C   0  0  0  0  0  0  0  0  0  0  0  0
  -23.6838  -23.0744   18.4162 C   0  0  0  0  0  0  0  0  0  0  0  0
  -28.5801  -18.2858   21.2725 C   0  0  0  0  0  0  0  0  0  0  0  0
  -27.6965  -18.5655   19.0413 C   0  0  0  0  0  0  0  0  0  0  0  0
  -23.0068  -22.1261   19.1819 C   0  0  0  0  0  0  0  0  0  0  0  0
  -27.6017  -21.5079   21.5787 C   0  0  0  0  0  0  0  0  0  0  0  0
  -27.4666  -22.3507   22.6819 C   0  0  0  0  0  0  0  0  0  0  0  0
  -23.7425  -23.2347   21.1942 C   0  0  0  0  0  0  0  0  0  0  0  0
  -20.1402  -16.9789   23.7351 C   0  0  0  0  0  0  0  0  0  0  0  0
  -29.8700  -22.4311   22.9147 C   0  0  0  0  0  0  0  0  0  0  0  0
  -21.5086  -18.3065   25.1569 C   0  0  0  0  0  0  0  0  0  0  0  0
  -27.2587  -16.5304   20.2677 C   0  0  0  0  0  0  0  0  0  0  0  0
  -27.3081  -13.9941   20.5364 C   0  0  0  0  0  0  0  0  0  0  0  0
  -31.7597  -26.0341   17.2823 C   0  0  0  0  0  0  0  0  0  0  0  0
  -24.4055  -24.1053   19.0349 C   0  0  0  0  0  0  0  0  0  0  0  0
  -30.6617  -25.1532   17.2557 C   0  0  0  0  0  0  0  0  0  0  0  0
  -24.4256  -24.1962   20.4340 C   0  0  0  0  0  0  0  0  0  0  0  0
  -20.8809  -18.1388   23.9331 C   0  0  0  0  0  0  0  0  0  0  0  0
  -20.0510  -16.0354   24.7527 C   0  0  0  0  0  0  0  0  0  0  0  0
  -28.4315  -19.0574   20.1200 C   0  0  0  0  0  0  0  0  0  0  0  0
  -23.0385  -22.2045   20.5711 C   0  0  0  0  0  0  0  0  0  0  0  0
  -28.8709  -21.1266   21.1436 C   0  0  0  0  0  0  0  0  0  0  0  0
  -28.6007  -22.8123   23.3499 C   0  0  0  0  0  0  0  0  0  0  0  0
  -30.0051  -21.5882   21.8116 C   0  0  0  0  0  0  0  0  0  0  0  0
  -26.6532  -15.2252   20.3431 C   0  0  0  0  0  0  0  0  0  0  0  0
  -20.7160  -16.2972   25.9397 C   0  0  0  0  0  0  0  0  0  0  0  0
  -26.2980  -13.0635   20.5327 C   0  0  0  0  0  0  0  0  0  0  0  0
  -28.7048  -13.7166   20.7042 C   0  0  0  0  0  0  0  0  0  0  0  0
  -27.4595  -24.9847   19.0916 C   0  0  0  0  0  0  0  0  0  0  0  0
  -26.2953  -27.5178   20.7499 C   0  0  0  0  0  0  0  0  0  0  0  0
  -23.8233  -28.8003   22.7226 C   0  0  0  0  0  0  0  0  0  0  0  0
  -20.4516  -13.3868   21.7842 C   0  0  0  0  0  0  0  0  0  0  0  0
  -32.2604  -26.6390   18.5700 C   0  0  0  0  0  0  0  0  0  0  0  0
  -25.1083  -25.1359   18.1944 C   0  0  0  0  0  0  0  0  0  0  0  0
  -25.1690  -25.2953   21.1467 C   0  0  0  0  0  0  0  0  0  0  0  0
  -31.2462  -26.5725   19.7090 C   0  0  0  0  0  0  0  0  0  0  0  0
  -21.9314  -12.2839   18.7395 C   0  0  0  0  0  0  0  0  0  0  0  0
  -30.6297  -25.1799   19.7942 C   0  0  0  0  0  0  0  0  0  0  0  0
  -23.3684  -12.8016   18.8226 C   0  0  0  0  0  0  0  0  0  0  0  0
  -20.9406  -13.2672   19.3587 C   0  0  0  0  0  0  0  0  0  0  0  0
  -22.6926  -14.1939   20.8235 C   0  0  0  0  0  0  0  0  0  0  0  0
  -29.8731  -24.8318   18.5067 C   0  0  1  0  0  0  0  0  0  0  0  0
  -26.2368  -25.8443   18.9374 C   0  0  1  0  0  0  0  0  0  0  0  0
  -23.7344  -13.2113   20.2619 C   0  0  2  0  0  0  0  0  0  0  0  0
  -20.6562  -15.3192   27.0673 C   0  0  0  0  0  0  0  0  0  0  0  0
  -23.1685  -30.8867   23.9537 C   0  0  0  0  0  0  0  0  0  0  0  0
  -28.3349  -26.8715   22.9253 C   0  0  0  0  0  0  0  0  0  0  0  0
  -27.0313  -28.3335   24.4846 C   0  0  0  0  0  0  0  0  0  0  0  0
  -28.0682  -29.3096   22.4365 C   0  0  0  0  0  0  0  0  0  0  0  0
  -21.3521  -29.1075   21.1233 C   0  0  0  0  0  0  0  0  0  0  0  0
  -20.9984  -19.1810   22.8498 C   0  0  0  0  0  0  0  0  0  0  0  0
  -19.2575  -14.7914   24.5478 C   0  0  0  0  0  0  0  0  0  0  0  0
  -22.1866  -18.9623   21.9108 C   0  0  0  0  0  0  0  0  0  0  0  0
  -20.1152  -13.5580   24.2371 C   0  0  0  0  0  0  0  0  0  0  0  0
  -22.2476  -19.9704   20.7692 C   0  0  0  0  0  0  0  0  0  1  0  0
  -26.0414  -27.8157   22.2080 C   0  0  1  0  0  0  0  0  0  0  0  0
  -23.0550  -30.1077   22.6525 C   0  0  2  0  0  0  0  0  0  0  0  0
  -27.3564  -28.0606   23.0005 C   0  0  0  0  0  0  0  0  0  0  0  0
  -21.4450  -17.4124   26.1689 N   0  0  0  0  0  0  0  0  0  0  0  0
  -25.3294  -15.0920   20.2251 N   0  0  0  0  0  0  0  0  0  0  0  0
  -25.1444  -13.7663   20.3445 N   0  0  0  0  0  0  0  0  0  0  0  0
  -25.8457  -26.2753   20.2811 N   0  0  0  0  0  0  0  0  0  0  0  0
  -21.3442  -13.6138   20.7236 N   0  0  0  0  0  0  0  0  0  0  0  0
  -26.2929  -11.7207   20.6721 N   0  0  0  0  0  0  0  0  0  0  0  0
  -29.4769  -13.4605   19.5630 N   0  0  0  0  0  0  0  0  0  0  0  0
  -28.5879  -25.4968   18.4801 N   0  0  0  0  0  0  0  0  0  0  0  0
  -25.1075  -28.9360   22.2392 N   0  0  0  0  0  0  0  0  0  0  0  0
  -20.9154  -13.7375   23.0462 N   0  0  0  0  0  0  0  0  0  0  0  0
  -21.6122  -29.8470   22.3852 N   0  3  0  0  0  0  0  0  0  0  0  0
  -29.2483  -13.6802   21.8341 O   0  0  0  0  0  0  0  0  0  0  0  0
  -27.3850  -23.9353   19.7200 O   0  0  0  0  0  0  0  0  0  0  0  0
  -26.8649  -28.3597   20.0510 O   0  0  0  0  0  0  0  0  0  0  0  0
  -23.3344  -27.7633   23.1656 O   0  0  0  0  0  0  0  0  0  0  0  0
  -19.3269  -12.9023   21.6194 O   0  0  0  0  0  0  0  0  0  0  0  0
  -29.0034  -20.2904   20.0477 O   0  0  0  0  0  0  0  0  0  0  0  0
  -22.3791  -21.2798   21.3209 O   0  0  0  0  0  0  0  0  0  1  0  0
  -28.4709  -23.6229   24.4083 F   0  0  0  0  0  0  0  0  0  0  0  0
  -31.2271  -21.2263   21.3974 F   0  0  0  0  0  0  0  0  0  0  0  0
  1  2  1  0  0  0  0
  1  5  2  0  0  0  0
  2  6  2  0  0  0  0
  3  8  2  0  0  0  0
  3 17  1  0  0  0  0
  4  9  1  0  0  0  0
  4 17  2  0  0  0  0
  5 19  1  0  0  0  0
  6 21  1  0  0  0  0
  7 10  2  0  0  0  0
  7 20  1  0  0  0  0
  8 25  1  0  0  0  0
  9 25  2  0  0  0  0
 10 26  1  0  0  0  0
 11 12  2  0  0  0  0
 11 27  1  0  0  0  0
 12 28  1  0  0  0  0
 13 22  1  0  0  0  0
 13 26  2  0  0  0  0
 14 23  2  0  0  0  0
 14 24  1  0  0  0  0
 15 28  2  0  0  0  0
 15 29  1  0  0  0  0
 16 23  1  0  0  0  0
 16 64  2  0  0  0  0
 17 30  1  0  0  0  0
 18 30  1  0  0  0  0
 18 32  2  0  0  0  0
 18 33  1  0  0  0  0
 19 21  2  0  0  0  0
 19 38  1  0  0  0  0
 20 22  2  0  0  0  0
 20 39  1  0  0  0  0
 21 47  1  0  0  0  0
 22 40  1  0  0  0  0
 23 56  1  0  0  0  0
 24 31  2  0  0  0  0
 24 57  1  0  0  0  0
 25 80  1  0  0  0  0
 26 81  1  0  0  0  0
 27 29  2  0  0  0  0
 27 80  1  0  0  0  0
 28 82  1  0  0  0  0
 29 83  1  0  0  0  0
 30 65  2  0  0  0  0
 31 50  1  0  0  0  0
 31 64  1  0  0  0  0
 32 66  1  0  0  0  0
 32 69  1  0  0  0  0
 33 70  1  0  0  0  0
 33 75  2  0  0  0  0
 34 48  1  0  0  0  0
 34 71  1  0  0  0  0
 34 76  2  0  0  0  0
 35 61  1  0  0  0  0
 35 67  1  0  0  0  0
 35 77  2  0  0  0  0
 36 62  1  0  0  0  0
 36 72  1  0  0  0  0
 36 78  2  0  0  0  0
 37 68  1  0  0  0  0
 37 73  1  0  0  0  0
 37 79  2  0  0  0  0
 38 41  1  0  0  0  0
 39 48  1  0  0  0  0
 40 67  1  0  0  0  0
 41 43  1  0  0  0  0
 42 44  1  0  0  0  0
 42 45  1  0  0  0  0
 43 47  1  0  0  0  0
 44 49  1  0  0  0  0
 45 68  1  0  0  0  0
 46 49  1  0  0  0  0
 46 68  1  0  0  0  0
 47 71  1  0  0  0  0
 48 67  1  0  0  0  0
 49 66  1  0  0  0  0
 51 62  1  0  0  0  0
 52 63  1  0  0  0  0
 53 63  1  0  0  0  0
 54 63  1  0  0  0  0
 55 74  1  0  0  0  0
 56 58  1  0  0  0  0
 57 59  1  0  0  0  0
 58 60  1  0  0  0  0
 59 73  1  0  0  0  0
 60 81  1  0  0  0  0
 61 63  1  0  0  0  0
 61 72  1  0  0  0  0
 62 74  1  0  0  0  0
 65 66  1  0  0  0  0
M  CHG  1  74   1
M  ISO  4  37 100  60 101  73 100  81 101
M  END
> <Batch ID>
0100

> <Smiles>
CNC(C)C(=O)NC(C(=O)N1Cc2cc([101O:1][101CH2:1]CCc3cnc(C)c(CC[100NH:0][100C:0](=O)N4CCCC(n5nc(-c6ccc(Oc7ccc(F)cc7F)cc6)c(C(N)=O)c5N)C4)c3)ccc2CC1C(=O)NC1CCCc2ccccc21)C(C)(C)C

> <Shape>
0.199

> <Color>
0.075

> <Negative vol penalty>
0.000

$$$$

  -OEChem-04052319333D

 87 95  0     1  0  0  0  0  0999 V2000
  -17.4238  -30.6122   24.3787 C   0  0  0  0  0  0  0  0  0  0  0  0
  -18.8008  -30.7874   24.4718 C   0  0  0  0  0  0  0  0  0  0  0  0
  -24.0479  -13.4052   22.8696 C   0  0  0  0  0  0  0  0  0  0  0  0
  -25.1194  -14.2717   20.8851 C   0  0  0  0  0  0  0  0  0  0  0  0
  -16.9065  -29.5264   23.6735 C   0  0  0  0  0  0  0  0  0  0  0  0
  -19.6613  -29.8760   23.8608 C   0  0  0  0  0  0  0  0  0  0  0  0
  -26.0372  -29.5317   20.6133 C   0  0  0  0  0  0  0  0  0  0  0  0
  -23.4946  -12.3685   22.1182 C   0  0  0  0  0  0  0  0  0  0  0  0
  -24.5660  -13.2349   20.1337 C   0  0  0  0  0  0  0  0  0  0  0  0
  -27.2371  -28.8239   20.6682 C   0  0  0  0  0  0  0  0  0  0  0  0
  -24.5072   -9.4115   20.8283 C   0  0  0  0  0  0  0  0  0  0  0  0
  -24.5665   -8.1229   21.3591 C   0  0  0  0  0  0  0  0  0  0  0  0
  -26.2292  -27.0297   19.4096 C   0  0  0  0  0  0  0  0  0  0  0  0
  -22.1541   -7.9966   21.3220 C   0  0  0  0  0  0  0  0  0  0  0  0
  -24.8603  -14.3568   22.2530 C   0  0  0  0  0  0  0  0  0  0  0  0
  -26.6708  -15.4270   23.6968 C   0  0  0  0  0  0  0  0  0  0  0  0
  -17.7610  -28.6066   23.0454 C   0  0  0  0  0  0  0  0  0  0  0  0
  -24.9192  -28.9882   19.9644 C   0  0  0  0  0  0  0  0  0  0  0  0
  -19.1550  -28.7761   23.1477 C   0  0  0  0  0  0  0  0  0  0  0  0
  -25.0170  -27.7337   19.3456 C   0  0  0  0  0  0  0  0  0  0  0  0
  -30.6557  -20.7681   19.4421 C   0  0  0  0  0  0  0  0  0  0  0  0
  -30.9457  -22.1464   19.2894 C   0  0  0  0  0  0  0  0  0  0  0  0
  -23.7536  -12.2833   20.7503 C   0  0  0  0  0  0  0  0  0  0  0  0
  -27.3324  -27.5714   20.0688 C   0  0  0  0  0  0  0  0  0  0  0  0
  -23.2713   -9.9926   20.5444 C   0  0  0  0  0  0  0  0  0  0  0  0
  -23.3900   -7.4155   21.6059 C   0  0  0  0  0  0  0  0  0  0  0  0
  -22.0948   -9.2851   20.7913 C   0  0  0  0  0  0  0  0  0  0  0  0
  -25.4317  -15.4283   23.0286 C   0  0  0  0  0  0  0  0  0  0  0  0
  -29.4743  -20.6716   20.1438 C   0  0  0  0  0  0  0  0  0  0  0  0
  -29.9328  -22.8503   19.9025 C   0  0  0  0  0  0  0  0  0  0  0  0
  -26.7479  -16.6684   24.2794 C   0  0  0  0  0  0  0  0  0  0  0  0
  -27.6633  -14.3960   23.7830 C   0  0  0  0  0  0  0  0  0  0  0  0
  -21.9937  -28.1371   20.8703 C   0  0  0  0  0  0  0  0  0  0  0  0
  -21.5700  -27.6584   17.6901 C   0  0  0  0  0  0  0  0  0  0  0  0
  -22.9707  -27.0164   14.6450 C   0  0  0  0  0  0  0  0  0  0  0  0
  -24.2393  -21.9469   22.9773 C   0  0  0  0  0  0  0  0  0  0  0  0
  -17.1560  -27.4222   22.3342 C   0  0  0  0  0  0  0  0  0  0  0  0
  -23.6400  -29.7761   19.8909 C   0  0  0  0  0  0  0  0  0  0  0  0
  -23.8519  -27.1149   18.6190 C   0  0  0  0  0  0  0  0  0  0  0  0
  -18.1303  -26.7102   21.3994 C   0  0  0  0  0  0  0  0  0  0  0  0
  -23.9870  -20.1549   26.0436 C   0  0  0  0  0  0  0  0  0  0  0  0
  -19.4704  -26.4881   22.0934 C   0  0  0  0  0  0  0  0  0  0  0  0
  -24.4404  -18.7403   25.6789 C   0  0  0  0  0  0  0  0  0  0  0  0
  -23.1946  -20.8033   24.9105 C   0  0  0  0  0  0  0  0  0  0  0  0
  -24.3291  -19.3933   23.2376 C   0  0  0  0  0  0  0  0  0  0  0  0
  -20.1205  -27.8228   22.4776 C   0  0  1  0  0  0  0  0  0  0  0  0
  -22.4133  -28.9025   19.6473 C   0  0  1  0  0  0  0  0  0  0  0  0
  -25.1799  -18.7194   24.3276 C   0  0  2  0  0  0  0  0  0  0  0  0
  -31.4679  -19.6402   18.9411 C   0  0  0  0  0  0  0  0  0  0  0  0
  -32.1191  -22.7250   18.6028 C   0  0  0  0  0  0  0  0  0  0  0  0
  -28.7178  -19.4771   20.5759 C   0  0  0  0  0  0  0  0  0  0  0  0
  -22.3666  -26.6429   12.2382 C   0  0  0  0  0  0  0  0  0  0  0  0
  -24.2230  -23.2769   20.0129 C   0  0  0  0  0  0  0  0  0  0  0  0
  -30.4867  -27.2139   18.8143 C   0  0  0  0  0  0  0  0  0  0  0  0
  -20.6234  -24.8380   18.3680 C   0  0  0  0  0  0  0  0  0  0  0  0
  -20.9476  -24.2260   15.9620 C   0  0  0  0  0  0  0  0  0  0  0  0
  -19.2933  -25.9852   16.5877 C   0  0  0  0  0  0  0  0  0  0  0  0
  -24.5317  -29.3725   13.7670 C   0  0  0  0  0  0  0  0  0  0  0  0
  -29.7318  -24.3377   20.0466 C   0  0  0  0  0  0  0  0  0  0  0  0
  -29.2404  -25.0233   18.7634 C   0  0  0  0  0  0  0  0  0  0  0  0
  -26.6630  -22.6916   20.2443 C   0  0  0  0  0  0  0  0  0  0  0  0
  -27.8370  -22.2784   21.1446 C   0  0  0  0  0  0  0  0  0  0  0  0
  -21.7645  -26.4941   16.7490 C   0  0  1  0  0  0  0  0  0  0  0  0
  -22.7717  -27.6663   13.2876 C   0  0  2  0  0  0  0  0  0  0  0  0
  -25.3448  -22.9476   20.9935 C   0  0  2  0  0  0  0  0  0  0  0  0
  -29.1180  -26.5479   18.8773 C   0  0  1  0  0  0  0  0  0  1  0  0
  -20.6788  -25.3964   16.9319 C   0  0  0  0  0  0  0  0  0  0  0  0
  -24.7693  -16.5792   23.1728 N   0  0  0  0  0  0  0  0  0  0  0  0
  -29.0441  -21.9435   20.4186 N   0  0  0  0  0  0  0  0  0  0  0  0
  -25.5951  -17.3126   23.9384 N   0  0  0  0  0  0  0  0  0  0  0  0
  -22.6210  -27.9215   18.5801 N   0  0  0  0  0  0  0  0  0  0  0  0
  -23.9520  -20.7521   23.6577 N   0  0  0  0  0  0  0  0  0  0  0  0
  -27.6887  -17.2609   25.0452 N   0  0  0  0  0  0  0  0  0  0  0  0
  -27.4244  -13.1819   23.1248 N   0  0  0  0  0  0  0  0  0  0  0  0
  -20.7227  -28.4440   21.3175 N   0  0  0  0  0  0  0  0  0  0  0  0
  -21.8214  -27.0603   15.4056 N   0  0  0  0  0  0  0  0  0  0  0  0
  -24.9668  -21.8096   21.8015 N   0  0  0  0  0  0  0  0  0  0  0  0
  -24.0308  -28.3258   12.8395 N   0  3  0  0  0  0  0  0  0  0  0  0
  -28.7230  -14.5408   24.4383 O   0  0  0  0  0  0  0  0  0  0  0  0
  -22.7652  -27.3269   21.3704 O   0  0  0  0  0  0  0  0  0  0  0  0
  -20.5271  -28.3147   17.6327 O   0  0  0  0  0  0  0  0  0  0  0  0
  -24.0377  -26.5164   14.9941 O   0  0  0  0  0  0  0  0  0  0  0  0
  -23.8790  -23.0545   23.3902 O   0  0  0  0  0  0  0  0  0  0  0  0
  -23.2141  -11.2717   20.0168 O   0  0  0  0  0  0  0  0  0  0  0  0
  -28.5021  -26.8781   20.1215 O   0  0  0  0  0  0  0  0  0  1  0  0
  -23.4472   -6.1775   22.1142 F   0  0  0  0  0  0  0  0  0  0  0  0
  -20.9046   -9.8377   20.5194 F   0  0  0  0  0  0  0  0  0  0  0  0
  1  2  1  0  0  0  0
  1  5  2  0  0  0  0
  2  6  2  0  0  0  0
  3  8  2  0  0  0  0
  3 15  1  0  0  0  0
  4  9  1  0  0  0  0
  4 15  2  0  0  0  0
  5 17  1  0  0  0  0
  6 19  1  0  0  0  0
  7 10  2  0  0  0  0
  7 18  1  0  0  0  0
  8 23  1  0  0  0  0
  9 23  2  0  0  0  0
 10 24  1  0  0  0  0
 11 12  2  0  0  0  0
 11 25  1  0  0  0  0
 12 26  1  0  0  0  0
 13 20  1  0  0  0  0
 13 24  2  0  0  0  0
 14 26  2  0  0  0  0
 14 27  1  0  0  0  0
 15 28  1  0  0  0  0
 16 28  1  0  0  0  0
 16 31  2  0  0  0  0
 16 32  1  0  0  0  0
 17 19  2  0  0  0  0
 17 37  1  0  0  0  0
 18 20  2  0  0  0  0
 18 38  1  0  0  0  0
 19 46  1  0  0  0  0
 20 39  1  0  0  0  0
 21 22  1  0  0  0  0
 21 29  2  0  0  0  0
 21 49  1  0  0  0  0
 22 30  2  0  0  0  0
 22 50  1  0  0  0  0
 23 84  1  0  0  0  0
 24 85  1  0  0  0  0
 25 27  2  0  0  0  0
 25 84  1  0  0  0  0
 26 86  1  0  0  0  0
 27 87  1  0  0  0  0
 28 68  2  0  0  0  0
 29 51  1  0  0  0  0
 29 69  1  0  0  0  0
 30 59  1  0  0  0  0
 30 69  1  0  0  0  0
 31 70  1  0  0  0  0
 31 73  1  0  0  0  0
 32 74  1  0  0  0  0
 32 79  2  0  0  0  0
 33 47  1  0  0  0  0
 33 75  1  0  0  0  0
 33 80  2  0  0  0  0
 34 63  1  0  0  0  0
 34 71  1  0  0  0  0
 34 81  2  0  0  0  0
 35 64  1  0  0  0  0
 35 76  1  0  0  0  0
 35 82  2  0  0  0  0
 36 72  1  0  0  0  0
 36 77  1  0  0  0  0
 36 83  2  0  0  0  0
 37 40  1  0  0  0  0
 38 47  1  0  0  0  0
 39 71  1  0  0  0  0
 40 42  1  0  0  0  0
 41 43  1  0  0  0  0
 41 44  1  0  0  0  0
 42 46  1  0  0  0  0
 43 48  1  0  0  0  0
 44 72  1  0  0  0  0
 45 48  1  0  0  0  0
 45 72  1  0  0  0  0
 46 75  1  0  0  0  0
 47 71  1  0  0  0  0
 48 70  1  0  0  0  0
 52 64  1  0  0  0  0
 53 65  1  0  0  0  0
 54 66  1  0  0  0  0
 55 67  1  0  0  0  0
 56 67  1  0  0  0  0
 57 67  1  0  0  0  0
 58 78  1  0  0  0  0
 59 60  1  0  0  0  0
 60 66  1  0  0  0  0
 61 62  1  0  0  0  0
 61 65  1  0  0  0  0
 62 69  1  0  0  0  0
 63 67  1  0  0  0  0
 63 76  1  0  0  0  0
 64 78  1  0  0  0  0
 65 77  1  0  0  0  0
 66 85  1  0  0  0  0
 68 70  1  0  0  0  0
M  CHG  1  78   1
M  ISO  4  36 100  66 101  77 100  85 101
M  END
> <Batch ID>
0100

> <Smiles>
CNC(C)C(=O)NC(C(=O)N1Cc2cc([101O:1][101CH:1](C)CCc3c(C)c(C)c(C)n3CCC(C)[100NH:0][100C:0](=O)N3CCCC(n4nc(-c5ccc(Oc6ccc(F)cc6F)cc5)c(C(N)=O)c4N)C3)ccc2CC1C(=O)NC1CCCc2ccccc21)C(C)(C)C

> <Shape>
0.245

> <Color>
0.083

> <Negative vol penalty>
0.000

$$$$

  -OEChem-04052319333D

 88 96  0     1  0  0  0  0  0999 V2000
  -31.0223  -23.9019   18.5876 C   0  0  0  0  0  0  0  0  0  0  0  0
  -29.7521  -23.5469   19.0274 C   0  0  0  0  0  0  0  0  0  0  0  0
  -27.9369  -15.4175   19.0288 C   0  0  0  0  0  0  0  0  0  0  0  0
  -28.0783  -15.6417   21.4302 C   0  0  0  0  0  0  0  0  0  0  0  0
  -31.5289  -25.1663   18.8803 C   0  0  0  0  0  0  0  0  0  0  0  0
  -28.9834  -24.4603   19.7496 C   0  0  0  0  0  0  0  0  0  0  0  0
  -24.3384  -23.1797   20.7433 C   0  0  0  0  0  0  0  0  0  0  0  0
  -29.0367  -16.2633   18.8851 C   0  0  0  0  0  0  0  0  0  0  0  0
  -29.1782  -16.4875   21.2865 C   0  0  0  0  0  0  0  0  0  0  0  0
  -24.0106  -22.1971   21.6765 C   0  0  0  0  0  0  0  0  0  0  0  0
  -31.7997  -18.9921   21.5398 C   0  0  0  0  0  0  0  0  0  0  0  0
  -31.8283  -20.1550   22.3095 C   0  0  0  0  0  0  0  0  0  0  0  0
  -23.3815  -23.9119   23.2522 C   0  0  0  0  0  0  0  0  0  0  0  0
  -23.7737  -19.1979   25.6954 C   0  0  0  0  0  0  0  0  0  0  0  0
  -21.7453  -18.6685   24.4945 C   0  0  0  0  0  0  0  0  0  0  0  0
  -29.7735  -20.8912   21.2736 C   0  0  0  0  0  0  0  0  0  0  0  0
  -27.4577  -15.1067   20.3014 C   0  0  0  0  0  0  0  0  0  0  0  0
  -26.3375  -12.8319   20.5807 C   0  0  0  0  0  0  0  0  0  0  0  0
  -30.7704  -26.0907   19.6172 C   0  0  0  0  0  0  0  0  0  0  0  0
  -24.2002  -24.5383   21.0620 C   0  0  0  0  0  0  0  0  0  0  0  0
  -29.4676  -25.7499   20.0345 C   0  0  0  0  0  0  0  0  0  0  0  0
  -23.7058  -24.9098   22.3204 C   0  0  0  0  0  0  0  0  0  0  0  0
  -22.9598  -19.3500   24.5729 C   0  0  0  0  0  0  0  0  0  0  0  0
  -23.3732  -18.3641   26.7395 C   0  0  0  0  0  0  0  0  0  0  0  0
  -21.3447  -17.8347   25.5386 C   0  0  0  0  0  0  0  0  0  0  0  0
  -22.1587  -17.6825   26.6611 C   0  0  0  0  0  0  0  0  0  0  0  0
  -29.6573  -16.7983   20.0139 C   0  0  0  0  0  0  0  0  0  0  0  0
  -23.5348  -22.5632   22.9322 C   0  0  0  0  0  0  0  0  0  0  0  0
  -30.7581  -18.7788   20.6369 C   0  0  0  0  0  0  0  0  0  0  0  0
  -30.8152  -21.1045   22.1765 C   0  0  0  0  0  0  0  0  0  0  0  0
  -29.7450  -19.7283   20.5038 C   0  0  0  0  0  0  0  0  0  0  0  0
  -26.3213  -14.2336   20.4506 C   0  0  0  0  0  0  0  0  0  0  0  0
  -25.0140  -12.4821   20.6921 C   0  0  0  0  0  0  0  0  0  0  0  0
  -27.4495  -11.9270   20.5992 C   0  0  0  0  0  0  0  0  0  0  0  0
  -26.1953  -27.0020   21.2941 C   0  0  0  0  0  0  0  0  0  0  0  0
  -23.4537  -28.6802   21.7296 C   0  0  0  0  0  0  0  0  0  0  0  0
  -20.1784  -28.6808   22.6886 C   0  0  0  0  0  0  0  0  0  0  0  0
  -20.1576  -15.4428   22.5631 C   0  0  0  0  0  0  0  0  0  0  0  0
  -31.3645  -27.4482   19.8990 C   0  0  0  0  0  0  0  0  0  0  0  0
  -24.5328  -25.5856   20.0348 C   0  0  0  0  0  0  0  0  0  0  0  0
  -23.5200  -26.3542   22.7047 C   0  0  0  0  0  0  0  0  0  0  0  0
  -30.6633  -28.1789   21.0394 C   0  0  0  0  0  0  0  0  0  0  0  0
  -20.6398  -13.9130   19.3845 C   0  0  0  0  0  0  0  0  0  0  0  0
  -29.1574  -28.1546   20.8242 C   0  0  0  0  0  0  0  0  0  0  0  0
  -22.1520  -13.6953   19.3090 C   0  0  0  0  0  0  0  0  0  0  0  0
  -20.2924  -15.2166   20.1000 C   0  0  0  0  0  0  0  0  0  0  0  0
  -22.4087  -15.1516   21.3613 C   0  0  0  0  0  0  0  0  0  0  0  0
  -28.6255  -26.7161   20.8479 C   0  0  1  0  0  0  0  0  0  0  0  0
  -24.8396  -26.9482   20.6484 C   0  0  1  0  0  0  0  0  0  0  0  0
  -22.8068  -13.8222   20.6977 C   0  0  2  0  0  0  0  0  0  0  0  0
  -21.5356  -17.5570   29.1003 C   0  0  0  0  0  0  0  0  0  0  0  0
  -22.6978  -15.6124   27.9944 C   0  0  0  0  0  0  0  0  0  0  0  0
  -18.2092  -30.2101   22.9722 C   0  0  0  0  0  0  0  0  0  0  0  0
  -24.6862  -29.7882   24.2914 C   0  0  0  0  0  0  0  0  0  0  0  0
  -22.3968  -30.5176   24.9948 C   0  0  0  0  0  0  0  0  0  0  0  0
  -23.4263  -31.4653   22.9297 C   0  0  0  0  0  0  0  0  0  0  0  0
  -25.8626  -18.3665   32.0458 C   0  0  0  0  0  0  0  0  0  0  0  0
  -18.5761  -27.1745   20.7080 C   0  0  0  0  0  0  0  0  0  0  0  0
  -24.2626  -18.2192   27.9310 C   0  0  0  0  0  0  0  0  0  0  0  0
  -20.0395  -17.1161   25.4303 C   0  0  0  0  0  0  0  0  0  0  0  0
  -23.3910  -20.2464   23.4496 C   0  0  0  0  0  0  0  0  0  1  0  0
  -24.6329  -19.5497   28.6126 C   0  0  0  0  0  0  0  0  0  0  0  0
  -20.1836  -15.6421   25.0368 C   0  0  0  0  0  0  0  0  0  0  0  0
  -25.5795  -19.4284   29.8028 C   0  0  0  0  0  0  0  0  0  0  0  0
  -21.7293  -16.7890   27.7809 C   0  0  0  0  0  0  0  0  0  0  0  0
  -22.6171  -29.0701   22.9242 C   0  0  1  0  0  0  0  0  0  0  0  0
  -18.9373  -29.2601   22.0341 C   0  0  2  0  0  0  0  0  0  0  0  0
  -23.2868  -30.1831   23.7787 C   0  0  0  0  0  0  0  0  0  0  0  0
  -25.0854  -14.7396   20.4766 N   0  0  0  0  0  0  0  0  0  0  0  0
  -24.3128  -13.6499   20.6243 N   0  0  0  0  0  0  0  0  0  0  0  0
  -23.8650  -27.3412   21.6682 N   0  0  0  0  0  0  0  0  0  0  0  0
  -20.9432  -15.2735   21.4111 N   0  0  0  0  0  0  0  0  0  0  0  0
  -24.3932  -11.2925   20.8405 N   0  0  0  0  0  0  0  0  0  0  0  0
  -28.7420  -12.4542   20.4731 N   0  0  0  0  0  0  0  0  0  0  0  0
  -27.2395  -26.7184   20.4347 N   0  0  0  0  0  0  0  0  0  0  0  0
  -21.3022  -29.4269   22.4028 N   0  0  0  0  0  0  0  0  0  0  0  0
  -20.8531  -15.4798   23.7655 N   0  0  0  0  0  0  0  0  0  0  0  0
  -25.0057  -18.5399   30.8402 N   0  3  0  0  0  0  0  0  0  0  0  0
  -17.9982  -28.1693   21.6479 N   0  3  0  0  0  0  0  0  0  0  0  0
  -27.3004  -10.6862   20.7074 O   0  0  0  0  0  0  0  0  0  0  0  0
  -26.2872  -27.2817   22.4837 O   0  0  0  0  0  0  0  0  0  0  0  0
  -23.7259  -29.5305   20.8784 O   0  0  0  0  0  0  0  0  0  0  0  0
  -20.1529  -27.6696   23.3868 O   0  0  0  0  0  0  0  0  0  0  0  0
  -18.9270  -15.5476   22.5236 O   0  0  0  0  0  0  0  0  0  0  0  0
  -30.7307  -17.6234   19.8740 O   0  0  0  0  0  0  0  0  0  0  0  0
  -23.2148  -21.6061   23.8451 O   0  0  0  0  0  0  0  0  0  1  0  0
  -30.8420  -22.2205   22.9168 F   0  0  0  0  0  0  0  0  0  0  0  0
  -28.7411  -19.5284   19.6390 F   0  0  0  0  0  0  0  0  0  0  0  0
  1  2  1  0  0  0  0
  1  5  2  0  0  0  0
  2  6  2  0  0  0  0
  3  8  2  0  0  0  0
  3 17  1  0  0  0  0
  4  9  1  0  0  0  0
  4 17  2  0  0  0  0
  5 19  1  0  0  0  0
  6 21  1  0  0  0  0
  7 10  2  0  0  0  0
  7 20  1  0  0  0  0
  8 27  1  0  0  0  0
  9 27  2  0  0  0  0
 10 28  1  0  0  0  0
 11 12  2  0  0  0  0
 11 29  1  0  0  0  0
 12 30  1  0  0  0  0
 13 22  1  0  0  0  0
 13 28  2  0  0  0  0
 14 23  2  0  0  0  0
 14 24  1  0  0  0  0
 15 23  1  0  0  0  0
 15 25  2  0  0  0  0
 16 30  2  0  0  0  0
 16 31  1  0  0  0  0
 17 32  1  0  0  0  0
 18 32  1  0  0  0  0
 18 33  2  0  0  0  0
 18 34  1  0  0  0  0
 19 21  2  0  0  0  0
 19 39  1  0  0  0  0
 20 22  2  0  0  0  0
 20 40  1  0  0  0  0
 21 48  1  0  0  0  0
 22 41  1  0  0  0  0
 23 61  1  0  0  0  0
 24 26  2  0  0  0  0
 24 59  1  0  0  0  0
 25 26  1  0  0  0  0
 25 60  1  0  0  0  0
 26 65  1  0  0  0  0
 27 85  1  0  0  0  0
 28 86  1  0  0  0  0
 29 31  2  0  0  0  0
 29 85  1  0  0  0  0
 30 87  1  0  0  0  0
 31 88  1  0  0  0  0
 32 69  2  0  0  0  0
 33 70  1  0  0  0  0
 33 73  1  0  0  0  0
 34 74  1  0  0  0  0
 34 80  2  0  0  0  0
 35 49  1  0  0  0  0
 35 75  1  0  0  0  0
 35 81  2  0  0  0  0
 36 66  1  0  0  0  0
 36 71  1  0  0  0  0
 36 82  2  0  0  0  0
 37 67  1  0  0  0  0
 37 76  1  0  0  0  0
 37 83  2  0  0  0  0
 38 72  1  0  0  0  0
 38 77  1  0  0  0  0
 38 84  2  0  0  0  0
 39 42  1  0  0  0  0
 40 49  1  0  0  0  0
 41 71  1  0  0  0  0
 42 44  1  0  0  0  0
 43 45  1  0  0  0  0
 43 46  1  0  0  0  0
 44 48  1  0  0  0  0
 45 50  1  0  0  0  0
 46 72  1  0  0  0  0
 47 50  1  0  0  0  0
 47 72  1  0  0  0  0
 48 75  1  0  0  0  0
 49 71  1  0  0  0  0
 50 70  1  0  0  0  0
 51 65  1  0  0  0  0
 52 65  1  0  0  0  0
 53 67  1  0  0  0  0
 54 68  1  0  0  0  0
 55 68  1  0  0  0  0
 56 68  1  0  0  0  0
 57 78  1  0  0  0  0
 58 79  1  0  0  0  0
 59 62  1  0  0  0  0
 60 63  1  0  0  0  0
 61 86  1  0  0  0  0
 62 64  1  0  0  0  0
 63 77  1  0  0  0  0
 64 78  1  0  0  0  0
 66 68  1  0  0  0  0
 66 76  1  0  0  0  0
 67 79  1  0  0  0  0
 69 70  1  0  0  0  0
M  CHG  2  78   1  79   1
M  ISO  4  38 100  61 101  77 100  86 101
M  END
> <Batch ID>
0100

> <Smiles>
CNCCCc1cc([101CH2:1][101O:1]c2ccc3c(c2)CN(C(=O)C(NC(=O)C(C)NC)C(C)(C)C)C(C(=O)NC2CCCc4ccccc42)C3)cc(CC[100NH:0][100C:0](=O)N2CCCC(n3nc(-c4ccc(Oc5ccc(F)cc5F)cc4)c(C(N)=O)c3N)C2)c1C(C)C

> <Shape>
0.229

> <Color>
0.058

> <Negative vol penalty>
0.000

$$$$

  -OEChem-04052319333D

 88 96  0     1  0  0  0  0  0999 V2000
  -27.4071  -28.9388   19.2742 C   0  0  0  0  0  0  0  0  0  0  0  0
  -27.2982  -27.5552   19.1789 C   0  0  0  0  0  0  0  0  0  0  0  0
  -30.1873  -19.8001   19.7749 C   0  0  0  0  0  0  0  0  0  0  0  0
  -27.9268  -19.8575   20.6255 C   0  0  0  0  0  0  0  0  0  0  0  0
  -26.6059  -29.6396   20.1747 C   0  0  0  0  0  0  0  0  0  0  0  0
  -26.3887  -26.8713   19.9849 C   0  0  0  0  0  0  0  0  0  0  0  0
  -23.1919  -21.8637   18.4981 C   0  0  0  0  0  0  0  0  0  0  0  0
  -23.5080  -16.1931   22.3716 C   0  0  0  0  0  0  0  0  0  0  0  0
  -30.0066  -21.0622   19.2093 C   0  0  0  0  0  0  0  0  0  0  0  0
  -27.7460  -21.1197   20.0599 C   0  0  0  0  0  0  0  0  0  0  0  0
  -23.3922  -20.5098   18.7639 C   0  0  0  0  0  0  0  0  0  0  0  0
  -30.0005  -24.2799   20.2484 C   0  0  0  0  0  0  0  0  0  0  0  0
  -31.0194  -25.2175   20.4166 C   0  0  0  0  0  0  0  0  0  0  0  0
  -23.8419  -14.8489   22.4942 C   0  0  0  0  0  0  0  0  0  0  0  0
  -21.9119  -20.6697   20.6620 C   0  0  0  0  0  0  0  0  0  0  0  0
  -31.2803  -25.3640   18.0192 C   0  0  0  0  0  0  0  0  0  0  0  0
  -29.1474  -19.1977   20.4830 C   0  0  0  0  0  0  0  0  0  0  0  0
  -29.8115  -17.6009   22.3583 C   0  0  0  0  0  0  0  0  0  0  0  0
  -25.6792  -28.9650   20.9852 C   0  0  0  0  0  0  0  0  0  0  0  0
  -22.3573  -22.6346   19.3201 C   0  0  0  0  0  0  0  0  0  0  0  0
  -25.5753  -27.5636   20.8980 C   0  0  0  0  0  0  0  0  0  0  0  0
  -21.7007  -22.0326   20.4029 C   0  0  0  0  0  0  0  0  0  0  0  0
  -22.6270  -16.5967   21.3744 C   0  0  0  0  0  0  0  0  0  0  0  0
  -28.7860  -21.7221   19.3518 C   0  0  0  0  0  0  0  0  0  0  0  0
  -22.7544  -19.9133   19.8477 C   0  0  0  0  0  0  0  0  0  0  0  0
  -29.6216  -23.8842   18.9656 C   0  0  0  0  0  0  0  0  0  0  0  0
  -31.6593  -25.7596   19.3020 C   0  0  0  0  0  0  0  0  0  0  0  0
  -30.2615  -24.4263   17.8510 C   0  0  0  0  0  0  0  0  0  0  0  0
  -29.3333  -17.8937   21.0670 C   0  0  0  0  0  0  0  0  0  0  0  0
  -23.2722  -13.9551   21.6018 C   0  0  0  0  0  0  0  0  0  0  0  0
  -22.1119  -15.6247   20.5320 C   0  0  0  0  0  0  0  0  0  0  0  0
  -29.8010  -16.2291   22.4254 C   0  0  0  0  0  0  0  0  0  0  0  0
  -30.2279  -18.4894   23.4036 C   0  0  0  0  0  0  0  0  0  0  0  0
  -22.7722  -25.1735   21.1870 C   0  0  0  0  0  0  0  0  0  0  0  0
  -19.5452  -25.0061   21.4708 C   0  0  0  0  0  0  0  0  0  0  0  0
  -16.7174  -23.1024   21.3082 C   0  0  0  0  0  0  0  0  0  0  0  0
  -26.6381  -12.0306   19.5584 C   0  0  0  0  0  0  0  0  0  0  0  0
  -24.8683  -29.7604   21.9774 C   0  0  0  0  0  0  0  0  0  0  0  0
  -22.1307  -24.0876   19.0041 C   0  0  0  0  0  0  0  0  0  0  0  0
  -20.7787  -22.8116   21.3038 C   0  0  0  0  0  0  0  0  0  0  0  0
  -23.6643  -29.0007   22.5283 C   0  0  0  0  0  0  0  0  0  0  0  0
  -30.1834  -12.3419   19.6623 C   0  0  0  0  0  0  0  0  0  0  0  0
  -24.0672  -27.5883   22.9403 C   0  0  0  0  0  0  0  0  0  0  0  0
  -30.4107  -13.7736   20.1506 C   0  0  0  0  0  0  0  0  0  0  0  0
  -28.9676  -12.2453   18.7434 C   0  0  0  0  0  0  0  0  0  0  0  0
  -27.9477  -14.2273   19.7949 C   0  0  0  0  0  0  0  0  0  0  0  0
  -24.5829  -26.7888   21.7377 C   0  0  1  0  0  0  0  0  0  0  0  0
  -21.6642  -24.8958   20.2109 C   0  0  1  0  0  0  0  0  0  0  0  0
  -29.1298  -14.3650   20.7695 C   0  0  2  0  0  0  0  0  0  0  0  0
  -19.7782  -15.3414   19.6224 C   0  0  0  0  0  0  0  0  0  0  0  0
  -21.7134  -15.6843   18.0437 C   0  0  0  0  0  0  0  0  0  0  0  0
  -14.2320  -23.2355   21.6286 C   0  0  0  0  0  0  0  0  0  0  0  0
  -19.3667  -11.2289   22.5433 C   0  0  0  0  0  0  0  0  0  0  0  0
  -19.8459  -11.5220   24.9817 C   0  0  0  0  0  0  0  0  0  0  0  0
  -19.9372  -24.9950   24.4968 C   0  0  0  0  0  0  0  0  0  0  0  0
  -17.5805  -24.1824   24.7291 C   0  0  0  0  0  0  0  0  0  0  0  0
  -18.0347  -26.4073   23.6964 C   0  0  0  0  0  0  0  0  0  0  0  0
  -16.1976  -22.3566   18.4917 C   0  0  0  0  0  0  0  0  0  0  0  0
  -22.2639  -18.0459   21.2363 C   0  0  0  0  0  0  0  0  0  1  0  0
  -22.3721  -11.6033   22.0070 C   0  0  0  0  0  0  0  0  0  0  0  0
  -21.6764  -11.9815   23.3230 C   0  0  0  0  0  0  0  0  0  0  0  0
  -24.3178  -11.9662   20.4364 C   0  0  0  0  0  0  0  0  0  0  0  0
  -23.6072  -12.5046   21.7057 C   0  0  1  0  0  0  0  0  0  0  0  0
  -21.1587  -15.9995   19.4449 C   0  0  0  0  0  0  0  0  0  0  0  0
  -18.5891  -24.3053   22.4056 C   0  0  1  0  0  0  0  0  0  0  0  0
  -15.3783  -23.3434   20.6350 C   0  0  2  0  0  0  0  0  0  0  0  0
  -20.4379  -11.1178   23.6292 C   0  0  0  0  0  0  0  0  0  0  0  0
  -18.5542  -24.9580   23.8163 C   0  0  0  0  0  0  0  0  0  0  0  0
  -29.0405  -16.7961   20.3644 N   0  0  0  0  0  0  0  0  0  0  0  0
  -22.4128  -14.3096   20.6204 N   0  0  0  0  0  0  0  0  0  0  0  0
  -29.3356  -15.8003   21.2172 N   0  0  0  0  0  0  0  0  0  0  0  0
  -20.5944  -24.2306   20.9574 N   0  0  0  0  0  0  0  0  0  0  0  0
  -27.7864  -12.8219   19.3902 N   0  0  0  0  0  0  0  0  0  0  0  0
  -30.1446  -15.3598   23.3995 N   0  0  0  0  0  0  0  0  0  0  0  0
  -30.1750  -19.8700   23.1676 N   0  0  0  0  0  0  0  0  0  0  0  0
  -23.4775  -26.3321   20.9228 N   0  0  0  0  0  0  0  0  0  0  0  0
  -17.2982  -24.2810   21.7263 N   0  0  0  0  0  0  0  0  0  0  0  0
  -25.5658  -12.6523   20.1863 N   0  0  0  0  0  0  0  0  0  0  0  0
  -15.1563  -22.3449   19.5512 N   0  3  0  0  0  0  0  0  0  0  0  0
  -30.6503  -18.0712   24.5082 O   0  0  0  0  0  0  0  0  0  0  0  0
  -22.9716  -24.3951   22.1123 O   0  0  0  0  0  0  0  0  0  0  0  0
  -19.3636  -26.1958   21.2004 O   0  0  0  0  0  0  0  0  0  0  0  0
  -17.1982  -21.9806   21.4523 O   0  0  0  0  0  0  0  0  0  0  0  0
  -26.5753  -10.8553   19.1820 O   0  0  0  0  0  0  0  0  0  0  0  0
  -28.6094  -22.9538   18.8002 O   0  0  0  0  0  0  0  0  0  0  0  0
  -22.9487  -18.5921   20.1098 O   0  0  0  0  0  0  0  0  0  1  0  0
  -32.6366  -26.6612   19.4636 F   0  0  0  0  0  0  0  0  0  0  0  0
  -29.9010  -24.0510   16.6161 F   0  0  0  0  0  0  0  0  0  0  0  0
  1  2  1  0  0  0  0
  1  5  2  0  0  0  0
  2  6  2  0  0  0  0
  3  9  2  0  0  0  0
  3 17  1  0  0  0  0
  4 10  1  0  0  0  0
  4 17  2  0  0  0  0
  5 19  1  0  0  0  0
  6 21  1  0  0  0  0
  7 11  2  0  0  0  0
  7 20  1  0  0  0  0
  8 14  2  0  0  0  0
  8 23  1  0  0  0  0
  9 24  1  0  0  0  0
 10 24  2  0  0  0  0
 11 25  1  0  0  0  0
 12 13  2  0  0  0  0
 12 26  1  0  0  0  0
 13 27  1  0  0  0  0
 14 30  1  0  0  0  0
 15 22  1  0  0  0  0
 15 25  2  0  0  0  0
 16 27  2  0  0  0  0
 16 28  1  0  0  0  0
 17 29  1  0  0  0  0
 18 29  1  0  0  0  0
 18 32  2  0  0  0  0
 18 33  1  0  0  0  0
 19 21  2  0  0  0  0
 19 38  1  0  0  0  0
 20 22  2  0  0  0  0
 20 39  1  0  0  0  0
 21 47  1  0  0  0  0
 22 40  1  0  0  0  0
 23 31  2  0  0  0  0
 23 59  1  0  0  0  0
 24 85  1  0  0  0  0
 25 86  1  0  0  0  0
 26 28  2  0  0  0  0
 26 85  1  0  0  0  0
 27 87  1  0  0  0  0
 28 88  1  0  0  0  0
 29 69  2  0  0  0  0
 30 63  1  0  0  0  0
 30 70  2  0  0  0  0
 31 64  1  0  0  0  0
 31 70  1  0  0  0  0
 32 71  1  0  0  0  0
 32 74  1  0  0  0  0
 33 75  1  0  0  0  0
 33 80  2  0  0  0  0
 34 48  1  0  0  0  0
 34 76  1  0  0  0  0
 34 81  2  0  0  0  0
 35 65  1  0  0  0  0
 35 72  1  0  0  0  0
 35 82  2  0  0  0  0
 36 66  1  0  0  0  0
 36 77  1  0  0  0  0
 36 83  2  0  0  0  0
 37 73  1  0  0  0  0
 37 78  1  0  0  0  0
 37 84  2  0  0  0  0
 38 41  1  0  0  0  0
 39 48  1  0  0  0  0
 40 72  1  0  0  0  0
 41 43  1  0  0  0  0
 42 44  1  0  0  0  0
 42 45  1  0  0  0  0
 43 47  1  0  0  0  0
 44 49  1  0  0  0  0
 45 73  1  0  0  0  0
 46 49  1  0  0  0  0
 46 73  1  0  0  0  0
 47 76  1  0  0  0  0
 48 72  1  0  0  0  0
 49 71  1  0  0  0  0
 50 64  1  0  0  0  0
 51 64  1  0  0  0  0
 52 66  1  0  0  0  0
 53 67  1  0  0  0  0
 54 67  1  0  0  0  0
 55 68  1  0  0  0  0
 56 68  1  0  0  0  0
 57 68  1  0  0  0  0
 58 79  1  0  0  0  0
 59 86  1  0  0  0  0
 60 61  1  0  0  0  0
 60 63  1  0  0  0  0
 61 67  1  0  0  0  0
 62 63  1  0  0  0  0
 62 78  1  0  0  0  0
 65 68  1  0  0  0  0
 65 77  1  0  0  0  0
 66 79  1  0  0  0  0
 69 71  1  0  0  0  0
M  CHG  1  79   1
M  ISO  4  37 100  59 101  78 100  86 101
M  END
> <Batch ID>
0100

> <Smiles>
CNC(C)C(=O)NC(C(=O)N1Cc2cc([101O:1][101CH2:1]c3ccc(C(CCC(C)C)C[100NH:0][100C:0](=O)N4CCCC(n5nc(-c6ccc(Oc7ccc(F)cc7F)cc6)c(C(N)=O)c5N)C4)nc3C(C)C)ccc2CC1C(=O)NC1CCCc2ccccc21)C(C)(C)C

> <Shape>
0.234

> <Color>
0.064

> <Negative vol penalty>
0.000

$$$$

  -OEChem-04052319333D

 91 99  0     1  0  0  0  0  0999 V2000
  -27.2057  -14.7047   16.8912 C   0  0  0  0  0  0  0  0  0  0  0  0
  -26.5966  -15.9434   17.0568 C   0  0  0  0  0  0  0  0  0  0  0  0
  -20.4597  -23.0700   24.1008 C   0  0  0  0  0  0  0  0  0  0  0  0
  -23.7932  -14.1830   21.9612 C   0  0  0  0  0  0  0  0  0  0  0  0
  -24.4857  -14.7434   19.7155 C   0  0  0  0  0  0  0  0  0  0  0  0
  -28.4930  -14.4942   17.3808 C   0  0  0  0  0  0  0  0  0  0  0  0
  -27.2790  -16.9757   17.7014 C   0  0  0  0  0  0  0  0  0  0  0  0
  -25.1412  -21.4066   17.7069 C   0  0  0  0  0  0  0  0  0  0  0  0
  -19.5121  -23.9754   23.6233 C   0  0  0  0  0  0  0  0  0  0  0  0
  -21.6749  -22.9155   23.4336 C   0  0  0  0  0  0  0  0  0  0  0  0
  -24.2496  -12.8780   21.7764 C   0  0  0  0  0  0  0  0  0  0  0  0
  -24.9422  -13.4384   19.5306 C   0  0  0  0  0  0  0  0  0  0  0  0
  -24.0150  -21.6991   18.4748 C   0  0  0  0  0  0  0  0  0  0  0  0
  -24.9062   -9.3013   21.7695 C   0  0  0  0  0  0  0  0  0  0  0  0
  -24.0835   -8.2585   22.1952 C   0  0  0  0  0  0  0  0  0  0  0  0
  -25.4046  -22.8849   20.0502 C   0  0  0  0  0  0  0  0  0  0  0  0
  -22.3518   -9.0089   20.6869 C   0  0  0  0  0  0  0  0  0  0  0  0
  -23.9111  -15.1157   20.9308 C   0  0  0  0  0  0  0  0  0  0  0  0
  -24.1711  -17.5582   21.6195 C   0  0  0  0  0  0  0  0  0  0  0  0
  -29.1861  -15.5211   18.0426 C   0  0  0  0  0  0  0  0  0  0  0  0
  -26.4113  -21.8425   18.1112 C   0  0  0  0  0  0  0  0  0  0  0  0
  -28.5882  -16.7902   18.1814 C   0  0  0  0  0  0  0  0  0  0  0  0
  -26.5451  -22.5988   19.2843 C   0  0  0  0  0  0  0  0  0  0  0  0
  -19.7797  -24.7263   22.4786 C   0  0  0  0  0  0  0  0  0  0  0  0
  -21.9425  -23.6664   22.2890 C   0  0  0  0  0  0  0  0  0  0  0  0
  -20.9949  -24.5717   21.8114 C   0  0  0  0  0  0  0  0  0  0  0  0
  -24.8241  -12.5057   20.5611 C   0  0  0  0  0  0  0  0  0  0  0  0
  -24.1469  -22.4359   19.6482 C   0  0  0  0  0  0  0  0  0  0  0  0
  -24.4516  -10.1981   20.8025 C   0  0  0  0  0  0  0  0  0  0  0  0
  -22.8063   -8.1122   21.6539 C   0  0  0  0  0  0  0  0  0  0  0  0
  -23.1744  -10.0518   20.2612 C   0  0  0  0  0  0  0  0  0  0  0  0
  -23.4393  -16.4638   21.1210 C   0  0  0  0  0  0  0  0  0  0  0  0
  -23.2795  -18.6029   21.6044 C   0  0  0  0  0  0  0  0  0  0  0  0
  -25.5348  -17.6246   22.0571 C   0  0  0  0  0  0  0  0  0  0  0  0
  -29.1257  -20.3997   18.9200 C   0  0  0  0  0  0  0  0  0  0  0  0
  -30.2651  -23.4361   18.9864 C   0  0  0  0  0  0  0  0  0  0  0  0
  -29.6121  -26.7690   19.3216 C   0  0  0  0  0  0  0  0  0  0  0  0
  -18.9046  -20.6995   18.4456 C   0  0  0  0  0  0  0  0  0  0  0  0
  -30.5802  -15.2412   18.5458 C   0  0  0  0  0  0  0  0  0  0  0  0
  -27.6127  -21.5415   17.2577 C   0  0  0  0  0  0  0  0  0  0  0  0
  -27.8835  -23.1075   19.7516 C   0  0  0  0  0  0  0  0  0  0  0  0
  -31.0457  -16.2441   19.5964 C   0  0  0  0  0  0  0  0  0  0  0  0
  -18.3506  -18.9759   21.5113 C   0  0  0  0  0  0  0  0  0  0  0  0
  -30.7987  -17.6629   19.1059 C   0  0  0  0  0  0  0  0  0  0  0  0
  -19.6743  -18.2541   21.7695 C   0  0  0  0  0  0  0  0  0  0  0  0
  -18.0089  -19.0129   20.0234 C   0  0  0  0  0  0  0  0  0  0  0  0
  -20.3915  -18.8441   19.4166 C   0  0  0  0  0  0  0  0  0  0  0  0
  -29.2994  -17.9185   18.9063 C   0  0  1  0  0  0  0  0  0  0  0  0
  -28.9253  -21.5961   18.0332 C   0  0  1  0  0  0  0  0  0  0  0  0
  -20.8064  -18.8301   20.8978 C   0  0  2  0  0  0  0  0  0  0  0  0
  -30.7511  -29.0045   19.3689 C   0  0  0  0  0  0  0  0  0  0  0  0
  -15.6684  -29.6029   22.9407 C   0  0  0  0  0  0  0  0  0  0  0  0
  -17.9417  -29.6093   23.9859 C   0  0  0  0  0  0  0  0  0  0  0  0
  -21.2433  -26.9114   20.9023 C   0  0  0  0  0  0  0  0  0  0  0  0
  -22.7003  -25.1488   19.9535 C   0  0  0  0  0  0  0  0  0  0  0  0
  -31.2517  -22.8708   21.8178 C   0  0  0  0  0  0  0  0  0  0  0  0
  -31.5052  -25.3396   22.1477 C   0  0  0  0  0  0  0  0  0  0  0  0
  -32.8465  -24.1727   20.3979 C   0  0  0  0  0  0  0  0  0  0  0  0
  -28.1060  -27.7162   16.9566 C   0  0  0  0  0  0  0  0  0  0  0  0
  -18.7482  -25.6892   21.9882 C   0  0  0  0  0  0  0  0  0  0  0  0
  -23.2574  -23.4814   21.5903 C   0  0  0  0  0  0  0  0  0  1  0  0
  -18.3134  -26.7352   23.0309 C   0  0  0  0  0  0  0  0  0  0  0  0
  -17.2037  -27.6601   22.5146 C   0  0  0  0  0  0  0  0  0  0  0  0
  -19.9501  -22.3242   16.8879 C   0  0  0  0  0  0  0  0  0  0  0  0
  -19.5231  -23.5762   17.6312 C   0  0  0  0  0  0  0  0  0  0  0  0
  -20.2315  -25.1491   19.4374 C   0  0  0  0  0  0  0  0  0  0  0  0
  -30.3681  -24.5166   20.0356 C   0  0  1  0  0  0  0  0  0  0  0  0
  -30.0516  -27.9689   18.5023 C   0  0  2  0  0  0  0  0  0  0  0  0
  -16.7744  -28.7289   23.5375 C   0  0  0  0  0  0  0  0  0  0  0  0
  -21.2818  -25.3768   20.5840 C   0  0  0  0  0  0  0  0  0  0  0  0
  -31.4678  -24.2138   21.0923 C   0  0  0  0  0  0  0  0  0  0  0  0
  -22.1798  -16.7835   20.8118 N   0  0  0  0  0  0  0  0  0  0  0  0
  -22.1133  -18.0906   21.1170 N   0  0  0  0  0  0  0  0  0  0  0  0
  -29.0291  -22.7819   18.8860 N   0  0  0  0  0  0  0  0  0  0  0  0
  -19.1229  -19.5712   19.2531 N   0  0  0  0  0  0  0  0  0  0  0  0
  -23.3872  -19.9005   21.9607 N   0  0  0  0  0  0  0  0  0  0  0  0
  -26.3104  -16.4583   22.0060 N   0  0  0  0  0  0  0  0  0  0  0  0
  -29.1216  -19.1932   18.2465 N   0  0  0  0  0  0  0  0  0  0  0  0
  -30.5619  -25.7695   19.3137 N   0  0  0  0  0  0  0  0  0  0  0  0
  -20.0149  -21.1683   17.7541 N   0  0  0  0  0  0  0  0  0  0  0  0
  -28.8740  -28.6147   17.8565 N   0  3  0  0  0  0  0  0  0  0  0  0
  -20.5226  -23.9024   18.6832 N   0  3  0  0  0  0  0  0  0  0  0  0
  -26.0456  -18.6828   22.4962 O   0  0  0  0  0  0  0  0  0  0  0  0
  -29.2745  -20.5596   20.1258 O   0  0  0  0  0  0  0  0  0  0  0  0
  -31.2430  -23.1868   18.2771 O   0  0  0  0  0  0  0  0  0  0  0  0
  -28.5355  -26.7244   19.9128 O   0  0  0  0  0  0  0  0  0  0  0  0
  -17.8031  -21.2518   18.3522 O   0  0  0  0  0  0  0  0  0  0  0  0
  -25.2699  -11.2324   20.3804 O   0  0  0  0  0  0  0  0  0  0  0  0
  -23.0494  -22.7223   20.4000 O   0  0  0  0  0  0  0  0  0  1  0  0
  -22.0170   -7.1098   22.0617 F   0  0  0  0  0  0  0  0  0  0  0  0
  -22.7327  -10.9094   19.3311 F   0  0  0  0  0  0  0  0  0  0  0  0
  1  2  1  0  0  0  0
  1  6  2  0  0  0  0
  2  7  2  0  0  0  0
  3  9  1  0  0  0  0
  3 10  2  0  0  0  0
  4 11  2  0  0  0  0
  4 18  1  0  0  0  0
  5 12  1  0  0  0  0
  5 18  2  0  0  0  0
  6 20  1  0  0  0  0
  7 22  1  0  0  0  0
  8 13  2  0  0  0  0
  8 21  1  0  0  0  0
  9 24  2  0  0  0  0
 10 25  1  0  0  0  0
 11 27  1  0  0  0  0
 12 27  2  0  0  0  0
 13 28  1  0  0  0  0
 14 15  2  0  0  0  0
 14 29  1  0  0  0  0
 15 30  1  0  0  0  0
 16 23  1  0  0  0  0
 16 28  2  0  0  0  0
 17 30  2  0  0  0  0
 17 31  1  0  0  0  0
 18 32  1  0  0  0  0
 19 32  1  0  0  0  0
 19 33  2  0  0  0  0
 19 34  1  0  0  0  0
 20 22  2  0  0  0  0
 20 39  1  0  0  0  0
 21 23  2  0  0  0  0
 21 40  1  0  0  0  0
 22 48  1  0  0  0  0
 23 41  1  0  0  0  0
 24 26  1  0  0  0  0
 24 60  1  0  0  0  0
 25 26  2  0  0  0  0
 25 61  1  0  0  0  0
 26 70  1  0  0  0  0
 27 88  1  0  0  0  0
 28 89  1  0  0  0  0
 29 31  2  0  0  0  0
 29 88  1  0  0  0  0
 30 90  1  0  0  0  0
 31 91  1  0  0  0  0
 32 72  2  0  0  0  0
 33 73  1  0  0  0  0
 33 76  1  0  0  0  0
 34 77  1  0  0  0  0
 34 83  2  0  0  0  0
 35 49  1  0  0  0  0
 35 78  1  0  0  0  0
 35 84  2  0  0  0  0
 36 67  1  0  0  0  0
 36 74  1  0  0  0  0
 36 85  2  0  0  0  0
 37 68  1  0  0  0  0
 37 79  1  0  0  0  0
 37 86  2  0  0  0  0
 38 75  1  0  0  0  0
 38 80  1  0  0  0  0
 38 87  2  0  0  0  0
 39 42  1  0  0  0  0
 40 49  1  0  0  0  0
 41 74  1  0  0  0  0
 42 44  1  0  0  0  0
 43 45  1  0  0  0  0
 43 46  1  0  0  0  0
 44 48  1  0  0  0  0
 45 50  1  0  0  0  0
 46 75  1  0  0  0  0
 47 50  1  0  0  0  0
 47 75  1  0  0  0  0
 48 78  1  0  0  0  0
 49 74  1  0  0  0  0
 50 73  1  0  0  0  0
 51 68  1  0  0  0  0
 52 69  1  0  0  0  0
 53 69  1  0  0  0  0
 54 70  1  0  0  0  0
 55 70  1  0  0  0  0
 56 71  1  0  0  0  0
 57 71  1  0  0  0  0
 58 71  1  0  0  0  0
 59 81  1  0  0  0  0
 60 62  1  0  0  0  0
 61 89  1  0  0  0  0
 62 63  1  0  0  0  0
 63 69  1  0  0  0  0
 64 65  1  0  0  0  0
 64 80  1  0  0  0  0
 65 82  1  0  0  0  0
 66 70  1  0  0  0  0
 66 82  1  0  0  0  0
 67 71  1  0  0  0  0
 67 79  1  0  0  0  0
 68 81  1  0  0  0  0
 72 73  1  0  0  0  0
M  CHG  2  81   1  82   1
M  ISO  4  38 100  61 101  80 100  89 101
M  END
> <Batch ID>
0100

> <Smiles>
CNC(C)C(=O)NC(C(=O)N1Cc2cc([101O:1][101CH2:1]c3cccc(CCCC(C)C)c3C(C)(C)CNCC[100NH:0][100C:0](=O)N3CCCC(n4nc(-c5ccc(Oc6ccc(F)cc6F)cc5)c(C(N)=O)c4N)C3)ccc2CC1C(=O)NC1CCCc2ccccc21)C(C)(C)C

> <Shape>
0.193

> <Color>
0.061

> <Negative vol penalty>
0.000

$$$$

  -OEChem-04052319333D

 89 97  0     1  0  0  0  0  0999 V2000
  -30.1732  -23.4584   16.7297 C   0  0  0  0  0  0  0  0  0  0  0  0
  -28.8360  -23.7690   16.9551 C   0  0  0  0  0  0  0  0  0  0  0  0
  -26.8174  -13.5633   21.9009 C   0  0  0  0  0  0  0  0  0  0  0  0
  -26.3436  -13.6389   19.5330 C   0  0  0  0  0  0  0  0  0  0  0  0
  -31.1078  -23.6235   17.7512 C   0  0  0  0  0  0  0  0  0  0  0  0
  -28.4324  -24.2439   18.2025 C   0  0  0  0  0  0  0  0  0  0  0  0
  -25.2863  -28.1966   17.8514 C   0  0  0  0  0  0  0  0  0  0  0  0
  -26.0791  -12.3849   22.0110 C   0  0  0  0  0  0  0  0  0  0  0  0
  -25.6054  -12.4605   19.6430 C   0  0  0  0  0  0  0  0  0  0  0  0
  -23.9565  -27.9256   17.5323 C   0  0  0  0  0  0  0  0  0  0  0  0
  -22.5242  -11.5392   20.6863 C   0  0  0  0  0  0  0  0  0  0  0  0
  -21.2883  -11.4862   20.0420 C   0  0  0  0  0  0  0  0  0  0  0  0
  -23.3620  -28.1313   19.8612 C   0  0  0  0  0  0  0  0  0  0  0  0
  -21.5419  -24.4897   17.9184 C   0  0  0  0  0  0  0  0  0  0  0  0
  -22.0571   -9.6149   18.7212 C   0  0  0  0  0  0  0  0  0  0  0  0
  -26.9496  -14.1903   20.6618 C   0  0  0  0  0  0  0  0  0  0  0  0
  -29.0877  -15.5272   20.2759 C   0  0  0  0  0  0  0  0  0  0  0  0
  -30.7170  -24.1098   19.0087 C   0  0  0  0  0  0  0  0  0  0  0  0
  -25.6665  -28.4267   19.1814 C   0  0  0  0  0  0  0  0  0  0  0  0
  -29.3623  -24.4144   19.2421 C   0  0  0  0  0  0  0  0  0  0  0  0
  -24.6969  -28.4076   20.1942 C   0  0  0  0  0  0  0  0  0  0  0  0
  -20.3296  -25.1005   17.6177 C   0  0  0  0  0  0  0  0  0  0  0  0
  -19.6338  -24.7262   16.4736 C   0  0  0  0  0  0  0  0  0  0  0  0
  -25.4732  -11.8335   20.8821 C   0  0  0  0  0  0  0  0  0  0  0  0
  -22.9946  -27.8900   18.5376 C   0  0  0  0  0  0  0  0  0  0  0  0
  -23.5267  -10.6301   20.3480 C   0  0  0  0  0  0  0  0  0  0  0  0
  -21.0546  -10.5240   19.0595 C   0  0  0  0  0  0  0  0  0  0  0  0
  -23.2931   -9.6680   19.3655 C   0  0  0  0  0  0  0  0  0  0  0  0
  -27.7115  -15.4079   20.5476 C   0  0  0  0  0  0  0  0  0  0  0  0
  -20.1888  -23.7439   15.6693 C   0  0  0  0  0  0  0  0  0  0  0  0
  -22.0114  -23.5178   17.0495 C   0  0  0  0  0  0  0  0  0  0  0  0
  -29.3207  -16.8807   20.2716 C   0  0  0  0  0  0  0  0  0  0  0  0
  -30.0676  -14.5058   20.0477 C   0  0  0  0  0  0  0  0  0  0  0  0
  -27.6156  -26.9867   21.2384 C   0  0  0  0  0  0  0  0  0  0  0  0
  -26.9057  -29.5450   23.1021 C   0  0  0  0  0  0  0  0  0  0  0  0
  -24.7310  -32.0639   23.8586 C   0  0  0  0  0  0  0  0  0  0  0  0
  -25.8097  -21.6194   19.2375 C   0  0  0  0  0  0  0  0  0  0  0  0
  -31.7552  -24.2268   20.0964 C   0  0  0  0  0  0  0  0  0  0  0  0
  -27.1005  -28.7441   19.5057 C   0  0  0  0  0  0  0  0  0  0  0  0
  -25.0499  -28.6679   21.6350 C   0  0  0  0  0  0  0  0  0  0  0  0
  -31.3093  -25.0901   21.2738 C   0  0  0  0  0  0  0  0  0  0  0  0
  -27.7101  -20.9636   22.1761 C   0  0  0  0  0  0  0  0  0  0  0  0
  -29.8956  -24.7141   21.7062 C   0  0  0  0  0  0  0  0  0  0  0  0
  -28.0501  -19.4761   22.0674 C   0  0  0  0  0  0  0  0  0  0  0  0
  -26.3134  -21.2641   21.6368 C   0  0  0  0  0  0  0  0  0  0  0  0
  -26.4023  -19.2955   20.1567 C   0  0  0  0  0  0  0  0  0  0  0  0
  -28.8899  -24.9555   20.5741 C   0  0  1  0  0  0  0  0  0  0  0  0
  -27.4625  -28.4551   20.9593 C   0  0  1  0  0  0  0  0  0  0  0  0
  -27.8228  -18.9520   20.6367 C   0  0  2  0  0  0  0  0  0  0  0  0
  -18.3328  -25.3675   16.1244 C   0  0  0  0  0  0  0  0  0  0  0  0
  -18.8516  -25.5644   19.6006 C   0  0  0  0  0  0  0  0  0  0  0  0
  -24.4044  -33.9709   25.4568 C   0  0  0  0  0  0  0  0  0  0  0  0
  -23.1284  -20.5645   16.8109 C   0  0  0  0  0  0  0  0  0  0  0  0
  -19.2946  -24.4892   13.4353 C   0  0  0  0  0  0  0  0  0  0  0  0
  -18.0753  -22.7243   14.7525 C   0  0  0  0  0  0  0  0  0  0  0  0
  -20.2159  -22.1863   13.6080 C   0  0  0  0  0  0  0  0  0  0  0  0
  -26.1079  -27.5724   25.2890 C   0  0  0  0  0  0  0  0  0  0  0  0
  -24.9272  -29.4482   26.4534 C   0  0  0  0  0  0  0  0  0  0  0  0
  -27.3934  -29.5602   26.0955 C   0  0  0  0  0  0  0  0  0  0  0  0
  -24.7333  -34.0531   21.6671 C   0  0  0  0  0  0  0  0  0  0  0  0
  -25.3439  -21.8187   16.8080 C   0  0  0  0  0  0  0  0  0  0  0  0
  -20.9125  -26.9691   19.2251 C   0  0  0  0  0  0  0  0  0  1  0  0
  -19.7876  -26.1712   18.5516 C   0  0  1  0  0  0  0  0  0  0  0  0
  -25.8399  -29.8606   24.1236 C   0  0  1  0  0  0  0  0  0  0  0  0
  -24.9518  -33.5458   24.1031 C   0  0  2  0  0  0  0  0  0  0  0  0
  -23.8369  -21.8903   16.5554 C   0  0  2  0  0  0  0  0  0  0  0  0
  -19.4870  -23.3014   14.4270 C   0  0  0  0  0  0  0  0  0  0  0  0
  -26.0604  -29.1035   25.4635 C   0  0  0  0  0  0  0  0  0  0  0  0
  -27.1125  -16.5913   20.7047 N   0  0  0  0  0  0  0  0  0  0  0  0
  -21.3639  -23.1279   15.9287 N   0  0  0  0  0  0  0  0  0  0  0  0
  -28.1170  -17.4670   20.5312 N   0  0  0  0  0  0  0  0  0  0  0  0
  -26.4664  -28.9674   21.9024 N   0  0  0  0  0  0  0  0  0  0  0  0
  -26.1636  -20.7424   20.2761 N   0  0  0  0  0  0  0  0  0  0  0  0
  -30.4358  -17.6147   20.0712 N   0  0  0  0  0  0  0  0  0  0  0  0
  -29.6581  -13.1660   20.0876 N   0  0  0  0  0  0  0  0  0  0  0  0
  -23.2484  -22.9045   17.3680 N   0  0  0  0  0  0  0  0  0  0  0  0
  -28.5784  -26.3647   20.4667 N   0  0  0  0  0  0  0  0  0  0  0  0
  -25.8177  -31.3135   24.2548 N   0  0  0  0  0  0  0  0  0  0  0  0
  -25.6951  -21.0445   17.9777 N   0  0  0  0  0  0  0  0  0  0  0  0
  -24.2742  -34.3514   23.0481 N   0  3  0  0  0  0  0  0  0  0  0  0
  -31.2741  -14.7728   19.8315 O   0  0  0  0  0  0  0  0  0  0  0  0
  -26.9133  -26.4574   22.0918 O   0  0  0  0  0  0  0  0  0  0  0  0
  -28.0838  -29.8079   23.3563 O   0  0  0  0  0  0  0  0  0  0  0  0
  -23.6963  -31.6165   23.3688 O   0  0  0  0  0  0  0  0  0  0  0  0
  -25.6159  -22.8263   19.4185 O   0  0  0  0  0  0  0  0  0  0  0  0
  -24.7530  -10.6836   20.9891 O   0  0  0  0  0  0  0  0  0  0  0  0
  -21.6960  -27.6250   18.2290 O   0  0  0  0  0  0  0  0  0  1  0  0
  -19.8672  -10.4722   18.4420 F   0  0  0  0  0  0  0  0  0  0  0  0
  -24.2519   -8.7912   19.0370 F   0  0  0  0  0  0  0  0  0  0  0  0
  1  2  1  0  0  0  0
  1  5  2  0  0  0  0
  2  6  2  0  0  0  0
  3  8  2  0  0  0  0
  3 16  1  0  0  0  0
  4  9  1  0  0  0  0
  4 16  2  0  0  0  0
  5 18  1  0  0  0  0
  6 20  1  0  0  0  0
  7 10  2  0  0  0  0
  7 19  1  0  0  0  0
  8 24  1  0  0  0  0
  9 24  2  0  0  0  0
 10 25  1  0  0  0  0
 11 12  2  0  0  0  0
 11 26  1  0  0  0  0
 12 27  1  0  0  0  0
 13 21  1  0  0  0  0
 13 25  2  0  0  0  0
 14 22  1  0  0  0  0
 14 31  2  0  0  0  0
 15 27  2  0  0  0  0
 15 28  1  0  0  0  0
 16 29  1  0  0  0  0
 17 29  1  0  0  0  0
 17 32  2  0  0  0  0
 17 33  1  0  0  0  0
 18 20  2  0  0  0  0
 18 38  1  0  0  0  0
 19 21  2  0  0  0  0
 19 39  1  0  0  0  0
 20 47  1  0  0  0  0
 21 40  1  0  0  0  0
 22 23  2  0  0  0  0
 22 63  1  0  0  0  0
 23 30  1  0  0  0  0
 23 50  1  0  0  0  0
 24 86  1  0  0  0  0
 25 87  1  0  0  0  0
 26 28  2  0  0  0  0
 26 86  1  0  0  0  0
 27 88  1  0  0  0  0
 28 89  1  0  0  0  0
 29 69  2  0  0  0  0
 30 67  1  0  0  0  0
 30 70  2  0  0  0  0
 31 70  1  0  0  0  0
 31 76  1  0  0  0  0
 32 71  1  0  0  0  0
 32 74  1  0  0  0  0
 33 75  1  0  0  0  0
 33 81  2  0  0  0  0
 34 48  1  0  0  0  0
 34 77  1  0  0  0  0
 34 82  2  0  0  0  0
 35 64  1  0  0  0  0
 35 72  1  0  0  0  0
 35 83  2  0  0  0  0
 36 65  1  0  0  0  0
 36 78  1  0  0  0  0
 36 84  2  0  0  0  0
 37 73  1  0  0  0  0
 37 79  1  0  0  0  0
 37 85  2  0  0  0  0
 38 41  1  0  0  0  0
 39 48  1  0  0  0  0
 40 72  1  0  0  0  0
 41 43  1  0  0  0  0
 42 44  1  0  0  0  0
 42 45  1  0  0  0  0
 43 47  1  0  0  0  0
 44 49  1  0  0  0  0
 45 73  1  0  0  0  0
 46 49  1  0  0  0  0
 46 73  1  0  0  0  0
 47 77  1  0  0  0  0
 48 72  1  0  0  0  0
 49 71  1  0  0  0  0
 51 63  1  0  0  0  0
 52 65  1  0  0  0  0
 53 66  1  0  0  0  0
 54 67  1  0  0  0  0
 55 67  1  0  0  0  0
 56 67  1  0  0  0  0
 57 68  1  0  0  0  0
 58 68  1  0  0  0  0
 59 68  1  0  0  0  0
 60 80  1  0  0  0  0
 61 66  1  0  0  0  0
 61 79  1  0  0  0  0
 62 63  1  0  0  0  0
 62 87  1  0  0  0  0
 64 68  1  0  0  0  0
 64 78  1  0  0  0  0
 65 80  1  0  0  0  0
 66 76  1  0  0  0  0
 69 71  1  0  0  0  0
M  CHG  1  80   1
M  ISO  4  37 100  62 101  79 100  87 101
M  END
> <Batch ID>
0100

> <Smiles>
CNC(C)C(=O)NC(C(=O)N1Cc2cc([101O:1][101CH2:1]C(C)c3cc(NC(C)C[100NH:0][100C:0](=O)N4CCCC(n5nc(-c6ccc(Oc7ccc(F)cc7F)cc6)c(C(N)=O)c5N)C4)nc(C(C)(C)C)c3C)ccc2CC1C(=O)NC1CCCc2ccccc21)C(C)(C)C

> <Shape>
0.229

> <Color>
0.065

> <Negative vol penalty>
0.000

$$$$

  -OEChem-04052319333D

 77 84  0     1  0  0  0  0  0999 V2000
  -27.9868  -34.2969   24.6362 C   0  0  0  0  0  0  0  0  0  0  0  0
  -28.1760  -33.0179   24.1224 C   0  0  0  0  0  0  0  0  0  0  0  0
  -28.4476  -11.2495   22.3502 C   0  0  0  0  0  0  0  0  0  0  0  0
  -27.4244  -11.8918   20.2579 C   0  0  0  0  0  0  0  0  0  0  0  0
  -26.7591  -34.6472   25.1966 C   0  0  0  0  0  0  0  0  0  0  0  0
  -27.1379  -32.0881   24.1698 C   0  0  0  0  0  0  0  0  0  0  0  0
  -26.5851  -29.5696   19.8114 C   0  0  0  0  0  0  0  0  0  0  0  0
  -27.5536  -10.1844   22.4604 C   0  0  0  0  0  0  0  0  0  0  0  0
  -26.5305  -10.8267   20.3681 C   0  0  0  0  0  0  0  0  0  0  0  0
  -27.4872  -28.5385   19.5530 C   0  0  0  0  0  0  0  0  0  0  0  0
  -23.6881  -10.1246   22.0588 C   0  0  0  0  0  0  0  0  0  0  0  0
  -22.3434  -10.3763   21.7865 C   0  0  0  0  0  0  0  0  0  0  0  0
  -25.8397  -26.9268   20.2652 C   0  0  0  0  0  0  0  0  0  0  0  0
  -22.3987   -8.7448   20.0054 C   0  0  0  0  0  0  0  0  0  0  0  0
  -28.3829  -12.1032   21.2490 C   0  0  0  0  0  0  0  0  0  0  0  0
  -30.5690  -13.1933   20.5137 C   0  0  0  0  0  0  0  0  0  0  0  0
  -25.7024  -33.7243   25.2422 C   0  0  0  0  0  0  0  0  0  0  0  0
  -25.3051  -29.2873   20.3097 C   0  0  0  0  0  0  0  0  0  0  0  0
  -25.8954  -32.4260   24.7326 C   0  0  0  0  0  0  0  0  0  0  0  0
  -24.9223  -27.9559   20.5266 C   0  0  0  0  0  0  0  0  0  0  0  0
  -26.5951   -9.9730   21.4693 C   0  0  0  0  0  0  0  0  0  0  0  0
  -27.1156  -27.2170   19.7826 C   0  0  0  0  0  0  0  0  0  0  0  0
  -24.3881   -9.1831   21.3043 C   0  0  0  0  0  0  0  0  0  0  0  0
  -21.6987   -9.6864   20.7598 C   0  0  0  0  0  0  0  0  0  0  0  0
  -23.7434   -8.4931   20.2777 C   0  0  0  0  0  0  0  0  0  0  0  0
  -29.3057  -13.2039   21.1349 C   0  0  0  0  0  0  0  0  0  0  0  0
  -31.0415  -14.4729   20.6745 C   0  0  0  0  0  0  0  0  0  0  0  0
  -31.2540  -12.1225   19.8505 C   0  0  0  0  0  0  0  0  0  0  0  0
  -23.7247  -30.0095   22.9714 C   0  0  0  0  0  0  0  0  0  0  0  0
  -21.2578  -28.5703   21.4335 C   0  0  0  0  0  0  0  0  0  0  0  0
  -20.2255  -26.3559   19.0508 C   0  0  0  0  0  0  0  0  0  0  0  0
  -28.4708  -19.6331   21.2839 C   0  0  0  0  0  0  0  0  0  0  0  0
  -24.4087  -34.1339   25.9005 C   0  0  0  0  0  0  0  0  0  0  0  0
  -24.3344  -30.4091   20.5580 C   0  0  0  0  0  0  0  0  0  0  0  0
  -23.5529  -27.5984   21.0418 C   0  0  0  0  0  0  0  0  0  0  0  0
  -23.2392  -33.2089   25.5734 C   0  0  0  0  0  0  0  0  0  0  0  0
  -30.7522  -18.2423   23.5933 C   0  0  0  0  0  0  0  0  0  0  0  0
  -23.6563  -31.7489   25.7195 C   0  0  0  0  0  0  0  0  0  0  0  0
  -30.7578  -16.7750   23.1668 C   0  0  0  0  0  0  0  0  0  0  0  0
  -29.3508  -18.8528   23.5330 C   0  0  0  0  0  0  0  0  0  0  0  0
  -28.6878  -17.2200   21.7960 C   0  0  0  0  0  0  0  0  0  0  0  0
  -24.7855  -31.3974   24.7433 C   0  0  1  0  0  0  0  0  0  0  0  0
  -23.2363  -30.0404   21.5508 C   0  0  1  0  0  0  0  0  0  0  0  0
  -30.0935  -16.5996   21.7902 C   0  0  2  0  0  0  0  0  0  0  0  0
  -18.1485  -25.3640   18.0509 C   0  0  0  0  0  0  0  0  0  0  0  0
  -30.6899  -22.5306   21.3529 C   0  0  0  0  0  0  0  0  0  0  0  0
  -20.9260  -26.7933   23.8916 C   0  0  0  0  0  0  0  0  0  0  0  0
  -19.5286  -25.2500   22.5011 C   0  0  0  0  0  0  0  0  0  0  0  0
  -18.7809  -27.5980   22.8888 C   0  0  0  0  0  0  0  0  0  0  0  0
  -27.5493  -21.1636   23.0764 C   0  0  0  0  0  0  0  0  0  0  0  0
  -20.8626  -27.4330   16.3688 C   0  0  0  0  0  0  0  0  0  0  0  0
  -29.2575  -24.3910   20.4554 C   0  0  0  0  0  0  0  0  0  0  0  0
  -28.2513  -22.0563   20.8864 C   0  0  0  0  0  0  0  0  0  0  0  0
  -27.8815  -25.0342   20.3344 C   0  0  0  0  0  0  0  0  0  1  0  0
  -20.7325  -27.1579   21.3429 C   0  0  1  0  0  0  0  0  0  0  0  0
  -19.1857  -26.4717   17.9508 C   0  0  2  0  0  0  0  0  0  0  0  0
  -29.2741  -23.1172   21.3198 C   0  0  1  0  0  0  0  0  0  0  0  0
  -20.0185  -26.7063   22.6482 C   0  0  0  0  0  0  0  0  0  0  0  0
  -28.9954  -14.3957   21.6519 N   0  0  0  0  0  0  0  0  0  0  0  0
  -30.0705  -15.1459   21.3560 N   0  0  0  0  0  0  0  0  0  0  0  0
  -22.6416  -28.7310   21.2752 N   0  0  0  0  0  0  0  0  0  0  0  0
  -28.7349  -18.6217   22.2192 N   0  0  0  0  0  0  0  0  0  0  0  0
  -32.1887  -15.0767   20.2981 N   0  0  0  0  0  0  0  0  0  0  0  0
  -30.6251  -10.8722   19.7751 N   0  0  0  0  0  0  0  0  0  0  0  0
  -24.2588  -31.2065   23.4089 N   0  0  0  0  0  0  0  0  0  0  0  0
  -19.8887  -27.1117   20.1537 N   0  0  0  0  0  0  0  0  0  0  0  0
  -28.1851  -20.9121   21.7846 N   0  0  0  0  0  0  0  0  0  0  0  0
  -19.8358  -26.3873   16.6125 N   0  3  0  0  0  0  0  0  0  0  0  0
  -32.3972  -12.2656   19.3543 O   0  0  0  0  0  0  0  0  0  0  0  0
  -23.6232  -28.9766   23.6229 O   0  0  0  0  0  0  0  0  0  0  0  0
  -20.4685  -29.4977   21.6301 O   0  0  0  0  0  0  0  0  0  0  0  0
  -21.2338  -25.6612   18.9438 O   0  0  0  0  0  0  0  0  0  0  0  0
  -28.4815  -19.4052   20.0673 O   0  0  0  0  0  0  0  0  0  0  0  0
  -25.7228   -8.9337   21.5764 O   0  0  0  0  0  0  0  0  0  0  0  0
  -27.9944  -26.2087   19.5319 O   0  0  0  0  0  0  0  0  0  1  0  0
  -20.4070   -9.9271   20.4995 F   0  0  0  0  0  0  0  0  0  0  0  0
  -24.4103   -7.5866   19.5503 F   0  0  0  0  0  0  0  0  0  0  0  0
  1  2  1  0  0  0  0
  1  5  2  0  0  0  0
  2  6  2  0  0  0  0
  3  8  2  0  0  0  0
  3 15  1  0  0  0  0
  4  9  1  0  0  0  0
  4 15  2  0  0  0  0
  5 17  1  0  0  0  0
  6 19  1  0  0  0  0
  7 10  2  0  0  0  0
  7 18  1  0  0  0  0
  8 21  1  0  0  0  0
  9 21  2  0  0  0  0
 10 22  1  0  0  0  0
 11 12  2  0  0  0  0
 11 23  1  0  0  0  0
 12 24  1  0  0  0  0
 13 20  1  0  0  0  0
 13 22  2  0  0  0  0
 14 24  2  0  0  0  0
 14 25  1  0  0  0  0
 15 26  1  0  0  0  0
 16 26  1  0  0  0  0
 16 27  2  0  0  0  0
 16 28  1  0  0  0  0
 17 19  2  0  0  0  0
 17 33  1  0  0  0  0
 18 20  2  0  0  0  0
 18 34  1  0  0  0  0
 19 42  1  0  0  0  0
 20 35  1  0  0  0  0
 21 74  1  0  0  0  0
 22 75  1  0  0  0  0
 23 25  2  0  0  0  0
 23 74  1  0  0  0  0
 24 76  1  0  0  0  0
 25 77  1  0  0  0  0
 26 59  2  0  0  0  0
 27 60  1  0  0  0  0
 27 63  1  0  0  0  0
 28 64  1  0  0  0  0
 28 69  2  0  0  0  0
 29 43  1  0  0  0  0
 29 65  1  0  0  0  0
 29 70  2  0  0  0  0
 30 55  1  0  0  0  0
 30 61  1  0  0  0  0
 30 71  2  0  0  0  0
 31 56  1  0  0  0  0
 31 66  1  0  0  0  0
 31 72  2  0  0  0  0
 32 62  1  0  0  0  0
 32 67  1  0  0  0  0
 32 73  2  0  0  0  0
 33 36  1  0  0  0  0
 34 43  1  0  0  0  0
 35 61  1  0  0  0  0
 36 38  1  0  0  0  0
 37 39  1  0  0  0  0
 37 40  1  0  0  0  0
 38 42  1  0  0  0  0
 39 44  1  0  0  0  0
 40 62  1  0  0  0  0
 41 44  1  0  0  0  0
 41 62  1  0  0  0  0
 42 65  1  0  0  0  0
 43 61  1  0  0  0  0
 44 60  1  0  0  0  0
 45 56  1  0  0  0  0
 46 57  1  0  0  0  0
 47 58  1  0  0  0  0
 48 58  1  0  0  0  0
 49 58  1  0  0  0  0
 50 67  1  0  0  0  0
 51 68  1  0  0  0  0
 52 54  1  0  0  0  0
 52 57  1  0  0  0  0
 53 57  1  0  0  0  0
 53 67  1  0  0  0  0
 54 75  1  0  0  0  0
 55 58  1  0  0  0  0
 55 66  1  0  0  0  0
 56 68  1  0  0  0  0
 59 60  1  0  0  0  0
M  CHG  1  68   1
M  ISO  4  32 100  54 101  67 100  75 101
M  END
> <Batch ID>
0100

> <Smiles>
CNC(C)C(=O)NC(C(=O)N1Cc2cc([101O:1][101CH2:1]CC(C)C[100N:0](C)[100C:0](=O)N3CCCC(n4nc(-c5ccc(Oc6ccc(F)cc6F)cc5)c(C(N)=O)c4N)C3)ccc2CC1C(=O)NC1CCCc2ccccc21)C(C)(C)C

> <Shape>
0.313

> <Color>
0.088

> <Negative vol penalty>
0.000

$$$$

  -OEChem-04052319333D

 85 92  0     1  0  0  0  0  0999 V2000
  -19.1383  -33.3197   20.4573 C   0  0  0  0  0  0  0  0  0  0  0  0
  -20.4264  -32.9231   20.1125 C   0  0  0  0  0  0  0  0  0  0  0  0
  -27.5709  -17.4629   21.1732 C   0  0  0  0  0  0  0  0  0  0  0  0
  -29.4540  -16.9161   19.7619 C   0  0  0  0  0  0  0  0  0  0  0  0
  -18.5533  -32.8420   21.6292 C   0  0  0  0  0  0  0  0  0  0  0  0
  -21.1306  -32.0493   20.9400 C   0  0  0  0  0  0  0  0  0  0  0  0
  -25.0879  -27.7126   19.1965 C   0  0  0  0  0  0  0  0  0  0  0  0
  -27.3189  -16.1043   21.3635 C   0  0  0  0  0  0  0  0  0  0  0  0
  -29.2022  -15.5574   19.9523 C   0  0  0  0  0  0  0  0  0  0  0  0
  -26.4805  -27.6826   19.1372 C   0  0  0  0  0  0  0  0  0  0  0  0
  -25.8729  -13.5755   19.6492 C   0  0  0  0  0  0  0  0  0  0  0  0
  -24.5511  -13.1418   19.5479 C   0  0  0  0  0  0  0  0  0  0  0  0
  -26.5435  -26.6150   21.2995 C   0  0  0  0  0  0  0  0  0  0  0  0
  -24.6378  -12.3449   21.8270 C   0  0  0  0  0  0  0  0  0  0  0  0
  -28.6384  -17.8688   20.3723 C   0  0  0  0  0  0  0  0  0  0  0  0
  -29.7254  -20.1016   20.9562 C   0  0  0  0  0  0  0  0  0  0  0  0
  -19.2471  -31.9543   22.4667 C   0  0  0  0  0  0  0  0  0  0  0  0
  -24.4119  -27.2031   20.3144 C   0  0  0  0  0  0  0  0  0  0  0  0
  -20.5549  -31.5603   22.1250 C   0  0  0  0  0  0  0  0  0  0  0  0
  -25.1421  -26.6374   21.3694 C   0  0  0  0  0  0  0  0  0  0  0  0
  -28.1346  -15.1515   20.7531 C   0  0  0  0  0  0  0  0  0  0  0  0
  -27.2086  -27.1364   20.1901 C   0  0  0  0  0  0  0  0  0  0  0  0
  -26.5772  -13.3938   20.8395 C   0  0  0  0  0  0  0  0  0  0  0  0
  -23.9335  -12.5265   20.6367 C   0  0  0  0  0  0  0  0  0  0  0  0
  -25.9597  -12.7786   21.9284 C   0  0  0  0  0  0  0  0  0  0  0  0
  -28.8988  -19.2722   20.1749 C   0  0  0  0  0  0  0  0  0  0  0  0
  -29.6371  -21.3352   20.3589 C   0  0  0  0  0  0  0  0  0  0  0  0
  -30.5037  -19.7852   22.1181 C   0  0  0  0  0  0  0  0  0  0  0  0
  -22.4799  -28.4312   22.5197 C   0  0  0  0  0  0  0  0  0  0  0  0
  -22.2054  -25.3341   23.4443 C   0  0  0  0  0  0  0  0  0  0  0  0
  -23.5537  -22.1996   23.5097 C   0  0  0  0  0  0  0  0  0  0  0  0
  -28.4309  -22.9395   14.8067 C   0  0  0  0  0  0  0  0  0  0  0  0
  -18.5913  -31.5019   23.7473 C   0  0  0  0  0  0  0  0  0  0  0  0
  -22.9083  -27.2187   20.3512 C   0  0  0  0  0  0  0  0  0  0  0  0
  -24.4634  -26.0588   22.5830 C   0  0  0  0  0  0  0  0  0  0  0  0
  -19.2626  -30.2847   24.3784 C   0  0  0  0  0  0  0  0  0  0  0  0
  -26.6557  -24.0346   17.7642 C   0  0  0  0  0  0  0  0  0  0  0  0
  -20.7772  -30.4639   24.4041 C   0  0  0  0  0  0  0  0  0  0  0  0
  -27.1174  -23.0033   18.7954 C   0  0  0  0  0  0  0  0  0  0  0  0
  -26.4632  -23.3961   16.3918 C   0  0  0  0  0  0  0  0  0  0  0  0
  -28.1255  -21.6493   16.9006 C   0  0  0  0  0  0  0  0  0  0  0  0
  -21.3415  -30.5943   22.9842 C   0  0  1  0  0  0  0  0  0  0  0  0
  -22.3443  -27.1382   21.7664 C   0  0  1  0  0  0  0  0  0  0  0  0
  -28.3599  -22.2371   18.3040 C   0  0  2  0  0  0  0  0  0  0  0  0
  -23.1149  -19.8841   24.3717 C   0  0  0  0  0  0  0  0  0  0  0  0
  -32.7337  -26.5124   14.9027 C   0  0  0  0  0  0  0  0  0  0  0  0
  -22.9891  -26.2336   26.2527 C   0  0  0  0  0  0  0  0  0  0  0  0
  -23.4569  -23.8389   26.8138 C   0  0  0  0  0  0  0  0  0  0  0  0
  -21.1500  -24.5407   26.1747 C   0  0  0  0  0  0  0  0  0  0  0  0
  -32.9556  -27.8981   17.7121 C   0  0  0  0  0  0  0  0  0  0  0  0
  -31.1436  -29.5892   17.4889 C   0  0  0  0  0  0  0  0  0  0  0  0
  -31.2470  -28.2605   20.2586 C   0  0  0  0  0  0  0  0  0  0  0  0
  -31.0510  -26.0060   19.2281 C   0  0  0  0  0  0  0  0  0  0  0  0
  -23.5256  -21.0625   20.7775 C   0  0  0  0  0  0  0  0  0  0  0  0
  -30.8375  -27.3417   16.3821 C   0  0  0  0  0  0  0  0  0  0  0  0
  -28.6053  -24.3113   12.7464 C   0  0  0  0  0  0  0  0  0  0  0  0
  -29.0469  -25.7629   12.7397 C   0  0  0  0  0  0  0  0  0  0  0  0
  -30.5876  -27.3698   13.8723 C   0  0  0  0  0  0  0  0  0  0  0  0
  -29.1804  -27.6538   18.9652 C   0  0  0  0  0  0  0  0  0  1  0  0
  -22.9491  -24.4342   24.4016 C   0  0  1  0  0  0  0  0  0  0  0  0
  -22.9559  -20.8393   23.1991 C   0  0  2  0  0  0  0  0  0  0  0  0
  -31.5873  -27.5259   15.0313 C   0  0  2  0  0  0  0  0  0  0  0  0
  -22.6494  -24.7745   25.8888 C   0  0  0  0  0  0  0  0  0  0  0  0
  -31.4194  -28.0700   17.6513 C   0  0  0  0  0  0  0  0  0  0  0  0
  -30.7322  -27.5075   19.0031 C   0  0  0  0  0  0  0  0  0  0  0  0
  -28.3272  -19.9239   19.1587 N   0  0  0  0  0  0  0  0  0  0  0  0
  -28.7954  -21.1760   19.2976 N   0  0  0  0  0  0  0  0  0  0  0  0
  -22.9918  -26.1031   22.5748 N   0  0  0  0  0  0  0  0  0  0  0  0
  -27.6879  -22.6990   15.9744 N   0  0  0  0  0  0  0  0  0  0  0  0
  -30.1979  -22.5297   20.6432 N   0  0  0  0  0  0  0  0  0  0  0  0
  -30.4811  -18.4690   22.5993 N   0  0  0  0  0  0  0  0  0  0  0  0
  -21.4160  -29.2962   22.3487 N   0  0  0  0  0  0  0  0  0  0  0  0
  -22.6117  -23.0666   24.0218 N   0  0  0  0  0  0  0  0  0  0  0  0
  -27.9453  -23.9451   13.9798 N   0  0  0  0  0  0  0  0  0  0  0  0
  -23.6242  -20.2390   22.0100 N   0  3  0  0  0  0  0  0  0  0  0  0
  -30.0394  -25.9922   13.8249 N   0  3  0  0  0  0  0  0  0  0  0  0
  -31.1855  -20.6479   22.7216 O   0  0  0  0  0  0  0  0  0  0  0  0
  -23.4755  -28.6288   23.2064 O   0  0  0  0  0  0  0  0  0  0  0  0
  -20.9721  -25.3486   23.4624 O   0  0  0  0  0  0  0  0  0  0  0  0
  -24.7387  -22.4653   23.3207 O   0  0  0  0  0  0  0  0  0  0  0  0
  -29.4550  -22.3082   14.5242 O   0  0  0  0  0  0  0  0  0  0  0  0
  -27.8892  -13.8257   20.9388 O   0  0  0  0  0  0  0  0  0  0  0  0
  -28.5757  -27.1062   20.1347 O   0  0  0  0  0  0  0  0  0  1  0  0
  -22.6637  -12.1115   20.5398 F   0  0  0  0  0  0  0  0  0  0  0  0
  -26.6308  -12.6024   23.0748 F   0  0  0  0  0  0  0  0  0  0  0  0
  1  2  1  0  0  0  0
  1  5  2  0  0  0  0
  2  6  2  0  0  0  0
  3  8  2  0  0  0  0
  3 15  1  0  0  0  0
  4  9  1  0  0  0  0
  4 15  2  0  0  0  0
  5 17  1  0  0  0  0
  6 19  1  0  0  0  0
  7 10  2  0  0  0  0
  7 18  1  0  0  0  0
  8 21  1  0  0  0  0
  9 21  2  0  0  0  0
 10 22  1  0  0  0  0
 11 12  2  0  0  0  0
 11 23  1  0  0  0  0
 12 24  1  0  0  0  0
 13 20  1  0  0  0  0
 13 22  2  0  0  0  0
 14 24  2  0  0  0  0
 14 25  1  0  0  0  0
 15 26  1  0  0  0  0
 16 26  1  0  0  0  0
 16 27  2  0  0  0  0
 16 28  1  0  0  0  0
 17 19  2  0  0  0  0
 17 33  1  0  0  0  0
 18 20  2  0  0  0  0
 18 34  1  0  0  0  0
 19 42  1  0  0  0  0
 20 35  1  0  0  0  0
 21 82  1  0  0  0  0
 22 83  1  0  0  0  0
 23 25  2  0  0  0  0
 23 82  1  0  0  0  0
 24 84  1  0  0  0  0
 25 85  1  0  0  0  0
 26 66  2  0  0  0  0
 27 67  1  0  0  0  0
 27 70  1  0  0  0  0
 28 71  1  0  0  0  0
 28 77  2  0  0  0  0
 29 43  1  0  0  0  0
 29 72  1  0  0  0  0
 29 78  2  0  0  0  0
 30 60  1  0  0  0  0
 30 68  1  0  0  0  0
 30 79  2  0  0  0  0
 31 61  1  0  0  0  0
 31 73  1  0  0  0  0
 31 80  2  0  0  0  0
 32 69  1  0  0  0  0
 32 74  1  0  0  0  0
 32 81  2  0  0  0  0
 33 36  1  0  0  0  0
 34 43  1  0  0  0  0
 35 68  1  0  0  0  0
 36 38  1  0  0  0  0
 37 39  1  0  0  0  0
 37 40  1  0  0  0  0
 38 42  1  0  0  0  0
 39 44  1  0  0  0  0
 40 69  1  0  0  0  0
 41 44  1  0  0  0  0
 41 69  1  0  0  0  0
 42 72  1  0  0  0  0
 43 68  1  0  0  0  0
 44 67  1  0  0  0  0
 45 61  1  0  0  0  0
 46 62  1  0  0  0  0
 47 63  1  0  0  0  0
 48 63  1  0  0  0  0
 49 63  1  0  0  0  0
 50 64  1  0  0  0  0
 51 64  1  0  0  0  0
 52 65  1  0  0  0  0
 53 65  1  0  0  0  0
 54 75  1  0  0  0  0
 55 62  1  0  0  0  0
 55 64  1  0  0  0  0
 56 57  1  0  0  0  0
 56 74  1  0  0  0  0
 57 76  1  0  0  0  0
 58 62  1  0  0  0  0
 58 76  1  0  0  0  0
 59 65  1  0  0  0  0
 59 83  1  0  0  0  0
 60 63  1  0  0  0  0
 60 73  1  0  0  0  0
 61 75  1  0  0  0  0
 64 65  1  0  0  0  0
 66 67  1  0  0  0  0
M  CHG  2  75   1  76   1
M  ISO  4  32 100  59 101  74 100  83 101
M  END
> <Batch ID>
0100

> <Smiles>
CNC(C)C(=O)NC(C(=O)N1Cc2cc([101O:1][101CH2:1]C(C)(C)C(C)(C)CC(C)CNCC[100NH:0][100C:0](=O)N3CCCC(n4nc(-c5ccc(Oc6ccc(F)cc6F)cc5)c(C(N)=O)c4N)C3)ccc2CC1C(=O)NC1CCCc2ccccc21)C(C)(C)C

> <Shape>
0.182

> <Color>
0.075

> <Negative vol penalty>
0.000

$$$$

  -OEChem-04052319333D

 88 96  0     1  0  0  0  0  0999 V2000
  -28.7640  -32.2336   27.0250 C   0  0  0  0  0  0  0  0  0  0  0  0
  -28.2584  -30.9378   26.9991 C   0  0  0  0  0  0  0  0  0  0  0  0
  -24.5060   -9.8937   22.1405 C   0  0  0  0  0  0  0  0  0  0  0  0
  -24.5894  -11.3507   24.0659 C   0  0  0  0  0  0  0  0  0  0  0  0
  -28.0749  -33.2625   26.3844 C   0  0  0  0  0  0  0  0  0  0  0  0
  -27.0627  -30.6704   26.3333 C   0  0  0  0  0  0  0  0  0  0  0  0
  -27.3195  -26.4942   23.4805 C   0  0  0  0  0  0  0  0  0  0  0  0
  -24.1247   -8.8318   22.9605 C   0  0  0  0  0  0  0  0  0  0  0  0
  -24.2081  -10.2887   24.8860 C   0  0  0  0  0  0  0  0  0  0  0  0
  -27.2202  -25.2680   24.1364 C   0  0  0  0  0  0  0  0  0  0  0  0
  -21.3039   -7.7394   24.4715 C   0  0  0  0  0  0  0  0  0  0  0  0
  -20.2557   -6.9285   24.0366 C   0  0  0  0  0  0  0  0  0  0  0  0
  -24.9002  -25.1183   23.4925 C   0  0  0  0  0  0  0  0  0  0  0  0
  -28.3610  -22.4417   20.5252 C   0  0  0  0  0  0  0  0  0  0  0  0
  -21.7274   -5.0127   24.0615 C   0  0  0  0  0  0  0  0  0  0  0  0
  -30.6460  -22.3642   21.1806 C   0  0  0  0  0  0  0  0  0  0  0  0
  -24.7383  -11.1532   22.6932 C   0  0  0  0  0  0  0  0  0  0  0  0
  -24.2869  -13.1652   21.1913 C   0  0  0  0  0  0  0  0  0  0  0  0
  -26.8752  -33.0058   25.7022 C   0  0  0  0  0  0  0  0  0  0  0  0
  -26.2051  -27.0479   22.8339 C   0  0  0  0  0  0  0  0  0  0  0  0
  -26.3562  -31.6971   25.6841 C   0  0  0  0  0  0  0  0  0  0  0  0
  -24.9887  -26.3505   22.8269 C   0  0  0  0  0  0  0  0  0  0  0  0
  -29.4354  -21.7099   21.0185 C   0  0  0  0  0  0  0  0  0  0  0  0
  -28.5276  -23.7865   20.2136 C   0  0  0  0  0  0  0  0  0  0  0  0
  -23.9757   -9.0293   24.3333 C   0  0  0  0  0  0  0  0  0  0  0  0
  -26.0096  -24.5812   24.1449 C   0  0  0  0  0  0  0  0  0  0  0  0
  -22.5640   -7.1870   24.7013 C   0  0  0  0  0  0  0  0  0  0  0  0
  -20.4674   -5.5651   23.8316 C   0  0  0  0  0  0  0  0  0  0  0  0
  -22.7757   -5.8236   24.4963 C   0  0  0  0  0  0  0  0  0  0  0  0
  -25.1328  -12.2504   21.8467 C   0  0  0  0  0  0  0  0  0  0  0  0
  -29.7787  -24.3479   20.4119 C   0  0  0  0  0  0  0  0  0  0  0  0
  -25.1426  -14.0043   20.5204 C   0  0  0  0  0  0  0  0  0  0  0  0
  -22.8556  -13.2491   21.1893 C   0  0  0  0  0  0  0  0  0  0  0  0
  -24.4980  -29.7058   23.1871 C   0  0  0  0  0  0  0  0  0  0  0  0
  -23.0351  -28.6607   20.4871 C   0  0  0  0  0  0  0  0  0  0  0  0
  -22.2270  -26.0371   18.4597 C   0  0  0  0  0  0  0  0  0  0  0  0
  -29.7706  -17.1188   20.3554 C   0  0  0  0  0  0  0  0  0  0  0  0
  -26.1415  -34.1590   25.0647 C   0  0  0  0  0  0  0  0  0  0  0  0
  -26.3358  -28.3588   22.1081 C   0  0  0  0  0  0  0  0  0  0  0  0
  -23.7681  -26.8921   22.1303 C   0  0  0  0  0  0  0  0  0  0  0  0
  -25.0748  -33.7234   24.0633 C   0  0  0  0  0  0  0  0  0  0  0  0
  -30.1159  -13.6419   19.6709 C   0  0  0  0  0  0  0  0  0  0  0  0
  -24.2227  -32.6003   24.6458 C   0  0  0  0  0  0  0  0  0  0  0  0
  -28.7835  -13.0451   20.1275 C   0  0  0  0  0  0  0  0  0  0  0  0
  -30.5645  -14.7832   20.5810 C   0  0  0  0  0  0  0  0  0  0  0  0
  -28.2339  -15.2552   21.2284 C   0  0  0  0  0  0  0  0  0  0  0  0
  -25.0750  -31.3627   24.9513 C   0  0  1  0  0  0  0  0  0  0  0  0
  -25.0011  -29.0734   21.9203 C   0  0  1  0  0  0  0  0  0  0  0  0
  -27.7126  -14.1376   20.3090 C   0  0  2  0  0  0  0  0  0  0  0  0
  -27.3811  -24.5760   19.6830 C   0  0  0  0  0  0  0  0  0  0  0  0
  -31.0547  -26.4197   21.0172 C   0  0  0  0  0  0  0  0  0  0  0  0
  -21.3218  -24.8423   16.4471 C   0  0  0  0  0  0  0  0  0  0  0  0
  -27.3420  -18.6944   24.9765 C   0  0  0  0  0  0  0  0  0  0  0  0
  -20.3816  -28.9357   21.9681 C   0  0  0  0  0  0  0  0  0  0  0  0
  -19.3266  -27.5122   20.1992 C   0  0  0  0  0  0  0  0  0  0  0  0
  -20.3348  -29.7114   19.5910 C   0  0  0  0  0  0  0  0  0  0  0  0
  -24.7942  -26.2921   17.0095 C   0  0  0  0  0  0  0  0  0  0  0  0
  -30.0159  -25.7884   20.0953 C   0  0  0  0  0  0  0  0  0  0  0  0
  -26.6759  -21.1148   24.9059 C   0  0  0  0  0  0  0  0  0  0  0  0
  -28.8263  -19.4066   20.1722 C   0  0  0  0  0  0  0  0  0  0  0  0
  -28.8984  -20.3362   23.8337 C   0  0  0  0  0  0  0  0  0  0  0  0
  -27.0874  -22.5809   24.8471 C   0  0  0  0  0  0  0  0  0  1  0  0
  -29.2874  -20.2458   21.3681 C   0  0  2  0  0  0  0  0  0  0  0  0
  -21.8488  -27.7765   20.1877 C   0  0  1  0  0  0  0  0  0  0  0  0
  -22.3356  -25.8549   16.9566 C   0  0  2  0  0  0  0  0  0  0  0  0
  -27.8637  -20.1357   24.9495 C   0  0  2  0  0  0  0  0  0  0  0  0
  -20.4953  -28.4744   20.5014 C   0  0  0  0  0  0  0  0  0  0  0  0
  -30.8460  -23.6690   20.8890 N   0  0  0  0  0  0  0  0  0  0  0  0
  -26.4266  -12.4859   21.6130 N   0  0  0  0  0  0  0  0  0  0  0  0
  -26.4001  -13.5582   20.8033 N   0  0  0  0  0  0  0  0  0  0  0  0
  -23.9445  -28.1805   21.4400 N   0  0  0  0  0  0  0  0  0  0  0  0
  -29.5044  -15.7860   20.7099 N   0  0  0  0  0  0  0  0  0  0  0  0
  -24.9347  -15.0727   19.7218 N   0  0  0  0  0  0  0  0  0  0  0  0
  -22.1301  -12.3077   21.9321 N   0  0  0  0  0  0  0  0  0  0  0  0
  -25.3628  -30.6343   23.7343 N   0  0  0  0  0  0  0  0  0  0  0  0
  -21.9952  -27.3532   18.7992 N   0  0  0  0  0  0  0  0  0  0  0  0
  -28.7092  -18.0036   20.5017 N   0  0  0  0  0  0  0  0  0  0  0  0
  -23.6996  -25.3797   16.5896 N   0  3  0  0  0  0  0  0  0  0  0  0
  -28.3397  -20.0289   22.4959 N   0  3  0  0  0  0  0  0  0  0  0  0
  -22.2377  -14.1226   20.5346 O   0  0  0  0  0  0  0  0  0  0  0  0
  -23.4055  -29.3768   23.6341 O   0  0  0  0  0  0  0  0  0  0  0  0
  -23.1544  -29.7346   19.8919 O   0  0  0  0  0  0  0  0  0  0  0  0
  -22.3331  -25.1045   19.2531 O   0  0  0  0  0  0  0  0  0  0  0  0
  -30.8708  -17.4916   19.9343 O   0  0  0  0  0  0  0  0  0  0  0  0
  -23.6035   -7.9933   25.1338 O   0  0  0  0  0  0  0  0  0  0  0  0
  -25.9098  -23.3844   24.7849 O   0  0  0  0  0  0  0  0  0  1  0  0
  -19.4603   -4.7862   23.4155 F   0  0  0  0  0  0  0  0  0  0  0  0
  -23.9838   -5.2870   24.7166 F   0  0  0  0  0  0  0  0  0  0  0  0
  1  2  1  0  0  0  0
  1  5  2  0  0  0  0
  2  6  2  0  0  0  0
  3  8  2  0  0  0  0
  3 17  1  0  0  0  0
  4  9  1  0  0  0  0
  4 17  2  0  0  0  0
  5 19  1  0  0  0  0
  6 21  1  0  0  0  0
  7 10  2  0  0  0  0
  7 20  1  0  0  0  0
  8 25  1  0  0  0  0
  9 25  2  0  0  0  0
 10 26  1  0  0  0  0
 11 12  2  0  0  0  0
 11 27  1  0  0  0  0
 12 28  1  0  0  0  0
 13 22  1  0  0  0  0
 13 26  2  0  0  0  0
 14 23  2  0  0  0  0
 14 24  1  0  0  0  0
 15 28  2  0  0  0  0
 15 29  1  0  0  0  0
 16 23  1  0  0  0  0
 16 68  2  0  0  0  0
 17 30  1  0  0  0  0
 18 30  1  0  0  0  0
 18 32  2  0  0  0  0
 18 33  1  0  0  0  0
 19 21  2  0  0  0  0
 19 38  1  0  0  0  0
 20 22  2  0  0  0  0
 20 39  1  0  0  0  0
 21 47  1  0  0  0  0
 22 40  1  0  0  0  0
 23 63  1  0  0  0  0
 24 31  2  0  0  0  0
 24 50  1  0  0  0  0
 25 85  1  0  0  0  0
 26 86  1  0  0  0  0
 27 29  2  0  0  0  0
 27 85  1  0  0  0  0
 28 87  1  0  0  0  0
 29 88  1  0  0  0  0
 30 69  2  0  0  0  0
 31 58  1  0  0  0  0
 31 68  1  0  0  0  0
 32 70  1  0  0  0  0
 32 73  1  0  0  0  0
 33 74  1  0  0  0  0
 33 80  2  0  0  0  0
 34 48  1  0  0  0  0
 34 75  1  0  0  0  0
 34 81  2  0  0  0  0
 35 64  1  0  0  0  0
 35 71  1  0  0  0  0
 35 82  2  0  0  0  0
 36 65  1  0  0  0  0
 36 76  1  0  0  0  0
 36 83  2  0  0  0  0
 37 72  1  0  0  0  0
 37 77  1  0  0  0  0
 37 84  2  0  0  0  0
 38 41  1  0  0  0  0
 39 48  1  0  0  0  0
 40 71  1  0  0  0  0
 41 43  1  0  0  0  0
 42 44  1  0  0  0  0
 42 45  1  0  0  0  0
 43 47  1  0  0  0  0
 44 49  1  0  0  0  0
 45 72  1  0  0  0  0
 46 49  1  0  0  0  0
 46 72  1  0  0  0  0
 47 75  1  0  0  0  0
 48 71  1  0  0  0  0
 49 70  1  0  0  0  0
 51 58  1  0  0  0  0
 52 65  1  0  0  0  0
 53 66  1  0  0  0  0
 54 67  1  0  0  0  0
 55 67  1  0  0  0  0
 56 67  1  0  0  0  0
 57 78  1  0  0  0  0
 59 62  1  0  0  0  0
 59 66  1  0  0  0  0
 60 63  1  0  0  0  0
 60 77  1  0  0  0  0
 61 66  1  0  0  0  0
 61 79  1  0  0  0  0
 62 86  1  0  0  0  0
 63 79  1  0  0  0  0
 64 67  1  0  0  0  0
 64 76  1  0  0  0  0
 65 78  1  0  0  0  0
 69 70  1  0  0  0  0
M  CHG  2  78   1  79   1
M  ISO  4  37 100  62 101  77 100  86 101
M  END
> <Batch ID>
0100

> <Smiles>
CCc1ncc(C(C[100NH:0][100C:0](=O)N2CCCC(n3nc(-c4ccc(Oc5ccc(F)cc5F)cc4)c(C(N)=O)c3N)C2)NCC(C)C[101CH2:1][101O:1]c2ccc3c(c2)CN(C(=O)C(NC(=O)C(C)NC)C(C)(C)C)C(C(=O)NC2CCCc4ccccc42)C3)cc1C

> <Shape>
0.280

> <Color>
0.090

> <Negative vol penalty>
0.000

$$$$

  -OEChem-04052319333D

 88 96  0     1  0  0  0  0  0999 V2000
  -37.3232  -26.2373   20.9739 C   0  0  0  0  0  0  0  0  0  0  0  0
  -36.1519  -25.6904   21.4881 C   0  0  0  0  0  0  0  0  0  0  0  0
  -22.6921  -10.1920   20.1656 C   0  0  0  0  0  0  0  0  0  0  0  0
  -24.3982   -9.4267   21.6954 C   0  0  0  0  0  0  0  0  0  0  0  0
  -37.3754  -27.5928   20.6515 C   0  0  0  0  0  0  0  0  0  0  0  0
  -35.0324  -26.4991   21.6813 C   0  0  0  0  0  0  0  0  0  0  0  0
  -30.7599  -24.3236   20.0508 C   0  0  0  0  0  0  0  0  0  0  0  0
  -21.9884   -9.0028   20.3554 C   0  0  0  0  0  0  0  0  0  0  0  0
  -23.6945   -8.2374   21.8853 C   0  0  0  0  0  0  0  0  0  0  0  0
  -30.1888  -23.3499   20.8689 C   0  0  0  0  0  0  0  0  0  0  0  0
  -21.0103   -7.1879   23.6500 C   0  0  0  0  0  0  0  0  0  0  0  0
  -20.8664   -6.7235   24.9573 C   0  0  0  0  0  0  0  0  0  0  0  0
  -28.6095  -24.9768   21.6924 C   0  0  0  0  0  0  0  0  0  0  0  0
  -26.1378  -19.4247   19.8275 C   0  0  0  0  0  0  0  0  0  0  0  0
  -22.0224   -4.6875   24.3613 C   0  0  0  0  0  0  0  0  0  0  0  0
  -27.6651  -18.3681   18.5544 C   0  0  0  0  0  0  0  0  0  0  0  0
  -23.8970  -10.4040   20.8356 C   0  0  0  0  0  0  0  0  0  0  0  0
  -24.1753  -12.9388   20.9086 C   0  0  0  0  0  0  0  0  0  0  0  0
  -36.2530  -28.4163   20.8318 C   0  0  0  0  0  0  0  0  0  0  0  0
  -30.2663  -25.6361   20.0554 C   0  0  0  0  0  0  0  0  0  0  0  0
  -35.0701  -27.8671   21.3622 C   0  0  0  0  0  0  0  0  0  0  0  0
  -29.1744  -25.9647   20.8715 C   0  0  0  0  0  0  0  0  0  0  0  0
  -26.4559  -19.0258   18.5058 C   0  0  0  0  0  0  0  0  0  0  0  0
  -22.4896   -8.0255   21.2153 C   0  0  0  0  0  0  0  0  0  0  0  0
  -29.1153  -23.6771   21.6921 C   0  0  0  0  0  0  0  0  0  0  0  0
  -21.6603   -6.4021   22.6982 C   0  0  0  0  0  0  0  0  0  0  0  0
  -21.3724   -5.4733   25.3130 C   0  0  0  0  0  0  0  0  0  0  0  0
  -22.1664   -5.1519   23.0539 C   0  0  0  0  0  0  0  0  0  0  0  0
  -24.6247  -11.6321   20.6395 C   0  0  0  0  0  0  0  0  0  0  0  0
  -27.1626  -18.9987   20.6435 C   0  0  0  0  0  0  0  0  0  0  0  0
  -25.2299  -13.7443   20.5547 C   0  0  0  0  0  0  0  0  0  0  0  0
  -22.9170  -13.3845   21.4319 C   0  0  0  0  0  0  0  0  0  0  0  0
  -31.4717  -28.4835   20.7924 C   0  0  0  0  0  0  0  0  0  0  0  0
  -28.6271  -29.5489   19.6542 C   0  0  0  0  0  0  0  0  0  0  0  0
  -25.3443  -28.8947   18.9892 C   0  0  0  0  0  0  0  0  0  0  0  0
  -30.8430  -14.5537   20.9488 C   0  0  0  0  0  0  0  0  0  0  0  0
  -36.3721  -29.8857   20.5131 C   0  0  0  0  0  0  0  0  0  0  0  0
  -30.8762  -26.6684   19.1472 C   0  0  0  0  0  0  0  0  0  0  0  0
  -28.5942  -27.3543   20.8983 C   0  0  0  0  0  0  0  0  0  0  0  0
  -35.0253  -30.5947   20.3965 C   0  0  0  0  0  0  0  0  0  0  0  0
  -29.4846  -12.7126   18.0391 C   0  0  0  0  0  0  0  0  0  0  0  0
  -34.1179  -30.2122   21.5615 C   0  0  0  0  0  0  0  0  0  0  0  0
  -28.0881  -12.3182   18.5169 C   0  0  0  0  0  0  0  0  0  0  0  0
  -30.4631  -12.8528   19.2012 C   0  0  0  0  0  0  0  0  0  0  0  0
  -28.6072  -13.3908   20.7441 C   0  0  0  0  0  0  0  0  0  0  0  0
  -33.8270  -28.7066   21.5628 C   0  0  1  0  0  0  0  0  0  0  0  0
  -30.6233  -28.0988   19.6134 C   0  0  1  0  0  0  0  0  0  0  0  0
  -27.5856  -13.2866   19.6018 C   0  0  2  0  0  0  0  0  0  0  0  0
  -26.6908  -21.5478   16.7461 C   0  0  0  0  0  0  0  0  0  0  0  0
  -24.2531  -17.1176   17.4964 C   0  0  0  0  0  0  0  0  0  0  0  0
  -26.2319  -18.4113   22.8971 C   0  0  0  0  0  0  0  0  0  0  0  0
  -23.2623  -29.9740   18.0960 C   0  0  0  0  0  0  0  0  0  0  0  0
  -28.2760  -31.0468   22.2892 C   0  0  0  0  0  0  0  0  0  0  0  0
  -25.8466  -31.3017   21.7402 C   0  0  0  0  0  0  0  0  0  0  0  0
  -27.5724  -32.3274   20.2595 C   0  0  0  0  0  0  0  0  0  0  0  0
  -31.2655  -16.6685   22.1441 C   0  0  0  0  0  0  0  0  0  0  0  0
  -25.1622  -26.9628   16.7547 C   0  0  0  0  0  0  0  0  0  0  0  0
  -26.3586  -20.1540   16.2260 C   0  0  0  0  0  0  0  0  0  0  0  0
  -25.1511  -17.9595   16.5976 C   0  0  0  0  0  0  0  0  0  0  0  0
  -27.4046  -20.6254   22.5962 C   0  0  0  0  0  0  0  0  0  0  0  0
  -29.3182  -17.7571   20.3190 C   0  0  0  0  0  0  0  0  0  0  0  0
  -29.1088  -16.3961   20.9778 C   0  0  0  0  0  0  0  0  0  0  0  0
  -28.6048  -21.3791   22.0310 C   0  0  0  0  0  0  0  0  0  1  0  0
  -25.6426  -19.2689   17.2992 C   0  0  0  0  0  0  0  0  0  0  0  0
  -27.3423  -19.1537   22.1438 C   0  0  2  0  0  0  0  0  0  0  0  0
  -27.2683  -29.8175   20.2546 C   0  0  1  0  0  0  0  0  0  0  0  0
  -24.4957  -29.1513   17.7570 C   0  0  2  0  0  0  0  0  0  0  0  0
  -27.2528  -31.0975   21.1370 C   0  0  0  0  0  0  0  0  0  0  0  0
  -25.8679  -11.6046   20.1520 N   0  0  0  0  0  0  0  0  0  0  0  0
  -28.0855  -18.3580   19.8588 N   0  0  0  0  0  0  0  0  0  0  0  0
  -26.2087  -12.9040   20.1120 N   0  0  0  0  0  0  0  0  0  0  0  0
  -29.2292  -28.3300   19.9971 N   0  0  0  0  0  0  0  0  0  0  0  0
  -29.9417  -13.7446   20.2376 N   0  0  0  0  0  0  0  0  0  0  0  0
  -25.4062  -15.0825   20.5820 N   0  0  0  0  0  0  0  0  0  0  0  0
  -22.7778  -13.5101   22.8208 N   0  0  0  0  0  0  0  0  0  0  0  0
  -32.8309  -28.3833   20.5640 N   0  0  0  0  0  0  0  0  0  0  0  0
  -26.3282  -29.8490   19.1395 N   0  0  0  0  0  0  0  0  0  0  0  0
  -30.3655  -15.7893   21.4114 N   0  0  0  0  0  0  0  0  0  0  0  0
  -24.0502  -27.8618   17.1572 N   0  3  0  0  0  0  0  0  0  0  0  0
  -21.9398  -13.6474   20.6907 O   0  0  0  0  0  0  0  0  0  0  0  0
  -30.9331  -28.8459   21.8317 O   0  0  0  0  0  0  0  0  0  0  0  0
  -29.1325  -30.3866   18.9028 O   0  0  0  0  0  0  0  0  0  0  0  0
  -25.1513  -27.9450   19.7451 O   0  0  0  0  0  0  0  0  0  0  0  0
  -32.0108  -14.1964   21.1502 O   0  0  0  0  0  0  0  0  0  0  0  0
  -21.8031   -6.8650   21.4009 O   0  0  0  0  0  0  0  0  0  0  0  0
  -28.5564  -22.7287   22.4921 O   0  0  0  0  0  0  0  0  0  1  0  0
  -21.2355   -5.0281   26.5689 F   0  0  0  0  0  0  0  0  0  0  0  0
  -22.7928   -4.3930   22.1443 F   0  0  0  0  0  0  0  0  0  0  0  0
  1  2  1  0  0  0  0
  1  5  2  0  0  0  0
  2  6  2  0  0  0  0
  3  8  2  0  0  0  0
  3 17  1  0  0  0  0
  4  9  1  0  0  0  0
  4 17  2  0  0  0  0
  5 19  1  0  0  0  0
  6 21  1  0  0  0  0
  7 10  2  0  0  0  0
  7 20  1  0  0  0  0
  8 24  1  0  0  0  0
  9 24  2  0  0  0  0
 10 25  1  0  0  0  0
 11 12  2  0  0  0  0
 11 26  1  0  0  0  0
 12 27  1  0  0  0  0
 13 22  1  0  0  0  0
 13 25  2  0  0  0  0
 14 23  1  0  0  0  0
 14 30  2  0  0  0  0
 15 27  2  0  0  0  0
 15 28  1  0  0  0  0
 16 23  2  0  0  0  0
 16 70  1  0  0  0  0
 17 29  1  0  0  0  0
 18 29  1  0  0  0  0
 18 31  2  0  0  0  0
 18 32  1  0  0  0  0
 19 21  2  0  0  0  0
 19 37  1  0  0  0  0
 20 22  2  0  0  0  0
 20 38  1  0  0  0  0
 21 46  1  0  0  0  0
 22 39  1  0  0  0  0
 23 64  1  0  0  0  0
 24 85  1  0  0  0  0
 25 86  1  0  0  0  0
 26 28  2  0  0  0  0
 26 85  1  0  0  0  0
 27 87  1  0  0  0  0
 28 88  1  0  0  0  0
 29 69  2  0  0  0  0
 30 65  1  0  0  0  0
 30 70  1  0  0  0  0
 31 71  1  0  0  0  0
 31 74  1  0  0  0  0
 32 75  1  0  0  0  0
 32 80  2  0  0  0  0
 33 47  1  0  0  0  0
 33 76  1  0  0  0  0
 33 81  2  0  0  0  0
 34 66  1  0  0  0  0
 34 72  1  0  0  0  0
 34 82  2  0  0  0  0
 35 67  1  0  0  0  0
 35 77  1  0  0  0  0
 35 83  2  0  0  0  0
 36 73  1  0  0  0  0
 36 78  1  0  0  0  0
 36 84  2  0  0  0  0
 37 40  1  0  0  0  0
 38 47  1  0  0  0  0
 39 72  1  0  0  0  0
 40 42  1  0  0  0  0
 41 43  1  0  0  0  0
 41 44  1  0  0  0  0
 42 46  1  0  0  0  0
 43 48  1  0  0  0  0
 44 73  1  0  0  0  0
 45 48  1  0  0  0  0
 45 73  1  0  0  0  0
 46 76  1  0  0  0  0
 47 72  1  0  0  0  0
 48 71  1  0  0  0  0
 49 58  1  0  0  0  0
 50 59  1  0  0  0  0
 51 65  1  0  0  0  0
 52 67  1  0  0  0  0
 53 68  1  0  0  0  0
 54 68  1  0  0  0  0
 55 68  1  0  0  0  0
 56 78  1  0  0  0  0
 57 79  1  0  0  0  0
 58 64  1  0  0  0  0
 59 64  1  0  0  0  0
 60 63  1  0  0  0  0
 60 65  1  0  0  0  0
 61 62  1  0  0  0  0
 61 70  1  0  0  0  0
 62 78  1  0  0  0  0
 63 86  1  0  0  0  0
 66 68  1  0  0  0  0
 66 77  1  0  0  0  0
 67 79  1  0  0  0  0
 69 71  1  0  0  0  0
M  CHG  1  79   1
M  ISO  4  36 100  63 101  78 100  86 101
M  END
> <Batch ID>
0100

> <Smiles>
CCC(CC)c1cc(C(C)C[101CH2:1][101O:1]c2ccc3c(c2)CN(C(=O)C(NC(=O)C(C)NC)C(C)(C)C)C(C(=O)NC2CCCc4ccccc42)C3)n(CC[100N:0](C)[100C:0](=O)N2CCCC(n3nc(-c4ccc(Oc5ccc(F)cc5F)cc4)c(C(N)=O)c3N)C2)c1

> <Shape>
0.311

> <Color>
0.162

> <Negative vol penalty>
0.000

$$$$

  -OEChem-04052319333D

 81 88  0     1  0  0  0  0  0999 V2000
  -28.4846  -19.9239   15.7705 C   0  0  0  0  0  0  0  0  0  0  0  0
  -27.5110  -20.0058   16.7596 C   0  0  0  0  0  0  0  0  0  0  0  0
  -26.3865  -13.1875   19.5708 C   0  0  0  0  0  0  0  0  0  0  0  0
  -25.1951  -13.3101   21.6690 C   0  0  0  0  0  0  0  0  0  0  0  0
  -29.4695  -20.9055   15.6844 C   0  0  0  0  0  0  0  0  0  0  0  0
  -27.5150  -21.0756   17.6554 C   0  0  0  0  0  0  0  0  0  0  0  0
  -23.9793  -22.2097   22.4866 C   0  0  0  0  0  0  0  0  0  0  0  0
  -26.1998  -11.8055   19.5454 C   0  0  0  0  0  0  0  0  0  0  0  0
  -25.0083  -11.9280   21.6436 C   0  0  0  0  0  0  0  0  0  0  0  0
  -23.9996  -21.9597   23.8581 C   0  0  0  0  0  0  0  0  0  0  0  0
  -22.9677   -9.7199   20.1007 C   0  0  0  0  0  0  0  0  0  0  0  0
  -21.6987   -9.2331   20.4141 C   0  0  0  0  0  0  0  0  0  0  0  0
  -24.9158  -24.1585   24.2393 C   0  0  0  0  0  0  0  0  0  0  0  0
  -22.6319   -7.9915   22.2646 C   0  0  0  0  0  0  0  0  0  0  0  0
  -25.8842  -13.9398   20.6326 C   0  0  0  0  0  0  0  0  0  0  0  0
  -25.2269  -16.3507   20.1195 C   0  0  0  0  0  0  0  0  0  0  0  0
  -29.4922  -21.9809   16.5879 C   0  0  0  0  0  0  0  0  0  0  0  0
  -24.4381  -23.4340   21.9795 C   0  0  0  0  0  0  0  0  0  0  0  0
  -28.4867  -22.0890   17.5699 C   0  0  0  0  0  0  0  0  0  0  0  0
  -24.8979  -24.4225   22.8612 C   0  0  0  0  0  0  0  0  0  0  0  0
  -25.5106  -11.1757   20.5818 C   0  0  0  0  0  0  0  0  0  0  0  0
  -24.4706  -22.9330   24.7344 C   0  0  0  0  0  0  0  0  0  0  0  0
  -24.0689   -9.3424   20.8692 C   0  0  0  0  0  0  0  0  0  0  0  0
  -21.5308   -8.3689   21.4960 C   0  0  0  0  0  0  0  0  0  0  0  0
  -23.9010   -8.4782   21.9512 C   0  0  0  0  0  0  0  0  0  0  0  0
  -26.0773  -15.3675   20.6596 C   0  0  0  0  0  0  0  0  0  0  0  0
  -25.8516  -17.5399   20.4058 C   0  0  0  0  0  0  0  0  0  0  0  0
  -23.9833  -16.2023   19.4215 C   0  0  0  0  0  0  0  0  0  0  0  0
  -26.7822  -24.3137   20.0212 C   0  0  0  0  0  0  0  0  0  0  0  0
  -25.4110  -27.2378   20.3237 C   0  0  0  0  0  0  0  0  0  0  0  0
  -23.4707  -29.3507   22.1724 C   0  0  0  0  0  0  0  0  0  0  0  0
  -29.6158  -19.0747   24.6872 C   0  0  0  0  0  0  0  0  0  0  0  0
  -30.5766  -23.0195   16.4443 C   0  0  0  0  0  0  0  0  0  0  0  0
  -24.3846  -23.6982   20.4997 C   0  0  0  0  0  0  0  0  0  0  0  0
  -25.3824  -25.7610   22.3690 C   0  0  0  0  0  0  0  0  0  0  0  0
  -30.7605  -23.8645   17.7007 C   0  0  0  0  0  0  0  0  0  0  0  0
  -30.1986  -19.4068   21.1309 C   0  0  0  0  0  0  0  0  0  0  0  0
  -29.4133  -24.3855   18.1783 C   0  0  0  0  0  0  0  0  0  0  0  0
  -29.1143  -18.4921   20.5582 C   0  0  0  0  0  0  0  0  0  0  0  0
  -30.7868  -18.8301   22.4152 C   0  0  0  0  0  0  0  0  0  0  0  0
  -28.6967  -17.6191   22.9042 C   0  0  0  0  0  0  0  0  0  0  0  0
  -28.4890  -23.2271   18.5745 C   0  0  1  0  0  0  0  0  0  0  0  0
  -25.3561  -24.7858   20.0515 C   0  0  1  0  0  0  0  0  0  0  0  0
  -28.0467  -18.1579   21.6168 C   0  0  2  0  0  0  0  0  0  0  0  0
  -24.2719  -20.0345   27.2868 C   0  0  0  0  0  0  0  0  0  0  0  0
  -22.5591  -31.6887   22.1800 C   0  0  0  0  0  0  0  0  0  0  0  0
  -31.8999  -20.1191   27.1343 C   0  0  0  0  0  0  0  0  0  0  0  0
  -28.1540  -28.3022   21.1318 C   0  0  0  0  0  0  0  0  0  0  0  0
  -27.0200  -30.3479   22.0247 C   0  0  0  0  0  0  0  0  0  0  0  0
  -26.8656  -29.7979   19.5965 C   0  0  0  0  0  0  0  0  0  0  0  0
  -25.8085  -22.6019   28.0526 C   0  0  0  0  0  0  0  0  0  0  0  0
  -20.6735  -28.3841   22.1521 C   0  0  0  0  0  0  0  0  0  0  0  0
  -25.4969  -20.5695   26.5600 C   0  0  0  0  0  0  0  0  0  0  0  0
  -30.6039  -22.0976   26.2655 C   0  0  0  0  0  0  0  0  0  0  0  0
  -29.3448  -22.5828   25.5557 C   0  0  0  0  0  0  0  0  0  0  0  0
  -26.8583  -22.6362   25.7865 C   0  0  0  0  0  0  0  0  0  0  0  0
  -25.5778  -28.4044   21.2673 C   0  0  1  0  0  0  0  0  0  0  0  0
  -22.3032  -30.2417   21.7883 C   0  0  2  0  0  0  0  0  0  0  0  0
  -30.6553  -20.5673   26.3750 C   0  0  1  0  0  0  0  0  0  0  0  0
  -26.8971  -29.1872   21.0145 C   0  0  0  0  0  0  0  0  0  0  0  0
  -25.6766  -22.1018   26.6081 C   0  0  2  0  0  0  0  0  0  1  0  0
  -27.1599  -15.8869   21.2446 N   0  0  0  0  0  0  0  0  0  0  0  0
  -26.9940  -17.2095   21.0736 N   0  0  0  0  0  0  0  0  0  0  0  0
  -25.3163  -25.9692   20.9131 N   0  0  0  0  0  0  0  0  0  0  0  0
  -29.7204  -18.5516   23.3876 N   0  0  0  0  0  0  0  0  0  0  0  0
  -25.5298  -18.8255   20.1488 N   0  0  0  0  0  0  0  0  0  0  0  0
  -23.4843  -14.9093   19.2129 N   0  0  0  0  0  0  0  0  0  0  0  0
  -27.1613  -23.7454   18.8200 N   0  0  0  0  0  0  0  0  0  0  0  0
  -24.3695  -29.2114   21.1361 N   0  0  0  0  0  0  0  0  0  0  0  0
  -30.6293  -19.9446   25.0702 N   0  0  0  0  0  0  0  0  0  0  0  0
  -21.0575  -29.7844   22.4666 N   0  3  0  0  0  0  0  0  0  0  0  0
  -28.1532  -22.1700   26.3448 N   0  3  0  0  0  0  0  0  0  0  0  0
  -23.3420  -17.1863   18.9811 O   0  0  0  0  0  0  0  0  0  0  0  0
  -27.4869  -24.4559   21.0135 O   0  0  0  0  0  0  0  0  0  0  0  0
  -25.3593  -27.4454   19.1088 O   0  0  0  0  0  0  0  0  0  0  0  0
  -23.5768  -28.8332   23.2822 O   0  0  0  0  0  0  0  0  0  0  0  0
  -28.6846  -18.7915   25.4486 O   0  0  0  0  0  0  0  0  0  0  0  0
  -25.3280   -9.8272   20.5573 O   0  0  0  0  0  0  0  0  0  0  0  0
  -24.4921  -22.6913   26.0734 O   0  0  0  0  0  0  0  0  0  1  0  0
  -20.3118   -7.9028   21.7978 F   0  0  0  0  0  0  0  0  0  0  0  0
  -24.9549   -8.1130   22.6939 F   0  0  0  0  0  0  0  0  0  0  0  0
  1  2  1  0  0  0  0
  1  5  2  0  0  0  0
  2  6  2  0  0  0  0
  3  8  2  0  0  0  0
  3 15  1  0  0  0  0
  4  9  1  0  0  0  0
  4 15  2  0  0  0  0
  5 17  1  0  0  0  0
  6 19  1  0  0  0  0
  7 10  2  0  0  0  0
  7 18  1  0  0  0  0
  8 21  1  0  0  0  0
  9 21  2  0  0  0  0
 10 22  1  0  0  0  0
 11 12  2  0  0  0  0
 11 23  1  0  0  0  0
 12 24  1  0  0  0  0
 13 20  1  0  0  0  0
 13 22  2  0  0  0  0
 14 24  2  0  0  0  0
 14 25  1  0  0  0  0
 15 26  1  0  0  0  0
 16 26  1  0  0  0  0
 16 27  2  0  0  0  0
 16 28  1  0  0  0  0
 17 19  2  0  0  0  0
 17 33  1  0  0  0  0
 18 20  2  0  0  0  0
 18 34  1  0  0  0  0
 19 42  1  0  0  0  0
 20 35  1  0  0  0  0
 21 78  1  0  0  0  0
 22 79  1  0  0  0  0
 23 25  2  0  0  0  0
 23 78  1  0  0  0  0
 24 80  1  0  0  0  0
 25 81  1  0  0  0  0
 26 62  2  0  0  0  0
 27 63  1  0  0  0  0
 27 66  1  0  0  0  0
 28 67  1  0  0  0  0
 28 73  2  0  0  0  0
 29 43  1  0  0  0  0
 29 68  1  0  0  0  0
 29 74  2  0  0  0  0
 30 57  1  0  0  0  0
 30 64  1  0  0  0  0
 30 75  2  0  0  0  0
 31 58  1  0  0  0  0
 31 69  1  0  0  0  0
 31 76  2  0  0  0  0
 32 65  1  0  0  0  0
 32 70  1  0  0  0  0
 32 77  2  0  0  0  0
 33 36  1  0  0  0  0
 34 43  1  0  0  0  0
 35 64  1  0  0  0  0
 36 38  1  0  0  0  0
 37 39  1  0  0  0  0
 37 40  1  0  0  0  0
 38 42  1  0  0  0  0
 39 44  1  0  0  0  0
 40 65  1  0  0  0  0
 41 44  1  0  0  0  0
 41 65  1  0  0  0  0
 42 68  1  0  0  0  0
 43 64  1  0  0  0  0
 44 63  1  0  0  0  0
 45 53  1  0  0  0  0
 46 58  1  0  0  0  0
 47 59  1  0  0  0  0
 48 60  1  0  0  0  0
 49 60  1  0  0  0  0
 50 60  1  0  0  0  0
 51 61  1  0  0  0  0
 52 71  1  0  0  0  0
 53 61  1  0  0  0  0
 54 55  1  0  0  0  0
 54 59  1  0  0  0  0
 55 72  1  0  0  0  0
 56 61  1  0  0  0  0
 56 72  1  0  0  0  0
 57 60  1  0  0  0  0
 57 69  1  0  0  0  0
 58 71  1  0  0  0  0
 59 70  1  0  0  0  0
 61 79  1  0  0  0  0
 62 63  1  0  0  0  0
M  CHG  2  71   1  72   1
M  ISO  4  32 100  61 101  70 100  79 101
M  END
> <Batch ID>
0100

> <Smiles>
CC[101C:1](C)(CNCCC(C)[100NH:0][100C:0](=O)N1CCCC(n2nc(-c3ccc(Oc4ccc(F)cc4F)cc3)c(C(N)=O)c2N)C1)[101O:1]c1ccc2c(c1)CN(C(=O)C(NC(=O)C(C)NC)C(C)(C)C)C(C(=O)NC1CCCc3ccccc31)C2

> <Shape>
0.196

> <Color>
0.063

> <Negative vol penalty>
0.000

$$$$

  -OEChem-04052319333D

 83 91  0     1  0  0  0  0  0999 V2000
  -19.9847  -24.5003   21.9985 C   0  0  0  0  0  0  0  0  0  0  0  0
  -21.3705  -24.4535   22.1122 C   0  0  0  0  0  0  0  0  0  0  0  0
  -27.3076  -14.8381   21.6727 C   0  0  0  0  0  0  0  0  0  0  0  0
  -26.4553  -15.0323   19.4204 C   0  0  0  0  0  0  0  0  0  0  0  0
  -19.3607  -25.6714   21.5705 C   0  0  0  0  0  0  0  0  0  0  0  0
  -22.1331  -25.5776   21.7970 C   0  0  0  0  0  0  0  0  0  0  0  0
  -27.3257  -27.3791   24.4983 C   0  0  0  0  0  0  0  0  0  0  0  0
  -26.8415  -13.5250   21.7360 C   0  0  0  0  0  0  0  0  0  0  0  0
  -25.9892  -13.7191   19.4836 C   0  0  0  0  0  0  0  0  0  0  0  0
  -28.6668  -27.2239   24.1504 C   0  0  0  0  0  0  0  0  0  0  0  0
  -24.2572  -10.5381   19.1808 C   0  0  0  0  0  0  0  0  0  0  0  0
  -22.9700  -10.2835   18.7077 C   0  0  0  0  0  0  0  0  0  0  0  0
  -28.6501  -29.4116   23.1341 C   0  0  0  0  0  0  0  0  0  0  0  0
  -22.0662  -11.8163   20.3420 C   0  0  0  0  0  0  0  0  0  0  0  0
  -28.5077  -26.5616   19.1950 C   0  0  0  0  0  0  0  0  0  0  0  0
  -27.1144  -15.5918   20.5150 C   0  0  0  0  0  0  0  0  0  0  0  0
  -28.8597  -17.3819   20.0079 C   0  0  0  0  0  0  0  0  0  0  0  0
  -20.1154  -26.8133   21.2592 C   0  0  0  0  0  0  0  0  0  0  0  0
  -26.6325  -28.5493   24.1565 C   0  0  0  0  0  0  0  0  0  0  0  0
  -21.5187  -26.7646   21.3632 C   0  0  0  0  0  0  0  0  0  0  0  0
  -27.3010  -29.5803   23.4811 C   0  0  0  0  0  0  0  0  0  0  0  0
  -28.7230  -25.3916   18.4806 C   0  0  0  0  0  0  0  0  0  0  0  0
  -31.0517  -25.5140   19.0851 C   0  0  0  0  0  0  0  0  0  0  0  0
  -30.0104  -24.8659   18.4278 C   0  0  0  0  0  0  0  0  0  0  0  0
  -26.1823  -12.9654   20.6414 C   0  0  0  0  0  0  0  0  0  0  0  0
  -29.3285  -28.2390   23.4656 C   0  0  0  0  0  0  0  0  0  0  0  0
  -24.4490  -11.4317   20.2346 C   0  0  0  0  0  0  0  0  0  0  0  0
  -21.8745  -10.9226   19.2883 C   0  0  0  0  0  0  0  0  0  0  0  0
  -23.3535  -12.0708   20.8152 C   0  0  0  0  0  0  0  0  0  0  0  0
  -27.5951  -16.9485   20.4493 C   0  0  0  0  0  0  0  0  0  0  0  0
  -30.7775  -26.6809   19.7841 C   0  0  0  0  0  0  0  0  0  0  0  0
  -28.8197  -18.7484   20.1399 C   0  0  0  0  0  0  0  0  0  0  0  0
  -29.9712  -16.6175   19.5220 C   0  0  0  0  0  0  0  0  0  0  0  0
  -24.1077  -29.2121   22.3429 C   0  0  0  0  0  0  0  0  0  0  0  0
  -24.5103  -32.1947   23.5528 C   0  0  0  0  0  0  0  0  0  0  0  0
  -26.6071  -34.4944   24.9534 C   0  0  0  0  0  0  0  0  0  0  0  0
  -26.1745  -23.6227   19.5159 C   0  0  0  0  0  0  0  0  0  0  0  0
  -19.3995  -28.0415   20.7554 C   0  0  0  0  0  0  0  0  0  0  0  0
  -25.1935  -28.7123   24.5626 C   0  0  0  0  0  0  0  0  0  0  0  0
  -26.6076  -30.8644   23.1088 C   0  0  0  0  0  0  0  0  0  0  0  0
  -20.2538  -29.3058   20.8000 C   0  0  0  0  0  0  0  0  0  0  0  0
  -25.4529  -21.7359   22.4478 C   0  0  0  0  0  0  0  0  0  0  0  0
  -21.6416  -29.0327   20.2290 C   0  0  0  0  0  0  0  0  0  0  0  0
  -26.0445  -20.3570   22.1501 C   0  0  0  0  0  0  0  0  0  0  0  0
  -24.8517  -22.3740   21.1974 C   0  0  0  0  0  0  0  0  0  0  0  0
  -26.3557  -21.0709   19.7435 C   0  0  0  0  0  0  0  0  0  0  0  0
  -22.3786  -27.9709   21.0542 C   0  0  1  0  0  0  0  0  0  0  0  0
  -24.4444  -29.7330   23.7114 C   0  0  1  0  0  0  0  0  0  0  0  0
  -27.0237  -20.4115   20.9622 C   0  0  2  0  0  0  0  0  0  0  0  0
  -32.4423  -24.9696   19.0451 C   0  0  0  0  0  0  0  0  0  0  0  0
  -26.6579  -36.8568   25.7984 C   0  0  0  0  0  0  0  0  0  0  0  0
  -24.5528  -33.2192   20.6791 C   0  0  0  0  0  0  0  0  0  0  0  0
  -25.5358  -35.3588   21.5301 C   0  0  0  0  0  0  0  0  0  0  0  0
  -23.2644  -34.6479   22.2770 C   0  0  0  0  0  0  0  0  0  0  0  0
  -27.3326  -33.6236   27.6873 C   0  0  0  0  0  0  0  0  0  0  0  0
  -27.5743  -24.7334   17.7936 C   0  0  0  0  0  0  0  0  0  0  0  0
  -31.8335  -27.4555   20.5315 C   0  0  0  0  0  0  0  0  0  0  0  0
  -32.2361  -26.8201   21.8640 C   0  0  0  0  0  0  0  0  0  0  0  0
  -31.0959  -26.7618   22.8740 C   0  0  0  0  0  0  0  0  0  1  0  0
  -25.2957  -33.4173   23.1438 C   0  0  1  0  0  0  0  0  0  0  0  0
  -26.4491  -35.3956   26.1647 C   0  0  2  0  0  0  0  0  0  0  0  0
  -24.6750  -34.1359   21.9126 C   0  0  0  0  0  0  0  0  0  0  0  0
  -26.8092  -17.9579   20.8331 N   0  0  0  0  0  0  0  0  0  0  0  0
  -27.5819  -19.0392   20.6335 N   0  0  0  0  0  0  0  0  0  0  0  0
  -29.5286  -27.1653   19.8187 N   0  3  0  0  0  0  0  0  0  0  0  0
  -25.1988  -30.9737   23.5223 N   0  0  0  0  0  0  0  0  0  0  0  0
  -25.8318  -22.3964   20.1089 N   0  0  0  0  0  0  0  0  0  0  0  0
  -30.2578  -23.6741   17.7082 N   0  0  0  0  0  0  0  0  0  0  0  0
  -29.7229  -19.7177   19.8809 N   0  0  0  0  0  0  0  0  0  0  0  0
  -29.8434  -15.2236   19.4510 N   0  0  0  0  0  0  0  0  0  0  0  0
  -22.8968  -28.5497   22.2752 N   0  0  0  0  0  0  0  0  0  0  0  0
  -25.3986  -34.2537   24.3347 N   0  0  0  0  0  0  0  0  0  0  0  0
  -27.1156  -23.5556   18.4959 N   0  0  0  0  0  0  0  0  0  0  0  0
  -27.4394  -35.0285   27.2161 N   0  3  0  0  0  0  0  0  0  0  0  0
  -31.0516  -17.1534   19.1768 O   0  0  0  0  0  0  0  0  0  0  0  0
  -24.8879  -29.3986   21.4165 O   0  0  0  0  0  0  0  0  0  0  0  0
  -23.3314  -32.3194   23.8940 O   0  0  0  0  0  0  0  0  0  0  0  0
  -27.6945  -34.0515   24.5899 O   0  0  0  0  0  0  0  0  0  0  0  0
  -25.6824  -24.6985   19.8729 O   0  0  0  0  0  0  0  0  0  0  0  0
  -25.7276  -11.6840   20.7026 O   0  0  0  0  0  0  0  0  0  0  0  0
  -30.6373  -28.0898   23.1243 O   0  0  0  0  0  0  0  0  0  1  0  0
  -20.6386  -10.6793   18.8329 F   0  0  0  0  0  0  0  0  0  0  0  0
  -23.5315  -12.9313   21.8270 F   0  0  0  0  0  0  0  0  0  0  0  0
  1  2  1  0  0  0  0
  1  5  2  0  0  0  0
  2  6  2  0  0  0  0
  3  8  2  0  0  0  0
  3 16  1  0  0  0  0
  4  9  1  0  0  0  0
  4 16  2  0  0  0  0
  5 18  1  0  0  0  0
  6 20  1  0  0  0  0
  7 10  2  0  0  0  0
  7 19  1  0  0  0  0
  8 25  1  0  0  0  0
  9 25  2  0  0  0  0
 10 26  1  0  0  0  0
 11 12  2  0  0  0  0
 11 27  1  0  0  0  0
 12 28  1  0  0  0  0
 13 21  1  0  0  0  0
 13 26  2  0  0  0  0
 14 28  2  0  0  0  0
 14 29  1  0  0  0  0
 15 22  1  0  0  0  0
 15 65  2  0  0  0  0
 16 30  1  0  0  0  0
 17 30  1  0  0  0  0
 17 32  2  0  0  0  0
 17 33  1  0  0  0  0
 18 20  2  0  0  0  0
 18 38  1  0  0  0  0
 19 21  2  0  0  0  0
 19 39  1  0  0  0  0
 20 47  1  0  0  0  0
 21 40  1  0  0  0  0
 22 24  2  0  0  0  0
 22 56  1  0  0  0  0
 23 24  1  0  0  0  0
 23 31  2  0  0  0  0
 23 50  1  0  0  0  0
 24 68  1  0  0  0  0
 25 80  1  0  0  0  0
 26 81  1  0  0  0  0
 27 29  2  0  0  0  0
 27 80  1  0  0  0  0
 28 82  1  0  0  0  0
 29 83  1  0  0  0  0
 30 63  2  0  0  0  0
 31 57  1  0  0  0  0
 31 65  1  0  0  0  0
 32 64  1  0  0  0  0
 32 69  1  0  0  0  0
 33 70  1  0  0  0  0
 33 75  2  0  0  0  0
 34 48  1  0  0  0  0
 34 71  1  0  0  0  0
 34 76  2  0  0  0  0
 35 60  1  0  0  0  0
 35 66  1  0  0  0  0
 35 77  2  0  0  0  0
 36 61  1  0  0  0  0
 36 72  1  0  0  0  0
 36 78  2  0  0  0  0
 37 67  1  0  0  0  0
 37 73  1  0  0  0  0
 37 79  2  0  0  0  0
 38 41  1  0  0  0  0
 39 48  1  0  0  0  0
 40 66  1  0  0  0  0
 41 43  1  0  0  0  0
 42 44  1  0  0  0  0
 42 45  1  0  0  0  0
 43 47  1  0  0  0  0
 44 49  1  0  0  0  0
 45 67  1  0  0  0  0
 46 49  1  0  0  0  0
 46 67  1  0  0  0  0
 47 71  1  0  0  0  0
 48 66  1  0  0  0  0
 49 64  1  0  0  0  0
 51 61  1  0  0  0  0
 52 62  1  0  0  0  0
 53 62  1  0  0  0  0
 54 62  1  0  0  0  0
 55 74  1  0  0  0  0
 56 73  1  0  0  0  0
 57 58  1  0  0  0  0
 58 59  1  0  0  0  0
 59 81  1  0  0  0  0
 60 62  1  0  0  0  0
 60 72  1  0  0  0  0
 61 74  1  0  0  0  0
 63 64  1  0  0  0  0
M  CHG  2  65   1  74   1
M  ISO  4  37 100  59 101  73 100  81 101
M  END
> <Batch ID>
0100

> <Smiles>
CNC(C)C(=O)NC(C(=O)N1Cc2cc([101O:1][101CH2:1]CCc3ncc(C[100NH:0][100C:0](=O)N4CCCC(n5nc(-c6ccc(Oc7ccc(F)cc7F)cc6)c(C(N)=O)c5N)C4)c(N)c3C)ccc2CC1C(=O)NC1CCCc2ccccc21)C(C)(C)C

> <Shape>
0.262

> <Color>
0.068

> <Negative vol penalty>
0.000

$$$$

  -OEChem-04052319333D

 85 94  0     1  0  0  0  0  0999 V2000
  -16.4833  -26.1385   20.7196 C   0  0  0  0  0  0  0  0  0  0  0  0
  -17.4279  -25.1464   20.4767 C   0  0  0  0  0  0  0  0  0  0  0  0
  -27.7689  -23.4977   20.6344 C   0  0  0  0  0  0  0  0  0  0  0  0
  -28.9644  -23.5085   18.5350 C   0  0  0  0  0  0  0  0  0  0  0  0
  -16.8276  -27.2563   21.4784 C   0  0  0  0  0  0  0  0  0  0  0  0
  -18.7176  -25.2721   20.9916 C   0  0  0  0  0  0  0  0  0  0  0  0
  -20.4075  -20.9740   23.0691 C   0  0  0  0  0  0  0  0  0  0  0  0
  -27.8161  -24.8913   20.6685 C   0  0  0  0  0  0  0  0  0  0  0  0
  -29.0116  -24.9022   18.5690 C   0  0  0  0  0  0  0  0  0  0  0  0
  -20.8588  -19.9814   22.2004 C   0  0  0  0  0  0  0  0  0  0  0  0
  -26.1753  -27.4753   19.2319 C   0  0  0  0  0  0  0  0  0  0  0  0
  -25.0062  -28.1554   19.5729 C   0  0  0  0  0  0  0  0  0  0  0  0
  -24.0227  -16.0217   20.5653 C   0  0  0  0  0  0  0  0  0  0  0  0
  -23.1366  -20.6501   22.6292 C   0  0  0  0  0  0  0  0  0  0  0  0
  -26.1334  -29.1427   21.4681 C   0  0  0  0  0  0  0  0  0  0  0  0
  -21.8935  -15.1414   19.9752 C   0  0  0  0  0  0  0  0  0  0  0  0
  -28.3430  -22.8063   19.5677 C   0  0  0  0  0  0  0  0  0  0  0  0
  -27.2922  -20.5634   18.9568 C   0  0  0  0  0  0  0  0  0  0  0  0
  -18.1195  -27.3912   22.0110 C   0  0  0  0  0  0  0  0  0  0  0  0
  -21.3183  -21.8207   23.7171 C   0  0  0  0  0  0  0  0  0  0  0  0
  -19.0799  -26.3934   21.7571 C   0  0  0  0  0  0  0  0  0  0  0  0
  -24.2877  -14.8404   21.2491 C   0  0  0  0  0  0  0  0  0  0  0  0
  -22.6944  -21.6511   23.5077 C   0  0  0  0  0  0  0  0  0  0  0  0
  -22.8051  -16.1830   19.9135 C   0  0  0  0  0  0  0  0  0  0  0  0
  -28.4375  -25.5936   19.6358 C   0  0  0  0  0  0  0  0  0  0  0  0
  -22.2234  -19.8212   21.9781 C   0  0  0  0  0  0  0  0  0  0  0  0
  -27.3235  -27.6288   20.0090 C   0  0  0  0  0  0  0  0  0  0  0  0
  -24.9853  -28.9891   20.6910 C   0  0  0  0  0  0  0  0  0  0  0  0
  -27.3025  -28.4625   21.1271 C   0  0  0  0  0  0  0  0  0  0  0  0
  -28.2950  -21.3667   19.5322 C   0  0  0  0  0  0  0  0  0  0  0  0
  -23.3096  -13.8589   21.2511 C   0  0  0  0  0  0  0  0  0  0  0  0
  -27.7098  -19.2754   19.1870 C   0  0  0  0  0  0  0  0  0  0  0  0
  -26.0907  -20.9473   18.2751 C   0  0  0  0  0  0  0  0  0  0  0  0
  -21.8642  -24.9521   23.7125 C   0  0  0  0  0  0  0  0  0  0  0  0
  -23.9653  -24.1952   26.0651 C   0  0  0  0  0  0  0  0  0  0  0  0
  -25.9512  -21.8362   27.5272 C   0  0  0  0  0  0  0  0  0  0  0  0
  -29.8458  -15.3528   22.3438 C   0  0  0  0  0  0  0  0  0  0  0  0
  -18.4587  -28.6401   22.7855 C   0  0  0  0  0  0  0  0  0  0  0  0
  -20.8167  -22.8692   24.6718 C   0  0  0  0  0  0  0  0  0  0  0  0
  -23.7142  -22.5208   24.1946 C   0  0  0  0  0  0  0  0  0  0  0  0
  -19.7377  -28.5172   23.6096 C   0  0  0  0  0  0  0  0  0  0  0  0
  -32.1276  -17.4782   20.8512 C   0  0  0  0  0  0  0  0  0  0  0  0
  -20.8538  -27.8984   22.7740 C   0  0  0  0  0  0  0  0  0  0  0  0
  -31.2632  -18.6222   20.3211 C   0  0  0  0  0  0  0  0  0  0  0  0
  -26.6601  -13.9707   21.0645 C   0  0  0  0  0  0  0  0  0  0  0  0
  -26.1622  -15.9862   22.5104 C   0  0  0  0  0  0  0  0  0  0  0  0
  -31.6604  -17.0352   22.2332 C   0  0  0  0  0  0  0  0  0  0  0  0
  -27.9985  -13.8150   21.7827 C   0  0  0  0  0  0  0  0  0  0  0  0
  -27.5099  -15.7842   23.1967 C   0  0  0  0  0  0  0  0  0  0  0  0
  -29.3471  -17.7673   21.7570 C   0  0  0  0  0  0  0  0  0  0  0  0
  -25.6150  -14.6570   21.9609 C   0  0  0  0  0  0  0  0  0  0  0  0
  -20.4821  -26.4818   22.3194 C   0  0  1  0  0  0  0  0  0  0  0  0
  -21.8080  -24.0098   24.8814 C   0  0  1  0  0  0  0  0  0  0  0  0
  -29.7710  -18.2478   20.3547 C   0  0  1  0  0  0  0  0  0  0  0  0
  -23.5388  -12.5697   21.9701 C   0  0  0  0  0  0  0  0  0  0  0  0
  -27.5794  -21.5247   29.4112 C   0  0  0  0  0  0  0  0  0  0  0  0
  -26.1014  -25.6675   24.4591 C   0  0  0  0  0  0  0  0  0  0  0  0
  -27.8381  -24.5343   25.8619 C   0  0  0  0  0  0  0  0  0  0  0  0
  -26.1869  -26.0721   26.9255 C   0  0  0  0  0  0  0  0  0  0  0  0
  -24.2511  -19.7816   28.8109 C   0  0  0  0  0  0  0  0  0  0  0  0
  -22.4905  -17.4345   19.1742 C   0  0  0  0  0  0  0  0  0  0  0  0
  -21.8097  -18.4949   20.0479 C   0  0  0  0  0  0  0  0  0  1  0  0
  -25.4225  -23.8037   26.1117 C   0  0  1  0  0  0  0  0  0  0  0  0
  -26.1251  -21.4246   28.9780 C   0  0  2  0  0  0  0  0  0  0  0  0
  -26.3682  -25.0041   25.8250 C   0  0  0  0  0  0  0  0  0  0  0  0
  -22.1152  -13.9793   20.6295 N   0  0  0  0  0  0  0  0  0  0  0  0
  -29.2758  -20.6490   20.0864 N   0  0  0  0  0  0  0  0  0  0  0  0
  -28.8912  -19.3813   19.8603 N   0  0  0  0  0  0  0  0  0  0  0  0
  -23.1739  -23.5359   25.1139 N   0  0  0  0  0  0  0  0  0  0  0  0
  -30.2379  -16.6948   22.2245 N   0  0  0  0  0  0  0  0  0  0  0  0
  -28.4659  -15.0913   22.3223 N   0  0  0  0  0  0  0  0  0  0  0  0
  -27.1780  -18.0739   18.8772 N   0  0  0  0  0  0  0  0  0  0  0  0
  -25.8146  -22.3133   18.1257 N   0  0  0  0  0  0  0  0  0  0  0  0
  -20.6524  -25.5413   23.4061 N   0  0  0  0  0  0  0  0  0  0  0  0
  -25.6344  -23.1730   27.4101 N   0  0  0  0  0  0  0  0  0  0  0  0
  -25.6716  -20.0187   29.1755 N   0  3  0  0  0  0  0  0  0  0  0  0
  -25.2776  -20.1040   17.8266 O   0  0  0  0  0  0  0  0  0  0  0  0
  -22.9285  -25.1326   23.1325 O   0  0  0  0  0  0  0  0  0  0  0  0
  -23.5432  -25.0493   26.8487 O   0  0  0  0  0  0  0  0  0  0  0  0
  -26.0867  -21.0512   26.5913 O   0  0  0  0  0  0  0  0  0  0  0  0
  -30.6754  -14.4419   22.4570 O   0  0  0  0  0  0  0  0  0  0  0  0
  -28.4835  -26.9535   19.6686 O   0  0  0  0  0  0  0  0  0  0  0  0
  -22.6697  -18.8467   21.1242 O   0  0  0  0  0  0  0  0  0  1  0  0
  -23.8630  -29.6433   21.0175 F   0  0  0  0  0  0  0  0  0  0  0  0
  -28.4028  -28.6149   21.8768 F   0  0  0  0  0  0  0  0  0  0  0  0
  1  2  1  0  0  0  0
  1  5  2  0  0  0  0
  2  6  2  0  0  0  0
  3  8  2  0  0  0  0
  3 17  1  0  0  0  0
  4  9  1  0  0  0  0
  4 17  2  0  0  0  0
  5 19  1  0  0  0  0
  6 21  1  0  0  0  0
  7 10  2  0  0  0  0
  7 20  1  0  0  0  0
  8 25  1  0  0  0  0
  9 25  2  0  0  0  0
 10 26  1  0  0  0  0
 11 12  2  0  0  0  0
 11 27  1  0  0  0  0
 12 28  1  0  0  0  0
 13 22  1  0  0  0  0
 13 24  2  0  0  0  0
 14 23  1  0  0  0  0
 14 26  2  0  0  0  0
 15 28  2  0  0  0  0
 15 29  1  0  0  0  0
 16 24  1  0  0  0  0
 16 66  2  0  0  0  0
 17 30  1  0  0  0  0
 18 30  1  0  0  0  0
 18 32  2  0  0  0  0
 18 33  1  0  0  0  0
 19 21  2  0  0  0  0
 19 38  1  0  0  0  0
 20 23  2  0  0  0  0
 20 39  1  0  0  0  0
 21 52  1  0  0  0  0
 22 31  2  0  0  0  0
 22 51  1  0  0  0  0
 23 40  1  0  0  0  0
 24 61  1  0  0  0  0
 25 82  1  0  0  0  0
 26 83  1  0  0  0  0
 27 29  2  0  0  0  0
 27 82  1  0  0  0  0
 28 84  1  0  0  0  0
 29 85  1  0  0  0  0
 30 67  2  0  0  0  0
 31 55  1  0  0  0  0
 31 66  1  0  0  0  0
 32 68  1  0  0  0  0
 32 72  1  0  0  0  0
 33 73  1  0  0  0  0
 33 77  2  0  0  0  0
 34 53  1  0  0  0  0
 34 74  1  0  0  0  0
 34 78  2  0  0  0  0
 35 63  1  0  0  0  0
 35 69  1  0  0  0  0
 35 79  2  0  0  0  0
 36 64  1  0  0  0  0
 36 75  1  0  0  0  0
 36 80  2  0  0  0  0
 37 70  1  0  0  0  0
 37 71  1  0  0  0  0
 37 81  2  0  0  0  0
 38 41  1  0  0  0  0
 39 53  1  0  0  0  0
 40 69  1  0  0  0  0
 41 43  1  0  0  0  0
 42 44  1  0  0  0  0
 42 47  1  0  0  0  0
 43 52  1  0  0  0  0
 44 54  1  0  0  0  0
 45 48  1  0  0  0  0
 45 51  1  0  0  0  0
 46 49  1  0  0  0  0
 46 51  1  0  0  0  0
 47 70  1  0  0  0  0
 48 71  1  0  0  0  0
 49 71  1  0  0  0  0
 50 54  1  0  0  0  0
 50 70  1  0  0  0  0
 52 74  1  0  0  0  0
 53 69  1  0  0  0  0
 54 68  1  0  0  0  0
 56 64  1  0  0  0  0
 57 65  1  0  0  0  0
 58 65  1  0  0  0  0
 59 65  1  0  0  0  0
 60 76  1  0  0  0  0
 61 62  1  0  0  0  0
 62 83  1  0  0  0  0
 63 65  1  0  0  0  0
 63 75  1  0  0  0  0
 64 76  1  0  0  0  0
 67 68  1  0  0  0  0
M  CHG  1  76   1
M  ISO  4  37 100  62 101  71 100  83 101
M  END
> <Batch ID>
0100

> <Smiles>
CNC(C)C(=O)NC(C(=O)N1Cc2cc([101O:1][101CH2:1]Cc3cnc(C)c(C4CC[100N:0]([100C:0](=O)N5CCCC(n6nc(-c7ccc(Oc8ccc(F)cc8F)cc7)c(C(N)=O)c6N)C5)CC4)c3)ccc2CC1C(=O)NC1CCCc2ccccc21)C(C)(C)C

> <Shape>
0.221

> <Color>
0.086

> <Negative vol penalty>
0.000

$$$$

  -OEChem-04052319333D

 86 94  0     1  0  0  0  0  0999 V2000
  -19.2018  -25.3386   24.3941 C   0  0  0  0  0  0  0  0  0  0  0  0
  -20.5328  -25.3787   23.9916 C   0  0  0  0  0  0  0  0  0  0  0  0
  -26.1691  -14.8286   21.1538 C   0  0  0  0  0  0  0  0  0  0  0  0
  -27.3248  -14.5182   19.0550 C   0  0  0  0  0  0  0  0  0  0  0  0
  -18.3170  -26.3302   23.9725 C   0  0  0  0  0  0  0  0  0  0  0  0
  -20.9797  -26.4100   23.1663 C   0  0  0  0  0  0  0  0  0  0  0  0
  -26.4984  -29.0637   23.2502 C   0  0  0  0  0  0  0  0  0  0  0  0
  -25.9635  -13.4519   21.2442 C   0  0  0  0  0  0  0  0  0  0  0  0
  -27.1193  -13.1415   19.1454 C   0  0  0  0  0  0  0  0  0  0  0  0
  -27.6413  -28.8762   22.4741 C   0  0  0  0  0  0  0  0  0  0  0  0
  -23.8698  -11.1542   19.9170 C   0  0  0  0  0  0  0  0  0  0  0  0
  -22.5999  -10.7123   20.2879 C   0  0  0  0  0  0  0  0  0  0  0  0
  -26.9783  -30.7176   21.0638 C   0  0  0  0  0  0  0  0  0  0  0  0
  -26.0279  -25.2764   17.9245 C   0  0  0  0  0  0  0  0  0  0  0  0
  -28.3805  -25.8192   17.8375 C   0  0  0  0  0  0  0  0  0  0  0  0
  -26.7425  -27.5795   18.0732 C   0  0  0  0  0  0  0  0  0  0  0  0
  -23.5468   -9.6119   22.2191 C   0  0  0  0  0  0  0  0  0  0  0  0
  -26.8497  -15.3617   20.0591 C   0  0  0  0  0  0  0  0  0  0  0  0
  -28.1584  -17.5143   20.4605 C   0  0  0  0  0  0  0  0  0  0  0  0
  -18.7555  -27.3795   23.1494 C   0  0  0  0  0  0  0  0  0  0  0  0
  -25.5798  -30.0743   22.9320 C   0  0  0  0  0  0  0  0  0  0  0  0
  -20.0997  -27.4158   22.7321 C   0  0  0  0  0  0  0  0  0  0  0  0
  -25.8259  -30.9175   21.8391 C   0  0  0  0  0  0  0  0  0  0  0  0
  -27.3581  -24.8706   17.8169 C   0  0  0  0  0  0  0  0  0  0  0  0
  -25.7201  -26.6308   18.0526 C   0  0  0  0  0  0  0  0  0  0  0  0
  -28.0727  -27.1737   17.9656 C   0  0  0  0  0  0  0  0  0  0  0  0
  -26.4386  -12.6084   20.2400 C   0  0  0  0  0  0  0  0  0  0  0  0
  -27.8799  -29.7013   21.3789 C   0  0  0  0  0  0  0  0  0  0  0  0
  -24.9783  -10.8249   20.6971 C   0  0  0  0  0  0  0  0  0  0  0  0
  -22.4384   -9.9412   21.4389 C   0  0  0  0  0  0  0  0  0  0  0  0
  -24.8168  -10.0538   21.8482 C   0  0  0  0  0  0  0  0  0  0  0  0
  -27.0619  -16.7838   19.9649 C   0  0  0  0  0  0  0  0  0  0  0  0
  -27.8869  -18.8163   20.1175 C   0  0  0  0  0  0  0  0  0  0  0  0
  -29.3188  -17.0570   21.1677 C   0  0  0  0  0  0  0  0  0  0  0  0
  -22.5159  -30.1361   22.0880 C   0  0  0  0  0  0  0  0  0  0  0  0
  -22.9136  -33.3454   22.3414 C   0  0  0  0  0  0  0  0  0  0  0  0
  -25.0403  -36.0141   22.2928 C   0  0  0  0  0  0  0  0  0  0  0  0
  -26.1976  -22.3099   15.9632 C   0  0  0  0  0  0  0  0  0  0  0  0
  -17.7514  -28.4026   22.6807 C   0  0  0  0  0  0  0  0  0  0  0  0
  -24.3654  -30.2807   23.7951 C   0  0  0  0  0  0  0  0  0  0  0  0
  -24.8811  -32.0301   21.4673 C   0  0  0  0  0  0  0  0  0  0  0  0
  -18.3902  -29.6672   22.1126 C   0  0  0  0  0  0  0  0  0  0  0  0
  -23.6828  -20.9574   18.3186 C   0  0  0  0  0  0  0  0  0  0  0  0
  -19.5142  -29.3094   21.1454 C   0  0  0  0  0  0  0  0  0  0  0  0
  -24.4138  -19.7684   18.9398 C   0  0  0  0  0  0  0  0  0  0  0  0
  -24.1768  -21.2516   16.9055 C   0  0  0  0  0  0  0  0  0  0  0  0
  -26.3798  -20.2599   17.4320 C   0  0  0  0  0  0  0  0  0  0  0  0
  -20.6280  -28.5320   21.8573 C   0  0  1  0  0  0  0  0  0  0  0  0
  -23.2369  -31.0112   23.0739 C   0  0  1  0  0  0  0  0  0  0  0  0
  -25.9382  -19.9661   18.8736 C   0  0  2  0  0  0  0  0  0  0  0  0
  -23.6112  -26.5037   19.4274 C   0  0  0  0  0  0  0  0  0  0  0  0
  -23.4701  -26.7092   16.9188 C   0  0  0  0  0  0  0  0  0  0  0  0
  -29.9458  -28.2060   16.6558 C   0  0  0  0  0  0  0  0  0  0  0  0
  -25.0670  -38.5155   22.4914 C   0  0  0  0  0  0  0  0  0  0  0  0
  -21.8118  -33.5799   19.5058 C   0  0  0  0  0  0  0  0  0  0  0  0
  -22.7349  -35.9054   19.4141 C   0  0  0  0  0  0  0  0  0  0  0  0
  -20.9844  -35.3255   21.0941 C   0  0  0  0  0  0  0  0  0  0  0  0
  -28.3472  -23.3228   15.3056 C   0  0  0  0  0  0  0  0  0  0  0  0
  -26.7849  -35.9217   24.6817 C   0  0  0  0  0  0  0  0  0  0  0  0
  -27.6866  -23.4221   17.6803 C   0  0  0  0  0  0  0  0  0  0  0  0
  -30.1653  -28.0142   19.1623 C   0  0  0  0  0  0  0  0  0  0  0  0
  -29.5097  -28.1925   20.5285 C   0  0  0  0  0  0  0  0  0  1  0  0
  -24.2980  -27.0653   18.1681 C   0  0  0  0  0  0  0  0  0  0  0  0
  -29.1863  -28.2064   17.9879 C   0  0  2  0  0  0  0  0  0  0  0  0
  -23.3356  -34.4480   21.4006 C   0  0  1  0  0  0  0  0  0  0  0  0
  -25.1966  -37.1948   23.2341 C   0  0  2  0  0  0  0  0  0  0  0  0
  -22.2337  -34.7926   20.3592 C   0  0  0  0  0  0  0  0  0  0  0  0
  -26.1608  -17.5574   19.3537 N   0  0  0  0  0  0  0  0  0  0  0  0
  -26.6906  -18.7876   19.4631 N   0  0  0  0  0  0  0  0  0  0  0  0
  -23.7046  -32.1878   22.3382 N   0  0  0  0  0  0  0  0  0  0  0  0
  -25.6327  -21.3920   16.8639 N   0  0  0  0  0  0  0  0  0  0  0  0
  -28.5570  -19.9714   20.3149 N   0  0  0  0  0  0  0  0  0  0  0  0
  -29.4398  -15.6870   21.4377 N   0  0  0  0  0  0  0  0  0  0  0  0
  -21.4579  -29.4314   22.6297 N   0  0  0  0  0  0  0  0  0  0  0  0
  -23.7354  -35.5713   22.2413 N   0  0  0  0  0  0  0  0  0  0  0  0
  -27.4072  -22.9132   16.3393 N   0  0  0  0  0  0  0  0  0  0  0  0
  -26.5315  -37.1566   23.8956 N   0  3  0  0  0  0  0  0  0  0  0  0
  -30.2137  -17.8421   21.5631 O   0  0  0  0  0  0  0  0  0  0  0  0
  -22.8908  -30.1037   20.9217 O   0  0  0  0  0  0  0  0  0  0  0  0
  -21.9229  -33.5082   23.0582 O   0  0  0  0  0  0  0  0  0  0  0  0
  -25.9808  -35.5351   21.6631 O   0  0  0  0  0  0  0  0  0  0  0  0
  -25.6469  -22.5821   14.8887 O   0  0  0  0  0  0  0  0  0  0  0  0
  -26.2383  -11.2650   20.3280 O   0  0  0  0  0  0  0  0  0  0  0  0
  -28.9943  -29.5201   20.6193 O   0  0  0  0  0  0  0  0  0  1  0  0
  -21.2186   -9.5182   21.7958 F   0  0  0  0  0  0  0  0  0  0  0  0
  -25.8777   -9.7353   22.6023 F   0  0  0  0  0  0  0  0  0  0  0  0
  1  2  1  0  0  0  0
  1  5  2  0  0  0  0
  2  6  2  0  0  0  0
  3  8  2  0  0  0  0
  3 18  1  0  0  0  0
  4  9  1  0  0  0  0
  4 18  2  0  0  0  0
  5 20  1  0  0  0  0
  6 22  1  0  0  0  0
  7 10  2  0  0  0  0
  7 21  1  0  0  0  0
  8 27  1  0  0  0  0
  9 27  2  0  0  0  0
 10 28  1  0  0  0  0
 11 12  2  0  0  0  0
 11 29  1  0  0  0  0
 12 30  1  0  0  0  0
 13 23  1  0  0  0  0
 13 28  2  0  0  0  0
 14 24  1  0  0  0  0
 14 25  2  0  0  0  0
 15 24  2  0  0  0  0
 15 26  1  0  0  0  0
 16 25  1  0  0  0  0
 16 26  2  0  0  0  0
 17 30  2  0  0  0  0
 17 31  1  0  0  0  0
 18 32  1  0  0  0  0
 19 32  1  0  0  0  0
 19 33  2  0  0  0  0
 19 34  1  0  0  0  0
 20 22  2  0  0  0  0
 20 39  1  0  0  0  0
 21 23  2  0  0  0  0
 21 40  1  0  0  0  0
 22 48  1  0  0  0  0
 23 41  1  0  0  0  0
 24 60  1  0  0  0  0
 25 63  1  0  0  0  0
 26 64  1  0  0  0  0
 27 83  1  0  0  0  0
 28 84  1  0  0  0  0
 29 31  2  0  0  0  0
 29 83  1  0  0  0  0
 30 85  1  0  0  0  0
 31 86  1  0  0  0  0
 32 68  2  0  0  0  0
 33 69  1  0  0  0  0
 33 72  1  0  0  0  0
 34 73  1  0  0  0  0
 34 78  2  0  0  0  0
 35 49  1  0  0  0  0
 35 74  1  0  0  0  0
 35 79  2  0  0  0  0
 36 65  1  0  0  0  0
 36 70  1  0  0  0  0
 36 80  2  0  0  0  0
 37 66  1  0  0  0  0
 37 75  1  0  0  0  0
 37 81  2  0  0  0  0
 38 71  1  0  0  0  0
 38 76  1  0  0  0  0
 38 82  2  0  0  0  0
 39 42  1  0  0  0  0
 40 49  1  0  0  0  0
 41 70  1  0  0  0  0
 42 44  1  0  0  0  0
 43 45  1  0  0  0  0
 43 46  1  0  0  0  0
 44 48  1  0  0  0  0
 45 50  1  0  0  0  0
 46 71  1  0  0  0  0
 47 50  1  0  0  0  0
 47 71  1  0  0  0  0
 48 74  1  0  0  0  0
 49 70  1  0  0  0  0
 50 69  1  0  0  0  0
 51 63  1  0  0  0  0
 52 63  1  0  0  0  0
 53 64  1  0  0  0  0
 54 66  1  0  0  0  0
 55 67  1  0  0  0  0
 56 67  1  0  0  0  0
 57 67  1  0  0  0  0
 58 76  1  0  0  0  0
 59 77  1  0  0  0  0
 60 76  1  0  0  0  0
 61 62  1  0  0  0  0
 61 64  1  0  0  0  0
 62 84  1  0  0  0  0
 65 67  1  0  0  0  0
 65 75  1  0  0  0  0
 66 77  1  0  0  0  0
 68 69  1  0  0  0  0
M  CHG  1  77   1
M  ISO  4  38 100  62 101  76 100  84 101
M  END
> <Batch ID>
0100

> <Smiles>
CNC(C)C(=O)NC(C(=O)N1Cc2cc([101O:1][101CH2:1]CC(C)c3cc(C[100N:0](C)[100C:0](=O)N4CCCC(n5nc(-c6ccc(Oc7ccc(F)cc7F)cc6)c(C(N)=O)c5N)C4)cc(C(C)C)c3)ccc2CC1C(=O)NC1CCCc2ccccc21)C(C)(C)C

> <Shape>
0.273

> <Color>
0.101

> <Negative vol penalty>
0.000

$$$$

  -OEChem-04052319333D

 81 88  0     1  0  0  0  0  0999 V2000
  -22.1154  -12.0884   19.2672 C   0  0  0  0  0  0  0  0  0  0  0  0
  -21.9317  -13.4635   19.3712 C   0  0  0  0  0  0  0  0  0  0  0  0
  -26.2252  -28.9584   21.8042 C   0  0  0  0  0  0  0  0  0  0  0  0
  -24.9495  -27.6772   20.2016 C   0  0  0  0  0  0  0  0  0  0  0  0
  -23.2771  -11.5017   19.7672 C   0  0  0  0  0  0  0  0  0  0  0  0
  -22.9093  -14.2526   19.9762 C   0  0  0  0  0  0  0  0  0  0  0  0
  -23.8905  -18.4762   17.3602 C   0  0  0  0  0  0  0  0  0  0  0  0
  -27.4081  -28.5559   21.1843 C   0  0  0  0  0  0  0  0  0  0  0  0
  -26.1325  -27.2748   19.5816 C   0  0  0  0  0  0  0  0  0  0  0  0
  -22.9801  -19.5252   17.4798 C   0  0  0  0  0  0  0  0  0  0  0  0
  -29.3836  -25.8138   21.1307 C   0  0  0  0  0  0  0  0  0  0  0  0
  -30.4322  -25.3929   21.9485 C   0  0  0  0  0  0  0  0  0  0  0  0
  -24.4440  -20.6073   19.0627 C   0  0  0  0  0  0  0  0  0  0  0  0
  -31.8300  -27.1529   21.0621 C   0  0  0  0  0  0  0  0  0  0  0  0
  -24.9959  -28.5190   21.3128 C   0  0  0  0  0  0  0  0  0  0  0  0
  -23.0025  -30.0735   21.6556 C   0  0  0  0  0  0  0  0  0  0  0  0
  -24.2738  -12.2852   20.3700 C   0  0  0  0  0  0  0  0  0  0  0  0
  -25.0815  -18.4795   18.1004 C   0  0  0  0  0  0  0  0  0  0  0  0
  -24.0849  -13.6756   20.4860 C   0  0  0  0  0  0  0  0  0  0  0  0
  -25.3691  -19.5583   18.9487 C   0  0  0  0  0  0  0  0  0  0  0  0
  -27.3618  -27.7142   20.0731 C   0  0  0  0  0  0  0  0  0  0  0  0
  -23.2553  -20.5896   18.3333 C   0  0  0  0  0  0  0  0  0  0  0  0
  -29.5582  -26.9043   20.2785 C   0  0  0  0  0  0  0  0  0  0  0  0
  -31.6554  -26.0624   21.9143 C   0  0  0  0  0  0  0  0  0  0  0  0
  -30.7814  -27.5738   20.2443 C   0  0  0  0  0  0  0  0  0  0  0  0
  -23.7735  -28.9339   21.9531 C   0  0  0  0  0  0  0  0  0  0  0  0
  -21.9508  -30.0162   22.5372 C   0  0  0  0  0  0  0  0  0  0  0  0
  -23.2175  -31.0927   20.6703 C   0  0  0  0  0  0  0  0  0  0  0  0
  -26.3431  -16.5960   20.3285 C   0  0  0  0  0  0  0  0  0  0  0  0
  -28.9136  -18.5406   19.9631 C   0  0  0  0  0  0  0  0  0  0  0  0
  -30.1329  -21.5831   19.0126 C   0  0  0  0  0  0  0  0  0  0  0  0
  -19.3176  -25.4991   25.4549 C   0  0  0  0  0  0  0  0  0  0  0  0
  -25.4913  -11.5999   20.9381 C   0  0  0  0  0  0  0  0  0  0  0  0
  -26.0657  -17.3534   17.9399 C   0  0  0  0  0  0  0  0  0  0  0  0
  -26.6429  -19.6195   19.7499 C   0  0  0  0  0  0  0  0  0  0  0  0
  -26.6470  -12.5539   21.2291 C   0  0  0  0  0  0  0  0  0  0  0  0
  -20.7981  -28.4014   26.8908 C   0  0  0  0  0  0  0  0  0  0  0  0
  -26.1449  -13.7918   21.9654 C   0  0  0  0  0  0  0  0  0  0  0  0
  -21.6590  -28.9698   25.7613 C   0  0  0  0  0  0  0  0  0  0  0  0
  -20.7988  -26.8743   26.8872 C   0  0  0  0  0  0  0  0  0  0  0  0
  -21.2843  -26.8263   24.4715 C   0  0  0  0  0  0  0  0  0  0  0  0
  -25.1336  -14.5682   21.1134 C   0  0  1  0  0  0  0  0  0  0  0  0
  -27.0093  -17.2104   19.1300 C   0  0  1  0  0  0  0  0  0  0  0  0
  -21.2699  -28.3628   24.3999 C   0  0  2  0  0  0  0  0  0  0  0  0
  -31.8385  -23.3473   18.4875 C   0  0  0  0  0  0  0  0  0  0  0  0
  -20.3142  -23.6917   18.7669 C   0  0  0  0  0  0  0  0  0  0  0  0
  -28.8438  -18.9918   22.9799 C   0  0  0  0  0  0  0  0  0  0  0  0
  -30.3309  -20.9783   22.6470 C   0  0  0  0  0  0  0  0  0  0  0  0
  -31.1353  -18.7014   22.0213 C   0  0  0  0  0  0  0  0  0  0  0  0
  -17.0207  -21.8568   23.6355 C   0  0  0  0  0  0  0  0  0  0  0  0
  -18.7365  -22.3158   25.3844 C   0  0  0  0  0  0  0  0  0  0  0  0
  -30.3824  -20.6715   16.2080 C   0  0  0  0  0  0  0  0  0  0  0  0
  -19.1246  -22.4754   21.4827 C   0  0  0  0  0  0  0  0  0  0  0  0
  -20.3009  -22.0006   20.6200 C   0  0  0  0  0  0  0  0  0  0  0  0
  -19.4358  -22.3028   22.9760 C   0  0  0  0  0  0  0  0  0  0  0  0
  -17.9146  -24.1790   23.8903 C   0  0  0  0  0  0  0  0  0  0  0  0
  -20.9885  -21.3051   18.2608 C   0  0  0  0  0  0  0  0  0  1  0  0
  -29.3775  -19.8298   20.5969 C   0  0  1  0  0  0  0  0  0  0  0  0
  -31.3087  -21.9667   18.1324 C   0  0  2  0  0  0  0  0  0  0  0  0
  -20.0864  -22.2135   19.1082 C   0  0  2  0  0  0  0  0  0  0  0  0
  -29.8969  -19.6235   22.0478 C   0  0  0  0  0  0  0  0  0  0  0  0
  -18.2856  -22.6792   23.9528 C   0  0  0  0  0  0  0  0  0  0  0  0
  -23.2560  -28.2060   22.9462 N   0  0  0  0  0  0  0  0  0  0  0  0
  -22.1484  -28.8899   23.2804 N   0  0  0  0  0  0  0  0  0  0  0  0
  -27.5705  -18.4915   19.5635 N   0  0  0  0  0  0  0  0  0  0  0  0
  -20.4198  -26.3624   25.5680 N   0  0  0  0  0  0  0  0  0  0  0  0
  -20.8856  -30.8200   22.7414 N   0  0  0  0  0  0  0  0  0  0  0  0
  -24.3479  -30.9983   19.8471 N   0  0  0  0  0  0  0  0  0  0  0  0
  -25.8160  -15.3398   20.0968 N   0  0  0  0  0  0  0  0  0  0  0  0
  -30.3626  -20.4015   19.6852 N   0  0  0  0  0  0  0  0  0  0  0  0
  -19.0227  -25.0654   24.1682 N   0  0  0  0  0  0  0  0  0  0  0  0
  -30.9017  -21.9740   16.6987 N   0  3  0  0  0  0  0  0  0  0  0  0
  -22.4394  -32.0672   20.5353 O   0  0  0  0  0  0  0  0  0  0  0  0
  -26.3111  -17.2151   21.3856 O   0  0  0  0  0  0  0  0  0  0  0  0
  -29.7152  -17.6138   19.8210 O   0  0  0  0  0  0  0  0  0  0  0  0
  -29.1142  -22.2654   19.0981 O   0  0  0  0  0  0  0  0  0  0  0  0
  -18.6427  -25.1457   26.4279 O   0  0  0  0  0  0  0  0  0  0  0  0
  -28.5159  -27.3215   19.4678 O   0  0  0  0  0  0  0  0  0  0  0  0
  -22.3620  -21.6214   18.4533 O   0  0  0  0  0  0  0  0  0  1  0  0
  -32.6618  -25.6590   22.7008 F   0  0  0  0  0  0  0  0  0  0  0  0
  -30.9547  -28.6228   19.4285 F   0  0  0  0  0  0  0  0  0  0  0  0
  1  2  1  0  0  0  0
  1  5  2  0  0  0  0
  2  6  2  0  0  0  0
  3  8  2  0  0  0  0
  3 15  1  0  0  0  0
  4  9  1  0  0  0  0
  4 15  2  0  0  0  0
  5 17  1  0  0  0  0
  6 19  1  0  0  0  0
  7 10  2  0  0  0  0
  7 18  1  0  0  0  0
  8 21  1  0  0  0  0
  9 21  2  0  0  0  0
 10 22  1  0  0  0  0
 11 12  2  0  0  0  0
 11 23  1  0  0  0  0
 12 24  1  0  0  0  0
 13 20  1  0  0  0  0
 13 22  2  0  0  0  0
 14 24  2  0  0  0  0
 14 25  1  0  0  0  0
 15 26  1  0  0  0  0
 16 26  1  0  0  0  0
 16 27  2  0  0  0  0
 16 28  1  0  0  0  0
 17 19  2  0  0  0  0
 17 33  1  0  0  0  0
 18 20  2  0  0  0  0
 18 34  1  0  0  0  0
 19 42  1  0  0  0  0
 20 35  1  0  0  0  0
 21 78  1  0  0  0  0
 22 79  1  0  0  0  0
 23 25  2  0  0  0  0
 23 78  1  0  0  0  0
 24 80  1  0  0  0  0
 25 81  1  0  0  0  0
 26 63  2  0  0  0  0
 27 64  1  0  0  0  0
 27 67  1  0  0  0  0
 28 68  1  0  0  0  0
 28 73  2  0  0  0  0
 29 43  1  0  0  0  0
 29 69  1  0  0  0  0
 29 74  2  0  0  0  0
 30 58  1  0  0  0  0
 30 65  1  0  0  0  0
 30 75  2  0  0  0  0
 31 59  1  0  0  0  0
 31 70  1  0  0  0  0
 31 76  2  0  0  0  0
 32 66  1  0  0  0  0
 32 71  1  0  0  0  0
 32 77  2  0  0  0  0
 33 36  1  0  0  0  0
 34 43  1  0  0  0  0
 35 65  1  0  0  0  0
 36 38  1  0  0  0  0
 37 39  1  0  0  0  0
 37 40  1  0  0  0  0
 38 42  1  0  0  0  0
 39 44  1  0  0  0  0
 40 66  1  0  0  0  0
 41 44  1  0  0  0  0
 41 66  1  0  0  0  0
 42 69  1  0  0  0  0
 43 65  1  0  0  0  0
 44 64  1  0  0  0  0
 45 59  1  0  0  0  0
 46 60  1  0  0  0  0
 47 61  1  0  0  0  0
 48 61  1  0  0  0  0
 49 61  1  0  0  0  0
 50 62  1  0  0  0  0
 51 62  1  0  0  0  0
 52 72  1  0  0  0  0
 53 54  1  0  0  0  0
 53 55  1  0  0  0  0
 54 60  1  0  0  0  0
 55 62  1  0  0  0  0
 56 62  1  0  0  0  0
 56 71  1  0  0  0  0
 57 60  1  0  0  0  0
 57 79  1  0  0  0  0
 58 61  1  0  0  0  0
 58 70  1  0  0  0  0
 59 72  1  0  0  0  0
 63 64  1  0  0  0  0
M  CHG  1  72   1
M  ISO  4  32 100  57 101  71 100  79 101
M  END
> <Batch ID>
0100

> <Smiles>
CNC(C)C(=O)NC(C(=O)N1Cc2cc([101O:1][101CH2:1]C(C)CCCC(C)(C)C[100NH:0][100C:0](=O)N3CCCC(n4nc(-c5ccc(Oc6ccc(F)cc6F)cc5)c(C(N)=O)c4N)C3)ccc2CC1C(=O)NC1CCCc2ccccc21)C(C)(C)C

> <Shape>
0.204

> <Color>
0.089

> <Negative vol penalty>
0.000

$$$$

  -OEChem-04052319333D

 84 92  0     1  0  0  0  0  0999 V2000
  -20.7339   -6.3573   31.0922 C   0  0  0  0  0  0  0  0  0  0  0  0
  -21.7851   -6.5549   30.2026 C   0  0  0  0  0  0  0  0  0  0  0  0
  -23.2870   -9.8000   19.9091 C   0  0  0  0  0  0  0  0  0  0  0  0
  -23.7347   -9.9405   22.2791 C   0  0  0  0  0  0  0  0  0  0  0  0
  -20.6085   -7.1754   32.2142 C   0  0  0  0  0  0  0  0  0  0  0  0
  -22.7110   -7.5716   30.4340 C   0  0  0  0  0  0  0  0  0  0  0  0
  -28.6967   -7.4634   29.1438 C   0  0  0  0  0  0  0  0  0  0  0  0
  -28.1272  -15.4222   24.9277 C   0  0  0  0  0  0  0  0  0  0  0  0
  -22.5602   -8.6275   20.1159 C   0  0  0  0  0  0  0  0  0  0  0  0
  -23.0079   -8.7680   22.4859 C   0  0  0  0  0  0  0  0  0  0  0  0
  -29.4360   -7.9749   28.0781 C   0  0  0  0  0  0  0  0  0  0  0  0
  -20.9668   -6.0082   23.6840 C   0  0  0  0  0  0  0  0  0  0  0  0
  -20.0638   -5.9830   24.7468 C   0  0  0  0  0  0  0  0  0  0  0  0
  -27.0794  -14.5682   25.2534 C   0  0  0  0  0  0  0  0  0  0  0  0
  -29.9372   -9.9437   29.3787 C   0  0  0  0  0  0  0  0  0  0  0  0
  -18.8558   -7.8303   23.7642 C   0  0  0  0  0  0  0  0  0  0  0  0
  -23.8743  -10.4564   20.9907 C   0  0  0  0  0  0  0  0  0  0  0  0
  -24.1344  -12.9864   20.7925 C   0  0  0  0  0  0  0  0  0  0  0  0
  -21.5388   -8.1965   32.4645 C   0  0  0  0  0  0  0  0  0  0  0  0
  -28.5629   -8.1943   30.3330 C   0  0  0  0  0  0  0  0  0  0  0  0
  -22.5972   -8.4051   31.5596 C   0  0  0  0  0  0  0  0  0  0  0  0
  -29.1979   -9.4381   30.4589 C   0  0  0  0  0  0  0  0  0  0  0  0
  -29.4304  -14.9378   24.9060 C   0  0  0  0  0  0  0  0  0  0  0  0
  -22.4206   -8.1116   21.4043 C   0  0  0  0  0  0  0  0  0  0  0  0
  -30.0540   -9.2165   28.1944 C   0  0  0  0  0  0  0  0  0  0  0  0
  -20.8144   -6.9445   22.6613 C   0  0  0  0  0  0  0  0  0  0  0  0
  -19.0083   -6.8941   24.7869 C   0  0  0  0  0  0  0  0  0  0  0  0
  -19.7589   -7.8555   22.7014 C   0  0  0  0  0  0  0  0  0  0  0  0
  -24.6257  -11.6672   20.7777 C   0  0  0  0  0  0  0  0  0  0  0  0
  -27.3852  -13.2491   25.5470 C   0  0  0  0  0  0  0  0  0  0  0  0
  -29.6310  -13.6022   25.2155 C   0  0  0  0  0  0  0  0  0  0  0  0
  -25.2363  -13.7661   20.5390 C   0  0  0  0  0  0  0  0  0  0  0  0
  -22.8011  -13.4642   21.0156 C   0  0  0  0  0  0  0  0  0  0  0  0
  -26.1200   -9.4576   31.9267 C   0  0  0  0  0  0  0  0  0  0  0  0
  -28.4019  -10.1001   34.1408 C   0  0  0  0  0  0  0  0  0  0  0  0
  -31.7035  -10.6171   34.8327 C   0  0  0  0  0  0  0  0  0  0  0  0
  -31.1061  -12.9222   21.3663 C   0  0  0  0  0  0  0  0  0  0  0  0
  -21.3350   -9.0858   33.6654 C   0  0  0  0  0  0  0  0  0  0  0  0
  -27.7843   -7.6166   31.4830 C   0  0  0  0  0  0  0  0  0  0  0  0
  -29.1018  -10.2533   31.7217 C   0  0  0  0  0  0  0  0  0  0  0  0
  -22.5717   -9.8997   34.0375 C   0  0  0  0  0  0  0  0  0  0  0  0
  -29.4613  -13.6619   18.2964 C   0  0  0  0  0  0  0  0  0  0  0  0
  -23.1798  -10.5445   32.7961 C   0  0  0  0  0  0  0  0  0  0  0  0
  -27.9912  -13.3536   18.5856 C   0  0  0  0  0  0  0  0  0  0  0  0
  -30.3935  -12.6824   19.0060 C   0  0  0  0  0  0  0  0  0  0  0  0
  -28.7045  -12.2532   20.7487 C   0  0  0  0  0  0  0  0  0  0  0  0
  -23.6357   -9.4815   31.7894 C   0  0  1  0  0  0  0  0  0  0  0  0
  -27.2875   -8.6770   32.4608 C   0  0  1  0  0  0  0  0  0  0  0  0
  -27.7276  -13.2486   20.0998 C   0  0  2  0  0  0  0  0  0  0  0  0
  -30.5572  -15.8482   24.5592 C   0  0  0  0  0  0  0  0  0  0  0  0
  -26.2848  -12.3044   25.8990 C   0  0  0  0  0  0  0  0  0  0  0  0
  -33.2580  -11.1584   36.7268 C   0  0  0  0  0  0  0  0  0  0  0  0
  -32.0273  -13.6910   26.1987 C   0  0  0  0  0  0  0  0  0  0  0  0
  -27.4851  -13.0092   34.0588 C   0  0  0  0  0  0  0  0  0  0  0  0
  -29.6228  -13.6422   35.1979 C   0  0  0  0  0  0  0  0  0  0  0  0
  -27.9961  -12.1407   36.3476 C   0  0  0  0  0  0  0  0  0  0  0  0
  -33.1858   -8.0780   34.4948 C   0  0  0  0  0  0  0  0  0  0  0  0
  -31.0048  -11.4825   25.5464 C   0  0  0  0  0  0  0  0  0  0  0  0
  -31.6648  -13.1358   23.7749 C   0  0  0  0  0  0  0  0  0  0  0  0
  -30.8244  -11.1386   27.0248 C   0  0  0  0  0  0  0  0  0  1  0  0
  -29.3438  -11.2505   34.4025 C   0  0  1  0  0  0  0  0  0  0  0  0
  -32.6070  -10.0508   35.9131 C   0  0  2  0  0  0  0  0  0  0  0  0
  -31.0530  -13.0078   25.2047 C   0  0  1  0  0  0  0  0  0  0  0  0
  -28.6124  -12.4964   34.9771 C   0  0  0  0  0  0  0  0  0  0  0  0
  -25.9377  -11.6084   20.5339 N   0  0  0  0  0  0  0  0  0  0  0  0
  -28.6384  -12.7423   25.5364 N   0  0  0  0  0  0  0  0  0  0  0  0
  -26.2800  -12.9003   20.3931 N   0  0  0  0  0  0  0  0  0  0  0  0
  -28.3241   -9.6485   32.8158 N   0  0  0  0  0  0  0  0  0  0  0  0
  -30.0923  -12.6310   20.4387 N   0  0  0  0  0  0  0  0  0  0  0  0
  -25.4046  -15.1010   20.4288 N   0  0  0  0  0  0  0  0  0  0  0  0
  -21.7881  -12.5274   21.2617 N   0  0  0  0  0  0  0  0  0  0  0  0
  -24.8902   -8.8938   32.2083 N   0  0  0  0  0  0  0  0  0  0  0  0
  -30.3984  -10.7267   35.2638 N   0  0  0  0  0  0  0  0  0  0  0  0
  -30.7346  -12.8567   22.7037 N   0  0  0  0  0  0  0  0  0  0  0  0
  -33.6839   -9.2195   35.3047 N   0  3  0  0  0  0  0  0  0  0  0  0
  -22.5134  -14.6847   20.9809 O   0  0  0  0  0  0  0  0  0  0  0  0
  -26.3200  -10.4953   31.3063 O   0  0  0  0  0  0  0  0  0  0  0  0
  -27.7641   -9.6153   35.0788 O   0  0  0  0  0  0  0  0  0  0  0  0
  -32.1151  -10.9344   33.7189 O   0  0  0  0  0  0  0  0  0  0  0  0
  -32.2556  -13.2238   21.0277 O   0  0  0  0  0  0  0  0  0  0  0  0
  -21.7112   -6.9677   21.6065 O   0  0  0  0  0  0  0  0  0  0  0  0
  -30.7755   -9.7184   27.1555 O   0  0  0  0  0  0  0  0  0  1  0  0
  -18.1403   -6.8688   25.8068 F   0  0  0  0  0  0  0  0  0  0  0  0
  -19.6066   -8.7566   21.7212 F   0  0  0  0  0  0  0  0  0  0  0  0
  1  2  1  0  0  0  0
  1  5  2  0  0  0  0
  2  6  2  0  0  0  0
  3  9  2  0  0  0  0
  3 17  1  0  0  0  0
  4 10  1  0  0  0  0
  4 17  2  0  0  0  0
  5 19  1  0  0  0  0
  6 21  1  0  0  0  0
  7 11  2  0  0  0  0
  7 20  1  0  0  0  0
  8 14  2  0  0  0  0
  8 23  1  0  0  0  0
  9 24  1  0  0  0  0
 10 24  2  0  0  0  0
 11 25  1  0  0  0  0
 12 13  2  0  0  0  0
 12 26  1  0  0  0  0
 13 27  1  0  0  0  0
 14 30  1  0  0  0  0
 15 22  1  0  0  0  0
 15 25  2  0  0  0  0
 16 27  2  0  0  0  0
 16 28  1  0  0  0  0
 17 29  1  0  0  0  0
 18 29  1  0  0  0  0
 18 32  2  0  0  0  0
 18 33  1  0  0  0  0
 19 21  2  0  0  0  0
 19 38  1  0  0  0  0
 20 22  2  0  0  0  0
 20 39  1  0  0  0  0
 21 47  1  0  0  0  0
 22 40  1  0  0  0  0
 23 31  2  0  0  0  0
 23 50  1  0  0  0  0
 24 81  1  0  0  0  0
 25 82  1  0  0  0  0
 26 28  2  0  0  0  0
 26 81  1  0  0  0  0
 27 83  1  0  0  0  0
 28 84  1  0  0  0  0
 29 65  2  0  0  0  0
 30 51  1  0  0  0  0
 30 66  2  0  0  0  0
 31 63  1  0  0  0  0
 31 66  1  0  0  0  0
 32 67  1  0  0  0  0
 32 70  1  0  0  0  0
 33 71  1  0  0  0  0
 33 76  2  0  0  0  0
 34 48  1  0  0  0  0
 34 72  1  0  0  0  0
 34 77  2  0  0  0  0
 35 61  1  0  0  0  0
 35 68  1  0  0  0  0
 35 78  2  0  0  0  0
 36 62  1  0  0  0  0
 36 73  1  0  0  0  0
 36 79  2  0  0  0  0
 37 69  1  0  0  0  0
 37 74  1  0  0  0  0
 37 80  2  0  0  0  0
 38 41  1  0  0  0  0
 39 48  1  0  0  0  0
 40 68  1  0  0  0  0
 41 43  1  0  0  0  0
 42 44  1  0  0  0  0
 42 45  1  0  0  0  0
 43 47  1  0  0  0  0
 44 49  1  0  0  0  0
 45 69  1  0  0  0  0
 46 49  1  0  0  0  0
 46 69  1  0  0  0  0
 47 72  1  0  0  0  0
 48 68  1  0  0  0  0
 49 67  1  0  0  0  0
 52 62  1  0  0  0  0
 53 63  1  0  0  0  0
 54 64  1  0  0  0  0
 55 64  1  0  0  0  0
 56 64  1  0  0  0  0
 57 75  1  0  0  0  0
 58 60  1  0  0  0  0
 58 63  1  0  0  0  0
 59 63  1  0  0  0  0
 59 74  1  0  0  0  0
 60 82  1  0  0  0  0
 61 64  1  0  0  0  0
 61 73  1  0  0  0  0
 62 75  1  0  0  0  0
 65 67  1  0  0  0  0
M  CHG  1  75   1
M  ISO  4  37 100  60 101  74 100  82 101
M  END
> <Batch ID>
0100

> <Smiles>
CNC(C)C(=O)NC(C(=O)N1Cc2cc([101O:1][101CH2:1]CC(C)(C[100NH:0][100C:0](=O)N3CCCC(n4nc(-c5ccc(Oc6ccc(F)cc6F)cc5)c(C(N)=O)c4N)C3)c3nc(C)ccc3C)ccc2CC1C(=O)NC1CCCc2ccccc21)C(C)(C)C

> <Shape>
0.129

> <Color>
0.174

> <Negative vol penalty>
0.000

$$$$

  -OEChem-04052319333D

 86 94  0     1  0  0  0  0  0999 V2000
  -32.0329  -31.6149   16.7404 C   0  0  0  0  0  0  0  0  0  0  0  0
  -31.8953  -30.5740   17.6530 C   0  0  0  0  0  0  0  0  0  0  0  0
  -23.6364   -9.6226   20.5707 C   0  0  0  0  0  0  0  0  0  0  0  0
  -24.1895  -10.2469   22.8382 C   0  0  0  0  0  0  0  0  0  0  0  0
  -31.1681  -32.7073   16.7950 C   0  0  0  0  0  0  0  0  0  0  0  0
  -30.8935  -30.6253   18.6216 C   0  0  0  0  0  0  0  0  0  0  0  0
  -28.4290  -26.2276   19.1023 C   0  0  0  0  0  0  0  0  0  0  0  0
  -23.0839   -8.4287   21.0342 C   0  0  0  0  0  0  0  0  0  0  0  0
  -23.6370   -9.0529   23.3017 C   0  0  0  0  0  0  0  0  0  0  0  0
  -29.0641  -25.2172   19.8231 C   0  0  0  0  0  0  0  0  0  0  0  0
  -20.5555   -7.8111   23.9204 C   0  0  0  0  0  0  0  0  0  0  0  0
  -19.7217   -7.8749   25.0367 C   0  0  0  0  0  0  0  0  0  0  0  0
  -27.7202  -25.7570   21.7523 C   0  0  0  0  0  0  0  0  0  0  0  0
  -31.7452  -22.5557   23.1294 C   0  0  0  0  0  0  0  0  0  0  0  0
  -30.4965  -20.8612   21.9437 C   0  0  0  0  0  0  0  0  0  0  0  0
  -21.2122   -6.3982   26.2346 C   0  0  0  0  0  0  0  0  0  0  0  0
  -24.1893  -10.5318   21.4727 C   0  0  0  0  0  0  0  0  0  0  0  0
  -24.1000  -12.9955   20.8171 C   0  0  0  0  0  0  0  0  0  0  0  0
  -30.1491  -32.7674   17.7587 C   0  0  0  0  0  0  0  0  0  0  0  0
  -27.4407  -27.0187   19.7054 C   0  0  0  0  0  0  0  0  0  0  0  0
  -30.0151  -31.7201   18.6900 C   0  0  0  0  0  0  0  0  0  0  0  0
  -27.0722  -26.7750   21.0362 C   0  0  0  0  0  0  0  0  0  0  0  0
  -30.8703  -22.1953   22.1046 C   0  0  0  0  0  0  0  0  0  0  0  0
  -32.2464  -21.5819   23.9933 C   0  0  0  0  0  0  0  0  0  0  0  0
  -30.9976  -19.8873   22.8075 C   0  0  0  0  0  0  0  0  0  0  0  0
  -31.8726  -20.2477   23.8323 C   0  0  0  0  0  0  0  0  0  0  0  0
  -23.0842   -8.1438   22.3997 C   0  0  0  0  0  0  0  0  0  0  0  0
  -28.7118  -24.9837   21.1492 C   0  0  0  0  0  0  0  0  0  0  0  0
  -21.7177   -7.0407   23.9611 C   0  0  0  0  0  0  0  0  0  0  0  0
  -20.0500   -7.1686   26.1938 C   0  0  0  0  0  0  0  0  0  0  0  0
  -22.0461   -6.3343   25.1182 C   0  0  0  0  0  0  0  0  0  0  0  0
  -24.7606  -11.7650   20.9946 C   0  0  0  0  0  0  0  0  0  0  0  0
  -25.0733  -13.8431   20.3473 C   0  0  0  0  0  0  0  0  0  0  0  0
  -22.7293  -13.3413   21.0558 C   0  0  0  0  0  0  0  0  0  0  0  0
  -27.1320  -30.1154   20.3529 C   0  0  0  0  0  0  0  0  0  0  0  0
  -24.1473  -29.2290   21.2630 C   0  0  0  0  0  0  0  0  0  0  0  0
  -22.0672  -26.7549   22.3581 C   0  0  0  0  0  0  0  0  0  0  0  0
  -30.2646  -15.8814   20.5511 C   0  0  0  0  0  0  0  0  0  0  0  0
  -29.2685  -33.9908   17.8085 C   0  0  0  0  0  0  0  0  0  0  0  0
  -26.7462  -28.0870   18.9061 C   0  0  0  0  0  0  0  0  0  0  0  0
  -26.0031  -27.5830   21.7237 C   0  0  0  0  0  0  0  0  0  0  0  0
  -27.9962  -33.7925   18.6284 C   0  0  0  0  0  0  0  0  0  0  0  0
  -29.7578  -12.8842   18.6973 C   0  0  0  0  0  0  0  0  0  0  0  0
  -28.3180  -33.1187   19.9586 C   0  0  0  0  0  0  0  0  0  0  0  0
  -28.3614  -12.4245   19.1197 C   0  0  0  0  0  0  0  0  0  0  0  0
  -30.5197  -13.5163   19.8600 C   0  0  0  0  0  0  0  0  0  0  0  0
  -28.4114  -14.1523   20.9666 C   0  0  0  0  0  0  0  0  0  0  0  0
  -28.9251  -31.7277   19.7398 C   0  0  1  0  0  0  0  0  0  0  0  0
  -26.1162  -29.1700   19.7766 C   0  0  1  0  0  0  0  0  0  0  0  0
  -27.5837  -13.5588   19.8138 C   0  0  2  0  0  0  0  0  0  0  0  0
  -34.5220  -21.2718   24.9993 C   0  0  0  0  0  0  0  0  0  0  0  0
  -19.6910  -26.3424   23.0515 C   0  0  0  0  0  0  0  0  0  0  0  0
  -32.6970  -19.8001   26.1702 C   0  0  0  0  0  0  0  0  0  0  0  0
  -33.7429  -18.6045   24.2176 C   0  0  0  0  0  0  0  0  0  0  0  0
  -31.4682  -17.9805   25.0037 C   0  0  0  0  0  0  0  0  0  0  0  0
  -24.6936  -30.5920   23.9377 C   0  0  0  0  0  0  0  0  0  0  0  0
  -22.7349  -29.3559   24.8885 C   0  0  0  0  0  0  0  0  0  0  0  0
  -22.3986  -30.9753   23.0211 C   0  0  0  0  0  0  0  0  0  0  0  0
  -21.6525  -24.7887   20.1853 C   0  0  0  0  0  0  0  0  0  0  0  0
  -33.1810  -21.9943   25.0833 C   0  0  0  0  0  0  0  0  0  0  0  0
  -30.5818  -18.4656   22.6140 C   0  0  0  0  0  0  0  0  0  0  0  0
  -30.3317  -23.2427   21.1749 C   0  0  0  0  0  0  0  0  0  1  0  0
  -29.8557  -18.2157   21.2879 C   0  0  0  0  0  0  0  0  0  0  0  0
  -23.5184  -28.7577   22.5520 C   0  0  1  0  0  0  0  0  0  0  0  0
  -20.6850  -26.3251   21.9007 C   0  0  2  0  0  0  0  0  0  0  0  0
  -32.4098  -19.2039   24.7590 C   0  0  0  0  0  0  0  0  0  0  0  0
  -23.3579  -29.9061   23.5877 C   0  0  0  0  0  0  0  0  0  0  0  0
  -26.0535  -11.8216   20.6641 N   0  0  0  0  0  0  0  0  0  0  0  0
  -26.2132  -13.0977   20.2743 N   0  0  0  0  0  0  0  0  0  0  0  0
  -25.3577  -28.6203   20.9021 N   0  0  0  0  0  0  0  0  0  0  0  0
  -29.7283  -14.5855   20.4735 N   0  0  0  0  0  0  0  0  0  0  0  0
  -25.0567  -15.1457   19.9934 N   0  0  0  0  0  0  0  0  0  0  0  0
  -21.8644  -12.3499   21.5390 N   0  0  0  0  0  0  0  0  0  0  0  0
  -27.8914  -30.7722   19.4035 N   0  0  0  0  0  0  0  0  0  0  0  0
  -22.2659  -28.1079   22.1813 N   0  0  0  0  0  0  0  0  0  0  0  0
  -29.4463  -16.8367   21.1415 N   0  0  0  0  0  0  0  0  0  0  0  0
  -20.7309  -24.9451   21.3400 N   0  3  0  0  0  0  0  0  0  0  0  0
  -22.2807  -14.4911   20.8313 O   0  0  0  0  0  0  0  0  0  0  0  0
  -27.2192  -30.2408   21.5688 O   0  0  0  0  0  0  0  0  0  0  0  0
  -23.5817  -30.0999   20.5973 O   0  0  0  0  0  0  0  0  0  0  0  0
  -22.8872  -25.9697   22.8289 O   0  0  0  0  0  0  0  0  0  0  0  0
  -31.3872  -16.1671   20.1210 O   0  0  0  0  0  0  0  0  0  0  0  0
  -22.5450   -6.9790   22.8523 O   0  0  0  0  0  0  0  0  0  0  0  0
  -29.3306  -23.9986   21.8552 O   0  0  0  0  0  0  0  0  0  1  0  0
  -19.2500   -7.2312   27.2663 F   0  0  0  0  0  0  0  0  0  0  0  0
  -23.1618   -5.5936   25.1637 F   0  0  0  0  0  0  0  0  0  0  0  0
  1  2  1  0  0  0  0
  1  5  2  0  0  0  0
  2  6  2  0  0  0  0
  3  8  2  0  0  0  0
  3 17  1  0  0  0  0
  4  9  1  0  0  0  0
  4 17  2  0  0  0  0
  5 19  1  0  0  0  0
  6 21  1  0  0  0  0
  7 10  2  0  0  0  0
  7 20  1  0  0  0  0
  8 27  1  0  0  0  0
  9 27  2  0  0  0  0
 10 28  1  0  0  0  0
 11 12  2  0  0  0  0
 11 29  1  0  0  0  0
 12 30  1  0  0  0  0
 13 22  1  0  0  0  0
 13 28  2  0  0  0  0
 14 23  2  0  0  0  0
 14 24  1  0  0  0  0
 15 23  1  0  0  0  0
 15 25  2  0  0  0  0
 16 30  2  0  0  0  0
 16 31  1  0  0  0  0
 17 32  1  0  0  0  0
 18 32  1  0  0  0  0
 18 33  2  0  0  0  0
 18 34  1  0  0  0  0
 19 21  2  0  0  0  0
 19 39  1  0  0  0  0
 20 22  2  0  0  0  0
 20 40  1  0  0  0  0
 21 48  1  0  0  0  0
 22 41  1  0  0  0  0
 23 62  1  0  0  0  0
 24 26  2  0  0  0  0
 24 60  1  0  0  0  0
 25 26  1  0  0  0  0
 25 61  1  0  0  0  0
 26 66  1  0  0  0  0
 27 83  1  0  0  0  0
 28 84  1  0  0  0  0
 29 31  2  0  0  0  0
 29 83  1  0  0  0  0
 30 85  1  0  0  0  0
 31 86  1  0  0  0  0
 32 68  2  0  0  0  0
 33 69  1  0  0  0  0
 33 72  1  0  0  0  0
 34 73  1  0  0  0  0
 34 78  2  0  0  0  0
 35 49  1  0  0  0  0
 35 74  1  0  0  0  0
 35 79  2  0  0  0  0
 36 64  1  0  0  0  0
 36 70  1  0  0  0  0
 36 80  2  0  0  0  0
 37 65  1  0  0  0  0
 37 75  1  0  0  0  0
 37 81  2  0  0  0  0
 38 71  1  0  0  0  0
 38 76  1  0  0  0  0
 38 82  2  0  0  0  0
 39 42  1  0  0  0  0
 40 49  1  0  0  0  0
 41 70  1  0  0  0  0
 42 44  1  0  0  0  0
 43 45  1  0  0  0  0
 43 46  1  0  0  0  0
 44 48  1  0  0  0  0
 45 50  1  0  0  0  0
 46 71  1  0  0  0  0
 47 50  1  0  0  0  0
 47 71  1  0  0  0  0
 48 74  1  0  0  0  0
 49 70  1  0  0  0  0
 50 69  1  0  0  0  0
 51 60  1  0  0  0  0
 52 65  1  0  0  0  0
 53 66  1  0  0  0  0
 54 66  1  0  0  0  0
 55 66  1  0  0  0  0
 56 67  1  0  0  0  0
 57 67  1  0  0  0  0
 58 67  1  0  0  0  0
 59 77  1  0  0  0  0
 61 63  1  0  0  0  0
 62 84  1  0  0  0  0
 63 76  1  0  0  0  0
 64 67  1  0  0  0  0
 64 75  1  0  0  0  0
 65 77  1  0  0  0  0
 68 69  1  0  0  0  0
M  CHG  1  77   1
M  ISO  4  38 100  62 101  76 100  84 101
M  END
> <Batch ID>
0100

> <Smiles>
CCc1cc([101CH2:1][101O:1]c2ccc3c(c2)CN(C(=O)C(NC(=O)C(C)NC)C(C)(C)C)C(C(=O)NC2CCCc4ccccc42)C3)cc(CC[100NH:0][100C:0](=O)N2CCCC(n3nc(-c4ccc(Oc5ccc(F)cc5F)cc4)c(C(N)=O)c3N)C2)c1C(C)(C)C

> <Shape>
0.270

> <Color>
0.143

> <Negative vol penalty>
0.000

$$$$

  -OEChem-04052319333D

 92100  0     1  0  0  0  0  0999 V2000
  -22.8614  -30.9546   20.5290 C   0  0  0  0  0  0  0  0  0  0  0  0
  -23.7326  -29.9317   20.1684 C   0  0  0  0  0  0  0  0  0  0  0  0
  -26.4938  -12.6805   21.6446 C   0  0  0  0  0  0  0  0  0  0  0  0
  -26.0137  -13.7247   19.5195 C   0  0  0  0  0  0  0  0  0  0  0  0
  -22.0263  -30.8000   21.6347 C   0  0  0  0  0  0  0  0  0  0  0  0
  -23.7701  -28.7540   20.9141 C   0  0  0  0  0  0  0  0  0  0  0  0
  -23.8489  -24.6121   18.0014 C   0  0  0  0  0  0  0  0  0  0  0  0
  -29.7306  -26.1302   18.2517 C   0  0  0  0  0  0  0  0  0  0  0  0
  -29.6183  -27.3498   18.9193 C   0  0  0  0  0  0  0  0  0  0  0  0
  -25.2334  -12.0830   21.6358 C   0  0  0  0  0  0  0  0  0  0  0  0
  -24.7533  -13.1271   19.5106 C   0  0  0  0  0  0  0  0  0  0  0  0
  -25.0660  -24.2702   17.4136 C   0  0  0  0  0  0  0  0  0  0  0  0
  -23.7446   -9.4303   20.1594 C   0  0  0  0  0  0  0  0  0  0  0  0
  -23.6642   -8.0816   20.5060 C   0  0  0  0  0  0  0  0  0  0  0  0
  -25.4252  -22.6171   19.1334 C   0  0  0  0  0  0  0  0  0  0  0  0
  -22.2006   -8.6415   22.3449 C   0  0  0  0  0  0  0  0  0  0  0  0
  -26.8839  -13.5014   20.5864 C   0  0  0  0  0  0  0  0  0  0  0  0
  -29.3797  -13.5936   20.0669 C   0  0  0  0  0  0  0  0  0  0  0  0
  -22.0467  -29.6160   22.3886 C   0  0  0  0  0  0  0  0  0  0  0  0
  -23.4152  -23.9657   19.1678 C   0  0  0  0  0  0  0  0  0  0  0  0
  -22.9355  -28.5840   22.0317 C   0  0  0  0  0  0  0  0  0  0  0  0
  -24.2010  -22.9510   19.7326 C   0  0  0  0  0  0  0  0  0  0  0  0
  -29.6449  -24.9344   18.9647 C   0  0  0  0  0  0  0  0  0  0  0  0
  -29.4204  -27.3736   20.2998 C   0  0  0  0  0  0  0  0  0  0  0  0
  -29.4470  -24.9582   20.3453 C   0  0  0  0  0  0  0  0  0  0  0  0
  -29.3347  -26.1778   21.0128 C   0  0  0  0  0  0  0  0  0  0  0  0
  -24.3632  -12.3063   20.5688 C   0  0  0  0  0  0  0  0  0  0  0  0
  -25.8557  -23.2746   17.9812 C   0  0  0  0  0  0  0  0  0  0  0  0
  -23.0531  -10.3847   20.9056 C   0  0  0  0  0  0  0  0  0  0  0  0
  -22.8921   -7.6872   21.5987 C   0  0  0  0  0  0  0  0  0  0  0  0
  -22.2811   -9.9903   21.9983 C   0  0  0  0  0  0  0  0  0  0  0  0
  -28.1855  -14.1194   20.5953 C   0  0  0  0  0  0  0  0  0  0  0  0
  -30.3234  -14.5573   20.3262 C   0  0  0  0  0  0  0  0  0  0  0  0
  -29.6150  -12.3458   19.4011 C   0  0  0  0  0  0  0  0  0  0  0  0
  -22.7618  -24.8946   22.1366 C   0  0  0  0  0  0  0  0  0  0  0  0
  -21.7744  -21.8222   22.4649 C   0  0  0  0  0  0  0  0  0  0  0  0
  -21.9649  -18.5876   21.3935 C   0  0  0  0  0  0  0  0  0  0  0  0
  -29.8776  -20.3945   21.0898 C   0  0  0  0  0  0  0  0  0  0  0  0
  -21.1592  -29.5138   23.6037 C   0  0  0  0  0  0  0  0  0  0  0  0
  -22.0873  -24.3276   19.7745 C   0  0  0  0  0  0  0  0  0  0  0  0
  -23.7711  -22.2125   20.9729 C   0  0  0  0  0  0  0  0  0  0  0  0
  -20.9928  -28.0862   24.1181 C   0  0  0  0  0  0  0  0  0  0  0  0
  -31.3489  -18.0559   23.4271 C   0  0  0  0  0  0  0  0  0  0  0  0
  -22.3448  -27.3834   24.1894 C   0  0  0  0  0  0  0  0  0  0  0  0
  -30.8091  -16.7233   22.9046 C   0  0  0  0  0  0  0  0  0  0  0  0
  -30.3058  -19.1624   23.3013 C   0  0  0  0  0  0  0  0  0  0  0  0
  -29.2322  -18.0217   21.3988 C   0  0  0  0  0  0  0  0  0  0  0  0
  -22.9876  -27.2818   22.8009 C   0  0  1  0  0  0  0  0  0  0  0  0
  -21.9855  -23.9607   21.2518 C   0  0  1  0  0  0  0  0  0  0  0  0
  -30.2476  -16.8671   21.4776 C   0  0  2  0  0  0  0  0  0  0  0  0
  -28.0917  -29.5058   20.5040 C   0  0  0  0  0  0  0  0  0  0  0  0
  -30.5869  -29.5364   20.8616 C   0  0  0  0  0  0  0  0  0  0  0  0
  -21.0696  -16.2948   21.8818 C   0  0  0  0  0  0  0  0  0  0  0  0
  -26.9251  -24.9847   22.3145 C   0  0  0  0  0  0  0  0  0  0  0  0
  -23.6230  -21.6182   24.8838 C   0  0  0  0  0  0  0  0  0  0  0  0
  -23.4208  -19.1269   24.7406 C   0  0  0  0  0  0  0  0  0  0  0  0
  -21.3964  -20.5177   25.1767 C   0  0  0  0  0  0  0  0  0  0  0  0
  -20.7364  -18.3692   18.7098 C   0  0  0  0  0  0  0  0  0  0  0  0
  -26.8965  -28.7032   24.2908 C   0  0  0  0  0  0  0  0  0  0  0  0
  -27.5256  -27.6997   26.4813 C   0  0  0  0  0  0  0  0  0  0  0  0
  -29.7692  -23.6300   18.2185 C   0  0  0  0  0  0  0  0  0  0  0  0
  -29.3543  -23.6742   21.1071 C   0  0  0  0  0  0  0  0  0  0  0  0
  -29.1240  -26.2052   22.4937 C   0  0  0  0  0  0  0  0  0  0  0  0
  -29.2368  -23.6873   16.7851 C   0  0  0  0  0  0  0  0  0  0  0  0
  -30.5774  -22.7697   20.9290 C   0  0  0  0  0  0  0  0  0  0  0  0
  -27.4196  -26.2731   24.4431 C   0  0  0  0  0  0  0  0  0  0  0  0
  -27.7406  -23.9681   16.7075 C   0  0  0  0  0  0  0  0  0  1  0  0
  -29.3054  -28.6932   20.9905 C   0  0  0  0  0  0  0  0  0  0  0  0
  -22.4322  -20.5254   22.8704 C   0  0  1  0  0  0  0  0  0  0  0  0
  -20.8873  -17.5683   21.0709 C   0  0  2  0  0  0  0  0  0  0  0  0
  -27.6375  -26.1986   22.9238 C   0  0  2  0  0  0  0  0  0  0  0  0
  -22.7274  -20.4621   24.3956 C   0  0  0  0  0  0  0  0  0  0  0  0
  -28.3525  -15.3235   21.1486 N   0  0  0  0  0  0  0  0  0  0  0  0
  -29.6629  -15.5623   20.9694 N   0  0  0  0  0  0  0  0  0  0  0  0
  -22.4677  -22.6069   21.5325 N   0  0  0  0  0  0  0  0  0  0  0  0
  -29.8258  -19.2593   21.9156 N   0  0  0  0  0  0  0  0  0  0  0  0
  -31.6456  -14.6345   20.0647 N   0  0  0  0  0  0  0  0  0  0  0  0
  -28.5343  -11.4726   19.2171 N   0  0  0  0  0  0  0  0  0  0  0  0
  -22.3739  -26.2171   22.0365 N   0  0  0  0  0  0  0  0  0  0  0  0
  -21.5641  -19.4581   22.3850 N   0  0  0  0  0  0  0  0  0  0  0  0
  -30.4485  -21.5271   21.6572 N   0  0  0  0  0  0  0  0  0  0  0  0
  -20.9263  -17.2136   19.6239 N   0  3  0  0  0  0  0  0  0  0  0  0
  -27.6956  -27.6252   24.9829 N   0  3  0  0  0  0  0  0  0  0  0  0
  -30.7532  -12.0078   18.9965 O   0  0  0  0  0  0  0  0  0  0  0  0
  -23.6462  -24.4482   22.8578 O   0  0  0  0  0  0  0  0  0  0  0  0
  -20.6821  -22.1244   22.9520 O   0  0  0  0  0  0  0  0  0  0  0  0
  -23.0547  -18.6073   20.8256 O   0  0  0  0  0  0  0  0  0  0  0  0
  -29.4512  -20.3973   19.9299 O   0  0  0  0  0  0  0  0  0  0  0  0
  -23.1334  -11.7232   20.5597 O   0  0  0  0  0  0  0  0  0  0  0  0
  -27.0444  -22.9393   17.4099 O   0  0  0  0  0  0  0  0  0  1  0  0
  -22.8137   -6.3919   21.9305 F   0  0  0  0  0  0  0  0  0  0  0  0
  -21.6136  -10.9024   22.7182 F   0  0  0  0  0  0  0  0  0  0  0  0
  1  2  1  0  0  0  0
  1  5  2  0  0  0  0
  2  6  2  0  0  0  0
  3 10  2  0  0  0  0
  3 17  1  0  0  0  0
  4 11  1  0  0  0  0
  4 17  2  0  0  0  0
  5 19  1  0  0  0  0
  6 21  1  0  0  0  0
  7 12  2  0  0  0  0
  7 20  1  0  0  0  0
  8  9  2  0  0  0  0
  8 23  1  0  0  0  0
  9 24  1  0  0  0  0
 10 27  1  0  0  0  0
 11 27  2  0  0  0  0
 12 28  1  0  0  0  0
 13 14  2  0  0  0  0
 13 29  1  0  0  0  0
 14 30  1  0  0  0  0
 15 22  1  0  0  0  0
 15 28  2  0  0  0  0
 16 30  2  0  0  0  0
 16 31  1  0  0  0  0
 17 32  1  0  0  0  0
 18 32  1  0  0  0  0
 18 33  2  0  0  0  0
 18 34  1  0  0  0  0
 19 21  2  0  0  0  0
 19 39  1  0  0  0  0
 20 22  2  0  0  0  0
 20 40  1  0  0  0  0
 21 48  1  0  0  0  0
 22 41  1  0  0  0  0
 23 25  2  0  0  0  0
 23 61  1  0  0  0  0
 24 26  2  0  0  0  0
 24 68  1  0  0  0  0
 25 26  1  0  0  0  0
 25 62  1  0  0  0  0
 26 63  1  0  0  0  0
 27 89  1  0  0  0  0
 28 90  1  0  0  0  0
 29 31  2  0  0  0  0
 29 89  1  0  0  0  0
 30 91  1  0  0  0  0
 31 92  1  0  0  0  0
 32 73  2  0  0  0  0
 33 74  1  0  0  0  0
 33 77  1  0  0  0  0
 34 78  1  0  0  0  0
 34 84  2  0  0  0  0
 35 49  1  0  0  0  0
 35 79  1  0  0  0  0
 35 85  2  0  0  0  0
 36 69  1  0  0  0  0
 36 75  1  0  0  0  0
 36 86  2  0  0  0  0
 37 70  1  0  0  0  0
 37 80  1  0  0  0  0
 37 87  2  0  0  0  0
 38 76  1  0  0  0  0
 38 81  1  0  0  0  0
 38 88  2  0  0  0  0
 39 42  1  0  0  0  0
 40 49  1  0  0  0  0
 41 75  1  0  0  0  0
 42 44  1  0  0  0  0
 43 45  1  0  0  0  0
 43 46  1  0  0  0  0
 44 48  1  0  0  0  0
 45 50  1  0  0  0  0
 46 76  1  0  0  0  0
 47 50  1  0  0  0  0
 47 76  1  0  0  0  0
 48 79  1  0  0  0  0
 49 75  1  0  0  0  0
 50 74  1  0  0  0  0
 51 68  1  0  0  0  0
 52 68  1  0  0  0  0
 53 70  1  0  0  0  0
 54 71  1  0  0  0  0
 55 72  1  0  0  0  0
 56 72  1  0  0  0  0
 57 72  1  0  0  0  0
 58 82  1  0  0  0  0
 59 83  1  0  0  0  0
 60 83  1  0  0  0  0
 61 64  1  0  0  0  0
 62 65  1  0  0  0  0
 63 71  1  0  0  0  0
 64 67  1  0  0  0  0
 65 81  1  0  0  0  0
 66 71  1  0  0  0  0
 66 83  1  0  0  0  0
 67 90  1  0  0  0  0
 69 72  1  0  0  0  0
 69 80  1  0  0  0  0
 70 82  1  0  0  0  0
 73 74  1  0  0  0  0
M  CHG  2  82   1  83   1
M  ISO  4  38 100  67 101  81 100  90 101
M  END
> <Batch ID>
0100

> <Smiles>
CNC(C)C(=O)NC(C(=O)N1Cc2cc([101O:1][101CH2:1]CCc3ccc(C(C)C)c(CC(C)CN(C)C)c3CC[100NH:0][100C:0](=O)N3CCCC(n4nc(-c5ccc(Oc6ccc(F)cc6F)cc5)c(C(N)=O)c4N)C3)ccc2CC1C(=O)NC1CCCc2ccccc21)C(C)(C)C

> <Shape>
0.257

> <Color>
0.069

> <Negative vol penalty>
0.000

$$$$

  -OEChem-04052319333D

 81 89  0     1  0  0  0  0  0999 V2000
  -29.7474  -11.4551   18.8295 C   0  0  0  0  0  0  0  0  0  0  0  0
  -28.5240  -11.9897   18.4383 C   0  0  0  0  0  0  0  0  0  0  0  0
  -24.7163  -31.8554   22.6501 C   0  0  0  0  0  0  0  0  0  0  0  0
  -25.2436  -30.1408   24.2686 C   0  0  0  0  0  0  0  0  0  0  0  0
  -30.4801  -12.0652   19.8467 C   0  0  0  0  0  0  0  0  0  0  0  0
  -28.0321  -13.1341   19.0650 C   0  0  0  0  0  0  0  0  0  0  0  0
  -24.7508  -17.6190   16.4912 C   0  0  0  0  0  0  0  0  0  0  0  0
  -25.5692  -32.7403   23.3096 C   0  0  0  0  0  0  0  0  0  0  0  0
  -26.0966  -31.0257   24.9281 C   0  0  0  0  0  0  0  0  0  0  0  0
  -23.3820  -17.8827   16.4639 C   0  0  0  0  0  0  0  0  0  0  0  0
  -27.8850  -35.3389   24.3583 C   0  0  0  0  0  0  0  0  0  0  0  0
  -28.7540  -36.1035   23.5800 C   0  0  0  0  0  0  0  0  0  0  0  0
  -23.6414  -19.3902   18.3291 C   0  0  0  0  0  0  0  0  0  0  0  0
  -17.5045  -22.6076   21.7831 C   0  0  0  0  0  0  0  0  0  0  0  0
  -29.7650  -34.0831   22.7240 C   0  0  0  0  0  0  0  0  0  0  0  0
  -19.7018  -22.3173   21.3858 C   0  0  0  0  0  0  0  0  0  0  0  0
  -24.5534  -30.5557   23.1296 C   0  0  0  0  0  0  0  0  0  0  0  0
  -24.0050  -28.7578   21.4049 C   0  0  0  0  0  0  0  0  0  0  0  0
  -30.0015  -13.2232   20.4796 C   0  0  0  0  0  0  0  0  0  0  0  0
  -25.5747  -18.2316   17.4462 C   0  0  0  0  0  0  0  0  0  0  0  0
  -28.7585  -13.7595   20.0926 C   0  0  0  0  0  0  0  0  0  0  0  0
  -25.0207  -19.1346   18.3648 C   0  0  0  0  0  0  0  0  0  0  0  0
  -18.7741  -23.2348   21.8274 C   0  0  0  0  0  0  0  0  0  0  0  0
  -26.2594  -32.3255   24.4486 C   0  0  0  0  0  0  0  0  0  0  0  0
  -22.8267  -18.7662   17.3847 C   0  0  0  0  0  0  0  0  0  0  0  0
  -27.9560  -33.9463   24.3195 C   0  0  0  0  0  0  0  0  0  0  0  0
  -29.6940  -35.4756   22.7628 C   0  0  0  0  0  0  0  0  0  0  0  0
  -28.8960  -33.3184   23.5023 C   0  0  0  0  0  0  0  0  0  0  0  0
  -23.6719  -29.6413   22.4491 C   0  0  0  0  0  0  0  0  0  0  0  0
  -17.6951  -21.3258   21.3159 C   0  0  0  0  0  0  0  0  0  0  0  0
  -22.8272  -28.1157   21.1097 C   0  0  0  0  0  0  0  0  0  0  0  0
  -25.2661  -28.5372   20.7596 C   0  0  0  0  0  0  0  0  0  0  0  0
  -27.4149  -17.1907   19.8199 C   0  0  0  0  0  0  0  0  0  0  0  0
  -28.2645  -20.3154   20.0116 C   0  0  0  0  0  0  0  0  0  0  0  0
  -27.4674  -23.5772   19.4015 C   0  0  0  0  0  0  0  0  0  0  0  0
  -18.1643  -25.5193   22.6967 C   0  0  0  0  0  0  0  0  0  0  0  0
  -30.8068  -13.8201   21.6065 C   0  0  0  0  0  0  0  0  0  0  0  0
  -27.0536  -17.9570   17.4454 C   0  0  0  0  0  0  0  0  0  0  0  0
  -25.8653  -19.8339   19.3973 C   0  0  0  0  0  0  0  0  0  0  0  0
  -30.3919  -15.2452   21.9633 C   0  0  0  0  0  0  0  0  0  0  0  0
  -18.0871  -29.0777   22.6023 C   0  0  0  0  0  0  0  0  0  0  0  0
  -28.8737  -15.3485   22.0694 C   0  0  0  0  0  0  0  0  0  0  0  0
  -19.5606  -29.4688   22.4682 C   0  0  0  0  0  0  0  0  0  0  0  0
  -17.9042  -27.8560   23.5011 C   0  0  0  0  0  0  0  0  0  0  0  0
  -20.1873  -27.0787   22.9987 C   0  0  0  0  0  0  0  0  0  0  0  0
  -28.2032  -15.0139   20.7315 C   0  0  1  0  0  0  0  0  0  0  0  0
  -27.7152  -18.2428   18.7900 C   0  0  1  0  0  0  0  0  0  0  0  0
  -20.4275  -28.2648   22.0505 C   0  0  2  0  0  0  0  0  0  0  0  0
  -16.7130  -20.2484   21.0771 C   0  0  0  0  0  0  0  0  0  0  0  0
  -28.3436  -25.9091   19.7047 C   0  0  0  0  0  0  0  0  0  0  0  0
  -19.6994  -17.6598   18.1895 C   0  0  0  0  0  0  0  0  0  0  0  0
  -27.5282  -20.2046   22.9705 C   0  0  0  0  0  0  0  0  0  0  0  0
  -27.5060  -22.7081   22.9871 C   0  0  0  0  0  0  0  0  0  0  0  0
  -29.6156  -21.4847   22.4622 C   0  0  0  0  0  0  0  0  0  0  0  0
  -27.5053  -24.0669   16.4830 C   0  0  0  0  0  0  0  0  0  0  0  0
  -20.0906  -19.9867   19.0766 C   0  0  0  0  0  0  0  0  0  0  0  0
  -19.6925  -19.9075   20.5575 C   0  0  0  0  0  0  0  0  0  0  0  0
  -27.7468  -21.5201   20.7597 C   0  0  1  0  0  0  0  0  0  0  0  0
  -28.2628  -24.7083   18.7750 C   0  0  2  0  0  0  0  0  0  0  0  0
  -20.7470  -18.7098   18.5370 C   0  0  2  0  0  0  0  0  0  1  0  0
  -28.0826  -21.4649   22.2768 C   0  0  0  0  0  0  0  0  0  0  0  0
  -22.3835  -29.5698   22.7939 N   0  0  0  0  0  0  0  0  0  0  0  0
  -19.0346  -21.1605   21.0780 N   0  0  0  0  0  0  0  0  0  0  0  0
  -21.8965  -28.6337   21.9615 N   0  0  0  0  0  0  0  0  0  0  0  0
  -27.3048  -19.5277   19.3601 N   0  0  0  0  0  0  0  0  0  0  0  0
  -18.7529  -26.7541   23.0424 N   0  0  0  0  0  0  0  0  0  0  0  0
  -22.5073  -27.1642   20.2070 N   0  0  0  0  0  0  0  0  0  0  0  0
  -26.3743  -29.2817   21.1863 N   0  0  0  0  0  0  0  0  0  0  0  0
  -19.0665  -24.5574   22.2433 N   0  0  0  0  0  0  0  0  0  0  0  0
  -28.3054  -16.1340   19.8208 N   0  0  0  0  0  0  0  0  0  0  0  0
  -28.2826  -22.6894   20.0712 N   0  0  0  0  0  0  0  0  0  0  0  0
  -27.6275  -25.1436   17.4992 N   0  3  0  0  0  0  0  0  0  0  0  0
  -25.4027  -27.7162   19.8211 O   0  0  0  0  0  0  0  0  0  0  0  0
  -26.4478  -17.3281   20.5598 O   0  0  0  0  0  0  0  0  0  0  0  0
  -29.4764  -20.0859   19.9995 O   0  0  0  0  0  0  0  0  0  0  0  0
  -26.2448  -23.4919   19.3093 O   0  0  0  0  0  0  0  0  0  0  0  0
  -16.9462  -25.3379   22.7697 O   0  0  0  0  0  0  0  0  0  0  0  0
  -27.0921  -33.1886   25.0922 O   0  0  0  0  0  0  0  0  0  0  0  0
  -21.4909  -19.0249   17.3607 O   0  0  0  0  0  0  0  0  0  1  0  0
  -30.5274  -36.2100   22.0143 F   0  0  0  0  0  0  0  0  0  0  0  0
  -28.9682  -31.9810   23.4600 F   0  0  0  0  0  0  0  0  0  0  0  0
  1  2  1  0  0  0  0
  1  5  2  0  0  0  0
  2  6  2  0  0  0  0
  3  8  2  0  0  0  0
  3 17  1  0  0  0  0
  4  9  1  0  0  0  0
  4 17  2  0  0  0  0
  5 19  1  0  0  0  0
  6 21  1  0  0  0  0
  7 10  2  0  0  0  0
  7 20  1  0  0  0  0
  8 24  1  0  0  0  0
  9 24  2  0  0  0  0
 10 25  1  0  0  0  0
 11 12  2  0  0  0  0
 11 26  1  0  0  0  0
 12 27  1  0  0  0  0
 13 22  1  0  0  0  0
 13 25  2  0  0  0  0
 14 23  1  0  0  0  0
 14 30  2  0  0  0  0
 15 27  2  0  0  0  0
 15 28  1  0  0  0  0
 16 23  2  0  0  0  0
 16 63  1  0  0  0  0
 17 29  1  0  0  0  0
 18 29  1  0  0  0  0
 18 31  2  0  0  0  0
 18 32  1  0  0  0  0
 19 21  2  0  0  0  0
 19 37  1  0  0  0  0
 20 22  2  0  0  0  0
 20 38  1  0  0  0  0
 21 46  1  0  0  0  0
 22 39  1  0  0  0  0
 23 69  1  0  0  0  0
 24 78  1  0  0  0  0
 25 79  1  0  0  0  0
 26 28  2  0  0  0  0
 26 78  1  0  0  0  0
 27 80  1  0  0  0  0
 28 81  1  0  0  0  0
 29 62  2  0  0  0  0
 30 49  1  0  0  0  0
 30 63  1  0  0  0  0
 31 64  1  0  0  0  0
 31 67  1  0  0  0  0
 32 68  1  0  0  0  0
 32 73  2  0  0  0  0
 33 47  1  0  0  0  0
 33 70  1  0  0  0  0
 33 74  2  0  0  0  0
 34 58  1  0  0  0  0
 34 65  1  0  0  0  0
 34 75  2  0  0  0  0
 35 59  1  0  0  0  0
 35 71  1  0  0  0  0
 35 76  2  0  0  0  0
 36 66  1  0  0  0  0
 36 69  1  0  0  0  0
 36 77  2  0  0  0  0
 37 40  1  0  0  0  0
 38 47  1  0  0  0  0
 39 65  1  0  0  0  0
 40 42  1  0  0  0  0
 41 43  1  0  0  0  0
 41 44  1  0  0  0  0
 42 46  1  0  0  0  0
 43 48  1  0  0  0  0
 44 66  1  0  0  0  0
 45 48  1  0  0  0  0
 45 66  1  0  0  0  0
 46 70  1  0  0  0  0
 47 65  1  0  0  0  0
 48 64  1  0  0  0  0
 50 59  1  0  0  0  0
 51 60  1  0  0  0  0
 52 61  1  0  0  0  0
 53 61  1  0  0  0  0
 54 61  1  0  0  0  0
 55 72  1  0  0  0  0
 56 57  1  0  0  0  0
 56 60  1  0  0  0  0
 57 63  1  0  0  0  0
 58 61  1  0  0  0  0
 58 71  1  0  0  0  0
 59 72  1  0  0  0  0
 60 79  1  0  0  0  0
 62 64  1  0  0  0  0
M  CHG  1  72   1
M  ISO  4  36 100  60 101  69 100  79 101
M  END
> <Batch ID>
0100

> <Smiles>
CNC(C)C(=O)NC(C(=O)N1Cc2cc([101O:1][101CH:1](C)CCn3cc([100NH:0][100C:0](=O)N4CCCC(n5nc(-c6ccc(Oc7ccc(F)cc7F)cc6)c(C(N)=O)c5N)C4)cc3C)ccc2CC1C(=O)NC1CCCc2ccccc21)C(C)(C)C

> <Shape>
0.246

> <Color>
0.053

> <Negative vol penalty>
0.000

$$$$

  -OEChem-04052319333D

 89 97  0     1  0  0  0  0  0999 V2000
  -23.2065  -33.1068   25.6089 C   0  0  0  0  0  0  0  0  0  0  0  0
  -24.0312  -32.1046   25.1081 C   0  0  0  0  0  0  0  0  0  0  0  0
  -23.9190  -12.1639   19.6005 C   0  0  0  0  0  0  0  0  0  0  0  0
  -25.2349  -12.9629   21.4626 C   0  0  0  0  0  0  0  0  0  0  0  0
  -21.8217  -32.9897   25.4961 C   0  0  0  0  0  0  0  0  0  0  0  0
  -23.4716  -30.9841   24.4952 C   0  0  0  0  0  0  0  0  0  0  0  0
  -25.8382  -29.7363   20.1955 C   0  0  0  0  0  0  0  0  0  0  0  0
  -24.8093  -11.1045   19.4259 C   0  0  0  0  0  0  0  0  0  0  0  0
  -26.1252  -11.9034   21.2880 C   0  0  0  0  0  0  0  0  0  0  0  0
  -27.0514  -29.0589   20.3099 C   0  0  0  0  0  0  0  0  0  0  0  0
  -28.9424   -9.6141   21.1068 C   0  0  0  0  0  0  0  0  0  0  0  0
  -30.3069   -9.8993   21.1550 C   0  0  0  0  0  0  0  0  0  0  0  0
  -25.9231  -26.9748   19.8598 C   0  0  0  0  0  0  0  0  0  0  0  0
  -30.0586  -11.4042   19.2813 C   0  0  0  0  0  0  0  0  0  0  0  0
  -29.5439  -20.1500   20.6360 C   0  0  0  0  0  0  0  0  0  0  0  0
  -24.1318  -13.0931   20.6189 C   0  0  0  0  0  0  0  0  0  0  0  0
  -22.0598  -14.2058   21.6069 C   0  0  0  0  0  0  0  0  0  0  0  0
  -21.2452  -31.8717   24.8729 C   0  0  0  0  0  0  0  0  0  0  0  0
  -24.6546  -29.0356   19.9227 C   0  0  0  0  0  0  0  0  0  0  0  0
  -22.0778  -30.8512   24.3752 C   0  0  0  0  0  0  0  0  0  0  0  0
  -24.6966  -27.6460   19.7398 C   0  0  0  0  0  0  0  0  0  0  0  0
  -25.9124  -10.9742   20.2696 C   0  0  0  0  0  0  0  0  0  0  0  0
  -27.0935  -27.6776   20.1449 C   0  0  0  0  0  0  0  0  0  0  0  0
  -28.1360  -10.2239   20.1458 C   0  0  0  0  0  0  0  0  0  0  0  0
  -30.8650  -10.7943   20.2423 C   0  0  0  0  0  0  0  0  0  0  0  0
  -28.6941  -11.1190   19.2331 C   0  0  0  0  0  0  0  0  0  0  0  0
  -23.2128  -14.1881   20.7994 C   0  0  0  0  0  0  0  0  0  0  0  0
  -29.0289  -19.0982   21.4172 C   0  0  0  0  0  0  0  0  0  0  0  0
  -28.7423  -21.2244   20.9354 C   0  0  0  0  0  0  0  0  0  0  0  0
  -21.5396  -15.4654   21.4351 C   0  0  0  0  0  0  0  0  0  0  0  0
  -21.5082  -13.1759   22.4380 C   0  0  0  0  0  0  0  0  0  0  0  0
  -21.9062  -28.5917   21.4566 C   0  0  0  0  0  0  0  0  0  0  0  0
  -24.0737  -20.6653   19.8067 C   0  0  0  0  0  0  0  0  0  0  0  0
  -21.0554  -27.1103   18.6991 C   0  0  0  0  0  0  0  0  0  0  0  0
  -22.0336  -25.4786   15.8658 C   0  0  0  0  0  0  0  0  0  0  0  0
  -19.7416  -31.7670   24.8167 C   0  0  0  0  0  0  0  0  0  0  0  0
  -23.3584  -29.7843   19.7759 C   0  0  0  0  0  0  0  0  0  0  0  0
  -23.4575  -26.8497   19.4255 C   0  0  0  0  0  0  0  0  0  0  0  0
  -19.2405  -30.7257   23.8192 C   0  0  0  0  0  0  0  0  0  0  0  0
  -21.2931  -19.0216   18.2554 C   0  0  0  0  0  0  0  0  0  0  0  0
  -20.0182  -29.4224   23.9721 C   0  0  0  0  0  0  0  0  0  0  0  0
  -21.3822  -17.5902   18.7830 C   0  0  0  0  0  0  0  0  0  0  0  0
  -22.6776  -19.6279   18.0491 C   0  0  0  0  0  0  0  0  0  0  0  0
  -23.6354  -18.1594   19.7949 C   0  0  0  0  0  0  0  0  0  0  0  0
  -21.5092  -29.6323   23.6816 C   0  0  1  0  0  0  0  0  0  0  0  0
  -22.1320  -28.9063   20.0048 C   0  0  1  0  0  0  0  0  0  0  0  0
  -22.2582  -17.5204   20.0464 C   0  0  2  0  0  0  0  0  0  0  0  0
  -24.0217  -25.0784   23.0184 C   0  0  0  0  0  0  0  0  0  0  0  0
  -28.4617  -16.6760   21.0114 C   0  0  0  0  0  0  0  0  0  0  0  0
  -30.0199  -17.3081   22.8895 C   0  0  0  0  0  0  0  0  0  0  0  0
  -21.1093  -24.3531   13.8221 C   0  0  0  0  0  0  0  0  0  0  0  0
  -30.4901  -25.8890   21.7991 C   0  0  0  0  0  0  0  0  0  0  0  0
  -20.2835  -24.6875   20.3854 C   0  0  0  0  0  0  0  0  0  0  0  0
  -20.2843  -23.3165   18.2905 C   0  0  0  0  0  0  0  0  0  0  0  0
  -18.6899  -25.2196   18.5329 C   0  0  0  0  0  0  0  0  0  0  0  0
  -23.3974  -27.3838   14.0578 C   0  0  0  0  0  0  0  0  0  0  0  0
  -28.7649  -22.6471   20.4353 C   0  0  0  0  0  0  0  0  0  0  0  0
  -24.8888  -20.4773   21.0614 C   0  0  0  0  0  0  0  0  0  0  0  0
  -25.0352  -24.1900   22.3127 C   0  0  0  0  0  0  0  0  0  0  0  0
  -29.6391  -23.5895   21.2743 C   0  0  0  0  0  0  0  0  0  0  0  0
  -24.5663  -22.7336   22.2702 C   0  0  0  0  0  0  0  0  0  0  0  0
  -26.7708  -21.5272   22.4638 C   0  0  0  0  0  0  0  0  0  0  0  0
  -28.2237  -25.6683   20.7293 C   0  0  0  0  0  0  0  0  0  1  0  0
  -29.5132  -17.7091   21.4831 C   0  0  0  0  0  0  0  0  0  0  0  0
  -21.1460  -25.6986   18.1719 C   0  0  1  0  0  0  0  0  0  0  0  0
  -21.6311  -25.6538   14.4126 C   0  0  2  0  0  0  0  0  0  0  0  0
  -29.6328  -25.0682   20.8273 C   0  0  1  0  0  0  0  0  0  0  0  0
  -25.5485  -21.7817   21.5471 C   0  0  1  0  0  0  0  0  0  0  0  0
  -20.1241  -24.7450   18.8530 C   0  0  0  0  0  0  0  0  0  0  0  0
  -23.4137  -15.3445   20.1619 N   0  0  0  0  0  0  0  0  0  0  0  0
  -27.9813  -19.4707   22.1573 N   0  0  0  0  0  0  0  0  0  0  0  0
  -27.8316  -20.7686   21.8426 N   0  0  0  0  0  0  0  0  0  0  0  0
  -22.3798  -16.1006   20.5687 N   0  0  0  0  0  0  0  0  0  0  0  0
  -22.2133  -27.6264   19.2982 N   0  0  0  0  0  0  0  0  0  0  0  0
  -23.4864  -19.5218   19.2647 N   0  0  0  0  0  0  0  0  0  0  0  0
  -20.4501  -16.0804   21.9421 N   0  0  0  0  0  0  0  0  0  0  0  0
  -22.1692  -11.9415   22.4995 N   0  0  0  0  0  0  0  0  0  0  0  0
  -21.7404  -29.7074   22.2549 N   0  0  0  0  0  0  0  0  0  0  0  0
  -21.0008  -25.7937   16.7234 N   0  0  0  0  0  0  0  0  0  0  0  0
  -22.7984  -26.1029   13.6023 N   0  3  0  0  0  0  0  0  0  0  0  0
  -20.4513  -13.3397   23.0934 O   0  0  0  0  0  0  0  0  0  0  0  0
  -21.8826  -27.4232   21.8250 O   0  0  0  0  0  0  0  0  0  0  0  0
  -23.9609  -21.7958   19.3258 O   0  0  0  0  0  0  0  0  0  0  0  0
  -19.9986  -27.7348   18.5772 O   0  0  0  0  0  0  0  0  0  0  0  0
  -23.1510  -25.0965   16.2060 O   0  0  0  0  0  0  0  0  0  0  0  0
  -26.7813   -9.9404   20.0997 O   0  0  0  0  0  0  0  0  0  0  0  0
  -28.2762  -27.0138   20.2567 O   0  0  0  0  0  0  0  0  0  1  0  0
  -32.1751  -11.0693   20.2898 F   0  0  0  0  0  0  0  0  0  0  0  0
  -27.9242  -11.7089   18.3083 F   0  0  0  0  0  0  0  0  0  0  0  0
  1  2  1  0  0  0  0
  1  5  2  0  0  0  0
  2  6  2  0  0  0  0
  3  8  2  0  0  0  0
  3 16  1  0  0  0  0
  4  9  1  0  0  0  0
  4 16  2  0  0  0  0
  5 18  1  0  0  0  0
  6 20  1  0  0  0  0
  7 10  2  0  0  0  0
  7 19  1  0  0  0  0
  8 22  1  0  0  0  0
  9 22  2  0  0  0  0
 10 23  1  0  0  0  0
 11 12  2  0  0  0  0
 11 24  1  0  0  0  0
 12 25  1  0  0  0  0
 13 21  1  0  0  0  0
 13 23  2  0  0  0  0
 14 25  2  0  0  0  0
 14 26  1  0  0  0  0
 15 28  1  0  0  0  0
 15 29  2  0  0  0  0
 16 27  1  0  0  0  0
 17 27  1  0  0  0  0
 17 30  2  0  0  0  0
 17 31  1  0  0  0  0
 18 20  2  0  0  0  0
 18 36  1  0  0  0  0
 19 21  2  0  0  0  0
 19 37  1  0  0  0  0
 20 45  1  0  0  0  0
 21 38  1  0  0  0  0
 22 86  1  0  0  0  0
 23 87  1  0  0  0  0
 24 26  2  0  0  0  0
 24 86  1  0  0  0  0
 25 88  1  0  0  0  0
 26 89  1  0  0  0  0
 27 70  2  0  0  0  0
 28 64  1  0  0  0  0
 28 71  2  0  0  0  0
 29 57  1  0  0  0  0
 29 72  1  0  0  0  0
 30 73  1  0  0  0  0
 30 76  1  0  0  0  0
 31 77  1  0  0  0  0
 31 81  2  0  0  0  0
 32 46  1  0  0  0  0
 32 78  1  0  0  0  0
 32 82  2  0  0  0  0
 33 58  1  0  0  0  0
 33 75  1  0  0  0  0
 33 83  2  0  0  0  0
 34 65  1  0  0  0  0
 34 74  1  0  0  0  0
 34 84  2  0  0  0  0
 35 66  1  0  0  0  0
 35 79  1  0  0  0  0
 35 85  2  0  0  0  0
 36 39  1  0  0  0  0
 37 46  1  0  0  0  0
 38 74  1  0  0  0  0
 39 41  1  0  0  0  0
 40 42  1  0  0  0  0
 40 43  1  0  0  0  0
 41 45  1  0  0  0  0
 42 47  1  0  0  0  0
 43 75  1  0  0  0  0
 44 47  1  0  0  0  0
 44 75  1  0  0  0  0
 45 78  1  0  0  0  0
 46 74  1  0  0  0  0
 47 73  1  0  0  0  0
 48 59  1  0  0  0  0
 49 64  1  0  0  0  0
 50 64  1  0  0  0  0
 51 66  1  0  0  0  0
 52 67  1  0  0  0  0
 53 69  1  0  0  0  0
 54 69  1  0  0  0  0
 55 69  1  0  0  0  0
 56 80  1  0  0  0  0
 57 60  1  0  0  0  0
 58 68  1  0  0  0  0
 59 61  1  0  0  0  0
 60 67  1  0  0  0  0
 61 68  1  0  0  0  0
 62 68  1  0  0  0  0
 62 72  1  0  0  0  0
 63 67  1  0  0  0  0
 63 87  1  0  0  0  0
 65 69  1  0  0  0  0
 65 79  1  0  0  0  0
 66 80  1  0  0  0  0
 70 73  1  0  0  0  0
 71 72  1  0  0  0  0
M  CHG  1  80   1
M  ISO  4  33 100  58 100  63 101  87 101
M  END
> <Batch ID>
0100

> <Smiles>
CCCC(Cn1nc(C(C)C)cc1CCC(C)[101CH2:1][101O:1]c1ccc2c(c1)CN(C(=O)C(NC(=O)C(C)NC)C(C)(C)C)C(C(=O)NC1CCCc3ccccc31)C2)[100CH2:0][100C:0](=O)N1CCCC(n2nc(-c3ccc(Oc4ccc(F)cc4F)cc3)c(C(N)=O)c2N)C1

> <Shape>
0.214

> <Color>
0.070

> <Negative vol penalty>
0.000

$$$$

  -OEChem-04052319333D

 83 90  0     1  0  0  0  0  0999 V2000
  -26.1900  -37.4327   24.5864 C   0  0  0  0  0  0  0  0  0  0  0  0
  -26.9405  -36.6669   23.7000 C   0  0  0  0  0  0  0  0  0  0  0  0
  -25.1785  -10.8223   21.8898 C   0  0  0  0  0  0  0  0  0  0  0  0
  -25.0052  -12.0013   23.9914 C   0  0  0  0  0  0  0  0  0  0  0  0
  -25.3446  -36.8081   25.5024 C   0  0  0  0  0  0  0  0  0  0  0  0
  -26.8469  -35.2759   23.7299 C   0  0  0  0  0  0  0  0  0  0  0  0
  -27.1371  -29.5669   19.4125 C   0  0  0  0  0  0  0  0  0  0  0  0
  -24.9799   -9.6113   22.5528 C   0  0  0  0  0  0  0  0  0  0  0  0
  -24.8065  -10.7903   24.6544 C   0  0  0  0  0  0  0  0  0  0  0  0
  -27.7859  -28.3387   19.2931 C   0  0  0  0  0  0  0  0  0  0  0  0
  -22.3795   -7.8686   23.8310 C   0  0  0  0  0  0  0  0  0  0  0  0
  -21.4861   -6.9589   23.2654 C   0  0  0  0  0  0  0  0  0  0  0  0
  -26.2327  -27.3721   20.8655 C   0  0  0  0  0  0  0  0  0  0  0  0
  -23.2619   -5.3314   23.0779 C   0  0  0  0  0  0  0  0  0  0  0  0
  -25.1912  -12.0173   22.6091 C   0  0  0  0  0  0  0  0  0  0  0  0
  -24.4107  -14.1078   21.3730 C   0  0  0  0  0  0  0  0  0  0  0  0
  -25.2333  -35.4091   25.5371 C   0  0  0  0  0  0  0  0  0  0  0  0
  -26.0360  -29.7099   20.2691 C   0  0  0  0  0  0  0  0  0  0  0  0
  -26.0002  -34.6320   24.6481 C   0  0  0  0  0  0  0  0  0  0  0  0
  -25.5700  -28.6026   20.9921 C   0  0  0  0  0  0  0  0  0  0  0  0
  -24.7938   -9.5953   23.9351 C   0  0  0  0  0  0  0  0  0  0  0  0
  -27.3356  -27.2418   20.0219 C   0  0  0  0  0  0  0  0  0  0  0  0
  -23.7141   -7.5097   24.0200 C   0  0  0  0  0  0  0  0  0  0  0  0
  -21.9272   -5.6903   22.8889 C   0  0  0  0  0  0  0  0  0  0  0  0
  -24.1553   -6.2412   23.6435 C   0  0  0  0  0  0  0  0  0  0  0  0
  -25.3970  -13.2686   21.9249 C   0  0  0  0  0  0  0  0  0  0  0  0
  -25.1142  -15.1608   20.8412 C   0  0  0  0  0  0  0  0  0  0  0  0
  -22.9859  -13.9498   21.3436 C   0  0  0  0  0  0  0  0  0  0  0  0
  -25.4142  -31.4575   22.8503 C   0  0  0  0  0  0  0  0  0  0  0  0
  -22.4432  -30.2015   22.5069 C   0  0  0  0  0  0  0  0  0  0  0  0
  -20.4849  -27.6824   21.2961 C   0  0  0  0  0  0  0  0  0  0  0  0
  -30.5968  -17.2191   22.2406 C   0  0  0  0  0  0  0  0  0  0  0  0
  -24.3418  -34.7774   26.5767 C   0  0  0  0  0  0  0  0  0  0  0  0
  -25.3305  -31.0348   20.3663 C   0  0  0  0  0  0  0  0  0  0  0  0
  -24.3797  -28.6985   21.9099 C   0  0  0  0  0  0  0  0  0  0  0  0
  -24.0172  -33.3132   26.2923 C   0  0  0  0  0  0  0  0  0  0  0  0
  -29.5965  -14.9497   19.3033 C   0  0  0  0  0  0  0  0  0  0  0  0
  -25.2820  -32.5502   25.9115 C   0  0  0  0  0  0  0  0  0  0  0  0
  -28.1492  -15.4329   19.3000 C   0  0  0  0  0  0  0  0  0  0  0  0
  -30.4948  -15.9216   20.0620 C   0  0  0  0  0  0  0  0  0  0  0  0
  -28.7208  -15.6558   21.7953 C   0  0  0  0  0  0  0  0  0  0  0  0
  -25.9072  -33.1216   24.6332 C   0  0  1  0  0  0  0  0  0  0  0  0
  -24.5367  -31.1955   21.6591 C   0  0  1  0  0  0  0  0  0  0  0  0
  -27.6264  -15.7517   20.7177 C   0  0  2  0  0  0  0  0  0  0  0  0
  -18.0981  -26.9128   21.2053 C   0  0  0  0  0  0  0  0  0  0  0  0
  -22.6302  -29.2869   25.4118 C   0  0  0  0  0  0  0  0  0  0  0  0
  -20.7027  -27.7488   24.9787 C   0  0  0  0  0  0  0  0  0  0  0  0
  -20.4037  -30.2149   24.7516 C   0  0  0  0  0  0  0  0  0  0  0  0
  -29.8872  -19.5943   19.7387 C   0  0  0  0  0  0  0  0  0  0  0  0
  -29.3816  -21.1480   21.6315 C   0  0  0  0  0  0  0  0  0  0  0  0
  -20.4332  -27.8146   18.3399 C   0  0  0  0  0  0  0  0  0  0  0  0
  -33.8478  -20.6182   20.4192 C   0  0  0  0  0  0  0  0  0  0  0  0
  -29.3105  -23.4642   19.4978 C   0  0  0  0  0  0  0  0  0  0  0  0
  -28.5749  -24.2467   18.4025 C   0  0  0  0  0  0  0  0  0  0  0  0
  -29.2563  -21.9550   19.2244 C   0  0  0  0  0  0  0  0  0  0  0  0
  -32.5954  -18.6647   22.5357 C   0  0  0  0  0  0  0  0  0  0  0  0
  -32.2258  -20.1058   22.2377 C   0  0  0  0  0  0  0  0  0  0  0  0
  -31.5125  -21.4721   20.2819 C   0  0  0  0  0  0  0  0  0  0  0  0
  -28.5888  -25.7489   18.6592 C   0  0  0  0  0  0  0  0  0  1  0  0
  -21.7415  -28.9629   23.0095 C   0  0  1  0  0  0  0  0  0  0  0  0
  -19.1903  -27.7050   20.5037 C   0  0  2  0  0  0  0  0  0  0  0  0
  -21.3932  -29.0517   24.5222 C   0  0  0  0  0  0  0  0  0  0  0  0
  -30.0253  -21.0508   20.2350 C   0  0  0  0  0  0  0  0  0  0  0  0
  -26.6329  -13.7470   21.7590 N   0  0  0  0  0  0  0  0  0  0  0  0
  -26.4279  -14.8983   21.0967 N   0  0  0  0  0  0  0  0  0  0  0  0
  -23.7276  -30.0168   21.9758 N   0  0  0  0  0  0  0  0  0  0  0  0
  -29.9570  -16.3151   21.3705 N   0  0  0  0  0  0  0  0  0  0  0  0
  -24.7310  -16.2764   20.1846 N   0  0  0  0  0  0  0  0  0  0  0  0
  -22.4279  -12.8091   21.9366 N   0  0  0  0  0  0  0  0  0  0  0  0
  -25.1768  -32.6706   23.4680 N   0  0  0  0  0  0  0  0  0  0  0  0
  -20.5858  -28.7676   22.1407 N   0  0  0  0  0  0  0  0  0  0  0  0
  -31.8050  -17.7274   21.7705 N   0  0  0  0  0  0  0  0  0  0  0  0
  -19.4010  -27.1181   19.1502 N   0  3  0  0  0  0  0  0  0  0  0  0
  -32.3982  -20.3829   20.7647 N   0  3  1  0  0  0  0  0  0  0  0  0
  -22.2313  -14.7869   20.7929 O   0  0  0  0  0  0  0  0  0  0  0  0
  -26.2441  -30.6204   23.1852 O   0  0  0  0  0  0  0  0  0  0  0  0
  -21.8699  -31.2915   22.5763 O   0  0  0  0  0  0  0  0  0  0  0  0
  -21.3212  -26.7892   21.1803 O   0  0  0  0  0  0  0  0  0  0  0  0
  -30.1335  -17.5416   23.3387 O   0  0  0  0  0  0  0  0  0  0  0  0
  -24.5997   -8.4137   24.5823 O   0  0  0  0  0  0  0  0  0  0  0  0
  -27.9723  -26.0329   19.9068 O   0  0  0  0  0  0  0  0  0  1  0  0
  -21.0688   -4.8163   22.3473 F   0  0  0  0  0  0  0  0  0  0  0  0
  -25.4360   -5.8903   23.8237 F   0  0  0  0  0  0  0  0  0  0  0  0
  1  2  1  0  0  0  0
  1  5  2  0  0  0  0
  2  6  2  0  0  0  0
  3  8  2  0  0  0  0
  3 15  1  0  0  0  0
  4  9  1  0  0  0  0
  4 15  2  0  0  0  0
  5 17  1  0  0  0  0
  6 19  1  0  0  0  0
  7 10  2  0  0  0  0
  7 18  1  0  0  0  0
  8 21  1  0  0  0  0
  9 21  2  0  0  0  0
 10 22  1  0  0  0  0
 11 12  2  0  0  0  0
 11 23  1  0  0  0  0
 12 24  1  0  0  0  0
 13 20  1  0  0  0  0
 13 22  2  0  0  0  0
 14 24  2  0  0  0  0
 14 25  1  0  0  0  0
 15 26  1  0  0  0  0
 16 26  1  0  0  0  0
 16 27  2  0  0  0  0
 16 28  1  0  0  0  0
 17 19  2  0  0  0  0
 17 33  1  0  0  0  0
 18 20  2  0  0  0  0
 18 34  1  0  0  0  0
 19 42  1  0  0  0  0
 20 35  1  0  0  0  0
 21 80  1  0  0  0  0
 22 81  1  0  0  0  0
 23 25  2  0  0  0  0
 23 80  1  0  0  0  0
 24 82  1  0  0  0  0
 25 83  1  0  0  0  0
 26 64  2  0  0  0  0
 27 65  1  0  0  0  0
 27 68  1  0  0  0  0
 28 69  1  0  0  0  0
 28 75  2  0  0  0  0
 29 43  1  0  0  0  0
 29 70  1  0  0  0  0
 29 76  2  0  0  0  0
 30 60  1  0  0  0  0
 30 66  1  0  0  0  0
 30 77  2  0  0  0  0
 31 61  1  0  0  0  0
 31 71  1  0  0  0  0
 31 78  2  0  0  0  0
 32 67  1  0  0  0  0
 32 72  1  0  0  0  0
 32 79  2  0  0  0  0
 33 36  1  0  0  0  0
 34 43  1  0  0  0  0
 35 66  1  0  0  0  0
 36 38  1  0  0  0  0
 37 39  1  0  0  0  0
 37 40  1  0  0  0  0
 38 42  1  0  0  0  0
 39 44  1  0  0  0  0
 40 67  1  0  0  0  0
 41 44  1  0  0  0  0
 41 67  1  0  0  0  0
 42 70  1  0  0  0  0
 43 66  1  0  0  0  0
 44 65  1  0  0  0  0
 45 61  1  0  0  0  0
 46 62  1  0  0  0  0
 47 62  1  0  0  0  0
 48 62  1  0  0  0  0
 49 63  1  0  0  0  0
 50 63  1  0  0  0  0
 51 73  1  0  0  0  0
 52 74  1  0  0  0  0
 53 54  1  0  0  0  0
 53 55  1  0  0  0  0
 54 59  1  0  0  0  0
 55 63  1  0  0  0  0
 56 57  1  0  0  0  0
 56 72  1  0  0  0  0
 57 74  1  0  0  0  0
 58 63  1  0  0  0  0
 58 74  1  0  0  0  0
 59 81  1  0  0  0  0
 60 62  1  0  0  0  0
 60 71  1  0  0  0  0
 61 73  1  0  0  0  0
 64 65  1  0  0  0  0
M  CHG  2  73   1  74   1
M  ISO  4  32 100  59 101  72 100  81 101
M  END
> <Batch ID>
0100

> <Smiles>
CNC(C)C(=O)NC(C(=O)N1Cc2cc([101O:1][101CH2:1]CCCC(C)(C)CN(C)CC[100NH:0][100C:0](=O)N3CCCC(n4nc(-c5ccc(Oc6ccc(F)cc6F)cc5)c(C(N)=O)c4N)C3)ccc2CC1C(=O)NC1CCCc2ccccc21)C(C)(C)C

> <Shape>
0.325

> <Color>
0.090

> <Negative vol penalty>
0.000

$$$$

  -OEChem-04052319333D

 87 95  0     1  0  0  0  0  0999 V2000
  -28.6456  -18.3320   19.4450 C   0  0  0  0  0  0  0  0  0  0  0  0
  -27.5036  -19.0163   19.0411 C   0  0  0  0  0  0  0  0  0  0  0  0
  -23.2801  -13.9037   20.5158 C   0  0  0  0  0  0  0  0  0  0  0  0
  -25.0950  -14.9354   21.7318 C   0  0  0  0  0  0  0  0  0  0  0  0
  -29.4684  -18.8729   20.4321 C   0  0  0  0  0  0  0  0  0  0  0  0
  -27.1832  -20.2414   19.6250 C   0  0  0  0  0  0  0  0  0  0  0  0
  -24.1313  -26.5350   18.0782 C   0  0  0  0  0  0  0  0  0  0  0  0
  -24.0853  -12.7951   20.2546 C   0  0  0  0  0  0  0  0  0  0  0  0
  -25.9002  -13.8268   21.4706 C   0  0  0  0  0  0  0  0  0  0  0  0
  -23.1380  -27.3943   18.5460 C   0  0  0  0  0  0  0  0  0  0  0  0
  -28.5505  -11.4266   20.8184 C   0  0  0  0  0  0  0  0  0  0  0  0
  -29.8609  -11.6608   20.4017 C   0  0  0  0  0  0  0  0  0  0  0  0
  -24.6759  -28.2695   20.1855 C   0  0  0  0  0  0  0  0  0  0  0  0
  -29.0336  -12.8571   18.4725 C   0  0  0  0  0  0  0  0  0  0  0  0
  -23.7850  -14.9739   21.2544 C   0  0  0  0  0  0  0  0  0  0  0  0
  -22.1040  -16.3119   22.6298 C   0  0  0  0  0  0  0  0  0  0  0  0
  -29.1632  -20.1098   21.0215 C   0  0  0  0  0  0  0  0  0  0  0  0
  -25.4032  -26.5288   18.6687 C   0  0  0  0  0  0  0  0  0  0  0  0
  -28.0020  -20.7986   20.6219 C   0  0  0  0  0  0  0  0  0  0  0  0
  -25.6843  -27.4110   19.7217 C   0  0  0  0  0  0  0  0  0  0  0  0
  -19.0700  -28.1341   21.6371 C   0  0  0  0  0  0  0  0  0  0  0  0
  -20.2726  -28.5463   22.2625 C   0  0  0  0  0  0  0  0  0  0  0  0
  -25.3953  -12.7566   20.7320 C   0  0  0  0  0  0  0  0  0  0  0  0
  -23.4094  -28.2597   19.6017 C   0  0  0  0  0  0  0  0  0  0  0  0
  -27.4816  -11.9076   20.0621 C   0  0  0  0  0  0  0  0  0  0  0  0
  -30.1024  -12.3761   19.2288 C   0  0  0  0  0  0  0  0  0  0  0  0
  -27.7232  -12.6228   18.8892 C   0  0  0  0  0  0  0  0  0  0  0  0
  -22.9539  -16.1196   21.5241 C   0  0  0  0  0  0  0  0  0  0  0  0
  -18.6804  -26.9545   22.2321 C   0  0  0  0  0  0  0  0  0  0  0  0
  -20.5812  -27.6059   23.2206 C   0  0  0  0  0  0  0  0  0  0  0  0
  -21.5427  -17.5479   22.4205 C   0  0  0  0  0  0  0  0  0  0  0  0
  -21.8451  -15.4504   23.7462 C   0  0  0  0  0  0  0  0  0  0  0  0
  -27.1448  -24.3705   20.2216 C   0  0  0  0  0  0  0  0  0  0  0  0
  -29.4208  -26.6775   20.0809 C   0  0  0  0  0  0  0  0  0  0  0  0
  -30.1701  -29.9940   19.7867 C   0  0  0  0  0  0  0  0  0  0  0  0
  -21.9989  -22.9179   20.9714 C   0  0  0  0  0  0  0  0  0  0  0  0
  -30.0573  -20.6317   22.1182 C   0  0  0  0  0  0  0  0  0  0  0  0
  -26.4718  -25.6148   18.1348 C   0  0  0  0  0  0  0  0  0  0  0  0
  -27.0398  -27.4578   20.3766 C   0  0  0  0  0  0  0  0  0  0  0  0
  -29.8489  -22.1134   22.4207 C   0  0  0  0  0  0  0  0  0  0  0  0
  -21.6052  -20.5450   18.3463 C   0  0  0  0  0  0  0  0  0  0  0  0
  -28.3612  -22.4312   22.5329 C   0  0  0  0  0  0  0  0  0  0  0  0
  -21.8570  -19.1994   19.0288 C   0  0  0  0  0  0  0  0  0  0  0  0
  -22.5066  -21.6412   18.9101 C   0  0  0  0  0  0  0  0  0  0  0  0
  -22.7033  -20.4496   21.0584 C   0  0  0  0  0  0  0  0  0  0  0  0
  -27.6342  -22.1419   21.2140 C   0  0  1  0  0  0  0  0  0  0  0  0
  -27.5757  -25.3300   19.1486 C   0  0  1  0  0  0  0  0  0  0  0  0
  -21.7785  -19.3250   20.5622 C   0  0  2  0  0  0  0  0  0  0  0  0
  -18.3616  -28.8382   20.5485 C   0  0  0  0  0  0  0  0  0  0  0  0
  -21.7223  -27.5400   24.1587 C   0  0  0  0  0  0  0  0  0  0  0  0
  -16.2124  -26.6623   22.5645 C   0  0  0  0  0  0  0  0  0  0  0  0
  -21.1390  -30.7402   23.1386 C   0  0  0  0  0  0  0  0  0  0  0  0
  -32.1164  -31.5775   19.7435 C   0  0  0  0  0  0  0  0  0  0  0  0
  -19.4657  -22.9611   24.1291 C   0  0  0  0  0  0  0  0  0  0  0  0
  -29.7063  -26.4052   23.1065 C   0  0  0  0  0  0  0  0  0  0  0  0
  -30.9147  -28.5978   23.1198 C   0  0  0  0  0  0  0  0  0  0  0  0
  -31.8673  -26.6584   21.8733 C   0  0  0  0  0  0  0  0  0  0  0  0
  -29.5142  -30.9088   17.0495 C   0  0  0  0  0  0  0  0  0  0  0  0
  -17.5050  -26.0973   21.9683 C   0  0  0  0  0  0  0  0  0  0  0  0
  -19.5637  -25.4742   24.0467 C   0  0  0  0  0  0  0  0  0  0  0  0
  -21.5095  -24.0582   23.1206 C   0  0  0  0  0  0  0  0  0  0  0  0
  -22.4906  -29.4532   21.4422 C   0  0  0  0  0  0  0  0  0  1  0  0
  -21.0781  -29.7941   21.9362 C   0  0  1  0  0  0  0  0  0  0  0  0
  -29.8246  -27.8360   20.9606 C   0  0  1  0  0  0  0  0  0  0  0  0
  -31.1701  -30.7269   18.9107 C   0  0  2  0  0  0  0  0  0  0  0  0
  -19.9917  -24.1680   23.3438 C   0  0  1  0  0  0  0  0  0  0  0  0
  -30.5520  -27.3723   22.2542 C   0  0  0  0  0  0  0  0  0  0  0  0
  -22.9370  -17.1507   20.6753 N   0  0  0  0  0  0  0  0  0  0  0  0
  -19.6066  -26.6428   23.1929 N   0  0  0  0  0  0  0  0  0  0  0  0
  -22.0697  -18.0029   21.2477 N   0  0  0  0  0  0  0  0  0  0  0  0
  -28.0495  -26.5402   19.8232 N   0  0  0  0  0  0  0  0  0  0  0  0
  -22.3840  -21.7091   20.3683 N   0  0  0  0  0  0  0  0  0  0  0  0
  -20.6546  -18.2790   23.1271 N   0  0  0  0  0  0  0  0  0  0  0  0
  -22.5063  -14.2160   23.8051 N   0  0  0  0  0  0  0  0  0  0  0  0
  -27.8799  -23.2009   20.2587 N   0  0  0  0  0  0  0  0  0  0  0  0
  -30.6125  -28.7314   20.1203 N   0  0  0  0  0  0  0  0  0  0  0  0
  -21.9006  -22.8942   22.3572 N   0  0  0  0  0  0  0  0  0  0  0  0
  -30.4611  -31.6173   17.9487 N   0  3  0  0  0  0  0  0  0  0  0  0
  -21.0385  -15.7587   24.6561 O   0  0  0  0  0  0  0  0  0  0  0  0
  -26.2154  -24.6697   20.9621 O   0  0  0  0  0  0  0  0  0  0  0  0
  -30.2907  -25.9264   19.6328 O   0  0  0  0  0  0  0  0  0  0  0  0
  -29.1049  -30.4931   20.1426 O   0  0  0  0  0  0  0  0  0  0  0  0
  -21.7553  -23.9409   20.3224 O   0  0  0  0  0  0  0  0  0  0  0  0
  -26.1813  -11.6749   20.4775 O   0  0  0  0  0  0  0  0  0  0  0  0
  -22.4415  -29.0989   20.0607 O   0  0  0  0  0  0  0  0  0  1  0  0
  -31.3609  -12.6022   18.8296 F   0  0  0  0  0  0  0  0  0  0  0  0
  -26.7005  -13.0883   18.1590 F   0  0  0  0  0  0  0  0  0  0  0  0
  1  2  1  0  0  0  0
  1  5  2  0  0  0  0
  2  6  2  0  0  0  0
  3  8  2  0  0  0  0
  3 15  1  0  0  0  0
  4  9  1  0  0  0  0
  4 15  2  0  0  0  0
  5 17  1  0  0  0  0
  6 19  1  0  0  0  0
  7 10  2  0  0  0  0
  7 18  1  0  0  0  0
  8 23  1  0  0  0  0
  9 23  2  0  0  0  0
 10 24  1  0  0  0  0
 11 12  2  0  0  0  0
 11 25  1  0  0  0  0
 12 26  1  0  0  0  0
 13 20  1  0  0  0  0
 13 24  2  0  0  0  0
 14 26  2  0  0  0  0
 14 27  1  0  0  0  0
 15 28  1  0  0  0  0
 16 28  1  0  0  0  0
 16 31  2  0  0  0  0
 16 32  1  0  0  0  0
 17 19  2  0  0  0  0
 17 37  1  0  0  0  0
 18 20  2  0  0  0  0
 18 38  1  0  0  0  0
 19 46  1  0  0  0  0
 20 39  1  0  0  0  0
 21 22  1  0  0  0  0
 21 29  2  0  0  0  0
 21 49  1  0  0  0  0
 22 30  2  0  0  0  0
 22 63  1  0  0  0  0
 23 84  1  0  0  0  0
 24 85  1  0  0  0  0
 25 27  2  0  0  0  0
 25 84  1  0  0  0  0
 26 86  1  0  0  0  0
 27 87  1  0  0  0  0
 28 68  2  0  0  0  0
 29 59  1  0  0  0  0
 29 69  1  0  0  0  0
 30 50  1  0  0  0  0
 30 69  1  0  0  0  0
 31 70  1  0  0  0  0
 31 73  1  0  0  0  0
 32 74  1  0  0  0  0
 32 79  2  0  0  0  0
 33 47  1  0  0  0  0
 33 75  1  0  0  0  0
 33 80  2  0  0  0  0
 34 64  1  0  0  0  0
 34 71  1  0  0  0  0
 34 81  2  0  0  0  0
 35 65  1  0  0  0  0
 35 76  1  0  0  0  0
 35 82  2  0  0  0  0
 36 72  1  0  0  0  0
 36 77  1  0  0  0  0
 36 83  2  0  0  0  0
 37 40  1  0  0  0  0
 38 47  1  0  0  0  0
 39 71  1  0  0  0  0
 40 42  1  0  0  0  0
 41 43  1  0  0  0  0
 41 44  1  0  0  0  0
 42 46  1  0  0  0  0
 43 48  1  0  0  0  0
 44 72  1  0  0  0  0
 45 48  1  0  0  0  0
 45 72  1  0  0  0  0
 46 75  1  0  0  0  0
 47 71  1  0  0  0  0
 48 70  1  0  0  0  0
 51 59  1  0  0  0  0
 52 63  1  0  0  0  0
 53 65  1  0  0  0  0
 54 66  1  0  0  0  0
 55 67  1  0  0  0  0
 56 67  1  0  0  0  0
 57 67  1  0  0  0  0
 58 78  1  0  0  0  0
 60 66  1  0  0  0  0
 60 69  1  0  0  0  0
 61 66  1  0  0  0  0
 61 77  1  0  0  0  0
 62 63  1  0  0  0  0
 62 85  1  0  0  0  0
 64 67  1  0  0  0  0
 64 76  1  0  0  0  0
 65 78  1  0  0  0  0
 68 70  1  0  0  0  0
M  CHG  1  78   1
M  ISO  4  36 100  62 101  77 100  85 101
M  END
> <Batch ID>
0100

> <Smiles>
CCc1c(C)c(C(C)[101CH2:1][101O:1]c2ccc3c(c2)CN(C(=O)C(NC(=O)C(C)NC)C(C)(C)C)C(C(=O)NC2CCCc4ccccc42)C3)c(C)n1CC(C)C[100NH:0][100C:0](=O)N1CCCC(n2nc(-c3ccc(Oc4ccc(F)cc4F)cc3)c(C(N)=O)c2N)C1

> <Shape>
0.253

> <Color>
0.059

> <Negative vol penalty>
0.000

$$$$
