
  -OEChem-04052319363D

 84 92  0     1  0  0  0  0  0999 V2000
  -20.9738  -24.3504   19.1124 C   0  0  0  0  0  0  0  0  0  0  0  0
  -22.2498  -23.9417   19.4868 C   0  0  0  0  0  0  0  0  0  0  0  0
  -22.6690  -27.5787   20.7560 C   0  0  0  0  0  0  0  0  0  0  0  0
  -24.1468  -27.0943   22.6049 C   0  0  0  0  0  0  0  0  0  0  0  0
  -19.8668  -23.5730   19.4506 C   0  0  0  0  0  0  0  0  0  0  0  0
  -22.4195  -22.7558   20.2005 C   0  0  0  0  0  0  0  0  0  0  0  0
  -26.2391  -19.9470   18.4210 C   0  0  0  0  0  0  0  0  0  0  0  0
  -21.5772  -27.1690   21.5213 C   0  0  0  0  0  0  0  0  0  0  0  0
  -23.0550  -26.6846   23.3703 C   0  0  0  0  0  0  0  0  0  0  0  0
  -27.5316  -20.3346   18.7716 C   0  0  0  0  0  0  0  0  0  0  0  0
  -18.3592  -26.5914   23.1107 C   0  0  0  0  0  0  0  0  0  0  0  0
  -17.2167  -27.3913   23.0910 C   0  0  0  0  0  0  0  0  0  0  0  0
  -27.5695  -18.6366   20.4847 C   0  0  0  0  0  0  0  0  0  0  0  0
  -32.8316  -25.2152   21.6932 C   0  0  0  0  0  0  0  0  0  0  0  0
  -31.4437  -23.6712   23.5567 C   0  0  0  0  0  0  0  0  0  0  0  0
  -18.4986  -29.2437   23.9644 C   0  0  0  0  0  0  0  0  0  0  0  0
  -23.9539  -27.5413   21.2978 C   0  0  0  0  0  0  0  0  0  0  0  0
  -25.6193  -29.2620   20.4186 C   0  0  0  0  0  0  0  0  0  0  0  0
  -20.0240  -22.3721   20.1604 C   0  0  0  0  0  0  0  0  0  0  0  0
  -25.5969  -18.9068   19.1080 C   0  0  0  0  0  0  0  0  0  0  0  0
  -21.3135  -21.9624   20.5496 C   0  0  0  0  0  0  0  0  0  0  0  0
  -26.2698  -18.2361   20.1391 C   0  0  0  0  0  0  0  0  0  0  0  0
  -33.0218  -25.4312   23.0580 C   0  0  0  0  0  0  0  0  0  0  0  0
  -32.3279  -24.6592   23.9898 C   0  0  0  0  0  0  0  0  0  0  0  0
  -31.2534  -23.4551   22.1919 C   0  0  0  0  0  0  0  0  0  0  0  0
  -31.9473  -24.2271   21.2601 C   0  0  0  0  0  0  0  0  0  0  0  0
  -21.7702  -26.7220   22.8285 C   0  0  0  0  0  0  0  0  0  0  0  0
  -28.1960  -19.6813   19.8055 C   0  0  0  0  0  0  0  0  0  0  0  0
  -19.5714  -27.1176   23.5574 C   0  0  0  0  0  0  0  0  0  0  0  0
  -17.2864  -28.7175   23.5178 C   0  0  0  0  0  0  0  0  0  0  0  0
  -19.6411  -28.4437   23.9842 C   0  0  0  0  0  0  0  0  0  0  0  0
  -25.0822  -27.9638   20.5076 C   0  0  0  0  0  0  0  0  0  0  0  0
  -26.6725  -29.1388   19.5456 C   0  0  0  0  0  0  0  0  0  0  0  0
  -25.2035  -30.4712   21.0672 C   0  0  0  0  0  0  0  0  0  0  0  0
  -22.9720  -18.6777   20.8861 C   0  0  0  0  0  0  0  0  0  0  0  0
  -23.6734  -15.5113   20.8193 C   0  0  0  0  0  0  0  0  0  0  0  0
  -26.0307  -13.0735   20.4362 C   0  0  0  0  0  0  0  0  0  0  0  0
  -30.1485  -24.5233   17.9756 C   0  0  0  0  0  0  0  0  0  0  0  0
  -18.7932  -21.5895   20.5444 C   0  0  0  0  0  0  0  0  0  0  0  0
  -24.2126  -18.4830   18.6999 C   0  0  0  0  0  0  0  0  0  0  0  0
  -25.6322  -17.0997   20.8944 C   0  0  0  0  0  0  0  0  0  0  0  0
  -19.0930  -20.1563   20.9762 C   0  0  0  0  0  0  0  0  0  0  0  0
  -28.1597  -26.5373   15.8158 C   0  0  0  0  0  0  0  0  0  0  0  0
  -20.2629  -20.1271   21.9545 C   0  0  0  0  0  0  0  0  0  0  0  0
  -27.1939  -27.2484   16.7653 C   0  0  0  0  0  0  0  0  0  0  0  0
  -28.4491  -25.1087   16.2710 C   0  0  0  0  0  0  0  0  0  0  0  0
  -27.9546  -25.6968   18.6126 C   0  0  0  0  0  0  0  0  0  0  0  0
  -21.5406  -20.6697   21.3030 C   0  0  1  0  0  0  0  0  0  0  0  0
  -23.4605  -17.7521   19.8079 C   0  0  1  0  0  0  0  0  0  0  0  0
  -27.6760  -27.1594   18.2258 C   0  0  2  0  0  0  0  0  0  0  0  0
  -33.9742  -26.4942   23.4981 C   0  0  0  0  0  0  0  0  0  0  0  0
  -33.8216  -24.2693   25.9655 C   0  0  0  0  0  0  0  0  0  0  0  0
  -26.3098  -10.5799   20.4734 C   0  0  0  0  0  0  0  0  0  0  0  0
  -23.5317  -15.5433   23.8670 C   0  0  0  0  0  0  0  0  0  0  0  0
  -24.7233  -13.3415   23.8761 C   0  0  0  0  0  0  0  0  0  0  0  0
  -22.4841  -13.5414   22.7950 C   0  0  0  0  0  0  0  0  0  0  0  0
  -26.9337  -13.0162   17.6184 C   0  0  0  0  0  0  0  0  0  0  0  0
  -32.5159  -24.8721   25.4560 C   0  0  0  0  0  0  0  0  0  0  0  0
  -30.2918  -22.3820   21.7476 C   0  0  0  0  0  0  0  0  0  0  0  0
  -31.7591  -24.0145   19.7939 C   0  0  0  0  0  0  0  0  0  0  0  0
  -30.8468  -20.9626   21.8843 C   0  0  0  0  0  0  0  0  0  0  0  0
  -29.8381  -19.8815   21.5141 C   0  0  0  0  0  0  0  0  0  1  0  0
  -24.4984  -14.5808   21.6750 C   0  0  1  0  0  0  0  0  0  0  0  0
  -26.0385  -11.8010   19.6085 C   0  0  2  0  0  0  0  0  0  0  0  0
  -23.8210  -14.2744   23.0405 C   0  0  0  0  0  0  0  0  0  0  0  0
  -25.7397  -27.0808   19.7513 N   0  0  0  0  0  0  0  0  0  0  0  0
  -26.7008  -27.8255   19.1787 N   0  0  0  0  0  0  0  0  0  0  0  0
  -24.2751  -16.7264   20.4625 N   0  0  0  0  0  0  0  0  0  0  0  0
  -28.9036  -25.0941   17.6635 N   0  0  0  0  0  0  0  0  0  0  0  0
  -27.5677  -30.0268   19.0636 N   0  0  0  0  0  0  0  0  0  0  0  0
  -24.1024  -30.4204   21.9330 N   0  0  0  0  0  0  0  0  0  0  0  0
  -22.1269  -19.6727   20.4331 N   0  0  0  0  0  0  0  0  0  0  0  0
  -24.7595  -13.3998   20.8592 N   0  0  0  0  0  0  0  0  0  0  0  0
  -30.5060  -24.5566   19.3179 N   0  0  0  0  0  0  0  0  0  0  0  0
  -27.0907  -11.8743   18.5557 N   0  3  0  0  0  0  0  0  0  0  0  0
  -25.7807  -31.5676   20.8717 O   0  0  0  0  0  0  0  0  0  0  0  0
  -23.3339  -18.5012   22.0435 O   0  0  0  0  0  0  0  0  0  0  0  0
  -22.5395  -15.1695   20.4740 O   0  0  0  0  0  0  0  0  0  0  0  0
  -27.0508  -13.7119   20.6859 O   0  0  0  0  0  0  0  0  0  0  0  0
  -30.8891  -24.0258   17.1205 O   0  0  0  0  0  0  0  0  0  0  0  0
  -20.7050  -26.3224   23.5756 O   0  0  0  0  0  0  0  0  0  0  0  0
  -29.4574  -20.0580   20.1501 O   0  0  0  0  0  0  0  0  0  1  0  0
  -16.1895  -29.4860   23.4973 F   0  0  0  0  0  0  0  0  0  0  0  0
  -20.8031  -28.9551   24.4132 F   0  0  0  0  0  0  0  0  0  0  0  0
  1  2  1  0  0  0  0
  1  5  2  0  0  0  0
  2  6  2  0  0  0  0
  3  8  2  0  0  0  0
  3 17  1  0  0  0  0
  4  9  1  0  0  0  0
  4 17  2  0  0  0  0
  5 19  1  0  0  0  0
  6 21  1  0  0  0  0
  7 10  2  0  0  0  0
  7 20  1  0  0  0  0
  8 27  1  0  0  0  0
  9 27  2  0  0  0  0
 10 28  1  0  0  0  0
 11 12  2  0  0  0  0
 11 29  1  0  0  0  0
 12 30  1  0  0  0  0
 13 22  1  0  0  0  0
 13 28  2  0  0  0  0
 14 23  1  0  0  0  0
 14 26  2  0  0  0  0
 15 24  1  0  0  0  0
 15 25  2  0  0  0  0
 16 30  2  0  0  0  0
 16 31  1  0  0  0  0
 17 32  1  0  0  0  0
 18 32  1  0  0  0  0
 18 33  2  0  0  0  0
 18 34  1  0  0  0  0
 19 21  2  0  0  0  0
 19 39  1  0  0  0  0
 20 22  2  0  0  0  0
 20 40  1  0  0  0  0
 21 48  1  0  0  0  0
 22 41  1  0  0  0  0
 23 24  2  0  0  0  0
 23 51  1  0  0  0  0
 24 58  1  0  0  0  0
 25 26  1  0  0  0  0
 25 59  1  0  0  0  0
 26 60  1  0  0  0  0
 27 81  1  0  0  0  0
 28 82  1  0  0  0  0
 29 31  2  0  0  0  0
 29 81  1  0  0  0  0
 30 83  1  0  0  0  0
 31 84  1  0  0  0  0
 32 66  2  0  0  0  0
 33 67  1  0  0  0  0
 33 70  1  0  0  0  0
 34 71  1  0  0  0  0
 34 76  2  0  0  0  0
 35 49  1  0  0  0  0
 35 72  1  0  0  0  0
 35 77  2  0  0  0  0
 36 63  1  0  0  0  0
 36 68  1  0  0  0  0
 36 78  2  0  0  0  0
 37 64  1  0  0  0  0
 37 73  1  0  0  0  0
 37 79  2  0  0  0  0
 38 69  1  0  0  0  0
 38 74  1  0  0  0  0
 38 80  2  0  0  0  0
 39 42  1  0  0  0  0
 40 49  1  0  0  0  0
 41 68  1  0  0  0  0
 42 44  1  0  0  0  0
 43 45  1  0  0  0  0
 43 46  1  0  0  0  0
 44 48  1  0  0  0  0
 45 50  1  0  0  0  0
 46 69  1  0  0  0  0
 47 50  1  0  0  0  0
 47 69  1  0  0  0  0
 48 72  1  0  0  0  0
 49 68  1  0  0  0  0
 50 67  1  0  0  0  0
 52 58  1  0  0  0  0
 53 64  1  0  0  0  0
 54 65  1  0  0  0  0
 55 65  1  0  0  0  0
 56 65  1  0  0  0  0
 57 75  1  0  0  0  0
 59 61  1  0  0  0  0
 60 74  1  0  0  0  0
 61 62  1  0  0  0  0
 62 82  1  0  0  0  0
 63 65  1  0  0  0  0
 63 73  1  0  0  0  0
 64 75  1  0  0  0  0
 66 67  1  0  0  0  0
M  CHG  1  75   1
M  ISO  4  38 100  62 101  74 100  82 101
M  END
> <Batch ID>
0101

> <Smiles>
CCc1cc(CC[101CH2:1][101O:1]c2ccc3c(c2)CN(C(=O)C(NC(=O)C(C)NC)C(C)(C)C)C(C(=O)NC2CCCc4ccccc42)C3)c(C[100NH:0][100C:0](=O)N2CCCC(n3nc(-c4ccc(Oc5ccc(F)cc5F)cc4)c(C(N)=O)c3N)C2)cc1C

> <Shape>
0.207

> <Color>
0.051

> <Negative vol penalty>
0.000

$$$$

  -OEChem-04052319363D

 85 93  0     1  0  0  0  0  0999 V2000
  -25.8119  -35.4954   22.1559 C   0  0  0  0  0  0  0  0  0  0  0  0
  -26.3909  -34.2317   22.0980 C   0  0  0  0  0  0  0  0  0  0  0  0
  -24.8648  -13.9184   21.3063 C   0  0  0  0  0  0  0  0  0  0  0  0
  -25.6484  -13.8911   19.0211 C   0  0  0  0  0  0  0  0  0  0  0  0
  -24.5122  -35.6440   22.6380 C   0  0  0  0  0  0  0  0  0  0  0  0
  -25.6707  -33.1159   22.5232 C   0  0  0  0  0  0  0  0  0  0  0  0
  -26.0742  -29.2093   19.3263 C   0  0  0  0  0  0  0  0  0  0  0  0
  -24.1171  -12.7661   21.0637 C   0  0  0  0  0  0  0  0  0  0  0  0
  -24.9007  -12.7388   18.7784 C   0  0  0  0  0  0  0  0  0  0  0  0
  -27.2498  -28.4618   19.3796 C   0  0  0  0  0  0  0  0  0  0  0  0
  -24.6746   -9.4400   20.8208 C   0  0  0  0  0  0  0  0  0  0  0  0
  -24.7262   -8.4214   21.7724 C   0  0  0  0  0  0  0  0  0  0  0  0
  -26.1188  -26.7882   20.6983 C   0  0  0  0  0  0  0  0  0  0  0  0
  -22.3394   -8.6052   22.0985 C   0  0  0  0  0  0  0  0  0  0  0  0
  -28.2254  -23.8393   16.1380 C   0  0  0  0  0  0  0  0  0  0  0  0
  -30.1406  -22.7163   15.8455 C   0  0  0  0  0  0  0  0  0  0  0  0
  -25.6304  -14.4809   20.2850 C   0  0  0  0  0  0  0  0  0  0  0  0
  -27.7329  -15.7420   20.9900 C   0  0  0  0  0  0  0  0  0  0  0  0
  -23.7722  -34.5283   23.0603 C   0  0  0  0  0  0  0  0  0  0  0  0
  -24.9130  -28.7564   19.9689 C   0  0  0  0  0  0  0  0  0  0  0  0
  -24.3603  -33.2499   23.0127 C   0  0  0  0  0  0  0  0  0  0  0  0
  -24.9290  -27.5306   20.6496 C   0  0  0  0  0  0  0  0  0  0  0  0
  -27.8999  -22.5156   15.9405 C   0  0  0  0  0  0  0  0  0  0  0  0
  -29.1116  -21.8051   15.7553 C   0  0  0  0  0  0  0  0  0  0  0  0
  -24.1350  -12.1764   19.7998 C   0  0  0  0  0  0  0  0  0  0  0  0
  -27.2730  -27.2524   20.0681 C   0  0  0  0  0  0  0  0  0  0  0  0
  -23.4554  -10.0413   20.5082 C   0  0  0  0  0  0  0  0  0  0  0  0
  -23.5586   -8.0040   22.4112 C   0  0  0  0  0  0  0  0  0  0  0  0
  -22.2878   -9.6238   21.1470 C   0  0  0  0  0  0  0  0  0  0  0  0
  -26.4026  -15.6715   20.5349 C   0  0  0  0  0  0  0  0  0  0  0  0
  -27.9994  -17.0873   21.0645 C   0  0  0  0  0  0  0  0  0  0  0  0
  -28.6460  -14.6859   21.3162 C   0  0  0  0  0  0  0  0  0  0  0  0
  -23.0748  -29.8562   22.3174 C   0  0  0  0  0  0  0  0  0  0  0  0
  -21.2096  -27.3259   21.5169 C   0  0  0  0  0  0  0  0  0  0  0  0
  -20.9791  -24.2300   20.0995 C   0  0  0  0  0  0  0  0  0  0  0  0
  -25.7081  -21.8590   18.2659 C   0  0  0  0  0  0  0  0  0  0  0  0
  -22.3877  -34.7443   23.6181 C   0  0  0  0  0  0  0  0  0  0  0  0
  -23.6456  -29.5615   19.8795 C   0  0  0  0  0  0  0  0  0  0  0  0
  -23.7038  -26.9903   21.3390 C   0  0  0  0  0  0  0  0  0  0  0  0
  -21.5571  -33.4661   23.6984 C   0  0  0  0  0  0  0  0  0  0  0  0
  -25.8427  -21.2979   21.7792 C   0  0  0  0  0  0  0  0  0  0  0  0
  -22.3778  -32.3335   24.3072 C   0  0  0  0  0  0  0  0  0  0  0  0
  -26.1215  -19.7986   21.8998 C   0  0  0  0  0  0  0  0  0  0  0  0
  -24.9215  -21.6077   20.6014 C   0  0  0  0  0  0  0  0  0  0  0  0
  -25.6497  -19.5680   19.4253 C   0  0  0  0  0  0  0  0  0  0  0  0
  -23.6021  -32.0124   23.4415 C   0  0  1  0  0  0  0  0  0  0  0  0
  -22.6618  -29.2541   21.0042 C   0  0  1  0  0  0  0  0  0  0  0  0
  -26.6193  -19.2118   20.5652 C   0  0  2  0  0  0  0  0  0  0  0  0
  -30.0453  -19.6316   16.6257 C   0  0  0  0  0  0  0  0  0  0  0  0
  -29.9030  -20.0376   14.1417 C   0  0  0  0  0  0  0  0  0  0  0  0
  -19.3311  -22.3974   19.6274 C   0  0  0  0  0  0  0  0  0  0  0  0
  -30.9451  -25.0496   20.0937 C   0  0  0  0  0  0  0  0  0  0  0  0
  -21.3067  -26.4866   24.4488 C   0  0  0  0  0  0  0  0  0  0  0  0
  -20.4868  -24.2247   23.7562 C   0  0  0  0  0  0  0  0  0  0  0  0
  -19.0661  -26.2376   23.3661 C   0  0  0  0  0  0  0  0  0  0  0  0
  -21.3888  -24.4561   17.1772 C   0  0  0  0  0  0  0  0  0  0  0  0
  -26.5353  -21.9521   15.9279 C   0  0  0  0  0  0  0  0  0  0  0  0
  -31.0597  -25.3674   17.6092 C   0  0  0  0  0  0  0  0  0  0  0  0
  -30.3673  -25.2313   16.2460 C   0  0  0  0  0  0  0  0  0  0  0  0
  -29.3117  -26.6293   19.0138 C   0  0  0  0  0  0  0  0  0  1  0  0
  -29.2574  -20.3567   15.5101 C   0  0  0  0  0  0  0  0  0  0  0  0
  -21.1268  -25.8808   21.9455 C   0  0  1  0  0  0  0  0  0  0  0  0
  -20.0005  -23.6537   19.0922 C   0  0  2  0  0  0  0  0  0  0  0  0
  -30.1186  -25.3364   18.8336 C   0  0  2  0  0  0  0  0  0  0  0  0
  -20.5204  -25.7183   23.3679 C   0  0  0  0  0  0  0  0  0  0  0  0
  -25.8616  -16.8761   20.3345 N   0  0  0  0  0  0  0  0  0  0  0  0
  -29.5901  -23.9496   16.0785 N   0  0  0  0  0  0  0  0  0  0  0  0
  -26.8569  -17.7163   20.6653 N   0  0  0  0  0  0  0  0  0  0  0  0
  -22.4907  -27.8172   21.2284 N   0  0  0  0  0  0  0  0  0  0  0  0
  -25.4512  -21.0247   19.3663 N   0  0  0  0  0  0  0  0  0  0  0  0
  -29.0972  -17.7818   21.4319 N   0  0  0  0  0  0  0  0  0  0  0  0
  -28.2098  -13.3606   21.1832 N   0  0  0  0  0  0  0  0  0  0  0  0
  -23.2139  -31.2307   22.2871 N   0  0  0  0  0  0  0  0  0  0  0  0
  -20.3870  -25.1860   20.8975 N   0  0  0  0  0  0  0  0  0  0  0  0
  -26.2150  -21.2268   17.1371 N   0  0  0  0  0  0  0  0  0  0  0  0
  -20.7049  -23.3076   17.8253 N   0  3  0  0  0  0  0  0  0  0  0  0
  -29.8088  -14.9109   21.7295 O   0  0  0  0  0  0  0  0  0  0  0  0
  -23.2527  -29.1279   23.2868 O   0  0  0  0  0  0  0  0  0  0  0  0
  -20.1748  -27.9923   21.4341 O   0  0  0  0  0  0  0  0  0  0  0  0
  -22.1506  -23.8658   20.1737 O   0  0  0  0  0  0  0  0  0  0  0  0
  -25.5061  -23.0779   18.2895 O   0  0  0  0  0  0  0  0  0  0  0  0
  -23.4057  -11.0519   19.5627 O   0  0  0  0  0  0  0  0  0  0  0  0
  -28.4194  -26.5211   20.1222 O   0  0  0  0  0  0  0  0  0  1  0  0
  -23.6081   -7.0248   23.3238 F   0  0  0  0  0  0  0  0  0  0  0  0
  -21.1134  -10.1969   20.8499 F   0  0  0  0  0  0  0  0  0  0  0  0
  1  2  1  0  0  0  0
  1  5  2  0  0  0  0
  2  6  2  0  0  0  0
  3  8  2  0  0  0  0
  3 17  1  0  0  0  0
  4  9  1  0  0  0  0
  4 17  2  0  0  0  0
  5 19  1  0  0  0  0
  6 21  1  0  0  0  0
  7 10  2  0  0  0  0
  7 20  1  0  0  0  0
  8 25  1  0  0  0  0
  9 25  2  0  0  0  0
 10 26  1  0  0  0  0
 11 12  2  0  0  0  0
 11 27  1  0  0  0  0
 12 28  1  0  0  0  0
 13 22  1  0  0  0  0
 13 26  2  0  0  0  0
 14 28  2  0  0  0  0
 14 29  1  0  0  0  0
 15 23  2  0  0  0  0
 15 67  1  0  0  0  0
 16 24  2  0  0  0  0
 16 67  1  0  0  0  0
 17 30  1  0  0  0  0
 18 30  1  0  0  0  0
 18 31  2  0  0  0  0
 18 32  1  0  0  0  0
 19 21  2  0  0  0  0
 19 37  1  0  0  0  0
 20 22  2  0  0  0  0
 20 38  1  0  0  0  0
 21 46  1  0  0  0  0
 22 39  1  0  0  0  0
 23 24  1  0  0  0  0
 23 57  1  0  0  0  0
 24 61  1  0  0  0  0
 25 82  1  0  0  0  0
 26 83  1  0  0  0  0
 27 29  2  0  0  0  0
 27 82  1  0  0  0  0
 28 84  1  0  0  0  0
 29 85  1  0  0  0  0
 30 66  2  0  0  0  0
 31 68  1  0  0  0  0
 31 71  1  0  0  0  0
 32 72  1  0  0  0  0
 32 77  2  0  0  0  0
 33 47  1  0  0  0  0
 33 73  1  0  0  0  0
 33 78  2  0  0  0  0
 34 62  1  0  0  0  0
 34 69  1  0  0  0  0
 34 79  2  0  0  0  0
 35 63  1  0  0  0  0
 35 74  1  0  0  0  0
 35 80  2  0  0  0  0
 36 70  1  0  0  0  0
 36 75  1  0  0  0  0
 36 81  2  0  0  0  0
 37 40  1  0  0  0  0
 38 47  1  0  0  0  0
 39 69  1  0  0  0  0
 40 42  1  0  0  0  0
 41 43  1  0  0  0  0
 41 44  1  0  0  0  0
 42 46  1  0  0  0  0
 43 48  1  0  0  0  0
 44 70  1  0  0  0  0
 45 48  1  0  0  0  0
 45 70  1  0  0  0  0
 46 73  1  0  0  0  0
 47 69  1  0  0  0  0
 48 68  1  0  0  0  0
 49 61  1  0  0  0  0
 50 61  1  0  0  0  0
 51 63  1  0  0  0  0
 52 64  1  0  0  0  0
 53 65  1  0  0  0  0
 54 65  1  0  0  0  0
 55 65  1  0  0  0  0
 56 76  1  0  0  0  0
 57 75  1  0  0  0  0
 58 59  1  0  0  0  0
 58 64  1  0  0  0  0
 59 67  1  0  0  0  0
 60 64  1  0  0  0  0
 60 83  1  0  0  0  0
 62 65  1  0  0  0  0
 62 74  1  0  0  0  0
 63 76  1  0  0  0  0
 66 68  1  0  0  0  0
M  CHG  1  76   1
M  ISO  4  36 100  60 101  75 100  83 101
M  END
> <Batch ID>
0101

> <Smiles>
CNC(C)C(=O)NC(C(=O)N1Cc2cc([101O:1][101CH2:1]C(C)CCn3cc(C[100NH:0][100C:0](=O)N4CCCC(n5nc(-c6ccc(Oc7ccc(F)cc7F)cc6)c(C(N)=O)c5N)C4)c(C(C)C)c3)ccc2CC1C(=O)NC1CCCc2ccccc21)C(C)(C)C

> <Shape>
0.249

> <Color>
0.077

> <Negative vol penalty>
0.000

$$$$

  -OEChem-04052319363D

 83 90  0     1  0  0  0  0  0999 V2000
  -16.7472  -28.1204   23.8799 C   0  0  0  0  0  0  0  0  0  0  0  0
  -17.4097  -27.3940   22.8956 C   0  0  0  0  0  0  0  0  0  0  0  0
  -24.7015   -9.0326   21.0334 C   0  0  0  0  0  0  0  0  0  0  0  0
  -22.9499  -10.4824   20.2166 C   0  0  0  0  0  0  0  0  0  0  0  0
  -17.2307  -29.3694   24.2674 C   0  0  0  0  0  0  0  0  0  0  0  0
  -18.5557  -27.9168   22.2974 C   0  0  0  0  0  0  0  0  0  0  0  0
  -22.2630  -24.4926   21.8787 C   0  0  0  0  0  0  0  0  0  0  0  0
  -23.7434   -8.1044   21.4408 C   0  0  0  0  0  0  0  0  0  0  0  0
  -21.9917   -9.5541   20.6240 C   0  0  0  0  0  0  0  0  0  0  0  0
  -22.1569  -23.5623   20.8457 C   0  0  0  0  0  0  0  0  0  0  0  0
  -21.5974   -7.7103   24.0223 C   0  0  0  0  0  0  0  0  0  0  0  0
  -21.7422   -7.1439   25.2887 C   0  0  0  0  0  0  0  0  0  0  0  0
  -23.7077  -24.8576   19.5280 C   0  0  0  0  0  0  0  0  0  0  0  0
  -21.8848   -4.9483   24.2905 C   0  0  0  0  0  0  0  0  0  0  0  0
  -24.3048  -10.2217   20.4214 C   0  0  0  0  0  0  0  0  0  0  0  0
  -25.9339  -11.2492   18.7487 C   0  0  0  0  0  0  0  0  0  0  0  0
  -18.3887  -29.9034   23.6804 C   0  0  0  0  0  0  0  0  0  0  0  0
  -23.0853  -25.6199   21.7396 C   0  0  0  0  0  0  0  0  0  0  0  0
  -19.0544  -29.1747   22.6764 C   0  0  0  0  0  0  0  0  0  0  0  0
  -23.8245  -25.7993   20.5617 C   0  0  0  0  0  0  0  0  0  0  0  0
  -22.3885   -8.3652   21.2361 C   0  0  0  0  0  0  0  0  0  0  0  0
  -22.8770  -23.7462   19.6690 C   0  0  0  0  0  0  0  0  0  0  0  0
  -21.5963   -6.8957   22.8899 C   0  0  0  0  0  0  0  0  0  0  0  0
  -21.8859   -5.7630   25.4229 C   0  0  0  0  0  0  0  0  0  0  0  0
  -21.7400   -5.5147   23.0241 C   0  0  0  0  0  0  0  0  0  0  0  0
  -25.2940  -11.1811   20.0008 C   0  0  0  0  0  0  0  0  0  0  0  0
  -26.7774  -12.3282   18.8524 C   0  0  0  0  0  0  0  0  0  0  0  0
  -25.7796  -10.4120   17.5951 C   0  0  0  0  0  0  0  0  0  0  0  0
  -22.6013  -28.7615   21.7269 C   0  0  0  0  0  0  0  0  0  0  0  0
  -25.8420  -28.8675   21.6315 C   0  0  0  0  0  0  0  0  0  0  0  0
  -28.7695  -27.3066   20.8313 C   0  0  0  0  0  0  0  0  0  0  0  0
  -26.7050  -17.2471   22.2657 C   0  0  0  0  0  0  0  0  0  0  0  0
  -18.8465  -31.2783   24.0984 C   0  0  0  0  0  0  0  0  0  0  0  0
  -23.2095  -26.6002   22.8736 C   0  0  0  0  0  0  0  0  0  0  0  0
  -24.7370  -26.9823   20.3705 C   0  0  0  0  0  0  0  0  0  0  0  0
  -20.2801  -31.5960   23.6812 C   0  0  0  0  0  0  0  0  0  0  0  0
  -29.2980  -14.8150   22.0702 C   0  0  0  0  0  0  0  0  0  0  0  0
  -20.5116  -31.2042   22.2252 C   0  0  0  0  0  0  0  0  0  0  0  0
  -28.6236  -13.6140   21.4047 C   0  0  0  0  0  0  0  0  0  0  0  0
  -28.3448  -15.5470   23.0123 C   0  0  0  0  0  0  0  0  0  0  0  0
  -26.3899  -14.7532   21.7387 C   0  0  0  0  0  0  0  0  0  0  0  0
  -20.3147  -29.6971   22.0215 C   0  0  1  0  0  0  0  0  0  0  0  0
  -23.6797  -27.9796   22.4223 C   0  0  1  0  0  0  0  0  0  0  0  0
  -27.2948  -14.0161   20.7367 C   0  0  2  0  0  0  0  0  0  0  0  0
  -31.2541  -27.6591   20.8323 C   0  0  0  0  0  0  0  0  0  0  0  0
  -25.9980  -17.7644   18.3995 C   0  0  0  0  0  0  0  0  0  0  0  0
  -22.1366  -20.0622   18.4704 C   0  0  0  0  0  0  0  0  0  0  0  0
  -25.5864  -30.6592   19.1751 C   0  0  0  0  0  0  0  0  0  0  0  0
  -27.9958  -30.1985   18.6744 C   0  0  0  0  0  0  0  0  0  0  0  0
  -27.3627  -31.3539   20.7926 C   0  0  0  0  0  0  0  0  0  0  0  0
  -27.0110  -19.7546   20.2274 C   0  0  0  0  0  0  0  0  0  0  0  0
  -24.9090  -21.0403   20.2164 C   0  0  0  0  0  0  0  0  0  0  0  0
  -25.7532  -20.5872   16.9481 C   0  0  0  0  0  0  0  0  0  0  0  0
  -24.0880  -18.8275   16.3684 C   0  0  0  0  0  0  0  0  0  0  0  0
  -29.2076  -25.0364   22.6788 C   0  0  0  0  0  0  0  0  0  0  0  0
  -24.9836  -18.8314   21.4378 C   0  0  0  0  0  0  0  0  0  0  0  0
  -26.8793  -28.8857   20.5348 C   0  0  1  0  0  0  0  0  0  0  0  0
  -30.0604  -27.1264   21.6095 C   0  0  2  0  0  0  0  0  0  0  0  0
  -25.0007  -18.8828   18.8081 C   0  0  1  0  0  0  0  0  0  0  0  0
  -23.3831  -20.7411   17.8845 C   0  0  2  0  0  0  0  0  0  0  0  0
  -26.9374  -30.2529   19.7968 C   0  0  0  0  0  0  0  0  0  0  0  0
  -25.4711  -19.5865   20.1771 C   0  0  0  0  0  0  0  0  0  0  0  0
  -24.5858  -19.7533   17.5148 C   0  0  0  0  0  0  0  0  0  0  0  0
  -25.6967  -12.1404   20.8385 N   0  0  0  0  0  0  0  0  0  0  0  0
  -26.5987  -12.8214   20.1114 N   0  0  0  0  0  0  0  0  0  0  0  0
  -24.8198  -27.9162   21.5056 N   0  0  0  0  0  0  0  0  0  0  0  0
  -27.1051  -15.9016   22.3170 N   0  0  0  0  0  0  0  0  0  0  0  0
  -27.6472  -12.8936   17.9886 N   0  0  0  0  0  0  0  0  0  0  0  0
  -24.8700   -9.3476   17.6588 N   0  0  0  0  0  0  0  0  0  0  0  0
  -21.4715  -28.9677   22.4952 N   0  0  0  0  0  0  0  0  0  0  0  0
  -28.1378  -28.4883   21.1566 N   0  0  0  0  0  0  0  0  0  0  0  0
  -25.5215  -17.4971   21.5819 N   0  0  0  0  0  0  0  0  0  0  0  0
  -23.7859  -21.8026   18.8241 N   0  0  0  0  0  0  0  0  0  1  0  0
  -30.2939  -25.6832   21.8985 N   0  3  0  0  0  0  0  0  0  0  0  0
  -26.4411  -10.5922   16.5446 O   0  0  0  0  0  0  0  0  0  0  0  0
  -22.7817  -29.1503   20.5788 O   0  0  0  0  0  0  0  0  0  0  0  0
  -25.9393  -29.6631   22.5692 O   0  0  0  0  0  0  0  0  0  0  0  0
  -28.3642  -26.4834   20.0137 O   0  0  0  0  0  0  0  0  0  0  0  0
  -27.3572  -18.1587   22.7859 O   0  0  0  0  0  0  0  0  0  0  0  0
  -21.4532   -7.4595   21.6333 O   0  0  0  0  0  0  0  0  0  0  0  0
  -22.7737  -22.8310   18.6487 O   0  0  0  0  0  0  0  0  0  1  0  0
  -22.0264   -5.2194   26.6390 F   0  0  0  0  0  0  0  0  0  0  0  0
  -21.7408   -4.7271   21.9399 F   0  0  0  0  0  0  0  0  0  0  0  0
  1  2  1  0  0  0  0
  1  5  2  0  0  0  0
  2  6  2  0  0  0  0
  3  8  2  0  0  0  0
  3 15  1  0  0  0  0
  4  9  1  0  0  0  0
  4 15  2  0  0  0  0
  5 17  1  0  0  0  0
  6 19  1  0  0  0  0
  7 10  2  0  0  0  0
  7 18  1  0  0  0  0
  8 21  1  0  0  0  0
  9 21  2  0  0  0  0
 10 22  1  0  0  0  0
 11 12  2  0  0  0  0
 11 23  1  0  0  0  0
 12 24  1  0  0  0  0
 13 20  1  0  0  0  0
 13 22  2  0  0  0  0
 14 24  2  0  0  0  0
 14 25  1  0  0  0  0
 15 26  1  0  0  0  0
 16 26  1  0  0  0  0
 16 27  2  0  0  0  0
 16 28  1  0  0  0  0
 17 19  2  0  0  0  0
 17 33  1  0  0  0  0
 18 20  2  0  0  0  0
 18 34  1  0  0  0  0
 19 42  1  0  0  0  0
 20 35  1  0  0  0  0
 21 80  1  0  0  0  0
 22 81  1  0  0  0  0
 23 25  2  0  0  0  0
 23 80  1  0  0  0  0
 24 82  1  0  0  0  0
 25 83  1  0  0  0  0
 26 64  2  0  0  0  0
 27 65  1  0  0  0  0
 27 68  1  0  0  0  0
 28 69  1  0  0  0  0
 28 75  2  0  0  0  0
 29 43  1  0  0  0  0
 29 70  1  0  0  0  0
 29 76  2  0  0  0  0
 30 57  1  0  0  0  0
 30 66  1  0  0  0  0
 30 77  2  0  0  0  0
 31 58  1  0  0  0  0
 31 71  1  0  0  0  0
 31 78  2  0  0  0  0
 32 67  1  0  0  0  0
 32 72  1  0  0  0  0
 32 79  2  0  0  0  0
 33 36  1  0  0  0  0
 34 43  1  0  0  0  0
 35 66  1  0  0  0  0
 36 38  1  0  0  0  0
 37 39  1  0  0  0  0
 37 40  1  0  0  0  0
 38 42  1  0  0  0  0
 39 44  1  0  0  0  0
 40 67  1  0  0  0  0
 41 44  1  0  0  0  0
 41 67  1  0  0  0  0
 42 70  1  0  0  0  0
 43 66  1  0  0  0  0
 44 65  1  0  0  0  0
 45 58  1  0  0  0  0
 46 59  1  0  0  0  0
 47 60  1  0  0  0  0
 48 61  1  0  0  0  0
 49 61  1  0  0  0  0
 50 61  1  0  0  0  0
 51 62  1  0  0  0  0
 52 62  1  0  0  0  0
 53 63  1  0  0  0  0
 54 63  1  0  0  0  0
 55 74  1  0  0  0  0
 56 62  1  0  0  0  0
 56 72  1  0  0  0  0
 57 61  1  0  0  0  0
 57 71  1  0  0  0  0
 58 74  1  0  0  0  0
 59 62  1  0  0  0  0
 59 63  1  0  0  0  0
 60 63  1  0  0  0  0
 60 73  1  0  0  0  0
 64 65  1  0  0  0  0
 73 81  1  0  0  0  0
M  CHG  1  74   1
M  ISO  4  32 100  72 100  73 101  81 101
M  END
> <Batch ID>
0101

> <Smiles>
CNC(C)C(=O)NC(C(=O)N1Cc2cc([101O:1][101NH:1]C(C)C(C)(C)C(C)C(C)(C)C[100NH:0][100C:0](=O)N3CCCC(n4nc(-c5ccc(Oc6ccc(F)cc6F)cc5)c(C(N)=O)c4N)C3)ccc2CC1C(=O)NC1CCCc2ccccc21)C(C)(C)C

> <Shape>
0.249

> <Color>
0.099

> <Negative vol penalty>
0.000

$$$$

  -OEChem-04052319363D

 82 90  0     1  0  0  0  0  0999 V2000
  -28.4679  -25.3860   15.9781 C   0  0  0  0  0  0  0  0  0  0  0  0
  -27.2905  -25.4194   16.7185 C   0  0  0  0  0  0  0  0  0  0  0  0
  -24.1788  -14.6858   20.8213 C   0  0  0  0  0  0  0  0  0  0  0  0
  -25.7828  -14.5889   19.0172 C   0  0  0  0  0  0  0  0  0  0  0  0
  -29.6356  -25.9389   16.5024 C   0  0  0  0  0  0  0  0  0  0  0  0
  -27.2805  -26.0047   17.9841 C   0  0  0  0  0  0  0  0  0  0  0  0
  -23.2686  -29.0103   18.7026 C   0  0  0  0  0  0  0  0  0  0  0  0
  -23.3333  -22.3964   21.3184 C   0  0  0  0  0  0  0  0  0  0  0  0
  -24.4570  -13.3567   21.1400 C   0  0  0  0  0  0  0  0  0  0  0  0
  -26.0611  -13.2598   19.3359 C   0  0  0  0  0  0  0  0  0  0  0  0
  -22.0522  -28.3914   18.9871 C   0  0  0  0  0  0  0  0  0  0  0  0
  -23.6350  -10.2919   19.9757 C   0  0  0  0  0  0  0  0  0  0  0  0
  -22.5543   -9.4472   20.2293 C   0  0  0  0  0  0  0  0  0  0  0  0
  -22.1579  -22.8726   20.7484 C   0  0  0  0  0  0  0  0  0  0  0  0
  -22.3644  -28.8686   21.3310 C   0  0  0  0  0  0  0  0  0  0  0  0
  -23.4001   -9.0332   22.4543 C   0  0  0  0  0  0  0  0  0  0  0  0
  -24.2960  -24.5484   21.0048 C   0  0  0  0  0  0  0  0  0  0  0  0
  -24.8417  -15.3019   19.7598 C   0  0  0  0  0  0  0  0  0  0  0  0
  -23.3120  -17.2148   19.0467 C   0  0  0  0  0  0  0  0  0  0  0  0
  -29.6375  -26.5399   17.7710 C   0  0  0  0  0  0  0  0  0  0  0  0
  -24.0486  -29.5543   19.7332 C   0  0  0  0  0  0  0  0  0  0  0  0
  -28.4496  -26.5649   18.5264 C   0  0  0  0  0  0  0  0  0  0  0  0
  -23.5891  -29.4961   21.0567 C   0  0  0  0  0  0  0  0  0  0  0  0
  -24.4273  -23.2439   21.4527 C   0  0  0  0  0  0  0  0  0  0  0  0
  -25.3981  -12.6437   20.3974 C   0  0  0  0  0  0  0  0  0  0  0  0
  -21.6012  -28.3179   20.3018 C   0  0  0  0  0  0  0  0  0  0  0  0
  -24.5982  -10.5072   20.9613 C   0  0  0  0  0  0  0  0  0  0  0  0
  -22.4369   -8.8179   21.4686 C   0  0  0  0  0  0  0  0  0  0  0  0
  -24.4808   -9.8779   22.2006 C   0  0  0  0  0  0  0  0  0  0  0  0
  -24.5543  -16.6747   19.4297 C   0  0  0  0  0  0  0  0  0  0  0  0
  -22.1280  -24.1939   20.3322 C   0  0  0  0  0  0  0  0  0  0  0  0
  -23.5653  -18.5496   18.8453 C   0  0  0  0  0  0  0  0  0  0  0  0
  -22.0424  -16.5678   18.8874 C   0  0  0  0  0  0  0  0  0  0  0  0
  -26.9564  -28.9861   20.8846 C   0  0  0  0  0  0  0  0  0  0  0  0
  -26.8387  -22.8013   21.0714 C   0  0  0  0  0  0  0  0  0  0  0  0
  -26.3287  -31.6062   22.6911 C   0  0  0  0  0  0  0  0  0  0  0  0
  -23.9985  -33.6578   24.1080 C   0  0  0  0  0  0  0  0  0  0  0  0
  -30.9353  -27.0821   18.3154 C   0  0  0  0  0  0  0  0  0  0  0  0
  -25.3457  -30.2422   19.4068 C   0  0  0  0  0  0  0  0  0  0  0  0
  -24.3793  -30.0826   22.1970 C   0  0  0  0  0  0  0  0  0  0  0  0
  -30.7522  -28.0171   19.5081 C   0  0  0  0  0  0  0  0  0  0  0  0
  -27.6012  -21.2415   17.9368 C   0  0  0  0  0  0  0  0  0  0  0  0
  -29.7796  -27.4127   20.5159 C   0  0  0  0  0  0  0  0  0  0  0  0
  -26.7980  -19.9421   17.9776 C   0  0  0  0  0  0  0  0  0  0  0  0
  -28.1227  -21.6192   19.3197 C   0  0  0  0  0  0  0  0  0  0  0  0
  -26.2545  -20.4160   20.4077 C   0  0  0  0  0  0  0  0  0  0  0  0
  -28.3928  -27.2130   19.8927 C   0  0  1  0  0  0  0  0  0  0  0  0
  -26.3027  -30.3073   20.5931 C   0  0  1  0  0  0  0  0  0  0  0  0
  -25.6833  -20.0143   19.0363 C   0  0  2  0  0  0  0  0  0  0  0  0
  -26.1066  -23.5415   23.3191 C   0  0  0  0  0  0  0  0  0  0  0  0
  -23.0882  -35.6386   25.3511 C   0  0  0  0  0  0  0  0  0  0  0  0
  -19.6252  -26.9038   22.6991 C   0  0  0  0  0  0  0  0  0  0  0  0
  -27.0186  -29.9265   25.1431 C   0  0  0  0  0  0  0  0  0  0  0  0
  -25.9000  -31.6613   26.5599 C   0  0  0  0  0  0  0  0  0  0  0  0
  -27.9013  -32.2658   25.1990 C   0  0  0  0  0  0  0  0  0  0  0  0
  -23.8431  -35.2823   21.6391 C   0  0  0  0  0  0  0  0  0  0  0  0
  -20.8697  -24.7444   19.7100 C   0  0  0  0  0  0  0  0  0  0  0  0
  -19.8953  -25.3601   20.7247 C   0  0  0  0  0  0  0  0  0  0  0  0
  -25.6987  -22.7645   22.0578 C   0  0  1  0  0  0  0  0  0  0  0  0
  -25.6940  -31.8481   24.0393 C   0  0  1  0  0  0  0  0  0  0  0  0
  -23.8707  -35.1703   24.1341 C   0  0  2  0  0  0  0  0  0  0  0  0
  -20.4501  -26.5876   21.4580 C   0  0  1  0  0  0  0  0  0  1  0  0
  -26.6143  -31.4126   25.2143 C   0  0  0  0  0  0  0  0  0  0  0  0
  -23.1705  -25.0471   20.4461 N   0  0  0  0  0  0  0  0  0  0  0  0
  -25.5248  -17.5915   19.4697 N   0  0  0  0  0  0  0  0  0  0  0  0
  -24.8923  -18.7212   19.1093 N   0  0  0  0  0  0  0  0  0  0  0  0
  -25.6441  -30.7393   21.8275 N   0  0  0  0  0  0  0  0  0  0  0  0
  -27.0371  -21.6552   20.3012 N   0  0  0  0  0  0  0  0  0  0  0  0
  -22.7801  -19.5816   18.4699 N   0  0  0  0  0  0  0  0  0  0  0  0
  -21.7156  -16.0377   17.6318 N   0  0  0  0  0  0  0  0  0  0  0  0
  -27.6822  -28.4721   19.8270 N   0  0  0  0  0  0  0  0  0  0  0  0
  -25.3172  -33.2573   24.0661 N   0  0  0  0  0  0  0  0  0  0  0  0
  -23.1696  -35.6521   22.9105 N   0  3  0  0  0  0  0  0  0  0  0  0
  -21.2154  -16.4773   19.8262 O   0  0  0  0  0  0  0  0  0  0  0  0
  -26.8141  -28.4720   21.9878 O   0  0  0  0  0  0  0  0  0  0  0  0
  -27.5292  -23.8203   20.9871 O   0  0  0  0  0  0  0  0  0  0  0  0
  -27.3890  -32.1713   22.4117 O   0  0  0  0  0  0  0  0  0  0  0  0
  -23.0258  -32.9068   24.1270 O   0  0  0  0  0  0  0  0  0  0  0  0
  -25.6701  -11.3468   20.7083 O   0  0  0  0  0  0  0  0  0  0  0  0
  -20.4146  -27.7137   20.5823 O   0  0  0  0  0  0  0  0  0  1  0  0
  -21.3983   -8.0079   21.7125 F   0  0  0  0  0  0  0  0  0  0  0  0
  -25.4024  -10.0819   23.1519 F   0  0  0  0  0  0  0  0  0  0  0  0
  1  2  1  0  0  0  0
  1  5  2  0  0  0  0
  2  6  2  0  0  0  0
  3  9  2  0  0  0  0
  3 18  1  0  0  0  0
  4 10  1  0  0  0  0
  4 18  2  0  0  0  0
  5 20  1  0  0  0  0
  6 22  1  0  0  0  0
  7 11  2  0  0  0  0
  7 21  1  0  0  0  0
  8 14  2  0  0  0  0
  8 24  1  0  0  0  0
  9 25  1  0  0  0  0
 10 25  2  0  0  0  0
 11 26  1  0  0  0  0
 12 13  2  0  0  0  0
 12 27  1  0  0  0  0
 13 28  1  0  0  0  0
 14 31  1  0  0  0  0
 15 23  1  0  0  0  0
 15 26  2  0  0  0  0
 16 28  2  0  0  0  0
 16 29  1  0  0  0  0
 17 24  2  0  0  0  0
 17 64  1  0  0  0  0
 18 30  1  0  0  0  0
 19 30  1  0  0  0  0
 19 32  2  0  0  0  0
 19 33  1  0  0  0  0
 20 22  2  0  0  0  0
 20 38  1  0  0  0  0
 21 23  2  0  0  0  0
 21 39  1  0  0  0  0
 22 47  1  0  0  0  0
 23 40  1  0  0  0  0
 24 59  1  0  0  0  0
 25 79  1  0  0  0  0
 26 80  1  0  0  0  0
 27 29  2  0  0  0  0
 27 79  1  0  0  0  0
 28 81  1  0  0  0  0
 29 82  1  0  0  0  0
 30 65  2  0  0  0  0
 31 57  1  0  0  0  0
 31 64  2  0  0  0  0
 32 66  1  0  0  0  0
 32 69  1  0  0  0  0
 33 70  1  0  0  0  0
 33 74  2  0  0  0  0
 34 48  1  0  0  0  0
 34 71  1  0  0  0  0
 34 75  2  0  0  0  0
 35 59  1  0  0  0  0
 35 68  1  0  0  0  0
 35 76  2  0  0  0  0
 36 60  1  0  0  0  0
 36 67  1  0  0  0  0
 36 77  2  0  0  0  0
 37 61  1  0  0  0  0
 37 72  1  0  0  0  0
 37 78  2  0  0  0  0
 38 41  1  0  0  0  0
 39 48  1  0  0  0  0
 40 67  1  0  0  0  0
 41 43  1  0  0  0  0
 42 44  1  0  0  0  0
 42 45  1  0  0  0  0
 43 47  1  0  0  0  0
 44 49  1  0  0  0  0
 45 68  1  0  0  0  0
 46 49  1  0  0  0  0
 46 68  1  0  0  0  0
 47 71  1  0  0  0  0
 48 67  1  0  0  0  0
 49 66  1  0  0  0  0
 50 59  1  0  0  0  0
 51 61  1  0  0  0  0
 52 62  1  0  0  0  0
 53 63  1  0  0  0  0
 54 63  1  0  0  0  0
 55 63  1  0  0  0  0
 56 73  1  0  0  0  0
 57 58  1  0  0  0  0
 58 62  1  0  0  0  0
 60 63  1  0  0  0  0
 60 72  1  0  0  0  0
 61 73  1  0  0  0  0
 62 80  1  0  0  0  0
 65 66  1  0  0  0  0
M  CHG  1  73   1
M  ISO  4  35 100  59 100  62 101  80 101
M  END
> <Batch ID>
0101

> <Smiles>
CNC(C)C(=O)NC(C(=O)N1Cc2cc([101O:1][101CH:1](C)CCc3ccc([100CH:0](C)[100C:0](=O)N4CCCC(n5nc(-c6ccc(Oc7ccc(F)cc7F)cc6)c(C(N)=O)c5N)C4)cn3)ccc2CC1C(=O)NC1CCCc2ccccc21)C(C)(C)C

> <Shape>
0.271

> <Color>
0.090

> <Negative vol penalty>
0.000

$$$$

  -OEChem-04052319363D

 83 91  0     1  0  0  0  0  0999 V2000
  -19.5246  -28.8465   22.0578 C   0  0  0  0  0  0  0  0  0  0  0  0
  -20.6957  -28.3084   22.5816 C   0  0  0  0  0  0  0  0  0  0  0  0
  -29.2328  -23.9705   18.4697 C   0  0  0  0  0  0  0  0  0  0  0  0
  -27.2815  -23.6152   19.8493 C   0  0  0  0  0  0  0  0  0  0  0  0
  -18.3938  -28.0439   21.9132 C   0  0  0  0  0  0  0  0  0  0  0  0
  -20.7363  -26.9675   22.9621 C   0  0  0  0  0  0  0  0  0  0  0  0
  -25.2172  -21.3874   23.2792 C   0  0  0  0  0  0  0  0  0  0  0  0
  -28.7523  -25.2309   18.1146 C   0  0  0  0  0  0  0  0  0  0  0  0
  -26.8010  -24.8756   19.4942 C   0  0  0  0  0  0  0  0  0  0  0  0
  -25.6843  -20.4310   24.1796 C   0  0  0  0  0  0  0  0  0  0  0  0
  -25.2344  -28.1463   19.2355 C   0  0  0  0  0  0  0  0  0  0  0  0
  -24.7224  -28.9554   20.2498 C   0  0  0  0  0  0  0  0  0  0  0  0
  -23.6935  -19.1197   23.8103 C   0  0  0  0  0  0  0  0  0  0  0  0
  -28.1737  -15.4181   23.9145 C   0  0  0  0  0  0  0  0  0  0  0  0
  -26.8619  -28.9039   21.3709 C   0  0  0  0  0  0  0  0  0  0  0  0
  -28.4974  -23.1626   19.3370 C   0  0  0  0  0  0  0  0  0  0  0  0
  -30.2038  -21.5648   20.3582 C   0  0  0  0  0  0  0  0  0  0  0  0
  -18.4234  -26.6900   22.2832 C   0  0  0  0  0  0  0  0  0  0  0  0
  -23.9776  -21.2222   22.6447 C   0  0  0  0  0  0  0  0  0  0  0  0
  -19.6044  -26.1463   22.8236 C   0  0  0  0  0  0  0  0  0  0  0  0
  -23.2141  -20.0742   22.9003 C   0  0  0  0  0  0  0  0  0  0  0  0
  -27.0753  -15.7935   24.7266 C   0  0  0  0  0  0  0  0  0  0  0  0
  -27.5364  -25.6835   18.6268 C   0  0  0  0  0  0  0  0  0  0  0  0
  -24.9212  -19.2983   24.4475 C   0  0  0  0  0  0  0  0  0  0  0  0
  -26.5602  -27.7160   19.2889 C   0  0  0  0  0  0  0  0  0  0  0  0
  -25.5361  -29.3342   21.3175 C   0  0  0  0  0  0  0  0  0  0  0  0
  -27.3739  -28.0948   20.3566 C   0  0  0  0  0  0  0  0  0  0  0  0
  -28.9929  -21.8603   19.7038 C   0  0  0  0  0  0  0  0  0  0  0  0
  -27.7088  -14.5121   22.9870 C   0  0  0  0  0  0  0  0  0  0  0  0
  -25.9726  -15.1053   24.2708 C   0  0  0  0  0  0  0  0  0  0  0  0
  -30.2063  -20.1963   20.4743 C   0  0  0  0  0  0  0  0  0  0  0  0
  -31.2341  -22.4485   20.8200 C   0  0  0  0  0  0  0  0  0  0  0  0
  -21.2425  -22.8412   22.6093 C   0  0  0  0  0  0  0  0  0  0  0  0
  -20.4376  -20.6696   20.3381 C   0  0  0  0  0  0  0  0  0  0  0  0
  -20.9315  -17.5769   18.9823 C   0  0  0  0  0  0  0  0  0  0  0  0
  -25.8118  -16.2606   20.7088 C   0  0  0  0  0  0  0  0  0  0  0  0
  -17.1618  -25.8739   22.1523 C   0  0  0  0  0  0  0  0  0  0  0  0
  -23.5002  -22.2500   21.6558 C   0  0  0  0  0  0  0  0  0  0  0  0
  -21.8859  -19.8398   22.2300 C   0  0  0  0  0  0  0  0  0  0  0  0
  -17.3997  -24.3681   22.2305 C   0  0  0  0  0  0  0  0  0  0  0  0
  -28.5412  -16.2533   18.3322 C   0  0  0  0  0  0  0  0  0  0  0  0
  -18.3206  -24.0330   23.3994 C   0  0  0  0  0  0  0  0  0  0  0  0
  -29.0806  -17.6767   18.4842 C   0  0  0  0  0  0  0  0  0  0  0  0
  -27.0197  -16.2240   18.4433 C   0  0  0  0  0  0  0  0  0  0  0  0
  -27.0195  -18.2473   19.8503 C   0  0  0  0  0  0  0  0  0  0  0  0
  -19.6951  -24.6900   23.2247 C   0  0  1  0  0  0  0  0  0  0  0  0
  -21.9878  -22.2302   21.4566 C   0  0  1  0  0  0  0  0  0  0  0  0
  -28.5541  -18.3412   19.7701 C   0  0  2  0  0  0  0  0  0  0  0  0
  -28.4307  -13.8086   21.9068 C   0  0  0  0  0  0  0  0  0  0  0  0
  -24.5745  -15.1201   24.7517 C   0  0  0  0  0  0  0  0  0  0  0  0
  -28.4673  -16.7294   26.6022 C   0  0  0  0  0  0  0  0  0  0  0  0
  -20.6863  -15.6810   17.3567 C   0  0  0  0  0  0  0  0  0  0  0  0
  -17.9411  -20.0604   21.9832 C   0  0  0  0  0  0  0  0  0  0  0  0
  -17.6654  -17.9552   20.6565 C   0  0  0  0  0  0  0  0  0  0  0  0
  -17.5620  -20.1701   19.5136 C   0  0  0  0  0  0  0  0  0  0  0  0
  -23.1090  -18.6132   17.2667 C   0  0  0  0  0  0  0  0  0  0  0  0
  -25.5070  -13.4508   22.4513 C   0  0  0  0  0  0  0  0  0  0  0  0
  -24.6440  -14.1957   21.4361 C   0  0  0  0  0  0  0  0  0  0  0  0
  -26.7886  -18.2077   25.4370 C   0  0  0  0  0  0  0  0  0  1  0  0
  -27.1148  -16.7767   25.8859 C   0  0  1  0  0  0  0  0  0  0  0  0
  -19.7883  -19.3067   20.3443 C   0  0  1  0  0  0  0  0  0  0  0  0
  -21.1220  -17.1257   17.5454 C   0  0  2  0  0  0  0  0  0  0  0  0
  -18.2633  -19.3782   20.6387 C   0  0  0  0  0  0  0  0  0  0  0  0
  -28.2782  -20.7673   19.4235 N   0  0  0  0  0  0  0  0  0  0  0  0
  -26.3696  -14.3293   23.2133 N   0  0  0  0  0  0  0  0  0  0  0  0
  -29.0423  -19.7717   19.9042 N   0  0  0  0  0  0  0  0  0  0  0  0
  -21.4592  -20.8766   21.2758 N   0  0  0  0  0  0  0  0  0  0  0  0
  -26.5849  -16.8549   19.6975 N   0  0  0  0  0  0  0  0  0  0  0  0
  -31.0907  -19.3266   21.0072 N   0  0  0  0  0  0  0  0  0  0  0  0
  -31.1474  -22.9516   22.1253 N   0  0  0  0  0  0  0  0  0  0  0  0
  -20.4912  -23.9500   22.2691 N   0  0  0  0  0  0  0  0  0  0  0  0
  -20.1217  -18.6898   19.0650 N   0  0  0  0  0  0  0  0  0  0  0  0
  -25.4355  -14.9421   20.4837 N   0  0  0  0  0  0  0  0  0  0  0  0
  -22.5550  -17.2396   17.1524 N   0  3  0  0  0  0  0  0  0  0  0  0
  -32.1944  -22.7950   20.0910 O   0  0  0  0  0  0  0  0  0  0  0  0
  -21.3405  -22.3428   23.7245 O   0  0  0  0  0  0  0  0  0  0  0  0
  -20.0574  -21.5168   19.5261 O   0  0  0  0  0  0  0  0  0  0  0  0
  -21.4463  -16.9976   19.9362 O   0  0  0  0  0  0  0  0  0  0  0  0
  -25.4853  -16.8593   21.7394 O   0  0  0  0  0  0  0  0  0  0  0  0
  -27.0673  -26.9134   18.2807 O   0  0  0  0  0  0  0  0  0  0  0  0
  -25.3744  -18.3636   25.3265 O   0  0  0  0  0  0  0  0  0  1  0  0
  -25.0447  -30.1124   22.2906 F   0  0  0  0  0  0  0  0  0  0  0  0
  -28.6487  -27.6855   20.4128 F   0  0  0  0  0  0  0  0  0  0  0  0
  1  2  1  0  0  0  0
  1  5  2  0  0  0  0
  2  6  2  0  0  0  0
  3  8  2  0  0  0  0
  3 16  1  0  0  0  0
  4  9  1  0  0  0  0
  4 16  2  0  0  0  0
  5 18  1  0  0  0  0
  6 20  1  0  0  0  0
  7 10  2  0  0  0  0
  7 19  1  0  0  0  0
  8 23  1  0  0  0  0
  9 23  2  0  0  0  0
 10 24  1  0  0  0  0
 11 12  2  0  0  0  0
 11 25  1  0  0  0  0
 12 26  1  0  0  0  0
 13 21  1  0  0  0  0
 13 24  2  0  0  0  0
 14 22  1  0  0  0  0
 14 29  2  0  0  0  0
 15 26  2  0  0  0  0
 15 27  1  0  0  0  0
 16 28  1  0  0  0  0
 17 28  1  0  0  0  0
 17 31  2  0  0  0  0
 17 32  1  0  0  0  0
 18 20  2  0  0  0  0
 18 37  1  0  0  0  0
 19 21  2  0  0  0  0
 19 38  1  0  0  0  0
 20 46  1  0  0  0  0
 21 39  1  0  0  0  0
 22 30  2  0  0  0  0
 22 60  1  0  0  0  0
 23 80  1  0  0  0  0
 24 81  1  0  0  0  0
 25 27  2  0  0  0  0
 25 80  1  0  0  0  0
 26 82  1  0  0  0  0
 27 83  1  0  0  0  0
 28 64  2  0  0  0  0
 29 49  1  0  0  0  0
 29 65  1  0  0  0  0
 30 50  1  0  0  0  0
 30 65  1  0  0  0  0
 31 66  1  0  0  0  0
 31 69  1  0  0  0  0
 32 70  1  0  0  0  0
 32 75  2  0  0  0  0
 33 47  1  0  0  0  0
 33 71  1  0  0  0  0
 33 76  2  0  0  0  0
 34 61  1  0  0  0  0
 34 67  1  0  0  0  0
 34 77  2  0  0  0  0
 35 62  1  0  0  0  0
 35 72  1  0  0  0  0
 35 78  2  0  0  0  0
 36 68  1  0  0  0  0
 36 73  1  0  0  0  0
 36 79  2  0  0  0  0
 37 40  1  0  0  0  0
 38 47  1  0  0  0  0
 39 67  1  0  0  0  0
 40 42  1  0  0  0  0
 41 43  1  0  0  0  0
 41 44  1  0  0  0  0
 42 46  1  0  0  0  0
 43 48  1  0  0  0  0
 44 68  1  0  0  0  0
 45 48  1  0  0  0  0
 45 68  1  0  0  0  0
 46 71  1  0  0  0  0
 47 67  1  0  0  0  0
 48 66  1  0  0  0  0
 51 60  1  0  0  0  0
 52 62  1  0  0  0  0
 53 63  1  0  0  0  0
 54 63  1  0  0  0  0
 55 63  1  0  0  0  0
 56 74  1  0  0  0  0
 57 58  1  0  0  0  0
 57 65  1  0  0  0  0
 58 73  1  0  0  0  0
 59 60  1  0  0  0  0
 59 81  1  0  0  0  0
 61 63  1  0  0  0  0
 61 72  1  0  0  0  0
 62 74  1  0  0  0  0
 64 66  1  0  0  0  0
M  CHG  1  74   1
M  ISO  4  36 100  59 101  73 100  81 101
M  END
> <Batch ID>
0101

> <Smiles>
CNC(C)C(=O)NC(C(=O)N1Cc2cc([101O:1][101CH2:1]C(C)c3cc(C)n(CC[100NH:0][100C:0](=O)N4CCCC(n5nc(-c6ccc(Oc7ccc(F)cc7F)cc6)c(C(N)=O)c5N)C4)c3C)ccc2CC1C(=O)NC1CCCc2ccccc21)C(C)(C)C

> <Shape>
0.173

> <Color>
0.058

> <Negative vol penalty>
0.000

$$$$

  -OEChem-04052319363D

 86 94  0     1  0  0  0  0  0999 V2000
  -29.5105  -11.2163   15.9649 C   0  0  0  0  0  0  0  0  0  0  0  0
  -28.8727  -12.4456   15.8319 C   0  0  0  0  0  0  0  0  0  0  0  0
  -25.5263  -29.1994   21.0907 C   0  0  0  0  0  0  0  0  0  0  0  0
  -25.0946  -27.7438   19.2113 C   0  0  0  0  0  0  0  0  0  0  0  0
  -29.7904  -10.7112   17.2339 C   0  0  0  0  0  0  0  0  0  0  0  0
  -28.5134  -13.1698   16.9680 C   0  0  0  0  0  0  0  0  0  0  0  0
  -28.4916  -19.2617   17.5961 C   0  0  0  0  0  0  0  0  0  0  0  0
  -19.4784  -21.8142   18.5922 C   0  0  0  0  0  0  0  0  0  0  0  0
  -26.8803  -28.8688   21.0358 C   0  0  0  0  0  0  0  0  0  0  0  0
  -26.4486  -27.4132   19.1564 C   0  0  0  0  0  0  0  0  0  0  0  0
  -27.4727  -20.2096   17.5127 C   0  0  0  0  0  0  0  0  0  0  0  0
  -20.7803  -21.5160   18.1902 C   0  0  0  0  0  0  0  0  0  0  0  0
  -29.7316  -25.9083   18.7481 C   0  0  0  0  0  0  0  0  0  0  0  0
  -30.0646  -24.5631   18.5890 C   0  0  0  0  0  0  0  0  0  0  0  0
  -27.2232  -20.1435   19.9112 C   0  0  0  0  0  0  0  0  0  0  0  0
  -28.9203  -24.0360   20.6506 C   0  0  0  0  0  0  0  0  0  0  0  0
  -24.6334  -28.6369   20.1785 C   0  0  0  0  0  0  0  0  0  0  0  0
  -22.5891  -30.0340   19.5649 C   0  0  0  0  0  0  0  0  0  0  0  0
  -29.4430  -11.4341   18.3860 C   0  0  0  0  0  0  0  0  0  0  0  0
  -28.8772  -18.7386   18.8387 C   0  0  0  0  0  0  0  0  0  0  0  0
  -28.7877  -12.6732   18.2537 C   0  0  0  0  0  0  0  0  0  0  0  0
  -28.2491  -19.1910   20.0079 C   0  0  0  0  0  0  0  0  0  0  0  0
  -19.2096  -22.0984   19.9311 C   0  0  0  0  0  0  0  0  0  0  0  0
  -21.5449  -21.7862   20.4661 C   0  0  0  0  0  0  0  0  0  0  0  0
  -20.2429  -22.0844   20.8681 C   0  0  0  0  0  0  0  0  0  0  0  0
  -27.3414  -27.9757   20.0687 C   0  0  0  0  0  0  0  0  0  0  0  0
  -26.8363  -20.6485   18.6701 C   0  0  0  0  0  0  0  0  0  0  0  0
  -21.8136  -21.5020   19.1272 C   0  0  0  0  0  0  0  0  0  0  0  0
  -28.9931  -26.3173   19.8585 C   0  0  0  0  0  0  0  0  0  0  0  0
  -29.6590  -23.6270   19.5402 C   0  0  0  0  0  0  0  0  0  0  0  0
  -28.5874  -25.3812   20.8097 C   0  0  0  0  0  0  0  0  0  0  0  0
  -23.2346  -28.9776   20.2351 C   0  0  0  0  0  0  0  0  0  0  0  0
  -21.2738  -29.9301   19.9464 C   0  0  0  0  0  0  0  0  0  0  0  0
  -23.1302  -31.0211   18.6767 C   0  0  0  0  0  0  0  0  0  0  0  0
  -28.8812  -15.8431   20.1500 C   0  0  0  0  0  0  0  0  0  0  0  0
  -30.4349  -17.3621   22.5585 C   0  0  0  0  0  0  0  0  0  0  0  0
  -31.0878  -20.2840   24.1965 C   0  0  0  0  0  0  0  0  0  0  0  0
  -17.9397  -25.3488   21.8820 C   0  0  0  0  0  0  0  0  0  0  0  0
  -29.7235  -10.8254   19.7371 C   0  0  0  0  0  0  0  0  0  0  0  0
  -29.9964  -17.7365   18.9142 C   0  0  0  0  0  0  0  0  0  0  0  0
  -28.6397  -18.6758   21.3682 C   0  0  0  0  0  0  0  0  0  0  0  0
  -29.6463  -11.8286   20.8851 C   0  0  0  0  0  0  0  0  0  0  0  0
  -18.5335  -28.4274   23.5691 C   0  0  0  0  0  0  0  0  0  0  0  0
  -28.3907  -12.6859   20.7613 C   0  0  0  0  0  0  0  0  0  0  0  0
  -19.7474  -29.0128   22.8454 C   0  0  0  0  0  0  0  0  0  0  0  0
  -18.6230  -26.9072   23.6823 C   0  0  0  0  0  0  0  0  0  0  0  0
  -20.0573  -26.7883   21.6817 C   0  0  0  0  0  0  0  0  0  0  0  0
  -28.4044  -13.5000   19.4619 C   0  0  1  0  0  0  0  0  0  0  0  0
  -29.9571  -16.8914   20.1837 C   0  0  1  0  0  0  0  0  0  0  0  0
  -19.9855  -28.3134   21.4936 C   0  0  2  0  0  0  0  0  0  0  0  0
  -22.6615  -21.7681   21.4621 C   0  0  0  0  0  0  0  0  0  0  0  0
  -19.3779  -21.9548   24.5219 C   0  0  0  0  0  0  0  0  0  0  0  0
  -32.3651  -21.2037   26.1510 C   0  0  0  0  0  0  0  0  0  0  0  0
  -28.3388  -16.2234   24.4610 C   0  0  0  0  0  0  0  0  0  0  0  0
  -29.0797  -17.8980   26.1683 C   0  0  0  0  0  0  0  0  0  0  0  0
  -30.6803  -16.1741   25.3382 C   0  0  0  0  0  0  0  0  0  0  0  0
  -32.7120  -22.0424   22.4561 C   0  0  0  0  0  0  0  0  0  0  0  0
  -17.8050  -22.4143   20.3314 C   0  0  0  0  0  0  0  0  0  0  0  0
  -19.6160  -21.3650   23.1735 C   0  0  0  0  0  0  0  0  0  0  0  0
  -17.3788  -23.8455   19.9887 C   0  0  0  0  0  0  0  0  0  0  0  0
  -25.0536  -21.5803   17.4014 C   0  0  0  0  0  0  0  0  0  1  0  0
  -23.6567  -22.0674   17.7347 C   0  0  0  0  0  0  0  0  0  0  0  0
  -30.0130  -18.0805   23.8175 C   0  0  1  0  0  0  0  0  0  0  0  0
  -32.3912  -20.9099   24.6591 C   0  0  2  0  0  0  0  0  0  0  0  0
  -29.5190  -17.1025   24.9206 C   0  0  0  0  0  0  0  0  0  0  0  0
  -22.3982  -28.2557   20.9857 N   0  0  0  0  0  0  0  0  0  0  0  0
  -21.2138  -28.8596   20.7894 N   0  0  0  0  0  0  0  0  0  0  0  0
  -29.7351  -17.6924   21.3893 N   0  0  0  0  0  0  0  0  0  0  0  0
  -18.8476  -26.3052   22.3658 N   0  0  0  0  0  0  0  0  0  0  0  0
  -20.1744  -30.6509   19.6398 N   0  0  0  0  0  0  0  0  0  0  0  0
  -24.5020  -30.9833   18.3918 N   0  0  0  0  0  0  0  0  0  0  0  0
  -19.9689  -22.3728   22.2253 N   0  0  0  0  0  0  0  0  0  0  0  0
  -29.2812  -14.6441   19.5915 N   0  0  0  0  0  0  0  0  0  0  0  0
  -31.1476  -18.9066   24.2157 N   0  0  0  0  0  0  0  0  0  0  0  0
  -18.2231  -24.8331   20.6233 N   0  0  0  0  0  0  0  0  0  0  0  0
  -32.6387  -22.1875   23.9328 N   0  3  0  0  0  0  0  0  0  0  0  0
  -22.4213  -31.9201   18.1643 O   0  0  0  0  0  0  0  0  0  0  0  0
  -27.7708  -16.1023   20.5989 O   0  0  0  0  0  0  0  0  0  0  0  0
  -31.3563  -16.5435   22.6092 O   0  0  0  0  0  0  0  0  0  0  0  0
  -30.1129  -20.9503   23.8559 O   0  0  0  0  0  0  0  0  0  0  0  0
  -16.9470  -24.9855   22.5220 O   0  0  0  0  0  0  0  0  0  0  0  0
  -28.6626  -27.6530   20.0146 O   0  0  0  0  0  0  0  0  0  0  0  0
  -25.8410  -21.5732   18.5915 O   0  0  0  0  0  0  0  0  0  1  0  0
  -23.0857  -21.2069   18.7129 O   0  0  0  0  0  0  0  0  0  0  0  0
  -29.9775  -22.3351   19.3865 F   0  0  0  0  0  0  0  0  0  0  0  0
  -27.8767  -25.7680   21.8779 F   0  0  0  0  0  0  0  0  0  0  0  0
  1  2  1  0  0  0  0
  1  5  2  0  0  0  0
  2  6  2  0  0  0  0
  3  9  2  0  0  0  0
  3 17  1  0  0  0  0
  4 10  1  0  0  0  0
  4 17  2  0  0  0  0
  5 19  1  0  0  0  0
  6 21  1  0  0  0  0
  7 11  2  0  0  0  0
  7 20  1  0  0  0  0
  8 12  1  0  0  0  0
  8 23  2  0  0  0  0
  9 26  1  0  0  0  0
 10 26  2  0  0  0  0
 11 27  1  0  0  0  0
 12 28  2  0  0  0  0
 13 14  2  0  0  0  0
 13 29  1  0  0  0  0
 14 30  1  0  0  0  0
 15 22  1  0  0  0  0
 15 27  2  0  0  0  0
 16 30  2  0  0  0  0
 16 31  1  0  0  0  0
 17 32  1  0  0  0  0
 18 32  1  0  0  0  0
 18 33  2  0  0  0  0
 18 34  1  0  0  0  0
 19 21  2  0  0  0  0
 19 39  1  0  0  0  0
 20 22  2  0  0  0  0
 20 40  1  0  0  0  0
 21 48  1  0  0  0  0
 22 41  1  0  0  0  0
 23 25  1  0  0  0  0
 23 58  1  0  0  0  0
 24 25  2  0  0  0  0
 24 28  1  0  0  0  0
 24 51  1  0  0  0  0
 25 72  1  0  0  0  0
 26 82  1  0  0  0  0
 27 83  1  0  0  0  0
 28 84  1  0  0  0  0
 29 31  2  0  0  0  0
 29 82  1  0  0  0  0
 30 85  1  0  0  0  0
 31 86  1  0  0  0  0
 32 66  2  0  0  0  0
 33 67  1  0  0  0  0
 33 70  1  0  0  0  0
 34 71  1  0  0  0  0
 34 77  2  0  0  0  0
 35 49  1  0  0  0  0
 35 73  1  0  0  0  0
 35 78  2  0  0  0  0
 36 63  1  0  0  0  0
 36 68  1  0  0  0  0
 36 79  2  0  0  0  0
 37 64  1  0  0  0  0
 37 74  1  0  0  0  0
 37 80  2  0  0  0  0
 38 69  1  0  0  0  0
 38 75  1  0  0  0  0
 38 81  2  0  0  0  0
 39 42  1  0  0  0  0
 40 49  1  0  0  0  0
 41 68  1  0  0  0  0
 42 44  1  0  0  0  0
 43 45  1  0  0  0  0
 43 46  1  0  0  0  0
 44 48  1  0  0  0  0
 45 50  1  0  0  0  0
 46 69  1  0  0  0  0
 47 50  1  0  0  0  0
 47 69  1  0  0  0  0
 48 73  1  0  0  0  0
 49 68  1  0  0  0  0
 50 67  1  0  0  0  0
 52 59  1  0  0  0  0
 53 64  1  0  0  0  0
 54 65  1  0  0  0  0
 55 65  1  0  0  0  0
 56 65  1  0  0  0  0
 57 76  1  0  0  0  0
 58 60  1  0  0  0  0
 59 72  1  0  0  0  0
 60 75  1  0  0  0  0
 61 62  1  0  0  0  0
 61 83  1  0  0  0  0
 62 84  1  0  0  0  0
 63 65  1  0  0  0  0
 63 74  1  0  0  0  0
 64 76  1  0  0  0  0
 66 67  1  0  0  0  0
M  CHG  1  76   1
M  ISO  4  38 100  61 101  75 100  83 101
M  END
> <Batch ID>
0101

> <Smiles>
CCNc1c(CC[100NH:0][100C:0](=O)N2CCCC(n3nc(-c4ccc(Oc5ccc(F)cc5F)cc4)c(C(N)=O)c3N)C2)ccc(OC[101CH2:1][101O:1]c2ccc3c(c2)CN(C(=O)C(NC(=O)C(C)NC)C(C)(C)C)C(C(=O)NC2CCCc4ccccc42)C3)c1C

> <Shape>
0.245

> <Color>
0.058

> <Negative vol penalty>
0.000

$$$$

  -OEChem-04052319363D

 80 87  0     1  0  0  0  0  0999 V2000
  -27.8546  -34.8555   23.6635 C   0  0  0  0  0  0  0  0  0  0  0  0
  -28.0851  -33.5162   23.3660 C   0  0  0  0  0  0  0  0  0  0  0  0
  -26.2510  -15.4290   21.1544 C   0  0  0  0  0  0  0  0  0  0  0  0
  -27.1968  -15.1136   18.9537 C   0  0  0  0  0  0  0  0  0  0  0  0
  -26.6075  -35.2579   24.1397 C   0  0  0  0  0  0  0  0  0  0  0  0
  -27.0690  -32.5783   23.5455 C   0  0  0  0  0  0  0  0  0  0  0  0
  -26.6673  -29.3776   19.6418 C   0  0  0  0  0  0  0  0  0  0  0  0
  -26.0527  -14.0529   21.2665 C   0  0  0  0  0  0  0  0  0  0  0  0
  -26.9986  -13.7374   19.0658 C   0  0  0  0  0  0  0  0  0  0  0  0
  -27.5992  -28.3432   19.5680 C   0  0  0  0  0  0  0  0  0  0  0  0
  -27.9126  -11.3171   21.9661 C   0  0  0  0  0  0  0  0  0  0  0  0
  -28.2745  -10.7057   23.1664 C   0  0  0  0  0  0  0  0  0  0  0  0
  -25.9765  -26.8229   20.5035 C   0  0  0  0  0  0  0  0  0  0  0  0
  -25.9935   -9.9745   23.4817 C   0  0  0  0  0  0  0  0  0  0  0  0
  -26.8230  -15.9594   19.9980 C   0  0  0  0  0  0  0  0  0  0  0  0
  -28.1683  -18.1101   20.2670 C   0  0  0  0  0  0  0  0  0  0  0  0
  -25.5725  -34.3260   24.3160 C   0  0  0  0  0  0  0  0  0  0  0  0
  -25.3845  -29.1446   20.1579 C   0  0  0  0  0  0  0  0  0  0  0  0
  -25.8073  -32.9684   24.0258 C   0  0  0  0  0  0  0  0  0  0  0  0
  -25.0294  -27.8555   20.5803 C   0  0  0  0  0  0  0  0  0  0  0  0
  -26.4265  -13.2071   20.2222 C   0  0  0  0  0  0  0  0  0  0  0  0
  -27.2548  -27.0663   20.0016 C   0  0  0  0  0  0  0  0  0  0  0  0
  -26.5910  -11.2573   21.5236 C   0  0  0  0  0  0  0  0  0  0  0  0
  -27.3150  -10.0343   23.9242 C   0  0  0  0  0  0  0  0  0  0  0  0
  -25.6315  -10.5860   22.2814 C   0  0  0  0  0  0  0  0  0  0  0  0
  -27.0275  -17.3809   19.8814 C   0  0  0  0  0  0  0  0  0  0  0  0
  -27.8670  -19.4121   19.9499 C   0  0  0  0  0  0  0  0  0  0  0  0
  -29.3911  -17.6515   20.8587 C   0  0  0  0  0  0  0  0  0  0  0  0
  -23.7324  -30.2422   22.6417 C   0  0  0  0  0  0  0  0  0  0  0  0
  -21.3332  -28.5082   21.3154 C   0  0  0  0  0  0  0  0  0  0  0  0
  -20.4042  -25.9122   19.3043 C   0  0  0  0  0  0  0  0  0  0  0  0
  -25.0765  -22.5015   15.9271 C   0  0  0  0  0  0  0  0  0  0  0  0
  -24.2560  -34.8010   24.8781 C   0  0  0  0  0  0  0  0  0  0  0  0
  -24.3821  -30.2650   20.2059 C   0  0  0  0  0  0  0  0  0  0  0  0
  -23.6587  -27.5485   21.1236 C   0  0  0  0  0  0  0  0  0  0  0  0
  -23.1162  -33.8040   24.6852 C   0  0  0  0  0  0  0  0  0  0  0  0
  -23.6850  -21.9258   19.1534 C   0  0  0  0  0  0  0  0  0  0  0  0
  -23.5652  -32.3984   25.0718 C   0  0  0  0  0  0  0  0  0  0  0  0
  -24.5111  -20.7629   19.7058 C   0  0  0  0  0  0  0  0  0  0  0  0
  -23.4480  -21.7862   17.6512 C   0  0  0  0  0  0  0  0  0  0  0  0
  -25.4959  -20.4386   17.3985 C   0  0  0  0  0  0  0  0  0  0  0  0
  -24.7225  -31.9252   24.1839 C   0  0  1  0  0  0  0  0  0  0  0  0
  -23.2729  -30.0310   21.2268 C   0  0  1  0  0  0  0  0  0  0  0  0
  -25.8086  -20.5639   18.8995 C   0  0  2  0  0  0  0  0  0  0  0  0
  -18.3728  -24.7166   18.4432 C   0  0  0  0  0  0  0  0  0  0  0  0
  -30.1892  -23.9599   19.6553 C   0  0  0  0  0  0  0  0  0  0  0  0
  -20.9935  -27.1412   24.0221 C   0  0  0  0  0  0  0  0  0  0  0  0
  -19.6627  -25.3571   22.8758 C   0  0  0  0  0  0  0  0  0  0  0  0
  -18.8508  -27.7158   22.8673 C   0  0  0  0  0  0  0  0  0  0  0  0
  -21.0705  -26.5609   16.4946 C   0  0  0  0  0  0  0  0  0  0  0  0
  -30.5578  -25.4791   14.8730 C   0  0  0  0  0  0  0  0  0  0  0  0
  -27.6542  -24.2531   14.7827 C   0  0  0  0  0  0  0  0  0  0  0  0
  -26.8081  -23.1004   14.2531 C   0  0  0  0  0  0  0  0  0  0  0  0
  -28.8798  -23.7666   15.5455 C   0  0  0  0  0  0  0  0  0  0  0  0
  -30.4514  -24.7007   17.2362 C   0  0  0  0  0  0  0  0  0  0  0  0
  -29.1304  -26.1224   18.8848 C   0  0  0  0  0  0  0  0  0  1  0  0
  -20.8440  -27.0859   21.4452 C   0  0  1  0  0  0  0  0  0  0  0  0
  -19.3848  -25.8215   18.1830 C   0  0  2  0  0  0  0  0  0  0  0  0
  -29.5515  -24.7050   18.4773 C   0  0  2  0  0  0  0  0  0  0  0  0
  -20.1143  -26.8309   22.7942 C   0  0  0  0  0  0  0  0  0  0  0  0
  -26.0726  -18.1554   19.3595 N   0  0  0  0  0  0  0  0  0  0  0  0
  -26.6127  -19.3847   19.4149 N   0  0  0  0  0  0  0  0  0  0  0  0
  -22.7157  -28.6787   21.1562 N   0  0  0  0  0  0  0  0  0  0  0  0
  -24.7180  -21.6020   16.9447 N   0  0  0  0  0  0  0  0  0  0  0  0
  -28.5552  -20.5662   20.0795 N   0  0  0  0  0  0  0  0  0  0  0  0
  -29.5354  -16.2817   21.1179 N   0  0  0  0  0  0  0  0  0  0  0  0
  -24.2283  -31.5081   22.8892 N   0  0  0  0  0  0  0  0  0  0  0  0
  -20.0264  -26.8262   20.2651 N   0  0  0  0  0  0  0  0  0  0  0  0
  -26.2991  -22.2587   15.3129 N   0  0  0  0  0  0  0  0  0  0  0  0
  -20.0644  -25.5406   16.8867 N   0  3  0  0  0  0  0  0  0  0  0  0
  -29.6879  -24.9609   15.9926 N   0  3  1  0  0  0  0  0  0  0  0  0
  -30.3215  -18.4354   21.1642 O   0  0  0  0  0  0  0  0  0  0  0  0
  -23.6423  -29.3252   23.4495 O   0  0  0  0  0  0  0  0  0  0  0  0
  -20.5179  -29.4333   21.3468 O   0  0  0  0  0  0  0  0  0  0  0  0
  -21.4308  -25.2369   19.3274 O   0  0  0  0  0  0  0  0  0  0  0  0
  -24.3627  -23.4537   15.5945 O   0  0  0  0  0  0  0  0  0  0  0  0
  -26.2335  -11.8642   20.3313 O   0  0  0  0  0  0  0  0  0  0  0  0
  -28.1626  -26.0550   19.9314 O   0  0  0  0  0  0  0  0  0  1  0  0
  -27.6630   -9.4459   25.0760 F   0  0  0  0  0  0  0  0  0  0  0  0
  -24.3607  -10.5241   21.8608 F   0  0  0  0  0  0  0  0  0  0  0  0
  1  2  1  0  0  0  0
  1  5  2  0  0  0  0
  2  6  2  0  0  0  0
  3  8  2  0  0  0  0
  3 15  1  0  0  0  0
  4  9  1  0  0  0  0
  4 15  2  0  0  0  0
  5 17  1  0  0  0  0
  6 19  1  0  0  0  0
  7 10  2  0  0  0  0
  7 18  1  0  0  0  0
  8 21  1  0  0  0  0
  9 21  2  0  0  0  0
 10 22  1  0  0  0  0
 11 12  2  0  0  0  0
 11 23  1  0  0  0  0
 12 24  1  0  0  0  0
 13 20  1  0  0  0  0
 13 22  2  0  0  0  0
 14 24  2  0  0  0  0
 14 25  1  0  0  0  0
 15 26  1  0  0  0  0
 16 26  1  0  0  0  0
 16 27  2  0  0  0  0
 16 28  1  0  0  0  0
 17 19  2  0  0  0  0
 17 33  1  0  0  0  0
 18 20  2  0  0  0  0
 18 34  1  0  0  0  0
 19 42  1  0  0  0  0
 20 35  1  0  0  0  0
 21 77  1  0  0  0  0
 22 78  1  0  0  0  0
 23 25  2  0  0  0  0
 23 77  1  0  0  0  0
 24 79  1  0  0  0  0
 25 80  1  0  0  0  0
 26 61  2  0  0  0  0
 27 62  1  0  0  0  0
 27 65  1  0  0  0  0
 28 66  1  0  0  0  0
 28 72  2  0  0  0  0
 29 43  1  0  0  0  0
 29 67  1  0  0  0  0
 29 73  2  0  0  0  0
 30 57  1  0  0  0  0
 30 63  1  0  0  0  0
 30 74  2  0  0  0  0
 31 58  1  0  0  0  0
 31 68  1  0  0  0  0
 31 75  2  0  0  0  0
 32 64  1  0  0  0  0
 32 69  1  0  0  0  0
 32 76  2  0  0  0  0
 33 36  1  0  0  0  0
 34 43  1  0  0  0  0
 35 63  1  0  0  0  0
 36 38  1  0  0  0  0
 37 39  1  0  0  0  0
 37 40  1  0  0  0  0
 38 42  1  0  0  0  0
 39 44  1  0  0  0  0
 40 64  1  0  0  0  0
 41 44  1  0  0  0  0
 41 64  1  0  0  0  0
 42 67  1  0  0  0  0
 43 63  1  0  0  0  0
 44 62  1  0  0  0  0
 45 58  1  0  0  0  0
 46 59  1  0  0  0  0
 47 60  1  0  0  0  0
 48 60  1  0  0  0  0
 49 60  1  0  0  0  0
 50 70  1  0  0  0  0
 51 71  1  0  0  0  0
 52 53  1  0  0  0  0
 52 54  1  0  0  0  0
 53 69  1  0  0  0  0
 54 71  1  0  0  0  0
 55 59  1  0  0  0  0
 55 71  1  0  0  0  0
 56 59  1  0  0  0  0
 56 78  1  0  0  0  0
 57 60  1  0  0  0  0
 57 68  1  0  0  0  0
 58 70  1  0  0  0  0
 61 62  1  0  0  0  0
M  CHG  2  70   1  71   1
M  ISO  4  32 100  56 101  69 100  78 101
M  END
> <Batch ID>
0101

> <Smiles>
CNC(C)C(=O)NC(C(=O)N1Cc2cc([101O:1][101CH2:1]C(C)CN(C)CCC[100NH:0][100C:0](=O)N3CCCC(n4nc(-c5ccc(Oc6ccc(F)cc6F)cc5)c(C(N)=O)c4N)C3)ccc2CC1C(=O)NC1CCCc2ccccc21)C(C)(C)C

> <Shape>
0.264

> <Color>
0.074

> <Negative vol penalty>
0.000

$$$$

  -OEChem-04052319363D

 86 94  0     1  0  0  0  0  0999 V2000
  -25.3053  -24.0017   12.1400 C   0  0  0  0  0  0  0  0  0  0  0  0
  -16.6468  -24.8586   22.9534 C   0  0  0  0  0  0  0  0  0  0  0  0
  -17.2636  -24.5129   21.7552 C   0  0  0  0  0  0  0  0  0  0  0  0
  -25.2757  -14.2798   22.5607 C   0  0  0  0  0  0  0  0  0  0  0  0
  -25.4870  -13.5324   20.2729 C   0  0  0  0  0  0  0  0  0  0  0  0
  -17.0878  -25.9721   23.6672 C   0  0  0  0  0  0  0  0  0  0  0  0
  -18.3211  -25.2813   21.2697 C   0  0  0  0  0  0  0  0  0  0  0  0
  -23.2096  -23.2772   18.1726 C   0  0  0  0  0  0  0  0  0  0  0  0
  -24.2478  -13.3597   22.7664 C   0  0  0  0  0  0  0  0  0  0  0  0
  -24.4590  -12.6123   20.4786 C   0  0  0  0  0  0  0  0  0  0  0  0
  -23.5109  -23.2491   16.8117 C   0  0  0  0  0  0  0  0  0  0  0  0
  -24.0882   -9.5726   21.9081 C   0  0  0  0  0  0  0  0  0  0  0  0
  -24.2743   -8.2769   21.4263 C   0  0  0  0  0  0  0  0  0  0  0  0
  -24.7334  -25.3155   17.0460 C   0  0  0  0  0  0  0  0  0  0  0  0
  -27.7020  -24.5710   13.8055 C   0  0  0  0  0  0  0  0  0  0  0  0
  -22.3229   -8.5186   20.0225 C   0  0  0  0  0  0  0  0  0  0  0  0
  -25.8953  -14.3662   21.3139 C   0  0  0  0  0  0  0  0  0  0  0  0
  -28.3356  -15.1094   21.2955 C   0  0  0  0  0  0  0  0  0  0  0  0
  -18.1575  -26.7488   23.1951 C   0  0  0  0  0  0  0  0  0  0  0  0
  -23.6594  -24.3320   18.9796 C   0  0  0  0  0  0  0  0  0  0  0  0
  -18.7759  -26.4070   21.9772 C   0  0  0  0  0  0  0  0  0  0  0  0
  -24.4386  -25.3533   18.4174 C   0  0  0  0  0  0  0  0  0  0  0  0
  -27.1072  -23.2924   13.6692 C   0  0  0  0  0  0  0  0  0  0  0  0
  -23.8394  -12.5259   21.7254 C   0  0  0  0  0  0  0  0  0  0  0  0
  -24.2705  -24.2699   16.2476 C   0  0  0  0  0  0  0  0  0  0  0  0
  -23.0194  -10.3413   21.4471 C   0  0  0  0  0  0  0  0  0  0  0  0
  -23.3917   -7.7499   20.4835 C   0  0  0  0  0  0  0  0  0  0  0  0
  -22.1368   -9.8144   20.5043 C   0  0  0  0  0  0  0  0  0  0  0  0
  -26.9569  -15.3168   21.1007 C   0  0  0  0  0  0  0  0  0  0  0  0
  -28.9746  -24.3822   14.2977 C   0  0  0  0  0  0  0  0  0  0  0  0
  -28.0343  -22.3612   14.0823 C   0  0  0  0  0  0  0  0  0  0  0  0
  -28.9144  -16.3080   20.9565 C   0  0  0  0  0  0  0  0  0  0  0  0
  -29.0309  -13.9381   21.7429 C   0  0  0  0  0  0  0  0  0  0  0  0
  -22.2460  -26.5850   20.7203 C   0  0  0  0  0  0  0  0  0  0  0  0
  -25.2888  -27.2407   21.6334 C   0  0  0  0  0  0  0  0  0  0  0  0
  -28.6241  -27.0763   20.9294 C   0  0  0  0  0  0  0  0  0  0  0  0
  -29.4221  -20.5446   17.5301 C   0  0  0  0  0  0  0  0  0  0  0  0
  -18.5681  -27.9710   23.9776 C   0  0  0  0  0  0  0  0  0  0  0  0
  -23.3484  -24.3337   20.4513 C   0  0  0  0  0  0  0  0  0  0  0  0
  -24.9627  -26.4976   19.2445 C   0  0  0  0  0  0  0  0  0  0  0  0
  -19.9394  -28.5141   23.5838 C   0  0  0  0  0  0  0  0  0  0  0  0
  -26.8362  -20.8295   20.0460 C   0  0  0  0  0  0  0  0  0  0  0  0
  -20.0672  -28.5912   22.0657 C   0  0  0  0  0  0  0  0  0  0  0  0
  -26.7539  -19.3916   20.5616 C   0  0  0  0  0  0  0  0  0  0  0  0
  -27.0833  -20.8636   18.5407 C   0  0  0  0  0  0  0  0  0  0  0  0
  -28.2098  -18.6728   18.6114 C   0  0  0  0  0  0  0  0  0  0  0  0
  -19.9423  -27.2011   21.4303 C   0  0  1  0  0  0  0  0  0  0  0  0
  -23.4242  -25.7233   21.0764 C   0  0  1  0  0  0  0  0  0  0  0  0
  -27.9836  -18.5705   20.1308 C   0  0  2  0  0  0  0  0  0  0  0  0
  -27.9400  -20.8872   14.1479 C   0  0  0  0  0  0  0  0  0  0  0  0
  -29.5988  -26.3484   15.7462 C   0  0  0  0  0  0  0  0  0  0  0  0
  -30.4854  -26.1853   13.3919 C   0  0  0  0  0  0  0  0  0  0  0  0
  -30.8658  -27.7310   21.8478 C   0  0  0  0  0  0  0  0  0  0  0  0
  -24.7822  -30.1325   20.8019 C   0  0  0  0  0  0  0  0  0  0  0  0
  -27.2582  -30.5026   20.8355 C   0  0  0  0  0  0  0  0  0  0  0  0
  -26.0650  -29.8690   22.9326 C   0  0  0  0  0  0  0  0  0  0  0  0
  -29.5186  -24.2587   21.0702 C   0  0  0  0  0  0  0  0  0  0  0  0
  -30.3771  -22.4191   14.9614 C   0  0  0  0  0  0  0  0  0  0  0  0
  -30.5115  -22.5108   16.4792 C   0  0  0  0  0  0  0  0  0  0  0  0
  -24.6814  -22.9633   14.3033 C   0  0  0  0  0  0  0  0  0  1  0  0
  -25.7062  -23.0096   13.1601 C   0  0  1  0  0  0  0  0  0  0  0  0
  -30.0204  -25.3738   14.6228 C   0  0  0  0  0  0  0  0  0  0  0  0
  -26.3895  -28.1370   21.1196 C   0  0  1  0  0  0  0  0  0  0  0  0
  -29.8105  -26.6388   21.7694 C   0  0  2  0  0  0  0  0  0  0  0  0
  -26.1124  -29.6399   21.4062 C   0  0  0  0  0  0  0  0  0  0  0  0
  -24.9890  -24.7785   11.3379 N   0  0  0  0  0  0  0  0  0  0  0  0
  -26.6766  -16.5502   20.6714 N   0  0  0  0  0  0  0  0  0  0  0  0
  -29.1655  -23.0351   14.4624 N   0  0  0  0  0  0  0  0  0  0  0  0
  -27.8872  -17.1286   20.5937 N   0  0  0  0  0  0  0  0  0  0  0  0
  -24.6265  -26.4577   20.6773 N   0  0  0  0  0  0  0  0  0  0  0  0
  -28.2782  -20.0788   18.1993 N   0  0  0  0  0  0  0  0  0  0  0  0
  -30.1967  -16.7295   20.9365 N   0  0  0  0  0  0  0  0  0  0  0  0
  -28.2829  -12.7930   22.0487 N   0  0  0  0  0  0  0  0  0  0  0  0
  -21.1763  -26.4614   21.5863 N   0  0  0  0  0  0  0  0  0  0  0  0
  -27.6294  -27.6363   21.7030 N   0  0  0  0  0  0  0  0  0  0  0  0
  -29.4042  -21.8860   17.1682 N   0  0  0  0  0  0  0  0  0  0  0  0
  -30.4379  -25.4201   21.1845 N   0  3  0  0  0  0  0  0  0  0  0  0
  -30.2772  -13.9129   21.8835 O   0  0  0  0  0  0  0  0  0  0  0  0
  -22.3036  -27.3096   19.7337 O   0  0  0  0  0  0  0  0  0  0  0  0
  -25.0310  -27.2303   22.8397 O   0  0  0  0  0  0  0  0  0  0  0  0
  -28.5853  -26.9388   19.7087 O   0  0  0  0  0  0  0  0  0  0  0  0
  -30.3907  -19.8197   17.2783 O   0  0  0  0  0  0  0  0  0  0  0  0
  -22.8365  -11.6278   21.9258 O   0  0  0  0  0  0  0  0  0  0  0  0
  -24.5656  -24.2453   14.9193 O   0  0  0  0  0  0  0  0  0  1  0  0
  -23.5714   -6.5062   20.0198 F   0  0  0  0  0  0  0  0  0  0  0  0
  -21.1089  -10.5485   20.0568 F   0  0  0  0  0  0  0  0  0  0  0  0
  1 61  1  0  0  0  0
  1 66  3  0  0  0  0
  2  3  1  0  0  0  0
  2  6  2  0  0  0  0
  3  7  2  0  0  0  0
  4  9  2  0  0  0  0
  4 17  1  0  0  0  0
  5 10  1  0  0  0  0
  5 17  2  0  0  0  0
  6 19  1  0  0  0  0
  7 21  1  0  0  0  0
  8 11  2  0  0  0  0
  8 20  1  0  0  0  0
  9 24  1  0  0  0  0
 10 24  2  0  0  0  0
 11 25  1  0  0  0  0
 12 13  2  0  0  0  0
 12 26  1  0  0  0  0
 13 27  1  0  0  0  0
 14 22  1  0  0  0  0
 14 25  2  0  0  0  0
 15 23  1  0  0  0  0
 15 30  2  0  0  0  0
 16 27  2  0  0  0  0
 16 28  1  0  0  0  0
 17 29  1  0  0  0  0
 18 29  1  0  0  0  0
 18 32  2  0  0  0  0
 18 33  1  0  0  0  0
 19 21  2  0  0  0  0
 19 38  1  0  0  0  0
 20 22  2  0  0  0  0
 20 39  1  0  0  0  0
 21 47  1  0  0  0  0
 22 40  1  0  0  0  0
 23 31  2  0  0  0  0
 23 61  1  0  0  0  0
 24 83  1  0  0  0  0
 25 84  1  0  0  0  0
 26 28  2  0  0  0  0
 26 83  1  0  0  0  0
 27 85  1  0  0  0  0
 28 86  1  0  0  0  0
 29 67  2  0  0  0  0
 30 62  1  0  0  0  0
 30 68  1  0  0  0  0
 31 50  1  0  0  0  0
 31 68  1  0  0  0  0
 32 69  1  0  0  0  0
 32 72  1  0  0  0  0
 33 73  1  0  0  0  0
 33 78  2  0  0  0  0
 34 48  1  0  0  0  0
 34 74  1  0  0  0  0
 34 79  2  0  0  0  0
 35 63  1  0  0  0  0
 35 70  1  0  0  0  0
 35 80  2  0  0  0  0
 36 64  1  0  0  0  0
 36 75  1  0  0  0  0
 36 81  2  0  0  0  0
 37 71  1  0  0  0  0
 37 76  1  0  0  0  0
 37 82  2  0  0  0  0
 38 41  1  0  0  0  0
 39 48  1  0  0  0  0
 40 70  1  0  0  0  0
 41 43  1  0  0  0  0
 42 44  1  0  0  0  0
 42 45  1  0  0  0  0
 43 47  1  0  0  0  0
 44 49  1  0  0  0  0
 45 71  1  0  0  0  0
 46 49  1  0  0  0  0
 46 71  1  0  0  0  0
 47 74  1  0  0  0  0
 48 70  1  0  0  0  0
 49 69  1  0  0  0  0
 51 62  1  0  0  0  0
 52 62  1  0  0  0  0
 53 64  1  0  0  0  0
 54 65  1  0  0  0  0
 55 65  1  0  0  0  0
 56 65  1  0  0  0  0
 57 77  1  0  0  0  0
 58 59  1  0  0  0  0
 58 68  1  0  0  0  0
 59 76  1  0  0  0  0
 60 61  1  0  0  0  0
 60 84  1  0  0  0  0
 63 65  1  0  0  0  0
 63 75  1  0  0  0  0
 64 77  1  0  0  0  0
 67 69  1  0  0  0  0
M  CHG  1  77   1
M  ISO  4  37 100  60 101  76 100  84 101
M  END
> <Batch ID>
0101

> <Smiles>
CNC(C)C(=O)NC(C(=O)N1Cc2cc([101O:1][101CH2:1]C(C#N)c3cc(C(C)C)n(CC[100NH:0][100C:0](=O)N4CCCC(n5nc(-c6ccc(Oc7ccc(F)cc7F)cc6)c(C(N)=O)c5N)C4)c3C)ccc2CC1C(=O)NC1CCCc2ccccc21)C(C)(C)C

> <Shape>
0.230

> <Color>
0.059

> <Negative vol penalty>
0.000

$$$$

  -OEChem-04052319363D

 85 93  0     1  0  0  0  0  0999 V2000
  -27.1096  -33.3751   19.9196 C   0  0  0  0  0  0  0  0  0  0  0  0
  -26.8318  -32.0664   19.5380 C   0  0  0  0  0  0  0  0  0  0  0  0
  -26.5869  -12.5542   21.8370 C   0  0  0  0  0  0  0  0  0  0  0  0
  -25.7771  -14.1051   20.1709 C   0  0  0  0  0  0  0  0  0  0  0  0
  -26.8097  -33.8015   21.2128 C   0  0  0  0  0  0  0  0  0  0  0  0
  -26.2549  -31.1830   20.4497 C   0  0  0  0  0  0  0  0  0  0  0  0
  -22.2398  -26.7251   19.2201 C   0  0  0  0  0  0  0  0  0  0  0  0
  -25.3393  -11.9312   21.8635 C   0  0  0  0  0  0  0  0  0  0  0  0
  -24.5294  -13.4820   20.1973 C   0  0  0  0  0  0  0  0  0  0  0  0
  -22.3908  -25.3515   19.0354 C   0  0  0  0  0  0  0  0  0  0  0  0
  -23.6243   -9.7088   19.9786 C   0  0  0  0  0  0  0  0  0  0  0  0
  -23.5955   -8.3144   19.9588 C   0  0  0  0  0  0  0  0  0  0  0  0
  -21.8150  -24.9832   21.3489 C   0  0  0  0  0  0  0  0  0  0  0  0
  -22.4466   -8.3079   22.0842 C   0  0  0  0  0  0  0  0  0  0  0  0
  -26.0622  -22.2166   20.3369 C   0  0  0  0  0  0  0  0  0  0  0  0
  -26.8058  -13.6413   20.9907 C   0  0  0  0  0  0  0  0  0  0  0  0
  -29.1869  -13.9666   20.1349 C   0  0  0  0  0  0  0  0  0  0  0  0
  -26.2200  -32.9256   22.1378 C   0  0  0  0  0  0  0  0  0  0  0  0
  -21.8853  -27.2397   20.4755 C   0  0  0  0  0  0  0  0  0  0  0  0
  -25.9481  -31.5977   21.7568 C   0  0  0  0  0  0  0  0  0  0  0  0
  -21.6577  -26.3635   21.5463 C   0  0  0  0  0  0  0  0  0  0  0  0
  -26.7263  -22.1403   21.5413 C   0  0  0  0  0  0  0  0  0  0  0  0
  -25.9262  -21.3659   22.4172 C   0  0  0  0  0  0  0  0  0  0  0  0
  -24.3105  -12.3950   21.0437 C   0  0  0  0  0  0  0  0  0  0  0  0
  -22.1812  -24.4805   20.1006 C   0  0  0  0  0  0  0  0  0  0  0  0
  -23.0643  -10.4028   21.0512 C   0  0  0  0  0  0  0  0  0  0  0  0
  -23.0067   -7.6139   21.0115 C   0  0  0  0  0  0  0  0  0  0  0  0
  -22.4755   -9.7023   22.1040 C   0  0  0  0  0  0  0  0  0  0  0  0
  -28.0943  -14.2857   20.9633 C   0  0  0  0  0  0  0  0  0  0  0  0
  -24.7977  -20.9924   21.7214 C   0  0  0  0  0  0  0  0  0  0  0  0
  -30.1633  -14.8634   20.4939 C   0  0  0  0  0  0  0  0  0  0  0  0
  -29.3083  -12.9505   19.1307 C   0  0  0  0  0  0  0  0  0  0  0  0
  -23.2660  -29.1903   22.5714 C   0  0  0  0  0  0  0  0  0  0  0  0
  -20.4211  -28.9216   24.1066 C   0  0  0  0  0  0  0  0  0  0  0  0
  -17.5857  -27.1035   24.6558 C   0  0  0  0  0  0  0  0  0  0  0  0
  -29.9842  -20.3121   22.9701 C   0  0  0  0  0  0  0  0  0  0  0  0
  -25.9574  -33.4185   23.5388 C   0  0  0  0  0  0  0  0  0  0  0  0
  -21.7004  -28.7220   20.6516 C   0  0  0  0  0  0  0  0  0  0  0  0
  -21.2558  -26.8640   22.9088 C   0  0  0  0  0  0  0  0  0  0  0  0
  -25.0027  -32.5274   24.3291 C   0  0  0  0  0  0  0  0  0  0  0  0
  -31.6874  -17.4468   24.2214 C   0  0  0  0  0  0  0  0  0  0  0  0
  -25.3908  -31.0603   24.1747 C   0  0  0  0  0  0  0  0  0  0  0  0
  -31.0583  -16.2829   23.4536 C   0  0  0  0  0  0  0  0  0  0  0  0
  -30.6597  -18.5275   24.5498 C   0  0  0  0  0  0  0  0  0  0  0  0
  -29.2715  -17.8691   22.6227 C   0  0  0  0  0  0  0  0  0  0  0  0
  -25.2999  -30.6168   22.7096 C   0  0  1  0  0  0  0  0  0  0  0  0
  -21.8386  -29.1732   22.1024 C   0  0  1  0  0  0  0  0  0  0  0  0
  -30.2806  -16.7801   22.2201 C   0  0  2  0  0  0  0  0  0  0  0  0
  -26.2417  -21.0210   23.8189 C   0  0  0  0  0  0  0  0  0  0  0  0
  -23.6375  -20.1824   22.1495 C   0  0  0  0  0  0  0  0  0  0  0  0
  -25.4337  -18.5164   17.1612 C   0  0  0  0  0  0  0  0  0  0  0  0
  -15.4619  -27.1217   25.9924 C   0  0  0  0  0  0  0  0  0  0  0  0
  -21.9841  -28.1049   26.5966 C   0  0  0  0  0  0  0  0  0  0  0  0
  -19.8464  -27.2369   27.5687 C   0  0  0  0  0  0  0  0  0  0  0  0
  -20.0744  -29.6613   27.0274 C   0  0  0  0  0  0  0  0  0  0  0  0
  -15.9129  -27.1336   22.2145 C   0  0  0  0  0  0  0  0  0  0  0  0
  -28.0317  -22.7571   21.8509 C   0  0  0  0  0  0  0  0  0  0  0  0
  -24.9671  -19.2281   18.4220 C   0  0  0  0  0  0  0  0  0  0  0  0
  -24.4366  -20.6311   18.1071 C   0  0  0  0  0  0  0  0  0  0  0  0
  -29.2406  -21.9841   21.2936 C   0  0  0  0  0  0  0  0  0  0  0  0
  -23.2727  -22.7139   18.9413 C   0  0  0  0  0  0  0  0  0  1  0  0
  -19.8514  -27.9869   25.1462 C   0  0  1  0  0  0  0  0  0  0  0  0
  -16.1212  -27.5028   24.6760 C   0  0  2  0  0  0  0  0  0  0  0  0
  -23.8635  -21.3528   19.3464 C   0  0  2  0  0  0  0  0  0  0  0  0
  -20.4485  -28.2379   26.5597 C   0  0  0  0  0  0  0  0  0  0  0  0
  -28.3519  -15.3054   21.7866 N   0  0  0  0  0  0  0  0  0  0  0  0
  -24.8913  -21.5149   20.4579 N   0  0  0  0  0  0  0  0  0  0  0  0
  -29.6176  -15.6348   21.4774 N   0  0  0  0  0  0  0  0  0  0  0  0
  -21.0937  -28.3220   23.0324 N   0  0  0  0  0  0  0  0  0  0  0  0
  -29.9585  -18.9565   23.3372 N   0  0  0  0  0  0  0  0  0  0  0  0
  -31.4269  -15.0594   20.0611 N   0  0  0  0  0  0  0  0  0  0  0  0
  -28.2090  -12.1155   18.8888 N   0  0  0  0  0  0  0  0  0  0  0  0
  -23.9211  -30.3841   22.3366 N   0  0  0  0  0  0  0  0  0  0  0  0
  -18.4015  -28.1328   25.0755 N   0  0  0  0  0  0  0  0  0  0  0  0
  -29.2998  -20.6325   21.8040 N   0  0  0  0  0  0  0  0  0  0  0  0
  -15.3852  -26.8287   23.5693 N   0  3  0  0  0  0  0  0  0  0  0  0
  -30.3660  -12.7773   18.4790 O   0  0  0  0  0  0  0  0  0  0  0  0
  -23.7376  -28.1946   23.1080 O   0  0  0  0  0  0  0  0  0  0  0  0
  -20.2686  -30.1385   24.2390 O   0  0  0  0  0  0  0  0  0  0  0  0
  -17.9674  -25.9887   24.3064 O   0  0  0  0  0  0  0  0  0  0  0  0
  -30.5779  -21.1721   23.6295 O   0  0  0  0  0  0  0  0  0  0  0  0
  -23.0930  -11.7871   21.0691 O   0  0  0  0  0  0  0  0  0  0  0  0
  -22.3286  -23.1393   19.9232 O   0  0  0  0  0  0  0  0  0  1  0  0
  -22.9777   -6.2749   20.9916 F   0  0  0  0  0  0  0  0  0  0  0  0
  -21.9348  -10.3635   23.1366 F   0  0  0  0  0  0  0  0  0  0  0  0
  1  2  1  0  0  0  0
  1  5  2  0  0  0  0
  2  6  2  0  0  0  0
  3  8  2  0  0  0  0
  3 16  1  0  0  0  0
  4  9  1  0  0  0  0
  4 16  2  0  0  0  0
  5 18  1  0  0  0  0
  6 20  1  0  0  0  0
  7 10  2  0  0  0  0
  7 19  1  0  0  0  0
  8 24  1  0  0  0  0
  9 24  2  0  0  0  0
 10 25  1  0  0  0  0
 11 12  2  0  0  0  0
 11 26  1  0  0  0  0
 12 27  1  0  0  0  0
 13 21  1  0  0  0  0
 13 25  2  0  0  0  0
 14 27  2  0  0  0  0
 14 28  1  0  0  0  0
 15 22  2  0  0  0  0
 15 67  1  0  0  0  0
 16 29  1  0  0  0  0
 17 29  1  0  0  0  0
 17 31  2  0  0  0  0
 17 32  1  0  0  0  0
 18 20  2  0  0  0  0
 18 37  1  0  0  0  0
 19 21  2  0  0  0  0
 19 38  1  0  0  0  0
 20 46  1  0  0  0  0
 21 39  1  0  0  0  0
 22 23  1  0  0  0  0
 22 57  1  0  0  0  0
 23 30  2  0  0  0  0
 23 49  1  0  0  0  0
 24 82  1  0  0  0  0
 25 83  1  0  0  0  0
 26 28  2  0  0  0  0
 26 82  1  0  0  0  0
 27 84  1  0  0  0  0
 28 85  1  0  0  0  0
 29 66  2  0  0  0  0
 30 50  1  0  0  0  0
 30 67  1  0  0  0  0
 31 68  1  0  0  0  0
 31 71  1  0  0  0  0
 32 72  1  0  0  0  0
 32 77  2  0  0  0  0
 33 47  1  0  0  0  0
 33 73  1  0  0  0  0
 33 78  2  0  0  0  0
 34 62  1  0  0  0  0
 34 69  1  0  0  0  0
 34 79  2  0  0  0  0
 35 63  1  0  0  0  0
 35 74  1  0  0  0  0
 35 80  2  0  0  0  0
 36 70  1  0  0  0  0
 36 75  1  0  0  0  0
 36 81  2  0  0  0  0
 37 40  1  0  0  0  0
 38 47  1  0  0  0  0
 39 69  1  0  0  0  0
 40 42  1  0  0  0  0
 41 43  1  0  0  0  0
 41 44  1  0  0  0  0
 42 46  1  0  0  0  0
 43 48  1  0  0  0  0
 44 70  1  0  0  0  0
 45 48  1  0  0  0  0
 45 70  1  0  0  0  0
 46 73  1  0  0  0  0
 47 69  1  0  0  0  0
 48 68  1  0  0  0  0
 51 58  1  0  0  0  0
 52 63  1  0  0  0  0
 53 65  1  0  0  0  0
 54 65  1  0  0  0  0
 55 65  1  0  0  0  0
 56 76  1  0  0  0  0
 57 60  1  0  0  0  0
 58 59  1  0  0  0  0
 59 64  1  0  0  0  0
 60 75  1  0  0  0  0
 61 64  1  0  0  0  0
 61 83  1  0  0  0  0
 62 65  1  0  0  0  0
 62 74  1  0  0  0  0
 63 76  1  0  0  0  0
 64 67  1  0  0  0  0
 66 68  1  0  0  0  0
M  CHG  1  76   1
M  ISO  4  36 100  61 101  75 100  83 101
M  END
> <Batch ID>
0101

> <Smiles>
CCCC(n1cc(CC[100NH:0][100C:0](=O)N2CCCC(n3nc(-c4ccc(Oc5ccc(F)cc5F)cc4)c(C(N)=O)c3N)C2)c(C)c1C)[101CH2:1][101O:1]c1ccc2c(c1)CN(C(=O)C(NC(=O)C(C)NC)C(C)(C)C)C(C(=O)NC1CCCc3ccccc31)C2

> <Shape>
0.244

> <Color>
0.057

> <Negative vol penalty>
0.000

$$$$

  -OEChem-04052319363D

 85 93  0     1  0  0  0  0  0999 V2000
  -32.1022  -24.5736   23.9553 C   0  0  0  0  0  0  0  0  0  0  0  0
  -31.1710  -24.1848   22.9976 C   0  0  0  0  0  0  0  0  0  0  0  0
  -24.0711   -9.8320   22.1424 C   0  0  0  0  0  0  0  0  0  0  0  0
  -24.5878  -11.3940   23.9116 C   0  0  0  0  0  0  0  0  0  0  0  0
  -31.6731  -25.1554   25.1474 C   0  0  0  0  0  0  0  0  0  0  0  0
  -29.8099  -24.3767   23.2321 C   0  0  0  0  0  0  0  0  0  0  0  0
  -27.3963  -26.2874   19.2111 C   0  0  0  0  0  0  0  0  0  0  0  0
  -23.6730   -8.8897   23.0906 C   0  0  0  0  0  0  0  0  0  0  0  0
  -24.1897  -10.4518   24.8598 C   0  0  0  0  0  0  0  0  0  0  0  0
  -27.0864  -25.4059   18.1763 C   0  0  0  0  0  0  0  0  0  0  0  0
  -20.9631   -8.2912   25.0223 C   0  0  0  0  0  0  0  0  0  0  0  0
  -19.7743   -7.5997   24.7895 C   0  0  0  0  0  0  0  0  0  0  0  0
  -24.8231  -25.2487   18.9961 C   0  0  0  0  0  0  0  0  0  0  0  0
  -27.2478  -19.8104   18.0763 C   0  0  0  0  0  0  0  0  0  0  0  0
  -20.9879   -5.5106   24.7983 C   0  0  0  0  0  0  0  0  0  0  0  0
  -25.9833  -21.0926   19.6298 C   0  0  0  0  0  0  0  0  0  0  0  0
  -24.5286  -11.0842   22.5528 C   0  0  0  0  0  0  0  0  0  0  0  0
  -24.1354  -13.0301   20.9508 C   0  0  0  0  0  0  0  0  0  0  0  0
  -30.3066  -25.3633   25.3925 C   0  0  0  0  0  0  0  0  0  0  0  0
  -26.4231  -26.6482   20.1541 C   0  0  0  0  0  0  0  0  0  0  0  0
  -29.3619  -24.9605   24.4292 C   0  0  0  0  0  0  0  0  0  0  0  0
  -25.1225  -26.1369   20.0404 C   0  0  0  0  0  0  0  0  0  0  0  0
  -26.1739  -20.6567   18.3285 C   0  0  0  0  0  0  0  0  0  0  0  0
  -28.0865  -19.4311   19.1184 C   0  0  0  0  0  0  0  0  0  0  0  0
  -23.7322   -9.1996   24.4493 C   0  0  0  0  0  0  0  0  0  0  0  0
  -25.8005  -24.8841   18.0704 C   0  0  0  0  0  0  0  0  0  0  0  0
  -22.1643   -7.5925   25.1430 C   0  0  0  0  0  0  0  0  0  0  0  0
  -19.7867   -6.2094   24.6776 C   0  0  0  0  0  0  0  0  0  0  0  0
  -22.1767   -6.2022   25.0311 C   0  0  0  0  0  0  0  0  0  0  0  0
  -24.9405  -12.0578   21.5738 C   0  0  0  0  0  0  0  0  0  0  0  0
  -27.8104  -19.9219   20.3843 C   0  0  0  0  0  0  0  0  0  0  0  0
  -24.9923  -13.6988   20.1112 C   0  0  0  0  0  0  0  0  0  0  0  0
  -22.7378  -13.3042   21.1163 C   0  0  0  0  0  0  0  0  0  0  0  0
  -26.1123  -26.3079   23.2991 C   0  0  0  0  0  0  0  0  0  0  0  0
  -23.4834  -28.1536   22.8466 C   0  0  0  0  0  0  0  0  0  0  0  0
  -21.0574  -29.2689   20.7211 C   0  0  0  0  0  0  0  0  0  0  0  0
  -29.9075  -16.1477   19.1170 C   0  0  0  0  0  0  0  0  0  0  0  0
  -29.8879  -25.9526   26.7162 C   0  0  0  0  0  0  0  0  0  0  0  0
  -26.7662  -27.6211   21.2488 C   0  0  0  0  0  0  0  0  0  0  0  0
  -24.0362  -26.5086   21.0152 C   0  0  0  0  0  0  0  0  0  0  0  0
  -28.4495  -26.4636   26.7277 C   0  0  0  0  0  0  0  0  0  0  0  0
  -29.7263  -12.6170   18.6953 C   0  0  0  0  0  0  0  0  0  0  0  0
  -27.5125  -25.4350   26.1026 C   0  0  0  0  0  0  0  0  0  0  0  0
  -28.4024  -12.2366   19.3605 C   0  0  0  0  0  0  0  0  0  0  0  0
  -30.4290  -13.7481   19.4429 C   0  0  0  0  0  0  0  0  0  0  0  0
  -28.2809  -14.5711   20.3272 C   0  0  0  0  0  0  0  0  0  0  0  0
  -27.8783  -25.1747   24.6363 C   0  0  1  0  0  0  0  0  0  0  0  0
  -25.8352  -27.5182   22.4529 C   0  0  1  0  0  0  0  0  0  0  0  0
  -27.5084  -13.4724   19.5771 C   0  0  2  0  0  0  0  0  0  0  0  0
  -24.5039  -19.8796   16.6263 C   0  0  0  0  0  0  0  0  0  0  0  0
  -27.9083  -18.7705   22.6245 C   0  0  0  0  0  0  0  0  0  0  0  0
  -29.3757  -20.7692   22.1693 C   0  0  0  0  0  0  0  0  0  0  0  0
  -19.0256  -30.7399   20.6492 C   0  0  0  0  0  0  0  0  0  0  0  0
  -21.8767  -26.0009   24.2938 C   0  0  0  0  0  0  0  0  0  0  0  0
  -19.7917  -27.0347   23.3706 C   0  0  0  0  0  0  0  0  0  0  0  0
  -21.2606  -28.3474   24.9009 C   0  0  0  0  0  0  0  0  0  0  0  0
  -22.2733  -31.0465   18.6911 C   0  0  0  0  0  0  0  0  0  0  0  0
  -29.2379  -18.5231   18.8554 C   0  0  0  0  0  0  0  0  0  0  0  0
  -25.9552  -21.8745   16.0953 C   0  0  0  0  0  0  0  0  0  0  0  0
  -26.5505  -23.1958   16.5727 C   0  0  0  0  0  0  0  0  0  1  0  0
  -25.2394  -21.0908   17.2124 C   0  0  2  0  0  0  0  0  0  0  0  0
  -28.6779  -19.5488   21.5418 C   0  0  0  0  0  0  0  0  0  0  0  0
  -22.0301  -27.8867   22.5371 C   0  0  1  0  0  0  0  0  0  0  0  0
  -20.5297  -30.6639   20.4382 C   0  0  2  0  0  0  0  0  0  0  0  0
  -21.2606  -27.3087   23.7582 C   0  0  0  0  0  0  0  0  0  0  0  0
  -26.7767  -20.7457   20.6680 N   0  0  0  0  0  0  0  0  0  0  0  0
  -26.2113  -12.1015   21.1648 N   0  0  0  0  0  0  0  0  0  0  0  0
  -26.2111  -13.1092   20.2757 N   0  0  0  0  0  0  0  0  0  0  0  0
  -24.4226  -27.4583   22.0717 N   0  0  0  0  0  0  0  0  0  0  0  0
  -29.5276  -14.8901   19.6140 N   0  0  0  0  0  0  0  0  0  0  0  0
  -24.8145  -14.7278   19.2556 N   0  0  0  0  0  0  0  0  0  0  0  0
  -22.0059  -12.5218   22.0199 N   0  0  0  0  0  0  0  0  0  0  0  0
  -27.4000  -26.2525   23.7972 N   0  0  0  0  0  0  0  0  0  0  0  0
  -21.4849  -29.1395   22.0257 N   0  0  0  0  0  0  0  0  0  0  0  0
  -28.9926  -17.1744   19.3156 N   0  0  0  0  0  0  0  0  0  0  0  0
  -20.8272  -31.0547   19.0311 N   0  3  0  0  0  0  0  0  0  0  0  0
  -22.1518  -14.2053   20.4696 O   0  0  0  0  0  0  0  0  0  0  0  0
  -25.2231  -25.4859   23.4875 O   0  0  0  0  0  0  0  0  0  0  0  0
  -23.7745  -28.9549   23.7381 O   0  0  0  0  0  0  0  0  0  0  0  0
  -21.0841  -28.3817   19.8711 O   0  0  0  0  0  0  0  0  0  0  0  0
  -30.9802  -16.3401   18.5344 O   0  0  0  0  0  0  0  0  0  0  0  0
  -23.3436   -8.2804   25.3749 O   0  0  0  0  0  0  0  0  0  0  0  0
  -25.4955  -24.0230   17.0617 O   0  0  0  0  0  0  0  0  0  1  0  0
  -18.6448   -5.5453   24.4556 F   0  0  0  0  0  0  0  0  0  0  0  0
  -23.3274   -5.5253   25.1473 F   0  0  0  0  0  0  0  0  0  0  0  0
  1  2  1  0  0  0  0
  1  5  2  0  0  0  0
  2  6  2  0  0  0  0
  3  8  2  0  0  0  0
  3 17  1  0  0  0  0
  4  9  1  0  0  0  0
  4 17  2  0  0  0  0
  5 19  1  0  0  0  0
  6 21  1  0  0  0  0
  7 10  2  0  0  0  0
  7 20  1  0  0  0  0
  8 25  1  0  0  0  0
  9 25  2  0  0  0  0
 10 26  1  0  0  0  0
 11 12  2  0  0  0  0
 11 27  1  0  0  0  0
 12 28  1  0  0  0  0
 13 22  1  0  0  0  0
 13 26  2  0  0  0  0
 14 23  2  0  0  0  0
 14 24  1  0  0  0  0
 15 28  2  0  0  0  0
 15 29  1  0  0  0  0
 16 23  1  0  0  0  0
 16 66  2  0  0  0  0
 17 30  1  0  0  0  0
 18 30  1  0  0  0  0
 18 32  2  0  0  0  0
 18 33  1  0  0  0  0
 19 21  2  0  0  0  0
 19 38  1  0  0  0  0
 20 22  2  0  0  0  0
 20 39  1  0  0  0  0
 21 47  1  0  0  0  0
 22 40  1  0  0  0  0
 23 61  1  0  0  0  0
 24 31  2  0  0  0  0
 24 58  1  0  0  0  0
 25 82  1  0  0  0  0
 26 83  1  0  0  0  0
 27 29  2  0  0  0  0
 27 82  1  0  0  0  0
 28 84  1  0  0  0  0
 29 85  1  0  0  0  0
 30 67  2  0  0  0  0
 31 62  1  0  0  0  0
 31 66  1  0  0  0  0
 32 68  1  0  0  0  0
 32 71  1  0  0  0  0
 33 72  1  0  0  0  0
 33 77  2  0  0  0  0
 34 48  1  0  0  0  0
 34 73  1  0  0  0  0
 34 78  2  0  0  0  0
 35 63  1  0  0  0  0
 35 69  1  0  0  0  0
 35 79  2  0  0  0  0
 36 64  1  0  0  0  0
 36 74  1  0  0  0  0
 36 80  2  0  0  0  0
 37 70  1  0  0  0  0
 37 75  1  0  0  0  0
 37 81  2  0  0  0  0
 38 41  1  0  0  0  0
 39 48  1  0  0  0  0
 40 69  1  0  0  0  0
 41 43  1  0  0  0  0
 42 44  1  0  0  0  0
 42 45  1  0  0  0  0
 43 47  1  0  0  0  0
 44 49  1  0  0  0  0
 45 70  1  0  0  0  0
 46 49  1  0  0  0  0
 46 70  1  0  0  0  0
 47 73  1  0  0  0  0
 48 69  1  0  0  0  0
 49 68  1  0  0  0  0
 50 61  1  0  0  0  0
 51 62  1  0  0  0  0
 52 62  1  0  0  0  0
 53 64  1  0  0  0  0
 54 65  1  0  0  0  0
 55 65  1  0  0  0  0
 56 65  1  0  0  0  0
 57 76  1  0  0  0  0
 58 75  1  0  0  0  0
 59 60  1  0  0  0  0
 59 61  1  0  0  0  0
 60 83  1  0  0  0  0
 63 65  1  0  0  0  0
 63 74  1  0  0  0  0
 64 76  1  0  0  0  0
 67 68  1  0  0  0  0
M  CHG  1  76   1
M  ISO  4  37 100  60 101  75 100  83 101
M  END
> <Batch ID>
0101

> <Smiles>
CNC(C)C(=O)NC(C(=O)N1Cc2cc([101O:1][101CH2:1]CC(C)c3cnc(C(C)C)c(C[100NH:0][100C:0](=O)N4CCCC(n5nc(-c6ccc(Oc7ccc(F)cc7F)cc6)c(C(N)=O)c5N)C4)c3)ccc2CC1C(=O)NC1CCCc2ccccc21)C(C)(C)C

> <Shape>
0.204

> <Color>
0.110

> <Negative vol penalty>
0.000

$$$$

  -OEChem-04052319363D

 90 98  0     1  0  0  0  0  0999 V2000
  -28.2958  -33.5735   24.6734 C   0  0  0  0  0  0  0  0  0  0  0  0
  -28.3560  -32.2690   24.1938 C   0  0  0  0  0  0  0  0  0  0  0  0
  -27.9022  -13.5543   18.6192 C   0  0  0  0  0  0  0  0  0  0  0  0
  -27.9735  -12.8603   20.9323 C   0  0  0  0  0  0  0  0  0  0  0  0
  -27.0859  -34.0902   25.1351 C   0  0  0  0  0  0  0  0  0  0  0  0
  -27.2064  -31.4799   24.1766 C   0  0  0  0  0  0  0  0  0  0  0  0
  -26.6524  -28.9485   19.8258 C   0  0  0  0  0  0  0  0  0  0  0  0
  -29.0735  -12.8396   18.3686 C   0  0  0  0  0  0  0  0  0  0  0  0
  -29.1448  -12.1455   20.6817 C   0  0  0  0  0  0  0  0  0  0  0  0
  -27.4310  -27.8053   19.6507 C   0  0  0  0  0  0  0  0  0  0  0  0
  -31.8471  -10.9029   17.0375 C   0  0  0  0  0  0  0  0  0  0  0  0
  -31.8930  -10.1160   15.8868 C   0  0  0  0  0  0  0  0  0  0  0  0
  -25.5428  -26.4334   20.2605 C   0  0  0  0  0  0  0  0  0  0  0  0
  -30.0096   -8.8329   16.6890 C   0  0  0  0  0  0  0  0  0  0  0  0
  -27.5676  -22.8760   24.4510 C   0  0  0  0  0  0  0  0  0  0  0  0
  -27.3522  -13.5647   19.9011 C   0  0  0  0  0  0  0  0  0  0  0  0
  -24.8202  -13.8313   20.0600 C   0  0  0  0  0  0  0  0  0  0  0  0
  -25.9189  -33.3103   25.1146 C   0  0  0  0  0  0  0  0  0  0  0  0
  -25.3140  -28.8430   20.2308 C   0  0  0  0  0  0  0  0  0  0  0  0
  -25.9801  -31.9862   24.6397 C   0  0  0  0  0  0  0  0  0  0  0  0
  -24.7487  -27.5766   20.4376 C   0  0  0  0  0  0  0  0  0  0  0  0
  -27.8427  -24.1167   23.9197 C   0  0  0  0  0  0  0  0  0  0  0  0
  -26.9102  -25.0295   24.4715 C   0  0  0  0  0  0  0  0  0  0  0  0
  -29.6948  -12.1352   19.3999 C   0  0  0  0  0  0  0  0  0  0  0  0
  -26.8770  -26.5476   19.8709 C   0  0  0  0  0  0  0  0  0  0  0  0
  -30.8824  -10.6548   18.0141 C   0  0  0  0  0  0  0  0  0  0  0  0
  -30.9742   -9.0811   15.7125 C   0  0  0  0  0  0  0  0  0  0  0  0
  -29.9637   -9.6198   17.8398 C   0  0  0  0  0  0  0  0  0  0  0  0
  -26.1426  -14.3033   20.1607 C   0  0  0  0  0  0  0  0  0  0  0  0
  -26.0937  -24.3188   25.3233 C   0  0  0  0  0  0  0  0  0  0  0  0
  -24.0434  -14.9091   20.4082 C   0  0  0  0  0  0  0  0  0  0  0  0
  -24.3371  -12.5344   19.6853 C   0  0  0  0  0  0  0  0  0  0  0  0
  -23.6506  -29.8235   22.7558 C   0  0  0  0  0  0  0  0  0  0  0  0
  -21.1374  -28.6729   21.0581 C   0  0  0  0  0  0  0  0  0  0  0  0
  -20.0049  -26.5511   18.6369 C   0  0  0  0  0  0  0  0  0  0  0  0
  -25.1352  -19.6087   23.8109 C   0  0  0  0  0  0  0  0  0  0  0  0
  -24.6442  -33.8965   25.6680 C   0  0  0  0  0  0  0  0  0  0  0  0
  -24.4800  -30.0847   20.3894 C   0  0  0  0  0  0  0  0  0  0  0  0
  -23.3110  -27.4083   20.8536 C   0  0  0  0  0  0  0  0  0  0  0  0
  -23.3925  -33.1199   25.2675 C   0  0  0  0  0  0  0  0  0  0  0  0
  -24.0423  -19.6951   20.3619 C   0  0  0  0  0  0  0  0  0  0  0  0
  -23.6070  -31.6227   25.4656 C   0  0  0  0  0  0  0  0  0  0  0  0
  -24.3367  -18.2624   19.9135 C   0  0  0  0  0  0  0  0  0  0  0  0
  -25.1182  -20.2084   21.3143 C   0  0  0  0  0  0  0  0  0  0  0  0
  -25.6339  -17.9192   22.0675 C   0  0  0  0  0  0  0  0  0  0  0  0
  -24.7494  -31.1074   24.5820 C   0  0  1  0  0  0  0  0  0  0  0  0
  -23.2745  -29.8822   21.3022 C   0  0  1  0  0  0  0  0  0  0  0  0
  -24.5703  -17.3345   21.1204 C   0  0  2  0  0  0  0  0  0  0  0  0
  -26.5144  -26.7831   22.7046 C   0  0  0  0  0  0  0  0  0  0  0  0
  -28.0973  -27.2488   24.6105 C   0  0  0  0  0  0  0  0  0  0  0  0
  -23.7897  -25.3411   25.3212 C   0  0  0  0  0  0  0  0  0  0  0  0
  -25.3731  -25.8056   27.2270 C   0  0  0  0  0  0  0  0  0  0  0  0
  -17.8957  -25.8075   17.4985 C   0  0  0  0  0  0  0  0  0  0  0  0
  -31.0946  -24.3120   20.7327 C   0  0  0  0  0  0  0  0  0  0  0  0
  -20.4027  -27.0117   23.5098 C   0  0  0  0  0  0  0  0  0  0  0  0
  -18.9232  -25.6255   22.0408 C   0  0  0  0  0  0  0  0  0  0  0  0
  -18.4571  -28.0581   22.3375 C   0  0  0  0  0  0  0  0  0  0  0  0
  -20.9678  -27.4742   15.9950 C   0  0  0  0  0  0  0  0  0  0  0  0
  -28.9409  -24.4337   22.9297 C   0  0  0  0  0  0  0  0  0  0  0  0
  -25.9135  -21.9264   26.0573 C   0  0  0  0  0  0  0  0  0  0  0  0
  -24.6175  -21.4064   25.4410 C   0  0  0  0  0  0  0  0  0  0  0  0
  -29.0350  -25.5512   19.9492 C   0  0  0  0  0  0  0  0  0  1  0  0
  -26.8266  -26.4770   24.1873 C   0  0  0  0  0  0  0  0  0  0  0  0
  -24.9591  -24.7714   26.1558 C   0  0  0  0  0  0  0  0  0  0  0  0
  -20.4430  -27.3369   20.9488 C   0  0  1  0  0  0  0  0  0  0  0  0
  -19.0711  -26.7718   17.4605 C   0  0  2  0  0  0  0  0  0  0  0  0
  -29.5933  -24.2066   20.4315 C   0  0  2  0  0  0  0  0  0  0  0  0
  -28.7829  -23.6421   21.6219 C   0  0  1  0  0  0  0  0  0  0  0  0
  -19.5842  -27.0109   22.2033 C   0  0  0  0  0  0  0  0  0  0  0  0
  -26.2061  -15.5816   20.5428 N   0  0  0  0  0  0  0  0  0  0  0  0
  -26.5027  -23.0109   25.3031 N   0  0  0  0  0  0  0  0  0  0  0  0
  -24.9139  -15.9219   20.6852 N   0  0  0  0  0  0  0  0  0  0  0  0
  -22.5382  -28.6527   21.0017 N   0  0  0  0  0  0  0  0  0  0  0  0
  -25.2780  -19.2896   22.4503 N   0  0  0  0  0  0  0  0  0  0  0  0
  -22.7075  -15.0800   20.5014 N   0  0  0  0  0  0  0  0  0  0  0  0
  -25.2714  -11.5423   19.3580 N   0  0  0  0  0  0  0  0  0  0  0  0
  -24.3008  -30.9531   23.2147 N   0  0  0  0  0  0  0  0  0  0  0  0
  -19.6888  -27.3698   19.7004 N   0  0  0  0  0  0  0  0  0  0  0  0
  -24.8040  -20.9292   24.0888 N   0  0  0  0  0  0  0  0  0  0  0  0
  -19.8003  -26.5735   16.1760 N   0  3  0  0  0  0  0  0  0  0  0  0
  -23.1127  -12.2681   19.6261 O   0  0  0  0  0  0  0  0  0  0  0  0
  -23.3703  -28.8277   23.4127 O   0  0  0  0  0  0  0  0  0  0  0  0
  -20.4615  -29.6974   21.1816 O   0  0  0  0  0  0  0  0  0  0  0  0
  -20.9206  -25.7317   18.6158 O   0  0  0  0  0  0  0  0  0  0  0  0
  -25.2863  -18.7765   24.7119 O   0  0  0  0  0  0  0  0  0  0  0  0
  -29.2038  -22.2964   21.8684 O   0  0  0  0  0  0  0  0  0  0  0  0
  -30.8376  -11.4374   19.1556 O   0  0  0  0  0  0  0  0  0  0  0  0
  -27.6349  -25.4301   19.7013 O   0  0  0  0  0  0  0  0  0  1  0  0
  -31.0175   -8.3265   14.6066 F   0  0  0  0  0  0  0  0  0  0  0  0
  -29.0339   -9.3774   18.7739 F   0  0  0  0  0  0  0  0  0  0  0  0
  1  2  1  0  0  0  0
  1  5  2  0  0  0  0
  2  6  2  0  0  0  0
  3  8  2  0  0  0  0
  3 16  1  0  0  0  0
  4  9  1  0  0  0  0
  4 16  2  0  0  0  0
  5 18  1  0  0  0  0
  6 20  1  0  0  0  0
  7 10  2  0  0  0  0
  7 19  1  0  0  0  0
  8 24  1  0  0  0  0
  9 24  2  0  0  0  0
 10 25  1  0  0  0  0
 11 12  2  0  0  0  0
 11 26  1  0  0  0  0
 12 27  1  0  0  0  0
 13 21  1  0  0  0  0
 13 25  2  0  0  0  0
 14 27  2  0  0  0  0
 14 28  1  0  0  0  0
 15 22  2  0  0  0  0
 15 71  1  0  0  0  0
 16 29  1  0  0  0  0
 17 29  1  0  0  0  0
 17 31  2  0  0  0  0
 17 32  1  0  0  0  0
 18 20  2  0  0  0  0
 18 37  1  0  0  0  0
 19 21  2  0  0  0  0
 19 38  1  0  0  0  0
 20 46  1  0  0  0  0
 21 39  1  0  0  0  0
 22 23  1  0  0  0  0
 22 59  1  0  0  0  0
 23 30  2  0  0  0  0
 23 63  1  0  0  0  0
 24 87  1  0  0  0  0
 25 88  1  0  0  0  0
 26 28  2  0  0  0  0
 26 87  1  0  0  0  0
 27 89  1  0  0  0  0
 28 90  1  0  0  0  0
 29 70  2  0  0  0  0
 30 64  1  0  0  0  0
 30 71  1  0  0  0  0
 31 72  1  0  0  0  0
 31 75  1  0  0  0  0
 32 76  1  0  0  0  0
 32 81  2  0  0  0  0
 33 47  1  0  0  0  0
 33 77  1  0  0  0  0
 33 82  2  0  0  0  0
 34 65  1  0  0  0  0
 34 73  1  0  0  0  0
 34 83  2  0  0  0  0
 35 66  1  0  0  0  0
 35 78  1  0  0  0  0
 35 84  2  0  0  0  0
 36 74  1  0  0  0  0
 36 79  1  0  0  0  0
 36 85  2  0  0  0  0
 37 40  1  0  0  0  0
 38 47  1  0  0  0  0
 39 73  1  0  0  0  0
 40 42  1  0  0  0  0
 41 43  1  0  0  0  0
 41 44  1  0  0  0  0
 42 46  1  0  0  0  0
 43 48  1  0  0  0  0
 44 74  1  0  0  0  0
 45 48  1  0  0  0  0
 45 74  1  0  0  0  0
 46 77  1  0  0  0  0
 47 73  1  0  0  0  0
 48 72  1  0  0  0  0
 49 63  1  0  0  0  0
 50 63  1  0  0  0  0
 51 64  1  0  0  0  0
 52 64  1  0  0  0  0
 53 66  1  0  0  0  0
 54 67  1  0  0  0  0
 55 69  1  0  0  0  0
 56 69  1  0  0  0  0
 57 69  1  0  0  0  0
 58 80  1  0  0  0  0
 59 68  1  0  0  0  0
 60 61  1  0  0  0  0
 60 71  1  0  0  0  0
 61 79  1  0  0  0  0
 62 67  1  0  0  0  0
 62 88  1  0  0  0  0
 65 69  1  0  0  0  0
 65 78  1  0  0  0  0
 66 80  1  0  0  0  0
 67 68  1  0  0  0  0
 68 86  1  0  0  0  0
 70 72  1  0  0  0  0
M  CHG  1  80   1
M  ISO  4  36 100  62 101  79 100  88 101
M  END
> <Batch ID>
0101

> <Smiles>
CNC(C)C(=O)NC(C(=O)N1Cc2cc([101O:1][101CH2:1]C(C)C(O)Cc3cn(CC[100NH:0][100C:0](=O)N4CCCC(n5nc(-c6ccc(Oc7ccc(F)cc7F)cc6)c(C(N)=O)c5N)C4)c(C(C)C)c3C(C)C)ccc2CC1C(=O)NC1CCCc2ccccc21)C(C)(C)C

> <Shape>
0.246

> <Color>
0.068

> <Negative vol penalty>
0.000

$$$$

  -OEChem-04052319363D

 86 94  0     1  0  0  0  0  0999 V2000
  -15.4781  -27.9068   22.1500 C   0  0  0  0  0  0  0  0  0  0  0  0
  -15.9458  -26.7487   21.5371 C   0  0  0  0  0  0  0  0  0  0  0  0
  -26.6324  -12.5729   21.7075 C   0  0  0  0  0  0  0  0  0  0  0  0
  -26.1078  -13.8281   19.7109 C   0  0  0  0  0  0  0  0  0  0  0  0
  -16.2476  -29.0691   22.1207 C   0  0  0  0  0  0  0  0  0  0  0  0
  -17.1829  -26.7526   20.8937 C   0  0  0  0  0  0  0  0  0  0  0  0
  -22.7586  -22.4801   19.4891 C   0  0  0  0  0  0  0  0  0  0  0  0
  -25.3294  -12.0759   21.7374 C   0  0  0  0  0  0  0  0  0  0  0  0
  -24.8048  -13.3311   19.7408 C   0  0  0  0  0  0  0  0  0  0  0  0
  -23.5316  -22.0353   18.4174 C   0  0  0  0  0  0  0  0  0  0  0  0
  -23.5405   -9.6799   20.1589 C   0  0  0  0  0  0  0  0  0  0  0  0
  -23.3721   -8.3166   20.4010 C   0  0  0  0  0  0  0  0  0  0  0  0
  -24.8099  -24.0795   18.4988 C   0  0  0  0  0  0  0  0  0  0  0  0
  -30.3617  -23.3795   17.7325 C   0  0  0  0  0  0  0  0  0  0  0  0
  -29.6277  -21.1441   18.2310 C   0  0  0  0  0  0  0  0  0  0  0  0
  -22.0762   -8.8272   22.3751 C   0  0  0  0  0  0  0  0  0  0  0  0
  -27.0215  -13.4491   20.6943 C   0  0  0  0  0  0  0  0  0  0  0  0
  -29.4795  -13.3952   20.0136 C   0  0  0  0  0  0  0  0  0  0  0  0
  -17.4991  -29.0846   21.4849 C   0  0  0  0  0  0  0  0  0  0  0  0
  -22.9988  -23.7347   20.0676 C   0  0  0  0  0  0  0  0  0  0  0  0
  -17.9692  -27.9166   20.8547 C   0  0  0  0  0  0  0  0  0  0  0  0
  -24.0402  -24.5368   19.5794 C   0  0  0  0  0  0  0  0  0  0  0  0
  -29.6905  -22.2219   17.3548 C   0  0  0  0  0  0  0  0  0  0  0  0
  -24.4156  -12.4550   20.7541 C   0  0  0  0  0  0  0  0  0  0  0  0
  -24.5555  -22.8362   17.9203 C   0  0  0  0  0  0  0  0  0  0  0  0
  -22.9768  -10.6169   21.0250 C   0  0  0  0  0  0  0  0  0  0  0  0
  -22.6400   -7.8902   21.5091 C   0  0  0  0  0  0  0  0  0  0  0  0
  -22.2446  -10.1905   22.1330 C   0  0  0  0  0  0  0  0  0  0  0  0
  -28.3672  -13.9633   20.6632 C   0  0  0  0  0  0  0  0  0  0  0  0
  -30.9489  -23.4087   18.9872 C   0  0  0  0  0  0  0  0  0  0  0  0
  -30.2479  -21.2733   19.4633 C   0  0  0  0  0  0  0  0  0  0  0  0
  -30.5128  -14.2587   20.2839 C   0  0  0  0  0  0  0  0  0  0  0  0
  -29.5704  -12.1945   19.2353 C   0  0  0  0  0  0  0  0  0  0  0  0
  -21.3123  -26.4073   20.4088 C   0  0  0  0  0  0  0  0  0  0  0  0
  -23.8636  -27.3283   22.1879 C   0  0  0  0  0  0  0  0  0  0  0  0
  -27.1834  -26.9721   22.8941 C   0  0  0  0  0  0  0  0  0  0  0  0
  -30.7253  -20.0770   21.6283 C   0  0  0  0  0  0  0  0  0  0  0  0
  -18.2737  -30.3778   21.4384 C   0  0  0  0  0  0  0  0  0  0  0  0
  -22.1734  -24.1885   21.2403 C   0  0  0  0  0  0  0  0  0  0  0  0
  -24.3518  -25.8831   20.1783 C   0  0  0  0  0  0  0  0  0  0  0  0
  -19.7411  -30.1955   21.0592 C   0  0  0  0  0  0  0  0  0  0  0  0
  -32.0095  -17.3917   23.5821 C   0  0  0  0  0  0  0  0  0  0  0  0
  -19.8700  -29.2698   19.8537 C   0  0  0  0  0  0  0  0  0  0  0  0
  -31.3271  -16.1554   22.9922 C   0  0  0  0  0  0  0  0  0  0  0  0
  -31.0769  -18.6016   23.5967 C   0  0  0  0  0  0  0  0  0  0  0  0
  -29.7760  -17.6881   21.7146 C   0  0  0  0  0  0  0  0  0  0  0  0
  -19.3172  -27.8744   20.1681 C   0  0  1  0  0  0  0  0  0  0  0  0
  -22.1726  -25.7035   21.4198 C   0  0  1  0  0  0  0  0  0  0  0  0
  -30.6970  -16.4608   21.6191 C   0  0  2  0  0  0  0  0  0  0  0  0
  -30.4342  -28.0719   19.8179 C   0  0  0  0  0  0  0  0  0  0  0  0
  -28.9927  -27.8895   24.3713 C   0  0  0  0  0  0  0  0  0  0  0  0
  -29.1790  -23.4137   15.1169 C   0  0  0  0  0  0  0  0  0  0  0  0
  -29.6938  -20.9896   15.1747 C   0  0  0  0  0  0  0  0  0  0  0  0
  -24.0282  -29.8201   20.4346 C   0  0  0  0  0  0  0  0  0  0  0  0
  -26.3451  -30.1953   21.3061 C   0  0  0  0  0  0  0  0  0  0  0  0
  -24.4039  -30.2331   22.8724 C   0  0  0  0  0  0  0  0  0  0  0  0
  -27.6383  -24.3398   24.1682 C   0  0  0  0  0  0  0  0  0  0  0  0
  -31.6784  -24.6346   19.4258 C   0  0  0  0  0  0  0  0  0  0  0  0
  -27.5016  -21.8047   16.1015 C   0  0  0  0  0  0  0  0  0  0  0  0
  -31.4338  -26.9352   19.8380 C   0  0  0  0  0  0  0  0  0  0  0  0
  -26.6614  -22.8626   16.8155 C   0  0  0  0  0  0  0  0  0  1  0  0
  -25.1701  -28.0282   21.9012 C   0  0  1  0  0  0  0  0  0  0  0  0
  -27.9225  -26.8210   24.2114 C   0  0  2  0  0  0  0  0  0  0  0  0
  -29.0195  -22.1338   15.9721 C   0  0  0  0  0  0  0  0  0  0  0  0
  -24.9800  -29.5447   21.6158 C   0  0  0  0  0  0  0  0  0  0  0  0
  -28.6659  -15.0996   21.2984 N   0  0  0  0  0  0  0  0  0  0  0  0
  -30.9091  -22.3818   19.8654 N   0  0  0  0  0  0  0  0  0  0  0  0
  -29.9776  -15.2525   21.0494 N   0  0  0  0  0  0  0  0  0  0  0  0
  -23.5126  -26.2853   21.3192 N   0  0  0  0  0  0  0  0  0  0  0  0
  -30.5211  -18.8328   22.2616 N   0  0  0  0  0  0  0  0  0  0  0  0
  -31.8180  -14.2572   19.9391 N   0  0  0  0  0  0  0  0  0  0  0  0
  -28.4128  -11.4249   19.0565 N   0  0  0  0  0  0  0  0  0  0  0  0
  -30.1787  -20.1692   20.3487 N   0  0  0  0  0  0  0  0  0  0  0  0
  -20.2659  -27.1216   20.9604 N   0  0  0  0  0  0  0  0  0  0  0  0
  -26.0452  -27.7381   23.0319 N   0  0  0  0  0  0  0  0  0  0  0  0
  -28.5776  -25.4846   24.2875 N   0  3  0  0  0  0  0  0  0  0  0  0
  -30.6499  -11.8067   18.7276 O   0  0  0  0  0  0  0  0  0  0  0  0
  -21.5791  -26.3108   19.2167 O   0  0  0  0  0  0  0  0  0  0  0  0
  -23.1831  -27.6890   23.1514 O   0  0  0  0  0  0  0  0  0  0  0  0
  -27.5784  -26.4646   21.8467 O   0  0  0  0  0  0  0  0  0  0  0  0
  -31.3633  -20.9837   22.1695 O   0  0  0  0  0  0  0  0  0  0  0  0
  -23.1442  -11.9700   20.7828 O   0  0  0  0  0  0  0  0  0  0  0  0
  -25.3111  -22.4048   16.8739 O   0  0  0  0  0  0  0  0  0  1  0  0
  -30.7844  -25.7404   19.4262 O   0  0  0  0  0  0  0  0  0  0  0  0
  -22.4771   -6.5810   21.7406 F   0  0  0  0  0  0  0  0  0  0  0  0
  -21.6997  -11.0860   22.9679 F   0  0  0  0  0  0  0  0  0  0  0  0
  1  2  1  0  0  0  0
  1  5  2  0  0  0  0
  2  6  2  0  0  0  0
  3  8  2  0  0  0  0
  3 17  1  0  0  0  0
  4  9  1  0  0  0  0
  4 17  2  0  0  0  0
  5 19  1  0  0  0  0
  6 21  1  0  0  0  0
  7 10  2  0  0  0  0
  7 20  1  0  0  0  0
  8 24  1  0  0  0  0
  9 24  2  0  0  0  0
 10 25  1  0  0  0  0
 11 12  2  0  0  0  0
 11 26  1  0  0  0  0
 12 27  1  0  0  0  0
 13 22  1  0  0  0  0
 13 25  2  0  0  0  0
 14 23  2  0  0  0  0
 14 30  1  0  0  0  0
 15 23  1  0  0  0  0
 15 31  2  0  0  0  0
 16 27  2  0  0  0  0
 16 28  1  0  0  0  0
 17 29  1  0  0  0  0
 18 29  1  0  0  0  0
 18 32  2  0  0  0  0
 18 33  1  0  0  0  0
 19 21  2  0  0  0  0
 19 38  1  0  0  0  0
 20 22  2  0  0  0  0
 20 39  1  0  0  0  0
 21 47  1  0  0  0  0
 22 40  1  0  0  0  0
 23 64  1  0  0  0  0
 24 82  1  0  0  0  0
 25 83  1  0  0  0  0
 26 28  2  0  0  0  0
 26 82  1  0  0  0  0
 27 85  1  0  0  0  0
 28 86  1  0  0  0  0
 29 66  2  0  0  0  0
 30 58  1  0  0  0  0
 30 67  2  0  0  0  0
 31 67  1  0  0  0  0
 31 73  1  0  0  0  0
 32 68  1  0  0  0  0
 32 71  1  0  0  0  0
 33 72  1  0  0  0  0
 33 77  2  0  0  0  0
 34 48  1  0  0  0  0
 34 74  1  0  0  0  0
 34 78  2  0  0  0  0
 35 62  1  0  0  0  0
 35 69  1  0  0  0  0
 35 79  2  0  0  0  0
 36 63  1  0  0  0  0
 36 75  1  0  0  0  0
 36 80  2  0  0  0  0
 37 70  1  0  0  0  0
 37 73  1  0  0  0  0
 37 81  2  0  0  0  0
 38 41  1  0  0  0  0
 39 48  1  0  0  0  0
 40 69  1  0  0  0  0
 41 43  1  0  0  0  0
 42 44  1  0  0  0  0
 42 45  1  0  0  0  0
 43 47  1  0  0  0  0
 44 49  1  0  0  0  0
 45 70  1  0  0  0  0
 46 49  1  0  0  0  0
 46 70  1  0  0  0  0
 47 74  1  0  0  0  0
 48 69  1  0  0  0  0
 49 68  1  0  0  0  0
 50 60  1  0  0  0  0
 51 63  1  0  0  0  0
 52 64  1  0  0  0  0
 53 64  1  0  0  0  0
 54 65  1  0  0  0  0
 55 65  1  0  0  0  0
 56 65  1  0  0  0  0
 57 76  1  0  0  0  0
 58 84  1  0  0  0  0
 59 61  1  0  0  0  0
 59 64  1  0  0  0  0
 60 84  1  0  0  0  0
 61 83  1  0  0  0  0
 62 65  1  0  0  0  0
 62 75  1  0  0  0  0
 63 76  1  0  0  0  0
 66 68  1  0  0  0  0
M  CHG  1  76   1
M  ISO  4  37 100  61 101  73 100  83 101
M  END
> <Batch ID>
0101

> <Smiles>
CCOCc1cc(C(C)(C)C[101CH2:1][101O:1]c2ccc3c(c2)CN(C(=O)C(NC(=O)C(C)NC)C(C)(C)C)C(C(=O)NC2CCCc4ccccc42)C3)cc([100NH:0][100C:0](=O)N2CCCC(n3nc(-c4ccc(Oc5ccc(F)cc5F)cc4)c(C(N)=O)c3N)C2)n1

> <Shape>
0.252

> <Color>
0.067

> <Negative vol penalty>
0.000

$$$$

  -OEChem-04052319363D

 85 93  0     1  0  0  0  0  0999 V2000
  -32.0324  -32.2830   18.7741 C   0  0  0  0  0  0  0  0  0  0  0  0
  -31.3530  -31.1118   19.0940 C   0  0  0  0  0  0  0  0  0  0  0  0
  -22.1486  -10.1826   20.3977 C   0  0  0  0  0  0  0  0  0  0  0  0
  -23.8027   -9.7408   22.1023 C   0  0  0  0  0  0  0  0  0  0  0  0
  -31.8108  -33.4413   19.5178 C   0  0  0  0  0  0  0  0  0  0  0  0
  -30.4524  -31.0981   20.1585 C   0  0  0  0  0  0  0  0  0  0  0  0
  -26.1298  -28.7204   19.0155 C   0  0  0  0  0  0  0  0  0  0  0  0
  -21.8220   -8.8270   20.3632 C   0  0  0  0  0  0  0  0  0  0  0  0
  -23.4761   -8.3852   22.0679 C   0  0  0  0  0  0  0  0  0  0  0  0
  -26.1487  -27.3263   19.0230 C   0  0  0  0  0  0  0  0  0  0  0  0
  -21.0408   -6.3799   23.2796 C   0  0  0  0  0  0  0  0  0  0  0  0
  -20.8836   -5.7215   24.4992 C   0  0  0  0  0  0  0  0  0  0  0  0
  -25.1360  -27.3303   21.2124 C   0  0  0  0  0  0  0  0  0  0  0  0
  -26.0804  -20.0057   22.9451 C   0  0  0  0  0  0  0  0  0  0  0  0
  -22.6687   -4.2038   23.9099 C   0  0  0  0  0  0  0  0  0  0  0  0
  -26.3210  -19.8954   20.7091 C   0  0  0  0  0  0  0  0  0  0  0  0
  -23.1389  -10.6395   21.2672 C   0  0  0  0  0  0  0  0  0  0  0  0
  -22.9021  -13.0326   22.1185 C   0  0  0  0  0  0  0  0  0  0  0  0
  -30.8998  -33.4443   20.5858 C   0  0  0  0  0  0  0  0  0  0  0  0
  -25.6230  -29.4312   20.1129 C   0  0  0  0  0  0  0  0  0  0  0  0
  -30.2194  -32.2572   20.9180 C   0  0  0  0  0  0  0  0  0  0  0  0
  -25.1094  -28.7333   21.2153 C   0  0  0  0  0  0  0  0  0  0  0  0
  -26.3812  -19.1437   21.8617 C   0  0  0  0  0  0  0  0  0  0  0  0
  -22.4857   -7.9283   21.1983 C   0  0  0  0  0  0  0  0  0  0  0  0
  -25.6544  -26.6311   20.1227 C   0  0  0  0  0  0  0  0  0  0  0  0
  -22.0118   -5.9502   22.3751 C   0  0  0  0  0  0  0  0  0  0  0  0
  -21.6976   -4.6335   24.8144 C   0  0  0  0  0  0  0  0  0  0  0  0
  -22.8258   -4.8622   22.6903 C   0  0  0  0  0  0  0  0  0  0  0  0
  -23.4771  -12.0397   21.3029 C   0  0  0  0  0  0  0  0  0  0  0  0
  -25.8454  -21.2579   22.4214 C   0  0  0  0  0  0  0  0  0  0  0  0
  -23.5651  -14.1855   21.7752 C   0  0  0  0  0  0  0  0  0  0  0  0
  -21.8617  -12.9227   23.0990 C   0  0  0  0  0  0  0  0  0  0  0  0
  -26.8328  -31.5089   22.1922 C   0  0  0  0  0  0  0  0  0  0  0  0
  -23.7508  -31.7192   23.1818 C   0  0  0  0  0  0  0  0  0  0  0  0
  -20.6695  -30.2669   23.3910 C   0  0  0  0  0  0  0  0  0  0  0  0
  -28.6389  -16.5566   20.7997 C   0  0  0  0  0  0  0  0  0  0  0  0
  -30.7287  -34.7084   21.3905 C   0  0  0  0  0  0  0  0  0  0  0  0
  -25.5851  -30.9345   20.0781 C   0  0  0  0  0  0  0  0  0  0  0  0
  -24.5358  -29.4491   22.4099 C   0  0  0  0  0  0  0  0  0  0  0  0
  -29.4788  -34.7081   22.2669 C   0  0  0  0  0  0  0  0  0  0  0  0
  -26.7119  -15.1813   17.9541 C   0  0  0  0  0  0  0  0  0  0  0  0
  -29.3558  -33.3877   23.0208 C   0  0  0  0  0  0  0  0  0  0  0  0
  -25.7005  -14.2693   18.6465 C   0  0  0  0  0  0  0  0  0  0  0  0
  -27.9984  -15.3187   18.7628 C   0  0  0  0  0  0  0  0  0  0  0  0
  -26.7715  -14.8529   20.8585 C   0  0  0  0  0  0  0  0  0  0  0  0
  -29.2161  -32.2090   22.0499 C   0  0  1  0  0  0  0  0  0  0  0  0
  -25.5181  -31.5628   21.4667 C   0  0  1  0  0  0  0  0  0  0  0  0
  -25.4459  -14.7303   20.0922 C   0  0  2  0  0  0  0  0  0  0  0  0
  -26.5866  -23.0021   24.0833 C   0  0  0  0  0  0  0  0  0  0  0  0
  -24.1394  -22.4447   23.8479 C   0  0  0  0  0  0  0  0  0  0  0  0
  -18.3609  -30.6655   24.2902 C   0  0  0  0  0  0  0  0  0  0  0  0
  -28.1638  -22.5763   19.2090 C   0  0  0  0  0  0  0  0  0  0  0  0
  -24.7448  -31.1037   26.0001 C   0  0  0  0  0  0  0  0  0  0  0  0
  -22.3827  -30.5801   26.6438 C   0  0  0  0  0  0  0  0  0  0  0  0
  -22.9852  -32.8766   25.8785 C   0  0  0  0  0  0  0  0  0  0  0  0
  -29.0308  -18.3264   22.4711 C   0  0  0  0  0  0  0  0  0  0  0  0
  -19.4673  -30.1236   20.6904 C   0  0  0  0  0  0  0  0  0  0  0  0
  -26.7006  -17.7061   21.9504 C   0  0  0  0  0  0  0  0  0  0  0  0
  -25.8285  -22.3185   20.0859 C   0  0  0  0  0  0  0  0  0  0  0  0
  -26.7178  -24.6292   19.4034 C   0  0  0  0  0  0  0  0  0  1  0  0
  -25.4923  -22.5199   23.1039 C   0  0  0  0  0  0  0  0  0  0  0  0
  -22.9015  -30.9916   24.1958 C   0  0  1  0  0  0  0  0  0  0  0  0
  -19.2814  -30.8012   23.0873 C   0  0  2  0  0  0  0  0  0  0  0  0
  -27.0508  -23.2588   20.0127 C   0  0  2  0  0  0  0  0  0  0  0  0
  -23.2661  -31.3742   25.6580 C   0  0  0  0  0  0  0  0  0  0  0  0
  -24.4318  -12.5198   20.5016 N   0  0  0  0  0  0  0  0  0  0  0  0
  -25.9942  -21.1789   21.0613 N   0  0  0  0  0  0  0  0  0  0  0  0
  -24.4617  -13.8270   20.8120 N   0  0  0  0  0  0  0  0  0  0  0  0
  -24.5267  -30.9192   22.3310 N   0  0  0  0  0  0  0  0  0  0  0  0
  -27.7244  -15.7158   20.1443 N   0  0  0  0  0  0  0  0  0  0  0  0
  -23.4626  -15.4607   22.2061 N   0  0  0  0  0  0  0  0  0  0  0  0
  -21.2891  -11.6640   23.3273 N   0  0  0  0  0  0  0  0  0  0  0  0
  -27.8677  -32.1403   21.5290 N   0  0  0  0  0  0  0  0  0  0  0  0
  -21.5139  -31.2622   23.8356 N   0  0  0  0  0  0  0  0  0  0  0  0
  -28.1238  -17.4270   21.7723 N   0  0  0  0  0  0  0  0  0  0  0  0
  -18.6775  -30.0557   21.9469 N   0  3  0  0  0  0  0  0  0  0  0  0
  -21.4406  -13.9143   23.7414 O   0  0  0  0  0  0  0  0  0  0  0  0
  -26.9027  -30.9381   23.2743 O   0  0  0  0  0  0  0  0  0  0  0  0
  -23.7212  -32.9517   23.1411 O   0  0  0  0  0  0  0  0  0  0  0  0
  -20.9733  -29.0842   23.2515 O   0  0  0  0  0  0  0  0  0  0  0  0
  -29.8453  -16.5375   20.5241 O   0  0  0  0  0  0  0  0  0  0  0  0
  -22.1672   -6.6054   21.1651 O   0  0  0  0  0  0  0  0  0  0  0  0
  -25.6723  -25.2704   20.1328 O   0  0  0  0  0  0  0  0  0  1  0  0
  -21.5476   -4.0023   25.9863 F   0  0  0  0  0  0  0  0  0  0  0  0
  -23.7613   -4.4456   21.8259 F   0  0  0  0  0  0  0  0  0  0  0  0
  1  2  1  0  0  0  0
  1  5  2  0  0  0  0
  2  6  2  0  0  0  0
  3  8  2  0  0  0  0
  3 17  1  0  0  0  0
  4  9  1  0  0  0  0
  4 17  2  0  0  0  0
  5 19  1  0  0  0  0
  6 21  1  0  0  0  0
  7 10  2  0  0  0  0
  7 20  1  0  0  0  0
  8 24  1  0  0  0  0
  9 24  2  0  0  0  0
 10 25  1  0  0  0  0
 11 12  2  0  0  0  0
 11 26  1  0  0  0  0
 12 27  1  0  0  0  0
 13 22  1  0  0  0  0
 13 25  2  0  0  0  0
 14 23  1  0  0  0  0
 14 30  2  0  0  0  0
 15 27  2  0  0  0  0
 15 28  1  0  0  0  0
 16 23  2  0  0  0  0
 16 67  1  0  0  0  0
 17 29  1  0  0  0  0
 18 29  1  0  0  0  0
 18 31  2  0  0  0  0
 18 32  1  0  0  0  0
 19 21  2  0  0  0  0
 19 37  1  0  0  0  0
 20 22  2  0  0  0  0
 20 38  1  0  0  0  0
 21 46  1  0  0  0  0
 22 39  1  0  0  0  0
 23 58  1  0  0  0  0
 24 82  1  0  0  0  0
 25 83  1  0  0  0  0
 26 28  2  0  0  0  0
 26 82  1  0  0  0  0
 27 84  1  0  0  0  0
 28 85  1  0  0  0  0
 29 66  2  0  0  0  0
 30 61  1  0  0  0  0
 30 67  1  0  0  0  0
 31 68  1  0  0  0  0
 31 71  1  0  0  0  0
 32 72  1  0  0  0  0
 32 77  2  0  0  0  0
 33 47  1  0  0  0  0
 33 73  1  0  0  0  0
 33 78  2  0  0  0  0
 34 62  1  0  0  0  0
 34 69  1  0  0  0  0
 34 79  2  0  0  0  0
 35 63  1  0  0  0  0
 35 74  1  0  0  0  0
 35 80  2  0  0  0  0
 36 70  1  0  0  0  0
 36 75  1  0  0  0  0
 36 81  2  0  0  0  0
 37 40  1  0  0  0  0
 38 47  1  0  0  0  0
 39 69  1  0  0  0  0
 40 42  1  0  0  0  0
 41 43  1  0  0  0  0
 41 44  1  0  0  0  0
 42 46  1  0  0  0  0
 43 48  1  0  0  0  0
 44 70  1  0  0  0  0
 45 48  1  0  0  0  0
 45 70  1  0  0  0  0
 46 73  1  0  0  0  0
 47 69  1  0  0  0  0
 48 68  1  0  0  0  0
 49 61  1  0  0  0  0
 50 61  1  0  0  0  0
 51 63  1  0  0  0  0
 52 64  1  0  0  0  0
 53 65  1  0  0  0  0
 54 65  1  0  0  0  0
 55 65  1  0  0  0  0
 56 75  1  0  0  0  0
 57 76  1  0  0  0  0
 58 75  1  0  0  0  0
 59 64  1  0  0  0  0
 59 67  1  0  0  0  0
 60 64  1  0  0  0  0
 60 83  1  0  0  0  0
 62 65  1  0  0  0  0
 62 74  1  0  0  0  0
 63 76  1  0  0  0  0
 66 68  1  0  0  0  0
M  CHG  1  76   1
M  ISO  4  36 100  60 101  75 100  83 101
M  END
> <Batch ID>
0101

> <Smiles>
CNC(C)C(=O)NC(C(=O)N1Cc2cc([101O:1][101CH2:1]C(C)Cn3cc(C[100N:0](C)[100C:0](=O)N4CCCC(n5nc(-c6ccc(Oc7ccc(F)cc7F)cc6)c(C(N)=O)c5N)C4)cc3C(C)C)ccc2CC1C(=O)NC1CCCc2ccccc21)C(C)(C)C

> <Shape>
0.251

> <Color>
0.093

> <Negative vol penalty>
0.000

$$$$

  -OEChem-04052319363D

 84 92  0     1  0  0  0  0  0999 V2000
  -30.3486  -32.2793   15.8983 C   0  0  0  0  0  0  0  0  0  0  0  0
  -30.1716  -30.9007   15.8404 C   0  0  0  0  0  0  0  0  0  0  0  0
  -22.9524   -9.9555   19.9943 C   0  0  0  0  0  0  0  0  0  0  0  0
  -23.7034   -9.9679   22.2906 C   0  0  0  0  0  0  0  0  0  0  0  0
  -30.0002  -32.9778   17.0535 C   0  0  0  0  0  0  0  0  0  0  0  0
  -29.6469  -30.2195   16.9382 C   0  0  0  0  0  0  0  0  0  0  0  0
  -25.9823  -25.3142   16.8195 C   0  0  0  0  0  0  0  0  0  0  0  0
  -22.1689   -8.8317   20.2566 C   0  0  0  0  0  0  0  0  0  0  0  0
  -22.9198   -8.8442   22.5529 C   0  0  0  0  0  0  0  0  0  0  0  0
  -26.2347  -23.9510   16.9669 C   0  0  0  0  0  0  0  0  0  0  0  0
  -23.1000   -5.5069   22.0417 C   0  0  0  0  0  0  0  0  0  0  0  0
  -23.6776   -4.4712   22.7760 C   0  0  0  0  0  0  0  0  0  0  0  0
  -25.6538  -24.1023   19.3033 C   0  0  0  0  0  0  0  0  0  0  0  0
  -31.6077  -18.3363   19.9901 C   0  0  0  0  0  0  0  0  0  0  0  0
  -21.9766   -4.7256   24.4728 C   0  0  0  0  0  0  0  0  0  0  0  0
  -29.5534  -18.6274   20.8649 C   0  0  0  0  0  0  0  0  0  0  0  0
  -23.7197  -10.5236   21.0113 C   0  0  0  0  0  0  0  0  0  0  0  0
  -24.1474  -13.0338   20.8587 C   0  0  0  0  0  0  0  0  0  0  0  0
  -29.4620  -32.3062   18.1625 C   0  0  0  0  0  0  0  0  0  0  0  0
  -25.5736  -26.0852   17.9172 C   0  0  0  0  0  0  0  0  0  0  0  0
  -29.2922  -30.9095   18.1098 C   0  0  0  0  0  0  0  0  0  0  0  0
  -25.3944  -25.4745   19.1666 C   0  0  0  0  0  0  0  0  0  0  0  0
  -30.6916  -17.8574   20.9589 C   0  0  0  0  0  0  0  0  0  0  0  0
  -22.1526   -8.2761   21.5359 C   0  0  0  0  0  0  0  0  0  0  0  0
  -26.0733  -23.3454   18.2096 C   0  0  0  0  0  0  0  0  0  0  0  0
  -21.9607   -6.1521   22.5229 C   0  0  0  0  0  0  0  0  0  0  0  0
  -23.1159   -4.0805   23.9915 C   0  0  0  0  0  0  0  0  0  0  0  0
  -21.3990   -5.7614   23.7384 C   0  0  0  0  0  0  0  0  0  0  0  0
  -24.5297  -11.6841   20.7408 C   0  0  0  0  0  0  0  0  0  0  0  0
  -31.0014  -19.3847   19.3336 C   0  0  0  0  0  0  0  0  0  0  0  0
  -25.2657  -13.7409   20.4900 C   0  0  0  0  0  0  0  0  0  0  0  0
  -22.8936  -13.5981   21.2652 C   0  0  0  0  0  0  0  0  0  0  0  0
  -26.7795  -28.5744   19.4834 C   0  0  0  0  0  0  0  0  0  0  0  0
  -23.9397  -28.4702   21.0477 C   0  0  0  0  0  0  0  0  0  0  0  0
  -21.2353  -26.6314   22.0235 C   0  0  0  0  0  0  0  0  0  0  0  0
  -30.7801  -14.5761   20.6879 C   0  0  0  0  0  0  0  0  0  0  0  0
  -29.1444  -33.0976   19.4065 C   0  0  0  0  0  0  0  0  0  0  0  0
  -25.2795  -27.5491   17.7356 C   0  0  0  0  0  0  0  0  0  0  0  0
  -24.9379  -26.2538   20.3719 C   0  0  0  0  0  0  0  0  0  0  0  0
  -28.2453  -32.3523   20.3896 C   0  0  0  0  0  0  0  0  0  0  0  0
  -29.5714  -12.1992   18.3286 C   0  0  0  0  0  0  0  0  0  0  0  0
  -28.7404  -30.9232   20.5880 C   0  0  0  0  0  0  0  0  0  0  0  0
  -28.1231  -11.9603   18.7594 C   0  0  0  0  0  0  0  0  0  0  0  0
  -30.4909  -12.4052   19.5303 C   0  0  0  0  0  0  0  0  0  0  0  0
  -28.6098  -13.2190   20.8989 C   0  0  0  0  0  0  0  0  0  0  0  0
  -28.7029  -30.1385   19.2710 C   0  0  1  0  0  0  0  0  0  0  0  0
  -25.3640  -28.3413   19.0366 C   0  0  1  0  0  0  0  0  0  0  0  0
  -27.6347  -13.0615   19.7196 C   0  0  2  0  0  0  0  0  0  0  0  0
  -31.8093  -19.4441   16.9467 C   0  0  0  0  0  0  0  0  0  0  0  0
  -32.7585  -21.0534   18.6392 C   0  0  0  0  0  0  0  0  0  0  0  0
  -19.0968  -26.8108   23.3242 C   0  0  0  0  0  0  0  0  0  0  0  0
  -26.9167  -19.1595   18.4989 C   0  0  0  0  0  0  0  0  0  0  0  0
  -25.5216  -28.3865   23.6554 C   0  0  0  0  0  0  0  0  0  0  0  0
  -23.4384  -27.6198   24.8133 C   0  0  0  0  0  0  0  0  0  0  0  0
  -23.4986  -29.8558   23.7092 C   0  0  0  0  0  0  0  0  0  0  0  0
  -19.6000  -25.9568   19.6508 C   0  0  0  0  0  0  0  0  0  0  0  0
  -30.9142  -16.7398   21.8959 C   0  0  0  0  0  0  0  0  0  0  0  0
  -28.7408  -20.5906   19.4549 C   0  0  0  0  0  0  0  0  0  0  0  0
  -27.3060  -21.4390   17.5011 C   0  0  0  0  0  0  0  0  0  1  0  0
  -31.5080  -20.2376   18.2387 C   0  0  0  0  0  0  0  0  0  0  0  0
  -23.4240  -27.7703   22.2819 C   0  0  1  0  0  0  0  0  0  0  0  0
  -19.7457  -26.9152   21.9528 C   0  0  2  0  0  0  0  0  0  0  0  0
  -27.9690  -20.2246   18.1689 C   0  0  2  0  0  0  0  0  0  0  0  0
  -23.9811  -28.3935   23.5929 C   0  0  0  0  0  0  0  0  0  0  0  0
  -25.7921  -11.5398   20.3292 N   0  0  0  0  0  0  0  0  0  0  0  0
  -29.7532  -19.5528   19.8739 N   0  0  0  0  0  0  0  0  0  0  0  0
  -26.2129  -12.8080   20.1852 N   0  0  0  0  0  0  0  0  0  0  0  0
  -24.6692  -27.6834   20.1451 N   0  0  0  0  0  0  0  0  0  0  0  0
  -29.9722  -13.4637   20.4000 N   0  0  0  0  0  0  0  0  0  0  0  0
  -25.5215  -15.0633   20.3999 N   0  0  0  0  0  0  0  0  0  0  0  0
  -21.8501  -12.7284   21.6104 N   0  0  0  0  0  0  0  0  0  0  0  0
  -27.3500  -29.7230   18.9687 N   0  0  0  0  0  0  0  0  0  0  0  0
  -21.9686  -27.7881   22.1832 N   0  0  0  0  0  0  0  0  0  0  0  0
  -30.2097  -15.5360   21.5148 N   0  0  0  0  0  0  0  0  0  0  0  0
  -19.0763  -25.9449   21.0410 N   0  3  0  0  0  0  0  0  0  0  0  0
  -22.6990  -14.8366   21.3050 O   0  0  0  0  0  0  0  0  0  0  0  0
  -27.3140  -27.7725   20.2403 O   0  0  0  0  0  0  0  0  0  0  0  0
  -23.6978  -29.6690   20.8867 O   0  0  0  0  0  0  0  0  0  0  0  0
  -21.7015  -25.4967   21.9485 O   0  0  0  0  0  0  0  0  0  0  0  0
  -31.9231  -14.7068   20.2367 O   0  0  0  0  0  0  0  0  0  0  0  0
  -21.3879   -7.1796   21.7923 O   0  0  0  0  0  0  0  0  0  0  0  0
  -26.3196  -22.0151   18.3564 O   0  0  0  0  0  0  0  0  0  1  0  0
  -23.6698   -3.0849   24.6958 F   0  0  0  0  0  0  0  0  0  0  0  0
  -20.3039   -6.3766   24.2053 F   0  0  0  0  0  0  0  0  0  0  0  0
  1  2  1  0  0  0  0
  1  5  2  0  0  0  0
  2  6  2  0  0  0  0
  3  8  2  0  0  0  0
  3 17  1  0  0  0  0
  4  9  1  0  0  0  0
  4 17  2  0  0  0  0
  5 19  1  0  0  0  0
  6 21  1  0  0  0  0
  7 10  2  0  0  0  0
  7 20  1  0  0  0  0
  8 24  1  0  0  0  0
  9 24  2  0  0  0  0
 10 25  1  0  0  0  0
 11 12  2  0  0  0  0
 11 26  1  0  0  0  0
 12 27  1  0  0  0  0
 13 22  1  0  0  0  0
 13 25  2  0  0  0  0
 14 23  1  0  0  0  0
 14 30  2  0  0  0  0
 15 27  2  0  0  0  0
 15 28  1  0  0  0  0
 16 23  2  0  0  0  0
 16 66  1  0  0  0  0
 17 29  1  0  0  0  0
 18 29  1  0  0  0  0
 18 31  2  0  0  0  0
 18 32  1  0  0  0  0
 19 21  2  0  0  0  0
 19 37  1  0  0  0  0
 20 22  2  0  0  0  0
 20 38  1  0  0  0  0
 21 46  1  0  0  0  0
 22 39  1  0  0  0  0
 23 57  1  0  0  0  0
 24 81  1  0  0  0  0
 25 82  1  0  0  0  0
 26 28  2  0  0  0  0
 26 81  1  0  0  0  0
 27 83  1  0  0  0  0
 28 84  1  0  0  0  0
 29 65  2  0  0  0  0
 30 60  1  0  0  0  0
 30 66  1  0  0  0  0
 31 67  1  0  0  0  0
 31 70  1  0  0  0  0
 32 71  1  0  0  0  0
 32 76  2  0  0  0  0
 33 47  1  0  0  0  0
 33 72  1  0  0  0  0
 33 77  2  0  0  0  0
 34 61  1  0  0  0  0
 34 68  1  0  0  0  0
 34 78  2  0  0  0  0
 35 62  1  0  0  0  0
 35 73  1  0  0  0  0
 35 79  2  0  0  0  0
 36 69  1  0  0  0  0
 36 74  1  0  0  0  0
 36 80  2  0  0  0  0
 37 40  1  0  0  0  0
 38 47  1  0  0  0  0
 39 68  1  0  0  0  0
 40 42  1  0  0  0  0
 41 43  1  0  0  0  0
 41 44  1  0  0  0  0
 42 46  1  0  0  0  0
 43 48  1  0  0  0  0
 44 69  1  0  0  0  0
 45 48  1  0  0  0  0
 45 69  1  0  0  0  0
 46 72  1  0  0  0  0
 47 68  1  0  0  0  0
 48 67  1  0  0  0  0
 49 60  1  0  0  0  0
 50 60  1  0  0  0  0
 51 62  1  0  0  0  0
 52 63  1  0  0  0  0
 53 64  1  0  0  0  0
 54 64  1  0  0  0  0
 55 64  1  0  0  0  0
 56 75  1  0  0  0  0
 57 74  1  0  0  0  0
 58 63  1  0  0  0  0
 58 66  1  0  0  0  0
 59 63  1  0  0  0  0
 59 82  1  0  0  0  0
 61 64  1  0  0  0  0
 61 73  1  0  0  0  0
 62 75  1  0  0  0  0
 65 67  1  0  0  0  0
M  CHG  1  75   1
M  ISO  4  36 100  59 101  74 100  82 101
M  END
> <Batch ID>
0101

> <Smiles>
CNC(C)C(=O)NC(C(=O)N1Cc2cc([101O:1][101CH2:1]C(C)Cn3cc(C[100NH:0][100C:0](=O)N4CCCC(n5nc(-c6ccc(Oc7ccc(F)cc7F)cc6)c(C(N)=O)c5N)C4)cc3C(C)C)ccc2CC1C(=O)NC1CCCc2ccccc21)C(C)(C)C

> <Shape>
0.308

> <Color>
0.201

> <Negative vol penalty>
0.000

$$$$

  -OEChem-04052319363D

 88 96  0     1  0  0  0  0  0999 V2000
  -26.1439  -11.7665   17.1220 C   0  0  0  0  0  0  0  0  0  0  0  0
  -25.4158  -12.9219   16.8569 C   0  0  0  0  0  0  0  0  0  0  0  0
  -27.3696  -24.8973   17.5976 C   0  0  0  0  0  0  0  0  0  0  0  0
  -26.9987  -23.9310   19.7807 C   0  0  0  0  0  0  0  0  0  0  0  0
  -26.3424  -11.3559   18.4396 C   0  0  0  0  0  0  0  0  0  0  0  0
  -24.8848  -13.6669   17.9093 C   0  0  0  0  0  0  0  0  0  0  0  0
  -23.3650  -20.4182   19.7605 C   0  0  0  0  0  0  0  0  0  0  0  0
  -28.3873  -23.9732   17.3615 C   0  0  0  0  0  0  0  0  0  0  0  0
  -28.0164  -23.0068   19.5445 C   0  0  0  0  0  0  0  0  0  0  0  0
  -22.3099  -21.1911   20.2432 C   0  0  0  0  0  0  0  0  0  0  0  0
  -28.4070  -20.1161   17.8381 C   0  0  0  0  0  0  0  0  0  0  0  0
  -28.1618  -18.7846   18.1735 C   0  0  0  0  0  0  0  0  0  0  0  0
  -22.7839  -20.4290   22.4823 C   0  0  0  0  0  0  0  0  0  0  0  0
  -20.3812  -27.1311   23.4498 C   0  0  0  0  0  0  0  0  0  0  0  0
  -18.9303  -26.2538   21.7287 C   0  0  0  0  0  0  0  0  0  0  0  0
  -30.0264  -18.8282   19.7092 C   0  0  0  0  0  0  0  0  0  0  0  0
  -26.6753  -24.8763   18.8073 C   0  0  0  0  0  0  0  0  0  0  0  0
  -24.2561  -25.6841   18.7547 C   0  0  0  0  0  0  0  0  0  0  0  0
  -25.8218  -12.1015   19.5090 C   0  0  0  0  0  0  0  0  0  0  0  0
  -24.1319  -19.6350   20.6351 C   0  0  0  0  0  0  0  0  0  0  0  0
  -25.0754  -13.2652   19.2423 C   0  0  0  0  0  0  0  0  0  0  0  0
  -23.8498  -19.6490   22.0085 C   0  0  0  0  0  0  0  0  0  0  0  0
  -20.0298  -26.1041   22.5739 C   0  0  0  0  0  0  0  0  0  0  0  0
  -19.6330  -28.3080   23.4806 C   0  0  0  0  0  0  0  0  0  0  0  0
  -18.1822  -27.4307   21.7594 C   0  0  0  0  0  0  0  0  0  0  0  0
  -18.5335  -28.4578   22.6354 C   0  0  0  0  0  0  0  0  0  0  0  0
  -28.7107  -23.0279   18.3349 C   0  0  0  0  0  0  0  0  0  0  0  0
  -22.0173  -21.1944   21.6039 C   0  0  0  0  0  0  0  0  0  0  0  0
  -29.4619  -20.8037   18.4382 C   0  0  0  0  0  0  0  0  0  0  0  0
  -28.9715  -18.1406   19.1091 C   0  0  0  0  0  0  0  0  0  0  0  0
  -30.2716  -20.1597   19.3738 C   0  0  0  0  0  0  0  0  0  0  0  0
  -25.6243  -25.8311   19.0520 C   0  0  0  0  0  0  0  0  0  0  0  0
  -23.6845  -26.8589   19.1785 C   0  0  0  0  0  0  0  0  0  0  0  0
  -23.5638  -24.5840   18.1496 C   0  0  0  0  0  0  0  0  0  0  0  0
  -24.7029  -16.5235   20.9447 C   0  0  0  0  0  0  0  0  0  0  0  0
  -26.8004  -17.5299   23.2052 C   0  0  0  0  0  0  0  0  0  0  0  0
  -27.7244  -19.9486   25.4284 C   0  0  0  0  0  0  0  0  0  0  0  0
  -23.1231  -30.9030   22.9831 C   0  0  0  0  0  0  0  0  0  0  0  0
  -26.0223  -11.5923   20.9144 C   0  0  0  0  0  0  0  0  0  0  0  0
  -25.2836  -18.8276   20.1021 C   0  0  0  0  0  0  0  0  0  0  0  0
  -24.6557  -18.8415   22.9918 C   0  0  0  0  0  0  0  0  0  0  0  0
  -25.7451  -12.6418   21.9878 C   0  0  0  0  0  0  0  0  0  0  0  0
  -25.8056  -31.2049   20.6616 C   0  0  0  0  0  0  0  0  0  0  0  0
  -24.4366  -13.3699   21.6973 C   0  0  0  0  0  0  0  0  0  0  0  0
  -25.8885  -29.8205   20.0164 C   0  0  0  0  0  0  0  0  0  0  0  0
  -25.4435  -31.1166   22.1425 C   0  0  0  0  0  0  0  0  0  0  0  0
  -24.3051  -28.9592   21.7912 C   0  0  0  0  0  0  0  0  0  0  0  0
  -24.5047  -14.1136   20.3579 C   0  0  1  0  0  0  0  0  0  0  0  0
  -25.6733  -17.6684   21.0143 C   0  0  1  0  0  0  0  0  0  0  0  0
  -24.6128  -28.9996   20.2845 C   0  0  2  0  0  0  0  0  0  0  0  0
  -15.9196  -26.5166   21.1279 C   0  0  0  0  0  0  0  0  0  0  0  0
  -17.4146  -27.5136   19.3598 C   0  0  0  0  0  0  0  0  0  0  0  0
  -16.2734  -29.4752   23.0942 C   0  0  0  0  0  0  0  0  0  0  0  0
  -17.7687  -30.4714   21.3260 C   0  0  0  0  0  0  0  0  0  0  0  0
  -29.1444  -21.1306   27.1266 C   0  0  0  0  0  0  0  0  0  0  0  0
  -25.4342  -15.6136   25.1472 C   0  0  0  0  0  0  0  0  0  0  0  0
  -26.5402  -16.8416   27.0279 C   0  0  0  0  0  0  0  0  0  0  0  0
  -27.9286  -15.6699   25.3185 C   0  0  0  0  0  0  0  0  0  0  0  0
  -29.2493  -21.3751   23.3312 C   0  0  0  0  0  0  0  0  0  0  0  0
  -20.8381  -24.8316   22.5411 C   0  0  0  0  0  0  0  0  0  0  0  0
  -20.0309  -29.3931   24.4271 C   0  0  0  0  0  0  0  0  0  0  0  0
  -20.3375  -23.7587   23.5104 C   0  0  0  0  0  0  0  0  0  0  0  0
  -20.7927  -30.5411   23.7562 C   0  0  0  0  0  0  0  0  0  0  0  0
  -21.1070  -22.4468   23.4090 C   0  0  0  0  0  0  0  0  0  1  0  0
  -17.0093  -27.5663   20.8441 C   0  0  0  0  0  0  0  0  0  0  0  0
  -17.7318  -29.7199   22.6683 C   0  0  0  0  0  0  0  0  0  0  0  0
  -26.7250  -17.8021   24.6881 C   0  0  1  0  0  0  0  0  0  0  0  0
  -29.0646  -20.6075   25.7009 C   0  0  2  0  0  0  0  0  0  0  0  0
  -26.6404  -16.4956   25.5269 C   0  0  0  0  0  0  0  0  0  0  0  0
  -25.9050  -27.0066   19.6206 N   0  0  0  0  0  0  0  0  0  0  0  0
  -24.7054  -27.6090   19.6839 N   0  0  0  0  0  0  0  0  0  0  0  0
  -25.7676  -18.0634   22.4212 N   0  0  0  0  0  0  0  0  0  0  0  0
  -24.2238  -30.3267   22.3280 N   0  0  0  0  0  0  0  0  0  0  0  0
  -22.4134  -27.3131   19.1644 N   0  0  0  0  0  0  0  0  0  0  0  0
  -24.3034  -23.4542   17.7744 N   0  0  0  0  0  0  0  0  0  0  0  0
  -25.2599  -15.3401   20.4987 N   0  0  0  0  0  0  0  0  0  0  0  0
  -27.8728  -18.6440   25.0075 N   0  0  0  0  0  0  0  0  0  0  0  0
  -22.0051  -30.0880   23.1114 N   0  0  0  0  0  0  0  0  0  0  0  0
  -29.2791  -21.7500   24.7684 N   0  3  0  0  0  0  0  0  0  0  0  0
  -22.3286  -24.6090   17.9327 O   0  0  0  0  0  0  0  0  0  0  0  0
  -23.5355  -16.7001   21.2728 O   0  0  0  0  0  0  0  0  0  0  0  0
  -27.7448  -16.8744   22.7579 O   0  0  0  0  0  0  0  0  0  0  0  0
  -26.6528  -20.5317   25.5779 O   0  0  0  0  0  0  0  0  0  0  0  0
  -23.1339  -32.0602   23.4166 O   0  0  0  0  0  0  0  0  0  0  0  0
  -29.7036  -22.1258   18.1047 O   0  0  0  0  0  0  0  0  0  0  0  0
  -20.9876  -21.9474   22.0776 O   0  0  0  0  0  0  0  0  0  1  0  0
  -28.7350  -16.8624   19.4323 F   0  0  0  0  0  0  0  0  0  0  0  0
  -31.2859  -20.8154   19.9545 F   0  0  0  0  0  0  0  0  0  0  0  0
  1  2  1  0  0  0  0
  1  5  2  0  0  0  0
  2  6  2  0  0  0  0
  3  8  2  0  0  0  0
  3 17  1  0  0  0  0
  4  9  1  0  0  0  0
  4 17  2  0  0  0  0
  5 19  1  0  0  0  0
  6 21  1  0  0  0  0
  7 10  2  0  0  0  0
  7 20  1  0  0  0  0
  8 27  1  0  0  0  0
  9 27  2  0  0  0  0
 10 28  1  0  0  0  0
 11 12  2  0  0  0  0
 11 29  1  0  0  0  0
 12 30  1  0  0  0  0
 13 22  1  0  0  0  0
 13 28  2  0  0  0  0
 14 23  1  0  0  0  0
 14 24  2  0  0  0  0
 15 23  2  0  0  0  0
 15 25  1  0  0  0  0
 16 30  2  0  0  0  0
 16 31  1  0  0  0  0
 17 32  1  0  0  0  0
 18 32  1  0  0  0  0
 18 33  2  0  0  0  0
 18 34  1  0  0  0  0
 19 21  2  0  0  0  0
 19 39  1  0  0  0  0
 20 22  2  0  0  0  0
 20 40  1  0  0  0  0
 21 48  1  0  0  0  0
 22 41  1  0  0  0  0
 23 60  1  0  0  0  0
 24 26  1  0  0  0  0
 24 61  1  0  0  0  0
 25 26  2  0  0  0  0
 25 65  1  0  0  0  0
 26 66  1  0  0  0  0
 27 85  1  0  0  0  0
 28 86  1  0  0  0  0
 29 31  2  0  0  0  0
 29 85  1  0  0  0  0
 30 87  1  0  0  0  0
 31 88  1  0  0  0  0
 32 70  2  0  0  0  0
 33 71  1  0  0  0  0
 33 74  1  0  0  0  0
 34 75  1  0  0  0  0
 34 80  2  0  0  0  0
 35 49  1  0  0  0  0
 35 76  1  0  0  0  0
 35 81  2  0  0  0  0
 36 67  1  0  0  0  0
 36 72  1  0  0  0  0
 36 82  2  0  0  0  0
 37 68  1  0  0  0  0
 37 77  1  0  0  0  0
 37 83  2  0  0  0  0
 38 73  1  0  0  0  0
 38 78  1  0  0  0  0
 38 84  2  0  0  0  0
 39 42  1  0  0  0  0
 40 49  1  0  0  0  0
 41 72  1  0  0  0  0
 42 44  1  0  0  0  0
 43 45  1  0  0  0  0
 43 46  1  0  0  0  0
 44 48  1  0  0  0  0
 45 50  1  0  0  0  0
 46 73  1  0  0  0  0
 47 50  1  0  0  0  0
 47 73  1  0  0  0  0
 48 76  1  0  0  0  0
 49 72  1  0  0  0  0
 50 71  1  0  0  0  0
 51 65  1  0  0  0  0
 52 65  1  0  0  0  0
 53 66  1  0  0  0  0
 54 66  1  0  0  0  0
 55 68  1  0  0  0  0
 56 69  1  0  0  0  0
 57 69  1  0  0  0  0
 58 69  1  0  0  0  0
 59 79  1  0  0  0  0
 60 62  1  0  0  0  0
 61 63  1  0  0  0  0
 62 64  1  0  0  0  0
 63 78  1  0  0  0  0
 64 86  1  0  0  0  0
 67 69  1  0  0  0  0
 67 77  1  0  0  0  0
 68 79  1  0  0  0  0
 70 71  1  0  0  0  0
M  CHG  1  79   1
M  ISO  4  38 100  64 101  78 100  86 101
M  END
> <Batch ID>
0101

> <Smiles>
CNC(C)C(=O)NC(C(=O)N1Cc2cc([101O:1][101CH2:1]CCc3cc(CC[100NH:0][100C:0](=O)N4CCCC(n5nc(-c6ccc(Oc7ccc(F)cc7F)cc6)c(C(N)=O)c5N)C4)c(C(C)C)c(C(C)C)c3)ccc2CC1C(=O)NC1CCCc2ccccc21)C(C)(C)C

> <Shape>
0.205

> <Color>
0.094

> <Negative vol penalty>
0.000

$$$$

  -OEChem-04052319363D

 85 93  0     1  0  0  0  0  0999 V2000
  -16.5432  -29.2176   23.6620 C   0  0  0  0  0  0  0  0  0  0  0  0
  -17.3407  -28.1564   23.2456 C   0  0  0  0  0  0  0  0  0  0  0  0
  -26.6765  -15.3178   21.4496 C   0  0  0  0  0  0  0  0  0  0  0  0
  -26.7068  -15.0301   19.0509 C   0  0  0  0  0  0  0  0  0  0  0  0
  -17.0277  -30.5229   23.5886 C   0  0  0  0  0  0  0  0  0  0  0  0
  -18.6229  -28.4001   22.7546 C   0  0  0  0  0  0  0  0  0  0  0  0
  -25.1575  -25.4750   22.5120 C   0  0  0  0  0  0  0  0  0  0  0  0
  -26.3705  -13.9662   21.6078 C   0  0  0  0  0  0  0  0  0  0  0  0
  -26.4009  -13.6785   19.2092 C   0  0  0  0  0  0  0  0  0  0  0  0
  -26.1532  -25.1376   21.5963 C   0  0  0  0  0  0  0  0  0  0  0  0
  -25.9371  -10.5128   22.6574 C   0  0  0  0  0  0  0  0  0  0  0  0
  -26.6347   -9.7999   23.6324 C   0  0  0  0  0  0  0  0  0  0  0  0
  -26.9143  -27.4267   21.5896 C   0  0  0  0  0  0  0  0  0  0  0  0
  -28.7148  -10.2999   22.5098 C   0  0  0  0  0  0  0  0  0  0  0  0
  -26.8446  -15.8498   20.1711 C   0  0  0  0  0  0  0  0  0  0  0  0
  -28.4410  -17.8276   19.9532 C   0  0  0  0  0  0  0  0  0  0  0  0
  -18.3200  -30.7818   23.1054 C   0  0  0  0  0  0  0  0  0  0  0  0
  -25.0256  -26.7952   22.9658 C   0  0  0  0  0  0  0  0  0  0  0  0
  -19.1246  -29.7102   22.6734 C   0  0  0  0  0  0  0  0  0  0  0  0
  -25.9177  -27.7777   22.5130 C   0  0  0  0  0  0  0  0  0  0  0  0
  -30.4547  -23.6988   19.0243 C   0  0  0  0  0  0  0  0  0  0  0  0
  -26.2327  -13.1465   20.4877 C   0  0  0  0  0  0  0  0  0  0  0  0
  -27.0299  -26.1140   21.1327 C   0  0  0  0  0  0  0  0  0  0  0  0
  -26.6284  -11.1193   21.6085 C   0  0  0  0  0  0  0  0  0  0  0  0
  -28.0236   -9.6934   23.5586 C   0  0  0  0  0  0  0  0  0  0  0  0
  -28.0172  -11.0129   21.5347 C   0  0  0  0  0  0  0  0  0  0  0  0
  -27.1601  -17.2461   20.0069 C   0  0  0  0  0  0  0  0  0  0  0  0
  -31.0756  -23.8496   17.7699 C   0  0  0  0  0  0  0  0  0  0  0  0
  -29.2126  -24.2622   18.8625 C   0  0  0  0  0  0  0  0  0  0  0  0
  -28.2020  -19.1700   19.7883 C   0  0  0  0  0  0  0  0  0  0  0  0
  -29.7315  -17.2095   20.0440 C   0  0  0  0  0  0  0  0  0  0  0  0
  -22.7502  -29.0083   22.7974 C   0  0  0  0  0  0  0  0  0  0  0  0
  -24.7534  -30.6584   24.7433 C   0  0  0  0  0  0  0  0  0  0  0  0
  -27.9355  -31.1645   25.8680 C   0  0  0  0  0  0  0  0  0  0  0  0
  -25.4506  -23.3577   17.3310 C   0  0  0  0  0  0  0  0  0  0  0  0
  -18.7825  -32.2135   23.0006 C   0  0  0  0  0  0  0  0  0  0  0  0
  -23.9632  -27.1375   23.9740 C   0  0  0  0  0  0  0  0  0  0  0  0
  -25.8312  -29.2054   22.9847 C   0  0  0  0  0  0  0  0  0  0  0  0
  -20.2915  -32.3544   22.8186 C   0  0  0  0  0  0  0  0  0  0  0  0
  -23.9068  -21.8177   20.1456 C   0  0  0  0  0  0  0  0  0  0  0  0
  -20.7931  -31.3869   21.7513 C   0  0  0  0  0  0  0  0  0  0  0  0
  -24.7170  -20.5367   20.3517 C   0  0  0  0  0  0  0  0  0  0  0  0
  -23.7463  -22.1516   18.6641 C   0  0  0  0  0  0  0  0  0  0  0  0
  -25.8187  -20.9383   18.1104 C   0  0  0  0  0  0  0  0  0  0  0  0
  -20.5301  -29.9320   22.1581 C   0  0  1  0  0  0  0  0  0  0  0  0
  -23.5963  -28.6183   23.9762 C   0  0  1  0  0  0  0  0  0  0  0  0
  -26.0551  -20.5908   19.5901 C   0  0  2  0  0  0  0  0  0  0  0  0
  -32.4287  -23.4212   17.3740 C   0  0  0  0  0  0  0  0  0  0  0  0
  -29.2664  -32.6088   27.4301 C   0  0  0  0  0  0  0  0  0  0  0  0
  -33.5804  -24.3995   22.8960 C   0  0  0  0  0  0  0  0  0  0  0  0
  -31.5155  -23.0400   23.2813 C   0  0  0  0  0  0  0  0  0  0  0  0
  -24.5972  -32.9592   22.7453 C   0  0  0  0  0  0  0  0  0  0  0  0
  -26.6245  -33.9482   23.8317 C   0  0  0  0  0  0  0  0  0  0  0  0
  -24.5247  -33.6557   25.1462 C   0  0  0  0  0  0  0  0  0  0  0  0
  -28.7878  -28.8346   27.4817 C   0  0  0  0  0  0  0  0  0  0  0  0
  -31.0095  -23.0778   20.2395 C   0  0  0  0  0  0  0  0  0  0  0  0
  -28.0669  -24.4256   19.8175 C   0  0  0  0  0  0  0  0  0  1  0  0
  -32.0184  -23.9956   20.9698 C   0  0  0  0  0  0  0  0  0  0  0  0
  -28.0634  -25.3651   16.9187 C   0  0  0  0  0  0  0  0  0  0  0  0
  -27.2565  -24.4370   16.0146 C   0  0  0  0  0  0  0  0  0  0  0  0
  -25.8959  -31.6223   24.5320 C   0  0  1  0  0  0  0  0  0  0  0  0
  -28.4973  -31.3064   27.2710 C   0  0  2  0  0  0  0  0  0  0  0  0
  -32.6008  -23.4052   22.2675 C   0  0  0  0  0  0  0  0  0  0  0  0
  -25.4113  -33.0199   24.0532 C   0  0  0  0  0  0  0  0  0  0  0  0
  -26.1800  -18.1455   19.8862 N   0  0  0  0  0  0  0  0  0  0  0  0
  -30.2924  -24.4606   16.8770 N   0  0  0  0  0  0  0  0  0  0  0  0
  -29.1666  -24.6988   17.5713 N   0  0  0  0  0  0  0  0  0  0  0  0
  -26.8453  -19.3058   19.7550 N   0  0  0  0  0  0  0  0  0  0  0  0
  -24.7715  -29.4917   23.9659 N   0  0  0  0  0  0  0  0  0  0  0  0
  -25.0517  -22.1890   18.0004 N   0  0  0  0  0  0  0  0  0  0  0  0
  -29.0222  -20.2358   19.6701 N   0  0  0  0  0  0  0  0  0  0  0  0
  -29.7963  -15.8196   20.2123 N   0  0  0  0  0  0  0  0  0  0  0  0
  -21.5031  -29.4971   23.1371 N   0  0  0  0  0  0  0  0  0  0  0  0
  -26.6464  -31.6463   25.7829 N   0  0  0  0  0  0  0  0  0  0  0  0
  -26.7046  -23.3109   16.7344 N   0  0  0  0  0  0  0  0  0  0  0  0
  -29.4191  -30.1760   27.5767 N   0  3  0  0  0  0  0  0  0  0  0  0
  -30.7955  -17.8721   19.9944 O   0  0  0  0  0  0  0  0  0  0  0  0
  -23.1963  -28.8770   21.6636 O   0  0  0  0  0  0  0  0  0  0  0  0
  -23.8809  -30.9272   25.5729 O   0  0  0  0  0  0  0  0  0  0  0  0
  -28.5775  -30.6785   24.9394 O   0  0  0  0  0  0  0  0  0  0  0  0
  -24.7439  -24.3698   17.2740 O   0  0  0  0  0  0  0  0  0  0  0  0
  -25.9344  -11.8275   20.6418 O   0  0  0  0  0  0  0  0  0  0  0  0
  -28.0023  -25.7875   20.2384 O   0  0  0  0  0  0  0  0  0  1  0  0
  -28.6935   -9.0100   24.4958 F   0  0  0  0  0  0  0  0  0  0  0  0
  -28.6869  -11.5944   20.5301 F   0  0  0  0  0  0  0  0  0  0  0  0
  1  2  1  0  0  0  0
  1  5  2  0  0  0  0
  2  6  2  0  0  0  0
  3  8  2  0  0  0  0
  3 15  1  0  0  0  0
  4  9  1  0  0  0  0
  4 15  2  0  0  0  0
  5 17  1  0  0  0  0
  6 19  1  0  0  0  0
  7 10  2  0  0  0  0
  7 18  1  0  0  0  0
  8 22  1  0  0  0  0
  9 22  2  0  0  0  0
 10 23  1  0  0  0  0
 11 12  2  0  0  0  0
 11 24  1  0  0  0  0
 12 25  1  0  0  0  0
 13 20  1  0  0  0  0
 13 23  2  0  0  0  0
 14 25  2  0  0  0  0
 14 26  1  0  0  0  0
 15 27  1  0  0  0  0
 16 27  1  0  0  0  0
 16 30  2  0  0  0  0
 16 31  1  0  0  0  0
 17 19  2  0  0  0  0
 17 36  1  0  0  0  0
 18 20  2  0  0  0  0
 18 37  1  0  0  0  0
 19 45  1  0  0  0  0
 20 38  1  0  0  0  0
 21 28  1  0  0  0  0
 21 29  2  0  0  0  0
 21 56  1  0  0  0  0
 22 82  1  0  0  0  0
 23 83  1  0  0  0  0
 24 26  2  0  0  0  0
 24 82  1  0  0  0  0
 25 84  1  0  0  0  0
 26 85  1  0  0  0  0
 27 65  2  0  0  0  0
 28 48  1  0  0  0  0
 28 66  2  0  0  0  0
 29 57  1  0  0  0  0
 29 67  1  0  0  0  0
 30 68  1  0  0  0  0
 30 71  1  0  0  0  0
 31 72  1  0  0  0  0
 31 77  2  0  0  0  0
 32 46  1  0  0  0  0
 32 73  1  0  0  0  0
 32 78  2  0  0  0  0
 33 61  1  0  0  0  0
 33 69  1  0  0  0  0
 33 79  2  0  0  0  0
 34 62  1  0  0  0  0
 34 74  1  0  0  0  0
 34 80  2  0  0  0  0
 35 70  1  0  0  0  0
 35 75  1  0  0  0  0
 35 81  2  0  0  0  0
 36 39  1  0  0  0  0
 37 46  1  0  0  0  0
 38 69  1  0  0  0  0
 39 41  1  0  0  0  0
 40 42  1  0  0  0  0
 40 43  1  0  0  0  0
 41 45  1  0  0  0  0
 42 47  1  0  0  0  0
 43 70  1  0  0  0  0
 44 47  1  0  0  0  0
 44 70  1  0  0  0  0
 45 73  1  0  0  0  0
 46 69  1  0  0  0  0
 47 68  1  0  0  0  0
 49 62  1  0  0  0  0
 50 63  1  0  0  0  0
 51 63  1  0  0  0  0
 52 64  1  0  0  0  0
 53 64  1  0  0  0  0
 54 64  1  0  0  0  0
 55 76  1  0  0  0  0
 56 58  1  0  0  0  0
 57 83  1  0  0  0  0
 58 63  1  0  0  0  0
 59 60  1  0  0  0  0
 59 67  1  0  0  0  0
 60 75  1  0  0  0  0
 61 64  1  0  0  0  0
 61 74  1  0  0  0  0
 62 76  1  0  0  0  0
 65 68  1  0  0  0  0
 66 67  1  0  0  0  0
M  CHG  1  76   1
M  ISO  4  35 100  57 101  75 100  83 101
M  END
> <Batch ID>
0101

> <Smiles>
CNC(C)C(=O)NC(C(=O)N1Cc2cc([101O:1][101CH2:1]c3c(CCC(C)C)c(C)nn3CC[100NH:0][100C:0](=O)N3CCCC(n4nc(-c5ccc(Oc6ccc(F)cc6F)cc5)c(C(N)=O)c4N)C3)ccc2CC1C(=O)NC1CCCc2ccccc21)C(C)(C)C

> <Shape>
0.242

> <Color>
0.086

> <Negative vol penalty>
0.000

$$$$

  -OEChem-04052319363D

 87 95  0     1  0  0  0  0  0999 V2000
  -38.2383  -28.6070   17.7691 C   0  0  0  0  0  0  0  0  0  0  0  0
  -37.8443  -27.6166   18.6632 C   0  0  0  0  0  0  0  0  0  0  0  0
  -23.0964   -9.8572   19.9246 C   0  0  0  0  0  0  0  0  0  0  0  0
  -23.8434   -9.8501   22.2221 C   0  0  0  0  0  0  0  0  0  0  0  0
  -37.4761  -29.7668   17.6351 C   0  0  0  0  0  0  0  0  0  0  0  0
  -36.6884  -27.7859   19.4245 C   0  0  0  0  0  0  0  0  0  0  0  0
  -33.8067  -23.6231   19.5333 C   0  0  0  0  0  0  0  0  0  0  0  0
  -22.3534   -8.7010   20.1626 C   0  0  0  0  0  0  0  0  0  0  0  0
  -23.1004   -8.6939   22.4602 C   0  0  0  0  0  0  0  0  0  0  0  0
  -34.2073  -22.5934   20.3837 C   0  0  0  0  0  0  0  0  0  0  0  0
  -19.8705   -7.8859   23.0392 C   0  0  0  0  0  0  0  0  0  0  0  0
  -19.1071   -7.8366   24.2056 C   0  0  0  0  0  0  0  0  0  0  0  0
  -32.5805  -23.3139   22.0126 C   0  0  0  0  0  0  0  0  0  0  0  0
  -30.6592  -20.2996   20.4203 C   0  0  0  0  0  0  0  0  0  0  0  0
  -20.3481   -5.8966   24.9359 C   0  0  0  0  0  0  0  0  0  0  0  0
  -23.8415  -10.4318   20.9543 C   0  0  0  0  0  0  0  0  0  0  0  0
  -24.1790  -12.9583   20.8533 C   0  0  0  0  0  0  0  0  0  0  0  0
  -36.3050  -29.9461   18.3882 C   0  0  0  0  0  0  0  0  0  0  0  0
  -32.7958  -24.5141   19.9214 C   0  0  0  0  0  0  0  0  0  0  0  0
  -35.9105  -28.9497   19.3014 C   0  0  0  0  0  0  0  0  0  0  0  0
  -32.1671  -24.3525   21.1643 C   0  0  0  0  0  0  0  0  0  0  0  0
  -30.8815  -19.3024   21.3633 C   0  0  0  0  0  0  0  0  0  0  0  0
  -30.1571  -19.9647   19.1677 C   0  0  0  0  0  0  0  0  0  0  0  0
  -22.3553   -8.1193   21.4304 C   0  0  0  0  0  0  0  0  0  0  0  0
  -33.5962  -22.4405   21.6247 C   0  0  0  0  0  0  0  0  0  0  0  0
  -20.8727   -6.9405   22.8211 C   0  0  0  0  0  0  0  0  0  0  0  0
  -19.3459   -6.8420   25.1539 C   0  0  0  0  0  0  0  0  0  0  0  0
  -21.1115   -5.9459   23.7695 C   0  0  0  0  0  0  0  0  0  0  0  0
  -24.6096  -11.6258   20.7089 C   0  0  0  0  0  0  0  0  0  0  0  0
  -30.5876  -17.9960   21.0073 C   0  0  0  0  0  0  0  0  0  0  0  0
  -29.8959  -18.6287   18.9099 C   0  0  0  0  0  0  0  0  0  0  0  0
  -25.2717  -13.7123   20.5012 C   0  0  0  0  0  0  0  0  0  0  0  0
  -22.9052  -13.4689   21.2685 C   0  0  0  0  0  0  0  0  0  0  0  0
  -32.6411  -27.6482   20.4283 C   0  0  0  0  0  0  0  0  0  0  0  0
  -29.4742  -27.0412   20.7807 C   0  0  0  0  0  0  0  0  0  0  0  0
  -26.6885  -25.0656   21.9444 C   0  0  0  0  0  0  0  0  0  0  0  0
  -30.7523  -14.7405   20.7271 C   0  0  0  0  0  0  0  0  0  0  0  0
  -35.5395  -31.2375   18.2434 C   0  0  0  0  0  0  0  0  0  0  0  0
  -32.3567  -25.6032   18.9816 C   0  0  0  0  0  0  0  0  0  0  0  0
  -31.0629  -25.2700   21.6197 C   0  0  0  0  0  0  0  0  0  0  0  0
  -34.1249  -31.1743   18.8137 C   0  0  0  0  0  0  0  0  0  0  0  0
  -29.6327  -12.3700   18.3180 C   0  0  0  0  0  0  0  0  0  0  0  0
  -34.1348  -30.5286   20.1957 C   0  0  0  0  0  0  0  0  0  0  0  0
  -28.1935  -12.0707   18.7408 C   0  0  0  0  0  0  0  0  0  0  0  0
  -30.5427  -12.5845   19.5254 C   0  0  0  0  0  0  0  0  0  0  0  0
  -28.6318  -13.3026   20.9062 C   0  0  0  0  0  0  0  0  0  0  0  0
  -34.6495  -29.0858   20.1268 C   0  0  1  0  0  0  0  0  0  0  0  0
  -31.6721  -26.7662   19.6930 C   0  0  1  0  0  0  0  0  0  0  0  0
  -27.6646  -13.1341   19.7220 C   0  0  2  0  0  0  0  0  0  0  0  0
  -29.3542  -18.2116   17.5817 C   0  0  0  0  0  0  0  0  0  0  0  0
  -32.2532  -20.9219   17.1070 C   0  0  0  0  0  0  0  0  0  0  0  0
  -28.8374  -22.0270   18.6234 C   0  0  0  0  0  0  0  0  0  0  0  0
  -24.2184  -25.3936   21.6467 C   0  0  0  0  0  0  0  0  0  0  0  0
  -35.2270  -19.4558   21.9137 C   0  0  0  0  0  0  0  0  0  0  0  0
  -29.6304  -28.4580   23.4785 C   0  0  0  0  0  0  0  0  0  0  0  0
  -27.4300  -27.4216   24.0717 C   0  0  0  0  0  0  0  0  0  0  0  0
  -27.5872  -28.9895   22.1379 C   0  0  0  0  0  0  0  0  0  0  0  0
  -26.3538  -22.3677   20.7746 C   0  0  0  0  0  0  0  0  0  0  0  0
  -31.4258  -19.6589   22.7236 C   0  0  0  0  0  0  0  0  0  0  0  0
  -30.8071  -16.8828   21.9788 C   0  0  0  0  0  0  0  0  0  0  0  0
  -31.1931  -21.8143   17.7413 C   0  0  0  0  0  0  0  0  0  0  0  0
  -32.9128  -19.3204   22.9037 C   0  0  0  0  0  0  0  0  0  0  0  0
  -29.9170  -21.0284   18.1527 C   0  0  1  0  0  0  0  0  0  0  0  0
  -28.5787  -26.6723   21.9387 C   0  0  1  0  0  0  0  0  0  0  0  0
  -25.4590  -24.6698   21.1468 C   0  0  2  0  0  0  0  0  0  0  0  0
  -33.8484  -20.1014   21.9727 C   0  0  1  0  0  0  0  0  0  1  0  0
  -28.3287  -27.8691   22.8992 C   0  0  0  0  0  0  0  0  0  0  0  0
  -25.8770  -11.5352   20.2971 N   0  0  0  0  0  0  0  0  0  0  0  0
  -30.0988  -17.6321   19.8005 N   0  0  0  0  0  0  0  0  0  0  0  0
  -26.2521  -12.8204   20.1796 N   0  0  0  0  0  0  0  0  0  0  0  0
  -30.6733  -26.3234   20.6679 N   0  0  0  0  0  0  0  0  0  0  0  0
  -29.9852  -13.6060   20.4152 N   0  0  0  0  0  0  0  0  0  0  0  0
  -25.4799  -15.0446   20.4383 N   0  0  0  0  0  0  0  0  0  0  0  0
  -21.8932  -12.5555   21.5940 N   0  0  0  0  0  0  0  0  0  0  0  0
  -33.6175  -28.2045   19.6241 N   0  0  0  0  0  0  0  0  0  0  0  0
  -27.3653  -26.1118   21.3539 N   0  0  0  0  0  0  0  0  0  0  0  0
  -30.1467  -15.6625   21.5720 N   0  0  0  0  0  0  0  0  0  0  0  0
  -25.2222  -23.2023   21.2541 N   0  3  0  0  0  0  0  0  0  0  0  0
  -22.6662  -14.6986   21.3328 O   0  0  0  0  0  0  0  0  0  0  0  0
  -32.5117  -27.8130   21.6357 O   0  0  0  0  0  0  0  0  0  0  0  0
  -29.1194  -27.9285   20.0006 O   0  0  0  0  0  0  0  0  0  0  0  0
  -27.0137  -24.5053   22.9888 O   0  0  0  0  0  0  0  0  0  0  0  0
  -31.8905  -14.9212   20.2810 O   0  0  0  0  0  0  0  0  0  0  0  0
  -21.6302   -6.9912   21.6630 O   0  0  0  0  0  0  0  0  0  0  0  0
  -33.9858  -21.4367   22.4569 O   0  0  0  0  0  0  0  0  0  1  0  0
  -18.6138   -6.7957   26.2746 F   0  0  0  0  0  0  0  0  0  0  0  0
  -22.0737   -5.0356   23.5661 F   0  0  0  0  0  0  0  0  0  0  0  0
  1  2  1  0  0  0  0
  1  5  2  0  0  0  0
  2  6  2  0  0  0  0
  3  8  2  0  0  0  0
  3 16  1  0  0  0  0
  4  9  1  0  0  0  0
  4 16  2  0  0  0  0
  5 18  1  0  0  0  0
  6 20  1  0  0  0  0
  7 10  2  0  0  0  0
  7 19  1  0  0  0  0
  8 24  1  0  0  0  0
  9 24  2  0  0  0  0
 10 25  1  0  0  0  0
 11 12  2  0  0  0  0
 11 26  1  0  0  0  0
 12 27  1  0  0  0  0
 13 21  1  0  0  0  0
 13 25  2  0  0  0  0
 14 22  2  0  0  0  0
 14 23  1  0  0  0  0
 15 27  2  0  0  0  0
 15 28  1  0  0  0  0
 16 29  1  0  0  0  0
 17 29  1  0  0  0  0
 17 32  2  0  0  0  0
 17 33  1  0  0  0  0
 18 20  2  0  0  0  0
 18 38  1  0  0  0  0
 19 21  2  0  0  0  0
 19 39  1  0  0  0  0
 20 47  1  0  0  0  0
 21 40  1  0  0  0  0
 22 30  1  0  0  0  0
 22 59  1  0  0  0  0
 23 31  2  0  0  0  0
 23 63  1  0  0  0  0
 24 84  1  0  0  0  0
 25 85  1  0  0  0  0
 26 28  2  0  0  0  0
 26 84  1  0  0  0  0
 27 86  1  0  0  0  0
 28 87  1  0  0  0  0
 29 68  2  0  0  0  0
 30 60  1  0  0  0  0
 30 69  2  0  0  0  0
 31 50  1  0  0  0  0
 31 69  1  0  0  0  0
 32 70  1  0  0  0  0
 32 73  1  0  0  0  0
 33 74  1  0  0  0  0
 33 79  2  0  0  0  0
 34 48  1  0  0  0  0
 34 75  1  0  0  0  0
 34 80  2  0  0  0  0
 35 64  1  0  0  0  0
 35 71  1  0  0  0  0
 35 81  2  0  0  0  0
 36 65  1  0  0  0  0
 36 76  1  0  0  0  0
 36 82  2  0  0  0  0
 37 72  1  0  0  0  0
 37 77  1  0  0  0  0
 37 83  2  0  0  0  0
 38 41  1  0  0  0  0
 39 48  1  0  0  0  0
 40 71  1  0  0  0  0
 41 43  1  0  0  0  0
 42 44  1  0  0  0  0
 42 45  1  0  0  0  0
 43 47  1  0  0  0  0
 44 49  1  0  0  0  0
 45 72  1  0  0  0  0
 46 49  1  0  0  0  0
 46 72  1  0  0  0  0
 47 75  1  0  0  0  0
 48 71  1  0  0  0  0
 49 70  1  0  0  0  0
 51 61  1  0  0  0  0
 52 63  1  0  0  0  0
 53 65  1  0  0  0  0
 54 66  1  0  0  0  0
 55 67  1  0  0  0  0
 56 67  1  0  0  0  0
 57 67  1  0  0  0  0
 58 78  1  0  0  0  0
 59 62  1  0  0  0  0
 60 77  1  0  0  0  0
 61 63  1  0  0  0  0
 62 66  1  0  0  0  0
 64 67  1  0  0  0  0
 64 76  1  0  0  0  0
 65 78  1  0  0  0  0
 66 85  1  0  0  0  0
 68 70  1  0  0  0  0
M  CHG  1  78   1
M  ISO  4  37 100  66 101  77 100  85 101
M  END
> <Batch ID>
0101

> <Smiles>
CCC(C)c1cc(CC[101CH:1](C)[101O:1]c2ccc3c(c2)CN(C(=O)C(NC(=O)C(C)NC)C(C)(C)C)C(C(=O)NC2CCCc4ccccc42)C3)c(C[100NH:0][100C:0](=O)N2CCCC(n3nc(-c4ccc(Oc5ccc(F)cc5F)cc4)c(C(N)=O)c3N)C2)nc1C

> <Shape>
0.246

> <Color>
0.214

> <Negative vol penalty>
0.000

$$$$

  -OEChem-04052319363D

 85 93  0     1  0  0  0  0  0999 V2000
  -32.3660  -13.8814   20.2180 C   0  0  0  0  0  0  0  0  0  0  0  0
  -31.6041  -14.9921   20.5661 C   0  0  0  0  0  0  0  0  0  0  0  0
  -27.7761  -32.3473   20.4629 C   0  0  0  0  0  0  0  0  0  0  0  0
  -26.0019  -31.6232   21.9343 C   0  0  0  0  0  0  0  0  0  0  0  0
  -31.7450  -12.7467   19.6978 C   0  0  0  0  0  0  0  0  0  0  0  0
  -30.2206  -14.9691   20.3932 C   0  0  0  0  0  0  0  0  0  0  0  0
  -27.7318  -16.8302   24.3916 C   0  0  0  0  0  0  0  0  0  0  0  0
  -27.5954  -33.6621   20.8920 C   0  0  0  0  0  0  0  0  0  0  0  0
  -25.8212  -32.9381   22.3635 C   0  0  0  0  0  0  0  0  0  0  0  0
  -27.6850  -18.2174   24.5232 C   0  0  0  0  0  0  0  0  0  0  0  0
  -27.3198  -35.0883   24.4968 C   0  0  0  0  0  0  0  0  0  0  0  0
  -27.1776  -35.3075   25.8669 C   0  0  0  0  0  0  0  0  0  0  0  0
  -26.1263  -20.8292   17.2896 C   0  0  0  0  0  0  0  0  0  0  0  0
  -27.4631  -20.3607   17.2691 C   0  0  0  0  0  0  0  0  0  0  0  0
  -25.4565  -18.2239   23.5997 C   0  0  0  0  0  0  0  0  0  0  0  0
  -24.9938  -36.2684   25.4864 C   0  0  0  0  0  0  0  0  0  0  0  0
  -26.9793  -31.3278   20.9840 C   0  0  0  0  0  0  0  0  0  0  0  0
  -28.0225  -29.0027   21.0991 C   0  0  0  0  0  0  0  0  0  0  0  0
  -30.3522  -12.7062   19.5274 C   0  0  0  0  0  0  0  0  0  0  0  0
  -26.6436  -16.1294   23.8520 C   0  0  0  0  0  0  0  0  0  0  0  0
  -29.5805  -13.8333   19.8690 C   0  0  0  0  0  0  0  0  0  0  0  0
  -25.4910  -16.8276   23.4646 C   0  0  0  0  0  0  0  0  0  0  0  0
  -26.6180  -33.9575   21.8423 C   0  0  0  0  0  0  0  0  0  0  0  0
  -26.5484  -18.9148   24.1245 C   0  0  0  0  0  0  0  0  0  0  0  0
  -26.2991  -35.4593   23.6214 C   0  0  0  0  0  0  0  0  0  0  0  0
  -26.0145  -35.8975   26.3618 C   0  0  0  0  0  0  0  0  0  0  0  0
  -25.1361  -36.0493   24.1163 C   0  0  0  0  0  0  0  0  0  0  0  0
  -27.1650  -29.9695   20.5406 C   0  0  0  0  0  0  0  0  0  0  0  0
  -25.9624  -21.5548   18.4489 C   0  0  0  0  0  0  0  0  0  0  0  0
  -28.0755  -20.8142   18.4166 C   0  0  0  0  0  0  0  0  0  0  0  0
  -27.8329  -27.8859   20.3224 C   0  0  0  0  0  0  0  0  0  0  0  0
  -28.9108  -29.1051   22.2199 C   0  0  0  0  0  0  0  0  0  0  0  0
  -26.2024  -14.2970   21.2924 C   0  0  0  0  0  0  0  0  0  0  0  0
  -23.2791  -13.8248   22.6166 C   0  0  0  0  0  0  0  0  0  0  0  0
  -20.8197  -14.9637   24.6906 C   0  0  0  0  0  0  0  0  0  0  0  0
  -24.4617  -24.3373   17.6415 C   0  0  0  0  0  0  0  0  0  0  0  0
  -29.7309  -11.4748   18.9172 C   0  0  0  0  0  0  0  0  0  0  0  0
  -26.6995  -14.6304   23.7414 C   0  0  0  0  0  0  0  0  0  0  0  0
  -24.2881  -16.1200   22.8982 C   0  0  0  0  0  0  0  0  0  0  0  0
  -28.2195  -11.3930   19.1154 C   0  0  0  0  0  0  0  0  0  0  0  0
  -25.4050  -27.3091   15.9225 C   0  0  0  0  0  0  0  0  0  0  0  0
  -27.5650  -12.7313   18.7876 C   0  0  0  0  0  0  0  0  0  0  0  0
  -26.0116  -28.1882   17.0176 C   0  0  0  0  0  0  0  0  0  0  0  0
  -24.2245  -26.4926   16.4436 C   0  0  0  0  0  0  0  0  0  0  0  0
  -25.1182  -26.5645   18.7393 C   0  0  0  0  0  0  0  0  0  0  0  0
  -28.0746  -13.8375   19.7194 C   0  0  1  0  0  0  0  0  0  0  0  0
  -25.7329  -14.0715   22.7018 C   0  0  1  0  0  0  0  0  0  0  0  0
  -26.3473  -27.3651   18.2758 C   0  0  2  0  0  0  0  0  0  0  0  0
  -30.5168  -21.2239   17.9416 C   0  0  0  0  0  0  0  0  0  0  0  0
  -29.8019  -19.1306   19.1508 C   0  0  0  0  0  0  0  0  0  0  0  0
  -18.5323  -14.3787   25.5409 C   0  0  0  0  0  0  0  0  0  0  0  0
  -27.9992  -21.6883   25.4711 C   0  0  0  0  0  0  0  0  0  0  0  0
  -22.0706  -14.6843   19.9500 C   0  0  0  0  0  0  0  0  0  0  0  0
  -19.8807  -14.9967   21.1225 C   0  0  0  0  0  0  0  0  0  0  0  0
  -20.9334  -12.7370   21.0314 C   0  0  0  0  0  0  0  0  0  0  0  0
  -21.7653  -14.8429   27.4924 C   0  0  0  0  0  0  0  0  0  0  0  0
  -24.7705  -22.2600   18.9638 C   0  0  0  0  0  0  0  0  0  0  0  0
  -27.4430  -21.2507   21.6413 C   0  0  0  0  0  0  0  0  0  0  0  0
  -27.6865  -21.9611   22.9796 C   0  0  0  0  0  0  0  0  0  0  0  0
  -27.4109  -22.2146   20.4494 C   0  0  0  0  0  0  0  0  0  0  0  0
  -29.4602  -20.6158   18.8921 C   0  0  0  0  0  0  0  0  0  0  0  0
  -21.9390  -14.5136   22.5229 C   0  0  1  0  0  0  0  0  0  0  0  0
  -20.0292  -14.2754   25.7887 C   0  0  2  0  0  0  0  0  0  0  0  0
  -27.7366  -20.9747   24.1518 C   0  0  2  0  0  0  0  0  0  1  0  0
  -21.2292  -14.2467   21.1655 C   0  0  0  0  0  0  0  0  0  0  0  0
  -26.4817  -29.5074   19.4901 N   0  0  0  0  0  0  0  0  0  0  0  0
  -27.1537  -21.5387   19.1262 N   0  0  0  0  0  0  0  0  0  0  0  0
  -26.9097  -28.2381   19.3823 N   0  0  0  0  0  0  0  0  0  0  0  0
  -24.3936  -14.6546   22.8042 N   0  0  0  0  0  0  0  0  0  0  0  0
  -24.6096  -25.7341   17.6363 N   0  0  0  0  0  0  0  0  0  0  0  0
  -28.3677  -26.6469   20.3587 N   0  0  0  0  0  0  0  0  0  0  0  0
  -28.9830  -30.3250   22.9060 N   0  0  0  0  0  0  0  0  0  0  0  0
  -27.4365  -13.7410   21.0147 N   0  0  0  0  0  0  0  0  0  0  0  0
  -21.1768  -14.0843   23.6904 N   0  0  0  0  0  0  0  0  0  0  0  0
  -24.8563  -23.6950   18.8088 N   0  0  0  0  0  0  0  0  0  0  0  0
  -20.3307  -14.8950   27.1101 N   0  3  0  0  0  0  0  0  0  0  0  0
  -29.6317  -28.1481   22.5915 O   0  0  0  0  0  0  0  0  0  0  0  0
  -25.4964  -14.9275   20.5140 O   0  0  0  0  0  0  0  0  0  0  0  0
  -23.3341  -12.5953   22.5339 O   0  0  0  0  0  0  0  0  0  0  0  0
  -21.0899  -16.1624   24.7156 O   0  0  0  0  0  0  0  0  0  0  0  0
  -24.0162  -23.7086   16.6755 O   0  0  0  0  0  0  0  0  0  0  0  0
  -26.4416  -35.2404   22.2615 O   0  0  0  0  0  0  0  0  0  0  0  0
  -26.5004  -20.2688   24.2513 O   0  0  0  0  0  0  0  0  0  1  0  0
  -25.8774  -36.1064   27.6777 F   0  0  0  0  0  0  0  0  0  0  0  0
  -24.1516  -36.4068   23.2803 F   0  0  0  0  0  0  0  0  0  0  0  0
  1  2  1  0  0  0  0
  1  5  2  0  0  0  0
  2  6  2  0  0  0  0
  3  8  2  0  0  0  0
  3 17  1  0  0  0  0
  4  9  1  0  0  0  0
  4 17  2  0  0  0  0
  5 19  1  0  0  0  0
  6 21  1  0  0  0  0
  7 10  2  0  0  0  0
  7 20  1  0  0  0  0
  8 23  1  0  0  0  0
  9 23  2  0  0  0  0
 10 24  1  0  0  0  0
 11 12  2  0  0  0  0
 11 25  1  0  0  0  0
 12 26  1  0  0  0  0
 13 14  1  0  0  0  0
 13 29  2  0  0  0  0
 14 30  2  0  0  0  0
 15 22  1  0  0  0  0
 15 24  2  0  0  0  0
 16 26  2  0  0  0  0
 16 27  1  0  0  0  0
 17 28  1  0  0  0  0
 18 28  1  0  0  0  0
 18 31  2  0  0  0  0
 18 32  1  0  0  0  0
 19 21  2  0  0  0  0
 19 37  1  0  0  0  0
 20 22  2  0  0  0  0
 20 38  1  0  0  0  0
 21 46  1  0  0  0  0
 22 39  1  0  0  0  0
 23 82  1  0  0  0  0
 24 83  1  0  0  0  0
 25 27  2  0  0  0  0
 25 82  1  0  0  0  0
 26 84  1  0  0  0  0
 27 85  1  0  0  0  0
 28 66  2  0  0  0  0
 29 57  1  0  0  0  0
 29 67  1  0  0  0  0
 30 61  1  0  0  0  0
 30 67  1  0  0  0  0
 31 68  1  0  0  0  0
 31 71  1  0  0  0  0
 32 72  1  0  0  0  0
 32 77  2  0  0  0  0
 33 47  1  0  0  0  0
 33 73  1  0  0  0  0
 33 78  2  0  0  0  0
 34 62  1  0  0  0  0
 34 69  1  0  0  0  0
 34 79  2  0  0  0  0
 35 63  1  0  0  0  0
 35 74  1  0  0  0  0
 35 80  2  0  0  0  0
 36 70  1  0  0  0  0
 36 75  1  0  0  0  0
 36 81  2  0  0  0  0
 37 40  1  0  0  0  0
 38 47  1  0  0  0  0
 39 69  1  0  0  0  0
 40 42  1  0  0  0  0
 41 43  1  0  0  0  0
 41 44  1  0  0  0  0
 42 46  1  0  0  0  0
 43 48  1  0  0  0  0
 44 70  1  0  0  0  0
 45 48  1  0  0  0  0
 45 70  1  0  0  0  0
 46 73  1  0  0  0  0
 47 69  1  0  0  0  0
 48 68  1  0  0  0  0
 49 61  1  0  0  0  0
 50 61  1  0  0  0  0
 51 63  1  0  0  0  0
 52 64  1  0  0  0  0
 53 65  1  0  0  0  0
 54 65  1  0  0  0  0
 55 65  1  0  0  0  0
 56 76  1  0  0  0  0
 57 75  1  0  0  0  0
 58 59  1  0  0  0  0
 58 60  1  0  0  0  0
 59 64  1  0  0  0  0
 60 67  1  0  0  0  0
 62 65  1  0  0  0  0
 62 74  1  0  0  0  0
 63 76  1  0  0  0  0
 64 83  1  0  0  0  0
 66 68  1  0  0  0  0
M  CHG  1  76   1
M  ISO  4  36 100  64 101  75 100  83 101
M  END
> <Batch ID>
0101

> <Smiles>
CNC(C)C(=O)NC(C(=O)N1Cc2cc([101O:1][101CH:1](C)CCCn3c(C[100NH:0][100C:0](=O)N4CCCC(n5nc(-c6ccc(Oc7ccc(F)cc7F)cc6)c(C(N)=O)c5N)C4)ccc3C(C)C)ccc2CC1C(=O)NC1CCCc2ccccc21)C(C)(C)C

> <Shape>
0.199

> <Color>
0.072

> <Negative vol penalty>
0.000

$$$$

  -OEChem-04052319363D

 79 86  0     1  0  0  0  0  0999 V2000
  -33.2272  -28.8122   15.9627 C   0  0  0  0  0  0  0  0  0  0  0  0
  -32.5247  -27.8507   16.6821 C   0  0  0  0  0  0  0  0  0  0  0  0
  -21.4310  -10.4848   20.3564 C   0  0  0  0  0  0  0  0  0  0  0  0
  -23.0202  -10.3793   22.1731 C   0  0  0  0  0  0  0  0  0  0  0  0
  -33.3312  -30.1121   16.4558 C   0  0  0  0  0  0  0  0  0  0  0  0
  -31.9268  -28.1884   17.8957 C   0  0  0  0  0  0  0  0  0  0  0  0
  -27.2186  -26.3709   18.3140 C   0  0  0  0  0  0  0  0  0  0  0  0
  -21.3218   -9.0943   20.3712 C   0  0  0  0  0  0  0  0  0  0  0  0
  -22.9110   -8.9888   22.1880 C   0  0  0  0  0  0  0  0  0  0  0  0
  -27.0834  -25.0201   18.6315 C   0  0  0  0  0  0  0  0  0  0  0  0
  -20.7435   -6.6746   23.3570 C   0  0  0  0  0  0  0  0  0  0  0  0
  -20.6121   -6.0496   24.5970 C   0  0  0  0  0  0  0  0  0  0  0  0
  -26.6641  -25.6093   20.9329 C   0  0  0  0  0  0  0  0  0  0  0  0
  -22.6454   -4.8105   24.1879 C   0  0  0  0  0  0  0  0  0  0  0  0
  -22.2803  -11.1273   21.2573 C   0  0  0  0  0  0  0  0  0  0  0  0
  -21.6203  -13.4854   21.9726 C   0  0  0  0  0  0  0  0  0  0  0  0
  -32.7261  -30.4684   17.6714 C   0  0  0  0  0  0  0  0  0  0  0  0
  -27.0882  -27.3521   19.3073 C   0  0  0  0  0  0  0  0  0  0  0  0
  -32.0240  -29.4940   18.4062 C   0  0  0  0  0  0  0  0  0  0  0  0
  -26.7956  -26.9720   20.6249 C   0  0  0  0  0  0  0  0  0  0  0  0
  -22.0618   -8.3463   21.2870 C   0  0  0  0  0  0  0  0  0  0  0  0
  -26.8090  -24.6390   19.9417 C   0  0  0  0  0  0  0  0  0  0  0  0
  -21.8258   -6.3675   22.5324 C   0  0  0  0  0  0  0  0  0  0  0  0
  -21.5630   -5.1176   25.0125 C   0  0  0  0  0  0  0  0  0  0  0  0
  -22.7768   -5.4355   22.9479 C   0  0  0  0  0  0  0  0  0  0  0  0
  -22.3940  -12.5636   21.2421 C   0  0  0  0  0  0  0  0  0  0  0  0
  -22.1171  -14.7136   21.6105 C   0  0  0  0  0  0  0  0  0  0  0  0
  -20.5486  -13.2522   22.8960 C   0  0  0  0  0  0  0  0  0  0  0  0
  -29.0080  -29.5655   20.5397 C   0  0  0  0  0  0  0  0  0  0  0  0
  -26.3196  -30.4605   22.1188 C   0  0  0  0  0  0  0  0  0  0  0  0
  -23.2494  -29.5965   23.3331 C   0  0  0  0  0  0  0  0  0  0  0  0
  -27.4266  -16.3847   19.6428 C   0  0  0  0  0  0  0  0  0  0  0  0
  -32.9058  -31.8742   18.1872 C   0  0  0  0  0  0  0  0  0  0  0  0
  -27.2104  -28.8064   18.9434 C   0  0  0  0  0  0  0  0  0  0  0  0
  -26.6261  -27.9875   21.7241 C   0  0  0  0  0  0  0  0  0  0  0  0
  -31.9262  -32.2456   19.2974 C   0  0  0  0  0  0  0  0  0  0  0  0
  -24.2681  -16.9585   17.9717 C   0  0  0  0  0  0  0  0  0  0  0  0
  -31.8515  -31.1326   20.3379 C   0  0  0  0  0  0  0  0  0  0  0  0
  -23.3541  -15.9729   18.7020 C   0  0  0  0  0  0  0  0  0  0  0  0
  -25.6646  -16.3759   17.7751 C   0  0  0  0  0  0  0  0  0  0  0  0
  -25.4155  -14.9413   19.7634 C   0  0  0  0  0  0  0  0  0  0  0  0
  -31.3406  -29.8280   19.7145 C   0  0  1  0  0  0  0  0  0  0  0  0
  -27.5670  -29.6922   20.1332 C   0  0  1  0  0  0  0  0  0  0  0  0
  -23.9951  -15.4802   20.0130 C   0  0  2  0  0  0  0  0  0  0  0  0
  -21.3024  -30.5305   24.6114 C   0  0  0  0  0  0  0  0  0  0  0  0
  -30.5363  -19.7333   20.7131 C   0  0  0  0  0  0  0  0  0  0  0  0
  -26.4678  -20.4382   20.7609 C   0  0  0  0  0  0  0  0  0  0  0  0
  -27.9190  -30.2445   24.7083 C   0  0  0  0  0  0  0  0  0  0  0  0
  -25.7532  -30.2457   25.9643 C   0  0  0  0  0  0  0  0  0  0  0  0
  -26.3945  -32.2233   24.5857 C   0  0  0  0  0  0  0  0  0  0  0  0
  -21.3952  -29.1345   21.0732 C   0  0  0  0  0  0  0  0  0  0  0  0
  -29.4205  -20.8959   18.4728 C   0  0  0  0  0  0  0  0  0  0  0  0
  -29.3881  -17.8818   19.3821 C   0  0  0  0  0  0  0  0  0  0  0  0
  -27.4261  -22.3903   19.4741 C   0  0  0  0  0  0  0  0  0  1  0  0
  -25.6787  -30.0893   23.4343 C   0  0  1  0  0  0  0  0  0  0  0  0
  -21.8981  -30.2810   23.2345 C   0  0  2  0  0  0  0  0  0  0  0  0
  -29.2197  -19.1416   20.2286 C   0  0  2  0  0  0  0  0  0  0  0  0
  -27.7317  -21.1373   20.2870 C   0  0  2  0  0  0  0  0  0  0  0  0
  -26.4414  -30.6812   24.6530 C   0  0  0  0  0  0  0  0  0  0  0  0
  -23.3123  -13.1557   20.4739 N   0  0  0  0  0  0  0  0  0  0  0  0
  -23.1188  -14.4627   20.7196 N   0  0  0  0  0  0  0  0  0  0  0  0
  -26.7611  -29.3966   21.3195 N   0  0  0  0  0  0  0  0  0  0  0  0
  -26.2256  -15.9434   19.0629 N   0  0  0  0  0  0  0  0  0  0  0  0
  -21.7903  -15.9730   21.9704 N   0  0  0  0  0  0  0  0  0  0  0  0
  -20.1649  -11.9291   23.1539 N   0  0  0  0  0  0  0  0  0  0  0  0
  -29.9052  -29.8808   19.5372 N   0  0  0  0  0  0  0  0  0  0  0  0
  -24.2842  -30.5078   23.3415 N   0  0  0  0  0  0  0  0  0  0  0  0
  -28.1374  -17.3289   18.9121 N   0  0  0  0  0  0  0  0  0  0  0  0
  -20.9463  -29.4387   22.4563 N   0  3  0  0  0  0  0  0  0  0  0  0
  -28.4931  -20.1876   19.4248 N   0  3  1  0  0  0  0  0  0  0  0  0
  -19.9381  -14.1900   23.4628 O   0  0  0  0  0  0  0  0  0  0  0  0
  -29.2853  -29.2096   21.6791 O   0  0  0  0  0  0  0  0  0  0  0  0
  -26.4181  -31.6504   21.8086 O   0  0  0  0  0  0  0  0  0  0  0  0
  -23.3744  -28.3756   23.4001 O   0  0  0  0  0  0  0  0  0  0  0  0
  -27.8330  -15.9718   20.7342 O   0  0  0  0  0  0  0  0  0  0  0  0
  -21.9552   -6.9895   21.3019 O   0  0  0  0  0  0  0  0  0  0  0  0
  -26.6772  -23.3211   20.2545 O   0  0  0  0  0  0  0  0  0  1  0  0
  -21.4376   -4.5186   26.2040 F   0  0  0  0  0  0  0  0  0  0  0  0
  -23.8193   -5.1373   22.1605 F   0  0  0  0  0  0  0  0  0  0  0  0
  1  2  1  0  0  0  0
  1  5  2  0  0  0  0
  2  6  2  0  0  0  0
  3  8  2  0  0  0  0
  3 15  1  0  0  0  0
  4  9  1  0  0  0  0
  4 15  2  0  0  0  0
  5 17  1  0  0  0  0
  6 19  1  0  0  0  0
  7 10  2  0  0  0  0
  7 18  1  0  0  0  0
  8 21  1  0  0  0  0
  9 21  2  0  0  0  0
 10 22  1  0  0  0  0
 11 12  2  0  0  0  0
 11 23  1  0  0  0  0
 12 24  1  0  0  0  0
 13 20  1  0  0  0  0
 13 22  2  0  0  0  0
 14 24  2  0  0  0  0
 14 25  1  0  0  0  0
 15 26  1  0  0  0  0
 16 26  1  0  0  0  0
 16 27  2  0  0  0  0
 16 28  1  0  0  0  0
 17 19  2  0  0  0  0
 17 33  1  0  0  0  0
 18 20  2  0  0  0  0
 18 34  1  0  0  0  0
 19 42  1  0  0  0  0
 20 35  1  0  0  0  0
 21 76  1  0  0  0  0
 22 77  1  0  0  0  0
 23 25  2  0  0  0  0
 23 76  1  0  0  0  0
 24 78  1  0  0  0  0
 25 79  1  0  0  0  0
 26 60  2  0  0  0  0
 27 61  1  0  0  0  0
 27 64  1  0  0  0  0
 28 65  1  0  0  0  0
 28 71  2  0  0  0  0
 29 43  1  0  0  0  0
 29 66  1  0  0  0  0
 29 72  2  0  0  0  0
 30 55  1  0  0  0  0
 30 62  1  0  0  0  0
 30 73  2  0  0  0  0
 31 56  1  0  0  0  0
 31 67  1  0  0  0  0
 31 74  2  0  0  0  0
 32 63  1  0  0  0  0
 32 68  1  0  0  0  0
 32 75  2  0  0  0  0
 33 36  1  0  0  0  0
 34 43  1  0  0  0  0
 35 62  1  0  0  0  0
 36 38  1  0  0  0  0
 37 39  1  0  0  0  0
 37 40  1  0  0  0  0
 38 42  1  0  0  0  0
 39 44  1  0  0  0  0
 40 63  1  0  0  0  0
 41 44  1  0  0  0  0
 41 63  1  0  0  0  0
 42 66  1  0  0  0  0
 43 62  1  0  0  0  0
 44 61  1  0  0  0  0
 45 56  1  0  0  0  0
 46 57  1  0  0  0  0
 47 58  1  0  0  0  0
 48 59  1  0  0  0  0
 49 59  1  0  0  0  0
 50 59  1  0  0  0  0
 51 69  1  0  0  0  0
 52 70  1  0  0  0  0
 53 57  1  0  0  0  0
 53 68  1  0  0  0  0
 54 58  1  0  0  0  0
 54 77  1  0  0  0  0
 55 59  1  0  0  0  0
 55 67  1  0  0  0  0
 56 69  1  0  0  0  0
 57 70  1  0  0  0  0
 58 70  1  0  0  0  0
 60 61  1  0  0  0  0
M  CHG  2  69   1  70   1
M  ISO  4  32 100  54 101  68 100  77 101
M  END
> <Batch ID>
0101

> <Smiles>
CNC(C)C(=O)NC(C(=O)N1Cc2cc([101O:1][101CH2:1]C(C)N(C)C(C)C[100NH:0][100C:0](=O)N3CCCC(n4nc(-c5ccc(Oc6ccc(F)cc6F)cc5)c(C(N)=O)c4N)C3)ccc2CC1C(=O)NC1CCCc2ccccc21)C(C)(C)C

> <Shape>
0.258

> <Color>
0.090

> <Negative vol penalty>
0.000

$$$$

  -OEChem-04052319363D

 85 93  0     1  0  0  0  0  0999 V2000
  -18.1094  -23.7581   20.6071 C   0  0  0  0  0  0  0  0  0  0  0  0
  -19.1962  -23.0325   21.0845 C   0  0  0  0  0  0  0  0  0  0  0  0
  -25.7660  -13.7974   20.8963 C   0  0  0  0  0  0  0  0  0  0  0  0
  -25.9958  -13.7012   18.4932 C   0  0  0  0  0  0  0  0  0  0  0  0
  -18.3133  -24.9910   19.9889 C   0  0  0  0  0  0  0  0  0  0  0  0
  -20.4877  -23.5390   20.9429 C   0  0  0  0  0  0  0  0  0  0  0  0
  -26.8417  -23.6319   24.2496 C   0  0  0  0  0  0  0  0  0  0  0  0
  -24.7224  -12.8741   20.8335 C   0  0  0  0  0  0  0  0  0  0  0  0
  -24.9522  -12.7778   18.4304 C   0  0  0  0  0  0  0  0  0  0  0  0
  -28.1890  -23.3732   24.0013 C   0  0  0  0  0  0  0  0  0  0  0  0
  -24.3736   -9.5291   20.4837 C   0  0  0  0  0  0  0  0  0  0  0  0
  -24.3802   -8.4800   21.4029 C   0  0  0  0  0  0  0  0  0  0  0  0
  -28.4139  -25.5505   22.9873 C   0  0  0  0  0  0  0  0  0  0  0  0
  -22.2449   -9.2173   22.2597 C   0  0  0  0  0  0  0  0  0  0  0  0
  -26.4027  -14.2110   19.7262 C   0  0  0  0  0  0  0  0  0  0  0  0
  -28.8534  -14.8886   19.9325 C   0  0  0  0  0  0  0  0  0  0  0  0
  -19.6071  -25.5174   19.8483 C   0  0  0  0  0  0  0  0  0  0  0  0
  -26.2668  -24.8496   23.8582 C   0  0  0  0  0  0  0  0  0  0  0  0
  -20.7091  -24.7795   20.3210 C   0  0  0  0  0  0  0  0  0  0  0  0
  -27.0598  -25.8232   23.2341 C   0  0  0  0  0  0  0  0  0  0  0  0
  -30.4108  -25.7299   17.6344 C   0  0  0  0  0  0  0  0  0  0  0  0
  -30.3942  -24.3493   17.3166 C   0  0  0  0  0  0  0  0  0  0  0  0
  -24.3155  -12.3643   19.6006 C   0  0  0  0  0  0  0  0  0  0  0  0
  -28.9746  -24.3314   23.3674 C   0  0  0  0  0  0  0  0  0  0  0  0
  -23.3028  -10.4225   20.4526 C   0  0  0  0  0  0  0  0  0  0  0  0
  -23.3158   -8.3240   22.2908 C   0  0  0  0  0  0  0  0  0  0  0  0
  -22.2384  -10.2665   21.3405 C   0  0  0  0  0  0  0  0  0  0  0  0
  -27.4805  -15.1652   19.7903 C   0  0  0  0  0  0  0  0  0  0  0  0
  -31.2438  -25.8922   18.7193 C   0  0  0  0  0  0  0  0  0  0  0  0
  -31.2174  -23.7100   18.2172 C   0  0  0  0  0  0  0  0  0  0  0  0
  -29.4536  -16.1240   19.9396 C   0  0  0  0  0  0  0  0  0  0  0  0
  -29.5261  -13.6277   20.0478 C   0  0  0  0  0  0  0  0  0  0  0  0
  -23.9399  -25.6932   21.8638 C   0  0  0  0  0  0  0  0  0  0  0  0
  -24.4790  -28.6428   23.1013 C   0  0  0  0  0  0  0  0  0  0  0  0
  -26.6366  -30.7836   24.6533 C   0  0  0  0  0  0  0  0  0  0  0  0
  -27.8200  -21.3040   17.6256 C   0  0  0  0  0  0  0  0  0  0  0  0
  -19.7818  -26.8323   19.1307 C   0  0  0  0  0  0  0  0  0  0  0  0
  -24.8185  -25.1239   24.1573 C   0  0  0  0  0  0  0  0  0  0  0  0
  -26.4956  -27.1545   22.8123 C   0  0  0  0  0  0  0  0  0  0  0  0
  -21.1496  -27.4717   19.3552 C   0  0  0  0  0  0  0  0  0  0  0  0
  -28.6120  -20.6897   21.1031 C   0  0  0  0  0  0  0  0  0  0  0  0
  -22.2574  -26.4376   19.1811 C   0  0  0  0  0  0  0  0  0  0  0  0
  -28.5397  -19.1629   21.1664 C   0  0  0  0  0  0  0  0  0  0  0  0
  -27.5394  -21.2560   20.1774 C   0  0  0  0  0  0  0  0  0  0  0  0
  -27.4926  -19.1770   18.8548 C   0  0  0  0  0  0  0  0  0  0  0  0
  -22.1230  -25.3070   20.2083 C   0  0  1  0  0  0  0  0  0  0  0  0
  -24.2140  -26.1941   23.2536 C   0  0  1  0  0  0  0  0  0  0  0  0
  -28.5661  -18.5418   19.7572 C   0  0  2  0  0  0  0  0  0  0  0  0
  -31.6205  -27.1173   19.4563 C   0  0  0  0  0  0  0  0  0  0  0  0
  -31.5598  -22.2772   18.3450 C   0  0  0  0  0  0  0  0  0  0  0  0
  -28.4289  -27.2644   17.6963 C   0  0  0  0  0  0  0  0  0  0  0  0
  -26.8054  -33.1396   25.5007 C   0  0  0  0  0  0  0  0  0  0  0  0
  -24.8104  -29.6461   20.2389 C   0  0  0  0  0  0  0  0  0  0  0  0
  -25.8886  -31.7090   21.1608 C   0  0  0  0  0  0  0  0  0  0  0  0
  -23.5209  -31.1770   21.7382 C   0  0  0  0  0  0  0  0  0  0  0  0
  -27.0909  -29.8744   27.4328 C   0  0  0  0  0  0  0  0  0  0  0  0
  -29.6731  -26.8004   16.9325 C   0  0  0  0  0  0  0  0  0  0  0  0
  -29.6327  -23.7100   16.2238 C   0  0  0  0  0  0  0  0  0  0  0  0
  -31.9921  -23.8198   21.4529 C   0  0  0  0  0  0  0  0  0  0  0  0
  -32.6760  -24.3834   20.2053 C   0  0  0  0  0  0  0  0  0  0  0  0
  -28.1385  -23.5091   16.5333 C   0  0  0  0  0  0  0  0  0  0  0  0
  -30.8679  -24.7053   21.9775 C   0  0  0  0  0  0  0  0  0  1  0  0
  -25.3833  -29.8000   22.7517 C   0  0  1  0  0  0  0  0  0  0  0  0
  -26.4593  -31.7005   25.8500 C   0  0  2  0  0  0  0  0  0  0  0  0
  -24.9113  -30.5573   21.4785 C   0  0  0  0  0  0  0  0  0  0  0  0
  -27.2234  -16.4736   19.7128 N   0  0  0  0  0  0  0  0  0  0  0  0
  -31.7282  -24.6577   19.0652 N   0  0  0  0  0  0  0  0  0  0  0  0
  -28.4430  -17.0302   19.8067 N   0  0  0  0  0  0  0  0  0  0  0  0
  -25.0727  -27.3728   23.1210 N   0  0  0  0  0  0  0  0  0  0  0  0
  -27.6310  -20.6371   18.8475 N   0  0  0  0  0  0  0  0  0  0  0  0
  -30.7420  -16.5127   20.0465 N   0  0  0  0  0  0  0  0  0  0  0  0
  -28.7578  -12.4557   20.0220 N   0  0  0  0  0  0  0  0  0  0  0  0
  -22.6071  -25.7393   21.5019 N   0  0  0  0  0  0  0  0  0  0  0  0
  -25.4619  -30.6323   23.9473 N   0  0  0  0  0  0  0  0  0  0  0  0
  -27.9349  -22.6864   17.7049 N   0  0  0  0  0  0  0  0  0  0  0  0
  -27.3388  -31.2646   26.9714 N   0  3  0  0  0  0  0  0  0  0  0  0
  -30.7700  -13.5434   20.1865 O   0  0  0  0  0  0  0  0  0  0  0  0
  -24.8690  -25.2958   21.1706 O   0  0  0  0  0  0  0  0  0  0  0  0
  -23.2912  -28.8587   23.3548 O   0  0  0  0  0  0  0  0  0  0  0  0
  -27.7108  -30.2573   24.3707 O   0  0  0  0  0  0  0  0  0  0  0  0
  -27.8870  -20.7106   16.5437 O   0  0  0  0  0  0  0  0  0  0  0  0
  -23.2974  -11.4631   19.5390 O   0  0  0  0  0  0  0  0  0  0  0  0
  -30.2898  -24.0812   23.1233 O   0  0  0  0  0  0  0  0  0  1  0  0
  -23.3215   -7.3156   23.1724 F   0  0  0  0  0  0  0  0  0  0  0  0
  -21.2063  -11.1209   21.3146 F   0  0  0  0  0  0  0  0  0  0  0  0
  1  2  1  0  0  0  0
  1  5  2  0  0  0  0
  2  6  2  0  0  0  0
  3  8  2  0  0  0  0
  3 15  1  0  0  0  0
  4  9  1  0  0  0  0
  4 15  2  0  0  0  0
  5 17  1  0  0  0  0
  6 19  1  0  0  0  0
  7 10  2  0  0  0  0
  7 18  1  0  0  0  0
  8 23  1  0  0  0  0
  9 23  2  0  0  0  0
 10 24  1  0  0  0  0
 11 12  2  0  0  0  0
 11 25  1  0  0  0  0
 12 26  1  0  0  0  0
 13 20  1  0  0  0  0
 13 24  2  0  0  0  0
 14 26  2  0  0  0  0
 14 27  1  0  0  0  0
 15 28  1  0  0  0  0
 16 28  1  0  0  0  0
 16 31  2  0  0  0  0
 16 32  1  0  0  0  0
 17 19  2  0  0  0  0
 17 37  1  0  0  0  0
 18 20  2  0  0  0  0
 18 38  1  0  0  0  0
 19 46  1  0  0  0  0
 20 39  1  0  0  0  0
 21 22  1  0  0  0  0
 21 29  2  0  0  0  0
 21 57  1  0  0  0  0
 22 30  2  0  0  0  0
 22 58  1  0  0  0  0
 23 82  1  0  0  0  0
 24 83  1  0  0  0  0
 25 27  2  0  0  0  0
 25 82  1  0  0  0  0
 26 84  1  0  0  0  0
 27 85  1  0  0  0  0
 28 66  2  0  0  0  0
 29 49  1  0  0  0  0
 29 67  1  0  0  0  0
 30 50  1  0  0  0  0
 30 67  1  0  0  0  0
 31 68  1  0  0  0  0
 31 71  1  0  0  0  0
 32 72  1  0  0  0  0
 32 77  2  0  0  0  0
 33 47  1  0  0  0  0
 33 73  1  0  0  0  0
 33 78  2  0  0  0  0
 34 63  1  0  0  0  0
 34 69  1  0  0  0  0
 34 79  2  0  0  0  0
 35 64  1  0  0  0  0
 35 74  1  0  0  0  0
 35 80  2  0  0  0  0
 36 70  1  0  0  0  0
 36 75  1  0  0  0  0
 36 81  2  0  0  0  0
 37 40  1  0  0  0  0
 38 47  1  0  0  0  0
 39 69  1  0  0  0  0
 40 42  1  0  0  0  0
 41 43  1  0  0  0  0
 41 44  1  0  0  0  0
 42 46  1  0  0  0  0
 43 48  1  0  0  0  0
 44 70  1  0  0  0  0
 45 48  1  0  0  0  0
 45 70  1  0  0  0  0
 46 73  1  0  0  0  0
 47 69  1  0  0  0  0
 48 68  1  0  0  0  0
 51 57  1  0  0  0  0
 52 64  1  0  0  0  0
 53 65  1  0  0  0  0
 54 65  1  0  0  0  0
 55 65  1  0  0  0  0
 56 76  1  0  0  0  0
 58 61  1  0  0  0  0
 59 60  1  0  0  0  0
 59 62  1  0  0  0  0
 60 67  1  0  0  0  0
 61 75  1  0  0  0  0
 62 83  1  0  0  0  0
 63 65  1  0  0  0  0
 63 74  1  0  0  0  0
 64 76  1  0  0  0  0
 66 68  1  0  0  0  0
M  CHG  1  76   1
M  ISO  4  36 100  62 101  75 100  83 101
M  END
> <Batch ID>
0101

> <Smiles>
CCc1c(CC[100NH:0][100C:0](=O)N2CCCC(n3nc(-c4ccc(Oc5ccc(F)cc5F)cc4)c(C(N)=O)c3N)C2)c(C)n(CC[101CH2:1][101O:1]c2ccc3c(c2)CN(C(=O)C(NC(=O)C(C)NC)C(C)(C)C)C(C(=O)NC2CCCc4ccccc42)C3)c1C

> <Shape>
0.254

> <Color>
0.047

> <Negative vol penalty>
0.000

$$$$

  -OEChem-04052319363D

 87 95  0     1  0  0  0  0  0999 V2000
  -30.4348  -22.0130   24.4819 C   0  0  0  0  0  0  0  0  0  0  0  0
  -30.6283  -22.1154   23.1081 C   0  0  0  0  0  0  0  0  0  0  0  0
  -22.9540  -10.0528   19.9244 C   0  0  0  0  0  0  0  0  0  0  0  0
  -23.8252   -9.8515   22.1688 C   0  0  0  0  0  0  0  0  0  0  0  0
  -29.5395  -22.8672   25.1243 C   0  0  0  0  0  0  0  0  0  0  0  0
  -29.9257  -23.0716   22.3755 C   0  0  0  0  0  0  0  0  0  0  0  0
  -32.8694  -25.5400   19.0761 C   0  0  0  0  0  0  0  0  0  0  0  0
  -30.1547  -20.6585   18.8483 C   0  0  0  0  0  0  0  0  0  0  0  0
  -22.1785   -8.9105   20.1229 C   0  0  0  0  0  0  0  0  0  0  0  0
  -23.0497   -8.7092   22.3674 C   0  0  0  0  0  0  0  0  0  0  0  0
  -33.1910  -24.8791   17.8913 C   0  0  0  0  0  0  0  0  0  0  0  0
  -30.0686  -21.3116   17.6189 C   0  0  0  0  0  0  0  0  0  0  0  0
  -23.1822   -5.4335   21.5409 C   0  0  0  0  0  0  0  0  0  0  0  0
  -23.7914   -4.3335   22.1445 C   0  0  0  0  0  0  0  0  0  0  0  0
  -31.4818  -26.1300   16.7367 C   0  0  0  0  0  0  0  0  0  0  0  0
  -31.9765  -20.0621   16.8215 C   0  0  0  0  0  0  0  0  0  0  0  0
  -22.1840   -4.4317   23.9456 C   0  0  0  0  0  0  0  0  0  0  0  0
  -23.7774  -10.5233   20.9473 C   0  0  0  0  0  0  0  0  0  0  0  0
  -24.2119  -13.0364   21.0050 C   0  0  0  0  0  0  0  0  0  0  0  0
  -28.8328  -23.8407   24.4007 C   0  0  0  0  0  0  0  0  0  0  0  0
  -31.8425  -26.4946   19.1025 C   0  0  0  0  0  0  0  0  0  0  0  0
  -29.0191  -23.9388   23.0086 C   0  0  0  0  0  0  0  0  0  0  0  0
  -31.1508  -26.8034   17.9225 C   0  0  0  0  0  0  0  0  0  0  0  0
  -31.1518  -19.7072   19.0645 C   0  0  0  0  0  0  0  0  0  0  0  0
  -32.0627  -19.4091   18.0510 C   0  0  0  0  0  0  0  0  0  0  0  0
  -22.2264   -8.2387   21.3444 C   0  0  0  0  0  0  0  0  0  0  0  0
  -32.4952  -25.1720   16.7220 C   0  0  0  0  0  0  0  0  0  0  0  0
  -30.9794  -21.0134   16.6054 C   0  0  0  0  0  0  0  0  0  0  0  0
  -22.0739   -6.0327   22.1396 C   0  0  0  0  0  0  0  0  0  0  0  0
  -23.2923   -3.8326   23.3469 C   0  0  0  0  0  0  0  0  0  0  0  0
  -21.5748   -5.5317   23.3419 C   0  0  0  0  0  0  0  0  0  0  0  0
  -24.5791  -11.7029   20.7426 C   0  0  0  0  0  0  0  0  0  0  0  0
  -25.3135  -13.7732   20.6443 C   0  0  0  0  0  0  0  0  0  0  0  0
  -22.9847  -13.5620   21.5280 C   0  0  0  0  0  0  0  0  0  0  0  0
  -29.0588  -26.7533   20.6149 C   0  0  0  0  0  0  0  0  0  0  0  0
  -30.8586  -14.5051   20.7156 C   0  0  0  0  0  0  0  0  0  0  0  0
  -29.0379  -29.6989   19.2565 C   0  0  0  0  0  0  0  0  0  0  0  0
  -30.1344  -31.7428   16.7531 C   0  0  0  0  0  0  0  0  0  0  0  0
  -27.8405  -24.7103   25.1315 C   0  0  0  0  0  0  0  0  0  0  0  0
  -31.5258  -27.2179   20.3826 C   0  0  0  0  0  0  0  0  0  0  0  0
  -30.0536  -27.8347   17.8933 C   0  0  0  0  0  0  0  0  0  0  0  0
  -27.4147  -25.9450   24.3412 C   0  0  0  0  0  0  0  0  0  0  0  0
  -29.4835  -12.4554   18.1180 C   0  0  0  0  0  0  0  0  0  0  0  0
  -27.0741  -25.5671   22.9032 C   0  0  0  0  0  0  0  0  0  0  0  0
  -28.0653  -12.1616   18.6053 C   0  0  0  0  0  0  0  0  0  0  0  0
  -30.4690  -12.5299   19.2800 C   0  0  0  0  0  0  0  0  0  0  0  0
  -28.6671  -13.2184   20.8293 C   0  0  0  0  0  0  0  0  0  0  0  0
  -28.2940  -24.9796   22.1834 C   0  0  1  0  0  0  0  0  0  0  0  0
  -30.1160  -27.8005   20.4067 C   0  0  1  0  0  0  0  0  0  0  0  0
  -27.6344  -13.1652   19.6895 C   0  0  2  0  0  0  0  0  0  0  0  0
  -33.1392  -18.3953   18.2598 C   0  0  0  0  0  0  0  0  0  0  0  0
  -30.6115  -14.8380   23.1350 C   0  0  0  0  0  0  0  0  0  0  0  0
  -29.9154  -34.0874   15.8860 C   0  0  0  0  0  0  0  0  0  0  0  0
  -28.9064  -18.0235   20.6905 C   0  0  0  0  0  0  0  0  0  0  0  0
  -26.2846  -29.0221   18.1289 C   0  0  0  0  0  0  0  0  0  0  0  0
  -26.5385  -30.9433   16.5437 C   0  0  0  0  0  0  0  0  0  0  0  0
  -26.5091  -31.3542   19.0040 C   0  0  0  0  0  0  0  0  0  0  0  0
  -33.0247  -32.2690   17.1116 C   0  0  0  0  0  0  0  0  0  0  0  0
  -31.2240  -19.0212   20.3890 C   0  0  0  0  0  0  0  0  0  0  0  0
  -32.0094  -23.0796   13.8070 C   0  0  0  0  0  0  0  0  0  0  0  0
  -30.9539  -16.8341   21.6347 C   0  0  0  0  0  0  0  0  0  0  0  0
  -31.7509  -24.3360   14.6237 C   0  0  0  0  0  0  0  0  0  1  0  0
  -32.1103  -21.8416   14.6842 C   0  0  0  0  0  0  0  0  0  0  0  0
  -30.3172  -15.4430   21.7650 C   0  0  1  0  0  0  0  0  0  0  0  0
  -28.5373  -30.2713   17.9524 C   0  0  1  0  0  0  0  0  0  0  0  0
  -30.7102  -33.1472   16.7787 C   0  0  2  0  0  0  0  0  0  0  0  0
  -30.3939  -17.7115   20.4886 C   0  0  1  0  0  0  0  0  0  0  0  0
  -26.9867  -30.3768   17.9079 C   0  0  0  0  0  0  0  0  0  0  0  0
  -25.8171  -11.5958   20.2530 N   0  0  0  0  0  0  0  0  0  0  0  0
  -26.2374  -12.8714   20.2047 N   0  0  0  0  0  0  0  0  0  0  0  0
  -29.7766  -28.5103   19.1717 N   0  0  0  0  0  0  0  0  0  0  0  0
  -30.0128  -13.4771   20.2988 N   0  0  0  0  0  0  0  0  0  0  0  0
  -25.5722  -15.0980   20.6635 N   0  0  0  0  0  0  0  0  0  0  0  0
  -21.9556  -12.6653   21.8462 N   0  0  0  0  0  0  0  0  0  0  0  0
  -29.2024  -26.0338   21.7859 N   0  0  0  0  0  0  0  0  0  0  0  0
  -29.2282  -31.5437   17.7731 N   0  0  0  0  0  0  0  0  0  0  0  0
  -32.1243  -33.1359   16.3085 N   0  3  0  0  0  0  0  0  0  0  0  0
  -22.8001  -14.7918   21.6924 O   0  0  0  0  0  0  0  0  0  0  0  0
  -28.1771  -26.6098   19.7761 O   0  0  0  0  0  0  0  0  0  0  0  0
  -31.9983  -14.6843   20.2784 O   0  0  0  0  0  0  0  0  0  0  0  0
  -28.7889  -30.2887   20.3110 O   0  0  0  0  0  0  0  0  0  0  0  0
  -30.4537  -30.9072   15.9102 O   0  0  0  0  0  0  0  0  0  0  0  0
  -21.4696   -7.1242   21.5386 O   0  0  0  0  0  0  0  0  0  0  0  0
  -32.8066  -24.5279   15.5644 O   0  0  0  0  0  0  0  0  0  1  0  0
  -30.8952  -21.6554   15.3974 O   0  0  0  0  0  0  0  0  0  0  0  0
  -23.8765   -2.7753   23.9257 F   0  0  0  0  0  0  0  0  0  0  0  0
  -20.5096   -6.1023   23.9212 F   0  0  0  0  0  0  0  0  0  0  0  0
  1  2  1  0  0  0  0
  1  5  2  0  0  0  0
  2  6  2  0  0  0  0
  3  9  2  0  0  0  0
  3 18  1  0  0  0  0
  4 10  1  0  0  0  0
  4 18  2  0  0  0  0
  5 20  1  0  0  0  0
  6 22  1  0  0  0  0
  7 11  2  0  0  0  0
  7 21  1  0  0  0  0
  8 12  2  0  0  0  0
  8 24  1  0  0  0  0
  9 26  1  0  0  0  0
 10 26  2  0  0  0  0
 11 27  1  0  0  0  0
 12 28  1  0  0  0  0
 13 14  2  0  0  0  0
 13 29  1  0  0  0  0
 14 30  1  0  0  0  0
 15 23  1  0  0  0  0
 15 27  2  0  0  0  0
 16 25  1  0  0  0  0
 16 28  2  0  0  0  0
 17 30  2  0  0  0  0
 17 31  1  0  0  0  0
 18 32  1  0  0  0  0
 19 32  1  0  0  0  0
 19 33  2  0  0  0  0
 19 34  1  0  0  0  0
 20 22  2  0  0  0  0
 20 39  1  0  0  0  0
 21 23  2  0  0  0  0
 21 40  1  0  0  0  0
 22 48  1  0  0  0  0
 23 41  1  0  0  0  0
 24 25  2  0  0  0  0
 24 59  1  0  0  0  0
 25 51  1  0  0  0  0
 26 83  1  0  0  0  0
 27 84  1  0  0  0  0
 28 85  1  0  0  0  0
 29 31  2  0  0  0  0
 29 83  1  0  0  0  0
 30 86  1  0  0  0  0
 31 87  1  0  0  0  0
 32 69  2  0  0  0  0
 33 70  1  0  0  0  0
 33 73  1  0  0  0  0
 34 74  1  0  0  0  0
 34 78  2  0  0  0  0
 35 49  1  0  0  0  0
 35 75  1  0  0  0  0
 35 79  2  0  0  0  0
 36 64  1  0  0  0  0
 36 72  1  0  0  0  0
 36 80  2  0  0  0  0
 37 65  1  0  0  0  0
 37 71  1  0  0  0  0
 37 81  2  0  0  0  0
 38 66  1  0  0  0  0
 38 76  1  0  0  0  0
 38 82  2  0  0  0  0
 39 42  1  0  0  0  0
 40 49  1  0  0  0  0
 41 71  1  0  0  0  0
 42 44  1  0  0  0  0
 43 45  1  0  0  0  0
 43 46  1  0  0  0  0
 44 48  1  0  0  0  0
 45 50  1  0  0  0  0
 46 72  1  0  0  0  0
 47 50  1  0  0  0  0
 47 72  1  0  0  0  0
 48 75  1  0  0  0  0
 49 71  1  0  0  0  0
 50 70  1  0  0  0  0
 52 64  1  0  0  0  0
 53 66  1  0  0  0  0
 54 67  1  0  0  0  0
 55 68  1  0  0  0  0
 56 68  1  0  0  0  0
 57 68  1  0  0  0  0
 58 77  1  0  0  0  0
 59 67  1  0  0  0  0
 60 62  1  0  0  0  0
 60 63  1  0  0  0  0
 61 64  1  0  0  0  0
 61 67  1  0  0  0  0
 62 84  1  0  0  0  0
 63 85  1  0  0  0  0
 65 68  1  0  0  0  0
 65 76  1  0  0  0  0
 66 77  1  0  0  0  0
 69 70  1  0  0  0  0
M  CHG  1  77   1
M  ISO  4  36 100  62 101  64 100  84 101
M  END
> <Batch ID>
0101

> <Smiles>
CNC(C)C(=O)NC(C(=O)N1Cc2cc([101O:1][101CH2:1]CCOc3ccc(CC(C)C[100CH:0](C)[100C:0](=O)N4CCCC(n5nc(-c6ccc(Oc7ccc(F)cc7F)cc6)c(C(N)=O)c5N)C4)c(C)c3)ccc2CC1C(=O)NC1CCCc2ccccc21)C(C)(C)C

> <Shape>
0.242

> <Color>
0.204

> <Negative vol penalty>
0.000

$$$$

  -OEChem-04052319363D

 86 94  0     1  0  0  0  0  0999 V2000
  -17.8590  -25.6808   22.6946 C   0  0  0  0  0  0  0  0  0  0  0  0
  -19.1924  -25.2847   22.6703 C   0  0  0  0  0  0  0  0  0  0  0  0
  -24.8774  -14.5099   21.5011 C   0  0  0  0  0  0  0  0  0  0  0  0
  -23.6595  -15.3144   19.5758 C   0  0  0  0  0  0  0  0  0  0  0  0
  -17.5079  -26.9680   22.2898 C   0  0  0  0  0  0  0  0  0  0  0  0
  -20.1754  -26.1752   22.2401 C   0  0  0  0  0  0  0  0  0  0  0  0
  -25.9106  -26.6236   24.3405 C   0  0  0  0  0  0  0  0  0  0  0  0
  -23.9942  -13.4359   21.6111 C   0  0  0  0  0  0  0  0  0  0  0  0
  -22.7763  -14.2403   19.6857 C   0  0  0  0  0  0  0  0  0  0  0  0
  -27.1248  -26.1296   23.8655 C   0  0  0  0  0  0  0  0  0  0  0  0
  -23.5081  -10.4467   20.1073 C   0  0  0  0  0  0  0  0  0  0  0  0
  -24.0510   -9.1811   20.3292 C   0  0  0  0  0  0  0  0  0  0  0  0
  -27.5513  -28.2404   22.7783 C   0  0  0  0  0  0  0  0  0  0  0  0
  -22.8187   -9.0156   22.4007 C   0  0  0  0  0  0  0  0  0  0  0  0
  -27.5449  -25.8219   18.5101 C   0  0  0  0  0  0  0  0  0  0  0  0
  -24.7100  -15.4492   20.4835 C   0  0  0  0  0  0  0  0  0  0  0  0
  -26.8190  -16.6036   19.6307 C   0  0  0  0  0  0  0  0  0  0  0  0
  -18.4882  -27.8780   21.8636 C   0  0  0  0  0  0  0  0  0  0  0  0
  -25.5020  -27.9282   24.0283 C   0  0  0  0  0  0  0  0  0  0  0  0
  -19.8369  -27.4753   21.8280 C   0  0  0  0  0  0  0  0  0  0  0  0
  -26.3327  -28.7494   23.2527 C   0  0  0  0  0  0  0  0  0  0  0  0
  -26.8966  -24.7251   17.9867 C   0  0  0  0  0  0  0  0  0  0  0  0
  -27.8019  -24.0765   17.1110 C   0  0  0  0  0  0  0  0  0  0  0  0
  -22.9437  -13.3011   20.7034 C   0  0  0  0  0  0  0  0  0  0  0  0
  -27.9440  -26.9371   23.0819 C   0  0  0  0  0  0  0  0  0  0  0  0
  -22.6206  -10.9968   21.0322 C   0  0  0  0  0  0  0  0  0  0  0  0
  -23.7062   -8.4656   21.4758 C   0  0  0  0  0  0  0  0  0  0  0  0
  -22.2759  -10.2813   22.1789 C   0  0  0  0  0  0  0  0  0  0  0  0
  -25.6217  -16.5592   20.3698 C   0  0  0  0  0  0  0  0  0  0  0  0
  -28.9760  -24.7967   17.1261 C   0  0  0  0  0  0  0  0  0  0  0  0
  -27.3097  -17.8680   19.8475 C   0  0  0  0  0  0  0  0  0  0  0  0
  -27.4327  -15.5923   18.8205 C   0  0  0  0  0  0  0  0  0  0  0  0
  -23.0473  -29.1939   22.4546 C   0  0  0  0  0  0  0  0  0  0  0  0
  -24.3136  -31.9874   23.5106 C   0  0  0  0  0  0  0  0  0  0  0  0
  -27.0580  -33.6919   24.6104 C   0  0  0  0  0  0  0  0  0  0  0  0
  -25.4756  -23.3123   20.5612 C   0  0  0  0  0  0  0  0  0  0  0  0
  -18.0550  -29.2430   21.3906 C   0  0  0  0  0  0  0  0  0  0  0  0
  -24.2018  -28.4552   24.5707 C   0  0  0  0  0  0  0  0  0  0  0  0
  -25.9493  -30.1641   22.9062 C   0  0  0  0  0  0  0  0  0  0  0  0
  -19.1997  -30.2492   21.3040 C   0  0  0  0  0  0  0  0  0  0  0  0
  -26.6018  -21.3354   23.2998 C   0  0  0  0  0  0  0  0  0  0  0  0
  -20.4055  -29.6273   20.6067 C   0  0  0  0  0  0  0  0  0  0  0  0
  -26.5752  -19.9064   22.7547 C   0  0  0  0  0  0  0  0  0  0  0  0
  -25.4419  -22.1678   22.7579 C   0  0  0  0  0  0  0  0  0  0  0  0
  -25.2995  -20.7565   20.7426 C   0  0  0  0  0  0  0  0  0  0  0  0
  -20.9349  -28.4208   21.3913 C   0  0  1  0  0  0  0  0  0  0  0  0
  -23.6476  -29.6247   23.7629 C   0  0  1  0  0  0  0  0  0  0  0  0
  -26.4819  -19.8944   21.2171 C   0  0  2  0  0  0  0  0  0  0  0  0
  -30.2442  -24.5688   16.4015 C   0  0  0  0  0  0  0  0  0  0  0  0
  -28.4629  -21.6769   16.7127 C   0  0  0  0  0  0  0  0  0  0  0  0
  -27.6222  -23.0870   14.7996 C   0  0  0  0  0  0  0  0  0  0  0  0
  -27.7910  -35.9716   25.3610 C   0  0  0  0  0  0  0  0  0  0  0  0
  -31.6759  -25.5651   21.4919 C   0  0  0  0  0  0  0  0  0  0  0  0
  -24.3072  -32.9411   20.6122 C   0  0  0  0  0  0  0  0  0  0  0  0
  -25.8815  -34.7686   21.2832 C   0  0  0  0  0  0  0  0  0  0  0  0
  -23.5968  -34.6648   22.2792 C   0  0  0  0  0  0  0  0  0  0  0  0
  -27.8270  -32.6906   27.2871 C   0  0  0  0  0  0  0  0  0  0  0  0
  -25.5119  -24.3116   18.2898 C   0  0  0  0  0  0  0  0  0  0  0  0
  -30.9460  -26.4250   19.2525 C   0  0  0  0  0  0  0  0  0  0  0  0
  -29.8423  -26.9057   18.3002 C   0  0  0  0  0  0  0  0  0  0  0  0
  -29.5976  -26.9779   21.3731 C   0  0  0  0  0  0  0  0  0  1  0  0
  -27.5380  -22.8534   16.3253 C   0  0  0  0  0  0  0  0  0  0  0  0
  -25.3333  -32.9667   22.9813 C   0  0  1  0  0  0  0  0  0  0  0  0
  -27.2613  -34.6148   25.7984 C   0  0  2  0  0  0  0  0  0  0  0  0
  -30.4594  -25.9433   20.6371 C   0  0  2  0  0  0  0  0  0  0  0  0
  -24.7863  -33.8080   21.7937 C   0  0  0  0  0  0  0  0  0  0  0  0
  -25.3673  -17.7043   21.0085 N   0  0  0  0  0  0  0  0  0  0  0  0
  -28.8084  -25.8552   17.9802 N   0  0  0  0  0  0  0  0  0  0  0  0
  -26.4116  -18.4801   20.6715 N   0  0  0  0  0  0  0  0  0  0  0  0
  -24.6654  -30.6314   23.4548 N   0  0  0  0  0  0  0  0  0  0  0  0
  -25.4107  -22.1159   21.2943 N   0  0  0  0  0  0  0  0  0  0  0  0
  -28.4175  -18.5047   19.4119 N   0  0  0  0  0  0  0  0  0  0  0  0
  -26.7947  -14.3497   18.7058 N   0  0  0  0  0  0  0  0  0  0  0  0
  -21.7087  -28.8602   22.5326 N   0  0  0  0  0  0  0  0  0  0  0  0
  -25.7691  -33.7604   24.1252 N   0  0  0  0  0  0  0  0  0  0  0  0
  -25.4467  -23.1732   19.1790 N   0  0  0  0  0  0  0  0  0  0  0  0
  -28.2332  -34.0178   26.7577 N   0  3  0  0  0  0  0  0  0  0  0  0
  -28.5232  -15.7794   18.2294 O   0  0  0  0  0  0  0  0  0  0  0  0
  -23.7465  -29.1676   21.4486 O   0  0  0  0  0  0  0  0  0  0  0  0
  -23.2471  -32.4106   23.9636 O   0  0  0  0  0  0  0  0  0  0  0  0
  -27.9540  -32.9841   24.1558 O   0  0  0  0  0  0  0  0  0  0  0  0
  -25.5589  -24.4219   21.0986 O   0  0  0  0  0  0  0  0  0  0  0  0
  -22.0819  -12.2531   20.8102 O   0  0  0  0  0  0  0  0  0  0  0  0
  -29.1293  -26.4572   22.6164 O   0  0  0  0  0  0  0  0  0  1  0  0
  -24.2264   -7.2496   21.6879 F   0  0  0  0  0  0  0  0  0  0  0  0
  -21.4228  -10.8040   23.0704 F   0  0  0  0  0  0  0  0  0  0  0  0
  1  2  1  0  0  0  0
  1  5  2  0  0  0  0
  2  6  2  0  0  0  0
  3  8  2  0  0  0  0
  3 16  1  0  0  0  0
  4  9  1  0  0  0  0
  4 16  2  0  0  0  0
  5 18  1  0  0  0  0
  6 20  1  0  0  0  0
  7 10  2  0  0  0  0
  7 19  1  0  0  0  0
  8 24  1  0  0  0  0
  9 24  2  0  0  0  0
 10 25  1  0  0  0  0
 11 12  2  0  0  0  0
 11 26  1  0  0  0  0
 12 27  1  0  0  0  0
 13 21  1  0  0  0  0
 13 25  2  0  0  0  0
 14 27  2  0  0  0  0
 14 28  1  0  0  0  0
 15 22  2  0  0  0  0
 15 68  1  0  0  0  0
 16 29  1  0  0  0  0
 17 29  1  0  0  0  0
 17 31  2  0  0  0  0
 17 32  1  0  0  0  0
 18 20  2  0  0  0  0
 18 37  1  0  0  0  0
 19 21  2  0  0  0  0
 19 38  1  0  0  0  0
 20 46  1  0  0  0  0
 21 39  1  0  0  0  0
 22 23  1  0  0  0  0
 22 58  1  0  0  0  0
 23 30  2  0  0  0  0
 23 62  1  0  0  0  0
 24 83  1  0  0  0  0
 25 84  1  0  0  0  0
 26 28  2  0  0  0  0
 26 83  1  0  0  0  0
 27 85  1  0  0  0  0
 28 86  1  0  0  0  0
 29 67  2  0  0  0  0
 30 49  1  0  0  0  0
 30 68  1  0  0  0  0
 31 69  1  0  0  0  0
 31 72  1  0  0  0  0
 32 73  1  0  0  0  0
 32 78  2  0  0  0  0
 33 47  1  0  0  0  0
 33 74  1  0  0  0  0
 33 79  2  0  0  0  0
 34 63  1  0  0  0  0
 34 70  1  0  0  0  0
 34 80  2  0  0  0  0
 35 64  1  0  0  0  0
 35 75  1  0  0  0  0
 35 81  2  0  0  0  0
 36 71  1  0  0  0  0
 36 76  1  0  0  0  0
 36 82  2  0  0  0  0
 37 40  1  0  0  0  0
 38 47  1  0  0  0  0
 39 70  1  0  0  0  0
 40 42  1  0  0  0  0
 41 43  1  0  0  0  0
 41 44  1  0  0  0  0
 42 46  1  0  0  0  0
 43 48  1  0  0  0  0
 44 71  1  0  0  0  0
 45 48  1  0  0  0  0
 45 71  1  0  0  0  0
 46 74  1  0  0  0  0
 47 70  1  0  0  0  0
 48 69  1  0  0  0  0
 50 62  1  0  0  0  0
 51 62  1  0  0  0  0
 52 64  1  0  0  0  0
 53 65  1  0  0  0  0
 54 66  1  0  0  0  0
 55 66  1  0  0  0  0
 56 66  1  0  0  0  0
 57 77  1  0  0  0  0
 58 76  1  0  0  0  0
 59 60  1  0  0  0  0
 59 65  1  0  0  0  0
 60 68  1  0  0  0  0
 61 65  1  0  0  0  0
 61 84  1  0  0  0  0
 63 66  1  0  0  0  0
 63 75  1  0  0  0  0
 64 77  1  0  0  0  0
 67 69  1  0  0  0  0
M  CHG  1  77   1
M  ISO  4  36 100  61 101  76 100  84 101
M  END
> <Batch ID>
0101

> <Smiles>
CNC(C)C(=O)NC(C(=O)N1Cc2cc([101O:1][101CH2:1]C(C)CCn3cc(C[100NH:0][100C:0](=O)N4CCCC(n5nc(-c6ccc(Oc7ccc(F)cc7F)cc6)c(C(N)=O)c5N)C4)c(C(C)C)c3C)ccc2CC1C(=O)NC1CCCc2ccccc21)C(C)(C)C

> <Shape>
0.246

> <Color>
0.068

> <Negative vol penalty>
0.000

$$$$

  -OEChem-04052319363D

 87 95  0     1  0  0  0  0  0999 V2000
  -34.2954  -29.0244   17.7626 C   0  0  0  0  0  0  0  0  0  0  0  0
  -33.6071  -28.2236   18.6683 C   0  0  0  0  0  0  0  0  0  0  0  0
  -23.6919   -9.4478   19.9759 C   0  0  0  0  0  0  0  0  0  0  0  0
  -23.3237  -10.0726   22.2805 C   0  0  0  0  0  0  0  0  0  0  0  0
  -34.1965  -30.4127   17.8461 C   0  0  0  0  0  0  0  0  0  0  0  0
  -32.8203  -28.8105   19.6586 C   0  0  0  0  0  0  0  0  0  0  0  0
  -28.3137  -26.5537   20.1513 C   0  0  0  0  0  0  0  0  0  0  0  0
  -22.9596   -8.2777   20.1761 C   0  0  0  0  0  0  0  0  0  0  0  0
  -22.5914   -8.9025   22.4807 C   0  0  0  0  0  0  0  0  0  0  0  0
  -28.2787  -25.3471   20.8488 C   0  0  0  0  0  0  0  0  0  0  0  0
  -19.7061   -7.3777   20.3700 C   0  0  0  0  0  0  0  0  0  0  0  0
  -18.7661   -7.0275   19.4009 C   0  0  0  0  0  0  0  0  0  0  0  0
  -27.4963  -26.5112   22.8114 C   0  0  0  0  0  0  0  0  0  0  0  0
  -19.9387   -4.9508   19.0141 C   0  0  0  0  0  0  0  0  0  0  0  0
  -23.8740  -10.3453   21.0281 C   0  0  0  0  0  0  0  0  0  0  0  0
  -24.1381  -12.8047   20.4044 C   0  0  0  0  0  0  0  0  0  0  0  0
  -33.4004  -31.0168   18.8319 C   0  0  0  0  0  0  0  0  0  0  0  0
  -27.9500  -27.7518   20.7828 C   0  0  0  0  0  0  0  0  0  0  0  0
  -32.7117  -30.2082   19.7562 C   0  0  0  0  0  0  0  0  0  0  0  0
  -27.5250  -27.7314   22.1189 C   0  0  0  0  0  0  0  0  0  0  0  0
  -22.4093   -8.0050   21.4285 C   0  0  0  0  0  0  0  0  0  0  0  0
  -27.8727  -25.3261   22.1799 C   0  0  0  0  0  0  0  0  0  0  0  0
  -20.7625   -6.5146   20.6612 C   0  0  0  0  0  0  0  0  0  0  0  0
  -18.8823   -5.8140   18.7229 C   0  0  0  0  0  0  0  0  0  0  0  0
  -20.8787   -5.3011   19.9832 C   0  0  0  0  0  0  0  0  0  0  0  0
  -24.6309  -11.5539   20.8220 C   0  0  0  0  0  0  0  0  0  0  0  0
  -25.2470  -13.6142   20.3629 C   0  0  0  0  0  0  0  0  0  0  0  0
  -30.8443  -17.9686   23.7703 C   0  0  0  0  0  0  0  0  0  0  0  0
  -32.7071  -19.3591   24.3687 C   0  0  0  0  0  0  0  0  0  0  0  0
  -31.3790  -19.2262   24.2426 C   0  0  0  0  0  0  0  0  0  0  0  0
  -31.6475  -16.9423   23.4589 C   0  0  0  0  0  0  0  0  0  0  0  0
  -33.1347  -17.0847   23.5977 C   0  0  0  0  0  0  0  0  0  0  0  0
  -22.7979  -13.1996   20.0827 C   0  0  0  0  0  0  0  0  0  0  0  0
  -29.4466  -30.4717   21.4656 C   0  0  0  0  0  0  0  0  0  0  0  0
  -26.4926  -31.4008   22.4315 C   0  0  0  0  0  0  0  0  0  0  0  0
  -23.3945  -30.5052   23.5480 C   0  0  0  0  0  0  0  0  0  0  0  0
  -29.8037  -15.4861   22.8375 C   0  0  0  0  0  0  0  0  0  0  0  0
  -33.3621  -32.5224   18.9121 C   0  0  0  0  0  0  0  0  0  0  0  0
  -27.9676  -29.0413   20.0087 C   0  0  0  0  0  0  0  0  0  0  0  0
  -27.1051  -28.9871   22.8368 C   0  0  0  0  0  0  0  0  0  0  0  0
  -32.2094  -33.0582   19.7574 C   0  0  0  0  0  0  0  0  0  0  0  0
  -30.1551  -12.5136   20.6696 C   0  0  0  0  0  0  0  0  0  0  0  0
  -32.1127  -32.2939   21.0739 C   0  0  0  0  0  0  0  0  0  0  0  0
  -28.6996  -12.0767   20.5333 C   0  0  0  0  0  0  0  0  0  0  0  0
  -30.4439  -13.1280   22.0387 C   0  0  0  0  0  0  0  0  0  0  0  0
  -28.0722  -13.8149   22.2535 C   0  0  0  0  0  0  0  0  0  0  0  0
  -31.8284  -30.8071   20.8291 C   0  0  1  0  0  0  0  0  0  0  0  0
  -28.0677  -30.2735   20.9026 C   0  0  1  0  0  0  0  0  0  0  0  0
  -27.7520  -13.2391   20.8654 C   0  0  2  0  0  0  0  0  0  0  0  0
  -21.2073  -31.4877   24.2885 C   0  0  0  0  0  0  0  0  0  0  0  0
  -37.2105  -18.8062   27.4574 C   0  0  0  0  0  0  0  0  0  0  0  0
  -37.3582  -20.2075   25.3896 C   0  0  0  0  0  0  0  0  0  0  0  0
  -27.7450  -32.1667   25.1064 C   0  0  0  0  0  0  0  0  0  0  0  0
  -25.4424  -32.2287   26.0876 C   0  0  0  0  0  0  0  0  0  0  0  0
  -26.0528  -33.7932   24.2430 C   0  0  0  0  0  0  0  0  0  0  0  0
  -21.9175  -29.1568   21.3664 C   0  0  0  0  0  0  0  0  0  0  0  0
  -30.4112  -20.3144   24.5660 C   0  0  0  0  0  0  0  0  0  0  0  0
  -30.1217  -21.1984   23.3528 C   0  0  0  0  0  0  0  0  0  0  0  0
  -29.1052  -22.2874   23.6908 C   0  0  0  0  0  0  0  0  0  0  0  0
  -35.4291  -18.5649   25.7019 C   0  0  0  0  0  0  0  0  0  0  0  0
  -35.0067  -18.5833   24.2347 C   0  0  0  0  0  0  0  0  0  0  0  0
  -28.7778  -23.1471   22.4780 C   0  0  0  0  0  0  0  0  0  1  0  0
  -25.7237  -31.3397   23.7293 C   0  0  1  0  0  0  0  0  0  0  0  0
  -22.0046  -30.9368   23.1164 C   0  0  2  0  0  0  0  0  0  0  0  0
  -36.9221  -18.8549   25.9544 C   0  0  0  0  0  0  0  0  0  0  0  0
  -26.2507  -32.3585   24.7789 C   0  0  0  0  0  0  0  0  0  0  0  0
  -25.9501  -11.5630   21.0308 N   0  0  0  0  0  0  0  0  0  0  0  0
  -26.2957  -12.8295   20.7431 N   0  0  0  0  0  0  0  0  0  0  0  0
  -33.5806  -18.3300   24.0613 N   0  0  0  0  0  0  0  0  0  0  0  0
  -27.1455  -30.2238   22.0390 N   0  0  0  0  0  0  0  0  0  0  0  0
  -29.4859  -14.1963   22.3663 N   0  0  0  0  0  0  0  0  0  0  0  0
  -25.4175  -14.9135   20.0386 N   0  0  0  0  0  0  0  0  0  0  0  0
  -21.7782  -12.2428   20.1785 N   0  0  0  0  0  0  0  0  0  0  0  0
  -31.1604  -15.7468   23.0105 N   0  0  0  0  0  0  0  0  0  0  0  0
  -30.4321  -30.6059   20.5063 N   0  0  0  0  0  0  0  0  0  0  0  0
  -24.3182  -31.5150   23.3796 N   0  0  0  0  0  0  0  0  0  0  0  0
  -21.2585  -29.7817   22.5420 N   0  3  0  0  0  0  0  0  0  0  0  0
  -33.8683  -16.1394   23.3095 O   0  0  0  0  0  0  0  0  0  0  0  0
  -22.5155  -14.3621   19.7053 O   0  0  0  0  0  0  0  0  0  0  0  0
  -29.6045  -30.5021   22.6805 O   0  0  0  0  0  0  0  0  0  0  0  0
  -26.5072  -32.4520   21.7862 O   0  0  0  0  0  0  0  0  0  0  0  0
  -23.6359  -29.3855   23.9937 O   0  0  0  0  0  0  0  0  0  0  0  0
  -28.9370  -16.3306   23.0908 O   0  0  0  0  0  0  0  0  0  0  0  0
  -21.6944   -6.8634   21.6242 O   0  0  0  0  0  0  0  0  0  0  0  0
  -27.8383  -24.1498   22.8632 O   0  0  0  0  0  0  0  0  0  1  0  0
  -17.9787   -5.4771   17.7934 F   0  0  0  0  0  0  0  0  0  0  0  0
  -21.8907   -4.4673   20.2595 F   0  0  0  0  0  0  0  0  0  0  0  0
  1  2  1  0  0  0  0
  1  5  2  0  0  0  0
  2  6  2  0  0  0  0
  3  8  2  0  0  0  0
  3 15  1  0  0  0  0
  4  9  1  0  0  0  0
  4 15  2  0  0  0  0
  5 17  1  0  0  0  0
  6 19  1  0  0  0  0
  7 10  2  0  0  0  0
  7 18  1  0  0  0  0
  8 21  1  0  0  0  0
  9 21  2  0  0  0  0
 10 22  1  0  0  0  0
 11 12  2  0  0  0  0
 11 23  1  0  0  0  0
 12 24  1  0  0  0  0
 13 20  1  0  0  0  0
 13 22  2  0  0  0  0
 14 24  2  0  0  0  0
 14 25  1  0  0  0  0
 15 26  1  0  0  0  0
 16 26  1  0  0  0  0
 16 27  2  0  0  0  0
 16 33  1  0  0  0  0
 17 19  2  0  0  0  0
 17 38  1  0  0  0  0
 18 20  2  0  0  0  0
 18 39  1  0  0  0  0
 19 47  1  0  0  0  0
 20 40  1  0  0  0  0
 21 84  1  0  0  0  0
 22 85  1  0  0  0  0
 23 25  2  0  0  0  0
 23 84  1  0  0  0  0
 24 86  1  0  0  0  0
 25 87  1  0  0  0  0
 26 67  2  0  0  0  0
 27 68  1  0  0  0  0
 27 72  1  0  0  0  0
 28 30  1  0  0  0  0
 28 31  2  0  0  0  0
 29 30  2  0  0  0  0
 29 69  1  0  0  0  0
 30 57  1  0  0  0  0
 31 32  1  0  0  0  0
 31 74  1  0  0  0  0
 32 69  1  0  0  0  0
 32 78  2  0  0  0  0
 33 73  1  0  0  0  0
 33 79  2  0  0  0  0
 34 48  1  0  0  0  0
 34 75  1  0  0  0  0
 34 80  2  0  0  0  0
 35 63  1  0  0  0  0
 35 70  1  0  0  0  0
 35 81  2  0  0  0  0
 36 64  1  0  0  0  0
 36 76  1  0  0  0  0
 36 82  2  0  0  0  0
 37 71  1  0  0  0  0
 37 74  1  0  0  0  0
 37 83  2  0  0  0  0
 38 41  1  0  0  0  0
 39 48  1  0  0  0  0
 40 70  1  0  0  0  0
 41 43  1  0  0  0  0
 42 44  1  0  0  0  0
 42 45  1  0  0  0  0
 43 47  1  0  0  0  0
 44 49  1  0  0  0  0
 45 71  1  0  0  0  0
 46 49  1  0  0  0  0
 46 71  1  0  0  0  0
 47 75  1  0  0  0  0
 48 70  1  0  0  0  0
 49 68  1  0  0  0  0
 50 64  1  0  0  0  0
 51 65  1  0  0  0  0
 52 65  1  0  0  0  0
 53 66  1  0  0  0  0
 54 66  1  0  0  0  0
 55 66  1  0  0  0  0
 56 77  1  0  0  0  0
 57 58  1  0  0  0  0
 58 59  1  0  0  0  0
 59 62  1  0  0  0  0
 60 61  1  0  0  0  0
 60 65  1  0  0  0  0
 61 69  1  0  0  0  0
 62 85  1  0  0  0  0
 63 66  1  0  0  0  0
 63 76  1  0  0  0  0
 64 77  1  0  0  0  0
 67 68  1  0  0  0  0
M  CHG  1  77   1
M  ISO  4  37 100  62 101  74 100  85 101
M  END
> <Batch ID>
0101

> <Smiles>
CNC(C)C(=O)NC(C(=O)N1Cc2cc([101O:1][101CH2:1]CCCc3cc([100NH:0][100C:0](=O)N4CCCC(n5nc(-c6ccc(Oc7ccc(F)cc7F)cc6)c(C(N)=O)c5N)C4)c(=O)n(CCC(C)C)c3)ccc2CC1C(=O)NC1CCCc2ccccc21)C(C)(C)C

> <Shape>
0.218

> <Color>
0.148

> <Negative vol penalty>
0.000

$$$$

  -OEChem-04052319363D

 85 93  0     1  0  0  0  0  0999 V2000
  -20.5569  -33.7220   24.4164 C   0  0  0  0  0  0  0  0  0  0  0  0
  -21.8153  -33.2870   24.0132 C   0  0  0  0  0  0  0  0  0  0  0  0
  -24.2748  -14.7179   21.5846 C   0  0  0  0  0  0  0  0  0  0  0  0
  -26.5159  -14.5063   22.4622 C   0  0  0  0  0  0  0  0  0  0  0  0
  -19.5451  -32.7944   24.6607 C   0  0  0  0  0  0  0  0  0  0  0  0
  -22.0630  -31.9239   23.8552 C   0  0  0  0  0  0  0  0  0  0  0  0
  -25.7216  -29.3042   19.7009 C   0  0  0  0  0  0  0  0  0  0  0  0
  -24.3653  -13.4351   21.0443 C   0  0  0  0  0  0  0  0  0  0  0  0
  -26.6063  -13.2235   21.9219 C   0  0  0  0  0  0  0  0  0  0  0  0
  -27.0314  -28.8315   19.7697 C   0  0  0  0  0  0  0  0  0  0  0  0
  -23.8719  -10.0768   19.7429 C   0  0  0  0  0  0  0  0  0  0  0  0
  -22.7821   -9.2231   19.9131 C   0  0  0  0  0  0  0  0  0  0  0  0
  -26.1995  -26.6037   20.1749 C   0  0  0  0  0  0  0  0  0  0  0  0
  -29.5899  -25.5158   16.8851 C   0  0  0  0  0  0  0  0  0  0  0  0
  -23.0245   -9.3918   22.3111 C   0  0  0  0  0  0  0  0  0  0  0  0
  -29.7590  -23.4029   17.6447 C   0  0  0  0  0  0  0  0  0  0  0  0
  -25.3502  -15.2535   22.2935 C   0  0  0  0  0  0  0  0  0  0  0  0
  -24.7898  -16.9315   24.1314 C   0  0  0  0  0  0  0  0  0  0  0  0
  -19.7777  -31.4198   24.4962 C   0  0  0  0  0  0  0  0  0  0  0  0
  -24.6392  -28.4307   19.8797 C   0  0  0  0  0  0  0  0  0  0  0  0
  -21.0537  -30.9769   24.0988 C   0  0  0  0  0  0  0  0  0  0  0  0
  -24.8769  -27.0674   20.1053 C   0  0  0  0  0  0  0  0  0  0  0  0
  -29.3244  -24.1584   16.5782 C   0  0  0  0  0  0  0  0  0  0  0  0
  -25.5310  -12.6879   21.2130 C   0  0  0  0  0  0  0  0  0  0  0  0
  -27.2705  -27.4815   20.0097 C   0  0  0  0  0  0  0  0  0  0  0  0
  -24.5382  -10.5880   20.8568 C   0  0  0  0  0  0  0  0  0  0  0  0
  -22.3583   -8.8806   21.1972 C   0  0  0  0  0  0  0  0  0  0  0  0
  -24.1144  -10.2455   22.1408 C   0  0  0  0  0  0  0  0  0  0  0  0
  -25.2576  -16.5788   22.8514 C   0  0  0  0  0  0  0  0  0  0  0  0
  -30.1790  -25.5484   18.1298 C   0  0  0  0  0  0  0  0  0  0  0  0
  -24.9034  -18.2996   24.1736 C   0  0  0  0  0  0  0  0  0  0  0  0
  -24.2968  -16.0970   25.1880 C   0  0  0  0  0  0  0  0  0  0  0  0
  -22.2643  -28.2024   21.9799 C   0  0  0  0  0  0  0  0  0  0  0  0
  -21.2548  -25.8442   19.9944 C   0  0  0  0  0  0  0  0  0  0  0  0
  -22.0414  -23.5161   17.6263 C   0  0  0  0  0  0  0  0  0  0  0  0
  -28.4668  -22.0405   21.3163 C   0  0  0  0  0  0  0  0  0  0  0  0
  -18.6666  -30.4520   24.8178 C   0  0  0  0  0  0  0  0  0  0  0  0
  -23.2320  -28.9517   19.7759 C   0  0  0  0  0  0  0  0  0  0  0  0
  -23.7495  -26.0848   20.2839 C   0  0  0  0  0  0  0  0  0  0  0  0
  -18.9022  -29.0487   24.2651 C   0  0  0  0  0  0  0  0  0  0  0  0
  -24.8495  -22.1510   21.3325 C   0  0  0  0  0  0  0  0  0  0  0  0
  -20.3259  -28.5894   24.5635 C   0  0  0  0  0  0  0  0  0  0  0  0
  -24.5048  -20.7537   21.8510 C   0  0  0  0  0  0  0  0  0  0  0  0
  -26.0651  -22.1145   20.4111 C   0  0  0  0  0  0  0  0  0  0  0  0
  -26.9373  -20.1028   21.5363 C   0  0  0  0  0  0  0  0  0  0  0  0
  -21.3540  -29.5081   23.8923 C   0  0  1  0  0  0  0  0  0  0  0  0
  -22.2128  -28.0649   20.4846 C   0  0  1  0  0  0  0  0  0  0  0  0
  -25.7304  -20.0757   22.4916 C   0  0  2  0  0  0  0  0  0  0  0  0
  -26.2766  -23.7561   16.1800 C   0  0  0  0  0  0  0  0  0  0  0  0
  -29.6602  -22.7407   14.5366 C   0  0  0  0  0  0  0  0  0  0  0  0
  -31.7995  -27.4711   18.2232 C   0  0  0  0  0  0  0  0  0  0  0  0
  -21.0113  -21.7110   16.2199 C   0  0  0  0  0  0  0  0  0  0  0  0
  -21.1500  -24.0096   22.4302 C   0  0  0  0  0  0  0  0  0  0  0  0
  -21.0538  -22.0559   20.8675 C   0  0  0  0  0  0  0  0  0  0  0  0
  -19.2285  -23.7560   20.8497 C   0  0  0  0  0  0  0  0  0  0  0  0
  -22.7885  -24.8877   15.1124 C   0  0  0  0  0  0  0  0  0  0  0  0
  -27.3592  -22.8767   15.5662 C   0  0  0  0  0  0  0  0  0  0  0  0
  -30.8370  -23.8448   19.8498 C   0  0  0  0  0  0  0  0  0  0  0  0
  -29.8819  -24.0573   21.0215 C   0  0  0  0  0  0  0  0  0  0  0  0
  -29.5293  -27.6996   19.2982 C   0  0  0  0  0  0  0  0  0  1  0  0
  -28.6975  -23.6471   15.3444 C   0  0  1  0  0  0  0  0  0  0  0  0
  -30.6691  -26.7338   18.9465 C   0  0  1  0  0  0  0  0  0  0  0  0
  -21.4910  -24.3565   19.8946 C   0  0  1  0  0  0  0  0  0  0  0  0
  -21.3996  -23.1796   16.2923 C   0  0  2  0  0  0  0  0  0  0  0  0
  -20.7523  -23.5631   21.0091 C   0  0  0  0  0  0  0  0  0  0  0  0
  -25.6397  -17.6375   22.1322 N   0  0  0  0  0  0  0  0  0  0  0  0
  -30.2770  -24.2583   18.5819 N   0  0  0  0  0  0  0  0  0  0  0  0
  -25.4121  -18.6689   22.9632 N   0  0  0  0  0  0  0  0  0  0  0  0
  -22.3915  -26.6438   20.1800 N   0  0  0  0  0  0  0  0  0  0  0  0
  -27.2019  -21.4738   21.0874 N   0  0  0  0  0  0  0  0  0  0  0  0
  -24.6166  -19.2108   25.1275 N   0  0  0  0  0  0  0  0  0  0  0  0
  -24.2475  -14.7122   24.9779 N   0  0  0  0  0  0  0  0  0  0  0  0
  -21.4567  -29.2055   22.4808 N   0  0  0  0  0  0  0  0  0  0  0  0
  -21.1139  -23.9735   18.5383 N   0  0  0  0  0  0  0  0  0  0  0  0
  -28.6377  -23.3397   20.8541 N   0  0  0  0  0  0  0  0  0  0  0  0
  -22.3421  -23.4722   15.1756 N   0  3  0  0  0  0  0  0  0  0  0  0
  -23.8960  -16.5670   26.2798 O   0  0  0  0  0  0  0  0  0  0  0  0
  -22.9823  -27.4527   22.6312 O   0  0  0  0  0  0  0  0  0  0  0  0
  -20.1049  -26.2814   19.9036 O   0  0  0  0  0  0  0  0  0  0  0  0
  -23.2445  -23.3828   17.8391 O   0  0  0  0  0  0  0  0  0  0  0  0
  -29.3755  -21.4352   21.8951 O   0  0  0  0  0  0  0  0  0  0  0  0
  -25.6195  -11.4361   20.6861 O   0  0  0  0  0  0  0  0  0  0  0  0
  -28.5480  -27.0176   20.0780 O   0  0  0  0  0  0  0  0  0  1  0  0
  -21.3108   -8.0621   21.3605 F   0  0  0  0  0  0  0  0  0  0  0  0
  -24.7497  -10.7344   23.2147 F   0  0  0  0  0  0  0  0  0  0  0  0
  1  2  1  0  0  0  0
  1  5  2  0  0  0  0
  2  6  2  0  0  0  0
  3  8  2  0  0  0  0
  3 17  1  0  0  0  0
  4  9  1  0  0  0  0
  4 17  2  0  0  0  0
  5 19  1  0  0  0  0
  6 21  1  0  0  0  0
  7 10  2  0  0  0  0
  7 20  1  0  0  0  0
  8 24  1  0  0  0  0
  9 24  2  0  0  0  0
 10 25  1  0  0  0  0
 11 12  2  0  0  0  0
 11 26  1  0  0  0  0
 12 27  1  0  0  0  0
 13 22  1  0  0  0  0
 13 25  2  0  0  0  0
 14 23  1  0  0  0  0
 14 30  2  0  0  0  0
 15 27  2  0  0  0  0
 15 28  1  0  0  0  0
 16 23  2  0  0  0  0
 16 67  1  0  0  0  0
 17 29  1  0  0  0  0
 18 29  1  0  0  0  0
 18 31  2  0  0  0  0
 18 32  1  0  0  0  0
 19 21  2  0  0  0  0
 19 37  1  0  0  0  0
 20 22  2  0  0  0  0
 20 38  1  0  0  0  0
 21 46  1  0  0  0  0
 22 39  1  0  0  0  0
 23 61  1  0  0  0  0
 24 82  1  0  0  0  0
 25 83  1  0  0  0  0
 26 28  2  0  0  0  0
 26 82  1  0  0  0  0
 27 84  1  0  0  0  0
 28 85  1  0  0  0  0
 29 66  2  0  0  0  0
 30 62  1  0  0  0  0
 30 67  1  0  0  0  0
 31 68  1  0  0  0  0
 31 71  1  0  0  0  0
 32 72  1  0  0  0  0
 32 77  2  0  0  0  0
 33 47  1  0  0  0  0
 33 73  1  0  0  0  0
 33 78  2  0  0  0  0
 34 63  1  0  0  0  0
 34 69  1  0  0  0  0
 34 79  2  0  0  0  0
 35 64  1  0  0  0  0
 35 74  1  0  0  0  0
 35 80  2  0  0  0  0
 36 70  1  0  0  0  0
 36 75  1  0  0  0  0
 36 81  2  0  0  0  0
 37 40  1  0  0  0  0
 38 47  1  0  0  0  0
 39 69  1  0  0  0  0
 40 42  1  0  0  0  0
 41 43  1  0  0  0  0
 41 44  1  0  0  0  0
 42 46  1  0  0  0  0
 43 48  1  0  0  0  0
 44 70  1  0  0  0  0
 45 48  1  0  0  0  0
 45 70  1  0  0  0  0
 46 73  1  0  0  0  0
 47 69  1  0  0  0  0
 48 68  1  0  0  0  0
 49 57  1  0  0  0  0
 50 61  1  0  0  0  0
 51 62  1  0  0  0  0
 52 64  1  0  0  0  0
 53 65  1  0  0  0  0
 54 65  1  0  0  0  0
 55 65  1  0  0  0  0
 56 76  1  0  0  0  0
 57 61  1  0  0  0  0
 58 59  1  0  0  0  0
 58 67  1  0  0  0  0
 59 75  1  0  0  0  0
 60 62  1  0  0  0  0
 60 83  1  0  0  0  0
 63 65  1  0  0  0  0
 63 74  1  0  0  0  0
 64 76  1  0  0  0  0
 66 68  1  0  0  0  0
M  CHG  1  76   1
M  ISO  4  36 100  60 101  75 100  83 101
M  END
> <Batch ID>
0101

> <Smiles>
CCC(C)c1cc(C(C)[101CH2:1][101O:1]c2ccc3c(c2)CN(C(=O)C(NC(=O)C(C)NC)C(C)(C)C)C(C(=O)NC2CCCc4ccccc42)C3)n(CC[100NH:0][100C:0](=O)N2CCCC(n3nc(-c4ccc(Oc5ccc(F)cc5F)cc4)c(C(N)=O)c3N)C2)c1

> <Shape>
0.207

> <Color>
0.085

> <Negative vol penalty>
0.000

$$$$

  -OEChem-04052319363D

 80 87  0     1  0  0  0  0  0999 V2000
  -30.8728  -34.3287   18.1241 C   0  0  0  0  0  0  0  0  0  0  0  0
  -30.9217  -32.9407   18.2053 C   0  0  0  0  0  0  0  0  0  0  0  0
  -24.6872   -8.5845   20.7625 C   0  0  0  0  0  0  0  0  0  0  0  0
  -22.9121  -10.1310   20.2197 C   0  0  0  0  0  0  0  0  0  0  0  0
  -30.0834  -35.0507   19.0182 C   0  0  0  0  0  0  0  0  0  0  0  0
  -30.1820  -32.2741   19.1815 C   0  0  0  0  0  0  0  0  0  0  0  0
  -27.4801  -26.8032   18.6571 C   0  0  0  0  0  0  0  0  0  0  0  0
  -23.7417   -7.6362   21.1528 C   0  0  0  0  0  0  0  0  0  0  0  0
  -21.9666   -9.1826   20.6100 C   0  0  0  0  0  0  0  0  0  0  0  0
  -27.8655  -25.5245   19.0572 C   0  0  0  0  0  0  0  0  0  0  0  0
  -21.7846   -7.0309   23.8412 C   0  0  0  0  0  0  0  0  0  0  0  0
  -22.0102   -6.3450   25.0346 C   0  0  0  0  0  0  0  0  0  0  0  0
  -26.5655  -25.7704   21.0743 C   0  0  0  0  0  0  0  0  0  0  0  0
  -22.0305   -4.2521   23.8278 C   0  0  0  0  0  0  0  0  0  0  0  0
  -24.2724   -9.8320   20.2960 C   0  0  0  0  0  0  0  0  0  0  0  0
  -25.7954  -10.9892   18.6082 C   0  0  0  0  0  0  0  0  0  0  0  0
  -29.3262  -34.3920   19.9997 C   0  0  0  0  0  0  0  0  0  0  0  0
  -26.6418  -27.5807   19.4691 C   0  0  0  0  0  0  0  0  0  0  0  0
  -29.3829  -32.9881   20.0905 C   0  0  0  0  0  0  0  0  0  0  0  0
  -26.1689  -27.0577   20.6810 C   0  0  0  0  0  0  0  0  0  0  0  0
  -22.3814   -7.9352   21.0765 C   0  0  0  0  0  0  0  0  0  0  0  0
  -27.4106  -25.0090   20.2673 C   0  0  0  0  0  0  0  0  0  0  0  0
  -21.6818   -6.3274   22.6411 C   0  0  0  0  0  0  0  0  0  0  0  0
  -22.1332   -4.9556   25.0279 C   0  0  0  0  0  0  0  0  0  0  0  0
  -21.8048   -4.9380   22.6344 C   0  0  0  0  0  0  0  0  0  0  0  0
  -25.2486  -10.8122   19.8932 C   0  0  0  0  0  0  0  0  0  0  0  0
  -26.6677  -12.0408   18.7480 C   0  0  0  0  0  0  0  0  0  0  0  0
  -25.5378  -10.2675   17.3963 C   0  0  0  0  0  0  0  0  0  0  0  0
  -26.9268  -30.3701   20.9662 C   0  0  0  0  0  0  0  0  0  0  0  0
  -23.7852  -29.8972   21.6211 C   0  0  0  0  0  0  0  0  0  0  0  0
  -21.2032  -27.6974   21.9964 C   0  0  0  0  0  0  0  0  0  0  0  0
  -26.9004  -16.5872   22.3374 C   0  0  0  0  0  0  0  0  0  0  0  0
  -28.5247  -35.2182   20.9742 C   0  0  0  0  0  0  0  0  0  0  0  0
  -26.2137  -28.9478   19.0106 C   0  0  0  0  0  0  0  0  0  0  0  0
  -25.2509  -27.8440   21.5796 C   0  0  0  0  0  0  0  0  0  0  0  0
  -27.4788  -34.4122   21.7400 C   0  0  0  0  0  0  0  0  0  0  0  0
  -29.4689  -14.1926   21.9628 C   0  0  0  0  0  0  0  0  0  0  0  0
  -28.0855  -33.1165   22.2690 C   0  0  0  0  0  0  0  0  0  0  0  0
  -28.7233  -13.0558   21.2652 C   0  0  0  0  0  0  0  0  0  0  0  0
  -28.6180  -14.8583   23.0459 C   0  0  0  0  0  0  0  0  0  0  0  0
  -26.5486  -14.1808   21.8706 C   0  0  0  0  0  0  0  0  0  0  0  0
  -28.5755  -32.2273   21.1198 C   0  0  1  0  0  0  0  0  0  0  0  0
  -25.7716  -29.8513   20.1576 C   0  0  1  0  0  0  0  0  0  0  0  0
  -27.3599  -13.5345   20.7371 C   0  0  2  0  0  0  0  0  0  0  0  0
  -18.7620  -27.6047   22.5704 C   0  0  0  0  0  0  0  0  0  0  0  0
  -26.7320  -21.1523   19.8183 C   0  0  0  0  0  0  0  0  0  0  0  0
  -24.4639  -30.3209   24.5656 C   0  0  0  0  0  0  0  0  0  0  0  0
  -22.2547  -29.2983   25.1500 C   0  0  0  0  0  0  0  0  0  0  0  0
  -22.3381  -31.4059   23.8184 C   0  0  0  0  0  0  0  0  0  0  0  0
  -29.8204  -19.3076   22.9078 C   0  0  0  0  0  0  0  0  0  0  0  0
  -28.6676  -18.6460   20.8030 C   0  0  0  0  0  0  0  0  0  0  0  0
  -27.8137  -17.2508   24.6024 C   0  0  0  0  0  0  0  0  0  0  0  0
  -20.5089  -26.5411   19.3621 C   0  0  0  0  0  0  0  0  0  0  0  0
  -28.3932  -21.0116   21.7443 C   0  0  0  0  0  0  0  0  0  0  0  0
  -27.3220  -18.9535   22.8863 C   0  0  0  0  0  0  0  0  0  0  0  0
  -26.8696  -23.0324   21.4741 C   0  0  0  0  0  0  0  0  0  1  0  0
  -23.0139  -29.2255   22.7315 C   0  0  1  0  0  0  0  0  0  0  0  0
  -19.7865  -27.7045   21.4510 C   0  0  2  0  0  0  0  0  0  0  0  0
  -26.9996  -21.5096   21.2864 C   0  0  1  0  0  0  0  0  0  0  0  0
  -23.0365  -30.0484   24.0506 C   0  0  0  0  0  0  0  0  0  0  0  0
  -28.5285  -19.4940   22.0792 C   0  0  0  0  0  0  0  0  0  0  0  0
  -25.7330  -11.6817   20.7840 N   0  0  0  0  0  0  0  0  0  0  0  0
  -26.5935  -12.4151   20.0574 N   0  0  0  0  0  0  0  0  0  0  0  0
  -24.8656  -29.1781   21.0905 N   0  0  0  0  0  0  0  0  0  0  0  0
  -27.3084  -15.2567   22.5119 N   0  0  0  0  0  0  0  0  0  0  0  0
  -27.4833  -12.6727   17.8774 N   0  0  0  0  0  0  0  0  0  0  0  0
  -24.6123   -9.2155   17.4291 N   0  0  0  0  0  0  0  0  0  0  0  0
  -27.4598  -31.5532   20.4911 N   0  0  0  0  0  0  0  0  0  0  0  0
  -21.6761  -28.9756   22.2060 N   0  0  0  0  0  0  0  0  0  0  0  0
  -27.4224  -17.5407   23.2243 N   0  0  0  0  0  0  0  0  0  0  0  0
  -19.5828  -26.5558   20.5236 N   0  3  0  0  0  0  0  0  0  0  0  0
  -26.1235  -10.5366   16.3202 O   0  0  0  0  0  0  0  0  0  0  0  0
  -27.3057  -29.7442   21.9493 O   0  0  0  0  0  0  0  0  0  0  0  0
  -23.4374  -31.0155   21.2338 O   0  0  0  0  0  0  0  0  0  0  0  0
  -21.8264  -26.6616   22.2182 O   0  0  0  0  0  0  0  0  0  0  0  0
  -26.1064  -16.9063   21.4430 O   0  0  0  0  0  0  0  0  0  0  0  0
  -21.4586   -7.0100   21.4571 O   0  0  0  0  0  0  0  0  0  0  0  0
  -27.7885  -23.7524   20.6634 O   0  0  0  0  0  0  0  0  0  1  0  0
  -22.3514   -4.2971   26.1738 F   0  0  0  0  0  0  0  0  0  0  0  0
  -21.7081   -4.2568   21.4844 F   0  0  0  0  0  0  0  0  0  0  0  0
  1  2  1  0  0  0  0
  1  5  2  0  0  0  0
  2  6  2  0  0  0  0
  3  8  2  0  0  0  0
  3 15  1  0  0  0  0
  4  9  1  0  0  0  0
  4 15  2  0  0  0  0
  5 17  1  0  0  0  0
  6 19  1  0  0  0  0
  7 10  2  0  0  0  0
  7 18  1  0  0  0  0
  8 21  1  0  0  0  0
  9 21  2  0  0  0  0
 10 22  1  0  0  0  0
 11 12  2  0  0  0  0
 11 23  1  0  0  0  0
 12 24  1  0  0  0  0
 13 20  1  0  0  0  0
 13 22  2  0  0  0  0
 14 24  2  0  0  0  0
 14 25  1  0  0  0  0
 15 26  1  0  0  0  0
 16 26  1  0  0  0  0
 16 27  2  0  0  0  0
 16 28  1  0  0  0  0
 17 19  2  0  0  0  0
 17 33  1  0  0  0  0
 18 20  2  0  0  0  0
 18 34  1  0  0  0  0
 19 42  1  0  0  0  0
 20 35  1  0  0  0  0
 21 77  1  0  0  0  0
 22 78  1  0  0  0  0
 23 25  2  0  0  0  0
 23 77  1  0  0  0  0
 24 79  1  0  0  0  0
 25 80  1  0  0  0  0
 26 62  2  0  0  0  0
 27 63  1  0  0  0  0
 27 66  1  0  0  0  0
 28 67  1  0  0  0  0
 28 72  2  0  0  0  0
 29 43  1  0  0  0  0
 29 68  1  0  0  0  0
 29 73  2  0  0  0  0
 30 57  1  0  0  0  0
 30 64  1  0  0  0  0
 30 74  2  0  0  0  0
 31 58  1  0  0  0  0
 31 69  1  0  0  0  0
 31 75  2  0  0  0  0
 32 65  1  0  0  0  0
 32 70  1  0  0  0  0
 32 76  2  0  0  0  0
 33 36  1  0  0  0  0
 34 43  1  0  0  0  0
 35 64  1  0  0  0  0
 36 38  1  0  0  0  0
 37 39  1  0  0  0  0
 37 40  1  0  0  0  0
 38 42  1  0  0  0  0
 39 44  1  0  0  0  0
 40 65  1  0  0  0  0
 41 44  1  0  0  0  0
 41 65  1  0  0  0  0
 42 68  1  0  0  0  0
 43 64  1  0  0  0  0
 44 63  1  0  0  0  0
 45 58  1  0  0  0  0
 46 59  1  0  0  0  0
 47 60  1  0  0  0  0
 48 60  1  0  0  0  0
 49 60  1  0  0  0  0
 50 61  1  0  0  0  0
 51 61  1  0  0  0  0
 52 70  1  0  0  0  0
 53 71  1  0  0  0  0
 54 59  1  0  0  0  0
 54 61  1  0  0  0  0
 55 61  1  0  0  0  0
 55 70  1  0  0  0  0
 56 59  1  0  0  0  0
 56 78  1  0  0  0  0
 57 60  1  0  0  0  0
 57 69  1  0  0  0  0
 58 71  1  0  0  0  0
 62 63  1  0  0  0  0
M  CHG  1  71   1
M  ISO  4  32 100  56 101  70 100  78 101
M  END
> <Batch ID>
0101

> <Smiles>
CNC(C)C(=O)NC(C(=O)N1Cc2cc([101O:1][101CH2:1]C(C)CC(C)(C)C[100N:0](C)[100C:0](=O)N3CCCC(n4nc(-c5ccc(Oc6ccc(F)cc6F)cc5)c(C(N)=O)c4N)C3)ccc2CC1C(=O)NC1CCCc2ccccc21)C(C)(C)C

> <Shape>
0.259

> <Color>
0.103

> <Negative vol penalty>
0.000

$$$$

  -OEChem-04052319363D

 87 95  0     1  0  0  0  0  0999 V2000
  -18.1569  -17.9609   20.4444 C   0  0  0  0  0  0  0  0  0  0  0  0
  -19.4250  -18.3528   20.0275 C   0  0  0  0  0  0  0  0  0  0  0  0
  -31.1278  -18.0545   18.6538 C   0  0  0  0  0  0  0  0  0  0  0  0
  -29.0803  -17.6906   19.8835 C   0  0  0  0  0  0  0  0  0  0  0  0
  -17.1390  -18.9068   20.5598 C   0  0  0  0  0  0  0  0  0  0  0  0
  -19.6757  -19.6907   19.7248 C   0  0  0  0  0  0  0  0  0  0  0  0
  -24.8890  -24.5957   20.0045 C   0  0  0  0  0  0  0  0  0  0  0  0
  -31.5478  -16.7627   18.9708 C   0  0  0  0  0  0  0  0  0  0  0  0
  -29.5002  -16.3988   20.2005 C   0  0  0  0  0  0  0  0  0  0  0  0
  -25.5457  -25.5172   19.1900 C   0  0  0  0  0  0  0  0  0  0  0  0
  -29.6473  -13.3853   18.6780 C   0  0  0  0  0  0  0  0  0  0  0  0
  -28.7195  -12.3525   18.5433 C   0  0  0  0  0  0  0  0  0  0  0  0
  -23.7317  -27.0765   19.5019 C   0  0  0  0  0  0  0  0  0  0  0  0
  -28.2689  -30.8355   20.7613 C   0  0  0  0  0  0  0  0  0  0  0  0
  -27.3351  -28.6287   21.0692 C   0  0  0  0  0  0  0  0  0  0  0  0
  -28.9430  -11.8450   20.8948 C   0  0  0  0  0  0  0  0  0  0  0  0
  -29.8941  -18.5185   19.1102 C   0  0  0  0  0  0  0  0  0  0  0  0
  -28.7133  -20.2527   17.6591 C   0  0  0  0  0  0  0  0  0  0  0  0
  -17.3800  -20.2585   20.2675 C   0  0  0  0  0  0  0  0  0  0  0  0
  -23.6416  -24.9041   20.5659 C   0  0  0  0  0  0  0  0  0  0  0  0
  -18.6598  -20.6553   19.8351 C   0  0  0  0  0  0  0  0  0  0  0  0
  -23.0625  -26.1582   20.3252 C   0  0  0  0  0  0  0  0  0  0  0  0
  -27.8267  -29.6256   20.2265 C   0  0  0  0  0  0  0  0  0  0  0  0
  -28.2194  -31.0486   22.1390 C   0  0  0  0  0  0  0  0  0  0  0  0
  -27.2856  -28.8418   22.4468 C   0  0  0  0  0  0  0  0  0  0  0  0
  -27.7278  -30.0518   22.9817 C   0  0  0  0  0  0  0  0  0  0  0  0
  -30.7340  -15.9348   19.7441 C   0  0  0  0  0  0  0  0  0  0  0  0
  -24.9658  -26.7567   18.9362 C   0  0  0  0  0  0  0  0  0  0  0  0
  -30.2230  -13.6479   19.9211 C   0  0  0  0  0  0  0  0  0  0  0  0
  -28.3673  -11.5824   19.6517 C   0  0  0  0  0  0  0  0  0  0  0  0
  -29.8708  -12.8778   21.0295 C   0  0  0  0  0  0  0  0  0  0  0  0
  -29.4599  -19.8530   18.7836 C   0  0  0  0  0  0  0  0  0  0  0  0
  -28.5627  -21.6094   17.8114 C   0  0  0  0  0  0  0  0  0  0  0  0
  -28.2016  -19.4678   16.5738 C   0  0  0  0  0  0  0  0  0  0  0  0
  -20.7151  -23.6847   20.3360 C   0  0  0  0  0  0  0  0  0  0  0  0
  -20.0548  -25.8420   22.6667 C   0  0  0  0  0  0  0  0  0  0  0  0
  -20.8691  -28.7699   24.2196 C   0  0  0  0  0  0  0  0  0  0  0  0
  -28.5433  -25.0505   22.6087 C   0  0  0  0  0  0  0  0  0  0  0  0
  -16.2358  -21.2367   20.3616 C   0  0  0  0  0  0  0  0  0  0  0  0
  -22.9586  -23.9094   21.4640 C   0  0  0  0  0  0  0  0  0  0  0  0
  -21.7344  -26.5458   20.9205 C   0  0  0  0  0  0  0  0  0  0  0  0
  -16.6824  -22.6963   20.3819 C   0  0  0  0  0  0  0  0  0  0  0  0
  -30.7177  -25.4232   19.7398 C   0  0  0  0  0  0  0  0  0  0  0  0
  -17.7216  -22.9517   19.2949 C   0  0  0  0  0  0  0  0  0  0  0  0
  -30.5637  -24.0603   19.0623 C   0  0  0  0  0  0  0  0  0  0  0  0
  -30.7150  -25.2884   21.2597 C   0  0  0  0  0  0  0  0  0  0  0  0
  -29.3633  -23.2313   21.1388 C   0  0  0  0  0  0  0  0  0  0  0  0
  -18.9774  -22.1012   19.5213 C   0  0  1  0  0  0  0  0  0  0  0  0
  -21.4528  -24.1321   21.5662 C   0  0  1  0  0  0  0  0  0  0  0  0
  -29.3360  -23.3022   19.6012 C   0  0  2  0  0  0  0  0  0  0  0  0
  -28.7015  -32.3544   22.6825 C   0  0  0  0  0  0  0  0  0  0  0  0
  -20.7701  -30.6055   25.9279 C   0  0  0  0  0  0  0  0  0  0  0  0
  -27.4724  -31.6091   26.3626 C   0  0  0  0  0  0  0  0  0  0  0  0
  -25.4586  -30.9279   25.0112 C   0  0  0  0  0  0  0  0  0  0  0  0
  -17.7891  -26.8696   20.9002 C   0  0  0  0  0  0  0  0  0  0  0  0
  -17.7099  -28.9301   22.3202 C   0  0  0  0  0  0  0  0  0  0  0  0
  -17.2231  -26.7018   23.3304 C   0  0  0  0  0  0  0  0  0  0  0  0
  -22.7562  -27.3613   26.0123 C   0  0  0  0  0  0  0  0  0  0  0  0
  -27.8799  -29.3961   18.7371 C   0  0  0  0  0  0  0  0  0  0  0  0
  -26.7543  -27.7556   23.3248 C   0  0  0  0  0  0  0  0  0  0  0  0
  -26.6108  -29.8311   18.0012 C   0  0  0  0  0  0  0  0  0  0  0  0
  -27.8493  -26.9560   24.0385 C   0  0  0  0  0  0  0  0  0  0  0  0
  -25.3740  -29.0399   18.4108 C   0  0  0  0  0  0  0  0  0  1  0  0
  -19.6002  -27.2813   22.6936 C   0  0  1  0  0  0  0  0  0  0  0  0
  -21.0164  -29.1240   25.6884 C   0  0  2  0  0  0  0  0  0  0  0  0
  -26.9262  -31.3278   24.9703 C   0  0  0  0  0  0  0  0  0  0  0  0
  -18.1047  -27.4380   22.2982 C   0  0  0  0  0  0  0  0  0  0  0  0
  -29.7627  -20.8732   19.5907 N   0  0  0  0  0  0  0  0  0  0  0  0
  -29.2036  -21.9275   18.9726 N   0  0  0  0  0  0  0  0  0  0  0  0
  -21.1028  -25.5367   21.7867 N   0  0  0  0  0  0  0  0  0  0  0  0
  -29.5115  -24.5745   21.7090 N   0  0  0  0  0  0  0  0  0  0  0  0
  -27.9460  -22.5493   17.0641 N   0  0  0  0  0  0  0  0  0  0  0  0
  -28.4473  -18.0880   16.5732 N   0  0  0  0  0  0  0  0  0  0  0  0
  -27.6781  -30.2677   24.3782 N   0  0  0  0  0  0  0  0  0  0  0  0
  -19.7969  -22.6780   20.5655 N   0  0  0  0  0  0  0  0  0  0  0  0
  -19.9226  -27.7865   24.0237 N   0  0  0  0  0  0  0  0  0  0  0  0
  -28.7613  -26.3287   23.1081 N   0  0  0  0  0  0  0  0  0  0  0  0
  -22.3886  -28.7925   26.1660 N   0  3  0  0  0  0  0  0  0  0  0  0
  -27.5599  -19.9775   15.6241 O   0  0  0  0  0  0  0  0  0  0  0  0
  -20.9598  -24.2148   19.2585 O   0  0  0  0  0  0  0  0  0  0  0  0
  -19.5053  -25.0204   23.4046 O   0  0  0  0  0  0  0  0  0  0  0  0
  -21.5251  -29.3141   23.3341 O   0  0  0  0  0  0  0  0  0  0  0  0
  -27.5542  -24.3872   22.9388 O   0  0  0  0  0  0  0  0  0  0  0  0
  -31.1434  -14.6741   20.0534 O   0  0  0  0  0  0  0  0  0  0  0  0
  -25.6043  -27.6577   18.1410 O   0  0  0  0  0  0  0  0  0  1  0  0
  -27.4752  -10.5916   19.5225 F   0  0  0  0  0  0  0  0  0  0  0  0
  -30.4196  -13.1262   22.2266 F   0  0  0  0  0  0  0  0  0  0  0  0
  1  2  1  0  0  0  0
  1  5  2  0  0  0  0
  2  6  2  0  0  0  0
  3  8  2  0  0  0  0
  3 17  1  0  0  0  0
  4  9  1  0  0  0  0
  4 17  2  0  0  0  0
  5 19  1  0  0  0  0
  6 21  1  0  0  0  0
  7 10  2  0  0  0  0
  7 20  1  0  0  0  0
  8 27  1  0  0  0  0
  9 27  2  0  0  0  0
 10 28  1  0  0  0  0
 11 12  2  0  0  0  0
 11 29  1  0  0  0  0
 12 30  1  0  0  0  0
 13 22  1  0  0  0  0
 13 28  2  0  0  0  0
 14 23  1  0  0  0  0
 14 24  2  0  0  0  0
 15 23  2  0  0  0  0
 15 25  1  0  0  0  0
 16 30  2  0  0  0  0
 16 31  1  0  0  0  0
 17 32  1  0  0  0  0
 18 32  1  0  0  0  0
 18 33  2  0  0  0  0
 18 34  1  0  0  0  0
 19 21  2  0  0  0  0
 19 39  1  0  0  0  0
 20 22  2  0  0  0  0
 20 40  1  0  0  0  0
 21 48  1  0  0  0  0
 22 41  1  0  0  0  0
 23 59  1  0  0  0  0
 24 26  1  0  0  0  0
 24 51  1  0  0  0  0
 25 26  2  0  0  0  0
 25 60  1  0  0  0  0
 26 74  1  0  0  0  0
 27 84  1  0  0  0  0
 28 85  1  0  0  0  0
 29 31  2  0  0  0  0
 29 84  1  0  0  0  0
 30 86  1  0  0  0  0
 31 87  1  0  0  0  0
 32 68  2  0  0  0  0
 33 69  1  0  0  0  0
 33 72  1  0  0  0  0
 34 73  1  0  0  0  0
 34 79  2  0  0  0  0
 35 49  1  0  0  0  0
 35 75  1  0  0  0  0
 35 80  2  0  0  0  0
 36 64  1  0  0  0  0
 36 70  1  0  0  0  0
 36 81  2  0  0  0  0
 37 65  1  0  0  0  0
 37 76  1  0  0  0  0
 37 82  2  0  0  0  0
 38 71  1  0  0  0  0
 38 77  1  0  0  0  0
 38 83  2  0  0  0  0
 39 42  1  0  0  0  0
 40 49  1  0  0  0  0
 41 70  1  0  0  0  0
 42 44  1  0  0  0  0
 43 45  1  0  0  0  0
 43 46  1  0  0  0  0
 44 48  1  0  0  0  0
 45 50  1  0  0  0  0
 46 71  1  0  0  0  0
 47 50  1  0  0  0  0
 47 71  1  0  0  0  0
 48 75  1  0  0  0  0
 49 70  1  0  0  0  0
 50 69  1  0  0  0  0
 52 65  1  0  0  0  0
 53 66  1  0  0  0  0
 54 66  1  0  0  0  0
 55 67  1  0  0  0  0
 56 67  1  0  0  0  0
 57 67  1  0  0  0  0
 58 78  1  0  0  0  0
 59 61  1  0  0  0  0
 60 62  1  0  0  0  0
 61 63  1  0  0  0  0
 62 77  1  0  0  0  0
 63 85  1  0  0  0  0
 64 67  1  0  0  0  0
 64 76  1  0  0  0  0
 65 78  1  0  0  0  0
 66 74  1  0  0  0  0
 68 69  1  0  0  0  0
M  CHG  1  78   1
M  ISO  4  38 100  63 101  77 100  85 101
M  END
> <Batch ID>
0101

> <Smiles>
CNC(C)C(=O)NC(C(=O)N1Cc2cc([101O:1][101CH2:1]CCc3cc(C)c(NC(C)C)c(CC[100NH:0][100C:0](=O)N4CCCC(n5nc(-c6ccc(Oc7ccc(F)cc7F)cc6)c(C(N)=O)c5N)C4)c3)ccc2CC1C(=O)NC1CCCc2ccccc21)C(C)(C)C

> <Shape>
0.233

> <Color>
0.060

> <Negative vol penalty>
0.000

$$$$

  -OEChem-04052319363D

 85 93  0     1  0  0  0  0  0999 V2000
  -18.4936  -28.1165   22.3469 C   0  0  0  0  0  0  0  0  0  0  0  0
  -18.7199  -26.8216   21.8914 C   0  0  0  0  0  0  0  0  0  0  0  0
  -28.4525  -23.4401   20.5251 C   0  0  0  0  0  0  0  0  0  0  0  0
  -29.7608  -22.5469   18.7009 C   0  0  0  0  0  0  0  0  0  0  0  0
  -19.5226  -28.8271   22.9635 C   0  0  0  0  0  0  0  0  0  0  0  0
  -19.9757  -26.2370   22.0512 C   0  0  0  0  0  0  0  0  0  0  0  0
  -21.1752  -20.3321   23.1465 C   0  0  0  0  0  0  0  0  0  0  0  0
  -29.0905  -24.6719   20.3796 C   0  0  0  0  0  0  0  0  0  0  0  0
  -30.3989  -23.7787   18.5554 C   0  0  0  0  0  0  0  0  0  0  0  0
  -21.5552  -19.2818   22.3122 C   0  0  0  0  0  0  0  0  0  0  0  0
  -28.8911  -27.3538   18.3300 C   0  0  0  0  0  0  0  0  0  0  0  0
  -28.0985  -28.5012   18.3543 C   0  0  0  0  0  0  0  0  0  0  0  0
  -23.8658  -19.6697   22.8862 C   0  0  0  0  0  0  0  0  0  0  0  0
  -25.0804  -13.2122   19.2526 C   0  0  0  0  0  0  0  0  0  0  0  0
  -29.3231  -29.3064   20.2750 C   0  0  0  0  0  0  0  0  0  0  0  0
  -24.8682  -11.3636   21.2484 C   0  0  0  0  0  0  0  0  0  0  0  0
  -28.7877  -22.3776   19.6857 C   0  0  0  0  0  0  0  0  0  0  0  0
  -26.9491  -20.6776   19.1983 C   0  0  0  0  0  0  0  0  0  0  0  0
  -20.7889  -28.2474   23.1397 C   0  0  0  0  0  0  0  0  0  0  0  0
  -22.1402  -21.0675   23.8497 C   0  0  0  0  0  0  0  0  0  0  0  0
  -21.0230  -26.9410   22.6695 C   0  0  0  0  0  0  0  0  0  0  0  0
  -23.4953  -20.7273   23.7308 C   0  0  0  0  0  0  0  0  0  0  0  0
  -23.8225  -12.8775   19.7413 C   0  0  0  0  0  0  0  0  0  0  0  0
  -23.7057  -11.9364   20.7582 C   0  0  0  0  0  0  0  0  0  0  0  0
  -30.0637  -24.8412   19.3947 C   0  0  0  0  0  0  0  0  0  0  0  0
  -22.9009  -18.9523   22.1797 C   0  0  0  0  0  0  0  0  0  0  0  0
  -29.8997  -27.1826   19.2783 C   0  0  0  0  0  0  0  0  0  0  0  0
  -28.3145  -29.4776   19.3268 C   0  0  0  0  0  0  0  0  0  0  0  0
  -30.1157  -28.1589   20.2507 C   0  0  0  0  0  0  0  0  0  0  0  0
  -28.1293  -21.1047   19.8359 C   0  0  0  0  0  0  0  0  0  0  0  0
  -26.1814  -12.5825   19.8103 C   0  0  0  0  0  0  0  0  0  0  0  0
  -26.7437  -19.4052   19.6729 C   0  0  0  0  0  0  0  0  0  0  0  0
  -26.1133  -21.3692   18.2608 C   0  0  0  0  0  0  0  0  0  0  0  0
  -23.0680  -24.1076   23.8705 C   0  0  0  0  0  0  0  0  0  0  0  0
  -24.9042  -23.1242   26.3572 C   0  0  0  0  0  0  0  0  0  0  0  0
  -26.4852  -20.5552   27.9532 C   0  0  0  0  0  0  0  0  0  0  0  0
  -28.6670  -14.3392   21.0078 C   0  0  0  0  0  0  0  0  0  0  0  0
  -21.8835  -29.0719   23.7695 C   0  0  0  0  0  0  0  0  0  0  0  0
  -21.7118  -22.1804   24.7663 C   0  0  0  0  0  0  0  0  0  0  0  0
  -24.5686  -21.4726   24.4798 C   0  0  0  0  0  0  0  0  0  0  0  0
  -23.0777  -28.2437   24.2367 C   0  0  0  0  0  0  0  0  0  0  0  0
  -28.9775  -16.9028   23.4590 C   0  0  0  0  0  0  0  0  0  0  0  0
  -23.4954  -27.2521   23.1554 C   0  0  0  0  0  0  0  0  0  0  0  0
  -28.6935  -18.1890   22.6811 C   0  0  0  0  0  0  0  0  0  0  0  0
  -29.7440  -15.8889   22.6125 C   0  0  0  0  0  0  0  0  0  0  0  0
  -28.8389  -16.8578   20.5350 C   0  0  0  0  0  0  0  0  0  0  0  0
  -22.3645  -26.2635   22.8469 C   0  0  1  0  0  0  0  0  0  0  0  0
  -22.8209  -23.1925   25.0363 C   0  0  1  0  0  0  0  0  0  0  0  0
  -28.0189  -17.8891   21.3290 C   0  0  2  0  0  0  0  0  0  0  0  0
  -22.2490  -11.8829   22.8146 C   0  0  0  0  0  0  0  0  0  0  0  0
  -22.0698  -10.0484   21.0948 C   0  0  0  0  0  0  0  0  0  0  0  0
  -27.9382  -20.0668   29.9401 C   0  0  0  0  0  0  0  0  0  0  0  0
  -27.3045  -24.3042   24.8889 C   0  0  0  0  0  0  0  0  0  0  0  0
  -28.7941  -22.9815   26.4055 C   0  0  0  0  0  0  0  0  0  0  0  0
  -27.2808  -24.7228   27.3544 C   0  0  0  0  0  0  0  0  0  0  0  0
  -24.4654  -18.7402   29.1301 C   0  0  0  0  0  0  0  0  0  0  0  0
  -22.6037  -13.5452   19.1560 C   0  0  0  0  0  0  0  0  0  0  0  0
  -27.5471  -12.9168   19.3102 C   0  0  0  0  0  0  0  0  0  0  0  0
  -22.0062  -14.6370   20.0505 C   0  0  0  0  0  0  0  0  0  0  0  0
  -22.9591  -15.8111   20.2797 C   0  0  0  0  0  0  0  0  0  0  0  0
  -22.3472  -16.8554   21.2036 C   0  0  0  0  0  0  0  0  0  1  0  0
  -22.3835  -11.5409   21.3178 C   0  0  0  0  0  0  0  0  0  0  0  0
  -26.2958  -22.5568   26.4999 C   0  0  1  0  0  0  0  0  0  0  0  0
  -26.5134  -20.1416   29.4135 C   0  0  2  0  0  0  0  0  0  0  0  0
  -27.3990  -23.6283   26.2714 C   0  0  0  0  0  0  0  0  0  0  0  0
  -26.1075  -11.6634   20.7991 N   0  0  0  0  0  0  0  0  0  0  0  0
  -28.6379  -20.1788   20.6533 N   0  0  0  0  0  0  0  0  0  0  0  0
  -27.7730  -19.1573   20.5326 N   0  0  0  0  0  0  0  0  0  0  0  0
  -24.1000  -22.5567   25.3587 N   0  0  0  0  0  0  0  0  0  0  0  0
  -29.0507  -15.6478   21.3448 N   0  0  0  0  0  0  0  0  0  0  0  0
  -25.7847  -18.4854   19.4345 N   0  0  0  0  0  0  0  0  0  0  0  0
  -26.4701  -22.6702   17.8807 N   0  0  0  0  0  0  0  0  0  0  0  0
  -22.2870  -25.2475   23.8745 N   0  0  0  0  0  0  0  0  0  0  0  0
  -26.3443  -21.9195   27.8113 N   0  0  0  0  0  0  0  0  0  0  0  0
  -28.0093  -14.1995   19.7918 N   0  0  0  0  0  0  0  0  0  0  0  0
  -25.8780  -18.8046   29.5856 N   0  3  0  0  0  0  0  0  0  0  0  0
  -25.0718  -20.8550   17.7872 O   0  0  0  0  0  0  0  0  0  0  0  0
  -23.9064  -23.8028   23.0303 O   0  0  0  0  0  0  0  0  0  0  0  0
  -24.5414  -24.0325   27.1089 O   0  0  0  0  0  0  0  0  0  0  0  0
  -26.5825  -19.7490   27.0306 O   0  0  0  0  0  0  0  0  0  0  0  0
  -28.8892  -13.3682   21.7390 O   0  0  0  0  0  0  0  0  0  0  0  0
  -30.6863  -26.0431   19.2523 O   0  0  0  0  0  0  0  0  0  0  0  0
  -23.2746  -17.9279   21.3655 O   0  0  0  0  0  0  0  0  0  1  0  0
  -27.5542  -30.5802   19.3491 F   0  0  0  0  0  0  0  0  0  0  0  0
  -31.0839  -28.0006   21.1636 F   0  0  0  0  0  0  0  0  0  0  0  0
  1  2  1  0  0  0  0
  1  5  2  0  0  0  0
  2  6  2  0  0  0  0
  3  8  2  0  0  0  0
  3 17  1  0  0  0  0
  4  9  1  0  0  0  0
  4 17  2  0  0  0  0
  5 19  1  0  0  0  0
  6 21  1  0  0  0  0
  7 10  2  0  0  0  0
  7 20  1  0  0  0  0
  8 25  1  0  0  0  0
  9 25  2  0  0  0  0
 10 26  1  0  0  0  0
 11 12  2  0  0  0  0
 11 27  1  0  0  0  0
 12 28  1  0  0  0  0
 13 22  1  0  0  0  0
 13 26  2  0  0  0  0
 14 23  1  0  0  0  0
 14 31  2  0  0  0  0
 15 28  2  0  0  0  0
 15 29  1  0  0  0  0
 16 24  1  0  0  0  0
 16 66  2  0  0  0  0
 17 30  1  0  0  0  0
 18 30  1  0  0  0  0
 18 32  2  0  0  0  0
 18 33  1  0  0  0  0
 19 21  2  0  0  0  0
 19 38  1  0  0  0  0
 20 22  2  0  0  0  0
 20 39  1  0  0  0  0
 21 47  1  0  0  0  0
 22 40  1  0  0  0  0
 23 24  2  0  0  0  0
 23 57  1  0  0  0  0
 24 62  1  0  0  0  0
 25 82  1  0  0  0  0
 26 83  1  0  0  0  0
 27 29  2  0  0  0  0
 27 82  1  0  0  0  0
 28 84  1  0  0  0  0
 29 85  1  0  0  0  0
 30 67  2  0  0  0  0
 31 58  1  0  0  0  0
 31 66  1  0  0  0  0
 32 68  1  0  0  0  0
 32 71  1  0  0  0  0
 33 72  1  0  0  0  0
 33 77  2  0  0  0  0
 34 48  1  0  0  0  0
 34 73  1  0  0  0  0
 34 78  2  0  0  0  0
 35 63  1  0  0  0  0
 35 69  1  0  0  0  0
 35 79  2  0  0  0  0
 36 64  1  0  0  0  0
 36 74  1  0  0  0  0
 36 80  2  0  0  0  0
 37 70  1  0  0  0  0
 37 75  1  0  0  0  0
 37 81  2  0  0  0  0
 38 41  1  0  0  0  0
 39 48  1  0  0  0  0
 40 69  1  0  0  0  0
 41 43  1  0  0  0  0
 42 44  1  0  0  0  0
 42 45  1  0  0  0  0
 43 47  1  0  0  0  0
 44 49  1  0  0  0  0
 45 70  1  0  0  0  0
 46 49  1  0  0  0  0
 46 70  1  0  0  0  0
 47 73  1  0  0  0  0
 48 69  1  0  0  0  0
 49 68  1  0  0  0  0
 50 62  1  0  0  0  0
 51 62  1  0  0  0  0
 52 64  1  0  0  0  0
 53 65  1  0  0  0  0
 54 65  1  0  0  0  0
 55 65  1  0  0  0  0
 56 76  1  0  0  0  0
 57 59  1  0  0  0  0
 58 75  1  0  0  0  0
 59 60  1  0  0  0  0
 60 61  1  0  0  0  0
 61 83  1  0  0  0  0
 63 65  1  0  0  0  0
 63 74  1  0  0  0  0
 64 76  1  0  0  0  0
 67 68  1  0  0  0  0
M  CHG  1  76   1
M  ISO  4  37 100  61 101  75 100  83 101
M  END
> <Batch ID>
0101

> <Smiles>
CNC(C)C(=O)NC(C(=O)N1Cc2cc([101O:1][101CH2:1]CCCc3cc(C[100NH:0][100C:0](=O)N4CCCC(n5nc(-c6ccc(Oc7ccc(F)cc7F)cc6)c(C(N)=O)c5N)C4)ncc3C(C)C)ccc2CC1C(=O)NC1CCCc2ccccc21)C(C)(C)C

> <Shape>
0.215

> <Color>
0.064

> <Negative vol penalty>
0.000

$$$$

  -OEChem-04052319363D

 88 96  0     1  0  0  0  0  0999 V2000
  -16.6268  -30.0216   23.6358 C   0  0  0  0  0  0  0  0  0  0  0  0
  -17.7343  -30.7072   24.1246 C   0  0  0  0  0  0  0  0  0  0  0  0
  -30.1513  -21.8643   25.2759 C   0  0  0  0  0  0  0  0  0  0  0  0
  -31.8644  -23.5470   25.5423 C   0  0  0  0  0  0  0  0  0  0  0  0
  -16.7943  -28.7922   22.9998 C   0  0  0  0  0  0  0  0  0  0  0  0
  -19.0099  -30.1632   23.9787 C   0  0  0  0  0  0  0  0  0  0  0  0
  -25.8331  -32.1141   23.0018 C   0  0  0  0  0  0  0  0  0  0  0  0
  -30.7339  -21.1099   26.2943 C   0  0  0  0  0  0  0  0  0  0  0  0
  -32.4470  -22.7926   26.5608 C   0  0  0  0  0  0  0  0  0  0  0  0
  -27.0994  -31.9143   23.5498 C   0  0  0  0  0  0  0  0  0  0  0  0
  -31.8969  -22.1935   29.8408 C   0  0  0  0  0  0  0  0  0  0  0  0
  -32.2893  -22.8646   30.9990 C   0  0  0  0  0  0  0  0  0  0  0  0
  -27.2759  -29.8212   22.3636 C   0  0  0  0  0  0  0  0  0  0  0  0
  -34.5704  -22.1558   30.6368 C   0  0  0  0  0  0  0  0  0  0  0  0
  -31.5211  -30.2887   19.6455 C   0  0  0  0  0  0  0  0  0  0  0  0
  -30.7166  -23.0828   24.8999 C   0  0  0  0  0  0  0  0  0  0  0  0
  -29.1232  -24.8514   23.9830 C   0  0  0  0  0  0  0  0  0  0  0  0
  -18.0735  -28.2374   22.8375 C   0  0  0  0  0  0  0  0  0  0  0  0
  -25.2731  -31.1620   22.1378 C   0  0  0  0  0  0  0  0  0  0  0  0
  -19.1945  -28.9245   23.3412 C   0  0  0  0  0  0  0  0  0  0  0  0
  -26.0033  -30.0124   21.8041 C   0  0  0  0  0  0  0  0  0  0  0  0
  -32.5013  -29.8132   18.8027 C   0  0  0  0  0  0  0  0  0  0  0  0
  -33.6653  -30.5889   19.0273 C   0  0  0  0  0  0  0  0  0  0  0  0
  -31.8817  -21.5741   26.9368 C   0  0  0  0  0  0  0  0  0  0  0  0
  -27.8198  -30.7664   23.2330 C   0  0  0  0  0  0  0  0  0  0  0  0
  -32.8413  -21.5035   29.0807 C   0  0  0  0  0  0  0  0  0  0  0  0
  -33.6260  -22.8458   31.3970 C   0  0  0  0  0  0  0  0  0  0  0  0
  -34.1780  -21.4847   29.4787 C   0  0  0  0  0  0  0  0  0  0  0  0
  -30.1156  -23.8622   23.8475 C   0  0  0  0  0  0  0  0  0  0  0  0
  -33.3610  -31.5148   20.0007 C   0  0  0  0  0  0  0  0  0  0  0  0
  -28.8956  -25.2874   22.7006 C   0  0  0  0  0  0  0  0  0  0  0  0
  -28.4659  -25.3332   25.1627 C   0  0  0  0  0  0  0  0  0  0  0  0
  -22.6917  -29.3088   22.2122 C   0  0  0  0  0  0  0  0  0  0  0  0
  -23.6115  -28.5723   19.1899 C   0  0  0  0  0  0  0  0  0  0  0  0
  -26.1286  -28.3789   16.8935 C   0  0  0  0  0  0  0  0  0  0  0  0
  -31.7294  -26.2989   17.7548 C   0  0  0  0  0  0  0  0  0  0  0  0
  -18.2001  -26.8834   22.1853 C   0  0  0  0  0  0  0  0  0  0  0  0
  -23.9171  -31.4051   21.5340 C   0  0  0  0  0  0  0  0  0  0  0  0
  -25.4554  -28.9697   20.8655 C   0  0  0  0  0  0  0  0  0  0  0  0
  -19.6219  -26.5531   21.7385 C   0  0  0  0  0  0  0  0  0  0  0  0
  -29.6855  -23.4167   18.1929 C   0  0  0  0  0  0  0  0  0  0  0  0
  -20.6192  -26.8826   22.8448 C   0  0  0  0  0  0  0  0  0  0  0  0
  -29.4958  -23.3297   19.7083 C   0  0  0  0  0  0  0  0  0  0  0  0
  -31.0841  -23.9083   17.8265 C   0  0  0  0  0  0  0  0  0  0  0  0
  -31.2910  -25.0912   19.9787 C   0  0  0  0  0  0  0  0  0  0  0  0
  -20.5968  -28.3788   23.1801 C   0  0  1  0  0  0  0  0  0  0  0  0
  -23.2309  -30.1238   21.0708 C   0  0  1  0  0  0  0  0  0  0  0  0
  -29.8773  -24.6534   20.3981 C   0  0  2  0  0  0  0  0  0  0  0  0
  -34.8817  -30.6850   16.8217 C   0  0  0  0  0  0  0  0  0  0  0  0
  -35.6226  -29.0591   18.6000 C   0  0  0  0  0  0  0  0  0  0  0  0
  -34.6812  -33.6229   19.5927 C   0  0  0  0  0  0  0  0  0  0  0  0
  -35.4209  -31.9967   21.3713 C   0  0  0  0  0  0  0  0  0  0  0  0
  -26.5815  -27.7041   14.5193 C   0  0  0  0  0  0  0  0  0  0  0  0
  -31.7730  -30.1058   24.7370 C   0  0  0  0  0  0  0  0  0  0  0  0
  -23.5036  -25.6344   20.0069 C   0  0  0  0  0  0  0  0  0  0  0  0
  -24.8461  -25.0894   17.9650 C   0  0  0  0  0  0  0  0  0  0  0  0
  -22.5859  -26.1189   17.7315 C   0  0  0  0  0  0  0  0  0  0  0  0
  -27.0003  -31.1107   16.1612 C   0  0  0  0  0  0  0  0  0  0  0  0
  -32.3540  -28.6991   17.8448 C   0  0  0  0  0  0  0  0  0  0  0  0
  -31.6726  -31.7589   22.8545 C   0  0  0  0  0  0  0  0  0  0  0  0
  -31.3034  -32.1168   21.4082 C   0  0  0  0  0  0  0  0  0  0  0  0
  -29.9874  -29.8190   22.9881 C   0  0  0  0  0  0  0  0  0  1  0  0
  -34.9667  -30.4354   18.3448 C   0  0  0  0  0  0  0  0  0  0  0  0
  -34.2006  -32.5662   20.6130 C   0  0  0  0  0  0  0  0  0  0  0  0
  -24.5095  -27.5291   18.5700 C   0  0  1  0  0  0  0  0  0  0  0  0
  -26.2155  -28.8479   15.4523 C   0  0  2  0  0  0  0  0  0  0  0  0
  -31.4243  -30.2877   23.2543 C   0  0  2  0  0  0  0  0  0  0  0  0
  -23.8711  -26.1115   18.5876 C   0  0  0  0  0  0  0  0  0  0  0  0
  -30.4924  -23.6801   22.5791 N   0  0  0  0  0  0  0  0  0  0  0  0
  -32.0550  -31.3228   20.3692 N   0  0  0  0  0  0  0  0  0  0  0  0
  -29.7327  -24.5608   21.9058 N   0  0  0  0  0  0  0  0  0  0  0  0
  -24.1228  -29.2498   20.3059 N   0  0  0  0  0  0  0  0  0  0  0  0
  -31.3831  -25.1678   18.5122 N   0  0  0  0  0  0  0  0  0  0  0  0
  -28.0630  -26.2174   22.1865 N   0  0  0  0  0  0  0  0  0  0  0  0
  -28.8196  -24.7764   26.3992 N   0  0  0  0  0  0  0  0  0  0  0  0
  -21.3216  -29.1320   22.1793 N   0  0  0  0  0  0  0  0  0  0  0  0
  -24.8428  -28.0178   17.2364 N   0  0  0  0  0  0  0  0  0  0  0  0
  -31.9911  -27.4532   18.4827 N   0  0  0  0  0  0  0  0  0  0  0  0
  -27.2476  -29.9143   15.3160 N   0  3  0  0  0  0  0  0  0  0  0  0
  -27.5792  -26.2194   25.1195 O   0  0  0  0  0  0  0  0  0  0  0  0
  -23.4619  -28.8715   23.0591 O   0  0  0  0  0  0  0  0  0  0  0  0
  -22.5003  -28.7835   18.6977 O   0  0  0  0  0  0  0  0  0  0  0  0
  -27.1045  -28.3336   17.6393 O   0  0  0  0  0  0  0  0  0  0  0  0
  -31.7949  -26.2828   16.5209 O   0  0  0  0  0  0  0  0  0  0  0  0
  -32.4503  -20.8384   27.9307 O   0  0  0  0  0  0  0  0  0  0  0  0
  -29.0558  -30.5686   23.7669 O   0  0  0  0  0  0  0  0  0  1  0  0
  -34.0029  -23.4916   32.5083 F   0  0  0  0  0  0  0  0  0  0  0  0
  -35.0900  -20.8245   28.7519 F   0  0  0  0  0  0  0  0  0  0  0  0
  1  2  1  0  0  0  0
  1  5  2  0  0  0  0
  2  6  2  0  0  0  0
  3  8  2  0  0  0  0
  3 16  1  0  0  0  0
  4  9  1  0  0  0  0
  4 16  2  0  0  0  0
  5 18  1  0  0  0  0
  6 20  1  0  0  0  0
  7 10  2  0  0  0  0
  7 19  1  0  0  0  0
  8 24  1  0  0  0  0
  9 24  2  0  0  0  0
 10 25  1  0  0  0  0
 11 12  2  0  0  0  0
 11 26  1  0  0  0  0
 12 27  1  0  0  0  0
 13 21  1  0  0  0  0
 13 25  2  0  0  0  0
 14 27  2  0  0  0  0
 14 28  1  0  0  0  0
 15 22  2  0  0  0  0
 15 70  1  0  0  0  0
 16 29  1  0  0  0  0
 17 29  1  0  0  0  0
 17 31  2  0  0  0  0
 17 32  1  0  0  0  0
 18 20  2  0  0  0  0
 18 37  1  0  0  0  0
 19 21  2  0  0  0  0
 19 38  1  0  0  0  0
 20 46  1  0  0  0  0
 21 39  1  0  0  0  0
 22 23  1  0  0  0  0
 22 59  1  0  0  0  0
 23 30  2  0  0  0  0
 23 63  1  0  0  0  0
 24 85  1  0  0  0  0
 25 86  1  0  0  0  0
 26 28  2  0  0  0  0
 26 85  1  0  0  0  0
 27 87  1  0  0  0  0
 28 88  1  0  0  0  0
 29 69  2  0  0  0  0
 30 64  1  0  0  0  0
 30 70  1  0  0  0  0
 31 71  1  0  0  0  0
 31 74  1  0  0  0  0
 32 75  1  0  0  0  0
 32 80  2  0  0  0  0
 33 47  1  0  0  0  0
 33 76  1  0  0  0  0
 33 81  2  0  0  0  0
 34 65  1  0  0  0  0
 34 72  1  0  0  0  0
 34 82  2  0  0  0  0
 35 66  1  0  0  0  0
 35 77  1  0  0  0  0
 35 83  2  0  0  0  0
 36 73  1  0  0  0  0
 36 78  1  0  0  0  0
 36 84  2  0  0  0  0
 37 40  1  0  0  0  0
 38 47  1  0  0  0  0
 39 72  1  0  0  0  0
 40 42  1  0  0  0  0
 41 43  1  0  0  0  0
 41 44  1  0  0  0  0
 42 46  1  0  0  0  0
 43 48  1  0  0  0  0
 44 73  1  0  0  0  0
 45 48  1  0  0  0  0
 45 73  1  0  0  0  0
 46 76  1  0  0  0  0
 47 72  1  0  0  0  0
 48 71  1  0  0  0  0
 49 63  1  0  0  0  0
 50 63  1  0  0  0  0
 51 64  1  0  0  0  0
 52 64  1  0  0  0  0
 53 66  1  0  0  0  0
 54 67  1  0  0  0  0
 55 68  1  0  0  0  0
 56 68  1  0  0  0  0
 57 68  1  0  0  0  0
 58 79  1  0  0  0  0
 59 78  1  0  0  0  0
 60 61  1  0  0  0  0
 60 67  1  0  0  0  0
 61 70  1  0  0  0  0
 62 67  1  0  0  0  0
 62 86  1  0  0  0  0
 65 68  1  0  0  0  0
 65 77  1  0  0  0  0
 66 79  1  0  0  0  0
 69 71  1  0  0  0  0
M  CHG  1  79   1
M  ISO  4  36 100  62 101  78 100  86 101
M  END
> <Batch ID>
0101

> <Smiles>
CNC(C)C(=O)NC(C(=O)N1Cc2cc([101O:1][101CH2:1]C(C)CCn3cc(C[100NH:0][100C:0](=O)N4CCCC(n5nc(-c6ccc(Oc7ccc(F)cc7F)cc6)c(C(N)=O)c5N)C4)c(C(C)C)c3C(C)C)ccc2CC1C(=O)NC1CCCc2ccccc21)C(C)(C)C

> <Shape>
0.183

> <Color>
0.091

> <Negative vol penalty>
0.000

$$$$

  -OEChem-04052319363D

 82 90  0     1  0  0  0  0  0999 V2000
  -30.6110  -23.9007   15.5501 C   0  0  0  0  0  0  0  0  0  0  0  0
  -29.4850  -24.7101   15.6499 C   0  0  0  0  0  0  0  0  0  0  0  0
  -27.8519  -14.3715   21.6247 C   0  0  0  0  0  0  0  0  0  0  0  0
  -26.6534  -14.9676   19.6134 C   0  0  0  0  0  0  0  0  0  0  0  0
  -31.2246  -23.4211   16.7053 C   0  0  0  0  0  0  0  0  0  0  0  0
  -28.9793  -25.0499   16.9052 C   0  0  0  0  0  0  0  0  0  0  0  0
  -23.9973  -28.2003   18.4485 C   0  0  0  0  0  0  0  0  0  0  0  0
  -27.2851  -13.0977   21.5850 C   0  0  0  0  0  0  0  0  0  0  0  0
  -26.0867  -13.6936   19.5736 C   0  0  0  0  0  0  0  0  0  0  0  0
  -22.6625  -27.9326   18.7490 C   0  0  0  0  0  0  0  0  0  0  0  0
  -23.5762  -12.0345   21.1149 C   0  0  0  0  0  0  0  0  0  0  0  0
  -22.2091  -11.9413   20.8542 C   0  0  0  0  0  0  0  0  0  0  0  0
  -23.1921  -27.9652   21.1022 C   0  0  0  0  0  0  0  0  0  0  0  0
  -21.9362  -24.1298   20.4932 C   0  0  0  0  0  0  0  0  0  0  0  0
  -22.6748  -10.6244   18.8829 C   0  0  0  0  0  0  0  0  0  0  0  0
  -20.0206  -22.7411   20.2514 C   0  0  0  0  0  0  0  0  0  0  0  0
  -27.5360  -15.3065   20.6389 C   0  0  0  0  0  0  0  0  0  0  0  0
  -29.3270  -17.0360   20.0832 C   0  0  0  0  0  0  0  0  0  0  0  0
  -30.7182  -23.7456   17.9747 C   0  0  0  0  0  0  0  0  0  0  0  0
  -24.9432  -28.3420   19.4740 C   0  0  0  0  0  0  0  0  0  0  0  0
  -29.5987  -24.5955   18.0835 C   0  0  0  0  0  0  0  0  0  0  0  0
  -24.5378  -28.2373   20.8122 C   0  0  0  0  0  0  0  0  0  0  0  0
  -20.5651  -23.9538   20.6423 C   0  0  0  0  0  0  0  0  0  0  0  0
  -22.7101  -23.1023   19.9654 C   0  0  0  0  0  0  0  0  0  0  0  0
  -26.4025  -12.7587   20.5594 C   0  0  0  0  0  0  0  0  0  0  0  0
  -22.2602  -27.8121   20.0759 C   0  0  0  0  0  0  0  0  0  0  0  0
  -24.4926  -11.4228   20.2595 C   0  0  0  0  0  0  0  0  0  0  0  0
  -21.7584  -11.2362   19.7383 C   0  0  0  0  0  0  0  0  0  0  0  0
  -24.0419  -10.7177   19.1436 C   0  0  0  0  0  0  0  0  0  0  0  0
  -28.1207  -16.6228   20.6798 C   0  0  0  0  0  0  0  0  0  0  0  0
  -22.0696  -21.9277   19.6050 C   0  0  0  0  0  0  0  0  0  0  0  0
  -29.4348  -18.3653   20.4119 C   0  0  0  0  0  0  0  0  0  0  0  0
  -30.2660  -16.2855   19.3019 C   0  0  0  0  0  0  0  0  0  0  0  0
  -27.5857  -26.7902   20.3182 C   0  0  0  0  0  0  0  0  0  0  0  0
  -27.8454  -29.2003   22.4737 C   0  0  0  0  0  0  0  0  0  0  0  0
  -26.2970  -31.6271   24.3067 C   0  0  0  0  0  0  0  0  0  0  0  0
  -25.4000  -22.5540   21.8349 C   0  0  0  0  0  0  0  0  0  0  0  0
  -31.4262  -23.2055   19.1922 C   0  0  0  0  0  0  0  0  0  0  0  0
  -26.3741  -28.6572   19.1340 C   0  0  0  0  0  0  0  0  0  0  0  0
  -25.5103  -28.4009   21.9505 C   0  0  0  0  0  0  0  0  0  0  0  0
  -30.5649  -23.2517   20.4501 C   0  0  0  0  0  0  0  0  0  0  0  0
  -28.1747  -21.4988   23.8006 C   0  0  0  0  0  0  0  0  0  0  0  0
  -29.9505  -24.6345   20.6089 C   0  0  0  0  0  0  0  0  0  0  0  0
  -28.5844  -20.1668   23.1699 C   0  0  0  0  0  0  0  0  0  0  0  0
  -26.6596  -21.6886   23.7845 C   0  0  0  0  0  0  0  0  0  0  0  0
  -26.4402  -20.2058   21.8283 C   0  0  0  0  0  0  0  0  0  0  0  0
  -29.0129  -24.9532   19.4374 C   0  0  1  0  0  0  0  0  0  0  0  0
  -27.3501  -28.2722   20.2415 C   0  0  1  0  0  0  0  0  0  0  0  0
  -27.9628  -19.9942   21.7709 C   0  0  2  0  0  0  0  0  0  0  0  0
  -22.8505  -20.7896   19.0335 C   0  0  0  0  0  0  0  0  0  0  0  0
  -26.7658  -33.4120   26.0073 C   0  0  0  0  0  0  0  0  0  0  0  0
  -28.0888  -27.0672   24.6418 C   0  0  0  0  0  0  0  0  0  0  0  0
  -27.5993  -28.8387   26.3420 C   0  0  0  0  0  0  0  0  0  0  0  0
  -29.6370  -29.0124   24.9136 C   0  0  0  0  0  0  0  0  0  0  0  0
  -25.3429  -33.7652   22.4964 C   0  0  0  0  0  0  0  0  0  0  0  0
  -19.6978  -25.0478   21.2121 C   0  0  0  0  0  0  0  0  0  0  0  0
  -24.1795  -23.2849   19.8014 C   0  0  0  0  0  0  0  0  0  0  0  0
  -19.1374  -26.0027   20.1559 C   0  0  0  0  0  0  0  0  0  0  0  0
  -20.2159  -26.7892   19.4200 C   0  0  0  0  0  0  0  0  0  1  0  0
  -27.3644  -29.4275   23.8865 C   0  0  1  0  0  0  0  0  0  0  0  0
  -26.6322  -33.0913   24.5267 C   0  0  2  0  0  0  0  0  0  0  0  0
  -28.1542  -28.5814   24.9247 C   0  0  0  0  0  0  0  0  0  0  0  0
  -20.7401  -21.7199   19.7348 N   0  0  0  0  0  0  0  0  0  0  0  0
  -27.5063  -17.6095   21.3377 N   0  0  0  0  0  0  0  0  0  0  0  0
  -28.3298  -18.6560   21.1566 N   0  0  0  0  0  0  0  0  0  0  0  0
  -26.8994  -28.7020   21.5667 N   0  0  0  0  0  0  0  0  0  0  0  0
  -26.1332  -21.5134   22.4287 N   0  0  0  0  0  0  0  0  0  0  0  0
  -30.3662  -19.3020   20.1336 N   0  0  0  0  0  0  0  0  0  0  0  0
  -30.0013  -14.9308   19.0590 N   0  0  0  0  0  0  0  0  0  0  0  0
  -28.6166  -26.3421   19.5144 N   0  0  0  0  0  0  0  0  0  0  0  0
  -27.4311  -30.8670   24.1140 N   0  0  0  0  0  0  0  0  0  0  0  0
  -24.9428  -22.3084   20.5460 N   0  0  0  0  0  0  0  0  0  0  0  0
  -25.5652  -33.9589   23.9524 N   0  3  0  0  0  0  0  0  0  0  0  0
  -31.3171  -16.7968   18.8467 O   0  0  0  0  0  0  0  0  0  0  0  0
  -26.8852  -26.1043   21.0533 O   0  0  0  0  0  0  0  0  0  0  0  0
  -29.0154  -29.4623   22.1838 O   0  0  0  0  0  0  0  0  0  0  0  0
  -25.1446  -31.1999   24.3095 O   0  0  0  0  0  0  0  0  0  0  0  0
  -25.1744  -23.6249   22.4088 O   0  0  0  0  0  0  0  0  0  0  0  0
  -25.8495  -11.5156   20.5201 O   0  0  0  0  0  0  0  0  0  0  0  0
  -20.9581  -27.5501   20.3721 O   0  0  0  0  0  0  0  0  0  1  0  0
  -20.4455  -11.1455   19.4889 F   0  0  0  0  0  0  0  0  0  0  0  0
  -24.9175  -10.1269   18.3189 F   0  0  0  0  0  0  0  0  0  0  0  0
  1  2  1  0  0  0  0
  1  5  2  0  0  0  0
  2  6  2  0  0  0  0
  3  8  2  0  0  0  0
  3 17  1  0  0  0  0
  4  9  1  0  0  0  0
  4 17  2  0  0  0  0
  5 19  1  0  0  0  0
  6 21  1  0  0  0  0
  7 10  2  0  0  0  0
  7 20  1  0  0  0  0
  8 25  1  0  0  0  0
  9 25  2  0  0  0  0
 10 26  1  0  0  0  0
 11 12  2  0  0  0  0
 11 27  1  0  0  0  0
 12 28  1  0  0  0  0
 13 22  1  0  0  0  0
 13 26  2  0  0  0  0
 14 23  2  0  0  0  0
 14 24  1  0  0  0  0
 15 28  2  0  0  0  0
 15 29  1  0  0  0  0
 16 23  1  0  0  0  0
 16 63  2  0  0  0  0
 17 30  1  0  0  0  0
 18 30  1  0  0  0  0
 18 32  2  0  0  0  0
 18 33  1  0  0  0  0
 19 21  2  0  0  0  0
 19 38  1  0  0  0  0
 20 22  2  0  0  0  0
 20 39  1  0  0  0  0
 21 47  1  0  0  0  0
 22 40  1  0  0  0  0
 23 56  1  0  0  0  0
 24 31  2  0  0  0  0
 24 57  1  0  0  0  0
 25 79  1  0  0  0  0
 26 80  1  0  0  0  0
 27 29  2  0  0  0  0
 27 79  1  0  0  0  0
 28 81  1  0  0  0  0
 29 82  1  0  0  0  0
 30 64  2  0  0  0  0
 31 50  1  0  0  0  0
 31 63  1  0  0  0  0
 32 65  1  0  0  0  0
 32 68  1  0  0  0  0
 33 69  1  0  0  0  0
 33 74  2  0  0  0  0
 34 48  1  0  0  0  0
 34 70  1  0  0  0  0
 34 75  2  0  0  0  0
 35 60  1  0  0  0  0
 35 66  1  0  0  0  0
 35 76  2  0  0  0  0
 36 61  1  0  0  0  0
 36 71  1  0  0  0  0
 36 77  2  0  0  0  0
 37 67  1  0  0  0  0
 37 72  1  0  0  0  0
 37 78  2  0  0  0  0
 38 41  1  0  0  0  0
 39 48  1  0  0  0  0
 40 66  1  0  0  0  0
 41 43  1  0  0  0  0
 42 44  1  0  0  0  0
 42 45  1  0  0  0  0
 43 47  1  0  0  0  0
 44 49  1  0  0  0  0
 45 67  1  0  0  0  0
 46 49  1  0  0  0  0
 46 67  1  0  0  0  0
 47 70  1  0  0  0  0
 48 66  1  0  0  0  0
 49 65  1  0  0  0  0
 51 61  1  0  0  0  0
 52 62  1  0  0  0  0
 53 62  1  0  0  0  0
 54 62  1  0  0  0  0
 55 73  1  0  0  0  0
 56 58  1  0  0  0  0
 57 72  1  0  0  0  0
 58 59  1  0  0  0  0
 59 80  1  0  0  0  0
 60 62  1  0  0  0  0
 60 71  1  0  0  0  0
 61 73  1  0  0  0  0
 64 65  1  0  0  0  0
M  CHG  1  73   1
M  ISO  4  37 100  59 101  72 100  80 101
M  END
> <Batch ID>
0101

> <Smiles>
CNC(C)C(=O)NC(C(=O)N1Cc2cc([101O:1][101CH2:1]CCc3cnc(C)c(C[100NH:0][100C:0](=O)N4CCCC(n5nc(-c6ccc(Oc7ccc(F)cc7F)cc6)c(C(N)=O)c5N)C4)c3)ccc2CC1C(=O)NC1CCCc2ccccc21)C(C)(C)C

> <Shape>
0.237

> <Color>
0.058

> <Negative vol penalty>
0.000

$$$$

  -OEChem-04052319363D

 82 90  0     1  0  0  0  0  0999 V2000
  -23.2460  -24.0187   21.1691 C   0  0  0  0  0  0  0  0  0  0  0  0
  -24.3979  -23.2399   21.2138 C   0  0  0  0  0  0  0  0  0  0  0  0
  -26.6551  -28.7052   21.6771 C   0  0  0  0  0  0  0  0  0  0  0  0
  -26.0212  -26.5690   22.6110 C   0  0  0  0  0  0  0  0  0  0  0  0
  -22.0384  -23.5027   21.6374 C   0  0  0  0  0  0  0  0  0  0  0  0
  -24.3431  -21.9449   21.7279 C   0  0  0  0  0  0  0  0  0  0  0  0
  -26.8476  -18.6077   18.8582 C   0  0  0  0  0  0  0  0  0  0  0  0
  -25.4073  -29.2256   22.0205 C   0  0  0  0  0  0  0  0  0  0  0  0
  -24.7734  -27.0895   22.9545 C   0  0  0  0  0  0  0  0  0  0  0  0
  -28.2369  -18.5863   18.9720 C   0  0  0  0  0  0  0  0  0  0  0  0
  -21.2904  -27.7515   23.7544 C   0  0  0  0  0  0  0  0  0  0  0  0
  -20.1654  -26.9749   23.4772 C   0  0  0  0  0  0  0  0  0  0  0  0
  -28.0825  -16.6645   20.4219 C   0  0  0  0  0  0  0  0  0  0  0  0
  -20.7238  -27.0049   21.1267 C   0  0  0  0  0  0  0  0  0  0  0  0
  -33.7250  -19.9646   23.1610 C   0  0  0  0  0  0  0  0  0  0  0  0
  -26.9620  -27.3769   21.9723 C   0  0  0  0  0  0  0  0  0  0  0  0
  -29.4173  -26.8365   22.4050 C   0  0  0  0  0  0  0  0  0  0  0  0
  -21.9668  -22.1973   22.1486 C   0  0  0  0  0  0  0  0  0  0  0  0
  -26.0633  -17.6627   19.5352 C   0  0  0  0  0  0  0  0  0  0  0  0
  -23.1337  -21.4114   22.2048 C   0  0  0  0  0  0  0  0  0  0  0  0
  -26.6835  -16.6745   20.3129 C   0  0  0  0  0  0  0  0  0  0  0  0
  -33.2167  -20.0142   21.8790 C   0  0  0  0  0  0  0  0  0  0  0  0
  -24.4665  -28.4178   22.6592 C   0  0  0  0  0  0  0  0  0  0  0  0
  -28.8545  -17.6164   19.7562 C   0  0  0  0  0  0  0  0  0  0  0  0
  -22.1321  -28.1549   22.7177 C   0  0  0  0  0  0  0  0  0  0  0  0
  -19.8821  -26.6015   22.1634 C   0  0  0  0  0  0  0  0  0  0  0  0
  -21.8488  -27.7816   21.4040 C   0  0  0  0  0  0  0  0  0  0  0  0
  -28.2505  -26.8386   21.6173 C   0  0  0  0  0  0  0  0  0  0  0  0
  -33.9609  -20.7371   20.9693 C   0  0  0  0  0  0  0  0  0  0  0  0
  -30.3588  -26.2140   21.6224 C   0  0  0  0  0  0  0  0  0  0  0  0
  -35.5048  -21.2440   22.5588 C   0  0  0  0  0  0  0  0  0  0  0  0
  -29.6309  -27.3512   23.7261 C   0  0  0  0  0  0  0  0  0  0  0  0
  -23.8240  -17.8056   21.7866 C   0  0  0  0  0  0  0  0  0  0  0  0
  -23.5759  -14.6261   21.1935 C   0  0  0  0  0  0  0  0  0  0  0  0
  -25.0435  -11.7725   20.0317 C   0  0  0  0  0  0  0  0  0  0  0  0
  -31.8648  -22.0996   18.1657 C   0  0  0  0  0  0  0  0  0  0  0  0
  -20.6486  -21.6998   22.6869 C   0  0  0  0  0  0  0  0  0  0  0  0
  -24.5673  -17.6830   19.3807 C   0  0  0  0  0  0  0  0  0  0  0  0
  -25.8879  -15.6251   21.0438 C   0  0  0  0  0  0  0  0  0  0  0  0
  -20.5983  -20.1852   22.8704 C   0  0  0  0  0  0  0  0  0  0  0  0
  -30.2459  -24.9280   16.7316 C   0  0  0  0  0  0  0  0  0  0  0  0
  -21.8606  -19.6898   23.5690 C   0  0  0  0  0  0  0  0  0  0  0  0
  -29.6738  -25.6731   17.9389 C   0  0  0  0  0  0  0  0  0  0  0  0
  -30.1760  -23.4139   16.9178 C   0  0  0  0  0  0  0  0  0  0  0  0
  -30.2172  -23.6591   19.3698 C   0  0  0  0  0  0  0  0  0  0  0  0
  -23.1094  -19.9932   22.7324 C   0  0  1  0  0  0  0  0  0  0  0  0
  -23.8387  -16.9874   20.5265 C   0  0  1  0  0  0  0  0  0  0  0  0
  -30.3171  -25.1896   19.2526 C   0  0  2  0  0  0  0  0  0  0  0  0
  -36.7760  -21.9264   22.9360 C   0  0  0  0  0  0  0  0  0  0  0  0
  -24.6056   -9.3227   19.7094 C   0  0  0  0  0  0  0  0  0  0  0  0
  -23.9700  -14.1648   24.1838 C   0  0  0  0  0  0  0  0  0  0  0  0
  -24.4713  -11.7648   23.6767 C   0  0  0  0  0  0  0  0  0  0  0  0
  -22.2310  -12.7129   23.1246 C   0  0  0  0  0  0  0  0  0  0  0  0
  -25.3998  -11.9760   17.1007 C   0  0  0  0  0  0  0  0  0  0  0  0
  -31.9291  -19.3152   21.5222 C   0  0  0  0  0  0  0  0  0  0  0  0
  -33.5081  -20.8596   19.5517 C   0  0  0  0  0  0  0  0  0  0  0  0
  -32.0734  -17.7997   21.3672 C   0  0  0  0  0  0  0  0  0  0  0  0
  -30.7517  -17.0925   21.0911 C   0  0  0  0  0  0  0  0  0  1  0  0
  -24.2361  -13.3824   21.7378 C   0  0  1  0  0  0  0  0  0  0  0  0
  -24.5489  -10.7033   19.0742 C   0  0  2  0  0  0  0  0  0  0  0  0
  -23.7423  -13.0270   23.1686 C   0  0  0  0  0  0  0  0  0  0  0  0
  -34.8706  -20.5700   23.5371 N   0  0  0  0  0  0  0  0  0  0  0  0
  -28.4319  -26.2632   20.4257 N   0  0  0  0  0  0  0  0  0  0  0  0
  -35.1138  -21.3672   21.2760 N   0  0  0  0  0  0  0  0  0  0  0  0
  -29.7236  -25.8939   20.4587 N   0  0  0  0  0  0  0  0  0  0  0  0
  -24.4278  -15.6906   20.8663 N   0  0  0  0  0  0  0  0  0  0  0  0
  -30.8047  -23.0210   18.1813 N   0  0  0  0  0  0  0  0  0  0  0  0
  -31.6598  -25.9149   21.8230 N   0  0  0  0  0  0  0  0  0  0  0  0
  -28.5559  -27.9603   24.3877 N   0  0  0  0  0  0  0  0  0  0  0  0
  -23.2317  -19.0460   21.6451 N   0  0  0  0  0  0  0  0  0  0  0  0
  -24.0086  -12.3337   20.7495 N   0  0  0  0  0  0  0  0  0  0  0  0
  -32.4081  -21.7866   19.4057 N   0  0  0  0  0  0  0  0  0  0  0  0
  -25.3834  -10.6874   17.8396 N   0  3  0  0  0  0  0  0  0  0  0  0
  -30.7464  -27.2879   24.2963 O   0  0  0  0  0  0  0  0  0  0  0  0
  -24.3124  -17.3451   22.8118 O   0  0  0  0  0  0  0  0  0  0  0  0
  -22.3502  -14.6497   21.0569 O   0  0  0  0  0  0  0  0  0  0  0  0
  -26.2298  -12.0768   20.1352 O   0  0  0  0  0  0  0  0  0  0  0  0
  -32.2988  -21.5975   17.1233 O   0  0  0  0  0  0  0  0  0  0  0  0
  -23.2490  -28.9253   22.9947 O   0  0  0  0  0  0  0  0  0  0  0  0
  -30.2104  -17.5936   19.8696 O   0  0  0  0  0  0  0  0  0  1  0  0
  -18.8026  -25.8544   21.8975 F   0  0  0  0  0  0  0  0  0  0  0  0
  -22.6543  -28.1652   20.4041 F   0  0  0  0  0  0  0  0  0  0  0  0
  1  2  1  0  0  0  0
  1  5  2  0  0  0  0
  2  6  2  0  0  0  0
  3  8  2  0  0  0  0
  3 16  1  0  0  0  0
  4  9  1  0  0  0  0
  4 16  2  0  0  0  0
  5 18  1  0  0  0  0
  6 20  1  0  0  0  0
  7 10  2  0  0  0  0
  7 19  1  0  0  0  0
  8 23  1  0  0  0  0
  9 23  2  0  0  0  0
 10 24  1  0  0  0  0
 11 12  2  0  0  0  0
 11 25  1  0  0  0  0
 12 26  1  0  0  0  0
 13 21  1  0  0  0  0
 13 24  2  0  0  0  0
 14 26  2  0  0  0  0
 14 27  1  0  0  0  0
 15 22  1  0  0  0  0
 15 62  2  0  0  0  0
 16 28  1  0  0  0  0
 17 28  1  0  0  0  0
 17 30  2  0  0  0  0
 17 32  1  0  0  0  0
 18 20  2  0  0  0  0
 18 37  1  0  0  0  0
 19 21  2  0  0  0  0
 19 38  1  0  0  0  0
 20 46  1  0  0  0  0
 21 39  1  0  0  0  0
 22 29  2  0  0  0  0
 22 55  1  0  0  0  0
 23 79  1  0  0  0  0
 24 80  1  0  0  0  0
 25 27  2  0  0  0  0
 25 79  1  0  0  0  0
 26 81  1  0  0  0  0
 27 82  1  0  0  0  0
 28 63  2  0  0  0  0
 29 56  1  0  0  0  0
 29 64  1  0  0  0  0
 30 65  1  0  0  0  0
 30 68  1  0  0  0  0
 31 49  1  0  0  0  0
 31 62  1  0  0  0  0
 31 64  2  0  0  0  0
 32 69  1  0  0  0  0
 32 74  2  0  0  0  0
 33 47  1  0  0  0  0
 33 70  1  0  0  0  0
 33 75  2  0  0  0  0
 34 59  1  0  0  0  0
 34 66  1  0  0  0  0
 34 76  2  0  0  0  0
 35 60  1  0  0  0  0
 35 71  1  0  0  0  0
 35 77  2  0  0  0  0
 36 67  1  0  0  0  0
 36 72  1  0  0  0  0
 36 78  2  0  0  0  0
 37 40  1  0  0  0  0
 38 47  1  0  0  0  0
 39 66  1  0  0  0  0
 40 42  1  0  0  0  0
 41 43  1  0  0  0  0
 41 44  1  0  0  0  0
 42 46  1  0  0  0  0
 43 48  1  0  0  0  0
 44 67  1  0  0  0  0
 45 48  1  0  0  0  0
 45 67  1  0  0  0  0
 46 70  1  0  0  0  0
 47 66  1  0  0  0  0
 48 65  1  0  0  0  0
 50 60  1  0  0  0  0
 51 61  1  0  0  0  0
 52 61  1  0  0  0  0
 53 61  1  0  0  0  0
 54 73  1  0  0  0  0
 55 57  1  0  0  0  0
 56 72  1  0  0  0  0
 57 58  1  0  0  0  0
 58 80  1  0  0  0  0
 59 61  1  0  0  0  0
 59 71  1  0  0  0  0
 60 73  1  0  0  0  0
 63 65  1  0  0  0  0
M  CHG  1  73   1
M  ISO  4  36 100  58 101  72 100  80 101
M  END
> <Batch ID>
0101

> <Smiles>
CNC(C)C(=O)NC(C(=O)N1Cc2cc([101O:1][101CH2:1]CCc3cnc(C)nc3C[100NH:0][100C:0](=O)N3CCCC(n4nc(-c5ccc(Oc6ccc(F)cc6F)cc5)c(C(N)=O)c4N)C3)ccc2CC1C(=O)NC1CCCc2ccccc21)C(C)(C)C

> <Shape>
0.186

> <Color>
0.078

> <Negative vol penalty>
0.000

$$$$

  -OEChem-04052319363D

 89 97  0     1  0  0  0  0  0999 V2000
  -31.1329  -24.5208   18.5144 C   0  0  0  0  0  0  0  0  0  0  0  0
  -29.8302  -24.9559   18.2987 C   0  0  0  0  0  0  0  0  0  0  0  0
  -26.4727  -13.9790   18.5326 C   0  0  0  0  0  0  0  0  0  0  0  0
  -25.1035  -14.5770   20.4313 C   0  0  0  0  0  0  0  0  0  0  0  0
  -31.7331  -24.7183   19.7561 C   0  0  0  0  0  0  0  0  0  0  0  0
  -29.1314  -25.5992   19.3209 C   0  0  0  0  0  0  0  0  0  0  0  0
  -23.3709  -27.5721   19.5485 C   0  0  0  0  0  0  0  0  0  0  0  0
  -26.4627  -12.6466   18.9450 C   0  0  0  0  0  0  0  0  0  0  0  0
  -25.0935  -13.2445   20.8437 C   0  0  0  0  0  0  0  0  0  0  0  0
  -22.1297  -27.0801   19.9500 C   0  0  0  0  0  0  0  0  0  0  0  0
  -23.4812  -10.3934   20.0117 C   0  0  0  0  0  0  0  0  0  0  0  0
  -22.2611   -9.8503   20.4142 C   0  0  0  0  0  0  0  0  0  0  0  0
  -22.3965  -28.1680   22.0865 C   0  0  0  0  0  0  0  0  0  0  0  0
  -20.2805  -24.0556   22.9983 C   0  0  0  0  0  0  0  0  0  0  0  0
  -21.4328  -23.3707   20.9883 C   0  0  0  0  0  0  0  0  0  0  0  0
  -23.1835   -9.3983   22.6009 C   0  0  0  0  0  0  0  0  0  0  0  0
  -25.7931  -14.9443   19.2758 C   0  0  0  0  0  0  0  0  0  0  0  0
  -24.8853  -16.9518   17.9901 C   0  0  0  0  0  0  0  0  0  0  0  0
  -31.0362  -25.3533   20.7974 C   0  0  0  0  0  0  0  0  0  0  0  0
  -24.1403  -28.3580   20.4184 C   0  0  0  0  0  0  0  0  0  0  0  0
  -29.7283  -25.8292   20.5736 C   0  0  0  0  0  0  0  0  0  0  0  0
  -23.6459  -28.6708   21.6927 C   0  0  0  0  0  0  0  0  0  0  0  0
  -20.2788  -23.8325   21.6214 C   0  0  0  0  0  0  0  0  0  0  0  0
  -21.4361  -23.8170   23.7421 C   0  0  0  0  0  0  0  0  0  0  0  0
  -22.5884  -23.1321   21.7321 C   0  0  0  0  0  0  0  0  0  0  0  0
  -22.5901  -23.3552   23.1090 C   0  0  0  0  0  0  0  0  0  0  0  0
  -25.7731  -12.2793   20.1005 C   0  0  0  0  0  0  0  0  0  0  0  0
  -21.6436  -27.3756   21.2202 C   0  0  0  0  0  0  0  0  0  0  0  0
  -24.5525  -10.4389   20.9039 C   0  0  0  0  0  0  0  0  0  0  0  0
  -22.1122   -9.3527   21.7087 C   0  0  0  0  0  0  0  0  0  0  0  0
  -24.4037   -9.9414   22.1985 C   0  0  0  0  0  0  0  0  0  0  0  0
  -25.8035  -16.3209   18.8507 C   0  0  0  0  0  0  0  0  0  0  0  0
  -25.3304  -18.2483   17.9039 C   0  0  0  0  0  0  0  0  0  0  0  0
  -23.7329  -16.4140   17.3279 C   0  0  0  0  0  0  0  0  0  0  0  0
  -26.9998  -28.0601   21.7743 C   0  0  0  0  0  0  0  0  0  0  0  0
  -26.4046  -31.0848   22.7838 C   0  0  0  0  0  0  0  0  0  0  0  0
  -24.1013  -33.4940   23.5169 C   0  0  0  0  0  0  0  0  0  0  0  0
  -27.1048  -22.7191   20.8139 C   0  0  0  0  0  0  0  0  0  0  0  0
  -31.7366  -25.5481   22.1190 C   0  0  0  0  0  0  0  0  0  0  0  0
  -25.4652  -28.9033   19.9604 C   0  0  0  0  0  0  0  0  0  0  0  0
  -24.4239  -29.5272   22.6569 C   0  0  0  0  0  0  0  0  0  0  0  0
  -30.7730  -25.8350   23.2659 C   0  0  0  0  0  0  0  0  0  0  0  0
  -29.6555  -20.3654   19.4189 C   0  0  0  0  0  0  0  0  0  0  0  0
  -29.8055  -26.9396   22.8679 C   0  0  0  0  0  0  0  0  0  0  0  0
  -28.7951  -19.1333   19.1431 C   0  0  0  0  0  0  0  0  0  0  0  0
  -29.0950  -21.1817   20.5774 C   0  0  0  0  0  0  0  0  0  0  0  0
  -26.8050  -20.3699   20.1152 C   0  0  0  0  0  0  0  0  0  0  0  0
  -28.9380  -26.5040   21.6802 C   0  0  1  0  0  0  0  0  0  0  0  0
  -26.3933  -29.2666   21.1154 C   0  0  1  0  0  0  0  0  0  0  0  0
  -27.3219  -19.5254   18.9386 C   0  0  2  0  0  0  0  0  0  0  0  0
  -21.4113  -24.0628   25.2154 C   0  0  0  0  0  0  0  0  0  0  0  0
  -24.5586  -24.3883   24.2684 C   0  0  0  0  0  0  0  0  0  0  0  0
  -23.9157  -35.8517   24.3561 C   0  0  0  0  0  0  0  0  0  0  0  0
  -18.7046  -28.0084   20.3903 C   0  0  0  0  0  0  0  0  0  0  0  0
  -19.1622  -23.8017   19.2892 C   0  0  0  0  0  0  0  0  0  0  0  0
  -17.8987  -23.1344   21.3115 C   0  0  0  0  0  0  0  0  0  0  0  0
  -26.9819  -30.1182   25.6197 C   0  0  0  0  0  0  0  0  0  0  0  0
  -25.8797  -32.1961   26.4776 C   0  0  0  0  0  0  0  0  0  0  0  0
  -27.9321  -32.3652   25.0698 C   0  0  0  0  0  0  0  0  0  0  0  0
  -25.8524  -23.0205   18.6368 C   0  0  0  0  0  0  0  0  0  0  0  0
  -22.8050  -34.4048   21.0171 C   0  0  0  0  0  0  0  0  0  0  0  0
  -23.8111  -22.6377   21.0303 C   0  0  0  0  0  0  0  0  0  0  0  0
  -23.8289  -23.0990   23.9068 C   0  0  0  0  0  0  0  0  0  0  0  0
  -18.4801  -25.5619   20.9790 C   0  0  0  0  0  0  0  0  0  0  0  0
  -24.8561  -23.7300   20.7793 C   0  0  0  0  0  0  0  0  0  0  0  0
  -25.7434  -31.6970   23.9950 C   0  0  1  0  0  0  0  0  0  0  0  0
  -24.0180  -34.9593   23.1289 C   0  0  2  0  0  0  0  0  0  0  0  0
  -19.4513  -26.6947   20.5987 C   0  0  2  0  0  0  0  0  0  1  0  0
  -19.0037  -24.0965   20.8004 C   0  0  0  0  0  0  0  0  0  0  0  0
  -26.6202  -31.5764   25.2733 C   0  0  0  0  0  0  0  0  0  0  0  0
  -26.7599  -17.1484   19.2804 N   0  0  0  0  0  0  0  0  0  0  0  0
  -26.4450  -18.3126   18.6873 N   0  0  0  0  0  0  0  0  0  0  0  0
  -25.7167  -30.0314   22.1650 N   0  0  0  0  0  0  0  0  0  0  0  0
  -27.6798  -21.5168   20.3703 N   0  0  0  0  0  0  0  0  0  0  0  0
  -24.8733  -19.3282   17.2351 N   0  0  0  0  0  0  0  0  0  0  0  0
  -23.4186  -15.0626   17.5258 N   0  0  0  0  0  0  0  0  0  0  0  0
  -28.1864  -27.6433   21.2017 N   0  0  0  0  0  0  0  0  0  0  0  0
  -25.4081  -33.0685   23.6276 N   0  0  0  0  0  0  0  0  0  0  0  0
  -26.0238  -23.2214   20.0738 N   0  0  0  0  0  0  0  0  0  0  0  0
  -22.8234  -35.2009   22.2712 N   0  3  0  0  0  0  0  0  0  0  0  0
  -23.0130  -17.1072   16.5697 O   0  0  0  0  0  0  0  0  0  0  0  0
  -26.4339  -27.5463   22.7321 O   0  0  0  0  0  0  0  0  0  0  0  0
  -27.4880  -31.5298   22.3966 O   0  0  0  0  0  0  0  0  0  0  0  0
  -23.1065  -32.7976   23.7066 O   0  0  0  0  0  0  0  0  0  0  0  0
  -27.5265  -23.3041   21.8199 O   0  0  0  0  0  0  0  0  0  0  0  0
  -25.7630  -10.9791   20.5031 O   0  0  0  0  0  0  0  0  0  0  0  0
  -20.4328  -26.8961   21.6149 O   0  0  0  0  0  0  0  0  0  1  0  0
  -20.9400   -8.8326   22.0955 F   0  0  0  0  0  0  0  0  0  0  0  0
  -25.4289   -9.9835   23.0604 F   0  0  0  0  0  0  0  0  0  0  0  0
  1  2  1  0  0  0  0
  1  5  2  0  0  0  0
  2  6  2  0  0  0  0
  3  8  2  0  0  0  0
  3 17  1  0  0  0  0
  4  9  1  0  0  0  0
  4 17  2  0  0  0  0
  5 19  1  0  0  0  0
  6 21  1  0  0  0  0
  7 10  2  0  0  0  0
  7 20  1  0  0  0  0
  8 27  1  0  0  0  0
  9 27  2  0  0  0  0
 10 28  1  0  0  0  0
 11 12  2  0  0  0  0
 11 29  1  0  0  0  0
 12 30  1  0  0  0  0
 13 22  1  0  0  0  0
 13 28  2  0  0  0  0
 14 23  1  0  0  0  0
 14 24  2  0  0  0  0
 15 23  2  0  0  0  0
 15 25  1  0  0  0  0
 16 30  2  0  0  0  0
 16 31  1  0  0  0  0
 17 32  1  0  0  0  0
 18 32  1  0  0  0  0
 18 33  2  0  0  0  0
 18 34  1  0  0  0  0
 19 21  2  0  0  0  0
 19 39  1  0  0  0  0
 20 22  2  0  0  0  0
 20 40  1  0  0  0  0
 21 48  1  0  0  0  0
 22 41  1  0  0  0  0
 23 69  1  0  0  0  0
 24 26  1  0  0  0  0
 24 51  1  0  0  0  0
 25 26  2  0  0  0  0
 25 62  1  0  0  0  0
 26 63  1  0  0  0  0
 27 86  1  0  0  0  0
 28 87  1  0  0  0  0
 29 31  2  0  0  0  0
 29 86  1  0  0  0  0
 30 88  1  0  0  0  0
 31 89  1  0  0  0  0
 32 71  2  0  0  0  0
 33 72  1  0  0  0  0
 33 75  1  0  0  0  0
 34 76  1  0  0  0  0
 34 81  2  0  0  0  0
 35 49  1  0  0  0  0
 35 77  1  0  0  0  0
 35 82  2  0  0  0  0
 36 66  1  0  0  0  0
 36 73  1  0  0  0  0
 36 83  2  0  0  0  0
 37 67  1  0  0  0  0
 37 78  1  0  0  0  0
 37 84  2  0  0  0  0
 38 74  1  0  0  0  0
 38 79  1  0  0  0  0
 38 85  2  0  0  0  0
 39 42  1  0  0  0  0
 40 49  1  0  0  0  0
 41 73  1  0  0  0  0
 42 44  1  0  0  0  0
 43 45  1  0  0  0  0
 43 46  1  0  0  0  0
 44 48  1  0  0  0  0
 45 50  1  0  0  0  0
 46 74  1  0  0  0  0
 47 50  1  0  0  0  0
 47 74  1  0  0  0  0
 48 77  1  0  0  0  0
 49 73  1  0  0  0  0
 50 72  1  0  0  0  0
 52 63  1  0  0  0  0
 53 67  1  0  0  0  0
 54 68  1  0  0  0  0
 55 69  1  0  0  0  0
 56 69  1  0  0  0  0
 57 70  1  0  0  0  0
 58 70  1  0  0  0  0
 59 70  1  0  0  0  0
 60 79  1  0  0  0  0
 61 80  1  0  0  0  0
 62 65  1  0  0  0  0
 64 68  1  0  0  0  0
 64 69  1  0  0  0  0
 65 79  1  0  0  0  0
 66 70  1  0  0  0  0
 66 78  1  0  0  0  0
 67 80  1  0  0  0  0
 68 87  1  0  0  0  0
 71 72  1  0  0  0  0
M  CHG  1  80   1
M  ISO  4  38 100  68 101  79 100  87 101
M  END
> <Batch ID>
0101

> <Smiles>
CCc1c(C)cc(C(C)(C)C[101CH:1](C)[101O:1]c2ccc3c(c2)CN(C(=O)C(NC(=O)C(C)NC)C(C)(C)C)C(C(=O)NC2CCCc4ccccc42)C3)cc1CC[100N:0](C)[100C:0](=O)N1CCCC(n2nc(-c3ccc(Oc4ccc(F)cc4F)cc3)c(C(N)=O)c2N)C1

> <Shape>
0.272

> <Color>
0.067

> <Negative vol penalty>
0.000

$$$$

  -OEChem-04052319363D

 90 98  0     1  0  0  0  0  0999 V2000
  -16.6391  -30.3738   23.3957 C   0  0  0  0  0  0  0  0  0  0  0  0
  -17.7652  -31.0083   23.9101 C   0  0  0  0  0  0  0  0  0  0  0  0
  -29.3899  -15.3518   18.5353 C   0  0  0  0  0  0  0  0  0  0  0  0
  -28.2315  -16.1160   20.5130 C   0  0  0  0  0  0  0  0  0  0  0  0
  -16.7549  -29.1094   22.8197 C   0  0  0  0  0  0  0  0  0  0  0  0
  -19.0077  -30.3782   23.8499 C   0  0  0  0  0  0  0  0  0  0  0  0
  -25.9826  -31.8456   23.1324 C   0  0  0  0  0  0  0  0  0  0  0  0
  -28.9670  -14.0476   18.7915 C   0  0  0  0  0  0  0  0  0  0  0  0
  -27.8085  -14.8117   20.7691 C   0  0  0  0  0  0  0  0  0  0  0  0
  -27.2061  -31.5900   23.7500 C   0  0  0  0  0  0  0  0  0  0  0  0
  -25.4212  -12.7024   19.6413 C   0  0  0  0  0  0  0  0  0  0  0  0
  -24.0862  -12.5141   19.9989 C   0  0  0  0  0  0  0  0  0  0  0  0
  -27.2997  -29.4396   22.6609 C   0  0  0  0  0  0  0  0  0  0  0  0
  -24.7851  -11.5547   22.1032 C   0  0  0  0  0  0  0  0  0  0  0  0
  -30.3656  -27.3602   20.9475 C   0  0  0  0  0  0  0  0  0  0  0  0
  -32.3087  -26.3234   21.3523 C   0  0  0  0  0  0  0  0  0  0  0  0
  -29.0222  -16.3861   19.3961 C   0  0  0  0  0  0  0  0  0  0  0  0
  -28.7934  -18.7085   18.3657 C   0  0  0  0  0  0  0  0  0  0  0  0
  -18.0011  -28.4676   22.7437 C   0  0  0  0  0  0  0  0  0  0  0  0
  -25.4022  -30.8940   22.2815 C   0  0  0  0  0  0  0  0  0  0  0  0
  -19.1401  -29.1034   23.2736 C   0  0  0  0  0  0  0  0  0  0  0  0
  -26.0700  -29.6866   22.0317 C   0  0  0  0  0  0  0  0  0  0  0  0
  -30.1497  -26.0083   20.7963 C   0  0  0  0  0  0  0  0  0  0  0  0
  -31.3790  -25.3523   21.0523 C   0  0  0  0  0  0  0  0  0  0  0  0
  -28.1762  -13.7775   19.9084 C   0  0  0  0  0  0  0  0  0  0  0  0
  -27.8635  -30.3856   23.5166 C   0  0  0  0  0  0  0  0  0  0  0  0
  -26.4382  -12.3167   20.5147 C   0  0  0  0  0  0  0  0  0  0  0  0
  -23.7681  -11.9403   21.2299 C   0  0  0  0  0  0  0  0  0  0  0  0
  -26.1201  -11.7429   21.7456 C   0  0  0  0  0  0  0  0  0  0  0  0
  -29.4593  -17.7334   19.1323 C   0  0  0  0  0  0  0  0  0  0  0  0
  -29.6136  -19.8087   18.4220 C   0  0  0  0  0  0  0  0  0  0  0  0
  -27.5449  -18.6269   17.6654 C   0  0  0  0  0  0  0  0  0  0  0  0
  -22.7039  -29.2140   22.3041 C   0  0  0  0  0  0  0  0  0  0  0  0
  -23.7134  -28.2878   19.3638 C   0  0  0  0  0  0  0  0  0  0  0  0
  -26.3168  -27.8333   17.2045 C   0  0  0  0  0  0  0  0  0  0  0  0
  -32.8581  -23.3247   21.2704 C   0  0  0  0  0  0  0  0  0  0  0  0
  -18.0687  -27.0808   22.1546 C   0  0  0  0  0  0  0  0  0  0  0  0
  -24.0948  -31.1961   21.6020 C   0  0  0  0  0  0  0  0  0  0  0  0
  -25.4992  -28.6404   21.1108 C   0  0  0  0  0  0  0  0  0  0  0  0
  -19.4851  -26.6412   21.7926 C   0  0  0  0  0  0  0  0  0  0  0  0
  -34.3526  -20.3003   20.1316 C   0  0  0  0  0  0  0  0  0  0  0  0
  -20.4491  -26.9550   22.9324 C   0  0  0  0  0  0  0  0  0  0  0  0
  -33.1580  -19.4431   19.7070 C   0  0  0  0  0  0  0  0  0  0  0  0
  -34.0373  -21.1396   21.3685 C   0  0  0  0  0  0  0  0  0  0  0  0
  -31.6306  -21.1052   20.8435 C   0  0  0  0  0  0  0  0  0  0  0  0
  -20.5094  -28.4629   23.2046 C   0  0  1  0  0  0  0  0  0  0  0  0
  -23.3482  -29.9418   21.1583 C   0  0  1  0  0  0  0  0  0  0  0  0
  -31.8788  -20.2908   19.5634 C   0  0  2  0  0  0  0  0  0  0  0  0
  -28.9403  -24.6309   19.0726 C   0  0  0  0  0  0  0  0  0  0  0  0
  -26.8347  -27.0270   14.8852 C   0  0  0  0  0  0  0  0  0  0  0  0
  -23.3746  -25.4017   20.2942 C   0  0  0  0  0  0  0  0  0  0  0  0
  -24.7721  -24.6827   18.3453 C   0  0  0  0  0  0  0  0  0  0  0  0
  -22.5979  -25.8427   17.9582 C   0  0  0  0  0  0  0  0  0  0  0  0
  -33.5112  -28.2705   23.6771 C   0  0  0  0  0  0  0  0  0  0  0  0
  -33.2051  -30.6790   23.1359 C   0  0  0  0  0  0  0  0  0  0  0  0
  -27.3995  -30.4691   16.4048 C   0  0  0  0  0  0  0  0  0  0  0  0
  -26.3046  -26.0574   24.9571 C   0  0  0  0  0  0  0  0  0  0  0  0
  -26.6180  -23.9206   26.1966 C   0  0  0  0  0  0  0  0  0  0  0  0
  -28.0000  -25.0943   22.8362 C   0  0  0  0  0  0  0  0  0  0  0  0
  -28.3054  -24.3913   21.5082 C   0  0  0  0  0  0  0  0  0  0  0  0
  -32.3397  -28.8757   21.5452 C   0  0  0  0  0  0  0  0  0  0  0  0
  -31.2119  -29.3345   23.8390 C   0  0  0  0  0  0  0  0  0  0  0  0
  -27.4023  -24.1202   23.8417 C   0  0  0  0  0  0  0  0  0  0  0  0
  -28.8672  -25.3732   20.4320 C   0  0  1  0  0  0  0  0  0  0  0  0
  -24.5688  -27.1631   18.8323 C   0  0  1  0  0  0  0  0  0  0  0  0
  -26.5015  -28.2318   15.7514 C   0  0  2  0  0  0  0  0  0  0  0  0
  -23.8384  -25.7913   18.8764 C   0  0  0  0  0  0  0  0  0  0  0  0
  -32.5406  -29.2895   23.0354 C   0  0  0  0  0  0  0  0  0  0  0  0
  -30.6137  -18.1753   19.6384 N   0  0  0  0  0  0  0  0  0  0  0  0
  -31.6814  -27.5400   21.2858 N   0  0  0  0  0  0  0  0  0  0  0  0
  -30.6796  -19.4401   19.1888 N   0  0  0  0  0  0  0  0  0  0  0  0
  -24.2154  -28.9799   20.4750 N   0  0  0  0  0  0  0  0  0  0  0  0
  -32.8154  -21.9189   21.1578 N   0  0  0  0  0  0  0  0  0  0  0  0
  -29.5198  -21.0458   17.8899 N   0  0  0  0  0  0  0  0  0  0  0  0
  -26.8304  -17.4221   17.7115 N   0  0  0  0  0  0  0  0  0  0  0  0
  -31.6433  -23.9607   21.0166 N   0  0  0  0  0  0  0  0  0  0  0  0
  -21.3282  -29.1235   22.2108 N   0  0  0  0  0  0  0  0  0  0  0  0
  -24.9954  -27.5703   17.4979 N   0  0  0  0  0  0  0  0  0  0  0  0
  -30.0941  -29.9165   23.1099 N   0  0  0  0  0  0  0  0  0  1  0  0
  -27.6067  -29.2232   15.6226 N   0  3  0  0  0  0  0  0  0  0  0  0
  -27.1657  -24.8288   25.1225 N   0  3  0  0  0  0  0  0  0  0  0  0
  -27.0848  -19.5886   17.0043 O   0  0  0  0  0  0  0  0  0  0  0  0
  -23.4032  -28.7663   23.2053 O   0  0  0  0  0  0  0  0  0  0  0  0
  -22.6427  -28.5474   18.8089 O   0  0  0  0  0  0  0  0  0  0  0  0
  -27.2517  -27.7589   17.9988 O   0  0  0  0  0  0  0  0  0  0  0  0
  -33.9023  -23.9225   21.5432 O   0  0  0  0  0  0  0  0  0  0  0  0
  -27.7631  -12.5050   20.1585 O   0  0  0  0  0  0  0  0  0  0  0  0
  -29.0575  -30.1333   24.1187 O   0  0  0  0  0  0  0  0  0  1  0  0
  -22.4860  -11.7610   21.5738 F   0  0  0  0  0  0  0  0  0  0  0  0
  -27.0928  -11.3715   22.5893 F   0  0  0  0  0  0  0  0  0  0  0  0
  1  2  1  0  0  0  0
  1  5  2  0  0  0  0
  2  6  2  0  0  0  0
  3  8  2  0  0  0  0
  3 17  1  0  0  0  0
  4  9  1  0  0  0  0
  4 17  2  0  0  0  0
  5 19  1  0  0  0  0
  6 21  1  0  0  0  0
  7 10  2  0  0  0  0
  7 20  1  0  0  0  0
  8 25  1  0  0  0  0
  9 25  2  0  0  0  0
 10 26  1  0  0  0  0
 11 12  2  0  0  0  0
 11 27  1  0  0  0  0
 12 28  1  0  0  0  0
 13 22  1  0  0  0  0
 13 26  2  0  0  0  0
 14 28  2  0  0  0  0
 14 29  1  0  0  0  0
 15 23  2  0  0  0  0
 15 70  1  0  0  0  0
 16 24  2  0  0  0  0
 16 70  1  0  0  0  0
 17 30  1  0  0  0  0
 18 30  1  0  0  0  0
 18 31  2  0  0  0  0
 18 32  1  0  0  0  0
 19 21  2  0  0  0  0
 19 37  1  0  0  0  0
 20 22  2  0  0  0  0
 20 38  1  0  0  0  0
 21 46  1  0  0  0  0
 22 39  1  0  0  0  0
 23 24  1  0  0  0  0
 23 64  1  0  0  0  0
 24 76  1  0  0  0  0
 25 87  1  0  0  0  0
 26 88  1  0  0  0  0
 27 29  2  0  0  0  0
 27 87  1  0  0  0  0
 28 89  1  0  0  0  0
 29 90  1  0  0  0  0
 30 69  2  0  0  0  0
 31 71  1  0  0  0  0
 31 74  1  0  0  0  0
 32 75  1  0  0  0  0
 32 82  2  0  0  0  0
 33 47  1  0  0  0  0
 33 77  1  0  0  0  0
 33 83  2  0  0  0  0
 34 65  1  0  0  0  0
 34 72  1  0  0  0  0
 34 84  2  0  0  0  0
 35 66  1  0  0  0  0
 35 78  1  0  0  0  0
 35 85  2  0  0  0  0
 36 73  1  0  0  0  0
 36 76  1  0  0  0  0
 36 86  2  0  0  0  0
 37 40  1  0  0  0  0
 38 47  1  0  0  0  0
 39 72  1  0  0  0  0
 40 42  1  0  0  0  0
 41 43  1  0  0  0  0
 41 44  1  0  0  0  0
 42 46  1  0  0  0  0
 43 48  1  0  0  0  0
 44 73  1  0  0  0  0
 45 48  1  0  0  0  0
 45 73  1  0  0  0  0
 46 77  1  0  0  0  0
 47 72  1  0  0  0  0
 48 71  1  0  0  0  0
 49 64  1  0  0  0  0
 50 66  1  0  0  0  0
 51 67  1  0  0  0  0
 52 67  1  0  0  0  0
 53 67  1  0  0  0  0
 54 68  1  0  0  0  0
 55 68  1  0  0  0  0
 56 80  1  0  0  0  0
 57 81  1  0  0  0  0
 58 81  1  0  0  0  0
 59 60  1  0  0  0  0
 59 63  1  0  0  0  0
 60 64  1  0  0  0  0
 61 68  1  0  0  0  0
 61 70  1  0  0  0  0
 62 68  1  0  0  0  0
 62 79  1  0  0  0  0
 63 81  1  0  0  0  0
 65 67  1  0  0  0  0
 65 78  1  0  0  0  0
 66 80  1  0  0  0  0
 69 71  1  0  0  0  0
 79 88  1  0  0  0  0
M  CHG  2  80   1  81   1
M  ISO  4  36 100  76 100  79 101  88 101
M  END
> <Batch ID>
0101

> <Smiles>
CNC(C)C(=O)NC(C(=O)N1Cc2cc([101O:1][101NH:1]CC(C)(C)Cn3cc([100NH:0][100C:0](=O)N4CCCC(n5nc(-c6ccc(Oc7ccc(F)cc7F)cc6)c(C(N)=O)c5N)C4)c(C(C)CCCN(C)C)c3)ccc2CC1C(=O)NC1CCCc2ccccc21)C(C)(C)C

> <Shape>
0.269

> <Color>
0.117

> <Negative vol penalty>
0.000

$$$$

  -OEChem-04052319363D

 85 93  0     1  0  0  0  0  0999 V2000
  -16.2183  -22.7975   24.9514 C   0  0  0  0  0  0  0  0  0  0  0  0
  -17.4912  -22.3500   24.6128 C   0  0  0  0  0  0  0  0  0  0  0  0
  -23.2869   -9.8002   19.9125 C   0  0  0  0  0  0  0  0  0  0  0  0
  -23.7346   -9.9416   22.2825 C   0  0  0  0  0  0  0  0  0  0  0  0
  -15.5461  -22.2304   26.0333 C   0  0  0  0  0  0  0  0  0  0  0  0
  -18.0933  -21.3357   25.3566 C   0  0  0  0  0  0  0  0  0  0  0  0
  -22.5606  -15.7825   24.6346 C   0  0  0  0  0  0  0  0  0  0  0  0
  -22.5595   -8.6283   20.1198 C   0  0  0  0  0  0  0  0  0  0  0  0
  -23.0072   -8.7696   22.4898 C   0  0  0  0  0  0  0  0  0  0  0  0
  -23.7292  -15.2612   25.1882 C   0  0  0  0  0  0  0  0  0  0  0  0
  -19.4760   -7.7703   21.2102 C   0  0  0  0  0  0  0  0  0  0  0  0
  -18.2478   -7.6462   20.5609 C   0  0  0  0  0  0  0  0  0  0  0  0
  -22.4411  -14.3009   26.9877 C   0  0  0  0  0  0  0  0  0  0  0  0
  -31.4734  -12.1263   26.1455 C   0  0  0  0  0  0  0  0  0  0  0  0
  -19.0495   -5.6725   19.4213 C   0  0  0  0  0  0  0  0  0  0  0  0
  -29.9807  -13.7186   25.5921 C   0  0  0  0  0  0  0  0  0  0  0  0
  -23.8745  -10.4569   20.9938 C   0  0  0  0  0  0  0  0  0  0  0  0
  -24.1358  -12.9866   20.7945 C   0  0  0  0  0  0  0  0  0  0  0  0
  -16.1363  -21.2020   26.7849 C   0  0  0  0  0  0  0  0  0  0  0  0
  -21.3228  -15.5759   25.2603 C   0  0  0  0  0  0  0  0  0  0  0  0
  -17.4290  -20.7553   26.4504 C   0  0  0  0  0  0  0  0  0  0  0  0
  -21.2580  -14.8185   26.4386 C   0  0  0  0  0  0  0  0  0  0  0  0
  -31.0579  -13.0051   25.1149 C   0  0  0  0  0  0  0  0  0  0  0  0
  -22.4196   -8.1129   21.4084 C   0  0  0  0  0  0  0  0  0  0  0  0
  -23.6699  -14.5227   26.3665 C   0  0  0  0  0  0  0  0  0  0  0  0
  -20.4911   -6.8454   20.9650 C   0  0  0  0  0  0  0  0  0  0  0  0
  -18.0345   -6.5973   19.6665 C   0  0  0  0  0  0  0  0  0  0  0  0
  -20.2778   -5.7965   20.0707 C   0  0  0  0  0  0  0  0  0  0  0  0
  -24.6265  -11.6672   20.7803 C   0  0  0  0  0  0  0  0  0  0  0  0
  -30.6372  -12.3295   27.2212 C   0  0  0  0  0  0  0  0  0  0  0  0
  -25.2381  -13.7657   20.5406 C   0  0  0  0  0  0  0  0  0  0  0  0
  -22.8027  -13.4652   21.0173 C   0  0  0  0  0  0  0  0  0  0  0  0
  -19.1137  -17.4680   26.5423 C   0  0  0  0  0  0  0  0  0  0  0  0
  -17.4537  -14.6943   26.8129 C   0  0  0  0  0  0  0  0  0  0  0  0
  -17.5172  -11.2889   27.0265 C   0  0  0  0  0  0  0  0  0  0  0  0
  -31.1075  -12.9192   21.3685 C   0  0  0  0  0  0  0  0  0  0  0  0
  -15.3902  -20.6525   27.9748 C   0  0  0  0  0  0  0  0  0  0  0  0
  -20.0681  -16.1222   24.6360 C   0  0  0  0  0  0  0  0  0  0  0  0
  -19.9514  -14.5509   27.1384 C   0  0  0  0  0  0  0  0  0  0  0  0
  -15.9453  -19.3236   28.4812 C   0  0  0  0  0  0  0  0  0  0  0  0
  -29.4631  -13.6584   18.2982 C   0  0  0  0  0  0  0  0  0  0  0  0
  -17.4656  -19.3863   28.5883 C   0  0  0  0  0  0  0  0  0  0  0  0
  -27.9928  -13.3509   18.5875 C   0  0  0  0  0  0  0  0  0  0  0  0
  -30.3948  -12.6787   19.0082 C   0  0  0  0  0  0  0  0  0  0  0  0
  -28.7056  -12.2512   20.7511 C   0  0  0  0  0  0  0  0  0  0  0  0
  -18.1052  -19.6399   27.2178 C   0  0  1  0  0  0  0  0  0  0  0  0
  -18.9262  -16.2856   25.6343 C   0  0  1  0  0  0  0  0  0  0  0  0
  -27.7291  -13.2467   20.1017 C   0  0  2  0  0  0  0  0  0  0  0  0
  -31.9208  -11.9314   29.3536 C   0  0  0  0  0  0  0  0  0  0  0  0
  -30.3580  -10.1599   28.4737 C   0  0  0  0  0  0  0  0  0  0  0  0
  -16.6262   -8.9449   27.1244 C   0  0  0  0  0  0  0  0  0  0  0  0
  -25.8476  -11.2844   26.7957 C   0  0  0  0  0  0  0  0  0  0  0  0
  -17.1055  -15.3374   29.7752 C   0  0  0  0  0  0  0  0  0  0  0  0
  -16.4546  -12.9485   30.1458 C   0  0  0  0  0  0  0  0  0  0  0  0
  -15.0696  -14.4012   28.6646 C   0  0  0  0  0  0  0  0  0  0  0  0
  -17.5064  -11.0460   24.0769 C   0  0  0  0  0  0  0  0  0  0  0  0
  -31.6663  -13.1336   23.7770 C   0  0  0  0  0  0  0  0  0  0  0  0
  -27.4300  -12.8905   27.8926 C   0  0  0  0  0  0  0  0  0  0  0  0
  -28.6310  -13.8360   27.7514 C   0  0  0  0  0  0  0  0  0  0  0  0
  -25.8624  -13.6738   26.0085 C   0  0  0  0  0  0  0  0  0  1  0  0
  -30.6253  -11.6805   28.5485 C   0  0  0  0  0  0  0  0  0  0  0  0
  -17.3359  -13.6170   27.8639 C   0  0  1  0  0  0  0  0  0  0  0  0
  -16.7225  -10.2190   26.2996 C   0  0  2  0  0  0  0  0  0  0  0  0
  -26.7156  -12.5293   26.5716 C   0  0  2  0  0  0  0  0  0  0  0  0
  -16.5164  -14.0825   29.1005 C   0  0  0  0  0  0  0  0  0  0  0  0
  -25.9384  -11.6076   20.5365 N   0  0  0  0  0  0  0  0  0  0  0  0
  -29.7337  -13.2994   26.8732 N   0  0  0  0  0  0  0  0  0  0  0  0
  -26.2814  -12.8993   20.3951 N   0  0  0  0  0  0  0  0  0  0  0  0
  -18.7532  -15.1116   26.4923 N   0  0  0  0  0  0  0  0  0  0  0  0
  -30.0936  -12.6281   20.4409 N   0  0  0  0  0  0  0  0  0  0  0  0
  -25.4070  -15.1004   20.4299 N   0  0  0  0  0  0  0  0  0  0  0  0
  -21.7893  -12.5290   21.2638 N   0  0  0  0  0  0  0  0  0  0  0  0
  -18.1210  -18.4232   26.4345 N   0  0  0  0  0  0  0  0  0  0  0  0
  -16.7859  -12.4465   27.1887 N   0  0  0  0  0  0  0  0  0  0  0  0
  -30.7359  -12.8545   22.7058 N   0  0  0  0  0  0  0  0  0  0  0  0
  -17.3685   -9.8885   24.9979 N   0  3  0  0  0  0  0  0  0  0  0  0
  -22.5157  -14.6858   20.9821 O   0  0  0  0  0  0  0  0  0  0  0  0
  -20.0862  -17.5099   27.2867 O   0  0  0  0  0  0  0  0  0  0  0  0
  -16.4306  -15.1438   26.2903 O   0  0  0  0  0  0  0  0  0  0  0  0
  -18.6699  -11.1138   27.4150 O   0  0  0  0  0  0  0  0  0  0  0  0
  -32.2571  -13.2201   21.0297 O   0  0  0  0  0  0  0  0  0  0  0  0
  -21.7097   -6.9695   21.6111 O   0  0  0  0  0  0  0  0  0  0  0  0
  -24.8090  -14.0133   26.9093 O   0  0  0  0  0  0  0  0  0  1  0  0
  -16.8545   -6.4775   19.0442 F   0  0  0  0  0  0  0  0  0  0  0  0
  -21.2488   -4.9043   19.8320 F   0  0  0  0  0  0  0  0  0  0  0  0
  1  2  1  0  0  0  0
  1  5  2  0  0  0  0
  2  6  2  0  0  0  0
  3  8  2  0  0  0  0
  3 17  1  0  0  0  0
  4  9  1  0  0  0  0
  4 17  2  0  0  0  0
  5 19  1  0  0  0  0
  6 21  1  0  0  0  0
  7 10  2  0  0  0  0
  7 20  1  0  0  0  0
  8 24  1  0  0  0  0
  9 24  2  0  0  0  0
 10 25  1  0  0  0  0
 11 12  2  0  0  0  0
 11 26  1  0  0  0  0
 12 27  1  0  0  0  0
 13 22  1  0  0  0  0
 13 25  2  0  0  0  0
 14 23  1  0  0  0  0
 14 30  2  0  0  0  0
 15 27  2  0  0  0  0
 15 28  1  0  0  0  0
 16 23  2  0  0  0  0
 16 67  1  0  0  0  0
 17 29  1  0  0  0  0
 18 29  1  0  0  0  0
 18 31  2  0  0  0  0
 18 32  1  0  0  0  0
 19 21  2  0  0  0  0
 19 37  1  0  0  0  0
 20 22  2  0  0  0  0
 20 38  1  0  0  0  0
 21 46  1  0  0  0  0
 22 39  1  0  0  0  0
 23 57  1  0  0  0  0
 24 82  1  0  0  0  0
 25 83  1  0  0  0  0
 26 28  2  0  0  0  0
 26 82  1  0  0  0  0
 27 84  1  0  0  0  0
 28 85  1  0  0  0  0
 29 66  2  0  0  0  0
 30 61  1  0  0  0  0
 30 67  1  0  0  0  0
 31 68  1  0  0  0  0
 31 71  1  0  0  0  0
 32 72  1  0  0  0  0
 32 77  2  0  0  0  0
 33 47  1  0  0  0  0
 33 73  1  0  0  0  0
 33 78  2  0  0  0  0
 34 62  1  0  0  0  0
 34 69  1  0  0  0  0
 34 79  2  0  0  0  0
 35 63  1  0  0  0  0
 35 74  1  0  0  0  0
 35 80  2  0  0  0  0
 36 70  1  0  0  0  0
 36 75  1  0  0  0  0
 36 81  2  0  0  0  0
 37 40  1  0  0  0  0
 38 47  1  0  0  0  0
 39 69  1  0  0  0  0
 40 42  1  0  0  0  0
 41 43  1  0  0  0  0
 41 44  1  0  0  0  0
 42 46  1  0  0  0  0
 43 48  1  0  0  0  0
 44 70  1  0  0  0  0
 45 48  1  0  0  0  0
 45 70  1  0  0  0  0
 46 73  1  0  0  0  0
 47 69  1  0  0  0  0
 48 68  1  0  0  0  0
 49 61  1  0  0  0  0
 50 61  1  0  0  0  0
 51 63  1  0  0  0  0
 52 64  1  0  0  0  0
 53 65  1  0  0  0  0
 54 65  1  0  0  0  0
 55 65  1  0  0  0  0
 56 76  1  0  0  0  0
 57 75  1  0  0  0  0
 58 59  1  0  0  0  0
 58 64  1  0  0  0  0
 59 67  1  0  0  0  0
 60 64  1  0  0  0  0
 60 83  1  0  0  0  0
 62 65  1  0  0  0  0
 62 74  1  0  0  0  0
 63 76  1  0  0  0  0
 66 68  1  0  0  0  0
M  CHG  1  76   1
M  ISO  4  36 100  60 101  75 100  83 101
M  END
> <Batch ID>
0101

> <Smiles>
CNC(C)C(=O)NC(C(=O)N1Cc2cc([101O:1][101CH2:1]C(C)CCn3cc(C[100NH:0][100C:0](=O)N4CCCC(n5nc(-c6ccc(Oc7ccc(F)cc7F)cc6)c(C(N)=O)c5N)C4)cc3C(C)C)ccc2CC1C(=O)NC1CCCc2ccccc21)C(C)(C)C

> <Shape>
0.117

> <Color>
0.174

> <Negative vol penalty>
0.000

$$$$

  -OEChem-04052319363D

 89 97  0     1  0  0  0  0  0999 V2000
  -26.3612  -12.8279   18.9620 C   0  0  0  0  0  0  0  0  0  0  0  0
  -27.3416  -13.4865   18.2285 C   0  0  0  0  0  0  0  0  0  0  0  0
  -20.4104  -22.3376   18.6017 C   0  0  0  0  0  0  0  0  0  0  0  0
  -22.6580  -22.4398   19.4819 C   0  0  0  0  0  0  0  0  0  0  0  0
  -25.3178  -13.5535   19.5330 C   0  0  0  0  0  0  0  0  0  0  0  0
  -27.2855  -14.8723   18.0758 C   0  0  0  0  0  0  0  0  0  0  0  0
  -28.8438  -23.0067   17.1787 C   0  0  0  0  0  0  0  0  0  0  0  0
  -20.8983  -21.7785   17.4206 C   0  0  0  0  0  0  0  0  0  0  0  0
  -23.1459  -21.8806   18.3009 C   0  0  0  0  0  0  0  0  0  0  0  0
  -28.2683  -24.1760   17.6741 C   0  0  0  0  0  0  0  0  0  0  0  0
  -21.9393  -18.7470   16.3440 C   0  0  0  0  0  0  0  0  0  0  0  0
  -21.2586  -17.6497   15.8167 C   0  0  0  0  0  0  0  0  0  0  0  0
  -27.9789  -23.1163   19.8218 C   0  0  0  0  0  0  0  0  0  0  0  0
  -27.1761  -28.1673   20.4306 C   0  0  0  0  0  0  0  0  0  0  0  0
  -25.3414  -28.1802   18.8588 C   0  0  0  0  0  0  0  0  0  0  0  0
  -20.8308  -18.8900   13.7880 C   0  0  0  0  0  0  0  0  0  0  0  0
  -21.2902  -22.6683   19.6323 C   0  0  0  0  0  0  0  0  0  0  0  0
  -20.3658  -22.5608   22.0075 C   0  0  0  0  0  0  0  0  0  0  0  0
  -25.2429  -14.9474   19.3762 C   0  0  0  0  0  0  0  0  0  0  0  0
  -28.9814  -21.8780   17.9994 C   0  0  0  0  0  0  0  0  0  0  0  0
  -26.2535  -15.6253   18.6645 C   0  0  0  0  0  0  0  0  0  0  0  0
  -28.5588  -21.9348   19.3351 C   0  0  0  0  0  0  0  0  0  0  0  0
  -26.5439  -27.6340   19.3075 C   0  0  0  0  0  0  0  0  0  0  0  0
  -26.6057  -29.2467   21.1053 C   0  0  0  0  0  0  0  0  0  0  0  0
  -24.7710  -29.2597   19.5334 C   0  0  0  0  0  0  0  0  0  0  0  0
  -25.4032  -29.7929   20.6567 C   0  0  0  0  0  0  0  0  0  0  0  0
  -22.2661  -21.5500   17.2702 C   0  0  0  0  0  0  0  0  0  0  0  0
  -27.8331  -24.2300   18.9950 C   0  0  0  0  0  0  0  0  0  0  0  0
  -22.0657  -19.9159   15.5934 C   0  0  0  0  0  0  0  0  0  0  0  0
  -20.7043  -17.7212   14.5387 C   0  0  0  0  0  0  0  0  0  0  0  0
  -21.5115  -19.9874   14.3153 C   0  0  0  0  0  0  0  0  0  0  0  0
  -20.7869  -23.2464   20.8524 C   0  0  0  0  0  0  0  0  0  0  0  0
  -19.9817  -23.5537   22.8753 C   0  0  0  0  0  0  0  0  0  0  0  0
  -20.3256  -21.1523   22.2725 C   0  0  0  0  0  0  0  0  0  0  0  0
  -27.8545  -18.9065   17.9345 C   0  0  0  0  0  0  0  0  0  0  0  0
  -29.8384  -18.5141   20.4707 C   0  0  0  0  0  0  0  0  0  0  0  0
  -30.7654  -20.3976   23.4050 C   0  0  0  0  0  0  0  0  0  0  0  0
  -21.5440  -29.0957   23.5479 C   0  0  0  0  0  0  0  0  0  0  0  0
  -24.0961  -15.6843   20.0220 C   0  0  0  0  0  0  0  0  0  0  0  0
  -29.6286  -20.6331   17.4575 C   0  0  0  0  0  0  0  0  0  0  0  0
  -28.7024  -20.7572   20.2631 C   0  0  0  0  0  0  0  0  0  0  0  0
  -23.8790  -17.0760   19.4371 C   0  0  0  0  0  0  0  0  0  0  0  0
  -18.2390  -27.9997   22.9584 C   0  0  0  0  0  0  0  0  0  0  0  0
  -25.1989  -17.8312   19.3887 C   0  0  0  0  0  0  0  0  0  0  0  0
  -18.4775  -26.5784   22.4507 C   0  0  0  0  0  0  0  0  0  0  0  0
  -19.2753  -28.9853   22.4154 C   0  0  0  0  0  0  0  0  0  0  0  0
  -20.9151  -27.1516   22.1488 C   0  0  0  0  0  0  0  0  0  0  0  0
  -26.1964  -17.1283   18.4594 C   0  0  1  0  0  0  0  0  0  0  0  0
  -29.2499  -19.3760   18.2346 C   0  0  1  0  0  0  0  0  0  0  0  0
  -19.9233  -26.1307   22.7274 C   0  0  2  0  0  0  0  0  0  0  0  0
  -27.3034  -29.8000   22.3048 C   0  0  0  0  0  0  0  0  0  0  0  0
  -23.4826  -29.8265   19.0327 C   0  0  0  0  0  0  0  0  0  0  0  0
  -32.8767  -20.3710   24.7612 C   0  0  0  0  0  0  0  0  0  0  0  0
  -18.1182  -32.3298   23.1798 C   0  0  0  0  0  0  0  0  0  0  0  0
  -19.4480  -32.0033   25.2776 C   0  0  0  0  0  0  0  0  0  0  0  0
  -24.7316  -32.4429   24.1205 C   0  0  0  0  0  0  0  0  0  0  0  0
  -28.3550  -16.4899   22.2062 C   0  0  0  0  0  0  0  0  0  0  0  0
  -29.4066  -17.5479   24.2170 C   0  0  0  0  0  0  0  0  0  0  0  0
  -30.8408  -16.4757   22.4803 C   0  0  0  0  0  0  0  0  0  0  0  0
  -31.1468  -23.3147   23.0824 C   0  0  0  0  0  0  0  0  0  0  0  0
  -24.7921  -30.9506   21.3799 C   0  0  0  0  0  0  0  0  0  0  0  0
  -27.1571  -26.4724   18.5822 C   0  0  0  0  0  0  0  0  0  1  0  0
  -20.4423  -31.3248   23.0763 C   0  0  0  0  0  0  0  0  0  0  0  0
  -22.5221  -31.1937   24.3964 C   0  0  0  0  0  0  0  0  0  0  0  0
  -29.7072  -18.6762   21.9658 C   0  0  1  0  0  0  0  0  0  0  0  0
  -32.0968  -21.0792   23.6643 C   0  0  2  0  0  0  0  0  0  0  0  0
  -19.1468  -31.4441   23.8867 C   0  0  0  0  0  0  0  0  0  0  0  0
  -23.5880  -31.7099   23.4324 C   0  0  2  0  0  0  0  0  0  0  0  0
  -29.5619  -17.3130   22.6993 C   0  0  0  0  0  0  0  0  0  0  0  0
  -20.6802  -24.5724   20.9722 N   0  0  0  0  0  0  0  0  0  0  0  0
  -20.1877  -24.7280   22.2129 N   0  0  0  0  0  0  0  0  0  0  0  0
  -29.3357  -19.5606   19.6847 N   0  0  0  0  0  0  0  0  0  0  0  0
  -20.6397  -28.4973   22.6582 N   0  0  0  0  0  0  0  0  0  0  0  0
  -19.4912  -23.5281   24.1328 N   0  0  0  0  0  0  0  0  0  0  0  0
  -20.7570  -20.2715   21.2712 N   0  0  0  0  0  0  0  0  0  0  0  0
  -27.4939  -17.7514   18.6016 N   0  0  0  0  0  0  0  0  0  0  0  0
  -30.8574  -19.4652   22.3934 N   0  0  0  0  0  0  0  0  0  0  0  0
  -21.4362  -30.4816   23.7377 N   0  0  0  0  0  0  0  0  0  0  0  0
  -31.8822  -22.4944   24.0791 N   0  3  0  0  0  0  0  0  0  0  0  0
  -24.1531  -30.5672   22.6672 N   0  3  0  0  0  0  0  0  0  0  0  0
  -19.9038  -20.6878   23.3587 O   0  0  0  0  0  0  0  0  0  0  0  0
  -27.1561  -19.5459   17.1565 O   0  0  0  0  0  0  0  0  0  0  0  0
  -30.3739  -17.4996   20.0171 O   0  0  0  0  0  0  0  0  0  0  0  0
  -29.7466  -20.6630   24.0392 O   0  0  0  0  0  0  0  0  0  0  0  0
  -22.4067  -28.4304   24.1354 O   0  0  0  0  0  0  0  0  0  0  0  0
  -22.7425  -21.0042   16.1180 O   0  0  0  0  0  0  0  0  0  0  0  0
  -27.2705  -25.3698   19.4809 O   0  0  0  0  0  0  0  0  0  1  0  0
  -20.0520  -16.6668   14.0318 F   0  0  0  0  0  0  0  0  0  0  0  0
  -21.6307  -21.1072   13.5890 F   0  0  0  0  0  0  0  0  0  0  0  0
  1  2  1  0  0  0  0
  1  5  2  0  0  0  0
  2  6  2  0  0  0  0
  3  8  2  0  0  0  0
  3 17  1  0  0  0  0
  4  9  1  0  0  0  0
  4 17  2  0  0  0  0
  5 19  1  0  0  0  0
  6 21  1  0  0  0  0
  7 10  2  0  0  0  0
  7 20  1  0  0  0  0
  8 27  1  0  0  0  0
  9 27  2  0  0  0  0
 10 28  1  0  0  0  0
 11 12  2  0  0  0  0
 11 29  1  0  0  0  0
 12 30  1  0  0  0  0
 13 22  1  0  0  0  0
 13 28  2  0  0  0  0
 14 23  1  0  0  0  0
 14 24  2  0  0  0  0
 15 23  2  0  0  0  0
 15 25  1  0  0  0  0
 16 30  2  0  0  0  0
 16 31  1  0  0  0  0
 17 32  1  0  0  0  0
 18 32  1  0  0  0  0
 18 33  2  0  0  0  0
 18 34  1  0  0  0  0
 19 21  2  0  0  0  0
 19 39  1  0  0  0  0
 20 22  2  0  0  0  0
 20 40  1  0  0  0  0
 21 48  1  0  0  0  0
 22 41  1  0  0  0  0
 23 62  1  0  0  0  0
 24 26  1  0  0  0  0
 24 51  1  0  0  0  0
 25 26  2  0  0  0  0
 25 52  1  0  0  0  0
 26 61  1  0  0  0  0
 27 86  1  0  0  0  0
 28 87  1  0  0  0  0
 29 31  2  0  0  0  0
 29 86  1  0  0  0  0
 30 88  1  0  0  0  0
 31 89  1  0  0  0  0
 32 70  2  0  0  0  0
 33 71  1  0  0  0  0
 33 74  1  0  0  0  0
 34 75  1  0  0  0  0
 34 81  2  0  0  0  0
 35 49  1  0  0  0  0
 35 76  1  0  0  0  0
 35 82  2  0  0  0  0
 36 65  1  0  0  0  0
 36 72  1  0  0  0  0
 36 83  2  0  0  0  0
 37 66  1  0  0  0  0
 37 77  1  0  0  0  0
 37 84  2  0  0  0  0
 38 73  1  0  0  0  0
 38 78  1  0  0  0  0
 38 85  2  0  0  0  0
 39 42  1  0  0  0  0
 40 49  1  0  0  0  0
 41 72  1  0  0  0  0
 42 44  1  0  0  0  0
 43 45  1  0  0  0  0
 43 46  1  0  0  0  0
 44 48  1  0  0  0  0
 45 50  1  0  0  0  0
 46 73  1  0  0  0  0
 47 50  1  0  0  0  0
 47 73  1  0  0  0  0
 48 76  1  0  0  0  0
 49 72  1  0  0  0  0
 50 71  1  0  0  0  0
 53 66  1  0  0  0  0
 54 67  1  0  0  0  0
 55 67  1  0  0  0  0
 56 68  1  0  0  0  0
 57 69  1  0  0  0  0
 58 69  1  0  0  0  0
 59 69  1  0  0  0  0
 60 79  1  0  0  0  0
 61 80  1  0  0  0  0
 62 87  1  0  0  0  0
 63 67  1  0  0  0  0
 63 78  1  0  0  0  0
 64 68  1  0  0  0  0
 64 78  1  0  0  0  0
 65 69  1  0  0  0  0
 65 77  1  0  0  0  0
 66 79  1  0  0  0  0
 68 80  1  0  0  0  0
 70 71  1  0  0  0  0
M  CHG  2  79   1  80   1
M  ISO  4  38 100  62 101  78 100  87 101
M  END
> <Batch ID>
0101

> <Smiles>
CNC(C)C(=O)NC(C(=O)N1Cc2cc([101O:1][101CH2:1]c3cc(C)c(CNC(C)C[100N:0](CC(C)C)[100C:0](=O)N4CCCC(n5nc(-c6ccc(Oc7ccc(F)cc7F)cc6)c(C(N)=O)c5N)C4)c(C)c3)ccc2CC1C(=O)NC1CCCc2ccccc21)C(C)(C)C

> <Shape>
0.221

> <Color>
0.054

> <Negative vol penalty>
0.000

$$$$

  -OEChem-04052319363D

 79 86  0     1  0  0  0  0  0999 V2000
  -18.7733  -23.7617   15.3300 C   0  0  0  0  0  0  0  0  0  0  0  0
  -19.9469  -23.0575   15.0811 C   0  0  0  0  0  0  0  0  0  0  0  0
  -23.2805   -9.8058   19.9160 C   0  0  0  0  0  0  0  0  0  0  0  0
  -23.7261   -9.9486   22.2862 C   0  0  0  0  0  0  0  0  0  0  0  0
  -18.5597  -24.3383   16.5814 C   0  0  0  0  0  0  0  0  0  0  0  0
  -20.9083  -22.9303   16.0831 C   0  0  0  0  0  0  0  0  0  0  0  0
  -25.8562  -18.3619   18.5250 C   0  0  0  0  0  0  0  0  0  0  0  0
  -22.5439   -8.6398   20.1247 C   0  0  0  0  0  0  0  0  0  0  0  0
  -22.9895   -8.7826   22.4949 C   0  0  0  0  0  0  0  0  0  0  0  0
  -27.2081  -18.3179   18.8632 C   0  0  0  0  0  0  0  0  0  0  0  0
  -19.7344   -7.8991   22.7059 C   0  0  0  0  0  0  0  0  0  0  0  0
  -18.8291   -7.8876   23.7669 C   0  0  0  0  0  0  0  0  0  0  0  0
  -26.6960  -19.2883   21.0115 C   0  0  0  0  0  0  0  0  0  0  0  0
  -20.0168   -6.0330   24.7602 C   0  0  0  0  0  0  0  0  0  0  0  0
  -23.8717  -10.4601   20.9967 C   0  0  0  0  0  0  0  0  0  0  0  0
  -24.1526  -12.9874   20.7925 C   0  0  0  0  0  0  0  0  0  0  0  0
  -19.5147  -24.2099   17.6023 C   0  0  0  0  0  0  0  0  0  0  0  0
  -24.9139  -18.8803   19.4249 C   0  0  0  0  0  0  0  0  0  0  0  0
  -20.7079  -23.5068   17.3489 C   0  0  0  0  0  0  0  0  0  0  0  0
  -25.3325  -19.3354   20.6834 C   0  0  0  0  0  0  0  0  0  0  0  0
  -22.3983   -8.1283   21.4142 C   0  0  0  0  0  0  0  0  0  0  0  0
  -27.6285  -18.7838   20.1055 C   0  0  0  0  0  0  0  0  0  0  0  0
  -20.7809   -6.9775   22.6719 C   0  0  0  0  0  0  0  0  0  0  0  0
  -18.9703   -6.9546   24.7941 C   0  0  0  0  0  0  0  0  0  0  0  0
  -20.9221   -6.0445   23.6991 C   0  0  0  0  0  0  0  0  0  0  0  0
  -24.6333  -11.6642   20.7817 C   0  0  0  0  0  0  0  0  0  0  0  0
  -25.2612  -13.7574   20.5385 C   0  0  0  0  0  0  0  0  0  0  0  0
  -22.8230  -13.4766   21.0126 C   0  0  0  0  0  0  0  0  0  0  0  0
  -22.8886  -21.3299   19.3881 C   0  0  0  0  0  0  0  0  0  0  0  0
  -21.8904  -20.0428   22.1934 C   0  0  0  0  0  0  0  0  0  0  0  0
  -22.6044  -18.0978   24.9052 C   0  0  0  0  0  0  0  0  0  0  0  0
  -31.0102  -12.8111   21.4920 C   0  0  0  0  0  0  0  0  0  0  0  0
  -19.2605  -24.8906   18.9239 C   0  0  0  0  0  0  0  0  0  0  0  0
  -23.4560  -18.8961   19.0553 C   0  0  0  0  0  0  0  0  0  0  0  0
  -24.3581  -19.8827   21.6931 C   0  0  0  0  0  0  0  0  0  0  0  0
  -20.1622  -24.3911   20.0498 C   0  0  0  0  0  0  0  0  0  0  0  0
  -29.4919  -13.6097   18.3054 C   0  0  0  0  0  0  0  0  0  0  0  0
  -21.6113  -24.3155   19.5795 C   0  0  0  0  0  0  0  0  0  0  0  0
  -28.0167  -13.3224   18.5908 C   0  0  0  0  0  0  0  0  0  0  0  0
  -30.3972  -12.6018   19.0074 C   0  0  0  0  0  0  0  0  0  0  0  0
  -28.7149  -12.2203   20.7675 C   0  0  0  0  0  0  0  0  0  0  0  0
  -21.7635  -23.3259   18.4180 C   0  0  1  0  0  0  0  0  0  0  0  0
  -22.6496  -19.9198   19.8486 C   0  0  1  0  0  0  0  0  0  0  0  0
  -27.7487  -13.2185   20.1040 C   0  0  2  0  0  0  0  0  0  0  0  0
  -21.6025  -17.2627   27.0491 C   0  0  0  0  0  0  0  0  0  0  0  0
  -22.3264  -22.7834   23.4618 C   0  0  0  0  0  0  0  0  0  0  0  0
  -22.2391  -21.6805   25.7078 C   0  0  0  0  0  0  0  0  0  0  0  0
  -20.2483  -21.6079   24.2064 C   0  0  0  0  0  0  0  0  0  0  0  0
  -22.8422  -15.2740   24.0517 C   0  0  0  0  0  0  0  0  0  0  0  0
  -33.0425  -17.0084   24.7196 C   0  0  0  0  0  0  0  0  0  0  0  0
  -33.4276  -14.8901   22.4160 C   0  0  0  0  0  0  0  0  0  0  0  0
  -30.5971  -17.8578   21.9376 C   0  0  0  0  0  0  0  0  0  0  0  0
  -33.3495  -13.4082   22.0650 C   0  0  0  0  0  0  0  0  0  0  0  0
  -32.1382  -15.4031   23.0445 C   0  0  0  0  0  0  0  0  0  0  0  0
  -31.0363  -17.6119   23.3731 C   0  0  0  0  0  0  0  0  0  0  0  0
  -29.2643  -18.5870   21.8205 C   0  0  0  0  0  0  0  0  0  1  0  0
  -22.2771  -20.2084   23.6432 C   0  0  1  0  0  0  0  0  0  0  0  0
  -21.8289  -16.9764   25.5727 C   0  0  2  0  0  0  0  0  0  0  0  0
  -21.7916  -21.5616   24.2352 C   0  0  0  0  0  0  0  0  0  0  0  0
  -25.9450  -11.5941   20.5398 N   0  0  0  0  0  0  0  0  0  0  0  0
  -26.2980  -12.8828   20.3962 N   0  0  0  0  0  0  0  0  0  0  0  0
  -22.9442  -19.8830   21.2825 N   0  0  0  0  0  0  0  0  0  0  0  0
  -30.1040  -12.5651   20.4471 N   0  0  0  0  0  0  0  0  0  0  0  0
  -25.4406  -15.0906   20.4252 N   0  0  0  0  0  0  0  0  0  0  0  0
  -21.8020  -12.5488   21.2597 N   0  0  0  0  0  0  0  0  0  0  0  0
  -21.7583  -21.9648   18.9099 N   0  0  0  0  0  0  0  0  0  0  0  0
  -21.7643  -19.0333   24.3393 N   0  0  0  0  0  0  0  0  0  0  0  0
  -32.3072  -13.1241   21.1038 N   0  0  0  0  0  0  0  0  0  0  0  0
  -22.5713  -15.6899   25.4519 N   0  3  0  0  0  0  0  0  0  0  0  0
  -32.3118  -16.8585   23.4069 N   0  3  1  0  0  0  0  0  0  0  0  0
  -22.5454  -14.6993   20.9745 O   0  0  0  0  0  0  0  0  0  0  0  0
  -24.0148  -21.8071   19.4627 O   0  0  0  0  0  0  0  0  0  0  0  0
  -20.6969  -20.0476   21.8815 O   0  0  0  0  0  0  0  0  0  0  0  0
  -23.8326  -18.1415   24.8907 O   0  0  0  0  0  0  0  0  0  0  0  0
  -30.6861  -12.7609   22.6834 O   0  0  0  0  0  0  0  0  0  0  0  0
  -21.6794   -6.9907   21.6182 O   0  0  0  0  0  0  0  0  0  0  0  0
  -28.9475  -18.7426   20.4379 O   0  0  0  0  0  0  0  0  0  1  0  0
  -18.1017   -6.9446   25.8137 F   0  0  0  0  0  0  0  0  0  0  0  0
  -21.9262   -5.1573   23.6726 F   0  0  0  0  0  0  0  0  0  0  0  0
  1  2  1  0  0  0  0
  1  5  2  0  0  0  0
  2  6  2  0  0  0  0
  3  8  2  0  0  0  0
  3 15  1  0  0  0  0
  4  9  1  0  0  0  0
  4 15  2  0  0  0  0
  5 17  1  0  0  0  0
  6 19  1  0  0  0  0
  7 10  2  0  0  0  0
  7 18  1  0  0  0  0
  8 21  1  0  0  0  0
  9 21  2  0  0  0  0
 10 22  1  0  0  0  0
 11 12  2  0  0  0  0
 11 23  1  0  0  0  0
 12 24  1  0  0  0  0
 13 20  1  0  0  0  0
 13 22  2  0  0  0  0
 14 24  2  0  0  0  0
 14 25  1  0  0  0  0
 15 26  1  0  0  0  0
 16 26  1  0  0  0  0
 16 27  2  0  0  0  0
 16 28  1  0  0  0  0
 17 19  2  0  0  0  0
 17 33  1  0  0  0  0
 18 20  2  0  0  0  0
 18 34  1  0  0  0  0
 19 42  1  0  0  0  0
 20 35  1  0  0  0  0
 21 76  1  0  0  0  0
 22 77  1  0  0  0  0
 23 25  2  0  0  0  0
 23 76  1  0  0  0  0
 24 78  1  0  0  0  0
 25 79  1  0  0  0  0
 26 60  2  0  0  0  0
 27 61  1  0  0  0  0
 27 64  1  0  0  0  0
 28 65  1  0  0  0  0
 28 71  2  0  0  0  0
 29 43  1  0  0  0  0
 29 66  1  0  0  0  0
 29 72  2  0  0  0  0
 30 57  1  0  0  0  0
 30 62  1  0  0  0  0
 30 73  2  0  0  0  0
 31 58  1  0  0  0  0
 31 67  1  0  0  0  0
 31 74  2  0  0  0  0
 32 63  1  0  0  0  0
 32 68  1  0  0  0  0
 32 75  2  0  0  0  0
 33 36  1  0  0  0  0
 34 43  1  0  0  0  0
 35 62  1  0  0  0  0
 36 38  1  0  0  0  0
 37 39  1  0  0  0  0
 37 40  1  0  0  0  0
 38 42  1  0  0  0  0
 39 44  1  0  0  0  0
 40 63  1  0  0  0  0
 41 44  1  0  0  0  0
 41 63  1  0  0  0  0
 42 66  1  0  0  0  0
 43 62  1  0  0  0  0
 44 61  1  0  0  0  0
 45 58  1  0  0  0  0
 46 59  1  0  0  0  0
 47 59  1  0  0  0  0
 48 59  1  0  0  0  0
 49 69  1  0  0  0  0
 50 70  1  0  0  0  0
 51 53  1  0  0  0  0
 51 54  1  0  0  0  0
 52 55  1  0  0  0  0
 52 56  1  0  0  0  0
 53 68  1  0  0  0  0
 54 70  1  0  0  0  0
 55 70  1  0  0  0  0
 56 77  1  0  0  0  0
 57 59  1  0  0  0  0
 57 67  1  0  0  0  0
 58 69  1  0  0  0  0
 60 61  1  0  0  0  0
M  CHG  2  69   1  70   1
M  ISO  4  32 100  56 101  68 100  77 101
M  END
> <Batch ID>
0101

> <Smiles>
CNC(C)C(=O)NC(C(=O)N1Cc2cc([101O:1][101CH2:1]CCN(C)CCC[100NH:0][100C:0](=O)N3CCCC(n4nc(-c5ccc(Oc6ccc(F)cc6F)cc5)c(C(N)=O)c4N)C3)ccc2CC1C(=O)NC1CCCc2ccccc21)C(C)(C)C

> <Shape>
0.172

> <Color>
0.179

> <Negative vol penalty>
0.000

$$$$

  -OEChem-04052319363D

 80 87  0     1  0  0  0  0  0999 V2000
  -18.3859  -27.4202   26.1244 C   0  0  0  0  0  0  0  0  0  0  0  0
  -19.2521  -26.7126   25.2971 C   0  0  0  0  0  0  0  0  0  0  0  0
  -26.6154  -12.8164   21.5699 C   0  0  0  0  0  0  0  0  0  0  0  0
  -26.2678  -13.7758   19.3800 C   0  0  0  0  0  0  0  0  0  0  0  0
  -17.9455  -28.6886   25.7486 C   0  0  0  0  0  0  0  0  0  0  0  0
  -19.6777  -27.2726   24.0931 C   0  0  0  0  0  0  0  0  0  0  0  0
  -25.1597  -26.5900   21.4497 C   0  0  0  0  0  0  0  0  0  0  0  0
  -25.3301  -12.2755   21.5370 C   0  0  0  0  0  0  0  0  0  0  0  0
  -24.9825  -13.2348   19.3470 C   0  0  0  0  0  0  0  0  0  0  0  0
  -25.6103  -25.7575   20.4262 C   0  0  0  0  0  0  0  0  0  0  0  0
  -23.7796   -9.6223   20.1266 C   0  0  0  0  0  0  0  0  0  0  0  0
  -23.6234   -8.2971   20.5327 C   0  0  0  0  0  0  0  0  0  0  0  0
  -25.2672  -27.5380   18.8351 C   0  0  0  0  0  0  0  0  0  0  0  0
  -22.1162   -9.0103   22.2810 C   0  0  0  0  0  0  0  0  0  0  0  0
  -27.0842  -13.5666   20.4914 C   0  0  0  0  0  0  0  0  0  0  0  0
  -29.6001  -13.5229   20.0719 C   0  0  0  0  0  0  0  0  0  0  0  0
  -18.3735  -29.2684   24.5440 C   0  0  0  0  0  0  0  0  0  0  0  0
  -24.7484  -27.9014   21.1715 C   0  0  0  0  0  0  0  0  0  0  0  0
  -19.2416  -28.5494   23.7003 C   0  0  0  0  0  0  0  0  0  0  0  0
  -24.8141  -28.3859   19.8573 C   0  0  0  0  0  0  0  0  0  0  0  0
  -24.5137  -12.4847   20.4256 C   0  0  0  0  0  0  0  0  0  0  0  0
  -25.6614  -26.2305   19.1182 C   0  0  0  0  0  0  0  0  0  0  0  0
  -23.1041  -10.6416   20.7978 C   0  0  0  0  0  0  0  0  0  0  0  0
  -22.7917   -7.9910   21.6098 C   0  0  0  0  0  0  0  0  0  0  0  0
  -22.2724  -10.3356   21.8750 C   0  0  0  0  0  0  0  0  0  0  0  0
  -28.4116  -14.1261   20.5251 C   0  0  0  0  0  0  0  0  0  0  0  0
  -30.5764  -14.4554   20.3245 C   0  0  0  0  0  0  0  0  0  0  0  0
  -29.8035  -12.2348   19.4759 C   0  0  0  0  0  0  0  0  0  0  0  0
  -22.0187  -29.5046   21.4579 C   0  0  0  0  0  0  0  0  0  0  0  0
  -23.8545  -32.0219   20.5549 C   0  0  0  0  0  0  0  0  0  0  0  0
  -26.6548  -33.1396   18.9562 C   0  0  0  0  0  0  0  0  0  0  0  0
  -30.4704  -20.4133   20.9102 C   0  0  0  0  0  0  0  0  0  0  0  0
  -17.8332  -30.6225   24.1578 C   0  0  0  0  0  0  0  0  0  0  0  0
  -24.2901  -28.7955   22.2909 C   0  0  0  0  0  0  0  0  0  0  0  0
  -24.4032  -29.7924   19.5091 C   0  0  0  0  0  0  0  0  0  0  0  0
  -18.6270  -31.3000   23.0438 C   0  0  0  0  0  0  0  0  0  0  0  0
  -31.6433  -18.0479   23.2988 C   0  0  0  0  0  0  0  0  0  0  0  0
  -18.9014  -30.3171   21.9100 C   0  0  0  0  0  0  0  0  0  0  0  0
  -31.0553  -16.7201   22.8179 C   0  0  0  0  0  0  0  0  0  0  0  0
  -30.6799  -19.2094   23.0650 C   0  0  0  0  0  0  0  0  0  0  0  0
  -29.6045  -18.0126   21.1982 C   0  0  0  0  0  0  0  0  0  0  0  0
  -19.7452  -29.1334   22.3982 C   0  0  1  0  0  0  0  0  0  0  0  0
  -23.4099  -29.9467   21.8139 C   0  0  1  0  0  0  0  0  0  0  0  0
  -30.5621  -16.8199   21.3619 C   0  0  2  0  0  0  0  0  0  0  0  0
  -27.8667  -35.2520   18.3508 C   0  0  0  0  0  0  0  0  0  0  0  0
  -25.9567  -23.7458   15.6504 C   0  0  0  0  0  0  0  0  0  0  0  0
  -28.1417  -22.6439   15.1159 C   0  0  0  0  0  0  0  0  0  0  0  0
  -21.8171  -32.5551   18.3471 C   0  0  0  0  0  0  0  0  0  0  0  0
  -23.5143  -34.0181   17.2302 C   0  0  0  0  0  0  0  0  0  0  0  0
  -22.6653  -34.6053   19.5011 C   0  0  0  0  0  0  0  0  0  0  0  0
  -29.0500  -32.3461   20.5029 C   0  0  0  0  0  0  0  0  0  0  0  0
  -30.1392  -24.5935   18.2538 C   0  0  0  0  0  0  0  0  0  0  0  0
  -30.2010  -21.4818   18.6864 C   0  0  0  0  0  0  0  0  0  0  0  0
  -29.0110  -22.4227   18.7179 C   0  0  0  0  0  0  0  0  0  0  0  0
  -27.0627  -24.4243   18.4623 C   0  0  0  0  0  0  0  0  0  1  0  0
  -24.2398  -32.6451   19.2350 C   0  0  1  0  0  0  0  0  0  0  0  0
  -27.7228  -34.1348   19.3725 C   0  0  2  0  0  0  0  0  0  0  0  0
  -27.2322  -23.1380   16.2451 C   0  0  0  0  0  0  0  0  0  0  0  0
  -27.9191  -24.1018   17.2384 C   0  0  2  0  0  0  0  0  0  0  0  0
  -23.0651  -33.4287   18.5843 C   0  0  0  0  0  0  0  0  0  0  0  0
  -28.6122  -15.3473   21.0276 N   0  0  0  0  0  0  0  0  0  0  0  0
  -29.9382  -15.5189   20.8918 N   0  0  0  0  0  0  0  0  0  0  0  0
  -23.9563  -30.6260   20.6374 N   0  0  0  0  0  0  0  0  0  0  0  0
  -30.2514  -19.2490   21.6647 N   0  0  0  0  0  0  0  0  0  0  0  0
  -31.9099  -14.4612   20.1146 N   0  0  0  0  0  0  0  0  0  0  0  0
  -28.6917  -11.4023   19.2885 N   0  0  0  0  0  0  0  0  0  0  0  0
  -21.1347  -29.5193   22.5199 N   0  0  0  0  0  0  0  0  0  0  0  0
  -25.4256  -33.4539   19.4962 N   0  0  0  0  0  0  0  0  0  0  0  0
  -30.0398  -20.3644   19.5900 N   0  0  0  0  0  0  0  0  0  0  0  0
  -29.0405  -33.4526   19.5117 N   0  3  0  0  0  0  0  0  0  0  0  0
  -29.2132  -23.5329   17.7219 N   0  3  1  0  0  0  0  0  0  0  0  0
  -30.9399  -11.8275   19.1351 O   0  0  0  0  0  0  0  0  0  0  0  0
  -21.7656  -29.1761   20.3048 O   0  0  0  0  0  0  0  0  0  0  0  0
  -23.4839  -32.7476   21.4810 O   0  0  0  0  0  0  0  0  0  0  0  0
  -26.8869  -32.1816   18.2222 O   0  0  0  0  0  0  0  0  0  0  0  0
  -31.0145  -21.4199   21.3768 O   0  0  0  0  0  0  0  0  0  0  0  0
  -23.2596  -11.9568   20.3930 O   0  0  0  0  0  0  0  0  0  0  0  0
  -26.1003  -25.4198   18.1172 O   0  0  0  0  0  0  0  0  0  1  0  0
  -22.6407   -6.7182   21.9987 F   0  0  0  0  0  0  0  0  0  0  0  0
  -21.6200  -11.3104   22.5230 F   0  0  0  0  0  0  0  0  0  0  0  0
  1  2  1  0  0  0  0
  1  5  2  0  0  0  0
  2  6  2  0  0  0  0
  3  8  2  0  0  0  0
  3 15  1  0  0  0  0
  4  9  1  0  0  0  0
  4 15  2  0  0  0  0
  5 17  1  0  0  0  0
  6 19  1  0  0  0  0
  7 10  2  0  0  0  0
  7 18  1  0  0  0  0
  8 21  1  0  0  0  0
  9 21  2  0  0  0  0
 10 22  1  0  0  0  0
 11 12  2  0  0  0  0
 11 23  1  0  0  0  0
 12 24  1  0  0  0  0
 13 20  1  0  0  0  0
 13 22  2  0  0  0  0
 14 24  2  0  0  0  0
 14 25  1  0  0  0  0
 15 26  1  0  0  0  0
 16 26  1  0  0  0  0
 16 27  2  0  0  0  0
 16 28  1  0  0  0  0
 17 19  2  0  0  0  0
 17 33  1  0  0  0  0
 18 20  2  0  0  0  0
 18 34  1  0  0  0  0
 19 42  1  0  0  0  0
 20 35  1  0  0  0  0
 21 77  1  0  0  0  0
 22 78  1  0  0  0  0
 23 25  2  0  0  0  0
 23 77  1  0  0  0  0
 24 79  1  0  0  0  0
 25 80  1  0  0  0  0
 26 61  2  0  0  0  0
 27 62  1  0  0  0  0
 27 65  1  0  0  0  0
 28 66  1  0  0  0  0
 28 72  2  0  0  0  0
 29 43  1  0  0  0  0
 29 67  1  0  0  0  0
 29 73  2  0  0  0  0
 30 56  1  0  0  0  0
 30 63  1  0  0  0  0
 30 74  2  0  0  0  0
 31 57  1  0  0  0  0
 31 68  1  0  0  0  0
 31 75  2  0  0  0  0
 32 64  1  0  0  0  0
 32 69  1  0  0  0  0
 32 76  2  0  0  0  0
 33 36  1  0  0  0  0
 34 43  1  0  0  0  0
 35 63  1  0  0  0  0
 36 38  1  0  0  0  0
 37 39  1  0  0  0  0
 37 40  1  0  0  0  0
 38 42  1  0  0  0  0
 39 44  1  0  0  0  0
 40 64  1  0  0  0  0
 41 44  1  0  0  0  0
 41 64  1  0  0  0  0
 42 67  1  0  0  0  0
 43 63  1  0  0  0  0
 44 62  1  0  0  0  0
 45 57  1  0  0  0  0
 46 58  1  0  0  0  0
 47 58  1  0  0  0  0
 48 60  1  0  0  0  0
 49 60  1  0  0  0  0
 50 60  1  0  0  0  0
 51 70  1  0  0  0  0
 52 71  1  0  0  0  0
 53 54  1  0  0  0  0
 53 69  1  0  0  0  0
 54 71  1  0  0  0  0
 55 59  1  0  0  0  0
 55 78  1  0  0  0  0
 56 60  1  0  0  0  0
 56 68  1  0  0  0  0
 57 70  1  0  0  0  0
 58 59  1  0  0  0  0
 59 71  1  0  0  0  0
 61 62  1  0  0  0  0
M  CHG  2  70   1  71   1
M  ISO  4  32 100  55 101  69 100  78 101
M  END
> <Batch ID>
0101

> <Smiles>
CNC(C)C(=O)NC(C(=O)N1Cc2cc([101O:1][101CH2:1]C(C(C)C)N(C)CC[100NH:0][100C:0](=O)N3CCCC(n4nc(-c5ccc(Oc6ccc(F)cc6F)cc5)c(C(N)=O)c4N)C3)ccc2CC1C(=O)NC1CCCc2ccccc21)C(C)(C)C

> <Shape>
0.273

> <Color>
0.081

> <Negative vol penalty>
0.000

$$$$

  -OEChem-04052319363D

 81 88  0     1  0  0  0  0  0999 V2000
  -18.4600  -24.4604   24.6828 C   0  0  0  0  0  0  0  0  0  0  0  0
  -19.8506  -24.4204   24.6922 C   0  0  0  0  0  0  0  0  0  0  0  0
  -26.6597  -13.2737   21.6950 C   0  0  0  0  0  0  0  0  0  0  0  0
  -26.2205  -13.7321   19.3639 C   0  0  0  0  0  0  0  0  0  0  0  0
  -17.7983  -25.5125   24.0510 C   0  0  0  0  0  0  0  0  0  0  0  0
  -20.5803  -25.4321   24.0690 C   0  0  0  0  0  0  0  0  0  0  0  0
  -24.4589  -27.0522   26.8933 C   0  0  0  0  0  0  0  0  0  0  0  0
  -25.8439  -12.1444   21.6266 C   0  0  0  0  0  0  0  0  0  0  0  0
  -25.4047  -12.6027   19.2955 C   0  0  0  0  0  0  0  0  0  0  0  0
  -25.6024  -26.2550   26.9219 C   0  0  0  0  0  0  0  0  0  0  0  0
  -26.0781   -8.9673   20.4934 C   0  0  0  0  0  0  0  0  0  0  0  0
  -26.5490   -7.7912   21.0770 C   0  0  0  0  0  0  0  0  0  0  0  0
  -26.6502  -27.7105   25.3086 C   0  0  0  0  0  0  0  0  0  0  0  0
  -24.6381   -7.7593   22.5550 C   0  0  0  0  0  0  0  0  0  0  0  0
  -26.8479  -14.0676   20.5636 C   0  0  0  0  0  0  0  0  0  0  0  0
  -29.0742  -15.3003   20.3856 C   0  0  0  0  0  0  0  0  0  0  0  0
  -18.5204  -26.5426   23.4281 C   0  0  0  0  0  0  0  0  0  0  0  0
  -24.3984  -28.1803   26.0625 C   0  0  0  0  0  0  0  0  0  0  0  0
  -19.9276  -26.4983   23.4272 C   0  0  0  0  0  0  0  0  0  0  0  0
  -25.5058  -28.5218   25.2732 C   0  0  0  0  0  0  0  0  0  0  0  0
  -25.2164  -11.8088   20.4269 C   0  0  0  0  0  0  0  0  0  0  0  0
  -26.6972  -26.5825   26.1274 C   0  0  0  0  0  0  0  0  0  0  0  0
  -24.8872   -9.5395   20.9407 C   0  0  0  0  0  0  0  0  0  0  0  0
  -25.8290   -7.1872   22.1077 C   0  0  0  0  0  0  0  0  0  0  0  0
  -24.1672   -8.9355   21.9714 C   0  0  0  0  0  0  0  0  0  0  0  0
  -27.6900  -15.2347   20.6337 C   0  0  0  0  0  0  0  0  0  0  0  0
  -29.3963  -16.6208   20.5837 C   0  0  0  0  0  0  0  0  0  0  0  0
  -29.9872  -14.2607   20.0096 C   0  0  0  0  0  0  0  0  0  0  0  0
  -22.5780  -29.0663   23.6120 C   0  0  0  0  0  0  0  0  0  0  0  0
  -24.2122  -31.8526   23.9091 C   0  0  0  0  0  0  0  0  0  0  0  0
  -27.0276  -33.4607   24.9740 C   0  0  0  0  0  0  0  0  0  0  0  0
  -28.5319  -21.8935   19.9421 C   0  0  0  0  0  0  0  0  0  0  0  0
  -17.7606  -27.6345   22.7171 C   0  0  0  0  0  0  0  0  0  0  0  0
  -23.1677  -29.0450   26.0631 C   0  0  0  0  0  0  0  0  0  0  0  0
  -25.4989  -29.7339   24.3792 C   0  0  0  0  0  0  0  0  0  0  0  0
  -18.6105  -28.8632   22.4037 C   0  0  0  0  0  0  0  0  0  0  0  0
  -26.7271  -20.4081   22.5894 C   0  0  0  0  0  0  0  0  0  0  0  0
  -19.9482  -28.4471   21.8001 C   0  0  0  0  0  0  0  0  0  0  0  0
  -26.9218  -18.9220   22.2919 C   0  0  0  0  0  0  0  0  0  0  0  0
  -26.5047  -21.2249   21.3151 C   0  0  0  0  0  0  0  0  0  0  0  0
  -27.7493  -19.5446   19.9921 C   0  0  0  0  0  0  0  0  0  0  0  0
  -20.7545  -27.5901   22.7834 C   0  0  1  0  0  0  0  0  0  0  0  0
  -23.0232  -29.8797   24.7943 C   0  0  1  0  0  0  0  0  0  0  0  0
  -28.0344  -18.7105   21.2506 C   0  0  2  0  0  0  0  0  0  0  0  0
  -28.0914  -35.7324   25.0439 C   0  0  0  0  0  0  0  0  0  0  0  0
  -26.2966  -24.4589   21.0003 C   0  0  0  0  0  0  0  0  0  0  0  0
  -26.7439  -24.6309   18.5317 C   0  0  0  0  0  0  0  0  0  0  0  0
  -29.9672  -24.1929   18.6029 C   0  0  0  0  0  0  0  0  0  0  0  0
  -24.9066  -31.6159   20.9474 C   0  0  0  0  0  0  0  0  0  0  0  0
  -26.6965  -33.3303   21.3015 C   0  0  0  0  0  0  0  0  0  0  0  0
  -24.3063  -33.9251   21.6968 C   0  0  0  0  0  0  0  0  0  0  0  0
  -27.0945  -33.4660   27.9328 C   0  0  0  0  0  0  0  0  0  0  0  0
  -29.2584  -24.3759   24.8788 C   0  0  0  0  0  0  0  0  0  0  0  0
  -30.1349  -24.1925   23.6491 C   0  0  0  0  0  0  0  0  0  0  0  0
  -30.1118  -24.1858   21.1514 C   0  0  0  0  0  0  0  0  0  0  0  0
  -28.5889  -25.7426   24.9562 C   0  0  0  0  0  0  0  0  0  1  0  0
  -25.4930  -32.4073   23.3340 C   0  0  1  0  0  0  0  0  0  0  0  0
  -27.2169  -34.7313   25.7827 C   0  0  2  0  0  0  0  0  0  0  0  0
  -26.8026  -23.7324   19.7604 C   0  0  0  0  0  0  0  0  0  0  0  0
  -29.2059  -24.2649   19.9232 C   0  0  2  0  0  0  0  0  0  0  0  0
  -25.3503  -32.7957   21.8352 C   0  0  0  0  0  0  0  0  0  0  0  0
  -27.1687  -16.4191   20.9643 N   0  0  0  0  0  0  0  0  0  0  0  0
  -28.2309  -17.2415   20.9254 N   0  0  0  0  0  0  0  0  0  0  0  0
  -24.2702  -30.5443   24.4100 N   0  0  0  0  0  0  0  0  0  0  0  0
  -27.5621  -20.9575   20.3306 N   0  0  0  0  0  0  0  0  0  0  0  0
  -30.5598  -17.2998   20.4972 N   0  0  0  0  0  0  0  0  0  0  0  0
  -29.4895  -12.9605   19.8485 N   0  0  0  0  0  0  0  0  0  0  0  0
  -21.3684  -28.4236   23.7947 N   0  0  0  0  0  0  0  0  0  0  0  0
  -25.8858  -33.5116   24.2026 N   0  0  0  0  0  0  0  0  0  0  0  0
  -28.1653  -23.2475   19.9704 N   0  0  0  0  0  0  0  0  0  0  0  0
  -27.8596  -34.4216   27.0912 N   0  3  0  0  0  0  0  0  0  0  0  0
  -29.3264  -24.2963   22.4117 N   0  3  0  0  0  0  0  0  0  0  0  0
  -31.2112  -14.4752   19.8381 O   0  0  0  0  0  0  0  0  0  0  0  0
  -23.2791  -29.0259   22.6078 O   0  0  0  0  0  0  0  0  0  0  0  0
  -23.1994  -32.5567   23.9201 O   0  0  0  0  0  0  0  0  0  0  0  0
  -27.8158  -32.5188   25.0190 O   0  0  0  0  0  0  0  0  0  0  0  0
  -29.6618  -21.5397   19.5814 O   0  0  0  0  0  0  0  0  0  0  0  0
  -24.4205  -10.7067   20.3598 O   0  0  0  0  0  0  0  0  0  0  0  0
  -27.8142  -25.8057   26.1530 O   0  0  0  0  0  0  0  0  0  1  0  0
  -26.2806   -6.0569   22.6670 F   0  0  0  0  0  0  0  0  0  0  0  0
  -23.0218   -9.4799   22.4046 F   0  0  0  0  0  0  0  0  0  0  0  0
  1  2  1  0  0  0  0
  1  5  2  0  0  0  0
  2  6  2  0  0  0  0
  3  8  2  0  0  0  0
  3 15  1  0  0  0  0
  4  9  1  0  0  0  0
  4 15  2  0  0  0  0
  5 17  1  0  0  0  0
  6 19  1  0  0  0  0
  7 10  2  0  0  0  0
  7 18  1  0  0  0  0
  8 21  1  0  0  0  0
  9 21  2  0  0  0  0
 10 22  1  0  0  0  0
 11 12  2  0  0  0  0
 11 23  1  0  0  0  0
 12 24  1  0  0  0  0
 13 20  1  0  0  0  0
 13 22  2  0  0  0  0
 14 24  2  0  0  0  0
 14 25  1  0  0  0  0
 15 26  1  0  0  0  0
 16 26  1  0  0  0  0
 16 27  2  0  0  0  0
 16 28  1  0  0  0  0
 17 19  2  0  0  0  0
 17 33  1  0  0  0  0
 18 20  2  0  0  0  0
 18 34  1  0  0  0  0
 19 42  1  0  0  0  0
 20 35  1  0  0  0  0
 21 78  1  0  0  0  0
 22 79  1  0  0  0  0
 23 25  2  0  0  0  0
 23 78  1  0  0  0  0
 24 80  1  0  0  0  0
 25 81  1  0  0  0  0
 26 62  2  0  0  0  0
 27 63  1  0  0  0  0
 27 66  1  0  0  0  0
 28 67  1  0  0  0  0
 28 73  2  0  0  0  0
 29 43  1  0  0  0  0
 29 68  1  0  0  0  0
 29 74  2  0  0  0  0
 30 57  1  0  0  0  0
 30 64  1  0  0  0  0
 30 75  2  0  0  0  0
 31 58  1  0  0  0  0
 31 69  1  0  0  0  0
 31 76  2  0  0  0  0
 32 65  1  0  0  0  0
 32 70  1  0  0  0  0
 32 77  2  0  0  0  0
 33 36  1  0  0  0  0
 34 43  1  0  0  0  0
 35 64  1  0  0  0  0
 36 38  1  0  0  0  0
 37 39  1  0  0  0  0
 37 40  1  0  0  0  0
 38 42  1  0  0  0  0
 39 44  1  0  0  0  0
 40 65  1  0  0  0  0
 41 44  1  0  0  0  0
 41 65  1  0  0  0  0
 42 68  1  0  0  0  0
 43 64  1  0  0  0  0
 44 63  1  0  0  0  0
 45 58  1  0  0  0  0
 46 59  1  0  0  0  0
 47 59  1  0  0  0  0
 48 60  1  0  0  0  0
 49 61  1  0  0  0  0
 50 61  1  0  0  0  0
 51 61  1  0  0  0  0
 52 71  1  0  0  0  0
 53 54  1  0  0  0  0
 53 56  1  0  0  0  0
 54 72  1  0  0  0  0
 55 60  1  0  0  0  0
 55 72  1  0  0  0  0
 56 79  1  0  0  0  0
 57 61  1  0  0  0  0
 57 69  1  0  0  0  0
 58 71  1  0  0  0  0
 59 70  1  0  0  0  0
 60 70  1  0  0  0  0
 62 63  1  0  0  0  0
M  CHG  2  71   1  72   1
M  ISO  4  32 100  56 101  70 100  79 101
M  END
> <Batch ID>
0101

> <Smiles>
CNC(C)C(=O)NC(C(=O)N1Cc2cc([101O:1][101CH2:1]CCNCC(C)[100N:0](C(C)C)[100C:0](=O)N3CCCC(n4nc(-c5ccc(Oc6ccc(F)cc6F)cc5)c(C(N)=O)c4N)C3)ccc2CC1C(=O)NC1CCCc2ccccc21)C(C)(C)C

> <Shape>
0.259

> <Color>
0.104

> <Negative vol penalty>
0.000

$$$$

  -OEChem-04052319363D

 84 92  0     1  0  0  0  0  0999 V2000
  -19.8852  -24.2954   24.0737 C   0  0  0  0  0  0  0  0  0  0  0  0
  -20.3272  -23.4016   23.1035 C   0  0  0  0  0  0  0  0  0  0  0  0
  -23.2845   -9.7972   19.9080 C   0  0  0  0  0  0  0  0  0  0  0  0
  -23.7110   -9.9391   22.2818 C   0  0  0  0  0  0  0  0  0  0  0  0
  -20.1224  -25.6609   23.9218 C   0  0  0  0  0  0  0  0  0  0  0  0
  -21.0059  -23.8730   21.9803 C   0  0  0  0  0  0  0  0  0  0  0  0
  -26.1718  -21.9998   17.3846 C   0  0  0  0  0  0  0  0  0  0  0  0
  -22.5495   -8.6290   20.1098 C   0  0  0  0  0  0  0  0  0  0  0  0
  -22.9759   -8.7709   22.4837 C   0  0  0  0  0  0  0  0  0  0  0  0
  -26.4058  -21.8868   16.0149 C   0  0  0  0  0  0  0  0  0  0  0  0
  -19.4519   -7.7873   21.1726 C   0  0  0  0  0  0  0  0  0  0  0  0
  -18.2292   -7.6685   20.5121 C   0  0  0  0  0  0  0  0  0  0  0  0
  -26.8284  -24.2589   15.8974 C   0  0  0  0  0  0  0  0  0  0  0  0
  -30.2043  -15.9432   14.6913 C   0  0  0  0  0  0  0  0  0  0  0  0
  -19.0318   -5.6896   19.3822 C   0  0  0  0  0  0  0  0  0  0  0  0
  -28.2019  -16.9307   14.9832 C   0  0  0  0  0  0  0  0  0  0  0  0
  -23.8653  -10.4522   20.9940 C   0  0  0  0  0  0  0  0  0  0  0  0
  -24.1408  -12.9804   20.7943 C   0  0  0  0  0  0  0  0  0  0  0  0
  -20.8127  -26.1483   22.8009 C   0  0  0  0  0  0  0  0  0  0  0  0
  -26.2538  -23.2471   18.0202 C   0  0  0  0  0  0  0  0  0  0  0  0
  -21.2514  -25.2465   21.8126 C   0  0  0  0  0  0  0  0  0  0  0  0
  -26.5975  -24.3846   17.2758 C   0  0  0  0  0  0  0  0  0  0  0  0
  -29.0930  -16.0548   15.5629 C   0  0  0  0  0  0  0  0  0  0  0  0
  -22.3952   -8.1159   21.3977 C   0  0  0  0  0  0  0  0  0  0  0  0
  -26.7313  -23.0168   15.2705 C   0  0  0  0  0  0  0  0  0  0  0  0
  -20.4647   -6.8573   20.9379 C   0  0  0  0  0  0  0  0  0  0  0  0
  -18.0191   -6.6197   19.6170 C   0  0  0  0  0  0  0  0  0  0  0  0
  -20.2546   -5.8084   20.0428 C   0  0  0  0  0  0  0  0  0  0  0  0
  -24.6252  -11.6586   20.7860 C   0  0  0  0  0  0  0  0  0  0  0  0
  -29.9585  -16.7544   13.6055 C   0  0  0  0  0  0  0  0  0  0  0  0
  -25.2492  -13.7538   20.5498 C   0  0  0  0  0  0  0  0  0  0  0  0
  -22.8081  -13.4657   21.0042 C   0  0  0  0  0  0  0  0  0  0  0  0
  -24.2106  -25.0956   19.6051 C   0  0  0  0  0  0  0  0  0  0  0  0
  -26.8613  -26.8805   20.1619 C   0  0  0  0  0  0  0  0  0  0  0  0
  -30.0068  -27.7782   19.1885 C   0  0  0  0  0  0  0  0  0  0  0  0
  -29.8723  -14.5035   17.3465 C   0  0  0  0  0  0  0  0  0  0  0  0
  -21.0040  -27.6374   22.6571 C   0  0  0  0  0  0  0  0  0  0  0  0
  -26.0247  -23.3479   19.5033 C   0  0  0  0  0  0  0  0  0  0  0  0
  -26.7181  -25.7434   17.9142 C   0  0  0  0  0  0  0  0  0  0  0  0
  -22.0591  -28.0188   21.6220 C   0  0  0  0  0  0  0  0  0  0  0  0
  -30.1579  -12.5737   20.4777 C   0  0  0  0  0  0  0  0  0  0  0  0
  -21.8593  -27.2211   20.3372 C   0  0  0  0  0  0  0  0  0  0  0  0
  -28.7055  -12.2208   20.7938 C   0  0  0  0  0  0  0  0  0  0  0  0
  -30.3937  -12.7126   18.9767 C   0  0  0  0  0  0  0  0  0  0  0  0
  -28.0207  -13.3268   18.6275 C   0  0  0  0  0  0  0  0  0  0  0  0
  -22.0128  -25.7168   20.5924 C   0  0  1  0  0  0  0  0  0  0  0  0
  -25.6312  -24.7515   19.9531 C   0  0  1  0  0  0  0  0  0  0  0  0
  -27.7415  -13.2222   20.1344 C   0  0  1  0  0  0  0  0  0  0  0  0
  -30.7838  -17.0097   12.4072 C   0  0  0  0  0  0  0  0  0  0  0  0
  -31.9095  -29.2869   19.8217 C   0  0  0  0  0  0  0  0  0  0  0  0
  -27.9372  -20.3782   10.6217 C   0  0  0  0  0  0  0  0  0  0  0  0
  -25.3314  -29.2737   19.0475 C   0  0  0  0  0  0  0  0  0  0  0  0
  -27.5160  -30.4749   18.8178 C   0  0  0  0  0  0  0  0  0  0  0  0
  -26.7134  -29.7698   21.0720 C   0  0  0  0  0  0  0  0  0  0  0  0
  -27.7971  -15.8247   17.6899 C   0  0  0  0  0  0  0  0  0  0  0  0
  -31.8440  -25.4906   19.5765 C   0  0  0  0  0  0  0  0  0  0  0  0
  -28.5997  -19.7567   12.9575 C   0  0  0  0  0  0  0  0  0  0  0  0
  -28.0721  -18.3190   12.8501 C   0  0  0  0  0  0  0  0  0  0  0  0
  -28.4439  -22.2201   12.2937 C   0  0  0  0  0  0  0  0  0  0  0  0
  -27.5518  -28.0197   19.4515 C   0  0  1  0  0  0  0  0  0  0  0  0
  -31.3056  -27.8985   19.9650 C   0  0  2  0  0  0  0  0  0  0  0  0
  -27.8627  -20.8071   12.0946 C   0  0  1  0  0  0  0  0  0  0  0  0
  -26.7740  -29.3594   19.5845 C   0  0  0  0  0  0  0  0  0  0  0  0
  -25.9389  -11.5923   20.5545 N   0  0  0  0  0  0  0  0  0  0  0  0
  -28.7386  -17.3499   13.7939 N   0  0  0  0  0  0  0  0  0  0  0  0
  -26.2895  -12.8822   20.4149 N   0  0  0  0  0  0  0  0  0  0  0  0
  -26.4786  -25.7915   19.3661 N   0  0  0  0  0  0  0  0  0  0  0  0
  -29.4352  -13.6352   18.3669 N   0  0  0  0  0  0  0  0  0  0  0  0
  -25.4256  -15.0876   20.4391 N   0  0  0  0  0  0  0  0  0  0  0  0
  -21.7878  -12.5348   21.2424 N   0  0  0  0  0  0  0  0  0  0  0  0
  -23.4119  -25.3627   20.7006 N   0  0  0  0  0  0  0  0  0  0  0  0
  -28.9121  -28.0638   19.9768 N   0  0  0  0  0  0  0  0  0  0  0  0
  -28.3768  -22.6474   13.6839 N   0  0  0  0  0  0  0  0  0  1  0  0
  -28.9011  -15.3879   16.8290 N   0  0  0  0  0  0  0  0  0  0  0  0
  -32.2977  -26.9014   19.4727 N   0  3  0  0  0  0  0  0  0  0  0  0
  -22.5273  -14.6877   20.9650 O   0  0  0  0  0  0  0  0  0  0  0  0
  -23.8651  -25.1186   18.4296 O   0  0  0  0  0  0  0  0  0  0  0  0
  -26.6751  -26.9511   21.3792 O   0  0  0  0  0  0  0  0  0  0  0  0
  -29.9674  -27.4660   18.0005 O   0  0  0  0  0  0  0  0  0  0  0  0
  -31.0442  -14.5081   16.9512 O   0  0  0  0  0  0  0  0  0  0  0  0
  -21.6778   -6.9761   21.5951 O   0  0  0  0  0  0  0  0  0  0  0  0
  -26.9596  -22.9094   13.9333 O   0  0  0  0  0  0  0  0  0  1  0  0
  -16.8442   -6.5048   18.9839 F   0  0  0  0  0  0  0  0  0  0  0  0
  -21.2233   -4.9112   19.8141 F   0  0  0  0  0  0  0  0  0  0  0  0
  1  2  1  0  0  0  0
  1  5  2  0  0  0  0
  2  6  2  0  0  0  0
  3  8  2  0  0  0  0
  3 17  1  0  0  0  0
  4  9  1  0  0  0  0
  4 17  2  0  0  0  0
  5 19  1  0  0  0  0
  6 21  1  0  0  0  0
  7 10  2  0  0  0  0
  7 20  1  0  0  0  0
  8 24  1  0  0  0  0
  9 24  2  0  0  0  0
 10 25  1  0  0  0  0
 11 12  2  0  0  0  0
 11 26  1  0  0  0  0
 12 27  1  0  0  0  0
 13 22  1  0  0  0  0
 13 25  2  0  0  0  0
 14 23  1  0  0  0  0
 14 30  2  0  0  0  0
 15 27  2  0  0  0  0
 15 28  1  0  0  0  0
 16 23  2  0  0  0  0
 16 65  1  0  0  0  0
 17 29  1  0  0  0  0
 18 29  1  0  0  0  0
 18 31  2  0  0  0  0
 18 32  1  0  0  0  0
 19 21  2  0  0  0  0
 19 37  1  0  0  0  0
 20 22  2  0  0  0  0
 20 38  1  0  0  0  0
 21 46  1  0  0  0  0
 22 39  1  0  0  0  0
 23 74  1  0  0  0  0
 24 81  1  0  0  0  0
 25 82  1  0  0  0  0
 26 28  2  0  0  0  0
 26 81  1  0  0  0  0
 27 83  1  0  0  0  0
 28 84  1  0  0  0  0
 29 64  2  0  0  0  0
 30 49  1  0  0  0  0
 30 65  1  0  0  0  0
 31 66  1  0  0  0  0
 31 69  1  0  0  0  0
 32 70  1  0  0  0  0
 32 76  2  0  0  0  0
 33 47  1  0  0  0  0
 33 71  1  0  0  0  0
 33 77  2  0  0  0  0
 34 60  1  0  0  0  0
 34 67  1  0  0  0  0
 34 78  2  0  0  0  0
 35 61  1  0  0  0  0
 35 72  1  0  0  0  0
 35 79  2  0  0  0  0
 36 68  1  0  0  0  0
 36 74  1  0  0  0  0
 36 80  2  0  0  0  0
 37 40  1  0  0  0  0
 38 47  1  0  0  0  0
 39 67  1  0  0  0  0
 40 42  1  0  0  0  0
 41 43  1  0  0  0  0
 41 44  1  0  0  0  0
 42 46  1  0  0  0  0
 43 48  1  0  0  0  0
 44 68  1  0  0  0  0
 45 48  1  0  0  0  0
 45 68  1  0  0  0  0
 46 71  1  0  0  0  0
 47 67  1  0  0  0  0
 48 66  1  0  0  0  0
 50 61  1  0  0  0  0
 51 62  1  0  0  0  0
 52 63  1  0  0  0  0
 53 63  1  0  0  0  0
 54 63  1  0  0  0  0
 55 74  1  0  0  0  0
 56 75  1  0  0  0  0
 57 58  1  0  0  0  0
 57 62  1  0  0  0  0
 58 65  1  0  0  0  0
 59 62  1  0  0  0  0
 59 73  1  0  0  0  0
 60 63  1  0  0  0  0
 60 72  1  0  0  0  0
 61 75  1  0  0  0  0
 64 66  1  0  0  0  0
 73 82  1  0  0  0  0
M  CHG  1  75   1
M  ISO  4  36 100  73 101  74 100  82 101
M  END
> <Batch ID>
0101

> <Smiles>
CNC(C)C(=O)NC(C(=O)N1Cc2cc([101O:1][101NH:1]CC(C)CCn3cc([100N:0](C)[100C:0](=O)N4CCCC(n5nc(-c6ccc(Oc7ccc(F)cc7F)cc6)c(C(N)=O)c5N)C4)cc3C)ccc2CC1C(=O)NC1CCCc2ccccc21)C(C)(C)C

> <Shape>
0.203

> <Color>
0.185

> <Negative vol penalty>
0.000

$$$$

  -OEChem-04052319363D

 94102  0     1  0  0  0  0  0999 V2000
  -27.7279  -32.2834   13.8942 C   0  0  0  0  0  0  0  0  0  0  0  0
  -28.1238  -31.1342   14.5711 C   0  0  0  0  0  0  0  0  0  0  0  0
  -23.1162   -9.9464   21.4872 C   0  0  0  0  0  0  0  0  0  0  0  0
  -23.9221  -10.8099   23.5947 C   0  0  0  0  0  0  0  0  0  0  0  0
  -27.3434  -33.4157   14.6111 C   0  0  0  0  0  0  0  0  0  0  0  0
  -28.1365  -31.1171   15.9654 C   0  0  0  0  0  0  0  0  0  0  0  0
  -26.1149  -26.8849   17.8749 C   0  0  0  0  0  0  0  0  0  0  0  0
  -22.3941   -8.9646   22.1656 C   0  0  0  0  0  0  0  0  0  0  0  0
  -23.2000   -9.8281   24.2732 C   0  0  0  0  0  0  0  0  0  0  0  0
  -26.9076  -25.7380   17.8608 C   0  0  0  0  0  0  0  0  0  0  0  0
  -23.0195   -5.9955   23.6548 C   0  0  0  0  0  0  0  0  0  0  0  0
  -23.0821   -4.6912   23.1647 C   0  0  0  0  0  0  0  0  0  0  0  0
  -27.4461  -26.0890   20.1859 C   0  0  0  0  0  0  0  0  0  0  0  0
  -28.3736  -22.5892   23.7232 C   0  0  0  0  0  0  0  0  0  0  0  0
  -28.1039  -22.6463   21.3230 C   0  0  0  0  0  0  0  0  0  0  0  0
  -29.7106  -24.0991   22.3930 C   0  0  0  0  0  0  0  0  0  0  0  0
  -20.6888   -4.7006   22.8341 C   0  0  0  0  0  0  0  0  0  0  0  0
  -23.8803  -10.8690   22.2018 C   0  0  0  0  0  0  0  0  0  0  0  0
  -24.1835  -13.1705   21.1439 C   0  0  0  0  0  0  0  0  0  0  0  0
  -27.3422  -33.4093   16.0149 C   0  0  0  0  0  0  0  0  0  0  0  0
  -25.9904  -27.6497   19.0436 C   0  0  0  0  0  0  0  0  0  0  0  0
  -27.7529  -32.2509   16.7017 C   0  0  0  0  0  0  0  0  0  0  0  0
  -26.6492  -27.2437   20.2129 C   0  0  0  0  0  0  0  0  0  0  0  0
  -27.7481  -22.1239   22.5665 C   0  0  0  0  0  0  0  0  0  0  0  0
  -29.3548  -23.5768   23.6364 C   0  0  0  0  0  0  0  0  0  0  0  0
  -29.0851  -23.6339   21.2362 C   0  0  0  0  0  0  0  0  0  0  0  0
  -22.4359   -8.9055   23.5585 C   0  0  0  0  0  0  0  0  0  0  0  0
  -27.5756  -25.3415   19.0156 C   0  0  0  0  0  0  0  0  0  0  0  0
  -21.7916   -6.6525   23.7347 C   0  0  0  0  0  0  0  0  0  0  0  0
  -21.9168   -4.0437   22.7543 C   0  0  0  0  0  0  0  0  0  0  0  0
  -20.6262   -6.0050   23.3243 C   0  0  0  0  0  0  0  0  0  0  0  0
  -24.6269  -11.8831   21.5015 C   0  0  0  0  0  0  0  0  0  0  0  0
  -25.2573  -13.7374   20.5019 C   0  0  0  0  0  0  0  0  0  0  0  0
  -22.9145  -13.7977   21.3716 C   0  0  0  0  0  0  0  0  0  0  0  0
  -26.7178  -30.6346   19.8591 C   0  0  0  0  0  0  0  0  0  0  0  0
  -27.7609  -16.8756   22.1358 C   0  0  0  0  0  0  0  0  0  0  0  0
  -25.1875  -29.8432   22.6076 C   0  0  0  0  0  0  0  0  0  0  0  0
  -24.1634  -27.3931   24.7512 C   0  0  0  0  0  0  0  0  0  0  0  0
  -31.1443  -13.4950   21.1078 C   0  0  0  0  0  0  0  0  0  0  0  0
  -26.9636  -34.6728   16.7462 C   0  0  0  0  0  0  0  0  0  0  0  0
  -25.1101  -28.8694   19.0496 C   0  0  0  0  0  0  0  0  0  0  0  0
  -26.5321  -28.0187   21.4990 C   0  0  0  0  0  0  0  0  0  0  0  0
  -26.6468  -34.4503   18.2229 C   0  0  0  0  0  0  0  0  0  0  0  0
  -29.3023  -12.0158   18.2581 C   0  0  0  0  0  0  0  0  0  0  0  0
  -27.7112  -33.5702   18.8704 C   0  0  0  0  0  0  0  0  0  0  0  0
  -27.8830  -11.8887   18.8089 C   0  0  0  0  0  0  0  0  0  0  0  0
  -30.3493  -11.9385   19.3651 C   0  0  0  0  0  0  0  0  0  0  0  0
  -28.7175  -12.7914   21.0156 C   0  0  0  0  0  0  0  0  0  0  0  0
  -27.7564  -32.1853   18.2136 C   0  0  1  0  0  0  0  0  0  0  0  0
  -25.4663  -29.8578   20.1557 C   0  0  1  0  0  0  0  0  0  0  0  0
  -27.6363  -12.9119   19.9312 C   0  0  2  0  0  0  0  0  0  0  0  0
  -33.4435  -22.1686   24.7786 C   0  0  0  0  0  0  0  0  0  0  0  0
  -29.7318  -25.5714   25.1089 C   0  0  0  0  0  0  0  0  0  0  0  0
  -30.5903  -23.4041   19.2300 C   0  0  0  0  0  0  0  0  0  0  0  0
  -25.8410  -16.2201   23.5632 C   0  0  0  0  0  0  0  0  0  0  0  0
  -22.9679  -27.0568   26.9318 C   0  0  0  0  0  0  0  0  0  0  0  0
  -27.6777  -30.7630   24.1118 C   0  0  0  0  0  0  0  0  0  0  0  0
  -26.8246  -29.5468   26.1271 C   0  0  0  0  0  0  0  0  0  0  0  0
  -25.5130  -31.4387   25.1662 C   0  0  0  0  0  0  0  0  0  0  0  0
  -32.0324  -15.4613   22.3013 C   0  0  0  0  0  0  0  0  0  0  0  0
  -22.0280  -25.7960   23.4673 C   0  0  0  0  0  0  0  0  0  0  0  0
  -26.6993  -21.0677   22.6599 C   0  0  0  0  0  0  0  0  0  0  0  0
  -28.9719  -16.0140   22.4715 C   0  0  0  0  0  0  0  0  0  0  0  0
  -31.9346  -22.3612   24.7855 C   0  0  0  0  0  0  0  0  0  0  0  0
  -31.5614  -23.8430   24.9000 C   0  0  0  0  0  0  0  0  0  0  0  0
  -29.8055  -15.6370   21.2547 C   0  0  0  0  0  0  0  0  0  0  0  0
  -26.2168  -18.6524   23.0750 C   0  0  0  0  0  0  0  0  0  0  0  0
  -30.0243  -24.0744   24.8729 C   0  0  2  0  0  0  0  0  0  0  0  0
  -29.4704  -24.1996   19.8885 C   0  0  1  0  0  0  0  0  0  1  0  0
  -26.8896  -17.3016   23.3186 C   0  0  2  0  0  0  0  0  0  0  0  0
  -25.6032  -29.2372   23.9263 C   0  0  1  0  0  0  0  0  0  0  0  0
  -22.8253  -27.1343   25.4197 C   0  0  2  0  0  0  0  0  0  0  0  0
  -26.4086  -30.2327   24.8083 C   0  0  0  0  0  0  0  0  0  0  0  0
  -25.8843  -11.6459   21.1185 N   0  0  0  0  0  0  0  0  0  0  0  0
  -26.2401  -12.7919   20.5134 N   0  0  0  0  0  0  0  0  0  0  0  0
  -25.6647  -29.2074   21.4526 N   0  0  0  0  0  0  0  0  0  0  0  0
  -30.0667  -12.8914   20.4391 N   0  0  0  0  0  0  0  0  0  0  0  0
  -25.4471  -14.9474   19.9343 N   0  0  0  0  0  0  0  0  0  0  0  0
  -21.9227  -13.0734   22.0468 N   0  0  0  0  0  0  0  0  0  0  0  0
  -26.6621  -31.3652   18.6875 N   0  0  0  0  0  0  0  0  0  0  0  0
  -24.3818  -28.7396   24.5499 N   0  0  0  0  0  0  0  0  0  0  0  0
  -30.9412  -14.7891   21.6104 N   0  0  0  0  0  0  0  0  0  0  0  0
  -22.2443  -25.8500   24.9360 N   0  3  0  0  0  0  0  0  0  0  0  0
  -27.2502  -19.7094   22.9220 N   0  3  0  0  0  0  0  0  0  0  0  0
  -22.6619  -14.9601   20.9732 O   0  0  0  0  0  0  0  0  0  0  0  0
  -27.6634  -30.5766   20.6364 O   0  0  0  0  0  0  0  0  0  0  0  0
  -27.4723  -17.1813   20.9789 O   0  0  0  0  0  0  0  0  0  0  0  0
  -24.4602  -30.8394   22.6023 O   0  0  0  0  0  0  0  0  0  0  0  0
  -24.9390  -26.4912   24.4420 O   0  0  0  0  0  0  0  0  0  0  0  0
  -32.2294  -12.9142   21.2393 O   0  0  0  0  0  0  0  0  0  0  0  0
  -21.7312   -7.9477   24.2208 O   0  0  0  0  0  0  0  0  0  0  0  0
  -28.3505  -24.2229   19.0044 O   0  0  0  0  0  0  0  0  0  1  0  0
  -21.9772   -2.7917   22.2821 F   0  0  0  0  0  0  0  0  0  0  0  0
  -19.4438   -6.6314   23.3975 F   0  0  0  0  0  0  0  0  0  0  0  0
  1  2  1  0  0  0  0
  1  5  2  0  0  0  0
  2  6  2  0  0  0  0
  3  8  2  0  0  0  0
  3 18  1  0  0  0  0
  4  9  1  0  0  0  0
  4 18  2  0  0  0  0
  5 20  1  0  0  0  0
  6 22  1  0  0  0  0
  7 10  2  0  0  0  0
  7 21  1  0  0  0  0
  8 27  1  0  0  0  0
  9 27  2  0  0  0  0
 10 28  1  0  0  0  0
 11 12  2  0  0  0  0
 11 29  1  0  0  0  0
 12 30  1  0  0  0  0
 13 23  1  0  0  0  0
 13 28  2  0  0  0  0
 14 24  2  0  0  0  0
 14 25  1  0  0  0  0
 15 24  1  0  0  0  0
 15 26  2  0  0  0  0
 16 25  2  0  0  0  0
 16 26  1  0  0  0  0
 17 30  2  0  0  0  0
 17 31  1  0  0  0  0
 18 32  1  0  0  0  0
 19 32  1  0  0  0  0
 19 33  2  0  0  0  0
 19 34  1  0  0  0  0
 20 22  2  0  0  0  0
 20 40  1  0  0  0  0
 21 23  2  0  0  0  0
 21 41  1  0  0  0  0
 22 49  1  0  0  0  0
 23 42  1  0  0  0  0
 24 62  1  0  0  0  0
 25 68  1  0  0  0  0
 26 69  1  0  0  0  0
 27 91  1  0  0  0  0
 28 92  1  0  0  0  0
 29 31  2  0  0  0  0
 29 91  1  0  0  0  0
 30 93  1  0  0  0  0
 31 94  1  0  0  0  0
 32 74  2  0  0  0  0
 33 75  1  0  0  0  0
 33 78  1  0  0  0  0
 34 79  1  0  0  0  0
 34 85  2  0  0  0  0
 35 50  1  0  0  0  0
 35 80  1  0  0  0  0
 35 86  2  0  0  0  0
 36 63  1  0  0  0  0
 36 70  1  0  0  0  0
 36 87  2  0  0  0  0
 37 71  1  0  0  0  0
 37 76  1  0  0  0  0
 37 88  2  0  0  0  0
 38 72  1  0  0  0  0
 38 81  1  0  0  0  0
 38 89  2  0  0  0  0
 39 77  1  0  0  0  0
 39 82  1  0  0  0  0
 39 90  2  0  0  0  0
 40 43  1  0  0  0  0
 41 50  1  0  0  0  0
 42 76  1  0  0  0  0
 43 45  1  0  0  0  0
 44 46  1  0  0  0  0
 44 47  1  0  0  0  0
 45 49  1  0  0  0  0
 46 51  1  0  0  0  0
 47 77  1  0  0  0  0
 48 51  1  0  0  0  0
 48 77  1  0  0  0  0
 49 80  1  0  0  0  0
 50 76  1  0  0  0  0
 51 75  1  0  0  0  0
 52 64  1  0  0  0  0
 53 68  1  0  0  0  0
 54 69  1  0  0  0  0
 55 70  1  0  0  0  0
 56 72  1  0  0  0  0
 57 73  1  0  0  0  0
 58 73  1  0  0  0  0
 59 73  1  0  0  0  0
 60 82  1  0  0  0  0
 61 83  1  0  0  0  0
 62 84  1  0  0  0  0
 63 66  1  0  0  0  0
 64 65  1  0  0  0  0
 65 68  1  0  0  0  0
 66 82  1  0  0  0  0
 67 70  1  0  0  0  0
 67 84  1  0  0  0  0
 69 92  1  0  0  0  0
 71 73  1  0  0  0  0
 71 81  1  0  0  0  0
 72 83  1  0  0  0  0
 74 75  1  0  0  0  0
M  CHG  2  83   1  84   1
M  ISO  4  39 100  69 101  82 100  92 101
M  END
> <Batch ID>
0101

> <Smiles>
CCCC(C)c1cc(CNCC(C)C(=O)CC[100N:0](C)[100C:0](=O)N2CCCC(n3nc(-c4ccc(Oc5ccc(F)cc5F)cc4)c(C(N)=O)c3N)C2)cc([101CH:1](C)[101O:1]c2ccc3c(c2)CN(C(=O)C(NC(=O)C(C)NC)C(C)(C)C)C(C(=O)NC2CCCc4ccccc42)C3)c1

> <Shape>
0.268

> <Color>
0.157

> <Negative vol penalty>
0.000

$$$$

  -OEChem-04052319363D

 85 93  0     1  0  0  0  0  0999 V2000
  -29.4879  -26.0055   23.6133 C   0  0  0  0  0  0  0  0  0  0  0  0
  -28.4300  -25.1048   23.6850 C   0  0  0  0  0  0  0  0  0  0  0  0
  -25.5295  -31.1081   23.4411 C   0  0  0  0  0  0  0  0  0  0  0  0
  -25.7674  -29.2538   24.9714 C   0  0  0  0  0  0  0  0  0  0  0  0
  -30.4319  -25.8906   22.5938 C   0  0  0  0  0  0  0  0  0  0  0  0
  -28.3151  -24.0892   22.7365 C   0  0  0  0  0  0  0  0  0  0  0  0
  -27.2109  -19.6054   24.8152 C   0  0  0  0  0  0  0  0  0  0  0  0
  -26.3664  -31.8803   24.2466 C   0  0  0  0  0  0  0  0  0  0  0  0
  -26.6045  -30.0259   25.7769 C   0  0  0  0  0  0  0  0  0  0  0  0
  -25.8875  -19.3890   25.1967 C   0  0  0  0  0  0  0  0  0  0  0  0
  -28.1530  -34.4570   26.0884 C   0  0  0  0  0  0  0  0  0  0  0  0
  -27.7649  -35.7690   26.3597 C   0  0  0  0  0  0  0  0  0  0  0  0
  -25.5174  -18.1266   23.1747 C   0  0  0  0  0  0  0  0  0  0  0  0
  -25.7386  -34.9558   27.3939 C   0  0  0  0  0  0  0  0  0  0  0  0
  -19.3497  -22.0223   23.7771 C   0  0  0  0  0  0  0  0  0  0  0  0
  -18.2134  -20.0992   23.6187 C   0  0  0  0  0  0  0  0  0  0  0  0
  -25.2299  -29.7949   23.8036 C   0  0  0  0  0  0  0  0  0  0  0  0
  -24.7451  -28.1634   21.9034 C   0  0  0  0  0  0  0  0  0  0  0  0
  -30.3339  -24.8672   21.6379 C   0  0  0  0  0  0  0  0  0  0  0  0
  -27.6953  -19.0924   23.6034 C   0  0  0  0  0  0  0  0  0  0  0  0
  -29.2580  -23.9613   21.7024 C   0  0  0  0  0  0  0  0  0  0  0  0
  -26.8480  -18.3357   22.7814 C   0  0  0  0  0  0  0  0  0  0  0  0
  -18.7914  -21.9769   22.5187 C   0  0  0  0  0  0  0  0  0  0  0  0
  -18.0726  -20.7603   22.4184 C   0  0  0  0  0  0  0  0  0  0  0  0
  -26.9040  -31.3392   25.4145 C   0  0  0  0  0  0  0  0  0  0  0  0
  -25.0397  -18.6520   24.3751 C   0  0  0  0  0  0  0  0  0  0  0  0
  -27.3339  -33.3943   26.4699 C   0  0  0  0  0  0  0  0  0  0  0  0
  -26.5577  -36.0184   27.0124 C   0  0  0  0  0  0  0  0  0  0  0  0
  -26.1267  -33.6437   27.1227 C   0  0  0  0  0  0  0  0  0  0  0  0
  -24.3649  -28.9969   22.9722 C   0  0  0  0  0  0  0  0  0  0  0  0
  -23.5641  -27.6325   21.4451 C   0  0  0  0  0  0  0  0  0  0  0  0
  -26.0491  -27.8930   21.3723 C   0  0  0  0  0  0  0  0  0  0  0  0
  -28.8798  -20.3651   20.9424 C   0  0  0  0  0  0  0  0  0  0  0  0
  -29.4225  -17.2632   20.1641 C   0  0  0  0  0  0  0  0  0  0  0  0
  -28.5974  -13.9802   20.5979 C   0  0  0  0  0  0  0  0  0  0  0  0
  -18.5869  -25.2934   22.3946 C   0  0  0  0  0  0  0  0  0  0  0  0
  -31.3521  -24.8117   20.5267 C   0  0  0  0  0  0  0  0  0  0  0  0
  -29.1328  -19.3119   23.2189 C   0  0  0  0  0  0  0  0  0  0  0  0
  -27.3248  -17.7461   21.4800 C   0  0  0  0  0  0  0  0  0  0  0  0
  -31.3672  -23.4802   19.7803 C   0  0  0  0  0  0  0  0  0  0  0  0
  -18.7726  -28.8468   22.5189 C   0  0  0  0  0  0  0  0  0  0  0  0
  -29.9462  -23.0445   19.4371 C   0  0  0  0  0  0  0  0  0  0  0  0
  -20.2745  -29.1332   22.5661 C   0  0  0  0  0  0  0  0  0  0  0  0
  -18.4127  -27.5896   23.3076 C   0  0  0  0  0  0  0  0  0  0  0  0
  -20.6753  -26.6698   22.9782 C   0  0  0  0  0  0  0  0  0  0  0  0
  -29.1129  -22.8311   20.7065 C   0  0  1  0  0  0  0  0  0  0  0  0
  -29.3772  -19.1789   21.7190 C   0  0  1  0  0  0  0  0  0  0  0  0
  -21.0944  -27.8969   22.1506 C   0  0  2  0  0  0  0  0  0  0  0  0
  -29.1906  -11.6774   19.7963 C   0  0  0  0  0  0  0  0  0  0  0  0
  -16.6505  -18.8848   21.5206 C   0  0  0  0  0  0  0  0  0  0  0  0
  -18.2229  -20.1153   19.9877 C   0  0  0  0  0  0  0  0  0  0  0  0
  -16.1279  -21.1983   20.7747 C   0  0  0  0  0  0  0  0  0  0  0  0
  -27.9103  -17.7810   17.5651 C   0  0  0  0  0  0  0  0  0  0  0  0
  -27.7089  -15.3029   17.2701 C   0  0  0  0  0  0  0  0  0  0  0  0
  -29.9619  -16.3728   17.3155 C   0  0  0  0  0  0  0  0  0  0  0  0
  -29.4023  -13.1168   23.3119 C   0  0  0  0  0  0  0  0  0  0  0  0
  -18.9236  -23.0129   21.4751 C   0  0  0  0  0  0  0  0  0  0  0  0
  -20.9055  -20.5163   26.0800 C   0  0  0  0  0  0  0  0  0  0  0  0
  -21.6310  -19.4463   25.2626 C   0  0  0  0  0  0  0  0  0  0  0  0
  -19.3903  -20.5239   25.8481 C   0  0  0  0  0  0  0  0  0  0  0  0
  -23.1273  -19.4455   25.5451 C   0  0  0  0  0  0  0  0  0  1  0  0
  -28.6359  -16.1842   19.4598 C   0  0  1  0  0  0  0  0  0  0  0  0
  -29.4531  -12.7503   20.8417 C   0  0  2  0  0  0  0  0  0  0  0  0
  -17.3103  -20.2787   21.2496 C   0  0  0  0  0  0  0  0  0  0  0  0
  -28.5444  -16.4228   17.9262 C   0  0  0  0  0  0  0  0  0  0  0  0
  -23.0456  -28.9989   23.1806 N   0  0  0  0  0  0  0  0  0  0  0  0
  -18.9914  -20.8758   24.4370 N   0  0  0  0  0  0  0  0  0  0  0  0
  -22.5864  -28.1601   22.2363 N   0  0  0  0  0  0  0  0  0  0  0  0
  -28.7368  -17.9937   21.1449 N   0  0  0  0  0  0  0  0  0  0  0  0
  -19.2244  -26.4537   22.8640 N   0  0  0  0  0  0  0  0  0  0  0  0
  -23.2770  -26.7706   20.4465 N   0  0  0  0  0  0  0  0  0  0  0  0
  -27.1542  -28.5222   21.9617 N   0  0  0  0  0  0  0  0  0  0  0  0
  -29.4475  -21.5657   21.3240 N   0  0  0  0  0  0  0  0  0  0  0  0
  -29.2571  -14.9176   19.8315 N   0  0  0  0  0  0  0  0  0  0  0  0
  -19.4300  -24.2665   21.9878 N   0  0  0  0  0  0  0  0  0  0  0  0
  -29.1643  -12.1766   22.1866 N   0  3  0  0  0  0  0  0  0  0  0  0
  -26.2275  -27.1293   20.3933 O   0  0  0  0  0  0  0  0  0  0  0  0
  -28.0439  -20.2029   20.0611 O   0  0  0  0  0  0  0  0  0  0  0  0
  -30.6040  -17.4461   19.8604 O   0  0  0  0  0  0  0  0  0  0  0  0
  -27.4564  -14.0962   21.0399 O   0  0  0  0  0  0  0  0  0  0  0  0
  -17.3575  -25.1829   22.3370 O   0  0  0  0  0  0  0  0  0  0  0  0
  -27.7210  -32.0923   26.2006 O   0  0  0  0  0  0  0  0  0  0  0  0
  -23.7473  -18.4399   24.7448 O   0  0  0  0  0  0  0  0  0  1  0  0
  -26.1859  -37.2783   27.2742 F   0  0  0  0  0  0  0  0  0  0  0  0
  -25.3361  -32.6269   27.4926 F   0  0  0  0  0  0  0  0  0  0  0  0
  1  2  1  0  0  0  0
  1  5  2  0  0  0  0
  2  6  2  0  0  0  0
  3  8  2  0  0  0  0
  3 17  1  0  0  0  0
  4  9  1  0  0  0  0
  4 17  2  0  0  0  0
  5 19  1  0  0  0  0
  6 21  1  0  0  0  0
  7 10  2  0  0  0  0
  7 20  1  0  0  0  0
  8 25  1  0  0  0  0
  9 25  2  0  0  0  0
 10 26  1  0  0  0  0
 11 12  2  0  0  0  0
 11 27  1  0  0  0  0
 12 28  1  0  0  0  0
 13 22  1  0  0  0  0
 13 26  2  0  0  0  0
 14 28  2  0  0  0  0
 14 29  1  0  0  0  0
 15 23  2  0  0  0  0
 15 67  1  0  0  0  0
 16 24  2  0  0  0  0
 16 67  1  0  0  0  0
 17 30  1  0  0  0  0
 18 30  1  0  0  0  0
 18 31  2  0  0  0  0
 18 32  1  0  0  0  0
 19 21  2  0  0  0  0
 19 37  1  0  0  0  0
 20 22  2  0  0  0  0
 20 38  1  0  0  0  0
 21 46  1  0  0  0  0
 22 39  1  0  0  0  0
 23 24  1  0  0  0  0
 23 57  1  0  0  0  0
 24 64  1  0  0  0  0
 25 82  1  0  0  0  0
 26 83  1  0  0  0  0
 27 29  2  0  0  0  0
 27 82  1  0  0  0  0
 28 84  1  0  0  0  0
 29 85  1  0  0  0  0
 30 66  2  0  0  0  0
 31 68  1  0  0  0  0
 31 71  1  0  0  0  0
 32 72  1  0  0  0  0
 32 77  2  0  0  0  0
 33 47  1  0  0  0  0
 33 73  1  0  0  0  0
 33 78  2  0  0  0  0
 34 62  1  0  0  0  0
 34 69  1  0  0  0  0
 34 79  2  0  0  0  0
 35 63  1  0  0  0  0
 35 74  1  0  0  0  0
 35 80  2  0  0  0  0
 36 70  1  0  0  0  0
 36 75  1  0  0  0  0
 36 81  2  0  0  0  0
 37 40  1  0  0  0  0
 38 47  1  0  0  0  0
 39 69  1  0  0  0  0
 40 42  1  0  0  0  0
 41 43  1  0  0  0  0
 41 44  1  0  0  0  0
 42 46  1  0  0  0  0
 43 48  1  0  0  0  0
 44 70  1  0  0  0  0
 45 48  1  0  0  0  0
 45 70  1  0  0  0  0
 46 73  1  0  0  0  0
 47 69  1  0  0  0  0
 48 68  1  0  0  0  0
 49 63  1  0  0  0  0
 50 64  1  0  0  0  0
 51 64  1  0  0  0  0
 52 64  1  0  0  0  0
 53 65  1  0  0  0  0
 54 65  1  0  0  0  0
 55 65  1  0  0  0  0
 56 76  1  0  0  0  0
 57 75  1  0  0  0  0
 58 59  1  0  0  0  0
 58 60  1  0  0  0  0
 59 61  1  0  0  0  0
 60 67  1  0  0  0  0
 61 83  1  0  0  0  0
 62 65  1  0  0  0  0
 62 74  1  0  0  0  0
 63 76  1  0  0  0  0
 66 68  1  0  0  0  0
M  CHG  1  76   1
M  ISO  4  36 100  61 101  75 100  83 101
M  END
> <Batch ID>
0101

> <Smiles>
CNC(C)C(=O)NC(C(=O)N1Cc2cc([101O:1][101CH2:1]CCCn3cc(C[100NH:0][100C:0](=O)N4CCCC(n5nc(-c6ccc(Oc7ccc(F)cc7F)cc6)c(C(N)=O)c5N)C4)c(C(C)(C)C)c3)ccc2CC1C(=O)NC1CCCc2ccccc21)C(C)(C)C

> <Shape>
0.222

> <Color>
0.052

> <Negative vol penalty>
0.000

$$$$

  -OEChem-04052319363D

 77 84  0     1  0  0  0  0  0999 V2000
  -27.8763  -18.4899   14.9946 C   0  0  0  0  0  0  0  0  0  0  0  0
  -28.4992  -17.8119   16.0375 C   0  0  0  0  0  0  0  0  0  0  0  0
  -27.7460  -24.0291   21.4787 C   0  0  0  0  0  0  0  0  0  0  0  0
  -28.4159  -23.4860   19.2218 C   0  0  0  0  0  0  0  0  0  0  0  0
  -26.4890  -18.6281   14.9846 C   0  0  0  0  0  0  0  0  0  0  0  0
  -27.7350  -17.2726   17.0718 C   0  0  0  0  0  0  0  0  0  0  0  0
  -29.1654  -12.5717   18.2967 C   0  0  0  0  0  0  0  0  0  0  0  0
  -27.8202  -25.3882   21.1736 C   0  0  0  0  0  0  0  0  0  0  0  0
  -28.4900  -24.8451   18.9168 C   0  0  0  0  0  0  0  0  0  0  0  0
  -30.3095  -12.4387   19.0823 C   0  0  0  0  0  0  0  0  0  0  0  0
  -27.4835  -28.9964   20.8864 C   0  0  0  0  0  0  0  0  0  0  0  0
  -26.4390  -29.8153   21.3153 C   0  0  0  0  0  0  0  0  0  0  0  0
  -28.9260  -12.1294   21.0341 C   0  0  0  0  0  0  0  0  0  0  0  0
  -24.8802  -28.5108   20.0092 C   0  0  0  0  0  0  0  0  0  0  0  0
  -28.0439  -23.0780   20.5028 C   0  0  0  0  0  0  0  0  0  0  0  0
  -26.8467  -20.8329   20.6868 C   0  0  0  0  0  0  0  0  0  0  0  0
  -25.7066  -18.0818   16.0143 C   0  0  0  0  0  0  0  0  0  0  0  0
  -27.8910  -12.4954   18.8767 C   0  0  0  0  0  0  0  0  0  0  0  0
  -26.3360  -17.4048   17.0763 C   0  0  0  0  0  0  0  0  0  0  0  0
  -27.7673  -12.2592   20.2533 C   0  0  0  0  0  0  0  0  0  0  0  0
  -28.1922  -25.7962   19.8927 C   0  0  0  0  0  0  0  0  0  0  0  0
  -30.1900  -12.2203   20.4517 C   0  0  0  0  0  0  0  0  0  0  0  0
  -27.2264  -27.9348   20.0189 C   0  0  0  0  0  0  0  0  0  0  0  0
  -25.1373  -29.5725   20.8767 C   0  0  0  0  0  0  0  0  0  0  0  0
  -25.9248  -27.6920   19.5803 C   0  0  0  0  0  0  0  0  0  0  0  0
  -27.9681  -21.6740   20.8175 C   0  0  0  0  0  0  0  0  0  0  0  0
  -27.2879  -19.6039   21.1127 C   0  0  0  0  0  0  0  0  0  0  0  0
  -25.5246  -21.1355   20.2221 C   0  0  0  0  0  0  0  0  0  0  0  0
  -25.4315  -14.4892   19.1582 C   0  0  0  0  0  0  0  0  0  0  0  0
  -23.9646  -11.8833   20.4150 C   0  0  0  0  0  0  0  0  0  0  0  0
  -24.2608   -8.8635   21.9770 C   0  0  0  0  0  0  0  0  0  0  0  0
  -32.6684  -17.1759   21.2173 C   0  0  0  0  0  0  0  0  0  0  0  0
  -24.2143  -18.2977   15.9846 C   0  0  0  0  0  0  0  0  0  0  0  0
  -26.6665  -12.6143   18.0112 C   0  0  0  0  0  0  0  0  0  0  0  0
  -26.4219  -12.1490   20.9213 C   0  0  0  0  0  0  0  0  0  0  0  0
  -23.4462  -17.3727   16.9252 C   0  0  0  0  0  0  0  0  0  0  0  0
  -30.4693  -17.5831   24.0627 C   0  0  0  0  0  0  0  0  0  0  0  0
  -24.1112  -17.3350   18.2975 C   0  0  0  0  0  0  0  0  0  0  0  0
  -29.4669  -18.6076   23.5282 C   0  0  0  0  0  0  0  0  0  0  0  0
  -31.8797  -17.8747   23.5588 C   0  0  0  0  0  0  0  0  0  0  0  0
  -30.9988  -18.9790   21.5394 C   0  0  0  0  0  0  0  0  0  0  0  0
  -25.5394  -16.7844   18.2035 C   0  0  1  0  0  0  0  0  0  0  0  0
  -25.4230  -13.0326   18.7897 C   0  0  1  0  0  0  0  0  0  0  0  0
  -29.5501  -18.7258   21.9948 C   0  0  2  0  0  0  0  0  0  0  0  0
  -22.8834   -6.9849   22.9103 C   0  0  0  0  0  0  0  0  0  0  0  0
  -23.2797  -13.5962   22.8455 C   0  0  0  0  0  0  0  0  0  0  0  0
  -22.7757  -11.4896   24.1010 C   0  0  0  0  0  0  0  0  0  0  0  0
  -21.4386  -12.0860   22.0813 C   0  0  0  0  0  0  0  0  0  0  0  0
  -35.5117  -13.1561   20.8036 C   0  0  0  0  0  0  0  0  0  0  0  0
  -35.3418  -14.1959   23.0633 C   0  0  0  0  0  0  0  0  0  0  0  0
  -25.4544   -6.9047   20.1068 C   0  0  0  0  0  0  0  0  0  0  0  0
  -33.2850  -13.2139   22.0201 C   0  0  0  0  0  0  0  0  0  0  0  0
  -34.3459  -15.3550   21.0520 C   0  0  0  0  0  0  0  0  0  0  0  0
  -32.4717  -12.7950   20.7974 C   0  0  0  0  0  0  0  0  0  1  0  0
  -23.8248  -11.2993   21.8001 C   0  0  1  0  0  0  0  0  0  0  0  0
  -23.6236   -7.5154   21.6923 C   0  0  2  0  0  0  0  0  0  0  0  0
  -22.8552  -12.1217   22.6950 C   0  0  0  0  0  0  0  0  0  0  0  0
  -34.5983  -13.9869   21.7265 C   0  0  0  0  0  0  0  0  0  0  0  0
  -29.0409  -21.0334   21.2895 N   0  0  0  0  0  0  0  0  0  0  0  0
  -28.5956  -19.7768   21.4593 N   0  0  0  0  0  0  0  0  0  0  0  0
  -25.2546  -12.2785   20.0335 N   0  0  0  0  0  0  0  0  0  0  0  0
  -31.8933  -17.9561   22.0914 N   0  0  0  0  0  0  0  0  0  0  0  0
  -26.6809  -18.4029   21.2208 N   0  0  0  0  0  0  0  0  0  0  0  0
  -25.2410  -22.4487   19.8227 N   0  0  0  0  0  0  0  0  0  0  0  0
  -25.5179  -15.3430   18.0751 N   0  0  0  0  0  0  0  0  0  0  0  0
  -23.4328   -9.9059   21.6178 N   0  0  0  0  0  0  0  0  0  0  0  0
  -33.4940  -16.2351   21.8206 N   0  0  0  0  0  0  0  0  0  0  0  0
  -24.6646   -6.5217   21.3053 N   0  3  0  0  0  0  0  0  0  0  0  0
  -24.6168  -20.2709   20.1782 O   0  0  0  0  0  0  0  0  0  0  0  0
  -25.3631  -14.8145   20.3377 O   0  0  0  0  0  0  0  0  0  0  0  0
  -22.9672  -11.9786   19.6954 O   0  0  0  0  0  0  0  0  0  0  0  0
  -25.3797   -8.9801   22.4721 O   0  0  0  0  0  0  0  0  0  0  0  0
  -32.6239  -17.3043   19.9891 O   0  0  0  0  0  0  0  0  0  0  0  0
  -28.2644  -27.1222   19.5946 O   0  0  0  0  0  0  0  0  0  0  0  0
  -31.3050  -12.0907   21.2209 O   0  0  0  0  0  0  0  0  0  1  0  0
  -24.1341  -30.3580   21.2899 F   0  0  0  0  0  0  0  0  0  0  0  0
  -25.6714  -26.6729   18.7478 F   0  0  0  0  0  0  0  0  0  0  0  0
  1  2  1  0  0  0  0
  1  5  2  0  0  0  0
  2  6  2  0  0  0  0
  3  8  2  0  0  0  0
  3 15  1  0  0  0  0
  4  9  1  0  0  0  0
  4 15  2  0  0  0  0
  5 17  1  0  0  0  0
  6 19  1  0  0  0  0
  7 10  2  0  0  0  0
  7 18  1  0  0  0  0
  8 21  1  0  0  0  0
  9 21  2  0  0  0  0
 10 22  1  0  0  0  0
 11 12  2  0  0  0  0
 11 23  1  0  0  0  0
 12 24  1  0  0  0  0
 13 20  1  0  0  0  0
 13 22  2  0  0  0  0
 14 24  2  0  0  0  0
 14 25  1  0  0  0  0
 15 26  1  0  0  0  0
 16 26  1  0  0  0  0
 16 27  2  0  0  0  0
 16 28  1  0  0  0  0
 17 19  2  0  0  0  0
 17 33  1  0  0  0  0
 18 20  2  0  0  0  0
 18 34  1  0  0  0  0
 19 42  1  0  0  0  0
 20 35  1  0  0  0  0
 21 74  1  0  0  0  0
 22 75  1  0  0  0  0
 23 25  2  0  0  0  0
 23 74  1  0  0  0  0
 24 76  1  0  0  0  0
 25 77  1  0  0  0  0
 26 59  2  0  0  0  0
 27 60  1  0  0  0  0
 27 63  1  0  0  0  0
 28 64  1  0  0  0  0
 28 69  2  0  0  0  0
 29 43  1  0  0  0  0
 29 65  1  0  0  0  0
 29 70  2  0  0  0  0
 30 55  1  0  0  0  0
 30 61  1  0  0  0  0
 30 71  2  0  0  0  0
 31 56  1  0  0  0  0
 31 66  1  0  0  0  0
 31 72  2  0  0  0  0
 32 62  1  0  0  0  0
 32 67  1  0  0  0  0
 32 73  2  0  0  0  0
 33 36  1  0  0  0  0
 34 43  1  0  0  0  0
 35 61  1  0  0  0  0
 36 38  1  0  0  0  0
 37 39  1  0  0  0  0
 37 40  1  0  0  0  0
 38 42  1  0  0  0  0
 39 44  1  0  0  0  0
 40 62  1  0  0  0  0
 41 44  1  0  0  0  0
 41 62  1  0  0  0  0
 42 65  1  0  0  0  0
 43 61  1  0  0  0  0
 44 60  1  0  0  0  0
 45 56  1  0  0  0  0
 46 57  1  0  0  0  0
 47 57  1  0  0  0  0
 48 57  1  0  0  0  0
 49 58  1  0  0  0  0
 50 58  1  0  0  0  0
 51 68  1  0  0  0  0
 52 54  1  0  0  0  0
 52 58  1  0  0  0  0
 53 58  1  0  0  0  0
 53 67  1  0  0  0  0
 54 75  1  0  0  0  0
 55 57  1  0  0  0  0
 55 66  1  0  0  0  0
 56 68  1  0  0  0  0
 59 60  1  0  0  0  0
M  CHG  1  68   1
M  ISO  4  32 100  54 101  67 100  75 101
M  END
> <Batch ID>
0101

> <Smiles>
CNC(C)C(=O)NC(C(=O)N1Cc2cc([101O:1][101CH2:1]CC(C)(C)C[100NH:0][100C:0](=O)N3CCCC(n4nc(-c5ccc(Oc6ccc(F)cc6F)cc5)c(C(N)=O)c4N)C3)ccc2CC1C(=O)NC1CCCc2ccccc21)C(C)(C)C

> <Shape>
0.229

> <Color>
0.065

> <Negative vol penalty>
0.000

$$$$

  -OEChem-04052319363D

 86 94  0     1  0  0  0  0  0999 V2000
  -25.7486  -15.5794   13.6066 C   0  0  0  0  0  0  0  0  0  0  0  0
  -26.3934  -15.7067   14.8328 C   0  0  0  0  0  0  0  0  0  0  0  0
  -24.2123  -30.5547   20.8422 C   0  0  0  0  0  0  0  0  0  0  0  0
  -25.6449  -29.7940   22.6328 C   0  0  0  0  0  0  0  0  0  0  0  0
  -24.3729  -15.3570   13.5636 C   0  0  0  0  0  0  0  0  0  0  0  0
  -25.6626  -15.6129   16.0166 C   0  0  0  0  0  0  0  0  0  0  0  0
  -27.9460  -12.7140   19.4847 C   0  0  0  0  0  0  0  0  0  0  0  0
  -23.6233  -31.4783   21.7058 C   0  0  0  0  0  0  0  0  0  0  0  0
  -25.0560  -30.7176   23.4963 C   0  0  0  0  0  0  0  0  0  0  0  0
  -29.0050  -13.2818   20.1919 C   0  0  0  0  0  0  0  0  0  0  0  0
  -21.3000  -31.4626   24.1606 C   0  0  0  0  0  0  0  0  0  0  0  0
  -19.9096  -31.5714   24.1415 C   0  0  0  0  0  0  0  0  0  0  0  0
  -27.5288  -13.7020   22.0530 C   0  0  0  0  0  0  0  0  0  0  0  0
  -28.5247  -17.5900   21.1249 C   0  0  0  0  0  0  0  0  0  0  0  0
  -29.9459  -19.5922   19.8005 C   0  0  0  0  0  0  0  0  0  0  0  0
  -20.1003  -33.8970   23.5151 C   0  0  0  0  0  0  0  0  0  0  0  0
  -25.2230  -29.7125   21.3057 C   0  0  0  0  0  0  0  0  0  0  0  0
  -26.9598  -28.9574   19.5966 C   0  0  0  0  0  0  0  0  0  0  0  0
  -23.6264  -15.2508   14.7477 C   0  0  0  0  0  0  0  0  0  0  0  0
  -26.6659  -12.6457   20.0531 C   0  0  0  0  0  0  0  0  0  0  0  0
  -24.2754  -15.3902   15.9894 C   0  0  0  0  0  0  0  0  0  0  0  0
  -26.4560  -13.1305   21.3519 C   0  0  0  0  0  0  0  0  0  0  0  0
  -27.9364  -18.2768   20.0630 C   0  0  0  0  0  0  0  0  0  0  0  0
  -29.8236  -17.9043   21.5247 C   0  0  0  0  0  0  0  0  0  0  0  0
  -30.5341  -18.9054   20.8625 C   0  0  0  0  0  0  0  0  0  0  0  0
  -28.6470  -19.2779   19.4007 C   0  0  0  0  0  0  0  0  0  0  0  0
  -24.0452  -31.5598   23.0328 C   0  0  0  0  0  0  0  0  0  0  0  0
  -28.7958  -13.7785   21.4751 C   0  0  0  0  0  0  0  0  0  0  0  0
  -22.0906  -32.5710   23.8570 C   0  0  0  0  0  0  0  0  0  0  0  0
  -19.3097  -32.7887   23.8187 C   0  0  0  0  0  0  0  0  0  0  0  0
  -21.4907  -33.7882   23.5343 C   0  0  0  0  0  0  0  0  0  0  0  0
  -25.8314  -28.7578   20.4143 C   0  0  0  0  0  0  0  0  0  0  0  0
  -27.1319  -27.7578   18.9503 C   0  0  0  0  0  0  0  0  0  0  0  0
  -27.7791  -30.1230   19.4356 C   0  0  0  0  0  0  0  0  0  0  0  0
  -23.8167  -13.8456   19.3145 C   0  0  0  0  0  0  0  0  0  0  0  0
  -22.8295  -11.9971   21.7905 C   0  0  0  0  0  0  0  0  0  0  0  0
  -23.6124  -10.3854   24.6950 C   0  0  0  0  0  0  0  0  0  0  0  0
  -27.4287  -22.2946   19.0613 C   0  0  0  0  0  0  0  0  0  0  0  0
  -22.1339  -15.0572   14.6500 C   0  0  0  0  0  0  0  0  0  0  0  0
  -25.5403  -12.0059   19.2876 C   0  0  0  0  0  0  0  0  0  0  0  0
  -25.1053  -13.0627   22.0150 C   0  0  0  0  0  0  0  0  0  0  0  0
  -21.4926  -14.5967   15.9565 C   0  0  0  0  0  0  0  0  0  0  0  0
  -24.1185  -23.7041   18.6701 C   0  0  0  0  0  0  0  0  0  0  0  0
  -22.0056  -15.4308   17.1261 C   0  0  0  0  0  0  0  0  0  0  0  0
  -24.3687  -25.1710   19.0247 C   0  0  0  0  0  0  0  0  0  0  0  0
  -24.9531  -22.7737   19.5453 C   0  0  0  0  0  0  0  0  0  0  0  0
  -26.6700  -24.5121   19.8671 C   0  0  0  0  0  0  0  0  0  0  0  0
  -23.5211  -15.2697   17.2957 C   0  0  1  0  0  0  0  0  0  0  0  0
  -24.1624  -12.4545   19.7648 C   0  0  1  0  0  0  0  0  0  0  0  0
  -25.8722  -25.5045   19.0018 C   0  0  2  0  0  0  0  0  0  0  0  0
  -26.5449  -17.9225   19.6522 C   0  0  0  0  0  0  0  0  0  0  0  0
  -22.5873   -8.9905   26.5119 C   0  0  0  0  0  0  0  0  0  0  0  0
  -31.2203  -21.0687   22.9253 C   0  0  0  0  0  0  0  0  0  0  0  0
  -33.5702  -21.0061   22.0664 C   0  0  0  0  0  0  0  0  0  0  0  0
  -21.5435  -14.4955   22.9797 C   0  0  0  0  0  0  0  0  0  0  0  0
  -21.3827  -13.2871   25.1666 C   0  0  0  0  0  0  0  0  0  0  0  0
  -20.1624  -12.4194   23.1714 C   0  0  0  0  0  0  0  0  0  0  0  0
  -25.3881   -8.0943   24.0976 C   0  0  0  0  0  0  0  0  0  0  0  0
  -30.4383  -17.1488   22.6758 C   0  0  0  0  0  0  0  0  0  0  0  0
  -31.9256  -19.2597   21.2733 C   0  0  0  0  0  0  0  0  0  0  0  0
  -28.0380  -20.0263   18.2608 C   0  0  0  0  0  0  0  0  0  0  0  0
  -31.4579  -16.0923   22.2447 C   0  0  0  0  0  0  0  0  0  0  0  0
  -30.8505  -14.9740   21.4057 C   0  0  0  0  0  0  0  0  0  1  0  0
  -22.6785  -12.1959   23.2794 C   0  0  1  0  0  0  0  0  0  0  0  0
  -23.3156   -8.9768   25.1769 C   0  0  2  0  0  0  0  0  0  0  0  0
  -32.1044  -20.7300   21.7224 C   0  0  0  0  0  0  0  0  0  0  0  0
  -21.4669  -13.1027   23.6363 C   0  0  0  0  0  0  0  0  0  0  0  0
  -25.3225  -27.5282   20.2997 N   0  0  0  0  0  0  0  0  0  0  0  0
  -26.1349  -26.9443   19.4023 N   0  0  0  0  0  0  0  0  0  0  0  0
  -24.0351  -12.4338   21.2234 N   0  0  0  0  0  0  0  0  0  0  0  0
  -26.3759  -23.1329   19.4642 N   0  0  0  0  0  0  0  0  0  0  0  0
  -28.0374  -27.3299   18.0450 N   0  0  0  0  0  0  0  0  0  0  0  0
  -27.4618  -31.2701   20.1758 N   0  0  0  0  0  0  0  0  0  0  0  0
  -23.8263  -14.0117   17.9427 N   0  0  0  0  0  0  0  0  0  0  0  0
  -22.6191  -10.8613   23.8655 N   0  0  0  0  0  0  0  0  0  0  0  0
  -27.0664  -21.0020   18.7024 N   0  0  0  0  0  0  0  0  0  0  0  0
  -24.5816   -8.2077   25.3401 N   0  3  0  0  0  0  0  0  0  0  0  0
  -28.7535  -30.1517   18.6462 O   0  0  0  0  0  0  0  0  0  0  0  0
  -23.5587  -14.7044   20.1498 O   0  0  0  0  0  0  0  0  0  0  0  0
  -21.9144  -11.4672   21.1553 O   0  0  0  0  0  0  0  0  0  0  0  0
  -24.6224  -11.0033   25.0247 O   0  0  0  0  0  0  0  0  0  0  0  0
  -28.6047  -22.6718   19.0192 O   0  0  0  0  0  0  0  0  0  0  0  0
  -23.4709  -32.4611   23.8757 O   0  0  0  0  0  0  0  0  0  0  0  0
  -29.8275  -14.3338   22.1672 O   0  0  0  0  0  0  0  0  0  1  0  0
  -17.9744  -32.8926   23.7989 F   0  0  0  0  0  0  0  0  0  0  0  0
  -22.2450  -34.8562   23.2406 F   0  0  0  0  0  0  0  0  0  0  0  0
  1  2  1  0  0  0  0
  1  5  2  0  0  0  0
  2  6  2  0  0  0  0
  3  8  2  0  0  0  0
  3 17  1  0  0  0  0
  4  9  1  0  0  0  0
  4 17  2  0  0  0  0
  5 19  1  0  0  0  0
  6 21  1  0  0  0  0
  7 10  2  0  0  0  0
  7 20  1  0  0  0  0
  8 27  1  0  0  0  0
  9 27  2  0  0  0  0
 10 28  1  0  0  0  0
 11 12  2  0  0  0  0
 11 29  1  0  0  0  0
 12 30  1  0  0  0  0
 13 22  1  0  0  0  0
 13 28  2  0  0  0  0
 14 23  2  0  0  0  0
 14 24  1  0  0  0  0
 15 25  1  0  0  0  0
 15 26  2  0  0  0  0
 16 30  2  0  0  0  0
 16 31  1  0  0  0  0
 17 32  1  0  0  0  0
 18 32  1  0  0  0  0
 18 33  2  0  0  0  0
 18 34  1  0  0  0  0
 19 21  2  0  0  0  0
 19 39  1  0  0  0  0
 20 22  2  0  0  0  0
 20 40  1  0  0  0  0
 21 48  1  0  0  0  0
 22 41  1  0  0  0  0
 23 26  1  0  0  0  0
 23 51  1  0  0  0  0
 24 25  2  0  0  0  0
 24 59  1  0  0  0  0
 25 60  1  0  0  0  0
 26 61  1  0  0  0  0
 27 83  1  0  0  0  0
 28 84  1  0  0  0  0
 29 31  2  0  0  0  0
 29 83  1  0  0  0  0
 30 85  1  0  0  0  0
 31 86  1  0  0  0  0
 32 68  2  0  0  0  0
 33 69  1  0  0  0  0
 33 72  1  0  0  0  0
 34 73  1  0  0  0  0
 34 78  2  0  0  0  0
 35 49  1  0  0  0  0
 35 74  1  0  0  0  0
 35 79  2  0  0  0  0
 36 64  1  0  0  0  0
 36 70  1  0  0  0  0
 36 80  2  0  0  0  0
 37 65  1  0  0  0  0
 37 75  1  0  0  0  0
 37 81  2  0  0  0  0
 38 71  1  0  0  0  0
 38 76  1  0  0  0  0
 38 82  2  0  0  0  0
 39 42  1  0  0  0  0
 40 49  1  0  0  0  0
 41 70  1  0  0  0  0
 42 44  1  0  0  0  0
 43 45  1  0  0  0  0
 43 46  1  0  0  0  0
 44 48  1  0  0  0  0
 45 50  1  0  0  0  0
 46 71  1  0  0  0  0
 47 50  1  0  0  0  0
 47 71  1  0  0  0  0
 48 74  1  0  0  0  0
 49 70  1  0  0  0  0
 50 69  1  0  0  0  0
 52 65  1  0  0  0  0
 53 66  1  0  0  0  0
 54 66  1  0  0  0  0
 55 67  1  0  0  0  0
 56 67  1  0  0  0  0
 57 67  1  0  0  0  0
 58 77  1  0  0  0  0
 59 62  1  0  0  0  0
 60 66  1  0  0  0  0
 61 76  1  0  0  0  0
 62 63  1  0  0  0  0
 63 84  1  0  0  0  0
 64 67  1  0  0  0  0
 64 75  1  0  0  0  0
 65 77  1  0  0  0  0
 68 69  1  0  0  0  0
M  CHG  1  77   1
M  ISO  4  38 100  63 101  76 100  84 101
M  END
> <Batch ID>
0101

> <Smiles>
CNC(C)C(=O)NC(C(=O)N1Cc2cc([101O:1][101CH2:1]CCc3cc(C)c(C[100NH:0][100C:0](=O)N4CCCC(n5nc(-c6ccc(Oc7ccc(F)cc7F)cc6)c(C(N)=O)c5N)C4)cc3CC(C)C)ccc2CC1C(=O)NC1CCCc2ccccc21)C(C)(C)C

> <Shape>
0.210

> <Color>
0.076

> <Negative vol penalty>
0.000

$$$$

  -OEChem-04052319363D

 93101  0     1  0  0  0  0  0999 V2000
  -16.6885  -29.7630   23.7685 C   0  0  0  0  0  0  0  0  0  0  0  0
  -17.0960  -28.7779   22.8747 C   0  0  0  0  0  0  0  0  0  0  0  0
  -21.7124  -11.1167   19.2355 C   0  0  0  0  0  0  0  0  0  0  0  0
  -30.3986  -19.9029   19.3266 C   0  0  0  0  0  0  0  0  0  0  0  0
  -28.4969  -20.1563   20.7951 C   0  0  0  0  0  0  0  0  0  0  0  0
  -17.5704  -30.7794   24.1336 C   0  0  0  0  0  0  0  0  0  0  0  0
  -18.3853  -28.8092   22.3446 C   0  0  0  0  0  0  0  0  0  0  0  0
  -21.9117  -23.9992   20.9537 C   0  0  0  0  0  0  0  0  0  0  0  0
  -21.9903  -12.4807   19.3232 C   0  0  0  0  0  0  0  0  0  0  0  0
  -22.3546  -10.2179   20.0872 C   0  0  0  0  0  0  0  0  0  0  0  0
  -30.1328  -21.1525   18.7668 C   0  0  0  0  0  0  0  0  0  0  0  0
  -28.2312  -21.4060   20.2353 C   0  0  0  0  0  0  0  0  0  0  0  0
  -22.1757  -23.3465   19.7503 C   0  0  0  0  0  0  0  0  0  0  0  0
  -30.1690  -24.4330   17.2008 C   0  0  0  0  0  0  0  0  0  0  0  0
  -31.2452  -25.2988   17.0067 C   0  0  0  0  0  0  0  0  0  0  0  0
  -24.1798  -24.6624   19.4833 C   0  0  0  0  0  0  0  0  0  0  0  0
  -31.6996  -25.2660   19.3793 C   0  0  0  0  0  0  0  0  0  0  0  0
  -29.5806  -19.4048   20.3408 C   0  0  0  0  0  0  0  0  0  0  0  0
  -30.6742  -17.8361   22.0292 C   0  0  0  0  0  0  0  0  0  0  0  0
  -18.8743  -30.8177   23.6152 C   0  0  0  0  0  0  0  0  0  0  0  0
  -22.7754  -24.9977   21.4262 C   0  0  0  0  0  0  0  0  0  0  0  0
  -19.2850  -29.8278   22.7020 C   0  0  0  0  0  0  0  0  0  0  0  0
  -23.9259  -25.3244   20.6942 C   0  0  0  0  0  0  0  0  0  0  0  0
  -22.9106  -12.9460   20.2625 C   0  0  0  0  0  0  0  0  0  0  0  0
  -23.2749  -10.6831   21.0265 C   0  0  0  0  0  0  0  0  0  0  0  0
  -23.5529  -12.0472   21.1142 C   0  0  0  0  0  0  0  0  0  0  0  0
  -29.0491  -21.9041   19.2211 C   0  0  0  0  0  0  0  0  0  0  0  0
  -23.3084  -23.6801   19.0135 C   0  0  0  0  0  0  0  0  0  0  0  0
  -29.8580  -23.9837   18.4842 C   0  0  0  0  0  0  0  0  0  0  0  0
  -32.0106  -25.7152   18.0959 C   0  0  0  0  0  0  0  0  0  0  0  0
  -30.6233  -24.4002   19.5735 C   0  0  0  0  0  0  0  0  0  0  0  0
  -29.8543  -18.1137   20.9191 C   0  0  0  0  0  0  0  0  0  0  0  0
  -30.6042  -16.4721   22.1752 C   0  0  0  0  0  0  0  0  0  0  0  0
  -31.4315  -18.7310   22.8546 C   0  0  0  0  0  0  0  0  0  0  0  0
  -22.4865  -28.1001   22.0552 C   0  0  0  0  0  0  0  0  0  0  0  0
  -25.5048  -27.7529   23.1918 C   0  0  0  0  0  0  0  0  0  0  0  0
  -28.4327  -26.0001   23.1497 C   0  0  0  0  0  0  0  0  0  0  0  0
  -26.4975  -12.4087   20.6022 C   0  0  0  0  0  0  0  0  0  0  0  0
  -19.7763  -31.9627   24.0027 C   0  0  0  0  0  0  0  0  0  0  0  0
  -22.4906  -25.6736   22.7394 C   0  0  0  0  0  0  0  0  0  0  0  0
  -24.8955  -26.3750   21.1681 C   0  0  0  0  0  0  0  0  0  0  0  0
  -21.2484  -31.7129   23.6851 C   0  0  0  0  0  0  0  0  0  0  0  0
  -29.9275  -12.4657   19.6490 C   0  0  0  0  0  0  0  0  0  0  0  0
  -21.4032  -31.1598   22.2720 C   0  0  0  0  0  0  0  0  0  0  0  0
  -30.3716  -13.8947   19.9666 C   0  0  0  0  0  0  0  0  0  0  0  0
  -28.4912  -12.4229   19.1321 C   0  0  0  0  0  0  0  0  0  0  0  0
  -27.9441  -14.5120   20.3196 C   0  0  0  0  0  0  0  0  0  0  0  0
  -20.6838  -29.8136   22.1246 C   0  0  1  0  0  0  0  0  0  0  0  0
  -23.1658  -27.0355   22.8693 C   0  0  1  0  0  0  0  0  0  0  0  0
  -29.3671  -14.6004   20.8972 C   0  0  2  0  0  0  0  0  0  0  0  0
  -24.9013  -14.0825   24.1403 C   0  0  0  0  0  0  0  0  0  0  0  0
  -30.7307  -25.9790   24.1579 C   0  0  0  0  0  0  0  0  0  0  0  0
  -23.3264   -8.7884   25.6804 C   0  0  0  0  0  0  0  0  0  0  0  0
  -23.8907   -7.2597   23.7817 C   0  0  0  0  0  0  0  0  0  0  0  0
  -26.3216  -30.0621   21.3724 C   0  0  0  0  0  0  0  0  0  0  0  0
  -28.7088  -29.3789   21.6933 C   0  0  0  0  0  0  0  0  0  0  0  0
  -27.3501  -30.1156   23.6514 C   0  0  0  0  0  0  0  0  0  0  0  0
  -27.9999  -23.3380   24.3682 C   0  0  0  0  0  0  0  0  0  0  0  0
  -23.1928  -14.4254   20.3368 C   0  0  0  0  0  0  0  0  0  0  0  0
  -23.9486   -9.6997   21.9269 C   0  0  0  0  0  0  0  0  0  0  0  0
  -23.9065  -13.5398   23.1215 C   0  0  0  0  0  0  0  0  0  0  0  0
  -23.1227  -15.1383   18.9815 C   0  0  0  0  0  0  0  0  0  0  0  0
  -23.3495   -9.7143   23.3447 C   0  0  0  0  0  0  0  0  0  0  0  0
  -23.4872  -16.6236   19.0655 C   0  0  0  0  0  0  0  0  0  0  0  0
  -24.0643  -20.9437   16.7934 C   0  0  0  0  0  0  0  0  0  0  0  0
  -23.3699  -17.2900   17.7021 C   0  0  0  0  0  0  0  0  0  0  0  0
  -23.6708  -19.4924   16.5631 C   0  0  0  0  0  0  0  0  0  0  0  0
  -23.1123  -21.6986   17.7131 C   0  0  0  0  0  0  0  0  0  1  0  0
  -24.5397  -12.5461   22.1213 C   0  0  2  0  0  0  0  0  0  0  0  0
  -26.8893  -27.8629   22.6001 C   0  0  1  0  0  0  0  0  0  0  0  0
  -29.3035  -25.4665   24.2729 C   0  0  2  0  0  0  0  0  0  0  0  0
  -23.9897   -8.6937   24.3040 C   0  0  0  0  0  0  0  0  0  0  0  0
  -27.2983  -29.3364   22.3191 C   0  0  0  0  0  0  0  0  0  0  0  0
  -29.3038  -17.0145   20.3968 N   0  0  0  0  0  0  0  0  0  0  0  0
  -29.7789  -16.0329   21.1822 N   0  0  0  0  0  0  0  0  0  0  0  0
  -24.5701  -27.0119   22.4549 N   0  0  0  0  0  0  0  0  0  0  0  0
  -27.5890  -13.1077   20.0611 N   0  0  0  0  0  0  0  0  0  0  0  0
  -31.1687  -15.6177   23.0548 N   0  0  0  0  0  0  0  0  0  0  0  0
  -31.3918  -20.1018   22.5654 N   0  0  0  0  0  0  0  0  0  0  0  0
  -21.4676  -28.7536   22.7216 N   0  0  0  0  0  0  0  0  0  0  0  0
  -27.7814  -27.1592   23.5151 N   0  0  0  0  0  0  0  0  0  0  0  0
  -25.6962  -13.1298   21.4789 N   0  0  0  0  0  0  0  0  0  0  0  0
  -29.3351  -23.9769   24.2407 N   0  3  0  0  0  0  0  0  0  0  0  0
  -23.6878  -18.7384   17.8385 N   0  3  0  0  0  0  0  0  0  0  0  0
  -32.1359  -18.3253   23.8100 O   0  0  0  0  0  0  0  0  0  0  0  0
  -22.8602  -28.3139   20.9079 O   0  0  0  0  0  0  0  0  0  0  0  0
  -25.2636  -28.2982   24.2717 O   0  0  0  0  0  0  0  0  0  0  0  0
  -28.3425  -25.4463   22.0562 O   0  0  0  0  0  0  0  0  0  0  0  0
  -26.2580  -11.2276   20.3288 O   0  0  0  0  0  0  0  0  0  0  0  0
  -28.7897  -23.1236   18.6753 O   0  0  0  0  0  0  0  0  0  0  0  0
  -23.5682  -23.0450   17.8383 O   0  0  0  0  0  0  0  0  0  1  0  0
  -33.0450  -26.5454   17.9091 F   0  0  0  0  0  0  0  0  0  0  0  0
  -30.3301  -23.9711   20.8087 F   0  0  0  0  0  0  0  0  0  0  0  0
  1  2  1  0  0  0  0
  1  6  2  0  0  0  0
  2  7  2  0  0  0  0
  3  9  1  0  0  0  0
  3 10  2  0  0  0  0
  4 11  2  0  0  0  0
  4 18  1  0  0  0  0
  5 12  1  0  0  0  0
  5 18  2  0  0  0  0
  6 20  1  0  0  0  0
  7 22  1  0  0  0  0
  8 13  2  0  0  0  0
  8 21  1  0  0  0  0
  9 24  2  0  0  0  0
 10 25  1  0  0  0  0
 11 27  1  0  0  0  0
 12 27  2  0  0  0  0
 13 28  1  0  0  0  0
 14 15  2  0  0  0  0
 14 29  1  0  0  0  0
 15 30  1  0  0  0  0
 16 23  1  0  0  0  0
 16 28  2  0  0  0  0
 17 30  2  0  0  0  0
 17 31  1  0  0  0  0
 18 32  1  0  0  0  0
 19 32  1  0  0  0  0
 19 33  2  0  0  0  0
 19 34  1  0  0  0  0
 20 22  2  0  0  0  0
 20 39  1  0  0  0  0
 21 23  2  0  0  0  0
 21 40  1  0  0  0  0
 22 48  1  0  0  0  0
 23 41  1  0  0  0  0
 24 26  1  0  0  0  0
 24 59  1  0  0  0  0
 25 26  2  0  0  0  0
 25 60  1  0  0  0  0
 26 69  1  0  0  0  0
 27 90  1  0  0  0  0
 28 91  1  0  0  0  0
 29 31  2  0  0  0  0
 29 90  1  0  0  0  0
 30 92  1  0  0  0  0
 31 93  1  0  0  0  0
 32 74  2  0  0  0  0
 33 75  1  0  0  0  0
 33 78  1  0  0  0  0
 34 79  1  0  0  0  0
 34 85  2  0  0  0  0
 35 49  1  0  0  0  0
 35 80  1  0  0  0  0
 35 86  2  0  0  0  0
 36 70  1  0  0  0  0
 36 76  1  0  0  0  0
 36 87  2  0  0  0  0
 37 71  1  0  0  0  0
 37 81  1  0  0  0  0
 37 88  2  0  0  0  0
 38 77  1  0  0  0  0
 38 82  1  0  0  0  0
 38 89  2  0  0  0  0
 39 42  1  0  0  0  0
 40 49  1  0  0  0  0
 41 76  1  0  0  0  0
 42 44  1  0  0  0  0
 43 45  1  0  0  0  0
 43 46  1  0  0  0  0
 44 48  1  0  0  0  0
 45 50  1  0  0  0  0
 46 77  1  0  0  0  0
 47 50  1  0  0  0  0
 47 77  1  0  0  0  0
 48 80  1  0  0  0  0
 49 76  1  0  0  0  0
 50 75  1  0  0  0  0
 51 61  1  0  0  0  0
 52 71  1  0  0  0  0
 53 72  1  0  0  0  0
 54 72  1  0  0  0  0
 55 73  1  0  0  0  0
 56 73  1  0  0  0  0
 57 73  1  0  0  0  0
 58 83  1  0  0  0  0
 59 62  1  0  0  0  0
 60 63  1  0  0  0  0
 61 69  1  0  0  0  0
 62 64  1  0  0  0  0
 63 72  1  0  0  0  0
 64 66  1  0  0  0  0
 65 67  1  0  0  0  0
 65 68  1  0  0  0  0
 66 84  1  0  0  0  0
 67 84  1  0  0  0  0
 68 91  1  0  0  0  0
 69 82  1  0  0  0  0
 70 73  1  0  0  0  0
 70 81  1  0  0  0  0
 71 83  1  0  0  0  0
 74 75  1  0  0  0  0
M  CHG  2  83   1  84   1
M  ISO  4  38 100  68 101  82 100  91 101
M  END
> <Batch ID>
0101

> <Smiles>
CCC([100NH:0][100C:0](=O)N1CCCC(n2nc(-c3ccc(Oc4ccc(F)cc4F)cc3)c(C(N)=O)c2N)C1)c1c(CCCCNCC[101CH2:1][101O:1]c2ccc3c(c2)CN(C(=O)C(NC(=O)C(C)NC)C(C)(C)C)C(C(=O)NC2CCCc4ccccc42)C3)cccc1CCC(C)C

> <Shape>
0.281

> <Color>
0.068

> <Negative vol penalty>
0.000

$$$$

  -OEChem-04052319363D

 88 96  0     1  0  0  0  0  0999 V2000
  -26.9547  -10.3870   22.6660 C   0  0  0  0  0  0  0  0  0  0  0  0
  -27.7658  -11.4940   22.4378 C   0  0  0  0  0  0  0  0  0  0  0  0
  -23.0219  -29.4449   21.8461 C   0  0  0  0  0  0  0  0  0  0  0  0
  -23.7456  -27.1805   22.2772 C   0  0  0  0  0  0  0  0  0  0  0  0
  -25.6926  -10.3160   22.0778 C   0  0  0  0  0  0  0  0  0  0  0  0
  -27.3156  -12.5302   21.6204 C   0  0  0  0  0  0  0  0  0  0  0  0
  -28.4885  -18.5059   22.2692 C   0  0  0  0  0  0  0  0  0  0  0  0
  -21.9385  -29.2623   22.7054 C   0  0  0  0  0  0  0  0  0  0  0  0
  -22.6622  -26.9979   23.1366 C   0  0  0  0  0  0  0  0  0  0  0  0
  -29.4141  -19.3517   21.6596 C   0  0  0  0  0  0  0  0  0  0  0  0
  -18.8962  -27.7934   22.5999 C   0  0  0  0  0  0  0  0  0  0  0  0
  -17.6475  -28.2443   22.1721 C   0  0  0  0  0  0  0  0  0  0  0  0
  -27.7319  -20.0397   20.0735 C   0  0  0  0  0  0  0  0  0  0  0  0
  -31.2238  -26.2750   20.1209 C   0  0  0  0  0  0  0  0  0  0  0  0
  -17.5295  -29.7252   24.0774 C   0  0  0  0  0  0  0  0  0  0  0  0
  -23.9255  -28.4040   21.6319 C   0  0  0  0  0  0  0  0  0  0  0  0
  -26.3267  -29.0655   21.0806 C   0  0  0  0  0  0  0  0  0  0  0  0
  -25.2228  -11.3562   21.2605 C   0  0  0  0  0  0  0  0  0  0  0  0
  -27.1784  -18.4124   21.7779 C   0  0  0  0  0  0  0  0  0  0  0  0
  -26.0466  -12.4724   21.0197 C   0  0  0  0  0  0  0  0  0  0  0  0
  -26.7908  -19.1939   20.6802 C   0  0  0  0  0  0  0  0  0  0  0  0
  -31.0689  -25.6332   18.8922 C   0  0  0  0  0  0  0  0  0  0  0  0
  -32.1604  -27.2993   20.2596 C   0  0  0  0  0  0  0  0  0  0  0  0
  -32.7875  -27.0398   17.9409 C   0  0  0  0  0  0  0  0  0  0  0  0
  -31.8508  -26.0155   17.8022 C   0  0  0  0  0  0  0  0  0  0  0  0
  -32.9423  -27.6817   19.1696 C   0  0  0  0  0  0  0  0  0  0  0  0
  -21.7587  -28.0388   23.3507 C   0  0  0  0  0  0  0  0  0  0  0  0
  -29.0367  -20.1166   20.5598 C   0  0  0  0  0  0  0  0  0  0  0  0
  -19.4616  -28.3084   23.7665 C   0  0  0  0  0  0  0  0  0  0  0  0
  -16.9641  -29.2102   22.9108 C   0  0  0  0  0  0  0  0  0  0  0  0
  -18.7782  -29.2743   24.5052 C   0  0  0  0  0  0  0  0  0  0  0  0
  -25.0445  -28.5918   20.7439 C   0  0  0  0  0  0  0  0  0  0  0  0
  -27.0176  -29.0594   19.8935 C   0  0  0  0  0  0  0  0  0  0  0  0
  -26.8468  -29.4744   22.3526 C   0  0  0  0  0  0  0  0  0  0  0  0
  -25.4076  -16.0801   20.5415 C   0  0  0  0  0  0  0  0  0  0  0  0
  -23.0667  -18.3225   20.6626 C   0  0  0  0  0  0  0  0  0  0  0  0
  -22.2226  -21.6283   20.7394 C   0  0  0  0  0  0  0  0  0  0  0  0
  -28.4471  -26.5708   15.1072 C   0  0  0  0  0  0  0  0  0  0  0  0
  -23.8705  -11.2129   20.6085 C   0  0  0  0  0  0  0  0  0  0  0  0
  -26.1844  -17.5153   22.4632 C   0  0  0  0  0  0  0  0  0  0  0  0
  -25.3909  -19.1451   20.1268 C   0  0  0  0  0  0  0  0  0  0  0  0
  -23.3178  -12.5248   20.0575 C   0  0  0  0  0  0  0  0  0  0  0  0
  -25.3989  -28.4103   15.1454 C   0  0  0  0  0  0  0  0  0  0  0  0
  -24.3909  -13.2656   19.2660 C   0  0  0  0  0  0  0  0  0  0  0  0
  -25.1379  -28.6549   16.6327 C   0  0  0  0  0  0  0  0  0  0  0  0
  -26.0233  -27.0384   14.9001 C   0  0  0  0  0  0  0  0  0  0  0  0
  -26.9816  -27.0086   17.1705 C   0  0  0  0  0  0  0  0  0  0  0  0
  -25.5837  -13.6279   20.1591 C   0  0  1  0  0  0  0  0  0  0  0  0
  -25.0212  -17.1136   21.5616 C   0  0  1  0  0  0  0  0  0  0  0  0
  -26.4039  -28.4017   17.4732 C   0  0  2  0  0  0  0  0  0  0  0  0
  -33.6261  -27.4499   16.7714 C   0  0  0  0  0  0  0  0  0  0  0  0
  -33.2930  -30.1597   19.3214 C   0  0  0  0  0  0  0  0  0  0  0  0
  -32.7658  -26.9988   22.6880 C   0  0  0  0  0  0  0  0  0  0  0  0
  -31.0166  -28.6886   22.0247 C   0  0  0  0  0  0  0  0  0  0  0  0
  -20.2292  -23.1515   20.7981 C   0  0  0  0  0  0  0  0  0  0  0  0
  -22.5739  -17.7877   17.6994 C   0  0  0  0  0  0  0  0  0  0  0  0
  -21.2901  -19.9347   17.5968 C   0  0  0  0  0  0  0  0  0  0  0  0
  -20.4998  -18.0799   19.0658 C   0  0  0  0  0  0  0  0  0  0  0  0
  -23.0409  -22.7896   23.3357 C   0  0  0  0  0  0  0  0  0  0  0  0
  -30.0497  -24.5288   18.7691 C   0  0  0  0  0  0  0  0  0  0  0  0
  -33.9452  -28.7814   19.3205 C   0  0  0  0  0  0  0  0  0  0  0  0
  -31.6830  -25.3251   16.4858 C   0  0  0  0  0  0  0  0  0  0  0  0
  -30.4969  -23.2054   19.3938 C   0  0  0  0  0  0  0  0  0  0  0  0
  -30.8618  -26.1311   15.4750 C   0  0  0  0  0  0  0  0  0  0  0  0
  -29.4274  -22.1207   19.3403 C   0  0  0  0  0  0  0  0  0  1  0  0
  -32.3059  -27.9708   21.5862 C   0  0  0  0  0  0  0  0  0  0  0  0
  -22.5595  -19.3902   19.7237 C   0  0  1  0  0  0  0  0  0  0  0  0
  -21.2628  -22.4025   21.6248 C   0  0  2  0  0  0  0  0  0  0  0  0
  -21.7578  -18.7978   18.5304 C   0  0  0  0  0  0  0  0  0  0  0  0
  -24.9252  -28.3058   19.4447 N   0  0  0  0  0  0  0  0  0  0  0  0
  -26.1413  -28.6007   18.9545 N   0  0  0  0  0  0  0  0  0  0  0  0
  -24.4571  -18.2481   20.8274 N   0  0  0  0  0  0  0  0  0  0  0  0
  -27.2203  -26.8625   15.7260 N   0  0  0  0  0  0  0  0  0  0  0  0
  -28.2832  -29.4019   19.5718 N   0  0  0  0  0  0  0  0  0  0  0  0
  -26.0018  -29.4178   23.4693 N   0  0  0  0  0  0  0  0  0  0  0  0
  -25.2694  -14.7772   20.9805 N   0  0  0  0  0  0  0  0  0  0  0  0
  -21.8027  -20.3295   20.5443 N   0  0  0  0  0  0  0  0  0  0  0  0
  -29.5327  -26.4259   15.9623 N   0  0  0  0  0  0  0  0  0  0  0  0
  -22.0070  -23.3915   22.4549 N   0  3  0  0  0  0  0  0  0  0  0  0
  -28.0209  -29.8935   22.4917 O   0  0  0  0  0  0  0  0  0  0  0  0
  -25.8006  -16.4383   19.4375 O   0  0  0  0  0  0  0  0  0  0  0  0
  -22.2587  -17.5864   21.2345 O   0  0  0  0  0  0  0  0  0  0  0  0
  -23.2409  -22.1270   20.2651 O   0  0  0  0  0  0  0  0  0  0  0  0
  -28.5672  -26.4537   13.8829 O   0  0  0  0  0  0  0  0  0  0  0  0
  -20.7017  -27.8603   24.1894 O   0  0  0  0  0  0  0  0  0  0  0  0
  -29.9384  -20.9425   19.9625 O   0  0  0  0  0  0  0  0  0  1  0  0
  -15.7657  -29.6442   22.4990 F   0  0  0  0  0  0  0  0  0  0  0  0
  -19.3168  -29.7736   25.6261 F   0  0  0  0  0  0  0  0  0  0  0  0
  1  2  1  0  0  0  0
  1  5  2  0  0  0  0
  2  6  2  0  0  0  0
  3  8  2  0  0  0  0
  3 16  1  0  0  0  0
  4  9  1  0  0  0  0
  4 16  2  0  0  0  0
  5 18  1  0  0  0  0
  6 20  1  0  0  0  0
  7 10  2  0  0  0  0
  7 19  1  0  0  0  0
  8 27  1  0  0  0  0
  9 27  2  0  0  0  0
 10 28  1  0  0  0  0
 11 12  2  0  0  0  0
 11 29  1  0  0  0  0
 12 30  1  0  0  0  0
 13 21  1  0  0  0  0
 13 28  2  0  0  0  0
 14 22  1  0  0  0  0
 14 23  2  0  0  0  0
 15 30  2  0  0  0  0
 15 31  1  0  0  0  0
 16 32  1  0  0  0  0
 17 32  1  0  0  0  0
 17 33  2  0  0  0  0
 17 34  1  0  0  0  0
 18 20  2  0  0  0  0
 18 39  1  0  0  0  0
 19 21  2  0  0  0  0
 19 40  1  0  0  0  0
 20 48  1  0  0  0  0
 21 41  1  0  0  0  0
 22 25  2  0  0  0  0
 22 60  1  0  0  0  0
 23 26  1  0  0  0  0
 23 66  1  0  0  0  0
 24 25  1  0  0  0  0
 24 26  2  0  0  0  0
 24 51  1  0  0  0  0
 25 62  1  0  0  0  0
 26 61  1  0  0  0  0
 27 85  1  0  0  0  0
 28 86  1  0  0  0  0
 29 31  2  0  0  0  0
 29 85  1  0  0  0  0
 30 87  1  0  0  0  0
 31 88  1  0  0  0  0
 32 70  2  0  0  0  0
 33 71  1  0  0  0  0
 33 74  1  0  0  0  0
 34 75  1  0  0  0  0
 34 80  2  0  0  0  0
 35 49  1  0  0  0  0
 35 76  1  0  0  0  0
 35 81  2  0  0  0  0
 36 67  1  0  0  0  0
 36 72  1  0  0  0  0
 36 82  2  0  0  0  0
 37 68  1  0  0  0  0
 37 77  1  0  0  0  0
 37 83  2  0  0  0  0
 38 73  1  0  0  0  0
 38 78  1  0  0  0  0
 38 84  2  0  0  0  0
 39 42  1  0  0  0  0
 40 49  1  0  0  0  0
 41 72  1  0  0  0  0
 42 44  1  0  0  0  0
 43 45  1  0  0  0  0
 43 46  1  0  0  0  0
 44 48  1  0  0  0  0
 45 50  1  0  0  0  0
 46 73  1  0  0  0  0
 47 50  1  0  0  0  0
 47 73  1  0  0  0  0
 48 76  1  0  0  0  0
 49 72  1  0  0  0  0
 50 71  1  0  0  0  0
 52 61  1  0  0  0  0
 53 66  1  0  0  0  0
 54 66  1  0  0  0  0
 55 68  1  0  0  0  0
 56 69  1  0  0  0  0
 57 69  1  0  0  0  0
 58 69  1  0  0  0  0
 59 79  1  0  0  0  0
 60 63  1  0  0  0  0
 62 64  1  0  0  0  0
 63 65  1  0  0  0  0
 64 78  1  0  0  0  0
 65 86  1  0  0  0  0
 67 69  1  0  0  0  0
 67 77  1  0  0  0  0
 68 79  1  0  0  0  0
 70 71  1  0  0  0  0
M  CHG  1  79   1
M  ISO  4  38 100  65 101  78 100  86 101
M  END
> <Batch ID>
0101

> <Smiles>
CCc1c(C(C)C)cc(CC[101CH2:1][101O:1]c2ccc3c(c2)CN(C(=O)C(NC(=O)C(C)NC)C(C)(C)C)C(C(=O)NC2CCCc4ccccc42)C3)c(CC[100NH:0][100C:0](=O)N2CCCC(n3nc(-c4ccc(Oc5ccc(F)cc5F)cc4)c(C(N)=O)c3N)C2)c1C

> <Shape>
0.214

> <Color>
0.063

> <Negative vol penalty>
0.000

$$$$

  -OEChem-04052319363D

 85 93  0     1  0  0  0  0  0999 V2000
  -20.2861  -23.9465   22.1086 C   0  0  0  0  0  0  0  0  0  0  0  0
  -21.2548  -24.5148   21.2875 C   0  0  0  0  0  0  0  0  0  0  0  0
  -25.6505  -16.0533   20.8126 C   0  0  0  0  0  0  0  0  0  0  0  0
  -25.5900  -16.3723   18.4185 C   0  0  0  0  0  0  0  0  0  0  0  0
  -19.3698  -24.7620   22.7712 C   0  0  0  0  0  0  0  0  0  0  0  0
  -21.3069  -25.8991   21.1278 C   0  0  0  0  0  0  0  0  0  0  0  0
  -26.0256  -27.7128   21.4273 C   0  0  0  0  0  0  0  0  0  0  0  0
  -24.9816  -14.8380   20.6676 C   0  0  0  0  0  0  0  0  0  0  0  0
  -24.9211  -15.1569   18.2735 C   0  0  0  0  0  0  0  0  0  0  0  0
  -26.8389  -27.5599   20.3052 C   0  0  0  0  0  0  0  0  0  0  0  0
  -23.6098  -11.4793   20.8969 C   0  0  0  0  0  0  0  0  0  0  0  0
  -24.0857  -10.3866   21.6216 C   0  0  0  0  0  0  0  0  0  0  0  0
  -26.3950  -29.8469   19.6793 C   0  0  0  0  0  0  0  0  0  0  0  0
  -26.2184  -10.5726   20.5016 C   0  0  0  0  0  0  0  0  0  0  0  0
  -26.0187  -26.8280   16.3183 C   0  0  0  0  0  0  0  0  0  0  0  0
  -25.9546  -16.8205   19.6881 C   0  0  0  0  0  0  0  0  0  0  0  0
  -28.0369  -18.2874   19.8300 C   0  0  0  0  0  0  0  0  0  0  0  0
  -19.4168  -26.1576   22.6272 C   0  0  0  0  0  0  0  0  0  0  0  0
  -25.3811  -28.9327   21.6783 C   0  0  0  0  0  0  0  0  0  0  0  0
  -20.3895  -26.7340   21.7881 C   0  0  0  0  0  0  0  0  0  0  0  0
  -25.5761  -30.0135   20.8066 C   0  0  0  0  0  0  0  0  0  0  0  0
  -25.7759  -25.4989   16.0503 C   0  0  0  0  0  0  0  0  0  0  0  0
  -26.9100  -24.9903   15.3705 C   0  0  0  0  0  0  0  0  0  0  0  0
  -24.6170  -14.3897   19.3981 C   0  0  0  0  0  0  0  0  0  0  0  0
  -27.0214  -28.6262   19.4295 C   0  0  0  0  0  0  0  0  0  0  0  0
  -24.4382  -12.1185   19.9744 C   0  0  0  0  0  0  0  0  0  0  0  0
  -25.3900   -9.9333   21.4240 C   0  0  0  0  0  0  0  0  0  0  0  0
  -25.7424  -11.6652   19.7768 C   0  0  0  0  0  0  0  0  0  0  0  0
  -26.6451  -18.0764   19.8373 C   0  0  0  0  0  0  0  0  0  0  0  0
  -27.8115  -26.0241   15.2440 C   0  0  0  0  0  0  0  0  0  0  0  0
  -28.1797  -19.6421   20.0060 C   0  0  0  0  0  0  0  0  0  0  0  0
  -29.1052  -17.3433   19.6777 C   0  0  0  0  0  0  0  0  0  0  0  0
  -22.3501  -29.8639   21.9016 C   0  0  0  0  0  0  0  0  0  0  0  0
  -23.6884  -32.6805   22.7946 C   0  0  0  0  0  0  0  0  0  0  0  0
  -26.4011  -34.7503   22.7250 C   0  0  0  0  0  0  0  0  0  0  0  0
  -24.6037  -24.3034   18.8503 C   0  0  0  0  0  0  0  0  0  0  0  0
  -18.3754  -26.9951   23.3263 C   0  0  0  0  0  0  0  0  0  0  0  0
  -24.5284  -29.0896   22.9074 C   0  0  0  0  0  0  0  0  0  0  0  0
  -24.9228  -31.3500   21.0420 C   0  0  0  0  0  0  0  0  0  0  0  0
  -18.7340  -28.4771   23.3991 C   0  0  0  0  0  0  0  0  0  0  0  0
  -26.0048  -23.4089   21.9989 C   0  0  0  0  0  0  0  0  0  0  0  0
  -19.2241  -28.9751   22.0431 C   0  0  0  0  0  0  0  0  0  0  0  0
  -26.4534  -21.9599   21.8013 C   0  0  0  0  0  0  0  0  0  0  0  0
  -24.7062  -23.7046   21.2518 C   0  0  0  0  0  0  0  0  0  0  0  0
  -25.1762  -21.9203   19.6181 C   0  0  0  0  0  0  0  0  0  0  0  0
  -20.4939  -28.2330   21.6090 C   0  0  1  0  0  0  0  0  0  0  0  0
  -23.5101  -30.2193   22.7880 C   0  0  1  0  0  0  0  0  0  0  0  0
  -26.5113  -21.5897   20.3070 C   0  0  2  0  0  0  0  0  0  0  0  0
  -29.1520  -26.0499   14.6213 C   0  0  0  0  0  0  0  0  0  0  0  0
  -27.1821  -37.0013   23.5126 C   0  0  0  0  0  0  0  0  0  0  0  0
  -27.3233  -24.2367   12.4236 C   0  0  0  0  0  0  0  0  0  0  0  0
  -26.7731  -21.8777   13.0528 C   0  0  0  0  0  0  0  0  0  0  0  0
  -27.6035  -29.3439   14.6669 C   0  0  0  0  0  0  0  0  0  0  0  0
  -22.0300  -34.0176   20.6101 C   0  0  0  0  0  0  0  0  0  0  0  0
  -23.5198  -36.0206   20.8020 C   0  0  0  0  0  0  0  0  0  0  0  0
  -22.1510  -35.2945   22.7570 C   0  0  0  0  0  0  0  0  0  0  0  0
  -28.5844  -33.5601   24.3299 C   0  0  0  0  0  0  0  0  0  0  0  0
  -27.0945  -23.6069   14.8856 C   0  0  0  0  0  0  0  0  0  0  0  0
  -24.5538  -24.7524   16.4100 C   0  0  0  0  0  0  0  0  0  0  0  0
  -27.4857  -29.2604   17.1849 C   0  0  0  0  0  0  0  0  0  1  0  0
  -24.1576  -33.9187   22.0695 C   0  0  1  0  0  0  0  0  0  0  0  0
  -27.1132  -35.5148   23.8263 C   0  0  2  0  0  0  0  0  0  0  0  0
  -26.5956  -23.3490   13.4363 C   0  0  0  0  0  0  0  0  0  0  0  0
  -27.9065  -28.5092   15.9144 C   0  0  1  0  0  0  0  0  0  0  0  0
  -22.9755  -34.7872   21.5539 C   0  0  0  0  0  0  0  0  0  0  0  0
  -25.9531  -19.2065   20.0048 N   0  0  0  0  0  0  0  0  0  0  0  0
  -27.2592  -27.1362   15.8239 N   0  0  0  0  0  0  0  0  0  0  0  0
  -26.9141  -20.1406   20.1045 N   0  0  0  0  0  0  0  0  0  0  0  0
  -24.0934  -31.4518   22.2542 N   0  0  0  0  0  0  0  0  0  0  0  0
  -24.8281  -23.3324   19.8402 N   0  0  0  0  0  0  0  0  0  0  0  0
  -29.2632  -20.4435   20.0847 N   0  0  0  0  0  0  0  0  0  0  0  0
  -28.7818  -15.9904   19.5064 N   0  0  0  0  0  0  0  0  0  0  0  0
  -21.6470  -28.7486   22.3154 N   0  0  0  0  0  0  0  0  0  0  0  0
  -25.0542  -34.6139   22.9867 N   0  0  0  0  0  0  0  0  0  0  0  0
  -24.7461  -23.8687   17.5382 N   0  0  0  0  0  0  0  0  0  0  0  0
  -28.5035  -35.0052   23.9950 N   0  3  0  0  0  0  0  0  0  0  0  0
  -30.3111  -17.6870   19.7095 O   0  0  0  0  0  0  0  0  0  0  0  0
  -22.1098  -30.5515   20.9162 O   0  0  0  0  0  0  0  0  0  0  0  0
  -22.9944  -32.7993   23.8074 O   0  0  0  0  0  0  0  0  0  0  0  0
  -26.9809  -34.3205   21.7302 O   0  0  0  0  0  0  0  0  0  0  0  0
  -24.3043  -25.4724   19.1162 O   0  0  0  0  0  0  0  0  0  0  0  0
  -23.9645  -13.2036   19.2562 O   0  0  0  0  0  0  0  0  0  0  0  0
  -27.8142  -28.4795   18.3332 O   0  0  0  0  0  0  0  0  0  1  0  0
  -25.8474   -8.8850   22.1212 F   0  0  0  0  0  0  0  0  0  0  0  0
  -26.5432  -12.2760   18.8928 F   0  0  0  0  0  0  0  0  0  0  0  0
  1  2  1  0  0  0  0
  1  5  2  0  0  0  0
  2  6  2  0  0  0  0
  3  8  2  0  0  0  0
  3 16  1  0  0  0  0
  4  9  1  0  0  0  0
  4 16  2  0  0  0  0
  5 18  1  0  0  0  0
  6 20  1  0  0  0  0
  7 10  2  0  0  0  0
  7 19  1  0  0  0  0
  8 24  1  0  0  0  0
  9 24  2  0  0  0  0
 10 25  1  0  0  0  0
 11 12  2  0  0  0  0
 11 26  1  0  0  0  0
 12 27  1  0  0  0  0
 13 21  1  0  0  0  0
 13 25  2  0  0  0  0
 14 27  2  0  0  0  0
 14 28  1  0  0  0  0
 15 22  2  0  0  0  0
 15 67  1  0  0  0  0
 16 29  1  0  0  0  0
 17 29  1  0  0  0  0
 17 31  2  0  0  0  0
 17 32  1  0  0  0  0
 18 20  2  0  0  0  0
 18 37  1  0  0  0  0
 19 21  2  0  0  0  0
 19 38  1  0  0  0  0
 20 46  1  0  0  0  0
 21 39  1  0  0  0  0
 22 23  1  0  0  0  0
 22 59  1  0  0  0  0
 23 30  2  0  0  0  0
 23 58  1  0  0  0  0
 24 82  1  0  0  0  0
 25 83  1  0  0  0  0
 26 28  2  0  0  0  0
 26 82  1  0  0  0  0
 27 84  1  0  0  0  0
 28 85  1  0  0  0  0
 29 66  2  0  0  0  0
 30 49  1  0  0  0  0
 30 67  1  0  0  0  0
 31 68  1  0  0  0  0
 31 71  1  0  0  0  0
 32 72  1  0  0  0  0
 32 77  2  0  0  0  0
 33 47  1  0  0  0  0
 33 73  1  0  0  0  0
 33 78  2  0  0  0  0
 34 61  1  0  0  0  0
 34 69  1  0  0  0  0
 34 79  2  0  0  0  0
 35 62  1  0  0  0  0
 35 74  1  0  0  0  0
 35 80  2  0  0  0  0
 36 70  1  0  0  0  0
 36 75  1  0  0  0  0
 36 81  2  0  0  0  0
 37 40  1  0  0  0  0
 38 47  1  0  0  0  0
 39 69  1  0  0  0  0
 40 42  1  0  0  0  0
 41 43  1  0  0  0  0
 41 44  1  0  0  0  0
 42 46  1  0  0  0  0
 43 48  1  0  0  0  0
 44 70  1  0  0  0  0
 45 48  1  0  0  0  0
 45 70  1  0  0  0  0
 46 73  1  0  0  0  0
 47 69  1  0  0  0  0
 48 68  1  0  0  0  0
 50 62  1  0  0  0  0
 51 63  1  0  0  0  0
 52 63  1  0  0  0  0
 53 64  1  0  0  0  0
 54 65  1  0  0  0  0
 55 65  1  0  0  0  0
 56 65  1  0  0  0  0
 57 76  1  0  0  0  0
 58 63  1  0  0  0  0
 59 75  1  0  0  0  0
 60 64  1  0  0  0  0
 60 83  1  0  0  0  0
 61 65  1  0  0  0  0
 61 74  1  0  0  0  0
 62 76  1  0  0  0  0
 64 67  1  0  0  0  0
 66 68  1  0  0  0  0
M  CHG  1  76   1
M  ISO  4  36 100  60 101  75 100  83 101
M  END
> <Batch ID>
0101

> <Smiles>
CNC(C)C(=O)NC(C(=O)N1Cc2cc([101O:1][101CH2:1]C(C)n3cc(C[100NH:0][100C:0](=O)N4CCCC(n5nc(-c6ccc(Oc7ccc(F)cc7F)cc6)c(C(N)=O)c5N)C4)c(CC(C)C)c3C)ccc2CC1C(=O)NC1CCCc2ccccc21)C(C)(C)C

> <Shape>
0.227

> <Color>
0.113

> <Negative vol penalty>
0.000

$$$$

  -OEChem-04052319363D

 83 90  0     1  0  0  0  0  0999 V2000
  -20.0359  -22.3387   26.0505 C   0  0  0  0  0  0  0  0  0  0  0  0
  -21.3659  -22.0063   25.8138 C   0  0  0  0  0  0  0  0  0  0  0  0
  -27.0617  -13.3907   21.1777 C   0  0  0  0  0  0  0  0  0  0  0  0
  -26.9051  -13.8850   18.8180 C   0  0  0  0  0  0  0  0  0  0  0  0
  -19.3745  -23.2160   25.1922 C   0  0  0  0  0  0  0  0  0  0  0  0
  -22.0349  -22.5502   24.7179 C   0  0  0  0  0  0  0  0  0  0  0  0
  -28.5439  -24.7312   22.6704 C   0  0  0  0  0  0  0  0  0  0  0  0
  -26.2961  -12.2404   20.9876 C   0  0  0  0  0  0  0  0  0  0  0  0
  -26.1396  -12.7346   18.6279 C   0  0  0  0  0  0  0  0  0  0  0  0
  -29.4678  -24.5468   21.6427 C   0  0  0  0  0  0  0  0  0  0  0  0
  -24.0796   -9.3642   21.1825 C   0  0  0  0  0  0  0  0  0  0  0  0
  -23.0528   -9.1091   22.0915 C   0  0  0  0  0  0  0  0  0  0  0  0
  -28.2476  -26.1132   20.2728 C   0  0  0  0  0  0  0  0  0  0  0  0
  -22.0039  -11.2019   21.4940 C   0  0  0  0  0  0  0  0  0  0  0  0
  -27.3661  -14.2131   20.0930 C   0  0  0  0  0  0  0  0  0  0  0  0
  -29.5581  -15.5120   20.2187 C   0  0  0  0  0  0  0  0  0  0  0  0
  -20.0386  -23.7785   24.0907 C   0  0  0  0  0  0  0  0  0  0  0  0
  -27.4570  -25.6012   22.5027 C   0  0  0  0  0  0  0  0  0  0  0  0
  -21.3813  -23.4348   23.8432 C   0  0  0  0  0  0  0  0  0  0  0  0
  -27.3128  -26.3088   21.3008 C   0  0  0  0  0  0  0  0  0  0  0  0
  -25.8351  -11.9123   19.7127 C   0  0  0  0  0  0  0  0  0  0  0  0
  -29.3181  -25.2356   20.4426 C   0  0  0  0  0  0  0  0  0  0  0  0
  -24.0686  -10.5382   20.4293 C   0  0  0  0  0  0  0  0  0  0  0  0
  -22.0149  -10.0279   22.2472 C   0  0  0  0  0  0  0  0  0  0  0  0
  -23.0307  -11.4570   20.5851 C   0  0  0  0  0  0  0  0  0  0  0  0
  -28.1564  -15.4019   20.2888 C   0  0  0  0  0  0  0  0  0  0  0  0
  -29.8119  -16.8366   20.4784 C   0  0  0  0  0  0  0  0  0  0  0  0
  -30.5427  -14.5068   19.9432 C   0  0  0  0  0  0  0  0  0  0  0  0
  -24.2960  -25.2674   22.5019 C   0  0  0  0  0  0  0  0  0  0  0  0
  -24.3446  -28.5045   22.2994 C   0  0  0  0  0  0  0  0  0  0  0  0
  -26.0430  -31.3263   21.4051 C   0  0  0  0  0  0  0  0  0  0  0  0
  -26.5460  -21.8147   19.8436 C   0  0  0  0  0  0  0  0  0  0  0  0
  -19.2680  -24.6851   23.1639 C   0  0  0  0  0  0  0  0  0  0  0  0
  -26.4841  -25.8094   23.6307 C   0  0  0  0  0  0  0  0  0  0  0  0
  -26.1746  -27.2698   21.0780 C   0  0  0  0  0  0  0  0  0  0  0  0
  -20.1591  -25.5100   22.2389 C   0  0  0  0  0  0  0  0  0  0  0  0
  -28.0320  -20.5969   22.8412 C   0  0  0  0  0  0  0  0  0  0  0  0
  -21.2337  -24.6301   21.6083 C   0  0  0  0  0  0  0  0  0  0  0  0
  -28.3589  -19.1373   22.5206 C   0  0  0  0  0  0  0  0  0  0  0  0
  -26.7235  -21.0385   22.1894 C   0  0  0  0  0  0  0  0  0  0  0  0
  -26.9741  -19.3474   20.4142 C   0  0  0  0  0  0  0  0  0  0  0  0
  -22.1484  -24.0234   22.6791 C   0  0  1  0  0  0  0  0  0  0  0  0
  -25.1286  -26.3296   23.1623 C   0  0  1  0  0  0  0  0  0  0  0  0
  -28.3133  -18.8726   21.0037 C   0  0  2  0  0  0  0  0  0  0  0  0
  -25.8095  -33.8235   21.3236 C   0  0  0  0  0  0  0  0  0  0  0  0
  -22.5420  -28.2536   19.8504 C   0  0  0  0  0  0  0  0  0  0  0  0
  -23.1171  -30.6204   19.2711 C   0  0  0  0  0  0  0  0  0  0  0  0
  -21.9333  -30.1135   21.4076 C   0  0  0  0  0  0  0  0  0  0  0  0
  -32.3204  -23.9020   14.6420 C   0  0  0  0  0  0  0  0  0  0  0  0
  -30.2201  -23.7845   13.3092 C   0  0  0  0  0  0  0  0  0  0  0  0
  -28.3320  -31.7165   23.2401 C   0  0  0  0  0  0  0  0  0  0  0  0
  -29.2244  -20.0452   14.9104 C   0  0  0  0  0  0  0  0  0  0  0  0
  -30.5660  -24.3211   17.1784 C   0  0  0  0  0  0  0  0  0  0  0  0
  -30.0866  -24.4277   15.7279 C   0  0  0  0  0  0  0  0  0  0  0  0
  -27.1698  -22.0739   16.1777 C   0  0  0  0  0  0  0  0  0  0  0  0
  -26.4074  -22.4410   17.4462 C   0  0  0  0  0  0  0  0  0  0  0  0
  -28.6680  -21.9445   16.4216 C   0  0  0  0  0  0  0  0  0  0  0  0
  -30.7424  -22.0148   15.0459 C   0  0  0  0  0  0  0  0  0  0  0  0
  -29.7387  -25.2075   18.1020 C   0  0  0  0  0  0  0  0  0  1  0  0
  -24.3756  -29.5047   21.1691 C   0  0  1  0  0  0  0  0  0  0  0  0
  -26.2848  -32.6321   22.1406 C   0  0  2  0  0  0  0  0  0  0  0  0
  -23.0125  -29.6035   20.4277 C   0  0  0  0  0  0  0  0  0  0  0  0
  -30.8267  -23.5195   14.7049 C   0  0  0  0  0  0  0  0  0  0  0  0
  -27.5614  -16.5639   20.5712 N   0  0  0  0  0  0  0  0  0  0  0  0
  -28.5943  -17.4167   20.6809 N   0  0  0  0  0  0  0  0  0  0  0  0
  -25.2460  -27.4345   22.2086 N   0  0  0  0  0  0  0  0  0  0  0  0
  -26.7457  -20.7613   20.7511 N   0  0  0  0  0  0  0  0  0  0  0  0
  -30.9557  -17.5500   20.5512 N   0  0  0  0  0  0  0  0  0  0  0  0
  -30.1095  -13.1966   19.6983 N   0  0  0  0  0  0  0  0  0  0  0  0
  -23.1015  -25.0073   23.1461 N   0  0  0  0  0  0  0  0  0  0  0  0
  -24.8327  -30.7627   21.7495 N   0  0  0  0  0  0  0  0  0  0  0  0
  -26.5888  -21.4667   18.4991 N   0  0  0  0  0  0  0  0  0  0  0  0
  -27.7376  -32.8059   22.4236 N   0  3  0  0  0  0  0  0  0  0  0  0
  -29.3426  -21.5329   15.1357 N   0  3  1  0  0  0  0  0  0  0  0  0
  -31.7713  -14.7595   19.9313 O   0  0  0  0  0  0  0  0  0  0  0  0
  -24.7061  -24.7251   21.4824 O   0  0  0  0  0  0  0  0  0  0  0  0
  -23.5548  -28.6706   23.2323 O   0  0  0  0  0  0  0  0  0  0  0  0
  -26.8458  -30.8554   20.6024 O   0  0  0  0  0  0  0  0  0  0  0  0
  -26.3499  -22.9801   20.2048 O   0  0  0  0  0  0  0  0  0  0  0  0
  -25.0882  -10.7897   19.5268 O   0  0  0  0  0  0  0  0  0  0  0  0
  -30.2181  -25.0569   19.4376 O   0  0  0  0  0  0  0  0  0  1  0  0
  -21.0282   -9.7820   23.1190 F   0  0  0  0  0  0  0  0  0  0  0  0
  -23.0140  -12.5861   19.8634 F   0  0  0  0  0  0  0  0  0  0  0  0
  1  2  1  0  0  0  0
  1  5  2  0  0  0  0
  2  6  2  0  0  0  0
  3  8  2  0  0  0  0
  3 15  1  0  0  0  0
  4  9  1  0  0  0  0
  4 15  2  0  0  0  0
  5 17  1  0  0  0  0
  6 19  1  0  0  0  0
  7 10  2  0  0  0  0
  7 18  1  0  0  0  0
  8 21  1  0  0  0  0
  9 21  2  0  0  0  0
 10 22  1  0  0  0  0
 11 12  2  0  0  0  0
 11 23  1  0  0  0  0
 12 24  1  0  0  0  0
 13 20  1  0  0  0  0
 13 22  2  0  0  0  0
 14 24  2  0  0  0  0
 14 25  1  0  0  0  0
 15 26  1  0  0  0  0
 16 26  1  0  0  0  0
 16 27  2  0  0  0  0
 16 28  1  0  0  0  0
 17 19  2  0  0  0  0
 17 33  1  0  0  0  0
 18 20  2  0  0  0  0
 18 34  1  0  0  0  0
 19 42  1  0  0  0  0
 20 35  1  0  0  0  0
 21 80  1  0  0  0  0
 22 81  1  0  0  0  0
 23 25  2  0  0  0  0
 23 80  1  0  0  0  0
 24 82  1  0  0  0  0
 25 83  1  0  0  0  0
 26 64  2  0  0  0  0
 27 65  1  0  0  0  0
 27 68  1  0  0  0  0
 28 69  1  0  0  0  0
 28 75  2  0  0  0  0
 29 43  1  0  0  0  0
 29 70  1  0  0  0  0
 29 76  2  0  0  0  0
 30 60  1  0  0  0  0
 30 66  1  0  0  0  0
 30 77  2  0  0  0  0
 31 61  1  0  0  0  0
 31 71  1  0  0  0  0
 31 78  2  0  0  0  0
 32 67  1  0  0  0  0
 32 72  1  0  0  0  0
 32 79  2  0  0  0  0
 33 36  1  0  0  0  0
 34 43  1  0  0  0  0
 35 66  1  0  0  0  0
 36 38  1  0  0  0  0
 37 39  1  0  0  0  0
 37 40  1  0  0  0  0
 38 42  1  0  0  0  0
 39 44  1  0  0  0  0
 40 67  1  0  0  0  0
 41 44  1  0  0  0  0
 41 67  1  0  0  0  0
 42 70  1  0  0  0  0
 43 66  1  0  0  0  0
 44 65  1  0  0  0  0
 45 61  1  0  0  0  0
 46 62  1  0  0  0  0
 47 62  1  0  0  0  0
 48 62  1  0  0  0  0
 49 63  1  0  0  0  0
 50 63  1  0  0  0  0
 51 73  1  0  0  0  0
 52 74  1  0  0  0  0
 53 54  1  0  0  0  0
 53 59  1  0  0  0  0
 54 63  1  0  0  0  0
 55 56  1  0  0  0  0
 55 57  1  0  0  0  0
 56 72  1  0  0  0  0
 57 74  1  0  0  0  0
 58 63  1  0  0  0  0
 58 74  1  0  0  0  0
 59 81  1  0  0  0  0
 60 62  1  0  0  0  0
 60 71  1  0  0  0  0
 61 73  1  0  0  0  0
 64 65  1  0  0  0  0
M  CHG  2  73   1  74   1
M  ISO  4  32 100  59 101  72 100  81 101
M  END
> <Batch ID>
0101

> <Smiles>
CNC(C)C(=O)NC(C(=O)N1Cc2cc([101O:1][101CH2:1]CCC(C)(C)CN(C)CCC[100NH:0][100C:0](=O)N3CCCC(n4nc(-c5ccc(Oc6ccc(F)cc6F)cc5)c(C(N)=O)c4N)C3)ccc2CC1C(=O)NC1CCCc2ccccc21)C(C)(C)C

> <Shape>
0.215

> <Color>
0.068

> <Negative vol penalty>
0.000

$$$$

  -OEChem-04052319363D

 82 90  0     1  0  0  0  0  0999 V2000
  -26.9351  -24.7184   32.6359 C   0  0  0  0  0  0  0  0  0  0  0  0
  -27.7596  -24.2259   31.6294 C   0  0  0  0  0  0  0  0  0  0  0  0
  -23.1899   -9.8183   19.9306 C   0  0  0  0  0  0  0  0  0  0  0  0
  -23.5607  -10.0000   22.3110 C   0  0  0  0  0  0  0  0  0  0  0  0
  -26.1603  -23.8405   33.3928 C   0  0  0  0  0  0  0  0  0  0  0  0
  -27.8106  -22.8550   31.3798 C   0  0  0  0  0  0  0  0  0  0  0  0
  -28.5456  -20.1268   25.9464 C   0  0  0  0  0  0  0  0  0  0  0  0
  -22.4217   -8.6726   20.1377 C   0  0  0  0  0  0  0  0  0  0  0  0
  -22.7925   -8.8543   22.5181 C   0  0  0  0  0  0  0  0  0  0  0  0
  -29.6628  -19.5850   25.3123 C   0  0  0  0  0  0  0  0  0  0  0  0
  -23.1907   -5.5070   22.2577 C   0  0  0  0  0  0  0  0  0  0  0  0
  -23.6852   -4.5457   23.1392 C   0  0  0  0  0  0  0  0  0  0  0  0
  -29.0551  -17.3965   26.1248 C   0  0  0  0  0  0  0  0  0  0  0  0
  -21.7245   -4.8089   24.5261 C   0  0  0  0  0  0  0  0  0  0  0  0
  -33.2574  -15.3226   23.8146 C   0  0  0  0  0  0  0  0  0  0  0  0
  -23.7595  -10.4819   21.0173 C   0  0  0  0  0  0  0  0  0  0  0  0
  -24.1017  -12.9980   20.7728 C   0  0  0  0  0  0  0  0  0  0  0  0
  -26.1945  -22.4590   33.1460 C   0  0  0  0  0  0  0  0  0  0  0  0
  -27.6792  -19.3079   26.6847 C   0  0  0  0  0  0  0  0  0  0  0  0
  -27.0365  -21.9576   32.1350 C   0  0  0  0  0  0  0  0  0  0  0  0
  -27.9261  -17.9299   26.7651 C   0  0  0  0  0  0  0  0  0  0  0  0
  -33.4240  -14.6955   22.5996 C   0  0  0  0  0  0  0  0  0  0  0  0
  -33.7795  -15.6901   21.6554 C   0  0  0  0  0  0  0  0  0  0  0  0
  -22.2229   -8.1906   21.4314 C   0  0  0  0  0  0  0  0  0  0  0  0
  -29.9193  -18.2201   25.4039 C   0  0  0  0  0  0  0  0  0  0  0  0
  -21.9631   -6.1193   22.5104 C   0  0  0  0  0  0  0  0  0  0  0  0
  -22.9521   -4.1967   24.2734 C   0  0  0  0  0  0  0  0  0  0  0  0
  -21.2300   -5.7702   23.6446 C   0  0  0  0  0  0  0  0  0  0  0  0
  -24.5536  -11.6651   20.8039 C   0  0  0  0  0  0  0  0  0  0  0  0
  -33.8195  -16.8947   22.3222 C   0  0  0  0  0  0  0  0  0  0  0  0
  -25.2345  -13.7393   20.5406 C   0  0  0  0  0  0  0  0  0  0  0  0
  -22.7765  -13.5195   20.9390 C   0  0  0  0  0  0  0  0  0  0  0  0
  -26.7797  -19.1642   29.7300 C   0  0  0  0  0  0  0  0  0  0  0  0
  -24.7414  -16.9000   28.6159 C   0  0  0  0  0  0  0  0  0  0  0  0
  -24.0179  -14.5792   26.2206 C   0  0  0  0  0  0  0  0  0  0  0  0
  -30.9273  -12.6919   21.7025 C   0  0  0  0  0  0  0  0  0  0  0  0
  -25.3749  -21.5446   34.0216 C   0  0  0  0  0  0  0  0  0  0  0  0
  -26.4637  -19.9035   27.3406 C   0  0  0  0  0  0  0  0  0  0  0  0
  -27.0157  -17.0044   27.5287 C   0  0  0  0  0  0  0  0  0  0  0  0
  -25.2032  -20.1416   33.4450 C   0  0  0  0  0  0  0  0  0  0  0  0
  -29.5317  -13.4570   18.4522 C   0  0  0  0  0  0  0  0  0  0  0  0
  -26.5397  -19.6030   32.9444 C   0  0  0  0  0  0  0  0  0  0  0  0
  -28.0421  -13.2068   18.6942 C   0  0  0  0  0  0  0  0  0  0  0  0
  -30.3915  -12.4449   19.2035 C   0  0  0  0  0  0  0  0  0  0  0  0
  -28.6446  -12.1348   20.9141 C   0  0  0  0  0  0  0  0  0  0  0  0
  -27.1004  -20.4793   31.8177 C   0  0  1  0  0  0  0  0  0  0  0  0
  -25.9322  -19.0579   28.4938 C   0  0  1  0  0  0  0  0  0  0  0  0
  -27.7225  -13.1394   20.1994 C   0  0  2  0  0  0  0  0  0  0  0  0
  -34.1343  -18.2506   21.8244 C   0  0  0  0  0  0  0  0  0  0  0  0
  -32.8935  -15.9058   19.3198 C   0  0  0  0  0  0  0  0  0  0  0  0
  -22.6858  -12.8541   24.9769 C   0  0  0  0  0  0  0  0  0  0  0  0
  -25.8507  -15.0276   30.7544 C   0  0  0  0  0  0  0  0  0  0  0  0
  -24.8310  -13.1115   29.5067 C   0  0  0  0  0  0  0  0  0  0  0  0
  -23.3722  -14.9047   30.4441 C   0  0  0  0  0  0  0  0  0  0  0  0
  -22.7037  -16.6341   24.5445 C   0  0  0  0  0  0  0  0  0  0  0  0
  -34.0566  -15.4773   20.2198 C   0  0  0  0  0  0  0  0  0  0  0  0
  -33.2590  -13.2512   22.3408 C   0  0  0  0  0  0  0  0  0  0  0  0
  -33.4236  -17.6980   24.7264 C   0  0  0  0  0  0  0  0  0  0  0  0
  -32.1507  -18.5334   24.6432 C   0  0  0  0  0  0  0  0  0  1  0  0
  -24.8069  -15.4042   28.4232 C   0  0  1  0  0  0  0  0  0  0  0  0
  -22.7471  -14.3020   25.4379 C   0  0  2  0  0  0  0  0  0  0  0  0
  -24.7336  -14.6295   29.7692 C   0  0  0  0  0  0  0  0  0  0  0  0
  -25.8707  -11.5625   20.6071 N   0  0  0  0  0  0  0  0  0  0  0  0
  -33.5007  -16.6592   23.6341 N   0  0  0  0  0  0  0  0  0  0  0  0
  -26.2561  -12.8403   20.4499 N   0  0  0  0  0  0  0  0  0  0  0  0
  -25.8437  -17.6354   28.1578 N   0  0  0  0  0  0  0  0  0  0  0  0
  -30.0507  -12.4437   20.6332 N   0  0  0  0  0  0  0  0  0  0  0  0
  -25.4463  -15.0658   20.4071 N   0  0  0  0  0  0  0  0  0  0  0  0
  -21.7281  -12.6186   21.1703 N   0  0  0  0  0  0  0  0  0  0  0  0
  -26.4189  -20.1985   30.5723 N   0  0  0  0  0  0  0  0  0  0  0  0
  -23.7452  -15.0671   27.4811 N   0  0  0  0  0  0  0  0  0  0  0  0
  -32.2427  -12.9695   21.3514 N   0  0  0  0  0  0  0  0  0  0  0  0
  -22.6765  -15.1811   24.2365 N   0  3  0  0  0  0  0  0  0  0  0  0
  -22.5269  -14.7468   20.8676 O   0  0  0  0  0  0  0  0  0  0  0  0
  -27.6923  -18.3659   29.9074 O   0  0  0  0  0  0  0  0  0  0  0  0
  -23.7456  -17.3983   29.1466 O   0  0  0  0  0  0  0  0  0  0  0  0
  -25.1402  -14.3793   25.7612 O   0  0  0  0  0  0  0  0  0  0  0  0
  -30.5634  -12.6728   22.8833 O   0  0  0  0  0  0  0  0  0  0  0  0
  -21.4732   -7.0729   21.6339 O   0  0  0  0  0  0  0  0  0  0  0  0
  -31.0094  -17.6888   24.7865 O   0  0  0  0  0  0  0  0  0  1  0  0
  -23.4264   -3.2724   25.1190 F   0  0  0  0  0  0  0  0  0  0  0  0
  -20.0495   -6.3541   23.8920 F   0  0  0  0  0  0  0  0  0  0  0  0
  1  2  1  0  0  0  0
  1  5  2  0  0  0  0
  2  6  2  0  0  0  0
  3  8  2  0  0  0  0
  3 16  1  0  0  0  0
  4  9  1  0  0  0  0
  4 16  2  0  0  0  0
  5 18  1  0  0  0  0
  6 20  1  0  0  0  0
  7 10  2  0  0  0  0
  7 19  1  0  0  0  0
  8 24  1  0  0  0  0
  9 24  2  0  0  0  0
 10 25  1  0  0  0  0
 11 12  2  0  0  0  0
 11 26  1  0  0  0  0
 12 27  1  0  0  0  0
 13 21  1  0  0  0  0
 13 25  2  0  0  0  0
 14 27  2  0  0  0  0
 14 28  1  0  0  0  0
 15 22  2  0  0  0  0
 15 64  1  0  0  0  0
 16 29  1  0  0  0  0
 17 29  1  0  0  0  0
 17 31  2  0  0  0  0
 17 32  1  0  0  0  0
 18 20  2  0  0  0  0
 18 37  1  0  0  0  0
 19 21  2  0  0  0  0
 19 38  1  0  0  0  0
 20 46  1  0  0  0  0
 21 39  1  0  0  0  0
 22 23  1  0  0  0  0
 22 57  1  0  0  0  0
 23 30  2  0  0  0  0
 23 56  1  0  0  0  0
 24 79  1  0  0  0  0
 25 80  1  0  0  0  0
 26 28  2  0  0  0  0
 26 79  1  0  0  0  0
 27 81  1  0  0  0  0
 28 82  1  0  0  0  0
 29 63  2  0  0  0  0
 30 49  1  0  0  0  0
 30 64  1  0  0  0  0
 31 65  1  0  0  0  0
 31 68  1  0  0  0  0
 32 69  1  0  0  0  0
 32 74  2  0  0  0  0
 33 47  1  0  0  0  0
 33 70  1  0  0  0  0
 33 75  2  0  0  0  0
 34 60  1  0  0  0  0
 34 66  1  0  0  0  0
 34 76  2  0  0  0  0
 35 61  1  0  0  0  0
 35 71  1  0  0  0  0
 35 77  2  0  0  0  0
 36 67  1  0  0  0  0
 36 72  1  0  0  0  0
 36 78  2  0  0  0  0
 37 40  1  0  0  0  0
 38 47  1  0  0  0  0
 39 66  1  0  0  0  0
 40 42  1  0  0  0  0
 41 43  1  0  0  0  0
 41 44  1  0  0  0  0
 42 46  1  0  0  0  0
 43 48  1  0  0  0  0
 44 67  1  0  0  0  0
 45 48  1  0  0  0  0
 45 67  1  0  0  0  0
 46 70  1  0  0  0  0
 47 66  1  0  0  0  0
 48 65  1  0  0  0  0
 50 56  1  0  0  0  0
 51 61  1  0  0  0  0
 52 62  1  0  0  0  0
 53 62  1  0  0  0  0
 54 62  1  0  0  0  0
 55 73  1  0  0  0  0
 57 72  1  0  0  0  0
 58 59  1  0  0  0  0
 58 64  1  0  0  0  0
 59 80  1  0  0  0  0
 60 62  1  0  0  0  0
 60 71  1  0  0  0  0
 61 73  1  0  0  0  0
 63 65  1  0  0  0  0
M  CHG  1  73   1
M  ISO  4  36 100  59 101  72 100  80 101
M  END
> <Batch ID>
0101

> <Smiles>
CCc1c(C[100NH:0][100C:0](=O)N2CCCC(n3nc(-c4ccc(Oc5ccc(F)cc5F)cc4)c(C(N)=O)c3N)C2)cn(C[101CH2:1][101O:1]c2ccc3c(c2)CN(C(=O)C(NC(=O)C(C)NC)C(C)(C)C)C(C(=O)NC2CCCc4ccccc42)C3)c1C

> <Shape>
0.144

> <Color>
0.186

> <Negative vol penalty>
0.000

$$$$

  -OEChem-04052319363D

 89 97  0     1  0  0  0  0  0999 V2000
  -16.9989  -30.6063   24.5618 C   0  0  0  0  0  0  0  0  0  0  0  0
  -18.2658  -30.9173   25.0452 C   0  0  0  0  0  0  0  0  0  0  0  0
  -27.4088  -11.5079   20.2642 C   0  0  0  0  0  0  0  0  0  0  0  0
  -26.4026  -13.5758   19.5237 C   0  0  0  0  0  0  0  0  0  0  0  0
  -16.8452  -29.5995   23.6096 C   0  0  0  0  0  0  0  0  0  0  0  0
  -19.3796  -30.2209   24.5775 C   0  0  0  0  0  0  0  0  0  0  0  0
  -26.3416  -31.1317   23.1568 C   0  0  0  0  0  0  0  0  0  0  0  0
  -26.2137  -10.8353   20.0098 C   0  0  0  0  0  0  0  0  0  0  0  0
  -25.2074  -12.9032   19.2692 C   0  0  0  0  0  0  0  0  0  0  0  0
  -27.5824  -30.5637   23.4424 C   0  0  0  0  0  0  0  0  0  0  0  0
  -23.3157   -8.6417   19.8941 C   0  0  0  0  0  0  0  0  0  0  0  0
  -22.8575   -7.7433   20.8577 C   0  0  0  0  0  0  0  0  0  0  0  0
  -27.2054  -28.8982   21.7385 C   0  0  0  0  0  0  0  0  0  0  0  0
  -29.1975  -26.2710   20.0646 C   0  0  0  0  0  0  0  0  0  0  0  0
  -29.7033  -24.4800   21.6050 C   0  0  0  0  0  0  0  0  0  0  0  0
  -22.7527   -9.5336   22.4767 C   0  0  0  0  0  0  0  0  0  0  0  0
  -27.5033  -12.8782   20.0212 C   0  0  0  0  0  0  0  0  0  0  0  0
  -29.9952  -13.3227   19.7039 C   0  0  0  0  0  0  0  0  0  0  0  0
  -17.9588  -28.8970   23.1229 C   0  0  0  0  0  0  0  0  0  0  0  0
  -25.5172  -30.5797   22.1658 C   0  0  0  0  0  0  0  0  0  0  0  0
  -19.2405  -29.2029   23.6189 C   0  0  0  0  0  0  0  0  0  0  0  0
  -25.9557  -29.4626   21.4405 C   0  0  0  0  0  0  0  0  0  0  0  0
  -29.8913  -25.7940   21.1766 C   0  0  0  0  0  0  0  0  0  0  0  0
  -28.3156  -25.4340   19.3809 C   0  0  0  0  0  0  0  0  0  0  0  0
  -28.8214  -23.6429   20.9214 C   0  0  0  0  0  0  0  0  0  0  0  0
  -28.1276  -24.1199   19.8093 C   0  0  0  0  0  0  0  0  0  0  0  0
  -25.1130  -11.5328   19.5123 C   0  0  0  0  0  0  0  0  0  0  0  0
  -28.0132  -29.4451   22.7352 C   0  0  0  0  0  0  0  0  0  0  0  0
  -23.4925   -9.9860   20.2217 C   0  0  0  0  0  0  0  0  0  0  0  0
  -22.5760   -8.1893   22.1490 C   0  0  0  0  0  0  0  0  0  0  0  0
  -23.2110  -10.4319   21.5131 C   0  0  0  0  0  0  0  0  0  0  0  0
  -28.7374  -13.5738   20.2843 C   0  0  0  0  0  0  0  0  0  0  0  0
  -30.8308  -14.2466   20.2823 C   0  0  0  0  0  0  0  0  0  0  0  0
  -30.3742  -12.3421   18.7291 C   0  0  0  0  0  0  0  0  0  0  0  0
  -22.6218  -29.2685   22.1305 C   0  0  0  0  0  0  0  0  0  0  0  0
  -23.0853  -29.2727   18.9200 C   0  0  0  0  0  0  0  0  0  0  0  0
  -25.2842  -29.2998   16.3102 C   0  0  0  0  0  0  0  0  0  0  0  0
  -30.0425  -19.5539   22.7090 C   0  0  0  0  0  0  0  0  0  0  0  0
  -17.7376  -27.7847   22.1286 C   0  0  0  0  0  0  0  0  0  0  0  0
  -24.1931  -31.2202   21.8514 C   0  0  0  0  0  0  0  0  0  0  0  0
  -25.1171  -28.8442   20.3529 C   0  0  0  0  0  0  0  0  0  0  0  0
  -19.0111  -27.3494   21.4082 C   0  0  0  0  0  0  0  0  0  0  0  0
  -31.4225  -16.7885   24.2820 C   0  0  0  0  0  0  0  0  0  0  0  0
  -20.1525  -27.1686   22.4040 C   0  0  0  0  0  0  0  0  0  0  0  0
  -31.0164  -15.6170   23.3889 C   0  0  0  0  0  0  0  0  0  0  0  0
  -30.2791  -17.7859   24.4250 C   0  0  0  0  0  0  0  0  0  0  0  0
  -29.3670  -17.1574   22.2127 C   0  0  0  0  0  0  0  0  0  0  0  0
  -20.4759  -28.4868   23.1177 C   0  0  1  0  0  0  0  0  0  0  0  0
  -23.2134  -30.2661   21.1752 C   0  0  1  0  0  0  0  0  0  0  0  0
  -30.4898  -16.1153   22.0317 C   0  0  2  0  0  0  0  0  0  0  0  0
  -27.5856  -25.9689   18.1924 C   0  0  0  0  0  0  0  0  0  0  0  0
  -25.7251  -23.5256   19.4076 C   0  0  0  0  0  0  0  0  0  0  0  0
  -28.2800  -17.3589   18.9107 C   0  0  0  0  0  0  0  0  0  0  0  0
  -32.2886  -26.1736   21.8399 C   0  0  0  0  0  0  0  0  0  0  0  0
  -25.3656  -29.2601   13.8024 C   0  0  0  0  0  0  0  0  0  0  0  0
  -22.4375  -26.2912   18.9485 C   0  0  0  0  0  0  0  0  0  0  0  0
  -23.4425  -26.1220   16.6617 C   0  0  0  0  0  0  0  0  0  0  0  0
  -21.4376  -27.5577   17.0379 C   0  0  0  0  0  0  0  0  0  0  0  0
  -26.6399  -31.9281   16.1969 C   0  0  0  0  0  0  0  0  0  0  0  0
  -28.6379  -22.2398   21.4003 C   0  0  0  0  0  0  0  0  0  0  0  0
  -27.1823  -23.2226   19.0759 C   0  0  0  0  0  0  0  0  0  0  0  0
  -29.2730  -18.1571   19.7438 C   0  0  0  0  0  0  0  0  0  0  0  0
  -29.7754  -21.2992   20.9884 C   0  0  0  0  0  0  0  0  0  0  0  0
  -28.5937  -19.1566   20.6723 C   0  0  0  0  0  0  0  0  0  0  0  0
  -30.3865  -26.9182   23.3766 C   0  0  0  0  0  0  0  0  0  0  0  0
  -30.8524  -26.7069   21.9224 C   0  0  2  0  0  0  0  0  0  0  0  0
  -23.6832  -28.3077   17.9249 C   0  0  1  0  0  0  0  0  0  0  0  0
  -25.3353  -30.1367   15.0447 C   0  0  2  0  0  0  0  0  0  0  0  0
  -22.7654  -27.0799   17.6650 C   0  0  0  0  0  0  0  0  0  0  0  0
  -28.7668  -14.5784   21.1641 N   0  0  0  0  0  0  0  0  0  0  0  0
  -30.0532  -14.9667   21.1408 N   0  0  0  0  0  0  0  0  0  0  0  0
  -23.8276  -29.5029   20.0869 N   0  0  0  0  0  0  0  0  0  0  0  0
  -29.8003  -18.2338   23.1170 N   0  0  0  0  0  0  0  0  0  0  0  0
  -32.1476  -14.5052   20.1353 N   0  0  0  0  0  0  0  0  0  0  0  0
  -30.2936  -12.6831   17.3720 N   0  0  0  0  0  0  0  0  0  0  0  0
  -21.2481  -29.3533   22.2533 N   0  0  0  0  0  0  0  0  0  0  0  0
  -23.9882  -29.0891   16.7312 N   0  0  0  0  0  0  0  0  0  0  0  0
  -29.0533  -27.4998   23.4391 N   0  0  0  0  0  0  0  0  0  1  0  0
  -29.5553  -19.9359   21.4500 N   0  0  0  0  0  0  0  0  0  0  0  0
  -26.5516  -30.9979   15.0420 N   0  3  0  0  0  0  0  0  0  0  0  0
  -30.7570  -11.1918   19.0513 O   0  0  0  0  0  0  0  0  0  0  0  0
  -23.3571  -28.4793   22.7119 O   0  0  0  0  0  0  0  0  0  0  0  0
  -22.0030  -29.8082   18.6678 O   0  0  0  0  0  0  0  0  0  0  0  0
  -26.2929  -28.8723   16.8673 O   0  0  0  0  0  0  0  0  0  0  0  0
  -30.6538  -20.3509   23.4324 O   0  0  0  0  0  0  0  0  0  0  0  0
  -23.9467  -10.8767   19.2637 O   0  0  0  0  0  0  0  0  0  0  0  0
  -29.2236  -28.8884   23.0124 O   0  0  0  0  0  0  0  0  0  1  0  0
  -22.1345   -7.3268   23.0739 F   0  0  0  0  0  0  0  0  0  0  0  0
  -23.3777  -11.7224   21.8334 F   0  0  0  0  0  0  0  0  0  0  0  0
  1  2  1  0  0  0  0
  1  5  2  0  0  0  0
  2  6  2  0  0  0  0
  3  8  2  0  0  0  0
  3 17  1  0  0  0  0
  4  9  1  0  0  0  0
  4 17  2  0  0  0  0
  5 19  1  0  0  0  0
  6 21  1  0  0  0  0
  7 10  2  0  0  0  0
  7 20  1  0  0  0  0
  8 27  1  0  0  0  0
  9 27  2  0  0  0  0
 10 28  1  0  0  0  0
 11 12  2  0  0  0  0
 11 29  1  0  0  0  0
 12 30  1  0  0  0  0
 13 22  1  0  0  0  0
 13 28  2  0  0  0  0
 14 23  1  0  0  0  0
 14 24  2  0  0  0  0
 15 23  2  0  0  0  0
 15 25  1  0  0  0  0
 16 30  2  0  0  0  0
 16 31  1  0  0  0  0
 17 32  1  0  0  0  0
 18 32  1  0  0  0  0
 18 33  2  0  0  0  0
 18 34  1  0  0  0  0
 19 21  2  0  0  0  0
 19 39  1  0  0  0  0
 20 22  2  0  0  0  0
 20 40  1  0  0  0  0
 21 48  1  0  0  0  0
 22 41  1  0  0  0  0
 23 66  1  0  0  0  0
 24 26  1  0  0  0  0
 24 51  1  0  0  0  0
 25 26  2  0  0  0  0
 25 60  1  0  0  0  0
 26 61  1  0  0  0  0
 27 86  1  0  0  0  0
 28 87  1  0  0  0  0
 29 31  2  0  0  0  0
 29 86  1  0  0  0  0
 30 88  1  0  0  0  0
 31 89  1  0  0  0  0
 32 70  2  0  0  0  0
 33 71  1  0  0  0  0
 33 74  1  0  0  0  0
 34 75  1  0  0  0  0
 34 81  2  0  0  0  0
 35 49  1  0  0  0  0
 35 76  1  0  0  0  0
 35 82  2  0  0  0  0
 36 67  1  0  0  0  0
 36 72  1  0  0  0  0
 36 83  2  0  0  0  0
 37 68  1  0  0  0  0
 37 77  1  0  0  0  0
 37 84  2  0  0  0  0
 38 73  1  0  0  0  0
 38 79  1  0  0  0  0
 38 85  2  0  0  0  0
 39 42  1  0  0  0  0
 40 49  1  0  0  0  0
 41 72  1  0  0  0  0
 42 44  1  0  0  0  0
 43 45  1  0  0  0  0
 43 46  1  0  0  0  0
 44 48  1  0  0  0  0
 45 50  1  0  0  0  0
 46 73  1  0  0  0  0
 47 50  1  0  0  0  0
 47 73  1  0  0  0  0
 48 76  1  0  0  0  0
 49 72  1  0  0  0  0
 50 71  1  0  0  0  0
 52 61  1  0  0  0  0
 53 62  1  0  0  0  0
 54 66  1  0  0  0  0
 55 68  1  0  0  0  0
 56 69  1  0  0  0  0
 57 69  1  0  0  0  0
 58 69  1  0  0  0  0
 59 80  1  0  0  0  0
 60 63  1  0  0  0  0
 62 64  1  0  0  0  0
 63 79  1  0  0  0  0
 64 79  1  0  0  0  0
 65 66  1  0  0  0  0
 65 78  1  0  0  0  0
 67 69  1  0  0  0  0
 67 77  1  0  0  0  0
 68 80  1  0  0  0  0
 70 71  1  0  0  0  0
 78 87  1  0  0  0  0
M  CHG  1  80   1
M  ISO  4  38 100  78 101  79 100  87 101
M  END
> <Batch ID>
0101

> <Smiles>
CCC[100N:0](CCc1cc(C(C)C[101NH:1][101O:1]c2ccc3c(c2)CN(C(=O)C(NC(=O)C(C)NC)C(C)(C)C)C(C(=O)NC2CCCc4ccccc42)C3)cc(C)c1CC)[100C:0](=O)N1CCCC(n2nc(-c3ccc(Oc4ccc(F)cc4F)cc3)c(C(N)=O)c2N)C1

> <Shape>
0.352

> <Color>
0.116

> <Negative vol penalty>
0.000

$$$$

  -OEChem-04052319363D

 87 95  0     1  0  0  0  0  0999 V2000
  -18.4208   -3.8161   22.1158 C   0  0  0  0  0  0  0  0  0  0  0  0
  -18.4160   -5.1531   21.7312 C   0  0  0  0  0  0  0  0  0  0  0  0
  -25.0768  -31.1838   21.2204 C   0  0  0  0  0  0  0  0  0  0  0  0
  -24.7476  -29.7085   23.1051 C   0  0  0  0  0  0  0  0  0  0  0  0
  -19.4049   -3.3451   22.9838 C   0  0  0  0  0  0  0  0  0  0  0  0
  -19.3949   -6.0201   22.2154 C   0  0  0  0  0  0  0  0  0  0  0  0
  -21.9499  -10.7206   19.2350 C   0  0  0  0  0  0  0  0  0  0  0  0
  -26.3626  -19.5329   18.6442 C   0  0  0  0  0  0  0  0  0  0  0  0
  -27.4586  -20.3858   18.7745 C   0  0  0  0  0  0  0  0  0  0  0  0
  -24.4982  -32.2303   21.9384 C   0  0  0  0  0  0  0  0  0  0  0  0
  -24.1690  -30.7550   23.8232 C   0  0  0  0  0  0  0  0  0  0  0  0
  -21.7019  -12.0924   19.2584 C   0  0  0  0  0  0  0  0  0  0  0  0
  -25.4210  -34.3939   24.3675 C   0  0  0  0  0  0  0  0  0  0  0  0
  -26.0579  -35.6343   24.3321 C   0  0  0  0  0  0  0  0  0  0  0  0
  -23.4793  -12.3802   20.8638 C   0  0  0  0  0  0  0  0  0  0  0  0
  -24.0751  -36.6250   23.3708 C   0  0  0  0  0  0  0  0  0  0  0  0
  -25.2015  -29.9228   21.8037 C   0  0  0  0  0  0  0  0  0  0  0  0
  -27.1606  -28.4873   21.0234 C   0  0  0  0  0  0  0  0  0  0  0  0
  -20.4021   -4.2046   23.4712 C   0  0  0  0  0  0  0  0  0  0  0  0
  -22.9590  -10.1660   20.0353 C   0  0  0  0  0  0  0  0  0  0  0  0
  -20.3926   -5.5605   23.0918 C   0  0  0  0  0  0  0  0  0  0  0  0
  -23.7398  -11.0014   20.8467 C   0  0  0  0  0  0  0  0  0  0  0  0
  -25.2319  -19.7239   19.4383 C   0  0  0  0  0  0  0  0  0  0  0  0
  -27.4239  -21.4297   19.6990 C   0  0  0  0  0  0  0  0  0  0  0  0
  -26.2931  -21.6207   20.4932 C   0  0  0  0  0  0  0  0  0  0  0  0
  -25.1971  -20.7678   20.3628 C   0  0  0  0  0  0  0  0  0  0  0  0
  -24.0443  -32.0159   23.2399 C   0  0  0  0  0  0  0  0  0  0  0  0
  -22.4647  -12.9220   20.0751 C   0  0  0  0  0  0  0  0  0  0  0  0
  -24.1111  -34.2689   23.9044 C   0  0  0  0  0  0  0  0  0  0  0  0
  -25.3850  -36.7498   23.8338 C   0  0  0  0  0  0  0  0  0  0  0  0
  -23.4382  -35.3845   23.4061 C   0  0  0  0  0  0  0  0  0  0  0  0
  -25.7986  -28.8412   21.0623 C   0  0  0  0  0  0  0  0  0  0  0  0
  -27.2094  -27.4018   20.1833 C   0  0  0  0  0  0  0  0  0  0  0  0
  -28.2814  -29.0862   21.6873 C   0  0  0  0  0  0  0  0  0  0  0  0
  -23.0319   -8.0551   22.4107 C   0  0  0  0  0  0  0  0  0  0  0  0
  -26.2424   -8.3902   22.0904 C   0  0  0  0  0  0  0  0  0  0  0  0
  -28.8663  -10.3166   21.0654 C   0  0  0  0  0  0  0  0  0  0  0  0
  -23.1657  -23.2731   18.6169 C   0  0  0  0  0  0  0  0  0  0  0  0
  -21.4173   -3.6604   24.4447 C   0  0  0  0  0  0  0  0  0  0  0  0
  -23.2317   -8.6879   19.9785 C   0  0  0  0  0  0  0  0  0  0  0  0
  -24.8483  -10.4583   21.7096 C   0  0  0  0  0  0  0  0  0  0  0  0
  -22.6391   -4.5592   24.6167 C   0  0  0  0  0  0  0  0  0  0  0  0
  -24.9477  -25.4575   16.4422 C   0  0  0  0  0  0  0  0  0  0  0  0
  -22.2114   -6.0112   24.8048 C   0  0  0  0  0  0  0  0  0  0  0  0
  -25.4907  -26.5405   17.3762 C   0  0  0  0  0  0  0  0  0  0  0  0
  -23.5601  -24.9860   16.8714 C   0  0  0  0  0  0  0  0  0  0  0  0
  -24.0060  -25.6267   19.2090 C   0  0  0  0  0  0  0  0  0  0  0  0
  -21.4521   -6.5263   23.5761 C   0  0  1  0  0  0  0  0  0  0  0  0
  -23.9439   -8.1635   21.2215 C   0  0  1  0  0  0  0  0  0  0  0  0
  -25.4267  -26.0943   18.8493 C   0  0  2  0  0  0  0  0  0  0  0  0
  -26.2583  -22.7400   21.4852 C   0  0  0  0  0  0  0  0  0  0  0  0
  -28.9011  -23.0957   18.5175 C   0  0  0  0  0  0  0  0  0  0  0  0
  -29.8738  -21.5722   20.2748 C   0  0  0  0  0  0  0  0  0  0  0  0
  -31.3738  -10.3396   20.9689 C   0  0  0  0  0  0  0  0  0  0  0  0
  -26.3492   -9.0130   25.0755 C   0  0  0  0  0  0  0  0  0  0  0  0
  -28.6498   -9.9379   24.7292 C   0  0  0  0  0  0  0  0  0  0  0  0
  -28.1895   -7.5331   24.2520 C   0  0  0  0  0  0  0  0  0  0  0  0
  -28.8667  -10.4817   18.1105 C   0  0  0  0  0  0  0  0  0  0  0  0
  -24.0608  -18.7877   19.2769 C   0  0  0  0  0  0  0  0  0  0  0  0
  -23.9827  -20.9711   21.2122 C   0  0  0  0  0  0  0  0  0  0  0  0
  -24.2723  -17.4144   19.9238 C   0  0  0  0  0  0  0  0  0  0  0  0
  -23.1068  -16.4536   19.6837 C   0  0  0  0  0  0  0  0  0  0  0  0
  -22.8317  -21.6620   20.4749 C   0  0  0  0  0  0  0  0  0  0  0  0
  -23.3344  -15.1153   20.3733 C   0  0  0  0  0  0  0  0  0  1  0  0
  -28.6118  -22.3275   19.8199 C   0  0  0  0  0  0  0  0  0  0  0  0
  -27.2869   -9.3021   22.6874 C   0  0  1  0  0  0  0  0  0  0  0  0
  -30.0912   -9.9886   20.2309 C   0  0  2  0  0  0  0  0  0  0  0  0
  -27.5968   -8.9568   24.1713 C   0  0  0  0  0  0  0  0  0  0  0  0
  -25.0372  -28.0452   20.3068 N   0  0  0  0  0  0  0  0  0  0  0  0
  -25.9238  -27.1804   19.7853 N   0  0  0  0  0  0  0  0  0  0  0  0
  -25.0721   -9.0056   21.6241 N   0  0  0  0  0  0  0  0  0  0  0  0
  -23.5680  -24.5754   18.2776 N   0  0  0  0  0  0  0  0  0  0  0  0
  -28.2262  -26.6247   19.7535 N   0  0  0  0  0  0  0  0  0  0  0  0
  -28.0539  -30.1947   22.5143 N   0  0  0  0  0  0  0  0  0  0  0  0
  -22.3754   -6.8430   22.5076 N   0  0  0  0  0  0  0  0  0  0  0  0
  -28.4449   -9.2304   21.8029 N   0  0  0  0  0  0  0  0  0  0  0  0
  -23.2091  -22.9637   19.9709 N   0  0  0  0  0  0  0  0  0  0  0  0
  -30.0635  -10.7486   18.9492 N   0  3  0  0  0  0  0  0  0  0  0  0
  -29.4522  -28.6614   21.5383 O   0  0  0  0  0  0  0  0  0  0  0  0
  -22.9324   -9.0005   23.1839 O   0  0  0  0  0  0  0  0  0  0  0  0
  -26.4599   -7.1773   22.0333 O   0  0  0  0  0  0  0  0  0  0  0  0
  -28.3385  -11.4266   21.0661 O   0  0  0  0  0  0  0  0  0  0  0  0
  -22.8004  -22.4455   17.7751 O   0  0  0  0  0  0  0  0  0  0  0  0
  -23.4799  -33.0369   23.9409 O   0  0  0  0  0  0  0  0  0  0  0  0
  -22.2243  -14.2612   20.1003 O   0  0  0  0  0  0  0  0  0  1  0  0
  -25.9962  -37.9413   23.8013 F   0  0  0  0  0  0  0  0  0  0  0  0
  -22.1793  -35.2710   22.9610 F   0  0  0  0  0  0  0  0  0  0  0  0
  1  2  1  0  0  0  0
  1  5  2  0  0  0  0
  2  6  2  0  0  0  0
  3 10  2  0  0  0  0
  3 17  1  0  0  0  0
  4 11  1  0  0  0  0
  4 17  2  0  0  0  0
  5 19  1  0  0  0  0
  6 21  1  0  0  0  0
  7 12  2  0  0  0  0
  7 20  1  0  0  0  0
  8  9  2  0  0  0  0
  8 23  1  0  0  0  0
  9 24  1  0  0  0  0
 10 27  1  0  0  0  0
 11 27  2  0  0  0  0
 12 28  1  0  0  0  0
 13 14  2  0  0  0  0
 13 29  1  0  0  0  0
 14 30  1  0  0  0  0
 15 22  1  0  0  0  0
 15 28  2  0  0  0  0
 16 30  2  0  0  0  0
 16 31  1  0  0  0  0
 17 32  1  0  0  0  0
 18 32  1  0  0  0  0
 18 33  2  0  0  0  0
 18 34  1  0  0  0  0
 19 21  2  0  0  0  0
 19 39  1  0  0  0  0
 20 22  2  0  0  0  0
 20 40  1  0  0  0  0
 21 48  1  0  0  0  0
 22 41  1  0  0  0  0
 23 26  2  0  0  0  0
 23 59  1  0  0  0  0
 24 25  2  0  0  0  0
 24 65  1  0  0  0  0
 25 26  1  0  0  0  0
 25 51  1  0  0  0  0
 26 60  1  0  0  0  0
 27 84  1  0  0  0  0
 28 85  1  0  0  0  0
 29 31  2  0  0  0  0
 29 84  1  0  0  0  0
 30 86  1  0  0  0  0
 31 87  1  0  0  0  0
 32 69  2  0  0  0  0
 33 70  1  0  0  0  0
 33 73  1  0  0  0  0
 34 74  1  0  0  0  0
 34 79  2  0  0  0  0
 35 49  1  0  0  0  0
 35 75  1  0  0  0  0
 35 80  2  0  0  0  0
 36 66  1  0  0  0  0
 36 71  1  0  0  0  0
 36 81  2  0  0  0  0
 37 67  1  0  0  0  0
 37 76  1  0  0  0  0
 37 82  2  0  0  0  0
 38 72  1  0  0  0  0
 38 77  1  0  0  0  0
 38 83  2  0  0  0  0
 39 42  1  0  0  0  0
 40 49  1  0  0  0  0
 41 71  1  0  0  0  0
 42 44  1  0  0  0  0
 43 45  1  0  0  0  0
 43 46  1  0  0  0  0
 44 48  1  0  0  0  0
 45 50  1  0  0  0  0
 46 72  1  0  0  0  0
 47 50  1  0  0  0  0
 47 72  1  0  0  0  0
 48 75  1  0  0  0  0
 49 71  1  0  0  0  0
 50 70  1  0  0  0  0
 52 65  1  0  0  0  0
 53 65  1  0  0  0  0
 54 67  1  0  0  0  0
 55 68  1  0  0  0  0
 56 68  1  0  0  0  0
 57 68  1  0  0  0  0
 58 78  1  0  0  0  0
 59 61  1  0  0  0  0
 60 63  1  0  0  0  0
 61 62  1  0  0  0  0
 62 64  1  0  0  0  0
 63 77  1  0  0  0  0
 64 85  1  0  0  0  0
 66 68  1  0  0  0  0
 66 76  1  0  0  0  0
 67 78  1  0  0  0  0
 69 70  1  0  0  0  0
M  CHG  1  78   1
M  ISO  4  38 100  64 101  77 100  85 101
M  END
> <Batch ID>
0101

> <Smiles>
CNC(C)C(=O)NC(C(=O)N1Cc2cc([101O:1][101CH2:1]CCCc3ccc(C(C)C)c(C)c3CC[100NH:0][100C:0](=O)N3CCCC(n4nc(-c5ccc(Oc6ccc(F)cc6F)cc5)c(C(N)=O)c4N)C3)ccc2CC1C(=O)NC1CCCc2ccccc21)C(C)(C)C

> <Shape>
0.247

> <Color>
0.080

> <Negative vol penalty>
0.000

$$$$

  -OEChem-04052319363D

 80 88  0     1  0  0  0  0  0999 V2000
  -17.9497  -27.8446   22.8909 C   0  0  0  0  0  0  0  0  0  0  0  0
  -18.6826  -26.7273   22.5039 C   0  0  0  0  0  0  0  0  0  0  0  0
  -26.8989  -12.8786   20.9252 C   0  0  0  0  0  0  0  0  0  0  0  0
  -27.2483  -12.8335   18.5350 C   0  0  0  0  0  0  0  0  0  0  0  0
  -18.5847  -29.0774   23.0358 C   0  0  0  0  0  0  0  0  0  0  0  0
  -20.0508  -26.8423   22.2604 C   0  0  0  0  0  0  0  0  0  0  0  0
  -26.1495  -23.1232   22.7996 C   0  0  0  0  0  0  0  0  0  0  0  0
  -26.4405  -11.5620   20.8831 C   0  0  0  0  0  0  0  0  0  0  0  0
  -26.7899  -11.5167   18.4929 C   0  0  0  0  0  0  0  0  0  0  0  0
  -27.2469  -22.7368   22.0314 C   0  0  0  0  0  0  0  0  0  0  0  0
  -24.8390   -8.3310   21.3520 C   0  0  0  0  0  0  0  0  0  0  0  0
  -23.6853   -8.0210   22.0720 C   0  0  0  0  0  0  0  0  0  0  0  0
  -32.6562  -21.0690   19.0349 C   0  0  0  0  0  0  0  0  0  0  0  0
  -31.7328  -20.9595   20.1038 C   0  0  0  0  0  0  0  0  0  0  0  0
  -28.2522  -24.9001   22.3904 C   0  0  0  0  0  0  0  0  0  0  0  0
  -22.4394   -9.6288   20.7681 C   0  0  0  0  0  0  0  0  0  0  0  0
  -27.3027  -13.5144   19.7511 C   0  0  0  0  0  0  0  0  0  0  0  0
  -29.1023  -15.3080   19.9794 C   0  0  0  0  0  0  0  0  0  0  0  0
  -19.9631  -29.2056   22.8033 C   0  0  0  0  0  0  0  0  0  0  0  0
  -26.0901  -24.4069   23.3609 C   0  0  0  0  0  0  0  0  0  0  0  0
  -20.7045  -28.0783   22.4009 C   0  0  0  0  0  0  0  0  0  0  0  0
  -27.1541  -25.2994   23.1674 C   0  0  0  0  0  0  0  0  0  0  0  0
  -26.3860  -10.8810   19.6670 C   0  0  0  0  0  0  0  0  0  0  0  0
  -28.2971  -23.6263   21.8243 C   0  0  0  0  0  0  0  0  0  0  0  0
  -24.7929   -9.2900   20.3400 C   0  0  0  0  0  0  0  0  0  0  0  0
  -22.4855   -8.6698   21.7801 C   0  0  0  0  0  0  0  0  0  0  0  0
  -23.5932   -9.9388   20.0481 C   0  0  0  0  0  0  0  0  0  0  0  0
  -27.7758  -14.8748   19.7939 C   0  0  0  0  0  0  0  0  0  0  0  0
  -32.0827  -21.8755   18.0768 C   0  0  0  0  0  0  0  0  0  0  0  0
  -30.6230  -21.7023   19.7662 C   0  0  0  0  0  0  0  0  0  0  0  0
  -29.0243  -16.6788   19.9413 C   0  0  0  0  0  0  0  0  0  0  0  0
  -30.2981  -14.5401   20.1692 C   0  0  0  0  0  0  0  0  0  0  0  0
  -24.1470  -26.9033   23.0500 C   0  0  0  0  0  0  0  0  0  0  0  0
  -25.9477  -28.1108   25.4628 C   0  0  0  0  0  0  0  0  0  0  0  0
  -28.9164  -28.1035   27.1460 C   0  0  0  0  0  0  0  0  0  0  0  0
  -27.0883  -21.3811   17.6423 C   0  0  0  0  0  0  0  0  0  0  0  0
  -20.5965  -30.5688   22.9269 C   0  0  0  0  0  0  0  0  0  0  0  0
  -24.9115  -24.7990   24.2092 C   0  0  0  0  0  0  0  0  0  0  0  0
  -27.1481  -26.6819   23.7650 C   0  0  0  0  0  0  0  0  0  0  0  0
  -22.1200  -30.5270   23.0133 C   0  0  0  0  0  0  0  0  0  0  0  0
  -25.0071  -19.7514   20.0275 C   0  0  0  0  0  0  0  0  0  0  0  0
  -22.6897  -29.5949   21.9486 C   0  0  0  0  0  0  0  0  0  0  0  0
  -25.6476  -18.3718   20.1897 C   0  0  0  0  0  0  0  0  0  0  0  0
  -25.0973  -20.2497   18.5868 C   0  0  0  0  0  0  0  0  0  0  0  0
  -27.0973  -18.8691   18.1774 C   0  0  0  0  0  0  0  0  0  0  0  0
  -22.1951  -28.1577   22.1517 C   0  0  1  0  0  0  0  0  0  0  0  0
  -24.7208  -26.3096   24.3054 C   0  0  1  0  0  0  0  0  0  0  0  0
  -27.0807  -18.3489   19.6249 C   0  0  2  0  0  0  0  0  0  0  0  0
  -32.6113  -22.3141   16.7687 C   0  0  0  0  0  0  0  0  0  0  0  0
  -30.1045  -29.2271   29.0495 C   0  0  0  0  0  0  0  0  0  0  0  0
  -26.4108  -30.5710   23.7184 C   0  0  0  0  0  0  0  0  0  0  0  0
  -28.3123  -31.1940   25.2232 C   0  0  0  0  0  0  0  0  0  0  0  0
  -25.9932  -31.0683   26.1335 C   0  0  0  0  0  0  0  0  0  0  0  0
  -29.1986  -25.5561   28.6260 C   0  0  0  0  0  0  0  0  0  0  0  0
  -29.3522  -21.9330   20.5298 C   0  0  0  0  0  0  0  0  0  1  0  0
  -29.9197  -23.1072   17.8184 C   0  0  0  0  0  0  0  0  0  0  0  0
  -29.1644  -22.3739   16.7130 C   0  0  0  0  0  0  0  0  0  0  0  0
  -27.2115  -28.9323   25.5458 C   0  0  1  0  0  0  0  0  0  0  0  0
  -29.2330  -28.0536   28.6299 C   0  0  2  0  0  0  0  0  0  0  0  0
  -26.9815  -30.4161   25.1422 C   0  0  0  0  0  0  0  0  0  0  0  0
  -26.9179  -15.8881   19.6488 N   0  0  0  0  0  0  0  0  0  0  0  0
  -30.8468  -22.2543   18.5319 N   0  0  0  0  0  0  0  0  0  0  0  0
  -27.7071  -16.9718   19.7433 N   0  0  0  0  0  0  0  0  0  0  0  0
  -25.9707  -27.0207   24.5815 N   0  0  0  0  0  0  0  0  0  0  0  0
  -26.4824  -20.2042   18.1121 N   0  0  0  0  0  0  0  0  0  0  0  0
  -29.9547  -17.6500   20.0582 N   0  0  0  0  0  0  0  0  0  0  0  0
  -30.1994  -13.1421   20.1820 N   0  0  0  0  0  0  0  0  0  0  0  0
  -22.9232  -27.5199   23.2275 N   0  0  0  0  0  0  0  0  0  0  0  0
  -27.7261  -28.7541   26.8993 N   0  0  0  0  0  0  0  0  0  0  0  0
  -28.4048  -21.2515   17.2170 N   0  0  0  0  0  0  0  0  0  0  0  0
  -29.9514  -26.7914   28.9642 N   0  3  0  0  0  0  0  0  0  0  0  0
  -31.4185  -15.0780   20.3393 O   0  0  0  0  0  0  0  0  0  0  0  0
  -24.7693  -26.8101   21.9984 O   0  0  0  0  0  0  0  0  0  0  0  0
  -24.9782  -28.4207   26.1598 O   0  0  0  0  0  0  0  0  0  0  0  0
  -29.6535  -27.6173   26.2910 O   0  0  0  0  0  0  0  0  0  0  0  0
  -26.5014  -22.4680   17.6095 O   0  0  0  0  0  0  0  0  0  0  0  0
  -25.9390   -9.5961   19.6255 O   0  0  0  0  0  0  0  0  0  0  0  0
  -29.3692  -23.2519   21.0743 O   0  0  0  0  0  0  0  0  0  1  0  0
  -21.3774   -8.3709   22.4706 F   0  0  0  0  0  0  0  0  0  0  0  0
  -23.5425  -10.8601   19.0762 F   0  0  0  0  0  0  0  0  0  0  0  0
  1  2  1  0  0  0  0
  1  5  2  0  0  0  0
  2  6  2  0  0  0  0
  3  8  2  0  0  0  0
  3 17  1  0  0  0  0
  4  9  1  0  0  0  0
  4 17  2  0  0  0  0
  5 19  1  0  0  0  0
  6 21  1  0  0  0  0
  7 10  2  0  0  0  0
  7 20  1  0  0  0  0
  8 23  1  0  0  0  0
  9 23  2  0  0  0  0
 10 24  1  0  0  0  0
 11 12  2  0  0  0  0
 11 25  1  0  0  0  0
 12 26  1  0  0  0  0
 13 14  1  0  0  0  0
 13 29  2  0  0  0  0
 14 30  2  0  0  0  0
 15 22  1  0  0  0  0
 15 24  2  0  0  0  0
 16 26  2  0  0  0  0
 16 27  1  0  0  0  0
 17 28  1  0  0  0  0
 18 28  1  0  0  0  0
 18 31  2  0  0  0  0
 18 32  1  0  0  0  0
 19 21  2  0  0  0  0
 19 37  1  0  0  0  0
 20 22  2  0  0  0  0
 20 38  1  0  0  0  0
 21 46  1  0  0  0  0
 22 39  1  0  0  0  0
 23 77  1  0  0  0  0
 24 78  1  0  0  0  0
 25 27  2  0  0  0  0
 25 77  1  0  0  0  0
 26 79  1  0  0  0  0
 27 80  1  0  0  0  0
 28 61  2  0  0  0  0
 29 49  1  0  0  0  0
 29 62  1  0  0  0  0
 30 55  1  0  0  0  0
 30 62  1  0  0  0  0
 31 63  1  0  0  0  0
 31 66  1  0  0  0  0
 32 67  1  0  0  0  0
 32 72  2  0  0  0  0
 33 47  1  0  0  0  0
 33 68  1  0  0  0  0
 33 73  2  0  0  0  0
 34 58  1  0  0  0  0
 34 64  1  0  0  0  0
 34 74  2  0  0  0  0
 35 59  1  0  0  0  0
 35 69  1  0  0  0  0
 35 75  2  0  0  0  0
 36 65  1  0  0  0  0
 36 70  1  0  0  0  0
 36 76  2  0  0  0  0
 37 40  1  0  0  0  0
 38 47  1  0  0  0  0
 39 64  1  0  0  0  0
 40 42  1  0  0  0  0
 41 43  1  0  0  0  0
 41 44  1  0  0  0  0
 42 46  1  0  0  0  0
 43 48  1  0  0  0  0
 44 65  1  0  0  0  0
 45 48  1  0  0  0  0
 45 65  1  0  0  0  0
 46 68  1  0  0  0  0
 47 64  1  0  0  0  0
 48 63  1  0  0  0  0
 50 59  1  0  0  0  0
 51 60  1  0  0  0  0
 52 60  1  0  0  0  0
 53 60  1  0  0  0  0
 54 71  1  0  0  0  0
 55 78  1  0  0  0  0
 56 57  1  0  0  0  0
 56 62  1  0  0  0  0
 57 70  1  0  0  0  0
 58 60  1  0  0  0  0
 58 69  1  0  0  0  0
 59 71  1  0  0  0  0
 61 63  1  0  0  0  0
M  CHG  1  71   1
M  ISO  4  36 100  55 101  70 100  78 101
M  END
> <Batch ID>
0101

> <Smiles>
CNC(C)C(=O)NC(C(=O)N1Cc2cc([101O:1][101CH2:1]c3ccc(C)n3CC[100NH:0][100C:0](=O)N3CCCC(n4nc(-c5ccc(Oc6ccc(F)cc6F)cc5)c(C(N)=O)c4N)C3)ccc2CC1C(=O)NC1CCCc2ccccc21)C(C)(C)C

> <Shape>
0.231

> <Color>
0.076

> <Negative vol penalty>
0.000

$$$$

  -OEChem-04052319363D

 87 95  0     1  0  0  0  0  0999 V2000
  -35.6987  -28.9900   19.9990 C   0  0  0  0  0  0  0  0  0  0  0  0
  -34.7841  -27.9896   20.3122 C   0  0  0  0  0  0  0  0  0  0  0  0
  -26.3427  -14.5141   22.4670 C   0  0  0  0  0  0  0  0  0  0  0  0
  -26.8813  -13.2257   20.4954 C   0  0  0  0  0  0  0  0  0  0  0  0
  -35.5751  -30.2522   20.5781 C   0  0  0  0  0  0  0  0  0  0  0  0
  -33.7458  -28.2507   21.2056 C   0  0  0  0  0  0  0  0  0  0  0  0
  -26.8641  -27.4738   19.2229 C   0  0  0  0  0  0  0  0  0  0  0  0
  -25.6788  -13.4121   23.0058 C   0  0  0  0  0  0  0  0  0  0  0  0
  -26.2174  -12.1236   21.0342 C   0  0  0  0  0  0  0  0  0  0  0  0
  -25.5292  -27.1463   18.9848 C   0  0  0  0  0  0  0  0  0  0  0  0
  -24.3559   -9.0811   21.7326 C   0  0  0  0  0  0  0  0  0  0  0  0
  -23.5006   -8.3660   20.8944 C   0  0  0  0  0  0  0  0  0  0  0  0
  -24.9259  -27.9647   21.1789 C   0  0  0  0  0  0  0  0  0  0  0  0
  -22.1693  -10.3537   20.5572 C   0  0  0  0  0  0  0  0  0  0  0  0
  -24.0116  -21.2988   20.6806 C   0  0  0  0  0  0  0  0  0  0  0  0
  -26.9440  -14.4209   21.2117 C   0  0  0  0  0  0  0  0  0  0  0  0
  -25.1525  -21.5698   19.9581 C   0  0  0  0  0  0  0  0  0  0  0  0
  -28.9887  -15.8918   20.8080 C   0  0  0  0  0  0  0  0  0  0  0  0
  -34.5291  -30.5318   21.4716 C   0  0  0  0  0  0  0  0  0  0  0  0
  -27.2331  -28.0629   20.4355 C   0  0  0  0  0  0  0  0  0  0  0  0
  -33.6088  -29.5175   21.7983 C   0  0  0  0  0  0  0  0  0  0  0  0
  -26.2596  -28.3064   21.4182 C   0  0  0  0  0  0  0  0  0  0  0  0
  -26.1157  -22.0797   20.8635 C   0  0  0  0  0  0  0  0  0  0  0  0
  -25.6161  -12.2168   22.2894 C   0  0  0  0  0  0  0  0  0  0  0  0
  -24.5625  -27.3909   19.9605 C   0  0  0  0  0  0  0  0  0  0  0  0
  -24.1179  -10.4325   21.9832 C   0  0  0  0  0  0  0  0  0  0  0  0
  -22.4073   -9.0023   20.3067 C   0  0  0  0  0  0  0  0  0  0  0  0
  -23.0246  -11.0688   21.3955 C   0  0  0  0  0  0  0  0  0  0  0  0
  -27.6295  -15.5591   20.6544 C   0  0  0  0  0  0  0  0  0  0  0  0
  -25.5339  -22.1048   22.1118 C   0  0  0  0  0  0  0  0  0  0  0  0
  -29.1413  -17.0527   20.0900 C   0  0  0  0  0  0  0  0  0  0  0  0
  -25.2875  -21.3494   18.5124 C   0  0  0  0  0  0  0  0  0  0  0  0
  -30.0211  -15.2123   21.5347 C   0  0  0  0  0  0  0  0  0  0  0  0
  -29.9912  -29.4771   22.5494 C   0  0  0  0  0  0  0  0  0  0  0  0
  -27.5523  -31.2981   22.9318 C   0  0  0  0  0  0  0  0  0  0  0  0
  -24.7827  -33.2815   22.7523 C   0  0  0  0  0  0  0  0  0  0  0  0
  -34.4641  -31.8972   22.1088 C   0  0  0  0  0  0  0  0  0  0  0  0
  -28.6688  -28.3757   20.7592 C   0  0  0  0  0  0  0  0  0  0  0  0
  -26.7080  -28.9099   22.7212 C   0  0  0  0  0  0  0  0  0  0  0  0
  -33.1165  -32.2031   22.7575 C   0  0  0  0  0  0  0  0  0  0  0  0
  -27.3405  -19.4069   16.3321 C   0  0  0  0  0  0  0  0  0  0  0  0
  -32.6518  -31.0229   23.6048 C   0  0  0  0  0  0  0  0  0  0  0  0
  -27.7604  -18.2196   17.2004 C   0  0  0  0  0  0  0  0  0  0  0  0
  -25.9157  -19.8575   16.6443 C   0  0  0  0  0  0  0  0  0  0  0  0
  -26.0854  -18.9671   18.9429 C   0  0  0  0  0  0  0  0  0  0  0  0
  -32.4544  -29.7694   22.7439 C   0  0  1  0  0  0  0  0  0  0  0  0
  -28.8319  -29.6467   21.6120 C   0  0  1  0  0  0  0  0  0  0  0  0
  -27.5336  -18.5139   18.6952 C   0  0  1  0  0  0  0  0  0  0  0  0
  -26.0851  -22.5411   23.4124 C   0  0  0  0  0  0  0  0  0  0  0  0
  -28.5718  -21.6655   21.2499 C   0  0  0  0  0  0  0  0  0  0  0  0
  -27.7412  -24.0057   20.8153 C   0  0  0  0  0  0  0  0  0  0  0  0
  -23.8313  -35.4223   23.6519 C   0  0  0  0  0  0  0  0  0  0  0  0
  -19.4171  -24.2822   20.9551 C   0  0  0  0  0  0  0  0  0  0  0  0
  -26.9640  -29.9166   25.5869 C   0  0  0  0  0  0  0  0  0  0  0  0
  -25.2493  -31.6825   26.0446 C   0  0  0  0  0  0  0  0  0  0  0  0
  -27.6488  -32.3136   25.7869 C   0  0  0  0  0  0  0  0  0  0  0  0
  -24.6013  -34.4725   20.0490 C   0  0  0  0  0  0  0  0  0  0  0  0
  -21.3728  -25.7510   20.3850 C   0  0  0  0  0  0  0  0  0  0  0  0
  -23.2868  -21.4859   23.0709 C   0  0  0  0  0  0  0  0  0  0  0  0
  -22.6594  -22.8034   23.5071 C   0  0  0  0  0  0  0  0  0  0  0  0
  -21.1888  -24.6653   22.7266 C   0  0  0  0  0  0  0  0  0  0  0  0
  -22.4620  -26.7118   20.8461 C   0  0  0  0  0  0  0  0  0  1  0  0
  -27.4911  -22.5066   20.5330 C   0  0  0  0  0  0  0  0  0  0  0  0
  -26.3255  -31.6142   23.7493 C   0  0  1  0  0  0  0  0  0  0  0  0
  -24.6255  -34.7747   22.5283 C   0  0  2  0  0  0  0  0  0  0  0  0
  -20.4529  -25.2618   21.5189 C   0  0  2  0  0  0  0  0  0  0  0  0
  -26.5454  -31.3658   25.2684 C   0  0  0  0  0  0  0  0  0  0  0  0
  -26.9658  -16.4377   19.8983 N   0  0  0  0  0  0  0  0  0  0  0  0
  -24.2549  -21.6279   21.9886 N   0  0  0  0  0  0  0  0  0  0  0  0
  -27.9120  -17.3340   19.5705 N   0  0  0  0  0  0  0  0  0  0  0  0
  -25.7541  -20.1070   18.0762 N   0  0  0  0  0  0  0  0  0  0  0  0
  -27.6823  -29.9831   22.4688 N   0  0  0  0  0  0  0  0  0  0  0  0
  -30.2057  -17.8502   19.8588 N   0  0  0  0  0  0  0  0  0  0  0  0
  -29.6925  -14.0327   22.2166 N   0  0  0  0  0  0  0  0  0  0  0  0
  -31.2085  -29.8499   22.0121 N   0  0  0  0  0  0  0  0  0  0  0  0
  -25.9546  -32.9851   23.4156 N   0  0  0  0  0  0  0  0  0  0  0  0
  -23.9179  -35.0340   21.2426 N   0  3  0  0  0  0  0  0  0  0  0  0
  -21.8921  -23.4069   22.3828 N   0  3  0  0  0  0  0  0  0  0  0  0
  -24.9853  -22.2963   17.7877 O   0  0  0  0  0  0  0  0  0  0  0  0
  -31.1963  -15.6472   21.5915 O   0  0  0  0  0  0  0  0  0  0  0  0
  -29.7967  -29.0416   23.6782 O   0  0  0  0  0  0  0  0  0  0  0  0
  -28.3774  -32.1895   22.7130 O   0  0  0  0  0  0  0  0  0  0  0  0
  -23.9474  -32.4606   22.3797 O   0  0  0  0  0  0  0  0  0  0  0  0
  -24.9685  -11.1412   22.8150 O   0  0  0  0  0  0  0  0  0  0  0  0
  -23.2603  -27.0729   19.7198 O   0  0  0  0  0  0  0  0  0  1  0  0
  -21.5868   -8.3158   19.5006 F   0  0  0  0  0  0  0  0  0  0  0  0
  -22.7915  -12.3671   21.6315 F   0  0  0  0  0  0  0  0  0  0  0  0
  1  2  1  0  0  0  0
  1  5  2  0  0  0  0
  2  6  2  0  0  0  0
  3  8  2  0  0  0  0
  3 16  1  0  0  0  0
  4  9  1  0  0  0  0
  4 16  2  0  0  0  0
  5 19  1  0  0  0  0
  6 21  1  0  0  0  0
  7 10  2  0  0  0  0
  7 20  1  0  0  0  0
  8 24  1  0  0  0  0
  9 24  2  0  0  0  0
 10 25  1  0  0  0  0
 11 12  2  0  0  0  0
 11 26  1  0  0  0  0
 12 27  1  0  0  0  0
 13 22  1  0  0  0  0
 13 25  2  0  0  0  0
 14 27  2  0  0  0  0
 14 28  1  0  0  0  0
 15 17  2  0  0  0  0
 15 69  1  0  0  0  0
 16 29  1  0  0  0  0
 17 23  1  0  0  0  0
 17 32  1  0  0  0  0
 18 29  1  0  0  0  0
 18 31  2  0  0  0  0
 18 33  1  0  0  0  0
 19 21  2  0  0  0  0
 19 37  1  0  0  0  0
 20 22  2  0  0  0  0
 20 38  1  0  0  0  0
 21 46  1  0  0  0  0
 22 39  1  0  0  0  0
 23 30  2  0  0  0  0
 23 63  1  0  0  0  0
 24 84  1  0  0  0  0
 25 85  1  0  0  0  0
 26 28  2  0  0  0  0
 26 84  1  0  0  0  0
 27 86  1  0  0  0  0
 28 87  1  0  0  0  0
 29 68  2  0  0  0  0
 30 49  1  0  0  0  0
 30 69  1  0  0  0  0
 31 70  1  0  0  0  0
 31 73  1  0  0  0  0
 32 71  1  0  0  0  0
 32 79  2  0  0  0  0
 33 74  1  0  0  0  0
 33 80  2  0  0  0  0
 34 47  1  0  0  0  0
 34 75  1  0  0  0  0
 34 81  2  0  0  0  0
 35 64  1  0  0  0  0
 35 72  1  0  0  0  0
 35 82  2  0  0  0  0
 36 65  1  0  0  0  0
 36 76  1  0  0  0  0
 36 83  2  0  0  0  0
 37 40  1  0  0  0  0
 38 47  1  0  0  0  0
 39 72  1  0  0  0  0
 40 42  1  0  0  0  0
 41 43  1  0  0  0  0
 41 44  1  0  0  0  0
 42 46  1  0  0  0  0
 43 48  1  0  0  0  0
 44 71  1  0  0  0  0
 45 48  1  0  0  0  0
 45 71  1  0  0  0  0
 46 75  1  0  0  0  0
 47 72  1  0  0  0  0
 48 70  1  0  0  0  0
 50 63  1  0  0  0  0
 51 63  1  0  0  0  0
 52 65  1  0  0  0  0
 53 66  1  0  0  0  0
 54 67  1  0  0  0  0
 55 67  1  0  0  0  0
 56 67  1  0  0  0  0
 57 77  1  0  0  0  0
 58 62  1  0  0  0  0
 58 66  1  0  0  0  0
 59 60  1  0  0  0  0
 59 69  1  0  0  0  0
 60 78  1  0  0  0  0
 61 66  1  0  0  0  0
 61 78  1  0  0  0  0
 62 85  1  0  0  0  0
 64 67  1  0  0  0  0
 64 76  1  0  0  0  0
 65 77  1  0  0  0  0
 68 70  1  0  0  0  0
M  CHG  2  77   1  78   1
M  ISO  4  17 100  32 100  62 101  85 101
M  END
> <Batch ID>
0101

> <Smiles>
CNC(C)C(=O)NC(C(=O)N1Cc2cc([101O:1][101CH2:1]CC(C)CNCCn3c[100c:0]([100C:0](=O)N4CCCC(n5nc(-c6ccc(Oc7ccc(F)cc7F)cc6)c(C(N)=O)c5N)C4)c(C(C)C)c3C)ccc2CC1C(=O)NC1CCCc2ccccc21)C(C)(C)C

> <Shape>
0.228

> <Color>
0.071

> <Negative vol penalty>
0.000

$$$$

  -OEChem-04052319363D

 83 91  0     1  0  0  0  0  0999 V2000
  -38.8443  -29.6898   17.4785 C   0  0  0  0  0  0  0  0  0  0  0  0
  -38.1052  -28.5144   17.3907 C   0  0  0  0  0  0  0  0  0  0  0  0
  -23.0765   -9.8668   19.9404 C   0  0  0  0  0  0  0  0  0  0  0  0
  -23.8355   -9.8739   22.2341 C   0  0  0  0  0  0  0  0  0  0  0  0
  -39.2786  -30.1476   18.7217 C   0  0  0  0  0  0  0  0  0  0  0  0
  -37.8010  -27.7955   18.5461 C   0  0  0  0  0  0  0  0  0  0  0  0
  -32.9755  -26.2642   18.6672 C   0  0  0  0  0  0  0  0  0  0  0  0
  -22.3330   -8.7133   20.1900 C   0  0  0  0  0  0  0  0  0  0  0  0
  -23.0919   -8.7205   22.4837 C   0  0  0  0  0  0  0  0  0  0  0  0
  -32.6408  -25.1521   17.8958 C   0  0  0  0  0  0  0  0  0  0  0  0
  -19.8638   -7.9215   23.0848 C   0  0  0  0  0  0  0  0  0  0  0  0
  -19.1063   -7.8812   24.2554 C   0  0  0  0  0  0  0  0  0  0  0  0
  -32.7445  -23.7626   19.8650 C   0  0  0  0  0  0  0  0  0  0  0  0
  -30.6354  -19.8637   21.4398 C   0  0  0  0  0  0  0  0  0  0  0  0
  -31.1570  -17.6645   20.5866 C   0  0  0  0  0  0  0  0  0  0  0  0
  -20.3482   -5.9442   24.9923 C   0  0  0  0  0  0  0  0  0  0  0  0
  -23.8278  -10.4471   20.9624 C   0  0  0  0  0  0  0  0  0  0  0  0
  -24.1688  -12.9723   20.8427 C   0  0  0  0  0  0  0  0  0  0  0  0
  -38.9712  -29.4391   19.8940 C   0  0  0  0  0  0  0  0  0  0  0  0
  -33.2082  -26.1318   20.0437 C   0  0  0  0  0  0  0  0  0  0  0  0
  -38.2327  -28.2436   19.8061 C   0  0  0  0  0  0  0  0  0  0  0  0
  -33.0794  -24.8750   20.6521 C   0  0  0  0  0  0  0  0  0  0  0  0
  -31.3505  -19.0457   20.5652 C   0  0  0  0  0  0  0  0  0  0  0  0
  -29.7270  -19.3006   22.3361 C   0  0  0  0  0  0  0  0  0  0  0  0
  -30.2485  -17.1013   21.4828 C   0  0  0  0  0  0  0  0  0  0  0  0
  -22.3406   -8.1402   21.4616 C   0  0  0  0  0  0  0  0  0  0  0  0
  -32.5281  -23.9006   18.4942 C   0  0  0  0  0  0  0  0  0  0  0  0
  -20.8634   -6.9730   22.8679 C   0  0  0  0  0  0  0  0  0  0  0  0
  -19.3485   -6.8926   25.2092 C   0  0  0  0  0  0  0  0  0  0  0  0
  -21.1056   -5.9844   23.8217 C   0  0  0  0  0  0  0  0  0  0  0  0
  -29.5335  -17.9194   22.3576 C   0  0  0  0  0  0  0  0  0  0  0  0
  -24.5966  -11.6382   20.7051 C   0  0  0  0  0  0  0  0  0  0  0  0
  -25.2608  -13.7222   20.4799 C   0  0  0  0  0  0  0  0  0  0  0  0
  -22.8980  -13.4877   21.2611 C   0  0  0  0  0  0  0  0  0  0  0  0
  -35.6992  -26.6263   21.9552 C   0  0  0  0  0  0  0  0  0  0  0  0
  -33.5445  -25.9658   24.2883 C   0  0  0  0  0  0  0  0  0  0  0  0
  -30.6213  -24.4518   25.1882 C   0  0  0  0  0  0  0  0  0  0  0  0
  -30.7266  -14.7698   20.6569 C   0  0  0  0  0  0  0  0  0  0  0  0
  -39.5029  -29.9481   21.2104 C   0  0  0  0  0  0  0  0  0  0  0  0
  -33.5421  -27.3458   20.8665 C   0  0  0  0  0  0  0  0  0  0  0  0
  -33.2992  -24.6831   22.1297 C   0  0  0  0  0  0  0  0  0  0  0  0
  -38.8184  -29.3266   22.4251 C   0  0  0  0  0  0  0  0  0  0  0  0
  -29.6140  -12.3557   18.2881 C   0  0  0  0  0  0  0  0  0  0  0  0
  -38.7122  -27.8137   22.2619 C   0  0  0  0  0  0  0  0  0  0  0  0
  -28.1743  -12.0636   18.7170 C   0  0  0  0  0  0  0  0  0  0  0  0
  -30.5286  -12.5848   19.4901 C   0  0  0  0  0  0  0  0  0  0  0  0
  -28.6208  -13.3085   20.8706 C   0  0  0  0  0  0  0  0  0  0  0  0
  -37.8614  -27.4490   21.0394 C   0  0  1  0  0  0  0  0  0  0  0  0
  -34.2611  -27.0059   22.1684 C   0  0  1  0  0  0  0  0  0  0  0  0
  -27.6485  -13.1349   19.6924 C   0  0  2  0  0  0  0  0  0  0  0  0
  -28.9837  -20.2163   23.2550 C   0  0  0  0  0  0  0  0  0  0  0  0
  -29.1387  -24.0539   27.1734 C   0  0  0  0  0  0  0  0  0  0  0  0
  -35.4942  -23.8571   25.3188 C   0  0  0  0  0  0  0  0  0  0  0  0
  -33.6178  -22.8751   26.6540 C   0  0  0  0  0  0  0  0  0  0  0  0
  -34.3789  -25.2077   27.1039 C   0  0  0  0  0  0  0  0  0  0  0  0
  -28.3522  -25.8702   23.9240 C   0  0  0  0  0  0  0  0  0  0  0  0
  -32.3313  -19.6550   19.5962 C   0  0  0  0  0  0  0  0  0  0  0  0
  -31.6642  -20.0139   18.2658 C   0  0  0  0  0  0  0  0  0  0  0  0
  -32.6781  -20.5939   17.2809 C   0  0  0  0  0  0  0  0  0  0  0  0
  -33.0805  -24.7132   24.9916 C   0  0  1  0  0  0  0  0  0  0  0  0
  -29.4296  -24.9545   25.9830 C   0  0  2  0  0  0  0  0  0  0  0  0
  -34.1406  -24.1662   25.9889 C   0  0  0  0  0  0  0  0  0  0  0  0
  -25.8617  -11.5429   20.2873 N   0  0  0  0  0  0  0  0  0  0  0  0
  -26.2382  -12.8266   20.1592 N   0  0  0  0  0  0  0  0  0  0  0  0
  -33.6299  -25.8994   22.8904 N   0  0  0  0  0  0  0  0  0  0  0  0
  -29.9688  -13.6154   20.3673 N   0  0  0  0  0  0  0  0  0  0  0  0
  -25.4708  -15.0538   20.4070 N   0  0  0  0  0  0  0  0  0  0  0  0
  -21.8862  -12.5781   21.5979 N   0  0  0  0  0  0  0  0  0  0  0  0
  -30.0785  -15.6946   21.4751 N   0  0  0  0  0  0  0  0  0  0  0  0
  -36.4540  -27.6055   21.3381 N   0  0  0  0  0  0  0  0  0  0  0  0
  -31.7971  -25.0402   25.6036 N   0  0  0  0  0  0  0  0  0  0  0  0
  -33.2660  -21.8123   17.8189 N   0  0  0  0  0  0  0  0  0  1  0  0
  -28.2147  -25.0013   25.1211 N   0  3  0  0  0  0  0  0  0  0  0  0
  -22.6612  -14.7182   21.3184 O   0  0  0  0  0  0  0  0  0  0  0  0
  -36.0950  -25.5270   22.3247 O   0  0  0  0  0  0  0  0  0  0  0  0
  -33.8141  -26.9686   24.9542 O   0  0  0  0  0  0  0  0  0  0  0  0
  -30.5198  -23.6176   24.2913 O   0  0  0  0  0  0  0  0  0  0  0  0
  -31.8558  -14.9390   20.1898 O   0  0  0  0  0  0  0  0  0  0  0  0
  -21.6150   -7.0148   21.7056 O   0  0  0  0  0  0  0  0  0  0  0  0
  -32.2023  -22.8133   17.7435 O   0  0  0  0  0  0  0  0  0  1  0  0
  -18.6221   -6.8550   26.3339 F   0  0  0  0  0  0  0  0  0  0  0  0
  -22.0653   -5.0713   23.6194 F   0  0  0  0  0  0  0  0  0  0  0  0
  -28.4034  -17.2256   23.4742 Cl  0  0  0  0  0  0  0  0  0  0  0  0
  1  2  1  0  0  0  0
  1  5  2  0  0  0  0
  2  6  2  0  0  0  0
  3  8  2  0  0  0  0
  3 17  1  0  0  0  0
  4  9  1  0  0  0  0
  4 17  2  0  0  0  0
  5 19  1  0  0  0  0
  6 21  1  0  0  0  0
  7 10  2  0  0  0  0
  7 20  1  0  0  0  0
  8 26  1  0  0  0  0
  9 26  2  0  0  0  0
 10 27  1  0  0  0  0
 11 12  2  0  0  0  0
 11 28  1  0  0  0  0
 12 29  1  0  0  0  0
 13 22  1  0  0  0  0
 13 27  2  0  0  0  0
 14 23  1  0  0  0  0
 14 24  2  0  0  0  0
 15 23  2  0  0  0  0
 15 25  1  0  0  0  0
 16 29  2  0  0  0  0
 16 30  1  0  0  0  0
 17 32  1  0  0  0  0
 18 32  1  0  0  0  0
 18 33  2  0  0  0  0
 18 34  1  0  0  0  0
 19 21  2  0  0  0  0
 19 39  1  0  0  0  0
 20 22  2  0  0  0  0
 20 40  1  0  0  0  0
 21 48  1  0  0  0  0
 22 41  1  0  0  0  0
 23 57  1  0  0  0  0
 24 31  1  0  0  0  0
 24 51  1  0  0  0  0
 25 31  2  0  0  0  0
 25 69  1  0  0  0  0
 26 79  1  0  0  0  0
 27 80  1  0  0  0  0
 28 30  2  0  0  0  0
 28 79  1  0  0  0  0
 29 81  1  0  0  0  0
 30 82  1  0  0  0  0
 31 83  1  0  0  0  0
 32 63  2  0  0  0  0
 33 64  1  0  0  0  0
 33 67  1  0  0  0  0
 34 68  1  0  0  0  0
 34 74  2  0  0  0  0
 35 49  1  0  0  0  0
 35 70  1  0  0  0  0
 35 75  2  0  0  0  0
 36 60  1  0  0  0  0
 36 65  1  0  0  0  0
 36 76  2  0  0  0  0
 37 61  1  0  0  0  0
 37 71  1  0  0  0  0
 37 77  2  0  0  0  0
 38 66  1  0  0  0  0
 38 69  1  0  0  0  0
 38 78  2  0  0  0  0
 39 42  1  0  0  0  0
 40 49  1  0  0  0  0
 41 65  1  0  0  0  0
 42 44  1  0  0  0  0
 43 45  1  0  0  0  0
 43 46  1  0  0  0  0
 44 48  1  0  0  0  0
 45 50  1  0  0  0  0
 46 66  1  0  0  0  0
 47 50  1  0  0  0  0
 47 66  1  0  0  0  0
 48 70  1  0  0  0  0
 49 65  1  0  0  0  0
 50 64  1  0  0  0  0
 52 61  1  0  0  0  0
 53 62  1  0  0  0  0
 54 62  1  0  0  0  0
 55 62  1  0  0  0  0
 56 73  1  0  0  0  0
 57 58  1  0  0  0  0
 58 59  1  0  0  0  0
 59 72  1  0  0  0  0
 60 62  1  0  0  0  0
 60 71  1  0  0  0  0
 61 73  1  0  0  0  0
 63 64  1  0  0  0  0
 72 80  1  0  0  0  0
M  CHG  1  73   1
M  ISO  4  38 100  69 100  72 101  80 101
M  END
> <Batch ID>
0101

> <Smiles>
CNC(C)C(=O)NC(C(=O)N1Cc2cc([101O:1][101NH:1]CCCc3cc(C)c(Cl)c([100NH:0][100C:0](=O)N4CCCC(n5nc(-c6ccc(Oc7ccc(F)cc7F)cc6)c(C(N)=O)c5N)C4)c3)ccc2CC1C(=O)NC1CCCc2ccccc21)C(C)(C)C

> <Shape>
0.185

> <Color>
0.205

> <Negative vol penalty>
0.000

$$$$

  -OEChem-04052319363D

 82 90  0     1  0  0  0  0  0999 V2000
  -17.1821  -30.0274   23.7249 C   0  0  0  0  0  0  0  0  0  0  0  0
  -18.1212  -29.8514   24.7361 C   0  0  0  0  0  0  0  0  0  0  0  0
  -26.7141  -17.7781   19.7638 C   0  0  0  0  0  0  0  0  0  0  0  0
  -28.4598  -17.8625   21.4320 C   0  0  0  0  0  0  0  0  0  0  0  0
  -17.2819  -29.2895   22.5462 C   0  0  0  0  0  0  0  0  0  0  0  0
  -19.1601  -28.9364   24.5696 C   0  0  0  0  0  0  0  0  0  0  0  0
  -26.0243  -27.9008   26.3378 C   0  0  0  0  0  0  0  0  0  0  0  0
  -26.7318  -16.3843   19.8158 C   0  0  0  0  0  0  0  0  0  0  0  0
  -28.4774  -16.4687   21.4840 C   0  0  0  0  0  0  0  0  0  0  0  0
  -26.8547  -26.9417   26.9161 C   0  0  0  0  0  0  0  0  0  0  0  0
  -26.0653  -12.8109   19.7727 C   0  0  0  0  0  0  0  0  0  0  0  0
  -24.8390  -12.1483   19.8232 C   0  0  0  0  0  0  0  0  0  0  0  0
  -26.9725  -25.7799   24.8053 C   0  0  0  0  0  0  0  0  0  0  0  0
  -24.3083  -13.2876   21.8866 C   0  0  0  0  0  0  0  0  0  0  0  0
  -31.5512  -26.0819   23.3568 C   0  0  0  0  0  0  0  0  0  0  0  0
  -33.4111  -25.7939   24.5033 C   0  0  0  0  0  0  0  0  0  0  0  0
  -27.5782  -18.5172   20.5718 C   0  0  0  0  0  0  0  0  0  0  0  0
  -26.7747  -20.8273   21.2969 C   0  0  0  0  0  0  0  0  0  0  0  0
  -18.3282  -28.3720   22.3612 C   0  0  0  0  0  0  0  0  0  0  0  0
  -25.6523  -27.8005   24.9895 C   0  0  0  0  0  0  0  0  0  0  0  0
  -19.2733  -28.1845   23.3878 C   0  0  0  0  0  0  0  0  0  0  0  0
  -26.1393  -26.7404   24.2117 C   0  0  0  0  0  0  0  0  0  0  0  0
  -27.6134  -15.7296   20.6759 C   0  0  0  0  0  0  0  0  0  0  0  0
  -27.3266  -25.8795   26.1505 C   0  0  0  0  0  0  0  0  0  0  0  0
  -26.4132  -13.7119   20.7792 C   0  0  0  0  0  0  0  0  0  0  0  0
  -23.9605  -12.3866   20.8801 C   0  0  0  0  0  0  0  0  0  0  0  0
  -25.5347  -13.9503   21.8361 C   0  0  0  0  0  0  0  0  0  0  0  0
  -27.5608  -19.9569   20.5181 C   0  0  0  0  0  0  0  0  0  0  0  0
  -32.6471  -26.0155   22.5291 C   0  0  0  0  0  0  0  0  0  0  0  0
  -27.1255  -22.0838   20.8674 C   0  0  0  0  0  0  0  0  0  0  0  0
  -25.8135  -20.5267   22.3174 C   0  0  0  0  0  0  0  0  0  0  0  0
  -22.8965  -27.4616   23.4421 C   0  0  0  0  0  0  0  0  0  0  0  0
  -24.7667  -27.8598   20.8218 C   0  0  0  0  0  0  0  0  0  0  0  0
  -27.8703  -27.6491   19.4184 C   0  0  0  0  0  0  0  0  0  0  0  0
  -31.7431  -25.0505   19.0260 C   0  0  0  0  0  0  0  0  0  0  0  0
  -18.3676  -27.5627   21.0891 C   0  0  0  0  0  0  0  0  0  0  0  0
  -24.7775  -28.8579   24.3738 C   0  0  0  0  0  0  0  0  0  0  0  0
  -25.7858  -26.5983   22.7545 C   0  0  0  0  0  0  0  0  0  0  0  0
  -19.7129  -26.8859   20.8392 C   0  0  0  0  0  0  0  0  0  0  0  0
  -29.2263  -23.9090   16.7811 C   0  0  0  0  0  0  0  0  0  0  0  0
  -20.2102  -26.2017   22.1086 C   0  0  0  0  0  0  0  0  0  0  0  0
  -28.4672  -22.8545   17.5883 C   0  0  0  0  0  0  0  0  0  0  0  0
  -30.7214  -23.8888   17.0913 C   0  0  0  0  0  0  0  0  0  0  0  0
  -30.2995  -22.9481   19.3298 C   0  0  0  0  0  0  0  0  0  0  0  0
  -20.4289  -27.2194   23.2345 C   0  0  1  0  0  0  0  0  0  0  0  0
  -24.0461  -28.3756   23.1249 C   0  0  1  0  0  0  0  0  0  0  0  0
  -28.7797  -22.9675   19.0926 C   0  0  2  0  0  0  0  0  0  0  0  0
  -29.0794  -28.0057   17.2485 C   0  0  0  0  0  0  0  0  0  0  0  0
  -31.1560  -24.9977   28.9894 C   0  0  0  0  0  0  0  0  0  0  0  0
  -23.5935  -25.2578   19.7433 C   0  0  0  0  0  0  0  0  0  0  0  0
  -25.4757  -25.1739   18.0946 C   0  0  0  0  0  0  0  0  0  0  0  0
  -23.8550  -27.0695   18.0393 C   0  0  0  0  0  0  0  0  0  0  0  0
  -29.6247  -29.7180   20.6021 C   0  0  0  0  0  0  0  0  0  0  0  0
  -32.6866  -26.1107   21.0619 C   0  0  0  0  0  0  0  0  0  0  0  0
  -31.0724  -24.5536   26.5231 C   0  0  0  0  0  0  0  0  0  0  0  0
  -31.2663  -25.9444   25.9031 C   0  0  0  0  0  0  0  0  0  0  0  0
  -28.9808  -25.3686   27.7810 C   0  0  0  0  0  0  0  0  0  1  0  0
  -25.5458  -26.9386   19.9144 C   0  0  1  0  0  0  0  0  0  0  0  0
  -28.6613  -28.6293   18.5710 C   0  0  2  0  0  0  0  0  0  0  0  0
  -30.2610  -24.5241   27.8371 C   0  0  2  0  0  0  0  0  0  0  0  0
  -24.6228  -26.1113   18.9758 C   0  0  0  0  0  0  0  0  0  0  0  0
  -33.8017  -25.8358   23.2489 N   0  0  0  0  0  0  0  0  0  0  0  0
  -28.3512  -20.6057   19.6589 N   0  0  0  0  0  0  0  0  0  0  0  0
  -32.0564  -25.9380   24.6183 N   0  0  0  0  0  0  0  0  0  0  0  0
  -28.0636  -21.8970   19.8951 N   0  0  0  0  0  0  0  0  0  0  0  0
  -24.9225  -27.6541   22.1999 N   0  0  0  0  0  0  0  0  0  0  0  0
  -30.9495  -24.0012   18.5339 N   0  0  0  0  0  0  0  0  0  0  0  0
  -26.7200  -23.3192   21.2303 N   0  0  0  0  0  0  0  0  0  0  0  0
  -25.5741  -19.1827   22.6348 N   0  0  0  0  0  0  0  0  0  0  0  0
  -21.6672  -27.9402   23.0308 N   0  0  0  0  0  0  0  0  0  0  0  0
  -26.5127  -27.7772   19.2142 N   0  0  0  0  0  0  0  0  0  0  0  0
  -31.9034  -25.0876   20.4057 N   0  0  0  0  0  0  0  0  0  0  0  0
  -29.8893  -29.0656   19.2939 N   0  3  0  0  0  0  0  0  0  0  0  0
  -25.1735  -21.4228   22.9181 O   0  0  0  0  0  0  0  0  0  0  0  0
  -23.1092  -26.4001   24.0162 O   0  0  0  0  0  0  0  0  0  0  0  0
  -24.0519  -28.7345   20.3262 O   0  0  0  0  0  0  0  0  0  0  0  0
  -28.4037  -26.8474   20.1820 O   0  0  0  0  0  0  0  0  0  0  0  0
  -32.2655  -25.8951   18.2906 O   0  0  0  0  0  0  0  0  0  0  0  0
  -27.6308  -14.3696   20.7271 O   0  0  0  0  0  0  0  0  0  0  0  0
  -28.1367  -24.9416   26.7126 O   0  0  0  0  0  0  0  0  0  1  0  0
  -22.7822  -11.7513   20.9277 F   0  0  0  0  0  0  0  0  0  0  0  0
  -25.8629  -14.8156   22.8052 F   0  0  0  0  0  0  0  0  0  0  0  0
  1  2  1  0  0  0  0
  1  5  2  0  0  0  0
  2  6  2  0  0  0  0
  3  8  2  0  0  0  0
  3 17  1  0  0  0  0
  4  9  1  0  0  0  0
  4 17  2  0  0  0  0
  5 19  1  0  0  0  0
  6 21  1  0  0  0  0
  7 10  2  0  0  0  0
  7 20  1  0  0  0  0
  8 23  1  0  0  0  0
  9 23  2  0  0  0  0
 10 24  1  0  0  0  0
 11 12  2  0  0  0  0
 11 25  1  0  0  0  0
 12 26  1  0  0  0  0
 13 22  1  0  0  0  0
 13 24  2  0  0  0  0
 14 26  2  0  0  0  0
 14 27  1  0  0  0  0
 15 29  2  0  0  0  0
 15 64  1  0  0  0  0
 16 62  2  0  0  0  0
 16 64  1  0  0  0  0
 17 28  1  0  0  0  0
 18 28  1  0  0  0  0
 18 30  2  0  0  0  0
 18 31  1  0  0  0  0
 19 21  2  0  0  0  0
 19 36  1  0  0  0  0
 20 22  2  0  0  0  0
 20 37  1  0  0  0  0
 21 45  1  0  0  0  0
 22 38  1  0  0  0  0
 23 79  1  0  0  0  0
 24 80  1  0  0  0  0
 25 27  2  0  0  0  0
 25 79  1  0  0  0  0
 26 81  1  0  0  0  0
 27 82  1  0  0  0  0
 28 63  2  0  0  0  0
 29 54  1  0  0  0  0
 29 62  1  0  0  0  0
 30 65  1  0  0  0  0
 30 68  1  0  0  0  0
 31 69  1  0  0  0  0
 31 74  2  0  0  0  0
 32 46  1  0  0  0  0
 32 70  1  0  0  0  0
 32 75  2  0  0  0  0
 33 58  1  0  0  0  0
 33 66  1  0  0  0  0
 33 76  2  0  0  0  0
 34 59  1  0  0  0  0
 34 71  1  0  0  0  0
 34 77  2  0  0  0  0
 35 67  1  0  0  0  0
 35 72  1  0  0  0  0
 35 78  2  0  0  0  0
 36 39  1  0  0  0  0
 37 46  1  0  0  0  0
 38 66  1  0  0  0  0
 39 41  1  0  0  0  0
 40 42  1  0  0  0  0
 40 43  1  0  0  0  0
 41 45  1  0  0  0  0
 42 47  1  0  0  0  0
 43 67  1  0  0  0  0
 44 47  1  0  0  0  0
 44 67  1  0  0  0  0
 45 70  1  0  0  0  0
 46 66  1  0  0  0  0
 47 65  1  0  0  0  0
 48 59  1  0  0  0  0
 49 60  1  0  0  0  0
 50 61  1  0  0  0  0
 51 61  1  0  0  0  0
 52 61  1  0  0  0  0
 53 73  1  0  0  0  0
 54 72  1  0  0  0  0
 55 56  1  0  0  0  0
 55 60  1  0  0  0  0
 56 64  1  0  0  0  0
 57 60  1  0  0  0  0
 57 80  1  0  0  0  0
 58 61  1  0  0  0  0
 58 71  1  0  0  0  0
 59 73  1  0  0  0  0
 63 65  1  0  0  0  0
M  CHG  1  73   1
M  ISO  4  35 100  57 101  72 100  80 101
M  END
> <Batch ID>
0101

> <Smiles>
CNC(C)C(=O)NC(C(=O)N1Cc2cc([101O:1][101CH2:1]C(C)CCn3cnc(C[100NH:0][100C:0](=O)N4CCCC(n5nc(-c6ccc(Oc7ccc(F)cc7F)cc6)c(C(N)=O)c5N)C4)c3)ccc2CC1C(=O)NC1CCCc2ccccc21)C(C)(C)C

> <Shape>
0.219

> <Color>
0.072

> <Negative vol penalty>
0.000

$$$$

  -OEChem-04052319363D

 84 92  0     1  0  0  0  0  0999 V2000
  -28.0049  -11.0242   19.6186 C   0  0  0  0  0  0  0  0  0  0  0  0
  -28.5437  -12.2695   19.3116 C   0  0  0  0  0  0  0  0  0  0  0  0
  -23.9446  -29.8395   22.5965 C   0  0  0  0  0  0  0  0  0  0  0  0
  -22.7872  -27.8228   21.9403 C   0  0  0  0  0  0  0  0  0  0  0  0
  -26.6496  -10.9086   19.9246 C   0  0  0  0  0  0  0  0  0  0  0  0
  -27.7272  -13.3999   19.3094 C   0  0  0  0  0  0  0  0  0  0  0  0
  -29.3029  -19.0826   20.9616 C   0  0  0  0  0  0  0  0  0  0  0  0
  -22.8829  -30.1755   23.4364 C   0  0  0  0  0  0  0  0  0  0  0  0
  -21.7255  -28.1589   22.7802 C   0  0  0  0  0  0  0  0  0  0  0  0
  -29.6824  -20.2028   20.2235 C   0  0  0  0  0  0  0  0  0  0  0  0
  -19.0635  -30.2423   22.7189 C   0  0  0  0  0  0  0  0  0  0  0  0
  -17.7700  -30.1036   22.2156 C   0  0  0  0  0  0  0  0  0  0  0  0
  -27.4098  -21.0089   20.2896 C   0  0  0  0  0  0  0  0  0  0  0  0
  -31.3182  -24.7151   18.6478 C   0  0  0  0  0  0  0  0  0  0  0  0
  -30.2468  -23.7459   16.7114 C   0  0  0  0  0  0  0  0  0  0  0  0
  -17.2555  -28.5270   23.9725 C   0  0  0  0  0  0  0  0  0  0  0  0
  -23.8968  -28.6631   21.8484 C   0  0  0  0  0  0  0  0  0  0  0  0
  -31.0735  -26.0145   16.6257 C   0  0  0  0  0  0  0  0  0  0  0  0
  -26.1307  -27.5551   21.3103 C   0  0  0  0  0  0  0  0  0  0  0  0
  -25.8181  -12.0396   19.9357 C   0  0  0  0  0  0  0  0  0  0  0  0
  -27.9695  -18.9114   21.3606 C   0  0  0  0  0  0  0  0  0  0  0  0
  -26.3592  -13.2991   19.6146 C   0  0  0  0  0  0  0  0  0  0  0  0
  -27.0164  -19.8869   21.0349 C   0  0  0  0  0  0  0  0  0  0  0  0
  -30.6855  -23.6359   18.0309 C   0  0  0  0  0  0  0  0  0  0  0  0
  -31.5122  -25.9044   17.9452 C   0  0  0  0  0  0  0  0  0  0  0  0
  -30.4408  -24.9352   16.0088 C   0  0  0  0  0  0  0  0  0  0  0  0
  -21.7733  -29.3352   23.5283 C   0  0  0  0  0  0  0  0  0  0  0  0
  -28.7353  -21.1648   19.8849 C   0  0  0  0  0  0  0  0  0  0  0  0
  -19.4530  -29.5233   23.8490 C   0  0  0  0  0  0  0  0  0  0  0  0
  -16.8660  -29.2459   22.8424 C   0  0  0  0  0  0  0  0  0  0  0  0
  -18.5490  -28.6657   24.4758 C   0  0  0  0  0  0  0  0  0  0  0  0
  -24.9930  -28.3157   20.9802 C   0  0  0  0  0  0  0  0  0  0  0  0
  -26.8632  -27.5115   20.1492 C   0  0  0  0  0  0  0  0  0  0  0  0
  -31.2768  -27.2587   15.8907 C   0  0  0  0  0  0  0  0  0  0  0  0
  -26.4929  -26.9427   22.5550 C   0  0  0  0  0  0  0  0  0  0  0  0
  -25.7164  -16.7443   20.7851 C   0  0  0  0  0  0  0  0  0  0  0  0
  -24.0590  -18.4515   22.9899 C   0  0  0  0  0  0  0  0  0  0  0  0
  -23.5887  -21.4257   24.5959 C   0  0  0  0  0  0  0  0  0  0  0  0
  -27.1810  -26.8453   14.6174 C   0  0  0  0  0  0  0  0  0  0  0  0
  -24.3494  -11.8580   20.2264 C   0  0  0  0  0  0  0  0  0  0  0  0
  -27.5815  -17.7108   22.1793 C   0  0  0  0  0  0  0  0  0  0  0  0
  -25.5760  -19.7603   21.4565 C   0  0  0  0  0  0  0  0  0  0  0  0
  -23.6305  -13.1605   20.5683 C   0  0  0  0  0  0  0  0  0  0  0  0
  -26.3387  -30.0863   15.8269 C   0  0  0  0  0  0  0  0  0  0  0  0
  -24.0075  -14.2549   19.5749 C   0  0  0  0  0  0  0  0  0  0  0  0
  -26.0015  -29.8507   17.3003 C   0  0  0  0  0  0  0  0  0  0  0  0
  -25.8767  -28.9249   14.9496 C   0  0  0  0  0  0  0  0  0  0  0  0
  -26.0199  -27.3617   16.8494 C   0  0  0  0  0  0  0  0  0  0  0  0
  -25.5110  -14.5523   19.6260 C   0  0  1  0  0  0  0  0  0  0  0  0
  -26.0940  -17.3832   22.0916 C   0  0  1  0  0  0  0  0  0  0  0  0
  -26.5162  -28.4806   17.7811 C   0  0  2  0  0  0  0  0  0  0  0  0
  -32.1930  -27.0430   18.6325 C   0  0  0  0  0  0  0  0  0  0  0  0
  -32.5514  -27.3995   15.1149 C   0  0  0  0  0  0  0  0  0  0  0  0
  -22.1331  -22.5253   26.3191 C   0  0  0  0  0  0  0  0  0  0  0  0
  -21.8055  -18.6686   20.9443 C   0  0  0  0  0  0  0  0  0  0  0  0
  -20.8305  -20.5205   22.3184 C   0  0  0  0  0  0  0  0  0  0  0  0
  -21.0488  -18.2323   23.2876 C   0  0  0  0  0  0  0  0  0  0  0  0
  -25.8946  -21.9560   26.3737 C   0  0  0  0  0  0  0  0  0  0  0  0
  -29.9584  -25.0233   14.5971 C   0  0  0  0  0  0  0  0  0  0  0  0
  -30.4759  -22.3573   18.7876 C   0  0  0  0  0  0  0  0  0  1  0  0
  -28.4630  -24.7275   14.4426 C   0  0  0  0  0  0  0  0  0  0  0  0
  -23.1235  -19.6354   22.9428 C   0  0  1  0  0  0  0  0  0  0  0  0
  -23.4234  -21.7609   26.0672 C   0  0  2  0  0  0  0  0  0  0  0  0
  -21.7288  -19.2659   22.3635 C   0  0  0  0  0  0  0  0  0  0  0  0
  -24.9979  -28.7259   19.7091 N   0  0  0  0  0  0  0  0  0  0  0  0
  -26.1477  -28.2213   19.2302 N   0  0  0  0  0  0  0  0  0  0  0  0
  -25.2446  -18.5653   22.2501 N   0  0  0  0  0  0  0  0  0  0  0  0
  -26.4003  -27.6551   15.4587 N   0  0  0  0  0  0  0  0  0  0  0  0
  -28.0431  -26.9358   19.8350 N   0  0  0  0  0  0  0  0  0  0  0  0
  -25.6263  -27.0856   23.6471 N   0  0  0  0  0  0  0  0  0  0  0  0
  -25.8262  -15.3669   20.7799 N   0  0  0  0  0  0  0  0  0  0  0  0
  -23.0836  -20.1781   24.2964 N   0  0  0  0  0  0  0  0  0  0  0  0
  -27.6427  -25.6619   15.1807 N   0  0  0  0  0  0  0  0  0  0  0  0
  -24.5640  -22.5956   26.5397 N   0  3  0  0  0  0  0  0  0  0  0  0
  -30.4822  -28.1972   15.8669 O   0  0  0  0  0  0  0  0  0  0  0  0
  -27.5617  -26.3020   22.6991 O   0  0  0  0  0  0  0  0  0  0  0  0
  -25.3511  -17.4488   19.8514 O   0  0  0  0  0  0  0  0  0  0  0  0
  -23.7525  -17.4650   23.6640 O   0  0  0  0  0  0  0  0  0  0  0  0
  -24.1100  -22.1953   23.7919 O   0  0  0  0  0  0  0  0  0  0  0  0
  -27.4512  -27.1565   13.4525 O   0  0  0  0  0  0  0  0  0  0  0  0
  -20.7372  -29.6627   24.3479 O   0  0  0  0  0  0  0  0  0  0  0  0
  -29.1029  -22.2588   19.1639 O   0  0  0  0  0  0  0  0  0  1  0  0
  -15.6235  -29.1140   22.3599 F   0  0  0  0  0  0  0  0  0  0  0  0
  -18.9171  -27.9732   25.5624 F   0  0  0  0  0  0  0  0  0  0  0  0
  1  2  1  0  0  0  0
  1  5  2  0  0  0  0
  2  6  2  0  0  0  0
  3  8  2  0  0  0  0
  3 17  1  0  0  0  0
  4  9  1  0  0  0  0
  4 17  2  0  0  0  0
  5 20  1  0  0  0  0
  6 22  1  0  0  0  0
  7 10  2  0  0  0  0
  7 21  1  0  0  0  0
  8 27  1  0  0  0  0
  9 27  2  0  0  0  0
 10 28  1  0  0  0  0
 11 12  2  0  0  0  0
 11 29  1  0  0  0  0
 12 30  1  0  0  0  0
 13 23  1  0  0  0  0
 13 28  2  0  0  0  0
 14 24  1  0  0  0  0
 14 25  2  0  0  0  0
 15 24  2  0  0  0  0
 15 26  1  0  0  0  0
 16 30  2  0  0  0  0
 16 31  1  0  0  0  0
 17 32  1  0  0  0  0
 18 25  1  0  0  0  0
 18 26  2  0  0  0  0
 18 34  1  0  0  0  0
 19 32  1  0  0  0  0
 19 33  2  0  0  0  0
 19 35  1  0  0  0  0
 20 22  2  0  0  0  0
 20 40  1  0  0  0  0
 21 23  2  0  0  0  0
 21 41  1  0  0  0  0
 22 49  1  0  0  0  0
 23 42  1  0  0  0  0
 24 60  1  0  0  0  0
 25 52  1  0  0  0  0
 26 59  1  0  0  0  0
 27 81  1  0  0  0  0
 28 82  1  0  0  0  0
 29 31  2  0  0  0  0
 29 81  1  0  0  0  0
 30 83  1  0  0  0  0
 31 84  1  0  0  0  0
 32 65  2  0  0  0  0
 33 66  1  0  0  0  0
 33 69  1  0  0  0  0
 34 53  1  0  0  0  0
 34 75  2  0  0  0  0
 35 70  1  0  0  0  0
 35 76  2  0  0  0  0
 36 50  1  0  0  0  0
 36 71  1  0  0  0  0
 36 77  2  0  0  0  0
 37 62  1  0  0  0  0
 37 67  1  0  0  0  0
 37 78  2  0  0  0  0
 38 63  1  0  0  0  0
 38 72  1  0  0  0  0
 38 79  2  0  0  0  0
 39 68  1  0  0  0  0
 39 73  1  0  0  0  0
 39 80  2  0  0  0  0
 40 43  1  0  0  0  0
 41 50  1  0  0  0  0
 42 67  1  0  0  0  0
 43 45  1  0  0  0  0
 44 46  1  0  0  0  0
 44 47  1  0  0  0  0
 45 49  1  0  0  0  0
 46 51  1  0  0  0  0
 47 68  1  0  0  0  0
 48 51  1  0  0  0  0
 48 68  1  0  0  0  0
 49 71  1  0  0  0  0
 50 67  1  0  0  0  0
 51 66  1  0  0  0  0
 54 63  1  0  0  0  0
 55 64  1  0  0  0  0
 56 64  1  0  0  0  0
 57 64  1  0  0  0  0
 58 74  1  0  0  0  0
 59 61  1  0  0  0  0
 60 82  1  0  0  0  0
 61 73  1  0  0  0  0
 62 64  1  0  0  0  0
 62 72  1  0  0  0  0
 63 74  1  0  0  0  0
 65 66  1  0  0  0  0
M  CHG  1  74   1
M  ISO  4  39 100  60 101  73 100  82 101
M  END
> <Batch ID>
0101

> <Smiles>
CNC(C)C(=O)NC(C(=O)N1Cc2cc([101O:1][101CH2:1]c3cc(C)c(C(C)=O)c(CC[100NH:0][100C:0](=O)N4CCCC(n5nc(-c6ccc(Oc7ccc(F)cc7F)cc6)c(C(N)=O)c5N)C4)c3)ccc2CC1C(=O)NC1CCCc2ccccc21)C(C)(C)C

> <Shape>
0.204

> <Color>
0.085

> <Negative vol penalty>
0.000

$$$$

  -OEChem-04052319363D

 86 94  0     1  0  0  0  0  0999 V2000
  -35.0796  -29.0468   20.4724 C   0  0  0  0  0  0  0  0  0  0  0  0
  -34.4180  -27.8635   20.7850 C   0  0  0  0  0  0  0  0  0  0  0  0
  -23.1858   -9.8001   19.8820 C   0  0  0  0  0  0  0  0  0  0  0  0
  -23.6253   -9.8692   22.2567 C   0  0  0  0  0  0  0  0  0  0  0  0
  -34.3565  -30.1501   20.0212 C   0  0  0  0  0  0  0  0  0  0  0  0
  -33.0327  -27.7834   20.6476 C   0  0  0  0  0  0  0  0  0  0  0  0
  -31.5483  -23.4939   18.4021 C   0  0  0  0  0  0  0  0  0  0  0  0
  -22.4415   -8.6330   20.0537 C   0  0  0  0  0  0  0  0  0  0  0  0
  -22.8810   -8.7021   22.4284 C   0  0  0  0  0  0  0  0  0  0  0  0
  -31.5304  -22.3394   19.1835 C   0  0  0  0  0  0  0  0  0  0  0  0
  -21.3978   -5.5431   23.4437 C   0  0  0  0  0  0  0  0  0  0  0  0
  -21.9311   -4.5488   24.2638 C   0  0  0  0  0  0  0  0  0  0  0  0
  -29.1473  -22.5784   19.4712 C   0  0  0  0  0  0  0  0  0  0  0  0
  -23.8552   -4.3834   22.8120 C   0  0  0  0  0  0  0  0  0  0  0  0
  -23.7777  -10.4182   20.9835 C   0  0  0  0  0  0  0  0  0  0  0  0
  -24.0745  -12.9486   20.8558 C   0  0  0  0  0  0  0  0  0  0  0  0
  -32.9627  -30.0804   19.8689 C   0  0  0  0  0  0  0  0  0  0  0  0
  -30.3656  -24.2066   18.1581 C   0  0  0  0  0  0  0  0  0  0  0  0
  -32.2901  -28.8872   20.1951 C   0  0  0  0  0  0  0  0  0  0  0  0
  -29.1525  -23.7403   18.6843 C   0  0  0  0  0  0  0  0  0  0  0  0
  -22.2891   -8.0840   21.3269 C   0  0  0  0  0  0  0  0  0  0  0  0
  -30.3302  -21.8831   19.7206 C   0  0  0  0  0  0  0  0  0  0  0  0
  -22.0932   -5.9575   22.3076 C   0  0  0  0  0  0  0  0  0  0  0  0
  -23.1598   -3.9690   23.9480 C   0  0  0  0  0  0  0  0  0  0  0  0
  -23.3218   -5.3776   21.9918 C   0  0  0  0  0  0  0  0  0  0  0  0
  -24.5472  -11.6235   20.8066 C   0  0  0  0  0  0  0  0  0  0  0  0
  -25.1884  -13.7192   20.6280 C   0  0  0  0  0  0  0  0  0  0  0  0
  -22.7472  -13.4392   21.0867 C   0  0  0  0  0  0  0  0  0  0  0  0
  -29.3398  -27.1426   18.8149 C   0  0  0  0  0  0  0  0  0  0  0  0
  -26.8106  -26.2464   16.9922 C   0  0  0  0  0  0  0  0  0  0  0  0
  -24.9045  -23.7146   15.7259 C   0  0  0  0  0  0  0  0  0  0  0  0
  -29.7829  -14.4348   17.3515 C   0  0  0  0  0  0  0  0  0  0  0  0
  -32.2186  -31.3141   19.4229 C   0  0  0  0  0  0  0  0  0  0  0  0
  -30.3976  -25.4353   17.2910 C   0  0  0  0  0  0  0  0  0  0  0  0
  -27.8519  -24.4578   18.4351 C   0  0  0  0  0  0  0  0  0  0  0  0
  -30.7962  -31.0289   18.9476 C   0  0  0  0  0  0  0  0  0  0  0  0
  -30.0861  -12.5041   20.4997 C   0  0  0  0  0  0  0  0  0  0  0  0
  -30.0797  -30.1077   19.9298 C   0  0  0  0  0  0  0  0  0  0  0  0
  -28.6327  -12.1526   20.8130 C   0  0  0  0  0  0  0  0  0  0  0  0
  -30.3159  -12.6793   19.0019 C   0  0  0  0  0  0  0  0  0  0  0  0
  -28.9117  -15.7126   15.4188 C   0  0  0  0  0  0  0  0  0  0  0  0
  -27.9477  -13.3199   18.6793 C   0  0  0  0  0  0  0  0  0  0  0  0
  -27.9682  -16.1815   17.6475 C   0  0  0  0  0  0  0  0  0  0  0  0
  -29.3444  -17.1602   15.2521 C   0  0  0  0  0  0  0  0  0  0  0  0
  -30.7912  -28.7534   20.0354 C   0  0  1  0  0  0  0  0  0  0  0  0
  -29.2152  -26.3684   17.5332 C   0  0  1  0  0  0  0  0  0  0  0  0
  -27.6738  -13.1782   20.1843 C   0  0  1  0  0  0  0  0  0  0  0  0
  -28.3721  -17.6604   17.5505 C   0  0  1  0  0  0  0  0  0  0  0  0
  -33.9637  -16.2368   21.3382 C   0  0  0  0  0  0  0  0  0  0  0  0
  -23.1266  -22.6047   14.3460 C   0  0  0  0  0  0  0  0  0  0  0  0
  -27.7816  -20.3208   16.7266 C   0  0  0  0  0  0  0  0  0  0  0  0
  -28.5015  -19.8011   14.3632 C   0  0  0  0  0  0  0  0  0  0  0  0
  -25.0074  -27.0672   19.3127 C   0  0  0  0  0  0  0  0  0  0  0  0
  -23.1535  -25.7717   18.2390 C   0  0  0  0  0  0  0  0  0  0  0  0
  -24.1609  -27.7207   17.0520 C   0  0  0  0  0  0  0  0  0  0  0  0
  -26.7193  -23.4314   13.4053 C   0  0  0  0  0  0  0  0  0  0  0  0
  -29.6835  -17.9521   18.2795 C   0  0  0  0  0  0  0  0  0  0  0  0
  -32.8914  -17.2895   21.5793 C   0  0  0  0  0  0  0  0  0  0  0  0
  -29.4644  -18.0491   19.7889 C   0  0  0  0  0  0  0  0  0  0  0  0
  -31.8592  -17.2984   20.4485 C   0  0  0  0  0  0  0  0  0  0  0  0
  -31.2875  -19.7584   20.1951 C   0  0  0  0  0  0  0  0  0  1  0  0
  -25.4844  -25.5766   17.2593 C   0  0  1  0  0  0  0  0  0  0  0  0
  -24.3958  -23.4420   14.3219 C   0  0  2  0  0  0  0  0  0  0  0  0
  -30.7545  -18.3682   20.5782 C   0  0  1  0  0  0  0  0  0  0  0  0
  -28.7106  -19.5072   15.8400 C   0  0  0  0  0  0  0  0  0  0  0  0
  -24.4762  -26.5214   17.9723 C   0  0  0  0  0  0  0  0  0  0  0  0
  -25.8591  -11.5526   20.5664 N   0  0  0  0  0  0  0  0  0  0  0  0
  -26.2203  -12.8429   20.4624 N   0  0  0  0  0  0  0  0  0  0  0  0
  -27.9360  -25.6578   17.5863 N   0  0  0  0  0  0  0  0  0  0  0  0
  -29.3631  -13.6239   18.4187 N   0  0  0  0  0  0  0  0  0  0  0  0
  -28.8406  -15.3322   16.8271 N   0  0  0  0  0  0  0  0  0  0  0  0
  -25.3761  -15.0541   20.5551 N   0  0  0  0  0  0  0  0  0  0  0  0
  -21.7200  -12.5106   21.3032 N   0  0  0  0  0  0  0  0  0  0  0  0
  -30.4756  -27.9261   18.8908 N   0  0  0  0  0  0  0  0  0  0  0  0
  -25.0188  -25.0660   15.9744 N   0  0  0  0  0  0  0  0  0  0  0  0
  -28.4400  -18.0467   16.0789 N   0  3  1  0  0  0  0  0  0  0  0  0
  -25.4259  -22.7115   13.5305 N   0  3  0  0  0  0  0  0  0  0  0  0
  -22.4771  -14.6642   21.0845 O   0  0  0  0  0  0  0  0  0  0  0  0
  -28.4693  -27.0382   19.6710 O   0  0  0  0  0  0  0  0  0  0  0  0
  -26.8477  -27.2506   16.2768 O   0  0  0  0  0  0  0  0  0  0  0  0
  -25.1702  -22.8183   16.5239 O   0  0  0  0  0  0  0  0  0  0  0  0
  -30.9330  -14.3652   16.9003 O   0  0  0  0  0  0  0  0  0  0  0  0
  -21.5627   -6.9452   21.4949 O   0  0  0  0  0  0  0  0  0  0  0  0
  -30.3099  -20.7492   20.4893 O   0  0  0  0  0  0  0  0  0  1  0  0
  -23.6726   -3.0153   24.7365 F   0  0  0  0  0  0  0  0  0  0  0  0
  -23.9950   -5.7724   20.9024 F   0  0  0  0  0  0  0  0  0  0  0  0
  1  2  1  0  0  0  0
  1  5  2  0  0  0  0
  2  6  2  0  0  0  0
  3  8  2  0  0  0  0
  3 15  1  0  0  0  0
  4  9  1  0  0  0  0
  4 15  2  0  0  0  0
  5 17  1  0  0  0  0
  6 19  1  0  0  0  0
  7 10  2  0  0  0  0
  7 18  1  0  0  0  0
  8 21  1  0  0  0  0
  9 21  2  0  0  0  0
 10 22  1  0  0  0  0
 11 12  2  0  0  0  0
 11 23  1  0  0  0  0
 12 24  1  0  0  0  0
 13 20  1  0  0  0  0
 13 22  2  0  0  0  0
 14 24  2  0  0  0  0
 14 25  1  0  0  0  0
 15 26  1  0  0  0  0
 16 26  1  0  0  0  0
 16 27  2  0  0  0  0
 16 28  1  0  0  0  0
 17 19  2  0  0  0  0
 17 33  1  0  0  0  0
 18 20  2  0  0  0  0
 18 34  1  0  0  0  0
 19 45  1  0  0  0  0
 20 35  1  0  0  0  0
 21 83  1  0  0  0  0
 22 84  1  0  0  0  0
 23 25  2  0  0  0  0
 23 83  1  0  0  0  0
 24 85  1  0  0  0  0
 25 86  1  0  0  0  0
 26 67  2  0  0  0  0
 27 68  1  0  0  0  0
 27 72  1  0  0  0  0
 28 73  1  0  0  0  0
 28 78  2  0  0  0  0
 29 46  1  0  0  0  0
 29 74  1  0  0  0  0
 29 79  2  0  0  0  0
 30 62  1  0  0  0  0
 30 69  1  0  0  0  0
 30 80  2  0  0  0  0
 31 63  1  0  0  0  0
 31 75  1  0  0  0  0
 31 81  2  0  0  0  0
 32 70  1  0  0  0  0
 32 71  1  0  0  0  0
 32 82  2  0  0  0  0
 33 36  1  0  0  0  0
 34 46  1  0  0  0  0
 35 69  1  0  0  0  0
 36 38  1  0  0  0  0
 37 39  1  0  0  0  0
 37 40  1  0  0  0  0
 38 45  1  0  0  0  0
 39 47  1  0  0  0  0
 40 70  1  0  0  0  0
 41 44  1  0  0  0  0
 41 71  1  0  0  0  0
 42 47  1  0  0  0  0
 42 70  1  0  0  0  0
 43 48  1  0  0  0  0
 43 71  1  0  0  0  0
 44 76  1  0  0  0  0
 45 74  1  0  0  0  0
 46 69  1  0  0  0  0
 47 68  1  0  0  0  0
 48 57  1  0  0  0  0
 48 76  1  0  0  0  0
 49 58  1  0  0  0  0
 50 63  1  0  0  0  0
 51 65  1  0  0  0  0
 52 65  1  0  0  0  0
 53 66  1  0  0  0  0
 54 66  1  0  0  0  0
 55 66  1  0  0  0  0
 56 77  1  0  0  0  0
 57 59  1  0  0  0  0
 58 60  1  0  0  0  0
 59 64  1  0  0  0  0
 60 64  1  0  0  0  0
 61 64  1  0  0  0  0
 61 84  1  0  0  0  0
 62 66  1  0  0  0  0
 62 75  1  0  0  0  0
 63 77  1  0  0  0  0
 65 76  1  0  0  0  0
 67 68  1  0  0  0  0
M  CHG  2  76   1  77   1
M  ISO  4  32 100  61 101  71 100  84 101
M  END
> <Batch ID>
0101

> <Smiles>
CCCC(CCC1C[100N:0]([100C:0](=O)N2CCCC(n3nc(-c4ccc(Oc5ccc(F)cc5F)cc4)c(C(N)=O)c3N)C2)CCN1C(C)C)[101CH2:1][101O:1]c1ccc2c(c1)CN(C(=O)C(NC(=O)C(C)NC)C(C)(C)C)C(C(=O)NC1CCCc3ccccc31)C2

> <Shape>
0.243

> <Color>
0.196

> <Negative vol penalty>
0.000

$$$$

  -OEChem-04052319363D

 90 98  0     1  0  0  0  0  0999 V2000
  -22.4219   -8.1332   20.6417 C   0  0  0  0  0  0  0  0  0  0  0  0
  -21.8085   -9.3733   20.7879 C   0  0  0  0  0  0  0  0  0  0  0  0
  -23.7826  -30.1792   19.6072 C   0  0  0  0  0  0  0  0  0  0  0  0
  -24.2527  -30.1375   21.9767 C   0  0  0  0  0  0  0  0  0  0  0  0
  -23.7484   -7.9622   21.0352 C   0  0  0  0  0  0  0  0  0  0  0  0
  -22.5211  -10.4429   21.3288 C   0  0  0  0  0  0  0  0  0  0  0  0
  -22.0110  -16.3526   19.8054 C   0  0  0  0  0  0  0  0  0  0  0  0
  -22.8228  -31.1697   19.8150 C   0  0  0  0  0  0  0  0  0  0  0  0
  -23.2929  -31.1281   22.1845 C   0  0  0  0  0  0  0  0  0  0  0  0
  -21.3198  -17.4148   20.3865 C   0  0  0  0  0  0  0  0  0  0  0  0
  -23.0607  -34.4814   21.8350 C   0  0  0  0  0  0  0  0  0  0  0  0
  -23.3971  -35.5411   22.6773 C   0  0  0  0  0  0  0  0  0  0  0  0
  -23.3266  -18.0758   21.5506 C   0  0  0  0  0  0  0  0  0  0  0  0
  -21.5602  -34.9642   24.1368 C   0  0  0  0  0  0  0  0  0  0  0  0
  -23.9358  -20.8866   25.1611 C   0  0  0  0  0  0  0  0  0  0  0  0
  -24.4975  -29.6630   20.6880 C   0  0  0  0  0  0  0  0  0  0  0  0
  -26.8581  -28.8248   20.2059 C   0  0  0  0  0  0  0  0  0  0  0  0
  -24.4806   -9.0328   21.5723 C   0  0  0  0  0  0  0  0  0  0  0  0
  -23.3646  -16.1372   20.1014 C   0  0  0  0  0  0  0  0  0  0  0  0
  -23.8583  -10.2857   21.7311 C   0  0  0  0  0  0  0  0  0  0  0  0
  -24.0333  -17.0117   20.9699 C   0  0  0  0  0  0  0  0  0  0  0  0
  -24.9084  -21.8164   25.4555 C   0  0  0  0  0  0  0  0  0  0  0  0
  -24.5344  -22.4511   26.6656 C   0  0  0  0  0  0  0  0  0  0  0  0
  -22.5780  -31.6443   21.1036 C   0  0  0  0  0  0  0  0  0  0  0  0
  -21.9768  -18.2749   21.2616 C   0  0  0  0  0  0  0  0  0  0  0  0
  -21.9740  -33.6632   22.1436 C   0  0  0  0  0  0  0  0  0  0  0  0
  -22.6469  -35.7825   23.8283 C   0  0  0  0  0  0  0  0  0  0  0  0
  -21.2238  -33.9045   23.2945 C   0  0  0  0  0  0  0  0  0  0  0  0
  -25.4886  -28.6393   20.4741 C   0  0  0  0  0  0  0  0  0  0  0  0
  -23.3448  -21.8896   27.0740 C   0  0  0  0  0  0  0  0  0  0  0  0
  -27.3598  -27.5519   20.0848 C   0  0  0  0  0  0  0  0  0  0  0  0
  -27.6096  -30.0391   20.0777 C   0  0  0  0  0  0  0  0  0  0  0  0
  -25.0181  -13.7829   21.4531 C   0  0  0  0  0  0  0  0  0  0  0  0
  -27.5639  -15.5935   20.5795 C   0  0  0  0  0  0  0  0  0  0  0  0
  -28.7891  -18.6781   19.7850 C   0  0  0  0  0  0  0  0  0  0  0  0
  -25.5879  -22.2499   22.2296 C   0  0  0  0  0  0  0  0  0  0  0  0
  -25.8975   -8.7874   22.0272 C   0  0  0  0  0  0  0  0  0  0  0  0
  -24.1029  -15.0027   19.4455 C   0  0  0  0  0  0  0  0  0  0  0  0
  -25.4912  -16.8359   21.3048 C   0  0  0  0  0  0  0  0  0  0  0  0
  -26.6981  -10.0689   22.2442 C   0  0  0  0  0  0  0  0  0  0  0  0
  -26.0696  -23.1241   18.8119 C   0  0  0  0  0  0  0  0  0  0  0  0
  -25.8816  -11.0796   23.0433 C   0  0  0  0  0  0  0  0  0  0  0  0
  -26.0989  -24.6534   18.8262 C   0  0  0  0  0  0  0  0  0  0  0  0
  -25.0733  -22.5692   19.8276 C   0  0  0  0  0  0  0  0  0  0  0  0
  -25.2836  -24.5918   21.2200 C   0  0  0  0  0  0  0  0  0  0  0  0
  -24.6058  -11.4766   22.2908 C   0  0  1  0  0  0  0  0  0  0  0  0
  -25.3463  -14.5731   20.2179 C   0  0  1  0  0  0  0  0  0  0  0  0
  -26.3142  -25.1969   20.2515 C   0  0  2  0  0  0  0  0  0  0  0  0
  -24.1393  -25.4860   26.1816 C   0  0  0  0  0  0  0  0  0  0  0  0
  -26.6715  -23.0340   27.8420 C   0  0  0  0  0  0  0  0  0  0  0  0
  -21.9741  -23.6227   28.2871 C   0  0  0  0  0  0  0  0  0  0  0  0
  -23.2444  -21.8800   29.5927 C   0  0  0  0  0  0  0  0  0  0  0  0
  -30.9163  -19.8500   19.1535 C   0  0  0  0  0  0  0  0  0  0  0  0
  -28.4970  -15.4582   23.4814 C   0  0  0  0  0  0  0  0  0  0  0  0
  -30.0377  -17.3726   23.0022 C   0  0  0  0  0  0  0  0  0  0  0  0
  -30.3199  -15.2126   21.7868 C   0  0  0  0  0  0  0  0  0  0  0  0
  -19.3819  -19.5326   25.5925 C   0  0  0  0  0  0  0  0  0  0  0  0
  -20.0703  -21.9219   25.6654 C   0  0  0  0  0  0  0  0  0  0  0  0
  -27.6809  -19.5318   17.1769 C   0  0  0  0  0  0  0  0  0  0  0  0
  -26.1146  -22.0925   24.6497 C   0  0  0  0  0  0  0  0  0  0  0  0
  -25.4668  -24.8265   26.5349 C   0  0  0  0  0  0  0  0  0  0  0  0
  -21.7523  -20.0742   26.2021 C   0  0  0  0  0  0  0  0  0  0  0  0
  -20.8916  -20.4832   23.7863 C   0  0  0  0  0  0  0  0  0  0  0  0
  -25.2808  -23.5186   27.3630 C   0  0  1  0  0  0  0  0  0  0  0  0
  -22.5139  -22.1747   28.2630 C   0  0  0  0  0  0  0  0  0  0  0  0
  -28.3575  -16.7041   21.2243 C   0  0  1  0  0  0  0  0  0  0  0  0
  -29.6683  -19.1485   18.6404 C   0  0  2  0  0  0  0  0  0  0  0  0
  -29.2751  -16.1893   22.3691 C   0  0  0  0  0  0  0  0  0  0  0  0
  -20.5522  -20.5012   25.3021 C   0  0  0  0  0  0  0  0  0  0  0  0
  -25.1423  -27.3502   20.5207 N   0  0  0  0  0  0  0  0  0  0  0  0
  -22.9905  -20.9396   26.1519 N   0  0  0  0  0  0  0  0  0  0  0  0
  -26.3014  -26.7141   20.2800 N   0  0  0  0  0  0  0  0  0  0  0  0
  -26.1679  -15.7082   20.6430 N   0  0  0  0  0  0  0  0  0  0  0  0
  -25.3331  -23.1226   21.1588 N   0  0  0  0  0  0  0  0  0  0  0  0
  -28.5985  -27.0789   19.8315 N   0  0  0  0  0  0  0  0  0  0  0  0
  -26.9382  -31.2597   20.2316 N   0  0  0  0  0  0  0  0  0  0  0  0
  -24.9129  -12.4218   21.2388 N   0  0  0  0  0  0  0  0  0  0  0  0
  -29.0705  -17.3768   20.1438 N   0  0  0  0  0  0  0  0  0  0  0  0
  -25.8305  -22.8570   23.4557 N   0  0  0  0  0  0  0  0  0  0  0  0
  -21.3230  -19.1852   23.2877 N   0  0  0  0  0  0  0  0  0  1  0  0
  -28.9202  -20.0981   17.7689 N   0  3  0  0  0  0  0  0  0  0  0  0
  -28.8367  -30.0419   19.8176 O   0  0  0  0  0  0  0  0  0  0  0  0
  -24.8726  -14.3648   22.5217 O   0  0  0  0  0  0  0  0  0  0  0  0
  -28.1605  -14.6623   20.0331 O   0  0  0  0  0  0  0  0  0  0  0  0
  -27.9402  -19.3947   20.3109 O   0  0  0  0  0  0  0  0  0  0  0  0
  -25.6036  -21.0210   22.1013 O   0  0  0  0  0  0  0  0  0  0  0  0
  -21.6417  -32.6110   21.3067 O   0  0  0  0  0  0  0  0  0  0  0  0
  -21.3044  -19.3120   21.8307 O   0  0  0  0  0  0  0  0  0  1  0  0
  -22.9711  -36.7992   24.6378 F   0  0  0  0  0  0  0  0  0  0  0  0
  -20.1794  -33.1211   23.5968 F   0  0  0  0  0  0  0  0  0  0  0  0
  1  2  1  0  0  0  0
  1  5  2  0  0  0  0
  2  6  2  0  0  0  0
  3  8  2  0  0  0  0
  3 16  1  0  0  0  0
  4  9  1  0  0  0  0
  4 16  2  0  0  0  0
  5 18  1  0  0  0  0
  6 20  1  0  0  0  0
  7 10  2  0  0  0  0
  7 19  1  0  0  0  0
  8 24  1  0  0  0  0
  9 24  2  0  0  0  0
 10 25  1  0  0  0  0
 11 12  2  0  0  0  0
 11 26  1  0  0  0  0
 12 27  1  0  0  0  0
 13 21  1  0  0  0  0
 13 25  2  0  0  0  0
 14 27  2  0  0  0  0
 14 28  1  0  0  0  0
 15 22  2  0  0  0  0
 15 71  1  0  0  0  0
 16 29  1  0  0  0  0
 17 29  1  0  0  0  0
 17 31  2  0  0  0  0
 17 32  1  0  0  0  0
 18 20  2  0  0  0  0
 18 37  1  0  0  0  0
 19 21  2  0  0  0  0
 19 38  1  0  0  0  0
 20 46  1  0  0  0  0
 21 39  1  0  0  0  0
 22 23  1  0  0  0  0
 22 60  1  0  0  0  0
 23 30  2  0  0  0  0
 23 64  1  0  0  0  0
 24 87  1  0  0  0  0
 25 88  1  0  0  0  0
 26 28  2  0  0  0  0
 26 87  1  0  0  0  0
 27 89  1  0  0  0  0
 28 90  1  0  0  0  0
 29 70  2  0  0  0  0
 30 65  1  0  0  0  0
 30 71  1  0  0  0  0
 31 72  1  0  0  0  0
 31 75  1  0  0  0  0
 32 76  1  0  0  0  0
 32 82  2  0  0  0  0
 33 47  1  0  0  0  0
 33 77  1  0  0  0  0
 33 83  2  0  0  0  0
 34 66  1  0  0  0  0
 34 73  1  0  0  0  0
 34 84  2  0  0  0  0
 35 67  1  0  0  0  0
 35 78  1  0  0  0  0
 35 85  2  0  0  0  0
 36 74  1  0  0  0  0
 36 79  1  0  0  0  0
 36 86  2  0  0  0  0
 37 40  1  0  0  0  0
 38 47  1  0  0  0  0
 39 73  1  0  0  0  0
 40 42  1  0  0  0  0
 41 43  1  0  0  0  0
 41 44  1  0  0  0  0
 42 46  1  0  0  0  0
 43 48  1  0  0  0  0
 44 74  1  0  0  0  0
 45 48  1  0  0  0  0
 45 74  1  0  0  0  0
 46 77  1  0  0  0  0
 47 73  1  0  0  0  0
 48 72  1  0  0  0  0
 49 61  1  0  0  0  0
 50 64  1  0  0  0  0
 51 65  1  0  0  0  0
 52 65  1  0  0  0  0
 53 67  1  0  0  0  0
 54 68  1  0  0  0  0
 55 68  1  0  0  0  0
 56 68  1  0  0  0  0
 57 69  1  0  0  0  0
 58 69  1  0  0  0  0
 59 81  1  0  0  0  0
 60 79  1  0  0  0  0
 61 64  1  0  0  0  0
 62 69  1  0  0  0  0
 62 71  1  0  0  0  0
 63 69  1  0  0  0  0
 63 80  1  0  0  0  0
 66 68  1  0  0  0  0
 66 78  1  0  0  0  0
 67 81  1  0  0  0  0
 70 72  1  0  0  0  0
 80 88  1  0  0  0  0
M  CHG  1  81   1
M  ISO  4  36 100  79 100  80 101  88 101
M  END
> <Batch ID>
0101

> <Smiles>
CCC(C)c1c(C[100NH:0][100C:0](=O)N2CCCC(n3nc(-c4ccc(Oc5ccc(F)cc5F)cc4)c(C(N)=O)c3N)C2)cn(CC(C)(C)C[101NH:1][101O:1]c2ccc3c(c2)CN(C(=O)C(NC(=O)C(C)NC)C(C)(C)C)C(C(=O)NC2CCCc4ccccc42)C3)c1C(C)C

> <Shape>
0.190

> <Color>
0.052

> <Negative vol penalty>
0.000

$$$$

  -OEChem-04052319363D

 82 90  0     1  0  0  0  0  0999 V2000
  -27.5179  -24.1208   17.2527 C   0  0  0  0  0  0  0  0  0  0  0  0
  -26.3465  -24.4701   17.9170 C   0  0  0  0  0  0  0  0  0  0  0  0
  -23.9636  -13.9005   22.4987 C   0  0  0  0  0  0  0  0  0  0  0  0
  -23.3419  -14.8754   20.3773 C   0  0  0  0  0  0  0  0  0  0  0  0
  -28.7507  -24.5470   17.7452 C   0  0  0  0  0  0  0  0  0  0  0  0
  -26.4073  -25.2448   19.0748 C   0  0  0  0  0  0  0  0  0  0  0  0
  -22.9629  -28.9569   19.1114 C   0  0  0  0  0  0  0  0  0  0  0  0
  -24.1920  -12.6768   21.8694 C   0  0  0  0  0  0  0  0  0  0  0  0
  -23.5703  -13.6517   19.7480 C   0  0  0  0  0  0  0  0  0  0  0  0
  -21.6507  -28.6049   19.4245 C   0  0  0  0  0  0  0  0  0  0  0  0
  -22.3505  -10.0898   20.7116 C   0  0  0  0  0  0  0  0  0  0  0  0
  -21.8484   -8.9424   21.3256 C   0  0  0  0  0  0  0  0  0  0  0  0
  -21.9835  -29.3941   21.6796 C   0  0  0  0  0  0  0  0  0  0  0  0
  -24.0882   -8.0524   21.4940 C   0  0  0  0  0  0  0  0  0  0  0  0
  -23.5384  -14.9998   21.7526 C   0  0  0  0  0  0  0  0  0  0  0  0
  -24.2307  -17.3017   22.6066 C   0  0  0  0  0  0  0  0  0  0  0  0
  -28.8260  -25.3355   18.9042 C   0  0  0  0  0  0  0  0  0  0  0  0
  -23.8000  -29.5211   20.0847 C   0  0  0  0  0  0  0  0  0  0  0  0
  -27.6423  -25.6808   19.5840 C   0  0  0  0  0  0  0  0  0  0  0  0
  -23.3051  -29.7547   21.3756 C   0  0  0  0  0  0  0  0  0  0  0  0
  -23.9954  -12.5524   20.4941 C   0  0  0  0  0  0  0  0  0  0  0  0
  -21.1617  -28.8208   20.7095 C   0  0  0  0  0  0  0  0  0  0  0  0
  -23.7215  -10.2185   20.4887 C   0  0  0  0  0  0  0  0  0  0  0  0
  -22.7173   -7.9237   21.7169 C   0  0  0  0  0  0  0  0  0  0  0  0
  -24.5903   -9.1998   20.8799 C   0  0  0  0  0  0  0  0  0  0  0  0
  -23.3018  -16.2640   22.4022 C   0  0  0  0  0  0  0  0  0  0  0  0
  -23.5184  -18.2760   23.2622 C   0  0  0  0  0  0  0  0  0  0  0  0
  -25.6139  -17.3782   22.2370 C   0  0  0  0  0  0  0  0  0  0  0  0
  -26.5355  -28.6659   21.4593 C   0  0  0  0  0  0  0  0  0  0  0  0
  -26.3288  -31.6104   22.8045 C   0  0  0  0  0  0  0  0  0  0  0  0
  -24.3569  -34.2250   23.7648 C   0  0  0  0  0  0  0  0  0  0  0  0
  -18.9077  -21.3629   23.8607 C   0  0  0  0  0  0  0  0  0  0  0  0
  -30.1845  -25.7327   19.4250 C   0  0  0  0  0  0  0  0  0  0  0  0
  -25.2047  -29.9199   19.7237 C   0  0  0  0  0  0  0  0  0  0  0  0
  -24.1569  -30.3762   22.4511 C   0  0  0  0  0  0  0  0  0  0  0  0
  -30.1376  -26.8649   20.4479 C   0  0  0  0  0  0  0  0  0  0  0  0
  -18.9223  -18.1384   25.3702 C   0  0  0  0  0  0  0  0  0  0  0  0
  -29.0502  -26.6025   21.4850 C   0  0  0  0  0  0  0  0  0  0  0  0
  -20.8049  -25.6738   24.4139 C   0  0  0  0  0  0  0  0  0  0  0  0
  -20.1360  -25.7626   21.9784 C   0  0  0  0  0  0  0  0  0  0  0  0
  -20.1353  -17.4473   24.7450 C   0  0  0  0  0  0  0  0  0  0  0  0
  -20.3957  -24.2029   24.5533 C   0  0  0  0  0  0  0  0  0  0  0  0
  -20.3416  -24.2442   22.0259 C   0  0  0  0  0  0  0  0  0  0  0  0
  -18.2079  -19.0412   24.3670 C   0  0  0  0  0  0  0  0  0  0  0  0
  -20.2856  -19.3424   23.0763 C   0  0  0  0  0  0  0  0  0  0  0  0
  -27.6655  -26.5407   20.8290 C   0  0  1  0  0  0  0  0  0  0  0  0
  -26.1289  -30.0136   20.9338 C   0  0  1  0  0  0  0  0  0  0  0  0
  -19.9683  -26.4087   23.3645 C   0  0  0  0  0  0  0  0  0  0  0  0
  -21.0715  -18.4645   24.0651 C   0  0  2  0  0  0  0  0  0  0  0  0
  -19.7455  -23.6277   23.2882 C   0  0  0  0  0  0  0  0  0  0  0  0
  -19.0481  -30.7659   23.9035 C   0  0  0  0  0  0  0  0  0  0  0  0
  -24.4692  -36.4744   24.8715 C   0  0  0  0  0  0  0  0  0  0  0  0
  -26.6557  -30.2559   25.5190 C   0  0  0  0  0  0  0  0  0  0  0  0
  -25.8214  -32.3590   26.5909 C   0  0  0  0  0  0  0  0  0  0  0  0
  -27.9302  -32.3919   25.2588 C   0  0  0  0  0  0  0  0  0  0  0  0
  -17.9879  -28.2588   22.4464 C   0  0  0  0  0  0  0  0  0  0  0  0
  -23.2978  -35.5893   21.3615 C   0  0  0  0  0  0  0  0  0  0  0  0
  -20.3203  -27.8940   23.3158 C   0  0  0  0  0  0  0  0  0  0  0  0
  -19.5540  -30.2509   22.5641 C   0  0  0  0  0  0  0  0  0  0  0  0
  -25.7130  -32.1693   24.0644 C   0  0  1  0  0  0  0  0  0  0  0  0
  -24.4935  -35.7216   23.5504 C   0  0  2  0  0  0  0  0  0  0  0  0
  -26.5144  -31.7805   25.3388 C   0  0  0  0  0  0  0  0  0  0  0  0
  -19.4462  -28.7267   22.3539 C   0  0  2  0  0  0  0  0  0  1  0  0
  -22.0916  -16.5519   22.8886 N   0  0  0  0  0  0  0  0  0  0  0  0
  -22.2553  -17.7817   23.4053 N   0  0  0  0  0  0  0  0  0  0  0  0
  -25.5254  -30.7431   22.0508 N   0  0  0  0  0  0  0  0  0  0  0  0
  -19.1510  -19.9832   23.7595 N   0  0  0  0  0  0  0  0  0  0  0  0
  -23.8555  -19.4988   23.7245 N   0  0  0  0  0  0  0  0  0  0  0  0
  -26.1881  -16.2883   21.5686 N   0  0  0  0  0  0  0  0  0  0  0  0
  -27.1866  -27.8739   20.5329 N   0  0  0  0  0  0  0  0  0  0  0  0
  -25.5865  -33.6074   23.8537 N   0  0  0  0  0  0  0  0  0  0  0  0
  -19.8541  -22.1861   23.2629 N   0  0  0  0  0  0  0  0  0  0  0  0
  -23.3784  -36.2271   22.7008 N   0  3  0  0  0  0  0  0  0  0  0  0
  -26.3240  -18.3766   22.5063 O   0  0  0  0  0  0  0  0  0  0  0  0
  -26.2789  -28.3674   22.6198 O   0  0  0  0  0  0  0  0  0  0  0  0
  -27.4778  -31.9371   22.4966 O   0  0  0  0  0  0  0  0  0  0  0  0
  -23.2682  -33.6608   23.8490 O   0  0  0  0  0  0  0  0  0  0  0  0
  -17.9230  -21.8270   24.4455 O   0  0  0  0  0  0  0  0  0  0  0  0
  -24.2184  -11.3585   19.8796 O   0  0  0  0  0  0  0  0  0  0  0  0
  -19.8815  -28.4775   21.0180 O   0  0  0  0  0  0  0  0  0  1  0  0
  -22.2352   -6.8227   22.3079 F   0  0  0  0  0  0  0  0  0  0  0  0
  -25.9085   -9.3183   20.6695 F   0  0  0  0  0  0  0  0  0  0  0  0
  1  2  1  0  0  0  0
  1  5  2  0  0  0  0
  2  6  2  0  0  0  0
  3  8  2  0  0  0  0
  3 15  1  0  0  0  0
  4  9  1  0  0  0  0
  4 15  2  0  0  0  0
  5 17  1  0  0  0  0
  6 19  1  0  0  0  0
  7 10  2  0  0  0  0
  7 18  1  0  0  0  0
  8 21  1  0  0  0  0
  9 21  2  0  0  0  0
 10 22  1  0  0  0  0
 11 12  2  0  0  0  0
 11 23  1  0  0  0  0
 12 24  1  0  0  0  0
 13 20  1  0  0  0  0
 13 22  2  0  0  0  0
 14 24  2  0  0  0  0
 14 25  1  0  0  0  0
 15 26  1  0  0  0  0
 16 26  1  0  0  0  0
 16 27  2  0  0  0  0
 16 28  1  0  0  0  0
 17 19  2  0  0  0  0
 17 33  1  0  0  0  0
 18 20  2  0  0  0  0
 18 34  1  0  0  0  0
 19 46  1  0  0  0  0
 20 35  1  0  0  0  0
 21 79  1  0  0  0  0
 22 80  1  0  0  0  0
 23 25  2  0  0  0  0
 23 79  1  0  0  0  0
 24 81  1  0  0  0  0
 25 82  1  0  0  0  0
 26 64  2  0  0  0  0
 27 65  1  0  0  0  0
 27 68  1  0  0  0  0
 28 69  1  0  0  0  0
 28 74  2  0  0  0  0
 29 47  1  0  0  0  0
 29 70  1  0  0  0  0
 29 75  2  0  0  0  0
 30 60  1  0  0  0  0
 30 66  1  0  0  0  0
 30 76  2  0  0  0  0
 31 61  1  0  0  0  0
 31 71  1  0  0  0  0
 31 77  2  0  0  0  0
 32 67  1  0  0  0  0
 32 72  1  0  0  0  0
 32 78  2  0  0  0  0
 33 36  1  0  0  0  0
 34 47  1  0  0  0  0
 35 66  1  0  0  0  0
 36 38  1  0  0  0  0
 37 41  1  0  0  0  0
 37 44  1  0  0  0  0
 38 46  1  0  0  0  0
 39 42  1  0  0  0  0
 39 48  1  0  0  0  0
 40 43  1  0  0  0  0
 40 48  1  0  0  0  0
 41 49  1  0  0  0  0
 42 50  1  0  0  0  0
 43 50  1  0  0  0  0
 44 67  1  0  0  0  0
 45 49  1  0  0  0  0
 45 67  1  0  0  0  0
 46 70  1  0  0  0  0
 47 66  1  0  0  0  0
 48 58  1  0  0  0  0
 49 65  1  0  0  0  0
 50 72  1  0  0  0  0
 51 59  1  0  0  0  0
 52 61  1  0  0  0  0
 53 62  1  0  0  0  0
 54 62  1  0  0  0  0
 55 62  1  0  0  0  0
 56 63  1  0  0  0  0
 57 73  1  0  0  0  0
 58 63  1  0  0  0  0
 59 63  1  0  0  0  0
 60 62  1  0  0  0  0
 60 71  1  0  0  0  0
 61 73  1  0  0  0  0
 63 80  1  0  0  0  0
 64 65  1  0  0  0  0
M  CHG  1  73   1
M  ISO  4  32 100  63 101  72 100  80 101
M  END
> <Batch ID>
0101

> <Smiles>
CC[101C:1](C)(CC1CCC([100NH:0][100C:0](=O)N2CCCC(n3nc(-c4ccc(Oc5ccc(F)cc5F)cc4)c(C(N)=O)c3N)C2)CC1)[101O:1]c1ccc2c(c1)CN(C(=O)C(NC(=O)C(C)NC)C(C)(C)C)C(C(=O)NC1CCCc3ccccc31)C2

> <Shape>
0.291

> <Color>
0.074

> <Negative vol penalty>
0.000

$$$$

  -OEChem-04052319363D

 85 93  0     1  0  0  0  0  0999 V2000
  -17.1110  -30.4884   23.6885 C   0  0  0  0  0  0  0  0  0  0  0  0
  -18.3776  -30.2919   24.2291 C   0  0  0  0  0  0  0  0  0  0  0  0
  -25.7543  -14.4955   21.5700 C   0  0  0  0  0  0  0  0  0  0  0  0
  -24.9984  -15.3375   19.4354 C   0  0  0  0  0  0  0  0  0  0  0  0
  -16.5041  -29.4731   22.9504 C   0  0  0  0  0  0  0  0  0  0  0  0
  -19.0378  -29.0794   24.0329 C   0  0  0  0  0  0  0  0  0  0  0  0
  -25.0635  -28.2398   23.3317 C   0  0  0  0  0  0  0  0  0  0  0  0
  -24.6829  -13.6029   21.5974 C   0  0  0  0  0  0  0  0  0  0  0  0
  -23.9269  -14.4448   19.4627 C   0  0  0  0  0  0  0  0  0  0  0  0
  -26.0661  -27.8519   24.2195 C   0  0  0  0  0  0  0  0  0  0  0  0
  -23.8818  -10.6294   20.2011 C   0  0  0  0  0  0  0  0  0  0  0  0
  -24.1453   -9.3116   20.5747 C   0  0  0  0  0  0  0  0  0  0  0  0
  -25.8446  -25.5717   23.4640 C   0  0  0  0  0  0  0  0  0  0  0  0
  -30.5214  -25.6194   23.4621 C   0  0  0  0  0  0  0  0  0  0  0  0
  -22.6149   -9.5319   22.4313 C   0  0  0  0  0  0  0  0  0  0  0  0
  -31.8140  -24.0023   24.6330 C   0  0  0  0  0  0  0  0  0  0  0  0
  -25.9121  -15.3629   20.4891 C   0  0  0  0  0  0  0  0  0  0  0  0
  -28.2982  -16.0618   19.9187 C   0  0  0  0  0  0  0  0  0  0  0  0
  -17.1612  -28.2511   22.7369 C   0  0  0  0  0  0  0  0  0  0  0  0
  -24.4353  -27.2931   22.5098 C   0  0  0  0  0  0  0  0  0  0  0  0
  -18.4386  -28.0463   23.2924 C   0  0  0  0  0  0  0  0  0  0  0  0
  -24.8361  -25.9506   22.5648 C   0  0  0  0  0  0  0  0  0  0  0  0
  -30.8369  -24.9844   24.6582 C   0  0  0  0  0  0  0  0  0  0  0  0
  -31.1833  -25.2580   22.2939 C   0  0  0  0  0  0  0  0  0  0  0  0
  -23.7692  -13.5775   20.5437 C   0  0  0  0  0  0  0  0  0  0  0  0
  -26.4548  -26.5173   24.2878 C   0  0  0  0  0  0  0  0  0  0  0  0
  -22.9849  -11.3985   20.9426 C   0  0  0  0  0  0  0  0  0  0  0  0
  -23.5119   -8.7628   21.6898 C   0  0  0  0  0  0  0  0  0  0  0  0
  -22.3515  -10.8497   22.0576 C   0  0  0  0  0  0  0  0  0  0  0  0
  -27.0183  -16.2856   20.4605 C   0  0  0  0  0  0  0  0  0  0  0  0
  -32.1450  -24.2638   22.3746 C   0  0  0  0  0  0  0  0  0  0  0  0
  -28.9754  -17.2359   20.1411 C   0  0  0  0  0  0  0  0  0  0  0  0
  -28.8277  -14.8968   19.2722 C   0  0  0  0  0  0  0  0  0  0  0  0
  -21.4584  -26.2268   22.1864 C   0  0  0  0  0  0  0  0  0  0  0  0
  -22.7225  -24.6188   19.6687 C   0  0  0  0  0  0  0  0  0  0  0  0
  -25.4846  -23.2769   18.1797 C   0  0  0  0  0  0  0  0  0  0  0  0
  -29.2008  -22.7012   19.9779 C   0  0  0  0  0  0  0  0  0  0  0  0
  -16.4454  -27.1659   21.9722 C   0  0  0  0  0  0  0  0  0  0  0  0
  -23.3741  -27.7321   21.5384 C   0  0  0  0  0  0  0  0  0  0  0  0
  -24.2071  -24.8987   21.6893 C   0  0  0  0  0  0  0  0  0  0  0  0
  -17.3682  -26.0479   21.4937 C   0  0  0  0  0  0  0  0  0  0  0  0
  -27.7643  -21.2530   22.9674 C   0  0  0  0  0  0  0  0  0  0  0  0
  -18.2954  -25.6023   22.6199 C   0  0  0  0  0  0  0  0  0  0  0  0
  -27.5482  -19.8033   22.5294 C   0  0  0  0  0  0  0  0  0  0  0  0
  -27.4818  -22.2237   21.8245 C   0  0  0  0  0  0  0  0  0  0  0  0
  -28.0509  -20.5121   20.1451 C   0  0  0  0  0  0  0  0  0  0  0  0
  -19.1971  -26.7540   23.0804 C   0  0  1  0  0  0  0  0  0  0  0  0
  -22.4450  -26.5983   21.1158 C   0  0  1  0  0  0  0  0  0  0  0  0
  -28.3422  -19.4802   21.2498 C   0  0  2  0  0  0  0  0  0  0  0  0
  -32.8887  -23.8352   21.1520 C   0  0  0  0  0  0  0  0  0  0  0  0
  -26.1978  -21.9922   16.1455 C   0  0  0  0  0  0  0  0  0  0  0  0
  -32.0351  -26.6904   20.3142 C   0  0  0  0  0  0  0  0  0  0  0  0
  -29.7562  -27.0296   21.2346 C   0  0  0  0  0  0  0  0  0  0  0  0
  -21.5622  -22.0680   20.8758 C   0  0  0  0  0  0  0  0  0  0  0  0
  -23.0724  -20.7529   19.3731 C   0  0  0  0  0  0  0  0  0  0  0  0
  -21.3311  -22.2455   18.3920 C   0  0  0  0  0  0  0  0  0  0  0  0
  -27.2751  -25.4580   17.2875 C   0  0  0  0  0  0  0  0  0  0  0  0
  -30.1385  -25.3534   25.9425 C   0  0  0  0  0  0  0  0  0  0  0  0
  -28.8734  -24.5359   26.2125 C   0  0  0  0  0  0  0  0  0  0  0  0
  -30.2698  -24.9401   19.9367 C   0  0  0  0  0  0  0  0  0  0  0  0
  -27.7811  -24.7522   25.1716 C   0  0  0  0  0  0  0  0  0  1  0  0
  -23.3714  -23.2690   19.4792 C   0  0  1  0  0  0  0  0  0  0  0  0
  -26.0086  -23.3712   16.7581 C   0  0  2  0  0  0  0  0  0  0  0  0
  -30.8489  -25.9331   21.0087 C   0  0  0  0  0  0  0  0  0  0  0  0
  -22.3450  -22.1031   19.5480 C   0  0  0  0  0  0  0  0  0  0  0  0
  -32.4785  -23.6243   23.5181 N   0  0  0  0  0  0  0  0  0  0  0  0
  -26.8877  -17.5059   20.9875 N   0  0  0  0  0  0  0  0  0  0  0  0
  -28.0943  -18.0594   20.7781 N   0  0  0  0  0  0  0  0  0  0  0  0
  -23.1697  -25.3765   20.7604 N   0  0  0  0  0  0  0  0  0  0  0  0
  -28.2826  -21.8720   20.6433 N   0  0  0  0  0  0  0  0  0  0  0  0
  -30.2325  -17.6339   19.8521 N   0  0  0  0  0  0  0  0  0  0  0  0
  -27.9965  -13.7778   19.1261 N   0  0  0  0  0  0  0  0  0  0  0  0
  -20.2827  -26.9516   22.1440 N   0  0  0  0  0  0  0  0  0  0  0  0
  -24.1080  -23.3430   18.2221 N   0  0  0  0  0  0  0  0  0  0  0  0
  -29.3568  -23.9757   20.5089 N   0  0  0  0  0  0  0  0  0  0  0  0
  -27.3196  -24.0795   16.7352 N   0  3  0  0  0  0  0  0  0  0  0  0
  -30.0083  -14.8436   18.8516 O   0  0  0  0  0  0  0  0  0  0  0  0
  -21.7422  -25.3466   22.9904 O   0  0  0  0  0  0  0  0  0  0  0  0
  -21.8560  -24.9903   18.8732 O   0  0  0  0  0  0  0  0  0  0  0  0
  -26.2225  -23.1530   19.1548 O   0  0  0  0  0  0  0  0  0  0  0  0
  -29.8390  -22.3312   18.9865 O   0  0  0  0  0  0  0  0  0  0  0  0
  -22.7237  -12.7064   20.5700 O   0  0  0  0  0  0  0  0  0  0  0  0
  -27.4326  -26.1358   25.1539 O   0  0  0  0  0  0  0  0  0  1  0  0
  -23.7639   -7.4969   22.0475 F   0  0  0  0  0  0  0  0  0  0  0  0
  -21.4879  -11.5833   22.7732 F   0  0  0  0  0  0  0  0  0  0  0  0
  1  2  1  0  0  0  0
  1  5  2  0  0  0  0
  2  6  2  0  0  0  0
  3  8  2  0  0  0  0
  3 17  1  0  0  0  0
  4  9  1  0  0  0  0
  4 17  2  0  0  0  0
  5 19  1  0  0  0  0
  6 21  1  0  0  0  0
  7 10  2  0  0  0  0
  7 20  1  0  0  0  0
  8 25  1  0  0  0  0
  9 25  2  0  0  0  0
 10 26  1  0  0  0  0
 11 12  2  0  0  0  0
 11 27  1  0  0  0  0
 12 28  1  0  0  0  0
 13 22  1  0  0  0  0
 13 26  2  0  0  0  0
 14 23  2  0  0  0  0
 14 24  1  0  0  0  0
 15 28  2  0  0  0  0
 15 29  1  0  0  0  0
 16 23  1  0  0  0  0
 16 66  2  0  0  0  0
 17 30  1  0  0  0  0
 18 30  1  0  0  0  0
 18 32  2  0  0  0  0
 18 33  1  0  0  0  0
 19 21  2  0  0  0  0
 19 38  1  0  0  0  0
 20 22  2  0  0  0  0
 20 39  1  0  0  0  0
 21 47  1  0  0  0  0
 22 40  1  0  0  0  0
 23 58  1  0  0  0  0
 24 31  2  0  0  0  0
 24 64  1  0  0  0  0
 25 82  1  0  0  0  0
 26 83  1  0  0  0  0
 27 29  2  0  0  0  0
 27 82  1  0  0  0  0
 28 84  1  0  0  0  0
 29 85  1  0  0  0  0
 30 67  2  0  0  0  0
 31 50  1  0  0  0  0
 31 66  1  0  0  0  0
 32 68  1  0  0  0  0
 32 71  1  0  0  0  0
 33 72  1  0  0  0  0
 33 77  2  0  0  0  0
 34 48  1  0  0  0  0
 34 73  1  0  0  0  0
 34 78  2  0  0  0  0
 35 62  1  0  0  0  0
 35 69  1  0  0  0  0
 35 79  2  0  0  0  0
 36 63  1  0  0  0  0
 36 74  1  0  0  0  0
 36 80  2  0  0  0  0
 37 70  1  0  0  0  0
 37 75  1  0  0  0  0
 37 81  2  0  0  0  0
 38 41  1  0  0  0  0
 39 48  1  0  0  0  0
 40 69  1  0  0  0  0
 41 43  1  0  0  0  0
 42 44  1  0  0  0  0
 42 45  1  0  0  0  0
 43 47  1  0  0  0  0
 44 49  1  0  0  0  0
 45 70  1  0  0  0  0
 46 49  1  0  0  0  0
 46 70  1  0  0  0  0
 47 73  1  0  0  0  0
 48 69  1  0  0  0  0
 49 68  1  0  0  0  0
 51 63  1  0  0  0  0
 52 64  1  0  0  0  0
 53 64  1  0  0  0  0
 54 65  1  0  0  0  0
 55 65  1  0  0  0  0
 56 65  1  0  0  0  0
 57 76  1  0  0  0  0
 58 59  1  0  0  0  0
 59 61  1  0  0  0  0
 60 64  1  0  0  0  0
 60 75  1  0  0  0  0
 61 83  1  0  0  0  0
 62 65  1  0  0  0  0
 62 74  1  0  0  0  0
 63 76  1  0  0  0  0
 67 68  1  0  0  0  0
M  CHG  1  76   1
M  ISO  4  37 100  61 101  75 100  83 101
M  END
> <Batch ID>
0101

> <Smiles>
CNC(C)C(=O)NC(C(=O)N1Cc2cc([101O:1][101CH2:1]CCc3cnc(C)c(C(C)(C)C[100NH:0][100C:0](=O)N4CCCC(n5nc(-c6ccc(Oc7ccc(F)cc7F)cc6)c(C(N)=O)c5N)C4)c3)ccc2CC1C(=O)NC1CCCc2ccccc21)C(C)(C)C

> <Shape>
0.222

> <Color>
0.054

> <Negative vol penalty>
0.000

$$$$

  -OEChem-04052319363D

 85 93  0     1  0  0  0  0  0999 V2000
  -24.5032  -20.8066   10.9580 C   0  0  0  0  0  0  0  0  0  0  0  0
  -25.4485  -19.9245   11.4714 C   0  0  0  0  0  0  0  0  0  0  0  0
  -26.1212  -27.9357   18.9137 C   0  0  0  0  0  0  0  0  0  0  0  0
  -26.5183  -27.9971   21.2961 C   0  0  0  0  0  0  0  0  0  0  0  0
  -23.7113  -21.5596   11.8239 C   0  0  0  0  0  0  0  0  0  0  0  0
  -25.6032  -19.7956   12.8512 C   0  0  0  0  0  0  0  0  0  0  0  0
  -27.0184  -14.6985   15.9371 C   0  0  0  0  0  0  0  0  0  0  0  0
  -25.0563  -28.8232   19.0683 C   0  0  0  0  0  0  0  0  0  0  0  0
  -25.4535  -28.8847   21.4507 C   0  0  0  0  0  0  0  0  0  0  0  0
  -28.2214  -14.2170   16.4515 C   0  0  0  0  0  0  0  0  0  0  0  0
  -22.0779  -28.7303   21.5640 C   0  0  0  0  0  0  0  0  0  0  0  0
  -21.1803  -28.4904   22.6043 C   0  0  0  0  0  0  0  0  0  0  0  0
  -27.6666  -15.1496   18.6059 C   0  0  0  0  0  0  0  0  0  0  0  0
  -21.7131  -30.6442   23.5605 C   0  0  0  0  0  0  0  0  0  0  0  0
  -30.1342  -16.1409   21.8907 C   0  0  0  0  0  0  0  0  0  0  0  0
  -26.8522  -27.5226   20.0276 C   0  0  0  0  0  0  0  0  0  0  0  0
  -29.3020  -26.9291   19.6353 C   0  0  0  0  0  0  0  0  0  0  0  0
  -23.8497  -21.4328   13.2151 C   0  0  0  0  0  0  0  0  0  0  0  0
  -26.1339  -15.4199   16.7518 C   0  0  0  0  0  0  0  0  0  0  0  0
  -24.8134  -20.5486   13.7366 C   0  0  0  0  0  0  0  0  0  0  0  0
  -26.4518  -15.6370   18.1001 C   0  0  0  0  0  0  0  0  0  0  0  0
  -29.1303  -16.7942   22.5710 C   0  0  0  0  0  0  0  0  0  0  0  0
  -24.7224  -29.2977   20.3368 C   0  0  0  0  0  0  0  0  0  0  0  0
  -28.5470  -14.4450   17.7853 C   0  0  0  0  0  0  0  0  0  0  0  0
  -22.7933  -29.9270   21.5220 C   0  0  0  0  0  0  0  0  0  0  0  0
  -28.1378  -15.8334   22.8856 C   0  0  0  0  0  0  0  0  0  0  0  0
  -20.9978  -29.4474   23.6025 C   0  0  0  0  0  0  0  0  0  0  0  0
  -22.6108  -30.8840   22.5202 C   0  0  0  0  0  0  0  0  0  0  0  0
  -27.9520  -26.6053   19.8686 C   0  0  0  0  0  0  0  0  0  0  0  0
  -28.5655  -14.6222   22.3881 C   0  0  0  0  0  0  0  0  0  0  0  0
  -29.9386  -25.7143   19.5614 C   0  0  0  0  0  0  0  0  0  0  0  0
  -29.9249  -28.2131   19.4979 C   0  0  0  0  0  0  0  0  0  0  0  0
  -24.9538  -18.3711   16.7185 C   0  0  0  0  0  0  0  0  0  0  0  0
  -23.1684  -17.2670   19.1914 C   0  0  0  0  0  0  0  0  0  0  0  0
  -22.8166  -15.0169   21.7332 C   0  0  0  0  0  0  0  0  0  0  0  0
  -28.6368  -20.4438   21.8815 C   0  0  0  0  0  0  0  0  0  0  0  0
  -23.0038  -22.3026   14.1110 C   0  0  0  0  0  0  0  0  0  0  0  0
  -24.8280  -15.9095   16.1887 C   0  0  0  0  0  0  0  0  0  0  0  0
  -25.5273  -16.3882   19.0218 C   0  0  0  0  0  0  0  0  0  0  0  0
  -22.9709  -21.8315   15.5626 C   0  0  0  0  0  0  0  0  0  0  0  0
  -29.1596  -21.1447   18.3697 C   0  0  0  0  0  0  0  0  0  0  0  0
  -24.3786  -21.5021   16.0491 C   0  0  0  0  0  0  0  0  0  0  0  0
  -29.0352  -22.6692   18.3420 C   0  0  0  0  0  0  0  0  0  0  0  0
  -28.1738  -20.5275   19.3574 C   0  0  0  0  0  0  0  0  0  0  0  0
  -28.1562  -22.5803   20.7210 C   0  0  0  0  0  0  0  0  0  0  0  0
  -24.9937  -20.3627   15.2276 C   0  0  1  0  0  0  0  0  0  0  0  0
  -24.2376  -17.0755   16.9757 C   0  0  1  0  0  0  0  0  0  0  0  0
  -29.1424  -23.2659   19.7579 C   0  0  2  0  0  0  0  0  0  0  0  0
  -27.9205  -13.2926   22.4324 C   0  0  0  0  0  0  0  0  0  0  0  0
  -25.6057  -16.1511   25.5056 C   0  0  0  0  0  0  0  0  0  0  0  0
  -21.2708  -14.3878   23.6072 C   0  0  0  0  0  0  0  0  0  0  0  0
  -31.5315  -15.4327   17.6888 C   0  0  0  0  0  0  0  0  0  0  0  0
  -24.1727  -19.6467   20.8156 C   0  0  0  0  0  0  0  0  0  0  0  0
  -23.3920  -18.4745   22.8855 C   0  0  0  0  0  0  0  0  0  0  0  0
  -21.7473  -19.1215   21.1252 C   0  0  0  0  0  0  0  0  0  0  0  0
  -22.3528  -12.3223   20.6007 C   0  0  0  0  0  0  0  0  0  0  0  0
  -29.1011  -18.2314   22.9046 C   0  0  0  0  0  0  0  0  0  0  0  0
  -31.4563  -14.2968   19.9379 C   0  0  0  0  0  0  0  0  0  0  0  0
  -30.6138  -13.7643   21.1060 C   0  0  0  0  0  0  0  0  0  0  0  0
  -26.9951  -15.8771   24.9708 C   0  0  0  0  0  0  0  0  0  0  0  0
  -23.3393  -17.2063   20.6901 C   0  0  1  0  0  0  0  0  0  0  0  0
  -21.6459  -14.1467   22.1533 C   0  0  2  0  0  0  0  0  0  0  0  0
  -30.6324  -14.9405   18.8158 C   0  0  2  0  0  0  0  0  0  1  0  0
  -23.1814  -18.5997   21.3615 C   0  0  0  0  0  0  0  0  0  0  0  0
  -27.7421  -25.2881   19.9380 N   0  0  0  0  0  0  0  0  0  0  0  0
  -29.7803  -14.8211   21.7857 N   0  0  0  0  0  0  0  0  0  0  0  0
  -28.9688  -24.7734   19.7472 N   0  0  0  0  0  0  0  0  0  0  0  0
  -24.2651  -16.8524   18.4226 N   0  0  0  0  0  0  0  0  0  0  0  0
  -28.3405  -21.1255   20.6895 N   0  0  0  0  0  0  0  0  0  0  0  0
  -31.2276  -25.3698   19.3561 N   0  0  0  0  0  0  0  0  0  0  0  0
  -29.1242  -29.3587   19.6012 N   0  0  0  0  0  0  0  0  0  0  0  0
  -24.4535  -19.0877   15.6481 N   0  0  0  0  0  0  0  0  0  0  0  0
  -22.3952  -16.2021   21.1683 N   0  0  0  0  0  0  0  0  0  0  0  0
  -28.7890  -19.0674   21.7668 N   0  0  0  0  0  0  0  0  0  0  0  0
  -21.9866  -12.7053   21.9886 N   0  3  0  0  0  0  0  0  0  0  0  0
  -31.1525  -28.3403   19.2735 O   0  0  0  0  0  0  0  0  0  0  0  0
  -25.8900  -18.6973   17.4388 O   0  0  0  0  0  0  0  0  0  0  0  0
  -22.0985  -17.6607   18.7203 O   0  0  0  0  0  0  0  0  0  0  0  0
  -23.9878  -14.6807   21.8937 O   0  0  0  0  0  0  0  0  0  0  0  0
  -28.7620  -21.0199   22.9676 O   0  0  0  0  0  0  0  0  0  0  0  0
  -23.6835  -30.1640   20.4881 O   0  0  0  0  0  0  0  0  0  0  0  0
  -26.9844  -16.0261   23.5428 O   0  0  0  0  0  0  0  0  0  0  0  0
  -29.7209  -13.9766   18.2898 O   0  0  0  0  0  0  0  0  0  1  0  0
  -20.1346  -29.2176   24.6006 F   0  0  0  0  0  0  0  0  0  0  0  0
  -23.2943  -32.0361   22.4846 F   0  0  0  0  0  0  0  0  0  0  0  0
  1  2  1  0  0  0  0
  1  5  2  0  0  0  0
  2  6  2  0  0  0  0
  3  8  2  0  0  0  0
  3 16  1  0  0  0  0
  4  9  1  0  0  0  0
  4 16  2  0  0  0  0
  5 18  1  0  0  0  0
  6 20  1  0  0  0  0
  7 10  2  0  0  0  0
  7 19  1  0  0  0  0
  8 23  1  0  0  0  0
  9 23  2  0  0  0  0
 10 24  1  0  0  0  0
 11 12  2  0  0  0  0
 11 25  1  0  0  0  0
 12 27  1  0  0  0  0
 13 21  1  0  0  0  0
 13 24  2  0  0  0  0
 14 27  2  0  0  0  0
 14 28  1  0  0  0  0
 15 22  2  0  0  0  0
 15 66  1  0  0  0  0
 16 29  1  0  0  0  0
 17 29  1  0  0  0  0
 17 31  2  0  0  0  0
 17 32  1  0  0  0  0
 18 20  2  0  0  0  0
 18 37  1  0  0  0  0
 19 21  2  0  0  0  0
 19 38  1  0  0  0  0
 20 46  1  0  0  0  0
 21 39  1  0  0  0  0
 22 26  1  0  0  0  0
 22 57  1  0  0  0  0
 23 81  1  0  0  0  0
 24 83  1  0  0  0  0
 25 28  2  0  0  0  0
 25 81  1  0  0  0  0
 26 30  2  0  0  0  0
 26 82  1  0  0  0  0
 27 84  1  0  0  0  0
 28 85  1  0  0  0  0
 29 65  2  0  0  0  0
 30 49  1  0  0  0  0
 30 66  1  0  0  0  0
 31 67  1  0  0  0  0
 31 70  1  0  0  0  0
 32 71  1  0  0  0  0
 32 76  2  0  0  0  0
 33 47  1  0  0  0  0
 33 72  1  0  0  0  0
 33 77  2  0  0  0  0
 34 61  1  0  0  0  0
 34 68  1  0  0  0  0
 34 78  2  0  0  0  0
 35 62  1  0  0  0  0
 35 73  1  0  0  0  0
 35 79  2  0  0  0  0
 36 69  1  0  0  0  0
 36 74  1  0  0  0  0
 36 80  2  0  0  0  0
 37 40  1  0  0  0  0
 38 47  1  0  0  0  0
 39 68  1  0  0  0  0
 40 42  1  0  0  0  0
 41 43  1  0  0  0  0
 41 44  1  0  0  0  0
 42 46  1  0  0  0  0
 43 48  1  0  0  0  0
 44 69  1  0  0  0  0
 45 48  1  0  0  0  0
 45 69  1  0  0  0  0
 46 72  1  0  0  0  0
 47 68  1  0  0  0  0
 48 67  1  0  0  0  0
 50 60  1  0  0  0  0
 51 62  1  0  0  0  0
 52 63  1  0  0  0  0
 53 64  1  0  0  0  0
 54 64  1  0  0  0  0
 55 64  1  0  0  0  0
 56 75  1  0  0  0  0
 57 74  1  0  0  0  0
 58 59  1  0  0  0  0
 58 63  1  0  0  0  0
 59 66  1  0  0  0  0
 60 82  1  0  0  0  0
 61 64  1  0  0  0  0
 61 73  1  0  0  0  0
 62 75  1  0  0  0  0
 63 83  1  0  0  0  0
 65 67  1  0  0  0  0
M  CHG  1  75   1
M  ISO  4  36 100  63 101  74 100  83 101
M  END
> <Batch ID>
0101

> <Smiles>
CCOc1c(C[100NH:0][100C:0](=O)N2CCCC(n3nc(-c4ccc(Oc5ccc(F)cc5F)cc4)c(C(N)=O)c3N)C2)cn(CC[101CH:1](C)[101O:1]c2ccc3c(c2)CN(C(=O)C(NC(=O)C(C)NC)C(C)(C)C)C(C(=O)NC2CCCc4ccccc42)C3)c1C

> <Shape>
0.209

> <Color>
0.054

> <Negative vol penalty>
0.000

$$$$

  -OEChem-04052319363D

 83 91  0     1  0  0  0  0  0999 V2000
  -16.0513  -15.2837   26.5226 C   0  0  0  0  0  0  0  0  0  0  0  0
  -17.0028  -14.7016   25.6912 C   0  0  0  0  0  0  0  0  0  0  0  0
  -27.6748  -23.6760   20.7739 C   0  0  0  0  0  0  0  0  0  0  0  0
  -28.7574  -23.5443   18.6180 C   0  0  0  0  0  0  0  0  0  0  0  0
  -15.9774  -16.6718   26.6306 C   0  0  0  0  0  0  0  0  0  0  0  0
  -17.8803  -15.5073   24.9665 C   0  0  0  0  0  0  0  0  0  0  0  0
  -23.7190  -14.2783   23.5861 C   0  0  0  0  0  0  0  0  0  0  0  0
  -27.7458  -25.0681   20.7246 C   0  0  0  0  0  0  0  0  0  0  0  0
  -28.8283  -24.9365   18.5687 C   0  0  0  0  0  0  0  0  0  0  0  0
  -24.3248  -13.7734   22.4364 C   0  0  0  0  0  0  0  0  0  0  0  0
  -26.0721  -27.5961   19.2277 C   0  0  0  0  0  0  0  0  0  0  0  0
  -24.9336  -28.3164   19.5891 C   0  0  0  0  0  0  0  0  0  0  0  0
  -24.8178  -16.0222   21.7159 C   0  0  0  0  0  0  0  0  0  0  0  0
  -29.9267  -11.9421   19.4972 C   0  0  0  0  0  0  0  0  0  0  0  0
  -27.6144  -11.3098   19.7975 C   0  0  0  0  0  0  0  0  0  0  0  0
  -28.1848  -13.1415   18.3291 C   0  0  0  0  0  0  0  0  0  0  0  0
  -26.1751  -29.3890   21.3626 C   0  0  0  0  0  0  0  0  0  0  0  0
  -28.1807  -22.9140   19.7207 C   0  0  0  0  0  0  0  0  0  0  0  0
  -27.0638  -20.6601   19.2965 C   0  0  0  0  0  0  0  0  0  0  0  0
  -16.8608  -17.4947   25.9143 C   0  0  0  0  0  0  0  0  0  0  0  0
  -23.6483  -15.6617   23.8045 C   0  0  0  0  0  0  0  0  0  0  0  0
  -17.8173  -16.9078   25.0640 C   0  0  0  0  0  0  0  0  0  0  0  0
  -24.2129  -16.5420   22.8705 C   0  0  0  0  0  0  0  0  0  0  0  0
  -28.9658  -11.1208   20.0868 C   0  0  0  0  0  0  0  0  0  0  0  0
  -29.5362  -12.9526   18.6183 C   0  0  0  0  0  0  0  0  0  0  0  0
  -27.2239  -12.3202   18.9187 C   0  0  0  0  0  0  0  0  0  0  0  0
  -28.3225  -25.6984   19.6220 C   0  0  0  0  0  0  0  0  0  0  0  0
  -24.8717  -14.6455   21.4997 C   0  0  0  0  0  0  0  0  0  0  0  0
  -27.2621  -27.7722   19.9338 C   0  0  0  0  0  0  0  0  0  0  0  0
  -24.9851  -29.2129   20.6564 C   0  0  0  0  0  0  0  0  0  0  0  0
  -27.3136  -28.6686   21.0012 C   0  0  0  0  0  0  0  0  0  0  0  0
  -28.1082  -21.4759   19.7713 C   0  0  0  0  0  0  0  0  0  0  0  0
  -27.4726  -19.3797   19.5790 C   0  0  0  0  0  0  0  0  0  0  0  0
  -25.8340  -21.0270   18.6571 C   0  0  0  0  0  0  0  0  0  0  0  0
  -21.2860  -17.7646   24.1222 C   0  0  0  0  0  0  0  0  0  0  0  0
  -23.7149  -19.8030   24.8061 C   0  0  0  0  0  0  0  0  0  0  0  0
  -27.0269  -20.5686   24.5033 C   0  0  0  0  0  0  0  0  0  0  0  0
  -31.4253  -15.4409   19.6677 C   0  0  0  0  0  0  0  0  0  0  0  0
  -16.7117  -18.9913   26.0270 C   0  0  0  0  0  0  0  0  0  0  0  0
  -23.0152  -16.1894   25.0627 C   0  0  0  0  0  0  0  0  0  0  0  0
  -24.1811  -18.0349   23.0678 C   0  0  0  0  0  0  0  0  0  0  0  0
  -17.9236  -19.7646   25.5136 C   0  0  0  0  0  0  0  0  0  0  0  0
  -31.3068  -17.6989   22.4181 C   0  0  0  0  0  0  0  0  0  0  0  0
  -18.3747  -19.2154   24.1640 C   0  0  0  0  0  0  0  0  0  0  0  0
  -30.3834  -18.8179   21.9331 C   0  0  0  0  0  0  0  0  0  0  0  0
  -32.1788  -17.1570   21.2875 C   0  0  0  0  0  0  0  0  0  0  0  0
  -30.5150  -17.8417   19.6032 C   0  0  0  0  0  0  0  0  0  0  0  0
  -18.8030  -17.7476   24.2809 C   0  0  1  0  0  0  0  0  0  0  0  0
  -22.5439  -17.6346   24.9337 C   0  0  1  0  0  0  0  0  0  0  0  0
  -29.5762  -18.3820   20.6955 C   0  0  2  0  0  0  0  0  0  0  0  0
  -29.3839  -10.0404   21.0262 C   0  0  0  0  0  0  0  0  0  0  0  0
  -25.7798  -10.8902   16.6339 C   0  0  0  0  0  0  0  0  0  0  0  0
  -28.7102  -22.3185   25.1371 C   0  0  0  0  0  0  0  0  0  0  0  0
  -22.6140  -21.6444   22.6365 C   0  0  0  0  0  0  0  0  0  0  0  0
  -24.8025  -22.8602   22.6555 C   0  0  0  0  0  0  0  0  0  0  0  0
  -23.3844  -22.8162   24.7072 C   0  0  0  0  0  0  0  0  0  0  0  0
  -28.6286  -18.6289   26.0624 C   0  0  0  0  0  0  0  0  0  0  0  0
  -30.5633  -13.8309   17.9873 C   0  0  0  0  0  0  0  0  0  0  0  0
  -25.1060  -11.2893   17.9414 C   0  0  0  0  0  0  0  0  0  0  0  0
  -24.9646  -12.9192   19.8666 C   0  0  0  0  0  0  0  0  0  1  0  0
  -25.7488  -12.5261   18.6032 C   0  0  1  0  0  0  0  0  0  0  0  0
  -24.6028  -20.7177   23.9974 C   0  0  1  0  0  0  0  0  0  0  0  0
  -28.0585  -21.0015   25.5293 C   0  0  2  0  0  0  0  0  0  0  0  0
  -23.8500  -21.9816   23.4942 C   0  0  0  0  0  0  0  0  0  0  0  0
  -29.1055  -20.7727   20.3145 N   0  0  0  0  0  0  0  0  0  0  0  0
  -28.6895  -19.5016   20.1827 N   0  0  0  0  0  0  0  0  0  0  0  0
  -23.5455  -18.5023   24.3107 N   0  0  0  0  0  0  0  0  0  0  0  0
  -31.3523  -16.7600   20.1450 N   0  0  0  0  0  0  0  0  0  0  0  0
  -26.9062  -18.1727   19.3675 N   0  0  0  0  0  0  0  0  0  0  0  0
  -25.5719  -22.3871   18.4433 N   0  0  0  0  0  0  0  0  0  0  0  0
  -20.1247  -17.6516   24.8625 N   0  0  0  0  0  0  0  0  0  0  0  0
  -25.7621  -21.0064   24.8347 N   0  0  0  0  0  0  0  0  0  0  0  0
  -30.6044  -15.1464   18.5860 N   0  0  0  0  0  0  0  0  0  0  0  0
  -29.1256  -19.9693   25.6583 N   0  3  0  0  0  0  0  0  0  0  0  0
  -24.9851  -20.1748   18.3011 O   0  0  0  0  0  0  0  0  0  0  0  0
  -21.3633  -17.9550   22.9141 O   0  0  0  0  0  0  0  0  0  0  0  0
  -23.1968  -20.2247   25.8431 O   0  0  0  0  0  0  0  0  0  0  0  0
  -27.3148  -19.9112   23.5056 O   0  0  0  0  0  0  0  0  0  0  0  0
  -32.1630  -14.5874   20.1719 O   0  0  0  0  0  0  0  0  0  0  0  0
  -28.3917  -27.0569   19.5734 O   0  0  0  0  0  0  0  0  0  0  0  0
  -25.4630  -14.1554   20.3763 O   0  0  0  0  0  0  0  0  0  1  0  0
  -23.8922  -29.9057   21.0023 F   0  0  0  0  0  0  0  0  0  0  0  0
  -28.4543  -28.8429   21.6826 F   0  0  0  0  0  0  0  0  0  0  0  0
  1  2  1  0  0  0  0
  1  5  2  0  0  0  0
  2  6  2  0  0  0  0
  3  8  2  0  0  0  0
  3 18  1  0  0  0  0
  4  9  1  0  0  0  0
  4 18  2  0  0  0  0
  5 20  1  0  0  0  0
  6 22  1  0  0  0  0
  7 10  2  0  0  0  0
  7 21  1  0  0  0  0
  8 27  1  0  0  0  0
  9 27  2  0  0  0  0
 10 28  1  0  0  0  0
 11 12  2  0  0  0  0
 11 29  1  0  0  0  0
 12 30  1  0  0  0  0
 13 23  1  0  0  0  0
 13 28  2  0  0  0  0
 14 24  1  0  0  0  0
 14 25  2  0  0  0  0
 15 24  2  0  0  0  0
 15 26  1  0  0  0  0
 16 25  1  0  0  0  0
 16 26  2  0  0  0  0
 17 30  2  0  0  0  0
 17 31  1  0  0  0  0
 18 32  1  0  0  0  0
 19 32  1  0  0  0  0
 19 33  2  0  0  0  0
 19 34  1  0  0  0  0
 20 22  2  0  0  0  0
 20 39  1  0  0  0  0
 21 23  2  0  0  0  0
 21 40  1  0  0  0  0
 22 48  1  0  0  0  0
 23 41  1  0  0  0  0
 24 51  1  0  0  0  0
 25 58  1  0  0  0  0
 26 61  1  0  0  0  0
 27 80  1  0  0  0  0
 28 81  1  0  0  0  0
 29 31  2  0  0  0  0
 29 80  1  0  0  0  0
 30 82  1  0  0  0  0
 31 83  1  0  0  0  0
 32 65  2  0  0  0  0
 33 66  1  0  0  0  0
 33 69  1  0  0  0  0
 34 70  1  0  0  0  0
 34 75  2  0  0  0  0
 35 49  1  0  0  0  0
 35 71  1  0  0  0  0
 35 76  2  0  0  0  0
 36 62  1  0  0  0  0
 36 67  1  0  0  0  0
 36 77  2  0  0  0  0
 37 63  1  0  0  0  0
 37 72  1  0  0  0  0
 37 78  2  0  0  0  0
 38 68  1  0  0  0  0
 38 73  1  0  0  0  0
 38 79  2  0  0  0  0
 39 42  1  0  0  0  0
 40 49  1  0  0  0  0
 41 67  1  0  0  0  0
 42 44  1  0  0  0  0
 43 45  1  0  0  0  0
 43 46  1  0  0  0  0
 44 48  1  0  0  0  0
 45 50  1  0  0  0  0
 46 68  1  0  0  0  0
 47 50  1  0  0  0  0
 47 68  1  0  0  0  0
 48 71  1  0  0  0  0
 49 67  1  0  0  0  0
 50 66  1  0  0  0  0
 52 59  1  0  0  0  0
 53 63  1  0  0  0  0
 54 64  1  0  0  0  0
 55 64  1  0  0  0  0
 56 64  1  0  0  0  0
 57 74  1  0  0  0  0
 58 73  1  0  0  0  0
 59 61  1  0  0  0  0
 60 61  1  0  0  0  0
 60 81  1  0  0  0  0
 62 64  1  0  0  0  0
 62 72  1  0  0  0  0
 63 74  1  0  0  0  0
 65 66  1  0  0  0  0
M  CHG  1  74   1
M  ISO  4  38 100  60 101  73 100  81 101
M  END
> <Batch ID>
0101

> <Smiles>
CCC(c1cc(C)cc(C[100NH:0][100C:0](=O)N2CCCC(n3nc(-c4ccc(Oc5ccc(F)cc5F)cc4)c(C(N)=O)c3N)C2)c1)[101CH2:1][101O:1]c1ccc2c(c1)CN(C(=O)C(NC(=O)C(C)NC)C(C)(C)C)C(C(=O)NC1CCCc3ccccc31)C2

> <Shape>
0.184

> <Color>
0.080

> <Negative vol penalty>
0.000

$$$$

  -OEChem-04052319363D

 85 93  0     1  0  0  0  0  0999 V2000
  -37.2105  -26.0676   10.4001 C   0  0  0  0  0  0  0  0  0  0  0  0
  -37.0075  -25.1060   11.3847 C   0  0  0  0  0  0  0  0  0  0  0  0
  -23.0460   -9.8553   19.9872 C   0  0  0  0  0  0  0  0  0  0  0  0
  -23.7845   -9.9188   22.2867 C   0  0  0  0  0  0  0  0  0  0  0  0
  -36.7671  -27.3741   10.6012 C   0  0  0  0  0  0  0  0  0  0  0  0
  -36.3619  -25.4506   12.5717 C   0  0  0  0  0  0  0  0  0  0  0  0
  -32.8912  -22.0336   13.9583 C   0  0  0  0  0  0  0  0  0  0  0  0
  -22.2774   -8.7250   20.2652 C   0  0  0  0  0  0  0  0  0  0  0  0
  -23.0158   -8.7885   22.5648 C   0  0  0  0  0  0  0  0  0  0  0  0
  -33.3540  -20.8633   14.5583 C   0  0  0  0  0  0  0  0  0  0  0  0
  -19.8379   -6.0365   20.4545 C   0  0  0  0  0  0  0  0  0  0  0  0
  -18.5362   -5.9985   19.9549 C   0  0  0  0  0  0  0  0  0  0  0  0
  -32.7978  -21.7622   16.7267 C   0  0  0  0  0  0  0  0  0  0  0  0
  -17.9969   -7.9920   21.2089 C   0  0  0  0  0  0  0  0  0  0  0  0
  -32.3551  -17.6357   18.9411 C   0  0  0  0  0  0  0  0  0  0  0  0
  -23.7996  -10.4522   20.9980 C   0  0  0  0  0  0  0  0  0  0  0  0
  -24.1919  -12.9653   20.8035 C   0  0  0  0  0  0  0  0  0  0  0  0
  -36.1071  -27.7326   11.7872 C   0  0  0  0  0  0  0  0  0  0  0  0
  -32.3874  -23.0831   14.7401 C   0  0  0  0  0  0  0  0  0  0  0  0
  -35.9105  -26.7634   12.7895 C   0  0  0  0  0  0  0  0  0  0  0  0
  -32.3268  -22.9437   16.1340 C   0  0  0  0  0  0  0  0  0  0  0  0
  -31.0634  -17.5983   19.4179 C   0  0  0  0  0  0  0  0  0  0  0  0
  -30.2277  -17.2019   18.3448 C   0  0  0  0  0  0  0  0  0  0  0  0
  -22.2623   -8.1916   21.5540 C   0  0  0  0  0  0  0  0  0  0  0  0
  -33.3101  -20.7286   15.9428 C   0  0  0  0  0  0  0  0  0  0  0  0
  -20.2192   -7.0521   21.3313 C   0  0  0  0  0  0  0  0  0  0  0  0
  -17.6157   -6.9763   20.3321 C   0  0  0  0  0  0  0  0  0  0  0  0
  -19.2987   -8.0299   21.7085 C   0  0  0  0  0  0  0  0  0  0  0  0
  -24.5942  -11.6194   20.7113 C   0  0  0  0  0  0  0  0  0  0  0  0
  -31.0342  -17.0089   17.2449 C   0  0  0  0  0  0  0  0  0  0  0  0
  -25.3019  -13.6820   20.4281 C   0  0  0  0  0  0  0  0  0  0  0  0
  -22.9280  -13.5183   21.1937 C   0  0  0  0  0  0  0  0  0  0  0  0
  -33.2210  -26.1099   15.2374 C   0  0  0  0  0  0  0  0  0  0  0  0
  -30.4594  -26.1833   16.9376 C   0  0  0  0  0  0  0  0  0  0  0  0
  -28.0897  -24.4632   18.6904 C   0  0  0  0  0  0  0  0  0  0  0  0
  -30.8026  -14.6004   20.6394 C   0  0  0  0  0  0  0  0  0  0  0  0
  -35.6879  -29.1686   11.9791 C   0  0  0  0  0  0  0  0  0  0  0  0
  -31.8673  -24.3283   14.0758 C   0  0  0  0  0  0  0  0  0  0  0  0
  -31.7765  -24.0329   17.0168 C   0  0  0  0  0  0  0  0  0  0  0  0
  -34.6794  -29.3630   13.1085 C   0  0  0  0  0  0  0  0  0  0  0  0
  -29.6408  -12.1654   18.3161 C   0  0  0  0  0  0  0  0  0  0  0  0
  -35.1190  -28.5997   14.3539 C   0  0  0  0  0  0  0  0  0  0  0  0
  -28.1939  -11.9130   18.7436 C   0  0  0  0  0  0  0  0  0  0  0  0
  -30.5508  -12.4056   19.5187 C   0  0  0  0  0  0  0  0  0  0  0  0
  -28.6509  -13.2159   20.8631 C   0  0  0  0  0  0  0  0  0  0  0  0
  -35.1922  -27.0926   14.0802 C   0  0  1  0  0  0  0  0  0  0  0  0
  -31.8509  -25.5386   15.0044 C   0  0  1  0  0  0  0  0  0  0  0  0
  -27.6845  -13.0237   19.6818 C   0  0  2  0  0  0  0  0  0  0  0  0
  -30.6878  -16.5933   15.8692 C   0  0  0  0  0  0  0  0  0  0  0  0
  -25.9723  -24.8006   19.9943 C   0  0  0  0  0  0  0  0  0  0  0  0
  -28.2422  -18.8045   16.6381 C   0  0  0  0  0  0  0  0  0  0  0  0
  -26.4375  -18.0326   18.1909 C   0  0  0  0  0  0  0  0  0  0  0  0
  -32.0807  -27.2617   19.2867 C   0  0  0  0  0  0  0  0  0  0  0  0
  -30.1619  -26.6822   20.7869 C   0  0  0  0  0  0  0  0  0  0  0  0
  -29.8560  -28.3575   18.9642 C   0  0  0  0  0  0  0  0  0  0  0  0
  -26.5370  -22.7621   16.8318 C   0  0  0  0  0  0  0  0  0  0  0  0
  -30.6397  -17.9158   20.7962 C   0  0  0  0  0  0  0  0  0  0  0  0
  -28.7613  -17.0270   18.3936 C   0  0  0  0  0  0  0  0  0  0  0  0
  -33.5404  -17.1909   16.7277 C   0  0  0  0  0  0  0  0  0  0  0  0
  -30.8990  -16.7866   21.8099 C   0  0  0  0  0  0  0  0  0  0  0  0
  -33.6474  -18.3801   15.7793 C   0  0  0  0  0  0  0  0  0  1  0  0
  -30.0800  -25.9096   18.3729 C   0  0  1  0  0  0  0  0  0  0  0  0
  -26.5731  -24.4939   18.6314 C   0  0  2  0  0  0  0  0  0  0  0  0
  -27.9382  -18.3003   18.0511 C   0  0  0  0  0  0  0  0  0  0  0  0
  -30.5569  -27.0329   19.3365 C   0  0  0  0  0  0  0  0  0  0  0  0
  -25.8608  -11.4863   20.3087 N   0  0  0  0  0  0  0  0  0  0  0  0
  -32.3253  -17.2752   17.6192 N   0  0  0  0  0  0  0  0  0  0  0  0
  -26.2640  -12.7577   20.1446 N   0  0  0  0  0  0  0  0  0  0  0  0
  -31.2859  -25.2337   16.3204 N   0  0  0  0  0  0  0  0  0  0  0  0
  -30.0123  -13.4716   20.3670 N   0  0  0  0  0  0  0  0  0  0  0  0
  -25.5390  -15.0062   20.3162 N   0  0  0  0  0  0  0  0  0  0  0  0
  -21.8953  -12.6397   21.5488 N   0  0  0  0  0  0  0  0  0  0  0  0
  -33.8660  -26.5133   14.0839 N   0  0  0  0  0  0  0  0  0  0  0  0
  -28.6378  -25.6895   18.3791 N   0  0  0  0  0  0  0  0  0  0  0  0
  -30.2139  -15.5663   21.4464 N   0  0  0  0  0  0  0  0  0  0  0  0
  -26.0459  -23.1783   18.1707 N   0  3  0  0  0  0  0  0  0  0  0  0
  -22.7153  -14.7544   21.2107 O   0  0  0  0  0  0  0  0  0  0  0  0
  -33.6597  -26.1809   16.3794 O   0  0  0  0  0  0  0  0  0  0  0  0
  -30.0321  -27.1985   16.3822 O   0  0  0  0  0  0  0  0  0  0  0  0
  -28.7244  -23.4534   18.9870 O   0  0  0  0  0  0  0  0  0  0  0  0
  -31.9459  -14.7398   20.1918 O   0  0  0  0  0  0  0  0  0  0  0  0
  -21.5122   -7.0889   21.8257 O   0  0  0  0  0  0  0  0  0  0  0  0
  -33.7618  -19.5876   16.5311 O   0  0  0  0  0  0  0  0  0  1  0  0
  -16.3660   -6.9406   19.8512 F   0  0  0  0  0  0  0  0  0  0  0  0
  -19.6595   -9.0088   22.5496 F   0  0  0  0  0  0  0  0  0  0  0  0
  1  2  1  0  0  0  0
  1  5  2  0  0  0  0
  2  6  2  0  0  0  0
  3  8  2  0  0  0  0
  3 16  1  0  0  0  0
  4  9  1  0  0  0  0
  4 16  2  0  0  0  0
  5 18  1  0  0  0  0
  6 20  1  0  0  0  0
  7 10  2  0  0  0  0
  7 19  1  0  0  0  0
  8 24  1  0  0  0  0
  9 24  2  0  0  0  0
 10 25  1  0  0  0  0
 11 12  2  0  0  0  0
 11 26  1  0  0  0  0
 12 27  1  0  0  0  0
 13 21  1  0  0  0  0
 13 25  2  0  0  0  0
 14 27  2  0  0  0  0
 14 28  1  0  0  0  0
 15 22  2  0  0  0  0
 15 67  1  0  0  0  0
 16 29  1  0  0  0  0
 17 29  1  0  0  0  0
 17 31  2  0  0  0  0
 17 32  1  0  0  0  0
 18 20  2  0  0  0  0
 18 37  1  0  0  0  0
 19 21  2  0  0  0  0
 19 38  1  0  0  0  0
 20 46  1  0  0  0  0
 21 39  1  0  0  0  0
 22 23  1  0  0  0  0
 22 57  1  0  0  0  0
 23 30  2  0  0  0  0
 23 58  1  0  0  0  0
 24 82  1  0  0  0  0
 25 83  1  0  0  0  0
 26 28  2  0  0  0  0
 26 82  1  0  0  0  0
 27 84  1  0  0  0  0
 28 85  1  0  0  0  0
 29 66  2  0  0  0  0
 30 49  1  0  0  0  0
 30 67  1  0  0  0  0
 31 68  1  0  0  0  0
 31 71  1  0  0  0  0
 32 72  1  0  0  0  0
 32 77  2  0  0  0  0
 33 47  1  0  0  0  0
 33 73  1  0  0  0  0
 33 78  2  0  0  0  0
 34 62  1  0  0  0  0
 34 69  1  0  0  0  0
 34 79  2  0  0  0  0
 35 63  1  0  0  0  0
 35 74  1  0  0  0  0
 35 80  2  0  0  0  0
 36 70  1  0  0  0  0
 36 75  1  0  0  0  0
 36 81  2  0  0  0  0
 37 40  1  0  0  0  0
 38 47  1  0  0  0  0
 39 69  1  0  0  0  0
 40 42  1  0  0  0  0
 41 43  1  0  0  0  0
 41 44  1  0  0  0  0
 42 46  1  0  0  0  0
 43 48  1  0  0  0  0
 44 70  1  0  0  0  0
 45 48  1  0  0  0  0
 45 70  1  0  0  0  0
 46 73  1  0  0  0  0
 47 69  1  0  0  0  0
 48 68  1  0  0  0  0
 50 63  1  0  0  0  0
 51 64  1  0  0  0  0
 52 64  1  0  0  0  0
 53 65  1  0  0  0  0
 54 65  1  0  0  0  0
 55 65  1  0  0  0  0
 56 76  1  0  0  0  0
 57 60  1  0  0  0  0
 58 64  1  0  0  0  0
 59 61  1  0  0  0  0
 59 67  1  0  0  0  0
 60 75  1  0  0  0  0
 61 83  1  0  0  0  0
 62 65  1  0  0  0  0
 62 74  1  0  0  0  0
 63 76  1  0  0  0  0
 66 68  1  0  0  0  0
M  CHG  1  76   1
M  ISO  4  36 100  61 101  75 100  83 101
M  END
> <Batch ID>
0101

> <Smiles>
CNC(C)C(=O)NC(C(=O)N1Cc2cc([101O:1][101CH2:1]Cn3cc(CC[100NH:0][100C:0](=O)N4CCCC(n5nc(-c6ccc(Oc7ccc(F)cc7F)cc6)c(C(N)=O)c5N)C4)c(CC(C)C)c3C)ccc2CC1C(=O)NC1CCCc2ccccc21)C(C)(C)C

> <Shape>
0.210

> <Color>
0.212

> <Negative vol penalty>
0.000

$$$$

  -OEChem-04052319363D

 86 94  0     1  0  0  0  0  0999 V2000
  -23.9666  -16.3435   14.4363 C   0  0  0  0  0  0  0  0  0  0  0  0
  -25.1206  -16.3814   15.2124 C   0  0  0  0  0  0  0  0  0  0  0  0
  -26.4842  -27.9309   18.4327 C   0  0  0  0  0  0  0  0  0  0  0  0
  -26.1522  -27.4639   20.7797 C   0  0  0  0  0  0  0  0  0  0  0  0
  -22.7420  -16.0312   15.0250 C   0  0  0  0  0  0  0  0  0  0  0  0
  -25.0504  -16.1081   16.5780 C   0  0  0  0  0  0  0  0  0  0  0  0
  -28.7471  -13.0159   18.1329 C   0  0  0  0  0  0  0  0  0  0  0  0
  -26.0411  -29.2386   18.6302 C   0  0  0  0  0  0  0  0  0  0  0  0
  -25.7091  -28.7717   20.9773 C   0  0  0  0  0  0  0  0  0  0  0  0
  -30.0104  -13.5762   18.3173 C   0  0  0  0  0  0  0  0  0  0  0  0
  -27.0830  -31.8398   21.3233 C   0  0  0  0  0  0  0  0  0  0  0  0
  -27.5781  -32.5300   22.4296 C   0  0  0  0  0  0  0  0  0  0  0  0
  -29.6080  -13.6864   20.6933 C   0  0  0  0  0  0  0  0  0  0  0  0
  -31.5491  -19.5265   17.3982 C   0  0  0  0  0  0  0  0  0  0  0  0
  -25.3301  -32.7833   23.2777 C   0  0  0  0  0  0  0  0  0  0  0  0
  -26.5397  -27.0434   19.5075 C   0  0  0  0  0  0  0  0  0  0  0  0
  -28.3194  -25.2191   19.3972 C   0  0  0  0  0  0  0  0  0  0  0  0
  -22.6582  -15.7445   16.3967 C   0  0  0  0  0  0  0  0  0  0  0  0
  -27.8991  -12.7964   19.2279 C   0  0  0  0  0  0  0  0  0  0  0  0
  -23.8232  -15.7929   17.1858 C   0  0  0  0  0  0  0  0  0  0  0  0
  -28.3354  -13.1209   20.5203 C   0  0  0  0  0  0  0  0  0  0  0  0
  -30.7007  -20.1382   16.4426 C   0  0  0  0  0  0  0  0  0  0  0  0
  -25.6536  -29.6590   19.9024 C   0  0  0  0  0  0  0  0  0  0  0  0
  -30.4399  -13.9142   19.5973 C   0  0  0  0  0  0  0  0  0  0  0  0
  -25.7114  -31.6213   21.1941 C   0  0  0  0  0  0  0  0  0  0  0  0
  -26.7017  -33.0018   23.4068 C   0  0  0  0  0  0  0  0  0  0  0  0
  -24.8349  -32.0931   22.1713 C   0  0  0  0  0  0  0  0  0  0  0  0
  -26.9968  -25.6922   19.3040 C   0  0  0  0  0  0  0  0  0  0  0  0
  -30.7459  -18.8398   18.2816 C   0  0  0  0  0  0  0  0  0  0  0  0
  -29.4047  -19.8068   16.7713 C   0  0  0  0  0  0  0  0  0  0  0  0
  -28.2247  -23.8777   19.1178 C   0  0  0  0  0  0  0  0  0  0  0  0
  -29.5257  -25.9287   19.7086 C   0  0  0  0  0  0  0  0  0  0  0  0
  -25.0350  -13.8668   20.0969 C   0  0  0  0  0  0  0  0  0  0  0  0
  -25.3778  -11.6947   22.4816 C   0  0  0  0  0  0  0  0  0  0  0  0
  -27.4762   -9.8350   24.4271 C   0  0  0  0  0  0  0  0  0  0  0  0
  -25.3991  -19.0607   20.1806 C   0  0  0  0  0  0  0  0  0  0  0  0
  -21.3046  -15.4584   16.9972 C   0  0  0  0  0  0  0  0  0  0  0  0
  -26.5499  -12.1665   19.0151 C   0  0  0  0  0  0  0  0  0  0  0  0
  -27.4711  -12.8865   21.7313 C   0  0  0  0  0  0  0  0  0  0  0  0
  -21.3753  -14.8143   18.3794 C   0  0  0  0  0  0  0  0  0  0  0  0
  -24.3974  -21.1401   17.2868 C   0  0  0  0  0  0  0  0  0  0  0  0
  -22.3800  -15.5500   19.2604 C   0  0  0  0  0  0  0  0  0  0  0  0
  -25.0393  -22.4888   17.6076 C   0  0  0  0  0  0  0  0  0  0  0  0
  -24.0691  -20.3529   18.5518 C   0  0  0  0  0  0  0  0  0  0  0  0
  -25.8732  -21.5122   19.7828 C   0  0  0  0  0  0  0  0  0  0  0  0
  -23.7916  -15.4781   18.6657 C   0  0  1  0  0  0  0  0  0  0  0  0
  -25.5675  -12.4625   20.1441 C   0  0  1  0  0  0  0  0  0  0  0  0
  -26.2589  -22.3106   18.5285 C   0  0  2  0  0  0  0  0  0  0  0  0
  -31.1339  -20.9749   15.3059 C   0  0  0  0  0  0  0  0  0  0  0  0
  -28.1317  -20.1742   16.1151 C   0  0  0  0  0  0  0  0  0  0  0  0
  -27.4645   -8.1820   26.3151 C   0  0  0  0  0  0  0  0  0  0  0  0
  -34.2352  -15.7739   20.2777 C   0  0  0  0  0  0  0  0  0  0  0  0
  -24.7997  -13.9522   24.4513 C   0  0  0  0  0  0  0  0  0  0  0  0
  -25.7219  -12.5044   26.2738 C   0  0  0  0  0  0  0  0  0  0  0  0
  -23.7003  -11.7758   25.0071 C   0  0  0  0  0  0  0  0  0  0  0  0
  -26.9362  -17.4459   21.2338 C   0  0  0  0  0  0  0  0  0  0  0  0
  -28.7664   -7.7530   22.7659 C   0  0  0  0  0  0  0  0  0  0  0  0
  -31.1205  -18.0142   19.4870 C   0  0  0  0  0  0  0  0  0  0  0  0
  -32.4931  -17.3359   19.3765 C   0  0  0  0  0  0  0  0  0  0  0  0
  -28.2887  -18.4568   18.5593 C   0  0  0  0  0  0  0  0  0  0  0  0
  -27.8983  -19.2239   19.8200 C   0  0  0  0  0  0  0  0  0  0  0  0
  -31.8286  -15.3566   20.8807 C   0  0  0  0  0  0  0  0  0  1  0  0
  -25.9599  -11.7190   23.8743 C   0  0  1  0  0  0  0  0  0  0  0  0
  -27.4608   -8.3649   24.8054 C   0  0  2  0  0  0  0  0  0  0  0  0
  -32.8792  -16.4303   20.5669 C   0  0  1  0  0  0  0  0  0  0  0  0
  -25.0612  -12.4942   24.8788 C   0  0  0  0  0  0  0  0  0  0  0  0
  -26.1258  -24.7297   18.9897 N   0  0  0  0  0  0  0  0  0  0  0  0
  -29.4443  -19.0175   17.8910 N   0  0  0  0  0  0  0  0  0  0  0  0
  -26.9026  -23.6383   18.8830 N   0  0  0  0  0  0  0  0  0  0  0  0
  -26.1578  -12.2741   21.4709 N   0  0  0  0  0  0  0  0  0  0  0  0
  -25.2346  -20.2357   19.4288 N   0  0  0  0  0  0  0  0  0  0  0  0
  -29.1441  -22.8914   19.0523 N   0  0  0  0  0  0  0  0  0  0  0  0
  -29.4438  -27.3033   19.9697 N   0  0  0  0  0  0  0  0  0  0  0  0
  -24.3820  -14.1816   18.9205 N   0  0  0  0  0  0  0  0  0  0  0  0
  -26.2020  -10.3276   24.2399 N   0  0  0  0  0  0  0  0  0  0  0  0
  -26.7139  -18.6636   20.4672 N   0  0  0  0  0  0  0  0  0  0  0  0
  -28.6562   -7.6734   24.2452 N   0  3  0  0  0  0  0  0  0  0  0  0
  -30.6454  -25.3639   19.7378 O   0  0  0  0  0  0  0  0  0  0  0  0
  -25.2029  -14.6092   21.0573 O   0  0  0  0  0  0  0  0  0  0  0  0
  -24.2749  -11.1743   22.2962 O   0  0  0  0  0  0  0  0  0  0  0  0
  -28.5145  -10.4826   24.3130 O   0  0  0  0  0  0  0  0  0  0  0  0
  -24.4264  -18.3988   20.5650 O   0  0  0  0  0  0  0  0  0  0  0  0
  -25.2214  -30.9352   20.0956 O   0  0  0  0  0  0  0  0  0  0  0  0
  -31.6722  -14.4618   19.7801 O   0  0  0  0  0  0  0  0  0  1  0  0
  -27.1774  -33.6633   24.4700 F   0  0  0  0  0  0  0  0  0  0  0  0
  -23.5163  -31.8852   22.0533 F   0  0  0  0  0  0  0  0  0  0  0  0
  1  2  1  0  0  0  0
  1  5  2  0  0  0  0
  2  6  2  0  0  0  0
  3  8  2  0  0  0  0
  3 16  1  0  0  0  0
  4  9  1  0  0  0  0
  4 16  2  0  0  0  0
  5 18  1  0  0  0  0
  6 20  1  0  0  0  0
  7 10  2  0  0  0  0
  7 19  1  0  0  0  0
  8 23  1  0  0  0  0
  9 23  2  0  0  0  0
 10 24  1  0  0  0  0
 11 12  2  0  0  0  0
 11 25  1  0  0  0  0
 12 26  1  0  0  0  0
 13 21  1  0  0  0  0
 13 24  2  0  0  0  0
 14 22  1  0  0  0  0
 14 29  2  0  0  0  0
 15 26  2  0  0  0  0
 15 27  1  0  0  0  0
 16 28  1  0  0  0  0
 17 28  1  0  0  0  0
 17 31  2  0  0  0  0
 17 32  1  0  0  0  0
 18 20  2  0  0  0  0
 18 37  1  0  0  0  0
 19 21  2  0  0  0  0
 19 38  1  0  0  0  0
 20 46  1  0  0  0  0
 21 39  1  0  0  0  0
 22 30  2  0  0  0  0
 22 49  1  0  0  0  0
 23 83  1  0  0  0  0
 24 84  1  0  0  0  0
 25 27  2  0  0  0  0
 25 83  1  0  0  0  0
 26 85  1  0  0  0  0
 27 86  1  0  0  0  0
 28 67  2  0  0  0  0
 29 58  1  0  0  0  0
 29 68  1  0  0  0  0
 30 50  1  0  0  0  0
 30 68  1  0  0  0  0
 31 69  1  0  0  0  0
 31 72  1  0  0  0  0
 32 73  1  0  0  0  0
 32 78  2  0  0  0  0
 33 47  1  0  0  0  0
 33 74  1  0  0  0  0
 33 79  2  0  0  0  0
 34 63  1  0  0  0  0
 34 70  1  0  0  0  0
 34 80  2  0  0  0  0
 35 64  1  0  0  0  0
 35 75  1  0  0  0  0
 35 81  2  0  0  0  0
 36 71  1  0  0  0  0
 36 76  1  0  0  0  0
 36 82  2  0  0  0  0
 37 40  1  0  0  0  0
 38 47  1  0  0  0  0
 39 70  1  0  0  0  0
 40 42  1  0  0  0  0
 41 43  1  0  0  0  0
 41 44  1  0  0  0  0
 42 46  1  0  0  0  0
 43 48  1  0  0  0  0
 44 71  1  0  0  0  0
 45 48  1  0  0  0  0
 45 71  1  0  0  0  0
 46 74  1  0  0  0  0
 47 70  1  0  0  0  0
 48 69  1  0  0  0  0
 51 64  1  0  0  0  0
 52 65  1  0  0  0  0
 53 66  1  0  0  0  0
 54 66  1  0  0  0  0
 55 66  1  0  0  0  0
 56 76  1  0  0  0  0
 57 77  1  0  0  0  0
 58 59  1  0  0  0  0
 59 65  1  0  0  0  0
 60 61  1  0  0  0  0
 60 68  1  0  0  0  0
 61 76  1  0  0  0  0
 62 65  1  0  0  0  0
 62 84  1  0  0  0  0
 63 66  1  0  0  0  0
 63 75  1  0  0  0  0
 64 77  1  0  0  0  0
 67 69  1  0  0  0  0
M  CHG  1  77   1
M  ISO  4  36 100  62 101  76 100  84 101
M  END
> <Batch ID>
0101

> <Smiles>
CNC(C)C(=O)NC(C(=O)N1Cc2cc([101O:1][101CH2:1]C(C)CCc3cc(C)c(C)n3CC[100N:0](C)[100C:0](=O)N3CCCC(n4nc(-c5ccc(Oc6ccc(F)cc6F)cc5)c(C(N)=O)c4N)C3)ccc2CC1C(=O)NC1CCCc2ccccc21)C(C)(C)C

> <Shape>
0.207

> <Color>
0.096

> <Negative vol penalty>
0.000

$$$$

  -OEChem-04052319363D

 82 90  0     1  0  0  0  0  0999 V2000
  -28.9274  -18.5461   18.6363 C   0  0  0  0  0  0  0  0  0  0  0  0
  -29.3207  -17.5016   19.4669 C   0  0  0  0  0  0  0  0  0  0  0  0
  -23.1537   -9.8652   19.9616 C   0  0  0  0  0  0  0  0  0  0  0  0
  -23.8223   -9.9651   22.2811 C   0  0  0  0  0  0  0  0  0  0  0  0
  -28.6536  -19.8011   19.1784 C   0  0  0  0  0  0  0  0  0  0  0  0
  -29.4415  -17.7120   20.8401 C   0  0  0  0  0  0  0  0  0  0  0  0
  -28.2214  -13.6971   25.3008 C   0  0  0  0  0  0  0  0  0  0  0  0
  -22.4401   -8.6945   20.2177 C   0  0  0  0  0  0  0  0  0  0  0  0
  -23.1086   -8.7943   22.5373 C   0  0  0  0  0  0  0  0  0  0  0  0
  -29.0384  -12.8563   26.0553 C   0  0  0  0  0  0  0  0  0  0  0  0
  -23.5335   -5.4698   22.0922 C   0  0  0  0  0  0  0  0  0  0  0  0
  -24.1547   -4.4879   22.8638 C   0  0  0  0  0  0  0  0  0  0  0  0
  -29.1080  -14.5094   27.8109 C   0  0  0  0  0  0  0  0  0  0  0  0
  -33.3293  -13.8184   23.7593 C   0  0  0  0  0  0  0  0  0  0  0  0
  -22.3826   -4.6511   24.4980 C   0  0  0  0  0  0  0  0  0  0  0  0
  -31.9404  -14.4569   25.4125 C   0  0  0  0  0  0  0  0  0  0  0  0
  -23.8449  -10.5005   20.9933 C   0  0  0  0  0  0  0  0  0  0  0  0
  -24.1055  -13.0316   20.8102 C   0  0  0  0  0  0  0  0  0  0  0  0
  -28.7618  -20.0244   20.5601 C   0  0  0  0  0  0  0  0  0  0  0  0
  -27.8498  -14.9570   25.7919 C   0  0  0  0  0  0  0  0  0  0  0  0
  -29.1702  -18.9715   21.4010 C   0  0  0  0  0  0  0  0  0  0  0  0
  -28.2841  -15.3632   27.0617 C   0  0  0  0  0  0  0  0  0  0  0  0
  -32.1653  -14.5686   24.0582 C   0  0  0  0  0  0  0  0  0  0  0  0
  -22.4175   -8.1590   21.5055 C   0  0  0  0  0  0  0  0  0  0  0  0
  -29.4842  -13.2636   27.3093 C   0  0  0  0  0  0  0  0  0  0  0  0
  -22.3369   -6.0425   22.5234 C   0  0  0  0  0  0  0  0  0  0  0  0
  -23.5793   -4.0785   24.0667 C   0  0  0  0  0  0  0  0  0  0  0  0
  -21.7615   -5.6331   23.7263 C   0  0  0  0  0  0  0  0  0  0  0  0
  -24.5828  -11.7097   20.7293 C   0  0  0  0  0  0  0  0  0  0  0  0
  -33.7802  -13.2708   24.9402 C   0  0  0  0  0  0  0  0  0  0  0  0
  -25.1851  -13.8080   20.4664 C   0  0  0  0  0  0  0  0  0  0  0  0
  -22.8028  -13.5145   21.1644 C   0  0  0  0  0  0  0  0  0  0  0  0
  -28.3103  -17.9572   24.8484 C   0  0  0  0  0  0  0  0  0  0  0  0
  -26.3062  -18.6274   27.3094 C   0  0  0  0  0  0  0  0  0  0  0  0
  -24.9681  -17.6698   30.2993 C   0  0  0  0  0  0  0  0  0  0  0  0
  -30.9415  -13.9727   21.0590 C   0  0  0  0  0  0  0  0  0  0  0  0
  -28.5012  -21.4106   21.0941 C   0  0  0  0  0  0  0  0  0  0  0  0
  -26.9460  -15.8411   24.9770 C   0  0  0  0  0  0  0  0  0  0  0  0
  -27.8969  -16.6976   27.6429 C   0  0  0  0  0  0  0  0  0  0  0  0
  -28.2907  -21.4516   22.6054 C   0  0  0  0  0  0  0  0  0  0  0  0
  -29.3949  -13.0242   17.9955 C   0  0  0  0  0  0  0  0  0  0  0  0
  -29.3600  -20.6277   23.3159 C   0  0  0  0  0  0  0  0  0  0  0  0
  -27.9519  -12.7114   18.3957 C   0  0  0  0  0  0  0  0  0  0  0  0
  -30.3856  -12.5961   19.0759 C   0  0  0  0  0  0  0  0  0  0  0  0
  -28.6602  -12.8168   20.8218 C   0  0  0  0  0  0  0  0  0  0  0  0
  -29.2887  -19.1538   22.8986 C   0  0  1  0  0  0  0  0  0  0  0  0
  -27.0508  -17.3149   25.3569 C   0  0  1  0  0  0  0  0  0  0  0  0
  -27.6201  -13.2812   19.7879 C   0  0  2  0  0  0  0  0  0  0  0  0
  -34.9502  -12.4062   25.1984 C   0  0  0  0  0  0  0  0  0  0  0  0
  -23.3870  -18.4432   32.0879 C   0  0  0  0  0  0  0  0  0  0  0  0
  -30.7721  -10.1245   27.6815 C   0  0  0  0  0  0  0  0  0  0  0  0
  -28.4296  -20.5561   28.3492 C   0  0  0  0  0  0  0  0  0  0  0  0
  -27.2442  -20.5625   30.5544 C   0  0  0  0  0  0  0  0  0  0  0  0
  -26.0818  -21.4021   28.5132 C   0  0  0  0  0  0  0  0  0  0  0  0
  -23.1721  -15.3562   29.8742 C   0  0  0  0  0  0  0  0  0  0  0  0
  -31.3448  -15.3300   23.0972 C   0  0  0  0  0  0  0  0  0  0  0  0
  -32.6001  -11.8600   27.7078 C   0  0  0  0  0  0  0  0  0  0  0  0
  -33.0434  -13.2966   27.3958 C   0  0  0  0  0  0  0  0  0  0  0  0
  -26.4797  -18.9197   28.7803 C   0  0  1  0  0  0  0  0  0  0  0  0
  -23.5354  -17.6472   30.8007 C   0  0  2  0  0  0  0  0  0  0  0  0
  -31.1436  -11.5601   27.3326 C   0  0  2  0  0  0  0  0  0  1  0  0
  -27.0679  -20.3357   29.0378 C   0  0  0  0  0  0  0  0  0  0  0  0
  -25.8656  -11.6461   20.3628 N   0  0  0  0  0  0  0  0  0  0  0  0
  -32.9280  -13.6655   25.9383 N   0  0  0  0  0  0  0  0  0  0  0  0
  -26.2036  -12.9378   20.2102 N   0  0  0  0  0  0  0  0  0  0  0  0
  -27.0168  -17.5290   26.8051 N   0  0  0  0  0  0  0  0  0  0  0  0
  -30.0152  -13.1715   20.3711 N   0  0  0  0  0  0  0  0  0  0  0  0
  -25.3530  -15.1434   20.3613 N   0  0  0  0  0  0  0  0  0  0  0  0
  -21.8098  -12.5806   21.4900 N   0  0  0  0  0  0  0  0  0  0  0  0
  -28.1976  -18.4885   23.5778 N   0  0  0  0  0  0  0  0  0  0  0  0
  -25.1778  -18.6920   29.3981 N   0  0  0  0  0  0  0  0  0  0  0  0
  -30.5078  -14.4836   22.2762 N   0  0  0  0  0  0  0  0  0  0  0  0
  -23.1001  -16.2460   31.0617 N   0  3  0  0  0  0  0  0  0  0  0  0
  -22.5229  -14.7372   21.1754 O   0  0  0  0  0  0  0  0  0  0  0  0
  -29.3100  -17.9712   25.5570 O   0  0  0  0  0  0  0  0  0  0  0  0
  -25.5618  -19.3428   26.6344 O   0  0  0  0  0  0  0  0  0  0  0  0
  -25.8174  -16.8637   30.6729 O   0  0  0  0  0  0  0  0  0  0  0  0
  -32.0693  -14.2190   20.6183 O   0  0  0  0  0  0  0  0  0  0  0  0
  -21.7210   -7.0167   21.7558 O   0  0  0  0  0  0  0  0  0  0  0  0
  -30.2824  -12.4452   28.0476 O   0  0  0  0  0  0  0  0  0  1  0  0
  -24.1751   -3.1344   24.8069 F   0  0  0  0  0  0  0  0  0  0  0  0
  -20.6114   -6.1788   24.1452 F   0  0  0  0  0  0  0  0  0  0  0  0
  1  2  1  0  0  0  0
  1  5  2  0  0  0  0
  2  6  2  0  0  0  0
  3  8  2  0  0  0  0
  3 17  1  0  0  0  0
  4  9  1  0  0  0  0
  4 17  2  0  0  0  0
  5 19  1  0  0  0  0
  6 21  1  0  0  0  0
  7 10  2  0  0  0  0
  7 20  1  0  0  0  0
  8 24  1  0  0  0  0
  9 24  2  0  0  0  0
 10 25  1  0  0  0  0
 11 12  2  0  0  0  0
 11 26  1  0  0  0  0
 12 27  1  0  0  0  0
 13 22  1  0  0  0  0
 13 25  2  0  0  0  0
 14 23  1  0  0  0  0
 14 30  2  0  0  0  0
 15 27  2  0  0  0  0
 15 28  1  0  0  0  0
 16 23  2  0  0  0  0
 16 64  1  0  0  0  0
 17 29  1  0  0  0  0
 18 29  1  0  0  0  0
 18 31  2  0  0  0  0
 18 32  1  0  0  0  0
 19 21  2  0  0  0  0
 19 37  1  0  0  0  0
 20 22  2  0  0  0  0
 20 38  1  0  0  0  0
 21 46  1  0  0  0  0
 22 39  1  0  0  0  0
 23 56  1  0  0  0  0
 24 79  1  0  0  0  0
 25 80  1  0  0  0  0
 26 28  2  0  0  0  0
 26 79  1  0  0  0  0
 27 81  1  0  0  0  0
 28 82  1  0  0  0  0
 29 63  2  0  0  0  0
 30 49  1  0  0  0  0
 30 64  1  0  0  0  0
 31 65  1  0  0  0  0
 31 68  1  0  0  0  0
 32 69  1  0  0  0  0
 32 74  2  0  0  0  0
 33 47  1  0  0  0  0
 33 70  1  0  0  0  0
 33 75  2  0  0  0  0
 34 59  1  0  0  0  0
 34 66  1  0  0  0  0
 34 76  2  0  0  0  0
 35 60  1  0  0  0  0
 35 71  1  0  0  0  0
 35 77  2  0  0  0  0
 36 67  1  0  0  0  0
 36 72  1  0  0  0  0
 36 78  2  0  0  0  0
 37 40  1  0  0  0  0
 38 47  1  0  0  0  0
 39 66  1  0  0  0  0
 40 42  1  0  0  0  0
 41 43  1  0  0  0  0
 41 44  1  0  0  0  0
 42 46  1  0  0  0  0
 43 48  1  0  0  0  0
 44 67  1  0  0  0  0
 45 48  1  0  0  0  0
 45 67  1  0  0  0  0
 46 70  1  0  0  0  0
 47 66  1  0  0  0  0
 48 65  1  0  0  0  0
 50 60  1  0  0  0  0
 51 61  1  0  0  0  0
 52 62  1  0  0  0  0
 53 62  1  0  0  0  0
 54 62  1  0  0  0  0
 55 73  1  0  0  0  0
 56 72  1  0  0  0  0
 57 58  1  0  0  0  0
 57 61  1  0  0  0  0
 58 64  1  0  0  0  0
 59 62  1  0  0  0  0
 59 71  1  0  0  0  0
 60 73  1  0  0  0  0
 61 80  1  0  0  0  0
 63 65  1  0  0  0  0
M  CHG  1  73   1
M  ISO  4  36 100  61 101  72 100  80 101
M  END
> <Batch ID>
0101

> <Smiles>
CNC(C)C(=O)NC(C(=O)N1Cc2cc([101O:1][101CH:1](C)CCn3cc(C[100NH:0][100C:0](=O)N4CCCC(n5nc(-c6ccc(Oc7ccc(F)cc7F)cc6)c(C(N)=O)c5N)C4)cc3C)ccc2CC1C(=O)NC1CCCc2ccccc21)C(C)(C)C

> <Shape>
0.205

> <Color>
0.196

> <Negative vol penalty>
0.000

$$$$

  -OEChem-04052319363D

 82 90  0     1  0  0  0  0  0999 V2000
  -23.5698  -36.2577   22.6993 C   0  0  0  0  0  0  0  0  0  0  0  0
  -24.5248  -35.3135   22.3362 C   0  0  0  0  0  0  0  0  0  0  0  0
  -24.0898  -14.2148   21.3561 C   0  0  0  0  0  0  0  0  0  0  0  0
  -26.2374  -14.2196   20.2493 C   0  0  0  0  0  0  0  0  0  0  0  0
  -22.4369  -35.8638   23.4102 C   0  0  0  0  0  0  0  0  0  0  0  0
  -24.3480  -33.9750   22.6847 C   0  0  0  0  0  0  0  0  0  0  0  0
  -26.0269  -29.0695   19.4254 C   0  0  0  0  0  0  0  0  0  0  0  0
  -23.8165  -12.9563   20.8204 C   0  0  0  0  0  0  0  0  0  0  0  0
  -25.9641  -12.9610   19.7137 C   0  0  0  0  0  0  0  0  0  0  0  0
  -27.1353  -28.2272   19.5015 C   0  0  0  0  0  0  0  0  0  0  0  0
  -24.6551   -9.7430   21.4559 C   0  0  0  0  0  0  0  0  0  0  0  0
  -24.1154   -8.7792   22.3076 C   0  0  0  0  0  0  0  0  0  0  0  0
  -25.8578  -26.6767   20.8368 C   0  0  0  0  0  0  0  0  0  0  0  0
  -30.5576  -22.0002   20.9790 C   0  0  0  0  0  0  0  0  0  0  0  0
  -29.0678  -20.5020   19.8072 C   0  0  0  0  0  0  0  0  0  0  0  0
  -28.9482  -22.8817   19.4073 C   0  0  0  0  0  0  0  0  0  0  0  0
  -22.1652   -8.6190   20.8905 C   0  0  0  0  0  0  0  0  0  0  0  0
  -25.3003  -14.8465   21.0705 C   0  0  0  0  0  0  0  0  0  0  0  0
  -26.2143  -16.4306   22.8489 C   0  0  0  0  0  0  0  0  0  0  0  0
  -22.2414  -34.5182   23.7592 C   0  0  0  0  0  0  0  0  0  0  0  0
  -24.8269  -28.7263   20.0646 C   0  0  0  0  0  0  0  0  0  0  0  0
  -23.2121  -33.5629   23.4021 C   0  0  0  0  0  0  0  0  0  0  0  0
  -24.7349  -27.5151   20.7651 C   0  0  0  0  0  0  0  0  0  0  0  0
  -30.1008  -20.7076   20.7217 C   0  0  0  0  0  0  0  0  0  0  0  0
  -29.9812  -23.0873   20.3218 C   0  0  0  0  0  0  0  0  0  0  0  0
  -28.4915  -21.5891   19.1500 C   0  0  0  0  0  0  0  0  0  0  0  0
  -24.7537  -12.3294   19.9992 C   0  0  0  0  0  0  0  0  0  0  0  0
  -27.0518  -27.0320   20.2097 C   0  0  0  0  0  0  0  0  0  0  0  0
  -23.9499  -10.1448   20.3215 C   0  0  0  0  0  0  0  0  0  0  0  0
  -22.8705   -8.2172   22.0250 C   0  0  0  0  0  0  0  0  0  0  0  0
  -22.7049   -9.5828   20.0388 C   0  0  0  0  0  0  0  0  0  0  0  0
  -25.5830  -16.1468   21.6231 C   0  0  0  0  0  0  0  0  0  0  0  0
  -26.2439  -17.8024   22.9104 C   0  0  0  0  0  0  0  0  0  0  0  0
  -26.7281  -15.5344   23.8431 C   0  0  0  0  0  0  0  0  0  0  0  0
  -23.0692  -30.0156   22.3780 C   0  0  0  0  0  0  0  0  0  0  0  0
  -26.1025  -22.0150   18.6271 C   0  0  0  0  0  0  0  0  0  0  0  0
  -21.0047  -27.6370   21.6016 C   0  0  0  0  0  0  0  0  0  0  0  0
  -20.5267  -24.5477   20.2326 C   0  0  0  0  0  0  0  0  0  0  0  0
  -21.0241  -34.1478   24.5690 C   0  0  0  0  0  0  0  0  0  0  0  0
  -23.6322  -29.6329   19.9506 C   0  0  0  0  0  0  0  0  0  0  0  0
  -23.4634  -27.0909   21.4520 C   0  0  0  0  0  0  0  0  0  0  0  0
  -20.7284  -32.6502   24.5738 C   0  0  0  0  0  0  0  0  0  0  0  0
  -23.8817  -21.6772   21.4189 C   0  0  0  0  0  0  0  0  0  0  0  0
  -22.0029  -31.8552   24.8399 C   0  0  0  0  0  0  0  0  0  0  0  0
  -24.1028  -20.2376   21.8813 C   0  0  0  0  0  0  0  0  0  0  0  0
  -23.9950  -21.8002   19.9026 C   0  0  0  0  0  0  0  0  0  0  0  0
  -25.5041  -19.8419   19.8066 C   0  0  0  0  0  0  0  0  0  0  0  0
  -23.0439  -32.0975   23.7403 C   0  0  1  0  0  0  0  0  0  0  0  0
  -22.6174  -29.4279   21.0711 C   0  0  1  0  0  0  0  0  0  0  0  0
  -25.4286  -19.6789   21.3350 C   0  0  2  0  0  0  0  0  0  0  0  0
  -30.7177  -19.5457   21.4244 C   0  0  0  0  0  0  0  0  0  0  0  0
  -27.7216  -21.8600   16.7571 C   0  0  0  0  0  0  0  0  0  0  0  0
  -18.7347  -22.8516   19.7751 C   0  0  0  0  0  0  0  0  0  0  0  0
  -21.0085  -26.8422   24.5475 C   0  0  0  0  0  0  0  0  0  0  0  0
  -20.0073  -24.6454   23.8842 C   0  0  0  0  0  0  0  0  0  0  0  0
  -18.7634  -26.7633   23.4485 C   0  0  0  0  0  0  0  0  0  0  0  0
  -20.9766  -24.6893   17.3108 C   0  0  0  0  0  0  0  0  0  0  0  0
  -30.4748  -24.4848   20.5992 C   0  0  0  0  0  0  0  0  0  0  0  0
  -29.7377  -25.1823   21.7445 C   0  0  0  0  0  0  0  0  0  0  0  0
  -28.2571  -25.4079   21.4609 C   0  0  0  0  0  0  0  0  0  1  0  0
  -27.3869  -21.3688   18.1723 C   0  0  1  0  0  0  0  0  0  0  0  0
  -20.7979  -26.2113   22.0528 C   0  0  1  0  0  0  0  0  0  0  0  0
  -19.5111  -24.0383   19.2258 C   0  0  2  0  0  0  0  0  0  0  0  0
  -20.1690  -26.1242   23.4721 C   0  0  0  0  0  0  0  0  0  0  0  0
  -25.2363  -17.2497   20.9541 N   0  0  0  0  0  0  0  0  0  0  0  0
  -25.6513  -18.2399   21.7625 N   0  0  0  0  0  0  0  0  0  0  0  0
  -22.3247  -28.0144   21.3169 N   0  0  0  0  0  0  0  0  0  0  0  0
  -25.2581  -21.2383   19.4207 N   0  0  0  0  0  0  0  0  0  0  0  0
  -26.7187  -18.6651   23.8339 N   0  0  0  0  0  0  0  0  0  0  0  0
  -26.6159  -14.1551   23.6212 N   0  0  0  0  0  0  0  0  0  0  0  0
  -22.7115  -31.3387   22.5536 N   0  0  0  0  0  0  0  0  0  0  0  0
  -20.0106  -25.5632   21.0095 N   0  0  0  0  0  0  0  0  0  0  0  0
  -20.1938  -23.6131   17.9712 N   0  3  0  0  0  0  0  0  0  0  0  0
  -27.2558  -15.9445   24.9046 O   0  0  0  0  0  0  0  0  0  0  0  0
  -23.6947  -29.3196   23.1693 O   0  0  0  0  0  0  0  0  0  0  0  0
  -25.8601  -23.1764   18.2887 O   0  0  0  0  0  0  0  0  0  0  0  0
  -20.0302  -28.3861   21.4986 O   0  0  0  0  0  0  0  0  0  0  0  0
  -21.6629  -24.0881   20.3233 O   0  0  0  0  0  0  0  0  0  0  0  0
  -24.4874  -11.1012   19.4765 O   0  0  0  0  0  0  0  0  0  0  0  0
  -28.1324  -26.2084   20.2862 O   0  0  0  0  0  0  0  0  0  1  0  0
  -22.3530   -7.2906   22.8421 F   0  0  0  0  0  0  0  0  0  0  0  0
  -22.0232   -9.9640   18.9499 F   0  0  0  0  0  0  0  0  0  0  0  0
  1  2  1  0  0  0  0
  1  5  2  0  0  0  0
  2  6  2  0  0  0  0
  3  8  2  0  0  0  0
  3 18  1  0  0  0  0
  4  9  1  0  0  0  0
  4 18  2  0  0  0  0
  5 20  1  0  0  0  0
  6 22  1  0  0  0  0
  7 10  2  0  0  0  0
  7 21  1  0  0  0  0
  8 27  1  0  0  0  0
  9 27  2  0  0  0  0
 10 28  1  0  0  0  0
 11 12  2  0  0  0  0
 11 29  1  0  0  0  0
 12 30  1  0  0  0  0
 13 23  1  0  0  0  0
 13 28  2  0  0  0  0
 14 24  2  0  0  0  0
 14 25  1  0  0  0  0
 15 24  1  0  0  0  0
 15 26  2  0  0  0  0
 16 25  2  0  0  0  0
 16 26  1  0  0  0  0
 17 30  2  0  0  0  0
 17 31  1  0  0  0  0
 18 32  1  0  0  0  0
 19 32  1  0  0  0  0
 19 33  2  0  0  0  0
 19 34  1  0  0  0  0
 20 22  2  0  0  0  0
 20 39  1  0  0  0  0
 21 23  2  0  0  0  0
 21 40  1  0  0  0  0
 22 48  1  0  0  0  0
 23 41  1  0  0  0  0
 24 51  1  0  0  0  0
 25 58  1  0  0  0  0
 26 61  1  0  0  0  0
 27 79  1  0  0  0  0
 28 80  1  0  0  0  0
 29 31  2  0  0  0  0
 29 79  1  0  0  0  0
 30 81  1  0  0  0  0
 31 82  1  0  0  0  0
 32 65  2  0  0  0  0
 33 66  1  0  0  0  0
 33 69  1  0  0  0  0
 34 70  1  0  0  0  0
 34 74  2  0  0  0  0
 35 49  1  0  0  0  0
 35 71  1  0  0  0  0
 35 75  2  0  0  0  0
 36 61  1  0  0  0  0
 36 68  1  0  0  0  0
 36 76  2  0  0  0  0
 37 62  1  0  0  0  0
 37 67  1  0  0  0  0
 37 77  2  0  0  0  0
 38 63  1  0  0  0  0
 38 72  1  0  0  0  0
 38 78  2  0  0  0  0
 39 42  1  0  0  0  0
 40 49  1  0  0  0  0
 41 67  1  0  0  0  0
 42 44  1  0  0  0  0
 43 45  1  0  0  0  0
 43 46  1  0  0  0  0
 44 48  1  0  0  0  0
 45 50  1  0  0  0  0
 46 68  1  0  0  0  0
 47 50  1  0  0  0  0
 47 68  1  0  0  0  0
 48 71  1  0  0  0  0
 49 67  1  0  0  0  0
 50 66  1  0  0  0  0
 52 61  1  0  0  0  0
 53 63  1  0  0  0  0
 54 64  1  0  0  0  0
 55 64  1  0  0  0  0
 56 64  1  0  0  0  0
 57 73  1  0  0  0  0
 58 59  1  0  0  0  0
 59 60  1  0  0  0  0
 60 80  1  0  0  0  0
 62 64  1  0  0  0  0
 62 72  1  0  0  0  0
 63 73  1  0  0  0  0
 65 66  1  0  0  0  0
M  CHG  1  73   1
M  ISO  4  36 100  60 101  61 100  80 101
M  END
> <Batch ID>
0101

> <Smiles>
CNC(C)C(=O)NC(C(=O)N1Cc2cc([101O:1][101CH2:1]CCc3cc(C)cc([100CH:0](C)[100C:0](=O)N4CCCC(n5nc(-c6ccc(Oc7ccc(F)cc7F)cc6)c(C(N)=O)c5N)C4)c3)ccc2CC1C(=O)NC1CCCc2ccccc21)C(C)(C)C

> <Shape>
0.234

> <Color>
0.072

> <Negative vol penalty>
0.000

$$$$

  -OEChem-04052319363D

 89 97  0     1  0  0  0  0  0999 V2000
  -28.0884  -32.7566   26.5596 C   0  0  0  0  0  0  0  0  0  0  0  0
  -28.0054  -31.3751   26.4182 C   0  0  0  0  0  0  0  0  0  0  0  0
  -23.9195  -10.5527   23.3180 C   0  0  0  0  0  0  0  0  0  0  0  0
  -23.7046  -12.3200   24.9512 C   0  0  0  0  0  0  0  0  0  0  0  0
  -27.0597  -33.5680   26.0826 C   0  0  0  0  0  0  0  0  0  0  0  0
  -26.8932  -30.8041   25.8006 C   0  0  0  0  0  0  0  0  0  0  0  0
  -27.6143  -26.6924   19.9299 C   0  0  0  0  0  0  0  0  0  0  0  0
  -23.2496   -9.6794   24.1749 C   0  0  0  0  0  0  0  0  0  0  0  0
  -23.0346  -11.4468   25.8081 C   0  0  0  0  0  0  0  0  0  0  0  0
  -27.6893  -25.7233   18.9293 C   0  0  0  0  0  0  0  0  0  0  0  0
  -20.0569   -9.0530   25.0953 C   0  0  0  0  0  0  0  0  0  0  0  0
  -19.0598   -8.2457   24.5482 C   0  0  0  0  0  0  0  0  0  0  0  0
  -25.2764  -25.5686   18.8834 C   0  0  0  0  0  0  0  0  0  0  0  0
  -27.9193  -20.2953   19.4262 C   0  0  0  0  0  0  0  0  0  0  0  0
  -26.0749  -21.6492   20.2020 C   0  0  0  0  0  0  0  0  0  0  0  0
  -20.2776   -6.2756   25.2357 C   0  0  0  0  0  0  0  0  0  0  0  0
  -24.1470  -11.8730   23.7062 C   0  0  0  0  0  0  0  0  0  0  0  0
  -24.2691  -13.6110   21.8428 C   0  0  0  0  0  0  0  0  0  0  0  0
  -25.9388  -33.0073   25.4503 C   0  0  0  0  0  0  0  0  0  0  0  0
  -26.3681  -27.1149   20.4009 C   0  0  0  0  0  0  0  0  0  0  0  0
  -25.8480  -31.6087   25.3160 C   0  0  0  0  0  0  0  0  0  0  0  0
  -25.1947  -26.5480   19.8768 C   0  0  0  0  0  0  0  0  0  0  0  0
  -26.7897  -21.0673   19.1550 C   0  0  0  0  0  0  0  0  0  0  0  0
  -28.3340  -20.1050   20.7444 C   0  0  0  0  0  0  0  0  0  0  0  0
  -27.6192  -20.6869   21.7913 C   0  0  0  0  0  0  0  0  0  0  0  0
  -22.8072  -10.1264   25.4199 C   0  0  0  0  0  0  0  0  0  0  0  0
  -26.5232  -25.1626   18.4075 C   0  0  0  0  0  0  0  0  0  0  0  0
  -21.1645   -8.4717   25.7127 C   0  0  0  0  0  0  0  0  0  0  0  0
  -26.4896  -21.4590   21.5201 C   0  0  0  0  0  0  0  0  0  0  0  0
  -19.1701   -6.8569   24.6184 C   0  0  0  0  0  0  0  0  0  0  0  0
  -21.2748   -7.0830   25.7829 C   0  0  0  0  0  0  0  0  0  0  0  0
  -24.8395  -12.7754   22.8217 C   0  0  0  0  0  0  0  0  0  0  0  0
  -25.3400  -14.2618   21.2806 C   0  0  0  0  0  0  0  0  0  0  0  0
  -22.8942  -13.7834   21.4746 C   0  0  0  0  0  0  0  0  0  0  0  0
  -24.4674  -29.3617   22.7279 C   0  0  0  0  0  0  0  0  0  0  0  0
  -22.9440  -29.3428   20.0653 C   0  0  0  0  0  0  0  0  0  0  0  0
  -21.8004  -29.3836   16.8516 C   0  0  0  0  0  0  0  0  0  0  0  0
  -30.1782  -16.9989   21.7756 C   0  0  0  0  0  0  0  0  0  0  0  0
  -24.8301  -33.9218   24.9932 C   0  0  0  0  0  0  0  0  0  0  0  0
  -26.2413  -28.1116   21.5209 C   0  0  0  0  0  0  0  0  0  0  0  0
  -23.8771  -27.0081   20.4382 C   0  0  0  0  0  0  0  0  0  0  0  0
  -23.8604  -33.2623   24.0160 C   0  0  0  0  0  0  0  0  0  0  0  0
  -30.3089  -13.4410   21.7520 C   0  0  0  0  0  0  0  0  0  0  0  0
  -23.4530  -31.8809   24.5187 C   0  0  0  0  0  0  0  0  0  0  0  0
  -28.8522  -13.0201   21.9536 C   0  0  0  0  0  0  0  0  0  0  0  0
  -30.6502  -14.6950   22.5538 C   0  0  0  0  0  0  0  0  0  0  0  0
  -28.2952  -15.4208   22.5239 C   0  0  0  0  0  0  0  0  0  0  0  0
  -24.6691  -30.9534   24.6297 C   0  0  1  0  0  0  0  0  0  0  0  0
  -25.0192  -29.0353   21.3713 C   0  0  1  0  0  0  0  0  0  0  0  0
  -27.8883  -14.1929   21.6915 C   0  0  2  0  0  0  0  0  0  0  0  0
  -28.0600  -20.4869   23.2062 C   0  0  0  0  0  0  0  0  0  0  0  0
  -19.9833  -30.3556   15.4197 C   0  0  0  0  0  0  0  0  0  0  0  0
  -24.2701  -23.4240   24.6129 C   0  0  0  0  0  0  0  0  0  0  0  0
  -26.4387  -24.5076   23.9644 C   0  0  0  0  0  0  0  0  0  0  0  0
  -20.9566  -27.3500   21.2412 C   0  0  0  0  0  0  0  0  0  0  0  0
  -19.5299  -27.6830   19.2110 C   0  0  0  0  0  0  0  0  0  0  0  0
  -19.9981  -29.6033   20.7329 C   0  0  0  0  0  0  0  0  0  0  0  0
  -23.7514  -30.7975   15.1330 C   0  0  0  0  0  0  0  0  0  0  0  0
  -29.5460  -19.2729   21.0083 C   0  0  0  0  0  0  0  0  0  0  0  0
  -27.4018  -22.0082   16.8746 C   0  0  0  0  0  0  0  0  0  0  0  0
  -25.9645  -19.9475   17.0319 C   0  0  0  0  0  0  0  0  0  0  0  0
  -27.7622  -23.3874   17.4222 C   0  0  0  0  0  0  0  0  0  1  0  0
  -25.1117  -23.2610   22.2343 C   0  0  0  0  0  0  0  0  0  0  0  0
  -26.3368  -21.2735   17.7172 C   0  0  1  0  0  0  0  0  0  0  0  0
  -21.8419  -28.7244   19.2429 C   0  0  1  0  0  0  0  0  0  0  0  0
  -21.4023  -30.5289   15.9383 C   0  0  2  0  0  0  0  0  0  0  0  0
  -25.0362  -24.1304   23.4924 C   0  0  0  0  0  0  0  0  0  0  0  0
  -20.6086  -28.3317   20.1044 C   0  0  0  0  0  0  0  0  0  0  0  0
  -26.1695  -12.8835   22.8805 N   0  0  0  0  0  0  0  0  0  0  0  0
  -26.4437  -13.7945   21.9314 N   0  0  0  0  0  0  0  0  0  0  0  0
  -23.8892  -28.4686   20.6157 N   0  0  0  0  0  0  0  0  0  0  0  0
  -29.6996  -15.7697   22.2581 N   0  0  0  0  0  0  0  0  0  0  0  0
  -25.4357  -15.1825   20.2979 N   0  0  0  0  0  0  0  0  0  0  0  0
  -21.9219  -13.0365   22.1538 N   0  0  0  0  0  0  0  0  0  0  0  0
  -25.0520  -30.4635   23.3229 N   0  0  0  0  0  0  0  0  0  0  0  0
  -21.5471  -29.6742   18.1755 N   0  0  0  0  0  0  0  0  0  0  0  0
  -29.2100  -17.9609   21.5148 N   0  0  0  0  0  0  0  0  0  0  0  0
  -24.8617  -19.2770   17.7682 N   0  3  0  0  0  0  0  0  0  0  0  0
  -22.3240  -30.6039   14.7696 N   0  3  0  0  0  0  0  0  0  0  0  0
  -22.5398  -14.5641   20.5589 O   0  0  0  0  0  0  0  0  0  0  0  0
  -23.5756  -28.6668   23.2007 O   0  0  0  0  0  0  0  0  0  0  0  0
  -22.9655  -30.5669   20.2219 O   0  0  0  0  0  0  0  0  0  0  0  0
  -22.2841  -28.3344   16.4322 O   0  0  0  0  0  0  0  0  0  0  0  0
  -31.3789  -17.2208   21.5858 O   0  0  0  0  0  0  0  0  0  0  0  0
  -22.1532   -9.2746   26.2561 O   0  0  0  0  0  0  0  0  0  0  0  0
  -26.6035  -24.2203   17.4276 O   0  0  0  0  0  0  0  0  0  1  0  0
  -25.7796  -22.0360   22.5297 O   0  0  0  0  0  0  0  0  0  0  0  0
  -18.2117   -6.0818   24.0942 F   0  0  0  0  0  0  0  0  0  0  0  0
  -22.3359   -6.5187   26.3758 F   0  0  0  0  0  0  0  0  0  0  0  0
  1  2  1  0  0  0  0
  1  5  2  0  0  0  0
  2  6  2  0  0  0  0
  3  8  2  0  0  0  0
  3 17  1  0  0  0  0
  4  9  1  0  0  0  0
  4 17  2  0  0  0  0
  5 19  1  0  0  0  0
  6 21  1  0  0  0  0
  7 10  2  0  0  0  0
  7 20  1  0  0  0  0
  8 26  1  0  0  0  0
  9 26  2  0  0  0  0
 10 27  1  0  0  0  0
 11 12  2  0  0  0  0
 11 28  1  0  0  0  0
 12 30  1  0  0  0  0
 13 22  1  0  0  0  0
 13 27  2  0  0  0  0
 14 23  1  0  0  0  0
 14 24  2  0  0  0  0
 15 23  2  0  0  0  0
 15 29  1  0  0  0  0
 16 30  2  0  0  0  0
 16 31  1  0  0  0  0
 17 32  1  0  0  0  0
 18 32  1  0  0  0  0
 18 33  2  0  0  0  0
 18 34  1  0  0  0  0
 19 21  2  0  0  0  0
 19 39  1  0  0  0  0
 20 22  2  0  0  0  0
 20 40  1  0  0  0  0
 21 48  1  0  0  0  0
 22 41  1  0  0  0  0
 23 64  1  0  0  0  0
 24 25  1  0  0  0  0
 24 59  1  0  0  0  0
 25 29  2  0  0  0  0
 25 51  1  0  0  0  0
 26 85  1  0  0  0  0
 27 86  1  0  0  0  0
 28 31  2  0  0  0  0
 28 85  1  0  0  0  0
 29 87  1  0  0  0  0
 30 88  1  0  0  0  0
 31 89  1  0  0  0  0
 32 69  2  0  0  0  0
 33 70  1  0  0  0  0
 33 73  1  0  0  0  0
 34 74  1  0  0  0  0
 34 80  2  0  0  0  0
 35 49  1  0  0  0  0
 35 75  1  0  0  0  0
 35 81  2  0  0  0  0
 36 65  1  0  0  0  0
 36 71  1  0  0  0  0
 36 82  2  0  0  0  0
 37 66  1  0  0  0  0
 37 76  1  0  0  0  0
 37 83  2  0  0  0  0
 38 72  1  0  0  0  0
 38 77  1  0  0  0  0
 38 84  2  0  0  0  0
 39 42  1  0  0  0  0
 40 49  1  0  0  0  0
 41 71  1  0  0  0  0
 42 44  1  0  0  0  0
 43 45  1  0  0  0  0
 43 46  1  0  0  0  0
 44 48  1  0  0  0  0
 45 50  1  0  0  0  0
 46 72  1  0  0  0  0
 47 50  1  0  0  0  0
 47 72  1  0  0  0  0
 48 75  1  0  0  0  0
 49 71  1  0  0  0  0
 50 70  1  0  0  0  0
 52 66  1  0  0  0  0
 53 67  1  0  0  0  0
 54 67  1  0  0  0  0
 55 68  1  0  0  0  0
 56 68  1  0  0  0  0
 57 68  1  0  0  0  0
 58 79  1  0  0  0  0
 59 77  1  0  0  0  0
 60 62  1  0  0  0  0
 60 64  1  0  0  0  0
 61 64  1  0  0  0  0
 61 78  1  0  0  0  0
 62 86  1  0  0  0  0
 63 67  1  0  0  0  0
 63 87  1  0  0  0  0
 65 68  1  0  0  0  0
 65 76  1  0  0  0  0
 66 79  1  0  0  0  0
 69 70  1  0  0  0  0
M  CHG  2  78   1  79   1
M  ISO  4  38 100  62 101  77 100  86 101
M  END
> <Batch ID>
0101

> <Smiles>
CNC(C)C(=O)NC(C(=O)N1Cc2cc([101O:1][101CH2:1]CC(CN)c3cc(C[100NH:0][100C:0](=O)N4CCCC(n5nc(-c6ccc(Oc7ccc(F)cc7F)cc6)c(C(N)=O)c5N)C4)c(C)c(OCC(C)C)c3)ccc2CC1C(=O)NC1CCCc2ccccc21)C(C)(C)C

> <Shape>
0.225

> <Color>
0.096

> <Negative vol penalty>
0.000

$$$$

  -OEChem-04052319363D

 96105  0     1  0  0  0  0  0999 V2000
  -30.4460  -24.6866   30.8219 C   0  0  0  0  0  0  0  0  0  0  0  0
  -30.8266  -24.4798   29.4998 C   0  0  0  0  0  0  0  0  0  0  0  0
  -22.6169  -10.3192   20.2376 C   0  0  0  0  0  0  0  0  0  0  0  0
  -24.2297   -9.5392   21.8586 C   0  0  0  0  0  0  0  0  0  0  0  0
  -29.1625  -25.1469   31.1127 C   0  0  0  0  0  0  0  0  0  0  0  0
  -29.9234  -24.7323   28.4678 C   0  0  0  0  0  0  0  0  0  0  0  0
  -31.2198  -26.9036   22.8901 C   0  0  0  0  0  0  0  0  0  0  0  0
  -21.8356   -9.1874   20.4702 C   0  0  0  0  0  0  0  0  0  0  0  0
  -23.4484   -8.4074   22.0913 C   0  0  0  0  0  0  0  0  0  0  0  0
  -31.3933  -26.2772   21.6567 C   0  0  0  0  0  0  0  0  0  0  0  0
  -20.6569   -7.6236   23.8272 C   0  0  0  0  0  0  0  0  0  0  0  0
  -20.4486   -7.2431   25.1529 C   0  0  0  0  0  0  0  0  0  0  0  0
  -29.0916  -26.7419   21.1038 C   0  0  0  0  0  0  0  0  0  0  0  0
  -29.3266  -21.1790   22.1078 C   0  0  0  0  0  0  0  0  0  0  0  0
  -21.4916   -5.1103   24.7046 C   0  0  0  0  0  0  0  0  0  0  0  0
  -23.8140  -10.4952   20.9317 C   0  0  0  0  0  0  0  0  0  0  0  0
  -24.2473  -13.0084   20.8750 C   0  0  0  0  0  0  0  0  0  0  0  0
  -28.2463  -25.4144   30.0833 C   0  0  0  0  0  0  0  0  0  0  0  0
  -29.9758  -27.4452   23.2447 C   0  0  0  0  0  0  0  0  0  0  0  0
  -28.6260  -25.1955   28.7453 C   0  0  0  0  0  0  0  0  0  0  0  0
  -28.9056  -27.3769   22.3412 C   0  0  0  0  0  0  0  0  0  0  0  0
  -28.9312  -22.2136   21.2244 C   0  0  0  0  0  0  0  0  0  0  0  0
  -22.2514   -8.2315   21.3971 C   0  0  0  0  0  0  0  0  0  0  0  0
  -30.3283  -26.1937   20.7645 C   0  0  0  0  0  0  0  0  0  0  0  0
  -21.2824   -6.7475   22.9402 C   0  0  0  0  0  0  0  0  0  0  0  0
  -20.8660   -5.9865   25.5916 C   0  0  0  0  0  0  0  0  0  0  0  0
  -21.6998   -5.4909   23.3789 C   0  0  0  0  0  0  0  0  0  0  0  0
  -24.6217  -11.6639   20.6914 C   0  0  0  0  0  0  0  0  0  0  0  0
  -30.2740  -20.4211   21.4557 C   0  0  0  0  0  0  0  0  0  0  0  0
  -29.6489  -22.0563   20.0593 C   0  0  0  0  0  0  0  0  0  0  0  0
  -25.3593  -13.7274   20.5103 C   0  0  0  0  0  0  0  0  0  0  0  0
  -23.0054  -13.5584   21.3343 C   0  0  0  0  0  0  0  0  0  0  0  0
  -27.8597  -26.8840   25.5492 C   0  0  0  0  0  0  0  0  0  0  0  0
  -26.3887  -29.4901   24.2977 C   0  0  0  0  0  0  0  0  0  0  0  0
  -25.8946  -31.5222   21.6007 C   0  0  0  0  0  0  0  0  0  0  0  0
  -30.8799  -14.5385   20.6137 C   0  0  0  0  0  0  0  0  0  0  0  0
  -26.8545  -25.8657   30.4493 C   0  0  0  0  0  0  0  0  0  0  0  0
  -29.8123  -28.1412   24.5680 C   0  0  0  0  0  0  0  0  0  0  0  0
  -27.5555  -27.9603   22.6656 C   0  0  0  0  0  0  0  0  0  0  0  0
  -26.0813  -26.4665   29.2782 C   0  0  0  0  0  0  0  0  0  0  0  0
  -29.6076  -12.2666   18.1854 C   0  0  0  0  0  0  0  0  0  0  0  0
  -26.2185  -25.5861   28.0401 C   0  0  0  0  0  0  0  0  0  0  0  0
  -32.0184  -17.8861   23.8782 C   0  0  0  0  0  0  0  0  0  0  0  0
  -28.1690  -12.0136   18.6396 C   0  0  0  0  0  0  0  0  0  0  0  0
  -31.2761  -16.6344   23.4188 C   0  0  0  0  0  0  0  0  0  0  0  0
  -30.3032  -17.9124   21.4756 C   0  0  0  0  0  0  0  0  0  0  0  0
  -30.5557  -12.4192   19.3728 C   0  0  0  0  0  0  0  0  0  0  0  0
  -28.7101  -13.1797   20.8182 C   0  0  0  0  0  0  0  0  0  0  0  0
  -27.6829  -25.4816   27.5969 C   0  0  1  0  0  0  0  0  0  0  0  0
  -31.0352  -19.1925   21.9308 C   0  0  2  0  0  0  0  0  0  0  0  0
  -28.3613  -28.2037   25.0350 C   0  0  1  0  0  0  0  0  0  0  0  0
  -31.2933  -19.1780   23.4617 C   0  0  2  0  0  0  0  0  0  0  0  0
  -27.7072  -13.0747   19.6565 C   0  0  2  0  0  0  0  0  0  0  0  0
  -31.0502  -16.6490   21.9083 C   0  0  2  0  0  0  0  0  0  0  0  0
  -27.9330  -23.2639   21.5084 C   0  0  0  0  0  0  0  0  0  0  0  0
  -29.1429  -22.0209   17.6031 C   0  0  0  0  0  0  0  0  0  0  0  0
  -24.6073  -33.5488   20.8709 C   0  0  0  0  0  0  0  0  0  0  0  0
  -33.0837  -21.6913   25.8834 C   0  0  0  0  0  0  0  0  0  0  0  0
  -30.8702  -20.5406   26.0821 C   0  0  0  0  0  0  0  0  0  0  0  0
  -32.8245  -21.7067   17.5979 C   0  0  0  0  0  0  0  0  0  0  0  0
  -32.7902  -22.4468   19.9817 C   0  0  0  0  0  0  0  0  0  0  0  0
  -33.9278  -20.3069   19.3456 C   0  0  0  0  0  0  0  0  0  0  0  0
  -23.8590  -27.7991   24.0727 C   0  0  0  0  0  0  0  0  0  0  0  0
  -22.9314  -29.5201   22.5087 C   0  0  0  0  0  0  0  0  0  0  0  0
  -23.4809  -30.1422   24.8611 C   0  0  0  0  0  0  0  0  0  0  0  0
  -28.3738  -33.0420   21.0503 C   0  0  0  0  0  0  0  0  0  0  0  0
  -32.1174  -20.3877   23.9187 C   0  0  0  0  0  0  0  0  0  0  0  0
  -30.9931  -23.5131   18.4504 C   0  0  0  0  0  0  0  0  0  0  0  0
  -31.3786  -20.4587   19.2108 C   0  0  0  0  0  0  0  0  0  0  0  0
  -31.4523  -24.5262   19.4948 C   0  0  0  0  0  0  0  0  0  1  0  0
  -29.6297  -22.8750   18.7800 C   0  0  2  0  0  0  0  0  0  0  0  0
  -25.3573  -29.7210   23.2198 C   0  0  1  0  0  0  0  0  0  0  0  0
  -25.9103  -33.0338   21.4622 C   0  0  2  0  0  0  0  0  0  0  0  0
  -32.2597  -20.4804   25.4433 C   0  0  0  0  0  0  0  0  0  0  0  0
  -32.7242  -21.2195   19.0574 C   0  0  0  0  0  0  0  0  0  0  0  0
  -23.9319  -29.2828   23.6600 C   0  0  0  0  0  0  0  0  0  0  0  0
  -25.8737  -11.5336   20.2446 N   0  0  0  0  0  0  0  0  0  0  0  0
  -30.4617  -20.9635   20.2112 N   0  0  0  0  0  0  0  0  0  0  0  0
  -26.2956  -12.8056   20.1443 N   0  0  0  0  0  0  0  0  0  0  0  0
  -27.4438  -28.6252   23.9744 N   0  0  0  0  0  0  0  0  0  0  0  0
  -30.0614  -13.4415   20.2983 N   0  0  0  0  0  0  0  0  0  0  0  0
  -25.6178  -15.0518   20.4701 N   0  0  0  0  0  0  0  0  0  0  0  0
  -22.8364  -13.7702   22.7094 N   0  0  0  0  0  0  0  0  0  0  0  0
  -28.0861  -26.6827   26.8974 N   0  0  0  0  0  0  0  0  0  0  0  0
  -25.4620  -31.1282   22.8493 N   0  0  0  0  0  0  0  0  0  0  0  0
  -30.3324  -15.4643   21.4934 N   0  0  0  0  0  0  0  0  0  0  0  0
  -27.0298  -33.4612   20.5762 N   0  3  0  0  0  0  0  0  0  0  0  0
  -22.0671  -13.8379   20.5502 O   0  0  0  0  0  0  0  0  0  0  0  0
  -27.3068  -26.1065   24.7801 O   0  0  0  0  0  0  0  0  0  0  0  0
  -26.2668  -30.0619   25.3839 O   0  0  0  0  0  0  0  0  0  0  0  0
  -26.2290  -30.7664   20.6910 O   0  0  0  0  0  0  0  0  0  0  0  0
  -32.0125  -14.6850   20.1417 O   0  0  0  0  0  0  0  0  0  0  0  0
  -21.4891   -7.1270   21.6246 O   0  0  0  0  0  0  0  0  0  0  0  0
  -30.4948  -25.5823   19.5602 O   0  0  0  0  0  0  0  0  0  1  0  0
  -20.6673   -5.6218   26.8651 F   0  0  0  0  0  0  0  0  0  0  0  0
  -22.3023   -4.6454   22.5316 F   0  0  0  0  0  0  0  0  0  0  0  0
  1  2  1  0  0  0  0
  1  5  2  0  0  0  0
  2  6  2  0  0  0  0
  3  8  2  0  0  0  0
  3 16  1  0  0  0  0
  4  9  1  0  0  0  0
  4 16  2  0  0  0  0
  5 18  1  0  0  0  0
  6 20  1  0  0  0  0
  7 10  2  0  0  0  0
  7 19  1  0  0  0  0
  8 23  1  0  0  0  0
  9 23  2  0  0  0  0
 10 24  1  0  0  0  0
 11 12  2  0  0  0  0
 11 25  1  0  0  0  0
 12 26  1  0  0  0  0
 13 21  1  0  0  0  0
 13 24  2  0  0  0  0
 14 22  1  0  0  0  0
 14 29  2  0  0  0  0
 15 26  2  0  0  0  0
 15 27  1  0  0  0  0
 16 28  1  0  0  0  0
 17 28  1  0  0  0  0
 17 31  2  0  0  0  0
 17 32  1  0  0  0  0
 18 20  2  0  0  0  0
 18 37  1  0  0  0  0
 19 21  2  0  0  0  0
 19 38  1  0  0  0  0
 20 49  1  0  0  0  0
 21 39  1  0  0  0  0
 22 30  2  0  0  0  0
 22 55  1  0  0  0  0
 23 93  1  0  0  0  0
 24 94  1  0  0  0  0
 25 27  2  0  0  0  0
 25 93  1  0  0  0  0
 26 95  1  0  0  0  0
 27 96  1  0  0  0  0
 28 77  2  0  0  0  0
 29 50  1  0  0  0  0
 29 78  1  0  0  0  0
 30 71  1  0  0  0  0
 30 78  1  0  0  0  0
 31 79  1  0  0  0  0
 31 82  1  0  0  0  0
 32 83  1  0  0  0  0
 32 88  2  0  0  0  0
 33 51  1  0  0  0  0
 33 84  1  0  0  0  0
 33 89  2  0  0  0  0
 34 72  1  0  0  0  0
 34 80  1  0  0  0  0
 34 90  2  0  0  0  0
 35 73  1  0  0  0  0
 35 85  1  0  0  0  0
 35 91  2  0  0  0  0
 36 81  1  0  0  0  0
 36 86  1  0  0  0  0
 36 92  2  0  0  0  0
 37 40  1  0  0  0  0
 38 51  1  0  0  0  0
 39 80  1  0  0  0  0
 40 42  1  0  0  0  0
 41 44  1  0  0  0  0
 41 47  1  0  0  0  0
 42 49  1  0  0  0  0
 43 45  1  0  0  0  0
 43 52  1  0  0  0  0
 44 53  1  0  0  0  0
 45 54  1  0  0  0  0
 46 50  1  0  0  0  0
 46 54  1  0  0  0  0
 47 81  1  0  0  0  0
 48 53  1  0  0  0  0
 48 81  1  0  0  0  0
 49 84  1  0  0  0  0
 50 52  1  0  0  0  0
 51 80  1  0  0  0  0
 52 67  1  0  0  0  0
 53 79  1  0  0  0  0
 54 86  1  0  0  0  0
 56 71  1  0  0  0  0
 57 73  1  0  0  0  0
 58 74  1  0  0  0  0
 59 74  1  0  0  0  0
 60 75  1  0  0  0  0
 61 75  1  0  0  0  0
 62 75  1  0  0  0  0
 63 76  1  0  0  0  0
 64 76  1  0  0  0  0
 65 76  1  0  0  0  0
 66 87  1  0  0  0  0
 67 74  1  0  0  0  0
 68 70  1  0  0  0  0
 68 71  1  0  0  0  0
 69 75  1  0  0  0  0
 69 78  1  0  0  0  0
 70 94  1  0  0  0  0
 72 76  1  0  0  0  0
 72 85  1  0  0  0  0
 73 87  1  0  0  0  0
 77 79  1  0  0  0  0
M  CHG  1  87   1
M  ISO  4  36 100  70 101  86 100  94 101
M  END
> <Batch ID>
0101

> <Smiles>
CNC(C)C(=O)NC(C(=O)N1Cc2cc([101O:1][101CH2:1]CC(C)c3c(C)cc(C4CC([100NH:0][100C:0](=O)N5CCCC(n6nc(-c7ccc(Oc8ccc(F)cc8F)cc7)c(C(N)=O)c6N)C5)CCC4CC(C)C)n3CC(C)(C)C)ccc2CC1C(=O)NC1CCCc2ccccc21)C(C)(C)C

> <Shape>
0.319

> <Color>
0.187

> <Negative vol penalty>
0.000

$$$$

  -OEChem-04052319363D

 87 95  0     1  0  0  0  0  0999 V2000
  -26.2866  -35.0431   23.3867 C   0  0  0  0  0  0  0  0  0  0  0  0
  -26.7897  -33.7711   23.1330 C   0  0  0  0  0  0  0  0  0  0  0  0
  -24.4139  -11.5268   24.2644 C   0  0  0  0  0  0  0  0  0  0  0  0
  -23.3020  -13.3988   25.3116 C   0  0  0  0  0  0  0  0  0  0  0  0
  -24.9859  -35.1942   23.8656 C   0  0  0  0  0  0  0  0  0  0  0  0
  -25.9928  -32.6494   23.3591 C   0  0  0  0  0  0  0  0  0  0  0  0
  -26.2442  -29.2932   19.5752 C   0  0  0  0  0  0  0  0  0  0  0  0
  -23.8326  -10.6626   25.1921 C   0  0  0  0  0  0  0  0  0  0  0  0
  -22.7207  -12.5345   26.2393 C   0  0  0  0  0  0  0  0  0  0  0  0
  -27.3709  -28.4736   19.5249 C   0  0  0  0  0  0  0  0  0  0  0  0
  -23.6453  -10.9256   29.0655 C   0  0  0  0  0  0  0  0  0  0  0  0
  -23.6595  -11.3096   30.4064 C   0  0  0  0  0  0  0  0  0  0  0  0
  -26.1070  -26.6843   20.5350 C   0  0  0  0  0  0  0  0  0  0  0  0
  -29.0260  -23.0170   18.8768 C   0  0  0  0  0  0  0  0  0  0  0  0
  -28.3673  -24.3526   16.9745 C   0  0  0  0  0  0  0  0  0  0  0  0
  -21.2445  -11.2524   30.4482 C   0  0  0  0  0  0  0  0  0  0  0  0
  -24.1487  -12.8950   24.3241 C   0  0  0  0  0  0  0  0  0  0  0  0
  -24.2243  -14.1748   22.1187 C   0  0  0  0  0  0  0  0  0  0  0  0
  -24.1693  -34.0744   24.0885 C   0  0  0  0  0  0  0  0  0  0  0  0
  -25.0414  -28.8172   20.1167 C   0  0  0  0  0  0  0  0  0  0  0  0
  -24.6804  -32.7857   23.8426 C   0  0  0  0  0  0  0  0  0  0  0  0
  -24.9657  -27.4990   20.5887 C   0  0  0  0  0  0  0  0  0  0  0  0
  -29.1300  -24.1912   18.1312 C   0  0  0  0  0  0  0  0  0  0  0  0
  -28.1595  -22.0042   18.4658 C   0  0  0  0  0  0  0  0  0  0  0  0
  -27.5007  -23.3398   16.5634 C   0  0  0  0  0  0  0  0  0  0  0  0
  -27.3968  -22.1656   17.3091 C   0  0  0  0  0  0  0  0  0  0  0  0
  -22.9860  -11.1664   26.1796 C   0  0  0  0  0  0  0  0  0  0  0  0
  -27.3032  -27.1699   20.0075 C   0  0  0  0  0  0  0  0  0  0  0  0
  -22.4307  -10.7052   28.4159 C   0  0  0  0  0  0  0  0  0  0  0  0
  -22.4591  -11.4729   31.0978 C   0  0  0  0  0  0  0  0  0  0  0  0
  -21.2303  -10.8685   29.1073 C   0  0  0  0  0  0  0  0  0  0  0  0
  -24.7493  -13.7884   23.3664 C   0  0  0  0  0  0  0  0  0  0  0  0
  -25.1674  -15.0270   21.5984 C   0  0  0  0  0  0  0  0  0  0  0  0
  -22.9941  -13.7971   21.4865 C   0  0  0  0  0  0  0  0  0  0  0  0
  -23.2117  -29.6378   22.5831 C   0  0  0  0  0  0  0  0  0  0  0  0
  -21.2192  -27.3940   21.3510 C   0  0  0  0  0  0  0  0  0  0  0  0
  -20.8401  -24.5889   19.4446 C   0  0  0  0  0  0  0  0  0  0  0  0
  -28.7340  -19.2796   22.1820 C   0  0  0  0  0  0  0  0  0  0  0  0
  -22.7861  -34.2851   24.6516 C   0  0  0  0  0  0  0  0  0  0  0  0
  -23.8275  -29.7052   20.1392 C   0  0  0  0  0  0  0  0  0  0  0  0
  -23.6925  -26.9335   21.1610 C   0  0  0  0  0  0  0  0  0  0  0  0
  -21.8783  -33.0661   24.5092 C   0  0  0  0  0  0  0  0  0  0  0  0
  -29.8833  -16.0429   23.1198 C   0  0  0  0  0  0  0  0  0  0  0  0
  -22.6131  -31.8002   24.9384 C   0  0  0  0  0  0  0  0  0  0  0  0
  -28.6066  -15.2019   23.1706 C   0  0  0  0  0  0  0  0  0  0  0  0
  -29.6397  -17.4688   23.6092 C   0  0  0  0  0  0  0  0  0  0  0  0
  -27.2598  -17.3350   22.9831 C   0  0  0  0  0  0  0  0  0  0  0  0
  -23.8382  -31.5459   24.0518 C   0  0  1  0  0  0  0  0  0  0  0  0
  -22.7978  -29.2833   21.1828 C   0  0  1  0  0  0  0  0  0  0  0  0
  -27.4428  -15.9050   22.4464 C   0  0  2  0  0  0  0  0  0  0  0  0
  -31.1680  -25.5412   17.5350 C   0  0  0  0  0  0  0  0  0  0  0  0
  -25.3588  -20.8052   17.9002 C   0  0  0  0  0  0  0  0  0  0  0  0
  -27.2102  -19.7739   16.5350 C   0  0  0  0  0  0  0  0  0  0  0  0
  -19.0978  -22.9653   18.6537 C   0  0  0  0  0  0  0  0  0  0  0  0
  -21.1887  -26.0874   24.1082 C   0  0  0  0  0  0  0  0  0  0  0  0
  -20.2526  -24.0240   23.0431 C   0  0  0  0  0  0  0  0  0  0  0  0
  -18.9664  -26.1598   22.9634 C   0  0  0  0  0  0  0  0  0  0  0  0
  -21.3393  -25.2578   16.6052 C   0  0  0  0  0  0  0  0  0  0  0  0
  -28.0659  -20.7569   19.2827 C   0  0  0  0  0  0  0  0  0  0  0  0
  -26.6948  -23.5373   15.3211 C   0  0  0  0  0  0  0  0  0  0  0  0
  -27.6859  -21.0108   20.7454 C   0  0  0  0  0  0  0  0  0  0  0  0
  -29.3276  -26.5968   18.8988 C   0  0  0  0  0  0  0  0  0  1  0  0
  -30.0751  -25.2951   18.5789 C   0  0  1  0  0  0  0  0  0  0  0  0
  -26.4675  -21.0796   16.8689 C   0  0  0  0  0  0  0  0  0  0  0  0
  -21.0384  -25.9068   21.5370 C   0  0  1  0  0  0  0  0  0  0  0  0
  -19.8554  -24.2464   18.3412 C   0  0  2  0  0  0  0  0  0  0  0  0
  -20.3862  -25.5555   22.9040 C   0  0  0  0  0  0  0  0  0  0  0  0
  -25.9341  -14.3490   23.6233 N   0  0  0  0  0  0  0  0  0  0  0  0
  -26.1614  -15.0963   22.5297 N   0  0  0  0  0  0  0  0  0  0  0  0
  -22.5347  -27.8429   21.1671 N   0  0  0  0  0  0  0  0  0  0  0  0
  -28.5248  -18.0795   22.8813 N   0  0  0  0  0  0  0  0  0  0  0  0
  -25.2351  -15.7164   20.4397 N   0  0  0  0  0  0  0  0  0  0  0  0
  -22.1408  -12.9125   22.1601 N   0  0  0  0  0  0  0  0  0  0  0  0
  -23.4340  -30.9874   22.7794 N   0  0  0  0  0  0  0  0  0  0  0  0
  -20.2859  -25.4390   20.3780 N   0  0  0  0  0  0  0  0  0  0  0  0
  -27.6265  -19.7874   21.5139 N   0  0  0  0  0  0  0  0  0  0  0  0
  -25.3734  -24.1738   15.5718 N   0  3  0  0  0  0  0  0  0  0  0  0
  -20.5707  -24.0655   17.0464 N   0  3  0  0  0  0  0  0  0  0  0  0
  -22.6690  -14.2184   20.3505 O   0  0  0  0  0  0  0  0  0  0  0  0
  -23.3199  -28.7525   23.4235 O   0  0  0  0  0  0  0  0  0  0  0  0
  -20.2290  -28.1295   21.3612 O   0  0  0  0  0  0  0  0  0  0  0  0
  -21.9852  -24.1437   19.4773 O   0  0  0  0  0  0  0  0  0  0  0  0
  -29.8281  -19.8531   22.1506 O   0  0  0  0  0  0  0  0  0  0  0  0
  -22.4184  -10.3233   27.0849 O   0  0  0  0  0  0  0  0  0  0  0  0
  -28.4017  -26.3680   19.9602 O   0  0  0  0  0  0  0  0  0  1  0  0
  -22.4728  -11.8401   32.3858 F   0  0  0  0  0  0  0  0  0  0  0  0
  -20.0604  -10.6570   28.4889 F   0  0  0  0  0  0  0  0  0  0  0  0
  1  2  1  0  0  0  0
  1  5  2  0  0  0  0
  2  6  2  0  0  0  0
  3  8  2  0  0  0  0
  3 17  1  0  0  0  0
  4  9  1  0  0  0  0
  4 17  2  0  0  0  0
  5 19  1  0  0  0  0
  6 21  1  0  0  0  0
  7 10  2  0  0  0  0
  7 20  1  0  0  0  0
  8 27  1  0  0  0  0
  9 27  2  0  0  0  0
 10 28  1  0  0  0  0
 11 12  2  0  0  0  0
 11 29  1  0  0  0  0
 12 30  1  0  0  0  0
 13 22  1  0  0  0  0
 13 28  2  0  0  0  0
 14 23  2  0  0  0  0
 14 24  1  0  0  0  0
 15 23  1  0  0  0  0
 15 25  2  0  0  0  0
 16 30  2  0  0  0  0
 16 31  1  0  0  0  0
 17 32  1  0  0  0  0
 18 32  1  0  0  0  0
 18 33  2  0  0  0  0
 18 34  1  0  0  0  0
 19 21  2  0  0  0  0
 19 39  1  0  0  0  0
 20 22  2  0  0  0  0
 20 40  1  0  0  0  0
 21 48  1  0  0  0  0
 22 41  1  0  0  0  0
 23 63  1  0  0  0  0
 24 26  2  0  0  0  0
 24 59  1  0  0  0  0
 25 26  1  0  0  0  0
 25 60  1  0  0  0  0
 26 64  1  0  0  0  0
 27 84  1  0  0  0  0
 28 85  1  0  0  0  0
 29 31  2  0  0  0  0
 29 84  1  0  0  0  0
 30 86  1  0  0  0  0
 31 87  1  0  0  0  0
 32 68  2  0  0  0  0
 33 69  1  0  0  0  0
 33 72  1  0  0  0  0
 34 73  1  0  0  0  0
 34 79  2  0  0  0  0
 35 49  1  0  0  0  0
 35 74  1  0  0  0  0
 35 80  2  0  0  0  0
 36 65  1  0  0  0  0
 36 70  1  0  0  0  0
 36 81  2  0  0  0  0
 37 66  1  0  0  0  0
 37 75  1  0  0  0  0
 37 82  2  0  0  0  0
 38 71  1  0  0  0  0
 38 76  1  0  0  0  0
 38 83  2  0  0  0  0
 39 42  1  0  0  0  0
 40 49  1  0  0  0  0
 41 70  1  0  0  0  0
 42 44  1  0  0  0  0
 43 45  1  0  0  0  0
 43 46  1  0  0  0  0
 44 48  1  0  0  0  0
 45 50  1  0  0  0  0
 46 71  1  0  0  0  0
 47 50  1  0  0  0  0
 47 71  1  0  0  0  0
 48 74  1  0  0  0  0
 49 70  1  0  0  0  0
 50 69  1  0  0  0  0
 51 63  1  0  0  0  0
 52 64  1  0  0  0  0
 53 64  1  0  0  0  0
 54 66  1  0  0  0  0
 55 67  1  0  0  0  0
 56 67  1  0  0  0  0
 57 67  1  0  0  0  0
 58 78  1  0  0  0  0
 59 61  1  0  0  0  0
 60 77  1  0  0  0  0
 61 76  1  0  0  0  0
 62 63  1  0  0  0  0
 62 85  1  0  0  0  0
 65 67  1  0  0  0  0
 65 75  1  0  0  0  0
 66 78  1  0  0  0  0
 68 69  1  0  0  0  0
M  CHG  2  77   1  78   1
M  ISO  4  38 100  62 101  76 100  85 101
M  END
> <Batch ID>
0101

> <Smiles>
CNC(C)C(=O)NC(C(=O)N1Cc2cc([101O:1][101CH2:1]C(C)c3cc(CN)c(C(C)C)c(CC[100NH:0][100C:0](=O)N4CCCC(n5nc(-c6ccc(Oc7ccc(F)cc7F)cc6)c(C(N)=O)c5N)C4)c3)ccc2CC1C(=O)NC1CCCc2ccccc21)C(C)(C)C

> <Shape>
0.209

> <Color>
0.114

> <Negative vol penalty>
0.000

$$$$

  -OEChem-04052319363D

 87 95  0     1  0  0  0  0  0999 V2000
  -22.0969  -29.8234   26.9884 C   0  0  0  0  0  0  0  0  0  0  0  0
  -23.1449  -28.9252   27.1622 C   0  0  0  0  0  0  0  0  0  0  0  0
  -23.0033   -9.8905   19.9823 C   0  0  0  0  0  0  0  0  0  0  0  0
  -23.7307   -9.9455   22.2856 C   0  0  0  0  0  0  0  0  0  0  0  0
  -21.5265  -29.9918   25.7273 C   0  0  0  0  0  0  0  0  0  0  0  0
  -23.6225  -28.1939   26.0752 C   0  0  0  0  0  0  0  0  0  0  0  0
  -29.6692  -25.3742   23.4671 C   0  0  0  0  0  0  0  0  0  0  0  0
  -22.2393   -8.7548   20.2507 C   0  0  0  0  0  0  0  0  0  0  0  0
  -22.9666   -8.8098   22.5540 C   0  0  0  0  0  0  0  0  0  0  0  0
  -30.1761  -24.1662   22.9900 C   0  0  0  0  0  0  0  0  0  0  0  0
  -23.2170   -5.4708   22.0856 C   0  0  0  0  0  0  0  0  0  0  0  0
  -23.8073   -4.4556   22.8382 C   0  0  0  0  0  0  0  0  0  0  0  0
  -29.1664  -24.5978   20.8421 C   0  0  0  0  0  0  0  0  0  0  0  0
  -28.3242  -18.2630   19.5463 C   0  0  0  0  0  0  0  0  0  0  0  0
  -22.0847   -4.6970   24.5149 C   0  0  0  0  0  0  0  0  0  0  0  0
  -28.2382  -18.6979   21.7538 C   0  0  0  0  0  0  0  0  0  0  0  0
  -23.7491  -10.4858   20.9998 C   0  0  0  0  0  0  0  0  0  0  0  0
  -24.1293  -13.0020   20.8205 C   0  0  0  0  0  0  0  0  0  0  0  0
  -22.0038  -29.2693   24.6223 C   0  0  0  0  0  0  0  0  0  0  0  0
  -28.8966  -26.1993   22.6372 C   0  0  0  0  0  0  0  0  0  0  0  0
  -23.0571  -28.3518   24.7984 C   0  0  0  0  0  0  0  0  0  0  0  0
  -28.6530  -25.8169   21.3104 C   0  0  0  0  0  0  0  0  0  0  0  0
  -29.0853  -18.3071   20.7404 C   0  0  0  0  0  0  0  0  0  0  0  0
  -22.2209   -8.2144   21.5365 C   0  0  0  0  0  0  0  0  0  0  0  0
  -29.9223  -23.7765   21.6782 C   0  0  0  0  0  0  0  0  0  0  0  0
  -22.0606   -6.0992   22.5476 C   0  0  0  0  0  0  0  0  0  0  0  0
  -23.2411   -4.0687   24.0528 C   0  0  0  0  0  0  0  0  0  0  0  0
  -21.4944   -5.7123   23.7622 C   0  0  0  0  0  0  0  0  0  0  0  0
  -24.5390  -11.6587   20.7230 C   0  0  0  0  0  0  0  0  0  0  0  0
  -27.0352  -18.6284   19.8663 C   0  0  0  0  0  0  0  0  0  0  0  0
  -25.2372  -13.7263   20.4542 C   0  0  0  0  0  0  0  0  0  0  0  0
  -22.8606  -13.5463   21.2077 C   0  0  0  0  0  0  0  0  0  0  0  0
  -25.9098  -27.2845   22.7066 C   0  0  0  0  0  0  0  0  0  0  0  0
  -26.8852  -28.9965   20.1297 C   0  0  0  0  0  0  0  0  0  0  0  0
  -29.0511  -29.3106   17.5112 C   0  0  0  0  0  0  0  0  0  0  0  0
  -30.7320  -14.6720   20.6961 C   0  0  0  0  0  0  0  0  0  0  0  0
  -21.3241  -29.4503   23.2882 C   0  0  0  0  0  0  0  0  0  0  0  0
  -28.3795  -27.5118   23.1589 C   0  0  0  0  0  0  0  0  0  0  0  0
  -27.8463  -26.6764   20.3728 C   0  0  0  0  0  0  0  0  0  0  0  0
  -22.1365  -28.9130   22.1128 C   0  0  0  0  0  0  0  0  0  0  0  0
  -29.5937  -12.2435   18.3545 C   0  0  0  0  0  0  0  0  0  0  0  0
  -22.6774  -27.5222   22.4292 C   0  0  0  0  0  0  0  0  0  0  0  0
  -28.1461  -11.9813   18.7739 C   0  0  0  0  0  0  0  0  0  0  0  0
  -30.4969  -12.4820   19.5626 C   0  0  0  0  0  0  0  0  0  0  0  0
  -28.5865  -13.2752   20.9024 C   0  0  0  0  0  0  0  0  0  0  0  0
  -23.6192  -27.5585   23.6388 C   0  0  1  0  0  0  0  0  0  0  0  0
  -27.1733  -28.0301   22.3820 C   0  0  1  0  0  0  0  0  0  0  0  0
  -27.6267  -13.0843   19.7156 C   0  0  2  0  0  0  0  0  0  0  0  0
  -25.8420  -18.7486   19.0032 C   0  0  0  0  0  0  0  0  0  0  0  0
  -26.2967  -21.7948   21.5990 C   0  0  0  0  0  0  0  0  0  0  0  0
  -29.5765  -30.7938   15.5563 C   0  0  0  0  0  0  0  0  0  0  0  0
  -25.4346  -18.2542   22.9996 C   0  0  0  0  0  0  0  0  0  0  0  0
  -24.4962  -27.8474   18.6190 C   0  0  0  0  0  0  0  0  0  0  0  0
  -25.5841  -28.5756   16.4849 C   0  0  0  0  0  0  0  0  0  0  0  0
  -24.9316  -30.2729   18.1926 C   0  0  0  0  0  0  0  0  0  0  0  0
  -31.7591  -29.9089   18.5445 C   0  0  0  0  0  0  0  0  0  0  0  0
  -25.9863  -20.6962   22.6079 C   0  0  0  0  0  0  0  0  0  0  0  0
  -32.3968  -21.3380   20.7200 C   0  0  0  0  0  0  0  0  0  0  0  0
  -30.8116  -16.8524   21.8788 C   0  0  0  0  0  0  0  0  0  0  0  0
  -31.6272  -20.1352   20.1954 C   0  0  0  0  0  0  0  0  0  0  0  0
  -31.6416  -22.1362   21.7756 C   0  0  0  0  0  0  0  0  0  1  0  0
  -30.5565  -17.9845   20.8786 C   0  0  2  0  0  0  0  0  0  0  0  0
  -26.9101  -28.7633   18.6384 C   0  0  1  0  0  0  0  0  0  0  0  0
  -29.8700  -30.4895   17.0172 C   0  0  2  0  0  0  0  0  0  0  0  0
  -25.8285  -19.3072   21.9583 C   0  0  1  0  0  0  0  0  0  0  0  0
  -25.4941  -28.8475   18.0017 C   0  0  0  0  0  0  0  0  0  0  0  0
  -25.8081  -11.5342   20.3257 N   0  0  0  0  0  0  0  0  0  0  0  0
  -26.9947  -18.8907   21.2108 N   0  0  0  0  0  0  0  0  0  0  0  0
  -26.2054  -12.8086   20.1702 N   0  0  0  0  0  0  0  0  0  0  0  0
  -27.3571  -27.9476   20.9316 N   0  0  0  0  0  0  0  0  0  0  0  0
  -29.9489  -13.5405   20.4140 N   0  0  0  0  0  0  0  0  0  0  0  0
  -25.4680  -15.0524   20.3504 N   0  0  0  0  0  0  0  0  0  0  0  0
  -21.8309  -12.6605   21.5533 N   0  0  0  0  0  0  0  0  0  0  0  0
  -24.9160  -28.0731   23.2543 N   0  0  0  0  0  0  0  0  0  0  0  0
  -27.8687  -29.7177   18.0920 N   0  0  0  0  0  0  0  0  0  0  0  0
  -30.1346  -15.6305   21.5055 N   0  0  0  0  0  0  0  0  0  0  0  0
  -31.3260  -30.2026   17.1541 N   0  3  0  0  0  0  0  0  0  0  0  0
  -31.3575  -19.1712   21.2879 N   0  3  0  0  0  0  0  0  0  0  0  0
  -22.6415  -14.7812   21.2303 O   0  0  0  0  0  0  0  0  0  0  0  0
  -25.8411  -26.0830   22.4758 O   0  0  0  0  0  0  0  0  0  0  0  0
  -26.4692  -30.0724   20.5667 O   0  0  0  0  0  0  0  0  0  0  0  0
  -29.4216  -28.1450   17.3904 O   0  0  0  0  0  0  0  0  0  0  0  0
  -31.8767  -14.8196   20.2547 O   0  0  0  0  0  0  0  0  0  0  0  0
  -21.4753   -7.1064   21.7988 O   0  0  0  0  0  0  0  0  0  0  0  0
  -30.4153  -22.5976   21.2102 O   0  0  0  0  0  0  0  0  0  1  0  0
  -23.8072   -3.0927   24.7748 F   0  0  0  0  0  0  0  0  0  0  0  0
  -20.3828   -6.3115   24.2107 F   0  0  0  0  0  0  0  0  0  0  0  0
  1  2  1  0  0  0  0
  1  5  2  0  0  0  0
  2  6  2  0  0  0  0
  3  8  2  0  0  0  0
  3 17  1  0  0  0  0
  4  9  1  0  0  0  0
  4 17  2  0  0  0  0
  5 19  1  0  0  0  0
  6 21  1  0  0  0  0
  7 10  2  0  0  0  0
  7 20  1  0  0  0  0
  8 24  1  0  0  0  0
  9 24  2  0  0  0  0
 10 25  1  0  0  0  0
 11 12  2  0  0  0  0
 11 26  1  0  0  0  0
 12 27  1  0  0  0  0
 13 22  1  0  0  0  0
 13 25  2  0  0  0  0
 14 23  1  0  0  0  0
 14 30  2  0  0  0  0
 15 27  2  0  0  0  0
 15 28  1  0  0  0  0
 16 23  2  0  0  0  0
 16 68  1  0  0  0  0
 17 29  1  0  0  0  0
 18 29  1  0  0  0  0
 18 31  2  0  0  0  0
 18 32  1  0  0  0  0
 19 21  2  0  0  0  0
 19 37  1  0  0  0  0
 20 22  2  0  0  0  0
 20 38  1  0  0  0  0
 21 46  1  0  0  0  0
 22 39  1  0  0  0  0
 23 62  1  0  0  0  0
 24 84  1  0  0  0  0
 25 85  1  0  0  0  0
 26 28  2  0  0  0  0
 26 84  1  0  0  0  0
 27 86  1  0  0  0  0
 28 87  1  0  0  0  0
 29 67  2  0  0  0  0
 30 49  1  0  0  0  0
 30 68  1  0  0  0  0
 31 69  1  0  0  0  0
 31 72  1  0  0  0  0
 32 73  1  0  0  0  0
 32 79  2  0  0  0  0
 33 47  1  0  0  0  0
 33 74  1  0  0  0  0
 33 80  2  0  0  0  0
 34 63  1  0  0  0  0
 34 70  1  0  0  0  0
 34 81  2  0  0  0  0
 35 64  1  0  0  0  0
 35 75  1  0  0  0  0
 35 82  2  0  0  0  0
 36 71  1  0  0  0  0
 36 76  1  0  0  0  0
 36 83  2  0  0  0  0
 37 40  1  0  0  0  0
 38 47  1  0  0  0  0
 39 70  1  0  0  0  0
 40 42  1  0  0  0  0
 41 43  1  0  0  0  0
 41 44  1  0  0  0  0
 42 46  1  0  0  0  0
 43 48  1  0  0  0  0
 44 71  1  0  0  0  0
 45 48  1  0  0  0  0
 45 71  1  0  0  0  0
 46 74  1  0  0  0  0
 47 70  1  0  0  0  0
 48 69  1  0  0  0  0
 50 57  1  0  0  0  0
 51 64  1  0  0  0  0
 52 65  1  0  0  0  0
 53 66  1  0  0  0  0
 54 66  1  0  0  0  0
 55 66  1  0  0  0  0
 56 77  1  0  0  0  0
 57 65  1  0  0  0  0
 58 60  1  0  0  0  0
 58 61  1  0  0  0  0
 59 62  1  0  0  0  0
 59 76  1  0  0  0  0
 60 78  1  0  0  0  0
 61 85  1  0  0  0  0
 62 78  1  0  0  0  0
 63 66  1  0  0  0  0
 63 75  1  0  0  0  0
 64 77  1  0  0  0  0
 65 68  1  0  0  0  0
 67 69  1  0  0  0  0
M  CHG  2  77   1  78   1
M  ISO  4  36 100  61 101  76 100  85 101
M  END
> <Batch ID>
0101

> <Smiles>
CCC(C)n1cc(C(C[100NH:0][100C:0](=O)N2CCCC(n3nc(-c4ccc(Oc5ccc(F)cc5F)cc4)c(C(N)=O)c3N)C2)NCC[101CH2:1][101O:1]c2ccc3c(c2)CN(C(=O)C(NC(=O)C(C)NC)C(C)(C)C)C(C(=O)NC2CCCc4ccccc42)C3)cc1C

> <Shape>
0.279

> <Color>
0.193

> <Negative vol penalty>
0.000

$$$$

  -OEChem-04052319363D

 88 96  0     1  0  0  0  0  0999 V2000
  -27.8477  -25.2106   16.2081 C   0  0  0  0  0  0  0  0  0  0  0  0
  -26.6836  -25.3633   16.9544 C   0  0  0  0  0  0  0  0  0  0  0  0
  -23.4986  -14.0107   19.9882 C   0  0  0  0  0  0  0  0  0  0  0  0
  -25.4218  -15.0654   21.0010 C   0  0  0  0  0  0  0  0  0  0  0  0
  -29.0618  -25.6791   16.7086 C   0  0  0  0  0  0  0  0  0  0  0  0
  -26.7332  -25.9836   18.2023 C   0  0  0  0  0  0  0  0  0  0  0  0
  -22.9915  -29.3327   18.8569 C   0  0  0  0  0  0  0  0  0  0  0  0
  -24.1583  -12.7821   20.0148 C   0  0  0  0  0  0  0  0  0  0  0  0
  -26.0816  -13.8367   21.0277 C   0  0  0  0  0  0  0  0  0  0  0  0
  -21.7303  -28.8258   19.1670 C   0  0  0  0  0  0  0  0  0  0  0  0
  -28.4101  -11.0460   21.0330 C   0  0  0  0  0  0  0  0  0  0  0  0
  -29.7422  -11.0163   20.6207 C   0  0  0  0  0  0  0  0  0  0  0  0
  -22.1013  -29.3426   21.4939 C   0  0  0  0  0  0  0  0  0  0  0  0
  -23.8603  -24.6706   23.8407 C   0  0  0  0  0  0  0  0  0  0  0  0
  -21.4698  -24.9163   23.5919 C   0  0  0  0  0  0  0  0  0  0  0  0
  -29.0858  -11.8279   18.4418 C   0  0  0  0  0  0  0  0  0  0  0  0
  -24.1304  -15.1524   20.4813 C   0  0  0  0  0  0  0  0  0  0  0  0
  -22.6239  -16.9659   21.4556 C   0  0  0  0  0  0  0  0  0  0  0  0
  -29.1246  -26.3141   17.9590 C   0  0  0  0  0  0  0  0  0  0  0  0
  -23.8229  -29.8392   19.8662 C   0  0  0  0  0  0  0  0  0  0  0  0
  -27.9494  -26.4598   18.7206 C   0  0  0  0  0  0  0  0  0  0  0  0
  -23.3716  -29.8577   21.1937 C   0  0  0  0  0  0  0  0  0  0  0  0
  -22.5962  -24.8252   24.4096 C   0  0  0  0  0  0  0  0  0  0  0  0
  -23.9982  -24.6073   22.4541 C   0  0  0  0  0  0  0  0  0  0  0  0
  -22.8718  -24.6984   21.6364 C   0  0  0  0  0  0  0  0  0  0  0  0
  -25.4497  -12.6950   20.5346 C   0  0  0  0  0  0  0  0  0  0  0  0
  -21.2862  -28.8280   20.4861 C   0  0  0  0  0  0  0  0  0  0  0  0
  -27.4157  -11.4665   20.1498 C   0  0  0  0  0  0  0  0  0  0  0  0
  -21.6076  -24.8530   22.2052 C   0  0  0  0  0  0  0  0  0  0  0  0
  -30.0801  -11.4073   19.3251 C   0  0  0  0  0  0  0  0  0  0  0  0
  -27.7536  -11.8575   18.8542 C   0  0  0  0  0  0  0  0  0  0  0  0
  -23.4496  -16.4220   20.4536 C   0  0  0  0  0  0  0  0  0  0  0  0
  -22.2253  -18.1795   20.9508 C   0  0  0  0  0  0  0  0  0  0  0  0
  -22.2506  -16.4228   22.7290 C   0  0  0  0  0  0  0  0  0  0  0  0
  -26.6832  -29.0640   21.0157 C   0  0  0  0  0  0  0  0  0  0  0  0
  -26.2911  -31.7782   22.7482 C   0  0  0  0  0  0  0  0  0  0  0  0
  -24.1519  -34.0569   24.1187 C   0  0  0  0  0  0  0  0  0  0  0  0
  -23.3684  -22.9748   18.3347 C   0  0  0  0  0  0  0  0  0  0  0  0
  -30.4677  -26.7617   18.4791 C   0  0  0  0  0  0  0  0  0  0  0  0
  -25.1699  -30.4069   19.5116 C   0  0  0  0  0  0  0  0  0  0  0  0
  -24.2176  -30.4089   22.3112 C   0  0  0  0  0  0  0  0  0  0  0  0
  -30.3732  -27.7426   19.6449 C   0  0  0  0  0  0  0  0  0  0  0  0
  -22.6938  -20.1275   16.3062 C   0  0  0  0  0  0  0  0  0  0  0  0
  -29.3625  -27.2507   20.6760 C   0  0  0  0  0  0  0  0  0  0  0  0
  -22.7684  -18.9547   17.2855 C   0  0  0  0  0  0  0  0  0  0  0  0
  -23.7233  -21.2056   16.6374 C   0  0  0  0  0  0  0  0  0  0  0  0
  -23.7534  -20.5258   19.0061 C   0  0  0  0  0  0  0  0  0  0  0  0
  -27.9585  -27.1495   20.0676 C   0  0  1  0  0  0  0  0  0  0  0  0
  -26.1391  -30.4261   20.6896 C   0  0  1  0  0  0  0  0  0  0  0  0
  -22.6966  -19.4386   18.7463 C   0  0  2  0  0  0  0  0  0  0  0  0
  -25.3629  -24.4429   21.8696 C   0  0  0  0  0  0  0  0  0  0  0  0
  -24.1250  -36.1447   25.5108 C   0  0  0  0  0  0  0  0  0  0  0  0
  -21.9120  -22.0898   28.5690 C   0  0  0  0  0  0  0  0  0  0  0  0
  -23.3348  -24.1416   28.7311 C   0  0  0  0  0  0  0  0  0  0  0  0
  -26.8601  -30.1182   25.2443 C   0  0  0  0  0  0  0  0  0  0  0  0
  -25.9019  -31.9803   26.6164 C   0  0  0  0  0  0  0  0  0  0  0  0
  -27.9347  -32.3763   25.2259 C   0  0  0  0  0  0  0  0  0  0  0  0
  -22.8680  -35.6200   21.9582 C   0  0  0  0  0  0  0  0  0  0  0  0
  -22.4493  -24.8942   25.8921 C   0  0  0  0  0  0  0  0  0  0  0  0
  -23.0138  -24.6302   20.1493 C   0  0  0  0  0  0  0  0  0  0  0  0
  -22.2406  -23.5021   26.5170 C   0  0  0  0  0  0  0  0  0  0  0  0
  -18.6565  -26.3677   20.7770 C   0  0  0  0  0  0  0  0  0  0  0  0
  -19.5520  -27.2874   19.9617 C   0  0  0  0  0  0  0  0  0  1  0  0
  -19.4082  -25.7133   21.9255 C   0  0  0  0  0  0  0  0  0  0  0  0
  -25.6904  -32.1110   24.0926 C   0  0  1  0  0  0  0  0  0  0  0  0
  -24.1506  -35.5749   24.1010 C   0  0  2  0  0  0  0  0  0  0  0  0
  -22.1157  -23.5161   28.0519 C   0  0  0  0  0  0  0  0  0  0  0  0
  -26.5814  -31.6342   25.2743 C   0  0  0  0  0  0  0  0  0  0  0  0
  -23.5692  -17.2242   19.3923 N   0  0  0  0  0  0  0  0  0  0  0  0
  -22.8133  -18.2845   19.7247 N   0  0  0  0  0  0  0  0  0  0  0  0
  -25.5294  -30.9469   21.9148 N   0  0  0  0  0  0  0  0  0  0  0  0
  -23.6009  -21.6219   18.0365 N   0  0  0  0  0  0  0  0  0  0  0  0
  -21.4326  -19.1564   21.4406 N   0  0  0  0  0  0  0  0  0  0  0  0
  -22.7496  -15.1640   23.0906 N   0  0  0  0  0  0  0  0  0  0  0  0
  -27.3546  -28.4610   19.9693 N   0  0  0  0  0  0  0  0  0  0  0  0
  -25.4323  -33.5468   24.0803 N   0  0  0  0  0  0  0  0  0  0  0  0
  -23.2590  -23.2829   19.6851 N   0  0  0  0  0  0  0  0  0  0  0  0
  -22.9575  -36.0834   23.3669 N   0  3  0  0  0  0  0  0  0  0  0  0
  -21.4838  -17.0284   23.5156 O   0  0  0  0  0  0  0  0  0  0  0  0
  -26.5082  -28.5955   22.1345 O   0  0  0  0  0  0  0  0  0  0  0  0
  -27.3923  -32.2446   22.4458 O   0  0  0  0  0  0  0  0  0  0  0  0
  -23.1203  -33.3905   24.1657 O   0  0  0  0  0  0  0  0  0  0  0  0
  -23.2607  -23.8427   17.4617 O   0  0  0  0  0  0  0  0  0  0  0  0
  -26.0937  -11.4962   20.5609 O   0  0  0  0  0  0  0  0  0  0  0  0
  -20.0558  -28.3333   20.7916 O   0  0  0  0  0  0  0  0  0  1  0  0
  -20.4894  -24.9432   21.4178 O   0  0  0  0  0  0  0  0  0  0  0  0
  -31.3596  -11.3802   18.9298 F   0  0  0  0  0  0  0  0  0  0  0  0
  -26.8029  -12.2637   18.0015 F   0  0  0  0  0  0  0  0  0  0  0  0
  1  2  1  0  0  0  0
  1  5  2  0  0  0  0
  2  6  2  0  0  0  0
  3  8  2  0  0  0  0
  3 17  1  0  0  0  0
  4  9  1  0  0  0  0
  4 17  2  0  0  0  0
  5 19  1  0  0  0  0
  6 21  1  0  0  0  0
  7 10  2  0  0  0  0
  7 20  1  0  0  0  0
  8 26  1  0  0  0  0
  9 26  2  0  0  0  0
 10 27  1  0  0  0  0
 11 12  2  0  0  0  0
 11 28  1  0  0  0  0
 12 30  1  0  0  0  0
 13 22  1  0  0  0  0
 13 27  2  0  0  0  0
 14 23  1  0  0  0  0
 14 24  2  0  0  0  0
 15 23  2  0  0  0  0
 15 29  1  0  0  0  0
 16 30  2  0  0  0  0
 16 31  1  0  0  0  0
 17 32  1  0  0  0  0
 18 32  1  0  0  0  0
 18 33  2  0  0  0  0
 18 34  1  0  0  0  0
 19 21  2  0  0  0  0
 19 39  1  0  0  0  0
 20 22  2  0  0  0  0
 20 40  1  0  0  0  0
 21 48  1  0  0  0  0
 22 41  1  0  0  0  0
 23 59  1  0  0  0  0
 24 25  1  0  0  0  0
 24 51  1  0  0  0  0
 25 29  2  0  0  0  0
 25 60  1  0  0  0  0
 26 84  1  0  0  0  0
 27 85  1  0  0  0  0
 28 31  2  0  0  0  0
 28 84  1  0  0  0  0
 29 86  1  0  0  0  0
 30 87  1  0  0  0  0
 31 88  1  0  0  0  0
 32 69  2  0  0  0  0
 33 70  1  0  0  0  0
 33 73  1  0  0  0  0
 34 74  1  0  0  0  0
 34 79  2  0  0  0  0
 35 49  1  0  0  0  0
 35 75  1  0  0  0  0
 35 80  2  0  0  0  0
 36 65  1  0  0  0  0
 36 71  1  0  0  0  0
 36 81  2  0  0  0  0
 37 66  1  0  0  0  0
 37 76  1  0  0  0  0
 37 82  2  0  0  0  0
 38 72  1  0  0  0  0
 38 77  1  0  0  0  0
 38 83  2  0  0  0  0
 39 42  1  0  0  0  0
 40 49  1  0  0  0  0
 41 71  1  0  0  0  0
 42 44  1  0  0  0  0
 43 45  1  0  0  0  0
 43 46  1  0  0  0  0
 44 48  1  0  0  0  0
 45 50  1  0  0  0  0
 46 72  1  0  0  0  0
 47 50  1  0  0  0  0
 47 72  1  0  0  0  0
 48 75  1  0  0  0  0
 49 71  1  0  0  0  0
 50 70  1  0  0  0  0
 52 66  1  0  0  0  0
 53 67  1  0  0  0  0
 54 67  1  0  0  0  0
 55 68  1  0  0  0  0
 56 68  1  0  0  0  0
 57 68  1  0  0  0  0
 58 78  1  0  0  0  0
 59 61  1  0  0  0  0
 60 77  1  0  0  0  0
 61 67  1  0  0  0  0
 62 63  1  0  0  0  0
 62 64  1  0  0  0  0
 63 85  1  0  0  0  0
 64 86  1  0  0  0  0
 65 68  1  0  0  0  0
 65 76  1  0  0  0  0
 66 78  1  0  0  0  0
 69 70  1  0  0  0  0
M  CHG  1  78   1
M  ISO  4  38 100  63 101  77 100  85 101
M  END
> <Batch ID>
0101

> <Smiles>
CNC(C)C(=O)NC(C(=O)N1Cc2cc([101O:1][101CH2:1]CCOc3cc(CCC(C)C)cc(C)c3C[100NH:0][100C:0](=O)N3CCCC(n4nc(-c5ccc(Oc6ccc(F)cc6F)cc5)c(C(N)=O)c4N)C3)ccc2CC1C(=O)NC1CCCc2ccccc21)C(C)(C)C

> <Shape>
0.259

> <Color>
0.080

> <Negative vol penalty>
0.000

$$$$

  -OEChem-04052319363D

 82 90  0     1  0  0  0  0  0999 V2000
  -32.5499  -19.5241   13.4514 C   0  0  0  0  0  0  0  0  0  0  0  0
  -32.0290  -19.6838   14.7315 C   0  0  0  0  0  0  0  0  0  0  0  0
  -23.0042   -9.8835   19.9854 C   0  0  0  0  0  0  0  0  0  0  0  0
  -23.7252   -9.9491   22.2904 C   0  0  0  0  0  0  0  0  0  0  0  0
  -33.7817  -20.0901   13.1257 C   0  0  0  0  0  0  0  0  0  0  0  0
  -32.7402  -20.4088   15.6870 C   0  0  0  0  0  0  0  0  0  0  0  0
  -29.8005  -23.6199   18.2739 C   0  0  0  0  0  0  0  0  0  0  0  0
  -22.2400   -8.7485   20.2567 C   0  0  0  0  0  0  0  0  0  0  0  0
  -22.9610   -8.8141   22.5617 C   0  0  0  0  0  0  0  0  0  0  0  0
  -29.0053  -23.0817   19.2848 C   0  0  0  0  0  0  0  0  0  0  0  0
  -23.2146   -5.4733   22.1087 C   0  0  0  0  0  0  0  0  0  0  0  0
  -23.8034   -4.4617   22.8675 C   0  0  0  0  0  0  0  0  0  0  0  0
  -30.6131  -23.8099   20.9291 C   0  0  0  0  0  0  0  0  0  0  0  0
  -31.1723  -17.6209   20.5520 C   0  0  0  0  0  0  0  0  0  0  0  0
  -29.5223  -17.8832   22.2821 C   0  0  0  0  0  0  0  0  0  0  0  0
  -22.0760   -4.7096   24.5384 C   0  0  0  0  0  0  0  0  0  0  0  0
  -23.7468  -10.4837   21.0023 C   0  0  0  0  0  0  0  0  0  0  0  0
  -24.1261  -12.9993   20.8130 C   0  0  0  0  0  0  0  0  0  0  0  0
  -34.5039  -20.8306   14.0748 C   0  0  0  0  0  0  0  0  0  0  0  0
  -31.0154  -24.2486   18.5827 C   0  0  0  0  0  0  0  0  0  0  0  0
  -33.9835  -20.9841   15.3740 C   0  0  0  0  0  0  0  0  0  0  0  0
  -31.4207  -24.3575   19.9206 C   0  0  0  0  0  0  0  0  0  0  0  0
  -30.2534  -17.0606   21.4323 C   0  0  0  0  0  0  0  0  0  0  0  0
  -22.2185   -8.2139   21.5449 C   0  0  0  0  0  0  0  0  0  0  0  0
  -29.4130  -23.1741   20.6123 C   0  0  0  0  0  0  0  0  0  0  0  0
  -22.0565   -6.1030   22.5648 C   0  0  0  0  0  0  0  0  0  0  0  0
  -23.2341   -4.0799   24.0823 C   0  0  0  0  0  0  0  0  0  0  0  0
  -21.4873   -5.7211   23.7796 C   0  0  0  0  0  0  0  0  0  0  0  0
  -24.5368  -11.6558   20.7225 C   0  0  0  0  0  0  0  0  0  0  0  0
  -31.3218  -18.9983   20.5604 C   0  0  0  0  0  0  0  0  0  0  0  0
  -29.7458  -19.2489   22.2132 C   0  0  0  0  0  0  0  0  0  0  0  0
  -25.2346  -13.7226   20.4465 C   0  0  0  0  0  0  0  0  0  0  0  0
  -22.8561  -13.5446   21.1943 C   0  0  0  0  0  0  0  0  0  0  0  0
  -34.0653  -23.7096   17.8676 C   0  0  0  0  0  0  0  0  0  0  0  0
  -34.5172  -26.5387   19.3890 C   0  0  0  0  0  0  0  0  0  0  0  0
  -33.3838  -28.8208   21.6593 C   0  0  0  0  0  0  0  0  0  0  0  0
  -30.7112  -14.6989   20.6845 C   0  0  0  0  0  0  0  0  0  0  0  0
  -35.8533  -21.3837   13.6902 C   0  0  0  0  0  0  0  0  0  0  0  0
  -31.8487  -24.8476   17.4831 C   0  0  0  0  0  0  0  0  0  0  0  0
  -32.7064  -25.0406   20.3065 C   0  0  0  0  0  0  0  0  0  0  0  0
  -36.3686  -22.4539   14.6490 C   0  0  0  0  0  0  0  0  0  0  0  0
  -29.6032  -12.2303   18.3703 C   0  0  0  0  0  0  0  0  0  0  0  0
  -36.1939  -22.0033   16.0958 C   0  0  0  0  0  0  0  0  0  0  0  0
  -28.1525  -11.9713   18.7834 C   0  0  0  0  0  0  0  0  0  0  0  0
  -30.5010  -12.4827   19.5803 C   0  0  0  0  0  0  0  0  0  0  0  0
  -28.5813  -13.2741   20.9061 C   0  0  0  0  0  0  0  0  0  0  0  0
  -34.7135  -21.7846   16.4306 C   0  0  1  0  0  0  0  0  0  0  0  0
  -33.3159  -25.0120   17.8673 C   0  0  1  0  0  0  0  0  0  0  0  0
  -27.6262  -13.0787   19.7173 C   0  0  2  0  0  0  0  0  0  0  0  0
  -33.6885  -19.7649   20.2477 C   0  0  0  0  0  0  0  0  0  0  0  0
  -33.9883  -31.0149   22.7167 C   0  0  0  0  0  0  0  0  0  0  0  0
  -36.5748  -25.1239   21.1426 C   0  0  0  0  0  0  0  0  0  0  0  0
  -36.4341  -27.0476   22.7389 C   0  0  0  0  0  0  0  0  0  0  0  0
  -37.2349  -27.4209   20.4061 C   0  0  0  0  0  0  0  0  0  0  0  0
  -30.9519  -30.1334   20.6003 C   0  0  0  0  0  0  0  0  0  0  0  0
  -32.2993  -19.6339   19.6293 C   0  0  0  0  0  0  0  0  0  0  0  0
  -28.9712  -20.1716   23.1199 C   0  0  0  0  0  0  0  0  0  0  0  0
  -27.6531  -20.6632   22.5178 C   0  0  0  0  0  0  0  0  0  0  0  0
  -27.8408  -21.5142   21.2672 C   0  0  0  0  0  0  0  0  0  1  0  0
  -34.7839  -26.9548   20.8155 C   0  0  1  0  0  0  0  0  0  0  0  0
  -33.2392  -30.3301   21.5841 C   0  0  2  0  0  0  0  0  0  0  0  0
  -36.2336  -26.6222   21.2686 C   0  0  0  0  0  0  0  0  0  0  0  0
  -25.8071  -11.5303   20.3292 N   0  0  0  0  0  0  0  0  0  0  0  0
  -30.6298  -19.8298   21.3712 N   0  0  0  0  0  0  0  0  0  0  0  0
  -26.2041  -12.8042   20.1692 N   0  0  0  0  0  0  0  0  0  0  0  0
  -33.4895  -25.6048   19.1949 N   0  0  0  0  0  0  0  0  0  0  0  0
  -29.9418  -13.5469   20.4167 N   0  0  0  0  0  0  0  0  0  0  0  0
  -25.4649  -15.0483   20.3375 N   0  0  0  0  0  0  0  0  0  0  0  0
  -21.8259  -12.6598   21.5409 N   0  0  0  0  0  0  0  0  0  0  0  0
  -30.0632  -15.6568   21.4637 N   0  0  0  0  0  0  0  0  0  0  0  0
  -34.0527  -23.0530   16.6518 N   0  0  0  0  0  0  0  0  0  0  0  0
  -34.4420  -28.3706   20.8984 N   0  0  0  0  0  0  0  0  0  0  0  0
  -31.8027  -30.7177   21.6687 N   0  3  0  0  0  0  0  0  0  0  0  0
  -22.6362  -14.7795   21.2108 O   0  0  0  0  0  0  0  0  0  0  0  0
  -34.6154  -23.3294   18.8945 O   0  0  0  0  0  0  0  0  0  0  0  0
  -35.1910  -27.0296   18.4798 O   0  0  0  0  0  0  0  0  0  0  0  0
  -32.6354  -28.1125   22.3292 O   0  0  0  0  0  0  0  0  0  0  0  0
  -31.8503  -14.8382   20.2317 O   0  0  0  0  0  0  0  0  0  0  0  0
  -21.4727   -7.1065   21.8100 O   0  0  0  0  0  0  0  0  0  0  0  0
  -28.6390  -22.6490   21.6008 O   0  0  0  0  0  0  0  0  0  1  0  0
  -23.7988   -3.1074   24.8101 F   0  0  0  0  0  0  0  0  0  0  0  0
  -20.3741   -6.3216   24.2224 F   0  0  0  0  0  0  0  0  0  0  0  0
  1  2  1  0  0  0  0
  1  5  2  0  0  0  0
  2  6  2  0  0  0  0
  3  8  2  0  0  0  0
  3 17  1  0  0  0  0
  4  9  1  0  0  0  0
  4 17  2  0  0  0  0
  5 19  1  0  0  0  0
  6 21  1  0  0  0  0
  7 10  2  0  0  0  0
  7 20  1  0  0  0  0
  8 24  1  0  0  0  0
  9 24  2  0  0  0  0
 10 25  1  0  0  0  0
 11 12  2  0  0  0  0
 11 26  1  0  0  0  0
 12 27  1  0  0  0  0
 13 22  1  0  0  0  0
 13 25  2  0  0  0  0
 14 23  2  0  0  0  0
 14 30  1  0  0  0  0
 15 23  1  0  0  0  0
 15 31  2  0  0  0  0
 16 27  2  0  0  0  0
 16 28  1  0  0  0  0
 17 29  1  0  0  0  0
 18 29  1  0  0  0  0
 18 32  2  0  0  0  0
 18 33  1  0  0  0  0
 19 21  2  0  0  0  0
 19 38  1  0  0  0  0
 20 22  2  0  0  0  0
 20 39  1  0  0  0  0
 21 47  1  0  0  0  0
 22 40  1  0  0  0  0
 23 70  1  0  0  0  0
 24 79  1  0  0  0  0
 25 80  1  0  0  0  0
 26 28  2  0  0  0  0
 26 79  1  0  0  0  0
 27 81  1  0  0  0  0
 28 82  1  0  0  0  0
 29 63  2  0  0  0  0
 30 56  1  0  0  0  0
 30 64  2  0  0  0  0
 31 57  1  0  0  0  0
 31 64  1  0  0  0  0
 32 65  1  0  0  0  0
 32 68  1  0  0  0  0
 33 69  1  0  0  0  0
 33 74  2  0  0  0  0
 34 48  1  0  0  0  0
 34 71  1  0  0  0  0
 34 75  2  0  0  0  0
 35 60  1  0  0  0  0
 35 66  1  0  0  0  0
 35 76  2  0  0  0  0
 36 61  1  0  0  0  0
 36 72  1  0  0  0  0
 36 77  2  0  0  0  0
 37 67  1  0  0  0  0
 37 70  1  0  0  0  0
 37 78  2  0  0  0  0
 38 41  1  0  0  0  0
 39 48  1  0  0  0  0
 40 66  1  0  0  0  0
 41 43  1  0  0  0  0
 42 44  1  0  0  0  0
 42 45  1  0  0  0  0
 43 47  1  0  0  0  0
 44 49  1  0  0  0  0
 45 67  1  0  0  0  0
 46 49  1  0  0  0  0
 46 67  1  0  0  0  0
 47 71  1  0  0  0  0
 48 66  1  0  0  0  0
 49 65  1  0  0  0  0
 50 56  1  0  0  0  0
 51 61  1  0  0  0  0
 52 62  1  0  0  0  0
 53 62  1  0  0  0  0
 54 62  1  0  0  0  0
 55 73  1  0  0  0  0
 57 58  1  0  0  0  0
 58 59  1  0  0  0  0
 59 80  1  0  0  0  0
 60 62  1  0  0  0  0
 60 72  1  0  0  0  0
 61 73  1  0  0  0  0
 63 65  1  0  0  0  0
M  CHG  1  73   1
M  ISO  4  37 100  59 101  70 100  80 101
M  END
> <Batch ID>
0101

> <Smiles>
CCc1cc([100NH:0][100C:0](=O)N2CCCC(n3nc(-c4ccc(Oc5ccc(F)cc5F)cc4)c(C(N)=O)c3N)C2)cc(CC[101CH2:1][101O:1]c2ccc3c(c2)CN(C(=O)C(NC(=O)C(C)NC)C(C)(C)C)C(C(=O)NC2CCCc4ccccc42)C3)n1

> <Shape>
0.236

> <Color>
0.198

> <Negative vol penalty>
0.000

$$$$

  -OEChem-04052319363D

 86 94  0     1  0  0  0  0  0999 V2000
  -19.2587  -29.6218   21.2816 C   0  0  0  0  0  0  0  0  0  0  0  0
  -20.1158  -29.0597   22.2223 C   0  0  0  0  0  0  0  0  0  0  0  0
  -23.0701   -9.9626   19.8842 C   0  0  0  0  0  0  0  0  0  0  0  0
  -23.8842   -9.8348   22.1553 C   0  0  0  0  0  0  0  0  0  0  0  0
  -19.2669  -29.1570   19.9671 C   0  0  0  0  0  0  0  0  0  0  0  0
  -20.9809  -28.0316   21.8492 C   0  0  0  0  0  0  0  0  0  0  0  0
  -26.6317  -27.0192   23.9821 C   0  0  0  0  0  0  0  0  0  0  0  0
  -22.3286   -8.7983   20.0845 C   0  0  0  0  0  0  0  0  0  0  0  0
  -23.1426   -8.6705   22.3556 C   0  0  0  0  0  0  0  0  0  0  0  0
  -27.1257  -26.1504   24.9541 C   0  0  0  0  0  0  0  0  0  0  0  0
  -19.9270   -7.8453   22.9877 C   0  0  0  0  0  0  0  0  0  0  0  0
  -19.1979   -7.7388   24.1720 C   0  0  0  0  0  0  0  0  0  0  0  0
  -27.6851  -24.5540   23.2343 C   0  0  0  0  0  0  0  0  0  0  0  0
  -31.1841  -17.7261   20.8017 C   0  0  0  0  0  0  0  0  0  0  0  0
  -30.6485  -19.8422   21.8370 C   0  0  0  0  0  0  0  0  0  0  0  0
  -29.5960  -17.8135   22.6202 C   0  0  0  0  0  0  0  0  0  0  0  0
  -20.4500   -5.7595   24.7649 C   0  0  0  0  0  0  0  0  0  0  0  0
  -23.8480  -10.4808   20.9196 C   0  0  0  0  0  0  0  0  0  0  0  0
  -24.1953  -13.0080   20.9383 C   0  0  0  0  0  0  0  0  0  0  0  0
  -20.1394  -28.1293   19.5755 C   0  0  0  0  0  0  0  0  0  0  0  0
  -26.6507  -26.6568   22.6276 C   0  0  0  0  0  0  0  0  0  0  0  0
  -20.9998  -27.5517   20.5286 C   0  0  0  0  0  0  0  0  0  0  0  0
  -27.1931  -25.4211   22.2468 C   0  0  0  0  0  0  0  0  0  0  0  0
  -31.3564  -19.1077   20.8857 C   0  0  0  0  0  0  0  0  0  0  0  0
  -30.3039  -17.0790   21.6689 C   0  0  0  0  0  0  0  0  0  0  0  0
  -22.3648   -8.1523   21.3202 C   0  0  0  0  0  0  0  0  0  0  0  0
  -27.6499  -24.9164   24.5806 C   0  0  0  0  0  0  0  0  0  0  0  0
  -20.9176   -6.9088   22.6919 C   0  0  0  0  0  0  0  0  0  0  0  0
  -29.7682  -19.1951   22.7043 C   0  0  0  0  0  0  0  0  0  0  0  0
  -19.4594   -6.6960   25.0606 C   0  0  0  0  0  0  0  0  0  0  0  0
  -21.1791   -5.8659   23.5805 C   0  0  0  0  0  0  0  0  0  0  0  0
  -24.6147  -11.6832   20.7132 C   0  0  0  0  0  0  0  0  0  0  0  0
  -25.2810  -13.7752   20.5932 C   0  0  0  0  0  0  0  0  0  0  0  0
  -22.9368  -13.5011   21.4166 C   0  0  0  0  0  0  0  0  0  0  0  0
  -24.4329  -26.1915   20.3986 C   0  0  0  0  0  0  0  0  0  0  0  0
  -27.0099  -25.8769   18.4538 C   0  0  0  0  0  0  0  0  0  0  0  0
  -30.3277  -25.1435   18.1364 C   0  0  0  0  0  0  0  0  0  0  0  0
  -30.7532  -14.7983   20.6978 C   0  0  0  0  0  0  0  0  0  0  0  0
  -20.0787  -27.6278   18.1544 C   0  0  0  0  0  0  0  0  0  0  0  0
  -26.1385  -27.6164   21.5888 C   0  0  0  0  0  0  0  0  0  0  0  0
  -27.2552  -24.9931   20.8041 C   0  0  0  0  0  0  0  0  0  0  0  0
  -21.2903  -26.7910   17.7516 C   0  0  0  0  0  0  0  0  0  0  0  0
  -29.5750  -12.5284   18.2206 C   0  0  0  0  0  0  0  0  0  0  0  0
  -21.6136  -25.7647   18.8328 C   0  0  0  0  0  0  0  0  0  0  0  0
  -28.1449  -12.2151   18.6668 C   0  0  0  0  0  0  0  0  0  0  0  0
  -30.5191  -12.6852   19.4114 C   0  0  0  0  0  0  0  0  0  0  0  0
  -28.6478  -13.3319   20.8775 C   0  0  0  0  0  0  0  0  0  0  0  0
  -21.9702  -26.4517   20.1566 C   0  0  1  0  0  0  0  0  0  0  0  0
  -25.7369  -26.9295   20.2871 C   0  0  1  0  0  0  0  0  0  0  0  0
  -27.6468  -13.2292   19.7151 C   0  0  2  0  0  0  0  0  0  0  0  0
  -32.1431  -24.9337   16.4166 C   0  0  0  0  0  0  0  0  0  0  0  0
  -31.8791  -19.5926   18.4696 C   0  0  0  0  0  0  0  0  0  0  0  0
  -33.7513  -19.2572   20.1184 C   0  0  0  0  0  0  0  0  0  0  0  0
  -32.4083  -21.3493   20.1477 C   0  0  0  0  0  0  0  0  0  0  0  0
  -25.8561  -23.1951   17.5667 C   0  0  0  0  0  0  0  0  0  0  0  0
  -28.1022  -22.6205   16.6215 C   0  0  0  0  0  0  0  0  0  0  0  0
  -26.8344  -24.5714   15.7219 C   0  0  0  0  0  0  0  0  0  0  0  0
  -31.9312  -27.2869   19.3988 C   0  0  0  0  0  0  0  0  0  0  0  0
  -29.2110  -21.3783   25.5511 C   0  0  0  0  0  0  0  0  0  0  0  0
  -29.8551  -22.6385   26.1198 C   0  0  0  0  0  0  0  0  0  0  0  0
  -29.6969  -21.0932   24.1354 C   0  0  0  0  0  0  0  0  0  0  0  0
  -27.8850  -24.7273   18.0162 C   0  0  1  0  0  0  0  0  0  0  0  0
  -31.4519  -25.8573   17.4076 C   0  0  2  0  0  0  0  0  0  0  0  0
  -32.2972  -19.7999   19.9585 C   0  0  0  0  0  0  0  0  0  0  0  0
  -27.1666  -23.7855   17.0091 C   0  0  0  0  0  0  0  0  0  0  0  0
  -25.8690  -11.6094   20.2600 N   0  0  0  0  0  0  0  0  0  0  0  0
  -26.2470  -12.8975   20.1974 N   0  0  0  0  0  0  0  0  0  0  0  0
  -26.7362  -25.9635   19.8262 N   0  0  0  0  0  0  0  0  0  0  0  0
  -29.9845  -13.6644   20.3602 N   0  0  0  0  0  0  0  0  0  0  0  0
  -25.4940  -15.1083   20.5926 N   0  0  0  0  0  0  0  0  0  0  0  0
  -21.9301  -12.5758   21.7246 N   0  0  0  0  0  0  0  0  0  0  0  0
  -30.1285  -15.6755   21.5837 N   0  0  0  0  0  0  0  0  0  0  0  0
  -23.3232  -26.9635   20.1120 N   0  0  0  0  0  0  0  0  0  0  0  0
  -29.1151  -25.3223   17.5050 N   0  0  0  0  0  0  0  0  0  0  0  0
  -29.5464  -23.7871   25.2801 N   0  0  0  0  0  0  0  0  0  1  0  0
  -32.4689  -26.3496   18.3793 N   0  3  0  0  0  0  0  0  0  0  0  0
  -22.7060  -14.7267   21.5509 O   0  0  0  0  0  0  0  0  0  0  0  0
  -24.4335  -25.0088   20.7195 O   0  0  0  0  0  0  0  0  0  0  0  0
  -26.5906  -26.6730   17.6099 O   0  0  0  0  0  0  0  0  0  0  0  0
  -30.5080  -24.4895   19.1613 O   0  0  0  0  0  0  0  0  0  0  0  0
  -31.8715  -14.9918   20.2139 O   0  0  0  0  0  0  0  0  0  0  0  0
  -21.6411   -7.0163   21.5160 O   0  0  0  0  0  0  0  0  0  0  0  0
  -29.0724  -19.9169   23.6388 O   0  0  0  0  0  0  0  0  0  0  0  0
  -28.1321  -24.0662   25.5274 O   0  0  0  0  0  0  0  0  0  1  0  0
  -18.7602   -6.5948   26.1987 F   0  0  0  0  0  0  0  0  0  0  0  0
  -22.1303   -4.9639   23.3024 F   0  0  0  0  0  0  0  0  0  0  0  0
  1  2  1  0  0  0  0
  1  5  2  0  0  0  0
  2  6  2  0  0  0  0
  3  8  2  0  0  0  0
  3 18  1  0  0  0  0
  4  9  1  0  0  0  0
  4 18  2  0  0  0  0
  5 20  1  0  0  0  0
  6 22  1  0  0  0  0
  7 10  2  0  0  0  0
  7 21  1  0  0  0  0
  8 26  1  0  0  0  0
  9 26  2  0  0  0  0
 10 27  1  0  0  0  0
 11 12  2  0  0  0  0
 11 28  1  0  0  0  0
 12 30  1  0  0  0  0
 13 23  1  0  0  0  0
 13 27  2  0  0  0  0
 14 24  2  0  0  0  0
 14 25  1  0  0  0  0
 15 24  1  0  0  0  0
 15 29  2  0  0  0  0
 16 25  2  0  0  0  0
 16 29  1  0  0  0  0
 17 30  2  0  0  0  0
 17 31  1  0  0  0  0
 18 32  1  0  0  0  0
 19 32  1  0  0  0  0
 19 33  2  0  0  0  0
 19 34  1  0  0  0  0
 20 22  2  0  0  0  0
 20 39  1  0  0  0  0
 21 23  2  0  0  0  0
 21 40  1  0  0  0  0
 22 48  1  0  0  0  0
 23 41  1  0  0  0  0
 24 64  1  0  0  0  0
 25 72  1  0  0  0  0
 26 82  1  0  0  0  0
 27 84  1  0  0  0  0
 28 31  2  0  0  0  0
 28 82  1  0  0  0  0
 29 83  1  0  0  0  0
 30 85  1  0  0  0  0
 31 86  1  0  0  0  0
 32 66  2  0  0  0  0
 33 67  1  0  0  0  0
 33 70  1  0  0  0  0
 34 71  1  0  0  0  0
 34 77  2  0  0  0  0
 35 49  1  0  0  0  0
 35 73  1  0  0  0  0
 35 78  2  0  0  0  0
 36 62  1  0  0  0  0
 36 68  1  0  0  0  0
 36 79  2  0  0  0  0
 37 63  1  0  0  0  0
 37 74  1  0  0  0  0
 37 80  2  0  0  0  0
 38 69  1  0  0  0  0
 38 72  1  0  0  0  0
 38 81  2  0  0  0  0
 39 42  1  0  0  0  0
 40 49  1  0  0  0  0
 41 68  1  0  0  0  0
 42 44  1  0  0  0  0
 43 45  1  0  0  0  0
 43 46  1  0  0  0  0
 44 48  1  0  0  0  0
 45 50  1  0  0  0  0
 46 69  1  0  0  0  0
 47 50  1  0  0  0  0
 47 69  1  0  0  0  0
 48 73  1  0  0  0  0
 49 68  1  0  0  0  0
 50 67  1  0  0  0  0
 51 63  1  0  0  0  0
 52 64  1  0  0  0  0
 53 64  1  0  0  0  0
 54 64  1  0  0  0  0
 55 65  1  0  0  0  0
 56 65  1  0  0  0  0
 57 65  1  0  0  0  0
 58 76  1  0  0  0  0
 59 60  1  0  0  0  0
 59 61  1  0  0  0  0
 60 75  1  0  0  0  0
 61 83  1  0  0  0  0
 62 65  1  0  0  0  0
 62 74  1  0  0  0  0
 63 76  1  0  0  0  0
 66 67  1  0  0  0  0
 75 84  1  0  0  0  0
M  CHG  1  76   1
M  ISO  4  38 100  72 100  75 101  84 101
M  END
> <Batch ID>
0101

> <Smiles>
CNC(C)C(=O)NC(C(=O)N1Cc2cc([101O:1][101NH:1]CCCOc3cc([100NH:0][100C:0](=O)N4CCCC(n5nc(-c6ccc(Oc7ccc(F)cc7F)cc6)c(C(N)=O)c5N)C4)cc(C(C)(C)C)c3)ccc2CC1C(=O)NC1CCCc2ccccc21)C(C)(C)C

> <Shape>
0.256

> <Color>
0.204

> <Negative vol penalty>
0.000

$$$$

  -OEChem-04052319363D

 86 94  0     1  0  0  0  0  0999 V2000
  -28.0322  -11.8418   23.1735 C   0  0  0  0  0  0  0  0  0  0  0  0
  -28.4119  -13.1420   22.8562 C   0  0  0  0  0  0  0  0  0  0  0  0
  -22.8956  -30.5874   20.4368 C   0  0  0  0  0  0  0  0  0  0  0  0
  -22.9519  -29.2401   22.4414 C   0  0  0  0  0  0  0  0  0  0  0  0
  -26.9675  -11.2439   22.5005 C   0  0  0  0  0  0  0  0  0  0  0  0
  -27.7277  -13.8448   21.8650 C   0  0  0  0  0  0  0  0  0  0  0  0
  -26.6746  -18.6052   23.2339 C   0  0  0  0  0  0  0  0  0  0  0  0
  -21.6552  -31.1002   20.8162 C   0  0  0  0  0  0  0  0  0  0  0  0
  -21.7115  -29.7528   22.8209 C   0  0  0  0  0  0  0  0  0  0  0  0
  -27.7134  -19.5324   23.1641 C   0  0  0  0  0  0  0  0  0  0  0  0
  -18.3947  -30.4352   24.1412 C   0  0  0  0  0  0  0  0  0  0  0  0
  -17.4403  -29.5369   24.6184 C   0  0  0  0  0  0  0  0  0  0  0  0
  -26.8460  -20.3370   21.0618 C   0  0  0  0  0  0  0  0  0  0  0  0
  -32.2836  -22.7435   22.3729 C   0  0  0  0  0  0  0  0  0  0  0  0
  -17.5061  -28.3498   22.5151 C   0  0  0  0  0  0  0  0  0  0  0  0
  -23.5440  -29.6574   21.2493 C   0  0  0  0  0  0  0  0  0  0  0  0
  -26.0939  -29.6490   21.1731 C   0  0  0  0  0  0  0  0  0  0  0  0
  -26.2638  -11.9431   21.5073 C   0  0  0  0  0  0  0  0  0  0  0  0
  -25.7182  -18.5295   22.2111 C   0  0  0  0  0  0  0  0  0  0  0  0
  -26.6534  -13.2552   21.1772 C   0  0  0  0  0  0  0  0  0  0  0  0
  -25.7945  -19.4097   21.1223 C   0  0  0  0  0  0  0  0  0  0  0  0
  -33.3228  -22.7465   21.4425 C   0  0  0  0  0  0  0  0  0  0  0  0
  -31.0191  -23.2055   22.0077 C   0  0  0  0  0  0  0  0  0  0  0  0
  -33.0975  -23.2117   20.1469 C   0  0  0  0  0  0  0  0  0  0  0  0
  -31.8330  -23.6737   19.7817 C   0  0  0  0  0  0  0  0  0  0  0  0
  -30.7939  -23.6706   20.7122 C   0  0  0  0  0  0  0  0  0  0  0  0
  -21.0631  -30.6829   22.0082 C   0  0  0  0  0  0  0  0  0  0  0  0
  -27.8009  -20.3966   22.0766 C   0  0  0  0  0  0  0  0  0  0  0  0
  -18.9047  -30.2909   22.8509 C   0  0  0  0  0  0  0  0  0  0  0  0
  -16.9960  -28.4942   23.8054 C   0  0  0  0  0  0  0  0  0  0  0  0
  -18.4604  -29.2482   22.0379 C   0  0  0  0  0  0  0  0  0  0  0  0
  -24.8251  -29.1269   20.8576 C   0  0  0  0  0  0  0  0  0  0  0  0
  -26.9788  -28.7884   20.5709 C   0  0  0  0  0  0  0  0  0  0  0  0
  -26.4414  -30.8083   21.9420 C   0  0  0  0  0  0  0  0  0  0  0  0
  -24.8242  -16.2925   20.1373 C   0  0  0  0  0  0  0  0  0  0  0  0
  -22.5174  -18.4504   19.3993 C   0  0  0  0  0  0  0  0  0  0  0  0
  -21.5016  -21.7082   19.3658 C   0  0  0  0  0  0  0  0  0  0  0  0
  -28.6851  -23.6345   19.3345 C   0  0  0  0  0  0  0  0  0  0  0  0
  -25.1499  -11.2383   20.7743 C   0  0  0  0  0  0  0  0  0  0  0  0
  -24.5886  -17.5417   22.3144 C   0  0  0  0  0  0  0  0  0  0  0  0
  -24.7815  -19.3825   20.0081 C   0  0  0  0  0  0  0  0  0  0  0  0
  -24.2374  -12.1843   19.9981 C   0  0  0  0  0  0  0  0  0  0  0  0
  -26.1985  -25.0685   17.2279 C   0  0  0  0  0  0  0  0  0  0  0  0
  -25.0636  -13.1870   19.1990 C   0  0  0  0  0  0  0  0  0  0  0  0
  -25.7239  -26.2952   18.0104 C   0  0  0  0  0  0  0  0  0  0  0  0
  -26.5149  -23.8939   18.1520 C   0  0  0  0  0  0  0  0  0  0  0  0
  -26.9728  -25.4242   20.0275 C   0  0  0  0  0  0  0  0  0  0  0  0
  -25.9201  -14.0587   20.1253 C   0  0  1  0  0  0  0  0  0  0  0  0
  -23.9635  -17.2054   20.9640 C   0  0  1  0  0  0  0  0  0  0  0  0
  -26.7038  -26.6539   19.1447 C   0  0  2  0  0  0  0  0  0  0  0  0
  -34.2143  -23.2137   19.1515 C   0  0  0  0  0  0  0  0  0  0  0  0
  -31.5967  -24.1720   18.3900 C   0  0  0  0  0  0  0  0  0  0  0  0
  -19.5828  -23.1663   18.6661 C   0  0  0  0  0  0  0  0  0  0  0  0
  -36.0301  -18.6099   22.3423 C   0  0  0  0  0  0  0  0  0  0  0  0
  -37.2018  -20.5932   21.3656 C   0  0  0  0  0  0  0  0  0  0  0  0
  -23.3999  -18.2108   16.4883 C   0  0  0  0  0  0  0  0  0  0  0  0
  -22.1460  -20.3237   16.0070 C   0  0  0  0  0  0  0  0  0  0  0  0
  -20.9235  -18.3082   16.8230 C   0  0  0  0  0  0  0  0  0  0  0  0
  -21.0284  -22.6168   22.1424 C   0  0  0  0  0  0  0  0  0  0  0  0
  -34.6668  -22.2451   21.8587 C   0  0  0  0  0  0  0  0  0  0  0  0
  -29.9149  -23.1882   23.0367 C   0  0  0  0  0  0  0  0  0  0  0  0
  -34.7138  -20.7077   21.9182 C   0  0  0  0  0  0  0  0  0  0  0  0
  -29.3340  -21.7932   23.2405 C   0  0  0  0  0  0  0  0  0  1  0  0
  -22.3978  -19.5957   18.4232 C   0  0  1  0  0  0  0  0  0  0  0  0
  -20.2022  -22.3627   19.7990 C   0  0  2  0  0  0  0  0  0  0  0  0
  -36.0898  -20.1392   22.3122 C   0  0  0  0  0  0  0  0  0  0  0  0
  -22.2372  -19.1090   16.9552 C   0  0  0  0  0  0  0  0  0  0  0  0
  -24.8936  -28.0204   20.1126 N   0  0  0  0  0  0  0  0  0  0  0  0
  -26.2160  -27.8403   19.9549 N   0  0  0  0  0  0  0  0  0  0  0  0
  -23.6993  -18.3947   20.1516 N   0  0  0  0  0  0  0  0  0  0  0  0
  -27.4522  -24.3071   19.1988 N   0  0  0  0  0  0  0  0  0  0  0  0
  -28.3272  -28.7578   20.5133 N   0  0  0  0  0  0  0  0  0  0  0  0
  -25.4084  -31.5811   22.4896 N   0  0  0  0  0  0  0  0  0  0  0  0
  -29.5076  -24.1361   20.3426 N   0  0  0  0  0  0  0  0  0  0  0  0
  -25.1097  -15.0850   20.7454 N   0  0  0  0  0  0  0  0  0  0  0  0
  -21.2976  -20.4262   18.9011 N   0  0  0  0  0  0  0  0  0  0  0  0
  -20.4423  -23.2796   20.9490 N   0  3  0  0  0  0  0  0  0  0  0  0
  -27.6323  -31.1579   22.1238 O   0  0  0  0  0  0  0  0  0  0  0  0
  -25.2002  -16.6562   19.0291 O   0  0  0  0  0  0  0  0  0  0  0  0
  -21.5932  -17.6391   19.4959 O   0  0  0  0  0  0  0  0  0  0  0  0
  -22.5884  -22.2787   19.4295 O   0  0  0  0  0  0  0  0  0  0  0  0
  -29.0003  -22.7011   18.5919 O   0  0  0  0  0  0  0  0  0  0  0  0
  -19.8528  -31.1832   22.3789 O   0  0  0  0  0  0  0  0  0  0  0  0
  -28.8142  -21.3021   22.0056 O   0  0  0  0  0  0  0  0  0  1  0  0
  -16.0807  -27.6307   24.2643 F   0  0  0  0  0  0  0  0  0  0  0  0
  -18.9476  -29.1038   20.7979 F   0  0  0  0  0  0  0  0  0  0  0  0
  1  2  1  0  0  0  0
  1  5  2  0  0  0  0
  2  6  2  0  0  0  0
  3  8  2  0  0  0  0
  3 16  1  0  0  0  0
  4  9  1  0  0  0  0
  4 16  2  0  0  0  0
  5 18  1  0  0  0  0
  6 20  1  0  0  0  0
  7 10  2  0  0  0  0
  7 19  1  0  0  0  0
  8 27  1  0  0  0  0
  9 27  2  0  0  0  0
 10 28  1  0  0  0  0
 11 12  2  0  0  0  0
 11 29  1  0  0  0  0
 12 30  1  0  0  0  0
 13 21  1  0  0  0  0
 13 28  2  0  0  0  0
 14 22  2  0  0  0  0
 14 23  1  0  0  0  0
 15 30  2  0  0  0  0
 15 31  1  0  0  0  0
 16 32  1  0  0  0  0
 17 32  1  0  0  0  0
 17 33  2  0  0  0  0
 17 34  1  0  0  0  0
 18 20  2  0  0  0  0
 18 39  1  0  0  0  0
 19 21  2  0  0  0  0
 19 40  1  0  0  0  0
 20 48  1  0  0  0  0
 21 41  1  0  0  0  0
 22 24  1  0  0  0  0
 22 60  1  0  0  0  0
 23 26  2  0  0  0  0
 23 61  1  0  0  0  0
 24 25  2  0  0  0  0
 24 51  1  0  0  0  0
 25 26  1  0  0  0  0
 25 52  1  0  0  0  0
 26 74  1  0  0  0  0
 27 83  1  0  0  0  0
 28 84  1  0  0  0  0
 29 31  2  0  0  0  0
 29 83  1  0  0  0  0
 30 85  1  0  0  0  0
 31 86  1  0  0  0  0
 32 68  2  0  0  0  0
 33 69  1  0  0  0  0
 33 72  1  0  0  0  0
 34 73  1  0  0  0  0
 34 78  2  0  0  0  0
 35 49  1  0  0  0  0
 35 75  1  0  0  0  0
 35 79  2  0  0  0  0
 36 64  1  0  0  0  0
 36 70  1  0  0  0  0
 36 80  2  0  0  0  0
 37 65  1  0  0  0  0
 37 76  1  0  0  0  0
 37 81  2  0  0  0  0
 38 71  1  0  0  0  0
 38 74  1  0  0  0  0
 38 82  2  0  0  0  0
 39 42  1  0  0  0  0
 40 49  1  0  0  0  0
 41 70  1  0  0  0  0
 42 44  1  0  0  0  0
 43 45  1  0  0  0  0
 43 46  1  0  0  0  0
 44 48  1  0  0  0  0
 45 50  1  0  0  0  0
 46 71  1  0  0  0  0
 47 50  1  0  0  0  0
 47 71  1  0  0  0  0
 48 75  1  0  0  0  0
 49 70  1  0  0  0  0
 50 69  1  0  0  0  0
 53 65  1  0  0  0  0
 54 66  1  0  0  0  0
 55 66  1  0  0  0  0
 56 67  1  0  0  0  0
 57 67  1  0  0  0  0
 58 67  1  0  0  0  0
 59 77  1  0  0  0  0
 60 62  1  0  0  0  0
 61 63  1  0  0  0  0
 62 66  1  0  0  0  0
 63 84  1  0  0  0  0
 64 67  1  0  0  0  0
 64 76  1  0  0  0  0
 65 77  1  0  0  0  0
 68 69  1  0  0  0  0
M  CHG  1  77   1
M  ISO  4  38 100  63 101  74 100  84 101
M  END
> <Batch ID>
0101

> <Smiles>
CNC(C)C(=O)NC(C(=O)N1Cc2cc([101O:1][101CH2:1]Cc3cc(CCC(C)C)c(C)c(C)c3[100NH:0][100C:0](=O)N3CCCC(n4nc(-c5ccc(Oc6ccc(F)cc6F)cc5)c(C(N)=O)c4N)C3)ccc2CC1C(=O)NC1CCCc2ccccc21)C(C)(C)C

> <Shape>
0.196

> <Color>
0.084

> <Negative vol penalty>
0.000

$$$$

  -OEChem-04052319363D

 85 93  0     1  0  0  0  0  0999 V2000
  -23.8701  -23.8255   18.9486 C   0  0  0  0  0  0  0  0  0  0  0  0
  -24.9398  -23.0246   19.3354 C   0  0  0  0  0  0  0  0  0  0  0  0
  -21.0916  -26.7787   20.5433 C   0  0  0  0  0  0  0  0  0  0  0  0
  -22.0272  -26.1816   22.6893 C   0  0  0  0  0  0  0  0  0  0  0  0
  -22.5686  -23.4619   19.2919 C   0  0  0  0  0  0  0  0  0  0  0  0
  -24.7087  -21.8600   20.0667 C   0  0  0  0  0  0  0  0  0  0  0  0
  -27.3885  -17.9222   18.3472 C   0  0  0  0  0  0  0  0  0  0  0  0
  -19.9398  -26.0513   20.8431 C   0  0  0  0  0  0  0  0  0  0  0  0
  -20.8753  -25.4542   22.9891 C   0  0  0  0  0  0  0  0  0  0  0  0
  -28.7365  -17.8670   18.6990 C   0  0  0  0  0  0  0  0  0  0  0  0
  -16.6038  -24.6496   21.1911 C   0  0  0  0  0  0  0  0  0  0  0  0
  -15.3721  -25.2397   20.9079 C   0  0  0  0  0  0  0  0  0  0  0  0
  -28.2117  -16.2775   20.4361 C   0  0  0  0  0  0  0  0  0  0  0  0
  -30.3651  -22.8837   23.4364 C   0  0  0  0  0  0  0  0  0  0  0  0
  -15.9027  -27.0634   22.4011 C   0  0  0  0  0  0  0  0  0  0  0  0
  -31.1569  -22.7599   21.1972 C   0  0  0  0  0  0  0  0  0  0  0  0
  -22.1354  -26.8438   21.4665 C   0  0  0  0  0  0  0  0  0  0  0  0
  -23.5681  -28.9541   21.4301 C   0  0  0  0  0  0  0  0  0  0  0  0
  -22.3206  -22.2872   20.0194 C   0  0  0  0  0  0  0  0  0  0  0  0
  -26.4390  -17.1624   19.0454 C   0  0  0  0  0  0  0  0  0  0  0  0
  -23.4027  -21.4810   20.4212 C   0  0  0  0  0  0  0  0  0  0  0  0
  -26.8527  -16.3229   20.0895 C   0  0  0  0  0  0  0  0  0  0  0  0
  -30.7120  -23.5335   22.2571 C   0  0  0  0  0  0  0  0  0  0  0  0
  -30.4722  -21.4999   23.5186 C   0  0  0  0  0  0  0  0  0  0  0  0
  -19.8316  -25.3891   22.0659 C   0  0  0  0  0  0  0  0  0  0  0  0
  -29.1479  -17.0468   19.7455 C   0  0  0  0  0  0  0  0  0  0  0  0
  -17.4849  -25.2663   22.0793 C   0  0  0  0  0  0  0  0  0  0  0  0
  -15.0215  -26.4467   21.5129 C   0  0  0  0  0  0  0  0  0  0  0  0
  -17.1344  -26.4732   22.6843 C   0  0  0  0  0  0  0  0  0  0  0  0
  -23.3257  -27.5945   21.1572 C   0  0  0  0  0  0  0  0  0  0  0  0
  -30.9278  -20.8173   22.4022 C   0  0  0  0  0  0  0  0  0  0  0  0
  -24.8321  -29.1819   20.9434 C   0  0  0  0  0  0  0  0  0  0  0  0
  -22.7260  -29.9244   22.0666 C   0  0  0  0  0  0  0  0  0  0  0  0
  -23.8849  -17.8386   20.8127 C   0  0  0  0  0  0  0  0  0  0  0  0
  -23.5027  -14.6175   20.7944 C   0  0  0  0  0  0  0  0  0  0  0  0
  -24.9241  -11.5331   20.4583 C   0  0  0  0  0  0  0  0  0  0  0  0
  -29.5365  -25.6053   19.9802 C   0  0  0  0  0  0  0  0  0  0  0  0
  -20.9005  -21.9601   20.4080 C   0  0  0  0  0  0  0  0  0  0  0  0
  -24.9925  -17.2127   18.6361 C   0  0  0  0  0  0  0  0  0  0  0  0
  -25.8757  -15.4719   20.8574 C   0  0  0  0  0  0  0  0  0  0  0  0
  -20.7106  -20.5150   20.8616 C   0  0  0  0  0  0  0  0  0  0  0  0
  -27.8832  -27.6590   17.5874 C   0  0  0  0  0  0  0  0  0  0  0  0
  -21.8052  -20.1164   21.8464 C   0  0  0  0  0  0  0  0  0  0  0  0
  -26.5495  -27.9980   18.2556 C   0  0  0  0  0  0  0  0  0  0  0  0
  -28.3302  -26.2349   17.9102 C   0  0  0  0  0  0  0  0  0  0  0  0
  -27.0514  -26.2531   20.0169 C   0  0  0  0  0  0  0  0  0  0  0  0
  -23.1905  -20.1973   21.1939 C   0  0  1  0  0  0  0  0  0  0  0  0
  -24.0411  -16.7876   19.7504 C   0  0  1  0  0  0  0  0  0  0  0  0
  -26.5870  -27.6980   19.7662 C   0  0  2  0  0  0  0  0  0  0  0  0
  -28.6162  -20.9747   25.1413 C   0  0  0  0  0  0  0  0  0  0  0  0
  -30.9860  -21.2071   25.9690 C   0  0  0  0  0  0  0  0  0  0  0  0
  -24.3651   -9.0878   20.5322 C   0  0  0  0  0  0  0  0  0  0  0  0
  -23.3785  -14.7404   23.8406 C   0  0  0  0  0  0  0  0  0  0  0  0
  -23.7773  -12.2691   23.8871 C   0  0  0  0  0  0  0  0  0  0  0  0
  -21.7296  -13.1800   22.7915 C   0  0  0  0  0  0  0  0  0  0  0  0
  -25.7585  -11.1387   17.6463 C   0  0  0  0  0  0  0  0  0  0  0  0
  -30.6099  -25.0124   22.1379 C   0  0  0  0  0  0  0  0  0  0  0  0
  -32.0875  -17.3670   21.8354 C   0  0  0  0  0  0  0  0  0  0  0  0
  -30.7636  -16.7201   21.4597 C   0  0  0  0  0  0  0  0  0  1  0  0
  -32.0621  -18.8739   21.6327 C   0  0  0  0  0  0  0  0  0  0  0  0
  -30.1025  -20.7927   24.7760 C   0  0  0  0  0  0  0  0  0  0  0  0
  -23.9744  -13.4799   21.6676 C   0  0  1  0  0  0  0  0  0  0  0  0
  -24.5120  -10.3169   19.6487 C   0  0  2  0  0  0  0  0  0  0  0  0
  -23.2333  -13.4347   23.0337 C   0  0  0  0  0  0  0  0  0  0  0  0
  -31.2742  -21.4138   21.2395 N   0  0  0  0  0  0  0  0  0  0  0  0
  -24.3531  -27.0004   20.5445 N   0  0  0  0  0  0  0  0  0  0  0  0
  -25.2534  -27.9914   20.4283 N   0  0  0  0  0  0  0  0  0  0  0  0
  -24.4716  -15.5606   20.4236 N   0  0  0  0  0  0  0  0  0  0  0  0
  -28.3457  -26.0161   19.3586 N   0  0  0  0  0  0  0  0  0  0  0  0
  -25.6131  -30.2825   20.9099 N   0  0  0  0  0  0  0  0  0  0  0  0
  -21.4577  -29.5221   22.5068 N   0  0  0  0  0  0  0  0  0  0  0  0
  -23.4154  -19.0497   20.3413 N   0  0  0  0  0  0  0  0  0  0  0  0
  -23.8316  -12.2667   20.8699 N   0  0  0  0  0  0  0  0  0  0  0  0
  -29.4661  -25.4269   21.3564 N   0  0  0  0  0  0  0  0  0  0  0  0
  -25.5298  -10.0232   18.6005 N   0  3  0  0  0  0  0  0  0  0  0  0
  -23.0812  -31.1169   22.2252 O   0  0  0  0  0  0  0  0  0  0  0  0
  -24.1680  -17.5702   21.9744 O   0  0  0  0  0  0  0  0  0  0  0  0
  -22.3196  -14.6635   20.4480 O   0  0  0  0  0  0  0  0  0  0  0  0
  -26.0976  -11.8031   20.7043 O   0  0  0  0  0  0  0  0  0  0  0  0
  -30.5861  -25.4170   19.3558 O   0  0  0  0  0  0  0  0  0  0  0  0
  -18.7077  -24.6795   22.3588 O   0  0  0  0  0  0  0  0  0  0  0  0
  -30.4628  -16.9916   20.0915 O   0  0  0  0  0  0  0  0  0  1  0  0
  -31.0486  -19.4527   22.4437 O   0  0  0  0  0  0  0  0  0  0  0  0
  -13.8393  -27.0141   21.2397 F   0  0  0  0  0  0  0  0  0  0  0  0
  -17.9772  -27.0710   23.5376 F   0  0  0  0  0  0  0  0  0  0  0  0
  1  2  1  0  0  0  0
  1  5  2  0  0  0  0
  2  6  2  0  0  0  0
  3  8  2  0  0  0  0
  3 17  1  0  0  0  0
  4  9  1  0  0  0  0
  4 17  2  0  0  0  0
  5 19  1  0  0  0  0
  6 21  1  0  0  0  0
  7 10  2  0  0  0  0
  7 20  1  0  0  0  0
  8 25  1  0  0  0  0
  9 25  2  0  0  0  0
 10 26  1  0  0  0  0
 11 12  2  0  0  0  0
 11 27  1  0  0  0  0
 12 28  1  0  0  0  0
 13 22  1  0  0  0  0
 13 26  2  0  0  0  0
 14 23  2  0  0  0  0
 14 24  1  0  0  0  0
 15 28  2  0  0  0  0
 15 29  1  0  0  0  0
 16 23  1  0  0  0  0
 16 65  2  0  0  0  0
 17 30  1  0  0  0  0
 18 30  1  0  0  0  0
 18 32  2  0  0  0  0
 18 33  1  0  0  0  0
 19 21  2  0  0  0  0
 19 38  1  0  0  0  0
 20 22  2  0  0  0  0
 20 39  1  0  0  0  0
 21 47  1  0  0  0  0
 22 40  1  0  0  0  0
 23 57  1  0  0  0  0
 24 31  2  0  0  0  0
 24 61  1  0  0  0  0
 25 81  1  0  0  0  0
 26 82  1  0  0  0  0
 27 29  2  0  0  0  0
 27 81  1  0  0  0  0
 28 84  1  0  0  0  0
 29 85  1  0  0  0  0
 30 66  2  0  0  0  0
 31 65  1  0  0  0  0
 31 83  1  0  0  0  0
 32 67  1  0  0  0  0
 32 70  1  0  0  0  0
 33 71  1  0  0  0  0
 33 76  2  0  0  0  0
 34 48  1  0  0  0  0
 34 72  1  0  0  0  0
 34 77  2  0  0  0  0
 35 62  1  0  0  0  0
 35 68  1  0  0  0  0
 35 78  2  0  0  0  0
 36 63  1  0  0  0  0
 36 73  1  0  0  0  0
 36 79  2  0  0  0  0
 37 69  1  0  0  0  0
 37 74  1  0  0  0  0
 37 80  2  0  0  0  0
 38 41  1  0  0  0  0
 39 48  1  0  0  0  0
 40 68  1  0  0  0  0
 41 43  1  0  0  0  0
 42 44  1  0  0  0  0
 42 45  1  0  0  0  0
 43 47  1  0  0  0  0
 44 49  1  0  0  0  0
 45 69  1  0  0  0  0
 46 49  1  0  0  0  0
 46 69  1  0  0  0  0
 47 72  1  0  0  0  0
 48 68  1  0  0  0  0
 49 67  1  0  0  0  0
 50 61  1  0  0  0  0
 51 61  1  0  0  0  0
 52 63  1  0  0  0  0
 53 64  1  0  0  0  0
 54 64  1  0  0  0  0
 55 64  1  0  0  0  0
 56 75  1  0  0  0  0
 57 74  1  0  0  0  0
 58 59  1  0  0  0  0
 58 60  1  0  0  0  0
 59 82  1  0  0  0  0
 60 83  1  0  0  0  0
 62 64  1  0  0  0  0
 62 73  1  0  0  0  0
 63 75  1  0  0  0  0
 66 67  1  0  0  0  0
M  CHG  1  75   1
M  ISO  4  37 100  59 101  74 100  82 101
M  END
> <Batch ID>
0101

> <Smiles>
CNC(C)C(=O)NC(C(=O)N1Cc2cc([101O:1][101CH2:1]CCOc3ncc(C[100NH:0][100C:0](=O)N4CCCC(n5nc(-c6ccc(Oc7ccc(F)cc7F)cc6)c(C(N)=O)c5N)C4)cc3C(C)C)ccc2CC1C(=O)NC1CCCc2ccccc21)C(C)(C)C

> <Shape>
0.204

> <Color>
0.085

> <Negative vol penalty>
0.000

$$$$

  -OEChem-04052319363D

 87 95  0     1  0  0  0  0  0999 V2000
  -31.9488  -27.0000   14.3514 C   0  0  0  0  0  0  0  0  0  0  0  0
  -31.0646  -26.0670   14.8834 C   0  0  0  0  0  0  0  0  0  0  0  0
  -23.1922  -12.4486   21.1902 C   0  0  0  0  0  0  0  0  0  0  0  0
  -23.7358  -13.7036   23.1818 C   0  0  0  0  0  0  0  0  0  0  0  0
  -32.3853  -28.0694   15.1324 C   0  0  0  0  0  0  0  0  0  0  0  0
  -30.6172  -26.2021   16.1971 C   0  0  0  0  0  0  0  0  0  0  0  0
  -25.0828  -24.7351   18.3708 C   0  0  0  0  0  0  0  0  0  0  0  0
  -22.8461  -11.3500   21.9769 C   0  0  0  0  0  0  0  0  0  0  0  0
  -23.3896  -12.6050   23.9685 C   0  0  0  0  0  0  0  0  0  0  0  0
  -24.6100  -23.6156   19.0541 C   0  0  0  0  0  0  0  0  0  0  0  0
  -21.4759   -8.3361   23.4782 C   0  0  0  0  0  0  0  0  0  0  0  0
  -20.2966   -7.6602   23.1654 C   0  0  0  0  0  0  0  0  0  0  0  0
  -24.9270  -24.7681   21.1494 C   0  0  0  0  0  0  0  0  0  0  0  0
  -27.4752  -21.6248   21.4412 C   0  0  0  0  0  0  0  0  0  0  0  0
  -29.4575  -20.3936   20.8156 C   0  0  0  0  0  0  0  0  0  0  0  0
  -27.6342  -19.2635   21.9271 C   0  0  0  0  0  0  0  0  0  0  0  0
  -19.0353   -9.6856   23.5448 C   0  0  0  0  0  0  0  0  0  0  0  0
  -23.6371  -13.6254   21.7926 C   0  0  0  0  0  0  0  0  0  0  0  0
  -23.1495  -15.8021   20.5551 C   0  0  0  0  0  0  0  0  0  0  0  0
  -31.9354  -28.2230   16.4533 C   0  0  0  0  0  0  0  0  0  0  0  0
  -25.4923  -25.8775   19.0735 C   0  0  0  0  0  0  0  0  0  0  0  0
  -31.0491  -27.2737   16.9970 C   0  0  0  0  0  0  0  0  0  0  0  0
  -25.4023  -25.9017   20.4726 C   0  0  0  0  0  0  0  0  0  0  0  0
  -28.7438  -21.5911   20.8622 C   0  0  0  0  0  0  0  0  0  0  0  0
  -26.9204  -20.4610   21.9737 C   0  0  0  0  0  0  0  0  0  0  0  0
  -28.9027  -19.2298   21.3481 C   0  0  0  0  0  0  0  0  0  0  0  0
  -22.9448  -11.4282   23.3660 C   0  0  0  0  0  0  0  0  0  0  0  0
  -24.5347  -23.6309   20.4437 C   0  0  0  0  0  0  0  0  0  0  0  0
  -21.4350   -9.6867   23.8245 C   0  0  0  0  0  0  0  0  0  0  0  0
  -19.0762   -8.3350   23.1987 C   0  0  0  0  0  0  0  0  0  0  0  0
  -20.2147  -10.3615   23.8577 C   0  0  0  0  0  0  0  0  0  0  0  0
  -23.9954  -14.7603   20.9805 C   0  0  0  0  0  0  0  0  0  0  0  0
  -23.9634  -16.6249   19.8155 C   0  0  0  0  0  0  0  0  0  0  0  0
  -21.7530  -16.0078   20.8062 C   0  0  0  0  0  0  0  0  0  0  0  0
  -28.2315  -27.4606   19.3801 C   0  0  0  0  0  0  0  0  0  0  0  0
  -29.9084  -17.4996   19.8793 C   0  0  0  0  0  0  0  0  0  0  0  0
  -26.3854  -29.5554   21.0312 C   0  0  0  0  0  0  0  0  0  0  0  0
  -23.5576  -30.1083   22.8601 C   0  0  0  0  0  0  0  0  0  0  0  0
  -32.4719  -29.3689   17.2742 C   0  0  0  0  0  0  0  0  0  0  0  0
  -25.9748  -27.0867   18.3202 C   0  0  0  0  0  0  0  0  0  0  0  0
  -25.8103  -27.1108   21.2726 C   0  0  0  0  0  0  0  0  0  0  0  0
  -31.6584  -29.6480   18.5354 C   0  0  0  0  0  0  0  0  0  0  0  0
  -27.8792  -16.5565   17.0805 C   0  0  0  0  0  0  0  0  0  0  0  0
  -31.3593  -28.3485   19.2761 C   0  0  0  0  0  0  0  0  0  0  0  0
  -26.5873  -16.0571   17.7259 C   0  0  0  0  0  0  0  0  0  0  0  0
  -29.0979  -16.2112   17.9306 C   0  0  0  0  0  0  0  0  0  0  0  0
  -27.7227  -16.2025   19.9875 C   0  0  0  0  0  0  0  0  0  0  0  0
  -30.5219  -27.3999   18.4099 C   0  0  1  0  0  0  0  0  0  0  0  0
  -26.8487  -28.0079   19.1657 C   0  0  1  0  0  0  0  0  0  0  0  0
  -26.4643  -16.5577   19.1760 C   0  0  2  0  0  0  0  0  0  0  0  0
  -31.0086  -18.0136   22.0397 C   0  0  0  0  0  0  0  0  0  0  0  0
  -22.3400  -31.9134   24.1076 C   0  0  0  0  0  0  0  0  0  0  0  0
  -28.3809  -29.3116   23.3266 C   0  0  0  0  0  0  0  0  0  0  0  0
  -26.6663  -30.3394   24.8340 C   0  0  0  0  0  0  0  0  0  0  0  0
  -27.5610  -31.6354   22.8994 C   0  0  0  0  0  0  0  0  0  0  0  0
  -21.1908  -29.8913   21.0965 C   0  0  0  0  0  0  0  0  0  0  0  0
  -29.6240  -21.2677   15.4736 C   0  0  0  0  0  0  0  0  0  0  0  0
  -27.6802  -22.6224   16.2400 C   0  0  0  0  0  0  0  0  0  0  0  0
  -29.3363  -22.8357   20.2927 C   0  0  0  0  0  0  0  0  0  0  0  0
  -25.5490  -20.4968   22.5994 C   0  0  0  0  0  0  0  0  0  0  0  0
  -29.0131  -23.0726   18.8046 C   0  0  0  0  0  0  0  0  0  0  0  0
  -24.4140  -20.2172   21.6119 C   0  0  0  0  0  0  0  0  0  0  0  0
  -29.4500  -21.9568   17.8604 C   0  0  0  0  0  0  0  0  0  0  0  0
  -24.2995  -21.2653   20.5111 C   0  0  0  0  0  0  0  0  0  1  0  0
  -29.6663  -17.9495   21.2981 C   0  0  1  0  0  0  0  0  0  0  0  0
  -25.9762  -29.7116   22.4759 C   0  0  1  0  0  0  0  0  0  0  0  0
  -22.5007  -31.1947   22.7770 C   0  0  2  0  0  0  0  0  0  0  0  0
  -27.1402  -30.2259   23.3693 C   0  0  0  0  0  0  0  0  0  0  0  0
  -25.2504  -14.9055   20.5470 N   0  0  0  0  0  0  0  0  0  0  0  0
  -25.1991  -16.0482   19.8415 N   0  0  0  0  0  0  0  0  0  0  0  0
  -26.2814  -28.2659   20.4908 N   0  0  0  0  0  0  0  0  0  0  0  0
  -28.9326  -16.6839   19.3063 N   0  0  0  0  0  0  0  0  0  0  0  0
  -23.7355  -17.7782   19.1518 N   0  0  0  0  0  0  0  0  0  0  0  0
  -21.0684  -15.0655   21.5859 N   0  0  0  0  0  0  0  0  0  0  0  0
  -29.1361  -27.8169   18.3981 N   0  0  0  0  0  0  0  0  0  0  0  0
  -24.7980  -30.5720   22.4757 N   0  0  0  0  0  0  0  0  0  0  0  0
  -21.1841  -30.6087   22.3974 N   0  3  0  0  0  0  0  0  0  0  0  0
  -29.1416  -22.3090   16.4548 N   0  3  0  0  0  0  0  0  0  0  0  0
  -21.1268  -16.9892   20.3389 O   0  0  0  0  0  0  0  0  0  0  0  0
  -28.4611  -26.7677   20.3644 O   0  0  0  0  0  0  0  0  0  0  0  0
  -30.9333  -17.8658   19.2982 O   0  0  0  0  0  0  0  0  0  0  0  0
  -26.7761  -30.5427   20.4032 O   0  0  0  0  0  0  0  0  0  0  0  0
  -23.3086  -28.9638   23.2325 O   0  0  0  0  0  0  0  0  0  0  0  0
  -22.6069  -10.3565   24.1340 O   0  0  0  0  0  0  0  0  0  0  0  0
  -24.0742  -22.5393   21.1132 O   0  0  0  0  0  0  0  0  0  1  0  0
  -17.9439   -7.6862   22.8967 F   0  0  0  0  0  0  0  0  0  0  0  0
  -20.1692  -11.6593   24.1884 F   0  0  0  0  0  0  0  0  0  0  0  0
  1  2  1  0  0  0  0
  1  5  2  0  0  0  0
  2  6  2  0  0  0  0
  3  8  2  0  0  0  0
  3 18  1  0  0  0  0
  4  9  1  0  0  0  0
  4 18  2  0  0  0  0
  5 20  1  0  0  0  0
  6 22  1  0  0  0  0
  7 10  2  0  0  0  0
  7 21  1  0  0  0  0
  8 27  1  0  0  0  0
  9 27  2  0  0  0  0
 10 28  1  0  0  0  0
 11 12  2  0  0  0  0
 11 29  1  0  0  0  0
 12 30  1  0  0  0  0
 13 23  1  0  0  0  0
 13 28  2  0  0  0  0
 14 24  2  0  0  0  0
 14 25  1  0  0  0  0
 15 24  1  0  0  0  0
 15 26  2  0  0  0  0
 16 25  2  0  0  0  0
 16 26  1  0  0  0  0
 17 30  2  0  0  0  0
 17 31  1  0  0  0  0
 18 32  1  0  0  0  0
 19 32  1  0  0  0  0
 19 33  2  0  0  0  0
 19 34  1  0  0  0  0
 20 22  2  0  0  0  0
 20 39  1  0  0  0  0
 21 23  2  0  0  0  0
 21 40  1  0  0  0  0
 22 48  1  0  0  0  0
 23 41  1  0  0  0  0
 24 59  1  0  0  0  0
 25 60  1  0  0  0  0
 26 65  1  0  0  0  0
 27 84  1  0  0  0  0
 28 85  1  0  0  0  0
 29 31  2  0  0  0  0
 29 84  1  0  0  0  0
 30 86  1  0  0  0  0
 31 87  1  0  0  0  0
 32 69  2  0  0  0  0
 33 70  1  0  0  0  0
 33 73  1  0  0  0  0
 34 74  1  0  0  0  0
 34 79  2  0  0  0  0
 35 49  1  0  0  0  0
 35 75  1  0  0  0  0
 35 80  2  0  0  0  0
 36 65  1  0  0  0  0
 36 72  1  0  0  0  0
 36 81  2  0  0  0  0
 37 66  1  0  0  0  0
 37 71  1  0  0  0  0
 37 82  2  0  0  0  0
 38 67  1  0  0  0  0
 38 76  1  0  0  0  0
 38 83  2  0  0  0  0
 39 42  1  0  0  0  0
 40 49  1  0  0  0  0
 41 71  1  0  0  0  0
 42 44  1  0  0  0  0
 43 45  1  0  0  0  0
 43 46  1  0  0  0  0
 44 48  1  0  0  0  0
 45 50  1  0  0  0  0
 46 72  1  0  0  0  0
 47 50  1  0  0  0  0
 47 72  1  0  0  0  0
 48 75  1  0  0  0  0
 49 71  1  0  0  0  0
 50 70  1  0  0  0  0
 51 65  1  0  0  0  0
 52 67  1  0  0  0  0
 53 68  1  0  0  0  0
 54 68  1  0  0  0  0
 55 68  1  0  0  0  0
 56 77  1  0  0  0  0
 57 78  1  0  0  0  0
 58 78  1  0  0  0  0
 59 61  1  0  0  0  0
 60 62  1  0  0  0  0
 61 63  1  0  0  0  0
 62 64  1  0  0  0  0
 63 78  1  0  0  0  0
 64 85  1  0  0  0  0
 66 68  1  0  0  0  0
 66 76  1  0  0  0  0
 67 77  1  0  0  0  0
 69 70  1  0  0  0  0
M  CHG  2  77   1  78   1
M  ISO  4  36 100  64 101  65 100  85 101
M  END
> <Batch ID>
0101

> <Smiles>
CNC(C)C(=O)NC(C(=O)N1Cc2cc([101O:1][101CH2:1]CCc3cc(CCCN(C)C)cc([100CH:0](C)[100C:0](=O)N4CCCC(n5nc(-c6ccc(Oc7ccc(F)cc7F)cc6)c(C(N)=O)c5N)C4)c3)ccc2CC1C(=O)NC1CCCc2ccccc21)C(C)(C)C

> <Shape>
0.211

> <Color>
0.068

> <Negative vol penalty>
0.000

$$$$

  -OEChem-04052319363D

 84 92  0     1  0  0  0  0  0999 V2000
  -32.8461  -11.6550   17.6677 C   0  0  0  0  0  0  0  0  0  0  0  0
  -32.0958  -12.8215   17.7768 C   0  0  0  0  0  0  0  0  0  0  0  0
  -25.1787  -29.1025   22.1585 C   0  0  0  0  0  0  0  0  0  0  0  0
  -24.6444  -30.7051   20.4313 C   0  0  0  0  0  0  0  0  0  0  0  0
  -32.2042  -10.4250   17.5295 C   0  0  0  0  0  0  0  0  0  0  0  0
  -30.7031  -12.7587   17.7466 C   0  0  0  0  0  0  0  0  0  0  0  0
  -28.5510  -15.6318   21.3185 C   0  0  0  0  0  0  0  0  0  0  0  0
  -24.6017  -29.9394   23.1136 C   0  0  0  0  0  0  0  0  0  0  0  0
  -24.0674  -31.5421   21.3865 C   0  0  0  0  0  0  0  0  0  0  0  0
  -28.4872  -17.0038   21.0792 C   0  0  0  0  0  0  0  0  0  0  0  0
  -25.1154  -33.7425   23.7297 C   0  0  0  0  0  0  0  0  0  0  0  0
  -25.4268  -35.1010   23.6739 C   0  0  0  0  0  0  0  0  0  0  0  0
  -26.1840  -16.7721   20.4002 C   0  0  0  0  0  0  0  0  0  0  0  0
  -28.9484  -22.4821   16.8003 C   0  0  0  0  0  0  0  0  0  0  0  0
  -23.0886  -35.6244   23.3648 C   0  0  0  0  0  0  0  0  0  0  0  0
  -25.2001  -29.4854   20.8173 C   0  0  0  0  0  0  0  0  0  0  0  0
  -25.1575  -27.6097   19.0888 C   0  0  0  0  0  0  0  0  0  0  0  0
  -30.8028  -10.3462   17.5073 C   0  0  0  0  0  0  0  0  0  0  0  0
  -27.4332  -14.8166   21.0897 C   0  0  0  0  0  0  0  0  0  0  0  0
  -30.0419  -11.5267   17.6066 C   0  0  0  0  0  0  0  0  0  0  0  0
  -26.2355  -15.3904   20.6399 C   0  0  0  0  0  0  0  0  0  0  0  0
  -29.7019  -23.6442   16.6762 C   0  0  0  0  0  0  0  0  0  0  0  0
  -29.0436  -21.7188   17.9586 C   0  0  0  0  0  0  0  0  0  0  0  0
  -24.0460  -31.1592   22.7276 C   0  0  0  0  0  0  0  0  0  0  0  0
  -27.3045  -17.5737   20.6172 C   0  0  0  0  0  0  0  0  0  0  0  0
  -23.7905  -33.3250   23.6029 C   0  0  0  0  0  0  0  0  0  0  0  0
  -24.4135  -36.0420   23.4915 C   0  0  0  0  0  0  0  0  0  0  0  0
  -22.7771  -34.2659   23.4206 C   0  0  0  0  0  0  0  0  0  0  0  0
  -25.7964  -28.6215   19.8303 C   0  0  0  0  0  0  0  0  0  0  0  0
  -30.5288  -23.9966   17.7307 C   0  0  0  0  0  0  0  0  0  0  0  0
  -29.8999  -22.1574   18.9557 C   0  0  0  0  0  0  0  0  0  0  0  0
  -26.1494  -27.0869   18.2956 C   0  0  0  0  0  0  0  0  0  0  0  0
  -23.7896  -27.1809   19.1146 C   0  0  0  0  0  0  0  0  0  0  0  0
  -31.3554  -25.2093   17.6769 C   0  0  0  0  0  0  0  0  0  0  0  0
  -26.7988  -12.3681   19.1645 C   0  0  0  0  0  0  0  0  0  0  0  0
  -24.0193  -12.2793   20.8344 C   0  0  0  0  0  0  0  0  0  0  0  0
  -21.7360  -13.9416   22.7502 C   0  0  0  0  0  0  0  0  0  0  0  0
  -30.1546   -8.9989   17.3085 C   0  0  0  0  0  0  0  0  0  0  0  0
  -27.5103  -13.3424   21.3782 C   0  0  0  0  0  0  0  0  0  0  0  0
  -25.0011  -14.5621   20.3979 C   0  0  0  0  0  0  0  0  0  0  0  0
  -28.6697   -8.9794   17.6619 C   0  0  0  0  0  0  0  0  0  0  0  0
  -30.8403  -28.7268   17.3557 C   0  0  0  0  0  0  0  0  0  0  0  0
  -27.9599  -10.1839   17.0519 C   0  0  0  0  0  0  0  0  0  0  0  0
  -29.4370  -28.9361   17.9276 C   0  0  0  0  0  0  0  0  0  0  0  0
  -31.5964  -27.6319   18.1040 C   0  0  0  0  0  0  0  0  0  0  0  0
  -29.4756  -26.5473   18.7600 C   0  0  0  0  0  0  0  0  0  0  0  0
  -28.5289  -11.4969   17.6029 C   0  0  1  0  0  0  0  0  0  0  0  0
  -26.4649  -12.5298   20.6206 C   0  0  1  0  0  0  0  0  0  0  0  0
  -28.6609  -27.6077   18.0012 C   0  0  1  0  0  0  0  0  0  0  0  0
  -29.6040  -24.4652   15.4365 C   0  0  0  0  0  0  0  0  0  0  0  0
  -30.0425  -21.3773   20.2215 C   0  0  0  0  0  0  0  0  0  0  0  0
  -23.4933  -21.9974   17.1763 C   0  0  0  0  0  0  0  0  0  0  0  0
  -19.5487  -13.6148   23.9361 C   0  0  0  0  0  0  0  0  0  0  0  0
  -22.5545  -12.3991   18.1604 C   0  0  0  0  0  0  0  0  0  0  0  0
  -20.4747  -13.0228   19.4068 C   0  0  0  0  0  0  0  0  0  0  0  0
  -21.5622  -10.8168   19.8235 C   0  0  0  0  0  0  0  0  0  0  0  0
  -22.9359  -14.5709   25.3815 C   0  0  0  0  0  0  0  0  0  0  0  0
  -28.2289  -20.4551   18.0993 C   0  0  0  0  0  0  0  0  0  0  0  0
  -24.4320  -21.4653   18.2491 C   0  0  0  0  0  0  0  0  0  0  0  0
  -25.8411  -21.2387   17.6945 C   0  0  0  0  0  0  0  0  0  0  0  0
  -26.3465  -19.3498   19.3587 C   0  0  0  0  0  0  0  0  0  1  0  0
  -22.6620  -12.9235   20.6862 C   0  0  1  0  0  0  0  0  0  0  0  0
  -21.0638  -13.5754   24.0612 C   0  0  2  0  0  0  0  0  0  0  0  0
  -26.8333  -20.6699   18.7364 C   0  0  1  0  0  0  0  0  0  0  0  0
  -21.8370  -12.3061   19.5219 C   0  0  0  0  0  0  0  0  0  0  0  0
  -27.0939  -28.7362   19.5347 N   0  0  0  0  0  0  0  0  0  0  0  0
  -30.6476  -23.2805   18.8712 N   0  0  0  0  0  0  0  0  0  0  0  0
  -27.2783  -27.7897   18.5987 N   0  0  0  0  0  0  0  0  0  0  0  0
  -30.8077  -26.4016   18.1563 N   0  0  0  0  0  0  0  0  0  0  0  0
  -25.1285  -13.1245   20.6886 N   0  0  0  0  0  0  0  0  0  0  0  0
  -26.1574  -26.0991   17.3755 N   0  0  0  0  0  0  0  0  0  0  0  0
  -22.9036  -27.8259   19.9883 N   0  0  0  0  0  0  0  0  0  0  0  0
  -28.0140  -11.7531   18.9309 N   0  0  0  0  0  0  0  0  0  0  0  0
  -22.0188  -12.8252   21.9919 N   0  0  0  0  0  0  0  0  0  0  0  0
  -21.4716  -14.5246   25.1352 N   0  3  0  0  0  0  0  0  0  0  0  0
  -23.3693  -26.2422   18.3965 O   0  0  0  0  0  0  0  0  0  0  0  0
  -32.4796  -25.0798   17.1946 O   0  0  0  0  0  0  0  0  0  0  0  0
  -26.0116  -12.7703   18.3158 O   0  0  0  0  0  0  0  0  0  0  0  0
  -24.0925  -11.0723   21.0778 O   0  0  0  0  0  0  0  0  0  0  0  0
  -21.9821  -15.1022   22.4293 O   0  0  0  0  0  0  0  0  0  0  0  0
  -23.4827  -31.9760   23.6593 O   0  0  0  0  0  0  0  0  0  0  0  0
  -27.2396  -18.9126   20.3821 O   0  0  0  0  0  0  0  0  0  1  0  0
  -24.7126  -37.3466   23.4395 F   0  0  0  0  0  0  0  0  0  0  0  0
  -21.5023  -33.8709   23.2994 F   0  0  0  0  0  0  0  0  0  0  0  0
  1  2  1  0  0  0  0
  1  5  2  0  0  0  0
  2  6  2  0  0  0  0
  3  8  2  0  0  0  0
  3 16  1  0  0  0  0
  4  9  1  0  0  0  0
  4 16  2  0  0  0  0
  5 18  1  0  0  0  0
  6 20  1  0  0  0  0
  7 10  2  0  0  0  0
  7 19  1  0  0  0  0
  8 24  1  0  0  0  0
  9 24  2  0  0  0  0
 10 25  1  0  0  0  0
 11 12  2  0  0  0  0
 11 26  1  0  0  0  0
 12 27  1  0  0  0  0
 13 21  1  0  0  0  0
 13 25  2  0  0  0  0
 14 22  2  0  0  0  0
 14 23  1  0  0  0  0
 15 27  2  0  0  0  0
 15 28  1  0  0  0  0
 16 29  1  0  0  0  0
 17 29  1  0  0  0  0
 17 32  2  0  0  0  0
 17 33  1  0  0  0  0
 18 20  2  0  0  0  0
 18 38  1  0  0  0  0
 19 21  2  0  0  0  0
 19 39  1  0  0  0  0
 20 47  1  0  0  0  0
 21 40  1  0  0  0  0
 22 30  1  0  0  0  0
 22 50  1  0  0  0  0
 23 31  2  0  0  0  0
 23 58  1  0  0  0  0
 24 81  1  0  0  0  0
 25 82  1  0  0  0  0
 26 28  2  0  0  0  0
 26 81  1  0  0  0  0
 27 83  1  0  0  0  0
 28 84  1  0  0  0  0
 29 66  2  0  0  0  0
 30 34  1  0  0  0  0
 30 67  2  0  0  0  0
 31 51  1  0  0  0  0
 31 67  1  0  0  0  0
 32 68  1  0  0  0  0
 32 71  1  0  0  0  0
 33 72  1  0  0  0  0
 33 76  2  0  0  0  0
 34 69  1  0  0  0  0
 34 77  2  0  0  0  0
 35 48  1  0  0  0  0
 35 73  1  0  0  0  0
 35 78  2  0  0  0  0
 36 62  1  0  0  0  0
 36 70  1  0  0  0  0
 36 79  2  0  0  0  0
 37 63  1  0  0  0  0
 37 74  1  0  0  0  0
 37 80  2  0  0  0  0
 38 41  1  0  0  0  0
 39 48  1  0  0  0  0
 40 70  1  0  0  0  0
 41 43  1  0  0  0  0
 42 44  1  0  0  0  0
 42 45  1  0  0  0  0
 43 47  1  0  0  0  0
 44 49  1  0  0  0  0
 45 69  1  0  0  0  0
 46 49  1  0  0  0  0
 46 69  1  0  0  0  0
 47 73  1  0  0  0  0
 48 70  1  0  0  0  0
 49 68  1  0  0  0  0
 52 59  1  0  0  0  0
 53 63  1  0  0  0  0
 54 65  1  0  0  0  0
 55 65  1  0  0  0  0
 56 65  1  0  0  0  0
 57 75  1  0  0  0  0
 58 64  1  0  0  0  0
 59 60  1  0  0  0  0
 60 64  1  0  0  0  0
 61 64  1  0  0  0  0
 61 82  1  0  0  0  0
 62 65  1  0  0  0  0
 62 74  1  0  0  0  0
 63 75  1  0  0  0  0
 66 68  1  0  0  0  0
M  CHG  1  75   1
M  ISO  4  30 100  34 100  61 101  82 101
M  END
> <Batch ID>
0101

> <Smiles>
CCCC(Cc1cc(C)[100c:0]([100C:0](=O)N2CCCC(n3nc(-c4ccc(Oc5ccc(F)cc5F)cc4)c(C(N)=O)c3N)C2)nc1C)[101CH2:1][101O:1]c1ccc2c(c1)CN(C(=O)C(NC(=O)C(C)NC)C(C)(C)C)C(C(=O)NC1CCCc3ccccc31)C2

> <Shape>
0.264

> <Color>
0.055

> <Negative vol penalty>
0.000

$$$$

  -OEChem-04052319363D

 92100  0     1  0  0  0  0  0999 V2000
  -18.0093  -26.0375   14.3021 C   0  0  0  0  0  0  0  0  0  0  0  0
  -17.8603  -24.6928   14.6264 C   0  0  0  0  0  0  0  0  0  0  0  0
  -27.6616  -23.6593   20.8936 C   0  0  0  0  0  0  0  0  0  0  0  0
  -28.3751  -23.3629   18.6045 C   0  0  0  0  0  0  0  0  0  0  0  0
  -19.0146  -26.7917   14.9056 C   0  0  0  0  0  0  0  0  0  0  0  0
  -18.7175  -24.1013   15.5537 C   0  0  0  0  0  0  0  0  0  0  0  0
  -18.8171  -19.0577   20.6398 C   0  0  0  0  0  0  0  0  0  0  0  0
  -27.7886  -25.0413   20.7543 C   0  0  0  0  0  0  0  0  0  0  0  0
  -28.5021  -24.7450   18.4651 C   0  0  0  0  0  0  0  0  0  0  0  0
  -19.5410  -17.9299   21.0243 C   0  0  0  0  0  0  0  0  0  0  0  0
  -26.0152  -27.5817   19.3998 C   0  0  0  0  0  0  0  0  0  0  0  0
  -24.9848  -28.3805   19.8954 C   0  0  0  0  0  0  0  0  0  0  0  0
  -21.1913  -19.3506   22.0623 C   0  0  0  0  0  0  0  0  0  0  0  0
  -25.0623  -13.5490   19.8184 C   0  0  0  0  0  0  0  0  0  0  0  0
  -26.5446  -29.4683   21.3856 C   0  0  0  0  0  0  0  0  0  0  0  0
  -27.9549  -22.8200   19.8187 C   0  0  0  0  0  0  0  0  0  0  0  0
  -26.6803  -20.6132   19.7061 C   0  0  0  0  0  0  0  0  0  0  0  0
  -19.8784  -26.2116   15.8480 C   0  0  0  0  0  0  0  0  0  0  0  0
  -19.2813  -20.3429   20.9548 C   0  0  0  0  0  0  0  0  0  0  0  0
  -19.7362  -24.8482   16.1694 C   0  0  0  0  0  0  0  0  0  0  0  0
  -20.4702  -20.4929   21.6829 C   0  0  0  0  0  0  0  0  0  0  0  0
  -23.9808  -13.0435   20.5312 C   0  0  0  0  0  0  0  0  0  0  0  0
  -24.1238  -11.8680   21.2599 C   0  0  0  0  0  0  0  0  0  0  0  0
  -28.2088  -25.5842   19.5401 C   0  0  0  0  0  0  0  0  0  0  0  0
  -20.7298  -18.0763   21.7331 C   0  0  0  0  0  0  0  0  0  0  0  0
  -27.3104  -27.7261   19.8973 C   0  0  0  0  0  0  0  0  0  0  0  0
  -25.2494  -29.3239   20.8882 C   0  0  0  0  0  0  0  0  0  0  0  0
  -27.5751  -28.6694   20.8901 C   0  0  0  0  0  0  0  0  0  0  0  0
  -27.8245  -21.3923   19.9621 C   0  0  0  0  0  0  0  0  0  0  0  0
  -25.3593  -11.2411   21.2436 C   0  0  0  0  0  0  0  0  0  0  0  0
  -26.2559  -12.8469   19.8667 C   0  0  0  0  0  0  0  0  0  0  0  0
  -27.0691  -19.3275   19.9928 C   0  0  0  0  0  0  0  0  0  0  0  0
  -25.3820  -21.0157   19.2498 C   0  0  0  0  0  0  0  0  0  0  0  0
  -20.1825  -22.8793   19.2641 C   0  0  0  0  0  0  0  0  0  0  0  0
  -20.3424  -24.2825   22.1843 C   0  0  0  0  0  0  0  0  0  0  0  0
  -20.6995  -23.9171   25.5586 C   0  0  0  0  0  0  0  0  0  0  0  0
  -30.7963  -15.1856   19.6786 C   0  0  0  0  0  0  0  0  0  0  0  0
  -20.9803  -27.0552   16.4386 C   0  0  0  0  0  0  0  0  0  0  0  0
  -18.4750  -21.5485   20.5561 C   0  0  0  0  0  0  0  0  0  0  0  0
  -21.0011  -21.8500   22.0635 C   0  0  0  0  0  0  0  0  0  0  0  0
  -21.6088  -26.4471   17.6899 C   0  0  0  0  0  0  0  0  0  0  0  0
  -31.2282  -17.5783   22.2796 C   0  0  0  0  0  0  0  0  0  0  0  0
  -21.9135  -24.9688   17.4697 C   0  0  0  0  0  0  0  0  0  0  0  0
  -30.2919  -18.7215   21.8841 C   0  0  0  0  0  0  0  0  0  0  0  0
  -31.8802  -16.9346   21.0579 C   0  0  0  0  0  0  0  0  0  0  0  0
  -30.0005  -17.6269   19.6223 C   0  0  0  0  0  0  0  0  0  0  0  0
  -20.6307  -24.1769   17.1890 C   0  0  1  0  0  0  0  0  0  0  0  0
  -19.3060  -22.8258   20.4833 C   0  0  1  0  0  0  0  0  0  0  0  0
  -29.2763  -18.2709   20.8169 C   0  0  2  0  0  0  0  0  0  0  0  0
  -20.8283  -25.2489   27.6815 C   0  0  0  0  0  0  0  0  0  0  0  0
  -26.2562   -8.8485   24.1895 C   0  0  0  0  0  0  0  0  0  0  0  0
  -27.3646  -10.9769   23.4789 C   0  0  0  0  0  0  0  0  0  0  0  0
  -19.8308   -9.2852   20.8728 C   0  0  0  0  0  0  0  0  0  0  0  0
  -21.2268   -8.9464   22.9213 C   0  0  0  0  0  0  0  0  0  0  0  0
  -23.2043  -25.0904   21.5009 C   0  0  0  0  0  0  0  0  0  0  0  0
  -23.5814  -25.5497   23.9330 C   0  0  0  0  0  0  0  0  0  0  0  0
  -21.8727  -26.8557   22.6692 C   0  0  0  0  0  0  0  0  0  0  0  0
  -18.2872  -22.6063   26.6640 C   0  0  0  0  0  0  0  0  0  0  0  0
  -22.6681  -13.7846   20.4982 C   0  0  0  0  0  0  0  0  0  0  0  0
  -22.9792  -11.3009   22.0306 C   0  0  0  0  0  0  0  0  0  0  0  0
  -25.5723   -9.9750   22.0072 C   0  0  0  0  0  0  0  0  0  0  0  0
  -22.6460  -15.0377   21.3763 C   0  0  0  0  0  0  0  0  0  0  0  0
  -21.9629  -10.5921   21.1162 C   0  0  0  0  0  0  0  0  0  0  0  0
  -28.6295  -12.7444   19.1044 C   0  0  0  0  0  0  0  0  0  0  0  0
  -29.6006  -13.5454   18.2505 C   0  0  0  0  0  0  0  0  0  0  0  0
  -21.3460  -15.8264   21.2703 C   0  0  0  0  0  0  0  0  0  1  0  0
  -21.4111  -24.4363   23.2394 C   0  0  1  0  0  0  0  0  0  0  0  0
  -19.9175  -24.4977   26.7230 C   0  0  2  0  0  0  0  0  0  0  0  0
  -26.0573  -10.1808   23.4624 C   0  0  0  0  0  0  0  0  0  0  0  0
  -20.7769   -9.9605   21.8687 C   0  0  0  0  0  0  0  0  0  0  0  0
  -22.5086  -25.4574   22.8269 C   0  0  0  0  0  0  0  0  0  0  0  0
  -28.8624  -20.6625   20.3796 N   0  0  0  0  0  0  0  0  0  0  0  0
  -26.4329  -11.7019   20.5633 N   0  0  0  0  0  0  0  0  0  0  0  0
  -28.3718  -19.4114   20.3881 N   0  0  0  0  0  0  0  0  0  0  0  0
  -20.1801  -22.9983   21.6454 N   0  0  0  0  0  0  0  0  0  0  0  0
  -30.8628  -16.5284   20.0854 N   0  0  0  0  0  0  0  0  0  0  0  0
  -26.4204  -18.1446   19.9430 N   0  0  0  0  0  0  0  0  0  0  0  0
  -25.1527  -22.3761   19.0030 N   0  0  0  0  0  0  0  0  0  0  0  0
  -27.3492  -13.3732   19.1350 N   0  0  0  0  0  0  0  0  0  0  0  0
  -19.9059  -23.9365   18.4183 N   0  0  0  0  0  0  0  0  0  0  0  0
  -20.7168  -24.7729   24.4776 N   0  0  0  0  0  0  0  0  0  0  0  0
  -29.7990  -14.8844   18.7591 N   0  0  0  0  0  0  0  0  0  0  0  0
  -19.2322  -23.4119   27.4795 N   0  3  0  0  0  0  0  0  0  0  0  0
  -24.4480  -20.1953   19.0821 O   0  0  0  0  0  0  0  0  0  0  0  0
  -21.0468  -22.0255   19.1033 O   0  0  0  0  0  0  0  0  0  0  0  0
  -19.6714  -25.2640   21.8556 O   0  0  0  0  0  0  0  0  0  0  0  0
  -21.2439  -22.8161   25.6048 O   0  0  0  0  0  0  0  0  0  0  0  0
  -31.5650  -14.3183   20.1073 O   0  0  0  0  0  0  0  0  0  0  0  0
  -28.3325  -26.9328   19.4037 O   0  0  0  0  0  0  0  0  0  0  0  0
  -21.4387  -16.9772   22.1090 O   0  0  0  0  0  0  0  0  0  1  0  0
  -24.2601  -30.0920   21.3629 F   0  0  0  0  0  0  0  0  0  0  0  0
  -28.8176  -28.8135   21.3710 F   0  0  0  0  0  0  0  0  0  0  0  0
  1  2  1  0  0  0  0
  1  5  2  0  0  0  0
  2  6  2  0  0  0  0
  3  8  2  0  0  0  0
  3 16  1  0  0  0  0
  4  9  1  0  0  0  0
  4 16  2  0  0  0  0
  5 18  1  0  0  0  0
  6 20  1  0  0  0  0
  7 10  2  0  0  0  0
  7 19  1  0  0  0  0
  8 24  1  0  0  0  0
  9 24  2  0  0  0  0
 10 25  1  0  0  0  0
 11 12  2  0  0  0  0
 11 26  1  0  0  0  0
 12 27  1  0  0  0  0
 13 21  1  0  0  0  0
 13 25  2  0  0  0  0
 14 22  1  0  0  0  0
 14 31  2  0  0  0  0
 15 27  2  0  0  0  0
 15 28  1  0  0  0  0
 16 29  1  0  0  0  0
 17 29  1  0  0  0  0
 17 32  2  0  0  0  0
 17 33  1  0  0  0  0
 18 20  2  0  0  0  0
 18 38  1  0  0  0  0
 19 21  2  0  0  0  0
 19 39  1  0  0  0  0
 20 47  1  0  0  0  0
 21 40  1  0  0  0  0
 22 23  2  0  0  0  0
 22 59  1  0  0  0  0
 23 30  1  0  0  0  0
 23 60  1  0  0  0  0
 24 89  1  0  0  0  0
 25 90  1  0  0  0  0
 26 28  2  0  0  0  0
 26 89  1  0  0  0  0
 27 91  1  0  0  0  0
 28 92  1  0  0  0  0
 29 72  2  0  0  0  0
 30 61  1  0  0  0  0
 30 73  2  0  0  0  0
 31 73  1  0  0  0  0
 31 79  1  0  0  0  0
 32 74  1  0  0  0  0
 32 77  1  0  0  0  0
 33 78  1  0  0  0  0
 33 84  2  0  0  0  0
 34 48  1  0  0  0  0
 34 80  1  0  0  0  0
 34 85  2  0  0  0  0
 35 67  1  0  0  0  0
 35 75  1  0  0  0  0
 35 86  2  0  0  0  0
 36 68  1  0  0  0  0
 36 81  1  0  0  0  0
 36 87  2  0  0  0  0
 37 76  1  0  0  0  0
 37 82  1  0  0  0  0
 37 88  2  0  0  0  0
 38 41  1  0  0  0  0
 39 48  1  0  0  0  0
 40 75  1  0  0  0  0
 41 43  1  0  0  0  0
 42 44  1  0  0  0  0
 42 45  1  0  0  0  0
 43 47  1  0  0  0  0
 44 49  1  0  0  0  0
 45 76  1  0  0  0  0
 46 49  1  0  0  0  0
 46 76  1  0  0  0  0
 47 80  1  0  0  0  0
 48 75  1  0  0  0  0
 49 74  1  0  0  0  0
 50 68  1  0  0  0  0
 51 69  1  0  0  0  0
 52 69  1  0  0  0  0
 53 70  1  0  0  0  0
 54 70  1  0  0  0  0
 55 71  1  0  0  0  0
 56 71  1  0  0  0  0
 57 71  1  0  0  0  0
 58 83  1  0  0  0  0
 59 62  1  0  0  0  0
 60 63  1  0  0  0  0
 61 69  1  0  0  0  0
 62 66  1  0  0  0  0
 63 70  1  0  0  0  0
 64 65  1  0  0  0  0
 64 79  1  0  0  0  0
 65 82  1  0  0  0  0
 66 90  1  0  0  0  0
 67 71  1  0  0  0  0
 67 81  1  0  0  0  0
 68 83  1  0  0  0  0
 72 74  1  0  0  0  0
M  CHG  1  83   1
M  ISO  4  37 100  66 101  82 100  90 101
M  END
> <Batch ID>
0101

> <Smiles>
CNC(C)C(=O)NC(C(=O)N1Cc2cc([101O:1][101CH2:1]CCc3cc(NCC[100NH:0][100C:0](=O)N4CCCC(n5nc(-c6ccc(Oc7ccc(F)cc7F)cc6)c(C(N)=O)c5N)C4)nc(CC(C)C)c3CCC(C)C)ccc2CC1C(=O)NC1CCCc2ccccc21)C(C)(C)C

> <Shape>
0.207

> <Color>
0.086

> <Negative vol penalty>
0.000

$$$$

  -OEChem-04052319363D

 86 94  0     1  0  0  0  0  0999 V2000
  -32.4417  -11.3070   20.8986 C   0  0  0  0  0  0  0  0  0  0  0  0
  -32.2415  -12.3418   21.8066 C   0  0  0  0  0  0  0  0  0  0  0  0
  -28.3621  -23.6283   18.4443 C   0  0  0  0  0  0  0  0  0  0  0  0
  -29.7236  -23.9375   20.4160 C   0  0  0  0  0  0  0  0  0  0  0  0
  -31.5473  -11.1230   19.8449 C   0  0  0  0  0  0  0  0  0  0  0  0
  -31.1475  -13.1940   21.6608 C   0  0  0  0  0  0  0  0  0  0  0  0
  -26.5004  -17.0264   25.5381 C   0  0  0  0  0  0  0  0  0  0  0  0
  -28.3720  -22.2493   18.6536 C   0  0  0  0  0  0  0  0  0  0  0  0
  -29.7335  -22.5584   20.6254 C   0  0  0  0  0  0  0  0  0  0  0  0
  -25.9923  -18.3207   25.6397 C   0  0  0  0  0  0  0  0  0  0  0  0
  -26.7901  -20.0206   20.6444 C   0  0  0  0  0  0  0  0  0  0  0  0
  -25.5808  -19.3371   20.5184 C   0  0  0  0  0  0  0  0  0  0  0  0
  -24.4692  -17.8587   23.8270 C   0  0  0  0  0  0  0  0  0  0  0  0
  -26.5255  -17.9919   18.7478 C   0  0  0  0  0  0  0  0  0  0  0  0
  -29.0380  -24.4724   19.3254 C   0  0  0  0  0  0  0  0  0  0  0  0
  -29.5098  -26.5890   17.9819 C   0  0  0  0  0  0  0  0  0  0  0  0
  -30.4364  -11.9675   19.6917 C   0  0  0  0  0  0  0  0  0  0  0  0
  -26.0034  -16.1405   24.5713 C   0  0  0  0  0  0  0  0  0  0  0  0
  -30.2382  -13.0220   20.6033 C   0  0  0  0  0  0  0  0  0  0  0  0
  -24.9709  -16.5528   23.7169 C   0  0  0  0  0  0  0  0  0  0  0  0
  -29.0577  -21.7144   19.7441 C   0  0  0  0  0  0  0  0  0  0  0  0
  -24.9786  -18.7380   24.7822 C   0  0  0  0  0  0  0  0  0  0  0  0
  -27.8672  -19.6898   19.8220 C   0  0  0  0  0  0  0  0  0  0  0  0
  -25.4484  -18.3228   19.5701 C   0  0  0  0  0  0  0  0  0  0  0  0
  -27.7349  -18.6755   18.8738 C   0  0  0  0  0  0  0  0  0  0  0  0
  -29.0286  -25.8970   19.1094 C   0  0  0  0  0  0  0  0  0  0  0  0
  -29.2717  -27.9120   18.2636 C   0  0  0  0  0  0  0  0  0  0  0  0
  -30.1175  -26.0813   16.7866 C   0  0  0  0  0  0  0  0  0  0  0  0
  -27.2474  -14.6168   22.0744 C   0  0  0  0  0  0  0  0  0  0  0  0
  -24.3253  -13.2121   21.9701 C   0  0  0  0  0  0  0  0  0  0  0  0
  -21.0061  -13.3684   22.7483 C   0  0  0  0  0  0  0  0  0  0  0  0
  -25.3188  -30.6787   21.8091 C   0  0  0  0  0  0  0  0  0  0  0  0
  -29.5233  -11.7585   18.5096 C   0  0  0  0  0  0  0  0  0  0  0  0
  -26.5436  -14.7390   24.4922 C   0  0  0  0  0  0  0  0  0  0  0  0
  -24.3888  -15.6337   22.6753 C   0  0  0  0  0  0  0  0  0  0  0  0
  -28.1816  -12.4744   18.6424 C   0  0  0  0  0  0  0  0  0  0  0  0
  -28.8669  -30.9428   21.9435 C   0  0  0  0  0  0  0  0  0  0  0  0
  -28.3873  -13.9115   19.1104 C   0  0  0  0  0  0  0  0  0  0  0  0
  -24.1992  -22.7613   24.0789 C   0  0  0  0  0  0  0  0  0  0  0  0
  -21.8509  -22.2066   23.3345 C   0  0  0  0  0  0  0  0  0  0  0  0
  -23.7846  -24.2142   24.3043 C   0  0  0  0  0  0  0  0  0  0  0  0
  -21.4363  -23.6596   23.5599 C   0  0  0  0  0  0  0  0  0  0  0  0
  -29.3541  -29.7420   21.1307 C   0  0  0  0  0  0  0  0  0  0  0  0
  -27.6110  -30.6091   22.7457 C   0  0  0  0  0  0  0  0  0  0  0  0
  -26.9887  -28.8454   21.1408 C   0  0  0  0  0  0  0  0  0  0  0  0
  -29.0495  -13.9520   20.4929 C   0  0  1  0  0  0  0  0  0  0  0  0
  -26.3190  -14.0880   23.1309 C   0  0  1  0  0  0  0  0  0  0  0  0
  -23.0149  -21.8012   24.2475 C   0  0  0  0  0  0  0  0  0  0  0  0
  -22.6206  -24.6197   23.3913 C   0  0  0  0  0  0  0  0  0  0  0  0
  -28.2209  -29.1495   20.2715 C   0  0  2  0  0  0  0  0  0  0  0  0
  -18.8621  -12.0884   22.4993 C   0  0  0  0  0  0  0  0  0  0  0  0
  -21.6469  -26.2280   25.0763 C   0  0  0  0  0  0  0  0  0  0  0  0
  -19.4907  -28.0913   22.0200 C   0  0  0  0  0  0  0  0  0  0  0  0
  -24.1562  -14.0689   19.0466 C   0  0  0  0  0  0  0  0  0  0  0  0
  -21.6931  -13.6284   19.1324 C   0  0  0  0  0  0  0  0  0  0  0  0
  -23.3058  -11.7629   19.5087 C   0  0  0  0  0  0  0  0  0  0  0  0
  -20.6734  -13.1289   25.6793 C   0  0  0  0  0  0  0  0  0  0  0  0
  -23.4433  -20.3618   23.9685 C   0  0  0  0  0  0  0  0  0  1  0  0
  -22.0610  -30.0268   21.7586 C   0  0  0  0  0  0  0  0  0  0  0  0
  -21.9559  -28.5006   21.6381 C   0  0  0  0  0  0  0  0  0  0  0  0
  -23.0637  -30.6231   20.7745 C   0  0  0  0  0  0  0  0  0  0  0  0
  -23.0115  -13.5264   21.2963 C   0  0  1  0  0  0  0  0  0  0  0  0
  -20.0713  -12.3542   23.3823 C   0  0  2  0  0  0  0  0  0  0  0  0
  -22.1922  -26.0591   23.6703 C   0  0  2  0  0  0  0  0  0  0  0  0
  -20.8988  -27.8872   22.5639 C   0  0  2  0  0  0  0  0  0  0  0  0
  -23.0537  -13.2648   19.7642 C   0  0  0  0  0  0  0  0  0  0  0  0
  -28.5232  -26.7129   20.0383 N   0  0  0  0  0  0  0  0  0  0  0  0
  -28.6856  -27.9313   19.4950 N   0  0  0  0  0  0  0  0  0  0  0  0
  -24.9547  -14.2752   22.6331 N   0  0  0  0  0  0  0  0  0  0  0  0
  -26.5748  -30.0531   21.8723 N   0  0  0  0  0  0  0  0  0  0  0  0
  -29.5088  -29.0492   17.5757 N   0  0  0  0  0  0  0  0  0  0  0  0
  -31.5107  -25.9320   16.7570 N   0  0  0  0  0  0  0  0  0  0  0  0
  -28.0798  -13.6595   21.5266 N   0  0  0  0  0  0  0  0  0  0  0  0
  -21.9946  -12.7576   22.0059 N   0  0  0  0  0  0  0  0  0  0  0  0
  -24.3964  -30.0911   20.9520 N   0  0  0  0  0  0  0  0  0  0  0  0
  -19.5893  -12.8488   24.7029 N   0  3  0  0  0  0  0  0  0  0  0  0
  -21.1288  -26.4240   22.6982 N   0  3  0  0  0  0  0  0  0  0  0  0
  -29.4465  -25.7847   15.7691 O   0  0  0  0  0  0  0  0  0  0  0  0
  -27.2101  -15.8050   21.7772 O   0  0  0  0  0  0  0  0  0  0  0  0
  -24.7730  -12.0639   21.9165 O   0  0  0  0  0  0  0  0  0  0  0  0
  -20.8706  -14.5812   22.8937 O   0  0  0  0  0  0  0  0  0  0  0  0
  -25.0418  -31.6895   22.4637 O   0  0  0  0  0  0  0  0  0  0  0  0
  -29.0674  -20.3688   19.9489 O   0  0  0  0  0  0  0  0  0  0  0  0
  -24.4813  -20.0010   24.8789 O   0  0  0  0  0  0  0  0  0  1  0  0
  -24.2875  -17.6654   19.4503 F   0  0  0  0  0  0  0  0  0  0  0  0
  -28.7664  -18.3524   18.0817 F   0  0  0  0  0  0  0  0  0  0  0  0
  1  2  1  0  0  0  0
  1  5  2  0  0  0  0
  2  6  2  0  0  0  0
  3  8  2  0  0  0  0
  3 15  1  0  0  0  0
  4  9  1  0  0  0  0
  4 15  2  0  0  0  0
  5 17  1  0  0  0  0
  6 19  1  0  0  0  0
  7 10  2  0  0  0  0
  7 18  1  0  0  0  0
  8 21  1  0  0  0  0
  9 21  2  0  0  0  0
 10 22  1  0  0  0  0
 11 12  2  0  0  0  0
 11 23  1  0  0  0  0
 12 24  1  0  0  0  0
 13 20  1  0  0  0  0
 13 22  2  0  0  0  0
 14 24  2  0  0  0  0
 14 25  1  0  0  0  0
 15 26  1  0  0  0  0
 16 26  1  0  0  0  0
 16 27  2  0  0  0  0
 16 28  1  0  0  0  0
 17 19  2  0  0  0  0
 17 33  1  0  0  0  0
 18 20  2  0  0  0  0
 18 34  1  0  0  0  0
 19 46  1  0  0  0  0
 20 35  1  0  0  0  0
 21 83  1  0  0  0  0
 22 84  1  0  0  0  0
 23 25  2  0  0  0  0
 23 83  1  0  0  0  0
 24 85  1  0  0  0  0
 25 86  1  0  0  0  0
 26 67  2  0  0  0  0
 27 68  1  0  0  0  0
 27 71  1  0  0  0  0
 28 72  1  0  0  0  0
 28 78  2  0  0  0  0
 29 47  1  0  0  0  0
 29 73  1  0  0  0  0
 29 79  2  0  0  0  0
 30 62  1  0  0  0  0
 30 69  1  0  0  0  0
 30 80  2  0  0  0  0
 31 63  1  0  0  0  0
 31 74  1  0  0  0  0
 31 81  2  0  0  0  0
 32 70  1  0  0  0  0
 32 75  1  0  0  0  0
 32 82  2  0  0  0  0
 33 36  1  0  0  0  0
 34 47  1  0  0  0  0
 35 69  1  0  0  0  0
 36 38  1  0  0  0  0
 37 43  1  0  0  0  0
 37 44  1  0  0  0  0
 38 46  1  0  0  0  0
 39 41  1  0  0  0  0
 39 48  1  0  0  0  0
 40 42  1  0  0  0  0
 40 48  1  0  0  0  0
 41 49  1  0  0  0  0
 42 49  1  0  0  0  0
 43 50  1  0  0  0  0
 44 70  1  0  0  0  0
 45 50  1  0  0  0  0
 45 70  1  0  0  0  0
 46 73  1  0  0  0  0
 47 69  1  0  0  0  0
 48 58  1  0  0  0  0
 49 64  1  0  0  0  0
 50 68  1  0  0  0  0
 51 63  1  0  0  0  0
 52 64  1  0  0  0  0
 53 65  1  0  0  0  0
 54 66  1  0  0  0  0
 55 66  1  0  0  0  0
 56 66  1  0  0  0  0
 57 76  1  0  0  0  0
 58 84  1  0  0  0  0
 59 60  1  0  0  0  0
 59 61  1  0  0  0  0
 60 65  1  0  0  0  0
 61 75  1  0  0  0  0
 62 66  1  0  0  0  0
 62 74  1  0  0  0  0
 63 76  1  0  0  0  0
 64 77  1  0  0  0  0
 65 77  1  0  0  0  0
 67 68  1  0  0  0  0
M  CHG  2  76   1  77   1
M  ISO  4  32 100  58 101  75 100  84 101
M  END
> <Batch ID>
0101

> <Smiles>
CNC(C)C(=O)NC(C(=O)N1Cc2cc([101O:1][101CH2:1]C3CCC(C(C)NC(C)CCC[100NH:0][100C:0](=O)N4CCCC(n5nc(-c6ccc(Oc7ccc(F)cc7F)cc6)c(C(N)=O)c5N)C4)CC3)ccc2CC1C(=O)NC1CCCc2ccccc21)C(C)(C)C

> <Shape>
0.245

> <Color>
0.074

> <Negative vol penalty>
0.000

$$$$

  -OEChem-04052319363D

 86 94  0     1  0  0  0  0  0999 V2000
  -15.9512  -27.6623   24.8224 C   0  0  0  0  0  0  0  0  0  0  0  0
  -16.2525  -26.3119   24.6766 C   0  0  0  0  0  0  0  0  0  0  0  0
  -31.0962  -19.8780   19.5732 C   0  0  0  0  0  0  0  0  0  0  0  0
  -28.7612  -19.7540   20.1809 C   0  0  0  0  0  0  0  0  0  0  0  0
  -16.7754  -28.6258   24.2427 C   0  0  0  0  0  0  0  0  0  0  0  0
  -17.3778  -25.9243   23.9500 C   0  0  0  0  0  0  0  0  0  0  0  0
  -21.0067  -21.1195   25.0681 C   0  0  0  0  0  0  0  0  0  0  0  0
  -30.8876  -21.1456   19.0300 C   0  0  0  0  0  0  0  0  0  0  0  0
  -28.5525  -21.0217   19.6377 C   0  0  0  0  0  0  0  0  0  0  0  0
  -21.0629  -19.8388   24.5199 C   0  0  0  0  0  0  0  0  0  0  0  0
  -30.5497  -24.3148   20.1591 C   0  0  0  0  0  0  0  0  0  0  0  0
  -31.4778  -25.3108   20.4625 C   0  0  0  0  0  0  0  0  0  0  0  0
  -22.7982  -20.5675   23.0109 C   0  0  0  0  0  0  0  0  0  0  0  0
  -23.3300  -15.5336   22.0933 C   0  0  0  0  0  0  0  0  0  0  0  0
  -31.9749  -25.5636   18.1117 C   0  0  0  0  0  0  0  0  0  0  0  0
  -22.2495  -16.2583   20.2556 C   0  0  0  0  0  0  0  0  0  0  0  0
  -30.0330  -19.1821   20.1487 C   0  0  0  0  0  0  0  0  0  0  0  0
  -31.1197  -17.5301   21.7604 C   0  0  0  0  0  0  0  0  0  0  0  0
  -17.9167  -28.2501   23.5167 C   0  0  0  0  0  0  0  0  0  0  0  0
  -21.8396  -22.1383   24.5835 C   0  0  0  0  0  0  0  0  0  0  0  0
  -18.2173  -26.8837   23.3589 C   0  0  0  0  0  0  0  0  0  0  0  0
  -22.7525  -21.8595   23.5564 C   0  0  0  0  0  0  0  0  0  0  0  0
  -22.8429  -16.6832   21.4238 C   0  0  0  0  0  0  0  0  0  0  0  0
  -29.6158  -21.7175   19.0622 C   0  0  0  0  0  0  0  0  0  0  0  0
  -21.9567  -19.5634   23.4892 C   0  0  0  0  0  0  0  0  0  0  0  0
  -30.3342  -23.9431   18.8321 C   0  0  0  0  0  0  0  0  0  0  0  0
  -32.1904  -25.9353   19.4388 C   0  0  0  0  0  0  0  0  0  0  0  0
  -31.0468  -24.5675   17.8084 C   0  0  0  0  0  0  0  0  0  0  0  0
  -30.2478  -17.8724   20.7095 C   0  0  0  0  0  0  0  0  0  0  0  0
  -23.0195  -14.4412   21.3138 C   0  0  0  0  0  0  0  0  0  0  0  0
  -30.9569  -16.1750   21.9141 C   0  0  0  0  0  0  0  0  0  0  0  0
  -31.9982  -18.3628   22.5290 C   0  0  0  0  0  0  0  0  0  0  0  0
  -21.3607  -24.9498   23.1800 C   0  0  0  0  0  0  0  0  0  0  0  0
  -24.5768  -25.2207   23.5045 C   0  0  0  0  0  0  0  0  0  0  0  0
  -27.5944  -23.6659   23.8563 C   0  0  0  0  0  0  0  0  0  0  0  0
  -26.4548  -12.4387   20.6406 C   0  0  0  0  0  0  0  0  0  0  0  0
  -18.7513  -29.3261   22.8683 C   0  0  0  0  0  0  0  0  0  0  0  0
  -21.7856  -23.5076   25.2037 C   0  0  0  0  0  0  0  0  0  0  0  0
  -23.6825  -22.9130   23.0144 C   0  0  0  0  0  0  0  0  0  0  0  0
  -20.1323  -28.8448   22.4305 C   0  0  0  0  0  0  0  0  0  0  0  0
  -29.8045  -12.2388   19.4505 C   0  0  0  0  0  0  0  0  0  0  0  0
  -20.0245  -27.5149   21.6911 C   0  0  0  0  0  0  0  0  0  0  0  0
  -30.3766  -13.6291   19.7330 C   0  0  0  0  0  0  0  0  0  0  0  0
  -28.3366  -12.3064   19.0350 C   0  0  0  0  0  0  0  0  0  0  0  0
  -28.0333  -14.4273   20.2530 C   0  0  0  0  0  0  0  0  0  0  0  0
  -19.4428  -26.4245   22.5989 C   0  0  1  0  0  0  0  0  0  0  0  0
  -22.3188  -24.6016   24.2838 C   0  0  1  0  0  0  0  0  0  0  0  0
  -29.4956  -14.4060   20.7298 C   0  0  2  0  0  0  0  0  0  0  0  0
  -30.0485  -24.1504   24.0571 C   0  0  0  0  0  0  0  0  0  0  0  0
  -22.1623  -11.7854   17.0952 C   0  0  0  0  0  0  0  0  0  0  0  0
  -23.1855  -13.4309   15.5120 C   0  0  0  0  0  0  0  0  0  0  0  0
  -22.1422  -12.3199   22.3132 C   0  0  0  0  0  0  0  0  0  0  0  0
  -24.7037  -25.8059   20.5126 C   0  0  0  0  0  0  0  0  0  0  0  0
  -27.1620  -25.3391   20.5963 C   0  0  0  0  0  0  0  0  0  0  0  0
  -26.2070  -27.2268   21.9181 C   0  0  0  0  0  0  0  0  0  0  0  0
  -27.7427  -22.4054   26.5299 C   0  0  0  0  0  0  0  0  0  0  0  0
  -22.9523  -18.1023   21.8986 C   0  0  0  0  0  0  0  0  0  1  0  0
  -22.7640  -14.1334   17.8868 C   0  0  0  0  0  0  0  0  0  0  0  0
  -21.8601  -14.0724   19.1198 C   0  0  0  0  0  0  0  0  0  0  0  0
  -24.6237  -12.7193   22.2921 C   0  0  0  0  0  0  0  0  0  0  0  0
  -25.7716  -24.8493   22.6598 C   0  0  1  0  0  0  0  0  0  0  0  0
  -28.7491  -23.9120   24.8105 C   0  0  2  0  0  0  0  0  0  0  0  0
  -22.2605  -13.2648   16.7200 C   0  0  0  0  0  0  0  0  0  0  0  0
  -23.2938  -13.0069   21.5394 C   0  0  2  0  0  0  0  0  0  0  0  0
  -25.9424  -25.7857   21.4304 C   0  0  0  0  0  0  0  0  0  0  0  0
  -29.5807  -16.8195   20.2294 N   0  0  0  0  0  0  0  0  0  0  0  0
  -22.3631  -14.8937   20.1991 N   0  0  0  0  0  0  0  0  0  0  0  0
  -30.0336  -15.8024   20.9820 N   0  0  0  0  0  0  0  0  0  0  0  0
  -23.5874  -24.2379   23.6493 N   0  0  0  0  0  0  0  0  0  0  0  0
  -27.5558  -13.0548   20.0231 N   0  0  0  0  0  0  0  0  0  0  0  0
  -31.5150  -15.2777   22.7542 N   0  0  0  0  0  0  0  0  0  0  0  0
  -31.5050  -18.9514   23.7014 N   0  0  0  0  0  0  0  0  0  0  0  0
  -20.4526  -25.9365   23.5136 N   0  0  0  0  0  0  0  0  0  0  0  0
  -26.9188  -24.8311   23.5609 N   0  0  0  0  0  0  0  0  0  0  0  0
  -25.7734  -13.2158   21.5693 N   0  0  0  0  0  0  0  0  0  0  0  0
  -28.9362  -22.7390   25.7106 N   0  3  0  0  0  0  0  0  0  0  0  0
  -33.1804  -18.5915   22.1775 O   0  0  0  0  0  0  0  0  0  0  0  0
  -21.4404  -24.3674   22.1047 O   0  0  0  0  0  0  0  0  0  0  0  0
  -24.5268  -26.3389   24.0228 O   0  0  0  0  0  0  0  0  0  0  0  0
  -27.3215  -22.5522   23.4140 O   0  0  0  0  0  0  0  0  0  0  0  0
  -26.1082  -11.2800   20.3872 O   0  0  0  0  0  0  0  0  0  0  0  0
  -29.4119  -22.9546   18.5324 O   0  0  0  0  0  0  0  0  0  0  0  0
  -22.0132  -18.3144   22.9519 O   0  0  0  0  0  0  0  0  0  1  0  0
  -33.0806  -26.8928   19.7302 F   0  0  0  0  0  0  0  0  0  0  0  0
  -30.8432  -24.2155   16.5315 F   0  0  0  0  0  0  0  0  0  0  0  0
  -23.3935  -12.2683   20.3646 F   0  0  0  0  0  0  0  0  0  0  0  0
  1  2  1  0  0  0  0
  1  5  2  0  0  0  0
  2  6  2  0  0  0  0
  3  8  2  0  0  0  0
  3 17  1  0  0  0  0
  4  9  1  0  0  0  0
  4 17  2  0  0  0  0
  5 19  1  0  0  0  0
  6 21  1  0  0  0  0
  7 10  2  0  0  0  0
  7 20  1  0  0  0  0
  8 24  1  0  0  0  0
  9 24  2  0  0  0  0
 10 25  1  0  0  0  0
 11 12  2  0  0  0  0
 11 26  1  0  0  0  0
 12 27  1  0  0  0  0
 13 22  1  0  0  0  0
 13 25  2  0  0  0  0
 14 23  1  0  0  0  0
 14 30  2  0  0  0  0
 15 27  2  0  0  0  0
 15 28  1  0  0  0  0
 16 23  2  0  0  0  0
 16 67  1  0  0  0  0
 17 29  1  0  0  0  0
 18 29  1  0  0  0  0
 18 31  2  0  0  0  0
 18 32  1  0  0  0  0
 19 21  2  0  0  0  0
 19 37  1  0  0  0  0
 20 22  2  0  0  0  0
 20 38  1  0  0  0  0
 21 46  1  0  0  0  0
 22 39  1  0  0  0  0
 23 57  1  0  0  0  0
 24 82  1  0  0  0  0
 25 83  1  0  0  0  0
 26 28  2  0  0  0  0
 26 82  1  0  0  0  0
 27 84  1  0  0  0  0
 28 85  1  0  0  0  0
 29 66  2  0  0  0  0
 30 64  1  0  0  0  0
 30 67  1  0  0  0  0
 31 68  1  0  0  0  0
 31 71  1  0  0  0  0
 32 72  1  0  0  0  0
 32 77  2  0  0  0  0
 33 47  1  0  0  0  0
 33 73  1  0  0  0  0
 33 78  2  0  0  0  0
 34 61  1  0  0  0  0
 34 69  1  0  0  0  0
 34 79  2  0  0  0  0
 35 62  1  0  0  0  0
 35 74  1  0  0  0  0
 35 80  2  0  0  0  0
 36 70  1  0  0  0  0
 36 75  1  0  0  0  0
 36 81  2  0  0  0  0
 37 40  1  0  0  0  0
 38 47  1  0  0  0  0
 39 69  1  0  0  0  0
 40 42  1  0  0  0  0
 41 43  1  0  0  0  0
 41 44  1  0  0  0  0
 42 46  1  0  0  0  0
 43 48  1  0  0  0  0
 44 70  1  0  0  0  0
 45 48  1  0  0  0  0
 45 70  1  0  0  0  0
 46 73  1  0  0  0  0
 47 69  1  0  0  0  0
 48 68  1  0  0  0  0
 49 62  1  0  0  0  0
 50 63  1  0  0  0  0
 51 63  1  0  0  0  0
 52 64  1  0  0  0  0
 53 65  1  0  0  0  0
 54 65  1  0  0  0  0
 55 65  1  0  0  0  0
 56 76  1  0  0  0  0
 57 83  1  0  0  0  0
 58 59  1  0  0  0  0
 58 63  1  0  0  0  0
 59 67  1  0  0  0  0
 60 64  1  0  0  0  0
 60 75  1  0  0  0  0
 61 65  1  0  0  0  0
 61 74  1  0  0  0  0
 62 76  1  0  0  0  0
 64 86  1  0  0  0  0
 66 68  1  0  0  0  0
M  CHG  1  76   1
M  ISO  4  36 100  57 101  75 100  83 101
M  END
> <Batch ID>
0101

> <Smiles>
CNC(C)C(=O)NC(C(=O)N1Cc2cc([101O:1][101CH2:1]c3cc(C(C)(F)C[100NH:0][100C:0](=O)N4CCCC(n5nc(-c6ccc(Oc7ccc(F)cc7F)cc6)c(C(N)=O)c5N)C4)n(CCC(C)C)c3)ccc2CC1C(=O)NC1CCCc2ccccc21)C(C)(C)C

> <Shape>
0.219

> <Color>
0.064

> <Negative vol penalty>
0.000

$$$$

  -OEChem-04052319363D

 78 85  0     1  0  0  0  0  0999 V2000
  -16.5792  -28.5582   23.3833 C   0  0  0  0  0  0  0  0  0  0  0  0
  -17.2123  -28.8038   22.1690 C   0  0  0  0  0  0  0  0  0  0  0  0
  -28.2467  -14.4158   21.0341 C   0  0  0  0  0  0  0  0  0  0  0  0
  -26.2458  -15.3183   20.0249 C   0  0  0  0  0  0  0  0  0  0  0  0
  -17.1465  -29.0207   24.5700 C   0  0  0  0  0  0  0  0  0  0  0  0
  -18.4125  -29.5131   22.1407 C   0  0  0  0  0  0  0  0  0  0  0  0
  -25.3446  -27.4963   19.1565 C   0  0  0  0  0  0  0  0  0  0  0  0
  -27.6547  -13.1536   21.0793 C   0  0  0  0  0  0  0  0  0  0  0  0
  -25.6537  -14.0561   20.0700 C   0  0  0  0  0  0  0  0  0  0  0  0
  -26.6595  -27.1882   18.8066 C   0  0  0  0  0  0  0  0  0  0  0  0
  -24.1464  -12.0922   22.3726 C   0  0  0  0  0  0  0  0  0  0  0  0
  -22.8290  -12.0101   22.8234 C   0  0  0  0  0  0  0  0  0  0  0  0
  -27.4776  -28.7185   20.4908 C   0  0  0  0  0  0  0  0  0  0  0  0
  -22.1621  -11.0650   20.7023 C   0  0  0  0  0  0  0  0  0  0  0  0
  -27.5422  -15.4982   20.5070 C   0  0  0  0  0  0  0  0  0  0  0  0
  -28.9244  -17.3431   19.4145 C   0  0  0  0  0  0  0  0  0  0  0  0
  -18.3593  -29.7276   24.5571 C   0  0  0  0  0  0  0  0  0  0  0  0
  -25.0911  -28.4063   20.1866 C   0  0  0  0  0  0  0  0  0  0  0  0
  -18.9959  -29.9866   23.3282 C   0  0  0  0  0  0  0  0  0  0  0  0
  -26.1627  -29.0217   20.8542 C   0  0  0  0  0  0  0  0  0  0  0  0
  -26.3582  -12.9738   20.5972 C   0  0  0  0  0  0  0  0  0  0  0  0
  -27.7233  -27.7980   19.4720 C   0  0  0  0  0  0  0  0  0  0  0  0
  -24.4717  -11.6608   21.0866 C   0  0  0  0  0  0  0  0  0  0  0  0
  -21.8369  -11.4965   21.9883 C   0  0  0  0  0  0  0  0  0  0  0  0
  -23.4796  -11.1472   20.2515 C   0  0  0  0  0  0  0  0  0  0  0  0
  -28.1531  -16.8023   20.4607 C   0  0  0  0  0  0  0  0  0  0  0  0
  -29.2677  -18.5982   19.8543 C   0  0  0  0  0  0  0  0  0  0  0  0
  -29.2971  -16.7628   18.1575 C   0  0  0  0  0  0  0  0  0  0  0  0
  -22.5266  -30.1962   22.2592 C   0  0  0  0  0  0  0  0  0  0  0  0
  -24.7937  -29.3788   24.1572 C   0  0  0  0  0  0  0  0  0  0  0  0
  -26.8239  -27.6035   25.7788 C   0  0  0  0  0  0  0  0  0  0  0  0
  -27.9252  -23.4403   22.2826 C   0  0  0  0  0  0  0  0  0  0  0  0
  -18.9097  -30.2486   25.8610 C   0  0  0  0  0  0  0  0  0  0  0  0
  -23.6907  -28.8143   20.5556 C   0  0  0  0  0  0  0  0  0  0  0  0
  -25.8422  -30.0204   21.9325 C   0  0  0  0  0  0  0  0  0  0  0  0
  -20.3754  -30.6676   25.7794 C   0  0  0  0  0  0  0  0  0  0  0  0
  -28.8012  -20.7294   24.4180 C   0  0  0  0  0  0  0  0  0  0  0  0
  -20.6187  -31.5194   24.5376 C   0  0  0  0  0  0  0  0  0  0  0  0
  -28.7681  -19.5106   23.4941 C   0  0  0  0  0  0  0  0  0  0  0  0
  -27.7069  -21.7346   24.0656 C   0  0  0  0  0  0  0  0  0  0  0  0
  -27.6591  -20.9460   21.7311 C   0  0  0  0  0  0  0  0  0  0  0  0
  -20.3117  -30.7308   23.2588 C   0  0  1  0  0  0  0  0  0  0  0  0
  -23.5186  -29.0881   22.0605 C   0  0  1  0  0  0  0  0  0  0  0  0
  -28.7795  -19.9301   22.0119 C   0  0  2  0  0  0  0  0  0  0  0  0
  -28.2421  -27.0512   27.7740 C   0  0  0  0  0  0  0  0  0  0  0  0
  -32.2191  -26.9589   21.0741 C   0  0  0  0  0  0  0  0  0  0  0  0
  -31.3469  -28.9392   19.8220 C   0  0  0  0  0  0  0  0  0  0  0  0
  -25.8893  -32.2230   24.0390 C   0  0  0  0  0  0  0  0  0  0  0  0
  -27.4596  -31.6195   25.8932 C   0  0  0  0  0  0  0  0  0  0  0  0
  -24.9954  -31.5411   26.2729 C   0  0  0  0  0  0  0  0  0  0  0  0
  -25.4309  -25.0266   26.2010 C   0  0  0  0  0  0  0  0  0  0  0  0
  -28.1467  -25.0274   20.3875 C   0  0  0  0  0  0  0  0  0  0  0  0
  -26.0840  -29.7731   24.8302 C   0  0  1  0  0  0  0  0  0  0  0  0
  -26.9010  -26.8404   27.0888 C   0  0  2  0  0  0  0  0  0  0  0  0
  -31.2917  -27.4099   19.9443 C   0  0  0  0  0  0  0  0  0  0  0  0
  -29.6201  -25.4048   20.2105 C   0  0  2  0  0  0  0  0  0  0  0  0
  -29.8328  -26.9316   20.1477 C   0  0  2  0  0  0  0  0  0  1  0  0
  -26.1069  -31.2743   25.2346 C   0  0  0  0  0  0  0  0  0  0  0  0
  -28.0144  -17.6448   21.4878 N   0  0  0  0  0  0  0  0  0  0  0  0
  -28.7034  -18.7277   21.0892 N   0  0  0  0  0  0  0  0  0  0  0  0
  -24.7364  -29.5226   22.7657 N   0  0  0  0  0  0  0  0  0  0  0  0
  -27.7740  -22.0921   22.6466 N   0  0  0  0  0  0  0  0  0  0  0  0
  -29.9942  -19.5925   19.3014 N   0  0  0  0  0  0  0  0  0  0  0  0
  -28.8595  -15.4638   17.8653 N   0  0  0  0  0  0  0  0  0  0  0  0
  -21.3939  -29.8192   22.9551 N   0  0  0  0  0  0  0  0  0  0  0  0
  -26.2606  -28.8508   25.9467 N   0  0  0  0  0  0  0  0  0  0  0  0
  -27.9863  -23.6916   20.9173 N   0  0  0  0  0  0  0  0  0  0  0  0
  -30.1161  -24.7632   18.9565 N   0  3  0  0  0  0  0  0  0  0  0  0
  -26.7199  -25.3806   26.8493 N   0  3  0  0  0  0  0  0  0  0  0  0
  -30.0113  -17.3718   17.3253 O   0  0  0  0  0  0  0  0  0  0  0  0
  -22.7705  -31.3122   21.8155 O   0  0  0  0  0  0  0  0  0  0  0  0
  -23.8583  -28.9598   24.8449 O   0  0  0  0  0  0  0  0  0  0  0  0
  -27.2268  -27.1410   24.7138 O   0  0  0  0  0  0  0  0  0  0  0  0
  -28.0055  -24.3520   23.1129 O   0  0  0  0  0  0  0  0  0  0  0  0
  -25.7803  -11.7423   20.6408 O   0  0  0  0  0  0  0  0  0  0  0  0
  -29.0044  -27.4893   19.1284 O   0  0  0  0  0  0  0  0  0  1  0  0
  -20.5721  -11.4162   22.4219 F   0  0  0  0  0  0  0  0  0  0  0  0
  -23.7862  -10.7300   19.0154 F   0  0  0  0  0  0  0  0  0  0  0  0
  1  2  1  0  0  0  0
  1  5  2  0  0  0  0
  2  6  2  0  0  0  0
  3  8  2  0  0  0  0
  3 15  1  0  0  0  0
  4  9  1  0  0  0  0
  4 15  2  0  0  0  0
  5 17  1  0  0  0  0
  6 19  1  0  0  0  0
  7 10  2  0  0  0  0
  7 18  1  0  0  0  0
  8 21  1  0  0  0  0
  9 21  2  0  0  0  0
 10 22  1  0  0  0  0
 11 12  2  0  0  0  0
 11 23  1  0  0  0  0
 12 24  1  0  0  0  0
 13 20  1  0  0  0  0
 13 22  2  0  0  0  0
 14 24  2  0  0  0  0
 14 25  1  0  0  0  0
 15 26  1  0  0  0  0
 16 26  1  0  0  0  0
 16 27  2  0  0  0  0
 16 28  1  0  0  0  0
 17 19  2  0  0  0  0
 17 33  1  0  0  0  0
 18 20  2  0  0  0  0
 18 34  1  0  0  0  0
 19 42  1  0  0  0  0
 20 35  1  0  0  0  0
 21 75  1  0  0  0  0
 22 76  1  0  0  0  0
 23 25  2  0  0  0  0
 23 75  1  0  0  0  0
 24 77  1  0  0  0  0
 25 78  1  0  0  0  0
 26 59  2  0  0  0  0
 27 60  1  0  0  0  0
 27 63  1  0  0  0  0
 28 64  1  0  0  0  0
 28 70  2  0  0  0  0
 29 43  1  0  0  0  0
 29 65  1  0  0  0  0
 29 71  2  0  0  0  0
 30 53  1  0  0  0  0
 30 61  1  0  0  0  0
 30 72  2  0  0  0  0
 31 54  1  0  0  0  0
 31 66  1  0  0  0  0
 31 73  2  0  0  0  0
 32 62  1  0  0  0  0
 32 67  1  0  0  0  0
 32 74  2  0  0  0  0
 33 36  1  0  0  0  0
 34 43  1  0  0  0  0
 35 61  1  0  0  0  0
 36 38  1  0  0  0  0
 37 39  1  0  0  0  0
 37 40  1  0  0  0  0
 38 42  1  0  0  0  0
 39 44  1  0  0  0  0
 40 62  1  0  0  0  0
 41 44  1  0  0  0  0
 41 62  1  0  0  0  0
 42 65  1  0  0  0  0
 43 61  1  0  0  0  0
 44 60  1  0  0  0  0
 45 54  1  0  0  0  0
 46 55  1  0  0  0  0
 47 55  1  0  0  0  0
 48 58  1  0  0  0  0
 49 58  1  0  0  0  0
 50 58  1  0  0  0  0
 51 69  1  0  0  0  0
 52 56  1  0  0  0  0
 52 67  1  0  0  0  0
 53 58  1  0  0  0  0
 53 66  1  0  0  0  0
 54 69  1  0  0  0  0
 55 57  1  0  0  0  0
 56 57  1  0  0  0  0
 56 68  1  0  0  0  0
 57 76  1  0  0  0  0
 59 60  1  0  0  0  0
M  CHG  2  68   1  69   1
M  ISO  4  32 100  57 101  67 100  76 101
M  END
> <Batch ID>
0101

> <Smiles>
CNC(C)C(=O)NC(C(=O)N1Cc2cc([101O:1][101CH:1](C(C)C)C(N)C[100NH:0][100C:0](=O)N3CCCC(n4nc(-c5ccc(Oc6ccc(F)cc6F)cc5)c(C(N)=O)c4N)C3)ccc2CC1C(=O)NC1CCCc2ccccc21)C(C)(C)C

> <Shape>
0.300

> <Color>
0.096

> <Negative vol penalty>
0.000

$$$$

  -OEChem-04052319363D

 83 91  0     1  0  0  0  0  0999 V2000
  -20.6469  -18.0769   22.6826 C   0  0  0  0  0  0  0  0  0  0  0  0
  -21.9297  -17.9405   23.2034 C   0  0  0  0  0  0  0  0  0  0  0  0
  -23.0005   -9.8936   19.9820 C   0  0  0  0  0  0  0  0  0  0  0  0
  -23.7291   -9.9452   22.2849 C   0  0  0  0  0  0  0  0  0  0  0  0
  -19.5664  -18.2840   23.5390 C   0  0  0  0  0  0  0  0  0  0  0  0
  -22.1328  -18.0122   24.5811 C   0  0  0  0  0  0  0  0  0  0  0  0
  -25.2327  -14.3856   26.2791 C   0  0  0  0  0  0  0  0  0  0  0  0
  -22.2358   -8.7582   20.2493 C   0  0  0  0  0  0  0  0  0  0  0  0
  -22.9643   -8.8098   22.5523 C   0  0  0  0  0  0  0  0  0  0  0  0
  -26.5996  -14.5694   26.0753 C   0  0  0  0  0  0  0  0  0  0  0  0
  -23.2121   -5.4712   22.0797 C   0  0  0  0  0  0  0  0  0  0  0  0
  -23.8020   -4.4546   22.8308 C   0  0  0  0  0  0  0  0  0  0  0  0
  -29.4848  -18.4924   23.1897 C   0  0  0  0  0  0  0  0  0  0  0  0
  -26.8324  -15.3216   28.3555 C   0  0  0  0  0  0  0  0  0  0  0  0
  -22.0803   -4.6953   24.5086 C   0  0  0  0  0  0  0  0  0  0  0  0
  -29.0490  -18.9731   24.4139 C   0  0  0  0  0  0  0  0  0  0  0  0
  -23.7473  -10.4872   20.9997 C   0  0  0  0  0  0  0  0  0  0  0  0
  -24.1292  -13.0032   20.8234 C   0  0  0  0  0  0  0  0  0  0  0  0
  -19.7551  -18.3487   24.9286 C   0  0  0  0  0  0  0  0  0  0  0  0
  -24.6525  -14.6792   27.5216 C   0  0  0  0  0  0  0  0  0  0  0  0
  -21.0540  -18.2217   25.4569 C   0  0  0  0  0  0  0  0  0  0  0  0
  -25.4583  -15.1382   28.5733 C   0  0  0  0  0  0  0  0  0  0  0  0
  -30.3292  -17.3878   23.1873 C   0  0  0  0  0  0  0  0  0  0  0  0
  -30.7068  -16.8058   24.3924 C   0  0  0  0  0  0  0  0  0  0  0  0
  -22.2177   -8.2163   21.5345 C   0  0  0  0  0  0  0  0  0  0  0  0
  -27.3992  -15.0402   27.1127 C   0  0  0  0  0  0  0  0  0  0  0  0
  -22.0563   -6.0999   22.5430 C   0  0  0  0  0  0  0  0  0  0  0  0
  -23.2361   -4.0667   24.0452 C   0  0  0  0  0  0  0  0  0  0  0  0
  -21.4904   -5.7119   23.7575 C   0  0  0  0  0  0  0  0  0  0  0  0
  -24.5379  -11.6598   20.7240 C   0  0  0  0  0  0  0  0  0  0  0  0
  -30.2165  -17.3621   25.5628 C   0  0  0  0  0  0  0  0  0  0  0  0
  -25.2375  -13.7272   20.4574 C   0  0  0  0  0  0  0  0  0  0  0  0
  -22.8612  -13.5480   21.2119 C   0  0  0  0  0  0  0  0  0  0  0  0
  -22.4384  -16.7214   28.5367 C   0  0  0  0  0  0  0  0  0  0  0  0
  -22.8181  -15.1351   31.3406 C   0  0  0  0  0  0  0  0  0  0  0  0
  -24.8135  -13.2164   33.3366 C   0  0  0  0  0  0  0  0  0  0  0  0
  -30.7331  -14.6685   20.6978 C   0  0  0  0  0  0  0  0  0  0  0  0
  -18.5629  -18.6213   25.8111 C   0  0  0  0  0  0  0  0  0  0  0  0
  -23.1811  -14.4501   27.7333 C   0  0  0  0  0  0  0  0  0  0  0  0
  -24.8878  -15.4488   29.9322 C   0  0  0  0  0  0  0  0  0  0  0  0
  -18.8122  -18.3106   27.2848 C   0  0  0  0  0  0  0  0  0  0  0  0
  -29.5919  -12.2437   18.3537 C   0  0  0  0  0  0  0  0  0  0  0  0
  -20.1502  -18.8897   27.7334 C   0  0  0  0  0  0  0  0  0  0  0  0
  -28.1443  -11.9822   18.7735 C   0  0  0  0  0  0  0  0  0  0  0  0
  -30.4958  -12.4801   19.5617 C   0  0  0  0  0  0  0  0  0  0  0  0
  -28.5868  -13.2731   20.9034 C   0  0  0  0  0  0  0  0  0  0  0  0
  -21.3114  -18.2689   26.9474 C   0  0  1  0  0  0  0  0  0  0  0  0
  -22.6085  -15.2699   28.8855 C   0  0  1  0  0  0  0  0  0  0  0  0
  -27.6262  -13.0844   19.7168 C   0  0  2  0  0  0  0  0  0  0  0  0
  -33.0403  -15.9892   24.8098 C   0  0  0  0  0  0  0  0  0  0  0  0
  -31.3706  -17.7811   27.7592 C   0  0  0  0  0  0  0  0  0  0  0  0
  -24.8647  -12.1068   35.5868 C   0  0  0  0  0  0  0  0  0  0  0  0
  -23.3079  -17.8417   32.6614 C   0  0  0  0  0  0  0  0  0  0  0  0
  -24.2694  -16.6290   34.6295 C   0  0  0  0  0  0  0  0  0  0  0  0
  -21.8840  -16.2741   33.9917 C   0  0  0  0  0  0  0  0  0  0  0  0
  -25.1104  -10.5288   32.1335 C   0  0  0  0  0  0  0  0  0  0  0  0
  -31.6114  -15.6200   24.4204 C   0  0  0  0  0  0  0  0  0  0  0  0
  -30.8150  -16.8474   21.8831 C   0  0  0  0  0  0  0  0  0  0  0  0
  -29.3680  -16.2502   27.6745 C   0  0  0  0  0  0  0  0  0  1  0  0
  -30.5942  -16.7696   26.9114 C   0  0  1  0  0  0  0  0  0  0  0  0
  -23.7124  -15.2943   32.5464 C   0  0  1  0  0  0  0  0  0  0  0  0
  -24.5348  -11.9411   34.1115 C   0  0  2  0  0  0  0  0  0  0  0  0
  -23.3041  -16.5059   33.4312 C   0  0  0  0  0  0  0  0  0  0  0  0
  -29.3943  -18.4344   25.6048 N   0  0  0  0  0  0  0  0  0  0  0  0
  -25.8067  -11.5349   20.3259 N   0  0  0  0  0  0  0  0  0  0  0  0
  -26.2049  -12.8091   20.1719 N   0  0  0  0  0  0  0  0  0  0  0  0
  -23.4426  -15.2145   30.0878 N   0  0  0  0  0  0  0  0  0  0  0  0
  -29.9490  -13.5380   20.4147 N   0  0  0  0  0  0  0  0  0  0  0  0
  -25.4692  -15.0532   20.3552 N   0  0  0  0  0  0  0  0  0  0  0  0
  -21.8310  -12.6626   21.5569 N   0  0  0  0  0  0  0  0  0  0  0  0
  -21.6131  -16.9463   27.4515 N   0  0  0  0  0  0  0  0  0  0  0  0
  -23.6914  -14.0122   33.2423 N   0  0  0  0  0  0  0  0  0  0  0  0
  -30.1368  -15.6265   21.5086 N   0  0  0  0  0  0  0  0  0  0  0  0
  -25.3510  -10.8176   33.5707 N   0  3  0  0  0  0  0  0  0  0  0  0
  -22.6430  -14.7831   21.2361 O   0  0  0  0  0  0  0  0  0  0  0  0
  -23.0121  -17.5744   29.2038 O   0  0  0  0  0  0  0  0  0  0  0  0
  -21.6112  -14.9401   31.5044 O   0  0  0  0  0  0  0  0  0  0  0  0
  -25.9172  -13.4819   32.8655 O   0  0  0  0  0  0  0  0  0  0  0  0
  -31.8777  -14.8159   20.2560 O   0  0  0  0  0  0  0  0  0  0  0  0
  -21.4714   -7.1084   21.7958 O   0  0  0  0  0  0  0  0  0  0  0  0
  -28.7335  -15.2212   26.9162 O   0  0  0  0  0  0  0  0  0  1  0  0
  -23.8018   -3.0894   24.7656 F   0  0  0  0  0  0  0  0  0  0  0  0
  -20.3795   -6.3113   24.2072 F   0  0  0  0  0  0  0  0  0  0  0  0
  1  2  1  0  0  0  0
  1  5  2  0  0  0  0
  2  6  2  0  0  0  0
  3  8  2  0  0  0  0
  3 17  1  0  0  0  0
  4  9  1  0  0  0  0
  4 17  2  0  0  0  0
  5 19  1  0  0  0  0
  6 21  1  0  0  0  0
  7 10  2  0  0  0  0
  7 20  1  0  0  0  0
  8 25  1  0  0  0  0
  9 25  2  0  0  0  0
 10 26  1  0  0  0  0
 11 12  2  0  0  0  0
 11 27  1  0  0  0  0
 12 28  1  0  0  0  0
 13 16  1  0  0  0  0
 13 23  2  0  0  0  0
 14 22  1  0  0  0  0
 14 26  2  0  0  0  0
 15 28  2  0  0  0  0
 15 29  1  0  0  0  0
 16 64  2  0  0  0  0
 17 30  1  0  0  0  0
 18 30  1  0  0  0  0
 18 32  2  0  0  0  0
 18 33  1  0  0  0  0
 19 21  2  0  0  0  0
 19 38  1  0  0  0  0
 20 22  2  0  0  0  0
 20 39  1  0  0  0  0
 21 47  1  0  0  0  0
 22 40  1  0  0  0  0
 23 24  1  0  0  0  0
 23 58  1  0  0  0  0
 24 31  2  0  0  0  0
 24 57  1  0  0  0  0
 25 80  1  0  0  0  0
 26 81  1  0  0  0  0
 27 29  2  0  0  0  0
 27 80  1  0  0  0  0
 28 82  1  0  0  0  0
 29 83  1  0  0  0  0
 30 65  2  0  0  0  0
 31 60  1  0  0  0  0
 31 64  1  0  0  0  0
 32 66  1  0  0  0  0
 32 69  1  0  0  0  0
 33 70  1  0  0  0  0
 33 75  2  0  0  0  0
 34 48  1  0  0  0  0
 34 71  1  0  0  0  0
 34 76  2  0  0  0  0
 35 61  1  0  0  0  0
 35 67  1  0  0  0  0
 35 77  2  0  0  0  0
 36 62  1  0  0  0  0
 36 72  1  0  0  0  0
 36 78  2  0  0  0  0
 37 68  1  0  0  0  0
 37 73  1  0  0  0  0
 37 79  2  0  0  0  0
 38 41  1  0  0  0  0
 39 48  1  0  0  0  0
 40 67  1  0  0  0  0
 41 43  1  0  0  0  0
 42 44  1  0  0  0  0
 42 45  1  0  0  0  0
 43 47  1  0  0  0  0
 44 49  1  0  0  0  0
 45 68  1  0  0  0  0
 46 49  1  0  0  0  0
 46 68  1  0  0  0  0
 47 71  1  0  0  0  0
 48 67  1  0  0  0  0
 49 66  1  0  0  0  0
 50 57  1  0  0  0  0
 51 60  1  0  0  0  0
 52 62  1  0  0  0  0
 53 63  1  0  0  0  0
 54 63  1  0  0  0  0
 55 63  1  0  0  0  0
 56 74  1  0  0  0  0
 58 73  1  0  0  0  0
 59 60  1  0  0  0  0
 59 81  1  0  0  0  0
 61 63  1  0  0  0  0
 61 72  1  0  0  0  0
 62 74  1  0  0  0  0
 65 66  1  0  0  0  0
M  CHG  1  74   1
M  ISO  4  37 100  59 101  73 100  81 101
M  END
> <Batch ID>
0101

> <Smiles>
CCc1c(C[100NH:0][100C:0](=O)N2CCCC(n3nc(-c4ccc(Oc5ccc(F)cc5F)cc4)c(C(N)=O)c3N)C2)ccnc1C(C)[101CH2:1][101O:1]c1ccc2c(c1)CN(C(=O)C(NC(=O)C(C)NC)C(C)(C)C)C(C(=O)NC1CCCc3ccccc31)C2

> <Shape>
0.171

> <Color>
0.193

> <Negative vol penalty>
0.000

$$$$

  -OEChem-04052319363D

 84 92  0     1  0  0  0  0  0999 V2000
  -29.4583  -23.8597   29.8400 C   0  0  0  0  0  0  0  0  0  0  0  0
  -29.4585  -23.3474   28.5466 C   0  0  0  0  0  0  0  0  0  0  0  0
  -23.1742   -9.7701   20.0088 C   0  0  0  0  0  0  0  0  0  0  0  0
  -23.8267   -9.9680   22.3266 C   0  0  0  0  0  0  0  0  0  0  0  0
  -28.3464  -24.5554   30.3129 C   0  0  0  0  0  0  0  0  0  0  0  0
  -28.3462  -23.5295   27.7256 C   0  0  0  0  0  0  0  0  0  0  0  0
  -29.6088  -24.9369   23.0277 C   0  0  0  0  0  0  0  0  0  0  0  0
  -22.4637   -8.6076   20.3080 C   0  0  0  0  0  0  0  0  0  0  0  0
  -23.1162   -8.8056   22.6259 C   0  0  0  0  0  0  0  0  0  0  0  0
  -30.0717  -23.9420   22.1677 C   0  0  0  0  0  0  0  0  0  0  0  0
  -23.1471   -5.3438   20.8599 C   0  0  0  0  0  0  0  0  0  0  0  0
  -23.2960   -4.2549   20.0010 C   0  0  0  0  0  0  0  0  0  0  0  0
  -27.8896  -23.8178   21.1469 C   0  0  0  0  0  0  0  0  0  0  0  0
  -29.3465  -17.8545   23.8888 C   0  0  0  0  0  0  0  0  0  0  0  0
  -20.9257   -4.2979   19.5354 C   0  0  0  0  0  0  0  0  0  0  0  0
  -28.1252  -19.9733   22.6783 C   0  0  0  0  0  0  0  0  0  0  0  0
  -23.8558  -10.4502   21.0180 C   0  0  0  0  0  0  0  0  0  0  0  0
  -24.1071  -12.9727   20.7328 C   0  0  0  0  0  0  0  0  0  0  0  0
  -27.2238  -24.7545   29.4940 C   0  0  0  0  0  0  0  0  0  0  0  0
  -28.2777  -25.3728   22.9610 C   0  0  0  0  0  0  0  0  0  0  0  0
  -27.2177  -24.2274   28.1884 C   0  0  0  0  0  0  0  0  0  0  0  0
  -27.4130  -24.8202   22.0054 C   0  0  0  0  0  0  0  0  0  0  0  0
  -29.6020  -18.1135   22.5468 C   0  0  0  0  0  0  0  0  0  0  0  0
  -28.9837  -19.1912   21.9225 C   0  0  0  0  0  0  0  0  0  0  0  0
  -22.4347   -8.1254   21.6166 C   0  0  0  0  0  0  0  0  0  0  0  0
  -29.2112  -23.3802   21.2290 C   0  0  0  0  0  0  0  0  0  0  0  0
  -21.8874   -5.9097   21.0566 C   0  0  0  0  0  0  0  0  0  0  0  0
  -22.1853   -3.7319   19.3387 C   0  0  0  0  0  0  0  0  0  0  0  0
  -20.7767   -5.3868   20.3943 C   0  0  0  0  0  0  0  0  0  0  0  0
  -24.5904  -11.6507   20.7094 C   0  0  0  0  0  0  0  0  0  0  0  0
  -28.4720  -18.6966   24.5566 C   0  0  0  0  0  0  0  0  0  0  0  0
  -25.1857  -13.7392   20.3645 C   0  0  0  0  0  0  0  0  0  0  0  0
  -22.8000  -13.4640   21.0583 C   0  0  0  0  0  0  0  0  0  0  0  0
  -25.8115  -25.3647   24.9663 C   0  0  0  0  0  0  0  0  0  0  0  0
  -24.3915  -27.0855   22.6115 C   0  0  0  0  0  0  0  0  0  0  0  0
  -24.2560  -27.9057   19.3016 C   0  0  0  0  0  0  0  0  0  0  0  0
  -30.6125  -14.9927   20.7171 C   0  0  0  0  0  0  0  0  0  0  0  0
  -26.0266  -25.4721   30.0653 C   0  0  0  0  0  0  0  0  0  0  0  0
  -27.8012  -26.4658   23.8779 C   0  0  0  0  0  0  0  0  0  0  0  0
  -25.9803  -25.2675   21.8795 C   0  0  0  0  0  0  0  0  0  0  0  0
  -25.0367  -25.9457   29.0041 C   0  0  0  0  0  0  0  0  0  0  0  0
  -29.6772  -12.4030   18.4598 C   0  0  0  0  0  0  0  0  0  0  0  0
  -24.7595  -24.8329   27.9983 C   0  0  0  0  0  0  0  0  0  0  0  0
  -28.2334  -12.0815   18.8499 C   0  0  0  0  0  0  0  0  0  0  0  0
  -30.5289  -12.7444   19.6804 C   0  0  0  0  0  0  0  0  0  0  0  0
  -28.5389  -13.4918   20.9275 C   0  0  0  0  0  0  0  0  0  0  0  0
  -26.0399  -24.4258   27.2592 C   0  0  1  0  0  0  0  0  0  0  0  0
  -26.2873  -26.4699   24.0664 C   0  0  1  0  0  0  0  0  0  0  0  0
  -27.6274  -13.1958   19.7242 C   0  0  2  0  0  0  0  0  0  0  0  0
  -26.6873  -18.1316   26.2446 C   0  0  0  0  0  0  0  0  0  0  0  0
  -28.6168  -19.6161   26.8992 C   0  0  0  0  0  0  0  0  0  0  0  0
  -22.9643  -29.3097   17.6713 C   0  0  0  0  0  0  0  0  0  0  0  0
  -22.1091  -25.0616   22.6806 C   0  0  0  0  0  0  0  0  0  0  0  0
  -21.3572  -25.9384   20.4593 C   0  0  0  0  0  0  0  0  0  0  0  0
  -21.3843  -27.4439   22.4482 C   0  0  0  0  0  0  0  0  0  0  0  0
  -26.6541  -29.4844   18.5833 C   0  0  0  0  0  0  0  0  0  0  0  0
  -29.2241  -19.5173   20.4702 C   0  0  0  0  0  0  0  0  0  0  0  0
  -30.5399  -17.2251   21.7988 C   0  0  0  0  0  0  0  0  0  0  0  0
  -30.5699  -20.1959   20.2059 C   0  0  0  0  0  0  0  0  0  0  0  0
  -30.6999  -21.5598   20.8739 C   0  0  0  0  0  0  0  0  0  1  0  0
  -28.1741  -18.4485   25.9977 C   0  0  0  0  0  0  0  0  0  0  0  0
  -23.5726  -26.7510   21.3882 C   0  0  1  0  0  0  0  0  0  0  0  0
  -24.1675  -29.2487   18.5995 C   0  0  2  0  0  0  0  0  0  0  0  0
  -22.1322  -26.2887   21.7475 C   0  0  0  0  0  0  0  0  0  0  0  0
  -27.8525  -19.7529   23.9840 N   0  0  0  0  0  0  0  0  0  0  0  0
  -25.8759  -11.5779   20.3543 N   0  0  0  0  0  0  0  0  0  0  0  0
  -26.2095  -12.8637   20.1510 N   0  0  0  0  0  0  0  0  0  0  0  0
  -25.5600  -26.3345   22.8027 N   0  0  0  0  0  0  0  0  0  0  0  0
  -29.8996  -13.8087   20.4659 N   0  0  0  0  0  0  0  0  0  0  0  0
  -25.3488  -15.0698   20.2057 N   0  0  0  0  0  0  0  0  0  0  0  0
  -21.8087  -12.5399   21.4155 N   0  0  0  0  0  0  0  0  0  0  0  0
  -26.3614  -25.3950   26.2337 N   0  0  0  0  0  0  0  0  0  0  0  0
  -23.6252  -27.9278   20.5275 N   0  0  0  0  0  0  0  0  0  0  0  0
  -29.9405  -15.9526   21.4638 N   0  0  0  0  0  0  0  0  0  0  0  0
  -25.3964  -29.4933   17.7926 N   0  3  0  0  0  0  0  0  0  0  0  0
  -22.5150  -14.6849   21.0172 O   0  0  0  0  0  0  0  0  0  0  0  0
  -25.0040  -24.5460   24.5428 O   0  0  0  0  0  0  0  0  0  0  0  0
  -24.0123  -27.9849   23.3658 O   0  0  0  0  0  0  0  0  0  0  0  0
  -24.8244  -26.9332   18.8100 O   0  0  0  0  0  0  0  0  0  0  0  0
  -31.7607  -15.1825   20.3018 O   0  0  0  0  0  0  0  0  0  0  0  0
  -21.7413   -6.9913   21.9090 O   0  0  0  0  0  0  0  0  0  0  0  0
  -29.6602  -22.4085   20.3888 O   0  0  0  0  0  0  0  0  0  1  0  0
  -22.3288   -2.6872   18.5128 F   0  0  0  0  0  0  0  0  0  0  0  0
  -19.5643   -5.9271   20.5783 F   0  0  0  0  0  0  0  0  0  0  0  0
  1  2  1  0  0  0  0
  1  5  2  0  0  0  0
  2  6  2  0  0  0  0
  3  8  2  0  0  0  0
  3 17  1  0  0  0  0
  4  9  1  0  0  0  0
  4 17  2  0  0  0  0
  5 19  1  0  0  0  0
  6 21  1  0  0  0  0
  7 10  2  0  0  0  0
  7 20  1  0  0  0  0
  8 25  1  0  0  0  0
  9 25  2  0  0  0  0
 10 26  1  0  0  0  0
 11 12  2  0  0  0  0
 11 27  1  0  0  0  0
 12 28  1  0  0  0  0
 13 22  1  0  0  0  0
 13 26  2  0  0  0  0
 14 23  1  0  0  0  0
 14 31  2  0  0  0  0
 15 28  2  0  0  0  0
 15 29  1  0  0  0  0
 16 24  1  0  0  0  0
 16 65  2  0  0  0  0
 17 30  1  0  0  0  0
 18 30  1  0  0  0  0
 18 32  2  0  0  0  0
 18 33  1  0  0  0  0
 19 21  2  0  0  0  0
 19 38  1  0  0  0  0
 20 22  2  0  0  0  0
 20 39  1  0  0  0  0
 21 47  1  0  0  0  0
 22 40  1  0  0  0  0
 23 24  2  0  0  0  0
 23 58  1  0  0  0  0
 24 57  1  0  0  0  0
 25 81  1  0  0  0  0
 26 82  1  0  0  0  0
 27 29  2  0  0  0  0
 27 81  1  0  0  0  0
 28 83  1  0  0  0  0
 29 84  1  0  0  0  0
 30 66  2  0  0  0  0
 31 61  1  0  0  0  0
 31 65  1  0  0  0  0
 32 67  1  0  0  0  0
 32 70  1  0  0  0  0
 33 71  1  0  0  0  0
 33 76  2  0  0  0  0
 34 48  1  0  0  0  0
 34 72  1  0  0  0  0
 34 77  2  0  0  0  0
 35 62  1  0  0  0  0
 35 68  1  0  0  0  0
 35 78  2  0  0  0  0
 36 63  1  0  0  0  0
 36 73  1  0  0  0  0
 36 79  2  0  0  0  0
 37 69  1  0  0  0  0
 37 74  1  0  0  0  0
 37 80  2  0  0  0  0
 38 41  1  0  0  0  0
 39 48  1  0  0  0  0
 40 68  1  0  0  0  0
 41 43  1  0  0  0  0
 42 44  1  0  0  0  0
 42 45  1  0  0  0  0
 43 47  1  0  0  0  0
 44 49  1  0  0  0  0
 45 69  1  0  0  0  0
 46 49  1  0  0  0  0
 46 69  1  0  0  0  0
 47 72  1  0  0  0  0
 48 68  1  0  0  0  0
 49 67  1  0  0  0  0
 50 61  1  0  0  0  0
 51 61  1  0  0  0  0
 52 63  1  0  0  0  0
 53 64  1  0  0  0  0
 54 64  1  0  0  0  0
 55 64  1  0  0  0  0
 56 75  1  0  0  0  0
 57 59  1  0  0  0  0
 58 74  1  0  0  0  0
 59 60  1  0  0  0  0
 60 82  1  0  0  0  0
 62 64  1  0  0  0  0
 62 73  1  0  0  0  0
 63 75  1  0  0  0  0
 66 67  1  0  0  0  0
M  CHG  1  75   1
M  ISO  4  37 100  60 101  74 100  82 101
M  END
> <Batch ID>
0101

> <Smiles>
CNC(C)C(=O)NC(C(=O)N1Cc2cc([101O:1][101CH2:1]CCc3cnc(C(C)C)cc3C[100NH:0][100C:0](=O)N3CCCC(n4nc(-c5ccc(Oc6ccc(F)cc6F)cc5)c(C(N)=O)c4N)C3)ccc2CC1C(=O)NC1CCCc2ccccc21)C(C)(C)C

> <Shape>
0.220

> <Color>
0.194

> <Negative vol penalty>
0.000

$$$$

  -OEChem-04052319363D

 91 99  0     1  0  0  0  0  0999 V2000
  -29.1982  -17.4420   18.2436 C   0  0  0  0  0  0  0  0  0  0  0  0
  -28.1008  -18.2893   18.1291 C   0  0  0  0  0  0  0  0  0  0  0  0
  -22.9747  -14.2533   20.9184 C   0  0  0  0  0  0  0  0  0  0  0  0
  -25.1440  -14.7425   21.8629 C   0  0  0  0  0  0  0  0  0  0  0  0
  -30.2714  -17.7995   19.0587 C   0  0  0  0  0  0  0  0  0  0  0  0
  -28.0754  -19.4942   18.8305 C   0  0  0  0  0  0  0  0  0  0  0  0
  -25.5868  -24.7769   16.9849 C   0  0  0  0  0  0  0  0  0  0  0  0
  -23.4028  -12.9637   20.6031 C   0  0  0  0  0  0  0  0  0  0  0  0
  -25.5720  -13.4529   21.5477 C   0  0  0  0  0  0  0  0  0  0  0  0
  -24.3632  -25.3847   17.2623 C   0  0  0  0  0  0  0  0  0  0  0  0
  -23.8091   -9.4254   19.8749 C   0  0  0  0  0  0  0  0  0  0  0  0
  -22.9478   -8.3672   20.1647 C   0  0  0  0  0  0  0  0  0  0  0  0
  -25.4134  -26.6946   18.9944 C   0  0  0  0  0  0  0  0  0  0  0  0
  -18.2900  -27.9964   23.4901 C   0  0  0  0  0  0  0  0  0  0  0  0
  -20.0723  -28.3594   21.9000 C   0  0  0  0  0  0  0  0  0  0  0  0
  -22.9978   -8.9673   22.5045 C   0  0  0  0  0  0  0  0  0  0  0  0
  -23.8454  -15.1427   21.5482 C   0  0  0  0  0  0  0  0  0  0  0  0
  -22.7890  -16.8993   23.0668 C   0  0  0  0  0  0  0  0  0  0  0  0
  -30.2634  -19.0138   19.7629 C   0  0  0  0  0  0  0  0  0  0  0  0
  -26.7326  -25.1160   17.7188 C   0  0  0  0  0  0  0  0  0  0  0  0
  -29.1489  -19.8677   19.6568 C   0  0  0  0  0  0  0  0  0  0  0  0
  -26.6509  -26.0915   18.7227 C   0  0  0  0  0  0  0  0  0  0  0  0
  -19.1253  -28.8666   22.7897 C   0  0  0  0  0  0  0  0  0  0  0  0
  -18.4018  -26.6189   23.3009 C   0  0  0  0  0  0  0  0  0  0  0  0
  -20.1841  -26.9819   21.7108 C   0  0  0  0  0  0  0  0  0  0  0  0
  -19.3488  -26.1117   22.4112 C   0  0  0  0  0  0  0  0  0  0  0  0
  -24.7014  -12.5635   20.9178 C   0  0  0  0  0  0  0  0  0  0  0  0
  -24.2757  -26.3416   18.2691 C   0  0  0  0  0  0  0  0  0  0  0  0
  -24.2649  -10.2545   20.8999 C   0  0  0  0  0  0  0  0  0  0  0  0
  -22.5421   -8.1382   21.4794 C   0  0  0  0  0  0  0  0  0  0  0  0
  -23.8592  -10.0254   22.2147 C   0  0  0  0  0  0  0  0  0  0  0  0
  -23.4040  -16.4751   21.8736 C   0  0  0  0  0  0  0  0  0  0  0  0
  -22.5682  -18.2421   22.8808 C   0  0  0  0  0  0  0  0  0  0  0  0
  -22.4480  -16.1468   24.2386 C   0  0  0  0  0  0  0  0  0  0  0  0
  -28.7183  -23.5374   19.6342 C   0  0  0  0  0  0  0  0  0  0  0  0
  -30.3720  -26.3274   19.5750 C   0  0  0  0  0  0  0  0  0  0  0  0
  -30.3359  -29.7072   19.1035 C   0  0  0  0  0  0  0  0  0  0  0  0
  -24.2973  -23.2692   21.1825 C   0  0  0  0  0  0  0  0  0  0  0  0
  -31.4257  -19.3353   20.6687 C   0  0  0  0  0  0  0  0  0  0  0  0
  -28.0507  -24.4705   17.3893 C   0  0  0  0  0  0  0  0  0  0  0  0
  -27.8558  -26.5057   19.5259 C   0  0  0  0  0  0  0  0  0  0  0  0
  -31.4858  -20.8028   21.0849 C   0  0  0  0  0  0  0  0  0  0  0  0
  -22.9317  -21.0926   18.7179 C   0  0  0  0  0  0  0  0  0  0  0  0
  -30.1096  -21.2886   21.5287 C   0  0  0  0  0  0  0  0  0  0  0  0
  -22.8881  -19.7318   19.4154 C   0  0  0  0  0  0  0  0  0  0  0  0
  -24.1649  -21.8961   19.1250 C   0  0  0  0  0  0  0  0  0  0  0  0
  -24.2991  -20.7025   21.2770 C   0  0  0  0  0  0  0  0  0  0  0  0
  -29.0953  -21.1946   20.3825 C   0  0  1  0  0  0  0  0  0  0  0  0
  -29.0453  -24.5194   18.5450 C   0  0  1  0  0  0  0  0  0  0  0  0
  -23.0445  -19.8784   20.9410 C   0  0  2  0  0  0  0  0  0  0  0  0
  -17.4945  -25.7086   24.0623 C   0  0  0  0  0  0  0  0  0  0  0  0
  -19.9061  -30.8452   24.1171 C   0  0  0  0  0  0  0  0  0  0  0  0
  -31.8332  -31.7202   19.1607 C   0  0  0  0  0  0  0  0  0  0  0  0
  -23.7280  -25.7185   25.4437 C   0  0  0  0  0  0  0  0  0  0  0  0
  -25.8608  -25.0066   23.4285 C   0  0  0  0  0  0  0  0  0  0  0  0
  -30.3085  -26.2849   22.6252 C   0  0  0  0  0  0  0  0  0  0  0  0
  -30.9426  -28.7068   22.6027 C   0  0  0  0  0  0  0  0  0  0  0  0
  -32.4901  -27.0052   21.6371 C   0  0  0  0  0  0  0  0  0  0  0  0
  -29.8506  -30.2936   16.2435 C   0  0  0  0  0  0  0  0  0  0  0  0
  -19.0063  -30.3393   22.9925 C   0  0  0  0  0  0  0  0  0  0  0  0
  -21.2158  -26.4593   20.7433 C   0  0  0  0  0  0  0  0  0  0  0  0
  -19.4681  -24.6348   22.2082 C   0  0  0  0  0  0  0  0  0  0  0  0
  -20.8195  -26.6197   19.2740 C   0  0  0  0  0  0  0  0  0  0  0  0
  -20.1705  -23.9041   23.3512 C   0  0  0  0  0  0  0  0  0  0  0  0
  -22.3218  -23.7676   24.6130 C   0  0  0  0  0  0  0  0  0  0  0  0
  -21.9041  -26.1674   18.3032 C   0  0  0  0  0  0  0  0  0  1  0  0
  -30.3650  -27.5920   20.3994 C   0  0  1  0  0  0  0  0  0  0  0  0
  -31.2384  -30.6211   18.2942 C   0  0  2  0  0  0  0  0  0  0  0  0
  -23.7340  -24.3660   24.7144 C   0  0  1  0  0  0  0  0  0  0  0  0
  -24.4208  -24.5064   23.3304 C   0  0  2  0  0  0  0  0  0  0  0  0
  -31.0033  -27.3882   21.8025 C   0  0  0  0  0  0  0  0  0  0  0  0
  -23.5634  -17.4680   20.9945 N   0  0  0  0  0  0  0  0  0  0  0  0
  -23.0453  -18.5293   21.6358 N   0  0  0  0  0  0  0  0  0  0  0  0
  -29.1206  -25.8413   19.1704 N   0  0  0  0  0  0  0  0  0  0  0  0
  -24.2536  -21.9994   20.5835 N   0  0  0  0  0  0  0  0  0  0  0  0
  -22.0142  -19.1933   23.6622 N   0  0  0  0  0  0  0  0  0  0  0  0
  -22.7453  -14.7774   24.2633 N   0  0  0  0  0  0  0  0  0  0  0  0
  -29.2804  -22.2882   19.4528 N   0  0  0  0  0  0  0  0  0  0  0  0
  -31.0198  -28.6121   19.5876 N   0  0  0  0  0  0  0  0  0  0  0  0
  -24.3747  -23.2774   22.5699 N   0  0  0  0  0  0  0  0  0  0  0  0
  -30.4712  -31.2587   17.1871 N   0  3  0  0  0  0  0  0  0  0  0  0
  -21.5689  -24.3815   23.4855 N   0  3  0  0  0  0  0  0  0  0  0  0
  -21.8812  -16.6699   25.2279 O   0  0  0  0  0  0  0  0  0  0  0  0
  -28.0096  -23.8876   20.5707 O   0  0  0  0  0  0  0  0  0  0  0  0
  -31.4484  -25.7945   19.2940 O   0  0  0  0  0  0  0  0  0  0  0  0
  -29.1444  -29.9433   19.2908 O   0  0  0  0  0  0  0  0  0  0  0  0
  -24.2640  -24.3178   20.5297 O   0  0  0  0  0  0  0  0  0  0  0  0
  -25.1193  -11.3051   20.6105 O   0  0  0  0  0  0  0  0  0  0  0  0
  -23.0824  -26.9360   18.5423 O   0  0  0  0  0  0  0  0  0  1  0  0
  -21.7138   -7.1229   21.7573 F   0  0  0  0  0  0  0  0  0  0  0  0
  -24.2927  -10.8193   23.2035 F   0  0  0  0  0  0  0  0  0  0  0  0
  1  2  1  0  0  0  0
  1  5  2  0  0  0  0
  2  6  2  0  0  0  0
  3  8  2  0  0  0  0
  3 17  1  0  0  0  0
  4  9  1  0  0  0  0
  4 17  2  0  0  0  0
  5 19  1  0  0  0  0
  6 21  1  0  0  0  0
  7 10  2  0  0  0  0
  7 20  1  0  0  0  0
  8 27  1  0  0  0  0
  9 27  2  0  0  0  0
 10 28  1  0  0  0  0
 11 12  2  0  0  0  0
 11 29  1  0  0  0  0
 12 30  1  0  0  0  0
 13 22  1  0  0  0  0
 13 28  2  0  0  0  0
 14 23  1  0  0  0  0
 14 24  2  0  0  0  0
 15 23  2  0  0  0  0
 15 25  1  0  0  0  0
 16 30  2  0  0  0  0
 16 31  1  0  0  0  0
 17 32  1  0  0  0  0
 18 32  1  0  0  0  0
 18 33  2  0  0  0  0
 18 34  1  0  0  0  0
 19 21  2  0  0  0  0
 19 39  1  0  0  0  0
 20 22  2  0  0  0  0
 20 40  1  0  0  0  0
 21 48  1  0  0  0  0
 22 41  1  0  0  0  0
 23 60  1  0  0  0  0
 24 26  1  0  0  0  0
 24 51  1  0  0  0  0
 25 26  2  0  0  0  0
 25 61  1  0  0  0  0
 26 62  1  0  0  0  0
 27 88  1  0  0  0  0
 28 89  1  0  0  0  0
 29 31  2  0  0  0  0
 29 88  1  0  0  0  0
 30 90  1  0  0  0  0
 31 91  1  0  0  0  0
 32 72  2  0  0  0  0
 33 73  1  0  0  0  0
 33 76  1  0  0  0  0
 34 77  1  0  0  0  0
 34 83  2  0  0  0  0
 35 49  1  0  0  0  0
 35 78  1  0  0  0  0
 35 84  2  0  0  0  0
 36 67  1  0  0  0  0
 36 74  1  0  0  0  0
 36 85  2  0  0  0  0
 37 68  1  0  0  0  0
 37 79  1  0  0  0  0
 37 86  2  0  0  0  0
 38 75  1  0  0  0  0
 38 80  1  0  0  0  0
 38 87  2  0  0  0  0
 39 42  1  0  0  0  0
 40 49  1  0  0  0  0
 41 74  1  0  0  0  0
 42 44  1  0  0  0  0
 43 45  1  0  0  0  0
 43 46  1  0  0  0  0
 44 48  1  0  0  0  0
 45 50  1  0  0  0  0
 46 75  1  0  0  0  0
 47 50  1  0  0  0  0
 47 75  1  0  0  0  0
 48 78  1  0  0  0  0
 49 74  1  0  0  0  0
 50 73  1  0  0  0  0
 52 60  1  0  0  0  0
 53 68  1  0  0  0  0
 54 69  1  0  0  0  0
 55 70  1  0  0  0  0
 56 71  1  0  0  0  0
 57 71  1  0  0  0  0
 58 71  1  0  0  0  0
 59 81  1  0  0  0  0
 61 63  1  0  0  0  0
 62 64  1  0  0  0  0
 63 66  1  0  0  0  0
 64 82  1  0  0  0  0
 65 69  1  0  0  0  0
 65 82  1  0  0  0  0
 66 89  1  0  0  0  0
 67 71  1  0  0  0  0
 67 79  1  0  0  0  0
 68 81  1  0  0  0  0
 69 70  1  0  0  0  0
 70 80  1  0  0  0  0
 72 73  1  0  0  0  0
M  CHG  2  81   1  82   1
M  ISO  4  38 100  66 101  80 100  89 101
M  END
> <Batch ID>
0101

> <Smiles>
CCc1cc(C)c(CCNCC(C)C(C)[100NH:0][100C:0](=O)N2CCCC(n3nc(-c4ccc(Oc5ccc(F)cc5F)cc4)c(C(N)=O)c3N)C2)c(CC[101CH2:1][101O:1]c2ccc3c(c2)CN(C(=O)C(NC(=O)C(C)NC)C(C)(C)C)C(C(=O)NC2CCCc4ccccc42)C3)c1

> <Shape>
0.218

> <Color>
0.053

> <Negative vol penalty>
0.000

$$$$

  -OEChem-04052319363D

 86 94  0     1  0  0  0  0  0999 V2000
  -17.5414  -25.9451   21.8088 C   0  0  0  0  0  0  0  0  0  0  0  0
  -18.8320  -25.4257   21.8055 C   0  0  0  0  0  0  0  0  0  0  0  0
  -23.4902   -9.5894   20.2812 C   0  0  0  0  0  0  0  0  0  0  0  0
  -23.8851  -10.1484   22.5982 C   0  0  0  0  0  0  0  0  0  0  0  0
  -17.3361  -27.2975   22.0788 C   0  0  0  0  0  0  0  0  0  0  0  0
  -19.9183  -26.2588   22.0713 C   0  0  0  0  0  0  0  0  0  0  0  0
  -23.2336  -24.1654   25.2762 C   0  0  0  0  0  0  0  0  0  0  0  0
  -22.8582   -8.4094   20.6736 C   0  0  0  0  0  0  0  0  0  0  0  0
  -23.2531   -8.9685   22.9906 C   0  0  0  0  0  0  0  0  0  0  0  0
  -24.1040  -23.2082   24.7567 C   0  0  0  0  0  0  0  0  0  0  0  0
  -20.0878   -7.8370   23.3384 C   0  0  0  0  0  0  0  0  0  0  0  0
  -19.1711   -7.9124   24.3871 C   0  0  0  0  0  0  0  0  0  0  0  0
  -25.8454  -24.8723   24.6244 C   0  0  0  0  0  0  0  0  0  0  0  0
  -27.4757  -19.5130   24.0494 C   0  0  0  0  0  0  0  0  0  0  0  0
  -27.2167  -20.5266   21.8717 C   0  0  0  0  0  0  0  0  0  0  0  0
  -20.5055   -6.3560   25.6654 C   0  0  0  0  0  0  0  0  0  0  0  0
  -24.0037  -10.4589   21.2435 C   0  0  0  0  0  0  0  0  0  0  0  0
  -24.0594  -12.9361   20.6371 C   0  0  0  0  0  0  0  0  0  0  0  0
  -18.4196  -28.1455   22.3575 C   0  0  0  0  0  0  0  0  0  0  0  0
  -23.6600  -25.4881   25.4638 C   0  0  0  0  0  0  0  0  0  0  0  0
  -19.7274  -27.6240   22.3439 C   0  0  0  0  0  0  0  0  0  0  0  0
  -24.9792  -25.8438   25.1488 C   0  0  0  0  0  0  0  0  0  0  0  0
  -26.8397  -20.4286   23.2111 C   0  0  0  0  0  0  0  0  0  0  0  0
  -28.4889  -18.6956   23.5485 C   0  0  0  0  0  0  0  0  0  0  0  0
  -28.2299  -19.7092   21.3707 C   0  0  0  0  0  0  0  0  0  0  0  0
  -28.8659  -18.7936   22.2091 C   0  0  0  0  0  0  0  0  0  0  0  0
  -22.7396   -8.0990   22.0283 C   0  0  0  0  0  0  0  0  0  0  0  0
  -25.4092  -23.5623   24.4280 C   0  0  0  0  0  0  0  0  0  0  0  0
  -21.2133   -7.0210   23.4532 C   0  0  0  0  0  0  0  0  0  0  0  0
  -19.3800   -7.1719   25.5506 C   0  0  0  0  0  0  0  0  0  0  0  0
  -21.4222   -6.2806   24.6167 C   0  0  0  0  0  0  0  0  0  0  0  0
  -24.6571  -11.6776   20.8387 C   0  0  0  0  0  0  0  0  0  0  0  0
  -25.0980  -13.7536   20.2637 C   0  0  0  0  0  0  0  0  0  0  0  0
  -22.6880  -13.3310   20.7752 C   0  0  0  0  0  0  0  0  0  0  0  0
  -22.7871  -28.3132   24.2974 C   0  0  0  0  0  0  0  0  0  0  0  0
  -24.9196  -29.4324   26.4704 C   0  0  0  0  0  0  0  0  0  0  0  0
  -27.6792  -28.8441   28.3901 C   0  0  0  0  0  0  0  0  0  0  0  0
  -30.3298  -15.5825   20.9186 C   0  0  0  0  0  0  0  0  0  0  0  0
  -18.1520  -29.6103   22.5970 C   0  0  0  0  0  0  0  0  0  0  0  0
  -22.7169  -26.5025   26.0503 C   0  0  0  0  0  0  0  0  0  0  0  0
  -25.4922  -27.2455   25.3503 C   0  0  0  0  0  0  0  0  0  0  0  0
  -19.3255  -30.3470   23.2377 C   0  0  0  0  0  0  0  0  0  0  0  0
  -29.8591  -12.6431   18.9654 C   0  0  0  0  0  0  0  0  0  0  0  0
  -20.6297  -29.9897   22.5319 C   0  0  0  0  0  0  0  0  0  0  0  0
  -28.4172  -12.2306   19.2669 C   0  0  0  0  0  0  0  0  0  0  0  0
  -30.5497  -13.2227   20.1979 C   0  0  0  0  0  0  0  0  0  0  0  0
  -28.3859  -13.9199   21.1495 C   0  0  0  0  0  0  0  0  0  0  0  0
  -20.9292  -28.4905   22.6519 C   0  0  1  0  0  0  0  0  0  0  0  0
  -23.1039  -27.9403   25.7181 C   0  0  1  0  0  0  0  0  0  0  0  0
  -27.6303  -13.3813   19.9226 C   0  0  2  0  0  0  0  0  0  0  0  0
  -30.1588  -18.3974   25.3948 C   0  0  0  0  0  0  0  0  0  0  0  0
  -29.2097  -29.9624   30.0347 C   0  0  0  0  0  0  0  0  0  0  0  0
  -27.7763  -17.5992   16.8327 C   0  0  0  0  0  0  0  0  0  0  0  0
  -27.9044  -20.0946   16.9622 C   0  0  0  0  0  0  0  0  0  0  0  0
  -26.2588  -30.9511   24.1878 C   0  0  0  0  0  0  0  0  0  0  0  0
  -28.2626  -31.2543   25.6580 C   0  0  0  0  0  0  0  0  0  0  0  0
  -26.0684  -32.2356   26.3252 C   0  0  0  0  0  0  0  0  0  0  0  0
  -26.9978  -26.9048   30.5193 C   0  0  0  0  0  0  0  0  0  0  0  0
  -29.1534  -17.7226   24.4668 C   0  0  0  0  0  0  0  0  0  0  0  0
  -28.6150  -19.8336   19.9327 C   0  0  0  0  0  0  0  0  0  0  0  0
  -29.9520  -17.9167   21.6721 C   0  0  0  0  0  0  0  0  0  0  0  0
  -25.7503  -21.3083   23.7501 C   0  0  0  0  0  0  0  0  0  1  0  0
  -28.0444  -18.6839   19.0833 C   0  0  0  0  0  0  0  0  0  0  0  0
  -26.3991  -29.7327   26.4598 C   0  0  1  0  0  0  0  0  0  0  0  0
  -27.9613  -29.1121   29.8574 C   0  0  2  0  0  0  0  0  0  0  0  0
  -28.3872  -18.7840   17.5852 C   0  0  0  0  0  0  0  0  0  0  0  0
  -26.7373  -31.0174   25.6520 C   0  0  0  0  0  0  0  0  0  0  0  0
  -25.9733  -11.6896   20.6120 N   0  0  0  0  0  0  0  0  0  0  0  0
  -26.2113  -12.9657   20.2640 N   0  0  0  0  0  0  0  0  0  0  0  0
  -24.5301  -28.2029   25.9206 N   0  0  0  0  0  0  0  0  0  0  0  0
  -29.7530  -14.3103   20.7708 N   0  0  0  0  0  0  0  0  0  0  0  0
  -25.1585  -15.0624   19.9384 N   0  0  0  0  0  0  0  0  0  0  0  0
  -21.7509  -12.3653   21.1671 N   0  0  0  0  0  0  0  0  0  0  0  0
  -21.4519  -28.1832   23.9660 N   0  0  0  0  0  0  0  0  0  0  0  0
  -26.8164  -29.7782   27.8570 N   0  0  0  0  0  0  0  0  0  0  0  0
  -29.5039  -16.5578   21.4638 N   0  0  0  0  0  0  0  0  0  0  0  0
  -28.1586  -27.8292   30.5897 N   0  3  0  0  0  0  0  0  0  0  0  0
  -22.3022  -14.5015   20.5415 O   0  0  0  0  0  0  0  0  0  0  0  0
  -23.6871  -28.6923   23.5572 O   0  0  0  0  0  0  0  0  0  0  0  0
  -24.1390  -30.2553   26.9554 O   0  0  0  0  0  0  0  0  0  0  0  0
  -28.1777  -27.9027   27.7771 O   0  0  0  0  0  0  0  0  0  0  0  0
  -31.4929  -15.8321   20.5842 O   0  0  0  0  0  0  0  0  0  0  0  0
  -22.1228   -6.9479   22.4116 O   0  0  0  0  0  0  0  0  0  0  0  0
  -26.2607  -22.6301   23.9201 O   0  0  0  0  0  0  0  0  0  1  0  0
  -18.5005   -7.2456   26.5581 F   0  0  0  0  0  0  0  0  0  0  0  0
  -22.5022   -5.4959   24.7333 F   0  0  0  0  0  0  0  0  0  0  0  0
  1  2  1  0  0  0  0
  1  5  2  0  0  0  0
  2  6  2  0  0  0  0
  3  8  2  0  0  0  0
  3 17  1  0  0  0  0
  4  9  1  0  0  0  0
  4 17  2  0  0  0  0
  5 19  1  0  0  0  0
  6 21  1  0  0  0  0
  7 10  2  0  0  0  0
  7 20  1  0  0  0  0
  8 27  1  0  0  0  0
  9 27  2  0  0  0  0
 10 28  1  0  0  0  0
 11 12  2  0  0  0  0
 11 29  1  0  0  0  0
 12 30  1  0  0  0  0
 13 22  1  0  0  0  0
 13 28  2  0  0  0  0
 14 23  2  0  0  0  0
 14 24  1  0  0  0  0
 15 23  1  0  0  0  0
 15 25  2  0  0  0  0
 16 30  2  0  0  0  0
 16 31  1  0  0  0  0
 17 32  1  0  0  0  0
 18 32  1  0  0  0  0
 18 33  2  0  0  0  0
 18 34  1  0  0  0  0
 19 21  2  0  0  0  0
 19 39  1  0  0  0  0
 20 22  2  0  0  0  0
 20 40  1  0  0  0  0
 21 48  1  0  0  0  0
 22 41  1  0  0  0  0
 23 62  1  0  0  0  0
 24 26  2  0  0  0  0
 24 59  1  0  0  0  0
 25 26  1  0  0  0  0
 25 60  1  0  0  0  0
 26 61  1  0  0  0  0
 27 83  1  0  0  0  0
 28 84  1  0  0  0  0
 29 31  2  0  0  0  0
 29 83  1  0  0  0  0
 30 85  1  0  0  0  0
 31 86  1  0  0  0  0
 32 68  2  0  0  0  0
 33 69  1  0  0  0  0
 33 72  1  0  0  0  0
 34 73  1  0  0  0  0
 34 78  2  0  0  0  0
 35 49  1  0  0  0  0
 35 74  1  0  0  0  0
 35 79  2  0  0  0  0
 36 64  1  0  0  0  0
 36 70  1  0  0  0  0
 36 80  2  0  0  0  0
 37 65  1  0  0  0  0
 37 75  1  0  0  0  0
 37 81  2  0  0  0  0
 38 71  1  0  0  0  0
 38 76  1  0  0  0  0
 38 82  2  0  0  0  0
 39 42  1  0  0  0  0
 40 49  1  0  0  0  0
 41 70  1  0  0  0  0
 42 44  1  0  0  0  0
 43 45  1  0  0  0  0
 43 46  1  0  0  0  0
 44 48  1  0  0  0  0
 45 50  1  0  0  0  0
 46 71  1  0  0  0  0
 47 50  1  0  0  0  0
 47 71  1  0  0  0  0
 48 74  1  0  0  0  0
 49 70  1  0  0  0  0
 50 69  1  0  0  0  0
 51 59  1  0  0  0  0
 52 65  1  0  0  0  0
 53 66  1  0  0  0  0
 54 66  1  0  0  0  0
 55 67  1  0  0  0  0
 56 67  1  0  0  0  0
 57 67  1  0  0  0  0
 58 77  1  0  0  0  0
 60 63  1  0  0  0  0
 61 76  1  0  0  0  0
 62 84  1  0  0  0  0
 63 66  1  0  0  0  0
 64 67  1  0  0  0  0
 64 75  1  0  0  0  0
 65 77  1  0  0  0  0
 68 69  1  0  0  0  0
M  CHG  1  77   1
M  ISO  4  38 100  62 101  76 100  84 101
M  END
> <Batch ID>
0101

> <Smiles>
CCc1cc([101CH2:1][101O:1]c2ccc3c(c2)CN(C(=O)C(NC(=O)C(C)NC)C(C)(C)C)C(C(=O)NC2CCCc4ccccc42)C3)cc(CCC(C)C)c1C[100NH:0][100C:0](=O)N1CCCC(n2nc(-c3ccc(Oc4ccc(F)cc4F)cc3)c(C(N)=O)c2N)C1

> <Shape>
0.296

> <Color>
0.190

> <Negative vol penalty>
0.000

$$$$

  -OEChem-04052319363D

 89 97  0     1  0  0  0  0  0999 V2000
  -34.7139  -31.7592   15.1803 C   0  0  0  0  0  0  0  0  0  0  0  0
  -33.4935  -31.1118   15.3444 C   0  0  0  0  0  0  0  0  0  0  0  0
  -22.9901   -9.9163   19.9669 C   0  0  0  0  0  0  0  0  0  0  0  0
  -23.7341   -9.9168   22.2655 C   0  0  0  0  0  0  0  0  0  0  0  0
  -35.9044  -31.0562   15.3600 C   0  0  0  0  0  0  0  0  0  0  0  0
  -33.4629  -29.7606   15.6874 C   0  0  0  0  0  0  0  0  0  0  0  0
  -29.5754  -25.0316   19.4077 C   0  0  0  0  0  0  0  0  0  0  0  0
  -22.2194   -8.7808   20.2165 C   0  0  0  0  0  0  0  0  0  0  0  0
  -22.9634   -8.7812   22.5151 C   0  0  0  0  0  0  0  0  0  0  0  0
  -28.9571  -23.7910   19.2584 C   0  0  0  0  0  0  0  0  0  0  0  0
  -23.1854   -5.4513   21.9739 C   0  0  0  0  0  0  0  0  0  0  0  0
  -23.7733   -4.4159   22.7005 C   0  0  0  0  0  0  0  0  0  0  0  0
  -31.0766  -22.6976   19.6209 C   0  0  0  0  0  0  0  0  0  0  0  0
  -28.1673  -20.0733   22.4256 C   0  0  0  0  0  0  0  0  0  0  0  0
  -29.1511  -18.3444   21.0547 C   0  0  0  0  0  0  0  0  0  0  0  0
  -22.0644   -4.6342   24.3943 C   0  0  0  0  0  0  0  0  0  0  0  0
  -23.7474  -10.4843   20.9914 C   0  0  0  0  0  0  0  0  0  0  0  0
  -24.1453  -13.0008   20.8630 C   0  0  0  0  0  0  0  0  0  0  0  0
  -35.8884  -29.6980   15.7149 C   0  0  0  0  0  0  0  0  0  0  0  0
  -30.9534  -25.1150   19.6542 C   0  0  0  0  0  0  0  0  0  0  0  0
  -34.6543  -29.0383   15.8708 C   0  0  0  0  0  0  0  0  0  0  0  0
  -31.7096  -23.9404   19.7754 C   0  0  0  0  0  0  0  0  0  0  0  0
  -28.2706  -19.4164   21.1995 C   0  0  0  0  0  0  0  0  0  0  0  0
  -28.9447  -19.6583   23.5069 C   0  0  0  0  0  0  0  0  0  0  0  0
  -29.9285  -17.9292   22.1359 C   0  0  0  0  0  0  0  0  0  0  0  0
  -29.8252  -18.5862   23.3621 C   0  0  0  0  0  0  0  0  0  0  0  0
  -22.2061   -8.2133   21.4906 C   0  0  0  0  0  0  0  0  0  0  0  0
  -29.7082  -22.6238   19.3622 C   0  0  0  0  0  0  0  0  0  0  0  0
  -22.0370   -6.0782   22.4575 C   0  0  0  0  0  0  0  0  0  0  0  0
  -23.2128   -4.0073   23.9106 C   0  0  0  0  0  0  0  0  0  0  0  0
  -21.4765   -5.6696   23.6677 C   0  0  0  0  0  0  0  0  0  0  0  0
  -24.5442  -11.6569   20.7340 C   0  0  0  0  0  0  0  0  0  0  0  0
  -25.2560  -13.7246   20.5043 C   0  0  0  0  0  0  0  0  0  0  0  0
  -22.8835  -13.5461   21.2709 C   0  0  0  0  0  0  0  0  0  0  0  0
  -33.4361  -26.3665   18.1136 C   0  0  0  0  0  0  0  0  0  0  0  0
  -35.0355  -25.5227   20.8066 C   0  0  0  0  0  0  0  0  0  0  0  0
  -35.2148  -23.5158   23.5610 C   0  0  0  0  0  0  0  0  0  0  0  0
  -30.7593  -14.6244   20.7267 C   0  0  0  0  0  0  0  0  0  0  0  0
  -37.2010  -28.9681   15.8521 C   0  0  0  0  0  0  0  0  0  0  0  0
  -31.6005  -26.4601   19.8393 C   0  0  0  0  0  0  0  0  0  0  0  0
  -33.1883  -23.9751   20.0594 C   0  0  0  0  0  0  0  0  0  0  0  0
  -37.0819  -27.6325   16.5816 C   0  0  0  0  0  0  0  0  0  0  0  0
  -29.5863  -12.2549   18.3421 C   0  0  0  0  0  0  0  0  0  0  0  0
  -35.9003  -26.8329   16.0419 C   0  0  0  0  0  0  0  0  0  0  0  0
  -28.1398  -11.9946   18.7662 C   0  0  0  0  0  0  0  0  0  0  0  0
  -30.4998  -12.4609   19.5484 C   0  0  0  0  0  0  0  0  0  0  0  0
  -28.6049  -13.2394   20.9186 C   0  0  0  0  0  0  0  0  0  0  0  0
  -34.5800  -27.5797   16.2668 C   0  0  1  0  0  0  0  0  0  0  0  0
  -33.1032  -26.4414   19.5769 C   0  0  1  0  0  0  0  0  0  0  0  0
  -27.6353  -13.0810   19.7349 C   0  0  2  0  0  0  0  0  0  0  0  0
  -32.6455  -19.6697   23.9992 C   0  0  0  0  0  0  0  0  0  0  0  0
  -25.9309  -19.7052   20.3196 C   0  0  0  0  0  0  0  0  0  0  0  0
  -30.3035  -16.7020   24.9469 C   0  0  0  0  0  0  0  0  0  0  0  0
  -36.6578  -23.0342   25.5568 C   0  0  0  0  0  0  0  0  0  0  0  0
  -37.0071  -24.0314   19.0181 C   0  0  0  0  0  0  0  0  0  0  0  0
  -37.8280  -22.8215   21.0505 C   0  0  0  0  0  0  0  0  0  0  0  0
  -38.0588  -25.3007   20.8989 C   0  0  0  0  0  0  0  0  0  0  0  0
  -33.0512  -24.2410   25.4456 C   0  0  0  0  0  0  0  0  0  0  0  0
  -28.8144  -20.3779   24.8095 C   0  0  0  0  0  0  0  0  0  0  0  0
  -30.8637  -16.7784   21.9549 C   0  0  0  0  0  0  0  0  0  0  0  0
  -32.1868  -18.2429   24.2751 C   0  0  0  0  0  0  0  0  0  0  0  0
  -27.9326  -19.6585   25.8472 C   0  0  0  0  0  0  0  0  0  0  0  0
  -27.7472  -20.3997   27.1677 C   0  0  0  0  0  0  0  0  0  0  0  0
  -27.7386  -21.3138   19.6083 C   0  0  0  0  0  0  0  0  0  1  0  0
  -27.4237  -19.8694   20.0206 C   0  0  1  0  0  0  0  0  0  0  0  0
  -30.6582  -18.1411   24.5217 C   0  0  1  0  0  0  0  0  0  0  0  0
  -35.7717  -24.2892   21.2706 C   0  0  1  0  0  0  0  0  0  0  0  0
  -35.4786  -23.8319   25.0222 C   0  0  2  0  0  0  0  0  0  0  0  0
  -37.1389  -24.1098   20.5522 C   0  0  0  0  0  0  0  0  0  0  0  0
  -25.8095  -11.5316   20.3250 N   0  0  0  0  0  0  0  0  0  0  0  0
  -26.2153  -12.8061   20.1938 N   0  0  0  0  0  0  0  0  0  0  0  0
  -33.7763  -25.3145   20.2260 N   0  0  0  0  0  0  0  0  0  0  0  0
  -29.9657  -13.5051   20.4262 N   0  0  0  0  0  0  0  0  0  0  0  0
  -25.4960  -15.0509   20.4271 N   0  0  0  0  0  0  0  0  0  0  0  0
  -21.8496  -12.6607   21.6049 N   0  0  0  0  0  0  0  0  0  0  0  0
  -34.1541  -27.4497   17.6438 N   0  0  0  0  0  0  0  0  0  0  0  0
  -35.8687  -24.3936   22.7225 N   0  0  0  0  0  0  0  0  0  0  0  0
  -30.1749  -15.5698   21.5605 N   0  0  0  0  0  0  0  0  0  0  0  0
  -27.0628  -21.6954   26.9496 N   0  3  0  0  0  0  0  0  0  0  0  0
  -34.2799  -23.5086   25.8466 N   0  3  0  0  0  0  0  0  0  0  0  0
  -22.6739  -14.7818   21.3214 O   0  0  0  0  0  0  0  0  0  0  0  0
  -33.0699  -25.3971   17.4595 O   0  0  0  0  0  0  0  0  0  0  0  0
  -35.5552  -26.6308   20.9603 O   0  0  0  0  0  0  0  0  0  0  0  0
  -34.5032  -22.5812   23.1996 O   0  0  0  0  0  0  0  0  0  0  0  0
  -31.9020  -14.7730   20.2802 O   0  0  0  0  0  0  0  0  0  0  0  0
  -21.4540   -7.1054   21.7346 O   0  0  0  0  0  0  0  0  0  0  0  0
  -29.1072  -21.4116   19.2163 O   0  0  0  0  0  0  0  0  0  1  0  0
  -23.7767   -3.0120   24.6075 F   0  0  0  0  0  0  0  0  0  0  0  0
  -20.3726   -6.2672   24.1368 F   0  0  0  0  0  0  0  0  0  0  0  0
  1  2  1  0  0  0  0
  1  5  2  0  0  0  0
  2  6  2  0  0  0  0
  3  8  2  0  0  0  0
  3 17  1  0  0  0  0
  4  9  1  0  0  0  0
  4 17  2  0  0  0  0
  5 19  1  0  0  0  0
  6 21  1  0  0  0  0
  7 10  2  0  0  0  0
  7 20  1  0  0  0  0
  8 27  1  0  0  0  0
  9 27  2  0  0  0  0
 10 28  1  0  0  0  0
 11 12  2  0  0  0  0
 11 29  1  0  0  0  0
 12 30  1  0  0  0  0
 13 22  1  0  0  0  0
 13 28  2  0  0  0  0
 14 23  1  0  0  0  0
 14 24  2  0  0  0  0
 15 23  2  0  0  0  0
 15 25  1  0  0  0  0
 16 30  2  0  0  0  0
 16 31  1  0  0  0  0
 17 32  1  0  0  0  0
 18 32  1  0  0  0  0
 18 33  2  0  0  0  0
 18 34  1  0  0  0  0
 19 21  2  0  0  0  0
 19 39  1  0  0  0  0
 20 22  2  0  0  0  0
 20 40  1  0  0  0  0
 21 48  1  0  0  0  0
 22 41  1  0  0  0  0
 23 65  1  0  0  0  0
 24 26  1  0  0  0  0
 24 59  1  0  0  0  0
 25 26  2  0  0  0  0
 25 60  1  0  0  0  0
 26 66  1  0  0  0  0
 27 86  1  0  0  0  0
 28 87  1  0  0  0  0
 29 31  2  0  0  0  0
 29 86  1  0  0  0  0
 30 88  1  0  0  0  0
 31 89  1  0  0  0  0
 32 70  2  0  0  0  0
 33 71  1  0  0  0  0
 33 74  1  0  0  0  0
 34 75  1  0  0  0  0
 34 81  2  0  0  0  0
 35 49  1  0  0  0  0
 35 76  1  0  0  0  0
 35 82  2  0  0  0  0
 36 67  1  0  0  0  0
 36 72  1  0  0  0  0
 36 83  2  0  0  0  0
 37 68  1  0  0  0  0
 37 77  1  0  0  0  0
 37 84  2  0  0  0  0
 38 73  1  0  0  0  0
 38 78  1  0  0  0  0
 38 85  2  0  0  0  0
 39 42  1  0  0  0  0
 40 49  1  0  0  0  0
 41 72  1  0  0  0  0
 42 44  1  0  0  0  0
 43 45  1  0  0  0  0
 43 46  1  0  0  0  0
 44 48  1  0  0  0  0
 45 50  1  0  0  0  0
 46 73  1  0  0  0  0
 47 50  1  0  0  0  0
 47 73  1  0  0  0  0
 48 76  1  0  0  0  0
 49 72  1  0  0  0  0
 50 71  1  0  0  0  0
 51 61  1  0  0  0  0
 52 65  1  0  0  0  0
 53 66  1  0  0  0  0
 54 68  1  0  0  0  0
 55 69  1  0  0  0  0
 56 69  1  0  0  0  0
 57 69  1  0  0  0  0
 58 80  1  0  0  0  0
 59 62  1  0  0  0  0
 60 78  1  0  0  0  0
 61 66  1  0  0  0  0
 62 63  1  0  0  0  0
 63 79  1  0  0  0  0
 64 65  1  0  0  0  0
 64 87  1  0  0  0  0
 67 69  1  0  0  0  0
 67 77  1  0  0  0  0
 68 80  1  0  0  0  0
 70 71  1  0  0  0  0
M  CHG  2  79   1  80   1
M  ISO  4  38 100  64 101  78 100  87 101
M  END
> <Batch ID>
0101

> <Smiles>
CCC(C)c1c(CCCN)cc(C(C)[101CH2:1][101O:1]c2ccc3c(c2)CN(C(=O)C(NC(=O)C(C)NC)C(C)(C)C)C(C(=O)NC2CCCc4ccccc42)C3)cc1C[100NH:0][100C:0](=O)N1CCCC(n2nc(-c3ccc(Oc4ccc(F)cc4F)cc3)c(C(N)=O)c2N)C1

> <Shape>
0.240

> <Color>
0.192

> <Negative vol penalty>
0.000

$$$$

  -OEChem-04052319363D

 88 96  0     1  0  0  0  0  0999 V2000
  -21.6537  -26.2546   21.1114 C   0  0  0  0  0  0  0  0  0  0  0  0
  -22.1768  -25.0814   20.5770 C   0  0  0  0  0  0  0  0  0  0  0  0
  -26.0627  -28.1455   18.7579 C   0  0  0  0  0  0  0  0  0  0  0  0
  -26.4717  -27.7522   21.1063 C   0  0  0  0  0  0  0  0  0  0  0  0
  -21.6487  -26.4488   22.4920 C   0  0  0  0  0  0  0  0  0  0  0  0
  -22.6964  -24.1023   21.4231 C   0  0  0  0  0  0  0  0  0  0  0  0
  -22.4529  -18.0359   20.6195 C   0  0  0  0  0  0  0  0  0  0  0  0
  -30.1760  -12.0759   18.1500 C   0  0  0  0  0  0  0  0  0  0  0  0
  -29.2914  -13.1542   18.1435 C   0  0  0  0  0  0  0  0  0  0  0  0
  -25.2981  -29.2670   19.0788 C   0  0  0  0  0  0  0  0  0  0  0  0
  -25.7071  -28.8738   21.4273 C   0  0  0  0  0  0  0  0  0  0  0  0
  -23.3766  -17.1178   20.1220 C   0  0  0  0  0  0  0  0  0  0  0  0
  -26.1033  -32.2298   21.4616 C   0  0  0  0  0  0  0  0  0  0  0  0
  -26.6130  -33.1076   22.4182 C   0  0  0  0  0  0  0  0  0  0  0  0
  -24.0746  -16.6086   22.3743 C   0  0  0  0  0  0  0  0  0  0  0  0
  -29.5824  -11.6026   20.4436 C   0  0  0  0  0  0  0  0  0  0  0  0
  -24.6737  -32.7211   23.8063 C   0  0  0  0  0  0  0  0  0  0  0  0
  -26.6495  -27.3880   19.7716 C   0  0  0  0  0  0  0  0  0  0  0  0
  -28.8241  -26.1865   19.1927 C   0  0  0  0  0  0  0  0  0  0  0  0
  -22.1597  -25.4674   23.3560 C   0  0  0  0  0  0  0  0  0  0  0  0
  -22.3404  -18.2556   21.9999 C   0  0  0  0  0  0  0  0  0  0  0  0
  -22.6995  -24.2842   22.8165 C   0  0  0  0  0  0  0  0  0  0  0  0
  -23.1468  -17.5282   22.8869 C   0  0  0  0  0  0  0  0  0  0  0  0
  -30.3215  -11.3000   19.3001 C   0  0  0  0  0  0  0  0  0  0  0  0
  -28.5522  -13.4568   19.2871 C   0  0  0  0  0  0  0  0  0  0  0  0
  -28.6978  -12.6810   20.4372 C   0  0  0  0  0  0  0  0  0  0  0  0
  -25.1203  -29.6312   20.4135 C   0  0  0  0  0  0  0  0  0  0  0  0
  -24.1897  -16.4061   20.9992 C   0  0  0  0  0  0  0  0  0  0  0  0
  -24.8787  -31.5976   21.6773 C   0  0  0  0  0  0  0  0  0  0  0  0
  -25.8983  -33.3533   23.5906 C   0  0  0  0  0  0  0  0  0  0  0  0
  -24.1640  -31.8432   22.8497 C   0  0  0  0  0  0  0  0  0  0  0  0
  -27.4390  -26.2290   19.4408 C   0  0  0  0  0  0  0  0  0  0  0  0
  -29.0849  -24.8645   18.9268 C   0  0  0  0  0  0  0  0  0  0  0  0
  -29.7887  -27.2473   19.2018 C   0  0  0  0  0  0  0  0  0  0  0  0
  -22.7640  -20.7569   23.9151 C   0  0  0  0  0  0  0  0  0  0  0  0
  -21.5966  -18.7361   26.1681 C   0  0  0  0  0  0  0  0  0  0  0  0
  -21.0799  -15.5204   27.1874 C   0  0  0  0  0  0  0  0  0  0  0  0
  -28.5341  -19.5639   20.1704 C   0  0  0  0  0  0  0  0  0  0  0  0
  -22.1759  -25.7427   24.8387 C   0  0  0  0  0  0  0  0  0  0  0  0
  -21.3204  -19.2299   22.5221 C   0  0  0  0  0  0  0  0  0  0  0  0
  -23.0510  -17.7124   24.3787 C   0  0  0  0  0  0  0  0  0  0  0  0
  -22.4036  -24.4946   25.6875 C   0  0  0  0  0  0  0  0  0  0  0  0
  -25.9419  -20.9906   18.0866 C   0  0  0  0  0  0  0  0  0  0  0  0
  -23.5575  -23.6701   25.1257 C   0  0  0  0  0  0  0  0  0  0  0  0
  -26.2205  -22.4873   18.2366 C   0  0  0  0  0  0  0  0  0  0  0  0
  -26.1832  -20.2493   19.3982 C   0  0  0  0  0  0  0  0  0  0  0  0
  -27.8245  -21.9381   20.1248 C   0  0  0  0  0  0  0  0  0  0  0  0
  -23.2495  -23.1879   23.7030 C   0  0  1  0  0  0  0  0  0  0  0  0
  -21.6498  -19.7488   23.9184 C   0  0  1  0  0  0  0  0  0  0  0  0
  -27.6205  -22.7403   18.8268 C   0  0  2  0  0  0  0  0  0  0  0  0
  -31.2678  -10.1474   19.3069 C   0  0  0  0  0  0  0  0  0  0  0  0
  -27.9172  -12.9863   21.6734 C   0  0  0  0  0  0  0  0  0  0  0  0
  -20.1361  -14.1848   29.0908 C   0  0  0  0  0  0  0  0  0  0  0  0
  -24.0792  -19.3553   27.8304 C   0  0  0  0  0  0  0  0  0  0  0  0
  -23.5675  -17.3361   29.2193 C   0  0  0  0  0  0  0  0  0  0  0  0
  -21.9513  -19.2345   29.1386 C   0  0  0  0  0  0  0  0  0  0  0  0
  -19.0514  -14.2529   25.4446 C   0  0  0  0  0  0  0  0  0  0  0  0
  -26.1921  -14.2865   18.7464 C   0  0  0  0  0  0  0  0  0  0  0  0
  -30.0444  -17.1045   17.7539 C   0  0  0  0  0  0  0  0  0  0  0  0
  -29.1009  -17.1481   20.1633 C   0  0  0  0  0  0  0  0  0  0  0  0
  -25.1537  -15.3487   19.0996 C   0  0  0  0  0  0  0  0  0  1  0  0
  -31.3725  -17.7479   18.1328 C   0  0  0  0  0  0  0  0  0  0  0  0
  -27.5999  -14.6320   19.2563 C   0  0  2  0  0  0  0  0  0  0  0  0
  -22.2008  -17.7325   27.1203 C   0  0  1  0  0  0  0  0  0  0  0  0
  -19.8496  -14.8247   27.7413 C   0  0  2  0  0  0  0  0  0  0  0  0
  -29.3983  -16.3297   18.9066 C   0  0  1  0  0  0  0  0  0  0  0  0
  -22.9531  -18.4123   28.2990 C   0  0  0  0  0  0  0  0  0  0  0  0
  -26.8603  -25.0294   19.3412 N   0  0  0  0  0  0  0  0  0  0  0  0
  -27.8868  -24.2206   19.0275 N   0  0  0  0  0  0  0  0  0  0  0  0
  -22.0428  -18.6810   24.8401 N   0  0  0  0  0  0  0  0  0  0  0  0
  -27.5396  -20.5175   19.8967 N   0  0  0  0  0  0  0  0  0  0  0  0
  -30.2199  -24.2016   18.6188 N   0  0  0  0  0  0  0  0  0  0  0  0
  -29.3509  -28.5460   19.4947 N   0  0  0  0  0  0  0  0  0  0  0  0
  -22.3425  -22.0607   23.7366 N   0  0  0  0  0  0  0  0  0  0  0  0
  -21.1113  -16.8547   27.5337 N   0  0  0  0  0  0  0  0  0  0  0  0
  -28.1817  -18.2407   19.9344 N   0  0  0  0  0  0  0  0  0  0  0  0
  -19.3906  -13.7603   26.8045 N   0  3  0  0  0  0  0  0  0  0  0  0
  -28.1272  -15.7518   18.4101 N   0  3  0  0  0  0  0  0  0  0  0  0
  -31.0001  -27.0519   18.9413 O   0  0  0  0  0  0  0  0  0  0  0  0
  -23.9203  -20.3799   24.0650 O   0  0  0  0  0  0  0  0  0  0  0  0
  -20.7543  -19.5347   26.5856 O   0  0  0  0  0  0  0  0  0  0  0  0
  -21.9300  -14.9376   26.5180 O   0  0  0  0  0  0  0  0  0  0  0  0
  -29.6558  -19.8694   20.5894 O   0  0  0  0  0  0  0  0  0  0  0  0
  -31.8944  -18.4223   16.9950 O   0  0  0  0  0  0  0  0  0  0  0  0
  -24.3744  -30.7257   20.7270 O   0  0  0  0  0  0  0  0  0  0  0  0
  -25.0926  -15.5099   20.5162 O   0  0  0  0  0  0  0  0  0  1  0  0
  -26.3886  -34.1951   24.5098 F   0  0  0  0  0  0  0  0  0  0  0  0
  -22.9876  -31.2379   23.0630 F   0  0  0  0  0  0  0  0  0  0  0  0
  1  2  1  0  0  0  0
  1  5  2  0  0  0  0
  2  6  2  0  0  0  0
  3 10  2  0  0  0  0
  3 18  1  0  0  0  0
  4 11  1  0  0  0  0
  4 18  2  0  0  0  0
  5 20  1  0  0  0  0
  6 22  1  0  0  0  0
  7 12  2  0  0  0  0
  7 21  1  0  0  0  0
  8  9  2  0  0  0  0
  8 24  1  0  0  0  0
  9 25  1  0  0  0  0
 10 27  1  0  0  0  0
 11 27  2  0  0  0  0
 12 28  1  0  0  0  0
 13 14  2  0  0  0  0
 13 29  1  0  0  0  0
 14 30  1  0  0  0  0
 15 23  1  0  0  0  0
 15 28  2  0  0  0  0
 16 24  2  0  0  0  0
 16 26  1  0  0  0  0
 17 30  2  0  0  0  0
 17 31  1  0  0  0  0
 18 32  1  0  0  0  0
 19 32  1  0  0  0  0
 19 33  2  0  0  0  0
 19 34  1  0  0  0  0
 20 22  2  0  0  0  0
 20 39  1  0  0  0  0
 21 23  2  0  0  0  0
 21 40  1  0  0  0  0
 22 48  1  0  0  0  0
 23 41  1  0  0  0  0
 24 51  1  0  0  0  0
 25 26  2  0  0  0  0
 25 63  1  0  0  0  0
 26 52  1  0  0  0  0
 27 85  1  0  0  0  0
 28 86  1  0  0  0  0
 29 31  2  0  0  0  0
 29 85  1  0  0  0  0
 30 87  1  0  0  0  0
 31 88  1  0  0  0  0
 32 68  2  0  0  0  0
 33 69  1  0  0  0  0
 33 72  1  0  0  0  0
 34 73  1  0  0  0  0
 34 79  2  0  0  0  0
 35 49  1  0  0  0  0
 35 74  1  0  0  0  0
 35 80  2  0  0  0  0
 36 64  1  0  0  0  0
 36 70  1  0  0  0  0
 36 81  2  0  0  0  0
 37 65  1  0  0  0  0
 37 75  1  0  0  0  0
 37 82  2  0  0  0  0
 38 71  1  0  0  0  0
 38 76  1  0  0  0  0
 38 83  2  0  0  0  0
 39 42  1  0  0  0  0
 40 49  1  0  0  0  0
 41 70  1  0  0  0  0
 42 44  1  0  0  0  0
 43 45  1  0  0  0  0
 43 46  1  0  0  0  0
 44 48  1  0  0  0  0
 45 50  1  0  0  0  0
 46 71  1  0  0  0  0
 47 50  1  0  0  0  0
 47 71  1  0  0  0  0
 48 74  1  0  0  0  0
 49 70  1  0  0  0  0
 50 69  1  0  0  0  0
 53 65  1  0  0  0  0
 54 67  1  0  0  0  0
 55 67  1  0  0  0  0
 56 67  1  0  0  0  0
 57 77  1  0  0  0  0
 58 61  1  0  0  0  0
 58 63  1  0  0  0  0
 59 62  1  0  0  0  0
 59 66  1  0  0  0  0
 60 66  1  0  0  0  0
 60 76  1  0  0  0  0
 61 86  1  0  0  0  0
 62 84  1  0  0  0  0
 63 78  1  0  0  0  0
 64 67  1  0  0  0  0
 64 75  1  0  0  0  0
 65 77  1  0  0  0  0
 66 78  1  0  0  0  0
 68 69  1  0  0  0  0
M  CHG  2  77   1  78   1
M  ISO  4  38 100  61 101  76 100  86 101
M  END
> <Batch ID>
0101

> <Smiles>
CNC(C)C(=O)NC(C(=O)N1Cc2cc([101O:1][101CH2:1]CC(NC(CCO)C[100NH:0][100C:0](=O)N3CCCC(n4nc(-c5ccc(Oc6ccc(F)cc6F)cc5)c(C(N)=O)c4N)C3)c3ccc(C)cc3C)ccc2CC1C(=O)NC1CCCc2ccccc21)C(C)(C)C

> <Shape>
0.218

> <Color>
0.055

> <Negative vol penalty>
0.000

$$$$

  -OEChem-04052319363D

 87 95  0     1  0  0  0  0  0999 V2000
  -19.6281  -10.0619   22.0679 C   0  0  0  0  0  0  0  0  0  0  0  0
  -19.0780  -11.3289   21.9016 C   0  0  0  0  0  0  0  0  0  0  0  0
  -28.6918  -25.4416   18.2923 C   0  0  0  0  0  0  0  0  0  0  0  0
  -27.2989  -24.2189   19.8422 C   0  0  0  0  0  0  0  0  0  0  0  0
  -20.8904   -9.9213   22.6431 C   0  0  0  0  0  0  0  0  0  0  0  0
  -19.7896  -12.4560   22.3113 C   0  0  0  0  0  0  0  0  0  0  0  0
  -20.8399  -19.3282   20.5833 C   0  0  0  0  0  0  0  0  0  0  0  0
  -29.6941  -24.4824   18.4363 C   0  0  0  0  0  0  0  0  0  0  0  0
  -28.3012  -23.2596   19.9861 C   0  0  0  0  0  0  0  0  0  0  0  0
  -20.8077  -20.5995   21.1547 C   0  0  0  0  0  0  0  0  0  0  0  0
  -32.0978  -23.7101   20.6835 C   0  0  0  0  0  0  0  0  0  0  0  0
  -33.4063  -24.1617   20.8550 C   0  0  0  0  0  0  0  0  0  0  0  0
  -23.0133  -20.2404   22.0633 C   0  0  0  0  0  0  0  0  0  0  0  0
  -34.0717  -22.9973   18.8455 C   0  0  0  0  0  0  0  0  0  0  0  0
  -19.9678  -27.9563   23.5116 C   0  0  0  0  0  0  0  0  0  0  0  0
  -27.4942  -25.3099   18.9953 C   0  0  0  0  0  0  0  0  0  0  0  0
  -25.4110  -26.3019   17.9070 C   0  0  0  0  0  0  0  0  0  0  0  0
  -21.6218  -11.0478   23.0512 C   0  0  0  0  0  0  0  0  0  0  0  0
  -21.9565  -18.4978   20.7570 C   0  0  0  0  0  0  0  0  0  0  0  0
  -21.0622  -12.3302   22.8937 C   0  0  0  0  0  0  0  0  0  0  0  0
  -23.0583  -18.9600   21.4909 C   0  0  0  0  0  0  0  0  0  0  0  0
  -19.1673  -28.7195   22.6907 C   0  0  0  0  0  0  0  0  0  0  0  0
  -18.3009  -27.8344   22.0028 C   0  0  0  0  0  0  0  0  0  0  0  0
  -29.4988  -23.3913   19.2831 C   0  0  0  0  0  0  0  0  0  0  0  0
  -21.8933  -21.0547   21.8972 C   0  0  0  0  0  0  0  0  0  0  0  0
  -31.7763  -22.9019   19.5930 C   0  0  0  0  0  0  0  0  0  0  0  0
  -34.3933  -23.8054   19.9360 C   0  0  0  0  0  0  0  0  0  0  0  0
  -32.7632  -22.5455   18.6740 C   0  0  0  0  0  0  0  0  0  0  0  0
  -26.4586  -26.3008   18.8475 C   0  0  0  0  0  0  0  0  0  0  0  0
  -18.5984  -26.5572   22.4245 C   0  0  0  0  0  0  0  0  0  0  0  0
  -24.7061  -27.4487   18.1796 C   0  0  0  0  0  0  0  0  0  0  0  0
  -25.1027  -25.3511   16.8791 C   0  0  0  0  0  0  0  0  0  0  0  0
  -22.4540  -15.6594   22.0985 C   0  0  0  0  0  0  0  0  0  0  0  0
  -25.4256  -16.0251   20.8502 C   0  0  0  0  0  0  0  0  0  0  0  0
  -27.8543  -18.1411   19.7229 C   0  0  0  0  0  0  0  0  0  0  0  0
  -22.3573  -30.9688   21.8179 C   0  0  0  0  0  0  0  0  0  0  0  0
  -22.9624  -10.8429   23.7112 C   0  0  0  0  0  0  0  0  0  0  0  0
  -21.9867  -17.1394   20.1118 C   0  0  0  0  0  0  0  0  0  0  0  0
  -24.2893  -18.1153   21.6900 C   0  0  0  0  0  0  0  0  0  0  0  0
  -23.8097  -12.1110   23.7757 C   0  0  0  0  0  0  0  0  0  0  0  0
  -25.8331  -31.3756   21.1622 C   0  0  0  0  0  0  0  0  0  0  0  0
  -22.9722  -13.2884   24.2646 C   0  0  0  0  0  0  0  0  0  0  0  0
  -26.2202  -30.0895   20.4299 C   0  0  0  0  0  0  0  0  0  0  0  0
  -24.7923  -31.1149   22.2489 C   0  0  0  0  0  0  0  0  0  0  0  0
  -23.9700  -29.1198   21.0585 C   0  0  0  0  0  0  0  0  0  0  0  0
  -21.8136  -13.5784   23.3028 C   0  0  1  0  0  0  0  0  0  0  0  0
  -22.9637  -16.1800   20.7844 C   0  0  1  0  0  0  0  0  0  0  0  0
  -24.9758  -29.3408   19.9158 C   0  0  2  0  0  0  0  0  0  0  0  0
  -18.0042  -25.2611   22.0342 C   0  0  0  0  0  0  0  0  0  0  0  0
  -15.8381  -27.8337   21.4660 C   0  0  0  0  0  0  0  0  0  0  0  0
  -17.5324  -27.6163   19.6120 C   0  0  0  0  0  0  0  0  0  0  0  0
  -30.1884  -18.1482   18.8014 C   0  0  0  0  0  0  0  0  0  0  0  0
  -23.1323  -24.7629   21.5404 C   0  0  0  0  0  0  0  0  0  0  0  0
  -26.5286  -15.5024   23.6466 C   0  0  0  0  0  0  0  0  0  0  0  0
  -28.7191  -16.4439   22.8829 C   0  0  0  0  0  0  0  0  0  0  0  0
  -27.7993  -14.3936   21.7999 C   0  0  0  0  0  0  0  0  0  0  0  0
  -26.9729  -19.3828   17.1852 C   0  0  0  0  0  0  0  0  0  0  0  0
  -19.2132  -30.1895   22.5596 C   0  0  0  0  0  0  0  0  0  0  0  0
  -21.6413  -25.1059   23.5269 C   0  0  0  0  0  0  0  0  0  0  0  0
  -20.2538  -25.4844   24.0633 C   0  0  0  0  0  0  0  0  0  0  0  0
  -19.9466  -30.6863   21.3006 C   0  0  0  0  0  0  0  0  0  0  0  0
  -21.1034  -23.2948   21.7801 C   0  0  0  0  0  0  0  0  0  1  0  0
  -17.2681  -28.2092   21.0149 C   0  0  0  0  0  0  0  0  0  0  0  0
  -26.7208  -16.6320   21.3330 C   0  0  1  0  0  0  0  0  0  0  0  0
  -28.7053  -18.1193   18.4661 C   0  0  2  0  0  0  0  0  0  0  0  0
  -21.6834  -24.6917   22.0395 C   0  0  2  0  0  0  0  0  0  0  0  0
  -27.4181  -15.7584   22.4137 C   0  0  0  0  0  0  0  0  0  0  0  0
  -26.4260  -27.3629   19.6568 N   0  0  0  0  0  0  0  0  0  0  0  0
  -19.6129  -26.6435   23.3418 N   0  0  0  0  0  0  0  0  0  0  0  0
  -25.3494  -28.0420   19.2257 N   0  0  0  0  0  0  0  0  0  0  0  0
  -24.2682  -16.7921   21.0446 N   0  0  0  0  0  0  0  0  0  0  0  0
  -23.6374  -30.4037   21.6955 N   0  0  0  0  0  0  0  0  0  0  0  0
  -23.6049  -27.9975   17.6240 N   0  0  0  0  0  0  0  0  0  0  0  0
  -25.9304  -24.2291   16.7367 N   0  0  0  0  0  0  0  0  0  0  0  0
  -22.2915  -14.2876   22.1353 N   0  0  0  0  0  0  0  0  0  0  0  0
  -27.5298  -16.8682   20.1422 N   0  0  0  0  0  0  0  0  0  0  0  0
  -21.3190  -30.2328   21.2604 N   0  0  0  0  0  0  0  0  0  0  0  0
  -28.3941  -19.2982   17.6092 N   0  3  0  0  0  0  0  0  0  0  0  0
  -24.1318  -25.5007   16.0991 O   0  0  0  0  0  0  0  0  0  0  0  0
  -22.2266  -16.4439   23.0120 O   0  0  0  0  0  0  0  0  0  0  0  0
  -25.4412  -14.9144   20.3136 O   0  0  0  0  0  0  0  0  0  0  0  0
  -27.5146  -19.1830   20.2794 O   0  0  0  0  0  0  0  0  0  0  0  0
  -22.1555  -32.0519   22.3775 O   0  0  0  0  0  0  0  0  0  0  0  0
  -30.4766  -22.4549   19.4237 O   0  0  0  0  0  0  0  0  0  0  0  0
  -21.8642  -22.2949   22.4566 O   0  0  0  0  0  0  0  0  0  1  0  0
  -35.6494  -24.2405   20.1000 F   0  0  0  0  0  0  0  0  0  0  0  0
  -32.4600  -21.7704   17.6237 F   0  0  0  0  0  0  0  0  0  0  0  0
  1  2  1  0  0  0  0
  1  5  2  0  0  0  0
  2  6  2  0  0  0  0
  3  8  2  0  0  0  0
  3 16  1  0  0  0  0
  4  9  1  0  0  0  0
  4 16  2  0  0  0  0
  5 18  1  0  0  0  0
  6 20  1  0  0  0  0
  7 10  2  0  0  0  0
  7 19  1  0  0  0  0
  8 24  1  0  0  0  0
  9 24  2  0  0  0  0
 10 25  1  0  0  0  0
 11 12  2  0  0  0  0
 11 26  1  0  0  0  0
 12 27  1  0  0  0  0
 13 21  1  0  0  0  0
 13 25  2  0  0  0  0
 14 27  2  0  0  0  0
 14 28  1  0  0  0  0
 15 22  2  0  0  0  0
 15 69  1  0  0  0  0
 16 29  1  0  0  0  0
 17 29  1  0  0  0  0
 17 31  2  0  0  0  0
 17 32  1  0  0  0  0
 18 20  2  0  0  0  0
 18 37  1  0  0  0  0
 19 21  2  0  0  0  0
 19 38  1  0  0  0  0
 20 46  1  0  0  0  0
 21 39  1  0  0  0  0
 22 23  1  0  0  0  0
 22 58  1  0  0  0  0
 23 30  2  0  0  0  0
 23 63  1  0  0  0  0
 24 84  1  0  0  0  0
 25 85  1  0  0  0  0
 26 28  2  0  0  0  0
 26 84  1  0  0  0  0
 27 86  1  0  0  0  0
 28 87  1  0  0  0  0
 29 68  2  0  0  0  0
 30 49  1  0  0  0  0
 30 69  1  0  0  0  0
 31 70  1  0  0  0  0
 31 73  1  0  0  0  0
 32 74  1  0  0  0  0
 32 79  2  0  0  0  0
 33 47  1  0  0  0  0
 33 75  1  0  0  0  0
 33 80  2  0  0  0  0
 34 64  1  0  0  0  0
 34 71  1  0  0  0  0
 34 81  2  0  0  0  0
 35 65  1  0  0  0  0
 35 76  1  0  0  0  0
 35 82  2  0  0  0  0
 36 72  1  0  0  0  0
 36 77  1  0  0  0  0
 36 83  2  0  0  0  0
 37 40  1  0  0  0  0
 38 47  1  0  0  0  0
 39 71  1  0  0  0  0
 40 42  1  0  0  0  0
 41 43  1  0  0  0  0
 41 44  1  0  0  0  0
 42 46  1  0  0  0  0
 43 48  1  0  0  0  0
 44 72  1  0  0  0  0
 45 48  1  0  0  0  0
 45 72  1  0  0  0  0
 46 75  1  0  0  0  0
 47 71  1  0  0  0  0
 48 70  1  0  0  0  0
 50 63  1  0  0  0  0
 51 63  1  0  0  0  0
 52 65  1  0  0  0  0
 53 66  1  0  0  0  0
 54 67  1  0  0  0  0
 55 67  1  0  0  0  0
 56 67  1  0  0  0  0
 57 78  1  0  0  0  0
 58 61  1  0  0  0  0
 59 60  1  0  0  0  0
 59 66  1  0  0  0  0
 60 69  1  0  0  0  0
 61 77  1  0  0  0  0
 62 66  1  0  0  0  0
 62 85  1  0  0  0  0
 64 67  1  0  0  0  0
 64 76  1  0  0  0  0
 65 78  1  0  0  0  0
 68 70  1  0  0  0  0
M  CHG  1  78   1
M  ISO  4  36 100  62 101  77 100  85 101
M  END
> <Batch ID>
0101

> <Smiles>
CNC(C)C(=O)NC(C(=O)N1Cc2cc([101O:1][101CH2:1]C(C)CCn3cc(CC[100NH:0][100C:0](=O)N4CCCC(n5nc(-c6ccc(Oc7ccc(F)cc7F)cc6)c(C(N)=O)c5N)C4)c(C(C)C)c3C)ccc2CC1C(=O)NC1CCCc2ccccc21)C(C)(C)C

> <Shape>
0.203

> <Color>
0.060

> <Negative vol penalty>
0.000

$$$$

  -OEChem-04052319363D

 84 92  0     1  0  0  0  0  0999 V2000
  -13.9731  -18.2940   17.5506 C   0  0  0  0  0  0  0  0  0  0  0  0
  -15.0891  -19.1238   17.5141 C   0  0  0  0  0  0  0  0  0  0  0  0
  -23.0012   -9.8945   19.9807 C   0  0  0  0  0  0  0  0  0  0  0  0
  -23.7314   -9.9426   22.2832 C   0  0  0  0  0  0  0  0  0  0  0  0
  -14.1304  -16.9250   17.7628 C   0  0  0  0  0  0  0  0  0  0  0  0
  -16.3631  -18.5852   17.6908 C   0  0  0  0  0  0  0  0  0  0  0  0
  -23.1525  -19.5049   15.5993 C   0  0  0  0  0  0  0  0  0  0  0  0
  -22.2366   -8.7587   20.2468 C   0  0  0  0  0  0  0  0  0  0  0  0
  -22.9667   -8.8068   22.5494 C   0  0  0  0  0  0  0  0  0  0  0  0
  -24.4325  -19.6547   16.1312 C   0  0  0  0  0  0  0  0  0  0  0  0
  -23.2140   -5.4689   22.0715 C   0  0  0  0  0  0  0  0  0  0  0  0
  -23.8044   -4.4512   22.8207 C   0  0  0  0  0  0  0  0  0  0  0  0
  -24.5892  -17.2639   16.4116 C   0  0  0  0  0  0  0  0  0  0  0  0
  -28.6230  -17.8094   19.4075 C   0  0  0  0  0  0  0  0  0  0  0  0
  -29.4534  -18.2400   17.1800 C   0  0  0  0  0  0  0  0  0  0  0  0
  -22.0839   -4.6894   24.5001 C   0  0  0  0  0  0  0  0  0  0  0  0
  -23.7486  -10.4865   20.9988 C   0  0  0  0  0  0  0  0  0  0  0  0
  -24.1306  -13.0028   20.8260 C   0  0  0  0  0  0  0  0  0  0  0  0
  -15.4077  -16.3680   17.9326 C   0  0  0  0  0  0  0  0  0  0  0  0
  -22.5760  -18.2322   15.4794 C   0  0  0  0  0  0  0  0  0  0  0  0
  -16.5376  -17.2077   17.9068 C   0  0  0  0  0  0  0  0  0  0  0  0
  -23.3028  -17.1004   15.8754 C   0  0  0  0  0  0  0  0  0  0  0  0
  -28.4161  -17.8540   18.0289 C   0  0  0  0  0  0  0  0  0  0  0  0
  -29.8673  -18.1510   19.9375 C   0  0  0  0  0  0  0  0  0  0  0  0
  -30.6978  -18.5815   17.7099 C   0  0  0  0  0  0  0  0  0  0  0  0
  -30.9047  -18.5370   19.0886 C   0  0  0  0  0  0  0  0  0  0  0  0
  -22.2194   -8.2148   21.5312 C   0  0  0  0  0  0  0  0  0  0  0  0
  -25.1499  -18.5343   16.5401 C   0  0  0  0  0  0  0  0  0  0  0  0
  -22.0586   -6.0969   22.5367 C   0  0  0  0  0  0  0  0  0  0  0  0
  -23.2394   -4.0614   24.0350 C   0  0  0  0  0  0  0  0  0  0  0  0
  -21.4935   -5.7071   23.7509 C   0  0  0  0  0  0  0  0  0  0  0  0
  -24.5391  -11.6595   20.7243 C   0  0  0  0  0  0  0  0  0  0  0  0
  -25.2386  -13.7273   20.4604 C   0  0  0  0  0  0  0  0  0  0  0  0
  -22.8628  -13.5471   21.2162 C   0  0  0  0  0  0  0  0  0  0  0  0
  -20.0050  -16.8109   16.6933 C   0  0  0  0  0  0  0  0  0  0  0  0
  -20.8549  -14.4179   14.6751 C   0  0  0  0  0  0  0  0  0  0  0  0
  -23.3169  -12.8750   12.8848 C   0  0  0  0  0  0  0  0  0  0  0  0
  -30.7344  -14.6681   20.6984 C   0  0  0  0  0  0  0  0  0  0  0  0
  -15.5243  -14.8894   18.2064 C   0  0  0  0  0  0  0  0  0  0  0  0
  -21.2048  -18.0852   14.8788 C   0  0  0  0  0  0  0  0  0  0  0  0
  -22.7369  -15.7103   15.7490 C   0  0  0  0  0  0  0  0  0  0  0  0
  -16.9364  -14.3433   18.0111 C   0  0  0  0  0  0  0  0  0  0  0  0
  -29.5915  -12.2468   18.3515 C   0  0  0  0  0  0  0  0  0  0  0  0
  -17.9586  -15.2530   18.6851 C   0  0  0  0  0  0  0  0  0  0  0  0
  -28.1443  -11.9847   18.7718 C   0  0  0  0  0  0  0  0  0  0  0  0
  -30.4963  -12.4814   19.5591 C   0  0  0  0  0  0  0  0  0  0  0  0
  -28.5881  -13.2724   20.9034 C   0  0  0  0  0  0  0  0  0  0  0  0
  -17.9378  -16.6574   18.0696 C   0  0  1  0  0  0  0  0  0  0  0  0
  -20.5131  -16.7859   15.2795 C   0  0  1  0  0  0  0  0  0  0  0  0
  -27.6268  -13.0855   19.7172 C   0  0  2  0  0  0  0  0  0  0  0  0
  -32.2388  -18.9028   19.6570 C   0  0  0  0  0  0  0  0  0  0  0  0
  -31.4458  -20.2689   15.9933 C   0  0  0  0  0  0  0  0  0  0  0  0
  -32.1858  -17.8664   15.8050 C   0  0  0  0  0  0  0  0  0  0  0  0
  -23.7154  -10.9205   11.3622 C   0  0  0  0  0  0  0  0  0  0  0  0
  -20.7792  -12.5356   17.0754 C   0  0  0  0  0  0  0  0  0  0  0  0
  -22.0744  -10.8729   15.7241 C   0  0  0  0  0  0  0  0  0  0  0  0
  -19.8050  -11.5885   14.9758 C   0  0  0  0  0  0  0  0  0  0  0  0
  -24.1592  -14.6331   10.6581 C   0  0  0  0  0  0  0  0  0  0  0  0
  -30.0633  -18.0940   21.4173 C   0  0  0  0  0  0  0  0  0  0  0  0
  -27.0774  -17.4872   17.4589 C   0  0  0  0  0  0  0  0  0  1  0  0
  -30.8171  -16.8452   21.8869 C   0  0  0  0  0  0  0  0  0  0  0  0
  -31.7923  -18.9915   16.7794 C   0  0  0  0  0  0  0  0  0  0  0  0
  -21.7422  -13.2005   14.7739 C   0  0  1  0  0  0  0  0  0  0  0  0
  -23.3671  -12.3986   11.4444 C   0  0  2  0  0  0  0  0  0  0  0  0
  -21.1104  -12.0756   15.6416 C   0  0  0  0  0  0  0  0  0  0  0  0
  -25.8077  -11.5351   20.3252 N   0  0  0  0  0  0  0  0  0  0  0  0
  -26.2058  -12.8096   20.1728 N   0  0  0  0  0  0  0  0  0  0  0  0
  -21.3900  -15.6191   15.1616 N   0  0  0  0  0  0  0  0  0  0  0  0
  -29.9501  -13.5380   20.4141 N   0  0  0  0  0  0  0  0  0  0  0  0
  -25.4703  -15.0535   20.3599 N   0  0  0  0  0  0  0  0  0  0  0  0
  -21.8328  -12.6611   21.5606 N   0  0  0  0  0  0  0  0  0  0  0  0
  -18.6353  -16.6638   16.8016 N   0  0  0  0  0  0  0  0  0  0  0  0
  -22.0413  -12.8010   13.4030 N   0  0  0  0  0  0  0  0  0  0  0  0
  -30.1387  -15.6248   21.5111 N   0  0  0  0  0  0  0  0  0  0  0  0
  -24.3911  -13.1659   10.6804 N   0  3  0  0  0  0  0  0  0  0  0  0
  -22.6447  -14.7821   21.2424 O   0  0  0  0  0  0  0  0  0  0  0  0
  -20.7971  -16.9518   17.6177 O   0  0  0  0  0  0  0  0  0  0  0  0
  -19.7314  -14.3086   14.1778 O   0  0  0  0  0  0  0  0  0  0  0  0
  -24.3106  -13.2696   13.4910 O   0  0  0  0  0  0  0  0  0  0  0  0
  -31.8787  -14.8161   20.2561 O   0  0  0  0  0  0  0  0  0  0  0  0
  -21.4732   -7.1066   21.7913 O   0  0  0  0  0  0  0  0  0  0  0  0
  -26.3992  -18.6778   17.0603 O   0  0  0  0  0  0  0  0  0  1  0  0
  -23.8056   -3.0830   24.7536 F   0  0  0  0  0  0  0  0  0  0  0  0
  -20.3829   -6.3059   24.2023 F   0  0  0  0  0  0  0  0  0  0  0  0
  1  2  1  0  0  0  0
  1  5  2  0  0  0  0
  2  6  2  0  0  0  0
  3  8  2  0  0  0  0
  3 17  1  0  0  0  0
  4  9  1  0  0  0  0
  4 17  2  0  0  0  0
  5 19  1  0  0  0  0
  6 21  1  0  0  0  0
  7 10  2  0  0  0  0
  7 20  1  0  0  0  0
  8 27  1  0  0  0  0
  9 27  2  0  0  0  0
 10 28  1  0  0  0  0
 11 12  2  0  0  0  0
 11 29  1  0  0  0  0
 12 30  1  0  0  0  0
 13 22  1  0  0  0  0
 13 28  2  0  0  0  0
 14 23  1  0  0  0  0
 14 24  2  0  0  0  0
 15 23  2  0  0  0  0
 15 25  1  0  0  0  0
 16 30  2  0  0  0  0
 16 31  1  0  0  0  0
 17 32  1  0  0  0  0
 18 32  1  0  0  0  0
 18 33  2  0  0  0  0
 18 34  1  0  0  0  0
 19 21  2  0  0  0  0
 19 39  1  0  0  0  0
 20 22  2  0  0  0  0
 20 40  1  0  0  0  0
 21 48  1  0  0  0  0
 22 41  1  0  0  0  0
 23 60  1  0  0  0  0
 24 26  1  0  0  0  0
 24 59  1  0  0  0  0
 25 26  2  0  0  0  0
 25 62  1  0  0  0  0
 26 51  1  0  0  0  0
 27 81  1  0  0  0  0
 28 82  1  0  0  0  0
 29 31  2  0  0  0  0
 29 81  1  0  0  0  0
 30 83  1  0  0  0  0
 31 84  1  0  0  0  0
 32 66  2  0  0  0  0
 33 67  1  0  0  0  0
 33 70  1  0  0  0  0
 34 71  1  0  0  0  0
 34 76  2  0  0  0  0
 35 49  1  0  0  0  0
 35 72  1  0  0  0  0
 35 77  2  0  0  0  0
 36 63  1  0  0  0  0
 36 68  1  0  0  0  0
 36 78  2  0  0  0  0
 37 64  1  0  0  0  0
 37 73  1  0  0  0  0
 37 79  2  0  0  0  0
 38 69  1  0  0  0  0
 38 74  1  0  0  0  0
 38 80  2  0  0  0  0
 39 42  1  0  0  0  0
 40 49  1  0  0  0  0
 41 68  1  0  0  0  0
 42 44  1  0  0  0  0
 43 45  1  0  0  0  0
 43 46  1  0  0  0  0
 44 48  1  0  0  0  0
 45 50  1  0  0  0  0
 46 69  1  0  0  0  0
 47 50  1  0  0  0  0
 47 69  1  0  0  0  0
 48 72  1  0  0  0  0
 49 68  1  0  0  0  0
 50 67  1  0  0  0  0
 52 62  1  0  0  0  0
 53 62  1  0  0  0  0
 54 64  1  0  0  0  0
 55 65  1  0  0  0  0
 56 65  1  0  0  0  0
 57 65  1  0  0  0  0
 58 75  1  0  0  0  0
 59 61  1  0  0  0  0
 60 82  1  0  0  0  0
 61 74  1  0  0  0  0
 63 65  1  0  0  0  0
 63 73  1  0  0  0  0
 64 75  1  0  0  0  0
 66 67  1  0  0  0  0
M  CHG  1  75   1
M  ISO  4  38 100  60 101  74 100  82 101
M  END
> <Batch ID>
0101

> <Smiles>
CNC(C)C(=O)NC(C(=O)N1Cc2cc([101O:1][101CH2:1]c3cc(CC[100NH:0][100C:0](=O)N4CCCC(n5nc(-c6ccc(Oc7ccc(F)cc7F)cc6)c(C(N)=O)c5N)C4)c(C)c(C(C)C)c3)ccc2CC1C(=O)NC1CCCc2ccccc21)C(C)(C)C

> <Shape>
0.197

> <Color>
0.202

> <Negative vol penalty>
0.000

$$$$

  -OEChem-04052319363D

 86 94  0     1  0  0  0  0  0999 V2000
  -18.8716  -24.8869   23.3731 C   0  0  0  0  0  0  0  0  0  0  0  0
  -19.4256  -23.6113   23.4077 C   0  0  0  0  0  0  0  0  0  0  0  0
  -23.0744   -9.8675   19.9456 C   0  0  0  0  0  0  0  0  0  0  0  0
  -23.8331   -9.8829   22.2393 C   0  0  0  0  0  0  0  0  0  0  0  0
  -19.6611  -25.9968   23.6710 C   0  0  0  0  0  0  0  0  0  0  0  0
  -20.7698  -23.4449   23.7391 C   0  0  0  0  0  0  0  0  0  0  0  0
  -25.1846  -18.8532   27.0166 C   0  0  0  0  0  0  0  0  0  0  0  0
  -22.3310   -8.7149   20.1991 C   0  0  0  0  0  0  0  0  0  0  0  0
  -23.0896   -8.7303   22.4929 C   0  0  0  0  0  0  0  0  0  0  0  0
  -26.3760  -18.1627   26.7985 C   0  0  0  0  0  0  0  0  0  0  0  0
  -19.9470   -5.9739   20.3358 C   0  0  0  0  0  0  0  0  0  0  0  0
  -18.6416   -5.9236   19.8470 C   0  0  0  0  0  0  0  0  0  0  0  0
  -27.6236  -20.1461   27.3717 C   0  0  0  0  0  0  0  0  0  0  0  0
  -18.0748   -7.8708   21.1601 C   0  0  0  0  0  0  0  0  0  0  0  0
  -28.8465  -19.7086   23.4380 C   0  0  0  0  0  0  0  0  0  0  0  0
  -23.8256  -10.4515   20.9656 C   0  0  0  0  0  0  0  0  0  0  0  0
  -24.1663  -12.9764   20.8369 C   0  0  0  0  0  0  0  0  0  0  0  0
  -21.0132  -25.8432   24.0156 C   0  0  0  0  0  0  0  0  0  0  0  0
  -25.2037  -20.2008   27.4040 C   0  0  0  0  0  0  0  0  0  0  0  0
  -21.5785  -24.5539   24.0405 C   0  0  0  0  0  0  0  0  0  0  0  0
  -26.4311  -20.8508   27.5966 C   0  0  0  0  0  0  0  0  0  0  0  0
  -29.7521  -18.6676   23.3113 C   0  0  0  0  0  0  0  0  0  0  0  0
  -29.8442  -18.0315   22.0783 C   0  0  0  0  0  0  0  0  0  0  0  0
  -29.0392  -18.4499   21.0246 C   0  0  0  0  0  0  0  0  0  0  0  0
  -22.3385   -8.1463   21.4728 C   0  0  0  0  0  0  0  0  0  0  0  0
  -27.5957  -18.8099   26.9732 C   0  0  0  0  0  0  0  0  0  0  0  0
  -20.3163   -6.9727   21.2369 C   0  0  0  0  0  0  0  0  0  0  0  0
  -17.7055   -6.8721   20.2591 C   0  0  0  0  0  0  0  0  0  0  0  0
  -19.3802   -7.9211   21.6490 C   0  0  0  0  0  0  0  0  0  0  0  0
  -24.5942  -11.6418   20.7041 C   0  0  0  0  0  0  0  0  0  0  0  0
  -28.1654  -19.5005   21.2537 C   0  0  0  0  0  0  0  0  0  0  0  0
  -25.2583  -13.7251   20.4716 C   0  0  0  0  0  0  0  0  0  0  0  0
  -22.8953  -13.4931   21.2533 C   0  0  0  0  0  0  0  0  0  0  0  0
  -24.1454  -22.9153   26.1331 C   0  0  0  0  0  0  0  0  0  0  0  0
  -25.0987  -24.1615   28.9722 C   0  0  0  0  0  0  0  0  0  0  0  0
  -27.1056  -23.9062   31.7206 C   0  0  0  0  0  0  0  0  0  0  0  0
  -30.7415  -14.7473   20.6594 C   0  0  0  0  0  0  0  0  0  0  0  0
  -21.8388  -27.0766   24.2836 C   0  0  0  0  0  0  0  0  0  0  0  0
  -23.9101  -20.9239   27.6612 C   0  0  0  0  0  0  0  0  0  0  0  0
  -26.5062  -22.2909   28.0313 C   0  0  0  0  0  0  0  0  0  0  0  0
  -23.1597  -26.7837   24.9905 C   0  0  0  0  0  0  0  0  0  0  0  0
  -29.6063  -12.3539   18.2804 C   0  0  0  0  0  0  0  0  0  0  0  0
  -23.8703  -25.6076   24.3282 C   0  0  0  0  0  0  0  0  0  0  0  0
  -28.1687  -12.0610   18.7135 C   0  0  0  0  0  0  0  0  0  0  0  0
  -30.5226  -12.5794   19.4810 C   0  0  0  0  0  0  0  0  0  0  0  0
  -28.6198  -13.3144   20.8640 C   0  0  0  0  0  0  0  0  0  0  0  0
  -23.0264  -24.3306   24.4197 C   0  0  1  0  0  0  0  0  0  0  0  0
  -24.0418  -22.4401   27.5547 C   0  0  1  0  0  0  0  0  0  0  0  0
  -27.6464  -13.1353   19.6864 C   0  0  2  0  0  0  0  0  0  0  0  0
  -29.1158  -17.7890   19.6893 C   0  0  0  0  0  0  0  0  0  0  0  0
  -23.6802  -21.4772   20.1141 C   0  0  0  0  0  0  0  0  0  0  0  0
  -27.6881  -25.0961   33.8519 C   0  0  0  0  0  0  0  0  0  0  0  0
  -26.7382  -26.1901   27.3888 C   0  0  0  0  0  0  0  0  0  0  0  0
  -28.0003  -26.7049   29.4888 C   0  0  0  0  0  0  0  0  0  0  0  0
  -25.5457  -27.1343   29.3739 C   0  0  0  0  0  0  0  0  0  0  0  0
  -26.2155  -21.6202   33.3762 C   0  0  0  0  0  0  0  0  0  0  0  0
  -30.5993  -18.2570   24.4891 C   0  0  0  0  0  0  0  0  0  0  0  0
  -30.8057  -16.9022   21.8888 C   0  0  0  0  0  0  0  0  0  0  0  0
  -27.2748  -19.9934   20.1604 C   0  0  0  0  0  0  0  0  0  0  0  0
  -25.0160  -20.9907   19.5752 C   0  0  0  0  0  0  0  0  0  0  0  0
  -30.1255  -16.9711   25.1700 C   0  0  0  0  0  0  0  0  0  0  0  0
  -25.9383  -20.5242   20.7015 C   0  0  0  0  0  0  0  0  0  0  0  0
  -28.7384  -17.0921   25.7903 C   0  0  0  0  0  0  0  0  0  1  0  0
  -26.3825  -24.7520   29.5034 C   0  0  1  0  0  0  0  0  0  0  0  0
  -26.8060  -24.0410   33.2027 C   0  0  2  0  0  0  0  0  0  0  0  0
  -26.6656  -26.1687   28.9286 C   0  0  0  0  0  0  0  0  0  0  0  0
  -28.0480  -20.1430   22.4374 N   0  0  0  0  0  0  0  0  0  0  0  0
  -25.8594  -11.5451   20.2869 N   0  0  0  0  0  0  0  0  0  0  0  0
  -26.2358  -12.8284   20.1542 N   0  0  0  0  0  0  0  0  0  0  0  0
  -25.2140  -22.9568   28.2642 N   0  0  0  0  0  0  0  0  0  0  0  0
  -29.9711  -13.6107   20.3630 N   0  0  0  0  0  0  0  0  0  0  0  0
  -25.4681  -15.0564   20.3940 N   0  0  0  0  0  0  0  0  0  0  0  0
  -21.8837  -12.5846   21.5932 N   0  0  0  0  0  0  0  0  0  0  0  0
  -23.1203  -23.7566   25.7450 N   0  0  0  0  0  0  0  0  0  0  0  0
  -26.2815  -24.7066   30.9581 N   0  0  0  0  0  0  0  0  0  0  0  0
  -30.1414  -15.6788   21.4978 N   0  0  0  0  0  0  0  0  0  0  0  0
  -27.0366  -22.7431   33.8979 N   0  3  0  0  0  0  0  0  0  0  0  0
  -22.6585  -14.7238   21.3062 O   0  0  0  0  0  0  0  0  0  0  0  0
  -25.0866  -22.5471   25.4400 O   0  0  0  0  0  0  0  0  0  0  0  0
  -24.0321  -24.7439   29.1839 O   0  0  0  0  0  0  0  0  0  0  0  0
  -27.9855  -23.1678   31.2833 O   0  0  0  0  0  0  0  0  0  0  0  0
  -31.8776  -14.9217   20.2058 O   0  0  0  0  0  0  0  0  0  0  0  0
  -21.6129   -7.0217   21.7207 O   0  0  0  0  0  0  0  0  0  0  0  0
  -28.7600  -18.1384   26.7604 O   0  0  0  0  0  0  0  0  0  1  0  0
  -16.4524   -6.8246   19.7884 F   0  0  0  0  0  0  0  0  0  0  0  0
  -19.7295   -8.8837   22.5135 F   0  0  0  0  0  0  0  0  0  0  0  0
  1  2  1  0  0  0  0
  1  5  2  0  0  0  0
  2  6  2  0  0  0  0
  3  8  2  0  0  0  0
  3 16  1  0  0  0  0
  4  9  1  0  0  0  0
  4 16  2  0  0  0  0
  5 18  1  0  0  0  0
  6 20  1  0  0  0  0
  7 10  2  0  0  0  0
  7 19  1  0  0  0  0
  8 25  1  0  0  0  0
  9 25  2  0  0  0  0
 10 26  1  0  0  0  0
 11 12  2  0  0  0  0
 11 27  1  0  0  0  0
 12 28  1  0  0  0  0
 13 21  1  0  0  0  0
 13 26  2  0  0  0  0
 14 28  2  0  0  0  0
 14 29  1  0  0  0  0
 15 22  1  0  0  0  0
 15 67  2  0  0  0  0
 16 30  1  0  0  0  0
 17 30  1  0  0  0  0
 17 32  2  0  0  0  0
 17 33  1  0  0  0  0
 18 20  2  0  0  0  0
 18 38  1  0  0  0  0
 19 21  2  0  0  0  0
 19 39  1  0  0  0  0
 20 47  1  0  0  0  0
 21 40  1  0  0  0  0
 22 23  2  0  0  0  0
 22 57  1  0  0  0  0
 23 24  1  0  0  0  0
 23 58  1  0  0  0  0
 24 31  2  0  0  0  0
 24 50  1  0  0  0  0
 25 83  1  0  0  0  0
 26 84  1  0  0  0  0
 27 29  2  0  0  0  0
 27 83  1  0  0  0  0
 28 85  1  0  0  0  0
 29 86  1  0  0  0  0
 30 68  2  0  0  0  0
 31 59  1  0  0  0  0
 31 67  1  0  0  0  0
 32 69  1  0  0  0  0
 32 72  1  0  0  0  0
 33 73  1  0  0  0  0
 33 78  2  0  0  0  0
 34 48  1  0  0  0  0
 34 74  1  0  0  0  0
 34 79  2  0  0  0  0
 35 64  1  0  0  0  0
 35 70  1  0  0  0  0
 35 80  2  0  0  0  0
 36 65  1  0  0  0  0
 36 75  1  0  0  0  0
 36 81  2  0  0  0  0
 37 71  1  0  0  0  0
 37 76  1  0  0  0  0
 37 82  2  0  0  0  0
 38 41  1  0  0  0  0
 39 48  1  0  0  0  0
 40 70  1  0  0  0  0
 41 43  1  0  0  0  0
 42 44  1  0  0  0  0
 42 45  1  0  0  0  0
 43 47  1  0  0  0  0
 44 49  1  0  0  0  0
 45 71  1  0  0  0  0
 46 49  1  0  0  0  0
 46 71  1  0  0  0  0
 47 74  1  0  0  0  0
 48 70  1  0  0  0  0
 49 69  1  0  0  0  0
 51 60  1  0  0  0  0
 52 65  1  0  0  0  0
 53 66  1  0  0  0  0
 54 66  1  0  0  0  0
 55 66  1  0  0  0  0
 56 77  1  0  0  0  0
 57 61  1  0  0  0  0
 58 76  1  0  0  0  0
 59 62  1  0  0  0  0
 60 62  1  0  0  0  0
 61 63  1  0  0  0  0
 63 84  1  0  0  0  0
 64 66  1  0  0  0  0
 64 75  1  0  0  0  0
 65 77  1  0  0  0  0
 68 69  1  0  0  0  0
M  CHG  1  77   1
M  ISO  4  37 100  63 101  76 100  84 101
M  END
> <Batch ID>
0101

> <Smiles>
CCCCc1ncc(CC[101CH2:1][101O:1]c2ccc3c(c2)CN(C(=O)C(NC(=O)C(C)NC)C(C)(C)C)C(C(=O)NC2CCCc4ccccc42)C3)c(C[100NH:0][100C:0](=O)N2CCCC(n3nc(-c4ccc(Oc5ccc(F)cc5F)cc4)c(C(N)=O)c3N)C2)c1C

> <Shape>
0.182

> <Color>
0.191

> <Negative vol penalty>
0.000

$$$$

  -OEChem-04052319363D

 86 94  0     1  0  0  0  0  0999 V2000
  -29.1916  -24.3216   18.9951 C   0  0  0  0  0  0  0  0  0  0  0  0
  -27.9451  -24.5690   19.5610 C   0  0  0  0  0  0  0  0  0  0  0  0
  -24.9642  -13.2951   21.2890 C   0  0  0  0  0  0  0  0  0  0  0  0
  -26.2590  -12.8970   19.2885 C   0  0  0  0  0  0  0  0  0  0  0  0
  -30.3122  -25.0162   19.4489 C   0  0  0  0  0  0  0  0  0  0  0  0
  -27.8185  -25.5103   20.5819 C   0  0  0  0  0  0  0  0  0  0  0  0
  -23.8305  -28.5619   19.9272 C   0  0  0  0  0  0  0  0  0  0  0  0
  -24.8543  -11.9194   21.4916 C   0  0  0  0  0  0  0  0  0  0  0  0
  -26.1492  -11.5213   19.4911 C   0  0  0  0  0  0  0  0  0  0  0  0
  -22.5760  -28.0492   20.2542 C   0  0  0  0  0  0  0  0  0  0  0  0
  -23.0136   -9.3614   20.2699 C   0  0  0  0  0  0  0  0  0  0  0  0
  -21.7598   -8.8557   20.6132 C   0  0  0  0  0  0  0  0  0  0  0  0
  -22.6553  -29.2168   22.3636 C   0  0  0  0  0  0  0  0  0  0  0  0
  -22.6708   -8.0011   22.6812 C   0  0  0  0  0  0  0  0  0  0  0  0
  -25.6665  -13.7839   20.1874 C   0  0  0  0  0  0  0  0  0  0  0  0
  -26.7899  -16.0578   20.4610 C   0  0  0  0  0  0  0  0  0  0  0  0
  -30.1976  -25.9734   20.4693 C   0  0  0  0  0  0  0  0  0  0  0  0
  -24.5128  -29.3986   20.8221 C   0  0  0  0  0  0  0  0  0  0  0  0
  -28.9387  -26.2173   21.0508 C   0  0  0  0  0  0  0  0  0  0  0  0
  -23.9173  -29.7409   22.0445 C   0  0  0  0  0  0  0  0  0  0  0  0
  -25.4468  -11.0325   20.5927 C   0  0  0  0  0  0  0  0  0  0  0  0
  -21.9894  -28.3743   21.4738 C   0  0  0  0  0  0  0  0  0  0  0  0
  -24.0960   -9.1868   21.1322 C   0  0  0  0  0  0  0  0  0  0  0  0
  -21.5884   -8.1756   21.8189 C   0  0  0  0  0  0  0  0  0  0  0  0
  -23.9246   -8.5067   22.3379 C   0  0  0  0  0  0  0  0  0  0  0  0
  -25.7799  -15.2048   19.9772 C   0  0  0  0  0  0  0  0  0  0  0  0
  -26.4447  -17.3007   19.9893 C   0  0  0  0  0  0  0  0  0  0  0  0
  -21.5323  -22.7214   22.5055 C   0  0  0  0  0  0  0  0  0  0  0  0
  -21.2078  -21.4548   22.2030 C   0  0  0  0  0  0  0  0  0  0  0  0
  -20.2869  -22.8012   20.5975 C   0  0  0  0  0  0  0  0  0  0  0  0
  -27.9375  -15.7538   21.2649 C   0  0  0  0  0  0  0  0  0  0  0  0
  -27.2703  -29.2281   22.3940 C   0  0  0  0  0  0  0  0  0  0  0  0
  -26.5246  -32.2677   23.2467 C   0  0  0  0  0  0  0  0  0  0  0  0
  -24.1123  -34.6347   23.7209 C   0  0  0  0  0  0  0  0  0  0  0  0
  -21.2425  -19.7551   18.3692 C   0  0  0  0  0  0  0  0  0  0  0  0
  -31.4452  -26.6649   20.9593 C   0  0  0  0  0  0  0  0  0  0  0  0
  -25.8537  -29.9650   20.4431 C   0  0  0  0  0  0  0  0  0  0  0  0
  -24.5993  -30.6514   23.0315 C   0  0  0  0  0  0  0  0  0  0  0  0
  -31.1629  -27.9161   21.7871 C   0  0  0  0  0  0  0  0  0  0  0  0
  -24.1544  -19.4264   16.3630 C   0  0  0  0  0  0  0  0  0  0  0  0
  -30.0761  -27.6383   22.8208 C   0  0  0  0  0  0  0  0  0  0  0  0
  -24.9962  -18.3879   17.1070 C   0  0  0  0  0  0  0  0  0  0  0  0
  -22.6630  -19.1081   16.4456 C   0  0  0  0  0  0  0  0  0  0  0  0
  -22.9860  -17.8773   18.5549 C   0  0  0  0  0  0  0  0  0  0  0  0
  -28.7568  -27.2487   22.1432 C   0  0  1  0  0  0  0  0  0  0  0  0
  -26.6838  -30.3938   21.6491 C   0  0  1  0  0  0  0  0  0  0  0  0
  -24.4929  -18.1856   18.5492 C   0  0  1  0  0  0  0  0  0  0  0  0
  -23.0817  -20.0231   22.9760 C   0  0  0  0  0  0  0  0  0  0  0  0
  -20.9875  -20.2174   24.3525 C   0  0  0  0  0  0  0  0  0  0  0  0
  -23.8046  -37.0136   24.4582 C   0  0  0  0  0  0  0  0  0  0  0  0
  -19.7418  -27.7431   23.9612 C   0  0  0  0  0  0  0  0  0  0  0  0
  -26.9141  -31.4156   26.1506 C   0  0  0  0  0  0  0  0  0  0  0  0
  -25.6985  -33.4898   26.8493 C   0  0  0  0  0  0  0  0  0  0  0  0
  -27.8447  -33.6684   25.5906 C   0  0  0  0  0  0  0  0  0  0  0  0
  -22.9825  -35.4224   21.1014 C   0  0  0  0  0  0  0  0  0  0  0  0
  -21.1329  -25.0020   21.5539 C   0  0  0  0  0  0  0  0  0  0  0  0
  -19.9087  -20.2943   20.4017 C   0  0  0  0  0  0  0  0  0  0  0  0
  -21.5632  -20.2140   22.9327 C   0  0  0  0  0  0  0  0  0  0  0  0
  -25.7598  -32.9022   24.3832 C   0  0  1  0  0  0  0  0  0  0  0  0
  -24.0206  -36.0829   23.2750 C   0  0  2  0  0  0  0  0  0  0  0  0
  -20.6814  -27.0673   22.9694 C   0  0  1  0  0  0  0  0  0  1  0  0
  -20.2132  -25.6548   22.5864 C   0  0  1  0  0  0  0  0  0  0  0  0
  -26.5420  -32.8503   25.7259 C   0  0  0  0  0  0  0  0  0  0  0  0
  -24.8618  -15.8512   19.2538 N   0  0  0  0  0  0  0  0  0  0  0  0
  -25.2936  -17.1236   19.2796 N   0  0  0  0  0  0  0  0  0  0  0  0
  -20.9967  -23.5689   21.5625 N   0  0  0  0  0  0  0  0  0  0  0  0
  -20.4475  -21.4564   21.0456 N   0  0  0  0  0  0  0  0  0  0  0  0
  -25.9118  -31.1747   22.6178 N   0  0  0  0  0  0  0  0  0  0  0  0
  -22.2526  -18.9341   17.8410 N   0  0  0  0  0  0  0  0  0  0  0  0
  -27.0166  -18.5169   20.1166 N   0  0  0  0  0  0  0  0  0  0  0  0
  -28.1420  -14.4255   21.6624 N   0  0  0  0  0  0  0  0  0  0  0  0
  -28.0888  -28.4232   21.6248 N   0  0  0  0  0  0  0  0  0  0  0  0
  -25.4178  -34.2503   23.9426 N   0  0  0  0  0  0  0  0  0  0  0  0
  -20.9206  -19.5297   19.7026 N   0  0  0  0  0  0  0  0  0  0  0  0
  -22.8873  -36.2612   22.3238 N   0  3  0  0  0  0  0  0  0  0  0  0
  -19.6812  -23.2014   19.6146 O   0  0  0  0  0  0  0  0  0  0  0  0
  -28.7486  -16.6368   21.6338 O   0  0  0  0  0  0  0  0  0  0  0  0
  -27.0015  -29.0715   23.5793 O   0  0  0  0  0  0  0  0  0  0  0  0
  -27.6221  -32.7295   22.9242 O   0  0  0  0  0  0  0  0  0  0  0  0
  -23.1244  -33.9175   23.8623 O   0  0  0  0  0  0  0  0  0  0  0  0
  -20.6762  -20.6286   17.7036 O   0  0  0  0  0  0  0  0  0  0  0  0
  -18.8900  -25.7118   22.0513 O   0  0  0  0  0  0  0  0  0  0  0  0
  -25.3400   -9.6901   20.7903 O   0  0  0  0  0  0  0  0  0  0  0  0
  -20.7652  -27.8747   21.7958 O   0  0  0  0  0  0  0  0  0  1  0  0
  -20.3839   -7.6914   22.1492 F   0  0  0  0  0  0  0  0  0  0  0  0
  -24.9605   -8.3369   23.1709 F   0  0  0  0  0  0  0  0  0  0  0  0
  1  2  1  0  0  0  0
  1  5  2  0  0  0  0
  2  6  2  0  0  0  0
  3  8  2  0  0  0  0
  3 15  1  0  0  0  0
  4  9  1  0  0  0  0
  4 15  2  0  0  0  0
  5 17  1  0  0  0  0
  6 19  1  0  0  0  0
  7 10  2  0  0  0  0
  7 18  1  0  0  0  0
  8 21  1  0  0  0  0
  9 21  2  0  0  0  0
 10 22  1  0  0  0  0
 11 12  2  0  0  0  0
 11 23  1  0  0  0  0
 12 24  1  0  0  0  0
 13 20  1  0  0  0  0
 13 22  2  0  0  0  0
 14 24  2  0  0  0  0
 14 25  1  0  0  0  0
 15 26  1  0  0  0  0
 16 26  1  0  0  0  0
 16 27  2  0  0  0  0
 16 31  1  0  0  0  0
 17 19  2  0  0  0  0
 17 36  1  0  0  0  0
 18 20  2  0  0  0  0
 18 37  1  0  0  0  0
 19 45  1  0  0  0  0
 20 38  1  0  0  0  0
 21 83  1  0  0  0  0
 22 84  1  0  0  0  0
 23 25  2  0  0  0  0
 23 83  1  0  0  0  0
 24 85  1  0  0  0  0
 25 86  1  0  0  0  0
 26 64  2  0  0  0  0
 27 65  1  0  0  0  0
 27 70  1  0  0  0  0
 28 29  2  0  0  0  0
 28 66  1  0  0  0  0
 29 58  1  0  0  0  0
 29 67  1  0  0  0  0
 30 66  1  0  0  0  0
 30 67  1  0  0  0  0
 30 76  2  0  0  0  0
 31 71  1  0  0  0  0
 31 77  2  0  0  0  0
 32 46  1  0  0  0  0
 32 72  1  0  0  0  0
 32 78  2  0  0  0  0
 33 59  1  0  0  0  0
 33 68  1  0  0  0  0
 33 79  2  0  0  0  0
 34 60  1  0  0  0  0
 34 73  1  0  0  0  0
 34 80  2  0  0  0  0
 35 69  1  0  0  0  0
 35 74  1  0  0  0  0
 35 81  2  0  0  0  0
 36 39  1  0  0  0  0
 37 46  1  0  0  0  0
 38 68  1  0  0  0  0
 39 41  1  0  0  0  0
 40 42  1  0  0  0  0
 40 43  1  0  0  0  0
 41 45  1  0  0  0  0
 42 47  1  0  0  0  0
 43 69  1  0  0  0  0
 44 47  1  0  0  0  0
 44 69  1  0  0  0  0
 45 72  1  0  0  0  0
 46 68  1  0  0  0  0
 47 65  1  0  0  0  0
 48 58  1  0  0  0  0
 49 58  1  0  0  0  0
 50 60  1  0  0  0  0
 51 61  1  0  0  0  0
 52 63  1  0  0  0  0
 53 63  1  0  0  0  0
 54 63  1  0  0  0  0
 55 75  1  0  0  0  0
 56 62  1  0  0  0  0
 56 66  1  0  0  0  0
 57 67  1  0  0  0  0
 57 74  1  0  0  0  0
 59 63  1  0  0  0  0
 59 73  1  0  0  0  0
 60 75  1  0  0  0  0
 61 62  1  0  0  0  0
 61 84  1  0  0  0  0
 62 82  1  0  0  0  0
 64 65  1  0  0  0  0
M  CHG  1  75   1
M  ISO  4  35 100  61 101  74 100  84 101
M  END
> <Batch ID>
0101

> <Smiles>
CNC(C)C(=O)NC(C(=O)N1Cc2cc([101O:1][101CH:1](C)C(O)Cn3cc(C(C)C)n(C[100NH:0][100C:0](=O)N4CCCC(n5nc(-c6ccc(Oc7ccc(F)cc7F)cc6)c(C(N)=O)c5N)C4)c3=O)ccc2CC1C(=O)NC1CCCc2ccccc21)C(C)(C)C

> <Shape>
0.290

> <Color>
0.052

> <Negative vol penalty>
0.000

$$$$

  -OEChem-04052319363D

 84 92  0     1  0  0  0  0  0999 V2000
  -21.5410  -12.6713   20.1742 C   0  0  0  0  0  0  0  0  0  0  0  0
  -21.6661  -13.7736   21.0138 C   0  0  0  0  0  0  0  0  0  0  0  0
  -26.2243  -28.9770   21.5651 C   0  0  0  0  0  0  0  0  0  0  0  0
  -24.9979  -27.1570   20.5549 C   0  0  0  0  0  0  0  0  0  0  0  0
  -22.6805  -12.0033   19.7281 C   0  0  0  0  0  0  0  0  0  0  0  0
  -22.9311  -14.2078   21.4086 C   0  0  0  0  0  0  0  0  0  0  0  0
  -23.4399  -19.2373   21.1086 C   0  0  0  0  0  0  0  0  0  0  0  0
  -27.4124  -28.4670   21.0417 C   0  0  0  0  0  0  0  0  0  0  0  0
  -26.1860  -26.6470   20.0314 C   0  0  0  0  0  0  0  0  0  0  0  0
  -22.8687  -19.9970   22.1286 C   0  0  0  0  0  0  0  0  0  0  0  0
  -29.0156  -28.4444   18.0648 C   0  0  0  0  0  0  0  0  0  0  0  0
  -29.8967  -29.3423   17.4624 C   0  0  0  0  0  0  0  0  0  0  0  0
  -20.9455  -22.2310   28.2544 C   0  0  0  0  0  0  0  0  0  0  0  0
  -21.9438  -22.4579   27.2751 C   0  0  0  0  0  0  0  0  0  0  0  0
  -25.0327  -20.2113   23.1727 C   0  0  0  0  0  0  0  0  0  0  0  0
  -31.6028  -28.7432   19.0647 C   0  0  0  0  0  0  0  0  0  0  0  0
  -25.0171  -28.3220   21.3218 C   0  0  0  0  0  0  0  0  0  0  0  0
  -22.9194  -29.7721   21.2538 C   0  0  0  0  0  0  0  0  0  0  0  0
  -23.9605  -12.4354   20.1099 C   0  0  0  0  0  0  0  0  0  0  0  0
  -24.8122  -18.9492   21.1188 C   0  0  0  0  0  0  0  0  0  0  0  0
  -24.0888  -13.5441   20.9683 C   0  0  0  0  0  0  0  0  0  0  0  0
  -25.6194  -19.4499   22.1503 C   0  0  0  0  0  0  0  0  0  0  0  0
  -27.3932  -27.3020   20.2748 C   0  0  0  0  0  0  0  0  0  0  0  0
  -23.6646  -20.4817   23.1624 C   0  0  0  0  0  0  0  0  0  0  0  0
  -29.4280  -27.6958   19.1672 C   0  0  0  0  0  0  0  0  0  0  0  0
  -31.1903  -29.4917   17.9623 C   0  0  0  0  0  0  0  0  0  0  0  0
  -30.7216  -27.8452   19.6672 C   0  0  0  0  0  0  0  0  0  0  0  0
  -23.7895  -28.8480   21.8627 C   0  0  0  0  0  0  0  0  0  0  0  0
  -19.7270  -22.4929   27.6678 C   0  0  0  0  0  0  0  0  0  0  0  0
  -21.3050  -22.8518   26.1200 C   0  0  0  0  0  0  0  0  0  0  0  0
  -21.9084  -29.9451   22.1673 C   0  0  0  0  0  0  0  0  0  0  0  0
  -23.0162  -30.4163   19.9766 C   0  0  0  0  0  0  0  0  0  0  0  0
  -26.5446  -16.2884   21.2688 C   0  0  0  0  0  0  0  0  0  0  0  0
  -29.0161  -18.3344   20.7916 C   0  0  0  0  0  0  0  0  0  0  0  0
  -30.2345  -21.5129   21.0358 C   0  0  0  0  0  0  0  0  0  0  0  0
  -19.7530  -26.5004   26.5650 C   0  0  0  0  0  0  0  0  0  0  0  0
  -25.1610  -11.6525   19.6403 C   0  0  0  0  0  0  0  0  0  0  0  0
  -25.4178  -18.1508   19.9971 C   0  0  0  0  0  0  0  0  0  0  0  0
  -27.1015  -19.1858   22.1968 C   0  0  0  0  0  0  0  0  0  0  0  0
  -26.4798  -12.4040   19.8028 C   0  0  0  0  0  0  0  0  0  0  0  0
  -21.0477  -29.8029   26.8715 C   0  0  0  0  0  0  0  0  0  0  0  0
  -26.5666  -13.0364   21.1882 C   0  0  0  0  0  0  0  0  0  0  0  0
  -21.8187  -30.0161   25.5677 C   0  0  0  0  0  0  0  0  0  0  0  0
  -21.1705  -28.3651   27.3712 C   0  0  0  0  0  0  0  0  0  0  0  0
  -21.5702  -27.5461   25.0814 C   0  0  0  0  0  0  0  0  0  0  0  0
  -25.4447  -14.0604   21.3986 C   0  0  1  0  0  0  0  0  0  0  0  0
  -26.7358  -17.4854   20.3810 C   0  0  1  0  0  0  0  0  0  0  0  0
  -21.4302  -28.9669   24.5086 C   0  0  2  0  0  0  0  0  0  0  0  0
  -18.1475  -23.3933   29.4138 C   0  0  0  0  0  0  0  0  0  0  0  0
  -17.9808  -20.9859   28.6847 C   0  0  0  0  0  0  0  0  0  0  0  0
  -23.2570  -23.8846   24.9140 C   0  0  0  0  0  0  0  0  0  0  0  0
  -32.3006  -22.8694   20.6015 C   0  0  0  0  0  0  0  0  0  0  0  0
  -30.3162  -17.1477   23.2839 C   0  0  0  0  0  0  0  0  0  0  0  0
  -31.8473  -19.1277   23.3431 C   0  0  0  0  0  0  0  0  0  0  0  0
  -31.8914  -17.5772   21.3895 C   0  0  0  0  0  0  0  0  0  0  0  0
  -28.8248  -23.2550   19.1027 C   0  0  0  0  0  0  0  0  0  0  0  0
  -18.9351  -23.2311   25.4116 C   0  0  0  0  0  0  0  0  0  0  0  0
  -18.4043  -24.6483   25.6111 C   0  0  0  0  0  0  0  0  0  0  0  0
  -21.9676  -22.0106   23.8247 C   0  0  0  0  0  0  0  0  0  1  0  0
  -18.3659  -22.4146   28.2373 C   0  0  0  0  0  0  0  0  0  0  0  0
  -21.8849  -23.2217   24.7639 C   0  0  1  0  0  0  0  0  0  0  0  0
  -29.9260  -19.1393   21.6879 C   0  0  1  0  0  0  0  0  0  0  0  0
  -30.9722  -22.3883   20.0388 C   0  0  2  0  0  0  0  0  0  0  0  0
  -30.9670  -18.2515   22.4266 C   0  0  0  0  0  0  0  0  0  0  0  0
  -23.3683  -28.4612   23.0697 N   0  0  0  0  0  0  0  0  0  0  0  0
  -19.9578  -22.8697   26.3705 N   0  0  0  0  0  0  0  0  0  0  0  0
  -22.2225  -29.1456   23.2267 N   0  0  0  0  0  0  0  0  0  0  0  0
  -27.6455  -18.3950   21.0805 N   0  0  0  0  0  0  0  0  0  0  0  0
  -20.7860  -27.4202   26.3200 N   0  0  0  0  0  0  0  0  0  0  0  0
  -20.7905  -30.7017   22.1597 N   0  0  0  0  0  0  0  0  0  0  0  0
  -24.1199  -30.1251   19.1633 N   0  0  0  0  0  0  0  0  0  0  0  0
  -25.7554  -15.2980   20.7159 N   0  0  0  0  0  0  0  0  0  0  0  0
  -30.5145  -20.1761   20.8469 N   0  0  0  0  0  0  0  0  0  0  0  0
  -19.4473  -25.6451   25.5135 N   0  0  0  0  0  0  0  0  0  0  0  0
  -30.1502  -23.5812   19.6892 N   0  3  0  0  0  0  0  0  0  0  0  0
  -22.1582  -31.2388   19.5756 O   0  0  0  0  0  0  0  0  0  0  0  0
  -27.0752  -16.2644   22.3732 O   0  0  0  0  0  0  0  0  0  0  0  0
  -29.5029  -17.6819   19.8648 O   0  0  0  0  0  0  0  0  0  0  0  0
  -29.4877  -21.9697   21.8984 O   0  0  0  0  0  0  0  0  0  0  0  0
  -19.1445  -26.4491   27.6392 O   0  0  0  0  0  0  0  0  0  0  0  0
  -28.5523  -26.8042   19.7637 O   0  0  0  0  0  0  0  0  0  0  0  0
  -23.1095  -21.2229   24.1595 O   0  0  0  0  0  0  0  0  0  1  0  0
  -32.0369  -30.3529   17.3828 F   0  0  0  0  0  0  0  0  0  0  0  0
  -31.1240  -27.1280   20.7253 F   0  0  0  0  0  0  0  0  0  0  0  0
  1  2  1  0  0  0  0
  1  5  2  0  0  0  0
  2  6  2  0  0  0  0
  3  8  2  0  0  0  0
  3 17  1  0  0  0  0
  4  9  1  0  0  0  0
  4 17  2  0  0  0  0
  5 19  1  0  0  0  0
  6 21  1  0  0  0  0
  7 10  2  0  0  0  0
  7 20  1  0  0  0  0
  8 23  1  0  0  0  0
  9 23  2  0  0  0  0
 10 24  1  0  0  0  0
 11 12  2  0  0  0  0
 11 25  1  0  0  0  0
 12 26  1  0  0  0  0
 13 14  1  0  0  0  0
 13 29  2  0  0  0  0
 14 30  2  0  0  0  0
 15 22  1  0  0  0  0
 15 24  2  0  0  0  0
 16 26  2  0  0  0  0
 16 27  1  0  0  0  0
 17 28  1  0  0  0  0
 18 28  1  0  0  0  0
 18 31  2  0  0  0  0
 18 32  1  0  0  0  0
 19 21  2  0  0  0  0
 19 37  1  0  0  0  0
 20 22  2  0  0  0  0
 20 38  1  0  0  0  0
 21 46  1  0  0  0  0
 22 39  1  0  0  0  0
 23 81  1  0  0  0  0
 24 82  1  0  0  0  0
 25 27  2  0  0  0  0
 25 81  1  0  0  0  0
 26 83  1  0  0  0  0
 27 84  1  0  0  0  0
 28 65  2  0  0  0  0
 29 60  1  0  0  0  0
 29 66  1  0  0  0  0
 30 61  1  0  0  0  0
 30 66  1  0  0  0  0
 31 67  1  0  0  0  0
 31 70  1  0  0  0  0
 32 71  1  0  0  0  0
 32 76  2  0  0  0  0
 33 47  1  0  0  0  0
 33 72  1  0  0  0  0
 33 77  2  0  0  0  0
 34 62  1  0  0  0  0
 34 68  1  0  0  0  0
 34 78  2  0  0  0  0
 35 63  1  0  0  0  0
 35 73  1  0  0  0  0
 35 79  2  0  0  0  0
 36 69  1  0  0  0  0
 36 74  1  0  0  0  0
 36 80  2  0  0  0  0
 37 40  1  0  0  0  0
 38 47  1  0  0  0  0
 39 68  1  0  0  0  0
 40 42  1  0  0  0  0
 41 43  1  0  0  0  0
 41 44  1  0  0  0  0
 42 46  1  0  0  0  0
 43 48  1  0  0  0  0
 44 69  1  0  0  0  0
 45 48  1  0  0  0  0
 45 69  1  0  0  0  0
 46 72  1  0  0  0  0
 47 68  1  0  0  0  0
 48 67  1  0  0  0  0
 49 60  1  0  0  0  0
 50 60  1  0  0  0  0
 51 61  1  0  0  0  0
 52 63  1  0  0  0  0
 53 64  1  0  0  0  0
 54 64  1  0  0  0  0
 55 64  1  0  0  0  0
 56 75  1  0  0  0  0
 57 58  1  0  0  0  0
 57 66  1  0  0  0  0
 58 74  1  0  0  0  0
 59 61  1  0  0  0  0
 59 82  1  0  0  0  0
 62 64  1  0  0  0  0
 62 73  1  0  0  0  0
 63 75  1  0  0  0  0
 65 67  1  0  0  0  0
M  CHG  1  75   1
M  ISO  4  36 100  59 101  74 100  82 101
M  END
> <Batch ID>
0101

> <Smiles>
CNC(C)C(=O)NC(C(=O)N1Cc2cc([101O:1][101CH2:1]C(C)c3ccc(C(C)C)n3CC[100NH:0][100C:0](=O)N3CCCC(n4nc(-c5ccc(Oc6ccc(F)cc6F)cc5)c(C(N)=O)c4N)C3)ccc2CC1C(=O)NC1CCCc2ccccc21)C(C)(C)C

> <Shape>
0.197

> <Color>
0.089

> <Negative vol penalty>
0.000

$$$$

  -OEChem-04052319363D

 89 97  0     1  0  0  0  0  0999 V2000
  -21.7749  -25.1824   17.8625 C   0  0  0  0  0  0  0  0  0  0  0  0
  -22.1615  -23.8492   17.7691 C   0  0  0  0  0  0  0  0  0  0  0  0
  -26.1078  -25.9665   18.0276 C   0  0  0  0  0  0  0  0  0  0  0  0
  -26.1973  -25.7614   20.4332 C   0  0  0  0  0  0  0  0  0  0  0  0
  -21.3081  -25.6883   19.0749 C   0  0  0  0  0  0  0  0  0  0  0  0
  -22.0826  -23.0215   18.8885 C   0  0  0  0  0  0  0  0  0  0  0  0
  -20.7105  -17.0535   18.9649 C   0  0  0  0  0  0  0  0  0  0  0  0
  -25.2269  -27.0408   18.1519 C   0  0  0  0  0  0  0  0  0  0  0  0
  -25.3165  -26.8358   20.5576 C   0  0  0  0  0  0  0  0  0  0  0  0
  -21.5044  -15.9093   19.0306 C   0  0  0  0  0  0  0  0  0  0  0  0
  -25.4644  -30.2079   20.3919 C   0  0  0  0  0  0  0  0  0  0  0  0
  -25.7658  -31.1846   21.3409 C   0  0  0  0  0  0  0  0  0  0  0  0
  -21.1797  -15.8286   21.4196 C   0  0  0  0  0  0  0  0  0  0  0  0
  -27.8970  -11.8481   20.2357 C   0  0  0  0  0  0  0  0  0  0  0  0
  -29.8493  -12.8282   19.2038 C   0  0  0  0  0  0  0  0  0  0  0  0
  -23.6774  -30.7332   22.4688 C   0  0  0  0  0  0  0  0  0  0  0  0
  -26.5929  -25.3267   19.1683 C   0  0  0  0  0  0  0  0  0  0  0  0
  -28.9083  -24.2704   18.9930 C   0  0  0  0  0  0  0  0  0  0  0  0
  -21.2143  -24.8640   20.2072 C   0  0  0  0  0  0  0  0  0  0  0  0
  -20.1533  -17.6011   20.1294 C   0  0  0  0  0  0  0  0  0  0  0  0
  -21.6153  -23.5173   20.1176 C   0  0  0  0  0  0  0  0  0  0  0  0
  -20.3770  -16.9784   21.3656 C   0  0  0  0  0  0  0  0  0  0  0  0
  -29.0010  -11.7368   19.3905 C   0  0  0  0  0  0  0  0  0  0  0  0
  -27.6412  -13.0509   20.8942 C   0  0  0  0  0  0  0  0  0  0  0  0
  -29.5935  -14.0310   19.8623 C   0  0  0  0  0  0  0  0  0  0  0  0
  -28.4895  -14.1423   20.7075 C   0  0  0  0  0  0  0  0  0  0  0  0
  -24.8313  -27.4755   19.4169 C   0  0  0  0  0  0  0  0  0  0  0  0
  -21.7415  -15.2983   20.2585 C   0  0  0  0  0  0  0  0  0  0  0  0
  -24.2694  -29.4939   20.4812 C   0  0  0  0  0  0  0  0  0  0  0  0
  -24.8724  -31.4473   22.3794 C   0  0  0  0  0  0  0  0  0  0  0  0
  -23.3760  -29.7565   21.5196 C   0  0  0  0  0  0  0  0  0  0  0  0
  -27.5024  -24.2165   19.0405 C   0  0  0  0  0  0  0  0  0  0  0  0
  -29.2982  -22.9594   18.8676 C   0  0  0  0  0  0  0  0  0  0  0  0
  -29.7837  -25.4042   19.0566 C   0  0  0  0  0  0  0  0  0  0  0  0
  -20.4257  -20.3756   21.6563 C   0  0  0  0  0  0  0  0  0  0  0  0
  -18.0638  -19.1440   23.5075 C   0  0  0  0  0  0  0  0  0  0  0  0
  -16.4556  -16.3763   24.6910 C   0  0  0  0  0  0  0  0  0  0  0  0
  -27.8299  -17.7923   20.7534 C   0  0  0  0  0  0  0  0  0  0  0  0
  -20.7482  -25.4679   21.5083 C   0  0  0  0  0  0  0  0  0  0  0  0
  -19.2772  -18.8204   20.0382 C   0  0  0  0  0  0  0  0  0  0  0  0
  -19.7853  -17.5149   22.6425 C   0  0  0  0  0  0  0  0  0  0  0  0
  -20.3417  -24.4296   22.5508 C   0  0  0  0  0  0  0  0  0  0  0  0
  -27.0965  -18.7978   17.3551 C   0  0  0  0  0  0  0  0  0  0  0  0
  -21.3884  -23.3235   22.6388 C   0  0  0  0  0  0  0  0  0  0  0  0
  -27.2663  -20.3156   17.4437 C   0  0  0  0  0  0  0  0  0  0  0  0
  -26.4638  -18.2373   18.6254 C   0  0  0  0  0  0  0  0  0  0  0  0
  -27.3627  -20.0967   19.9701 C   0  0  0  0  0  0  0  0  0  0  0  0
  -21.5209  -22.5817   21.3033 C   0  0  1  0  0  0  0  0  0  0  0  0
  -19.1826  -19.5878   21.3532 C   0  0  1  0  0  0  0  0  0  0  0  0
  -28.0183  -20.7214   18.7251 C   0  0  2  0  0  0  0  0  0  0  0  0
  -30.5393  -15.6507   18.1784 C   0  0  0  0  0  0  0  0  0  0  0  0
  -31.9502  -14.8867   20.1228 C   0  0  0  0  0  0  0  0  0  0  0  0
  -14.5872  -15.6856   26.2172 C   0  0  0  0  0  0  0  0  0  0  0  0
  -29.5653   -9.0800   20.8158 C   0  0  0  0  0  0  0  0  0  0  0  0
  -30.4475   -8.2118   18.6406 C   0  0  0  0  0  0  0  0  0  0  0  0
  -19.8296  -19.7235   25.9274 C   0  0  0  0  0  0  0  0  0  0  0  0
  -18.3756  -18.1886   27.2684 C   0  0  0  0  0  0  0  0  0  0  0  0
  -17.4068  -20.2512   26.2535 C   0  0  0  0  0  0  0  0  0  0  0  0
  -14.9726  -15.0831   22.4802 C   0  0  0  0  0  0  0  0  0  0  0  0
  -29.2741  -10.4510   18.6860 C   0  0  0  0  0  0  0  0  0  0  0  0
  -26.4417  -13.1445   21.8032 C   0  0  0  0  0  0  0  0  0  0  0  0
  -28.2152  -15.4317   21.4140 C   0  0  0  0  0  0  0  0  0  0  0  0
  -25.2622  -13.9113   21.1948 C   0  0  0  0  0  0  0  0  0  0  0  0
  -24.6901  -13.2377   19.9467 C   0  0  0  0  0  0  0  0  0  0  0  0
  -23.5477  -14.0473   19.3484 C   0  0  0  0  0  0  0  0  0  1  0  0
  -30.5173  -15.1849   19.6455 C   0  0  0  0  0  0  0  0  0  0  0  0
  -18.0160  -18.3037   24.7607 C   0  0  1  0  0  0  0  0  0  0  0  0
  -14.9800  -16.0340   24.7899 C   0  0  2  0  0  0  0  0  0  0  0  0
  -30.1810   -9.4706   19.4699 C   0  0  0  0  0  0  0  0  0  0  0  0
  -18.4199  -19.1075   26.0289 C   0  0  0  0  0  0  0  0  0  0  0  0
  -27.0310  -22.9699   18.9523 N   0  0  0  0  0  0  0  0  0  0  0  0
  -28.1469  -22.2284   18.8480 N   0  0  0  0  0  0  0  0  0  0  0  0
  -18.9409  -18.7128   22.5022 N   0  0  0  0  0  0  0  0  0  0  0  0
  -27.2379  -18.6445   19.8066 N   0  0  0  0  0  0  0  0  0  0  0  0
  -30.5101  -22.3721   18.7731 N   0  0  0  0  0  0  0  0  0  0  0  0
  -29.2168  -26.6795   19.1856 N   0  0  0  0  0  0  0  0  0  0  0  0
  -20.4243  -21.6533   21.1299 N   0  0  0  0  0  0  0  0  0  0  0  0
  -16.6751  -17.7317   24.8177 N   0  0  0  0  0  0  0  0  0  0  0  0
  -27.6593  -16.4316   20.5296 N   0  0  0  0  0  0  0  0  0  0  0  0
  -14.6586  -14.8700   23.9165 N   0  3  0  0  0  0  0  0  0  0  0  0
  -31.0309  -25.2912   18.9841 O   0  0  0  0  0  0  0  0  0  0  0  0
  -21.3192  -19.8628   22.3198 O   0  0  0  0  0  0  0  0  0  0  0  0
  -17.3440  -20.1420   23.4207 O   0  0  0  0  0  0  0  0  0  0  0  0
  -17.3268  -15.5260   24.5221 O   0  0  0  0  0  0  0  0  0  0  0  0
  -28.4683  -18.2128   21.7243 O   0  0  0  0  0  0  0  0  0  0  0  0
  -23.9720  -28.5240   19.5386 O   0  0  0  0  0  0  0  0  0  0  0  0
  -22.5165  -14.1818   20.3255 O   0  0  0  0  0  0  0  0  0  1  0  0
  -25.1627  -32.3842   23.2916 F   0  0  0  0  0  0  0  0  0  0  0  0
  -22.2270  -29.0730   21.6113 F   0  0  0  0  0  0  0  0  0  0  0  0
  1  2  1  0  0  0  0
  1  5  2  0  0  0  0
  2  6  2  0  0  0  0
  3  8  2  0  0  0  0
  3 17  1  0  0  0  0
  4  9  1  0  0  0  0
  4 17  2  0  0  0  0
  5 19  1  0  0  0  0
  6 21  1  0  0  0  0
  7 10  2  0  0  0  0
  7 20  1  0  0  0  0
  8 27  1  0  0  0  0
  9 27  2  0  0  0  0
 10 28  1  0  0  0  0
 11 12  2  0  0  0  0
 11 29  1  0  0  0  0
 12 30  1  0  0  0  0
 13 22  1  0  0  0  0
 13 28  2  0  0  0  0
 14 23  2  0  0  0  0
 14 24  1  0  0  0  0
 15 23  1  0  0  0  0
 15 25  2  0  0  0  0
 16 30  2  0  0  0  0
 16 31  1  0  0  0  0
 17 32  1  0  0  0  0
 18 32  1  0  0  0  0
 18 33  2  0  0  0  0
 18 34  1  0  0  0  0
 19 21  2  0  0  0  0
 19 39  1  0  0  0  0
 20 22  2  0  0  0  0
 20 40  1  0  0  0  0
 21 48  1  0  0  0  0
 22 41  1  0  0  0  0
 23 60  1  0  0  0  0
 24 26  2  0  0  0  0
 24 61  1  0  0  0  0
 25 26  1  0  0  0  0
 25 66  1  0  0  0  0
 26 62  1  0  0  0  0
 27 86  1  0  0  0  0
 28 87  1  0  0  0  0
 29 31  2  0  0  0  0
 29 86  1  0  0  0  0
 30 88  1  0  0  0  0
 31 89  1  0  0  0  0
 32 71  2  0  0  0  0
 33 72  1  0  0  0  0
 33 75  1  0  0  0  0
 34 76  1  0  0  0  0
 34 81  2  0  0  0  0
 35 49  1  0  0  0  0
 35 77  1  0  0  0  0
 35 82  2  0  0  0  0
 36 67  1  0  0  0  0
 36 73  1  0  0  0  0
 36 83  2  0  0  0  0
 37 68  1  0  0  0  0
 37 78  1  0  0  0  0
 37 84  2  0  0  0  0
 38 74  1  0  0  0  0
 38 79  1  0  0  0  0
 38 85  2  0  0  0  0
 39 42  1  0  0  0  0
 40 49  1  0  0  0  0
 41 73  1  0  0  0  0
 42 44  1  0  0  0  0
 43 45  1  0  0  0  0
 43 46  1  0  0  0  0
 44 48  1  0  0  0  0
 45 50  1  0  0  0  0
 46 74  1  0  0  0  0
 47 50  1  0  0  0  0
 47 74  1  0  0  0  0
 48 77  1  0  0  0  0
 49 73  1  0  0  0  0
 50 72  1  0  0  0  0
 51 66  1  0  0  0  0
 52 66  1  0  0  0  0
 53 68  1  0  0  0  0
 54 69  1  0  0  0  0
 55 69  1  0  0  0  0
 56 70  1  0  0  0  0
 57 70  1  0  0  0  0
 58 70  1  0  0  0  0
 59 80  1  0  0  0  0
 60 69  1  0  0  0  0
 61 63  1  0  0  0  0
 62 79  1  0  0  0  0
 63 64  1  0  0  0  0
 64 65  1  0  0  0  0
 65 87  1  0  0  0  0
 67 70  1  0  0  0  0
 67 78  1  0  0  0  0
 68 80  1  0  0  0  0
 71 72  1  0  0  0  0
M  CHG  1  80   1
M  ISO  4  38 100  65 101  79 100  87 101
M  END
> <Batch ID>
0101

> <Smiles>
CNC(C)C(=O)NC(C(=O)N1Cc2cc([101O:1][101CH2:1]CCCc3cc(CC(C)C)cc(C(C)C)c3C[100NH:0][100C:0](=O)N3CCCC(n4nc(-c5ccc(Oc6ccc(F)cc6F)cc5)c(C(N)=O)c4N)C3)ccc2CC1C(=O)NC1CCCc2ccccc21)C(C)(C)C

> <Shape>
0.201

> <Color>
0.058

> <Negative vol penalty>
0.000

$$$$

  -OEChem-04052319363D

 82 90  0     1  0  0  0  0  0999 V2000
  -16.5450  -29.0577   23.1779 C   0  0  0  0  0  0  0  0  0  0  0  0
  -17.2773  -28.9461   22.0003 C   0  0  0  0  0  0  0  0  0  0  0  0
  -25.2439  -13.6421   22.0272 C   0  0  0  0  0  0  0  0  0  0  0  0
  -26.1138  -13.9461   19.7938 C   0  0  0  0  0  0  0  0  0  0  0  0
  -17.1504  -29.5604   24.3289 C   0  0  0  0  0  0  0  0  0  0  0  0
  -18.6151  -29.3383   21.9727 C   0  0  0  0  0  0  0  0  0  0  0  0
  -21.5708  -25.9945   19.5794 C   0  0  0  0  0  0  0  0  0  0  0  0
  -25.6408  -23.5751   14.4935 C   0  0  0  0  0  0  0  0  0  0  0  0
  -26.6121  -22.8371   15.1698 C   0  0  0  0  0  0  0  0  0  0  0  0
  -25.1380  -12.2702   21.7993 C   0  0  0  0  0  0  0  0  0  0  0  0
  -26.0080  -12.5740   19.5659 C   0  0  0  0  0  0  0  0  0  0  0  0
  -21.5462  -26.0061   18.1855 C   0  0  0  0  0  0  0  0  0  0  0  0
  -23.0258  -10.1659   20.2070 C   0  0  0  0  0  0  0  0  0  0  0  0
  -21.8493   -9.5321   20.6068 C   0  0  0  0  0  0  0  0  0  0  0  0
  -23.5974  -27.2754   18.1658 C   0  0  0  0  0  0  0  0  0  0  0  0
  -24.0373  -23.0491   16.2225 C   0  0  0  0  0  0  0  0  0  0  0  0
  -23.1212   -8.0999   22.0793 C   0  0  0  0  0  0  0  0  0  0  0  0
  -25.7318  -14.4802   21.0245 C   0  0  0  0  0  0  0  0  0  0  0  0
  -26.9485  -16.5895   21.7845 C   0  0  0  0  0  0  0  0  0  0  0  0
  -18.4990  -29.9499   24.3179 C   0  0  0  0  0  0  0  0  0  0  0  0
  -22.6049  -26.6337   20.2783 C   0  0  0  0  0  0  0  0  0  0  0  0
  -19.2387  -29.8480   23.1242 C   0  0  0  0  0  0  0  0  0  0  0  0
  -23.6343  -27.2683   19.5685 C   0  0  0  0  0  0  0  0  0  0  0  0
  -24.3533  -23.6811   15.0199 C   0  0  0  0  0  0  0  0  0  0  0  0
  -26.2961  -22.2051   16.3724 C   0  0  0  0  0  0  0  0  0  0  0  0
  -25.0087  -22.3110   16.8988 C   0  0  0  0  0  0  0  0  0  0  0  0
  -25.5201  -11.7361   20.5686 C   0  0  0  0  0  0  0  0  0  0  0  0
  -22.5580  -26.6491   17.4785 C   0  0  0  0  0  0  0  0  0  0  0  0
  -24.2500   -9.7666   20.7433 C   0  0  0  0  0  0  0  0  0  0  0  0
  -21.8970   -8.4992   21.5430 C   0  0  0  0  0  0  0  0  0  0  0  0
  -24.2977   -8.7337   21.6795 C   0  0  0  0  0  0  0  0  0  0  0  0
  -25.8408  -15.8976   21.2591 C   0  0  0  0  0  0  0  0  0  0  0  0
  -26.5523  -17.9044   21.8082 C   0  0  0  0  0  0  0  0  0  0  0  0
  -28.2218  -16.0885   22.2128 C   0  0  0  0  0  0  0  0  0  0  0  0
  -22.7600  -29.0430   22.3460 C   0  0  0  0  0  0  0  0  0  0  0  0
  -25.8792  -28.1717   22.5304 C   0  0  0  0  0  0  0  0  0  0  0  0
  -28.5523  -26.6436   21.0587 C   0  0  0  0  0  0  0  0  0  0  0  0
  -23.4323  -21.6940   18.7644 C   0  0  0  0  0  0  0  0  0  0  0  0
  -19.0968  -30.5317   25.5744 C   0  0  0  0  0  0  0  0  0  0  0  0
  -22.6313  -26.5892   21.7816 C   0  0  0  0  0  0  0  0  0  0  0  0
  -24.7777  -27.9518   20.2712 C   0  0  0  0  0  0  0  0  0  0  0  0
  -20.6227  -30.5746   25.5597 C   0  0  0  0  0  0  0  0  0  0  0  0
  -22.1847  -20.2294   21.7604 C   0  0  0  0  0  0  0  0  0  0  0  0
  -21.1284  -31.1312   24.2326 C   0  0  0  0  0  0  0  0  0  0  0  0
  -23.1078  -19.0304   21.9894 C   0  0  0  0  0  0  0  0  0  0  0  0
  -21.9007  -20.4510   20.2758 C   0  0  0  0  0  0  0  0  0  0  0  0
  -24.0156  -19.3518   19.6529 C   0  0  0  0  0  0  0  0  0  0  0  0
  -20.6991  -30.2398   23.0610 C   0  0  1  0  0  0  0  0  0  0  0  0
  -23.4580  -27.7134   22.3982 C   0  0  1  0  0  0  0  0  0  0  0  0
  -24.3828  -19.1282   21.1290 C   0  0  2  0  0  0  0  0  0  0  0  0
  -27.3564  -21.4205   17.0747 C   0  0  0  0  0  0  0  0  0  0  0  0
  -23.0004  -23.8571   12.9154 C   0  0  0  0  0  0  0  0  0  0  0  0
  -30.9780  -26.1237   21.4366 C   0  0  0  0  0  0  0  0  0  0  0  0
  -26.5963  -31.0692   21.8977 C   0  0  0  0  0  0  0  0  0  0  0  0
  -28.9173  -30.3032   21.3552 C   0  0  0  0  0  0  0  0  0  0  0  0
  -28.0144  -30.0048   23.6613 C   0  0  0  0  0  0  0  0  0  0  0  0
  -28.0667  -23.7270   20.9304 C   0  0  0  0  0  0  0  0  0  0  0  0
  -23.6715  -25.9707   14.1196 C   0  0  0  0  0  0  0  0  0  0  0  0
  -23.7953  -26.7103   15.4484 C   0  0  0  0  0  0  0  0  0  1  0  0
  -23.2962  -24.4851   14.2828 C   0  0  2  0  0  0  0  0  0  0  0  0
  -27.1397  -28.5475   21.7896 C   0  0  1  0  0  0  0  0  0  0  0  0
  -29.5484  -25.6274   21.5873 C   0  0  2  0  0  0  0  0  0  0  0  0
  -27.6445  -29.9700   22.1624 C   0  0  0  0  0  0  0  0  0  0  0  0
  -24.8177  -16.7060   20.9700 N   0  0  0  0  0  0  0  0  0  0  0  0
  -25.2808  -17.9195   21.3151 N   0  0  0  0  0  0  0  0  0  0  0  0
  -24.7555  -27.8863   21.7418 N   0  0  0  0  0  0  0  0  0  0  0  0
  -23.1548  -20.5381   19.5244 N   0  0  0  0  0  0  0  0  0  0  0  0
  -27.1710  -19.0376   22.2027 N   0  0  0  0  0  0  0  0  0  0  0  0
  -28.4632  -14.7110   22.1202 N   0  0  0  0  0  0  0  0  0  0  0  0
  -24.6685  -21.6769   18.1194 N   0  0  0  0  0  0  0  0  0  0  0  0
  -21.5369  -29.0619   22.9887 N   0  0  0  0  0  0  0  0  0  0  0  0
  -28.1018  -27.4834   22.0552 N   0  0  0  0  0  0  0  0  0  0  0  0
  -29.4173  -24.3403   20.8477 N   0  3  0  0  0  0  0  0  0  0  0  0
  -29.1128  -16.8379   22.6796 O   0  0  0  0  0  0  0  0  0  0  0  0
  -23.2924  -29.9825   21.7668 O   0  0  0  0  0  0  0  0  0  0  0  0
  -25.8929  -28.1259   23.7630 O   0  0  0  0  0  0  0  0  0  0  0  0
  -28.2110  -26.6903   19.8789 O   0  0  0  0  0  0  0  0  0  0  0  0
  -22.6441  -22.6417   18.7132 O   0  0  0  0  0  0  0  0  0  0  0  0
  -25.4171  -10.3973   20.3460 O   0  0  0  0  0  0  0  0  0  0  0  0
  -22.5360  -26.6624   16.1179 O   0  0  0  0  0  0  0  0  0  1  0  0
  -20.7670   -7.8918   21.9280 F   0  0  0  0  0  0  0  0  0  0  0  0
  -25.4707   -8.3465   22.1991 F   0  0  0  0  0  0  0  0  0  0  0  0
  1  2  1  0  0  0  0
  1  5  2  0  0  0  0
  2  6  2  0  0  0  0
  3 10  2  0  0  0  0
  3 18  1  0  0  0  0
  4 11  1  0  0  0  0
  4 18  2  0  0  0  0
  5 20  1  0  0  0  0
  6 22  1  0  0  0  0
  7 12  2  0  0  0  0
  7 21  1  0  0  0  0
  8  9  2  0  0  0  0
  8 24  1  0  0  0  0
  9 25  1  0  0  0  0
 10 27  1  0  0  0  0
 11 27  2  0  0  0  0
 12 28  1  0  0  0  0
 13 14  2  0  0  0  0
 13 29  1  0  0  0  0
 14 30  1  0  0  0  0
 15 23  1  0  0  0  0
 15 28  2  0  0  0  0
 16 24  2  0  0  0  0
 16 26  1  0  0  0  0
 17 30  2  0  0  0  0
 17 31  1  0  0  0  0
 18 32  1  0  0  0  0
 19 32  1  0  0  0  0
 19 33  2  0  0  0  0
 19 34  1  0  0  0  0
 20 22  2  0  0  0  0
 20 39  1  0  0  0  0
 21 23  2  0  0  0  0
 21 40  1  0  0  0  0
 22 48  1  0  0  0  0
 23 41  1  0  0  0  0
 24 60  1  0  0  0  0
 25 26  2  0  0  0  0
 25 51  1  0  0  0  0
 26 70  1  0  0  0  0
 27 79  1  0  0  0  0
 28 80  1  0  0  0  0
 29 31  2  0  0  0  0
 29 79  1  0  0  0  0
 30 81  1  0  0  0  0
 31 82  1  0  0  0  0
 32 64  2  0  0  0  0
 33 65  1  0  0  0  0
 33 68  1  0  0  0  0
 34 69  1  0  0  0  0
 34 74  2  0  0  0  0
 35 49  1  0  0  0  0
 35 71  1  0  0  0  0
 35 75  2  0  0  0  0
 36 61  1  0  0  0  0
 36 66  1  0  0  0  0
 36 76  2  0  0  0  0
 37 62  1  0  0  0  0
 37 72  1  0  0  0  0
 37 77  2  0  0  0  0
 38 67  1  0  0  0  0
 38 70  1  0  0  0  0
 38 78  2  0  0  0  0
 39 42  1  0  0  0  0
 40 49  1  0  0  0  0
 41 66  1  0  0  0  0
 42 44  1  0  0  0  0
 43 45  1  0  0  0  0
 43 46  1  0  0  0  0
 44 48  1  0  0  0  0
 45 50  1  0  0  0  0
 46 67  1  0  0  0  0
 47 50  1  0  0  0  0
 47 67  1  0  0  0  0
 48 71  1  0  0  0  0
 49 66  1  0  0  0  0
 50 65  1  0  0  0  0
 52 60  1  0  0  0  0
 53 62  1  0  0  0  0
 54 63  1  0  0  0  0
 55 63  1  0  0  0  0
 56 63  1  0  0  0  0
 57 73  1  0  0  0  0
 58 59  1  0  0  0  0
 58 60  1  0  0  0  0
 59 80  1  0  0  0  0
 61 63  1  0  0  0  0
 61 72  1  0  0  0  0
 62 73  1  0  0  0  0
 64 65  1  0  0  0  0
M  CHG  1  73   1
M  ISO  4  38 100  59 101  70 100  80 101
M  END
> <Batch ID>
0101

> <Smiles>
CNC(C)C(=O)NC(C(=O)N1Cc2cc([101O:1][101CH2:1]CC(C)c3ccc(C)c([100NH:0][100C:0](=O)N4CCCC(n5nc(-c6ccc(Oc7ccc(F)cc7F)cc6)c(C(N)=O)c5N)C4)c3)ccc2CC1C(=O)NC1CCCc2ccccc21)C(C)(C)C

> <Shape>
0.200

> <Color>
0.086

> <Negative vol penalty>
0.000

$$$$

  -OEChem-04052319363D

 78 85  0     1  0  0  0  0  0999 V2000
  -27.6248  -35.9607   22.0835 C   0  0  0  0  0  0  0  0  0  0  0  0
  -28.0174  -34.6419   21.8786 C   0  0  0  0  0  0  0  0  0  0  0  0
  -26.4854  -15.2167   21.4689 C   0  0  0  0  0  0  0  0  0  0  0  0
  -26.8601  -15.1593   19.0828 C   0  0  0  0  0  0  0  0  0  0  0  0
  -26.5848  -36.2480   22.9666 C   0  0  0  0  0  0  0  0  0  0  0  0
  -27.3708  -33.6096   22.5575 C   0  0  0  0  0  0  0  0  0  0  0  0
  -26.2737  -29.6905   19.5439 C   0  0  0  0  0  0  0  0  0  0  0  0
  -26.2420  -13.8433   21.4637 C   0  0  0  0  0  0  0  0  0  0  0  0
  -26.6168  -13.7859   19.0777 C   0  0  0  0  0  0  0  0  0  0  0  0
  -27.3155  -28.8198   19.2270 C   0  0  0  0  0  0  0  0  0  0  0  0
  -25.1688  -10.4138   22.0208 C   0  0  0  0  0  0  0  0  0  0  0  0
  -24.0721   -9.9452   22.7441 C   0  0  0  0  0  0  0  0  0  0  0  0
  -26.5266  -27.2753   20.9037 C   0  0  0  0  0  0  0  0  0  0  0  0
  -22.5995  -11.2968   21.3870 C   0  0  0  0  0  0  0  0  0  0  0  0
  -26.7944  -15.8748   20.2784 C   0  0  0  0  0  0  0  0  0  0  0  0
  -28.2845  -17.9372   20.4620 C   0  0  0  0  0  0  0  0  0  0  0  0
  -25.9188  -35.2180   23.6493 C   0  0  0  0  0  0  0  0  0  0  0  0
  -25.3554  -29.3645   20.5523 C   0  0  0  0  0  0  0  0  0  0  0  0
  -26.3218  -33.8836   23.4515 C   0  0  0  0  0  0  0  0  0  0  0  0
  -25.4726  -28.1424   21.2297 C   0  0  0  0  0  0  0  0  0  0  0  0
  -26.3078  -13.1279   20.2682 C   0  0  0  0  0  0  0  0  0  0  0  0
  -27.4438  -27.6133   19.9089 C   0  0  0  0  0  0  0  0  0  0  0  0
  -24.9809  -11.3239   20.9805 C   0  0  0  0  0  0  0  0  0  0  0  0
  -22.7875  -10.3867   22.4273 C   0  0  0  0  0  0  0  0  0  0  0  0
  -23.6962  -11.7654   20.6637 C   0  0  0  0  0  0  0  0  0  0  0  0
  -27.0453  -17.2936   20.2830 C   0  0  0  0  0  0  0  0  0  0  0  0
  -27.9905  -19.2765   20.3827 C   0  0  0  0  0  0  0  0  0  0  0  0
  -29.5851  -17.3746   20.6803 C   0  0  0  0  0  0  0  0  0  0  0  0
  -24.5355  -30.6510   23.3409 C   0  0  0  0  0  0  0  0  0  0  0  0
  -22.2598  -28.3398   23.2954 C   0  0  0  0  0  0  0  0  0  0  0  0
  -21.2496  -25.2908   22.1423 C   0  0  0  0  0  0  0  0  0  0  0  0
  -25.3551  -23.5440   17.9357 C   0  0  0  0  0  0  0  0  0  0  0  0
  -24.8317  -35.5814   24.6296 C   0  0  0  0  0  0  0  0  0  0  0  0
  -24.2216  -30.3024   20.8638 C   0  0  0  0  0  0  0  0  0  0  0  0
  -24.5011  -27.7363   22.3066 C   0  0  0  0  0  0  0  0  0  0  0  0
  -23.9494  -34.4005   25.0259 C   0  0  0  0  0  0  0  0  0  0  0  0
  -23.5362  -21.6734   20.3583 C   0  0  0  0  0  0  0  0  0  0  0  0
  -24.8055  -33.1841   25.3639 C   0  0  0  0  0  0  0  0  0  0  0  0
  -24.3858  -20.4182   20.5645 C   0  0  0  0  0  0  0  0  0  0  0  0
  -23.5598  -22.1383   18.9039 C   0  0  0  0  0  0  0  0  0  0  0  0
  -25.7573  -21.0817   18.5452 C   0  0  0  0  0  0  0  0  0  0  0  0
  -25.6284  -32.7344   24.1506 C   0  0  1  0  0  0  0  0  0  0  0  0
  -23.6461  -30.1005   22.2622 C   0  0  1  0  0  0  0  0  0  0  0  0
  -25.8096  -20.6071   20.0075 C   0  0  2  0  0  0  0  0  0  0  0  0
  -19.3594  -23.6487   22.3099 C   0  0  0  0  0  0  0  0  0  0  0  0
  -29.6569  -24.2030   16.3223 C   0  0  0  0  0  0  0  0  0  0  0  0
  -26.9645  -24.9240   15.4901 C   0  0  0  0  0  0  0  0  0  0  0  0
  -23.2482  -27.4873   26.0534 C   0  0  0  0  0  0  0  0  0  0  0  0
  -22.0152  -25.3294   25.7515 C   0  0  0  0  0  0  0  0  0  0  0  0
  -20.7612  -27.4855   25.7899 C   0  0  0  0  0  0  0  0  0  0  0  0
  -20.6760  -25.4787   19.2450 C   0  0  0  0  0  0  0  0  0  0  0  0
  -28.2185  -25.3680   19.7890 C   0  0  0  0  0  0  0  0  0  1  0  0
  -22.1773  -26.9110   23.7759 C   0  0  1  0  0  0  0  0  0  0  0  0
  -19.9360  -24.8265   21.5397 C   0  0  2  0  0  0  0  0  0  0  0  0
  -28.7698  -24.9704   17.3143 C   0  0  1  0  0  0  0  0  0  0  0  0
  -27.2561  -24.8270   16.9873 C   0  0  2  0  0  0  0  0  0  0  0  0
  -29.0669  -24.5849   18.7869 C   0  0  1  0  0  0  0  0  0  0  0  0
  -22.0701  -26.8115   25.3238 C   0  0  0  0  0  0  0  0  0  0  0  0
  -26.0389  -18.1534   20.1038 N   0  0  0  0  0  0  0  0  0  0  0  0
  -26.6454  -19.3508   20.1698 N   0  0  0  0  0  0  0  0  0  0  0  0
  -23.4132  -28.6900   22.5793 N   0  0  0  0  0  0  0  0  0  0  0  0
  -24.9391  -22.2998   18.4374 N   0  0  0  0  0  0  0  0  0  0  0  0
  -28.7538  -20.3860   20.4752 N   0  0  0  0  0  0  0  0  0  0  0  0
  -29.7092  -15.9797   20.7341 N   0  0  0  0  0  0  0  0  0  0  0  0
  -24.7971  -32.0024   23.2192 N   0  0  0  0  0  0  0  0  0  0  0  0
  -21.0614  -26.3032   23.0592 N   0  0  0  0  0  0  0  0  0  0  0  0
  -26.6794  -23.6130   17.5208 N   0  0  0  0  0  0  0  0  0  0  0  0
  -20.1348  -24.4094   20.1228 N   0  3  0  0  0  0  0  0  0  0  0  0
  -30.6043  -18.0883   20.8398 O   0  0  0  0  0  0  0  0  0  0  0  0
  -24.9523  -29.9052   24.2194 O   0  0  0  0  0  0  0  0  0  0  0  0
  -21.3317  -29.1146   23.5402 O   0  0  0  0  0  0  0  0  0  0  0  0
  -22.3340  -24.8015   21.8334 O   0  0  0  0  0  0  0  0  0  0  0  0
  -24.6035  -24.5226   17.8678 O   0  0  0  0  0  0  0  0  0  0  0  0
  -30.4438  -24.8135   19.0872 O   0  0  0  0  0  0  0  0  0  0  0  0
  -26.0706  -11.7876   20.2628 O   0  0  0  0  0  0  0  0  0  0  0  0
  -28.4600  -26.7620   19.6019 O   0  0  0  0  0  0  0  0  0  1  0  0
  -21.7343   -9.9354   23.1210 F   0  0  0  0  0  0  0  0  0  0  0  0
  -23.5093  -12.6388   19.6646 F   0  0  0  0  0  0  0  0  0  0  0  0
  1  2  1  0  0  0  0
  1  5  2  0  0  0  0
  2  6  2  0  0  0  0
  3  8  2  0  0  0  0
  3 15  1  0  0  0  0
  4  9  1  0  0  0  0
  4 15  2  0  0  0  0
  5 17  1  0  0  0  0
  6 19  1  0  0  0  0
  7 10  2  0  0  0  0
  7 18  1  0  0  0  0
  8 21  1  0  0  0  0
  9 21  2  0  0  0  0
 10 22  1  0  0  0  0
 11 12  2  0  0  0  0
 11 23  1  0  0  0  0
 12 24  1  0  0  0  0
 13 20  1  0  0  0  0
 13 22  2  0  0  0  0
 14 24  2  0  0  0  0
 14 25  1  0  0  0  0
 15 26  1  0  0  0  0
 16 26  1  0  0  0  0
 16 27  2  0  0  0  0
 16 28  1  0  0  0  0
 17 19  2  0  0  0  0
 17 33  1  0  0  0  0
 18 20  2  0  0  0  0
 18 34  1  0  0  0  0
 19 42  1  0  0  0  0
 20 35  1  0  0  0  0
 21 75  1  0  0  0  0
 22 76  1  0  0  0  0
 23 25  2  0  0  0  0
 23 75  1  0  0  0  0
 24 77  1  0  0  0  0
 25 78  1  0  0  0  0
 26 59  2  0  0  0  0
 27 60  1  0  0  0  0
 27 63  1  0  0  0  0
 28 64  1  0  0  0  0
 28 69  2  0  0  0  0
 29 43  1  0  0  0  0
 29 65  1  0  0  0  0
 29 70  2  0  0  0  0
 30 53  1  0  0  0  0
 30 61  1  0  0  0  0
 30 71  2  0  0  0  0
 31 54  1  0  0  0  0
 31 66  1  0  0  0  0
 31 72  2  0  0  0  0
 32 62  1  0  0  0  0
 32 67  1  0  0  0  0
 32 73  2  0  0  0  0
 33 36  1  0  0  0  0
 34 43  1  0  0  0  0
 35 61  1  0  0  0  0
 36 38  1  0  0  0  0
 37 39  1  0  0  0  0
 37 40  1  0  0  0  0
 38 42  1  0  0  0  0
 39 44  1  0  0  0  0
 40 62  1  0  0  0  0
 41 44  1  0  0  0  0
 41 62  1  0  0  0  0
 42 65  1  0  0  0  0
 43 61  1  0  0  0  0
 44 60  1  0  0  0  0
 45 54  1  0  0  0  0
 46 55  1  0  0  0  0
 47 56  1  0  0  0  0
 48 58  1  0  0  0  0
 49 58  1  0  0  0  0
 50 58  1  0  0  0  0
 51 68  1  0  0  0  0
 52 57  1  0  0  0  0
 52 76  1  0  0  0  0
 53 58  1  0  0  0  0
 53 66  1  0  0  0  0
 54 68  1  0  0  0  0
 55 56  1  0  0  0  0
 55 57  1  0  0  0  0
 56 67  1  0  0  0  0
 57 74  1  0  0  0  0
 59 60  1  0  0  0  0
M  CHG  1  68   1
M  ISO  4  32 100  52 101  67 100  76 101
M  END
> <Batch ID>
0101

> <Smiles>
CNC(C)C(=O)NC(C(=O)N1Cc2cc([101O:1][101CH2:1]C(O)C(C)C(C)[100NH:0][100C:0](=O)N3CCCC(n4nc(-c5ccc(Oc6ccc(F)cc6F)cc5)c(C(N)=O)c4N)C3)ccc2CC1C(=O)NC1CCCc2ccccc21)C(C)(C)C

> <Shape>
0.258

> <Color>
0.084

> <Negative vol penalty>
0.000

$$$$

  -OEChem-04052319363D

 80 87  0     1  0  0  0  0  0999 V2000
  -30.2527  -20.9023   16.6606 C   0  0  0  0  0  0  0  0  0  0  0  0
  -29.9830  -21.1743   17.9980 C   0  0  0  0  0  0  0  0  0  0  0  0
  -25.9854  -13.5740   19.9090 C   0  0  0  0  0  0  0  0  0  0  0  0
  -24.9287  -13.2199   22.0527 C   0  0  0  0  0  0  0  0  0  0  0  0
  -30.3344  -21.9469   15.7407 C   0  0  0  0  0  0  0  0  0  0  0  0
  -29.7959  -22.4913   18.4166 C   0  0  0  0  0  0  0  0  0  0  0  0
  -25.8239  -22.9988   21.5167 C   0  0  0  0  0  0  0  0  0  0  0  0
  -25.9376  -12.2026   19.6589 C   0  0  0  0  0  0  0  0  0  0  0  0
  -24.8809  -11.8484   21.8025 C   0  0  0  0  0  0  0  0  0  0  0  0
  -25.9983  -22.6094   22.8440 C   0  0  0  0  0  0  0  0  0  0  0  0
  -24.1532   -8.2937   21.5740 C   0  0  0  0  0  0  0  0  0  0  0  0
  -22.9651   -7.6221   21.8622 C   0  0  0  0  0  0  0  0  0  0  0  0
  -26.3144  -24.9167   23.4730 C   0  0  0  0  0  0  0  0  0  0  0  0
  -21.7864   -9.0358   20.2971 C   0  0  0  0  0  0  0  0  0  0  0  0
  -25.4809  -14.0827   21.1059 C   0  0  0  0  0  0  0  0  0  0  0  0
  -24.5514  -16.4574   21.0411 C   0  0  0  0  0  0  0  0  0  0  0  0
  -30.1387  -23.2764   16.1464 C   0  0  0  0  0  0  0  0  0  0  0  0
  -25.9044  -24.3513   21.1553 C   0  0  0  0  0  0  0  0  0  0  0  0
  -29.8764  -23.5547   17.5015 C   0  0  0  0  0  0  0  0  0  0  0  0
  -26.1381  -25.3209   22.1409 C   0  0  0  0  0  0  0  0  0  0  0  0
  -25.3854  -11.3398   20.6056 C   0  0  0  0  0  0  0  0  0  0  0  0
  -26.2464  -23.5681   23.8219 C   0  0  0  0  0  0  0  0  0  0  0  0
  -24.1579   -9.3364   20.6474 C   0  0  0  0  0  0  0  0  0  0  0  0
  -21.7818   -7.9932   21.2238 C   0  0  0  0  0  0  0  0  0  0  0  0
  -22.9746   -9.7074   20.0090 C   0  0  0  0  0  0  0  0  0  0  0  0
  -25.5305  -15.4991   21.3651 C   0  0  0  0  0  0  0  0  0  0  0  0
  -25.0706  -17.6455   21.4942 C   0  0  0  0  0  0  0  0  0  0  0  0
  -23.2858  -16.2887   20.3888 C   0  0  0  0  0  0  0  0  0  0  0  0
  -27.7966  -26.0562   19.2535 C   0  0  0  0  0  0  0  0  0  0  0  0
  -25.7145  -28.4391   19.9670 C   0  0  0  0  0  0  0  0  0  0  0  0
  -23.4017  -29.7152   22.1278 C   0  0  0  0  0  0  0  0  0  0  0  0
  -28.9351  -18.8665   25.7873 C   0  0  0  0  0  0  0  0  0  0  0  0
  -30.2836  -24.3760   15.1244 C   0  0  0  0  0  0  0  0  0  0  0  0
  -25.6874  -24.7576   19.7234 C   0  0  0  0  0  0  0  0  0  0  0  0
  -26.2137  -26.7879   21.8081 C   0  0  0  0  0  0  0  0  0  0  0  0
  -29.7017  -25.7117   15.5802 C   0  0  0  0  0  0  0  0  0  0  0  0
  -29.2456  -19.8373   22.3148 C   0  0  0  0  0  0  0  0  0  0  0  0
  -30.1465  -26.0296   17.0042 C   0  0  0  0  0  0  0  0  0  0  0  0
  -28.2236  -18.9144   21.6484 C   0  0  0  0  0  0  0  0  0  0  0  0
  -29.9723  -19.1270   23.4530 C   0  0  0  0  0  0  0  0  0  0  0  0
  -28.0518  -17.6292   23.8299 C   0  0  0  0  0  0  0  0  0  0  0  0
  -29.6429  -24.9680   17.9895 C   0  0  1  0  0  0  0  0  0  0  0  0
  -26.3011  -26.1133   19.3874 C   0  0  1  0  0  0  0  0  0  0  0  0
  -27.2673  -18.2959   22.6852 C   0  0  2  0  0  0  0  0  0  0  0  0
  -21.8995  -31.6977   22.4604 C   0  0  0  0  0  0  0  0  0  0  0  0
  -26.5087  -22.2451   29.4375 C   0  0  0  0  0  0  0  0  0  0  0  0
  -28.1180  -30.1145   20.8191 C   0  0  0  0  0  0  0  0  0  0  0  0
  -26.5370  -31.6560   21.9990 C   0  0  0  0  0  0  0  0  0  0  0  0
  -26.3803  -31.3650   19.5265 C   0  0  0  0  0  0  0  0  0  0  0  0
  -24.5233  -23.3305   27.3104 C   0  0  0  0  0  0  0  0  0  0  0  0
  -24.5813  -20.8355   27.4280 C   0  0  0  0  0  0  0  0  0  0  0  0
  -20.9704  -28.0287   22.0708 C   0  0  0  0  0  0  0  0  0  0  0  0
  -29.9278  -20.1689   27.6515 C   0  0  0  0  0  0  0  0  0  0  0  0
  -29.0706  -21.3898   27.9285 C   0  0  0  0  0  0  0  0  0  0  0  0
  -25.7283  -22.0181   25.5497 C   0  0  0  0  0  0  0  0  0  1  0  0
  -25.6227  -29.4913   21.0456 C   0  0  1  0  0  0  0  0  0  0  0  0
  -22.0161  -30.2903   21.8960 C   0  0  2  0  0  0  0  0  0  0  0  0
  -26.7122  -22.2125   27.9227 C   0  0  2  0  0  0  0  0  0  0  0  0
  -26.6651  -30.6290   20.8538 C   0  0  0  0  0  0  0  0  0  0  0  0
  -25.4086  -22.0860   27.0665 C   0  0  0  0  0  0  0  0  0  0  0  0
  -26.5914  -16.0324   21.9768 N   0  0  0  0  0  0  0  0  0  0  0  0
  -26.2820  -17.3387   22.0406 N   0  0  0  0  0  0  0  0  0  0  0  0
  -26.0011  -27.1344   20.3931 N   0  0  0  0  0  0  0  0  0  0  0  0
  -29.0059  -18.5775   24.4144 N   0  0  0  0  0  0  0  0  0  0  0  0
  -24.6045  -18.9123   21.4746 N   0  0  0  0  0  0  0  0  0  0  0  0
  -22.9071  -15.0000   19.9884 N   0  0  0  0  0  0  0  0  0  0  0  0
  -28.2416  -25.1769   18.2849 N   0  0  0  0  0  0  0  0  0  0  0  0
  -24.2366  -29.9463   21.0551 N   0  0  0  0  0  0  0  0  0  0  0  0
  -29.8787  -19.7687   26.2628 N   0  0  0  0  0  0  0  0  0  0  0  0
  -20.9846  -29.4353   22.5487 N   0  3  0  0  0  0  0  0  0  0  0  0
  -27.6493  -21.0816   27.6373 N   0  3  0  0  0  0  0  0  0  0  0  0
  -22.5209  -17.2545   20.1529 O   0  0  0  0  0  0  0  0  0  0  0  0
  -28.4950  -26.7591   19.9746 O   0  0  0  0  0  0  0  0  0  0  0  0
  -25.5313  -28.7615   18.7905 O   0  0  0  0  0  0  0  0  0  0  0  0
  -23.7134  -29.1237   23.1591 O   0  0  0  0  0  0  0  0  0  0  0  0
  -28.0894  -18.3616   26.5338 O   0  0  0  0  0  0  0  0  0  0  0  0
  -25.3384  -10.0016   20.3618 O   0  0  0  0  0  0  0  0  0  0  0  0
  -26.4177  -23.1907   25.1181 O   0  0  0  0  0  0  0  0  0  1  0  0
  -20.6412   -7.3472   21.4995 F   0  0  0  0  0  0  0  0  0  0  0  0
  -22.9731  -10.7075   19.1170 F   0  0  0  0  0  0  0  0  0  0  0  0
  1  2  1  0  0  0  0
  1  5  2  0  0  0  0
  2  6  2  0  0  0  0
  3  8  2  0  0  0  0
  3 15  1  0  0  0  0
  4  9  1  0  0  0  0
  4 15  2  0  0  0  0
  5 17  1  0  0  0  0
  6 19  1  0  0  0  0
  7 10  2  0  0  0  0
  7 18  1  0  0  0  0
  8 21  1  0  0  0  0
  9 21  2  0  0  0  0
 10 22  1  0  0  0  0
 11 12  2  0  0  0  0
 11 23  1  0  0  0  0
 12 24  1  0  0  0  0
 13 20  1  0  0  0  0
 13 22  2  0  0  0  0
 14 24  2  0  0  0  0
 14 25  1  0  0  0  0
 15 26  1  0  0  0  0
 16 26  1  0  0  0  0
 16 27  2  0  0  0  0
 16 28  1  0  0  0  0
 17 19  2  0  0  0  0
 17 33  1  0  0  0  0
 18 20  2  0  0  0  0
 18 34  1  0  0  0  0
 19 42  1  0  0  0  0
 20 35  1  0  0  0  0
 21 77  1  0  0  0  0
 22 78  1  0  0  0  0
 23 25  2  0  0  0  0
 23 77  1  0  0  0  0
 24 79  1  0  0  0  0
 25 80  1  0  0  0  0
 26 61  2  0  0  0  0
 27 62  1  0  0  0  0
 27 65  1  0  0  0  0
 28 66  1  0  0  0  0
 28 72  2  0  0  0  0
 29 43  1  0  0  0  0
 29 67  1  0  0  0  0
 29 73  2  0  0  0  0
 30 56  1  0  0  0  0
 30 63  1  0  0  0  0
 30 74  2  0  0  0  0
 31 57  1  0  0  0  0
 31 68  1  0  0  0  0
 31 75  2  0  0  0  0
 32 64  1  0  0  0  0
 32 69  1  0  0  0  0
 32 76  2  0  0  0  0
 33 36  1  0  0  0  0
 34 43  1  0  0  0  0
 35 63  1  0  0  0  0
 36 38  1  0  0  0  0
 37 39  1  0  0  0  0
 37 40  1  0  0  0  0
 38 42  1  0  0  0  0
 39 44  1  0  0  0  0
 40 64  1  0  0  0  0
 41 44  1  0  0  0  0
 41 64  1  0  0  0  0
 42 67  1  0  0  0  0
 43 63  1  0  0  0  0
 44 62  1  0  0  0  0
 45 57  1  0  0  0  0
 46 58  1  0  0  0  0
 47 59  1  0  0  0  0
 48 59  1  0  0  0  0
 49 59  1  0  0  0  0
 50 60  1  0  0  0  0
 51 60  1  0  0  0  0
 52 70  1  0  0  0  0
 53 54  1  0  0  0  0
 53 69  1  0  0  0  0
 54 71  1  0  0  0  0
 55 60  1  0  0  0  0
 55 78  1  0  0  0  0
 56 59  1  0  0  0  0
 56 68  1  0  0  0  0
 57 70  1  0  0  0  0
 58 60  1  0  0  0  0
 58 71  1  0  0  0  0
 61 62  1  0  0  0  0
M  CHG  2  70   1  71   1
M  ISO  4  32 100  55 101  69 100  78 101
M  END
> <Batch ID>
0101

> <Smiles>
CNC(C)C(=O)NC(C(=O)N1Cc2cc([101O:1][101CH2:1]C(C)(C)C(C)NCC[100NH:0][100C:0](=O)N3CCCC(n4nc(-c5ccc(Oc6ccc(F)cc6F)cc5)c(C(N)=O)c4N)C3)ccc2CC1C(=O)NC1CCCc2ccccc21)C(C)(C)C

> <Shape>
0.202

> <Color>
0.082

> <Negative vol penalty>
0.000

$$$$

  -OEChem-04052319363D

 81 88  0     1  0  0  0  0  0999 V2000
  -16.5448  -25.7567   24.6730 C   0  0  0  0  0  0  0  0  0  0  0  0
  -17.4617  -25.3504   23.7088 C   0  0  0  0  0  0  0  0  0  0  0  0
  -26.4983  -13.1330   21.5906 C   0  0  0  0  0  0  0  0  0  0  0  0
  -26.2068  -14.0748   19.3850 C   0  0  0  0  0  0  0  0  0  0  0  0
  -16.3755  -27.1137   24.9444 C   0  0  0  0  0  0  0  0  0  0  0  0
  -18.2092  -26.3011   23.0147 C   0  0  0  0  0  0  0  0  0  0  0  0
  -23.0984  -25.0351   22.6431 C   0  0  0  0  0  0  0  0  0  0  0  0
  -25.1878  -12.6562   21.5603 C   0  0  0  0  0  0  0  0  0  0  0  0
  -24.8963  -13.5981   19.3546 C   0  0  0  0  0  0  0  0  0  0  0  0
  -23.4378  -24.0800   21.6859 C   0  0  0  0  0  0  0  0  0  0  0  0
  -22.0361  -10.8796   21.9150 C   0  0  0  0  0  0  0  0  0  0  0  0
  -21.8119   -9.5713   22.3436 C   0  0  0  0  0  0  0  0  0  0  0  0
  -24.1611  -25.8361   20.1987 C   0  0  0  0  0  0  0  0  0  0  0  0
  -23.2871   -8.7519   20.6146 C   0  0  0  0  0  0  0  0  0  0  0  0
  -27.0078  -13.8423   20.5030 C   0  0  0  0  0  0  0  0  0  0  0  0
  -29.5199  -13.6671   20.0953 C   0  0  0  0  0  0  0  0  0  0  0  0
  -17.1283  -28.0811   24.2601 C   0  0  0  0  0  0  0  0  0  0  0  0
  -23.2779  -26.4009   22.3806 C   0  0  0  0  0  0  0  0  0  0  0  0
  -18.0489  -27.6725   23.2762 C   0  0  0  0  0  0  0  0  0  0  0  0
  -23.8256  -26.8065   21.1552 C   0  0  0  0  0  0  0  0  0  0  0  0
  -24.3868  -12.8887   20.4422 C   0  0  0  0  0  0  0  0  0  0  0  0
  -23.9665  -24.4805   20.4624 C   0  0  0  0  0  0  0  0  0  0  0  0
  -22.8858  -11.1240   20.8360 C   0  0  0  0  0  0  0  0  0  0  0  0
  -22.4373   -8.5075   21.6935 C   0  0  0  0  0  0  0  0  0  0  0  0
  -23.5113  -10.0602   20.1859 C   0  0  0  0  0  0  0  0  0  0  0  0
  -28.3612  -14.3356   20.5340 C   0  0  0  0  0  0  0  0  0  0  0  0
  -30.5405  -14.5536   20.3380 C   0  0  0  0  0  0  0  0  0  0  0  0
  -29.6610  -12.3616   19.5196 C   0  0  0  0  0  0  0  0  0  0  0  0
  -21.3475  -28.9174   22.1706 C   0  0  0  0  0  0  0  0  0  0  0  0
  -24.1394  -30.5458   21.8953 C   0  0  0  0  0  0  0  0  0  0  0  0
  -27.4463  -30.5048   21.0529 C   0  0  0  0  0  0  0  0  0  0  0  0
  -30.7293  -20.5177   20.8334 C   0  0  0  0  0  0  0  0  0  0  0  0
  -16.8765  -29.5387   24.5544 C   0  0  0  0  0  0  0  0  0  0  0  0
  -22.9317  -27.4173   23.4339 C   0  0  0  0  0  0  0  0  0  0  0  0
  -24.0569  -28.2593   20.8320 C   0  0  0  0  0  0  0  0  0  0  0  0
  -17.9770  -30.4629   24.0397 C   0  0  0  0  0  0  0  0  0  0  0  0
  -31.7742  -18.1336   23.2625 C   0  0  0  0  0  0  0  0  0  0  0  0
  -18.3493  -30.1025   22.6050 C   0  0  0  0  0  0  0  0  0  0  0  0
  -31.1225  -16.8296   22.7991 C   0  0  0  0  0  0  0  0  0  0  0  0
  -30.8707  -19.3379   23.0070 C   0  0  0  0  0  0  0  0  0  0  0  0
  -29.7438  -18.1677   21.1538 C   0  0  0  0  0  0  0  0  0  0  0  0
  -18.8961  -28.6724   22.5196 C   0  0  1  0  0  0  0  0  0  0  0  0
  -22.6774  -28.8083   22.8613 C   0  0  1  0  0  0  0  0  0  0  0  0
  -30.6402  -16.9315   21.3396 C   0  0  2  0  0  0  0  0  0  0  0  0
  -26.8364  -20.1310   20.8387 C   0  0  0  0  0  0  0  0  0  0  0  0
  -29.4579  -31.9970   20.8963 C   0  0  0  0  0  0  0  0  0  0  0  0
  -23.0249  -31.7755   19.3349 C   0  0  0  0  0  0  0  0  0  0  0  0
  -25.3537  -32.4763   18.7404 C   0  0  0  0  0  0  0  0  0  0  0  0
  -24.2716  -33.3716   20.8020 C   0  0  0  0  0  0  0  0  0  0  0  0
  -24.9641  -21.4143   17.6542 C   0  0  0  0  0  0  0  0  0  0  0  0
  -28.9425  -28.8899   23.0310 C   0  0  0  0  0  0  0  0  0  0  0  0
  -27.9636  -21.6483   16.7723 C   0  0  0  0  0  0  0  0  0  0  0  0
  -26.0991  -20.1726   19.5056 C   0  0  0  0  0  0  0  0  0  0  0  0
  -30.5215  -21.5642   18.5926 C   0  0  0  0  0  0  0  0  0  0  0  0
  -29.3797  -22.5635   18.6047 C   0  0  0  0  0  0  0  0  0  0  0  0
  -26.9008  -22.5428   18.8392 C   0  0  0  0  0  0  0  0  0  0  0  0
  -24.7148  -22.2708   20.0009 C   0  0  0  0  0  0  0  0  0  1  0  0
  -25.0269  -30.9595   20.7463 C   0  0  1  0  0  0  0  0  0  0  0  0
  -28.6755  -31.0306   21.7720 C   0  0  2  0  0  0  0  0  0  0  0  0
  -24.4132  -32.1184   19.9109 C   0  0  0  0  0  0  0  0  0  0  0  0
  -25.6923  -21.5903   19.0078 C   0  0  1  0  0  0  0  0  0  0  0  0
  -28.6206  -15.5527   21.0190 N   0  0  0  0  0  0  0  0  0  0  0  0
  -29.9540  -15.6561   20.8865 N   0  0  0  0  0  0  0  0  0  0  0  0
  -23.6966  -29.2155   21.8919 N   0  0  0  0  0  0  0  0  0  0  0  0
  -30.4498  -19.3773   21.6044 N   0  0  0  0  0  0  0  0  0  0  0  0
  -31.8734  -14.4898   20.1339 N   0  0  0  0  0  0  0  0  0  0  0  0
  -28.5098  -11.5826   19.3399 N   0  0  0  0  0  0  0  0  0  0  0  0
  -20.2669  -28.6271   22.9816 N   0  0  0  0  0  0  0  0  0  0  0  0
  -26.3298  -31.2661   21.3267 N   0  0  0  0  0  0  0  0  0  0  0  0
  -30.3015  -20.4702   19.5122 N   0  0  0  0  0  0  0  0  0  0  0  0
  -29.5758  -29.9047   22.1499 N   0  3  0  0  0  0  0  0  0  0  0  0
  -28.0864  -21.8653   18.2609 N   0  3  1  0  0  0  0  0  0  0  0  0
  -30.7769  -11.8930   19.1899 O   0  0  0  0  0  0  0  0  0  0  0  0
  -21.3047  -29.2426   20.9899 O   0  0  0  0  0  0  0  0  0  0  0  0
  -23.8555  -31.3705   22.7675 O   0  0  0  0  0  0  0  0  0  0  0  0
  -27.4747  -29.5196   20.3187 O   0  0  0  0  0  0  0  0  0  0  0  0
  -31.3211  -21.5029   21.2872 O   0  0  0  0  0  0  0  0  0  0  0  0
  -23.1080  -12.4235   20.4121 O   0  0  0  0  0  0  0  0  0  0  0  0
  -24.2981  -23.5503   19.5261 O   0  0  0  0  0  0  0  0  0  1  0  0
  -22.2231   -7.2514   22.1063 F   0  0  0  0  0  0  0  0  0  0  0  0
  -24.3295  -10.2889   19.1496 F   0  0  0  0  0  0  0  0  0  0  0  0
  1  2  1  0  0  0  0
  1  5  2  0  0  0  0
  2  6  2  0  0  0  0
  3  8  2  0  0  0  0
  3 15  1  0  0  0  0
  4  9  1  0  0  0  0
  4 15  2  0  0  0  0
  5 17  1  0  0  0  0
  6 19  1  0  0  0  0
  7 10  2  0  0  0  0
  7 18  1  0  0  0  0
  8 21  1  0  0  0  0
  9 21  2  0  0  0  0
 10 22  1  0  0  0  0
 11 12  2  0  0  0  0
 11 23  1  0  0  0  0
 12 24  1  0  0  0  0
 13 20  1  0  0  0  0
 13 22  2  0  0  0  0
 14 24  2  0  0  0  0
 14 25  1  0  0  0  0
 15 26  1  0  0  0  0
 16 26  1  0  0  0  0
 16 27  2  0  0  0  0
 16 28  1  0  0  0  0
 17 19  2  0  0  0  0
 17 33  1  0  0  0  0
 18 20  2  0  0  0  0
 18 34  1  0  0  0  0
 19 42  1  0  0  0  0
 20 35  1  0  0  0  0
 21 78  1  0  0  0  0
 22 79  1  0  0  0  0
 23 25  2  0  0  0  0
 23 78  1  0  0  0  0
 24 80  1  0  0  0  0
 25 81  1  0  0  0  0
 26 62  2  0  0  0  0
 27 63  1  0  0  0  0
 27 66  1  0  0  0  0
 28 67  1  0  0  0  0
 28 73  2  0  0  0  0
 29 43  1  0  0  0  0
 29 68  1  0  0  0  0
 29 74  2  0  0  0  0
 30 58  1  0  0  0  0
 30 64  1  0  0  0  0
 30 75  2  0  0  0  0
 31 59  1  0  0  0  0
 31 69  1  0  0  0  0
 31 76  2  0  0  0  0
 32 65  1  0  0  0  0
 32 70  1  0  0  0  0
 32 77  2  0  0  0  0
 33 36  1  0  0  0  0
 34 43  1  0  0  0  0
 35 64  1  0  0  0  0
 36 38  1  0  0  0  0
 37 39  1  0  0  0  0
 37 40  1  0  0  0  0
 38 42  1  0  0  0  0
 39 44  1  0  0  0  0
 40 65  1  0  0  0  0
 41 44  1  0  0  0  0
 41 65  1  0  0  0  0
 42 68  1  0  0  0  0
 43 64  1  0  0  0  0
 44 63  1  0  0  0  0
 45 53  1  0  0  0  0
 46 59  1  0  0  0  0
 47 60  1  0  0  0  0
 48 60  1  0  0  0  0
 49 60  1  0  0  0  0
 50 61  1  0  0  0  0
 51 71  1  0  0  0  0
 52 72  1  0  0  0  0
 53 61  1  0  0  0  0
 54 55  1  0  0  0  0
 54 70  1  0  0  0  0
 55 72  1  0  0  0  0
 56 61  1  0  0  0  0
 56 72  1  0  0  0  0
 57 61  1  0  0  0  0
 57 79  1  0  0  0  0
 58 60  1  0  0  0  0
 58 69  1  0  0  0  0
 59 71  1  0  0  0  0
 62 63  1  0  0  0  0
M  CHG  2  71   1  72   1
M  ISO  4  32 100  57 101  70 100  79 101
M  END
> <Batch ID>
0101

> <Smiles>
CCC(C)(CN(C)CC[100NH:0][100C:0](=O)N1CCCC(n2nc(-c3ccc(Oc4ccc(F)cc4F)cc3)c(C(N)=O)c2N)C1)[101CH2:1][101O:1]c1ccc2c(c1)CN(C(=O)C(NC(=O)C(C)NC)C(C)(C)C)C(C(=O)NC1CCCc3ccccc31)C2

> <Shape>
0.280

> <Color>
0.059

> <Negative vol penalty>
0.000

$$$$

  -OEChem-04052319363D

 83 91  0     1  0  0  0  0  0999 V2000
  -30.3445  -35.9928   21.2018 C   0  0  0  0  0  0  0  0  0  0  0  0
  -30.2957  -34.6027   21.1739 C   0  0  0  0  0  0  0  0  0  0  0  0
  -26.8734  -12.9365   21.8316 C   0  0  0  0  0  0  0  0  0  0  0  0
  -25.0698  -13.3725   20.2843 C   0  0  0  0  0  0  0  0  0  0  0  0
  -29.4049  -36.7074   21.9437 C   0  0  0  0  0  0  0  0  0  0  0  0
  -29.3078  -33.9264   21.8888 C   0  0  0  0  0  0  0  0  0  0  0  0
  -27.1711  -30.2026   19.2031 C   0  0  0  0  0  0  0  0  0  0  0  0
  -26.6228  -11.5675   21.7380 C   0  0  0  0  0  0  0  0  0  0  0  0
  -24.8193  -12.0035   20.1907 C   0  0  0  0  0  0  0  0  0  0  0  0
  -27.8878  -29.0129   19.0820 C   0  0  0  0  0  0  0  0  0  0  0  0
  -23.2695   -9.6233   22.0247 C   0  0  0  0  0  0  0  0  0  0  0  0
  -21.9416   -9.2015   22.0918 C   0  0  0  0  0  0  0  0  0  0  0  0
  -26.5387  -28.0299   20.8235 C   0  0  0  0  0  0  0  0  0  0  0  0
  -26.7361  -22.1442   23.0888 C   0  0  0  0  0  0  0  0  0  0  0  0
  -22.1404   -8.2257   19.8905 C   0  0  0  0  0  0  0  0  0  0  0  0
  -26.0969  -13.8390   21.1048 C   0  0  0  0  0  0  0  0  0  0  0  0
  -27.2262  -16.0152   20.4003 C   0  0  0  0  0  0  0  0  0  0  0  0
  -28.3992  -36.0399   22.6604 C   0  0  0  0  0  0  0  0  0  0  0  0
  -26.1383  -30.3187   20.1445 C   0  0  0  0  0  0  0  0  0  0  0  0
  -28.3547  -34.6327   22.6422 C   0  0  0  0  0  0  0  0  0  0  0  0
  -25.8088  -29.2213   20.9529 C   0  0  0  0  0  0  0  0  0  0  0  0
  -26.5768  -22.6311   21.7962 C   0  0  0  0  0  0  0  0  0  0  0  0
  -27.6343  -22.5580   20.8965 C   0  0  0  0  0  0  0  0  0  0  0  0
  -25.5958  -11.1010   20.9175 C   0  0  0  0  0  0  0  0  0  0  0  0
  -27.5736  -27.9273   19.8942 C   0  0  0  0  0  0  0  0  0  0  0  0
  -24.0328   -9.3465   20.8905 C   0  0  0  0  0  0  0  0  0  0  0  0
  -21.3771   -8.5027   21.0247 C   0  0  0  0  0  0  0  0  0  0  0  0
  -23.4682   -8.6476   19.8234 C   0  0  0  0  0  0  0  0  0  0  0  0
  -26.3549  -15.2532   21.2015 C   0  0  0  0  0  0  0  0  0  0  0  0
  -28.8212  -21.9934   21.3352 C   0  0  0  0  0  0  0  0  0  0  0  0
  -27.9631  -21.5980   23.4293 C   0  0  0  0  0  0  0  0  0  0  0  0
  -27.1138  -17.2934   20.8902 C   0  0  0  0  0  0  0  0  0  0  0  0
  -28.0624  -15.6043   19.3105 C   0  0  0  0  0  0  0  0  0  0  0  0
  -25.6194  -32.1490   22.6910 C   0  0  0  0  0  0  0  0  0  0  0  0
  -22.7201  -30.6947   22.6609 C   0  0  0  0  0  0  0  0  0  0  0  0
  -20.8390  -28.0019   21.7352 C   0  0  0  0  0  0  0  0  0  0  0  0
  -27.0538  -20.5661   25.5268 C   0  0  0  0  0  0  0  0  0  0  0  0
  -27.4344  -36.8534   23.4862 C   0  0  0  0  0  0  0  0  0  0  0  0
  -25.3571  -31.6001   20.2444 C   0  0  0  0  0  0  0  0  0  0  0  0
  -24.6955  -29.2880   21.9651 C   0  0  0  0  0  0  0  0  0  0  0  0
  -26.1924  -36.0757   23.9136 C   0  0  0  0  0  0  0  0  0  0  0  0
  -23.8473  -19.3332   24.1515 C   0  0  0  0  0  0  0  0  0  0  0  0
  -26.5819  -34.7050   24.4581 C   0  0  0  0  0  0  0  0  0  0  0  0
  -24.2843  -18.1702   23.2626 C   0  0  0  0  0  0  0  0  0  0  0  0
  -24.8089  -19.5480   25.3163 C   0  0  0  0  0  0  0  0  0  0  0  0
  -26.6671  -18.5718   23.9990 C   0  0  0  0  0  0  0  0  0  0  0  0
  -27.2833  -33.8640   23.3846 C   0  0  1  0  0  0  0  0  0  0  0  0
  -24.6649  -31.7745   21.5927 C   0  0  1  0  0  0  0  0  0  0  0  0
  -25.7367  -18.3606   22.7952 C   0  0  1  0  0  0  0  0  0  0  0  0
  -25.2661  -23.2261   21.3997 C   0  0  0  0  0  0  0  0  0  0  0  0
  -29.9922  -21.8891   20.4132 C   0  0  0  0  0  0  0  0  0  0  0  0
  -18.5093  -27.0813   21.8848 C   0  0  0  0  0  0  0  0  0  0  0  0
  -23.2090  -29.9377   25.5760 C   0  0  0  0  0  0  0  0  0  0  0  0
  -21.3584  -28.2630   25.3788 C   0  0  0  0  0  0  0  0  0  0  0  0
  -20.8785  -30.6914   25.0707 C   0  0  0  0  0  0  0  0  0  0  0  0
  -29.3685  -21.3851   25.4714 C   0  0  0  0  0  0  0  0  0  0  0  0
  -20.5322  -27.9849   18.7917 C   0  0  0  0  0  0  0  0  0  0  0  0
  -27.4911  -23.0766   19.4879 C   0  0  0  0  0  0  0  0  0  0  0  0
  -28.1754  -24.4254   19.2556 C   0  0  0  0  0  0  0  0  0  0  0  0
  -27.5772  -25.5566   20.0838 C   0  0  0  0  0  0  0  0  0  1  0  0
  -22.1464  -29.4411   23.2759 C   0  0  1  0  0  0  0  0  0  0  0  0
  -19.4841  -27.9047   21.0575 C   0  0  2  0  0  0  0  0  0  0  0  0
  -21.9204  -29.5823   24.8077 C   0  0  0  0  0  0  0  0  0  0  0  0
  -25.7348  -15.9862   22.1301 N   0  0  0  0  0  0  0  0  0  0  0  0
  -29.0135  -21.5098   22.5828 N   0  0  0  0  0  0  0  0  0  0  0  0
  -26.2172  -17.2221   21.9154 N   0  0  0  0  0  0  0  0  0  0  0  0
  -23.9651  -30.5646   22.0293 N   0  0  0  0  0  0  0  0  0  0  0  0
  -26.1950  -19.6676   24.8611 N   0  0  0  0  0  0  0  0  0  0  0  0
  -27.6955  -18.4601   20.5398 N   0  0  0  0  0  0  0  0  0  0  0  0
  -28.0574  -14.2534   18.9369 N   0  0  0  0  0  0  0  0  0  0  0  0
  -26.3153  -33.3196   22.4567 N   0  0  0  0  0  0  0  0  0  0  0  0
  -20.9378  -29.1315   22.5196 N   0  0  0  0  0  0  0  0  0  0  0  0
  -28.1181  -21.0959   24.7727 N   0  0  0  0  0  0  0  0  0  0  0  0
  -19.6197  -27.2661   19.7178 N   0  3  0  0  0  0  0  0  0  0  0  0
  -28.8048  -16.4081   18.6971 O   0  0  0  0  0  0  0  0  0  0  0  0
  -25.7163  -31.4300   23.6786 O   0  0  0  0  0  0  0  0  0  0  0  0
  -22.0835  -31.7490   22.7318 O   0  0  0  0  0  0  0  0  0  0  0  0
  -21.7201  -27.1580   21.5868 O   0  0  0  0  0  0  0  0  0  0  0  0
  -26.9161  -20.8358   26.7264 O   0  0  0  0  0  0  0  0  0  0  0  0
  -25.3511   -9.7653   20.8257 O   0  0  0  0  0  0  0  0  0  0  0  0
  -28.2720  -26.7650   19.7784 O   0  0  0  0  0  0  0  0  0  1  0  0
  -20.1024   -8.0963   21.0899 F   0  0  0  0  0  0  0  0  0  0  0  0
  -24.1969   -8.3777   18.7317 F   0  0  0  0  0  0  0  0  0  0  0  0
  1  2  1  0  0  0  0
  1  5  2  0  0  0  0
  2  6  2  0  0  0  0
  3  8  2  0  0  0  0
  3 16  1  0  0  0  0
  4  9  1  0  0  0  0
  4 16  2  0  0  0  0
  5 18  1  0  0  0  0
  6 20  1  0  0  0  0
  7 10  2  0  0  0  0
  7 19  1  0  0  0  0
  8 24  1  0  0  0  0
  9 24  2  0  0  0  0
 10 25  1  0  0  0  0
 11 12  2  0  0  0  0
 11 26  1  0  0  0  0
 12 27  1  0  0  0  0
 13 21  1  0  0  0  0
 13 25  2  0  0  0  0
 14 22  2  0  0  0  0
 14 31  1  0  0  0  0
 15 27  2  0  0  0  0
 15 28  1  0  0  0  0
 16 29  1  0  0  0  0
 17 29  1  0  0  0  0
 17 32  2  0  0  0  0
 17 33  1  0  0  0  0
 18 20  2  0  0  0  0
 18 38  1  0  0  0  0
 19 21  2  0  0  0  0
 19 39  1  0  0  0  0
 20 47  1  0  0  0  0
 21 40  1  0  0  0  0
 22 23  1  0  0  0  0
 22 50  1  0  0  0  0
 23 30  2  0  0  0  0
 23 58  1  0  0  0  0
 24 80  1  0  0  0  0
 25 81  1  0  0  0  0
 26 28  2  0  0  0  0
 26 80  1  0  0  0  0
 27 82  1  0  0  0  0
 28 83  1  0  0  0  0
 29 64  2  0  0  0  0
 30 51  1  0  0  0  0
 30 65  1  0  0  0  0
 31 65  2  0  0  0  0
 31 73  1  0  0  0  0
 32 66  1  0  0  0  0
 32 69  1  0  0  0  0
 33 70  1  0  0  0  0
 33 75  2  0  0  0  0
 34 48  1  0  0  0  0
 34 71  1  0  0  0  0
 34 76  2  0  0  0  0
 35 61  1  0  0  0  0
 35 67  1  0  0  0  0
 35 77  2  0  0  0  0
 36 62  1  0  0  0  0
 36 72  1  0  0  0  0
 36 78  2  0  0  0  0
 37 68  1  0  0  0  0
 37 73  1  0  0  0  0
 37 79  2  0  0  0  0
 38 41  1  0  0  0  0
 39 48  1  0  0  0  0
 40 67  1  0  0  0  0
 41 43  1  0  0  0  0
 42 44  1  0  0  0  0
 42 45  1  0  0  0  0
 43 47  1  0  0  0  0
 44 49  1  0  0  0  0
 45 68  1  0  0  0  0
 46 49  1  0  0  0  0
 46 68  1  0  0  0  0
 47 71  1  0  0  0  0
 48 67  1  0  0  0  0
 49 66  1  0  0  0  0
 52 62  1  0  0  0  0
 53 63  1  0  0  0  0
 54 63  1  0  0  0  0
 55 63  1  0  0  0  0
 56 73  1  0  0  0  0
 57 74  1  0  0  0  0
 58 59  1  0  0  0  0
 59 60  1  0  0  0  0
 60 81  1  0  0  0  0
 61 63  1  0  0  0  0
 61 72  1  0  0  0  0
 62 74  1  0  0  0  0
 64 66  1  0  0  0  0
M  CHG  1  74   1
M  ISO  4  37 100  60 101  73 100  81 101
M  END
> <Batch ID>
0101

> <Smiles>
CNC(C)C(=O)NC(C(=O)N1Cc2cc([101O:1][101CH2:1]CCc3c(C)cc([100N:0](C)[100C:0](=O)N4CCCC(n5nc(-c6ccc(Oc7ccc(F)cc7F)cc6)c(C(N)=O)c5N)C4)nc3C)ccc2CC1C(=O)NC1CCCc2ccccc21)C(C)(C)C

> <Shape>
0.241

> <Color>
0.082

> <Negative vol penalty>
0.000

$$$$

  -OEChem-04052319363D

 84 92  0     1  0  0  0  0  0999 V2000
  -28.8727  -10.3762   16.5198 C   0  0  0  0  0  0  0  0  0  0  0  0
  -27.9253  -11.3180   16.1314 C   0  0  0  0  0  0  0  0  0  0  0  0
  -25.7764  -29.2942   21.9986 C   0  0  0  0  0  0  0  0  0  0  0  0
  -24.0601  -29.6998   20.3473 C   0  0  0  0  0  0  0  0  0  0  0  0
  -29.5249  -10.5095   17.7449 C   0  0  0  0  0  0  0  0  0  0  0  0
  -27.6288  -12.3931   16.9684 C   0  0  0  0  0  0  0  0  0  0  0  0
  -26.1591  -18.0890   15.2646 C   0  0  0  0  0  0  0  0  0  0  0  0
  -25.3189  -30.3825   22.7415 C   0  0  0  0  0  0  0  0  0  0  0  0
  -23.6025  -30.7881   21.0902 C   0  0  0  0  0  0  0  0  0  0  0  0
  -24.9346  -18.7429   15.1354 C   0  0  0  0  0  0  0  0  0  0  0  0
  -25.5803  -33.7510   22.6438 C   0  0  0  0  0  0  0  0  0  0  0  0
  -26.5326  -34.6363   23.1487 C   0  0  0  0  0  0  0  0  0  0  0  0
  -25.2022  -19.6683   17.3470 C   0  0  0  0  0  0  0  0  0  0  0  0
  -22.4758  -21.9005   13.4092 C   0  0  0  0  0  0  0  0  0  0  0  0
  -25.7833  -34.1608   25.3958 C   0  0  0  0  0  0  0  0  0  0  0  0
  -23.5822  -23.6700   14.2545 C   0  0  0  0  0  0  0  0  0  0  0  0
  -25.1471  -28.9529   20.8015 C   0  0  0  0  0  0  0  0  0  0  0  0
  -25.1999  -26.4896   20.1402 C   0  0  0  0  0  0  0  0  0  0  0  0
  -29.2433  -11.5920   18.5930 C   0  0  0  0  0  0  0  0  0  0  0  0
  -26.9105  -18.2113   16.4423 C   0  0  0  0  0  0  0  0  0  0  0  0
  -28.2769  -12.5403   18.2066 C   0  0  0  0  0  0  0  0  0  0  0  0
  -26.4372  -19.0170   17.4877 C   0  0  0  0  0  0  0  0  0  0  0  0
  -22.7396  -22.6340   14.5921 C   0  0  0  0  0  0  0  0  0  0  0  0
  -24.2320  -31.1295   22.2873 C   0  0  0  0  0  0  0  0  0  0  0  0
  -24.4546  -19.5304   16.1778 C   0  0  0  0  0  0  0  0  0  0  0  0
  -24.7295  -33.0706   23.5149 C   0  0  0  0  0  0  0  0  0  0  0  0
  -26.6341  -34.8413   24.5246 C   0  0  0  0  0  0  0  0  0  0  0  0
  -24.8310  -33.2755   24.8909 C   0  0  0  0  0  0  0  0  0  0  0  0
  -25.6196  -27.8291   20.0333 C   0  0  0  0  0  0  0  0  0  0  0  0
  -23.1654  -22.5105   12.3846 C   0  0  0  0  0  0  0  0  0  0  0  0
  -25.9449  -25.8204   19.2003 C   0  0  0  0  0  0  0  0  0  0  0  0
  -24.2239  -25.9028   21.0113 C   0  0  0  0  0  0  0  0  0  0  0  0
  -27.9293  -16.1892   18.6732 C   0  0  0  0  0  0  0  0  0  0  0  0
  -29.4918  -18.8076   19.7798 C   0  0  0  0  0  0  0  0  0  0  0  0
  -29.6844  -22.2108   19.9479 C   0  0  0  0  0  0  0  0  0  0  0  0
  -28.1092  -25.4476   14.0697 C   0  0  0  0  0  0  0  0  0  0  0  0
  -29.9397  -11.6681   19.9286 C   0  0  0  0  0  0  0  0  0  0  0  0
  -28.2421  -17.5210   16.5555 C   0  0  0  0  0  0  0  0  0  0  0  0
  -27.2152  -19.1972   18.7647 C   0  0  0  0  0  0  0  0  0  0  0  0
  -29.8399  -13.0402   20.5903 C   0  0  0  0  0  0  0  0  0  0  0  0
  -29.9357  -27.3255   16.4809 C   0  0  0  0  0  0  0  0  0  0  0  0
  -28.4071  -13.5599   20.5281 C   0  0  0  0  0  0  0  0  0  0  0  0
  -28.9393  -27.5186   17.6255 C   0  0  0  0  0  0  0  0  0  0  0  0
  -29.2480  -27.3814   15.1186 C   0  0  0  0  0  0  0  0  0  0  0  0
  -27.1113  -26.6523   16.1068 C   0  0  0  0  0  0  0  0  0  0  0  0
  -27.9460  -13.7339   19.0760 C   0  0  1  0  0  0  0  0  0  0  0  0
  -28.6810  -17.3026   18.0002 C   0  0  1  0  0  0  0  0  0  0  0  0
  -27.7493  -26.5481   17.5026 C   0  0  2  0  0  0  0  0  0  0  0  0
  -21.8718  -22.2364   10.2386 C   0  0  0  0  0  0  0  0  0  0  0  0
  -23.8659  -20.7663   10.7050 C   0  0  0  0  0  0  0  0  0  0  0  0
  -31.0489  -24.0591   20.9575 C   0  0  0  0  0  0  0  0  0  0  0  0
  -28.1926  -18.2831   22.4902 C   0  0  0  0  0  0  0  0  0  0  0  0
  -28.8050  -20.6172   23.1574 C   0  0  0  0  0  0  0  0  0  0  0  0
  -30.5945  -18.9709   22.6004 C   0  0  0  0  0  0  0  0  0  0  0  0
  -30.4105  -23.2849   17.2875 C   0  0  0  0  0  0  0  0  0  0  0  0
  -22.1977  -22.3366   15.9692 C   0  0  0  0  0  0  0  0  0  0  0  0
  -26.0879  -23.9549   11.8949 C   0  0  0  0  0  0  0  0  0  0  0  0
  -24.6805  -24.4989   12.1744 C   0  0  0  0  0  0  0  0  0  0  0  0
  -26.8577  -23.5171   13.1391 C   0  0  0  0  0  0  0  0  0  0  0  0
  -23.1052  -21.4003   16.7596 C   0  0  0  0  0  0  0  0  0  1  0  0
  -23.2411  -22.1585   10.9516 C   0  0  0  0  0  0  0  0  0  0  0  0
  -29.1627  -19.9203   20.7455 C   0  0  1  0  0  0  0  0  0  0  0  0
  -30.8471  -23.1652   19.7439 C   0  0  2  0  0  0  0  0  0  0  0  0
  -29.1729  -19.4431   22.2252 C   0  0  0  0  0  0  0  0  0  0  0  0
  -26.5585  -28.0024   19.0993 N   0  0  0  0  0  0  0  0  0  0  0  0
  -23.8345  -23.5848   12.9101 N   0  0  0  0  0  0  0  0  0  0  0  0
  -26.7350  -26.7629   18.6107 N   0  0  0  0  0  0  0  0  0  0  0  0
  -28.5085  -18.4968   18.8299 N   0  0  0  0  0  0  0  0  0  0  0  0
  -28.1299  -26.4364   15.0672 N   0  0  0  0  0  0  0  0  0  0  0  0
  -25.9948  -24.5235   18.8288 N   0  0  0  0  0  0  0  0  0  0  0  0
  -23.5504  -26.7342   21.9165 N   0  0  0  0  0  0  0  0  0  0  0  0
  -28.5042  -14.9432   18.5099 N   0  0  0  0  0  0  0  0  0  0  0  0
  -30.1012  -21.0000   20.4594 N   0  0  0  0  0  0  0  0  0  0  0  0
  -27.0170  -24.5891   14.0964 N   0  0  0  0  0  0  0  0  0  0  0  0
  -30.6031  -24.0325   18.5567 N   0  3  0  0  0  0  0  0  0  0  0  0
  -23.9686  -24.6747   20.9988 O   0  0  0  0  0  0  0  0  0  0  0  0
  -26.9046  -16.4420   19.2958 O   0  0  0  0  0  0  0  0  0  0  0  0
  -30.5841  -18.2402   19.8605 O   0  0  0  0  0  0  0  0  0  0  0  0
  -28.5222  -22.5107   19.6838 O   0  0  0  0  0  0  0  0  0  0  0  0
  -29.0009  -25.3348   13.2217 O   0  0  0  0  0  0  0  0  0  0  0  0
  -23.7851  -32.1913   23.0121 O   0  0  0  0  0  0  0  0  0  0  0  0
  -23.2594  -20.1692   16.0546 O   0  0  0  0  0  0  0  0  0  1  0  0
  -27.5496  -35.6903   25.0094 F   0  0  0  0  0  0  0  0  0  0  0  0
  -24.0171  -32.6238   25.7327 F   0  0  0  0  0  0  0  0  0  0  0  0
  1  2  1  0  0  0  0
  1  5  2  0  0  0  0
  2  6  2  0  0  0  0
  3  8  2  0  0  0  0
  3 17  1  0  0  0  0
  4  9  1  0  0  0  0
  4 17  2  0  0  0  0
  5 19  1  0  0  0  0
  6 21  1  0  0  0  0
  7 10  2  0  0  0  0
  7 20  1  0  0  0  0
  8 24  1  0  0  0  0
  9 24  2  0  0  0  0
 10 25  1  0  0  0  0
 11 12  2  0  0  0  0
 11 26  1  0  0  0  0
 12 27  1  0  0  0  0
 13 22  1  0  0  0  0
 13 25  2  0  0  0  0
 14 23  1  0  0  0  0
 14 30  2  0  0  0  0
 15 27  2  0  0  0  0
 15 28  1  0  0  0  0
 16 23  2  0  0  0  0
 16 66  1  0  0  0  0
 17 29  1  0  0  0  0
 18 29  1  0  0  0  0
 18 31  2  0  0  0  0
 18 32  1  0  0  0  0
 19 21  2  0  0  0  0
 19 37  1  0  0  0  0
 20 22  2  0  0  0  0
 20 38  1  0  0  0  0
 21 46  1  0  0  0  0
 22 39  1  0  0  0  0
 23 56  1  0  0  0  0
 24 81  1  0  0  0  0
 25 82  1  0  0  0  0
 26 28  2  0  0  0  0
 26 81  1  0  0  0  0
 27 83  1  0  0  0  0
 28 84  1  0  0  0  0
 29 65  2  0  0  0  0
 30 61  1  0  0  0  0
 30 66  1  0  0  0  0
 31 67  1  0  0  0  0
 31 70  1  0  0  0  0
 32 71  1  0  0  0  0
 32 76  2  0  0  0  0
 33 47  1  0  0  0  0
 33 72  1  0  0  0  0
 33 77  2  0  0  0  0
 34 62  1  0  0  0  0
 34 68  1  0  0  0  0
 34 78  2  0  0  0  0
 35 63  1  0  0  0  0
 35 73  1  0  0  0  0
 35 79  2  0  0  0  0
 36 69  1  0  0  0  0
 36 74  1  0  0  0  0
 36 80  2  0  0  0  0
 37 40  1  0  0  0  0
 38 47  1  0  0  0  0
 39 68  1  0  0  0  0
 40 42  1  0  0  0  0
 41 43  1  0  0  0  0
 41 44  1  0  0  0  0
 42 46  1  0  0  0  0
 43 48  1  0  0  0  0
 44 69  1  0  0  0  0
 45 48  1  0  0  0  0
 45 69  1  0  0  0  0
 46 72  1  0  0  0  0
 47 68  1  0  0  0  0
 48 67  1  0  0  0  0
 49 61  1  0  0  0  0
 50 61  1  0  0  0  0
 51 63  1  0  0  0  0
 52 64  1  0  0  0  0
 53 64  1  0  0  0  0
 54 64  1  0  0  0  0
 55 75  1  0  0  0  0
 56 60  1  0  0  0  0
 57 58  1  0  0  0  0
 57 59  1  0  0  0  0
 58 66  1  0  0  0  0
 59 74  1  0  0  0  0
 60 82  1  0  0  0  0
 62 64  1  0  0  0  0
 62 73  1  0  0  0  0
 63 75  1  0  0  0  0
 65 67  1  0  0  0  0
M  CHG  1  75   1
M  ISO  4  36 100  60 101  74 100  82 101
M  END
> <Batch ID>
0101

> <Smiles>
CNC(C)C(=O)NC(C(=O)N1Cc2cc([101O:1][101CH2:1]Cc3cc(C(C)C)n(CCC[100NH:0][100C:0](=O)N4CCCC(n5nc(-c6ccc(Oc7ccc(F)cc7F)cc6)c(C(N)=O)c5N)C4)c3)ccc2CC1C(=O)NC1CCCc2ccccc21)C(C)(C)C

> <Shape>
0.217

> <Color>
0.066

> <Negative vol penalty>
0.000

$$$$

  -OEChem-04052319363D

 90 98  0     1  0  0  0  0  0999 V2000
  -28.8251  -22.8367   30.6796 C   0  0  0  0  0  0  0  0  0  0  0  0
  -28.9048  -22.0250   29.5525 C   0  0  0  0  0  0  0  0  0  0  0  0
  -23.2883   -9.7947   19.9080 C   0  0  0  0  0  0  0  0  0  0  0  0
  -23.7126   -9.9401   22.2820 C   0  0  0  0  0  0  0  0  0  0  0  0
  -27.7462  -23.7057   30.8364 C   0  0  0  0  0  0  0  0  0  0  0  0
  -27.9049  -22.0810   28.5822 C   0  0  0  0  0  0  0  0  0  0  0  0
  -26.9431  -21.4328   21.5132 C   0  0  0  0  0  0  0  0  0  0  0  0
  -22.5548   -8.6258   20.1106 C   0  0  0  0  0  0  0  0  0  0  0  0
  -22.9790   -8.7711   22.4846 C   0  0  0  0  0  0  0  0  0  0  0  0
  -26.1541  -20.7451   20.5921 C   0  0  0  0  0  0  0  0  0  0  0  0
  -20.2672   -5.8013   20.0449 C   0  0  0  0  0  0  0  0  0  0  0  0
  -19.0468   -5.6781   19.3807 C   0  0  0  0  0  0  0  0  0  0  0  0
  -24.3778  -22.3417   20.9309 C   0  0  0  0  0  0  0  0  0  0  0  0
  -28.5735  -18.4913   14.9855 C   0  0  0  0  0  0  0  0  0  0  0  0
  -18.2354   -7.6568   20.5048 C   0  0  0  0  0  0  0  0  0  0  0  0
  -25.9607  -17.9109   15.5164 C   0  0  0  0  0  0  0  0  0  0  0  0
  -23.8673  -10.4519   20.9936 C   0  0  0  0  0  0  0  0  0  0  0  0
  -24.1394  -12.9802   20.7911 C   0  0  0  0  0  0  0  0  0  0  0  0
  -26.7375  -23.7795   29.8628 C   0  0  0  0  0  0  0  0  0  0  0  0
  -26.4505  -22.5758   22.1592 C   0  0  0  0  0  0  0  0  0  0  0  0
  -26.8108  -22.9509   28.7268 C   0  0  0  0  0  0  0  0  0  0  0  0
  -25.1635  -23.0436   21.8578 C   0  0  0  0  0  0  0  0  0  0  0  0
  -26.2403  -19.0129   14.7244 C   0  0  0  0  0  0  0  0  0  0  0  0
  -27.5741  -19.3017   14.4586 C   0  0  0  0  0  0  0  0  0  0  0  0
  -22.4001   -8.1140   21.3989 C   0  0  0  0  0  0  0  0  0  0  0  0
  -24.8701  -21.1979   20.3030 C   0  0  0  0  0  0  0  0  0  0  0  0
  -20.4717   -6.8522   20.9391 C   0  0  0  0  0  0  0  0  0  0  0  0
  -18.0310   -6.6059   19.6107 C   0  0  0  0  0  0  0  0  0  0  0  0
  -19.4558   -7.7799   21.1690 C   0  0  0  0  0  0  0  0  0  0  0  0
  -24.6256  -11.6591   20.7849 C   0  0  0  0  0  0  0  0  0  0  0  0
  -28.1895  -17.4128   15.7660 C   0  0  0  0  0  0  0  0  0  0  0  0
  -25.2469  -13.7549   20.5466 C   0  0  0  0  0  0  0  0  0  0  0  0
  -29.2062  -16.5188   16.3482 C   0  0  0  0  0  0  0  0  0  0  0  0
  -22.8059  -13.4639   20.9994 C   0  0  0  0  0  0  0  0  0  0  0  0
  -25.8580  -23.3646   25.1809 C   0  0  0  0  0  0  0  0  0  0  0  0
  -28.1317  -21.5617   14.2207 C   0  0  0  0  0  0  0  0  0  0  0  0
  -25.2560  -26.2804   23.8932 C   0  0  0  0  0  0  0  0  0  0  0  0
  -24.3663  -28.1097   21.1530 C   0  0  0  0  0  0  0  0  0  0  0  0
  -29.8878  -14.7112   17.5969 C   0  0  0  0  0  0  0  0  0  0  0  0
  -25.5664  -24.7000   30.0991 C   0  0  0  0  0  0  0  0  0  0  0  0
  -27.3241  -23.3216   23.1303 C   0  0  0  0  0  0  0  0  0  0  0  0
  -24.5954  -24.2772   22.5089 C   0  0  0  0  0  0  0  0  0  0  0  0
  -24.7411  -24.9702   28.8437 C   0  0  0  0  0  0  0  0  0  0  0  0
  -30.1582  -12.5757   20.4903 C   0  0  0  0  0  0  0  0  0  0  0  0
  -24.4572  -23.6684   28.1011 C   0  0  0  0  0  0  0  0  0  0  0  0
  -28.7027  -12.2281   20.8023 C   0  0  0  0  0  0  0  0  0  0  0  0
  -30.3938  -12.7033   18.9883 C   0  0  0  0  0  0  0  0  0  0  0  0
  -28.0229  -13.3324   18.6256 C   0  0  0  0  0  0  0  0  0  0  0  0
  -25.7587  -23.0010   27.6403 C   0  0  1  0  0  0  0  0  0  0  0  0
  -26.5303  -24.1785   24.1116 C   0  0  1  0  0  0  0  0  0  0  0  0
  -27.7404  -13.2262   20.1340 C   0  0  1  0  0  0  0  0  0  0  0  0
  -28.5160  -22.8187   13.4724 C   0  0  0  0  0  0  0  0  0  0  0  0
  -29.2976  -21.5452   17.9291 C   0  0  0  0  0  0  0  0  0  0  0  0
  -24.7097  -19.3880   12.7737 C   0  0  0  0  0  0  0  0  0  0  0  0
  -23.9200  -30.4674   20.4185 C   0  0  0  0  0  0  0  0  0  0  0  0
  -22.5478  -26.2023   25.2967 C   0  0  0  0  0  0  0  0  0  0  0  0
  -21.7970  -28.0641   23.8006 C   0  0  0  0  0  0  0  0  0  0  0  0
  -23.6994  -28.4209   25.3742 C   0  0  0  0  0  0  0  0  0  0  0  0
  -26.5579  -28.0286   19.1656 C   0  0  0  0  0  0  0  0  0  0  0  0
  -28.0271  -21.6492   15.7334 C   0  0  0  0  0  0  0  0  0  0  0  0
  -29.3705  -21.4035   16.4154 C   0  0  0  0  0  0  0  0  0  0  0  0
  -24.1654  -20.5402   16.4644 C   0  0  0  0  0  0  0  0  0  0  0  0
  -22.8927  -20.6404   17.3120 C   0  0  0  0  0  0  0  0  0  0  0  0
  -23.8732  -19.9015   15.1007 C   0  0  0  0  0  0  0  0  0  0  0  0
  -23.1502  -21.2956   18.6635 C   0  0  0  0  0  0  0  0  0  1  0  0
  -25.1085  -19.8647   14.1758 C   0  0  1  0  0  0  0  0  0  0  0  0
  -24.0361  -26.9698   23.3315 C   0  0  1  0  0  0  0  0  0  0  0  0
  -24.9616  -29.3665   20.5442 C   0  0  2  0  0  0  0  0  0  0  0  0
  -23.0297  -27.3899   24.4397 C   0  0  0  0  0  0  0  0  0  0  0  0
  -26.9043  -17.1005   16.0459 N   0  0  0  0  0  0  0  0  0  0  0  0
  -25.9397  -11.5944   20.5545 N   0  0  0  0  0  0  0  0  0  0  0  0
  -27.9268  -20.4015   13.6673 N   0  0  0  0  0  0  0  0  0  0  0  0
  -28.8811  -15.5060   17.0829 N   0  0  0  0  0  0  0  0  0  0  0  0
  -26.2886  -12.8845   20.4136 N   0  0  0  0  0  0  0  0  0  0  0  0
  -25.4859  -24.9682   23.4560 N   0  0  0  0  0  0  0  0  0  0  0  0
  -29.4399  -13.6340   18.3834 N   0  0  0  0  0  0  0  0  0  0  0  0
  -25.4216  -15.0888   20.4345 N   0  0  0  0  0  0  0  0  0  0  0  0
  -21.7867  -12.5319   21.2379 N   0  0  0  0  0  0  0  0  0  0  0  0
  -26.2773  -23.6640   26.4630 N   0  0  0  0  0  0  0  0  0  0  0  0
  -24.5302  -28.0782   22.5217 N   0  0  0  0  0  0  0  0  0  0  0  0
  -25.5058  -29.0772   19.1874 N   0  3  0  0  0  0  0  0  0  0  0  0
  -22.5234  -14.6854   20.9585 O   0  0  0  0  0  0  0  0  0  0  0  0
  -25.0198  -22.5280   24.8660 O   0  0  0  0  0  0  0  0  0  0  0  0
  -25.9822  -26.8864   24.6850 O   0  0  0  0  0  0  0  0  0  0  0  0
  -23.8083  -27.2444   20.4818 O   0  0  0  0  0  0  0  0  0  0  0  0
  -31.0886  -14.9051   17.3930 O   0  0  0  0  0  0  0  0  0  0  0  0
  -21.6841   -6.9735   21.5970 O   0  0  0  0  0  0  0  0  0  0  0  0
  -24.0976  -20.5282   19.4049 O   0  0  0  0  0  0  0  0  0  1  0  0
  -16.8596   -6.4884   18.9716 F   0  0  0  0  0  0  0  0  0  0  0  0
  -19.6468   -8.7923   22.0260 F   0  0  0  0  0  0  0  0  0  0  0  0
  1  2  1  0  0  0  0
  1  5  2  0  0  0  0
  2  6  2  0  0  0  0
  3  8  2  0  0  0  0
  3 17  1  0  0  0  0
  4  9  1  0  0  0  0
  4 17  2  0  0  0  0
  5 19  1  0  0  0  0
  6 21  1  0  0  0  0
  7 10  2  0  0  0  0
  7 20  1  0  0  0  0
  8 25  1  0  0  0  0
  9 25  2  0  0  0  0
 10 26  1  0  0  0  0
 11 12  2  0  0  0  0
 11 27  1  0  0  0  0
 12 28  1  0  0  0  0
 13 22  1  0  0  0  0
 13 26  2  0  0  0  0
 14 24  1  0  0  0  0
 14 31  2  0  0  0  0
 15 28  2  0  0  0  0
 15 29  1  0  0  0  0
 16 23  1  0  0  0  0
 16 70  2  0  0  0  0
 17 30  1  0  0  0  0
 18 30  1  0  0  0  0
 18 32  2  0  0  0  0
 18 34  1  0  0  0  0
 19 21  2  0  0  0  0
 19 40  1  0  0  0  0
 20 22  2  0  0  0  0
 20 41  1  0  0  0  0
 21 49  1  0  0  0  0
 22 42  1  0  0  0  0
 23 24  2  0  0  0  0
 23 66  1  0  0  0  0
 24 72  1  0  0  0  0
 25 87  1  0  0  0  0
 26 88  1  0  0  0  0
 27 29  2  0  0  0  0
 27 87  1  0  0  0  0
 28 89  1  0  0  0  0
 29 90  1  0  0  0  0
 30 71  2  0  0  0  0
 31 33  1  0  0  0  0
 31 70  1  0  0  0  0
 32 74  1  0  0  0  0
 32 77  1  0  0  0  0
 33 73  2  0  0  0  0
 34 78  1  0  0  0  0
 34 82  2  0  0  0  0
 35 50  1  0  0  0  0
 35 79  1  0  0  0  0
 35 83  2  0  0  0  0
 36 52  1  0  0  0  0
 36 60  1  0  0  0  0
 36 72  2  0  0  0  0
 37 67  1  0  0  0  0
 37 75  1  0  0  0  0
 37 84  2  0  0  0  0
 38 68  1  0  0  0  0
 38 80  1  0  0  0  0
 38 85  2  0  0  0  0
 39 73  1  0  0  0  0
 39 76  1  0  0  0  0
 39 86  2  0  0  0  0
 40 43  1  0  0  0  0
 41 50  1  0  0  0  0
 42 75  1  0  0  0  0
 43 45  1  0  0  0  0
 44 46  1  0  0  0  0
 44 47  1  0  0  0  0
 45 49  1  0  0  0  0
 46 51  1  0  0  0  0
 47 76  1  0  0  0  0
 48 51  1  0  0  0  0
 48 76  1  0  0  0  0
 49 79  1  0  0  0  0
 50 75  1  0  0  0  0
 51 74  1  0  0  0  0
 53 61  1  0  0  0  0
 54 66  1  0  0  0  0
 55 68  1  0  0  0  0
 56 69  1  0  0  0  0
 57 69  1  0  0  0  0
 58 69  1  0  0  0  0
 59 81  1  0  0  0  0
 60 61  1  0  0  0  0
 62 63  1  0  0  0  0
 62 64  1  0  0  0  0
 63 65  1  0  0  0  0
 64 66  1  0  0  0  0
 65 88  1  0  0  0  0
 67 69  1  0  0  0  0
 67 80  1  0  0  0  0
 68 81  1  0  0  0  0
 71 74  1  0  0  0  0
M  CHG  1  81   1
M  ISO  4  39 100  65 101  73 100  88 101
M  END
> <Batch ID>
0101

> <Smiles>
C=CCC(=C)Nc1cc(C[100NH:0][100C:0](=O)N2CCCC(n3nc(-c4ccc(Oc5ccc(F)cc5F)cc4)c(C(N)=O)c3N)C2)ncc1C(C)CCC[101CH2:1][101O:1]c1ccc2c(c1)CN(C(=O)C(NC(=O)C(C)NC)C(C)(C)C)C(C(=O)NC1CCCc3ccccc31)C2

> <Shape>
0.155

> <Color>
0.160

> <Negative vol penalty>
0.000

$$$$

  -OEChem-04052319363D

 81 88  0     1  0  0  0  0  0999 V2000
  -22.9735  -22.8014   15.6362 C   0  0  0  0  0  0  0  0  0  0  0  0
  -23.7261  -21.7031   15.2331 C   0  0  0  0  0  0  0  0  0  0  0  0
  -25.2199  -31.2761   21.5642 C   0  0  0  0  0  0  0  0  0  0  0  0
  -27.5070  -31.4436   20.8036 C   0  0  0  0  0  0  0  0  0  0  0  0
  -22.9057  -23.1408   16.9868 C   0  0  0  0  0  0  0  0  0  0  0  0
  -24.4124  -20.9440   16.1803 C   0  0  0  0  0  0  0  0  0  0  0  0
  -26.4864  -14.2164   17.5048 C   0  0  0  0  0  0  0  0  0  0  0  0
  -25.2995  -32.5665   22.0877 C   0  0  0  0  0  0  0  0  0  0  0  0
  -27.5865  -32.7341   21.3270 C   0  0  0  0  0  0  0  0  0  0  0  0
  -27.6290  -13.4852   17.8268 C   0  0  0  0  0  0  0  0  0  0  0  0
  -25.1543  -35.7389   20.9267 C   0  0  0  0  0  0  0  0  0  0  0  0
  -24.0885  -36.6046   20.6818 C   0  0  0  0  0  0  0  0  0  0  0  0
  -27.3748  -14.1182   20.1406 C   0  0  0  0  0  0  0  0  0  0  0  0
  -23.7176  -36.8206   23.0594 C   0  0  0  0  0  0  0  0  0  0  0  0
  -26.3237  -30.7146   20.9222 C   0  0  0  0  0  0  0  0  0  0  0  0
  -25.8380  -29.0132   19.0846 C   0  0  0  0  0  0  0  0  0  0  0  0
  -23.5836  -22.3797   17.9521 C   0  0  0  0  0  0  0  0  0  0  0  0
  -25.7845  -14.9141   18.4983 C   0  0  0  0  0  0  0  0  0  0  0  0
  -24.3547  -21.2742   17.5450 C   0  0  0  0  0  0  0  0  0  0  0  0
  -26.2222  -14.8554   19.8291 C   0  0  0  0  0  0  0  0  0  0  0  0
  -26.4828  -33.2955   21.9691 C   0  0  0  0  0  0  0  0  0  0  0  0
  -28.0750  -13.4383   19.1443 C   0  0  0  0  0  0  0  0  0  0  0  0
  -25.5018  -35.4139   22.2380 C   0  0  0  0  0  0  0  0  0  0  0  0
  -23.3701  -37.1455   21.7481 C   0  0  0  0  0  0  0  0  0  0  0  0
  -24.7834  -35.9548   23.3043 C   0  0  0  0  0  0  0  0  0  0  0  0
  -26.2423  -29.3814   20.3818 C   0  0  0  0  0  0  0  0  0  0  0  0
  -25.9346  -27.6431   19.0707 C   0  0  0  0  0  0  0  0  0  0  0  0
  -25.4132  -29.8360   17.9899 C   0  0  0  0  0  0  0  0  0  0  0  0
  -25.0901  -17.9705   19.0274 C   0  0  0  0  0  0  0  0  0  0  0  0
  -23.3207  -16.7447   21.4540 C   0  0  0  0  0  0  0  0  0  0  0  0
  -22.7854  -14.1800   23.6409 C   0  0  0  0  0  0  0  0  0  0  0  0
  -28.7211  -23.0600   20.1557 C   0  0  0  0  0  0  0  0  0  0  0  0
  -23.5188  -22.8134   19.3952 C   0  0  0  0  0  0  0  0  0  0  0  0
  -24.5386  -15.6764   18.1391 C   0  0  0  0  0  0  0  0  0  0  0  0
  -25.4928  -15.5703   20.9361 C   0  0  0  0  0  0  0  0  0  0  0  0
  -23.9716  -21.7350   20.3762 C   0  0  0  0  0  0  0  0  0  0  0  0
  -26.6714  -24.3540   22.8430 C   0  0  0  0  0  0  0  0  0  0  0  0
  -25.2747  -21.0976   19.9046 C   0  0  0  0  0  0  0  0  0  0  0  0
  -26.3437  -25.7565   22.3273 C   0  0  0  0  0  0  0  0  0  0  0  0
  -28.0982  -23.9516   22.4816 C   0  0  0  0  0  0  0  0  0  0  0  0
  -28.0831  -25.4287   20.5089 C   0  0  0  0  0  0  0  0  0  0  0  0
  -25.0930  -20.4115   18.5453 C   0  0  1  0  0  0  0  0  0  0  0  0
  -24.1954  -16.7693   19.1467 C   0  0  1  0  0  0  0  0  0  0  0  0
  -26.6468  -25.8852   20.8227 C   0  0  2  0  0  0  0  0  0  0  0  0
  -21.2877  -13.4816   25.5295 C   0  0  0  0  0  0  0  0  0  0  0  0
  -30.9167  -11.9407   17.9899 C   0  0  0  0  0  0  0  0  0  0  0  0
  -24.7975  -18.6485   23.3260 C   0  0  0  0  0  0  0  0  0  0  0  0
  -23.9800  -17.2760   25.2537 C   0  0  0  0  0  0  0  0  0  0  0  0
  -22.3455  -18.4402   23.7719 C   0  0  0  0  0  0  0  0  0  0  0  0
  -21.8236  -11.8082   22.1548 C   0  0  0  0  0  0  0  0  0  0  0  0
  -29.4994  -19.4115   20.8124 C   0  0  0  0  0  0  0  0  0  0  0  0
  -31.4314  -13.5084   19.8952 C   0  0  0  0  0  0  0  0  0  0  0  0
  -29.3398  -20.6652   19.9570 C   0  0  0  0  0  0  0  0  0  0  0  0
  -30.9638  -14.6191   20.8317 C   0  0  0  0  0  0  0  0  0  0  0  0
  -30.1948  -16.9945   20.9008 C   0  0  0  0  0  0  0  0  0  0  0  0
  -23.5794  -16.4116   22.9035 C   0  0  1  0  0  0  0  0  0  0  0  0
  -21.5216  -13.4331   24.0276 C   0  0  2  0  0  0  0  0  0  0  0  0
  -30.4086  -13.1095   18.8249 C   0  0  2  0  0  0  0  0  0  1  0  0
  -29.9649  -18.1998   20.0037 C   0  0  2  0  0  0  0  0  0  0  0  0
  -23.6907  -17.6821   23.7928 C   0  0  0  0  0  0  0  0  0  0  0  0
  -26.5711  -28.3301   21.1373 N   0  0  0  0  0  0  0  0  0  0  0  0
  -26.3735  -27.2879   20.3122 N   0  0  0  0  0  0  0  0  0  0  0  0
  -24.2836  -16.3073   20.5335 N   0  0  0  0  0  0  0  0  0  0  0  0
  -28.3156  -24.0789   21.0336 N   0  0  0  0  0  0  0  0  0  0  0  0
  -25.6861  -26.7198   18.1178 N   0  0  0  0  0  0  0  0  0  0  0  0
  -25.3722  -31.2247   18.1746 N   0  0  0  0  0  0  0  0  0  0  0  0
  -24.4243  -19.1383   18.7071 N   0  0  0  0  0  0  0  0  0  0  0  0
  -22.5215  -15.4912   23.3061 N   0  0  0  0  0  0  0  0  0  0  0  0
  -28.9266  -21.8131   20.7334 N   0  0  0  0  0  0  0  0  0  0  0  0
  -21.6166  -12.0048   23.6127 N   0  3  0  0  0  0  0  0  0  0  0  0
  -30.7108  -15.8678   20.0751 N   0  3  0  0  0  0  0  0  0  0  0  0
  -25.0643  -29.3528   16.8862 O   0  0  0  0  0  0  0  0  0  0  0  0
  -26.2950  -17.8473   19.2136 O   0  0  0  0  0  0  0  0  0  0  0  0
  -22.2982  -17.3636   21.1490 O   0  0  0  0  0  0  0  0  0  0  0  0
  -23.8961  -13.6539   23.6399 O   0  0  0  0  0  0  0  0  0  0  0  0
  -28.8830  -23.2463   18.9448 O   0  0  0  0  0  0  0  0  0  0  0  0
  -26.5607  -34.5549   22.4795 O   0  0  0  0  0  0  0  0  0  0  0  0
  -29.1903  -12.7259   19.4612 O   0  0  0  0  0  0  0  0  0  1  0  0
  -22.3476  -37.9781   21.5127 F   0  0  0  0  0  0  0  0  0  0  0  0
  -25.1132  -35.6473   24.5662 F   0  0  0  0  0  0  0  0  0  0  0  0
  -31.1481  -18.5174   19.4045 F   0  0  0  0  0  0  0  0  0  0  0  0
  1  2  1  0  0  0  0
  1  5  2  0  0  0  0
  2  6  2  0  0  0  0
  3  8  2  0  0  0  0
  3 15  1  0  0  0  0
  4  9  1  0  0  0  0
  4 15  2  0  0  0  0
  5 17  1  0  0  0  0
  6 19  1  0  0  0  0
  7 10  2  0  0  0  0
  7 18  1  0  0  0  0
  8 21  1  0  0  0  0
  9 21  2  0  0  0  0
 10 22  1  0  0  0  0
 11 12  2  0  0  0  0
 11 23  1  0  0  0  0
 12 24  1  0  0  0  0
 13 20  1  0  0  0  0
 13 22  2  0  0  0  0
 14 24  2  0  0  0  0
 14 25  1  0  0  0  0
 15 26  1  0  0  0  0
 16 26  1  0  0  0  0
 16 27  2  0  0  0  0
 16 28  1  0  0  0  0
 17 19  2  0  0  0  0
 17 33  1  0  0  0  0
 18 20  2  0  0  0  0
 18 34  1  0  0  0  0
 19 42  1  0  0  0  0
 20 35  1  0  0  0  0
 21 77  1  0  0  0  0
 22 78  1  0  0  0  0
 23 25  2  0  0  0  0
 23 77  1  0  0  0  0
 24 79  1  0  0  0  0
 25 80  1  0  0  0  0
 26 61  2  0  0  0  0
 27 62  1  0  0  0  0
 27 65  1  0  0  0  0
 28 66  1  0  0  0  0
 28 72  2  0  0  0  0
 29 43  1  0  0  0  0
 29 67  1  0  0  0  0
 29 73  2  0  0  0  0
 30 56  1  0  0  0  0
 30 63  1  0  0  0  0
 30 74  2  0  0  0  0
 31 57  1  0  0  0  0
 31 68  1  0  0  0  0
 31 75  2  0  0  0  0
 32 64  1  0  0  0  0
 32 69  1  0  0  0  0
 32 76  2  0  0  0  0
 33 36  1  0  0  0  0
 34 43  1  0  0  0  0
 35 63  1  0  0  0  0
 36 38  1  0  0  0  0
 37 39  1  0  0  0  0
 37 40  1  0  0  0  0
 38 42  1  0  0  0  0
 39 44  1  0  0  0  0
 40 64  1  0  0  0  0
 41 44  1  0  0  0  0
 41 64  1  0  0  0  0
 42 67  1  0  0  0  0
 43 63  1  0  0  0  0
 44 62  1  0  0  0  0
 45 57  1  0  0  0  0
 46 58  1  0  0  0  0
 47 60  1  0  0  0  0
 48 60  1  0  0  0  0
 49 60  1  0  0  0  0
 50 70  1  0  0  0  0
 51 53  1  0  0  0  0
 51 59  1  0  0  0  0
 52 54  1  0  0  0  0
 52 58  1  0  0  0  0
 53 69  1  0  0  0  0
 54 71  1  0  0  0  0
 55 59  1  0  0  0  0
 55 71  1  0  0  0  0
 56 60  1  0  0  0  0
 56 68  1  0  0  0  0
 57 70  1  0  0  0  0
 58 78  1  0  0  0  0
 59 81  1  0  0  0  0
 61 62  1  0  0  0  0
M  CHG  2  70   1  71   1
M  ISO  4  32 100  58 101  69 100  78 101
M  END
> <Batch ID>
0101

> <Smiles>
CNC(C)C(=O)NC(C(=O)N1Cc2cc([101O:1][101CH:1](C)CCNCC(F)CC[100NH:0][100C:0](=O)N3CCCC(n4nc(-c5ccc(Oc6ccc(F)cc6F)cc5)c(C(N)=O)c4N)C3)ccc2CC1C(=O)NC1CCCc2ccccc21)C(C)(C)C

> <Shape>
0.207

> <Color>
0.054

> <Negative vol penalty>
0.000

$$$$

  -OEChem-04052319363D

 90 97  0     1  0  0  0  0  0999 V2000
  -20.9629  -16.9784   22.3393 C   0  0  0  0  0  0  0  0  0  0  0  0
  -22.1882  -17.6361   22.3027 C   0  0  0  0  0  0  0  0  0  0  0  0
  -19.8702  -23.4527   23.2543 C   0  0  0  0  0  0  0  0  0  0  0  0
  -21.1010  -25.1122   22.0020 C   0  0  0  0  0  0  0  0  0  0  0  0
  -20.9130  -15.5918   22.2024 C   0  0  0  0  0  0  0  0  0  0  0  0
  -23.3645  -16.9075   22.1304 C   0  0  0  0  0  0  0  0  0  0  0  0
  -26.4925  -19.0356   18.7641 C   0  0  0  0  0  0  0  0  0  0  0  0
  -18.7630  -24.3002   23.2892 C   0  0  0  0  0  0  0  0  0  0  0  0
  -19.9937  -25.9597   22.0368 C   0  0  0  0  0  0  0  0  0  0  0  0
  -27.2418  -20.1298   19.1942 C   0  0  0  0  0  0  0  0  0  0  0  0
  -18.5328  -28.0602   24.2470 C   0  0  0  0  0  0  0  0  0  0  0  0
  -18.7531  -29.4017   24.5587 C   0  0  0  0  0  0  0  0  0  0  0  0
  -29.1528  -18.6909   19.5060 C   0  0  0  0  0  0  0  0  0  0  0  0
  -17.8341  -30.0496   22.4203 C   0  0  0  0  0  0  0  0  0  0  0  0
  -21.0393  -23.8587   22.6107 C   0  0  0  0  0  0  0  0  0  0  0  0
  -22.4863  -22.0199   21.5945 C   0  0  0  0  0  0  0  0  0  0  0  0
  -22.0885  -14.8467   22.0186 C   0  0  0  0  0  0  0  0  0  0  0  0
  -27.0655  -17.7568   18.7119 C   0  0  0  0  0  0  0  0  0  0  0  0
  -23.3305  -15.5094   21.9923 C   0  0  0  0  0  0  0  0  0  0  0  0
  -28.4093  -17.5826   19.0723 C   0  0  0  0  0  0  0  0  0  0  0  0
  -18.8247  -25.5537   22.6805 C   0  0  0  0  0  0  0  0  0  0  0  0
  -28.5713  -19.9571   19.5680 C   0  0  0  0  0  0  0  0  0  0  0  0
  -17.9632  -27.7132   23.0219 C   0  0  0  0  0  0  0  0  0  0  0  0
  -18.4038  -30.3964   23.6454 C   0  0  0  0  0  0  0  0  0  0  0  0
  -17.6138  -28.7080   22.1086 C   0  0  0  0  0  0  0  0  0  0  0  0
  -22.1836  -22.9839   22.5748 C   0  0  0  0  0  0  0  0  0  0  0  0
  -23.6686  -21.4618   22.0153 C   0  0  0  0  0  0  0  0  0  0  0  0
  -21.7634  -21.6611   20.4094 C   0  0  0  0  0  0  0  0  0  0  0  0
  -26.4856  -14.9789   20.1439 C   0  0  0  0  0  0  0  0  0  0  0  0
  -28.7711  -13.8983   18.1114 C   0  0  0  0  0  0  0  0  0  0  0  0
  -31.4869  -14.6010   16.1678 C   0  0  0  0  0  0  0  0  0  0  0  0
  -28.1196  -23.4694   25.4807 C   0  0  0  0  0  0  0  0  0  0  0  0
  -21.9885  -13.3449   21.9226 C   0  0  0  0  0  0  0  0  0  0  0  0
  -26.2515  -16.5914   18.2202 C   0  0  0  0  0  0  0  0  0  0  0  0
  -29.0773  -16.2339   19.0150 C   0  0  0  0  0  0  0  0  0  0  0  0
  -23.2484  -12.6848   21.3684 C   0  0  0  0  0  0  0  0  0  0  0  0
  -26.1671  -20.5359   25.9891 C   0  0  0  0  0  0  0  0  0  0  0  0
  -24.4911  -13.2521   22.0471 C   0  0  0  0  0  0  0  0  0  0  0  0
  -24.9521  -20.7436   25.0833 C   0  0  0  0  0  0  0  0  0  0  0  0
  -26.6328  -21.8471   26.6182 C   0  0  0  0  0  0  0  0  0  0  0  0
  -25.6782  -23.1441   24.7526 C   0  0  0  0  0  0  0  0  0  0  0  0
  -24.6262  -14.7564   21.7822 C   0  0  1  0  0  0  0  0  0  0  0  0
  -26.7876  -15.2449   18.6963 C   0  0  1  0  0  0  0  0  0  0  0  0
  -25.2062  -21.8589   24.0513 C   0  0  2  0  0  0  0  0  0  0  0  0
  -33.1635  -13.5057   14.6556 C   0  0  0  0  0  0  0  0  0  0  0  0
  -31.2795  -22.6215   18.5100 C   0  0  0  0  0  0  0  0  0  0  0  0
  -25.2810  -27.2669   21.9979 C   0  0  0  0  0  0  0  0  0  0  0  0
  -30.2236  -12.7675   20.5448 C   0  0  0  0  0  0  0  0  0  0  0  0
  -32.2774  -12.5479   19.1298 C   0  0  0  0  0  0  0  0  0  0  0  0
  -30.2181  -11.2681   18.5432 C   0  0  0  0  0  0  0  0  0  0  0  0
  -30.8279  -23.0200   23.7567 C   0  0  0  0  0  0  0  0  0  0  0  0
  -31.7599  -25.2420   23.1414 C   0  0  0  0  0  0  0  0  0  0  0  0
  -25.8969  -31.7885   22.0247 C   0  0  0  0  0  0  0  0  0  0  0  0
  -24.0340  -30.0992   22.2086 C   0  0  0  0  0  0  0  0  0  0  0  0
  -25.9698  -30.0219   23.8224 C   0  0  0  0  0  0  0  0  0  0  0  0
  -30.6387  -16.2361   13.8513 C   0  0  0  0  0  0  0  0  0  0  0  0
  -30.7769  -23.5951   20.7663 C   0  0  0  0  0  0  0  0  0  0  0  0
  -29.2637  -25.6353   21.1669 C   0  0  0  0  0  0  0  0  0  0  0  0
  -27.7318  -27.4780   21.3027 C   0  0  0  0  0  0  0  0  0  0  0  0
  -29.4885  -25.1222   24.2343 C   0  0  0  0  0  0  0  0  0  0  0  0
  -28.9686  -22.2988   19.4489 C   0  0  0  0  0  0  0  0  0  1  0  0
  -30.2741  -13.7673   18.1649 C   0  0  1  0  0  0  0  0  0  0  0  0
  -31.8259  -14.2248   14.7367 C   0  0  2  0  0  0  0  0  0  0  0  0
  -30.1795  -23.2405   19.3836 C   0  0  2  0  0  0  0  0  0  0  0  0
  -29.8255  -24.3170   21.7653 C   0  0  2  0  0  0  0  0  0  0  0  0
  -26.5534  -28.1019   22.0487 C   0  0  1  0  0  0  0  0  0  0  0  0
  -30.7354  -12.6129   19.0987 C   0  0  0  0  0  0  0  0  0  0  0  0
  -30.4437  -24.4216   23.2301 C   0  0  0  0  0  0  0  0  0  0  0  0
  -25.5289  -30.3531   22.3974 C   0  0  0  0  0  0  0  0  0  0  0  0
  -23.0997  -23.0376   23.5453 N   0  0  0  0  0  0  0  0  0  0  0  0
  -23.9896  -22.1003   23.1770 N   0  0  0  0  0  0  0  0  0  0  0  0
  -28.2379  -15.1244   18.5335 N   0  0  0  0  0  0  0  0  0  0  0  0
  -26.8575  -22.8621   25.5860 N   0  0  0  0  0  0  0  0  0  0  0  0
  -24.4546  -20.4920   21.5013 N   0  0  0  0  0  0  0  0  0  0  0  0
  -20.5669  -22.3343   20.1271 N   0  0  0  0  0  0  0  0  0  0  0  0
  -25.1379  -14.9909   20.4489 N   0  0  0  0  0  0  0  0  0  0  0  0
  -30.7216  -13.6329   16.7828 N   0  0  0  0  0  0  0  0  0  0  0  0
  -28.2493  -24.4160   24.4717 N   0  0  0  0  0  0  0  0  0  0  0  0
  -28.1097  -26.1875   21.8629 N   0  0  0  0  0  0  0  0  0  0  0  0
  -31.8953  -15.4443   13.8830 N   0  3  0  0  0  0  0  0  0  0  0  0
  -26.2609  -29.4457   21.4761 N   0  3  0  0  0  0  0  0  0  0  0  0
  -22.1580  -20.7585   19.6328 O   0  0  0  0  0  0  0  0  0  0  0  0
  -27.4070  -14.7762   20.9260 O   0  0  0  0  0  0  0  0  0  0  0  0
  -28.0956  -12.9504   17.7031 O   0  0  0  0  0  0  0  0  0  0  0  0
  -31.8664  -15.6472   16.6892 O   0  0  0  0  0  0  0  0  0  0  0  0
  -29.0627  -23.1851   26.2269 O   0  0  0  0  0  0  0  0  0  0  0  0
  -17.7443  -26.3809   22.7142 O   0  0  0  0  0  0  0  0  0  0  0  0
  -29.3102  -21.0311   19.9920 O   0  0  0  0  0  0  0  0  0  1  0  0
  -18.6140  -31.6848   23.9456 F   0  0  0  0  0  0  0  0  0  0  0  0
  -17.0651  -28.3809   20.9305 F   0  0  0  0  0  0  0  0  0  0  0  0
  1  2  1  0  0  0  0
  1  5  2  0  0  0  0
  2  6  2  0  0  0  0
  3  8  2  0  0  0  0
  3 15  1  0  0  0  0
  4  9  1  0  0  0  0
  4 15  2  0  0  0  0
  5 17  1  0  0  0  0
  6 19  1  0  0  0  0
  7 10  2  0  0  0  0
  7 18  1  0  0  0  0
  8 21  1  0  0  0  0
  9 21  2  0  0  0  0
 10 22  1  0  0  0  0
 11 12  2  0  0  0  0
 11 23  1  0  0  0  0
 12 24  1  0  0  0  0
 13 20  1  0  0  0  0
 13 22  2  0  0  0  0
 14 24  2  0  0  0  0
 14 25  1  0  0  0  0
 15 26  1  0  0  0  0
 16 26  1  0  0  0  0
 16 27  2  0  0  0  0
 16 28  1  0  0  0  0
 17 19  2  0  0  0  0
 17 33  1  0  0  0  0
 18 20  2  0  0  0  0
 18 34  1  0  0  0  0
 19 42  1  0  0  0  0
 20 35  1  0  0  0  0
 21 87  1  0  0  0  0
 22 88  1  0  0  0  0
 23 25  2  0  0  0  0
 23 87  1  0  0  0  0
 24 89  1  0  0  0  0
 25 90  1  0  0  0  0
 26 70  2  0  0  0  0
 27 71  1  0  0  0  0
 27 74  1  0  0  0  0
 28 75  1  0  0  0  0
 28 82  2  0  0  0  0
 29 43  1  0  0  0  0
 29 76  1  0  0  0  0
 29 83  2  0  0  0  0
 30 62  1  0  0  0  0
 30 72  1  0  0  0  0
 30 84  2  0  0  0  0
 31 63  1  0  0  0  0
 31 77  1  0  0  0  0
 31 85  2  0  0  0  0
 32 73  1  0  0  0  0
 32 78  1  0  0  0  0
 32 86  2  0  0  0  0
 33 36  1  0  0  0  0
 34 43  1  0  0  0  0
 35 72  1  0  0  0  0
 36 38  1  0  0  0  0
 37 39  1  0  0  0  0
 37 40  1  0  0  0  0
 38 42  1  0  0  0  0
 39 44  1  0  0  0  0
 40 73  1  0  0  0  0
 41 44  1  0  0  0  0
 41 73  1  0  0  0  0
 42 76  1  0  0  0  0
 43 72  1  0  0  0  0
 44 71  1  0  0  0  0
 45 63  1  0  0  0  0
 46 64  1  0  0  0  0
 47 66  1  0  0  0  0
 48 67  1  0  0  0  0
 49 67  1  0  0  0  0
 50 67  1  0  0  0  0
 51 68  1  0  0  0  0
 52 68  1  0  0  0  0
 53 69  1  0  0  0  0
 54 69  1  0  0  0  0
 55 69  1  0  0  0  0
 56 80  1  0  0  0  0
 57 64  1  0  0  0  0
 57 65  1  0  0  0  0
 58 65  1  0  0  0  0
 58 79  1  0  0  0  0
 59 66  1  0  0  0  0
 59 79  1  0  0  0  0
 60 68  1  0  0  0  0
 60 78  1  0  0  0  0
 61 64  1  0  0  0  0
 61 88  1  0  0  0  0
 62 67  1  0  0  0  0
 62 77  1  0  0  0  0
 63 80  1  0  0  0  0
 65 68  1  0  0  0  0
 66 81  1  0  0  0  0
 69 81  1  0  0  0  0
 70 71  1  0  0  0  0
M  CHG  2  80   1  81   1
M  ISO  4  32 100  61 101  78 100  88 101
M  END
> <Batch ID>
0101

> <Smiles>
CNC(C)C(=O)NC(C(=O)N1Cc2cc([101O:1][101CH2:1]C(C)CC(CNCC(C)NC(C)(C)C)C(C)(C)C[100NH:0][100C:0](=O)N3CCCC(n4nc(-c5ccc(Oc6ccc(F)cc6F)cc5)c(C(N)=O)c4N)C3)ccc2CC1C(=O)NC1CCCc2ccccc21)C(C)(C)C

> <Shape>
0.212

> <Color>
0.041

> <Negative vol penalty>
0.000

$$$$
