
  -OEChem-04052319383D

 75 82  0     1  0  0  0  0  0999 V2000
  -16.8744  -27.0380   20.8115 C   0  0  0  0  0  0  0  0  0  0  0  0
  -18.1289  -27.0378   20.2100 C   0  0  0  0  0  0  0  0  0  0  0  0
  -25.6535  -15.9242   21.7397 C   0  0  0  0  0  0  0  0  0  0  0  0
  -25.0784  -16.6956   19.5236 C   0  0  0  0  0  0  0  0  0  0  0  0
  -16.6682  -27.7528   21.9907 C   0  0  0  0  0  0  0  0  0  0  0  0
  -19.1776  -27.7533   20.7868 C   0  0  0  0  0  0  0  0  0  0  0  0
  -23.4994  -25.1161   20.8973 C   0  0  0  0  0  0  0  0  0  0  0  0
  -24.3938  -15.3380   21.8626 C   0  0  0  0  0  0  0  0  0  0  0  0
  -23.8187  -16.1092   19.6464 C   0  0  0  0  0  0  0  0  0  0  0  0
  -24.2225  -25.0286   19.7085 C   0  0  0  0  0  0  0  0  0  0  0  0
  -21.4600  -13.3287   22.6182 C   0  0  0  0  0  0  0  0  0  0  0  0
  -21.3942  -12.0363   23.1386 C   0  0  0  0  0  0  0  0  0  0  0  0
  -25.6981  -26.7719   20.4848 C   0  0  0  0  0  0  0  0  0  0  0  0
  -22.7729  -11.2352   21.3235 C   0  0  0  0  0  0  0  0  0  0  0  0
  -25.9958  -16.6031   20.5702 C   0  0  0  0  0  0  0  0  0  0  0  0
  -28.4657  -16.6142   19.9322 C   0  0  0  0  0  0  0  0  0  0  0  0
  -17.7174  -28.4696   22.5874 C   0  0  0  0  0  0  0  0  0  0  0  0
  -23.8642  -26.0412   21.8859 C   0  0  0  0  0  0  0  0  0  0  0  0
  -18.9848  -28.4794   21.9743 C   0  0  0  0  0  0  0  0  0  0  0  0
  -24.9795  -26.8673   21.6864 C   0  0  0  0  0  0  0  0  0  0  0  0
  -23.4764  -15.4304   20.8159 C   0  0  0  0  0  0  0  0  0  0  0  0
  -25.3203  -25.8586   19.5009 C   0  0  0  0  0  0  0  0  0  0  0  0
  -22.1822  -13.5744   21.4503 C   0  0  0  0  0  0  0  0  0  0  0  0
  -22.0506  -10.9895   22.4913 C   0  0  0  0  0  0  0  0  0  0  0  0
  -22.8386  -12.5277   20.8030 C   0  0  0  0  0  0  0  0  0  0  0  0
  -27.2966  -17.2094   20.4430 C   0  0  0  0  0  0  0  0  0  0  0  0
  -29.4204  -17.5971   20.0257 C   0  0  0  0  0  0  0  0  0  0  0  0
  -28.6702  -15.2911   19.4192 C   0  0  0  0  0  0  0  0  0  0  0  0
  -22.4529  -28.5428   23.2475 C   0  0  0  0  0  0  0  0  0  0  0  0
  -25.0861  -28.5041   25.1415 C   0  0  0  0  0  0  0  0  0  0  0  0
  -28.3551  -27.6088   25.5404 C   0  0  0  0  0  0  0  0  0  0  0  0
  -29.1175  -23.5753   20.1680 C   0  0  0  0  0  0  0  0  0  0  0  0
  -17.4342  -29.2658   23.8366 C   0  0  0  0  0  0  0  0  0  0  0  0
  -23.0900  -26.1046   23.1739 C   0  0  0  0  0  0  0  0  0  0  0  0
  -25.4247  -27.8632   22.7249 C   0  0  0  0  0  0  0  0  0  0  0  0
  -18.6940  -29.6926   24.5855 C   0  0  0  0  0  0  0  0  0  0  0  0
  -30.5897  -21.4475   22.6137 C   0  0  0  0  0  0  0  0  0  0  0  0
  -19.7211  -30.2700   23.6167 C   0  0  0  0  0  0  0  0  0  0  0  0
  -30.0182  -20.0664   22.2887 C   0  0  0  0  0  0  0  0  0  0  0  0
  -29.5622  -22.5528   22.3800 C   0  0  0  0  0  0  0  0  0  0  0  0
  -28.3803  -21.1760   20.7123 C   0  0  0  0  0  0  0  0  0  0  0  0
  -20.1538  -29.2232   22.5830 C   0  0  1  0  0  0  0  0  0  0  0  0
  -23.2405  -27.4398   23.8964 C   0  0  1  0  0  0  0  0  0  0  0  0
  -29.3974  -20.0340   20.8791 C   0  0  2  0  0  0  0  0  0  0  0  0
  -30.2491  -27.7464   27.1809 C   0  0  0  0  0  0  0  0  0  0  0  0
  -29.9168  -24.3775   17.1147 C   0  0  0  0  0  0  0  0  0  0  0  0
  -25.4953  -31.4402   24.4191 C   0  0  0  0  0  0  0  0  0  0  0  0
  -27.8394  -31.2528   25.2783 C   0  0  0  0  0  0  0  0  0  0  0  0
  -25.9142  -30.8890   26.8222 C   0  0  0  0  0  0  0  0  0  0  0  0
  -28.5476  -24.6624   25.7422 C   0  0  0  0  0  0  0  0  0  0  0  0
  -27.4039  -24.3707   16.9650 C   0  0  0  0  0  0  0  0  0  0  0  0
  -26.0726  -24.5029   17.6975 C   0  0  0  0  0  0  0  0  0  1  0  0
  -26.4554  -29.1369   25.0817 C   0  0  1  0  0  0  0  0  0  0  0  0
  -29.0775  -26.9154   26.6814 C   0  0  2  0  0  0  0  0  0  0  0  0
  -28.6128  -24.4555   17.9031 C   0  0  1  0  0  0  0  0  0  0  0  0
  -26.4168  -30.6624   25.3798 C   0  0  0  0  0  0  0  0  0  0  0  0
  -27.4889  -18.4726   20.8322 N   0  0  0  0  0  0  0  0  0  0  0  0
  -28.7899  -18.6791   20.5660 N   0  0  0  0  0  0  0  0  0  0  0  0
  -24.6316  -27.8918   23.9649 N   0  0  0  0  0  0  0  0  0  0  0  0
  -29.0132  -22.4670   21.0246 N   0  0  0  0  0  0  0  0  0  0  0  0
  -30.7295  -17.6328   19.6977 N   0  0  0  0  0  0  0  0  0  0  0  0
  -27.5820  -14.4082   19.3951 N   0  0  0  0  0  0  0  0  0  0  0  0
  -21.0960  -28.2939   23.1686 N   0  0  0  0  0  0  0  0  0  0  0  0
  -27.2991  -28.3713   25.9929 N   0  0  0  0  0  0  0  0  0  0  0  0
  -28.5769  -23.4077   18.8990 N   0  0  0  0  0  0  0  0  0  0  0  0
  -29.5964  -25.5909   26.2370 N   0  3  0  0  0  0  0  0  0  0  0  0
  -29.7889  -14.8980   19.0099 O   0  0  0  0  0  0  0  0  0  0  0  0
  -23.0332  -29.5460   22.8494 O   0  0  0  0  0  0  0  0  0  0  0  0
  -24.4465  -28.5451   26.1954 O   0  0  0  0  0  0  0  0  0  0  0  0
  -28.6959  -27.4892   24.3657 O   0  0  0  0  0  0  0  0  0  0  0  0
  -29.6575  -24.6338   20.5071 O   0  0  0  0  0  0  0  0  0  0  0  0
  -22.2472  -14.8583   20.9354 O   0  0  0  0  0  0  0  0  0  0  0  0
  -26.0274  -25.7757   18.3412 O   0  0  0  0  0  0  0  0  0  1  0  0
  -21.9886   -9.7487   22.9920 F   0  0  0  0  0  0  0  0  0  0  0  0
  -23.5350  -12.7578   19.6814 F   0  0  0  0  0  0  0  0  0  0  0  0
  1  2  1  0  0  0  0
  1  5  2  0  0  0  0
  2  6  2  0  0  0  0
  3  8  2  0  0  0  0
  3 15  1  0  0  0  0
  4  9  1  0  0  0  0
  4 15  2  0  0  0  0
  5 17  1  0  0  0  0
  6 19  1  0  0  0  0
  7 10  2  0  0  0  0
  7 18  1  0  0  0  0
  8 21  1  0  0  0  0
  9 21  2  0  0  0  0
 10 22  1  0  0  0  0
 11 12  2  0  0  0  0
 11 23  1  0  0  0  0
 12 24  1  0  0  0  0
 13 20  1  0  0  0  0
 13 22  2  0  0  0  0
 14 24  2  0  0  0  0
 14 25  1  0  0  0  0
 15 26  1  0  0  0  0
 16 26  1  0  0  0  0
 16 27  2  0  0  0  0
 16 28  1  0  0  0  0
 17 19  2  0  0  0  0
 17 33  1  0  0  0  0
 18 20  2  0  0  0  0
 18 34  1  0  0  0  0
 19 42  1  0  0  0  0
 20 35  1  0  0  0  0
 21 72  1  0  0  0  0
 22 73  1  0  0  0  0
 23 25  2  0  0  0  0
 23 72  1  0  0  0  0
 24 74  1  0  0  0  0
 25 75  1  0  0  0  0
 26 57  2  0  0  0  0
 27 58  1  0  0  0  0
 27 61  1  0  0  0  0
 28 62  1  0  0  0  0
 28 67  2  0  0  0  0
 29 43  1  0  0  0  0
 29 63  1  0  0  0  0
 29 68  2  0  0  0  0
 30 53  1  0  0  0  0
 30 59  1  0  0  0  0
 30 69  2  0  0  0  0
 31 54  1  0  0  0  0
 31 64  1  0  0  0  0
 31 70  2  0  0  0  0
 32 60  1  0  0  0  0
 32 65  1  0  0  0  0
 32 71  2  0  0  0  0
 33 36  1  0  0  0  0
 34 43  1  0  0  0  0
 35 59  1  0  0  0  0
 36 38  1  0  0  0  0
 37 39  1  0  0  0  0
 37 40  1  0  0  0  0
 38 42  1  0  0  0  0
 39 44  1  0  0  0  0
 40 60  1  0  0  0  0
 41 44  1  0  0  0  0
 41 60  1  0  0  0  0
 42 63  1  0  0  0  0
 43 59  1  0  0  0  0
 44 58  1  0  0  0  0
 45 54  1  0  0  0  0
 46 55  1  0  0  0  0
 47 56  1  0  0  0  0
 48 56  1  0  0  0  0
 49 56  1  0  0  0  0
 50 66  1  0  0  0  0
 51 52  1  0  0  0  0
 51 55  1  0  0  0  0
 52 73  1  0  0  0  0
 53 56  1  0  0  0  0
 53 64  1  0  0  0  0
 54 66  1  0  0  0  0
 55 65  1  0  0  0  0
 57 58  1  0  0  0  0
M  CHG  1  66   1
M  ISO  4  32 100  52 101  65 100  73 101
M  END
> <Batch ID>
0102

> <Smiles>
CNC(C)C(=O)NC(C(=O)N1Cc2cc([101O:1][101CH2:1]CC(C)[100NH:0][100C:0](=O)N3CCCC(n4nc(-c5ccc(Oc6ccc(F)cc6F)cc5)c(C(N)=O)c4N)C3)ccc2CC1C(=O)NC1CCCc2ccccc21)C(C)(C)C

> <Shape>
0.243

> <Color>
0.072

> <Negative vol penalty>
0.000

$$$$

  -OEChem-04052319383D

 77 84  0     1  0  0  0  0  0999 V2000
  -26.4568  -35.6812   21.6216 C   0  0  0  0  0  0  0  0  0  0  0  0
  -26.9056  -34.3671   21.7064 C   0  0  0  0  0  0  0  0  0  0  0  0
  -26.7724  -12.6094   21.6815 C   0  0  0  0  0  0  0  0  0  0  0  0
  -26.1100  -13.9933   19.8152 C   0  0  0  0  0  0  0  0  0  0  0  0
  -25.1458  -35.9932   21.9788 C   0  0  0  0  0  0  0  0  0  0  0  0
  -26.0439  -33.3644   22.1497 C   0  0  0  0  0  0  0  0  0  0  0  0
  -26.2905  -29.1888   19.2952 C   0  0  0  0  0  0  0  0  0  0  0  0
  -25.4848  -12.0767   21.7435 C   0  0  0  0  0  0  0  0  0  0  0  0
  -24.8223  -13.4605   19.8772 C   0  0  0  0  0  0  0  0  0  0  0  0
  -27.3754  -28.3383   19.5034 C   0  0  0  0  0  0  0  0  0  0  0  0
  -23.6670   -9.7557   20.0877 C   0  0  0  0  0  0  0  0  0  0  0  0
  -23.5435   -8.3743   20.2358 C   0  0  0  0  0  0  0  0  0  0  0  0
  -25.9797  -26.8950   20.8406 C   0  0  0  0  0  0  0  0  0  0  0  0
  -22.3470   -8.7034   22.3087 C   0  0  0  0  0  0  0  0  0  0  0  0
  -27.0850  -13.5678   20.7174 C   0  0  0  0  0  0  0  0  0  0  0  0
  -29.5022  -13.6303   19.9046 C   0  0  0  0  0  0  0  0  0  0  0  0
  -24.2646  -34.9923   22.4175 C   0  0  0  0  0  0  0  0  0  0  0  0
  -25.0426  -28.9039   19.8681 C   0  0  0  0  0  0  0  0  0  0  0  0
  -24.7202  -33.6636   22.5144 C   0  0  0  0  0  0  0  0  0  0  0  0
  -24.8799  -27.7421   20.6360 C   0  0  0  0  0  0  0  0  0  0  0  0
  -24.5098  -12.5022   20.8413 C   0  0  0  0  0  0  0  0  0  0  0  0
  -27.2209  -27.1927   20.2786 C   0  0  0  0  0  0  0  0  0  0  0  0
  -23.1306  -10.6111   21.0502 C   0  0  0  0  0  0  0  0  0  0  0  0
  -22.8835   -7.8481   21.3462 C   0  0  0  0  0  0  0  0  0  0  0  0
  -22.4705  -10.0849   22.1607 C   0  0  0  0  0  0  0  0  0  0  0  0
  -28.4147  -14.1189   20.6532 C   0  0  0  0  0  0  0  0  0  0  0  0
  -30.5289  -14.4991   20.1833 C   0  0  0  0  0  0  0  0  0  0  0  0
  -29.5776  -12.4929   19.0350 C   0  0  0  0  0  0  0  0  0  0  0  0
  -23.1507  -30.3641   21.9638 C   0  0  0  0  0  0  0  0  0  0  0  0
  -21.1031  -27.9684   21.1957 C   0  0  0  0  0  0  0  0  0  0  0  0
  -20.6664  -24.8036   19.9957 C   0  0  0  0  0  0  0  0  0  0  0  0
  -30.6641  -20.2106   21.9754 C   0  0  0  0  0  0  0  0  0  0  0  0
  -22.8706  -35.3856   22.8377 C   0  0  0  0  0  0  0  0  0  0  0  0
  -23.8754  -29.8174   19.6119 C   0  0  0  0  0  0  0  0  0  0  0  0
  -23.5559  -27.3806   21.2564 C   0  0  0  0  0  0  0  0  0  0  0  0
  -21.9094  -34.2042   22.9408 C   0  0  0  0  0  0  0  0  0  0  0  0
  -32.1375  -17.4161   23.6176 C   0  0  0  0  0  0  0  0  0  0  0  0
  -22.5597  -33.0514   23.6991 C   0  0  0  0  0  0  0  0  0  0  0  0
  -31.4486  -16.2102   22.9765 C   0  0  0  0  0  0  0  0  0  0  0  0
  -31.1785  -18.5934   23.7800 C   0  0  0  0  0  0  0  0  0  0  0  0
  -29.7945  -17.7950   21.9036 C   0  0  0  0  0  0  0  0  0  0  0  0
  -23.8080  -32.5441   22.9670 C   0  0  1  0  0  0  0  0  0  0  0  0
  -22.7811  -29.6992   20.6681 C   0  0  1  0  0  0  0  0  0  0  0  0
  -30.7360  -16.6015   21.6680 C   0  0  2  0  0  0  0  0  0  0  0  0
  -18.8805  -23.1058   19.5209 C   0  0  0  0  0  0  0  0  0  0  0  0
  -29.4090  -24.3609   18.7124 C   0  0  0  0  0  0  0  0  0  0  0  0
  -20.8860  -27.3662   24.1790 C   0  0  0  0  0  0  0  0  0  0  0  0
  -19.8943  -25.1448   23.5875 C   0  0  0  0  0  0  0  0  0  0  0  0
  -18.7224  -27.2466   22.9305 C   0  0  0  0  0  0  0  0  0  0  0  0
  -21.3224  -24.7494   17.1102 C   0  0  0  0  0  0  0  0  0  0  0  0
  -30.0763  -21.7088   20.0863 C   0  0  0  0  0  0  0  0  0  0  0  0
  -27.9888  -24.9770   20.6747 C   0  0  0  0  0  0  0  0  0  1  0  0
  -20.8394  -26.5779   21.7209 C   0  0  1  0  0  0  0  0  0  0  0  0
  -19.7148  -24.2438   18.9538 C   0  0  2  0  0  0  0  0  0  0  0  0
  -29.1598  -24.0989   20.2013 C   0  0  1  0  0  0  0  0  0  0  0  0
  -28.9117  -22.6033   20.5151 C   0  0  1  0  0  0  0  0  0  0  0  0
  -20.1111  -26.5914   23.0945 C   0  0  0  0  0  0  0  0  0  0  0  0
  -28.7219  -15.2132   21.3549 N   0  0  0  0  0  0  0  0  0  0  0  0
  -30.0141  -15.4192   21.0485 N   0  0  0  0  0  0  0  0  0  0  0  0
  -22.4464  -28.3086   20.9821 N   0  0  0  0  0  0  0  0  0  0  0  0
  -30.5371  -18.9149   22.5029 N   0  0  0  0  0  0  0  0  0  0  0  0
  -31.8128  -14.5580   19.7704 N   0  0  0  0  0  0  0  0  0  0  0  0
  -28.4299  -11.7076   18.8610 N   0  0  0  0  0  0  0  0  0  0  0  0
  -23.4322  -31.7117   21.8444 N   0  0  0  0  0  0  0  0  0  0  0  0
  -20.1155  -25.8742   20.6677 N   0  0  0  0  0  0  0  0  0  0  0  0
  -30.0309  -20.4292   20.7580 N   0  0  0  0  0  0  0  0  0  0  0  0
  -20.4760  -23.7290   17.7805 N   0  3  0  0  0  0  0  0  0  0  0  0
  -30.6361  -12.1726   18.4429 O   0  0  0  0  0  0  0  0  0  0  0  0
  -23.1772  -29.7038   22.9958 O   0  0  0  0  0  0  0  0  0  0  0  0
  -20.1518  -28.7224   20.9761 O   0  0  0  0  0  0  0  0  0  0  0  0
  -21.7850  -24.3355   20.1961 O   0  0  0  0  0  0  0  0  0  0  0  0
  -31.2994  -21.1047   22.5445 O   0  0  0  0  0  0  0  0  0  0  0  0
  -27.7250  -22.1716   19.8489 O   0  0  0  0  0  0  0  0  0  0  0  0
  -23.2533  -11.9824   20.9014 O   0  0  0  0  0  0  0  0  0  0  0  0
  -28.2784  -26.3613   20.4839 O   0  0  0  0  0  0  0  0  0  1  0  0
  -22.7636   -6.5215   21.4875 F   0  0  0  0  0  0  0  0  0  0  0  0
  -21.9521  -10.9016   23.0880 F   0  0  0  0  0  0  0  0  0  0  0  0
  1  2  1  0  0  0  0
  1  5  2  0  0  0  0
  2  6  2  0  0  0  0
  3  8  2  0  0  0  0
  3 15  1  0  0  0  0
  4  9  1  0  0  0  0
  4 15  2  0  0  0  0
  5 17  1  0  0  0  0
  6 19  1  0  0  0  0
  7 10  2  0  0  0  0
  7 18  1  0  0  0  0
  8 21  1  0  0  0  0
  9 21  2  0  0  0  0
 10 22  1  0  0  0  0
 11 12  2  0  0  0  0
 11 23  1  0  0  0  0
 12 24  1  0  0  0  0
 13 20  1  0  0  0  0
 13 22  2  0  0  0  0
 14 24  2  0  0  0  0
 14 25  1  0  0  0  0
 15 26  1  0  0  0  0
 16 26  1  0  0  0  0
 16 27  2  0  0  0  0
 16 28  1  0  0  0  0
 17 19  2  0  0  0  0
 17 33  1  0  0  0  0
 18 20  2  0  0  0  0
 18 34  1  0  0  0  0
 19 42  1  0  0  0  0
 20 35  1  0  0  0  0
 21 74  1  0  0  0  0
 22 75  1  0  0  0  0
 23 25  2  0  0  0  0
 23 74  1  0  0  0  0
 24 76  1  0  0  0  0
 25 77  1  0  0  0  0
 26 58  2  0  0  0  0
 27 59  1  0  0  0  0
 27 62  1  0  0  0  0
 28 63  1  0  0  0  0
 28 68  2  0  0  0  0
 29 43  1  0  0  0  0
 29 64  1  0  0  0  0
 29 69  2  0  0  0  0
 30 53  1  0  0  0  0
 30 60  1  0  0  0  0
 30 70  2  0  0  0  0
 31 54  1  0  0  0  0
 31 65  1  0  0  0  0
 31 71  2  0  0  0  0
 32 61  1  0  0  0  0
 32 66  1  0  0  0  0
 32 72  2  0  0  0  0
 33 36  1  0  0  0  0
 34 43  1  0  0  0  0
 35 60  1  0  0  0  0
 36 38  1  0  0  0  0
 37 39  1  0  0  0  0
 37 40  1  0  0  0  0
 38 42  1  0  0  0  0
 39 44  1  0  0  0  0
 40 61  1  0  0  0  0
 41 44  1  0  0  0  0
 41 61  1  0  0  0  0
 42 64  1  0  0  0  0
 43 60  1  0  0  0  0
 44 59  1  0  0  0  0
 45 54  1  0  0  0  0
 46 55  1  0  0  0  0
 47 57  1  0  0  0  0
 48 57  1  0  0  0  0
 49 57  1  0  0  0  0
 50 67  1  0  0  0  0
 51 56  1  0  0  0  0
 51 66  1  0  0  0  0
 52 55  1  0  0  0  0
 52 75  1  0  0  0  0
 53 57  1  0  0  0  0
 53 65  1  0  0  0  0
 54 67  1  0  0  0  0
 55 56  1  0  0  0  0
 56 73  1  0  0  0  0
 58 59  1  0  0  0  0
M  CHG  1  67   1
M  ISO  4  32 100  52 101  66 100  75 101
M  END
> <Batch ID>
0102

> <Smiles>
CNC(C)C(=O)NC(C(=O)N1Cc2cc([101O:1][101CH2:1]C(C)C(O)C[100NH:0][100C:0](=O)N3CCCC(n4nc(-c5ccc(Oc6ccc(F)cc6F)cc5)c(C(N)=O)c4N)C3)ccc2CC1C(=O)NC1CCCc2ccccc21)C(C)(C)C

> <Shape>
0.318

> <Color>
0.090

> <Negative vol penalty>
0.000

$$$$

  -OEChem-04052319383D

 85 93  0     1  0  0  0  0  0999 V2000
  -32.4272  -13.1897   20.9145 C   0  0  0  0  0  0  0  0  0  0  0  0
  -31.7772  -14.3545   21.3097 C   0  0  0  0  0  0  0  0  0  0  0  0
  -24.9627  -21.6792   19.2128 C   0  0  0  0  0  0  0  0  0  0  0  0
  -24.6675  -30.2051   20.3825 C   0  0  0  0  0  0  0  0  0  0  0  0
  -24.2855  -28.6762   22.2138 C   0  0  0  0  0  0  0  0  0  0  0  0
  -31.7485  -12.2373   20.1555 C   0  0  0  0  0  0  0  0  0  0  0  0
  -30.4484  -14.5681   20.9451 C   0  0  0  0  0  0  0  0  0  0  0  0
  -26.1400  -17.4163   24.2361 C   0  0  0  0  0  0  0  0  0  0  0  0
  -24.3290  -31.2777   21.2073 C   0  0  0  0  0  0  0  0  0  0  0  0
  -23.9471  -29.7489   23.0387 C   0  0  0  0  0  0  0  0  0  0  0  0
  -25.6381  -18.7165   24.1993 C   0  0  0  0  0  0  0  0  0  0  0  0
  -23.9144  -34.4514   22.9310 C   0  0  0  0  0  0  0  0  0  0  0  0
  -24.7300  -35.5822   22.8918 C   0  0  0  0  0  0  0  0  0  0  0  0
  -23.6829  -21.8717   18.7047 C   0  0  0  0  0  0  0  0  0  0  0  0
  -25.2122  -21.9132   20.5605 C   0  0  0  0  0  0  0  0  0  0  0  0
  -23.8192  -17.9685   22.8025 C   0  0  0  0  0  0  0  0  0  0  0  0
  -26.6160  -34.2465   23.5963 C   0  0  0  0  0  0  0  0  0  0  0  0
  -24.6457  -28.9043   20.8857 C   0  0  0  0  0  0  0  0  0  0  0  0
  -26.2748  -27.2430   19.8398 C   0  0  0  0  0  0  0  0  0  0  0  0
  -30.4077  -12.4348   19.7896 C   0  0  0  0  0  0  0  0  0  0  0  0
  -25.4901  -16.3828   23.5463 C   0  0  0  0  0  0  0  0  0  0  0  0
  -29.7515  -13.6180   20.1793 C   0  0  0  0  0  0  0  0  0  0  0  0
  -24.3134  -16.6555   22.8343 C   0  0  0  0  0  0  0  0  0  0  0  0
  -23.9688  -31.0497   22.5355 C   0  0  0  0  0  0  0  0  0  0  0  0
  -24.4792  -18.9934   23.4801 C   0  0  0  0  0  0  0  0  0  0  0  0
  -24.4496  -33.2181   23.3030 C   0  0  0  0  0  0  0  0  0  0  0  0
  -26.0808  -35.4798   23.2244 C   0  0  0  0  0  0  0  0  0  0  0  0
  -25.8003  -33.1157   23.6356 C   0  0  0  0  0  0  0  0  0  0  0  0
  -24.9947  -27.7958   20.0339 C   0  0  0  0  0  0  0  0  0  0  0  0
  -22.6950  -22.2956   19.5789 C   0  0  0  0  0  0  0  0  0  0  0  0
  -24.1559  -22.3355   21.3516 C   0  0  0  0  0  0  0  0  0  0  0  0
  -26.0750  -26.2201   18.9452 C   0  0  0  0  0  0  0  0  0  0  0  0
  -27.5320  -27.6204   20.4165 C   0  0  0  0  0  0  0  0  0  0  0  0
  -26.2849  -14.4242   21.1722 C   0  0  0  0  0  0  0  0  0  0  0  0
  -23.4152  -13.0711   21.8477 C   0  0  0  0  0  0  0  0  0  0  0  0
  -21.2188  -22.9361   17.6242 C   0  0  0  0  0  0  0  0  0  0  0  0
  -20.2901  -13.4159   23.1749 C   0  0  0  0  0  0  0  0  0  0  0  0
  -29.7300  -11.3986   18.9284 C   0  0  0  0  0  0  0  0  0  0  0  0
  -26.0294  -14.9805   23.6179 C   0  0  0  0  0  0  0  0  0  0  0  0
  -23.5669  -15.5775   22.0933 C   0  0  0  0  0  0  0  0  0  0  0  0
  -28.2093  -11.5292   18.9012 C   0  0  0  0  0  0  0  0  0  0  0  0
  -23.2153  -24.8719   15.3643 C   0  0  0  0  0  0  0  0  0  0  0  0
  -27.8022  -12.9828   18.6818 C   0  0  0  0  0  0  0  0  0  0  0  0
  -23.9931  -25.8103   16.2861 C   0  0  0  0  0  0  0  0  0  0  0  0
  -21.8112  -24.6034   15.8968 C   0  0  0  0  0  0  0  0  0  0  0  0
  -22.5593  -25.0148   18.2191 C   0  0  0  0  0  0  0  0  0  0  0  0
  -28.3029  -13.8745   19.8245 C   0  0  1  0  0  0  0  0  0  0  0  0
  -25.5721  -14.1044   22.4557 C   0  0  1  0  0  0  0  0  0  0  0  0
  -23.9939  -25.2879   17.7337 C   0  0  2  0  0  0  0  0  0  0  0  0
  -19.0978  -23.8809   19.3300 C   0  0  0  0  0  0  0  0  0  0  0  0
  -20.2804  -20.6882   20.6239 C   0  0  0  0  0  0  0  0  0  0  0  0
  -18.1572  -12.1474   23.5474 C   0  0  0  0  0  0  0  0  0  0  0  0
  -23.1267  -23.0693   23.6058 C   0  0  0  0  0  0  0  0  0  0  0  0
  -25.4454  -23.7282   23.0000 C   0  0  0  0  0  0  0  0  0  0  0  0
  -22.7051  -13.4041   18.8990 C   0  0  0  0  0  0  0  0  0  0  0  0
  -20.3058  -13.0259   19.5059 C   0  0  0  0  0  0  0  0  0  0  0  0
  -21.9896  -11.2292   19.9052 C   0  0  0  0  0  0  0  0  0  0  0  0
  -20.4982  -13.7002   26.1134 C   0  0  0  0  0  0  0  0  0  0  0  0
  -20.5196  -23.6421   19.8362 C   0  0  0  0  0  0  0  0  0  0  0  0
  -20.4394  -21.2064   19.1954 C   0  0  0  0  0  0  0  0  0  0  0  0
  -24.9309  -21.3274   23.5460 C   0  0  0  0  0  0  0  0  0  1  0  0
  -21.9961  -13.2837   21.3787 C   0  0  1  0  0  0  0  0  0  0  0  0
  -19.5021  -12.5442   24.1360 C   0  0  2  0  0  0  0  0  0  0  0  0
  -21.3094  -22.5120   19.0685 C   0  0  0  0  0  0  0  0  0  0  0  0
  -24.3944  -22.6044   22.8493 C   0  0  0  0  0  0  0  0  0  0  0  0
  -21.7640  -12.7566   19.9344 C   0  0  0  0  0  0  0  0  0  0  0  0
  -24.0515  -27.1755   19.3200 N   0  0  0  0  0  0  0  0  0  0  0  0
  -22.8993  -22.5333   20.8940 N   0  0  0  0  0  0  0  0  0  0  0  0
  -24.7395  -26.2225   18.6685 N   0  0  0  0  0  0  0  0  0  0  0  0
  -24.1373  -14.2236   22.1884 N   0  0  0  0  0  0  0  0  0  0  0  0
  -21.8537  -24.1301   17.2816 N   0  0  0  0  0  0  0  0  0  0  0  0
  -26.9132  -25.3279   18.3761 N   0  0  0  0  0  0  0  0  0  0  0  0
  -27.5586  -28.6939   21.3172 N   0  0  0  0  0  0  0  0  0  0  0  0
  -27.4607  -13.7212   20.9914 N   0  0  0  0  0  0  0  0  0  0  0  0
  -21.1372  -12.6682   22.3846 N   0  0  0  0  0  0  0  0  0  0  0  0
  -19.2597  -13.2708   25.4144 N   0  3  0  0  0  0  0  0  0  0  0  0
  -28.6029  -27.0339   20.1287 O   0  0  0  0  0  0  0  0  0  0  0  0
  -25.8031  -15.2468   20.4023 O   0  0  0  0  0  0  0  0  0  0  0  0
  -23.8641  -11.9241   21.9162 O   0  0  0  0  0  0  0  0  0  0  0  0
  -20.6043  -22.2246   16.8253 O   0  0  0  0  0  0  0  0  0  0  0  0
  -20.1639  -14.6375   23.1272 O   0  0  0  0  0  0  0  0  0  0  0  0
  -23.6387  -32.0961   23.3407 O   0  0  0  0  0  0  0  0  0  0  0  0
  -23.9876  -20.2617   23.4420 O   0  0  0  0  0  0  0  0  0  1  0  0
  -26.8642  -36.5656   23.1851 F   0  0  0  0  0  0  0  0  0  0  0  0
  -26.3204  -31.9333   23.9925 F   0  0  0  0  0  0  0  0  0  0  0  0
  1  2  1  0  0  0  0
  1  6  2  0  0  0  0
  2  7  2  0  0  0  0
  3 14  2  0  0  0  0
  3 15  1  0  0  0  0
  4  9  2  0  0  0  0
  4 18  1  0  0  0  0
  5 10  1  0  0  0  0
  5 18  2  0  0  0  0
  6 20  1  0  0  0  0
  7 22  1  0  0  0  0
  8 11  2  0  0  0  0
  8 21  1  0  0  0  0
  9 24  1  0  0  0  0
 10 24  2  0  0  0  0
 11 25  1  0  0  0  0
 12 13  2  0  0  0  0
 12 26  1  0  0  0  0
 13 27  1  0  0  0  0
 14 30  1  0  0  0  0
 15 31  2  0  0  0  0
 16 23  1  0  0  0  0
 16 25  2  0  0  0  0
 17 27  2  0  0  0  0
 17 28  1  0  0  0  0
 18 29  1  0  0  0  0
 19 29  1  0  0  0  0
 19 32  2  0  0  0  0
 19 33  1  0  0  0  0
 20 22  2  0  0  0  0
 20 38  1  0  0  0  0
 21 23  2  0  0  0  0
 21 39  1  0  0  0  0
 22 47  1  0  0  0  0
 23 40  1  0  0  0  0
 24 82  1  0  0  0  0
 25 83  1  0  0  0  0
 26 28  2  0  0  0  0
 26 82  1  0  0  0  0
 27 84  1  0  0  0  0
 28 85  1  0  0  0  0
 29 67  2  0  0  0  0
 30 64  1  0  0  0  0
 30 68  2  0  0  0  0
 31 65  1  0  0  0  0
 31 68  1  0  0  0  0
 32 69  1  0  0  0  0
 32 72  1  0  0  0  0
 33 73  1  0  0  0  0
 33 77  2  0  0  0  0
 34 48  1  0  0  0  0
 34 74  1  0  0  0  0
 34 78  2  0  0  0  0
 35 62  1  0  0  0  0
 35 70  1  0  0  0  0
 35 79  2  0  0  0  0
 36 64  1  0  0  0  0
 36 71  1  0  0  0  0
 36 80  2  0  0  0  0
 37 63  1  0  0  0  0
 37 75  1  0  0  0  0
 37 81  2  0  0  0  0
 38 41  1  0  0  0  0
 39 48  1  0  0  0  0
 40 70  1  0  0  0  0
 41 43  1  0  0  0  0
 42 44  1  0  0  0  0
 42 45  1  0  0  0  0
 43 47  1  0  0  0  0
 44 49  1  0  0  0  0
 45 71  1  0  0  0  0
 46 49  1  0  0  0  0
 46 71  1  0  0  0  0
 47 74  1  0  0  0  0
 48 70  1  0  0  0  0
 49 69  1  0  0  0  0
 50 59  1  0  0  0  0
 51 60  1  0  0  0  0
 52 63  1  0  0  0  0
 53 65  1  0  0  0  0
 54 65  1  0  0  0  0
 55 66  1  0  0  0  0
 56 66  1  0  0  0  0
 57 66  1  0  0  0  0
 58 76  1  0  0  0  0
 59 64  1  0  0  0  0
 60 64  1  0  0  0  0
 61 65  1  0  0  0  0
 61 83  1  0  0  0  0
 62 66  1  0  0  0  0
 62 75  1  0  0  0  0
 63 76  1  0  0  0  0
 67 69  1  0  0  0  0
M  CHG  1  76   1
M  ISO  4  36 100  61 101  64 100  83 101
M  END
> <Batch ID>
0102

> <Smiles>
CC[100C:0](CC)(c1cccc(C(C)(C)[101CH2:1][101O:1]c2ccc3c(c2)CN(C(=O)C(NC(=O)C(C)NC)C(C)(C)C)C(C(=O)NC2CCCc4ccccc42)C3)n1)[100C:0](=O)N1CCCC(n2nc(-c3ccc(Oc4ccc(F)cc4F)cc3)c(C(N)=O)c2N)C1

> <Shape>
0.211

> <Color>
0.083

> <Negative vol penalty>
0.000

$$$$

  -OEChem-04052319383D

 90 99  0     1  0  0  0  0  0999 V2000
  -16.9764  -31.0125   23.4365 C   0  0  0  0  0  0  0  0  0  0  0  0
  -18.3494  -31.0318   23.2133 C   0  0  0  0  0  0  0  0  0  0  0  0
  -24.6580  -13.6527   21.6365 C   0  0  0  0  0  0  0  0  0  0  0  0
  -26.9166  -13.2249   20.8930 C   0  0  0  0  0  0  0  0  0  0  0  0
  -16.3297  -29.8038   23.6913 C   0  0  0  0  0  0  0  0  0  0  0  0
  -19.0768  -29.8426   23.2458 C   0  0  0  0  0  0  0  0  0  0  0  0
  -23.9422  -28.4080   19.8143 C   0  0  0  0  0  0  0  0  0  0  0  0
  -24.2249  -12.4976   20.9855 C   0  0  0  0  0  0  0  0  0  0  0  0
  -26.4835  -12.0698   20.2420 C   0  0  0  0  0  0  0  0  0  0  0  0
  -25.3127  -28.4476   20.0670 C   0  0  0  0  0  0  0  0  0  0  0  0
  -22.5873   -9.4680   19.8217 C   0  0  0  0  0  0  0  0  0  0  0  0
  -21.7188   -8.6219   20.5112 C   0  0  0  0  0  0  0  0  0  0  0  0
  -25.2658  -26.1085   20.6551 C   0  0  0  0  0  0  0  0  0  0  0  0
  -29.6083  -24.8821   17.5470 C   0  0  0  0  0  0  0  0  0  0  0  0
  -23.3845   -8.3161   22.2342 C   0  0  0  0  0  0  0  0  0  0  0  0
  -29.7989  -25.2212   19.7648 C   0  0  0  0  0  0  0  0  0  0  0  0
  -26.0039  -14.0164   21.5902 C   0  0  0  0  0  0  0  0  0  0  0  0
  -26.9093  -15.3174   23.5890 C   0  0  0  0  0  0  0  0  0  0  0  0
  -17.0479  -28.5980   23.7173 C   0  0  0  0  0  0  0  0  0  0  0  0
  -23.2199  -27.2190   19.9909 C   0  0  0  0  0  0  0  0  0  0  0  0
  -18.4393  -28.6168   23.5025 C   0  0  0  0  0  0  0  0  0  0  0  0
  -23.8866  -26.0558   20.4015 C   0  0  0  0  0  0  0  0  0  0  0  0
  -29.8101  -24.2430   18.7951 C   0  0  0  0  0  0  0  0  0  0  0  0
  -25.1376  -11.7062   20.2883 C   0  0  0  0  0  0  0  0  0  0  0  0
  -25.9742  -27.2985   20.4902 C   0  0  0  0  0  0  0  0  0  0  0  0
  -23.8545   -9.7381   20.3384 C   0  0  0  0  0  0  0  0  0  0  0  0
  -22.1173   -8.0460   21.7175 C   0  0  0  0  0  0  0  0  0  0  0  0
  -24.2531   -9.1622   21.5447 C   0  0  0  0  0  0  0  0  0  0  0  0
  -26.4518  -15.2097   22.2620 C   0  0  0  0  0  0  0  0  0  0  0  0
  -29.4800  -26.2315   17.7919 C   0  0  0  0  0  0  0  0  0  0  0  0
  -27.2123  -16.6484   23.7409 C   0  0  0  0  0  0  0  0  0  0  0  0
  -27.0480  -14.3047   24.5945 C   0  0  0  0  0  0  0  0  0  0  0  0
  -20.8159  -26.3117   21.8620 C   0  0  0  0  0  0  0  0  0  0  0  0
  -20.9704  -23.6012   20.0867 C   0  0  0  0  0  0  0  0  0  0  0  0
  -22.8313  -21.5382   18.1048 C   0  0  0  0  0  0  0  0  0  0  0  0
  -28.7893  -20.7928   19.8432 C   0  0  0  0  0  0  0  0  0  0  0  0
  -16.3128  -27.3221   24.0436 C   0  0  0  0  0  0  0  0  0  0  0  0
  -21.7469  -27.1862   19.6884 C   0  0  0  0  0  0  0  0  0  0  0  0
  -23.1608  -24.7492   20.5867 C   0  0  0  0  0  0  0  0  0  0  0  0
  -17.0960  -26.0604   23.6899 C   0  0  0  0  0  0  0  0  0  0  0  0
  -25.9796  -20.9785   22.1167 C   0  0  0  0  0  0  0  0  0  0  0  0
  -27.7067  -28.2696   15.0734 C   0  0  0  0  0  0  0  0  0  0  0  0
  -18.5366  -26.1717   24.1788 C   0  0  0  0  0  0  0  0  0  0  0  0
  -27.9181  -27.1694   16.1098 C   0  0  0  0  0  0  0  0  0  0  0  0
  -25.8311  -19.5151   22.5368 C   0  0  0  0  0  0  0  0  0  0  0  0
  -26.3691  -21.0946   20.6460 C   0  0  0  0  0  0  0  0  0  0  0  0
  -27.4570  -18.8838   20.6935 C   0  0  0  0  0  0  0  0  0  0  0  0
  -28.8753  -28.3625   14.1036 C   0  0  0  0  0  0  0  0  0  0  0  0
  -30.4217  -27.4505   15.8567 C   0  0  0  0  0  0  0  0  0  0  0  0
  -19.2588  -27.3447   23.5050 C   0  0  1  0  0  0  0  0  0  0  0  0
  -29.2554  -27.3486   16.8512 C   0  0  2  0  0  0  0  0  0  0  0  0
  -21.0168  -26.0490   20.3963 C   0  0  1  0  0  0  0  0  0  0  0  0
  -27.0862  -18.6985   22.1762 C   0  0  2  0  0  0  0  0  0  0  0  0
  -32.4959  -31.3045   15.4395 C   0  0  0  0  0  0  0  0  0  0  0  0
  -22.6957  -19.3792   16.8329 C   0  0  0  0  0  0  0  0  0  0  0  0
  -32.5701  -30.4502   12.4959 C   0  0  0  0  0  0  0  0  0  0  0  0
  -21.1879  -22.0484   22.7042 C   0  0  0  0  0  0  0  0  0  0  0  0
  -21.9912  -20.0767   21.3868 C   0  0  0  0  0  0  0  0  0  0  0  0
  -19.7067  -20.9951   20.9863 C   0  0  0  0  0  0  0  0  0  0  0  0
  -23.3818  -22.8869   15.5286 C   0  0  0  0  0  0  0  0  0  0  0  0
  -29.9975  -22.7965   19.0169 C   0  0  0  0  0  0  0  0  0  0  0  0
  -31.3120  -31.3323   14.4838 C   0  0  0  0  0  0  0  0  0  0  0  0
  -29.5202  -27.7544   19.8558 C   0  0  0  0  0  0  0  0  0  0  0  0
  -31.3259  -28.7970   13.9605 C   0  0  0  0  0  0  0  0  0  0  0  0
  -28.0879  -28.2624   19.9810 C   0  0  0  0  0  0  0  0  0  1  0  0
  -21.7229  -22.2966   20.1906 C   0  0  1  0  0  0  0  0  0  0  0  0
  -22.5328  -20.8897   16.7651 C   0  0  2  0  0  0  0  0  0  0  0  0
  -31.3582  -30.2290   13.4086 C   0  0  2  0  0  0  0  0  0  0  0  0
  -21.1658  -21.3791   21.3155 C   0  0  0  0  0  0  0  0  0  0  0  0
  -26.4615  -16.3792   21.6168 N   0  0  0  0  0  0  0  0  0  0  0  0
  -29.5978  -26.4260   19.1433 N   0  0  0  0  0  0  0  0  0  0  0  0
  -26.9286  -17.2343   22.5424 N   0  0  0  0  0  0  0  0  0  0  0  0
  -21.7200  -24.7695   20.2843 N   0  0  0  0  0  0  0  0  0  0  0  0
  -27.5813  -20.3097   20.3731 N   0  0  0  0  0  0  0  0  0  0  0  0
  -27.6909  -17.3631   24.7813 N   0  0  0  0  0  0  0  0  0  0  0  0
  -26.6913  -12.9885   24.2709 N   0  0  0  0  0  0  0  0  0  0  0  0
  -19.6492  -26.9908   22.1571 N   0  0  0  0  0  0  0  0  0  0  0  0
  -21.6890  -21.6988   18.8603 N   0  0  0  0  0  0  0  0  0  0  0  0
  -28.8222  -22.1529   19.5606 N   0  0  0  0  0  0  0  0  0  0  0  0
  -30.1550  -28.5716   14.8770 N   0  3  1  0  0  0  0  0  0  0  0  0
  -23.4542  -21.4153   15.7184 N   0  3  0  0  0  0  0  0  0  0  0  0
  -27.4600  -14.5625   25.7510 O   0  0  0  0  0  0  0  0  0  0  0  0
  -21.6564  -25.9255   22.6658 O   0  0  0  0  0  0  0  0  0  0  0  0
  -19.7635  -23.5846   19.8322 O   0  0  0  0  0  0  0  0  0  0  0  0
  -23.9649  -21.8659   18.4483 O   0  0  0  0  0  0  0  0  0  0  0  0
  -29.7685  -20.0666   19.6415 O   0  0  0  0  0  0  0  0  0  0  0  0
  -24.7154  -10.5788   19.6531 O   0  0  0  0  0  0  0  0  0  0  0  0
  -27.3118  -27.3346   20.7381 O   0  0  0  0  0  0  0  0  0  1  0  0
  -21.2826   -7.2348   22.3802 F   0  0  0  0  0  0  0  0  0  0  0  0
  -25.4688   -9.4189   22.0467 F   0  0  0  0  0  0  0  0  0  0  0  0
  1  2  1  0  0  0  0
  1  5  2  0  0  0  0
  2  6  2  0  0  0  0
  3  8  2  0  0  0  0
  3 17  1  0  0  0  0
  4  9  1  0  0  0  0
  4 17  2  0  0  0  0
  5 19  1  0  0  0  0
  6 21  1  0  0  0  0
  7 10  2  0  0  0  0
  7 20  1  0  0  0  0
  8 24  1  0  0  0  0
  9 24  2  0  0  0  0
 10 25  1  0  0  0  0
 11 12  2  0  0  0  0
 11 26  1  0  0  0  0
 12 27  1  0  0  0  0
 13 22  1  0  0  0  0
 13 25  2  0  0  0  0
 14 23  1  0  0  0  0
 14 30  2  0  0  0  0
 15 27  2  0  0  0  0
 15 28  1  0  0  0  0
 16 23  2  0  0  0  0
 16 71  1  0  0  0  0
 17 29  1  0  0  0  0
 18 29  1  0  0  0  0
 18 31  2  0  0  0  0
 18 32  1  0  0  0  0
 19 21  2  0  0  0  0
 19 37  1  0  0  0  0
 20 22  2  0  0  0  0
 20 38  1  0  0  0  0
 21 50  1  0  0  0  0
 22 39  1  0  0  0  0
 23 61  1  0  0  0  0
 24 87  1  0  0  0  0
 25 88  1  0  0  0  0
 26 28  2  0  0  0  0
 26 87  1  0  0  0  0
 27 89  1  0  0  0  0
 28 90  1  0  0  0  0
 29 70  2  0  0  0  0
 30 51  1  0  0  0  0
 30 71  1  0  0  0  0
 31 72  1  0  0  0  0
 31 75  1  0  0  0  0
 32 76  1  0  0  0  0
 32 82  2  0  0  0  0
 33 52  1  0  0  0  0
 33 77  1  0  0  0  0
 33 83  2  0  0  0  0
 34 66  1  0  0  0  0
 34 73  1  0  0  0  0
 34 84  2  0  0  0  0
 35 67  1  0  0  0  0
 35 78  1  0  0  0  0
 35 85  2  0  0  0  0
 36 74  1  0  0  0  0
 36 79  1  0  0  0  0
 36 86  2  0  0  0  0
 37 40  1  0  0  0  0
 38 52  1  0  0  0  0
 39 73  1  0  0  0  0
 40 43  1  0  0  0  0
 41 45  1  0  0  0  0
 41 46  1  0  0  0  0
 42 44  1  0  0  0  0
 42 48  1  0  0  0  0
 43 50  1  0  0  0  0
 44 51  1  0  0  0  0
 45 53  1  0  0  0  0
 46 74  1  0  0  0  0
 47 53  1  0  0  0  0
 47 74  1  0  0  0  0
 48 80  1  0  0  0  0
 49 51  1  0  0  0  0
 49 80  1  0  0  0  0
 50 77  1  0  0  0  0
 52 73  1  0  0  0  0
 53 72  1  0  0  0  0
 54 62  1  0  0  0  0
 55 67  1  0  0  0  0
 56 68  1  0  0  0  0
 57 69  1  0  0  0  0
 58 69  1  0  0  0  0
 59 69  1  0  0  0  0
 60 81  1  0  0  0  0
 61 79  1  0  0  0  0
 62 68  1  0  0  0  0
 63 65  1  0  0  0  0
 63 71  1  0  0  0  0
 64 68  1  0  0  0  0
 64 80  1  0  0  0  0
 65 88  1  0  0  0  0
 66 69  1  0  0  0  0
 66 78  1  0  0  0  0
 67 81  1  0  0  0  0
 70 72  1  0  0  0  0
M  CHG  2  80   1  81   1
M  ISO  4  36 100  65 101  79 100  88 101
M  END
> <Batch ID>
0102

> <Smiles>
CCC(C)CN1CCCC(c2cc(C[100NH:0][100C:0](=O)N3CCCC(n4nc(-c5ccc(Oc6ccc(F)cc6F)cc5)c(C(N)=O)c4N)C3)cn2C[101CH2:1][101O:1]c2ccc3c(c2)CN(C(=O)C(NC(=O)C(C)NC)C(C)(C)C)C(C(=O)NC2CCCc4ccccc42)C3)C1

> <Shape>
0.230

> <Color>
0.061

> <Negative vol penalty>
0.000

$$$$

  -OEChem-04052319383D

 84 92  0     1  0  0  0  0  0999 V2000
  -25.2913  -32.8519   23.1696 C   0  0  0  0  0  0  0  0  0  0  0  0
  -25.0472  -31.4886   23.3014 C   0  0  0  0  0  0  0  0  0  0  0  0
  -22.9881   -9.9171   19.9730 C   0  0  0  0  0  0  0  0  0  0  0  0
  -23.7350   -9.9298   22.2707 C   0  0  0  0  0  0  0  0  0  0  0  0
  -25.8399  -33.3496   21.9884 C   0  0  0  0  0  0  0  0  0  0  0  0
  -25.3507  -30.6224   22.2516 C   0  0  0  0  0  0  0  0  0  0  0  0
  -27.3784  -24.8612   22.7015 C   0  0  0  0  0  0  0  0  0  0  0  0
  -22.2182   -8.7827   20.2295 C   0  0  0  0  0  0  0  0  0  0  0  0
  -22.9650   -8.7954   22.5272 C   0  0  0  0  0  0  0  0  0  0  0  0
  -26.7304  -23.6295   22.6179 C   0  0  0  0  0  0  0  0  0  0  0  0
  -23.1874   -5.4627   22.0030 C   0  0  0  0  0  0  0  0  0  0  0  0
  -23.7766   -4.4313   22.7343 C   0  0  0  0  0  0  0  0  0  0  0  0
  -27.3443  -23.4713   20.2904 C   0  0  0  0  0  0  0  0  0  0  0  0
  -22.0697   -4.6578   24.4290 C   0  0  0  0  0  0  0  0  0  0  0  0
  -28.3644  -18.7265   21.8467 C   0  0  0  0  0  0  0  0  0  0  0  0
  -23.7466  -10.4907   20.9936 C   0  0  0  0  0  0  0  0  0  0  0  0
  -24.1434  -13.0066   20.8517 C   0  0  0  0  0  0  0  0  0  0  0  0
  -26.1592  -32.4878   20.9272 C   0  0  0  0  0  0  0  0  0  0  0  0
  -28.0058  -25.4131   21.5754 C   0  0  0  0  0  0  0  0  0  0  0  0
  -25.9028  -31.1093   21.0546 C   0  0  0  0  0  0  0  0  0  0  0  0
  -28.0017  -24.7089   20.3629 C   0  0  0  0  0  0  0  0  0  0  0  0
  -29.1808  -18.3288   20.8110 C   0  0  0  0  0  0  0  0  0  0  0  0
  -28.4056  -18.3592   19.6256 C   0  0  0  0  0  0  0  0  0  0  0  0
  -22.2066   -8.2218   21.5066 C   0  0  0  0  0  0  0  0  0  0  0  0
  -26.7108  -22.9357   21.4116 C   0  0  0  0  0  0  0  0  0  0  0  0
  -22.0394   -6.0917   22.4848 C   0  0  0  0  0  0  0  0  0  0  0  0
  -23.2177   -4.0289   23.9473 C   0  0  0  0  0  0  0  0  0  0  0  0
  -21.4805   -5.6892   23.6978 C   0  0  0  0  0  0  0  0  0  0  0  0
  -24.5426  -11.6622   20.7291 C   0  0  0  0  0  0  0  0  0  0  0  0
  -27.1391  -18.7748   19.9729 C   0  0  0  0  0  0  0  0  0  0  0  0
  -25.2535  -13.7290   20.4878 C   0  0  0  0  0  0  0  0  0  0  0  0
  -22.8820  -13.5536   21.2582 C   0  0  0  0  0  0  0  0  0  0  0  0
  -27.6098  -28.0585   19.8581 C   0  0  0  0  0  0  0  0  0  0  0  0
  -30.2978  -27.0250   18.3650 C   0  0  0  0  0  0  0  0  0  0  0  0
  -32.3337  -24.4119   17.5447 C   0  0  0  0  0  0  0  0  0  0  0  0
  -30.7568  -14.6317   20.6987 C   0  0  0  0  0  0  0  0  0  0  0  0
  -26.7067  -33.0784   19.6520 C   0  0  0  0  0  0  0  0  0  0  0  0
  -28.7234  -26.7302   21.6888 C   0  0  0  0  0  0  0  0  0  0  0  0
  -28.6778  -25.2485   19.1301 C   0  0  0  0  0  0  0  0  0  0  0  0
  -27.3475  -32.0456   18.7285 C   0  0  0  0  0  0  0  0  0  0  0  0
  -29.5817  -12.2494   18.3280 C   0  0  0  0  0  0  0  0  0  0  0  0
  -26.4486  -30.8208   18.5920 C   0  0  0  0  0  0  0  0  0  0  0  0
  -28.1358  -11.9908   18.7552 C   0  0  0  0  0  0  0  0  0  0  0  0
  -30.4965  -12.4620   19.5321 C   0  0  0  0  0  0  0  0  0  0  0  0
  -28.6031  -13.2470   20.9005 C   0  0  0  0  0  0  0  0  0  0  0  0
  -26.2415  -30.1346   19.9476 C   0  0  1  0  0  0  0  0  0  0  0  0
  -28.8879  -27.4384   20.3477 C   0  0  1  0  0  0  0  0  0  0  0  0
  -27.6321  -13.0821   19.7189 C   0  0  2  0  0  0  0  0  0  0  0  0
  -25.9395  -18.9817   19.1342 C   0  0  0  0  0  0  0  0  0  0  0  0
  -28.7945  -19.1987   17.2809 C   0  0  0  0  0  0  0  0  0  0  0  0
  -28.1135  -16.8021   17.6649 C   0  0  0  0  0  0  0  0  0  0  0  0
  -34.4359  -23.8726   16.2847 C   0  0  0  0  0  0  0  0  0  0  0  0
  -28.7793  -27.2736   15.7302 C   0  0  0  0  0  0  0  0  0  0  0  0
  -30.5446  -25.8573   14.6596 C   0  0  0  0  0  0  0  0  0  0  0  0
  -31.1497  -28.0667   15.6471 C   0  0  0  0  0  0  0  0  0  0  0  0
  -33.6777  -23.4119   19.9845 C   0  0  0  0  0  0  0  0  0  0  0  0
  -30.6014  -17.9433   20.9273 C   0  0  0  0  0  0  0  0  0  0  0  0
  -25.9399  -19.4619   22.1344 C   0  0  0  0  0  0  0  0  0  0  0  0
  -30.8619  -16.7921   21.9156 C   0  0  0  0  0  0  0  0  0  0  0  0
  -26.0382  -20.9365   22.5100 C   0  0  0  0  0  0  0  0  0  1  0  0
  -28.8677  -18.0100   18.2663 C   0  0  0  0  0  0  0  0  0  0  0  0
  -30.5879  -26.1362   17.1798 C   0  0  1  0  0  0  0  0  0  0  0  0
  -33.8395  -24.2415   17.6341 C   0  0  2  0  0  0  0  0  0  0  0  0
  -30.2509  -26.8239   15.8267 C   0  0  0  0  0  0  0  0  0  0  0  0
  -25.8075  -11.5352   20.3192 N   0  0  0  0  0  0  0  0  0  0  0  0
  -27.1257  -18.9954   21.3254 N   0  0  0  0  0  0  0  0  0  0  0  0
  -26.2127  -12.8091   20.1810 N   0  0  0  0  0  0  0  0  0  0  0  0
  -29.3607  -26.5430   19.2899 N   0  0  0  0  0  0  0  0  0  0  0  0
  -29.9632  -13.5105   20.4051 N   0  0  0  0  0  0  0  0  0  0  0  0
  -25.4930  -15.0548   20.4034 N   0  0  0  0  0  0  0  0  0  0  0  0
  -21.8488  -12.6697   21.5981 N   0  0  0  0  0  0  0  0  0  0  0  0
  -27.4061  -29.3515   20.3009 N   0  0  0  0  0  0  0  0  0  0  0  0
  -31.9813  -25.7241   17.3100 N   0  0  0  0  0  0  0  0  0  0  0  0
  -30.1730  -15.5812   21.5284 N   0  0  0  0  0  0  0  0  0  0  0  0
  -34.1823  -23.1675   18.6088 N   0  3  0  0  0  0  0  0  0  0  0  0
  -22.6720  -14.7895   21.3025 O   0  0  0  0  0  0  0  0  0  0  0  0
  -26.8644  -27.4122   19.1312 O   0  0  0  0  0  0  0  0  0  0  0  0
  -30.8864  -28.1040   18.4702 O   0  0  0  0  0  0  0  0  0  0  0  0
  -31.5488  -23.4740   17.6668 O   0  0  0  0  0  0  0  0  0  0  0  0
  -31.8988  -14.7783   20.2502 O   0  0  0  0  0  0  0  0  0  0  0  0
  -21.4552   -7.1150   21.7573 O   0  0  0  0  0  0  0  0  0  0  0  0
  -26.0785  -21.7337   21.3271 O   0  0  0  0  0  0  0  0  0  1  0  0
  -23.7827   -3.0374   24.6486 F   0  0  0  0  0  0  0  0  0  0  0  0
  -20.3770   -6.2890   24.1652 F   0  0  0  0  0  0  0  0  0  0  0  0
  1  2  1  0  0  0  0
  1  5  2  0  0  0  0
  2  6  2  0  0  0  0
  3  8  2  0  0  0  0
  3 16  1  0  0  0  0
  4  9  1  0  0  0  0
  4 16  2  0  0  0  0
  5 18  1  0  0  0  0
  6 20  1  0  0  0  0
  7 10  2  0  0  0  0
  7 19  1  0  0  0  0
  8 24  1  0  0  0  0
  9 24  2  0  0  0  0
 10 25  1  0  0  0  0
 11 12  2  0  0  0  0
 11 26  1  0  0  0  0
 12 27  1  0  0  0  0
 13 21  1  0  0  0  0
 13 25  2  0  0  0  0
 14 27  2  0  0  0  0
 14 28  1  0  0  0  0
 15 22  2  0  0  0  0
 15 66  1  0  0  0  0
 16 29  1  0  0  0  0
 17 29  1  0  0  0  0
 17 31  2  0  0  0  0
 17 32  1  0  0  0  0
 18 20  2  0  0  0  0
 18 37  1  0  0  0  0
 19 21  2  0  0  0  0
 19 38  1  0  0  0  0
 20 46  1  0  0  0  0
 21 39  1  0  0  0  0
 22 23  1  0  0  0  0
 22 57  1  0  0  0  0
 23 30  2  0  0  0  0
 23 61  1  0  0  0  0
 24 81  1  0  0  0  0
 25 82  1  0  0  0  0
 26 28  2  0  0  0  0
 26 81  1  0  0  0  0
 27 83  1  0  0  0  0
 28 84  1  0  0  0  0
 29 65  2  0  0  0  0
 30 49  1  0  0  0  0
 30 66  1  0  0  0  0
 31 67  1  0  0  0  0
 31 70  1  0  0  0  0
 32 71  1  0  0  0  0
 32 76  2  0  0  0  0
 33 47  1  0  0  0  0
 33 72  1  0  0  0  0
 33 77  2  0  0  0  0
 34 62  1  0  0  0  0
 34 68  1  0  0  0  0
 34 78  2  0  0  0  0
 35 63  1  0  0  0  0
 35 73  1  0  0  0  0
 35 79  2  0  0  0  0
 36 69  1  0  0  0  0
 36 74  1  0  0  0  0
 36 80  2  0  0  0  0
 37 40  1  0  0  0  0
 38 47  1  0  0  0  0
 39 68  1  0  0  0  0
 40 42  1  0  0  0  0
 41 43  1  0  0  0  0
 41 44  1  0  0  0  0
 42 46  1  0  0  0  0
 43 48  1  0  0  0  0
 44 69  1  0  0  0  0
 45 48  1  0  0  0  0
 45 69  1  0  0  0  0
 46 72  1  0  0  0  0
 47 68  1  0  0  0  0
 48 67  1  0  0  0  0
 50 61  1  0  0  0  0
 51 61  1  0  0  0  0
 52 63  1  0  0  0  0
 53 64  1  0  0  0  0
 54 64  1  0  0  0  0
 55 64  1  0  0  0  0
 56 75  1  0  0  0  0
 57 59  1  0  0  0  0
 58 60  1  0  0  0  0
 58 66  1  0  0  0  0
 59 74  1  0  0  0  0
 60 82  1  0  0  0  0
 62 64  1  0  0  0  0
 62 73  1  0  0  0  0
 63 75  1  0  0  0  0
 65 67  1  0  0  0  0
M  CHG  1  75   1
M  ISO  4  36 100  60 101  74 100  82 101
M  END
> <Batch ID>
0102

> <Smiles>
CNC(C)C(=O)NC(C(=O)N1Cc2cc([101O:1][101CH2:1]Cn3cc(CC[100NH:0][100C:0](=O)N4CCCC(n5nc(-c6ccc(Oc7ccc(F)cc7F)cc6)c(C(N)=O)c5N)C4)c(C(C)C)c3C)ccc2CC1C(=O)NC1CCCc2ccccc21)C(C)(C)C

> <Shape>
0.325

> <Color>
0.202

> <Negative vol penalty>
0.000

$$$$

  -OEChem-04052319383D

 91 99  0     1  0  0  0  0  0999 V2000
  -17.1992  -26.5539   21.3639 C   0  0  0  0  0  0  0  0  0  0  0  0
  -18.5403  -26.1958   21.2718 C   0  0  0  0  0  0  0  0  0  0  0  0
  -26.5024  -11.6208   21.4925 C   0  0  0  0  0  0  0  0  0  0  0  0
  -25.6928  -12.8573   19.5812 C   0  0  0  0  0  0  0  0  0  0  0  0
  -16.8331  -27.8984   21.3185 C   0  0  0  0  0  0  0  0  0  0  0  0
  -19.5162  -27.1822   21.1331 C   0  0  0  0  0  0  0  0  0  0  0  0
  -23.5086  -26.4030   24.1495 C   0  0  0  0  0  0  0  0  0  0  0  0
  -25.1951  -11.4873   21.9599 C   0  0  0  0  0  0  0  0  0  0  0  0
  -24.3854  -12.7236   20.0487 C   0  0  0  0  0  0  0  0  0  0  0  0
  -24.4336  -25.4412   23.7457 C   0  0  0  0  0  0  0  0  0  0  0  0
  -20.7995  -12.3974   20.5521 C   0  0  0  0  0  0  0  0  0  0  0  0
  -19.8147  -12.0378   19.6321 C   0  0  0  0  0  0  0  0  0  0  0  0
  -25.8737  -27.1862   22.9089 C   0  0  0  0  0  0  0  0  0  0  0  0
  -20.9988   -9.9838   19.1673 C   0  0  0  0  0  0  0  0  0  0  0  0
  -29.3230  -21.1495   18.5789 C   0  0  0  0  0  0  0  0  0  0  0  0
  -26.7513  -12.3059   20.3031 C   0  0  0  0  0  0  0  0  0  0  0  0
  -28.7914  -11.5685   18.9607 C   0  0  0  0  0  0  0  0  0  0  0  0
  -17.8058  -28.9023   21.1888 C   0  0  0  0  0  0  0  0  0  0  0  0
  -23.7547  -27.7653   23.9258 C   0  0  0  0  0  0  0  0  0  0  0  0
  -19.1627  -28.5413   21.0845 C   0  0  0  0  0  0  0  0  0  0  0  0
  -24.9514  -28.1635   23.3132 C   0  0  0  0  0  0  0  0  0  0  0  0
  -28.9788  -20.0651   17.7880 C   0  0  0  0  0  0  0  0  0  0  0  0
  -27.7450  -19.4635   18.0097 C   0  0  0  0  0  0  0  0  0  0  0  0
  -26.9050  -19.9576   19.0014 C   0  0  0  0  0  0  0  0  0  0  0  0
  -24.1365  -12.0386   21.2381 C   0  0  0  0  0  0  0  0  0  0  0  0
  -25.6150  -25.8325   23.1227 C   0  0  0  0  0  0  0  0  0  0  0  0
  -21.8841  -11.5502   20.7796 C   0  0  0  0  0  0  0  0  0  0  0  0
  -19.9142  -10.8310   18.9398 C   0  0  0  0  0  0  0  0  0  0  0  0
  -21.9837  -10.3434   20.0872 C   0  0  0  0  0  0  0  0  0  0  0  0
  -28.1017  -12.4447   19.8200 C   0  0  0  0  0  0  0  0  0  0  0  0
  -27.3421  -21.0466   19.7381 C   0  0  0  0  0  0  0  0  0  0  0  0
  -30.0295  -12.1427   18.8066 C   0  0  0  0  0  0  0  0  0  0  0  0
  -28.3521  -10.3450   18.3559 C   0  0  0  0  0  0  0  0  0  0  0  0
  -22.3212  -30.0591   22.2563 C   0  0  0  0  0  0  0  0  0  0  0  0
  -24.5370  -31.9472   23.6872 C   0  0  0  0  0  0  0  0  0  0  0  0
  -27.5873  -32.2011   25.1966 C   0  0  0  0  0  0  0  0  0  0  0  0
  -31.9983  -17.7776   19.2790 C   0  0  0  0  0  0  0  0  0  0  0  0
  -17.3579  -30.3395   21.0968 C   0  0  0  0  0  0  0  0  0  0  0  0
  -22.7589  -28.7920   24.3915 C   0  0  0  0  0  0  0  0  0  0  0  0
  -25.2724  -29.6145   23.0683 C   0  0  0  0  0  0  0  0  0  0  0  0
  -18.4842  -31.3443   21.3249 C   0  0  0  0  0  0  0  0  0  0  0  0
  -33.1689  -14.9422   21.0865 C   0  0  0  0  0  0  0  0  0  0  0  0
  -19.7196  -30.9532   20.5201 C   0  0  0  0  0  0  0  0  0  0  0  0
  -32.0652  -13.9016   20.8894 C   0  0  0  0  0  0  0  0  0  0  0  0
  -32.5981  -16.3528   21.2147 C   0  0  0  0  0  0  0  0  0  0  0  0
  -30.5998  -15.7204   19.9183 C   0  0  0  0  0  0  0  0  0  0  0  0
  -20.2525  -29.5836   20.9581 C   0  0  1  0  0  0  0  0  0  0  0  0
  -22.8790  -30.1199   23.6502 C   0  0  1  0  0  0  0  0  0  0  0  0
  -31.1301  -14.2891   19.7280 C   0  0  2  0  0  0  0  0  0  0  0  0
  -26.8593  -18.7017   15.7912 C   0  0  0  0  0  0  0  0  0  0  0  0
  -30.1692  -20.6417   15.6493 C   0  0  0  0  0  0  0  0  0  0  0  0
  -29.1421  -33.8805   26.2259 C   0  0  0  0  0  0  0  0  0  0  0  0
  -24.3214  -17.0696   22.1965 C   0  0  0  0  0  0  0  0  0  0  0  0
  -25.3143  -32.9294   20.9049 C   0  0  0  0  0  0  0  0  0  0  0  0
  -27.4306  -33.8331   21.8912 C   0  0  0  0  0  0  0  0  0  0  0  0
  -25.2252  -34.7145   22.6541 C   0  0  0  0  0  0  0  0  0  0  0  0
  -27.4963  -30.8463   27.8262 C   0  0  0  0  0  0  0  0  0  0  0  0
  -27.3254  -18.2899   17.1836 C   0  0  0  0  0  0  0  0  0  0  0  0
  -25.5745  -19.3352   19.2623 C   0  0  0  0  0  0  0  0  0  0  0  0
  -26.4758  -21.6263   20.8277 C   0  0  0  0  0  0  0  0  0  0  0  0
  -25.5875  -18.4446   20.5163 C   0  0  0  0  0  0  0  0  0  0  0  0
  -26.9382  -23.0007   21.3165 C   0  0  0  0  0  0  0  0  0  0  0  0
  -31.2787  -19.0982   17.3048 C   0  0  0  0  0  0  0  0  0  0  0  0
  -23.5535  -17.0167   19.7827 C   0  0  0  0  0  0  0  0  0  0  0  0
  -26.0086  -23.6159   22.3561 C   0  0  0  0  0  0  0  0  0  1  0  0
  -29.9190  -19.5785   16.7400 C   0  0  1  0  0  0  0  0  0  0  0  0
  -25.9401  -32.3918   23.3514 C   0  0  1  0  0  0  0  0  0  0  0  0
  -28.0220  -32.8840   26.4808 C   0  0  2  0  0  0  0  0  0  0  0  0
  -24.2094  -17.8583   20.8861 C   0  0  1  0  0  0  0  0  0  0  0  0
  -25.9709  -33.4397   22.2031 C   0  0  0  0  0  0  0  0  0  0  0  0
  -28.5336  -21.6576   19.5517 N   0  0  0  0  0  0  0  0  0  0  0  0
  -28.8404  -13.4955   20.1862 N   0  0  0  0  0  0  0  0  0  0  0  0
  -30.0072  -13.2833   19.5541 N   0  0  0  0  0  0  0  0  0  0  0  0
  -24.2644  -30.5803   23.5360 N   0  0  0  0  0  0  0  0  0  0  0  0
  -31.7216  -16.6584   20.0814 N   0  0  0  0  0  0  0  0  0  0  0  0
  -31.1244  -11.7781   18.1060 N   0  0  0  0  0  0  0  0  0  0  0  0
  -27.0499   -9.8990   18.6200 N   0  0  0  0  0  0  0  0  0  0  0  0
  -20.9878  -29.7008   22.1991 N   0  0  0  0  0  0  0  0  0  0  0  0
  -26.5309  -32.8576   24.6013 N   0  0  0  0  0  0  0  0  0  0  0  0
  -31.1219  -17.9916   18.2223 N   0  0  0  0  0  0  0  0  0  0  0  0
  -22.1863  -16.5819   20.1540 N   0  3  0  0  0  0  0  0  0  0  0  0
  -28.5052  -31.8755   27.4658 N   0  3  0  0  0  0  0  0  0  0  0  0
  -29.0980   -9.6589   17.6167 O   0  0  0  0  0  0  0  0  0  0  0  0
  -23.0464  -30.3195   21.3035 O   0  0  0  0  0  0  0  0  0  0  0  0
  -23.7154  -32.7809   24.0763 O   0  0  0  0  0  0  0  0  0  0  0  0
  -28.1329  -31.1889   24.7628 O   0  0  0  0  0  0  0  0  0  0  0  0
  -32.9587  -18.5272   19.4856 O   0  0  0  0  0  0  0  0  0  0  0  0
  -22.8607  -11.9083   21.6938 O   0  0  0  0  0  0  0  0  0  0  0  0
  -26.5193  -24.8958   22.7270 O   0  0  0  0  0  0  0  0  0  1  0  0
  -18.9676  -10.4850   18.0575 F   0  0  0  0  0  0  0  0  0  0  0  0
  -23.0227   -9.5249   20.3024 F   0  0  0  0  0  0  0  0  0  0  0  0
  1  2  1  0  0  0  0
  1  5  2  0  0  0  0
  2  6  2  0  0  0  0
  3  8  2  0  0  0  0
  3 16  1  0  0  0  0
  4  9  1  0  0  0  0
  4 16  2  0  0  0  0
  5 18  1  0  0  0  0
  6 20  1  0  0  0  0
  7 10  2  0  0  0  0
  7 19  1  0  0  0  0
  8 25  1  0  0  0  0
  9 25  2  0  0  0  0
 10 26  1  0  0  0  0
 11 12  2  0  0  0  0
 11 27  1  0  0  0  0
 12 28  1  0  0  0  0
 13 21  1  0  0  0  0
 13 26  2  0  0  0  0
 14 28  2  0  0  0  0
 14 29  1  0  0  0  0
 15 22  2  0  0  0  0
 15 71  1  0  0  0  0
 16 30  1  0  0  0  0
 17 30  1  0  0  0  0
 17 32  2  0  0  0  0
 17 33  1  0  0  0  0
 18 20  2  0  0  0  0
 18 38  1  0  0  0  0
 19 21  2  0  0  0  0
 19 39  1  0  0  0  0
 20 47  1  0  0  0  0
 21 40  1  0  0  0  0
 22 23  1  0  0  0  0
 22 66  1  0  0  0  0
 23 24  2  0  0  0  0
 23 58  1  0  0  0  0
 24 31  1  0  0  0  0
 24 59  1  0  0  0  0
 25 88  1  0  0  0  0
 26 89  1  0  0  0  0
 27 29  2  0  0  0  0
 27 88  1  0  0  0  0
 28 90  1  0  0  0  0
 29 91  1  0  0  0  0
 30 72  2  0  0  0  0
 31 60  1  0  0  0  0
 31 71  2  0  0  0  0
 32 73  1  0  0  0  0
 32 76  1  0  0  0  0
 33 77  1  0  0  0  0
 33 83  2  0  0  0  0
 34 48  1  0  0  0  0
 34 78  1  0  0  0  0
 34 84  2  0  0  0  0
 35 67  1  0  0  0  0
 35 74  1  0  0  0  0
 35 85  2  0  0  0  0
 36 68  1  0  0  0  0
 36 79  1  0  0  0  0
 36 86  2  0  0  0  0
 37 75  1  0  0  0  0
 37 80  1  0  0  0  0
 37 87  2  0  0  0  0
 38 41  1  0  0  0  0
 39 48  1  0  0  0  0
 40 74  1  0  0  0  0
 41 43  1  0  0  0  0
 42 44  1  0  0  0  0
 42 45  1  0  0  0  0
 43 47  1  0  0  0  0
 44 49  1  0  0  0  0
 45 75  1  0  0  0  0
 46 49  1  0  0  0  0
 46 75  1  0  0  0  0
 47 78  1  0  0  0  0
 48 74  1  0  0  0  0
 49 73  1  0  0  0  0
 50 58  1  0  0  0  0
 51 66  1  0  0  0  0
 52 68  1  0  0  0  0
 53 69  1  0  0  0  0
 54 70  1  0  0  0  0
 55 70  1  0  0  0  0
 56 70  1  0  0  0  0
 57 82  1  0  0  0  0
 59 61  1  0  0  0  0
 60 62  1  0  0  0  0
 61 69  1  0  0  0  0
 62 65  1  0  0  0  0
 63 66  1  0  0  0  0
 63 80  1  0  0  0  0
 64 69  1  0  0  0  0
 64 81  1  0  0  0  0
 65 89  1  0  0  0  0
 67 70  1  0  0  0  0
 67 79  1  0  0  0  0
 68 82  1  0  0  0  0
 72 73  1  0  0  0  0
M  CHG  2  81   1  82   1
M  ISO  4  37 100  65 101  80 100  89 101
M  END
> <Batch ID>
0102

> <Smiles>
CCc1c(C(C)C[100NH:0][100C:0](=O)N2CCCC(n3nc(-c4ccc(Oc5ccc(F)cc5F)cc4)c(C(N)=O)c3N)C2)cnc(CC[101CH2:1][101O:1]c2ccc3c(c2)CN(C(=O)C(NC(=O)C(C)NC)C(C)(C)C)C(C(=O)NC2CCCc4ccccc42)C3)c1CCC(C)CN

> <Shape>
0.254

> <Color>
0.059

> <Negative vol penalty>
0.000

$$$$

  -OEChem-04052319383D

 86 94  0     1  0  0  0  0  0999 V2000
  -26.4870  -28.8720   19.7591 C   0  0  0  0  0  0  0  0  0  0  0  0
  -27.0581  -27.6195   19.9601 C   0  0  0  0  0  0  0  0  0  0  0  0
  -23.2354   -9.9032   21.0072 C   0  0  0  0  0  0  0  0  0  0  0  0
  -23.8596  -10.6330   23.2241 C   0  0  0  0  0  0  0  0  0  0  0  0
  -25.1884  -29.1236   20.1999 C   0  0  0  0  0  0  0  0  0  0  0  0
  -26.3314  -26.6181   20.6031 C   0  0  0  0  0  0  0  0  0  0  0  0
  -26.5382  -20.6056   19.4573 C   0  0  0  0  0  0  0  0  0  0  0  0
  -22.5044   -8.8513   21.5593 C   0  0  0  0  0  0  0  0  0  0  0  0
  -23.1285   -9.5812   23.7762 C   0  0  0  0  0  0  0  0  0  0  0  0
  -27.2148  -19.5555   20.0764 C   0  0  0  0  0  0  0  0  0  0  0  0
  -19.4950   -8.4159   23.0382 C   0  0  0  0  0  0  0  0  0  0  0  0
  -18.2201   -8.1739   22.5268 C   0  0  0  0  0  0  0  0  0  0  0  0
  -25.2421  -19.0562   21.3719 C   0  0  0  0  0  0  0  0  0  0  0  0
  -18.8998   -5.9455   21.8869 C   0  0  0  0  0  0  0  0  0  0  0  0
  -29.9919  -19.8909   23.9387 C   0  0  0  0  0  0  0  0  0  0  0  0
  -23.9131  -10.7940   21.8396 C   0  0  0  0  0  0  0  0  0  0  0  0
  -24.2043  -13.1760   20.9743 C   0  0  0  0  0  0  0  0  0  0  0  0
  -24.4419  -28.1218   20.8401 C   0  0  0  0  0  0  0  0  0  0  0  0
  -25.2097  -20.8963   19.7993 C   0  0  0  0  0  0  0  0  0  0  0  0
  -25.0221  -26.8570   21.0542 C   0  0  0  0  0  0  0  0  0  0  0  0
  -24.5501  -20.1089   20.7538 C   0  0  0  0  0  0  0  0  0  0  0  0
  -22.4509   -8.6903   22.9438 C   0  0  0  0  0  0  0  0  0  0  0  0
  -26.5677  -18.7824   21.0359 C   0  0  0  0  0  0  0  0  0  0  0  0
  -20.4724   -7.4227   22.9740 C   0  0  0  0  0  0  0  0  0  0  0  0
  -17.9225   -6.9387   21.9511 C   0  0  0  0  0  0  0  0  0  0  0  0
  -20.1748   -6.1875   22.3984 C   0  0  0  0  0  0  0  0  0  0  0  0
  -24.6689  -11.8804   21.2699 C   0  0  0  0  0  0  0  0  0  0  0  0
  -31.2878  -19.4239   23.9386 C   0  0  0  0  0  0  0  0  0  0  0  0
  -29.2180  -17.7436   23.7976 C   0  0  0  0  0  0  0  0  0  0  0  0
  -30.5139  -17.2766   23.7967 C   0  0  0  0  0  0  0  0  0  0  0  0
  -25.2987  -13.8228   20.4542 C   0  0  0  0  0  0  0  0  0  0  0  0
  -22.9002  -13.7441   21.1540 C   0  0  0  0  0  0  0  0  0  0  0  0
  -23.7155  -23.4007   21.0638 C   0  0  0  0  0  0  0  0  0  0  0  0
  -21.0625  -21.6452   20.4297 C   0  0  0  0  0  0  0  0  0  0  0  0
  -19.6819  -18.5695   19.8998 C   0  0  0  0  0  0  0  0  0  0  0  0
  -31.1970  -13.0042   21.0792 C   0  0  0  0  0  0  0  0  0  0  0  0
  -23.0591  -28.4554   21.3413 C   0  0  0  0  0  0  0  0  0  0  0  0
  -24.4854  -22.0156   19.1030 C   0  0  0  0  0  0  0  0  0  0  0  0
  -23.1178  -20.3670   21.1418 C   0  0  0  0  0  0  0  0  0  0  0  0
  -22.2207  -27.2253   21.6797 C   0  0  0  0  0  0  0  0  0  0  0  0
  -29.3437  -12.9881   18.0392 C   0  0  0  0  0  0  0  0  0  0  0  0
  -23.0348  -26.2355   22.5069 C   0  0  0  0  0  0  0  0  0  0  0  0
  -27.8935  -12.8193   18.4958 C   0  0  0  0  0  0  0  0  0  0  0  0
  -30.3076  -12.1907   18.9151 C   0  0  0  0  0  0  0  0  0  0  0  0
  -28.7445  -12.2879   20.8179 C   0  0  0  0  0  0  0  0  0  0  0  0
  -24.2567  -25.7374   21.7256 C   0  0  1  0  0  0  0  0  0  0  0  0
  -23.2980  -22.5463   19.9005 C   0  0  1  0  0  0  0  0  0  0  0  0
  -27.7407  -13.1178   19.9994 C   0  0  2  0  0  0  0  0  0  0  0  0
  -33.3359  -20.3150   22.7704 C   0  0  0  0  0  0  0  0  0  0  0  0
  -33.2833  -20.1690   25.2865 C   0  0  0  0  0  0  0  0  0  0  0  0
  -27.6041  -16.3291   25.1114 C   0  0  0  0  0  0  0  0  0  0  0  0
  -17.4830  -17.4491   19.4452 C   0  0  0  0  0  0  0  0  0  0  0  0
  -20.2756  -22.0080   23.3552 C   0  0  0  0  0  0  0  0  0  0  0  0
  -18.6406  -20.1327   23.0757 C   0  0  0  0  0  0  0  0  0  0  0  0
  -18.3845  -22.2190   21.7324 C   0  0  0  0  0  0  0  0  0  0  0  0
  -20.6298  -17.5022   17.3073 C   0  0  0  0  0  0  0  0  0  0  0  0
  -31.9947  -15.3305   23.3011 C   0  0  0  0  0  0  0  0  0  0  0  0
  -31.9361  -13.8105   23.3070 C   0  0  0  0  0  0  0  0  0  0  0  0
  -26.8408  -17.4382   22.9787 C   0  0  0  0  0  0  0  0  0  1  0  0
  -32.4323  -20.3732   24.0177 C   0  0  0  0  0  0  0  0  0  0  0  0
  -28.0262  -16.8025   23.7177 C   0  0  1  0  0  0  0  0  0  0  0  0
  -20.2583  -20.6132   21.1827 C   0  0  1  0  0  0  0  0  0  0  0  0
  -18.7312  -18.0628   18.8304 C   0  0  2  0  0  0  0  0  0  0  0  0
  -19.4173  -21.2393   22.3308 C   0  0  0  0  0  0  0  0  0  0  0  0
  -28.9337  -19.0591   23.8683 N   0  0  0  0  0  0  0  0  0  0  0  0
  -25.9579  -11.7123   20.9629 N   0  0  0  0  0  0  0  0  0  0  0  0
  -31.5721  -18.1083   23.8675 N   0  0  0  0  0  0  0  0  0  0  0  0
  -26.3126  -12.9107   20.4689 N   0  0  0  0  0  0  0  0  0  0  0  0
  -22.4544  -21.4766   20.4374 N   0  0  0  0  0  0  0  0  0  0  0  0
  -30.1123  -12.5215   20.3287 N   0  0  0  0  0  0  0  0  0  0  0  0
  -25.4829  -15.0771   19.9901 N   0  0  0  0  0  0  0  0  0  0  0  0
  -21.8911  -12.9405   21.7019 N   0  0  0  0  0  0  0  0  0  0  0  0
  -30.7462  -15.8847   23.7196 N   0  0  0  0  0  0  0  0  0  0  0  0
  -23.8630  -24.7393   20.7543 N   0  0  0  0  0  0  0  0  0  0  0  0
  -19.4687  -19.9020   20.1831 N   0  0  0  0  0  0  0  0  0  0  0  0
  -30.9243  -13.2994   22.4094 N   0  0  0  0  0  0  0  0  0  0  0  0
  -19.3993  -17.0280   17.9914 N   0  3  0  0  0  0  0  0  0  0  0  0
  -22.6334  -14.9242   20.8228 O   0  0  0  0  0  0  0  0  0  0  0  0
  -23.8895  -22.8840   22.1612 O   0  0  0  0  0  0  0  0  0  0  0  0
  -20.4769  -22.5631   19.8498 O   0  0  0  0  0  0  0  0  0  0  0  0
  -20.5266  -17.8538   20.4335 O   0  0  0  0  0  0  0  0  0  0  0  0
  -32.3237  -13.1657   20.5981 O   0  0  0  0  0  0  0  0  0  0  0  0
  -21.7374   -7.6642   23.4829 O   0  0  0  0  0  0  0  0  0  0  0  0
  -27.2260  -17.7573   21.6422 O   0  0  0  0  0  0  0  0  0  1  0  0
  -16.6977   -6.7059   21.4614 F   0  0  0  0  0  0  0  0  0  0  0  0
  -21.1092   -5.2291   22.3349 F   0  0  0  0  0  0  0  0  0  0  0  0
  1  2  1  0  0  0  0
  1  5  2  0  0  0  0
  2  6  2  0  0  0  0
  3  8  2  0  0  0  0
  3 16  1  0  0  0  0
  4  9  1  0  0  0  0
  4 16  2  0  0  0  0
  5 18  1  0  0  0  0
  6 20  1  0  0  0  0
  7 10  2  0  0  0  0
  7 19  1  0  0  0  0
  8 22  1  0  0  0  0
  9 22  2  0  0  0  0
 10 23  1  0  0  0  0
 11 12  2  0  0  0  0
 11 24  1  0  0  0  0
 12 25  1  0  0  0  0
 13 21  1  0  0  0  0
 13 23  2  0  0  0  0
 14 25  2  0  0  0  0
 14 26  1  0  0  0  0
 15 28  1  0  0  0  0
 15 65  2  0  0  0  0
 16 27  1  0  0  0  0
 17 27  1  0  0  0  0
 17 31  2  0  0  0  0
 17 32  1  0  0  0  0
 18 20  2  0  0  0  0
 18 37  1  0  0  0  0
 19 21  2  0  0  0  0
 19 38  1  0  0  0  0
 20 46  1  0  0  0  0
 21 39  1  0  0  0  0
 22 83  1  0  0  0  0
 23 84  1  0  0  0  0
 24 26  2  0  0  0  0
 24 83  1  0  0  0  0
 25 85  1  0  0  0  0
 26 86  1  0  0  0  0
 27 66  2  0  0  0  0
 28 60  1  0  0  0  0
 28 67  2  0  0  0  0
 29 30  2  0  0  0  0
 29 61  1  0  0  0  0
 29 65  1  0  0  0  0
 30 67  1  0  0  0  0
 30 73  1  0  0  0  0
 31 68  1  0  0  0  0
 31 71  1  0  0  0  0
 32 72  1  0  0  0  0
 32 78  2  0  0  0  0
 33 47  1  0  0  0  0
 33 74  1  0  0  0  0
 33 79  2  0  0  0  0
 34 62  1  0  0  0  0
 34 69  1  0  0  0  0
 34 80  2  0  0  0  0
 35 63  1  0  0  0  0
 35 75  1  0  0  0  0
 35 81  2  0  0  0  0
 36 70  1  0  0  0  0
 36 76  1  0  0  0  0
 36 82  2  0  0  0  0
 37 40  1  0  0  0  0
 38 47  1  0  0  0  0
 39 69  1  0  0  0  0
 40 42  1  0  0  0  0
 41 43  1  0  0  0  0
 41 44  1  0  0  0  0
 42 46  1  0  0  0  0
 43 48  1  0  0  0  0
 44 70  1  0  0  0  0
 45 48  1  0  0  0  0
 45 70  1  0  0  0  0
 46 74  1  0  0  0  0
 47 69  1  0  0  0  0
 48 68  1  0  0  0  0
 49 60  1  0  0  0  0
 50 60  1  0  0  0  0
 51 61  1  0  0  0  0
 52 63  1  0  0  0  0
 53 64  1  0  0  0  0
 54 64  1  0  0  0  0
 55 64  1  0  0  0  0
 56 77  1  0  0  0  0
 57 58  1  0  0  0  0
 57 73  1  0  0  0  0
 58 76  1  0  0  0  0
 59 61  1  0  0  0  0
 59 84  1  0  0  0  0
 62 64  1  0  0  0  0
 62 75  1  0  0  0  0
 63 77  1  0  0  0  0
 66 68  1  0  0  0  0
M  CHG  1  77   1
M  ISO  4  36 100  59 101  76 100  84 101
M  END
> <Batch ID>
0102

> <Smiles>
CNC(C)C(=O)NC(C(=O)N1Cc2cc([101O:1][101CH2:1]C(C)c3ncc(C(C)C)nc3NCC[100NH:0][100C:0](=O)N3CCCC(n4nc(-c5ccc(Oc6ccc(F)cc6F)cc5)c(C(N)=O)c4N)C3)ccc2CC1C(=O)NC1CCCc2ccccc21)C(C)(C)C

> <Shape>
0.173

> <Color>
0.137

> <Negative vol penalty>
0.000

$$$$

  -OEChem-04052319383D

 87 95  0     1  0  0  0  0  0999 V2000
  -22.5347  -15.8473   24.3883 C   0  0  0  0  0  0  0  0  0  0  0  0
  -22.5930  -17.2238   24.5815 C   0  0  0  0  0  0  0  0  0  0  0  0
  -29.0990  -17.6867   19.3159 C   0  0  0  0  0  0  0  0  0  0  0  0
  -30.4601  -18.1174   21.2650 C   0  0  0  0  0  0  0  0  0  0  0  0
  -22.6737  -15.3180   23.1060 C   0  0  0  0  0  0  0  0  0  0  0  0
  -22.7914  -18.0718   23.4924 C   0  0  0  0  0  0  0  0  0  0  0  0
  -21.0424  -24.5953   21.1049 C   0  0  0  0  0  0  0  0  0  0  0  0
  -26.3531  -26.7722   20.8325 C   0  0  0  0  0  0  0  0  0  0  0  0
  -25.6131  -26.7703   19.6501 C   0  0  0  0  0  0  0  0  0  0  0  0
  -29.6239  -16.3969   19.2343 C   0  0  0  0  0  0  0  0  0  0  0  0
  -30.9850  -16.8276   21.1834 C   0  0  0  0  0  0  0  0  0  0  0  0
  -21.6352  -25.7543   20.6057 C   0  0  0  0  0  0  0  0  0  0  0  0
  -30.3372  -12.8686   18.7272 C   0  0  0  0  0  0  0  0  0  0  0  0
  -29.4473  -11.8196   18.4968 C   0  0  0  0  0  0  0  0  0  0  0  0
  -21.7831  -24.7322   18.4256 C   0  0  0  0  0  0  0  0  0  0  0  0
  -26.5266  -29.1793   20.7200 C   0  0  0  0  0  0  0  0  0  0  0  0
  -28.2729  -12.3680   20.5357 C   0  0  0  0  0  0  0  0  0  0  0  0
  -29.5171  -18.5469   20.3312 C   0  0  0  0  0  0  0  0  0  0  0  0
  -27.8307  -20.2885   21.1251 C   0  0  0  0  0  0  0  0  0  0  0  0
  -22.8643  -16.1605   21.9994 C   0  0  0  0  0  0  0  0  0  0  0  0
  -20.8251  -23.4903   20.2694 C   0  0  0  0  0  0  0  0  0  0  0  0
  -22.9345  -17.5531   22.1943 C   0  0  0  0  0  0  0  0  0  0  0  0
  -21.1850  -23.5614   18.9161 C   0  0  0  0  0  0  0  0  0  0  0  0
  -26.8098  -27.9767   21.3675 C   0  0  0  0  0  0  0  0  0  0  0  0
  -25.3299  -27.9729   19.0026 C   0  0  0  0  0  0  0  0  0  0  0  0
  -25.7867  -29.1774   19.5376 C   0  0  0  0  0  0  0  0  0  0  0  0
  -30.5668  -15.9674   20.1681 C   0  0  0  0  0  0  0  0  0  0  0  0
  -22.0083  -25.8218   19.2665 C   0  0  0  0  0  0  0  0  0  0  0  0
  -30.1951  -13.6673   19.8620 C   0  0  0  0  0  0  0  0  0  0  0  0
  -28.4151  -11.5693   19.4010 C   0  0  0  0  0  0  0  0  0  0  0  0
  -29.1630  -13.4170   20.7662 C   0  0  0  0  0  0  0  0  0  0  0  0
  -28.9757  -19.8795   20.4156 C   0  0  0  0  0  0  0  0  0  0  0  0
  -27.7440  -21.6387   20.8883 C   0  0  0  0  0  0  0  0  0  0  0  0
  -26.9262  -19.5170   21.9267 C   0  0  0  0  0  0  0  0  0  0  0  0
  -21.8461  -20.4805   20.2197 C   0  0  0  0  0  0  0  0  0  0  0  0
  -19.7301  -20.2131   17.7757 C   0  0  0  0  0  0  0  0  0  0  0  0
  -17.9581  -21.7494   15.2965 C   0  0  0  0  0  0  0  0  0  0  0  0
  -30.1231  -26.6703   20.4782 C   0  0  0  0  0  0  0  0  0  0  0  0
  -23.0567  -15.5392   20.6386 C   0  0  0  0  0  0  0  0  0  0  0  0
  -20.1602  -22.2573   20.8170 C   0  0  0  0  0  0  0  0  0  0  0  0
  -20.9548  -22.4101   17.9727 C   0  0  0  0  0  0  0  0  0  0  0  0
  -22.8893  -16.5285   19.4882 C   0  0  0  0  0  0  0  0  0  0  0  0
  -30.2338  -24.5716   17.6042 C   0  0  0  0  0  0  0  0  0  0  0  0
  -23.6571  -17.8151   19.7746 C   0  0  0  0  0  0  0  0  0  0  0  0
  -29.8282  -23.1971   18.1391 C   0  0  0  0  0  0  0  0  0  0  0  0
  -31.0772  -25.3445   18.6158 C   0  0  0  0  0  0  0  0  0  0  0  0
  -30.0661  -24.1026   20.4891 C   0  0  0  0  0  0  0  0  0  0  0  0
  -23.1236  -18.5070   21.0348 C   0  0  1  0  0  0  0  0  0  0  0  0
  -20.4557  -21.0050   19.9974 C   0  0  1  0  0  0  0  0  0  0  0  0
  -29.1673  -23.3079   19.5263 C   0  0  2  0  0  0  0  0  0  0  0  0
  -24.0789  -31.3794   20.8024 C   0  0  0  0  0  0  0  0  0  0  0  0
  -27.9640  -31.0750   18.4872 C   0  0  0  0  0  0  0  0  0  0  0  0
  -25.4403  -27.8757   16.4907 C   0  0  0  0  0  0  0  0  0  0  0  0
  -16.3429  -21.2638   13.4383 C   0  0  0  0  0  0  0  0  0  0  0  0
  -22.0122  -19.0934   16.0879 C   0  0  0  0  0  0  0  0  0  0  0  0
  -20.6223  -19.5219   14.0500 C   0  0  0  0  0  0  0  0  0  0  0  0
  -19.8224  -17.9229   15.7895 C   0  0  0  0  0  0  0  0  0  0  0  0
  -15.8740  -23.4703   16.5022 C   0  0  0  0  0  0  0  0  0  0  0  0
  -27.6013  -27.9784   22.6314 C   0  0  0  0  0  0  0  0  0  0  0  0
  -24.1418  -31.1061   19.3042 C   0  0  0  0  0  0  0  0  0  0  0  0
  -26.6254  -31.5320   19.0550 C   0  0  0  0  0  0  0  0  0  0  0  0
  -29.1138  -27.8585   22.4092 C   0  0  0  0  0  0  0  0  0  0  0  0
  -23.5074  -26.7942   17.6971 C   0  0  0  0  0  0  0  0  0  1  0  0
  -24.5225  -27.9452   17.7144 C   0  0  1  0  0  0  0  0  0  0  0  0
  -25.4960  -30.4772   18.8617 C   0  0  0  0  0  0  0  0  0  0  0  0
  -19.7954  -20.4031   16.2795 C   0  0  1  0  0  0  0  0  0  0  0  0
  -16.4959  -21.6588   14.8989 C   0  0  2  0  0  0  0  0  0  0  0  0
  -20.5693  -19.2565   15.5697 C   0  0  0  0  0  0  0  0  0  0  0  0
  -29.5735  -20.8882   19.7759 N   0  0  0  0  0  0  0  0  0  0  0  0
  -28.8011  -21.9443   20.0824 N   0  0  0  0  0  0  0  0  0  0  0  0
  -20.3073  -21.2240   18.5572 N   0  0  0  0  0  0  0  0  0  0  0  0
  -30.3933  -25.4147   19.9094 N   0  0  0  0  0  0  0  0  0  0  0  0
  -26.8675  -22.5823   21.2928 N   0  0  0  0  0  0  0  0  0  0  0  0
  -27.1621  -18.1424   22.0648 N   0  0  0  0  0  0  0  0  0  0  0  0
  -21.8883  -19.2030   20.7447 N   0  0  0  0  0  0  0  0  0  0  0  0
  -18.4174  -20.5628   15.8278 N   0  0  0  0  0  0  0  0  0  0  0  0
  -29.4663  -26.6473   21.7024 N   0  0  0  0  0  0  0  0  0  0  0  0
  -15.8211  -22.9717   15.1038 N   0  3  0  0  0  0  0  0  0  0  0  0
  -25.9289  -20.0284   22.4899 O   0  0  0  0  0  0  0  0  0  0  0  0
  -22.8094  -21.1824   19.9346 O   0  0  0  0  0  0  0  0  0  0  0  0
  -19.1808  -19.2083   18.2343 O   0  0  0  0  0  0  0  0  0  0  0  0
  -18.6271  -22.7695   15.1469 O   0  0  0  0  0  0  0  0  0  0  0  0
  -30.4387  -27.7332   19.9327 O   0  0  0  0  0  0  0  0  0  0  0  0
  -31.0791  -14.7089   20.0890 O   0  0  0  0  0  0  0  0  0  0  0  0
  -22.5877  -26.9516   18.7768 O   0  0  0  0  0  0  0  0  0  1  0  0
  -27.5596  -10.5629   19.1788 F   0  0  0  0  0  0  0  0  0  0  0  0
  -29.0207  -14.1817   21.8575 F   0  0  0  0  0  0  0  0  0  0  0  0
  1  2  1  0  0  0  0
  1  5  2  0  0  0  0
  2  6  2  0  0  0  0
  3 10  2  0  0  0  0
  3 18  1  0  0  0  0
  4 11  1  0  0  0  0
  4 18  2  0  0  0  0
  5 20  1  0  0  0  0
  6 22  1  0  0  0  0
  7 12  2  0  0  0  0
  7 21  1  0  0  0  0
  8  9  2  0  0  0  0
  8 24  1  0  0  0  0
  9 25  1  0  0  0  0
 10 27  1  0  0  0  0
 11 27  2  0  0  0  0
 12 28  1  0  0  0  0
 13 14  2  0  0  0  0
 13 29  1  0  0  0  0
 14 30  1  0  0  0  0
 15 23  1  0  0  0  0
 15 28  2  0  0  0  0
 16 24  2  0  0  0  0
 16 26  1  0  0  0  0
 17 30  2  0  0  0  0
 17 31  1  0  0  0  0
 18 32  1  0  0  0  0
 19 32  1  0  0  0  0
 19 33  2  0  0  0  0
 19 34  1  0  0  0  0
 20 22  2  0  0  0  0
 20 39  1  0  0  0  0
 21 23  2  0  0  0  0
 21 40  1  0  0  0  0
 22 48  1  0  0  0  0
 23 41  1  0  0  0  0
 24 59  1  0  0  0  0
 25 26  2  0  0  0  0
 25 64  1  0  0  0  0
 26 65  1  0  0  0  0
 27 84  1  0  0  0  0
 28 85  1  0  0  0  0
 29 31  2  0  0  0  0
 29 84  1  0  0  0  0
 30 86  1  0  0  0  0
 31 87  1  0  0  0  0
 32 69  2  0  0  0  0
 33 70  1  0  0  0  0
 33 73  1  0  0  0  0
 34 74  1  0  0  0  0
 34 79  2  0  0  0  0
 35 49  1  0  0  0  0
 35 75  1  0  0  0  0
 35 80  2  0  0  0  0
 36 66  1  0  0  0  0
 36 71  1  0  0  0  0
 36 81  2  0  0  0  0
 37 67  1  0  0  0  0
 37 76  1  0  0  0  0
 37 82  2  0  0  0  0
 38 72  1  0  0  0  0
 38 77  1  0  0  0  0
 38 83  2  0  0  0  0
 39 42  1  0  0  0  0
 40 49  1  0  0  0  0
 41 71  1  0  0  0  0
 42 44  1  0  0  0  0
 43 45  1  0  0  0  0
 43 46  1  0  0  0  0
 44 48  1  0  0  0  0
 45 50  1  0  0  0  0
 46 72  1  0  0  0  0
 47 50  1  0  0  0  0
 47 72  1  0  0  0  0
 48 75  1  0  0  0  0
 49 71  1  0  0  0  0
 50 70  1  0  0  0  0
 51 60  1  0  0  0  0
 52 61  1  0  0  0  0
 53 64  1  0  0  0  0
 54 67  1  0  0  0  0
 55 68  1  0  0  0  0
 56 68  1  0  0  0  0
 57 68  1  0  0  0  0
 58 78  1  0  0  0  0
 59 62  1  0  0  0  0
 60 65  1  0  0  0  0
 61 65  1  0  0  0  0
 62 77  1  0  0  0  0
 63 64  1  0  0  0  0
 63 85  1  0  0  0  0
 66 68  1  0  0  0  0
 66 76  1  0  0  0  0
 67 78  1  0  0  0  0
 69 70  1  0  0  0  0
M  CHG  1  78   1
M  ISO  4  38 100  63 101  77 100  85 101
M  END
> <Batch ID>
0102

> <Smiles>
CCC(CC)c1cc(CC[100NH:0][100C:0](=O)N2CCCC(n3nc(-c4ccc(Oc5ccc(F)cc5F)cc4)c(C(N)=O)c3N)C2)ccc1C(C)[101CH2:1][101O:1]c1ccc2c(c1)CN(C(=O)C(NC(=O)C(C)NC)C(C)(C)C)C(C(=O)NC1CCCc3ccccc31)C2

> <Shape>
0.208

> <Color>
0.060

> <Negative vol penalty>
0.000

$$$$

  -OEChem-04052319383D

 84 92  0     1  0  0  0  0  0999 V2000
  -34.0146  -34.2791   20.0596 C   0  0  0  0  0  0  0  0  0  0  0  0
  -33.7926  -33.0102   19.5342 C   0  0  0  0  0  0  0  0  0  0  0  0
  -24.3907   -8.8217   21.7162 C   0  0  0  0  0  0  0  0  0  0  0  0
  -24.4547  -10.3598   23.5783 C   0  0  0  0  0  0  0  0  0  0  0  0
  -33.5136  -34.6086   21.3183 C   0  0  0  0  0  0  0  0  0  0  0  0
  -33.0703  -32.0696   20.2678 C   0  0  0  0  0  0  0  0  0  0  0  0
  -28.5378  -26.5916   19.3936 C   0  0  0  0  0  0  0  0  0  0  0  0
  -24.0609   -7.7823   22.5860 C   0  0  0  0  0  0  0  0  0  0  0  0
  -24.1247   -9.3204   24.4481 C   0  0  0  0  0  0  0  0  0  0  0  0
  -28.3761  -25.2577   19.7652 C   0  0  0  0  0  0  0  0  0  0  0  0
  -21.3468   -7.6277   25.3635 C   0  0  0  0  0  0  0  0  0  0  0  0
  -20.3675   -7.8757   26.3253 C   0  0  0  0  0  0  0  0  0  0  0  0
  -27.4907  -25.9645   21.8949 C   0  0  0  0  0  0  0  0  0  0  0  0
  -28.7670  -20.2731   21.2379 C   0  0  0  0  0  0  0  0  0  0  0  0
  -21.9634   -7.3946   28.0742 C   0  0  0  0  0  0  0  0  0  0  0  0
  -24.5877  -10.1104   22.2123 C   0  0  0  0  0  0  0  0  0  0  0  0
  -24.0407  -12.0412   20.6374 C   0  0  0  0  0  0  0  0  0  0  0  0
  -32.7766  -33.6747   22.0635 C   0  0  0  0  0  0  0  0  0  0  0  0
  -28.1867  -27.6238   20.2756 C   0  0  0  0  0  0  0  0  0  0  0  0
  -32.5601  -32.3865   21.5382 C   0  0  0  0  0  0  0  0  0  0  0  0
  -27.6465  -27.3108   21.5311 C   0  0  0  0  0  0  0  0  0  0  0  0
  -27.8089  -21.2908   21.0070 C   0  0  0  0  0  0  0  0  0  0  0  0
  -23.9278   -8.0317   23.9519 C   0  0  0  0  0  0  0  0  0  0  0  0
  -27.8552  -24.9439   21.0171 C   0  0  0  0  0  0  0  0  0  0  0  0
  -22.6344   -7.2630   25.7570 C   0  0  0  0  0  0  0  0  0  0  0  0
  -20.6758   -7.7592   27.6806 C   0  0  0  0  0  0  0  0  0  0  0  0
  -22.9427   -7.1465   27.1124 C   0  0  0  0  0  0  0  0  0  0  0  0
  -24.9290  -11.1843   21.3144 C   0  0  0  0  0  0  0  0  0  0  0  0
  -28.0989  -19.1920   21.7690 C   0  0  0  0  0  0  0  0  0  0  0  0
  -26.5844  -20.8007   21.4042 C   0  0  0  0  0  0  0  0  0  0  0  0
  -24.8550  -12.8806   19.9172 C   0  0  0  0  0  0  0  0  0  0  0  0
  -22.6075  -12.0754   20.6578 C   0  0  0  0  0  0  0  0  0  0  0  0
  -29.7650  -29.9765   21.7169 C   0  0  0  0  0  0  0  0  0  0  0  0
  -26.7935  -30.8605   22.6715 C   0  0  0  0  0  0  0  0  0  0  0  0
  -23.5656  -29.9539   23.3081 C   0  0  0  0  0  0  0  0  0  0  0  0
  -30.5212  -14.6756   20.6404 C   0  0  0  0  0  0  0  0  0  0  0  0
  -32.2955  -34.0614   23.4397 C   0  0  0  0  0  0  0  0  0  0  0  0
  -28.3423  -29.0578   19.8493 C   0  0  0  0  0  0  0  0  0  0  0  0
  -27.2352  -28.3819   22.5068 C   0  0  0  0  0  0  0  0  0  0  0  0
  -31.2198  -33.1301   23.9928 C   0  0  0  0  0  0  0  0  0  0  0  0
  -29.1427  -13.0307   17.7995 C   0  0  0  0  0  0  0  0  0  0  0  0
  -31.6173  -31.6722   23.7847 C   0  0  0  0  0  0  0  0  0  0  0  0
  -27.8263  -12.4483   18.3171 C   0  0  0  0  0  0  0  0  0  0  0  0
  -30.2398  -12.9760   18.8604 C   0  0  0  0  0  0  0  0  0  0  0  0
  -28.5670  -13.0094   20.6699 C   0  0  0  0  0  0  0  0  0  0  0  0
  -31.7602  -31.3470   22.2929 C   0  0  1  0  0  0  0  0  0  0  0  0
  -28.4316  -30.0246   21.0260 C   0  0  1  0  0  0  0  0  0  0  0  0
  -27.4148  -13.0937   19.6541 C   0  0  2  0  0  0  0  0  0  0  0  0
  -25.2507  -21.4387   21.3838 C   0  0  0  0  0  0  0  0  0  0  0  0
  -21.3794  -30.8872   24.1125 C   0  0  0  0  0  0  0  0  0  0  0  0
  -25.9515  -18.3065   23.8501 C   0  0  0  0  0  0  0  0  0  0  0  0
  -25.5553  -17.4049   21.5185 C   0  0  0  0  0  0  0  0  0  0  0  0
  -27.8484  -30.8572   25.5346 C   0  0  0  0  0  0  0  0  0  0  0  0
  -25.4760  -30.8503   26.3347 C   0  0  0  0  0  0  0  0  0  0  0  0
  -26.3296  -32.7664   24.9846 C   0  0  0  0  0  0  0  0  0  0  0  0
  -22.2125  -29.2906   20.7609 C   0  0  0  0  0  0  0  0  0  0  0  0
  -28.0853  -22.6498   20.4341 C   0  0  0  0  0  0  0  0  0  1  0  0
  -28.6158  -17.8736   22.1901 C   0  0  0  0  0  0  0  0  0  0  0  0
  -30.1400  -17.6815   22.0055 C   0  0  0  0  0  0  0  0  0  0  0  0
  -30.6606  -16.3287   22.4863 C   0  0  0  0  0  0  0  0  0  0  0  0
  -25.9124  -30.5431   23.8555 C   0  0  1  0  0  0  0  0  0  0  0  0
  -22.2443  -30.5800   22.8999 C   0  0  2  0  0  0  0  0  0  0  0  0
  -25.7311  -18.6585   22.3776 C   0  0  0  0  0  0  0  0  0  0  0  0
  -26.4010  -31.2338   25.1600 C   0  0  0  0  0  0  0  0  0  0  0  0
  -26.2097  -11.4544   21.0480 N   0  0  0  0  0  0  0  0  0  0  0  0
  -26.7728  -19.5242   21.8659 N   0  0  0  0  0  0  0  0  0  0  0  0
  -26.1320  -12.4904   20.1955 N   0  0  0  0  0  0  0  0  0  0  0  0
  -27.4127  -29.7690   22.0461 N   0  0  0  0  0  0  0  0  0  0  0  0
  -29.7865  -13.6060   20.1028 N   0  0  0  0  0  0  0  0  0  0  0  0
  -24.5963  -13.9069   19.0793 N   0  0  0  0  0  0  0  0  0  0  0  0
  -21.9281  -11.1413   21.4517 N   0  0  0  0  0  0  0  0  0  0  0  0
  -30.4578  -31.1717   21.6868 N   0  0  0  0  0  0  0  0  0  0  0  0
  -24.5544  -30.9025   23.4617 N   0  0  0  0  0  0  0  0  0  0  0  0
  -30.0191  -15.2194   21.8164 N   0  0  0  0  0  0  0  0  0  0  0  0
  -21.4888  -29.6582   22.0051 N   0  3  0  0  0  0  0  0  0  0  0  0
  -21.9484  -12.8990   19.9790 O   0  0  0  0  0  0  0  0  0  0  0  0
  -30.1371  -28.9326   22.2400 O   0  0  0  0  0  0  0  0  0  0  0  0
  -26.9219  -32.0329   22.3103 O   0  0  0  0  0  0  0  0  0  0  0  0
  -23.7055  -28.7447   23.4776 O   0  0  0  0  0  0  0  0  0  0  0  0
  -31.5457  -15.1170   20.1088 O   0  0  0  0  0  0  0  0  0  0  0  0
  -23.6057   -7.0178   24.8009 O   0  0  0  0  0  0  0  0  0  0  0  0
  -27.6970  -23.6426   21.3826 O   0  0  0  0  0  0  0  0  0  1  0  0
  -19.7357   -7.9990   28.6042 F   0  0  0  0  0  0  0  0  0  0  0  0
  -24.1782   -6.7977   27.4966 F   0  0  0  0  0  0  0  0  0  0  0  0
  1  2  1  0  0  0  0
  1  5  2  0  0  0  0
  2  6  2  0  0  0  0
  3  8  2  0  0  0  0
  3 16  1  0  0  0  0
  4  9  1  0  0  0  0
  4 16  2  0  0  0  0
  5 18  1  0  0  0  0
  6 20  1  0  0  0  0
  7 10  2  0  0  0  0
  7 19  1  0  0  0  0
  8 23  1  0  0  0  0
  9 23  2  0  0  0  0
 10 24  1  0  0  0  0
 11 12  2  0  0  0  0
 11 25  1  0  0  0  0
 12 26  1  0  0  0  0
 13 21  1  0  0  0  0
 13 24  2  0  0  0  0
 14 22  1  0  0  0  0
 14 29  2  0  0  0  0
 15 26  2  0  0  0  0
 15 27  1  0  0  0  0
 16 28  1  0  0  0  0
 17 28  1  0  0  0  0
 17 31  2  0  0  0  0
 17 32  1  0  0  0  0
 18 20  2  0  0  0  0
 18 37  1  0  0  0  0
 19 21  2  0  0  0  0
 19 38  1  0  0  0  0
 20 46  1  0  0  0  0
 21 39  1  0  0  0  0
 22 30  2  0  0  0  0
 22 57  1  0  0  0  0
 23 81  1  0  0  0  0
 24 82  1  0  0  0  0
 25 27  2  0  0  0  0
 25 81  1  0  0  0  0
 26 83  1  0  0  0  0
 27 84  1  0  0  0  0
 28 65  2  0  0  0  0
 29 58  1  0  0  0  0
 29 66  1  0  0  0  0
 30 49  1  0  0  0  0
 30 66  1  0  0  0  0
 31 67  1  0  0  0  0
 31 70  1  0  0  0  0
 32 71  1  0  0  0  0
 32 76  2  0  0  0  0
 33 47  1  0  0  0  0
 33 72  1  0  0  0  0
 33 77  2  0  0  0  0
 34 61  1  0  0  0  0
 34 68  1  0  0  0  0
 34 78  2  0  0  0  0
 35 62  1  0  0  0  0
 35 73  1  0  0  0  0
 35 79  2  0  0  0  0
 36 69  1  0  0  0  0
 36 74  1  0  0  0  0
 36 80  2  0  0  0  0
 37 40  1  0  0  0  0
 38 47  1  0  0  0  0
 39 68  1  0  0  0  0
 40 42  1  0  0  0  0
 41 43  1  0  0  0  0
 41 44  1  0  0  0  0
 42 46  1  0  0  0  0
 43 48  1  0  0  0  0
 44 69  1  0  0  0  0
 45 48  1  0  0  0  0
 45 69  1  0  0  0  0
 46 72  1  0  0  0  0
 47 68  1  0  0  0  0
 48 67  1  0  0  0  0
 50 62  1  0  0  0  0
 51 63  1  0  0  0  0
 52 63  1  0  0  0  0
 53 64  1  0  0  0  0
 54 64  1  0  0  0  0
 55 64  1  0  0  0  0
 56 75  1  0  0  0  0
 57 82  1  0  0  0  0
 58 59  1  0  0  0  0
 59 60  1  0  0  0  0
 60 74  1  0  0  0  0
 61 64  1  0  0  0  0
 61 73  1  0  0  0  0
 62 75  1  0  0  0  0
 63 66  1  0  0  0  0
 65 67  1  0  0  0  0
M  CHG  1  75   1
M  ISO  4  36 100  57 101  74 100  82 101
M  END
> <Batch ID>
0102

> <Smiles>
CNC(C)C(=O)NC(C(=O)N1Cc2cc([101O:1][101CH2:1]c3cc(CCC[100NH:0][100C:0](=O)N4CCCC(n5nc(-c6ccc(Oc7ccc(F)cc7F)cc6)c(C(N)=O)c5N)C4)n(C(C)C)c3C)ccc2CC1C(=O)NC1CCCc2ccccc21)C(C)(C)C

> <Shape>
0.263

> <Color>
0.116

> <Negative vol penalty>
0.000

$$$$

  -OEChem-04052319383D

 79 87  0     1  0  0  0  0  0999 V2000
  -29.6971   -3.6489   24.9201 C   0  0  0  0  0  0  0  0  0  0  0  0
  -30.0966   -4.9753   25.0482 C   0  0  0  0  0  0  0  0  0  0  0  0
  -22.8517  -10.1111   20.1202 C   0  0  0  0  0  0  0  0  0  0  0  0
  -24.3443   -9.5508   21.9355 C   0  0  0  0  0  0  0  0  0  0  0  0
  -28.3894   -3.2823   25.2355 C   0  0  0  0  0  0  0  0  0  0  0  0
  -29.1882   -5.9362   25.4907 C   0  0  0  0  0  0  0  0  0  0  0  0
  -31.1793   -9.0389   28.9626 C   0  0  0  0  0  0  0  0  0  0  0  0
  -22.1646   -8.9131   20.3153 C   0  0  0  0  0  0  0  0  0  0  0  0
  -23.6571   -8.3527   22.1306 C   0  0  0  0  0  0  0  0  0  0  0  0
  -32.0179  -10.0536   28.5035 C   0  0  0  0  0  0  0  0  0  0  0  0
  -20.7814   -7.3416   23.5897 C   0  0  0  0  0  0  0  0  0  0  0  0
  -20.4663   -6.9830   24.9003 C   0  0  0  0  0  0  0  0  0  0  0  0
  -30.1984  -11.6279   28.6776 C   0  0  0  0  0  0  0  0  0  0  0  0
  -21.7570   -4.9553   24.6558 C   0  0  0  0  0  0  0  0  0  0  0  0
  -23.9416  -10.4300   20.9303 C   0  0  0  0  0  0  0  0  0  0  0  0
  -24.1294  -12.9715   20.8148 C   0  0  0  0  0  0  0  0  0  0  0  0
  -27.4672   -4.2375   25.6913 C   0  0  0  0  0  0  0  0  0  0  0  0
  -29.8387   -9.3092   29.2728 C   0  0  0  0  0  0  0  0  0  0  0  0
  -27.8665   -5.5823   25.8112 C   0  0  0  0  0  0  0  0  0  0  0  0
  -29.3455  -10.6154   29.1428 C   0  0  0  0  0  0  0  0  0  0  0  0
  -22.5673   -8.0339   21.3205 C   0  0  0  0  0  0  0  0  0  0  0  0
  -31.5268  -11.3477   28.3582 C   0  0  0  0  0  0  0  0  0  0  0  0
  -21.5843   -6.5070   22.8121 C   0  0  0  0  0  0  0  0  0  0  0  0
  -20.9541   -5.7899   25.4334 C   0  0  0  0  0  0  0  0  0  0  0  0
  -22.0721   -5.3139   23.3452 C   0  0  0  0  0  0  0  0  0  0  0  0
  -24.6522  -11.6672   20.7289 C   0  0  0  0  0  0  0  0  0  0  0  0
  -25.1988  -13.7887   20.5412 C   0  0  0  0  0  0  0  0  0  0  0  0
  -22.7963  -13.4054   21.1153 C   0  0  0  0  0  0  0  0  0  0  0  0
  -27.0336   -8.3086   28.1621 C   0  0  0  0  0  0  0  0  0  0  0  0
  -25.8712  -10.0508   30.6392 C   0  0  0  0  0  0  0  0  0  0  0  0
  -26.5629  -13.2466   32.1644 C   0  0  0  0  0  0  0  0  0  0  0  0
  -31.0381  -13.2332   21.0615 C   0  0  0  0  0  0  0  0  0  0  0  0
  -26.0514   -3.8020   25.9749 C   0  0  0  0  0  0  0  0  0  0  0  0
  -28.9541   -8.2092   29.7922 C   0  0  0  0  0  0  0  0  0  0  0  0
  -27.9195  -10.9620   29.4816 C   0  0  0  0  0  0  0  0  0  0  0  0
  -25.2554   -4.8144   26.7946 C   0  0  0  0  0  0  0  0  0  0  0  0
  -29.3172  -13.9002   18.1256 C   0  0  0  0  0  0  0  0  0  0  0  0
  -25.4465   -6.2212   26.2369 C   0  0  0  0  0  0  0  0  0  0  0  0
  -32.1519  -15.1075   25.3445 C   0  0  0  0  0  0  0  0  0  0  0  0
  -33.3239  -12.8695   25.2699 C   0  0  0  0  0  0  0  0  0  0  0  0
  -27.8716  -13.5303   18.4549 C   0  0  0  0  0  0  0  0  0  0  0  0
  -31.1548  -14.6228   24.2916 C   0  0  0  0  0  0  0  0  0  0  0  0
  -32.3293  -12.3812   24.2163 C   0  0  0  0  0  0  0  0  0  0  0  0
  -30.2878  -12.8913   18.7277 C   0  0  0  0  0  0  0  0  0  0  0  0
  -28.7072  -12.3631   20.5563 C   0  0  0  0  0  0  0  0  0  0  0  0
  -26.9171   -6.6492   26.3117 C   0  0  1  0  0  0  0  0  0  0  0  0
  -27.4686   -8.4906   29.5887 C   0  0  1  0  0  0  0  0  0  0  0  0
  -32.7499  -13.9657   26.1790 C   0  0  0  0  0  0  0  0  0  0  0  0
  -27.6796  -13.3536   19.9713 C   0  0  2  0  0  0  0  0  0  0  0  0
  -31.7669  -13.5435   23.3961 C   0  0  0  0  0  0  0  0  0  0  0  0
  -26.1985  -14.0454   34.5152 C   0  0  0  0  0  0  0  0  0  0  0  0
  -23.2207  -11.1096   29.5604 C   0  0  0  0  0  0  0  0  0  0  0  0
  -23.5156  -13.1275   31.0128 C   0  0  0  0  0  0  0  0  0  0  0  0
  -23.3123  -10.8670   32.0478 C   0  0  0  0  0  0  0  0  0  0  0  0
  -29.7557  -12.1790   22.9718 C   0  0  0  0  0  0  0  0  0  0  0  0
  -29.4031  -14.0224   32.4644 C   0  0  0  0  0  0  0  0  0  0  0  0
  -31.7333  -13.4001   27.1745 C   0  0  0  0  0  0  0  0  0  1  0  0
  -25.4387  -11.4849   30.8276 C   0  0  1  0  0  0  0  0  0  0  0  0
  -27.2033  -13.4872   33.5195 C   0  0  2  0  0  0  0  0  0  0  0  0
  -23.8917  -11.6401   30.8431 C   0  0  0  0  0  0  0  0  0  0  0  0
  -25.9525  -11.6519   20.4242 N   0  0  0  0  0  0  0  0  0  0  0  0
  -26.2559  -12.9567   20.3164 N   0  0  0  0  0  0  0  0  0  0  0  0
  -27.0922   -9.8506   29.9797 N   0  0  0  0  0  0  0  0  0  0  0  0
  -30.0737  -12.7447   20.1677 N   0  0  0  0  0  0  0  0  0  0  0  0
  -25.3287  -15.1307   20.4733 N   0  0  0  0  0  0  0  0  0  0  0  0
  -21.8192  -12.4339   21.3717 N   0  0  0  0  0  0  0  0  0  0  0  0
  -27.2615   -7.0409   27.6617 N   0  0  0  0  0  0  0  0  0  0  0  0
  -26.0985  -11.9541   32.0412 N   0  0  0  0  0  0  0  0  0  0  0  0
  -30.7894  -13.0601   22.4314 N   0  0  0  0  0  0  0  0  0  0  0  0
  -28.3296  -14.4553   33.3956 N   0  3  0  0  0  0  0  0  0  0  0  0
  -22.4772  -14.6183   21.1390 O   0  0  0  0  0  0  0  0  0  0  0  0
  -26.5271   -9.2484   27.5603 O   0  0  0  0  0  0  0  0  0  0  0  0
  -25.1557   -9.1421   31.0678 O   0  0  0  0  0  0  0  0  0  0  0  0
  -26.4793  -14.1190   31.3028 O   0  0  0  0  0  0  0  0  0  0  0  0
  -32.0692  -13.7872   20.6588 O   0  0  0  0  0  0  0  0  0  0  0  0
  -21.8969   -6.8648   21.5113 O   0  0  0  0  0  0  0  0  0  0  0  0
  -32.3431  -12.3399   27.9097 O   0  0  0  0  0  0  0  0  0  1  0  0
  -20.6527   -5.4465   26.6925 F   0  0  0  0  0  0  0  0  0  0  0  0
  -22.8448   -4.5086   22.6034 F   0  0  0  0  0  0  0  0  0  0  0  0
  1  2  1  0  0  0  0
  1  5  2  0  0  0  0
  2  6  2  0  0  0  0
  3  8  2  0  0  0  0
  3 15  1  0  0  0  0
  4  9  1  0  0  0  0
  4 15  2  0  0  0  0
  5 17  1  0  0  0  0
  6 19  1  0  0  0  0
  7 10  2  0  0  0  0
  7 18  1  0  0  0  0
  8 21  1  0  0  0  0
  9 21  2  0  0  0  0
 10 22  1  0  0  0  0
 11 12  2  0  0  0  0
 11 23  1  0  0  0  0
 12 24  1  0  0  0  0
 13 20  1  0  0  0  0
 13 22  2  0  0  0  0
 14 24  2  0  0  0  0
 14 25  1  0  0  0  0
 15 26  1  0  0  0  0
 16 26  1  0  0  0  0
 16 27  2  0  0  0  0
 16 28  1  0  0  0  0
 17 19  2  0  0  0  0
 17 33  1  0  0  0  0
 18 20  2  0  0  0  0
 18 34  1  0  0  0  0
 19 46  1  0  0  0  0
 20 35  1  0  0  0  0
 21 76  1  0  0  0  0
 22 77  1  0  0  0  0
 23 25  2  0  0  0  0
 23 76  1  0  0  0  0
 24 78  1  0  0  0  0
 25 79  1  0  0  0  0
 26 61  2  0  0  0  0
 27 62  1  0  0  0  0
 27 65  1  0  0  0  0
 28 66  1  0  0  0  0
 28 71  2  0  0  0  0
 29 47  1  0  0  0  0
 29 67  1  0  0  0  0
 29 72  2  0  0  0  0
 30 58  1  0  0  0  0
 30 63  1  0  0  0  0
 30 73  2  0  0  0  0
 31 59  1  0  0  0  0
 31 68  1  0  0  0  0
 31 74  2  0  0  0  0
 32 64  1  0  0  0  0
 32 69  1  0  0  0  0
 32 75  2  0  0  0  0
 33 36  1  0  0  0  0
 34 47  1  0  0  0  0
 35 63  1  0  0  0  0
 36 38  1  0  0  0  0
 37 41  1  0  0  0  0
 37 44  1  0  0  0  0
 38 46  1  0  0  0  0
 39 42  1  0  0  0  0
 39 48  1  0  0  0  0
 40 43  1  0  0  0  0
 40 48  1  0  0  0  0
 41 49  1  0  0  0  0
 42 50  1  0  0  0  0
 43 50  1  0  0  0  0
 44 64  1  0  0  0  0
 45 49  1  0  0  0  0
 45 64  1  0  0  0  0
 46 67  1  0  0  0  0
 47 63  1  0  0  0  0
 48 57  1  0  0  0  0
 49 62  1  0  0  0  0
 50 69  1  0  0  0  0
 51 59  1  0  0  0  0
 52 60  1  0  0  0  0
 53 60  1  0  0  0  0
 54 60  1  0  0  0  0
 55 69  1  0  0  0  0
 56 70  1  0  0  0  0
 57 77  1  0  0  0  0
 58 60  1  0  0  0  0
 58 68  1  0  0  0  0
 59 70  1  0  0  0  0
 61 62  1  0  0  0  0
M  CHG  1  70   1
M  ISO  4  32 100  57 101  69 100  77 101
M  END
> <Batch ID>
0102

> <Smiles>
CNC(C)C(=O)NC(C(=O)N1Cc2cc([101O:1][101CH2:1]C3CCC([100N:0](C)[100C:0](=O)N4CCCC(n5nc(-c6ccc(Oc7ccc(F)cc7F)cc6)c(C(N)=O)c5N)C4)CC3)ccc2CC1C(=O)NC1CCCc2ccccc21)C(C)(C)C

> <Shape>
0.160

> <Color>
0.193

> <Negative vol penalty>
0.000

$$$$

  -OEChem-04052319383D

 85 93  0     1  0  0  0  0  0999 V2000
  -27.6891  -32.4622   26.9680 C   0  0  0  0  0  0  0  0  0  0  0  0
  -28.0090  -31.1559   27.3237 C   0  0  0  0  0  0  0  0  0  0  0  0
  -23.3770   -9.9552   21.7790 C   0  0  0  0  0  0  0  0  0  0  0  0
  -24.1500  -11.0973   23.7628 C   0  0  0  0  0  0  0  0  0  0  0  0
  -26.9021  -32.7042   25.8429 C   0  0  0  0  0  0  0  0  0  0  0  0
  -27.5411  -30.0907   26.5551 C   0  0  0  0  0  0  0  0  0  0  0  0
  -30.4367  -24.8136   25.4266 C   0  0  0  0  0  0  0  0  0  0  0  0
  -22.7185   -9.0181   22.5751 C   0  0  0  0  0  0  0  0  0  0  0  0
  -23.4915  -10.1602   24.5589 C   0  0  0  0  0  0  0  0  0  0  0  0
  -30.3341  -23.5464   25.9989 C   0  0  0  0  0  0  0  0  0  0  0  0
  -21.7148   -8.2765   27.1110 C   0  0  0  0  0  0  0  0  0  0  0  0
  -20.9715   -8.7506   28.1918 C   0  0  0  0  0  0  0  0  0  0  0  0
  -28.8212  -22.8818   24.2414 C   0  0  0  0  0  0  0  0  0  0  0  0
  -27.1099  -18.8453   22.6038 C   0  0  0  0  0  0  0  0  0  0  0  0
  -29.4261  -19.2577   24.1031 C   0  0  0  0  0  0  0  0  0  0  0  0
  -19.5877  -10.0291   26.6793 C   0  0  0  0  0  0  0  0  0  0  0  0
  -24.0928  -10.9948   22.3729 C   0  0  0  0  0  0  0  0  0  0  0  0
  -24.2539  -13.1740   21.0566 C   0  0  0  0  0  0  0  0  0  0  0  0
  -26.4323  -31.6420   25.0545 C   0  0  0  0  0  0  0  0  0  0  0  0
  -29.7225  -25.1283   24.2616 C   0  0  0  0  0  0  0  0  0  0  0  0
  -26.7459  -30.3186   25.4191 C   0  0  0  0  0  0  0  0  0  0  0  0
  -28.9184  -24.1529   23.6549 C   0  0  0  0  0  0  0  0  0  0  0  0
  -28.3178  -18.2836   22.1900 C   0  0  0  0  0  0  0  0  0  0  0  0
  -27.0602  -19.6133   23.7672 C   0  0  0  0  0  0  0  0  0  0  0  0
  -29.4758  -18.4898   22.9397 C   0  0  0  0  0  0  0  0  0  0  0  0
  -28.2182  -19.8195   24.5169 C   0  0  0  0  0  0  0  0  0  0  0  0
  -22.7757   -9.1206   23.9650 C   0  0  0  0  0  0  0  0  0  0  0  0
  -29.5240  -22.5812   25.4079 C   0  0  0  0  0  0  0  0  0  0  0  0
  -21.3946   -8.6787   25.8143 C   0  0  0  0  0  0  0  0  0  0  0  0
  -19.9080   -9.6269   27.9760 C   0  0  0  0  0  0  0  0  0  0  0  0
  -20.3311   -9.5550   25.5985 C   0  0  0  0  0  0  0  0  0  0  0  0
  -24.7737  -11.9628   21.5510 C   0  0  0  0  0  0  0  0  0  0  0  0
  -25.2876  -13.7236   20.3383 C   0  0  0  0  0  0  0  0  0  0  0  0
  -22.9529  -13.7508   21.2309 C   0  0  0  0  0  0  0  0  0  0  0  0
  -27.4579  -27.2313   23.5180 C   0  0  0  0  0  0  0  0  0  0  0  0
  -27.9450  -26.1071   20.5145 C   0  0  0  0  0  0  0  0  0  0  0  0
  -29.0260  -23.5629   18.5131 C   0  0  0  0  0  0  0  0  0  0  0  0
  -31.2361  -13.1053   20.6295 C   0  0  0  0  0  0  0  0  0  0  0  0
  -25.5453  -31.9507   23.8744 C   0  0  0  0  0  0  0  0  0  0  0  0
  -29.8648  -26.4914   23.6418 C   0  0  0  0  0  0  0  0  0  0  0  0
  -28.1470  -24.4341   22.3923 C   0  0  0  0  0  0  0  0  0  0  0  0
  -25.4012  -30.7850   22.8994 C   0  0  0  0  0  0  0  0  0  0  0  0
  -29.1559  -12.4948   17.8052 C   0  0  0  0  0  0  0  0  0  0  0  0
  -25.1203  -29.4894   23.6540 C   0  0  0  0  0  0  0  0  0  0  0  0
  -27.7501  -12.3985   18.4003 C   0  0  0  0  0  0  0  0  0  0  0  0
  -30.2049  -11.8880   18.7344 C   0  0  0  0  0  0  0  0  0  0  0  0
  -28.7904  -12.3244   20.7048 C   0  0  0  0  0  0  0  0  0  0  0  0
  -26.2778  -29.1379   24.5964 C   0  0  1  0  0  0  0  0  0  0  0  0
  -28.6908  -26.8641   22.7417 C   0  0  1  0  0  0  0  0  0  0  0  0
  -27.7053  -12.9735   19.8288 C   0  0  2  0  0  0  0  0  0  0  0  0
  -28.3466  -17.4646   20.9415 C   0  0  0  0  0  0  0  0  0  0  0  0
  -25.7559  -20.2054   24.1900 C   0  0  0  0  0  0  0  0  0  0  0  0
  -27.9218  -19.8011   27.0178 C   0  0  0  0  0  0  0  0  0  0  0  0
  -29.2646  -22.9210   16.0989 C   0  0  0  0  0  0  0  0  0  0  0  0
  -24.9448  -25.5728   20.3625 C   0  0  0  0  0  0  0  0  0  0  0  0
  -25.3779  -24.1000   18.3847 C   0  0  0  0  0  0  0  0  0  0  0  0
  -25.9414  -26.5277   18.2770 C   0  0  0  0  0  0  0  0  0  0  0  0
  -31.9650  -23.3086   18.7511 C   0  0  0  0  0  0  0  0  0  0  0  0
  -30.7801  -17.8979   22.5167 C   0  0  0  0  0  0  0  0  0  0  0  0
  -32.1225  -14.3257   22.6003 C   0  0  0  0  0  0  0  0  0  0  0  0
  -32.1416  -15.8143   22.3071 C   0  0  0  0  0  0  0  0  0  0  0  0
  -28.1891  -20.6485   25.7804 C   0  0  1  0  0  0  0  0  0  1  0  0
  -27.3663  -24.9859   19.6857 C   0  0  1  0  0  0  0  0  0  0  0  0
  -29.9438  -23.5528   17.3040 C   0  0  2  0  0  0  0  0  0  0  0  0
  -25.9205  -25.2916   19.2024 C   0  0  0  0  0  0  0  0  0  0  0  0
  -26.0393  -11.7546   21.1783 N   0  0  0  0  0  0  0  0  0  0  0  0
  -26.3234  -12.8423   20.4420 N   0  0  0  0  0  0  0  0  0  0  0  0
  -28.3140  -25.7836   21.8280 N   0  0  0  0  0  0  0  0  0  0  0  0
  -30.1100  -12.4772   20.0723 N   0  0  0  0  0  0  0  0  0  0  0  0
  -25.4026  -14.8698   19.6345 N   0  0  0  0  0  0  0  0  0  0  0  0
  -22.0103  -13.0535   21.9988 N   0  0  0  0  0  0  0  0  0  0  0  0
  -27.3812  -28.5700   23.8518 N   0  0  0  0  0  0  0  0  0  0  0  0
  -28.3180  -24.7424   18.6071 N   0  0  0  0  0  0  0  0  0  0  0  0
  -31.0586  -13.6428   21.8985 N   0  0  0  0  0  0  0  0  0  0  0  0
  -31.1844  -22.7825   17.6018 N   0  3  0  0  0  0  0  0  0  0  0  0
  -30.8735  -16.4348   22.7725 N   0  3  0  0  0  0  0  0  0  0  0  0
  -22.6303  -14.8441   20.7073 O   0  0  0  0  0  0  0  0  0  0  0  0
  -26.6363  -26.3645   23.7926 O   0  0  0  0  0  0  0  0  0  0  0  0
  -28.0719  -27.2268   20.0127 O   0  0  0  0  0  0  0  0  0  0  0  0
  -28.9425  -22.6174   19.2939 O   0  0  0  0  0  0  0  0  0  0  0  0
  -32.3178  -13.1860   20.0377 O   0  0  0  0  0  0  0  0  0  0  0  0
  -22.1331   -8.2064   24.7422 O   0  0  0  0  0  0  0  0  0  0  0  0
  -29.4216  -21.3437   25.9647 O   0  0  0  0  0  0  0  0  0  1  0  0
  -19.1933  -10.0810   29.0139 F   0  0  0  0  0  0  0  0  0  0  0  0
  -20.0180   -9.9440   24.3549 F   0  0  0  0  0  0  0  0  0  0  0  0
  1  2  1  0  0  0  0
  1  5  2  0  0  0  0
  2  6  2  0  0  0  0
  3  8  2  0  0  0  0
  3 17  1  0  0  0  0
  4  9  1  0  0  0  0
  4 17  2  0  0  0  0
  5 19  1  0  0  0  0
  6 21  1  0  0  0  0
  7 10  2  0  0  0  0
  7 20  1  0  0  0  0
  8 27  1  0  0  0  0
  9 27  2  0  0  0  0
 10 28  1  0  0  0  0
 11 12  2  0  0  0  0
 11 29  1  0  0  0  0
 12 30  1  0  0  0  0
 13 22  1  0  0  0  0
 13 28  2  0  0  0  0
 14 23  2  0  0  0  0
 14 24  1  0  0  0  0
 15 25  2  0  0  0  0
 15 26  1  0  0  0  0
 16 30  2  0  0  0  0
 16 31  1  0  0  0  0
 17 32  1  0  0  0  0
 18 32  1  0  0  0  0
 18 33  2  0  0  0  0
 18 34  1  0  0  0  0
 19 21  2  0  0  0  0
 19 39  1  0  0  0  0
 20 22  2  0  0  0  0
 20 40  1  0  0  0  0
 21 48  1  0  0  0  0
 22 41  1  0  0  0  0
 23 25  1  0  0  0  0
 23 51  1  0  0  0  0
 24 26  2  0  0  0  0
 24 52  1  0  0  0  0
 25 59  1  0  0  0  0
 26 62  1  0  0  0  0
 27 82  1  0  0  0  0
 28 83  1  0  0  0  0
 29 31  2  0  0  0  0
 29 82  1  0  0  0  0
 30 84  1  0  0  0  0
 31 85  1  0  0  0  0
 32 66  2  0  0  0  0
 33 67  1  0  0  0  0
 33 70  1  0  0  0  0
 34 71  1  0  0  0  0
 34 77  2  0  0  0  0
 35 49  1  0  0  0  0
 35 72  1  0  0  0  0
 35 78  2  0  0  0  0
 36 63  1  0  0  0  0
 36 68  1  0  0  0  0
 36 79  2  0  0  0  0
 37 64  1  0  0  0  0
 37 73  1  0  0  0  0
 37 80  2  0  0  0  0
 38 69  1  0  0  0  0
 38 74  1  0  0  0  0
 38 81  2  0  0  0  0
 39 42  1  0  0  0  0
 40 49  1  0  0  0  0
 41 68  1  0  0  0  0
 42 44  1  0  0  0  0
 43 45  1  0  0  0  0
 43 46  1  0  0  0  0
 44 48  1  0  0  0  0
 45 50  1  0  0  0  0
 46 69  1  0  0  0  0
 47 50  1  0  0  0  0
 47 69  1  0  0  0  0
 48 72  1  0  0  0  0
 49 68  1  0  0  0  0
 50 67  1  0  0  0  0
 53 62  1  0  0  0  0
 54 64  1  0  0  0  0
 55 65  1  0  0  0  0
 56 65  1  0  0  0  0
 57 65  1  0  0  0  0
 58 75  1  0  0  0  0
 59 76  1  0  0  0  0
 60 61  1  0  0  0  0
 60 74  1  0  0  0  0
 61 76  1  0  0  0  0
 62 83  1  0  0  0  0
 63 65  1  0  0  0  0
 63 73  1  0  0  0  0
 64 75  1  0  0  0  0
 66 67  1  0  0  0  0
M  CHG  2  75   1  76   1
M  ISO  4  38 100  62 101  74 100  83 101
M  END
> <Batch ID>
0102

> <Smiles>
CNC(C)C(=O)NC(C(=O)N1Cc2cc([101O:1][101CH:1](C)c3cc(CNCC[100NH:0][100C:0](=O)N4CCCC(n5nc(-c6ccc(Oc7ccc(F)cc7F)cc6)c(C(N)=O)c5N)C4)c(C)cc3C)ccc2CC1C(=O)NC1CCCc2ccccc21)C(C)(C)C

> <Shape>
0.236

> <Color>
0.137

> <Negative vol penalty>
0.000

$$$$

  -OEChem-04052319383D

 83 90  0     1  0  0  0  0  0999 V2000
  -28.8153  -22.3510   11.5779 C   0  0  0  0  0  0  0  0  0  0  0  0
  -29.2697  -21.6443   12.6868 C   0  0  0  0  0  0  0  0  0  0  0  0
  -21.7382  -23.0050   21.9662 C   0  0  0  0  0  0  0  0  0  0  0  0
  -19.6916  -21.7353   22.1566 C   0  0  0  0  0  0  0  0  0  0  0  0
  -28.8153  -23.7452   11.5933 C   0  0  0  0  0  0  0  0  0  0  0  0
  -29.7253  -22.3315   13.8114 C   0  0  0  0  0  0  0  0  0  0  0  0
  -27.9401  -20.3856   18.1324 C   0  0  0  0  0  0  0  0  0  0  0  0
  -21.0012  -24.1452   21.6467 C   0  0  0  0  0  0  0  0  0  0  0  0
  -18.9545  -22.8756   21.8371 C   0  0  0  0  0  0  0  0  0  0  0  0
  -28.5469  -19.2231   18.6058 C   0  0  0  0  0  0  0  0  0  0  0  0
  -19.1799  -26.4745   23.2869 C   0  0  0  0  0  0  0  0  0  0  0  0
  -19.5269  -27.6688   23.9185 C   0  0  0  0  0  0  0  0  0  0  0  0
  -29.8375  -20.5380   20.1629 C   0  0  0  0  0  0  0  0  0  0  0  0
  -19.9847  -28.6725   21.7690 C   0  0  0  0  0  0  0  0  0  0  0  0
  -21.0835  -21.8000   22.2211 C   0  0  0  0  0  0  0  0  0  0  0  0
  -22.2309  -20.1905   23.8338 C   0  0  0  0  0  0  0  0  0  0  0  0
  -29.2621  -24.4497   12.7223 C   0  0  0  0  0  0  0  0  0  0  0  0
  -28.2860  -21.6362   18.6641 C   0  0  0  0  0  0  0  0  0  0  0  0
  -29.7325  -23.7364   13.8414 C   0  0  0  0  0  0  0  0  0  0  0  0
  -29.2317  -21.7146   19.6963 C   0  0  0  0  0  0  0  0  0  0  0  0
  -19.6093  -24.0806   21.5822 C   0  0  0  0  0  0  0  0  0  0  0  0
  -29.4979  -19.2994   19.6192 C   0  0  0  0  0  0  0  0  0  0  0  0
  -19.2353  -26.3792   21.8963 C   0  0  0  0  0  0  0  0  0  0  0  0
  -19.9293  -28.7678   23.1596 C   0  0  0  0  0  0  0  0  0  0  0  0
  -19.6377  -27.4782   21.1374 C   0  0  0  0  0  0  0  0  0  0  0  0
  -21.8443  -20.6216   22.5506 C   0  0  0  0  0  0  0  0  0  0  0  0
  -22.9294  -19.0293   23.6100 C   0  0  0  0  0  0  0  0  0  0  0  0
  -21.9808  -20.7865   25.1136 C   0  0  0  0  0  0  0  0  0  0  0  0
  -29.5795  -24.2923   17.4911 C   0  0  0  0  0  0  0  0  0  0  0  0
  -28.9266  -25.4521   20.4493 C   0  0  0  0  0  0  0  0  0  0  0  0
  -28.3624  -24.8103   23.7533 C   0  0  0  0  0  0  0  0  0  0  0  0
  -23.5894  -14.2326   21.2613 C   0  0  0  0  0  0  0  0  0  0  0  0
  -29.2875  -25.9570   12.6743 C   0  0  0  0  0  0  0  0  0  0  0  0
  -27.6027  -22.8782   18.1611 C   0  0  0  0  0  0  0  0  0  0  0  0
  -29.6233  -23.0309   20.3148 C   0  0  0  0  0  0  0  0  0  0  0  0
  -29.4356  -26.6077   14.0473 C   0  0  0  0  0  0  0  0  0  0  0  0
  -24.6611  -16.9877   19.3293 C   0  0  0  0  0  0  0  0  0  0  0  0
  -30.5406  -25.9235   14.8459 C   0  0  0  0  0  0  0  0  0  0  0  0
  -24.0444  -18.1550   20.0986 C   0  0  0  0  0  0  0  0  0  0  0  0
  -23.7186  -15.7848   19.2575 C   0  0  0  0  0  0  0  0  0  0  0  0
  -22.6041  -16.5028   21.3467 C   0  0  0  0  0  0  0  0  0  0  0  0
  -30.2113  -24.4458   15.0894 C   0  0  1  0  0  0  0  0  0  0  0  0
  -28.4067  -24.1488   18.4194 C   0  0  1  0  0  0  0  0  0  0  0  0
  -23.5541  -17.7024   21.4850 C   0  0  2  0  0  0  0  0  0  0  0  0
  -27.8960  -25.9640   25.9325 C   0  0  0  0  0  0  0  0  0  0  0  0
  -29.5256  -13.8947   22.4658 C   0  0  0  0  0  0  0  0  0  0  0  0
  -31.8564  -26.2840   20.6331 C   0  0  0  0  0  0  0  0  0  0  0  0
  -31.5562  -26.5404   23.1054 C   0  0  0  0  0  0  0  0  0  0  0  0
  -30.2369  -27.9619   21.5365 C   0  0  0  0  0  0  0  0  0  0  0  0
  -28.9609  -11.3872   20.4414 C   0  0  0  0  0  0  0  0  0  0  0  0
  -28.1232  -12.3193   18.2849 C   0  0  0  0  0  0  0  0  0  0  0  0
  -23.2577  -12.8570   19.1631 C   0  0  0  0  0  0  0  0  0  0  0  0
  -25.7575  -23.4384   24.0553 C   0  0  0  0  0  0  0  0  0  0  0  0
  -25.8845  -11.6677   20.3604 C   0  0  0  0  0  0  0  0  0  0  0  0
  -26.8707  -12.8448   20.4345 C   0  0  0  0  0  0  0  0  0  0  0  0
  -29.7806  -16.0411   21.1572 C   0  0  0  0  0  0  0  0  0  0  0  0
  -29.1429  -13.8920   19.9376 C   0  0  0  0  0  0  0  0  0  0  0  0
  -24.5627  -11.9761   21.0623 C   0  0  0  0  0  0  0  0  0  0  0  0
  -29.3266  -16.9633   20.0301 C   0  0  0  0  0  0  0  0  0  1  0  0
  -29.6682  -25.5089   21.7630 C   0  0  1  0  0  0  0  0  0  0  0  0
  -27.2877  -25.3023   24.7058 C   0  0  2  0  0  0  0  0  0  0  0  0
  -29.0273  -14.6962   21.2569 C   0  0  1  0  0  0  0  0  0  0  0  0
  -30.8237  -26.5490   21.7467 C   0  0  0  0  0  0  0  0  0  0  0  0
  -28.2719  -12.5999   19.7973 C   0  0  0  0  0  0  0  0  0  0  0  0
  -22.2627  -19.8011   21.5832 N   0  0  0  0  0  0  0  0  0  0  0  0
  -22.9195  -18.8429   22.2589 N   0  0  0  0  0  0  0  0  0  0  0  0
  -28.9318  -24.2176   19.7846 N   0  0  0  0  0  0  0  0  0  0  0  0
  -23.2374  -15.4160   20.5958 N   0  0  0  0  0  0  0  0  0  0  0  0
  -23.5451  -18.1598   24.4390 N   0  0  0  0  0  0  0  0  0  0  0  0
  -21.2464  -21.9792   25.1632 N   0  0  0  0  0  0  0  0  0  0  0  0
  -29.2380  -24.3134   16.1523 N   0  0  0  0  0  0  0  0  0  0  0  0
  -28.6609  -25.7508   22.7902 N   0  0  0  0  0  0  0  0  0  0  0  0
  -23.8640  -13.1076   20.4691 N   0  0  0  0  0  0  0  0  0  0  0  0
  -26.4367  -24.1656   25.1584 N   0  3  0  0  0  0  0  0  0  0  0  0
  -22.4103  -20.2852   26.1803 O   0  0  0  0  0  0  0  0  0  0  0  0
  -30.7103  -24.3790   17.9552 O   0  0  0  0  0  0  0  0  0  0  0  0
  -28.3574  -26.4637   20.0319 O   0  0  0  0  0  0  0  0  0  0  0  0
  -28.8876  -23.7038   23.8558 O   0  0  0  0  0  0  0  0  0  0  0  0
  -23.6479  -14.1801   22.4966 O   0  0  0  0  0  0  0  0  0  0  0  0
  -18.8897  -25.1931   21.2707 O   0  0  0  0  0  0  0  0  0  0  0  0
  -30.0962  -18.1588   20.0858 O   0  0  0  0  0  0  0  0  0  1  0  0
  -20.2611  -29.9150   23.7661 F   0  0  0  0  0  0  0  0  0  0  0  0
  -19.6918  -27.3931   19.8011 F   0  0  0  0  0  0  0  0  0  0  0  0
  1  2  1  0  0  0  0
  1  5  2  0  0  0  0
  2  6  2  0  0  0  0
  3  8  2  0  0  0  0
  3 15  1  0  0  0  0
  4  9  1  0  0  0  0
  4 15  2  0  0  0  0
  5 17  1  0  0  0  0
  6 19  1  0  0  0  0
  7 10  2  0  0  0  0
  7 18  1  0  0  0  0
  8 21  1  0  0  0  0
  9 21  2  0  0  0  0
 10 22  1  0  0  0  0
 11 12  2  0  0  0  0
 11 23  1  0  0  0  0
 12 24  1  0  0  0  0
 13 20  1  0  0  0  0
 13 22  2  0  0  0  0
 14 24  2  0  0  0  0
 14 25  1  0  0  0  0
 15 26  1  0  0  0  0
 16 26  1  0  0  0  0
 16 27  2  0  0  0  0
 16 28  1  0  0  0  0
 17 19  2  0  0  0  0
 17 33  1  0  0  0  0
 18 20  2  0  0  0  0
 18 34  1  0  0  0  0
 19 42  1  0  0  0  0
 20 35  1  0  0  0  0
 21 80  1  0  0  0  0
 22 81  1  0  0  0  0
 23 25  2  0  0  0  0
 23 80  1  0  0  0  0
 24 82  1  0  0  0  0
 25 83  1  0  0  0  0
 26 65  2  0  0  0  0
 27 66  1  0  0  0  0
 27 69  1  0  0  0  0
 28 70  1  0  0  0  0
 28 75  2  0  0  0  0
 29 43  1  0  0  0  0
 29 71  1  0  0  0  0
 29 76  2  0  0  0  0
 30 60  1  0  0  0  0
 30 67  1  0  0  0  0
 30 77  2  0  0  0  0
 31 61  1  0  0  0  0
 31 72  1  0  0  0  0
 31 78  2  0  0  0  0
 32 68  1  0  0  0  0
 32 73  1  0  0  0  0
 32 79  2  0  0  0  0
 33 36  1  0  0  0  0
 34 43  1  0  0  0  0
 35 67  1  0  0  0  0
 36 38  1  0  0  0  0
 37 39  1  0  0  0  0
 37 40  1  0  0  0  0
 38 42  1  0  0  0  0
 39 44  1  0  0  0  0
 40 68  1  0  0  0  0
 41 44  1  0  0  0  0
 41 68  1  0  0  0  0
 42 71  1  0  0  0  0
 43 67  1  0  0  0  0
 44 66  1  0  0  0  0
 45 61  1  0  0  0  0
 46 62  1  0  0  0  0
 47 63  1  0  0  0  0
 48 63  1  0  0  0  0
 49 63  1  0  0  0  0
 50 64  1  0  0  0  0
 51 64  1  0  0  0  0
 52 73  1  0  0  0  0
 53 74  1  0  0  0  0
 54 55  1  0  0  0  0
 54 58  1  0  0  0  0
 55 64  1  0  0  0  0
 56 59  1  0  0  0  0
 56 62  1  0  0  0  0
 57 62  1  0  0  0  0
 57 64  1  0  0  0  0
 58 73  1  0  0  0  0
 59 81  1  0  0  0  0
 60 63  1  0  0  0  0
 60 72  1  0  0  0  0
 61 74  1  0  0  0  0
 65 66  1  0  0  0  0
M  CHG  1  74   1
M  ISO  4  32 100  59 101  73 100  81 101
M  END
> <Batch ID>
0102

> <Smiles>
CNC(C)C(=O)NC(C(=O)N1Cc2cc([101O:1][101CH2:1]CC(C)CC(C)(C)CCC[100N:0](C)[100C:0](=O)N3CCCC(n4nc(-c5ccc(Oc6ccc(F)cc6F)cc5)c(C(N)=O)c4N)C3)ccc2CC1C(=O)NC1CCCc2ccccc21)C(C)(C)C

> <Shape>
0.205

> <Color>
0.050

> <Negative vol penalty>
0.000

$$$$

  -OEChem-04052319383D

 80 88  0     1  0  0  0  0  0999 V2000
  -27.4491  -25.0096   29.4546 C   0  0  0  0  0  0  0  0  0  0  0  0
  -27.5132  -24.7783   28.0842 C   0  0  0  0  0  0  0  0  0  0  0  0
  -26.3475  -12.8760   21.6121 C   0  0  0  0  0  0  0  0  0  0  0  0
  -25.8144  -13.8112   19.4492 C   0  0  0  0  0  0  0  0  0  0  0  0
  -26.3413  -25.6568   30.0001 C   0  0  0  0  0  0  0  0  0  0  0  0
  -26.4688  -25.1933   27.2587 C   0  0  0  0  0  0  0  0  0  0  0  0
  -28.1111  -27.4689   23.0433 C   0  0  0  0  0  0  0  0  0  0  0  0
  -28.3998  -22.3144   16.3112 C   0  0  0  0  0  0  0  0  0  0  0  0
  -25.1254  -12.2037   21.6227 C   0  0  0  0  0  0  0  0  0  0  0  0
  -24.5923  -13.1388   19.4597 C   0  0  0  0  0  0  0  0  0  0  0  0
  -28.5845  -26.6487   22.0201 C   0  0  0  0  0  0  0  0  0  0  0  0
  -22.3025   -9.9548   22.0569 C   0  0  0  0  0  0  0  0  0  0  0  0
  -22.3010   -8.6183   22.4560 C   0  0  0  0  0  0  0  0  0  0  0  0
  -28.4162  -21.3438   17.3067 C   0  0  0  0  0  0  0  0  0  0  0  0
  -26.4732  -26.8699   20.8743 C   0  0  0  0  0  0  0  0  0  0  0  0
  -23.8032   -8.0753   20.6434 C   0  0  0  0  0  0  0  0  0  0  0  0
  -26.6920  -13.6798   20.5254 C   0  0  0  0  0  0  0  0  0  0  0  0
  -29.1799  -13.9032   20.0077 C   0  0  0  0  0  0  0  0  0  0  0  0
  -25.2872  -26.0885   29.1796 C   0  0  0  0  0  0  0  0  0  0  0  0
  -26.8093  -27.9877   22.9950 C   0  0  0  0  0  0  0  0  0  0  0  0
  -25.3452  -25.8457   27.7939 C   0  0  0  0  0  0  0  0  0  0  0  0
  -25.9866  -27.6985   21.8969 C   0  0  0  0  0  0  0  0  0  0  0  0
  -28.8765  -23.5915   16.5853 C   0  0  0  0  0  0  0  0  0  0  0  0
  -24.2478  -12.3351   20.5465 C   0  0  0  0  0  0  0  0  0  0  0  0
  -27.7645  -26.3467   20.9368 C   0  0  0  0  0  0  0  0  0  0  0  0
  -23.0543  -10.3516   20.9510 C   0  0  0  0  0  0  0  0  0  0  0  0
  -23.0514   -7.6786   21.7494 C   0  0  0  0  0  0  0  0  0  0  0  0
  -23.8047   -9.4119   20.2443 C   0  0  0  0  0  0  0  0  0  0  0  0
  -27.9540  -14.3750   20.5141 C   0  0  0  0  0  0  0  0  0  0  0  0
  -29.3553  -23.8453   17.8605 C   0  0  0  0  0  0  0  0  0  0  0  0
  -28.9158  -21.6981   18.5496 C   0  0  0  0  0  0  0  0  0  0  0  0
  -30.0628  -14.9308   20.2334 C   0  0  0  0  0  0  0  0  0  0  0  0
  -29.4925  -12.6484   19.3886 C   0  0  0  0  0  0  0  0  0  0  0  0
  -24.2150  -27.7100   24.8106 C   0  0  0  0  0  0  0  0  0  0  0  0
  -23.0395  -29.9644   22.7961 C   0  0  0  0  0  0  0  0  0  0  0  0
  -23.1670  -31.4615   19.7320 C   0  0  0  0  0  0  0  0  0  0  0  0
  -29.3813  -20.8330   20.8693 C   0  0  0  0  0  0  0  0  0  0  0  0
  -24.0887  -26.7418   29.8210 C   0  0  0  0  0  0  0  0  0  0  0  0
  -26.3230  -28.8926   24.0937 C   0  0  0  0  0  0  0  0  0  0  0  0
  -24.5881  -28.2468   21.7876 C   0  0  0  0  0  0  0  0  0  0  0  0
  -23.1961  -27.4838   28.8296 C   0  0  0  0  0  0  0  0  0  0  0  0
  -30.8615  -18.5959   23.2106 C   0  0  0  0  0  0  0  0  0  0  0  0
  -22.9363  -26.6231   27.5973 C   0  0  0  0  0  0  0  0  0  0  0  0
  -30.4005  -17.2162   22.7351 C   0  0  0  0  0  0  0  0  0  0  0  0
  -29.7755  -19.6534   23.0206 C   0  0  0  0  0  0  0  0  0  0  0  0
  -28.7601  -18.3575   21.1880 C   0  0  0  0  0  0  0  0  0  0  0  0
  -24.2436  -26.3029   26.8625 C   0  0  1  0  0  0  0  0  0  0  0  0
  -24.8016  -28.9477   24.1929 C   0  0  1  0  0  0  0  0  0  0  0  0
  -29.8433  -17.2722   21.2991 C   0  0  2  0  0  0  0  0  0  0  0  0
  -28.8605  -24.6363   15.5240 C   0  0  0  0  0  0  0  0  0  0  0  0
  -22.0556  -33.2483   18.3647 C   0  0  0  0  0  0  0  0  0  0  0  0
  -20.6661  -28.1103   22.3069 C   0  0  0  0  0  0  0  0  0  0  0  0
  -20.1082  -29.4730   20.2821 C   0  0  0  0  0  0  0  0  0  0  0  0
  -20.0702  -30.5277   22.5424 C   0  0  0  0  0  0  0  0  0  0  0  0
  -25.6791  -33.0091   19.5001 C   0  0  0  0  0  0  0  0  0  0  0  0
  -29.8839  -25.2140   18.2147 C   0  0  0  0  0  0  0  0  0  0  0  0
  -29.6260  -25.5754   19.6734 C   0  0  0  0  0  0  0  0  0  1  0  0
  -22.2908  -29.9411   21.4855 C   0  0  1  0  0  0  0  0  0  0  0  0
  -23.1889  -32.9240   19.3255 C   0  0  2  0  0  0  0  0  0  0  0  0
  -20.8095  -29.5010   21.6569 C   0  0  0  0  0  0  0  0  0  0  0  0
  -28.0460  -15.6063   21.0232 N   0  0  0  0  0  0  0  0  0  0  0  0
  -29.3873  -22.9282   18.8532 N   0  0  0  0  0  0  0  0  0  0  0  0
  -29.3404  -15.9170   20.8380 N   0  0  0  0  0  0  0  0  0  0  0  0
  -24.1562  -29.1217   22.8901 N   0  0  0  0  0  0  0  0  0  0  0  0
  -29.2987  -19.6514   21.6359 N   0  0  0  0  0  0  0  0  0  0  0  0
  -31.3790  -15.0779   19.9718 N   0  0  0  0  0  0  0  0  0  0  0  0
  -28.4671  -11.7055   19.2346 N   0  0  0  0  0  0  0  0  0  0  0  0
  -28.9281  -20.7019   19.5571 N   0  0  0  0  0  0  0  0  0  0  0  0
  -24.6786  -27.4433   26.0848 N   0  0  0  0  0  0  0  0  0  0  0  0
  -22.4563  -31.2658   20.8972 N   0  0  0  0  0  0  0  0  0  0  0  0
  -24.4797  -33.2573   18.6594 N   0  3  0  0  0  0  0  0  0  0  0  0
  -30.6507  -12.3650   18.9989 O   0  0  0  0  0  0  0  0  0  0  0  0
  -23.4010  -27.0469   24.1787 O   0  0  0  0  0  0  0  0  0  0  0  0
  -22.6522  -30.7083   23.7007 O   0  0  0  0  0  0  0  0  0  0  0  0
  -23.7217  -30.5804   19.0789 O   0  0  0  0  0  0  0  0  0  0  0  0
  -29.8468  -21.8768   21.3340 O   0  0  0  0  0  0  0  0  0  0  0  0
  -23.0553  -11.6790   20.5564 O   0  0  0  0  0  0  0  0  0  0  0  0
  -28.2238  -25.5459   19.9370 O   0  0  0  0  0  0  0  0  0  1  0  0
  -23.0511   -6.3955   22.1337 F   0  0  0  0  0  0  0  0  0  0  0  0
  -24.5298   -9.7873   19.1817 F   0  0  0  0  0  0  0  0  0  0  0  0
  1  2  1  0  0  0  0
  1  5  2  0  0  0  0
  2  6  2  0  0  0  0
  3  9  2  0  0  0  0
  3 17  1  0  0  0  0
  4 10  1  0  0  0  0
  4 17  2  0  0  0  0
  5 19  1  0  0  0  0
  6 21  1  0  0  0  0
  7 11  2  0  0  0  0
  7 20  1  0  0  0  0
  8 14  2  0  0  0  0
  8 23  1  0  0  0  0
  9 24  1  0  0  0  0
 10 24  2  0  0  0  0
 11 25  1  0  0  0  0
 12 13  2  0  0  0  0
 12 26  1  0  0  0  0
 13 27  1  0  0  0  0
 14 31  1  0  0  0  0
 15 22  1  0  0  0  0
 15 25  2  0  0  0  0
 16 27  2  0  0  0  0
 16 28  1  0  0  0  0
 17 29  1  0  0  0  0
 18 29  1  0  0  0  0
 18 32  2  0  0  0  0
 18 33  1  0  0  0  0
 19 21  2  0  0  0  0
 19 38  1  0  0  0  0
 20 22  2  0  0  0  0
 20 39  1  0  0  0  0
 21 47  1  0  0  0  0
 22 40  1  0  0  0  0
 23 30  2  0  0  0  0
 23 50  1  0  0  0  0
 24 77  1  0  0  0  0
 25 78  1  0  0  0  0
 26 28  2  0  0  0  0
 26 77  1  0  0  0  0
 27 79  1  0  0  0  0
 28 80  1  0  0  0  0
 29 61  2  0  0  0  0
 30 56  1  0  0  0  0
 30 62  1  0  0  0  0
 31 62  2  0  0  0  0
 31 68  1  0  0  0  0
 32 63  1  0  0  0  0
 32 66  1  0  0  0  0
 33 67  1  0  0  0  0
 33 72  2  0  0  0  0
 34 48  1  0  0  0  0
 34 69  1  0  0  0  0
 34 73  2  0  0  0  0
 35 58  1  0  0  0  0
 35 64  1  0  0  0  0
 35 74  2  0  0  0  0
 36 59  1  0  0  0  0
 36 70  1  0  0  0  0
 36 75  2  0  0  0  0
 37 65  1  0  0  0  0
 37 68  1  0  0  0  0
 37 76  2  0  0  0  0
 38 41  1  0  0  0  0
 39 48  1  0  0  0  0
 40 64  1  0  0  0  0
 41 43  1  0  0  0  0
 42 44  1  0  0  0  0
 42 45  1  0  0  0  0
 43 47  1  0  0  0  0
 44 49  1  0  0  0  0
 45 65  1  0  0  0  0
 46 49  1  0  0  0  0
 46 65  1  0  0  0  0
 47 69  1  0  0  0  0
 48 64  1  0  0  0  0
 49 63  1  0  0  0  0
 51 59  1  0  0  0  0
 52 60  1  0  0  0  0
 53 60  1  0  0  0  0
 54 60  1  0  0  0  0
 55 71  1  0  0  0  0
 56 57  1  0  0  0  0
 57 78  1  0  0  0  0
 58 60  1  0  0  0  0
 58 70  1  0  0  0  0
 59 71  1  0  0  0  0
 61 63  1  0  0  0  0
M  CHG  1  71   1
M  ISO  4  37 100  57 101  68 100  78 101
M  END
> <Batch ID>
0102

> <Smiles>
CNC(C)C(=O)NC(C(=O)N1Cc2cc([101O:1][101CH2:1]Cc3nc([100NH:0][100C:0](=O)N4CCCC(n5nc(-c6ccc(Oc7ccc(F)cc7F)cc6)c(C(N)=O)c5N)C4)ccc3C)ccc2CC1C(=O)NC1CCCc2ccccc21)C(C)(C)C

> <Shape>
0.255

> <Color>
0.071

> <Negative vol penalty>
0.000

$$$$

  -OEChem-04052319383D

 88 96  0     1  0  0  0  0  0999 V2000
  -26.1224  -24.6220   31.2833 C   0  0  0  0  0  0  0  0  0  0  0  0
  -26.6110  -23.6366   30.4315 C   0  0  0  0  0  0  0  0  0  0  0  0
  -23.1869   -9.8233   19.9313 C   0  0  0  0  0  0  0  0  0  0  0  0
  -23.5696  -10.0008   22.3102 C   0  0  0  0  0  0  0  0  0  0  0  0
  -25.3051  -24.2711   32.3571 C   0  0  0  0  0  0  0  0  0  0  0  0
  -26.2836  -22.2995   30.6536 C   0  0  0  0  0  0  0  0  0  0  0  0
  -24.9665  -19.8893   26.3990 C   0  0  0  0  0  0  0  0  0  0  0  0
  -22.4199   -8.6771   20.1402 C   0  0  0  0  0  0  0  0  0  0  0  0
  -22.8025   -8.8547   22.5191 C   0  0  0  0  0  0  0  0  0  0  0  0
  -25.9967  -19.4885   25.5493 C   0  0  0  0  0  0  0  0  0  0  0  0
  -21.2441   -5.7712   23.6475 C   0  0  0  0  0  0  0  0  0  0  0  0
  -21.7411   -4.8099   24.5276 C   0  0  0  0  0  0  0  0  0  0  0  0
  -25.8414  -17.2474   26.4284 C   0  0  0  0  0  0  0  0  0  0  0  0
  -29.7142  -15.8967   23.6265 C   0  0  0  0  0  0  0  0  0  0  0  0
  -30.7114  -17.8144   22.5474 C   0  0  0  0  0  0  0  0  0  0  0  0
  -23.6970   -4.5455   23.1342 C   0  0  0  0  0  0  0  0  0  0  0  0
  -23.7618  -10.4851   21.0163 C   0  0  0  0  0  0  0  0  0  0  0  0
  -24.1026  -13.0016   20.7746 C   0  0  0  0  0  0  0  0  0  0  0  0
  -24.9597  -22.9300   32.5868 C   0  0  0  0  0  0  0  0  0  0  0  0
  -24.3725  -18.9732   27.2790 C   0  0  0  0  0  0  0  0  0  0  0  0
  -25.4621  -21.9301   31.7322 C   0  0  0  0  0  0  0  0  0  0  0  0
  -24.8022  -17.6385   27.2864 C   0  0  0  0  0  0  0  0  0  0  0  0
  -29.5804  -17.0729   22.8889 C   0  0  0  0  0  0  0  0  0  0  0  0
  -30.9790  -15.4619   24.0228 C   0  0  0  0  0  0  0  0  0  0  0  0
  -31.9763  -17.3796   22.9436 C   0  0  0  0  0  0  0  0  0  0  0  0
  -32.1100  -16.2034   23.6813 C   0  0  0  0  0  0  0  0  0  0  0  0
  -22.2277   -8.1928   21.4341 C   0  0  0  0  0  0  0  0  0  0  0  0
  -26.4362  -18.1680   25.5660 C   0  0  0  0  0  0  0  0  0  0  0  0
  -21.9735   -6.1195   22.5107 C   0  0  0  0  0  0  0  0  0  0  0  0
  -22.9676   -4.1971   24.2710 C   0  0  0  0  0  0  0  0  0  0  0  0
  -23.2000   -5.5067   22.2541 C   0  0  0  0  0  0  0  0  0  0  0  0
  -24.5547  -11.6688   20.8011 C   0  0  0  0  0  0  0  0  0  0  0  0
  -25.2340  -13.7434   20.5381 C   0  0  0  0  0  0  0  0  0  0  0  0
  -22.7781  -13.5227   20.9483 C   0  0  0  0  0  0  0  0  0  0  0  0
  -24.1143  -18.7422   30.4386 C   0  0  0  0  0  0  0  0  0  0  0  0
  -22.1991  -16.2282   29.7077 C   0  0  0  0  0  0  0  0  0  0  0  0
  -21.3177  -13.8143   27.4621 C   0  0  0  0  0  0  0  0  0  0  0  0
  -31.0497  -12.7468   21.5560 C   0  0  0  0  0  0  0  0  0  0  0  0
  -24.1119  -22.5943   33.7881 C   0  0  0  0  0  0  0  0  0  0  0  0
  -23.2443  -19.4152   28.1701 C   0  0  0  0  0  0  0  0  0  0  0  0
  -24.1837  -16.6114   28.1978 C   0  0  0  0  0  0  0  0  0  0  0  0
  -23.5063  -21.1940   33.7342 C   0  0  0  0  0  0  0  0  0  0  0  0
  -29.5174  -13.4689   18.4243 C   0  0  0  0  0  0  0  0  0  0  0  0
  -24.5620  -20.1712   33.3265 C   0  0  0  0  0  0  0  0  0  0  0  0
  -28.0310  -13.2097   18.6759 C   0  0  0  0  0  0  0  0  0  0  0  0
  -30.3991  -12.4779   19.1809 C   0  0  0  0  0  0  0  0  0  0  0  0
  -28.6483  -12.1350   20.8811 C   0  0  0  0  0  0  0  0  0  0  0  0
  -25.1090  -20.4714   31.9257 C   0  0  1  0  0  0  0  0  0  0  0  0
  -23.0608  -18.5188   29.3908 C   0  0  1  0  0  0  0  0  0  0  0  0
  -27.7206  -13.1445   20.1835 C   0  0  2  0  0  0  0  0  0  0  0  0
  -33.4660  -15.7367   24.1058 C   0  0  0  0  0  0  0  0  0  0  0  0
  -19.7435  -11.8832   27.1621 C   0  0  0  0  0  0  0  0  0  0  0  0
  -32.4798  -20.1635   24.0537 C   0  0  0  0  0  0  0  0  0  0  0  0
  -32.9360  -18.9357   21.2344 C   0  0  0  0  0  0  0  0  0  0  0  0
  -23.9340  -14.5299   31.5558 C   0  0  0  0  0  0  0  0  0  0  0  0
  -22.9391  -12.4894   30.5001 C   0  0  0  0  0  0  0  0  0  0  0  0
  -21.4786  -14.0907   31.7351 C   0  0  0  0  0  0  0  0  0  0  0  0
  -20.0286  -15.0792   25.1175 C   0  0  0  0  0  0  0  0  0  0  0  0
  -28.2117  -17.5438   22.4608 C   0  0  0  0  0  0  0  0  0  0  0  0
  -31.0950  -14.1982   24.8110 C   0  0  0  0  0  0  0  0  0  0  0  0
  -31.5443  -12.9949   23.9753 C   0  0  0  0  0  0  0  0  0  0  0  0
  -27.5648  -18.4607   23.4931 C   0  0  0  0  0  0  0  0  0  1  0  0
  -22.4136  -14.7513   29.4809 C   0  0  1  0  0  0  0  0  0  0  0  0
  -19.9632  -13.3713   26.9390 C   0  0  2  0  0  0  0  0  0  0  0  0
  -33.5961  -19.2087   23.6570 C   0  0  2  0  0  0  0  0  0  0  0  0
  -33.1717  -18.1917   22.5651 C   0  0  1  0  0  0  0  0  0  0  0  0
  -22.7045  -13.9849   30.8020 C   0  0  0  0  0  0  0  0  0  0  0  0
  -25.8709  -11.5666   20.5975 N   0  0  0  0  0  0  0  0  0  0  0  0
  -26.2554  -12.8448   20.4408 N   0  0  0  0  0  0  0  0  0  0  0  0
  -23.0882  -17.0938   29.0549 N   0  0  0  0  0  0  0  0  0  0  0  0
  -30.0551  -12.4656   20.6048 N   0  0  0  0  0  0  0  0  0  0  0  0
  -25.4450  -15.0702   20.4058 N   0  0  0  0  0  0  0  0  0  0  0  0
  -21.7310  -12.6212   21.1832 N   0  0  0  0  0  0  0  0  0  0  0  0
  -24.1699  -20.0388   30.9130 N   0  0  0  0  0  0  0  0  0  0  0  0
  -21.2387  -14.2741   28.7596 N   0  0  0  0  0  0  0  0  0  0  0  0
  -30.6378  -12.7204   22.8828 N   0  0  0  0  0  0  0  0  0  0  0  0
  -19.8560  -13.6485   25.4786 N   0  3  0  0  0  0  0  0  0  0  0  0
  -22.5280  -14.7500   20.8804 O   0  0  0  0  0  0  0  0  0  0  0  0
  -24.8232  -17.8070   30.7917 O   0  0  0  0  0  0  0  0  0  0  0  0
  -21.2722  -16.6005   30.4315 O   0  0  0  0  0  0  0  0  0  0  0  0
  -22.3440  -13.7545   26.7884 O   0  0  0  0  0  0  0  0  0  0  0  0
  -32.2170  -13.0076   21.2455 O   0  0  0  0  0  0  0  0  0  0  0  0
  -21.4791   -7.0746   21.6383 O   0  0  0  0  0  0  0  0  0  0  0  0
  -27.4420  -17.7742   24.7382 O   0  0  0  0  0  0  0  0  0  1  0  0
  -23.4454   -3.2752   25.1171 F   0  0  0  0  0  0  0  0  0  0  0  0
  -23.9058   -5.8381   21.1642 F   0  0  0  0  0  0  0  0  0  0  0  0
  -33.9569  -18.5266   24.7852 F   0  0  0  0  0  0  0  0  0  0  0  0
  -34.2957  -17.4169   22.3347 F   0  0  0  0  0  0  0  0  0  0  0  0
  1  2  1  0  0  0  0
  1  5  2  0  0  0  0
  2  6  2  0  0  0  0
  3  8  2  0  0  0  0
  3 17  1  0  0  0  0
  4  9  1  0  0  0  0
  4 17  2  0  0  0  0
  5 19  1  0  0  0  0
  6 21  1  0  0  0  0
  7 10  2  0  0  0  0
  7 20  1  0  0  0  0
  8 27  1  0  0  0  0
  9 27  2  0  0  0  0
 10 28  1  0  0  0  0
 11 12  2  0  0  0  0
 11 29  1  0  0  0  0
 12 30  1  0  0  0  0
 13 22  1  0  0  0  0
 13 28  2  0  0  0  0
 14 23  1  0  0  0  0
 14 24  2  0  0  0  0
 15 23  2  0  0  0  0
 15 25  1  0  0  0  0
 16 30  2  0  0  0  0
 16 31  1  0  0  0  0
 17 32  1  0  0  0  0
 18 32  1  0  0  0  0
 18 33  2  0  0  0  0
 18 34  1  0  0  0  0
 19 21  2  0  0  0  0
 19 39  1  0  0  0  0
 20 22  2  0  0  0  0
 20 40  1  0  0  0  0
 21 48  1  0  0  0  0
 22 41  1  0  0  0  0
 23 59  1  0  0  0  0
 24 26  1  0  0  0  0
 24 60  1  0  0  0  0
 25 26  2  0  0  0  0
 25 66  1  0  0  0  0
 26 51  1  0  0  0  0
 27 83  1  0  0  0  0
 28 84  1  0  0  0  0
 29 31  2  0  0  0  0
 29 83  1  0  0  0  0
 30 85  1  0  0  0  0
 31 86  1  0  0  0  0
 32 68  2  0  0  0  0
 33 69  1  0  0  0  0
 33 72  1  0  0  0  0
 34 73  1  0  0  0  0
 34 78  2  0  0  0  0
 35 49  1  0  0  0  0
 35 74  1  0  0  0  0
 35 79  2  0  0  0  0
 36 63  1  0  0  0  0
 36 70  1  0  0  0  0
 36 80  2  0  0  0  0
 37 64  1  0  0  0  0
 37 75  1  0  0  0  0
 37 81  2  0  0  0  0
 38 71  1  0  0  0  0
 38 76  1  0  0  0  0
 38 82  2  0  0  0  0
 39 42  1  0  0  0  0
 40 49  1  0  0  0  0
 41 70  1  0  0  0  0
 42 44  1  0  0  0  0
 43 45  1  0  0  0  0
 43 46  1  0  0  0  0
 44 48  1  0  0  0  0
 45 50  1  0  0  0  0
 46 71  1  0  0  0  0
 47 50  1  0  0  0  0
 47 71  1  0  0  0  0
 48 74  1  0  0  0  0
 49 70  1  0  0  0  0
 50 69  1  0  0  0  0
 52 64  1  0  0  0  0
 53 65  1  0  0  0  0
 54 66  1  0  0  0  0
 55 67  1  0  0  0  0
 56 67  1  0  0  0  0
 57 67  1  0  0  0  0
 58 77  1  0  0  0  0
 59 62  1  0  0  0  0
 60 61  1  0  0  0  0
 61 76  1  0  0  0  0
 62 84  1  0  0  0  0
 63 67  1  0  0  0  0
 63 75  1  0  0  0  0
 64 77  1  0  0  0  0
 65 66  1  0  0  0  0
 65 87  1  0  0  0  0
 66 88  1  0  0  0  0
 68 69  1  0  0  0  0
M  CHG  1  77   1
M  ISO  4  38 100  62 101  76 100  84 101
M  END
> <Batch ID>
0102

> <Smiles>
CNC(C)C(=O)NC(C(=O)N1Cc2cc([101O:1][101CH2:1]Cc3cc(CC[100NH:0][100C:0](=O)N4CCCC(n5nc(-c6ccc(Oc7ccc(F)cc7F)cc6)c(C(N)=O)c5N)C4)c(C)c(C(C)(F)C(C)F)c3)ccc2CC1C(=O)NC1CCCc2ccccc21)C(C)(C)C

> <Shape>
0.155

> <Color>
0.190

> <Negative vol penalty>
0.000

$$$$

  -OEChem-04052319383D

 91 99  0     1  0  0  0  0  0999 V2000
  -32.0902  -29.8214   12.4964 C   0  0  0  0  0  0  0  0  0  0  0  0
  -32.0305  -28.8207   13.4610 C   0  0  0  0  0  0  0  0  0  0  0  0
  -23.5060   -9.6975   21.3810 C   0  0  0  0  0  0  0  0  0  0  0  0
  -24.2403  -10.6614   23.4712 C   0  0  0  0  0  0  0  0  0  0  0  0
  -31.7130  -31.1239   12.8205 C   0  0  0  0  0  0  0  0  0  0  0  0
  -31.5946  -29.1223   14.7508 C   0  0  0  0  0  0  0  0  0  0  0  0
  -28.3259  -25.6970   16.5473 C   0  0  0  0  0  0  0  0  0  0  0  0
  -22.9449   -8.6243   22.0731 C   0  0  0  0  0  0  0  0  0  0  0  0
  -23.6790   -9.5882   24.1633 C   0  0  0  0  0  0  0  0  0  0  0  0
  -28.8558  -24.4953   17.0152 C   0  0  0  0  0  0  0  0  0  0  0  0
  -24.0142   -5.7684   23.5307 C   0  0  0  0  0  0  0  0  0  0  0  0
  -24.2435   -4.4859   23.0326 C   0  0  0  0  0  0  0  0  0  0  0  0
  -28.6798  -25.3065   19.2802 C   0  0  0  0  0  0  0  0  0  0  0  0
  -28.2407  -16.7903   21.4149 C   0  0  0  0  0  0  0  0  0  0  0  0
  -28.1986  -18.7832   20.0691 C   0  0  0  0  0  0  0  0  0  0  0  0
  -21.8641   -4.1644   22.7645 C   0  0  0  0  0  0  0  0  0  0  0  0
  -24.1538  -10.7160   22.0801 C   0  0  0  0  0  0  0  0  0  0  0  0
  -24.1077  -13.0387   21.0261 C   0  0  0  0  0  0  0  0  0  0  0  0
  -31.2631  -31.4396   14.1123 C   0  0  0  0  0  0  0  0  0  0  0  0
  -27.9785  -26.7184   17.4432 C   0  0  0  0  0  0  0  0  0  0  0  0
  -31.2123  -30.4305   15.0929 C   0  0  0  0  0  0  0  0  0  0  0  0
  -28.1433  -26.5192   18.8213 C   0  0  0  0  0  0  0  0  0  0  0  0
  -27.5437  -17.8740   20.8923 C   0  0  0  0  0  0  0  0  0  0  0  0
  -23.0313   -8.5696   23.4642 C   0  0  0  0  0  0  0  0  0  0  0  0
  -29.0356  -24.3010   18.3816 C   0  0  0  0  0  0  0  0  0  0  0  0
  -22.7097   -6.2489   23.6458 C   0  0  0  0  0  0  0  0  0  0  0  0
  -23.1685   -3.6839   22.6494 C   0  0  0  0  0  0  0  0  0  0  0  0
  -21.6347   -5.4469   23.2626 C   0  0  0  0  0  0  0  0  0  0  0  0
  -24.7342  -11.8246   21.3657 C   0  0  0  0  0  0  0  0  0  0  0  0
  -29.5807  -16.6618   21.0867 C   0  0  0  0  0  0  0  0  0  0  0  0
  -29.5405  -18.5655   19.8012 C   0  0  0  0  0  0  0  0  0  0  0  0
  -25.0753  -13.7496   20.3593 C   0  0  0  0  0  0  0  0  0  0  0  0
  -22.7706  -13.4840   21.2899 C   0  0  0  0  0  0  0  0  0  0  0  0
  -28.9452  -29.7087   17.9199 C   0  0  0  0  0  0  0  0  0  0  0  0
  -30.8200  -14.5983   20.5186 C   0  0  0  0  0  0  0  0  0  0  0  0
  -26.5002  -29.7466   20.0513 C   0  0  0  0  0  0  0  0  0  0  0  0
  -24.4128  -27.9850   22.0974 C   0  0  0  0  0  0  0  0  0  0  0  0
  -30.9109  -32.8716   14.4285 C   0  0  0  0  0  0  0  0  0  0  0  0
  -27.3831  -27.9985   16.9243 C   0  0  0  0  0  0  0  0  0  0  0  0
  -27.7673  -27.5765   19.8259 C   0  0  0  0  0  0  0  0  0  0  0  0
  -30.1046  -33.0307   15.7149 C   0  0  0  0  0  0  0  0  0  0  0  0
  -29.2511  -12.5970   17.9940 C   0  0  0  0  0  0  0  0  0  0  0  0
  -30.7254  -32.2078   16.8393 C   0  0  0  0  0  0  0  0  0  0  0  0
  -27.8773  -12.2846   18.5859 C   0  0  0  0  0  0  0  0  0  0  0  0
  -30.3256  -12.6522   19.0755 C   0  0  0  0  0  0  0  0  0  0  0  0
  -28.6497  -13.2968   20.7777 C   0  0  0  0  0  0  0  0  0  0  0  0
  -30.7214  -30.7132   16.4962 C   0  0  1  0  0  0  0  0  0  0  0  0
  -27.5439  -29.1673   17.8915 C   0  0  1  0  0  0  0  0  0  0  0  0
  -27.5299  -13.2622   19.7226 C   0  0  2  0  0  0  0  0  0  0  0  0
  -31.2085  -16.6762   23.7357 C   0  0  0  0  0  0  0  0  0  0  0  0
  -31.0471  -17.8184   17.1851 C   0  0  0  0  0  0  0  0  0  0  0  0
  -22.5441  -28.2949   23.7433 C   0  0  0  0  0  0  0  0  0  0  0  0
  -24.3234  -20.0122   24.1031 C   0  0  0  0  0  0  0  0  0  0  0  0
  -23.6486  -19.8400   21.6999 C   0  0  0  0  0  0  0  0  0  0  0  0
  -28.5053  -30.6988   22.1448 C   0  0  0  0  0  0  0  0  0  0  0  0
  -26.8453  -30.0814   23.9144 C   0  0  0  0  0  0  0  0  0  0  0  0
  -26.2812  -31.8386   22.2361 C   0  0  0  0  0  0  0  0  0  0  0  0
  -22.5424  -26.3884   20.4507 C   0  0  0  0  0  0  0  0  0  0  0  0
  -31.6626  -20.2752   20.8496 C   0  0  0  0  0  0  0  0  0  0  0  0
  -26.0992  -18.0598   21.2127 C   0  0  0  0  0  0  0  0  0  0  0  0
  -31.5898  -15.9049   22.4789 C   0  0  0  0  0  0  0  0  0  0  0  0
  -31.4723  -18.9133   18.1560 C   0  0  0  0  0  0  0  0  0  0  0  0
  -25.8935  -18.9116   22.4793 C   0  0  0  0  0  0  0  0  0  0  0  0
  -31.4949  -21.7107   18.8218 C   0  0  0  0  0  0  0  0  0  0  0  0
  -30.4641  -22.4416   17.9842 C   0  0  0  0  0  0  0  0  0  1  0  0
  -30.3600  -15.5101   21.6280 C   0  0  1  0  0  0  0  0  0  0  0  0
  -30.2856  -19.5357   18.9108 C   0  0  2  0  0  0  0  0  0  0  0  0
  -26.3545  -29.4159   21.5171 C   0  0  1  0  0  0  0  0  0  0  0  0
  -22.9079  -28.0395   22.2890 C   0  0  2  0  0  0  0  0  0  0  0  0
  -24.4158  -19.1600   22.8348 C   0  0  0  0  0  0  0  0  0  0  0  0
  -27.0056  -30.4893   22.4343 C   0  0  0  0  0  0  0  0  0  0  0  0
  -26.0017  -11.7642   20.9489 N   0  0  0  0  0  0  0  0  0  0  0  0
  -30.2509  -17.5245   20.2904 N   0  0  0  0  0  0  0  0  0  0  0  0
  -26.1795  -12.9492   20.3404 N   0  0  0  0  0  0  0  0  0  0  0  0
  -27.1949  -28.8133   19.2689 N   0  0  0  0  0  0  0  0  0  0  0  0
  -29.9479  -13.5745   20.1478 N   0  0  0  0  0  0  0  0  0  0  0  0
  -25.0809  -14.9751   19.7930 N   0  0  0  0  0  0  0  0  0  0  0  0
  -21.9067  -12.6284   21.9871 N   0  0  0  0  0  0  0  0  0  0  0  0
  -29.4017  -30.1528   16.6936 N   0  0  0  0  0  0  0  0  0  0  0  0
  -24.9283  -29.2160   21.7506 N   0  0  0  0  0  0  0  0  0  0  0  0
  -22.2852  -26.7527   21.8678 N   0  3  0  0  0  0  0  0  0  0  0  0
  -30.8088  -20.7186   19.6874 N   0  3  1  0  0  0  0  0  0  0  0  0
  -22.3492  -14.6007   20.9040 O   0  0  0  0  0  0  0  0  0  0  0  0
  -29.5658  -29.7237   18.9765 O   0  0  0  0  0  0  0  0  0  0  0  0
  -31.9206  -14.7934   19.9963 O   0  0  0  0  0  0  0  0  0  0  0  0
  -26.0094  -30.7909   19.6152 O   0  0  0  0  0  0  0  0  0  0  0  0
  -25.0662  -26.9545   22.2445 O   0  0  0  0  0  0  0  0  0  0  0  0
  -22.4837   -7.5227   24.1398 O   0  0  0  0  0  0  0  0  0  0  0  0
  -29.5533  -23.1293   18.8409 O   0  0  0  0  0  0  0  0  0  1  0  0
  -23.3890   -2.4529   22.1697 F   0  0  0  0  0  0  0  0  0  0  0  0
  -20.3794   -5.9036   23.3698 F   0  0  0  0  0  0  0  0  0  0  0  0
  1  2  1  0  0  0  0
  1  5  2  0  0  0  0
  2  6  2  0  0  0  0
  3  8  2  0  0  0  0
  3 17  1  0  0  0  0
  4  9  1  0  0  0  0
  4 17  2  0  0  0  0
  5 19  1  0  0  0  0
  6 21  1  0  0  0  0
  7 10  2  0  0  0  0
  7 20  1  0  0  0  0
  8 24  1  0  0  0  0
  9 24  2  0  0  0  0
 10 25  1  0  0  0  0
 11 12  2  0  0  0  0
 11 26  1  0  0  0  0
 12 27  1  0  0  0  0
 13 22  1  0  0  0  0
 13 25  2  0  0  0  0
 14 23  1  0  0  0  0
 14 30  2  0  0  0  0
 15 23  2  0  0  0  0
 15 31  1  0  0  0  0
 16 27  2  0  0  0  0
 16 28  1  0  0  0  0
 17 29  1  0  0  0  0
 18 29  1  0  0  0  0
 18 32  2  0  0  0  0
 18 33  1  0  0  0  0
 19 21  2  0  0  0  0
 19 38  1  0  0  0  0
 20 22  2  0  0  0  0
 20 39  1  0  0  0  0
 21 47  1  0  0  0  0
 22 40  1  0  0  0  0
 23 60  1  0  0  0  0
 24 88  1  0  0  0  0
 25 89  1  0  0  0  0
 26 28  2  0  0  0  0
 26 88  1  0  0  0  0
 27 90  1  0  0  0  0
 28 91  1  0  0  0  0
 29 72  2  0  0  0  0
 30 66  1  0  0  0  0
 30 73  1  0  0  0  0
 31 67  1  0  0  0  0
 31 73  2  0  0  0  0
 32 74  1  0  0  0  0
 32 77  1  0  0  0  0
 33 78  1  0  0  0  0
 33 83  2  0  0  0  0
 34 48  1  0  0  0  0
 34 79  1  0  0  0  0
 34 84  2  0  0  0  0
 35 66  1  0  0  0  0
 35 76  1  0  0  0  0
 35 85  2  0  0  0  0
 36 68  1  0  0  0  0
 36 75  1  0  0  0  0
 36 86  2  0  0  0  0
 37 69  1  0  0  0  0
 37 80  1  0  0  0  0
 37 87  2  0  0  0  0
 38 41  1  0  0  0  0
 39 48  1  0  0  0  0
 40 75  1  0  0  0  0
 41 43  1  0  0  0  0
 42 44  1  0  0  0  0
 42 45  1  0  0  0  0
 43 47  1  0  0  0  0
 44 49  1  0  0  0  0
 45 76  1  0  0  0  0
 46 49  1  0  0  0  0
 46 76  1  0  0  0  0
 47 79  1  0  0  0  0
 48 75  1  0  0  0  0
 49 74  1  0  0  0  0
 50 61  1  0  0  0  0
 51 62  1  0  0  0  0
 52 69  1  0  0  0  0
 53 70  1  0  0  0  0
 54 70  1  0  0  0  0
 55 71  1  0  0  0  0
 56 71  1  0  0  0  0
 57 71  1  0  0  0  0
 58 81  1  0  0  0  0
 59 82  1  0  0  0  0
 60 63  1  0  0  0  0
 61 66  1  0  0  0  0
 62 67  1  0  0  0  0
 63 70  1  0  0  0  0
 64 65  1  0  0  0  0
 64 82  1  0  0  0  0
 65 89  1  0  0  0  0
 67 82  1  0  0  0  0
 68 71  1  0  0  0  0
 68 80  1  0  0  0  0
 69 81  1  0  0  0  0
 72 74  1  0  0  0  0
M  CHG  2  81   1  82   1
M  ISO  4  35 100  65 101  66 100  89 101
M  END
> <Batch ID>
0102

> <Smiles>
CCC(c1cc(CCC(C)C)cc([100CH:0](CC)[100C:0](=O)N2CCCC(n3nc(-c4ccc(Oc5ccc(F)cc5F)cc4)c(C(N)=O)c3N)C2)n1)N(C)C[101CH2:1][101O:1]c1ccc2c(c1)CN(C(=O)C(NC(=O)C(C)NC)C(C)(C)C)C(C(=O)NC1CCCc3ccccc31)C2

> <Shape>
0.288

> <Color>
0.170

> <Negative vol penalty>
0.000

$$$$

  -OEChem-04052319383D

 87 95  0     1  0  0  0  0  0999 V2000
  -27.7228  -24.2699   17.0673 C   0  0  0  0  0  0  0  0  0  0  0  0
  -26.5355  -24.5850   17.7205 C   0  0  0  0  0  0  0  0  0  0  0  0
  -26.1657  -16.9411   19.9651 C   0  0  0  0  0  0  0  0  0  0  0  0
  -24.0707  -15.7715   20.2481 C   0  0  0  0  0  0  0  0  0  0  0  0
  -28.9411  -24.6976   17.5933 C   0  0  0  0  0  0  0  0  0  0  0  0
  -26.5661  -25.3271   18.9006 C   0  0  0  0  0  0  0  0  0  0  0  0
  -23.0724  -28.9922   18.9816 C   0  0  0  0  0  0  0  0  0  0  0  0
  -26.7277  -15.7973   19.3981 C   0  0  0  0  0  0  0  0  0  0  0  0
  -24.6327  -14.6277   19.6810 C   0  0  0  0  0  0  0  0  0  0  0  0
  -21.7599  -28.6146   19.2615 C   0  0  0  0  0  0  0  0  0  0  0  0
  -28.0001  -12.8547   20.4687 C   0  0  0  0  0  0  0  0  0  0  0  0
  -29.2739  -12.4795   20.8956 C   0  0  0  0  0  0  0  0  0  0  0  0
  -22.0433  -29.3434   21.5436 C   0  0  0  0  0  0  0  0  0  0  0  0
  -19.4037  -24.3232   24.0503 C   0  0  0  0  0  0  0  0  0  0  0  0
  -30.0960  -12.6977   18.6342 C   0  0  0  0  0  0  0  0  0  0  0  0
  -20.1571  -26.3565   25.0272 C   0  0  0  0  0  0  0  0  0  0  0  0
  -24.8372  -16.9282   20.3902 C   0  0  0  0  0  0  0  0  0  0  0  0
  -23.5850  -19.1491   20.3059 C   0  0  0  0  0  0  0  0  0  0  0  0
  -28.9859  -25.4536   18.7752 C   0  0  0  0  0  0  0  0  0  0  0  0
  -23.8851  -29.5391   19.9850 C   0  0  0  0  0  0  0  0  0  0  0  0
  -27.7863  -25.7642   19.4436 C   0  0  0  0  0  0  0  0  0  0  0  0
  -23.3650  -29.7295   21.2732 C   0  0  0  0  0  0  0  0  0  0  0  0
  -19.2591  -25.6976   24.2032 C   0  0  0  0  0  0  0  0  0  0  0  0
  -20.4275  -23.6591   24.7167 C   0  0  0  0  0  0  0  0  0  0  0  0
  -25.9612  -14.6406   19.2560 C   0  0  0  0  0  0  0  0  0  0  0  0
  -21.2460  -28.7875   20.5434 C   0  0  0  0  0  0  0  0  0  0  0  0
  -27.7742  -13.1513   19.1246 C   0  0  0  0  0  0  0  0  0  0  0  0
  -30.3218  -12.4010   19.9783 C   0  0  0  0  0  0  0  0  0  0  0  0
  -28.8221  -13.0729   18.2073 C   0  0  0  0  0  0  0  0  0  0  0  0
  -24.2563  -18.1092   20.9766 C   0  0  0  0  0  0  0  0  0  0  0  0
  -21.2734  -24.4093   25.5176 C   0  0  0  0  0  0  0  0  0  0  0  0
  -23.2289  -20.0260   21.3013 C   0  0  0  0  0  0  0  0  0  0  0  0
  -23.3079  -19.3081   18.9082 C   0  0  0  0  0  0  0  0  0  0  0  0
  -26.6077  -28.6803   21.3828 C   0  0  0  0  0  0  0  0  0  0  0  0
  -26.3387  -31.5823   22.8069 C   0  0  0  0  0  0  0  0  0  0  0  0
  -24.3159  -34.1430   23.8060 C   0  0  0  0  0  0  0  0  0  0  0  0
  -20.9172  -20.5585   26.4675 C   0  0  0  0  0  0  0  0  0  0  0  0
  -30.3299  -25.8532   19.3308 C   0  0  0  0  0  0  0  0  0  0  0  0
  -25.2903  -29.9660   19.6602 C   0  0  0  0  0  0  0  0  0  0  0  0
  -24.1898  -30.3309   22.3806 C   0  0  0  0  0  0  0  0  0  0  0  0
  -30.2503  -26.9551   20.3843 C   0  0  0  0  0  0  0  0  0  0  0  0
  -24.5931  -20.2522   26.1575 C   0  0  0  0  0  0  0  0  0  0  0  0
  -29.1488  -26.6494   21.3944 C   0  0  0  0  0  0  0  0  0  0  0  0
  -24.7624  -19.6848   24.7492 C   0  0  0  0  0  0  0  0  0  0  0  0
  -23.2595  -19.8446   26.7766 C   0  0  0  0  0  0  0  0  0  0  0  0
  -22.2466  -19.6205   24.5321 C   0  0  0  0  0  0  0  0  0  0  0  0
  -27.7766  -26.5885   20.7126 C   0  0  1  0  0  0  0  0  0  0  0  0
  -26.1923  -30.0370   20.8885 C   0  0  1  0  0  0  0  0  0  0  0  0
  -23.5600  -20.0512   23.8619 C   0  0  2  0  0  0  0  0  0  0  0  0
  -25.4809  -24.6199   24.0151 C   0  0  0  0  0  0  0  0  0  0  0  0
  -22.2075  -23.8769   27.7831 C   0  0  0  0  0  0  0  0  0  0  0  0
  -24.3791  -36.3612   24.9777 C   0  0  0  0  0  0  0  0  0  0  0  0
  -26.6368  -30.1552   25.4873 C   0  0  0  0  0  0  0  0  0  0  0  0
  -25.7562  -32.2161   26.6035 C   0  0  0  0  0  0  0  0  0  0  0  0
  -27.8870  -32.3139   25.3101 C   0  0  0  0  0  0  0  0  0  0  0  0
  -18.8517  -21.8929   26.2873 C   0  0  0  0  0  0  0  0  0  0  0  0
  -23.2802  -35.5615   21.4239 C   0  0  0  0  0  0  0  0  0  0  0  0
  -18.1601  -26.4477   23.4939 C   0  0  0  0  0  0  0  0  0  0  0  0
  -20.5870  -22.1864   24.5587 C   0  0  0  0  0  0  0  0  0  0  0  0
  -24.1081  -24.0727   24.3755 C   0  0  0  0  0  0  0  0  0  0  0  0
  -18.5606  -26.9643   22.1103 C   0  0  0  0  0  0  0  0  0  0  0  0
  -23.8025  -24.2679   25.8644 C   0  0  0  0  0  0  0  0  0  0  0  0
  -19.6852  -27.9924   22.1520 C   0  0  0  0  0  0  0  0  0  1  0  0
  -22.3913  -23.7495   26.2568 C   0  0  2  0  0  0  0  0  0  0  0  0
  -25.6938  -32.0972   24.0711 C   0  0  1  0  0  0  0  0  0  0  0  0
  -24.4363  -35.6467   23.6364 C   0  0  2  0  0  0  0  0  0  0  0  0
  -26.4783  -31.6824   25.3478 C   0  0  0  0  0  0  0  0  0  0  0  0
  -21.1642  -25.7456   25.6908 N   0  0  0  0  0  0  0  0  0  0  0  0
  -24.3242  -18.3059   22.2959 N   0  0  0  0  0  0  0  0  0  0  0  0
  -23.6909  -19.4795   22.4624 N   0  0  0  0  0  0  0  0  0  0  0  0
  -25.5600  -30.7266   22.0150 N   0  0  0  0  0  0  0  0  0  0  0  0
  -22.1374  -20.1650   25.8938 N   0  0  0  0  0  0  0  0  0  0  0  0
  -22.5689  -21.2035   21.2879 N   0  0  0  0  0  0  0  0  0  0  0  0
  -23.7447  -18.3131   18.0230 N   0  0  0  0  0  0  0  0  0  0  0  0
  -27.2851  -27.9234   20.4460 N   0  0  0  0  0  0  0  0  0  0  0  0
  -25.5519  -33.5389   23.8989 N   0  0  0  0  0  0  0  0  0  0  0  0
  -20.1204  -21.4468   25.7294 N   0  0  0  0  0  0  0  0  0  0  0  0
  -23.3293  -36.1619   22.7819 N   0  3  0  0  0  0  0  0  0  0  0  0
  -22.7056  -20.3111   18.4556 O   0  0  0  0  0  0  0  0  0  0  0  0
  -26.3352  -28.3455   22.5297 O   0  0  0  0  0  0  0  0  0  0  0  0
  -27.4883  -31.9323   22.5287 O   0  0  0  0  0  0  0  0  0  0  0  0
  -23.2335  -33.5627   23.8550 O   0  0  0  0  0  0  0  0  0  0  0  0
  -20.5648  -20.1472   27.5804 O   0  0  0  0  0  0  0  0  0  0  0  0
  -26.5091  -13.5244   18.7025 O   0  0  0  0  0  0  0  0  0  0  0  0
  -19.9654  -28.4192   20.8194 O   0  0  0  0  0  0  0  0  0  1  0  0
  -31.5454  -12.0422   20.3887 F   0  0  0  0  0  0  0  0  0  0  0  0
  -28.6114  -13.3578   16.9150 F   0  0  0  0  0  0  0  0  0  0  0  0
  1  2  1  0  0  0  0
  1  5  2  0  0  0  0
  2  6  2  0  0  0  0
  3  8  2  0  0  0  0
  3 17  1  0  0  0  0
  4  9  1  0  0  0  0
  4 17  2  0  0  0  0
  5 19  1  0  0  0  0
  6 21  1  0  0  0  0
  7 10  2  0  0  0  0
  7 20  1  0  0  0  0
  8 25  1  0  0  0  0
  9 25  2  0  0  0  0
 10 26  1  0  0  0  0
 11 12  2  0  0  0  0
 11 27  1  0  0  0  0
 12 28  1  0  0  0  0
 13 22  1  0  0  0  0
 13 26  2  0  0  0  0
 14 23  2  0  0  0  0
 14 24  1  0  0  0  0
 15 28  2  0  0  0  0
 15 29  1  0  0  0  0
 16 23  1  0  0  0  0
 16 68  2  0  0  0  0
 17 30  1  0  0  0  0
 18 30  1  0  0  0  0
 18 32  2  0  0  0  0
 18 33  1  0  0  0  0
 19 21  2  0  0  0  0
 19 38  1  0  0  0  0
 20 22  2  0  0  0  0
 20 39  1  0  0  0  0
 21 47  1  0  0  0  0
 22 40  1  0  0  0  0
 23 58  1  0  0  0  0
 24 31  2  0  0  0  0
 24 59  1  0  0  0  0
 25 84  1  0  0  0  0
 26 85  1  0  0  0  0
 27 29  2  0  0  0  0
 27 84  1  0  0  0  0
 28 86  1  0  0  0  0
 29 87  1  0  0  0  0
 30 69  2  0  0  0  0
 31 64  1  0  0  0  0
 31 68  1  0  0  0  0
 32 70  1  0  0  0  0
 32 73  1  0  0  0  0
 33 74  1  0  0  0  0
 33 79  2  0  0  0  0
 34 48  1  0  0  0  0
 34 75  1  0  0  0  0
 34 80  2  0  0  0  0
 35 65  1  0  0  0  0
 35 71  1  0  0  0  0
 35 81  2  0  0  0  0
 36 66  1  0  0  0  0
 36 76  1  0  0  0  0
 36 82  2  0  0  0  0
 37 72  1  0  0  0  0
 37 77  1  0  0  0  0
 37 83  2  0  0  0  0
 38 41  1  0  0  0  0
 39 48  1  0  0  0  0
 40 71  1  0  0  0  0
 41 43  1  0  0  0  0
 42 44  1  0  0  0  0
 42 45  1  0  0  0  0
 43 47  1  0  0  0  0
 44 49  1  0  0  0  0
 45 72  1  0  0  0  0
 46 49  1  0  0  0  0
 46 72  1  0  0  0  0
 47 75  1  0  0  0  0
 48 71  1  0  0  0  0
 49 70  1  0  0  0  0
 50 60  1  0  0  0  0
 51 64  1  0  0  0  0
 52 66  1  0  0  0  0
 53 67  1  0  0  0  0
 54 67  1  0  0  0  0
 55 67  1  0  0  0  0
 56 77  1  0  0  0  0
 57 78  1  0  0  0  0
 58 61  1  0  0  0  0
 59 77  1  0  0  0  0
 60 62  1  0  0  0  0
 61 63  1  0  0  0  0
 62 64  1  0  0  0  0
 63 85  1  0  0  0  0
 65 67  1  0  0  0  0
 65 76  1  0  0  0  0
 66 78  1  0  0  0  0
 69 70  1  0  0  0  0
M  CHG  1  78   1
M  ISO  4  37 100  63 101  77 100  85 101
M  END
> <Batch ID>
0102

> <Smiles>
CCCC(C)c1ncc(CC[101CH2:1][101O:1]c2ccc3c(c2)CN(C(=O)C(NC(=O)C(C)NC)C(C)(C)C)C(C(=O)NC2CCCc4ccccc42)C3)cc1C[100N:0](C)[100C:0](=O)N1CCCC(n2nc(-c3ccc(Oc4ccc(F)cc4F)cc3)c(C(N)=O)c2N)C1

> <Shape>
0.264

> <Color>
0.073

> <Negative vol penalty>
0.000

$$$$

  -OEChem-04052319383D

 87 95  0     1  0  0  0  0  0999 V2000
  -17.3308  -26.4544   23.2818 C   0  0  0  0  0  0  0  0  0  0  0  0
  -18.5671  -25.9518   22.8887 C   0  0  0  0  0  0  0  0  0  0  0  0
  -25.6187  -15.0167   21.7753 C   0  0  0  0  0  0  0  0  0  0  0  0
  -25.9798  -15.2210   19.3952 C   0  0  0  0  0  0  0  0  0  0  0  0
  -17.0391  -27.8056   23.0996 C   0  0  0  0  0  0  0  0  0  0  0  0
  -19.5120  -26.8000   22.3122 C   0  0  0  0  0  0  0  0  0  0  0  0
  -25.5960  -26.5074   22.9483 C   0  0  0  0  0  0  0  0  0  0  0  0
  -25.6792  -13.6275   21.6652 C   0  0  0  0  0  0  0  0  0  0  0  0
  -26.0404  -13.8318   19.2851 C   0  0  0  0  0  0  0  0  0  0  0  0
  -26.5988  -25.9714   22.1415 C   0  0  0  0  0  0  0  0  0  0  0  0
  -23.6402  -11.1156   20.6869 C   0  0  0  0  0  0  0  0  0  0  0  0
  -22.6742  -10.3700   21.3624 C   0  0  0  0  0  0  0  0  0  0  0  0
  -26.9860  -28.1517   21.1848 C   0  0  0  0  0  0  0  0  0  0  0  0
  -26.8913  -24.4936   17.7109 C   0  0  0  0  0  0  0  0  0  0  0  0
  -24.4108   -9.2693   22.6311 C   0  0  0  0  0  0  0  0  0  0  0  0
  -28.3912  -22.7754   17.0366 C   0  0  0  0  0  0  0  0  0  0  0  0
  -25.7689  -15.8135   20.6402 C   0  0  0  0  0  0  0  0  0  0  0  0
  -26.7771  -18.1304   20.9912 C   0  0  0  0  0  0  0  0  0  0  0  0
  -17.9844  -28.6727   22.5295 C   0  0  0  0  0  0  0  0  0  0  0  0
  -25.2727  -27.8697   22.8715 C   0  0  0  0  0  0  0  0  0  0  0  0
  -19.2320  -28.1638   22.1211 C   0  0  0  0  0  0  0  0  0  0  0  0
  -25.9805  -28.7030   21.9935 C   0  0  0  0  0  0  0  0  0  0  0  0
  -28.1926  -24.0099   17.6334 C   0  0  0  0  0  0  0  0  0  0  0  0
  -25.8432  -23.7387   17.1963 C   0  0  0  0  0  0  0  0  0  0  0  0
  -25.8901  -13.0351   20.4202 C   0  0  0  0  0  0  0  0  0  0  0  0
  -27.2919  -26.7930   21.2575 C   0  0  0  0  0  0  0  0  0  0  0  0
  -24.9916  -10.9380   20.9834 C   0  0  0  0  0  0  0  0  0  0  0  0
  -23.0594   -9.4469   22.3346 C   0  0  0  0  0  0  0  0  0  0  0  0
  -25.3769  -10.0149   21.9556 C   0  0  0  0  0  0  0  0  0  0  0  0
  -25.7059  -17.2485   20.7532 C   0  0  0  0  0  0  0  0  0  0  0  0
  -26.1470  -22.5164   16.6188 C   0  0  0  0  0  0  0  0  0  0  0  0
  -26.1987  -19.3760   21.0095 C   0  0  0  0  0  0  0  0  0  0  0  0
  -28.1703  -17.8487   21.1789 C   0  0  0  0  0  0  0  0  0  0  0  0
  -22.6702  -29.5167   22.0853 C   0  0  0  0  0  0  0  0  0  0  0  0
  -24.4553  -32.0480   23.0487 C   0  0  0  0  0  0  0  0  0  0  0  0
  -27.5554  -33.3708   23.5838 C   0  0  0  0  0  0  0  0  0  0  0  0
  -22.6050  -22.9100   18.3802 C   0  0  0  0  0  0  0  0  0  0  0  0
  -17.6058  -30.1159   22.3094 C   0  0  0  0  0  0  0  0  0  0  0  0
  -24.2067  -28.4377   23.7678 C   0  0  0  0  0  0  0  0  0  0  0  0
  -25.6856  -30.1762   21.8876 C   0  0  0  0  0  0  0  0  0  0  0  0
  -18.8015  -31.0242   22.0345 C   0  0  0  0  0  0  0  0  0  0  0  0
  -21.3477  -20.7718   21.1278 C   0  0  0  0  0  0  0  0  0  0  0  0
  -19.7289  -30.3886   21.0035 C   0  0  0  0  0  0  0  0  0  0  0  0
  -22.4306  -19.6998   21.2378 C   0  0  0  0  0  0  0  0  0  0  0  0
  -21.2499  -21.3362   19.7137 C   0  0  0  0  0  0  0  0  0  0  0  0
  -23.6224  -20.7821   19.2913 C   0  0  0  0  0  0  0  0  0  0  0  0
  -20.2923  -29.0572   21.5148 C   0  0  1  0  0  0  0  0  0  0  0  0
  -23.6097  -29.7374   23.2369 C   0  0  1  0  0  0  0  0  0  0  0  0
  -23.7785  -20.2259   20.7146 C   0  0  2  0  0  0  0  0  0  0  0  0
  -25.0615  -21.6629   16.0488 C   0  0  0  0  0  0  0  0  0  0  0  0
  -28.6959  -35.4752   24.3379 C   0  0  0  0  0  0  0  0  0  0  0  0
  -24.6696  -28.0168   16.1630 C   0  0  0  0  0  0  0  0  0  0  0  0
  -24.1387  -26.0198   14.7541 C   0  0  0  0  0  0  0  0  0  0  0  0
  -23.8635  -33.3343   20.3459 C   0  0  0  0  0  0  0  0  0  0  0  0
  -25.7461  -34.9291   20.7710 C   0  0  0  0  0  0  0  0  0  0  0  0
  -23.7684  -34.9033   22.2911 C   0  0  0  0  0  0  0  0  0  0  0  0
  -24.4929  -23.7888   19.7005 C   0  0  0  0  0  0  0  0  0  0  0  0
  -28.8247  -31.9986   25.8783 C   0  0  0  0  0  0  0  0  0  0  0  0
  -29.3515  -24.8042   18.1809 C   0  0  0  0  0  0  0  0  0  0  0  0
  -29.6670  -24.5022   19.6475 C   0  0  0  0  0  0  0  0  0  0  0  0
  -24.3252  -25.7975   17.2912 C   0  0  0  0  0  0  0  0  0  0  0  0
  -28.5354  -24.8760   20.5978 C   0  0  0  0  0  0  0  0  0  1  0  0
  -24.4464  -24.2502   17.2776 C   0  0  2  0  0  0  0  0  0  0  0  0
  -25.4218  -32.9925   22.3759 C   0  0  1  0  0  0  0  0  0  0  0  0
  -28.1381  -34.1263   24.7646 C   0  0  2  0  0  0  0  0  0  0  0  0
  -24.8463  -26.5022   16.0210 C   0  0  0  0  0  0  0  0  0  0  0  0
  -24.7044  -34.0117   21.4463 C   0  0  0  0  0  0  0  0  0  0  0  0
  -27.3984  -22.0134   16.5254 N   0  0  0  0  0  0  0  0  0  0  0  0
  -24.5356  -17.8803   20.6293 N   0  0  0  0  0  0  0  0  0  0  0  0
  -24.8681  -19.1725   20.7903 N   0  0  0  0  0  0  0  0  0  0  0  0
  -24.6302  -30.6830   22.7803 N   0  0  0  0  0  0  0  0  0  0  0  0
  -22.5526  -21.7890   19.2249 N   0  0  0  0  0  0  0  0  0  0  0  0
  -26.7037  -20.6147   21.1918 N   0  0  0  0  0  0  0  0  0  0  0  0
  -28.5947  -16.5139   21.1294 N   0  0  0  0  0  0  0  0  0  0  0  0
  -21.3603  -29.2913   22.4631 N   0  0  0  0  0  0  0  0  0  0  0  0
  -26.2039  -33.6056   23.4440 N   0  0  0  0  0  0  0  0  0  0  0  0
  -23.7576  -23.7075   18.4465 N   0  0  0  0  0  0  0  0  0  0  0  0
  -29.2381  -33.3397   25.3909 N   0  3  0  0  0  0  0  0  0  0  0  0
  -29.0114  -18.7525   21.4007 O   0  0  0  0  0  0  0  0  0  0  0  0
  -23.1015  -29.5500   20.9387 O   0  0  0  0  0  0  0  0  0  0  0  0
  -23.5819  -32.5040   23.7909 O   0  0  0  0  0  0  0  0  0  0  0  0
  -28.2322  -32.6480   22.8559 O   0  0  0  0  0  0  0  0  0  0  0  0
  -21.6706  -23.1879   17.6176 O   0  0  0  0  0  0  0  0  0  0  0  0
  -25.9495  -11.6796   20.3125 O   0  0  0  0  0  0  0  0  0  0  0  0
  -28.2707  -26.2723   20.4683 O   0  0  0  0  0  0  0  0  0  1  0  0
  -22.1315   -8.7320   22.9843 F   0  0  0  0  0  0  0  0  0  0  0  0
  -26.6736   -9.8407   22.2456 F   0  0  0  0  0  0  0  0  0  0  0  0
  1  2  1  0  0  0  0
  1  5  2  0  0  0  0
  2  6  2  0  0  0  0
  3  8  2  0  0  0  0
  3 17  1  0  0  0  0
  4  9  1  0  0  0  0
  4 17  2  0  0  0  0
  5 19  1  0  0  0  0
  6 21  1  0  0  0  0
  7 10  2  0  0  0  0
  7 20  1  0  0  0  0
  8 25  1  0  0  0  0
  9 25  2  0  0  0  0
 10 26  1  0  0  0  0
 11 12  2  0  0  0  0
 11 27  1  0  0  0  0
 12 28  1  0  0  0  0
 13 22  1  0  0  0  0
 13 26  2  0  0  0  0
 14 23  2  0  0  0  0
 14 24  1  0  0  0  0
 15 28  2  0  0  0  0
 15 29  1  0  0  0  0
 16 23  1  0  0  0  0
 16 68  2  0  0  0  0
 17 30  1  0  0  0  0
 18 30  1  0  0  0  0
 18 32  2  0  0  0  0
 18 33  1  0  0  0  0
 19 21  2  0  0  0  0
 19 38  1  0  0  0  0
 20 22  2  0  0  0  0
 20 39  1  0  0  0  0
 21 47  1  0  0  0  0
 22 40  1  0  0  0  0
 23 59  1  0  0  0  0
 24 31  2  0  0  0  0
 24 63  1  0  0  0  0
 25 84  1  0  0  0  0
 26 85  1  0  0  0  0
 27 29  2  0  0  0  0
 27 84  1  0  0  0  0
 28 86  1  0  0  0  0
 29 87  1  0  0  0  0
 30 69  2  0  0  0  0
 31 50  1  0  0  0  0
 31 68  1  0  0  0  0
 32 70  1  0  0  0  0
 32 73  1  0  0  0  0
 33 74  1  0  0  0  0
 33 79  2  0  0  0  0
 34 48  1  0  0  0  0
 34 75  1  0  0  0  0
 34 80  2  0  0  0  0
 35 64  1  0  0  0  0
 35 71  1  0  0  0  0
 35 81  2  0  0  0  0
 36 65  1  0  0  0  0
 36 76  1  0  0  0  0
 36 82  2  0  0  0  0
 37 72  1  0  0  0  0
 37 77  1  0  0  0  0
 37 83  2  0  0  0  0
 38 41  1  0  0  0  0
 39 48  1  0  0  0  0
 40 71  1  0  0  0  0
 41 43  1  0  0  0  0
 42 44  1  0  0  0  0
 42 45  1  0  0  0  0
 43 47  1  0  0  0  0
 44 49  1  0  0  0  0
 45 72  1  0  0  0  0
 46 49  1  0  0  0  0
 46 72  1  0  0  0  0
 47 75  1  0  0  0  0
 48 71  1  0  0  0  0
 49 70  1  0  0  0  0
 51 65  1  0  0  0  0
 52 66  1  0  0  0  0
 53 66  1  0  0  0  0
 54 67  1  0  0  0  0
 55 67  1  0  0  0  0
 56 67  1  0  0  0  0
 57 77  1  0  0  0  0
 58 78  1  0  0  0  0
 59 60  1  0  0  0  0
 60 62  1  0  0  0  0
 61 63  1  0  0  0  0
 61 66  1  0  0  0  0
 62 85  1  0  0  0  0
 63 77  1  0  0  0  0
 64 67  1  0  0  0  0
 64 76  1  0  0  0  0
 65 78  1  0  0  0  0
 69 70  1  0  0  0  0
M  CHG  1  78   1
M  ISO  4  37 100  62 101  77 100  85 101
M  END
> <Batch ID>
0102

> <Smiles>
CNC(C)C(=O)NC(C(=O)N1Cc2cc([101O:1][101CH2:1]CCc3cnc(C)c(C(CC(C)C)[100N:0](C)[100C:0](=O)N4CCCC(n5nc(-c6ccc(Oc7ccc(F)cc7F)cc6)c(C(N)=O)c5N)C4)c3)ccc2CC1C(=O)NC1CCCc2ccccc21)C(C)(C)C

> <Shape>
0.228

> <Color>
0.085

> <Negative vol penalty>
0.000

$$$$

  -OEChem-04052319383D

 89 97  0     1  0  0  0  0  0999 V2000
  -35.7049  -27.0878   24.2124 C   0  0  0  0  0  0  0  0  0  0  0  0
  -35.1940  -26.3744   23.1329 C   0  0  0  0  0  0  0  0  0  0  0  0
  -27.6919  -19.8160   22.7517 C   0  0  0  0  0  0  0  0  0  0  0  0
  -23.0158   -9.9137   19.9562 C   0  0  0  0  0  0  0  0  0  0  0  0
  -23.7934   -9.8900   22.2435 C   0  0  0  0  0  0  0  0  0  0  0  0
  -34.9396  -27.2460   25.3671 C   0  0  0  0  0  0  0  0  0  0  0  0
  -33.9176  -25.8178   23.2078 C   0  0  0  0  0  0  0  0  0  0  0  0
  -28.2461  -24.2852   19.1088 C   0  0  0  0  0  0  0  0  0  0  0  0
  -26.7369  -19.8993   21.7385 C   0  0  0  0  0  0  0  0  0  0  0  0
  -28.9243  -19.2127   22.5006 C   0  0  0  0  0  0  0  0  0  0  0  0
  -22.2672   -8.7621   20.1987 C   0  0  0  0  0  0  0  0  0  0  0  0
  -23.0448   -8.7383   22.4860 C   0  0  0  0  0  0  0  0  0  0  0  0
  -27.4033  -23.2212   18.7905 C   0  0  0  0  0  0  0  0  0  0  0  0
  -23.3121   -5.4213   21.8884 C   0  0  0  0  0  0  0  0  0  0  0  0
  -23.9271   -4.3843   22.5897 C   0  0  0  0  0  0  0  0  0  0  0  0
  -26.1408  -23.6262   20.8058 C   0  0  0  0  0  0  0  0  0  0  0  0
  -22.2400   -4.5480   24.3113 C   0  0  0  0  0  0  0  0  0  0  0  0
  -23.7790  -10.4777   20.9786 C   0  0  0  0  0  0  0  0  0  0  0  0
  -24.1345  -13.0020   20.8849 C   0  0  0  0  0  0  0  0  0  0  0  0
  -33.6495  -26.6993   25.4525 C   0  0  0  0  0  0  0  0  0  0  0  0
  -28.0489  -25.0220   20.2855 C   0  0  0  0  0  0  0  0  0  0  0  0
  -33.1348  -25.9677   24.3652 C   0  0  0  0  0  0  0  0  0  0  0  0
  -26.9810  -24.7007   21.1355 C   0  0  0  0  0  0  0  0  0  0  0  0
  -27.0141  -19.3794   20.4743 C   0  0  0  0  0  0  0  0  0  0  0  0
  -29.2016  -18.6928   21.2363 C   0  0  0  0  0  0  0  0  0  0  0  0
  -28.2465  -18.7761   20.2231 C   0  0  0  0  0  0  0  0  0  0  0  0
  -22.2816   -8.1743   21.4636 C   0  0  0  0  0  0  0  0  0  0  0  0
  -26.3522  -22.8897   19.6405 C   0  0  0  0  0  0  0  0  0  0  0  0
  -22.1610   -6.0218   22.3985 C   0  0  0  0  0  0  0  0  0  0  0  0
  -23.3911   -3.9476   23.8012 C   0  0  0  0  0  0  0  0  0  0  0  0
  -21.6249   -5.5851   23.6100 C   0  0  0  0  0  0  0  0  0  0  0  0
  -24.5529  -11.6670   20.7285 C   0  0  0  0  0  0  0  0  0  0  0  0
  -25.2281  -13.7494   20.5217 C   0  0  0  0  0  0  0  0  0  0  0  0
  -22.8703  -13.5203   21.3196 C   0  0  0  0  0  0  0  0  0  0  0  0
  -29.7641  -25.5656   22.9059 C   0  0  0  0  0  0  0  0  0  0  0  0
  -27.3376  -27.6032   23.6006 C   0  0  0  0  0  0  0  0  0  0  0  0
  -24.0695  -28.4771   23.1504 C   0  0  0  0  0  0  0  0  0  0  0  0
  -30.7190  -14.7348   20.6790 C   0  0  0  0  0  0  0  0  0  0  0  0
  -32.8783  -26.8562   26.7391 C   0  0  0  0  0  0  0  0  0  0  0  0
  -28.9506  -26.1838   20.6011 C   0  0  0  0  0  0  0  0  0  0  0  0
  -26.7141  -25.4733   22.4005 C   0  0  0  0  0  0  0  0  0  0  0  0
  -31.3886  -26.5545   26.5970 C   0  0  0  0  0  0  0  0  0  0  0  0
  -29.5492  -12.3845   18.2740 C   0  0  0  0  0  0  0  0  0  0  0  0
  -31.1781  -25.2592   25.8195 C   0  0  0  0  0  0  0  0  0  0  0  0
  -28.1134  -12.0940   18.7147 C   0  0  0  0  0  0  0  0  0  0  0  0
  -30.4768  -12.5862   19.4702 C   0  0  0  0  0  0  0  0  0  0  0  0
  -28.5901  -13.3122   20.8798 C   0  0  0  0  0  0  0  0  0  0  0  0
  -31.7449  -25.3702   24.3989 C   0  0  1  0  0  0  0  0  0  0  0  0
  -28.9688  -26.5403   22.0843 C   0  0  1  0  0  0  0  0  0  0  0  0
  -27.6059  -13.1567   19.7079 C   0  0  2  0  0  0  0  0  0  0  0  0
  -28.5437  -18.2185   18.8675 C   0  0  0  0  0  0  0  0  0  0  0  0
  -22.3638  -30.1669   23.8801 C   0  0  0  0  0  0  0  0  0  0  0  0
  -32.0866  -22.7836   20.2591 C   0  0  0  0  0  0  0  0  0  0  0  0
  -32.8704  -21.4898   22.2643 C   0  0  0  0  0  0  0  0  0  0  0  0
  -25.3440  -20.6665   17.2594 C   0  0  0  0  0  0  0  0  0  0  0  0
  -27.0686  -26.1705   26.2811 C   0  0  0  0  0  0  0  0  0  0  0  0
  -24.8148  -27.2292   26.5417 C   0  0  0  0  0  0  0  0  0  0  0  0
  -26.8540  -28.6592   26.4022 C   0  0  0  0  0  0  0  0  0  0  0  0
  -23.6886  -29.4587   20.3845 C   0  0  0  0  0  0  0  0  0  0  0  0
  -32.9296  -18.4794   20.4867 C   0  0  0  0  0  0  0  0  0  0  0  0
  -25.9627  -19.4829   19.3947 C   0  0  0  0  0  0  0  0  0  0  0  0
  -30.8069  -16.8706   21.9400 C   0  0  0  0  0  0  0  0  0  0  0  0
  -31.3196  -20.3768   20.5794 C   0  0  0  0  0  0  0  0  0  0  0  0
  -30.5291  -18.0521   20.9934 C   0  0  2  0  0  0  0  0  0  0  0  0
  -26.0178  -27.4867   24.3242 C   0  0  1  0  0  0  0  0  0  0  0  0
  -23.4173  -29.8127   22.8421 C   0  0  2  0  0  0  0  0  0  0  0  0
  -32.4422  -21.3973   20.7988 C   0  0  0  0  0  0  0  0  0  0  0  0
  -26.0917  -20.7759   18.5823 C   0  0  2  0  0  0  0  0  0  1  0  0
  -26.1947  -27.3704   25.8645 C   0  0  0  0  0  0  0  0  0  0  0  0
  -25.8139  -11.5688   20.2993 N   0  0  0  0  0  0  0  0  0  0  0  0
  -26.1973  -12.8516   20.1828 N   0  0  0  0  0  0  0  0  0  0  0  0
  -27.6273  -26.5965   22.6686 N   0  0  0  0  0  0  0  0  0  0  0  0
  -29.9391  -13.6076   20.3721 N   0  0  0  0  0  0  0  0  0  0  0  0
  -25.4457  -15.0804   20.4623 N   0  0  0  0  0  0  0  0  0  0  0  0
  -21.8558  -12.6131   21.6543 N   0  0  0  0  0  0  0  0  0  0  0  0
  -30.8469  -26.1282   23.5542 N   0  0  0  0  0  0  0  0  0  0  0  0
  -25.2171  -28.6299   23.8993 N   0  0  0  0  0  0  0  0  0  0  0  0
  -30.1318  -15.6573   21.5363 N   0  0  0  0  0  0  0  0  0  0  0  0
  -22.7634  -29.7732   21.5035 N   0  3  0  0  0  0  0  0  0  0  0  0
  -31.6760  -19.0192   21.1115 N   0  3  1  0  0  0  0  0  0  0  0  0
  -22.6417  -14.7515   21.3928 O   0  0  0  0  0  0  0  0  0  0  0  0
  -29.4199  -24.3903   22.9496 O   0  0  0  0  0  0  0  0  0  0  0  0
  -28.0808  -28.5561   23.8478 O   0  0  0  0  0  0  0  0  0  0  0  0
  -23.6052  -27.4051   22.7685 O   0  0  0  0  0  0  0  0  0  0  0  0
  -31.8524  -14.9090   20.2186 O   0  0  0  0  0  0  0  0  0  0  0  0
  -21.5511   -7.0507   21.7007 O   0  0  0  0  0  0  0  0  0  0  0  0
  -25.5285  -21.8512   19.3325 O   0  0  0  0  0  0  0  0  0  1  0  0
  -23.9809   -2.9507   24.4738 F   0  0  0  0  0  0  0  0  0  0  0  0
  -20.5186   -6.1572   24.1045 F   0  0  0  0  0  0  0  0  0  0  0  0
  1  2  1  0  0  0  0
  1  6  2  0  0  0  0
  2  7  2  0  0  0  0
  3  9  2  0  0  0  0
  3 10  1  0  0  0  0
  4 11  2  0  0  0  0
  4 18  1  0  0  0  0
  5 12  1  0  0  0  0
  5 18  2  0  0  0  0
  6 20  1  0  0  0  0
  7 22  1  0  0  0  0
  8 13  2  0  0  0  0
  8 21  1  0  0  0  0
  9 24  1  0  0  0  0
 10 25  2  0  0  0  0
 11 27  1  0  0  0  0
 12 27  2  0  0  0  0
 13 28  1  0  0  0  0
 14 15  2  0  0  0  0
 14 29  1  0  0  0  0
 15 30  1  0  0  0  0
 16 23  1  0  0  0  0
 16 28  2  0  0  0  0
 17 30  2  0  0  0  0
 17 31  1  0  0  0  0
 18 32  1  0  0  0  0
 19 32  1  0  0  0  0
 19 33  2  0  0  0  0
 19 34  1  0  0  0  0
 20 22  2  0  0  0  0
 20 39  1  0  0  0  0
 21 23  2  0  0  0  0
 21 40  1  0  0  0  0
 22 48  1  0  0  0  0
 23 41  1  0  0  0  0
 24 26  2  0  0  0  0
 24 61  1  0  0  0  0
 25 26  1  0  0  0  0
 25 64  1  0  0  0  0
 26 51  1  0  0  0  0
 27 86  1  0  0  0  0
 28 87  1  0  0  0  0
 29 31  2  0  0  0  0
 29 86  1  0  0  0  0
 30 88  1  0  0  0  0
 31 89  1  0  0  0  0
 32 70  2  0  0  0  0
 33 71  1  0  0  0  0
 33 74  1  0  0  0  0
 34 75  1  0  0  0  0
 34 81  2  0  0  0  0
 35 49  1  0  0  0  0
 35 76  1  0  0  0  0
 35 82  2  0  0  0  0
 36 65  1  0  0  0  0
 36 72  1  0  0  0  0
 36 83  2  0  0  0  0
 37 66  1  0  0  0  0
 37 77  1  0  0  0  0
 37 84  2  0  0  0  0
 38 73  1  0  0  0  0
 38 78  1  0  0  0  0
 38 85  2  0  0  0  0
 39 42  1  0  0  0  0
 40 49  1  0  0  0  0
 41 72  1  0  0  0  0
 42 44  1  0  0  0  0
 43 45  1  0  0  0  0
 43 46  1  0  0  0  0
 44 48  1  0  0  0  0
 45 50  1  0  0  0  0
 46 73  1  0  0  0  0
 47 50  1  0  0  0  0
 47 73  1  0  0  0  0
 48 76  1  0  0  0  0
 49 72  1  0  0  0  0
 50 71  1  0  0  0  0
 52 66  1  0  0  0  0
 53 67  1  0  0  0  0
 54 67  1  0  0  0  0
 55 68  1  0  0  0  0
 56 69  1  0  0  0  0
 57 69  1  0  0  0  0
 58 69  1  0  0  0  0
 59 79  1  0  0  0  0
 60 80  1  0  0  0  0
 61 68  1  0  0  0  0
 62 64  1  0  0  0  0
 62 78  1  0  0  0  0
 63 67  1  0  0  0  0
 63 80  1  0  0  0  0
 64 80  1  0  0  0  0
 65 69  1  0  0  0  0
 65 77  1  0  0  0  0
 66 79  1  0  0  0  0
 68 87  1  0  0  0  0
 70 71  1  0  0  0  0
M  CHG  2  79   1  80   1
M  ISO  4  38 100  68 101  78 100  87 101
M  END
> <Batch ID>
0102

> <Smiles>
CNC(C)C(=O)NC(C(=O)N1Cc2cc([101O:1][101CH:1](C)Cc3cccc(C(C[100NH:0][100C:0](=O)N4CCCC(n5nc(-c6ccc(Oc7ccc(F)cc7F)cc6)c(C(N)=O)c5N)C4)N(C)CC(C)C)c3C)ccc2CC1C(=O)NC1CCCc2ccccc21)C(C)(C)C

> <Shape>
0.257

> <Color>
0.196

> <Negative vol penalty>
0.000

$$$$

  -OEChem-04052319383D

 87 95  0     1  0  0  0  0  0999 V2000
  -16.9987  -26.0626   22.1747 C   0  0  0  0  0  0  0  0  0  0  0  0
  -18.3254  -25.6606   22.0572 C   0  0  0  0  0  0  0  0  0  0  0  0
  -24.3437  -13.3124   21.2740 C   0  0  0  0  0  0  0  0  0  0  0  0
  -26.3039  -12.8196   19.9504 C   0  0  0  0  0  0  0  0  0  0  0  0
  -16.6594  -27.4032   21.9972 C   0  0  0  0  0  0  0  0  0  0  0  0
  -19.3134  -26.5990   21.7612 C   0  0  0  0  0  0  0  0  0  0  0  0
  -23.4396  -26.0512   24.6456 C   0  0  0  0  0  0  0  0  0  0  0  0
  -23.7870  -12.0876   20.9057 C   0  0  0  0  0  0  0  0  0  0  0  0
  -25.7473  -11.5947   19.5821 C   0  0  0  0  0  0  0  0  0  0  0  0
  -24.3218  -25.0262   24.3069 C   0  0  0  0  0  0  0  0  0  0  0  0
  -24.1144   -8.8384   21.7824 C   0  0  0  0  0  0  0  0  0  0  0  0
  -23.5221   -8.0684   22.7833 C   0  0  0  0  0  0  0  0  0  0  0  0
  -25.7532  -26.6286   23.2104 C   0  0  0  0  0  0  0  0  0  0  0  0
  -21.4140   -8.1606   21.6068 C   0  0  0  0  0  0  0  0  0  0  0  0
  -25.6021  -13.6784   20.7963 C   0  0  0  0  0  0  0  0  0  0  0  0
  -26.9961  -15.2050   22.2908 C   0  0  0  0  0  0  0  0  0  0  0  0
  -17.6451  -28.3601   21.7084 C   0  0  0  0  0  0  0  0  0  0  0  0
  -23.7026  -27.3733   24.2592 C   0  0  0  0  0  0  0  0  0  0  0  0
  -18.9868  -27.9535   21.5784 C   0  0  0  0  0  0  0  0  0  0  0  0
  -24.8741  -27.6690   23.5477 C   0  0  0  0  0  0  0  0  0  0  0  0
  -24.4888  -11.2287   20.0598 C   0  0  0  0  0  0  0  0  0  0  0  0
  -25.4773  -25.3143   23.5867 C   0  0  0  0  0  0  0  0  0  0  0  0
  -23.3564   -9.2696   20.6937 C   0  0  0  0  0  0  0  0  0  0  0  0
  -22.1719   -7.7294   22.6955 C   0  0  0  0  0  0  0  0  0  0  0  0
  -22.0062   -8.9307   20.6059 C   0  0  0  0  0  0  0  0  0  0  0  0
  -26.1773  -14.9437   21.1759 C   0  0  0  0  0  0  0  0  0  0  0  0
  -27.2761  -16.5469   22.2043 C   0  0  0  0  0  0  0  0  0  0  0  0
  -27.4620  -14.3144   23.3133 C   0  0  0  0  0  0  0  0  0  0  0  0
  -22.2334  -29.5061   22.4163 C   0  0  0  0  0  0  0  0  0  0  0  0
  -24.5601  -31.4807   23.5163 C   0  0  0  0  0  0  0  0  0  0  0  0
  -27.6893  -31.8179   24.8359 C   0  0  0  0  0  0  0  0  0  0  0  0
  -28.8348  -20.9019   19.2801 C   0  0  0  0  0  0  0  0  0  0  0  0
  -17.2236  -29.7898   21.4784 C   0  0  0  0  0  0  0  0  0  0  0  0
  -22.7544  -28.4716   24.6556 C   0  0  0  0  0  0  0  0  0  0  0  0
  -25.2126  -29.0749   23.1266 C   0  0  0  0  0  0  0  0  0  0  0  0
  -18.3814  -30.7831   21.5370 C   0  0  0  0  0  0  0  0  0  0  0  0
  -25.2967  -20.1413   19.2457 C   0  0  0  0  0  0  0  0  0  0  0  0
  -30.7909  -25.2076   17.8254 C   0  0  0  0  0  0  0  0  0  0  0  0
  -19.5647  -30.2723   20.7212 C   0  0  0  0  0  0  0  0  0  0  0  0
  -25.2827  -18.7326   19.8418 C   0  0  0  0  0  0  0  0  0  0  0  0
  -29.7520  -24.1020   17.6638 C   0  0  0  0  0  0  0  0  0  0  0  0
  -26.5095  -20.3475   18.3429 C   0  0  0  0  0  0  0  0  0  0  0  0
  -27.8076  -18.6686   19.5959 C   0  0  0  0  0  0  0  0  0  0  0  0
  -30.5949  -25.9831   19.1193 C   0  0  0  0  0  0  0  0  0  0  0  0
  -29.5358  -23.9664   20.1760 C   0  0  0  0  0  0  0  0  0  0  0  0
  -20.0905  -28.9458   21.2828 C   0  0  1  0  0  0  0  0  0  0  0  0
  -22.8639  -29.7057   23.7655 C   0  0  1  0  0  0  0  0  0  0  0  0
  -26.6177  -18.4047   20.5364 C   0  0  2  0  0  0  0  0  0  0  0  0
  -29.7327  -23.1789   18.8832 C   0  0  1  0  0  0  0  0  0  0  0  0
  -26.9091  -21.2437   25.4374 C   0  0  0  0  0  0  0  0  0  0  0  0
  -29.3307  -33.5584   25.5932 C   0  0  0  0  0  0  0  0  0  0  0  0
  -28.5448  -25.9599   25.5484 C   0  0  0  0  0  0  0  0  0  0  0  0
  -32.6084  -24.9455   22.8196 C   0  0  0  0  0  0  0  0  0  0  0  0
  -25.2125  -32.1279   20.6068 C   0  0  0  0  0  0  0  0  0  0  0  0
  -27.3959  -33.0780   21.3805 C   0  0  0  0  0  0  0  0  0  0  0  0
  -25.2522  -34.0972   22.1477 C   0  0  0  0  0  0  0  0  0  0  0  0
  -27.7061  -30.7651   27.6018 C   0  0  0  0  0  0  0  0  0  0  0  0
  -26.4516  -22.1154   24.2750 C   0  0  0  0  0  0  0  0  0  0  0  0
  -30.4955  -25.2593   24.1454 C   0  0  0  0  0  0  0  0  0  0  0  0
  -28.4511  -23.7274   24.3178 C   0  0  0  0  0  0  0  0  0  0  0  0
  -30.5385  -25.7525   21.6006 C   0  0  0  0  0  0  0  0  0  0  0  0
  -25.9529  -31.8475   23.0642 C   0  0  1  0  0  0  0  0  0  0  0  0
  -28.2044  -32.6266   26.0127 C   0  0  2  0  0  0  0  0  0  0  0  0
  -28.9560  -25.1889   24.2873 C   0  0  1  0  0  0  0  0  0  0  0  0
  -31.0755  -24.9009   22.7588 C   0  0  1  0  0  0  0  0  0  0  0  0
  -26.9213  -23.5769   24.3299 C   0  0  1  0  0  0  0  0  0  1  0  0
  -25.9463  -32.7608   21.8059 C   0  0  0  0  0  0  0  0  0  0  0  0
  -25.9517  -16.0323   20.4355 N   0  0  0  0  0  0  0  0  0  0  0  0
  -26.6327  -16.9906   21.0865 N   0  0  0  0  0  0  0  0  0  0  0  0
  -24.2510  -30.1132   23.5325 N   0  0  0  0  0  0  0  0  0  0  0  0
  -27.7484  -20.0364   19.0697 N   0  0  0  0  0  0  0  0  0  0  0  0
  -28.0072  -17.3788   22.9761 N   0  0  0  0  0  0  0  0  0  0  0  0
  -27.0802  -12.9673   23.2507 N   0  0  0  0  0  0  0  0  0  0  0  0
  -20.8916  -29.1796   22.4652 N   0  0  0  0  0  0  0  0  0  0  0  0
  -26.6176  -32.4326   24.2237 N   0  0  0  0  0  0  0  0  0  0  0  0
  -28.7022  -22.1769   18.7438 N   0  0  0  0  0  0  0  0  0  0  0  0
  -30.6096  -25.0252   20.2858 N   0  3  2  0  0  0  0  0  0  0  0  0
  -28.7166  -31.7206   27.0793 N   0  3  0  0  0  0  0  0  0  0  0  0
  -28.1817  -14.7050   24.2635 O   0  0  0  0  0  0  0  0  0  0  0  0
  -22.9135  -29.6400   21.4058 O   0  0  0  0  0  0  0  0  0  0  0  0
  -23.7776  -32.3741   23.8498 O   0  0  0  0  0  0  0  0  0  0  0  0
  -28.1900  -30.7496   24.4916 O   0  0  0  0  0  0  0  0  0  0  0  0
  -29.8465  -20.5650   19.9046 O   0  0  0  0  0  0  0  0  0  0  0  0
  -23.9461  -10.0334   19.7004 O   0  0  0  0  0  0  0  0  0  0  0  0
  -26.3450  -24.3096   23.2521 O   0  0  0  0  0  0  0  0  0  1  0  0
  -21.6037   -6.9887   23.6560 F   0  0  0  0  0  0  0  0  0  0  0  0
  -21.2733   -9.3410   19.5618 F   0  0  0  0  0  0  0  0  0  0  0  0
  1  2  1  0  0  0  0
  1  5  2  0  0  0  0
  2  6  2  0  0  0  0
  3  8  2  0  0  0  0
  3 15  1  0  0  0  0
  4  9  1  0  0  0  0
  4 15  2  0  0  0  0
  5 17  1  0  0  0  0
  6 19  1  0  0  0  0
  7 10  2  0  0  0  0
  7 18  1  0  0  0  0
  8 21  1  0  0  0  0
  9 21  2  0  0  0  0
 10 22  1  0  0  0  0
 11 12  2  0  0  0  0
 11 23  1  0  0  0  0
 12 24  1  0  0  0  0
 13 20  1  0  0  0  0
 13 22  2  0  0  0  0
 14 24  2  0  0  0  0
 14 25  1  0  0  0  0
 15 26  1  0  0  0  0
 16 26  1  0  0  0  0
 16 27  2  0  0  0  0
 16 28  1  0  0  0  0
 17 19  2  0  0  0  0
 17 33  1  0  0  0  0
 18 20  2  0  0  0  0
 18 34  1  0  0  0  0
 19 46  1  0  0  0  0
 20 35  1  0  0  0  0
 21 84  1  0  0  0  0
 22 85  1  0  0  0  0
 23 25  2  0  0  0  0
 23 84  1  0  0  0  0
 24 86  1  0  0  0  0
 25 87  1  0  0  0  0
 26 68  2  0  0  0  0
 27 69  1  0  0  0  0
 27 72  1  0  0  0  0
 28 73  1  0  0  0  0
 28 79  2  0  0  0  0
 29 47  1  0  0  0  0
 29 74  1  0  0  0  0
 29 80  2  0  0  0  0
 30 62  1  0  0  0  0
 30 70  1  0  0  0  0
 30 81  2  0  0  0  0
 31 63  1  0  0  0  0
 31 75  1  0  0  0  0
 31 82  2  0  0  0  0
 32 71  1  0  0  0  0
 32 76  1  0  0  0  0
 32 83  2  0  0  0  0
 33 36  1  0  0  0  0
 34 47  1  0  0  0  0
 35 70  1  0  0  0  0
 36 39  1  0  0  0  0
 37 40  1  0  0  0  0
 37 42  1  0  0  0  0
 38 41  1  0  0  0  0
 38 44  1  0  0  0  0
 39 46  1  0  0  0  0
 40 48  1  0  0  0  0
 41 49  1  0  0  0  0
 42 71  1  0  0  0  0
 43 48  1  0  0  0  0
 43 71  1  0  0  0  0
 44 77  1  0  0  0  0
 45 49  1  0  0  0  0
 45 77  1  0  0  0  0
 46 74  1  0  0  0  0
 47 70  1  0  0  0  0
 48 69  1  0  0  0  0
 49 76  1  0  0  0  0
 50 58  1  0  0  0  0
 51 63  1  0  0  0  0
 52 64  1  0  0  0  0
 53 65  1  0  0  0  0
 54 67  1  0  0  0  0
 55 67  1  0  0  0  0
 56 67  1  0  0  0  0
 57 78  1  0  0  0  0
 58 66  1  0  0  0  0
 59 64  1  0  0  0  0
 59 65  1  0  0  0  0
 60 64  1  0  0  0  0
 60 66  1  0  0  0  0
 61 65  1  0  0  0  0
 61 77  1  0  0  0  0
 62 67  1  0  0  0  0
 62 75  1  0  0  0  0
 63 78  1  0  0  0  0
 66 85  1  0  0  0  0
 68 69  1  0  0  0  0
M  CHG  2  77   1  78   1
M  ISO  4  32 100  66 101  76 100  85 101
M  END
> <Batch ID>
0102

> <Smiles>
CC[101CH:1](CC(C)CC(C)CN1CCCC([100NH:0][100C:0](=O)N2CCCC(n3nc(-c4ccc(Oc5ccc(F)cc5F)cc4)c(C(N)=O)c3N)C2)C1)[101O:1]c1ccc2c(c1)CN(C(=O)C(NC(=O)C(C)NC)C(C)(C)C)C(C(=O)NC1CCCc3ccccc31)C2

> <Shape>
0.284

> <Color>
0.074

> <Negative vol penalty>
0.000

$$$$

  -OEChem-04052319383D

 87 95  0     1  0  0  0  0  0999 V2000
  -23.6280  -24.0266   17.5851 C   0  0  0  0  0  0  0  0  0  0  0  0
  -22.7275  -24.7313   18.3776 C   0  0  0  0  0  0  0  0  0  0  0  0
  -23.6660  -14.3323   19.6808 C   0  0  0  0  0  0  0  0  0  0  0  0
  -24.9610  -14.2684   21.7194 C   0  0  0  0  0  0  0  0  0  0  0  0
  -24.9872  -24.0406   17.8954 C   0  0  0  0  0  0  0  0  0  0  0  0
  -23.1856  -25.4494   19.4816 C   0  0  0  0  0  0  0  0  0  0  0  0
  -21.1207  -30.0631   19.7910 C   0  0  0  0  0  0  0  0  0  0  0  0
  -24.5692  -13.4559   19.0795 C   0  0  0  0  0  0  0  0  0  0  0  0
  -25.8643  -13.3918   21.1181 C   0  0  0  0  0  0  0  0  0  0  0  0
  -19.8199  -30.1466   20.2855 C   0  0  0  0  0  0  0  0  0  0  0  0
  -28.4519  -13.5808   18.9503 C   0  0  0  0  0  0  0  0  0  0  0  0
  -29.8127  -13.8304   19.1273 C   0  0  0  0  0  0  0  0  0  0  0  0
  -20.6875  -30.7947   22.4411 C   0  0  0  0  0  0  0  0  0  0  0  0
  -17.1093  -26.4887   24.4512 C   0  0  0  0  0  0  0  0  0  0  0  0
  -30.0716  -11.6719   20.1813 C   0  0  0  0  0  0  0  0  0  0  0  0
  -23.8620  -14.7387   21.0008 C   0  0  0  0  0  0  0  0  0  0  0  0
  -21.7714  -15.3068   22.3477 C   0  0  0  0  0  0  0  0  0  0  0  0
  -25.4634  -24.7671   18.9981 C   0  0  0  0  0  0  0  0  0  0  0  0
  -22.2170  -30.3346   20.6221 C   0  0  0  0  0  0  0  0  0  0  0  0
  -24.5523  -25.4720   19.8077 C   0  0  0  0  0  0  0  0  0  0  0  0
  -22.0011  -30.7164   21.9540 C   0  0  0  0  0  0  0  0  0  0  0  0
  -18.0047  -25.4878   24.8114 C   0  0  0  0  0  0  0  0  0  0  0  0
  -19.2058  -25.3566   24.1233 C   0  0  0  0  0  0  0  0  0  0  0  0
  -25.6683  -12.9856   19.7982 C   0  0  0  0  0  0  0  0  0  0  0  0
  -19.6032  -30.5096   21.6115 C   0  0  0  0  0  0  0  0  0  0  0  0
  -27.9008  -12.3767   19.3889 C   0  0  0  0  0  0  0  0  0  0  0  0
  -30.6226  -12.8760   19.7427 C   0  0  0  0  0  0  0  0  0  0  0  0
  -28.7107  -11.4223   20.0044 C   0  0  0  0  0  0  0  0  0  0  0  0
  -22.9296  -15.6445   21.6223 C   0  0  0  0  0  0  0  0  0  0  0  0
  -17.4594  -27.3260   23.4042 C   0  0  0  0  0  0  0  0  0  0  0  0
  -19.4619  -26.2444   23.0909 C   0  0  0  0  0  0  0  0  0  0  0  0
  -21.2383  -16.5151   22.7253 C   0  0  0  0  0  0  0  0  0  0  0  0
  -21.2261  -14.0164   22.6531 C   0  0  0  0  0  0  0  0  0  0  0  0
  -24.7056  -28.6586   21.6718 C   0  0  0  0  0  0  0  0  0  0  0  0
  -25.6196  -31.5196   22.8972 C   0  0  0  0  0  0  0  0  0  0  0  0
  -24.7191  -34.6273   23.9827 C   0  0  0  0  0  0  0  0  0  0  0  0
  -22.7164  -21.6102   24.4839 C   0  0  0  0  0  0  0  0  0  0  0  0
  -26.9355  -24.7138   19.3217 C   0  0  0  0  0  0  0  0  0  0  0  0
  -23.6129  -30.2660   20.0661 C   0  0  0  0  0  0  0  0  0  0  0  0
  -23.1431  -31.0379   22.8818 C   0  0  0  0  0  0  0  0  0  0  0  0
  -27.3863  -25.8048   20.2896 C   0  0  0  0  0  0  0  0  0  0  0  0
  -21.6592  -21.1698   21.1432 C   0  0  0  0  0  0  0  0  0  0  0  0
  -26.4234  -25.9037   21.4685 C   0  0  0  0  0  0  0  0  0  0  0  0
  -21.7722  -19.6539   20.9874 C   0  0  0  0  0  0  0  0  0  0  0  0
  -22.8198  -21.7524   21.9520 C   0  0  0  0  0  0  0  0  0  0  0  0
  -23.1280  -19.5893   23.1133 C   0  0  0  0  0  0  0  0  0  0  0  0
  -25.0138  -26.2831   20.9991 C   0  0  1  0  0  0  0  0  0  0  0  0
  -24.6754  -30.0644   21.1421 C   0  0  1  0  0  0  0  0  0  0  0  0
  -21.9426  -18.9715   22.3557 C   0  0  2  0  0  0  0  0  0  0  0  0
  -17.6528  -24.5688   25.9342 C   0  0  0  0  0  0  0  0  0  0  0  0
  -20.7359  -26.1543   22.3160 C   0  0  0  0  0  0  0  0  0  0  0  0
  -25.6819  -36.7274   24.9624 C   0  0  0  0  0  0  0  0  0  0  0  0
  -15.6793  -30.7764   23.2816 C   0  0  0  0  0  0  0  0  0  0  0  0
  -25.8706  -30.1380   25.6061 C   0  0  0  0  0  0  0  0  0  0  0  0
  -25.8934  -32.3997   26.6794 C   0  0  0  0  0  0  0  0  0  0  0  0
  -27.7037  -31.7582   25.0876 C   0  0  0  0  0  0  0  0  0  0  0  0
  -23.9058  -23.7530   23.8524 C   0  0  0  0  0  0  0  0  0  0  0  0
  -23.8255  -36.2514   21.6755 C   0  0  0  0  0  0  0  0  0  0  0  0
  -20.1866  -24.2938   24.4891 C   0  0  0  0  0  0  0  0  0  0  0  0
  -16.5127  -28.4249   22.9863 C   0  0  0  0  0  0  0  0  0  0  0  0
  -21.3698  -24.7855   25.3460 C   0  0  0  0  0  0  0  0  0  0  0  0
  -22.3447  -23.6858   25.7615 C   0  0  0  0  0  0  0  0  0  0  0  0
  -18.1508  -30.3125   23.4844 C   0  0  0  0  0  0  0  0  0  1  0  0
  -25.3881  -32.2482   24.1989 C   0  0  1  0  0  0  0  0  0  0  0  0
  -25.2885  -36.0026   23.6846 C   0  0  2  0  0  0  0  0  0  0  0  0
  -16.7389  -29.7594   23.7246 C   0  0  1  0  0  0  0  0  0  0  0  0
  -26.1923  -31.6282   25.3763 C   0  0  0  0  0  0  0  0  0  0  0  0
  -23.1216  -16.9639   21.5423 N   0  0  0  0  0  0  0  0  0  0  0  0
  -18.6168  -27.2293   22.7123 N   0  0  0  0  0  0  0  0  0  0  0  0
  -22.0768  -17.4659   22.2223 N   0  0  0  0  0  0  0  0  0  0  0  0
  -24.4896  -30.9505   22.2930 N   0  0  0  0  0  0  0  0  0  0  0  0
  -22.9772  -21.0419   23.2284 N   0  0  0  0  0  0  0  0  0  0  0  0
  -20.1387  -16.8462   23.4350 N   0  0  0  0  0  0  0  0  0  0  0  0
  -21.9004  -12.8791   22.1881 N   0  0  0  0  0  0  0  0  0  0  0  0
  -24.9423  -27.6986   20.7066 N   0  0  0  0  0  0  0  0  0  0  0  0
  -25.6924  -33.6515   23.9410 N   0  0  0  0  0  0  0  0  0  0  0  0
  -22.9211  -22.9916   24.6186 N   0  0  0  0  0  0  0  0  0  0  0  0
  -24.2840  -36.8339   22.9630 N   0  3  0  0  0  0  0  0  0  0  0  0
  -20.1633  -13.8765   23.3045 O   0  0  0  0  0  0  0  0  0  0  0  0
  -24.5287  -28.4598   22.8680 O   0  0  0  0  0  0  0  0  0  0  0  0
  -26.7599  -31.4639   22.4299 O   0  0  0  0  0  0  0  0  0  0  0  0
  -23.5304  -34.4381   24.2314 O   0  0  0  0  0  0  0  0  0  0  0  0
  -22.3293  -20.9207   25.4362 O   0  0  0  0  0  0  0  0  0  0  0  0
  -26.5497  -12.1301   19.2118 O   0  0  0  0  0  0  0  0  0  0  0  0
  -18.3345  -30.5913   22.0970 O   0  0  0  0  0  0  0  0  0  1  0  0
  -31.9298  -13.1152   19.9112 F   0  0  0  0  0  0  0  0  0  0  0  0
  -28.1873  -10.2632   20.4267 F   0  0  0  0  0  0  0  0  0  0  0  0
  1  2  1  0  0  0  0
  1  5  2  0  0  0  0
  2  6  2  0  0  0  0
  3  8  2  0  0  0  0
  3 16  1  0  0  0  0
  4  9  1  0  0  0  0
  4 16  2  0  0  0  0
  5 18  1  0  0  0  0
  6 20  1  0  0  0  0
  7 10  2  0  0  0  0
  7 19  1  0  0  0  0
  8 24  1  0  0  0  0
  9 24  2  0  0  0  0
 10 25  1  0  0  0  0
 11 12  2  0  0  0  0
 11 26  1  0  0  0  0
 12 27  1  0  0  0  0
 13 21  1  0  0  0  0
 13 25  2  0  0  0  0
 14 22  2  0  0  0  0
 14 30  1  0  0  0  0
 15 27  2  0  0  0  0
 15 28  1  0  0  0  0
 16 29  1  0  0  0  0
 17 29  1  0  0  0  0
 17 32  2  0  0  0  0
 17 33  1  0  0  0  0
 18 20  2  0  0  0  0
 18 38  1  0  0  0  0
 19 21  2  0  0  0  0
 19 39  1  0  0  0  0
 20 47  1  0  0  0  0
 21 40  1  0  0  0  0
 22 23  1  0  0  0  0
 22 50  1  0  0  0  0
 23 31  2  0  0  0  0
 23 59  1  0  0  0  0
 24 84  1  0  0  0  0
 25 85  1  0  0  0  0
 26 28  2  0  0  0  0
 26 84  1  0  0  0  0
 27 86  1  0  0  0  0
 28 87  1  0  0  0  0
 29 68  2  0  0  0  0
 30 60  1  0  0  0  0
 30 69  2  0  0  0  0
 31 51  1  0  0  0  0
 31 69  1  0  0  0  0
 32 70  1  0  0  0  0
 32 73  1  0  0  0  0
 33 74  1  0  0  0  0
 33 79  2  0  0  0  0
 34 48  1  0  0  0  0
 34 75  1  0  0  0  0
 34 80  2  0  0  0  0
 35 64  1  0  0  0  0
 35 71  1  0  0  0  0
 35 81  2  0  0  0  0
 36 65  1  0  0  0  0
 36 76  1  0  0  0  0
 36 82  2  0  0  0  0
 37 72  1  0  0  0  0
 37 77  1  0  0  0  0
 37 83  2  0  0  0  0
 38 41  1  0  0  0  0
 39 48  1  0  0  0  0
 40 71  1  0  0  0  0
 41 43  1  0  0  0  0
 42 44  1  0  0  0  0
 42 45  1  0  0  0  0
 43 47  1  0  0  0  0
 44 49  1  0  0  0  0
 45 72  1  0  0  0  0
 46 49  1  0  0  0  0
 46 72  1  0  0  0  0
 47 75  1  0  0  0  0
 48 71  1  0  0  0  0
 49 70  1  0  0  0  0
 52 65  1  0  0  0  0
 53 66  1  0  0  0  0
 54 67  1  0  0  0  0
 55 67  1  0  0  0  0
 56 67  1  0  0  0  0
 57 77  1  0  0  0  0
 58 78  1  0  0  0  0
 59 61  1  0  0  0  0
 60 66  1  0  0  0  0
 61 62  1  0  0  0  0
 62 77  1  0  0  0  0
 63 66  1  0  0  0  0
 63 85  1  0  0  0  0
 64 67  1  0  0  0  0
 64 76  1  0  0  0  0
 65 78  1  0  0  0  0
 68 70  1  0  0  0  0
M  CHG  1  78   1
M  ISO  4  37 100  63 101  77 100  85 101
M  END
> <Batch ID>
0102

> <Smiles>
CNC(C)C(=O)NC(C(=O)N1Cc2cc([101O:1][101CH2:1]C(C)Cc3cc(C)c(CCC[100N:0](C)[100C:0](=O)N4CCCC(n5nc(-c6ccc(Oc7ccc(F)cc7F)cc6)c(C(N)=O)c5N)C4)c(C)n3)ccc2CC1C(=O)NC1CCCc2ccccc21)C(C)(C)C

> <Shape>
0.268

> <Color>
0.082

> <Negative vol penalty>
0.000

$$$$

  -OEChem-04052319383D

 88 96  0     1  0  0  0  0  0999 V2000
  -28.8528  -32.0523   20.5683 C   0  0  0  0  0  0  0  0  0  0  0  0
  -28.3144  -30.7956   20.3109 C   0  0  0  0  0  0  0  0  0  0  0  0
  -26.8114  -12.9083   20.6317 C   0  0  0  0  0  0  0  0  0  0  0  0
  -25.5036  -14.3264   19.1772 C   0  0  0  0  0  0  0  0  0  0  0  0
  -28.3727  -32.8098   21.6358 C   0  0  0  0  0  0  0  0  0  0  0  0
  -27.2962  -30.2952   21.1217 C   0  0  0  0  0  0  0  0  0  0  0  0
  -23.5449  -28.1876   18.4513 C   0  0  0  0  0  0  0  0  0  0  0  0
  -25.9548  -11.8411   20.3616 C   0  0  0  0  0  0  0  0  0  0  0  0
  -24.6470  -13.2592   18.9070 C   0  0  0  0  0  0  0  0  0  0  0  0
  -23.7639  -26.9061   17.9477 C   0  0  0  0  0  0  0  0  0  0  0  0
  -23.9025   -8.8393   20.3352 C   0  0  0  0  0  0  0  0  0  0  0  0
  -23.4754   -8.0602   21.4105 C   0  0  0  0  0  0  0  0  0  0  0  0
  -22.4889  -25.9776   19.7729 C   0  0  0  0  0  0  0  0  0  0  0  0
  -26.4222  -22.9086   17.1086 C   0  0  0  0  0  0  0  0  0  0  0  0
  -22.4685  -10.0093   22.4227 C   0  0  0  0  0  0  0  0  0  0  0  0
  -26.5858  -14.1510   20.0396 C   0  0  0  0  0  0  0  0  0  0  0  0
  -28.6364  -15.6076   19.6145 C   0  0  0  0  0  0  0  0  0  0  0  0
  -27.3415  -32.3225   22.4542 C   0  0  0  0  0  0  0  0  0  0  0  0
  -22.8043  -28.3732   19.6275 C   0  0  0  0  0  0  0  0  0  0  0  0
  -26.8028  -31.0464   22.2020 C   0  0  0  0  0  0  0  0  0  0  0  0
  -22.2598  -27.2626   20.2880 C   0  0  0  0  0  0  0  0  0  0  0  0
  -27.7222  -23.3859   16.9851 C   0  0  0  0  0  0  0  0  0  0  0  0
  -28.4061  -23.8243   18.1135 C   0  0  0  0  0  0  0  0  0  0  0  0
  -24.8726  -12.0166   19.4992 C   0  0  0  0  0  0  0  0  0  0  0  0
  -23.2383  -25.8007   18.6101 C   0  0  0  0  0  0  0  0  0  0  0  0
  -23.6127  -10.2034   20.3037 C   0  0  0  0  0  0  0  0  0  0  0  0
  -22.7583   -8.6452   22.4542 C   0  0  0  0  0  0  0  0  0  0  0  0
  -22.8956  -10.7884   21.3474 C   0  0  0  0  0  0  0  0  0  0  0  0
  -27.4699  -15.2539   20.3188 C   0  0  0  0  0  0  0  0  0  0  0  0
  -25.8553  -22.8905   18.3728 C   0  0  0  0  0  0  0  0  0  0  0  0
  -27.7503  -23.7655   19.3327 C   0  0  0  0  0  0  0  0  0  0  0  0
  -29.1098  -16.7179   20.2700 C   0  0  0  0  0  0  0  0  0  0  0  0
  -29.2381  -14.9880   18.4701 C   0  0  0  0  0  0  0  0  0  0  0  0
  -23.4246  -29.5798   22.5021 C   0  0  0  0  0  0  0  0  0  0  0  0
  -20.2434  -29.1294   22.9483 C   0  0  0  0  0  0  0  0  0  0  0  0
  -17.4031  -27.4540   22.0693 C   0  0  0  0  0  0  0  0  0  0  0  0
  -28.2545  -21.6689   22.6993 C   0  0  0  0  0  0  0  0  0  0  0  0
  -26.8878  -33.1578   23.6252 C   0  0  0  0  0  0  0  0  0  0  0  0
  -22.5545  -29.7640   20.1431 C   0  0  0  0  0  0  0  0  0  0  0  0
  -21.4404  -27.4096   21.5432 C   0  0  0  0  0  0  0  0  0  0  0  0
  -25.5492  -32.7129   24.2085 C   0  0  0  0  0  0  0  0  0  0  0  0
  -27.7461  -18.7620   24.6913 C   0  0  0  0  0  0  0  0  0  0  0  0
  -25.5225  -31.1985   24.3891 C   0  0  0  0  0  0  0  0  0  0  0  0
  -27.7189  -17.6209   23.6730 C   0  0  0  0  0  0  0  0  0  0  0  0
  -27.0889  -20.0256   24.1406 C   0  0  0  0  0  0  0  0  0  0  0  0
  -27.5944  -19.3453   21.8265 C   0  0  0  0  0  0  0  0  0  0  0  0
  -25.6802  -30.4795   23.0438 C   0  0  1  0  0  0  0  0  0  0  0  0
  -22.2199  -29.7985   21.6311 C   0  0  1  0  0  0  0  0  0  0  0  0
  -28.2957  -18.0666   22.3158 C   0  0  2  0  0  0  0  0  0  0  0  0
  -28.3577  -23.4196   15.6345 C   0  0  0  0  0  0  0  0  0  0  0  0
  -25.1944  -19.9657   18.9720 C   0  0  0  0  0  0  0  0  0  0  0  0
  -14.9650  -27.2770   22.6366 C   0  0  0  0  0  0  0  0  0  0  0  0
  -29.1233  -26.7586   17.5810 C   0  0  0  0  0  0  0  0  0  0  0  0
  -31.4356  -25.9891   17.0109 C   0  0  0  0  0  0  0  0  0  0  0  0
  -20.9462  -27.5587   25.4680 C   0  0  0  0  0  0  0  0  0  0  0  0
  -18.6217  -26.6290   25.4528 C   0  0  0  0  0  0  0  0  0  0  0  0
  -18.9792  -29.0849   25.7048 C   0  0  0  0  0  0  0  0  0  0  0  0
  -16.5904  -28.2647   19.3414 C   0  0  0  0  0  0  0  0  0  0  0  0
  -29.8025  -24.3392   18.0117 C   0  0  0  0  0  0  0  0  0  0  0  0
  -28.4338  -24.2209   20.5805 C   0  0  0  0  0  0  0  0  0  0  0  0
  -24.3612  -21.1400   19.4714 C   0  0  0  0  0  0  0  0  0  0  0  0
  -29.4304  -23.1999   21.1397 C   0  0  0  0  0  0  0  0  0  0  0  0
  -23.5039  -23.4820   19.0675 C   0  0  0  0  0  0  0  0  0  1  0  0
  -24.4340  -22.3733   18.5468 C   0  0  1  0  0  0  0  0  0  0  0  0
  -19.3851  -27.9973   23.4588 C   0  0  1  0  0  0  0  0  0  0  0  0
  -16.0029  -27.9446   21.7479 C   0  0  2  0  0  0  0  0  0  0  0  0
  -29.9640  -25.5758   17.0939 C   0  0  0  0  0  0  0  0  0  0  0  0
  -19.5001  -27.8142   24.9985 C   0  0  0  0  0  0  0  0  0  0  0  0
  -27.2178  -16.0730   21.3433 N   0  0  0  0  0  0  0  0  0  0  0  0
  -26.4881  -23.3082   19.4920 N   0  0  0  0  0  0  0  0  0  0  0  0
  -28.2325  -16.9524   21.2876 N   0  0  0  0  0  0  0  0  0  0  0  0
  -21.2293  -28.7894   22.0112 N   0  0  0  0  0  0  0  0  0  0  0  0
  -27.6822  -20.3954   22.8533 N   0  0  0  0  0  0  0  0  0  0  0  0
  -30.1868  -17.5067   20.0694 N   0  0  0  0  0  0  0  0  0  0  0  0
  -28.6211  -13.8553   17.9218 N   0  0  0  0  0  0  0  0  0  0  0  0
  -24.4339  -30.5037   22.3087 N   0  0  0  0  0  0  0  0  0  0  0  0
  -18.0308  -28.2677   22.9887 N   0  0  0  0  0  0  0  0  0  0  0  0
  -28.8003  -21.9359   21.4497 N   0  0  0  0  0  0  0  0  0  0  0  0
  -15.6642  -27.6498   20.3268 N   0  3  0  0  0  0  0  0  0  0  0  0
  -30.3008  -15.4161   17.9591 O   0  0  0  0  0  0  0  0  0  0  0  0
  -23.4369  -28.6432   23.2921 O   0  0  0  0  0  0  0  0  0  0  0  0
  -20.0415  -30.2745   23.3602 O   0  0  0  0  0  0  0  0  0  0  0  0
  -17.8898  -26.4475   21.5589 O   0  0  0  0  0  0  0  0  0  0  0  0
  -28.2820  -22.5040   23.6097 O   0  0  0  0  0  0  0  0  0  0  0  0
  -24.0367  -10.9754   19.2351 O   0  0  0  0  0  0  0  0  0  0  0  0
  -23.4510  -24.5487   18.1211 O   0  0  0  0  0  0  0  0  0  1  0  0
  -22.3469   -7.8966   23.4859 F   0  0  0  0  0  0  0  0  0  0  0  0
  -22.6131  -12.0981   21.3221 F   0  0  0  0  0  0  0  0  0  0  0  0
  1  2  1  0  0  0  0
  1  5  2  0  0  0  0
  2  6  2  0  0  0  0
  3  8  2  0  0  0  0
  3 16  1  0  0  0  0
  4  9  1  0  0  0  0
  4 16  2  0  0  0  0
  5 18  1  0  0  0  0
  6 20  1  0  0  0  0
  7 10  2  0  0  0  0
  7 19  1  0  0  0  0
  8 24  1  0  0  0  0
  9 24  2  0  0  0  0
 10 25  1  0  0  0  0
 11 12  2  0  0  0  0
 11 26  1  0  0  0  0
 12 27  1  0  0  0  0
 13 21  1  0  0  0  0
 13 25  2  0  0  0  0
 14 22  2  0  0  0  0
 14 30  1  0  0  0  0
 15 27  2  0  0  0  0
 15 28  1  0  0  0  0
 16 29  1  0  0  0  0
 17 29  1  0  0  0  0
 17 32  2  0  0  0  0
 17 33  1  0  0  0  0
 18 20  2  0  0  0  0
 18 38  1  0  0  0  0
 19 21  2  0  0  0  0
 19 39  1  0  0  0  0
 20 47  1  0  0  0  0
 21 40  1  0  0  0  0
 22 23  1  0  0  0  0
 22 50  1  0  0  0  0
 23 31  2  0  0  0  0
 23 59  1  0  0  0  0
 24 85  1  0  0  0  0
 25 86  1  0  0  0  0
 26 28  2  0  0  0  0
 26 85  1  0  0  0  0
 27 87  1  0  0  0  0
 28 88  1  0  0  0  0
 29 69  2  0  0  0  0
 30 64  1  0  0  0  0
 30 70  2  0  0  0  0
 31 60  1  0  0  0  0
 31 70  1  0  0  0  0
 32 71  1  0  0  0  0
 32 74  1  0  0  0  0
 33 75  1  0  0  0  0
 33 80  2  0  0  0  0
 34 48  1  0  0  0  0
 34 76  1  0  0  0  0
 34 81  2  0  0  0  0
 35 65  1  0  0  0  0
 35 72  1  0  0  0  0
 35 82  2  0  0  0  0
 36 66  1  0  0  0  0
 36 77  1  0  0  0  0
 36 83  2  0  0  0  0
 37 73  1  0  0  0  0
 37 78  1  0  0  0  0
 37 84  2  0  0  0  0
 38 41  1  0  0  0  0
 39 48  1  0  0  0  0
 40 72  1  0  0  0  0
 41 43  1  0  0  0  0
 42 44  1  0  0  0  0
 42 45  1  0  0  0  0
 43 47  1  0  0  0  0
 44 49  1  0  0  0  0
 45 73  1  0  0  0  0
 46 49  1  0  0  0  0
 46 73  1  0  0  0  0
 47 76  1  0  0  0  0
 48 72  1  0  0  0  0
 49 71  1  0  0  0  0
 51 61  1  0  0  0  0
 52 66  1  0  0  0  0
 53 67  1  0  0  0  0
 54 67  1  0  0  0  0
 55 68  1  0  0  0  0
 56 68  1  0  0  0  0
 57 68  1  0  0  0  0
 58 79  1  0  0  0  0
 59 67  1  0  0  0  0
 60 62  1  0  0  0  0
 61 64  1  0  0  0  0
 62 78  1  0  0  0  0
 63 64  1  0  0  0  0
 63 86  1  0  0  0  0
 65 68  1  0  0  0  0
 65 77  1  0  0  0  0
 66 79  1  0  0  0  0
 69 71  1  0  0  0  0
M  CHG  1  79   1
M  ISO  4  37 100  63 101  78 100  86 101
M  END
> <Batch ID>
0102

> <Smiles>
CCC(c1cc(C)c(CC(C)C)c(CC[100NH:0][100C:0](=O)N2CCCC(n3nc(-c4ccc(Oc5ccc(F)cc5F)cc4)c(C(N)=O)c3N)C2)n1)[101CH2:1][101O:1]c1ccc2c(c1)CN(C(=O)C(NC(=O)C(C)NC)C(C)(C)C)C(C(=O)NC1CCCc3ccccc31)C2

> <Shape>
0.265

> <Color>
0.058

> <Negative vol penalty>
0.000

$$$$

  -OEChem-04052319383D

 83 91  0     1  0  0  0  0  0999 V2000
  -21.6646  -12.8879   21.6081 C   0  0  0  0  0  0  0  0  0  0  0  0
  -21.0938  -14.1367   21.8263 C   0  0  0  0  0  0  0  0  0  0  0  0
  -29.0953  -17.6913   19.3215 C   0  0  0  0  0  0  0  0  0  0  0  0
  -30.4773  -18.1287   21.2544 C   0  0  0  0  0  0  0  0  0  0  0  0
  -22.8090  -12.7768   20.8214 C   0  0  0  0  0  0  0  0  0  0  0  0
  -21.6603  -15.2733   21.2482 C   0  0  0  0  0  0  0  0  0  0  0  0
  -21.4165  -22.4350   21.0046 C   0  0  0  0  0  0  0  0  0  0  0  0
  -25.3130  -27.9308   19.0193 C   0  0  0  0  0  0  0  0  0  0  0  0
  -25.9709  -29.1015   19.3964 C   0  0  0  0  0  0  0  0  0  0  0  0
  -29.6196  -16.4015   19.2384 C   0  0  0  0  0  0  0  0  0  0  0  0
  -31.0016  -16.8387   21.1713 C   0  0  0  0  0  0  0  0  0  0  0  0
  -22.1487  -23.6048   21.2025 C   0  0  0  0  0  0  0  0  0  0  0  0
  -30.3284  -12.8717   18.7351 C   0  0  0  0  0  0  0  0  0  0  0  0
  -29.4362  -11.8218   18.5176 C   0  0  0  0  0  0  0  0  0  0  0  0
  -23.2461  -23.2698   19.0806 C   0  0  0  0  0  0  0  0  0  0  0  0
  -26.1689  -26.8167   20.9848 C   0  0  0  0  0  0  0  0  0  0  0  0
  -28.2838  -12.3765   20.5673 C   0  0  0  0  0  0  0  0  0  0  0  0
  -29.5242  -18.5550   20.3294 C   0  0  0  0  0  0  0  0  0  0  0  0
  -27.8460  -20.2987   21.1359 C   0  0  0  0  0  0  0  0  0  0  0  0
  -23.3964  -13.9146   20.2439 C   0  0  0  0  0  0  0  0  0  0  0  0
  -21.6018  -21.6667   19.8462 C   0  0  0  0  0  0  0  0  0  0  0  0
  -22.8015  -15.1788   20.4314 C   0  0  0  0  0  0  0  0  0  0  0  0
  -22.5131  -22.0920   18.8691 C   0  0  0  0  0  0  0  0  0  0  0  0
  -25.4119  -26.7884   19.8136 C   0  0  0  0  0  0  0  0  0  0  0  0
  -26.7279  -29.1298   20.5676 C   0  0  0  0  0  0  0  0  0  0  0  0
  -26.8269  -27.9874   21.3619 C   0  0  0  0  0  0  0  0  0  0  0  0
  -30.5728  -15.9751   20.1633 C   0  0  0  0  0  0  0  0  0  0  0  0
  -23.0658  -24.0209   20.2418 C   0  0  0  0  0  0  0  0  0  0  0  0
  -30.1983  -13.6740   19.8687 C   0  0  0  0  0  0  0  0  0  0  0  0
  -28.4139  -11.5742   19.4337 C   0  0  0  0  0  0  0  0  0  0  0  0
  -29.1760  -13.4264   20.7848 C   0  0  0  0  0  0  0  0  0  0  0  0
  -28.9834  -19.8877   20.4154 C   0  0  0  0  0  0  0  0  0  0  0  0
  -27.7564  -21.6481   20.8956 C   0  0  0  0  0  0  0  0  0  0  0  0
  -26.9504  -19.5296   21.9496 C   0  0  0  0  0  0  0  0  0  0  0  0
  -22.5910  -18.7046   19.2536 C   0  0  0  0  0  0  0  0  0  0  0  0
  -21.7527  -19.4502   16.2100 C   0  0  0  0  0  0  0  0  0  0  0  0
  -21.2104  -21.8687   13.8640 C   0  0  0  0  0  0  0  0  0  0  0  0
  -30.1297  -26.6789   20.4436 C   0  0  0  0  0  0  0  0  0  0  0  0
  -24.6302  -13.7359   19.3948 C   0  0  0  0  0  0  0  0  0  0  0  0
  -20.7848  -20.4216   19.6353 C   0  0  0  0  0  0  0  0  0  0  0  0
  -22.7345  -21.3137   17.5988 C   0  0  0  0  0  0  0  0  0  0  0  0
  -25.4070  -15.0331   19.1944 C   0  0  0  0  0  0  0  0  0  0  0  0
  -30.2099  -24.5709   17.5754 C   0  0  0  0  0  0  0  0  0  0  0  0
  -24.4628  -16.1415   18.7533 C   0  0  0  0  0  0  0  0  0  0  0  0
  -29.8105  -23.1981   18.1191 C   0  0  0  0  0  0  0  0  0  0  0  0
  -31.0640  -25.3473   18.5754 C   0  0  0  0  0  0  0  0  0  0  0  0
  -30.0734  -24.1112   20.4634 C   0  0  0  0  0  0  0  0  0  0  0  0
  -23.4179  -16.4327   19.8379 C   0  0  1  0  0  0  0  0  0  0  0  0
  -21.4274  -19.4440   18.6561 C   0  0  1  0  0  0  0  0  0  0  0  0
  -29.1645  -23.3133   19.5130 C   0  0  2  0  0  0  0  0  0  0  0  0
  -26.4412  -31.5508   21.2081 C   0  0  0  0  0  0  0  0  0  0  0  0
  -28.4763  -30.8227   19.9108 C   0  0  0  0  0  0  0  0  0  0  0  0
  -20.5718  -22.1693   11.4559 C   0  0  0  0  0  0  0  0  0  0  0  0
  -24.5592  -18.6044   15.3626 C   0  0  0  0  0  0  0  0  0  0  0  0
  -24.1870  -19.7946   13.1917 C   0  0  0  0  0  0  0  0  0  0  0  0
  -22.7360  -17.8648   13.8188 C   0  0  0  0  0  0  0  0  0  0  0  0
  -18.7821  -23.4020   14.5790 C   0  0  0  0  0  0  0  0  0  0  0  0
  -27.6320  -27.9940   22.6199 C   0  0  0  0  0  0  0  0  0  0  0  0
  -24.7045  -25.5291   19.4075 C   0  0  0  0  0  0  0  0  0  1  0  0
  -29.1410  -27.8731   22.3816 C   0  0  0  0  0  0  0  0  0  0  0  0
  -27.4244  -30.3944   20.9503 C   0  0  0  0  0  0  0  0  0  0  0  0
  -22.4589  -20.0681   15.0274 C   0  0  1  0  0  0  0  0  0  0  0  0
  -20.0681  -22.0878   12.8885 C   0  0  2  0  0  0  0  0  0  0  0  0
  -23.4827  -19.0968   14.3748 C   0  0  0  0  0  0  0  0  0  0  0  0
  -29.5740  -20.8944   19.7660 N   0  0  0  0  0  0  0  0  0  0  0  0
  -28.8046  -21.9514   20.0775 N   0  0  0  0  0  0  0  0  0  0  0  0
  -21.9164  -20.0999   17.4417 N   0  0  0  0  0  0  0  0  0  0  0  0
  -30.3941  -25.4215   19.8760 N   0  0  0  0  0  0  0  0  0  0  0  0
  -26.8841  -22.5929   21.3065 N   0  0  0  0  0  0  0  0  0  0  0  0
  -27.1882  -18.1555   22.0896 N   0  0  0  0  0  0  0  0  0  0  0  0
  -22.4212  -17.3342   19.3033 N   0  0  0  0  0  0  0  0  0  0  0  0
  -21.4120  -20.5293   14.1221 N   0  0  0  0  0  0  0  0  0  0  0  0
  -29.4861  -26.6597   21.6750 N   0  0  0  0  0  0  0  0  0  0  0  0
  -19.3505  -23.3544   13.2072 N   0  3  0  0  0  0  0  0  0  0  0  0
  -25.9591  -20.0426   22.5219 O   0  0  0  0  0  0  0  0  0  0  0  0
  -23.5710  -19.3310   19.6396 O   0  0  0  0  0  0  0  0  0  0  0  0
  -21.0748  -18.4328   16.0456 O   0  0  0  0  0  0  0  0  0  0  0  0
  -21.8615  -22.7932   14.3458 O   0  0  0  0  0  0  0  0  0  0  0  0
  -30.4391  -27.7401   19.8913 O   0  0  0  0  0  0  0  0  0  0  0  0
  -31.0844  -14.7165   20.0828 O   0  0  0  0  0  0  0  0  0  0  0  0
  -23.7822  -25.1619   20.4328 O   0  0  0  0  0  0  0  0  0  1  0  0
  -27.5563  -10.5669   19.2240 F   0  0  0  0  0  0  0  0  0  0  0  0
  -29.0453  -14.1945   21.8751 F   0  0  0  0  0  0  0  0  0  0  0  0
  1  2  1  0  0  0  0
  1  5  2  0  0  0  0
  2  6  2  0  0  0  0
  3 10  2  0  0  0  0
  3 18  1  0  0  0  0
  4 11  1  0  0  0  0
  4 18  2  0  0  0  0
  5 20  1  0  0  0  0
  6 22  1  0  0  0  0
  7 12  2  0  0  0  0
  7 21  1  0  0  0  0
  8  9  2  0  0  0  0
  8 24  1  0  0  0  0
  9 25  1  0  0  0  0
 10 27  1  0  0  0  0
 11 27  2  0  0  0  0
 12 28  1  0  0  0  0
 13 14  2  0  0  0  0
 13 29  1  0  0  0  0
 14 30  1  0  0  0  0
 15 23  1  0  0  0  0
 15 28  2  0  0  0  0
 16 24  2  0  0  0  0
 16 26  1  0  0  0  0
 17 30  2  0  0  0  0
 17 31  1  0  0  0  0
 18 32  1  0  0  0  0
 19 32  1  0  0  0  0
 19 33  2  0  0  0  0
 19 34  1  0  0  0  0
 20 22  2  0  0  0  0
 20 39  1  0  0  0  0
 21 23  2  0  0  0  0
 21 40  1  0  0  0  0
 22 48  1  0  0  0  0
 23 41  1  0  0  0  0
 24 59  1  0  0  0  0
 25 26  2  0  0  0  0
 25 61  1  0  0  0  0
 26 58  1  0  0  0  0
 27 80  1  0  0  0  0
 28 81  1  0  0  0  0
 29 31  2  0  0  0  0
 29 80  1  0  0  0  0
 30 82  1  0  0  0  0
 31 83  1  0  0  0  0
 32 65  2  0  0  0  0
 33 66  1  0  0  0  0
 33 69  1  0  0  0  0
 34 70  1  0  0  0  0
 34 75  2  0  0  0  0
 35 49  1  0  0  0  0
 35 71  1  0  0  0  0
 35 76  2  0  0  0  0
 36 62  1  0  0  0  0
 36 67  1  0  0  0  0
 36 77  2  0  0  0  0
 37 63  1  0  0  0  0
 37 72  1  0  0  0  0
 37 78  2  0  0  0  0
 38 68  1  0  0  0  0
 38 73  1  0  0  0  0
 38 79  2  0  0  0  0
 39 42  1  0  0  0  0
 40 49  1  0  0  0  0
 41 67  1  0  0  0  0
 42 44  1  0  0  0  0
 43 45  1  0  0  0  0
 43 46  1  0  0  0  0
 44 48  1  0  0  0  0
 45 50  1  0  0  0  0
 46 68  1  0  0  0  0
 47 50  1  0  0  0  0
 47 68  1  0  0  0  0
 48 71  1  0  0  0  0
 49 67  1  0  0  0  0
 50 66  1  0  0  0  0
 51 61  1  0  0  0  0
 52 61  1  0  0  0  0
 53 63  1  0  0  0  0
 54 64  1  0  0  0  0
 55 64  1  0  0  0  0
 56 64  1  0  0  0  0
 57 74  1  0  0  0  0
 58 60  1  0  0  0  0
 59 81  1  0  0  0  0
 60 73  1  0  0  0  0
 62 64  1  0  0  0  0
 62 72  1  0  0  0  0
 63 74  1  0  0  0  0
 65 66  1  0  0  0  0
M  CHG  1  74   1
M  ISO  4  38 100  59 101  73 100  81 101
M  END
> <Batch ID>
0102

> <Smiles>
CNC(C)C(=O)NC(C(=O)N1Cc2cc([101O:1][101CH2:1]c3ccc(C(C)C)c(CC[100NH:0][100C:0](=O)N4CCCC(n5nc(-c6ccc(Oc7ccc(F)cc7F)cc6)c(C(N)=O)c5N)C4)c3)ccc2CC1C(=O)NC1CCCc2ccccc21)C(C)(C)C

> <Shape>
0.235

> <Color>
0.062

> <Negative vol penalty>
0.000

$$$$

  -OEChem-04052319383D

 83 92  0     1  0  0  0  0  0999 V2000
  -30.2471  -25.7991    7.1775 C   0  0  0  0  0  0  0  0  0  0  0  0
  -30.4048  -24.9702    8.2836 C   0  0  0  0  0  0  0  0  0  0  0  0
  -23.0634   -9.8459   19.9460 C   0  0  0  0  0  0  0  0  0  0  0  0
  -23.8270   -9.8623   22.2381 C   0  0  0  0  0  0  0  0  0  0  0  0
  -29.3698  -26.8810    7.2381 C   0  0  0  0  0  0  0  0  0  0  0  0
  -29.6859  -25.2233    9.4513 C   0  0  0  0  0  0  0  0  0  0  0  0
  -27.4549  -21.0815   13.3722 C   0  0  0  0  0  0  0  0  0  0  0  0
  -22.3252   -8.6900   20.2002 C   0  0  0  0  0  0  0  0  0  0  0  0
  -23.0887   -8.7065   22.4924 C   0  0  0  0  0  0  0  0  0  0  0  0
  -27.9271  -20.5924   14.5893 C   0  0  0  0  0  0  0  0  0  0  0  0
  -19.8652   -7.8956   23.1023 C   0  0  0  0  0  0  0  0  0  0  0  0
  -19.1104   -7.8553   24.2745 C   0  0  0  0  0  0  0  0  0  0  0  0
  -26.5383  -22.1802   15.7594 C   0  0  0  0  0  0  0  0  0  0  0  0
  -29.3167  -18.6568   20.8732 C   0  0  0  0  0  0  0  0  0  0  0  0
  -20.3618   -5.9255   25.0140 C   0  0  0  0  0  0  0  0  0  0  0  0
  -23.8144  -10.4320   20.9650 C   0  0  0  0  0  0  0  0  0  0  0  0
  -24.1445  -12.9584   20.8377 C   0  0  0  0  0  0  0  0  0  0  0  0
  -28.6326  -27.1419    8.4039 C   0  0  0  0  0  0  0  0  0  0  0  0
  -26.5274  -22.1327   13.3392 C   0  0  0  0  0  0  0  0  0  0  0  0
  -28.7989  -26.3106    9.5280 C   0  0  0  0  0  0  0  0  0  0  0  0
  -26.0539  -22.6791   14.5406 C   0  0  0  0  0  0  0  0  0  0  0  0
  -29.1251  -19.6899   19.9510 C   0  0  0  0  0  0  0  0  0  0  0  0
  -30.1648  -20.0202   19.0713 C   0  0  0  0  0  0  0  0  0  0  0  0
  -22.3378   -8.1203   21.4734 C   0  0  0  0  0  0  0  0  0  0  0  0
  -27.4711  -21.1437   15.7831 C   0  0  0  0  0  0  0  0  0  0  0  0
  -20.8683   -6.9508   22.8858 C   0  0  0  0  0  0  0  0  0  0  0  0
  -19.3586   -6.8703   25.2304 C   0  0  0  0  0  0  0  0  0  0  0  0
  -21.1166   -5.9658   23.8417 C   0  0  0  0  0  0  0  0  0  0  0  0
  -24.5776  -11.6257   20.7028 C   0  0  0  0  0  0  0  0  0  0  0  0
  -30.5431  -18.0130   20.8990 C   0  0  0  0  0  0  0  0  0  0  0  0
  -31.3584  -19.3121   19.1928 C   0  0  0  0  0  0  0  0  0  0  0  0
  -25.2326  -13.7118   20.4707 C   0  0  0  0  0  0  0  0  0  0  0  0
  -22.8724  -13.4695   21.2574 C   0  0  0  0  0  0  0  0  0  0  0  0
  -26.5313  -25.0919   12.1786 C   0  0  0  0  0  0  0  0  0  0  0  0
  -23.4161  -25.0329   13.0810 C   0  0  0  0  0  0  0  0  0  0  0  0
  -21.0078  -23.6932   15.0939 C   0  0  0  0  0  0  0  0  0  0  0  0
  -30.7120  -14.7563   20.6474 C   0  0  0  0  0  0  0  0  0  0  0  0
  -27.7318  -28.3511    8.4377 C   0  0  0  0  0  0  0  0  0  0  0  0
  -26.0076  -22.6310   12.0186 C   0  0  0  0  0  0  0  0  0  0  0  0
  -27.7885  -20.3814   19.8834 C   0  0  0  0  0  0  0  0  0  0  0  0
  -30.0469  -21.1319   18.0620 C   0  0  0  0  0  0  0  0  0  0  0  0
  -25.0431  -23.7955   14.5599 C   0  0  0  0  0  0  0  0  0  0  0  0
  -26.7268  -28.3299    9.5865 C   0  0  0  0  0  0  0  0  0  0  0  0
  -27.8434  -21.7166   19.1391 C   0  0  0  0  0  0  0  0  0  0  0  0
  -29.5814  -12.3603   18.2688 C   0  0  0  0  0  0  0  0  0  0  0  0
  -27.4161  -27.9456   10.8919 C   0  0  0  0  0  0  0  0  0  0  0  0
  -28.1460  -12.0612   18.7048 C   0  0  0  0  0  0  0  0  0  0  0  0
  -30.4994  -12.5885   19.4676 C   0  0  0  0  0  0  0  0  0  0  0  0
  -28.5966  -13.3146   20.8554 C   0  0  0  0  0  0  0  0  0  0  0  0
  -28.0182  -26.5380   10.8042 C   0  0  1  0  0  0  0  0  0  0  0  0
  -25.4522  -24.0500   12.0921 C   0  0  1  0  0  0  0  0  0  0  0  0
  -27.6214  -13.1325   19.6798 C   0  0  2  0  0  0  0  0  0  0  0  0
  -28.6061  -21.5929   17.8234 C   0  0  2  0  0  0  0  0  0  1  0  0
  -32.5288  -19.6292   18.3179 C   0  0  0  0  0  0  0  0  0  0  0  0
  -18.5626  -23.8739   15.6284 C   0  0  0  0  0  0  0  0  0  0  0  0
  -23.9497  -27.5992   14.6428 C   0  0  0  0  0  0  0  0  0  0  0  0
  -21.8101  -27.2072   15.8824 C   0  0  0  0  0  0  0  0  0  0  0  0
  -21.7723  -27.5599   13.4132 C   0  0  0  0  0  0  0  0  0  0  0  0
  -20.5063  -20.8892   14.2907 C   0  0  0  0  0  0  0  0  0  0  0  0
  -30.7701  -16.9104   21.8785 C   0  0  0  0  0  0  0  0  0  0  0  0
  -22.6612  -25.3824   14.3407 C   0  0  1  0  0  0  0  0  0  0  0  0
  -19.6162  -23.1693   14.7880 C   0  0  2  0  0  0  0  0  0  0  0  0
  -22.5688  -26.9174   14.5697 C   0  0  0  0  0  0  0  0  0  0  0  0
  -25.8422  -11.5345   20.2827 N   0  0  0  0  0  0  0  0  0  0  0  0
  -31.5730  -18.3171   20.0821 N   0  0  0  0  0  0  0  0  0  0  0  0
  -26.2130  -12.8194   20.1504 N   0  0  0  0  0  0  0  0  0  0  0  0
  -24.5697  -24.2527   13.2429 N   0  0  0  0  0  0  0  0  0  0  0  0
  -29.9457  -13.6168   20.3518 N   0  0  0  0  0  0  0  0  0  0  0  0
  -25.4369  -15.0440   20.3938 N   0  0  0  0  0  0  0  0  0  0  0  0
  -21.8651  -12.5566   21.5987 N   0  0  0  0  0  0  0  0  0  0  0  0
  -26.9843  -25.5360   10.9510 N   0  0  0  0  0  0  0  0  0  0  0  0
  -21.3681  -24.7143   14.2403 N   0  0  0  0  0  0  0  0  0  0  0  0
  -30.1100  -15.6846   21.4880 N   0  0  0  0  0  0  0  0  0  0  0  0
  -19.5400  -21.7075   15.0676 N   0  3  0  0  0  0  0  0  0  0  0  0
  -22.6306  -14.6992   21.3119 O   0  0  0  0  0  0  0  0  0  0  0  0
  -26.9230  -25.4663   13.2778 O   0  0  0  0  0  0  0  0  0  0  0  0
  -22.9938  -25.4313   11.9926 O   0  0  0  0  0  0  0  0  0  0  0  0
  -21.7039  -23.2441   16.0017 O   0  0  0  0  0  0  0  0  0  0  0  0
  -31.8464  -14.9357   20.1915 O   0  0  0  0  0  0  0  0  0  0  0  0
  -21.6174   -6.9926   21.7219 O   0  0  0  0  0  0  0  0  0  0  0  0
  -27.9309  -20.6686   16.9726 O   0  0  0  0  0  0  0  0  0  1  0  0
  -18.6347   -6.8327   26.3568 F   0  0  0  0  0  0  0  0  0  0  0  0
  -22.0797   -5.0561   23.6399 F   0  0  0  0  0  0  0  0  0  0  0  0
  1  2  1  0  0  0  0
  1  5  2  0  0  0  0
  2  6  2  0  0  0  0
  3  8  2  0  0  0  0
  3 16  1  0  0  0  0
  4  9  1  0  0  0  0
  4 16  2  0  0  0  0
  5 18  1  0  0  0  0
  6 20  1  0  0  0  0
  7 10  2  0  0  0  0
  7 19  1  0  0  0  0
  8 24  1  0  0  0  0
  9 24  2  0  0  0  0
 10 25  1  0  0  0  0
 11 12  2  0  0  0  0
 11 26  1  0  0  0  0
 12 27  1  0  0  0  0
 13 21  1  0  0  0  0
 13 25  2  0  0  0  0
 14 22  1  0  0  0  0
 14 30  2  0  0  0  0
 15 27  2  0  0  0  0
 15 28  1  0  0  0  0
 16 29  1  0  0  0  0
 17 29  1  0  0  0  0
 17 32  2  0  0  0  0
 17 33  1  0  0  0  0
 18 20  2  0  0  0  0
 18 38  1  0  0  0  0
 19 21  2  0  0  0  0
 19 39  1  0  0  0  0
 20 50  1  0  0  0  0
 21 42  1  0  0  0  0
 22 23  2  0  0  0  0
 22 40  1  0  0  0  0
 23 31  1  0  0  0  0
 23 41  1  0  0  0  0
 24 80  1  0  0  0  0
 25 81  1  0  0  0  0
 26 28  2  0  0  0  0
 26 80  1  0  0  0  0
 27 82  1  0  0  0  0
 28 83  1  0  0  0  0
 29 64  2  0  0  0  0
 30 60  1  0  0  0  0
 30 65  1  0  0  0  0
 31 54  1  0  0  0  0
 31 65  2  0  0  0  0
 32 66  1  0  0  0  0
 32 69  1  0  0  0  0
 33 70  1  0  0  0  0
 33 75  2  0  0  0  0
 34 51  1  0  0  0  0
 34 71  1  0  0  0  0
 34 76  2  0  0  0  0
 35 61  1  0  0  0  0
 35 67  1  0  0  0  0
 35 77  2  0  0  0  0
 36 62  1  0  0  0  0
 36 72  1  0  0  0  0
 36 78  2  0  0  0  0
 37 68  1  0  0  0  0
 37 73  1  0  0  0  0
 37 79  2  0  0  0  0
 38 43  1  0  0  0  0
 39 51  1  0  0  0  0
 40 44  1  0  0  0  0
 41 53  1  0  0  0  0
 42 67  1  0  0  0  0
 43 46  1  0  0  0  0
 44 53  1  0  0  0  0
 45 47  1  0  0  0  0
 45 48  1  0  0  0  0
 46 50  1  0  0  0  0
 47 52  1  0  0  0  0
 48 68  1  0  0  0  0
 49 52  1  0  0  0  0
 49 68  1  0  0  0  0
 50 71  1  0  0  0  0
 51 67  1  0  0  0  0
 52 66  1  0  0  0  0
 53 81  1  0  0  0  0
 55 62  1  0  0  0  0
 56 63  1  0  0  0  0
 57 63  1  0  0  0  0
 58 63  1  0  0  0  0
 59 74  1  0  0  0  0
 60 73  1  0  0  0  0
 61 63  1  0  0  0  0
 61 72  1  0  0  0  0
 62 74  1  0  0  0  0
 64 66  1  0  0  0  0
M  CHG  1  74   1
M  ISO  4  37 100  53 101  73 100  81 101
M  END
> <Batch ID>
0102

> <Smiles>
CNC(C)C(=O)NC(C(=O)N1Cc2cc([101O:1][101CH:1]3CCc4cc(C[100NH:0][100C:0](=O)N5CCCC(n6nc(-c7ccc(Oc8ccc(F)cc8F)cc7)c(C(N)=O)c6N)C5)nc(C)c4C3)ccc2CC1C(=O)NC1CCCc2ccccc21)C(C)(C)C

> <Shape>
0.199

> <Color>
0.195

> <Negative vol penalty>
0.000

$$$$

  -OEChem-04052319383D

 90 98  0     1  0  0  0  0  0999 V2000
  -28.6514  -36.0421   25.1023 C   0  0  0  0  0  0  0  0  0  0  0  0
  -28.8713  -34.7197   24.7303 C   0  0  0  0  0  0  0  0  0  0  0  0
  -24.8640   -8.0875   21.2801 C   0  0  0  0  0  0  0  0  0  0  0  0
  -23.6921  -10.1791   21.5785 C   0  0  0  0  0  0  0  0  0  0  0  0
  -27.3495  -36.5062   25.2853 C   0  0  0  0  0  0  0  0  0  0  0  0
  -27.7894  -33.8604   24.5421 C   0  0  0  0  0  0  0  0  0  0  0  0
  -27.3549  -29.3313   20.4428 C   0  0  0  0  0  0  0  0  0  0  0  0
  -24.1159   -7.5211   22.3121 C   0  0  0  0  0  0  0  0  0  0  0  0
  -22.9439   -9.6127   22.6105 C   0  0  0  0  0  0  0  0  0  0  0  0
  -27.5461  -27.9539   20.5430 C   0  0  0  0  0  0  0  0  0  0  0  0
  -22.2629   -5.4178   24.6268 C   0  0  0  0  0  0  0  0  0  0  0  0
  -21.7368   -4.1424   24.4219 C   0  0  0  0  0  0  0  0  0  0  0  0
  -25.1731  -27.6534   20.8559 C   0  0  0  0  0  0  0  0  0  0  0  0
  -27.7891  -23.1983   22.0774 C   0  0  0  0  0  0  0  0  0  0  0  0
  -20.4883   -4.9625   22.5230 C   0  0  0  0  0  0  0  0  0  0  0  0
  -28.1288  -21.7530   19.7880 C   0  0  0  0  0  0  0  0  0  0  0  0
  -24.6522   -9.4166   20.9133 C   0  0  0  0  0  0  0  0  0  0  0  0
  -25.1065  -10.0197   18.4767 C   0  0  0  0  0  0  0  0  0  0  0  0
  -26.2506  -35.6547   25.0899 C   0  0  0  0  0  0  0  0  0  0  0  0
  -26.0706  -29.8820   20.5595 C   0  0  0  0  0  0  0  0  0  0  0  0
  -26.4716  -34.3132   24.7240 C   0  0  0  0  0  0  0  0  0  0  0  0
  -24.9680  -29.0379   20.7543 C   0  0  0  0  0  0  0  0  0  0  0  0
  -27.7856  -21.8094   22.1408 C   0  0  0  0  0  0  0  0  0  0  0  0
  -27.9580  -21.0655   20.9788 C   0  0  0  0  0  0  0  0  0  0  0  0
  -23.1558   -8.2837   22.9773 C   0  0  0  0  0  0  0  0  0  0  0  0
  -26.4555  -27.1150   20.7525 C   0  0  0  0  0  0  0  0  0  0  0  0
  -21.9016   -6.4657   23.7799 C   0  0  0  0  0  0  0  0  0  0  0  0
  -20.8495   -3.9147   23.3700 C   0  0  0  0  0  0  0  0  0  0  0  0
  -21.0143   -6.2380   22.7280 C   0  0  0  0  0  0  0  0  0  0  0  0
  -25.4251  -10.0024   19.8478 C   0  0  0  0  0  0  0  0  0  0  0  0
  -27.9676  -23.7904   20.8374 C   0  0  0  0  0  0  0  0  0  0  0  0
  -26.1518  -10.6900   17.8897 C   0  0  0  0  0  0  0  0  0  0  0  0
  -23.9675   -9.4783   17.7946 C   0  0  0  0  0  0  0  0  0  0  0  0
  -24.6734  -31.9093   22.5698 C   0  0  0  0  0  0  0  0  0  0  0  0
  -22.2007  -31.6642   20.4845 C   0  0  0  0  0  0  0  0  0  0  0  0
  -20.6091  -29.8397   18.0794 C   0  0  0  0  0  0  0  0  0  0  0  0
  -30.0686  -14.7296   19.9369 C   0  0  0  0  0  0  0  0  0  0  0  0
  -24.8637  -36.1891   25.3456 C   0  0  0  0  0  0  0  0  0  0  0  0
  -25.8779  -31.3674   20.4224 C   0  0  0  0  0  0  0  0  0  0  0  0
  -23.5662  -29.5774   20.8661 C   0  0  0  0  0  0  0  0  0  0  0  0
  -23.7569  -35.3149   24.7615 C   0  0  0  0  0  0  0  0  0  0  0  0
  -30.8185  -11.5803   18.4550 C   0  0  0  0  0  0  0  0  0  0  0  0
  -24.0037  -33.8471   25.0954 C   0  0  0  0  0  0  0  0  0  0  0  0
  -29.4926  -10.8203   18.5202 C   0  0  0  0  0  0  0  0  0  0  0  0
  -31.0266  -12.4589   19.6866 C   0  0  0  0  0  0  0  0  0  0  0  0
  -28.5939  -12.6295   20.0428 C   0  0  0  0  0  0  0  0  0  0  0  0
  -25.3229  -33.3571   24.4863 C   0  0  1  0  0  0  0  0  0  0  0  0
  -24.5895  -31.8651   21.0702 C   0  0  1  0  0  0  0  0  0  0  0  0
  -28.3135  -11.7726   18.7964 C   0  0  2  0  0  0  0  0  0  0  0  0
  -18.5915  -29.8814   16.5878 C   0  0  0  0  0  0  0  0  0  0  0  0
  -29.6184  -21.3998   26.8017 C   0  0  0  0  0  0  0  0  0  0  0  0
  -27.1410  -21.2330   26.4930 C   0  0  0  0  0  0  0  0  0  0  0  0
  -20.4309  -30.9398   22.8621 C   0  0  0  0  0  0  0  0  0  0  0  0
  -18.7246  -30.0841   21.2421 C   0  0  0  0  0  0  0  0  0  0  0  0
  -19.3747  -32.4922   21.2101 C   0  0  0  0  0  0  0  0  0  0  0  0
  -30.4752  -17.0078   22.2422 C   0  0  0  0  0  0  0  0  0  0  0  0
  -27.9759  -17.1188   22.5004 C   0  0  0  0  0  0  0  0  0  0  0  0
  -22.2730  -29.7786   15.6327 C   0  0  0  0  0  0  0  0  0  0  0  0
  -30.4416  -19.4625   20.7911 C   0  0  0  0  0  0  0  0  0  0  0  0
  -27.5960  -21.1407   23.4619 C   0  0  0  0  0  0  0  0  0  0  0  0
  -27.9620  -19.5762   20.9898 C   0  0  0  0  0  0  0  0  0  0  0  0
  -27.9766  -25.2870   20.7310 C   0  0  0  0  0  0  0  0  0  1  0  0
  -28.6730  -21.5596   24.4792 C   0  0  0  0  0  0  0  0  0  0  0  0
  -28.9606  -16.9357   20.1909 C   0  0  0  0  0  0  0  0  0  0  0  0
  -21.0010  -30.7577   20.3505 C   0  0  1  0  0  0  0  0  0  0  0  0
  -20.0671  -30.2266   16.7153 C   0  0  2  0  0  0  0  0  0  0  0  0
  -28.5024  -20.9206   25.8700 C   0  0  0  0  0  0  0  0  0  0  0  0
  -19.9093  -31.0582   21.4161 C   0  0  0  0  0  0  0  0  0  0  0  0
  -29.1659  -17.4866   21.6100 C   0  0  0  0  0  0  0  0  0  0  0  0
  -28.1380  -23.1011   19.6870 N   0  0  0  0  0  0  0  0  0  0  0  0
  -26.5824  -10.6131   20.1160 N   0  0  0  0  0  0  0  0  0  0  0  0
  -27.0001  -11.0203   18.9053 N   0  0  0  0  0  0  0  0  0  0  0  0
  -23.4301  -31.0371   20.7317 N   0  0  0  0  0  0  0  0  0  0  0  0
  -29.8738  -13.3393   19.8916 N   0  0  0  0  0  0  0  0  0  0  0  0
  -26.4189  -11.0232   16.6090 N   0  0  0  0  0  0  0  0  0  0  0  0
  -22.9870   -8.8204   18.5497 N   0  0  0  0  0  0  0  0  0  0  0  0
  -25.1618  -33.1008   23.0711 N   0  0  0  0  0  0  0  0  0  0  0  0
  -20.5424  -30.8887   18.9718 N   0  0  0  0  0  0  0  0  0  0  0  0
  -28.9226  -15.4916   20.1283 N   0  0  0  0  0  0  0  0  0  0  0  0
  -20.8116  -29.5117   15.6403 N   0  3  0  0  0  0  0  0  0  0  0  0
  -29.2189  -18.9905   21.5345 N   0  3  1  0  0  0  0  0  0  0  0  0
  -23.8315   -9.5607   16.5503 O   0  0  0  0  0  0  0  0  0  0  0  0
  -24.3197  -30.9352   23.2237 O   0  0  0  0  0  0  0  0  0  0  0  0
  -22.0537  -32.8833   20.3668 O   0  0  0  0  0  0  0  0  0  0  0  0
  -21.0444  -28.7178   18.3295 O   0  0  0  0  0  0  0  0  0  0  0  0
  -31.1807  -15.2533   19.8105 O   0  0  0  0  0  0  0  0  0  0  0  0
  -22.4254   -7.7312   23.9842 O   0  0  0  0  0  0  0  0  0  0  0  0
  -26.6393  -25.7703   20.8514 O   0  0  0  0  0  0  0  0  0  1  0  0
  -20.3456   -2.6894   23.1724 F   0  0  0  0  0  0  0  0  0  0  0  0
  -20.6645   -7.2404   21.9103 F   0  0  0  0  0  0  0  0  0  0  0  0
  1  2  1  0  0  0  0
  1  5  2  0  0  0  0
  2  6  2  0  0  0  0
  3  8  2  0  0  0  0
  3 17  1  0  0  0  0
  4  9  1  0  0  0  0
  4 17  2  0  0  0  0
  5 19  1  0  0  0  0
  6 21  1  0  0  0  0
  7 10  2  0  0  0  0
  7 20  1  0  0  0  0
  8 25  1  0  0  0  0
  9 25  2  0  0  0  0
 10 26  1  0  0  0  0
 11 12  2  0  0  0  0
 11 27  1  0  0  0  0
 12 28  1  0  0  0  0
 13 22  1  0  0  0  0
 13 26  2  0  0  0  0
 14 23  2  0  0  0  0
 14 31  1  0  0  0  0
 15 28  2  0  0  0  0
 15 29  1  0  0  0  0
 16 24  2  0  0  0  0
 16 70  1  0  0  0  0
 17 30  1  0  0  0  0
 18 30  1  0  0  0  0
 18 32  2  0  0  0  0
 18 33  1  0  0  0  0
 19 21  2  0  0  0  0
 19 38  1  0  0  0  0
 20 22  2  0  0  0  0
 20 39  1  0  0  0  0
 21 47  1  0  0  0  0
 22 40  1  0  0  0  0
 23 24  1  0  0  0  0
 23 60  1  0  0  0  0
 24 61  1  0  0  0  0
 25 87  1  0  0  0  0
 26 88  1  0  0  0  0
 27 29  2  0  0  0  0
 27 87  1  0  0  0  0
 28 89  1  0  0  0  0
 29 90  1  0  0  0  0
 30 71  2  0  0  0  0
 31 62  1  0  0  0  0
 31 70  2  0  0  0  0
 32 72  1  0  0  0  0
 32 75  1  0  0  0  0
 33 76  1  0  0  0  0
 33 82  2  0  0  0  0
 34 48  1  0  0  0  0
 34 77  1  0  0  0  0
 34 83  2  0  0  0  0
 35 65  1  0  0  0  0
 35 73  1  0  0  0  0
 35 84  2  0  0  0  0
 36 66  1  0  0  0  0
 36 78  1  0  0  0  0
 36 85  2  0  0  0  0
 37 74  1  0  0  0  0
 37 79  1  0  0  0  0
 37 86  2  0  0  0  0
 38 41  1  0  0  0  0
 39 48  1  0  0  0  0
 40 73  1  0  0  0  0
 41 43  1  0  0  0  0
 42 44  1  0  0  0  0
 42 45  1  0  0  0  0
 43 47  1  0  0  0  0
 44 49  1  0  0  0  0
 45 74  1  0  0  0  0
 46 49  1  0  0  0  0
 46 74  1  0  0  0  0
 47 77  1  0  0  0  0
 48 73  1  0  0  0  0
 49 72  1  0  0  0  0
 50 66  1  0  0  0  0
 51 67  1  0  0  0  0
 52 67  1  0  0  0  0
 53 68  1  0  0  0  0
 54 68  1  0  0  0  0
 55 68  1  0  0  0  0
 56 69  1  0  0  0  0
 57 69  1  0  0  0  0
 58 80  1  0  0  0  0
 59 81  1  0  0  0  0
 60 63  1  0  0  0  0
 61 81  1  0  0  0  0
 62 88  1  0  0  0  0
 63 67  1  0  0  0  0
 64 69  1  0  0  0  0
 64 79  1  0  0  0  0
 65 68  1  0  0  0  0
 65 78  1  0  0  0  0
 66 80  1  0  0  0  0
 69 81  1  0  0  0  0
 71 72  1  0  0  0  0
M  CHG  2  80   1  81   1
M  ISO  4  37 100  62 101  79 100  88 101
M  END
> <Batch ID>
0102

> <Smiles>
CNC(C)C(=O)NC(C(=O)N1Cc2cc([101O:1][101CH2:1]c3cc(CCC(C)C)c(CN(C)C(C)(C)C[100NH:0][100C:0](=O)N4CCCC(n5nc(-c6ccc(Oc7ccc(F)cc7F)cc6)c(C(N)=O)c5N)C4)cn3)ccc2CC1C(=O)NC1CCCc2ccccc21)C(C)(C)C

> <Shape>
0.290

> <Color>
0.077

> <Negative vol penalty>
0.000

$$$$

  -OEChem-04052319383D

 93101  0     1  0  0  0  0  0999 V2000
  -31.9679  -15.1829   20.8517 C   0  0  0  0  0  0  0  0  0  0  0  0
  -31.0345  -16.2063   20.7223 C   0  0  0  0  0  0  0  0  0  0  0  0
  -29.1895  -26.4106   19.9484 C   0  0  0  0  0  0  0  0  0  0  0  0
  -27.2556  -25.9095   18.5898 C   0  0  0  0  0  0  0  0  0  0  0  0
  -31.5746  -13.8564   20.6793 C   0  0  0  0  0  0  0  0  0  0  0  0
  -29.7074  -15.9039   20.4193 C   0  0  0  0  0  0  0  0  0  0  0  0
  -24.7163  -18.8506   22.3969 C   0  0  0  0  0  0  0  0  0  0  0  0
  -29.7461  -25.1769   19.6113 C   0  0  0  0  0  0  0  0  0  0  0  0
  -27.8121  -24.6757   18.2527 C   0  0  0  0  0  0  0  0  0  0  0  0
  -23.9068  -19.8226   21.8105 C   0  0  0  0  0  0  0  0  0  0  0  0
  -28.5595  -21.2429   17.3212 C   0  0  0  0  0  0  0  0  0  0  0  0
  -27.7281  -20.1237   17.3621 C   0  0  0  0  0  0  0  0  0  0  0  0
  -22.3804  -18.1028   21.0814 C   0  0  0  0  0  0  0  0  0  0  0  0
  -27.3280  -20.5070   19.7138 C   0  0  0  0  0  0  0  0  0  0  0  0
  -17.8748  -26.4750   23.5248 C   0  0  0  0  0  0  0  0  0  0  0  0
  -19.8920  -26.6301   22.5647 C   0  0  0  0  0  0  0  0  0  0  0  0
  -27.9442  -26.7769   19.4377 C   0  0  0  0  0  0  0  0  0  0  0  0
  -27.5307  -29.2720   19.1043 C   0  0  0  0  0  0  0  0  0  0  0  0
  -30.2400  -13.5369   20.3836 C   0  0  0  0  0  0  0  0  0  0  0  0
  -24.3689  -17.4942   22.3205 C   0  0  0  0  0  0  0  0  0  0  0  0
  -29.2962  -14.5720   20.2415 C   0  0  0  0  0  0  0  0  0  0  0  0
  -23.1858  -17.1158   21.6699 C   0  0  0  0  0  0  0  0  0  0  0  0
  -18.0904  -27.8038   23.2329 C   0  0  0  0  0  0  0  0  0  0  0  0
  -19.3666  -27.9019   22.6256 C   0  0  0  0  0  0  0  0  0  0  0  0
  -29.0574  -24.3094   18.7635 C   0  0  0  0  0  0  0  0  0  0  0  0
  -22.7402  -19.4485   21.1501 C   0  0  0  0  0  0  0  0  0  0  0  0
  -28.7752  -21.9942   18.4766 C   0  0  0  0  0  0  0  0  0  0  0  0
  -27.1123  -19.7557   18.5584 C   0  0  0  0  0  0  0  0  0  0  0  0
  -28.1594  -21.6262   19.6728 C   0  0  0  0  0  0  0  0  0  0  0  0
  -27.3685  -28.0510   19.7860 C   0  0  0  0  0  0  0  0  0  0  0  0
  -26.7874  -30.1713   19.8291 C   0  0  0  0  0  0  0  0  0  0  0  0
  -28.2857  -29.5670   17.9216 C   0  0  0  0  0  0  0  0  0  0  0  0
  -25.7070  -14.9039   21.0541 C   0  0  0  0  0  0  0  0  0  0  0  0
  -23.2458  -13.3889   22.5270 C   0  0  0  0  0  0  0  0  0  0  0  0
  -20.0911  -13.5646   23.8170 C   0  0  0  0  0  0  0  0  0  0  0  0
  -22.0738  -29.5671   23.4716 C   0  0  0  0  0  0  0  0  0  0  0  0
  -29.8721  -12.0916   20.1595 C   0  0  0  0  0  0  0  0  0  0  0  0
  -25.2389  -16.4604   22.9813 C   0  0  0  0  0  0  0  0  0  0  0  0
  -22.7577  -15.6748   21.5774 C   0  0  0  0  0  0  0  0  0  0  0  0
  -28.3688  -11.8309   20.2098 C   0  0  0  0  0  0  0  0  0  0  0  0
  -25.2250  -31.0187   24.2712 C   0  0  0  0  0  0  0  0  0  0  0  0
  -27.6188  -12.8705   19.3831 C   0  0  0  0  0  0  0  0  0  0  0  0
  -26.1463  -30.5329   23.1508 C   0  0  0  0  0  0  0  0  0  0  0  0
  -24.2083  -29.9508   24.6687 C   0  0  0  0  0  0  0  0  0  0  0  0
  -24.3324  -28.9230   22.4322 C   0  0  0  0  0  0  0  0  0  0  0  0
  -27.8422  -14.2825   19.9380 C   0  0  1  0  0  0  0  0  0  0  0  0
  -25.0543  -15.0629   22.3981 C   0  0  1  0  0  0  0  0  0  0  0  0
  -25.3389  -29.9855   21.9585 C   0  0  2  0  0  0  0  0  0  0  0  0
  -20.9032  -22.9380   14.3366 C   0  0  0  0  0  0  0  0  0  0  0  0
  -16.8667  -29.1024   25.0133 C   0  0  0  0  0  0  0  0  0  0  0  0
  -15.8159  -28.7749   22.7454 C   0  0  0  0  0  0  0  0  0  0  0  0
  -19.6946  -29.4662   20.6744 C   0  0  0  0  0  0  0  0  0  0  0  0
  -18.3318  -12.1541   24.9182 C   0  0  0  0  0  0  0  0  0  0  0  0
  -17.4457  -23.3246   21.6260 C   0  0  0  0  0  0  0  0  0  0  0  0
  -19.2821  -21.2188   23.0321 C   0  0  0  0  0  0  0  0  0  0  0  0
  -22.5739  -12.1267   19.8315 C   0  0  0  0  0  0  0  0  0  0  0  0
  -20.3264  -11.5214   20.7537 C   0  0  0  0  0  0  0  0  0  0  0  0
  -22.3916  -10.5751   21.7844 C   0  0  0  0  0  0  0  0  0  0  0  0
  -20.1233  -15.2292   26.2638 C   0  0  0  0  0  0  0  0  0  0  0  0
  -20.3927  -22.0078   15.4261 C   0  0  0  0  0  0  0  0  0  0  0  0
  -20.4728  -22.6090   16.8309 C   0  0  0  0  0  0  0  0  0  0  0  0
  -20.0241  -21.6418   17.9315 C   0  0  0  0  0  0  0  0  0  0  0  0
  -20.0824  -22.3143   19.3080 C   0  0  0  0  0  0  0  0  0  0  0  0
  -19.1535  -24.2756   23.2444 C   0  0  0  0  0  0  0  0  0  0  0  0
  -20.5523  -20.1245   20.5082 C   0  0  0  0  0  0  0  0  0  1  0  0
  -17.1550  -28.9129   23.5061 C   0  0  0  0  0  0  0  0  0  0  0  0
  -20.0228  -29.1332   22.1434 C   0  0  2  0  0  0  0  0  0  0  0  0
  -21.8351  -13.0156   22.1402 C   0  0  1  0  0  0  0  0  0  0  0  0
  -19.5144  -13.0850   25.1368 C   0  0  2  0  0  0  0  0  0  0  0  0
  -18.9419  -23.5089   21.9138 C   0  0  1  0  0  0  0  0  0  0  0  0
  -19.7398  -22.1601   21.9025 C   0  0  2  0  0  0  0  0  0  0  0  0
  -19.7104  -21.4193   20.5197 C   0  0  1  0  0  0  0  0  0  0  0  0
  -21.7905  -11.8368   21.1274 C   0  0  0  0  0  0  0  0  0  0  0  0
  -26.5839  -28.1611   20.8613 N   0  0  0  0  0  0  0  0  0  0  0  0
  -18.9764  -25.7708   23.1139 N   0  0  0  0  0  0  0  0  0  0  0  0
  -26.2466  -29.4620   20.8609 N   0  0  0  0  0  0  0  0  0  0  0  0
  -23.6450  -14.7006   22.2339 N   0  0  0  0  0  0  0  0  0  0  0  0
  -23.4753  -29.4750   23.4931 N   0  0  0  0  0  0  0  0  0  0  0  0
  -26.5504  -31.4917   19.6782 N   0  0  0  0  0  0  0  0  0  0  0  0
  -28.9913  -28.5262   17.3025 N   0  0  0  0  0  0  0  0  0  0  0  0
  -27.0265  -14.4982   21.1139 N   0  0  0  0  0  0  0  0  0  0  0  0
  -21.1242  -12.7584   23.3880 N   0  0  0  0  0  0  0  0  0  0  0  0
  -21.4578  -29.0994   22.3172 N   0  0  0  0  0  0  0  0  0  0  0  0
  -19.0555  -14.2441   25.9533 N   0  3  0  0  0  0  0  0  0  0  0  0
  -28.3465  -30.7227   17.4378 O   0  0  0  0  0  0  0  0  0  0  0  0
  -25.0608  -15.1311   20.0380 O   0  0  0  0  0  0  0  0  0  0  0  0
  -23.9646  -12.5498   23.0756 O   0  0  0  0  0  0  0  0  0  0  0  0
  -19.6652  -14.5532   23.2240 O   0  0  0  0  0  0  0  0  0  0  0  0
  -21.4203  -30.0366   24.4094 O   0  0  0  0  0  0  0  0  0  0  0  0
  -29.6003  -23.1055   18.4341 O   0  0  0  0  0  0  0  0  0  0  0  0
  -21.9423  -20.4026   20.5717 O   0  0  0  0  0  0  0  0  0  1  0  0
  -26.3127  -18.6818   18.5972 F   0  0  0  0  0  0  0  0  0  0  0  0
  -28.3619  -22.3446   20.7858 F   0  0  0  0  0  0  0  0  0  0  0  0
  1  2  1  0  0  0  0
  1  5  2  0  0  0  0
  2  6  2  0  0  0  0
  3  8  2  0  0  0  0
  3 17  1  0  0  0  0
  4  9  1  0  0  0  0
  4 17  2  0  0  0  0
  5 19  1  0  0  0  0
  6 21  1  0  0  0  0
  7 10  2  0  0  0  0
  7 20  1  0  0  0  0
  8 25  1  0  0  0  0
  9 25  2  0  0  0  0
 10 26  1  0  0  0  0
 11 12  2  0  0  0  0
 11 27  1  0  0  0  0
 12 28  1  0  0  0  0
 13 22  1  0  0  0  0
 13 26  2  0  0  0  0
 14 28  2  0  0  0  0
 14 29  1  0  0  0  0
 15 23  2  0  0  0  0
 15 75  1  0  0  0  0
 16 24  2  0  0  0  0
 16 75  1  0  0  0  0
 17 30  1  0  0  0  0
 18 30  1  0  0  0  0
 18 31  2  0  0  0  0
 18 32  1  0  0  0  0
 19 21  2  0  0  0  0
 19 37  1  0  0  0  0
 20 22  2  0  0  0  0
 20 38  1  0  0  0  0
 21 46  1  0  0  0  0
 22 39  1  0  0  0  0
 23 24  1  0  0  0  0
 23 66  1  0  0  0  0
 24 67  1  0  0  0  0
 25 90  1  0  0  0  0
 26 91  1  0  0  0  0
 27 29  2  0  0  0  0
 27 90  1  0  0  0  0
 28 92  1  0  0  0  0
 29 93  1  0  0  0  0
 30 74  2  0  0  0  0
 31 76  1  0  0  0  0
 31 79  1  0  0  0  0
 32 80  1  0  0  0  0
 32 85  2  0  0  0  0
 33 47  1  0  0  0  0
 33 81  1  0  0  0  0
 33 86  2  0  0  0  0
 34 68  1  0  0  0  0
 34 77  1  0  0  0  0
 34 87  2  0  0  0  0
 35 69  1  0  0  0  0
 35 82  1  0  0  0  0
 35 88  2  0  0  0  0
 36 78  1  0  0  0  0
 36 83  1  0  0  0  0
 36 89  2  0  0  0  0
 37 40  1  0  0  0  0
 38 47  1  0  0  0  0
 39 77  1  0  0  0  0
 40 42  1  0  0  0  0
 41 43  1  0  0  0  0
 41 44  1  0  0  0  0
 42 46  1  0  0  0  0
 43 48  1  0  0  0  0
 44 78  1  0  0  0  0
 45 48  1  0  0  0  0
 45 78  1  0  0  0  0
 46 81  1  0  0  0  0
 47 77  1  0  0  0  0
 48 76  1  0  0  0  0
 49 60  1  0  0  0  0
 50 66  1  0  0  0  0
 51 66  1  0  0  0  0
 52 67  1  0  0  0  0
 53 69  1  0  0  0  0
 54 70  1  0  0  0  0
 55 71  1  0  0  0  0
 56 73  1  0  0  0  0
 57 73  1  0  0  0  0
 58 73  1  0  0  0  0
 59 84  1  0  0  0  0
 60 61  1  0  0  0  0
 61 62  1  0  0  0  0
 62 63  1  0  0  0  0
 63 72  1  0  0  0  0
 64 70  1  0  0  0  0
 64 75  1  0  0  0  0
 65 72  1  0  0  0  0
 65 91  1  0  0  0  0
 67 83  1  0  0  0  0
 68 73  1  0  0  0  0
 68 82  1  0  0  0  0
 69 84  1  0  0  0  0
 70 71  1  0  0  0  0
 71 72  1  0  0  0  0
 74 76  1  0  0  0  0
M  CHG  1  84   1
M  ISO  4  36 100  65 101  83 100  91 101
M  END
> <Batch ID>
0102

> <Smiles>
CCCCCC(C(C)C(C)Cn1cc(C(C)C)c(C(C)[100NH:0][100C:0](=O)N2CCCC(n3nc(-c4ccc(Oc5ccc(F)cc5F)cc4)c(C(N)=O)c3N)C2)c1)[101CH2:1][101O:1]c1ccc2c(c1)CN(C(=O)C(NC(=O)C(C)NC)C(C)(C)C)C(C(=O)NC1CCCc3ccccc31)C2

> <Shape>
0.258

> <Color>
0.067

> <Negative vol penalty>
0.000

$$$$

  -OEChem-04052319383D

 80 88  0     1  0  0  0  0  0999 V2000
  -17.8212  -26.4584   22.4216 C   0  0  0  0  0  0  0  0  0  0  0  0
  -18.7634  -26.6154   21.4101 C   0  0  0  0  0  0  0  0  0  0  0  0
  -25.5493  -16.3397   21.8585 C   0  0  0  0  0  0  0  0  0  0  0  0
  -24.8886  -17.3928   19.7869 C   0  0  0  0  0  0  0  0  0  0  0  0
  -17.9283  -27.2047   23.5945 C   0  0  0  0  0  0  0  0  0  0  0  0
  -19.8127  -27.5196   21.5705 C   0  0  0  0  0  0  0  0  0  0  0  0
  -25.5368  -26.9257   19.4759 C   0  0  0  0  0  0  0  0  0  0  0  0
  -24.4288  -15.5115   21.7949 C   0  0  0  0  0  0  0  0  0  0  0  0
  -23.7680  -16.5645   19.7233 C   0  0  0  0  0  0  0  0  0  0  0  0
  -26.1815  -27.4367   18.3502 C   0  0  0  0  0  0  0  0  0  0  0  0
  -23.4913  -12.7112   20.1480 C   0  0  0  0  0  0  0  0  0  0  0  0
  -23.6718  -11.3547   20.4175 C   0  0  0  0  0  0  0  0  0  0  0  0
  -27.0501  -29.2526   19.6795 C   0  0  0  0  0  0  0  0  0  0  0  0
  -22.1166  -11.5138   22.2596 C   0  0  0  0  0  0  0  0  0  0  0  0
  -30.0091  -25.6110   17.2133 C   0  0  0  0  0  0  0  0  0  0  0  0
  -30.7368  -27.3019   18.4159 C   0  0  0  0  0  0  0  0  0  0  0  0
  -25.7792  -17.2804   20.8545 C   0  0  0  0  0  0  0  0  0  0  0  0
  -28.2129  -17.8831   20.3836 C   0  0  0  0  0  0  0  0  0  0  0  0
  -18.9850  -28.1114   23.7733 C   0  0  0  0  0  0  0  0  0  0  0  0
  -25.6352  -27.5814   20.7115 C   0  0  0  0  0  0  0  0  0  0  0  0
  -19.9333  -28.2797   22.7463 C   0  0  0  0  0  0  0  0  0  0  0  0
  -26.4079  -28.7465   20.8199 C   0  0  0  0  0  0  0  0  0  0  0  0
  -30.6833  -25.9295   18.4074 C   0  0  0  0  0  0  0  0  0  0  0  0
  -23.5382  -15.6239   20.7273 C   0  0  0  0  0  0  0  0  0  0  0  0
  -26.9359  -28.6019   18.4513 C   0  0  0  0  0  0  0  0  0  0  0  0
  -22.6235  -13.4692   20.9342 C   0  0  0  0  0  0  0  0  0  0  0  0
  -22.9844  -10.7559   21.4733 C   0  0  0  0  0  0  0  0  0  0  0  0
  -21.9361  -12.8704   21.9900 C   0  0  0  0  0  0  0  0  0  0  0  0
  -26.9362  -18.1367   20.9199 C   0  0  0  0  0  0  0  0  0  0  0  0
  -28.9503  -18.9942   20.7122 C   0  0  0  0  0  0  0  0  0  0  0  0
  -28.6895  -16.7449   19.6535 C   0  0  0  0  0  0  0  0  0  0  0  0
  -23.5647  -28.9599   22.6905 C   0  0  0  0  0  0  0  0  0  0  0  0
  -26.1685  -29.2238   24.6071 C   0  0  0  0  0  0  0  0  0  0  0  0
  -29.5677  -29.3710   24.8725 C   0  0  0  0  0  0  0  0  0  0  0  0
  -29.4789  -24.5338   21.1361 C   0  0  0  0  0  0  0  0  0  0  0  0
  -19.0324  -28.9304   25.0389 C   0  0  0  0  0  0  0  0  0  0  0  0
  -24.9557  -27.0027   21.9222 C   0  0  0  0  0  0  0  0  0  0  0  0
  -26.5618  -29.4771   22.1279 C   0  0  0  0  0  0  0  0  0  0  0  0
  -20.3852  -29.5935   25.2849 C   0  0  0  0  0  0  0  0  0  0  0  0
  -27.9074  -22.8309   23.8394 C   0  0  0  0  0  0  0  0  0  0  0  0
  -20.8918  -30.2617   24.0107 C   0  0  0  0  0  0  0  0  0  0  0  0
  -27.6146  -21.4398   23.2746 C   0  0  0  0  0  0  0  0  0  0  0  0
  -27.7322  -23.9179   22.7812 C   0  0  0  0  0  0  0  0  0  0  0  0
  -28.2036  -22.3103   20.9737 C   0  0  0  0  0  0  0  0  0  0  0  0
  -21.0999  -29.2324   22.8932 C   0  0  1  0  0  0  0  0  0  0  0  0
  -24.7033  -28.0352   23.0165 C   0  0  1  0  0  0  0  0  0  0  0  0
  -28.4212  -21.1753   21.9890 C   0  0  2  0  0  0  0  0  0  0  0  0
  -31.8151  -29.4491   25.9863 C   0  0  0  0  0  0  0  0  0  0  0  0
  -28.5816  -31.2544   17.0779 C   0  0  0  0  0  0  0  0  0  0  0  0
  -25.5585  -32.2063   24.8141 C   0  0  0  0  0  0  0  0  0  0  0  0
  -27.8800  -32.5495   25.6864 C   0  0  0  0  0  0  0  0  0  0  0  0
  -26.2675  -31.1351   26.9599 C   0  0  0  0  0  0  0  0  0  0  0  0
  -29.7446  -26.4188   24.9830 C   0  0  0  0  0  0  0  0  0  0  0  0
  -31.2106  -25.0026   19.4213 C   0  0  0  0  0  0  0  0  0  0  0  0
  -29.9135  -29.1327   16.8170 C   0  0  0  0  0  0  0  0  0  0  0  0
  -27.2515  -30.2571   24.8029 C   0  0  1  0  0  0  0  0  0  0  0  0
  -30.5390  -28.6463   25.7868 C   0  0  2  0  0  0  0  0  0  0  0  0
  -28.7758  -29.8268   17.5736 C   0  0  2  0  0  0  0  0  0  1  0  0
  -26.7351  -31.5245   25.5406 C   0  0  0  0  0  0  0  0  0  0  0  0
  -29.6592  -26.6939   16.5141 N   0  0  0  0  0  0  0  0  0  0  0  0
  -26.8634  -19.3163   21.5422 N   0  0  0  0  0  0  0  0  0  0  0  0
  -30.1152  -27.7063   17.2712 N   0  0  0  0  0  0  0  0  0  0  0  0
  -28.1036  -19.8138   21.3990 N   0  0  0  0  0  0  0  0  0  0  0  0
  -25.8731  -28.8753   23.2816 N   0  0  0  0  0  0  0  0  0  0  0  0
  -28.5243  -23.6079   21.5886 N   0  0  0  0  0  0  0  0  0  0  0  0
  -30.2339  -19.3404   20.4779 N   0  0  0  0  0  0  0  0  0  0  0  0
  -27.7997  -15.6915   19.4027 N   0  0  0  0  0  0  0  0  0  0  0  0
  -22.3295  -28.4989   23.1042 N   0  0  0  0  0  0  0  0  0  0  0  0
  -28.3480  -29.5754   25.4823 N   0  0  0  0  0  0  0  0  0  0  0  0
  -30.1905  -24.1589   20.0031 N   0  0  0  0  0  0  0  0  0  0  0  0
  -30.9027  -27.3212   25.2100 N   0  3  0  0  0  0  0  0  0  0  0  0
  -29.8740  -16.6572   19.2501 O   0  0  0  0  0  0  0  0  0  0  0  0
  -23.7904  -30.0143   22.1082 O   0  0  0  0  0  0  0  0  0  0  0  0
  -25.6102  -28.7385   25.5942 O   0  0  0  0  0  0  0  0  0  0  0  0
  -29.8627  -29.7240   23.7328 O   0  0  0  0  0  0  0  0  0  0  0  0
  -29.6856  -25.6120   21.7032 O   0  0  0  0  0  0  0  0  0  0  0  0
  -22.4448  -14.8157   20.6648 O   0  0  0  0  0  0  0  0  0  0  0  0
  -27.5656  -29.1031   17.3540 O   0  0  0  0  0  0  0  0  0  1  0  0
  -23.1567   -9.4528   21.7311 F   0  0  0  0  0  0  0  0  0  0  0  0
  -21.1002  -13.5931   22.7481 F   0  0  0  0  0  0  0  0  0  0  0  0
  1  2  1  0  0  0  0
  1  5  2  0  0  0  0
  2  6  2  0  0  0  0
  3  8  2  0  0  0  0
  3 17  1  0  0  0  0
  4  9  1  0  0  0  0
  4 17  2  0  0  0  0
  5 19  1  0  0  0  0
  6 21  1  0  0  0  0
  7 10  2  0  0  0  0
  7 20  1  0  0  0  0
  8 24  1  0  0  0  0
  9 24  2  0  0  0  0
 10 25  1  0  0  0  0
 11 12  2  0  0  0  0
 11 26  1  0  0  0  0
 12 27  1  0  0  0  0
 13 22  1  0  0  0  0
 13 25  2  0  0  0  0
 14 27  2  0  0  0  0
 14 28  1  0  0  0  0
 15 23  1  0  0  0  0
 15 60  2  0  0  0  0
 16 23  2  0  0  0  0
 16 62  1  0  0  0  0
 17 29  1  0  0  0  0
 18 29  1  0  0  0  0
 18 30  2  0  0  0  0
 18 31  1  0  0  0  0
 19 21  2  0  0  0  0
 19 36  1  0  0  0  0
 20 22  2  0  0  0  0
 20 37  1  0  0  0  0
 21 45  1  0  0  0  0
 22 38  1  0  0  0  0
 23 54  1  0  0  0  0
 24 77  1  0  0  0  0
 25 78  1  0  0  0  0
 26 28  2  0  0  0  0
 26 77  1  0  0  0  0
 27 79  1  0  0  0  0
 28 80  1  0  0  0  0
 29 61  2  0  0  0  0
 30 63  1  0  0  0  0
 30 66  1  0  0  0  0
 31 67  1  0  0  0  0
 31 72  2  0  0  0  0
 32 46  1  0  0  0  0
 32 68  1  0  0  0  0
 32 73  2  0  0  0  0
 33 56  1  0  0  0  0
 33 64  1  0  0  0  0
 33 74  2  0  0  0  0
 34 57  1  0  0  0  0
 34 69  1  0  0  0  0
 34 75  2  0  0  0  0
 35 65  1  0  0  0  0
 35 70  1  0  0  0  0
 35 76  2  0  0  0  0
 36 39  1  0  0  0  0
 37 46  1  0  0  0  0
 38 64  1  0  0  0  0
 39 41  1  0  0  0  0
 40 42  1  0  0  0  0
 40 43  1  0  0  0  0
 41 45  1  0  0  0  0
 42 47  1  0  0  0  0
 43 65  1  0  0  0  0
 44 47  1  0  0  0  0
 44 65  1  0  0  0  0
 45 68  1  0  0  0  0
 46 64  1  0  0  0  0
 47 63  1  0  0  0  0
 48 57  1  0  0  0  0
 49 58  1  0  0  0  0
 50 59  1  0  0  0  0
 51 59  1  0  0  0  0
 52 59  1  0  0  0  0
 53 71  1  0  0  0  0
 54 70  1  0  0  0  0
 55 58  1  0  0  0  0
 55 62  1  0  0  0  0
 56 59  1  0  0  0  0
 56 69  1  0  0  0  0
 57 71  1  0  0  0  0
 58 78  1  0  0  0  0
 60 62  1  0  0  0  0
 61 63  1  0  0  0  0
M  CHG  1  71   1
M  ISO  4  35 100  58 101  70 100  78 101
M  END
> <Batch ID>
0102

> <Smiles>
CNC(C)C(=O)NC(C(=O)N1Cc2cc([101O:1][101CH:1](C)Cn3cc(C[100NH:0][100C:0](=O)N4CCCC(n5nc(-c6ccc(Oc7ccc(F)cc7F)cc6)c(C(N)=O)c5N)C4)cn3)ccc2CC1C(=O)NC1CCCc2ccccc21)C(C)(C)C

> <Shape>
0.275

> <Color>
0.071

> <Negative vol penalty>
0.000

$$$$

  -OEChem-04052319383D

 92100  0     1  0  0  0  0  0999 V2000
  -22.6627   -8.4070   20.6782 C   0  0  0  0  0  0  0  0  0  0  0  0
  -22.1029   -9.6553   20.9305 C   0  0  0  0  0  0  0  0  0  0  0  0
  -23.8658  -31.4965   21.5384 C   0  0  0  0  0  0  0  0  0  0  0  0
  -23.8718  -29.7860   23.2447 C   0  0  0  0  0  0  0  0  0  0  0  0
  -24.0187   -8.1907   20.9197 C   0  0  0  0  0  0  0  0  0  0  0  0
  -22.8986  -10.6878   21.4255 C   0  0  0  0  0  0  0  0  0  0  0  0
  -22.3900  -16.6582   20.1600 C   0  0  0  0  0  0  0  0  0  0  0  0
  -22.4745  -31.5642   21.6111 C   0  0  0  0  0  0  0  0  0  0  0  0
  -22.4805  -29.8537   23.3174 C   0  0  0  0  0  0  0  0  0  0  0  0
  -21.7948  -17.7153   20.8471 C   0  0  0  0  0  0  0  0  0  0  0  0
  -19.8348  -28.7119   21.5489 C   0  0  0  0  0  0  0  0  0  0  0  0
  -19.1283  -27.5097   21.5811 C   0  0  0  0  0  0  0  0  0  0  0  0
  -23.9326  -18.2868   21.8076 C   0  0  0  0  0  0  0  0  0  0  0  0
  -23.1744  -23.8103   20.5409 C   0  0  0  0  0  0  0  0  0  0  0  0
  -25.0307  -23.6270   22.0764 C   0  0  0  0  0  0  0  0  0  0  0  0
  -18.1975  -28.1142   23.7271 C   0  0  0  0  0  0  0  0  0  0  0  0
  -24.5645  -30.6074   22.3552 C   0  0  0  0  0  0  0  0  0  0  0  0
  -26.9298  -31.2856   23.0280 C   0  0  0  0  0  0  0  0  0  0  0  0
  -24.8335   -9.2238   21.4088 C   0  0  0  0  0  0  0  0  0  0  0  0
  -23.7612  -16.4004   20.3003 C   0  0  0  0  0  0  0  0  0  0  0  0
  -24.2665  -10.4848   21.6750 C   0  0  0  0  0  0  0  0  0  0  0  0
  -24.5432  -17.2274   21.1192 C   0  0  0  0  0  0  0  0  0  0  0  0
  -23.6597  -23.5686   21.8261 C   0  0  0  0  0  0  0  0  0  0  0  0
  -24.0601  -24.1104   19.5060 C   0  0  0  0  0  0  0  0  0  0  0  0
  -25.4311  -24.1689   19.7562 C   0  0  0  0  0  0  0  0  0  0  0  0
  -21.7818  -30.7428   22.5006 C   0  0  0  0  0  0  0  0  0  0  0  0
  -22.5655  -18.5280   21.6733 C   0  0  0  0  0  0  0  0  0  0  0  0
  -19.7227  -29.6153   22.6058 C   0  0  0  0  0  0  0  0  0  0  0  0
  -25.9164  -23.9272   21.0414 C   0  0  0  0  0  0  0  0  0  0  0  0
  -18.3096  -27.2108   22.6702 C   0  0  0  0  0  0  0  0  0  0  0  0
  -18.9040  -29.3164   23.6949 C   0  0  0  0  0  0  0  0  0  0  0  0
  -26.0016  -30.5366   22.2801 C   0  0  0  0  0  0  0  0  0  0  0  0
  -28.1561  -30.8501   22.5884 C   0  0  0  0  0  0  0  0  0  0  0  0
  -26.7038  -32.2854   24.0304 C   0  0  0  0  0  0  0  0  0  0  0  0
  -25.4853  -13.9611   21.3870 C   0  0  0  0  0  0  0  0  0  0  0  0
  -27.9710  -15.7405   20.3019 C   0  0  0  0  0  0  0  0  0  0  0  0
  -29.1878  -18.8213   19.4803 C   0  0  0  0  0  0  0  0  0  0  0  0
  -30.0086  -25.7394   20.0784 C   0  0  0  0  0  0  0  0  0  0  0  0
  -26.2839   -8.9289   21.6990 C   0  0  0  0  0  0  0  0  0  0  0  0
  -24.3932  -15.2726   19.5315 C   0  0  0  0  0  0  0  0  0  0  0  0
  -26.0233  -17.0053   21.2880 C   0  0  0  0  0  0  0  0  0  0  0  0
  -27.1380  -10.1826   21.8696 C   0  0  0  0  0  0  0  0  0  0  0  0
  -30.3183  -29.0210   18.7322 C   0  0  0  0  0  0  0  0  0  0  0  0
  -26.4403  -11.1834   22.7851 C   0  0  0  0  0  0  0  0  0  0  0  0
  -29.3308  -29.8491   19.5563 C   0  0  0  0  0  0  0  0  0  0  0  0
  -29.7921  -27.6115   18.4706 C   0  0  0  0  0  0  0  0  0  0  0  0
  -28.3994  -27.6958   20.5021 C   0  0  0  0  0  0  0  0  0  0  0  0
  -25.1024  -11.6370   22.1888 C   0  0  1  0  0  0  0  0  0  0  0  0
  -25.7003  -14.7865   20.1500 C   0  0  1  0  0  0  0  0  0  0  0  0
  -28.9105  -29.1070   20.8392 C   0  0  2  0  0  0  0  0  0  0  0  0
  -26.3850  -24.4910   18.6505 C   0  0  0  0  0  0  0  0  0  0  0  0
  -22.3941  -25.7027   23.6026 C   0  0  0  0  0  0  0  0  0  0  0  0
  -31.2661  -19.9639   18.6603 C   0  0  0  0  0  0  0  0  0  0  0  0
  -21.7433  -27.4968   16.6050 C   0  0  0  0  0  0  0  0  0  0  0  0
  -23.4117  -25.9726   15.5309 C   0  0  0  0  0  0  0  0  0  0  0  0
  -29.2070  -15.4804   23.0795 C   0  0  0  0  0  0  0  0  0  0  0  0
  -30.7391  -17.3734   22.4987 C   0  0  0  0  0  0  0  0  0  0  0  0
  -30.8294  -15.2516   21.1901 C   0  0  0  0  0  0  0  0  0  0  0  0
  -27.8292  -19.7929   17.0371 C   0  0  0  0  0  0  0  0  0  0  0  0
  -23.5154  -24.3639   18.1384 C   0  0  0  0  0  0  0  0  0  0  0  0
  -21.7047  -24.3961   23.2270 C   0  0  0  0  0  0  0  0  0  0  0  0
  -22.8895  -25.7652   18.0195 C   0  0  0  0  0  0  0  0  0  0  0  0
  -29.3085  -22.7456   21.3262 C   0  0  0  0  0  0  0  0  0  0  0  0
  -21.9127  -21.9352   22.6855 C   0  0  0  0  0  0  0  0  0  0  0  0
  -30.1246  -23.9451   21.7889 C   0  0  0  0  0  0  0  0  0  0  0  0
  -27.8623  -22.7925   21.8042 C   0  0  0  0  0  0  0  0  0  0  0  0
  -22.8040  -20.6983   22.6162 C   0  0  0  0  0  0  0  0  0  1  0  0
  -22.6939  -23.2401   22.9539 C   0  0  1  0  0  0  0  0  0  0  0  0
  -28.8596  -16.8084   20.8927 C   0  0  1  0  0  0  0  0  0  0  0  0
  -29.9513  -19.3109   18.2630 C   0  0  2  0  0  0  0  0  0  0  0  0
  -22.3412  -26.0877   16.6170 C   0  0  0  0  0  0  0  0  0  0  0  0
  -29.8805  -16.2317   21.9138 C   0  0  0  0  0  0  0  0  0  0  0  0
  -26.5880  -29.6897   21.4298 N   0  0  0  0  0  0  0  0  0  0  0  0
  -27.8979  -29.9039   21.6406 N   0  0  0  0  0  0  0  0  0  0  0  0
  -26.5937  -15.8860   20.5203 N   0  0  0  0  0  0  0  0  0  0  0  0
  -29.4126  -26.9621   19.7276 N   0  0  0  0  0  0  0  0  0  0  0  0
  -29.4192  -31.1882   22.9239 N   0  0  0  0  0  0  0  0  0  0  0  0
  -25.3819  -32.6124   24.3618 N   0  0  0  0  0  0  0  0  0  0  0  0
  -25.3203  -12.6113   21.1411 N   0  0  0  0  0  0  0  0  0  0  0  0
  -29.4703  -17.5018   19.7638 N   0  0  0  0  0  0  0  0  0  0  0  0
  -29.5974  -25.1952   21.2889 N   0  0  0  0  0  0  0  0  0  0  0  0
  -29.1401  -20.3082   17.5093 N   0  3  0  0  0  0  0  0  0  0  0  0
  -27.6462  -32.8832   24.6032 O   0  0  0  0  0  0  0  0  0  0  0  0
  -25.4717  -14.5081   22.4835 O   0  0  0  0  0  0  0  0  0  0  0  0
  -28.4796  -14.8153   19.6640 O   0  0  0  0  0  0  0  0  0  0  0  0
  -28.4204  -19.5387   20.1183 O   0  0  0  0  0  0  0  0  0  0  0  0
  -30.8491  -25.1774   19.3681 O   0  0  0  0  0  0  0  0  0  0  0  0
  -20.4242  -30.8088   22.5720 O   0  0  0  0  0  0  0  0  0  0  0  0
  -21.9869  -19.5601   22.3456 O   0  0  0  0  0  0  0  0  0  1  0  0
  -27.2521  -23.9809   21.3048 O   0  0  0  0  0  0  0  0  0  0  0  0
  -17.6300  -26.0570   22.7003 F   0  0  0  0  0  0  0  0  0  0  0  0
  -18.7914  -30.1809   24.7126 F   0  0  0  0  0  0  0  0  0  0  0  0
  1  2  1  0  0  0  0
  1  5  2  0  0  0  0
  2  6  2  0  0  0  0
  3  8  2  0  0  0  0
  3 17  1  0  0  0  0
  4  9  1  0  0  0  0
  4 17  2  0  0  0  0
  5 19  1  0  0  0  0
  6 21  1  0  0  0  0
  7 10  2  0  0  0  0
  7 20  1  0  0  0  0
  8 26  1  0  0  0  0
  9 26  2  0  0  0  0
 10 27  1  0  0  0  0
 11 12  2  0  0  0  0
 11 28  1  0  0  0  0
 12 30  1  0  0  0  0
 13 22  1  0  0  0  0
 13 27  2  0  0  0  0
 14 23  1  0  0  0  0
 14 24  2  0  0  0  0
 15 23  2  0  0  0  0
 15 29  1  0  0  0  0
 16 30  2  0  0  0  0
 16 31  1  0  0  0  0
 17 32  1  0  0  0  0
 18 32  1  0  0  0  0
 18 33  2  0  0  0  0
 18 34  1  0  0  0  0
 19 21  2  0  0  0  0
 19 39  1  0  0  0  0
 20 22  2  0  0  0  0
 20 40  1  0  0  0  0
 21 48  1  0  0  0  0
 22 41  1  0  0  0  0
 23 68  1  0  0  0  0
 24 25  1  0  0  0  0
 24 60  1  0  0  0  0
 25 29  2  0  0  0  0
 25 51  1  0  0  0  0
 26 88  1  0  0  0  0
 27 89  1  0  0  0  0
 28 31  2  0  0  0  0
 28 88  1  0  0  0  0
 29 90  1  0  0  0  0
 30 91  1  0  0  0  0
 31 92  1  0  0  0  0
 32 73  2  0  0  0  0
 33 74  1  0  0  0  0
 33 77  1  0  0  0  0
 34 78  1  0  0  0  0
 34 83  2  0  0  0  0
 35 49  1  0  0  0  0
 35 79  1  0  0  0  0
 35 84  2  0  0  0  0
 36 69  1  0  0  0  0
 36 75  1  0  0  0  0
 36 85  2  0  0  0  0
 37 70  1  0  0  0  0
 37 80  1  0  0  0  0
 37 86  2  0  0  0  0
 38 76  1  0  0  0  0
 38 81  1  0  0  0  0
 38 87  2  0  0  0  0
 39 42  1  0  0  0  0
 40 49  1  0  0  0  0
 41 75  1  0  0  0  0
 42 44  1  0  0  0  0
 43 45  1  0  0  0  0
 43 46  1  0  0  0  0
 44 48  1  0  0  0  0
 45 50  1  0  0  0  0
 46 76  1  0  0  0  0
 47 50  1  0  0  0  0
 47 76  1  0  0  0  0
 48 79  1  0  0  0  0
 49 75  1  0  0  0  0
 50 74  1  0  0  0  0
 52 61  1  0  0  0  0
 53 70  1  0  0  0  0
 54 71  1  0  0  0  0
 55 71  1  0  0  0  0
 56 72  1  0  0  0  0
 57 72  1  0  0  0  0
 58 72  1  0  0  0  0
 59 82  1  0  0  0  0
 60 62  1  0  0  0  0
 61 68  1  0  0  0  0
 62 71  1  0  0  0  0
 63 65  1  0  0  0  0
 63 66  1  0  0  0  0
 64 67  1  0  0  0  0
 64 68  1  0  0  0  0
 65 81  1  0  0  0  0
 66 90  1  0  0  0  0
 67 89  1  0  0  0  0
 69 72  1  0  0  0  0
 69 80  1  0  0  0  0
 70 82  1  0  0  0  0
 73 74  1  0  0  0  0
M  CHG  1  82   1
M  ISO  4  38 100  67 101  81 100  89 101
M  END
> <Batch ID>
0102

> <Smiles>
CCC(C[101CH2:1][101O:1]c1ccc2c(c1)CN(C(=O)C(NC(=O)C(C)NC)C(C)(C)C)C(C(=O)NC1CCCc3ccccc31)C2)c1cc(CCC(C)C)c(C)c(OCCC[100NH:0][100C:0](=O)N2CCCC(n3nc(-c4ccc(Oc5ccc(F)cc5F)cc4)c(C(N)=O)c3N)C2)c1

> <Shape>
0.286

> <Color>
0.051

> <Negative vol penalty>
0.000

$$$$

  -OEChem-04052319383D

 90 98  0     1  0  0  0  0  0999 V2000
  -24.6325  -26.4163   30.5053 C   0  0  0  0  0  0  0  0  0  0  0  0
  -25.6002  -25.8662   29.6708 C   0  0  0  0  0  0  0  0  0  0  0  0
  -23.2295   -9.8279   19.9108 C   0  0  0  0  0  0  0  0  0  0  0  0
  -23.7890   -9.9249   22.2591 C   0  0  0  0  0  0  0  0  0  0  0  0
  -23.4895  -25.6839   30.8229 C   0  0  0  0  0  0  0  0  0  0  0  0
  -25.4258  -24.5828   29.1542 C   0  0  0  0  0  0  0  0  0  0  0  0
  -27.1958  -22.5569   23.6525 C   0  0  0  0  0  0  0  0  0  0  0  0
  -22.5044   -8.6571   20.1318 C   0  0  0  0  0  0  0  0  0  0  0  0
  -23.0638   -8.7540   22.4802 C   0  0  0  0  0  0  0  0  0  0  0  0
  -28.3081  -21.8274   23.2348 C   0  0  0  0  0  0  0  0  0  0  0  0
  -19.8231   -7.8620   22.8305 C   0  0  0  0  0  0  0  0  0  0  0  0
  -18.9701   -7.8284   23.9336 C   0  0  0  0  0  0  0  0  0  0  0  0
  -27.0166  -19.7942   23.3664 C   0  0  0  0  0  0  0  0  0  0  0  0
  -32.1990  -18.6747   22.8817 C   0  0  0  0  0  0  0  0  0  0  0  0
  -31.9175  -19.4562   20.6131 C   0  0  0  0  0  0  0  0  0  0  0  0
  -20.2052   -5.9563   24.8318 C   0  0  0  0  0  0  0  0  0  0  0  0
  -23.8719  -10.4618   20.9744 C   0  0  0  0  0  0  0  0  0  0  0  0
  -24.1415  -12.9930   20.8066 C   0  0  0  0  0  0  0  0  0  0  0  0
  -23.2964  -24.3946   30.3022 C   0  0  0  0  0  0  0  0  0  0  0  0
  -25.9866  -21.9081   23.9412 C   0  0  0  0  0  0  0  0  0  0  0  0
  -24.2797  -23.8319   29.4662 C   0  0  0  0  0  0  0  0  0  0  0  0
  -25.8897  -20.5180   23.7851 C   0  0  0  0  0  0  0  0  0  0  0  0
  -31.5638  -19.5084   21.9614 C   0  0  0  0  0  0  0  0  0  0  0  0
  -33.1881  -17.7890   22.4539 C   0  0  0  0  0  0  0  0  0  0  0  0
  -32.9065  -18.5705   20.1852 C   0  0  0  0  0  0  0  0  0  0  0  0
  -33.5417  -17.7368   21.1056 C   0  0  0  0  0  0  0  0  0  0  0  0
  -22.4215   -8.1202   21.4165 C   0  0  0  0  0  0  0  0  0  0  0  0
  -28.2195  -20.4456   23.0945 C   0  0  0  0  0  0  0  0  0  0  0  0
  -20.8672   -6.9427   22.7280 C   0  0  0  0  0  0  0  0  0  0  0  0
  -19.1611   -6.8756   24.9342 C   0  0  0  0  0  0  0  0  0  0  0  0
  -21.0582   -5.9899   23.7286 C   0  0  0  0  0  0  0  0  0  0  0  0
  -24.6216  -11.6710   20.7465 C   0  0  0  0  0  0  0  0  0  0  0  0
  -25.2362  -13.7694   20.5146 C   0  0  0  0  0  0  0  0  0  0  0  0
  -22.8238  -13.4759   21.1001 C   0  0  0  0  0  0  0  0  0  0  0  0
  -24.1786  -21.5839   26.5354 C   0  0  0  0  0  0  0  0  0  0  0  0
  -22.1442  -20.1409   24.4615 C   0  0  0  0  0  0  0  0  0  0  0  0
  -21.7114  -18.4682   21.5184 C   0  0  0  0  0  0  0  0  0  0  0  0
  -31.0471  -13.4553   21.6181 C   0  0  0  0  0  0  0  0  0  0  0  0
  -22.0670  -23.6229   30.7117 C   0  0  0  0  0  0  0  0  0  0  0  0
  -24.7883  -22.7124   24.3650 C   0  0  0  0  0  0  0  0  0  0  0  0
  -24.6087  -19.7762   24.0628 C   0  0  0  0  0  0  0  0  0  0  0  0
  -21.7811  -22.4159   29.8219 C   0  0  0  0  0  0  0  0  0  0  0  0
  -29.5601  -13.0163   18.2569 C   0  0  0  0  0  0  0  0  0  0  0  0
  -23.0556  -21.6110   29.5883 C   0  0  0  0  0  0  0  0  0  0  0  0
  -28.1056  -12.6767   18.5779 C   0  0  0  0  0  0  0  0  0  0  0  0
  -30.5038  -12.5824   19.3744 C   0  0  0  0  0  0  0  0  0  0  0  0
  -28.6822  -12.7766   21.0352 C   0  0  0  0  0  0  0  0  0  0  0  0
  -24.1149  -22.4524   28.8662 C   0  0  1  0  0  0  0  0  0  0  0  0
  -23.7546  -21.8885   25.1265 C   0  0  1  0  0  0  0  0  0  0  0  0
  -27.7000  -13.2426   19.9500 C   0  0  2  0  0  0  0  0  0  0  0  0
  -34.6018  -16.7867   20.6471 C   0  0  0  0  0  0  0  0  0  0  0  0
  -33.8974  -17.5166   24.8654 C   0  0  0  0  0  0  0  0  0  0  0  0
  -19.9391  -17.3839   20.1111 C   0  0  0  0  0  0  0  0  0  0  0  0
  -32.4186  -19.5558   17.9187 C   0  0  0  0  0  0  0  0  0  0  0  0
  -33.0167  -17.1197   18.1285 C   0  0  0  0  0  0  0  0  0  0  0  0
  -34.7583  -18.8718   18.4087 C   0  0  0  0  0  0  0  0  0  0  0  0
  -22.0994  -17.7538   26.3614 C   0  0  0  0  0  0  0  0  0  0  0  0
  -21.1249  -16.3841   24.5060 C   0  0  0  0  0  0  0  0  0  0  0  0
  -19.8753  -18.3545   25.3883 C   0  0  0  0  0  0  0  0  0  0  0  0
  -29.8061  -15.5348   22.0816 C   0  0  0  0  0  0  0  0  0  0  0  0
  -22.2136  -20.3125   19.2589 C   0  0  0  0  0  0  0  0  0  0  0  0
  -34.1619  -14.5261   24.1238 C   0  0  0  0  0  0  0  0  0  0  0  0
  -30.5005  -20.4616   22.4217 C   0  0  0  0  0  0  0  0  0  1  0  0
  -31.0245  -14.4624   23.9393 C   0  0  0  0  0  0  0  0  0  0  0  0
  -31.9300  -15.6047   24.3606 C   0  0  0  0  0  0  0  0  0  0  0  0
  -33.8522  -16.9061   23.4595 C   0  0  1  0  0  0  0  0  0  0  0  0
  -21.9385  -18.7266   23.9753 C   0  0  1  0  0  0  0  0  0  0  0  0
  -20.7177  -18.6608   20.3871 C   0  0  2  0  0  0  0  0  0  0  0  0
  -33.2669  -18.5339   18.7359 C   0  0  0  0  0  0  0  0  0  0  0  0
  -21.2843  -17.8182   25.0543 C   0  0  0  0  0  0  0  0  0  0  0  0
  -25.9202  -11.6074   20.4403 N   0  0  0  0  0  0  0  0  0  0  0  0
  -26.2653  -12.8992   20.3052 N   0  0  0  0  0  0  0  0  0  0  0  0
  -23.4667  -20.6062   24.4806 N   0  0  0  0  0  0  0  0  0  0  0  0
  -30.0709  -13.0982   20.6735 N   0  0  0  0  0  0  0  0  0  0  0  0
  -25.4092  -15.1049   20.4190 N   0  0  0  0  0  0  0  0  0  0  0  0
  -21.8164  -12.5420   21.3779 N   0  0  0  0  0  0  0  0  0  0  0  0
  -23.8092  -22.5471   27.4548 N   0  0  0  0  0  0  0  0  0  0  0  0
  -21.1745  -18.8279   22.7365 N   0  0  0  0  0  0  0  0  0  0  0  0
  -30.7265  -14.4908   22.5090 N   0  0  0  0  0  0  0  0  0  0  0  0
  -21.4259  -19.0588   19.1377 N   0  3  0  0  0  0  0  0  0  0  0  0
  -33.2110  -15.5528   23.5780 N   0  3  1  0  0  0  0  0  0  0  0  0
  -22.5441  -14.6987   21.0995 O   0  0  0  0  0  0  0  0  0  0  0  0
  -24.7941  -20.5508   26.7712 O   0  0  0  0  0  0  0  0  0  0  0  0
  -21.1668  -20.8106   24.8047 O   0  0  0  0  0  0  0  0  0  0  0  0
  -22.8487  -18.0380   21.3400 O   0  0  0  0  0  0  0  0  0  0  0  0
  -32.1463  -12.8877   21.6565 O   0  0  0  0  0  0  0  0  0  0  0  0
  -21.7137   -6.9778   21.6327 O   0  0  0  0  0  0  0  0  0  0  0  0
  -29.3039  -19.7311   22.6876 O   0  0  0  0  0  0  0  0  0  1  0  0
  -18.3428   -6.8444   25.9942 F   0  0  0  0  0  0  0  0  0  0  0  0
  -22.0603   -5.1049   23.6363 F   0  0  0  0  0  0  0  0  0  0  0  0
  1  2  1  0  0  0  0
  1  5  2  0  0  0  0
  2  6  2  0  0  0  0
  3  8  2  0  0  0  0
  3 17  1  0  0  0  0
  4  9  1  0  0  0  0
  4 17  2  0  0  0  0
  5 19  1  0  0  0  0
  6 21  1  0  0  0  0
  7 10  2  0  0  0  0
  7 20  1  0  0  0  0
  8 27  1  0  0  0  0
  9 27  2  0  0  0  0
 10 28  1  0  0  0  0
 11 12  2  0  0  0  0
 11 29  1  0  0  0  0
 12 30  1  0  0  0  0
 13 22  1  0  0  0  0
 13 28  2  0  0  0  0
 14 23  1  0  0  0  0
 14 24  2  0  0  0  0
 15 23  2  0  0  0  0
 15 25  1  0  0  0  0
 16 30  2  0  0  0  0
 16 31  1  0  0  0  0
 17 32  1  0  0  0  0
 18 32  1  0  0  0  0
 18 33  2  0  0  0  0
 18 34  1  0  0  0  0
 19 21  2  0  0  0  0
 19 39  1  0  0  0  0
 20 22  2  0  0  0  0
 20 40  1  0  0  0  0
 21 48  1  0  0  0  0
 22 41  1  0  0  0  0
 23 63  1  0  0  0  0
 24 26  1  0  0  0  0
 24 66  1  0  0  0  0
 25 26  2  0  0  0  0
 25 69  1  0  0  0  0
 26 51  1  0  0  0  0
 27 87  1  0  0  0  0
 28 88  1  0  0  0  0
 29 31  2  0  0  0  0
 29 87  1  0  0  0  0
 30 89  1  0  0  0  0
 31 90  1  0  0  0  0
 32 71  2  0  0  0  0
 33 72  1  0  0  0  0
 33 75  1  0  0  0  0
 34 76  1  0  0  0  0
 34 82  2  0  0  0  0
 35 49  1  0  0  0  0
 35 77  1  0  0  0  0
 35 83  2  0  0  0  0
 36 67  1  0  0  0  0
 36 73  1  0  0  0  0
 36 84  2  0  0  0  0
 37 68  1  0  0  0  0
 37 78  1  0  0  0  0
 37 85  2  0  0  0  0
 38 74  1  0  0  0  0
 38 79  1  0  0  0  0
 38 86  2  0  0  0  0
 39 42  1  0  0  0  0
 40 49  1  0  0  0  0
 41 73  1  0  0  0  0
 42 44  1  0  0  0  0
 43 45  1  0  0  0  0
 43 46  1  0  0  0  0
 44 48  1  0  0  0  0
 45 50  1  0  0  0  0
 46 74  1  0  0  0  0
 47 50  1  0  0  0  0
 47 74  1  0  0  0  0
 48 77  1  0  0  0  0
 49 73  1  0  0  0  0
 50 72  1  0  0  0  0
 52 66  1  0  0  0  0
 53 68  1  0  0  0  0
 54 69  1  0  0  0  0
 55 69  1  0  0  0  0
 56 69  1  0  0  0  0
 57 70  1  0  0  0  0
 58 70  1  0  0  0  0
 59 70  1  0  0  0  0
 60 79  1  0  0  0  0
 61 80  1  0  0  0  0
 62 81  1  0  0  0  0
 63 88  1  0  0  0  0
 64 65  1  0  0  0  0
 64 79  1  0  0  0  0
 65 81  1  0  0  0  0
 66 81  1  0  0  0  0
 67 70  1  0  0  0  0
 67 78  1  0  0  0  0
 68 80  1  0  0  0  0
 71 72  1  0  0  0  0
M  CHG  2  80   1  81   1
M  ISO  4  38 100  63 101  79 100  88 101
M  END
> <Batch ID>
0102

> <Smiles>
CNC(C)C(=O)NC(C(=O)N1Cc2cc([101O:1][101CH2:1]c3cc(C(C)N(C)CC[100N:0](C)[100C:0](=O)N4CCCC(n5nc(-c6ccc(Oc7ccc(F)cc7F)cc6)c(C(N)=O)c5N)C4)c(C)c(C(C)(C)C)c3)ccc2CC1C(=O)NC1CCCc2ccccc21)C(C)(C)C

> <Shape>
0.151

> <Color>
0.173

> <Negative vol penalty>
0.000

$$$$

  -OEChem-04052319383D

 81 88  0     1  0  0  0  0  0999 V2000
  -17.6708  -26.6888   23.1668 C   0  0  0  0  0  0  0  0  0  0  0  0
  -18.8240  -26.1011   22.6568 C   0  0  0  0  0  0  0  0  0  0  0  0
  -26.7138  -12.9080   20.3552 C   0  0  0  0  0  0  0  0  0  0  0  0
  -25.1460  -14.7440   20.2663 C   0  0  0  0  0  0  0  0  0  0  0  0
  -17.5203  -28.0743   23.1283 C   0  0  0  0  0  0  0  0  0  0  0  0
  -19.8270  -26.8986   22.1069 C   0  0  0  0  0  0  0  0  0  0  0  0
  -24.4554  -25.5342   23.6437 C   0  0  0  0  0  0  0  0  0  0  0  0
  -25.6716  -12.0074   20.1356 C   0  0  0  0  0  0  0  0  0  0  0  0
  -24.1037  -13.8434   20.0467 C   0  0  0  0  0  0  0  0  0  0  0  0
  -25.0233  -24.4146   23.0374 C   0  0  0  0  0  0  0  0  0  0  0  0
  -23.3700   -9.1977   19.9566 C   0  0  0  0  0  0  0  0  0  0  0  0
  -23.3260   -8.0491   20.7468 C   0  0  0  0  0  0  0  0  0  0  0  0
  -26.3260  -25.8568   21.6083 C   0  0  0  0  0  0  0  0  0  0  0  0
  -23.1547   -9.4195   22.7292 C   0  0  0  0  0  0  0  0  0  0  0  0
  -26.4510  -14.2763   20.4206 C   0  0  0  0  0  0  0  0  0  0  0  0
  -28.3234  -15.8402   19.6748 C   0  0  0  0  0  0  0  0  0  0  0  0
  -18.5262  -28.8900   22.5865 C   0  0  0  0  0  0  0  0  0  0  0  0
  -24.8110  -26.8256   23.2287 C   0  0  0  0  0  0  0  0  0  0  0  0
  -19.6892  -28.2963   22.0599 C   0  0  0  0  0  0  0  0  0  0  0  0
  -25.7631  -26.9912   22.2127 C   0  0  0  0  0  0  0  0  0  0  0  0
  -24.3665  -12.4751   19.9813 C   0  0  0  0  0  0  0  0  0  0  0  0
  -25.9566  -24.5757   22.0176 C   0  0  0  0  0  0  0  0  0  0  0  0
  -23.3064  -10.4572   20.5527 C   0  0  0  0  0  0  0  0  0  0  0  0
  -23.2184   -8.1600   22.1331 C   0  0  0  0  0  0  0  0  0  0  0  0
  -23.1987  -10.5681   21.9390 C   0  0  0  0  0  0  0  0  0  0  0  0
  -27.5271  -15.2071   20.6480 C   0  0  0  0  0  0  0  0  0  0  0  0
  -29.1937  -16.6194   20.3972 C   0  0  0  0  0  0  0  0  0  0  0  0
  -28.2801  -15.7335   18.2457 C   0  0  0  0  0  0  0  0  0  0  0  0
  -23.2491  -29.2798   21.9476 C   0  0  0  0  0  0  0  0  0  0  0  0
  -26.0845  -30.7993   22.3650 C   0  0  0  0  0  0  0  0  0  0  0  0
  -29.4710  -30.5680   22.7187 C   0  0  0  0  0  0  0  0  0  0  0  0
  -28.9054  -19.0717   25.8519 C   0  0  0  0  0  0  0  0  0  0  0  0
  -18.2977  -30.3795   22.5239 C   0  0  0  0  0  0  0  0  0  0  0  0
  -24.2092  -28.0234   23.9112 C   0  0  0  0  0  0  0  0  0  0  0  0
  -26.1940  -28.3563   21.7445 C   0  0  0  0  0  0  0  0  0  0  0  0
  -19.5710  -31.1806   22.2646 C   0  0  0  0  0  0  0  0  0  0  0  0
  -31.3921  -16.8295   24.6415 C   0  0  0  0  0  0  0  0  0  0  0  0
  -20.3720  -30.5564   21.1264 C   0  0  0  0  0  0  0  0  0  0  0  0
  -30.7554  -16.2166   23.3929 C   0  0  0  0  0  0  0  0  0  0  0  0
  -30.3602  -17.0698   25.7412 C   0  0  0  0  0  0  0  0  0  0  0  0
  -28.5499  -17.2483   24.0784 C   0  0  0  0  0  0  0  0  0  0  0  0
  -20.8104  -29.1296   21.4779 C   0  0  1  0  0  0  0  0  0  0  0  0
  -24.2619  -29.2866   23.0575 C   0  0  1  0  0  0  0  0  0  0  0  0
  -29.5414  -17.0393   22.9211 C   0  0  2  0  0  0  0  0  0  0  0  0
  -31.5231  -31.9839   23.0035 C   0  0  0  0  0  0  0  0  0  0  0  0
  -28.7872  -20.7748   18.5965 C   0  0  0  0  0  0  0  0  0  0  0  0
  -29.4346  -23.1772   18.7930 C   0  0  0  0  0  0  0  0  0  0  0  0
  -27.0218  -22.5516   18.6641 C   0  0  0  0  0  0  0  0  0  0  0  0
  -25.9778  -31.5446   19.4081 C   0  0  0  0  0  0  0  0  0  0  0  0
  -28.4163  -32.0984   19.5313 C   0  0  0  0  0  0  0  0  0  0  0  0
  -26.7784  -33.3719   20.9163 C   0  0  0  0  0  0  0  0  0  0  0  0
  -30.1021  -29.3322   25.3328 C   0  0  0  0  0  0  0  0  0  0  0  0
  -28.3730  -22.0716   20.7752 C   0  0  0  0  0  0  0  0  0  0  0  0
  -27.3748  -21.0252   25.8263 C   0  0  0  0  0  0  0  0  0  0  0  0
  -28.0693  -22.2036   25.1697 C   0  0  0  0  0  0  0  0  0  0  0  0
  -28.3412  -23.3750   22.9805 C   0  0  0  0  0  0  0  0  0  0  0  0
  -27.3313  -30.9834   21.5340 C   0  0  1  0  0  0  0  0  0  0  0  0
  -30.4259  -31.2050   23.7121 C   0  0  2  0  0  0  0  0  0  0  0  0
  -27.9304  -23.3514   21.5063 C   0  0  2  0  0  0  0  0  0  1  0  0
  -28.3915  -22.1227   19.2185 C   0  0  0  0  0  0  0  0  0  0  0  0
  -27.1166  -31.9737   20.3547 C   0  0  0  0  0  0  0  0  0  0  0  0
  -27.8620  -15.5540   21.8936 N   0  0  0  0  0  0  0  0  0  0  0  0
  -28.8784  -16.4135   21.7080 N   0  0  0  0  0  0  0  0  0  0  0  0
  -25.5723  -29.4962   22.4385 N   0  0  0  0  0  0  0  0  0  0  0  0
  -29.2359  -17.8569   25.2290 N   0  0  0  0  0  0  0  0  0  0  0  0
  -30.1904  -17.4538   20.0326 N   0  0  0  0  0  0  0  0  0  0  0  0
  -27.3237  -14.8878   17.6675 N   0  0  0  0  0  0  0  0  0  0  0  0
  -21.9423  -29.1563   22.3793 N   0  0  0  0  0  0  0  0  0  0  0  0
  -28.3856  -31.3786   22.4617 N   0  0  0  0  0  0  0  0  0  0  0  0
  -27.8307  -19.7579   25.2999 N   0  0  0  0  0  0  0  0  0  0  0  0
  -31.0646  -30.1592   24.5603 N   0  3  0  0  0  0  0  0  0  0  0  0
  -27.7592  -22.2236   23.7144 N   0  3  0  0  0  0  0  0  0  0  0  0
  -29.0771  -16.3567   17.5040 O   0  0  0  0  0  0  0  0  0  0  0  0
  -23.6254  -29.3808   20.7858 O   0  0  0  0  0  0  0  0  0  0  0  0
  -25.5876  -31.7745   22.9340 O   0  0  0  0  0  0  0  0  0  0  0  0
  -29.6701  -29.4635   22.2177 O   0  0  0  0  0  0  0  0  0  0  0  0
  -29.5257  -19.5148   26.8245 O   0  0  0  0  0  0  0  0  0  0  0  0
  -23.3493  -11.5965   19.7668 O   0  0  0  0  0  0  0  0  0  0  0  0
  -26.5120  -23.4845   21.4236 O   0  0  0  0  0  0  0  0  0  1  0  0
  -23.1746   -7.0569   22.8917 F   0  0  0  0  0  0  0  0  0  0  0  0
  -23.1360  -11.7753   22.5173 F   0  0  0  0  0  0  0  0  0  0  0  0
  1  2  1  0  0  0  0
  1  5  2  0  0  0  0
  2  6  2  0  0  0  0
  3  8  2  0  0  0  0
  3 15  1  0  0  0  0
  4  9  1  0  0  0  0
  4 15  2  0  0  0  0
  5 17  1  0  0  0  0
  6 19  1  0  0  0  0
  7 10  2  0  0  0  0
  7 18  1  0  0  0  0
  8 21  1  0  0  0  0
  9 21  2  0  0  0  0
 10 22  1  0  0  0  0
 11 12  2  0  0  0  0
 11 23  1  0  0  0  0
 12 24  1  0  0  0  0
 13 20  1  0  0  0  0
 13 22  2  0  0  0  0
 14 24  2  0  0  0  0
 14 25  1  0  0  0  0
 15 26  1  0  0  0  0
 16 26  1  0  0  0  0
 16 27  2  0  0  0  0
 16 28  1  0  0  0  0
 17 19  2  0  0  0  0
 17 33  1  0  0  0  0
 18 20  2  0  0  0  0
 18 34  1  0  0  0  0
 19 42  1  0  0  0  0
 20 35  1  0  0  0  0
 21 78  1  0  0  0  0
 22 79  1  0  0  0  0
 23 25  2  0  0  0  0
 23 78  1  0  0  0  0
 24 80  1  0  0  0  0
 25 81  1  0  0  0  0
 26 62  2  0  0  0  0
 27 63  1  0  0  0  0
 27 66  1  0  0  0  0
 28 67  1  0  0  0  0
 28 73  2  0  0  0  0
 29 43  1  0  0  0  0
 29 68  1  0  0  0  0
 29 74  2  0  0  0  0
 30 57  1  0  0  0  0
 30 64  1  0  0  0  0
 30 75  2  0  0  0  0
 31 58  1  0  0  0  0
 31 69  1  0  0  0  0
 31 76  2  0  0  0  0
 32 65  1  0  0  0  0
 32 70  1  0  0  0  0
 32 77  2  0  0  0  0
 33 36  1  0  0  0  0
 34 43  1  0  0  0  0
 35 64  1  0  0  0  0
 36 38  1  0  0  0  0
 37 39  1  0  0  0  0
 37 40  1  0  0  0  0
 38 42  1  0  0  0  0
 39 44  1  0  0  0  0
 40 65  1  0  0  0  0
 41 44  1  0  0  0  0
 41 65  1  0  0  0  0
 42 68  1  0  0  0  0
 43 64  1  0  0  0  0
 44 63  1  0  0  0  0
 45 58  1  0  0  0  0
 46 60  1  0  0  0  0
 47 60  1  0  0  0  0
 48 60  1  0  0  0  0
 49 61  1  0  0  0  0
 50 61  1  0  0  0  0
 51 61  1  0  0  0  0
 52 71  1  0  0  0  0
 53 59  1  0  0  0  0
 53 60  1  0  0  0  0
 54 55  1  0  0  0  0
 54 70  1  0  0  0  0
 55 72  1  0  0  0  0
 56 59  1  0  0  0  0
 56 72  1  0  0  0  0
 57 61  1  0  0  0  0
 57 69  1  0  0  0  0
 58 71  1  0  0  0  0
 59 79  1  0  0  0  0
 62 63  1  0  0  0  0
M  CHG  2  71   1  72   1
M  ISO  4  32 100  59 101  70 100  79 101
M  END
> <Batch ID>
0102

> <Smiles>
CNC(C)C(=O)NC(C(=O)N1Cc2cc([101O:1][101CH:1](CNCC[100NH:0][100C:0](=O)N3CCCC(n4nc(-c5ccc(Oc6ccc(F)cc6F)cc5)c(C(N)=O)c4N)C3)CC(C)(C)C)ccc2CC1C(=O)NC1CCCc2ccccc21)C(C)(C)C

> <Shape>
0.233

> <Color>
0.071

> <Negative vol penalty>
0.000

$$$$

  -OEChem-04052319383D

 87 95  0     1  0  0  0  0  0999 V2000
  -27.9903  -31.5521   28.2999 C   0  0  0  0  0  0  0  0  0  0  0  0
  -28.0061  -30.6751   27.2201 C   0  0  0  0  0  0  0  0  0  0  0  0
  -24.6839   -8.1895   21.4010 C   0  0  0  0  0  0  0  0  0  0  0  0
  -23.1711  -10.0592   21.1715 C   0  0  0  0  0  0  0  0  0  0  0  0
  -26.8167  -32.2287   28.6298 C   0  0  0  0  0  0  0  0  0  0  0  0
  -26.8479  -30.4732   26.4702 C   0  0  0  0  0  0  0  0  0  0  0  0
  -27.7290  -30.5220   21.4836 C   0  0  0  0  0  0  0  0  0  0  0  0
  -23.8340   -7.6182   22.3481 C   0  0  0  0  0  0  0  0  0  0  0  0
  -22.3212   -9.4879   22.1185 C   0  0  0  0  0  0  0  0  0  0  0  0
  -28.2833  -29.3718   20.9237 C   0  0  0  0  0  0  0  0  0  0  0  0
  -20.9449   -5.8616   22.3645 C   0  0  0  0  0  0  0  0  0  0  0  0
  -20.6702   -4.4989   22.2506 C   0  0  0  0  0  0  0  0  0  0  0  0
  -26.0973  -28.6990   20.1567 C   0  0  0  0  0  0  0  0  0  0  0  0
  -30.4851  -25.7858   17.9231 C   0  0  0  0  0  0  0  0  0  0  0  0
  -21.6089   -4.1262   24.4454 C   0  0  0  0  0  0  0  0  0  0  0  0
  -24.3525   -9.4101   20.8127 C   0  0  0  0  0  0  0  0  0  0  0  0
  -25.2025   -9.8078   18.4406 C   0  0  0  0  0  0  0  0  0  0  0  0
  -25.6461  -32.0424   27.8777 C   0  0  0  0  0  0  0  0  0  0  0  0
  -26.3507  -30.7644   21.3936 C   0  0  0  0  0  0  0  0  0  0  0  0
  -25.6572  -31.1469   26.7912 C   0  0  0  0  0  0  0  0  0  0  0  0
  -25.5284  -29.8543   20.7141 C   0  0  0  0  0  0  0  0  0  0  0  0
  -29.8160  -25.8836   19.1681 C   0  0  0  0  0  0  0  0  0  0  0  0
  -22.6527   -8.2673   22.7068 C   0  0  0  0  0  0  0  0  0  0  0  0
  -27.4670  -28.4587   20.2626 C   0  0  0  0  0  0  0  0  0  0  0  0
  -21.5517   -6.3567   23.5188 C   0  0  0  0  0  0  0  0  0  0  0  0
  -21.0021   -3.6311   23.2910 C   0  0  0  0  0  0  0  0  0  0  0  0
  -21.8836   -5.4890   24.5593 C   0  0  0  0  0  0  0  0  0  0  0  0
  -25.2302  -10.0011   19.8348 C   0  0  0  0  0  0  0  0  0  0  0  0
  -30.6626  -24.4464   17.6556 C   0  0  0  0  0  0  0  0  0  0  0  0
  -29.6052  -24.6008   19.6235 C   0  0  0  0  0  0  0  0  0  0  0  0
  -26.2319  -10.5834   17.9659 C   0  0  0  0  0  0  0  0  0  0  0  0
  -24.3247   -8.9994   17.6457 C   0  0  0  0  0  0  0  0  0  0  0  0
  -23.9880  -31.0875   23.4953 C   0  0  0  0  0  0  0  0  0  0  0  0
  -28.7551  -20.1716   18.5818 C   0  0  0  0  0  0  0  0  0  0  0  0
  -22.2635  -31.8416   20.8534 C   0  0  0  0  0  0  0  0  0  0  0  0
  -21.8911  -31.5985   17.4698 C   0  0  0  0  0  0  0  0  0  0  0  0
  -28.9801  -15.4588   20.0939 C   0  0  0  0  0  0  0  0  0  0  0  0
  -24.3891  -32.7600   28.3015 C   0  0  0  0  0  0  0  0  0  0  0  0
  -25.7723  -32.0231   21.9797 C   0  0  0  0  0  0  0  0  0  0  0  0
  -24.0457  -30.0782   20.5722 C   0  0  0  0  0  0  0  0  0  0  0  0
  -23.3046  -32.7747   27.2273 C   0  0  0  0  0  0  0  0  0  0  0  0
  -30.4903  -12.3474   19.2483 C   0  0  0  0  0  0  0  0  0  0  0  0
  -23.1354  -31.3856   26.6204 C   0  0  0  0  0  0  0  0  0  0  0  0
  -29.3110  -11.3758   19.1769 C   0  0  0  0  0  0  0  0  0  0  0  0
  -30.3035  -13.3813   20.3565 C   0  0  0  0  0  0  0  0  0  0  0  0
  -27.8528  -13.1551   20.2288 C   0  0  0  0  0  0  0  0  0  0  0  0
  -24.4277  -30.9202   25.9386 C   0  0  1  0  0  0  0  0  0  0  0  0
  -24.2795  -31.9138   22.2747 C   0  0  1  0  0  0  0  0  0  0  0  0
  -27.9694  -12.1279   19.0896 C   0  0  2  0  0  0  0  0  0  0  0  0
  -31.2995  -23.7891   16.4958 C   0  0  0  0  0  0  0  0  0  0  0  0
  -28.9540  -24.1248   20.8627 C   0  0  0  0  0  0  0  0  0  0  0  0
  -20.3637  -32.2871   15.6015 C   0  0  0  0  0  0  0  0  0  0  0  0
  -26.4120  -17.2590   17.5504 C   0  0  0  0  0  0  0  0  0  0  0  0
  -20.2693  -29.6907   21.6942 C   0  0  0  0  0  0  0  0  0  0  0  0
  -19.3220  -29.7619   19.3778 C   0  0  0  0  0  0  0  0  0  0  0  0
  -19.2311  -31.7928   20.8235 C   0  0  0  0  0  0  0  0  0  0  0  0
  -24.0323  -33.1442   16.1337 C   0  0  0  0  0  0  0  0  0  0  0  0
  -29.4139  -27.1546   19.8566 C   0  0  0  0  0  0  0  0  0  1  0  0
  -28.7388  -21.6872   18.4878 C   0  0  0  0  0  0  0  0  0  0  0  0
  -27.4448  -19.4606   18.2740 C   0  0  0  0  0  0  0  0  0  0  0  0
  -30.1065  -22.2913   18.7992 C   0  0  0  0  0  0  0  0  0  0  0  0
  -27.5209  -17.4469   19.8164 C   0  0  0  0  0  0  0  0  0  0  0  0
  -21.4474  -31.0619   19.8509 C   0  0  1  0  0  0  0  0  0  0  0  0
  -21.6004  -32.6463   16.4105 C   0  0  2  0  0  0  0  0  0  0  0  0
  -27.5323  -17.9271   18.3561 C   0  0  1  0  0  0  0  0  0  0  0  0
  -20.0951  -30.5714   20.4408 C   0  0  0  0  0  0  0  0  0  0  0  0
  -26.2004  -10.8340   20.2207 N   0  0  0  0  0  0  0  0  0  0  0  0
  -30.1241  -23.7354   18.6962 N   0  0  0  0  0  0  0  0  0  0  0  0
  -26.7919  -11.1709   19.0619 N   0  0  0  0  0  0  0  0  0  0  0  0
  -23.5266  -31.3205   21.1677 N   0  0  0  0  0  0  0  0  0  0  0  0
  -29.0129  -14.0598   20.2153 N   0  0  0  0  0  0  0  0  0  0  0  0
  -26.7035  -10.8132   16.7221 N   0  0  0  0  0  0  0  0  0  0  0  0
  -23.3214   -8.2663   18.2940 N   0  0  0  0  0  0  0  0  0  0  0  0
  -24.5791  -31.5625   24.6505 N   0  0  0  0  0  0  0  0  0  0  0  0
  -21.3119  -31.9202   18.6790 N   0  0  0  0  0  0  0  0  0  0  0  0
  -27.7169  -16.0213   19.9578 N   0  0  0  0  0  0  0  0  0  0  0  0
  -22.7538  -32.7713   15.4752 N   0  3  0  0  0  0  0  0  0  0  0  0
  -24.4375   -8.9165   16.3992 O   0  0  0  0  0  0  0  0  0  0  0  0
  -23.2782  -30.0935   23.3966 O   0  0  0  0  0  0  0  0  0  0  0  0
  -29.7785  -19.5715   18.9085 O   0  0  0  0  0  0  0  0  0  0  0  0
  -21.8003  -32.8788   21.3344 O   0  0  0  0  0  0  0  0  0  0  0  0
  -22.5617  -30.5931   17.2458 O   0  0  0  0  0  0  0  0  0  0  0  0
  -30.0014  -16.1545   20.1004 O   0  0  0  0  0  0  0  0  0  0  0  0
  -21.8231   -7.7100   23.6307 O   0  0  0  0  0  0  0  0  0  0  0  0
  -28.0054  -27.3349   19.7158 O   0  0  0  0  0  0  0  0  0  1  0  0
  -20.7368   -2.3227   23.1821 F   0  0  0  0  0  0  0  0  0  0  0  0
  -22.4657   -5.9589   25.6711 F   0  0  0  0  0  0  0  0  0  0  0  0
  1  2  1  0  0  0  0
  1  5  2  0  0  0  0
  2  6  2  0  0  0  0
  3  8  2  0  0  0  0
  3 16  1  0  0  0  0
  4  9  1  0  0  0  0
  4 16  2  0  0  0  0
  5 18  1  0  0  0  0
  6 20  1  0  0  0  0
  7 10  2  0  0  0  0
  7 19  1  0  0  0  0
  8 23  1  0  0  0  0
  9 23  2  0  0  0  0
 10 24  1  0  0  0  0
 11 12  2  0  0  0  0
 11 25  1  0  0  0  0
 12 26  1  0  0  0  0
 13 21  1  0  0  0  0
 13 24  2  0  0  0  0
 14 22  1  0  0  0  0
 14 29  2  0  0  0  0
 15 26  2  0  0  0  0
 15 27  1  0  0  0  0
 16 28  1  0  0  0  0
 17 28  1  0  0  0  0
 17 31  2  0  0  0  0
 17 32  1  0  0  0  0
 18 20  2  0  0  0  0
 18 38  1  0  0  0  0
 19 21  2  0  0  0  0
 19 39  1  0  0  0  0
 20 47  1  0  0  0  0
 21 40  1  0  0  0  0
 22 30  2  0  0  0  0
 22 58  1  0  0  0  0
 23 84  1  0  0  0  0
 24 85  1  0  0  0  0
 25 27  2  0  0  0  0
 25 84  1  0  0  0  0
 26 86  1  0  0  0  0
 27 87  1  0  0  0  0
 28 67  2  0  0  0  0
 29 50  1  0  0  0  0
 29 68  1  0  0  0  0
 30 51  1  0  0  0  0
 30 68  1  0  0  0  0
 31 69  1  0  0  0  0
 31 72  1  0  0  0  0
 32 73  1  0  0  0  0
 32 78  2  0  0  0  0
 33 48  1  0  0  0  0
 33 74  1  0  0  0  0
 33 79  2  0  0  0  0
 34 59  1  0  0  0  0
 34 60  1  0  0  0  0
 34 80  2  0  0  0  0
 35 63  1  0  0  0  0
 35 70  1  0  0  0  0
 35 81  2  0  0  0  0
 36 64  1  0  0  0  0
 36 75  1  0  0  0  0
 36 82  2  0  0  0  0
 37 71  1  0  0  0  0
 37 76  1  0  0  0  0
 37 83  2  0  0  0  0
 38 41  1  0  0  0  0
 39 48  1  0  0  0  0
 40 70  1  0  0  0  0
 41 43  1  0  0  0  0
 42 44  1  0  0  0  0
 42 45  1  0  0  0  0
 43 47  1  0  0  0  0
 44 49  1  0  0  0  0
 45 71  1  0  0  0  0
 46 49  1  0  0  0  0
 46 71  1  0  0  0  0
 47 74  1  0  0  0  0
 48 70  1  0  0  0  0
 49 69  1  0  0  0  0
 52 64  1  0  0  0  0
 53 65  1  0  0  0  0
 54 66  1  0  0  0  0
 55 66  1  0  0  0  0
 56 66  1  0  0  0  0
 57 77  1  0  0  0  0
 58 85  1  0  0  0  0
 59 61  1  0  0  0  0
 60 65  1  0  0  0  0
 61 68  1  0  0  0  0
 62 65  1  0  0  0  0
 62 76  1  0  0  0  0
 63 66  1  0  0  0  0
 63 75  1  0  0  0  0
 64 77  1  0  0  0  0
 67 69  1  0  0  0  0
M  CHG  1  77   1
M  ISO  4  37 100  58 101  76 100  85 101
M  END
> <Batch ID>
0102

> <Smiles>
CNC(C)C(=O)NC(C(=O)N1Cc2cc([101O:1][101CH2:1]c3cc(C)n(CCC(=O)CC(C)C[100NH:0][100C:0](=O)N4CCCC(n5nc(-c6ccc(Oc7ccc(F)cc7F)cc6)c(C(N)=O)c5N)C4)c3C)ccc2CC1C(=O)NC1CCCc2ccccc21)C(C)(C)C

> <Shape>
0.305

> <Color>
0.081

> <Negative vol penalty>
0.000

$$$$

  -OEChem-04052319383D

 83 91  0     1  0  0  0  0  0999 V2000
  -19.7654  -16.0622   23.7216 C   0  0  0  0  0  0  0  0  0  0  0  0
  -20.9071  -16.8559   23.6757 C   0  0  0  0  0  0  0  0  0  0  0  0
  -23.0000   -9.8933   20.0000 C   0  0  0  0  0  0  0  0  0  0  0  0
  -23.8185   -9.9309   22.2728 C   0  0  0  0  0  0  0  0  0  0  0  0
  -18.7784  -16.3171   24.6727 C   0  0  0  0  0  0  0  0  0  0  0  0
  -21.0618  -17.9057   24.5803 C   0  0  0  0  0  0  0  0  0  0  0  0
  -25.7122  -18.0797   26.5775 C   0  0  0  0  0  0  0  0  0  0  0  0
  -22.2589   -8.7467   20.2858 C   0  0  0  0  0  0  0  0  0  0  0  0
  -23.0774   -8.7843   22.5587 C   0  0  0  0  0  0  0  0  0  0  0  0
  -26.7248  -18.6213   25.7869 C   0  0  0  0  0  0  0  0  0  0  0  0
  -23.3428   -5.4535   22.0430 C   0  0  0  0  0  0  0  0  0  0  0  0
  -23.9731   -4.4365   22.7599 C   0  0  0  0  0  0  0  0  0  0  0  0
  -26.5344  -20.7076   26.9827 C   0  0  0  0  0  0  0  0  0  0  0  0
  -29.4914  -18.2460   21.0890 C   0  0  0  0  0  0  0  0  0  0  0  0
  -22.3166   -4.6414   24.5068 C   0  0  0  0  0  0  0  0  0  0  0  0
  -32.1820  -18.6908   21.1828 C   0  0  0  0  0  0  0  0  0  0  0  0
  -23.7799  -10.4854   20.9934 C   0  0  0  0  0  0  0  0  0  0  0  0
  -24.1270  -13.0072   20.8276 C   0  0  0  0  0  0  0  0  0  0  0  0
  -18.9255  -17.3645   25.5957 C   0  0  0  0  0  0  0  0  0  0  0  0
  -25.0945  -18.8528   27.5711 C   0  0  0  0  0  0  0  0  0  0  0  0
  -20.0752  -18.1757   25.5439 C   0  0  0  0  0  0  0  0  0  0  0  0
  -25.5160  -20.1727   27.7863 C   0  0  0  0  0  0  0  0  0  0  0  0
  -29.9622  -19.5316   21.3318 C   0  0  0  0  0  0  0  0  0  0  0  0
  -31.3317  -19.7667   21.3811 C   0  0  0  0  0  0  0  0  0  0  0  0
  -22.2976   -8.1922   21.5652 C   0  0  0  0  0  0  0  0  0  0  0  0
  -27.1341  -19.9363   25.9875 C   0  0  0  0  0  0  0  0  0  0  0  0
  -22.1994   -6.0645   22.5579 C   0  0  0  0  0  0  0  0  0  0  0  0
  -23.4600   -4.0304   23.9918 C   0  0  0  0  0  0  0  0  0  0  0  0
  -21.6864   -5.6584   23.7898 C   0  0  0  0  0  0  0  0  0  0  0  0
  -24.5461  -11.6695   20.6986 C   0  0  0  0  0  0  0  0  0  0  0  0
  -30.4241  -17.2382   20.9036 C   0  0  0  0  0  0  0  0  0  0  0  0
  -25.2119  -13.7472   20.4255 C   0  0  0  0  0  0  0  0  0  0  0  0
  -22.8694  -13.5338   21.2713 C   0  0  0  0  0  0  0  0  0  0  0  0
  -22.1327  -19.8802   28.0962 C   0  0  0  0  0  0  0  0  0  0  0  0
  -23.4090  -20.9321   30.8867 C   0  0  0  0  0  0  0  0  0  0  0  0
  -26.1840  -21.9052   32.6185 C   0  0  0  0  0  0  0  0  0  0  0  0
  -30.6843  -14.7749   20.4447 C   0  0  0  0  0  0  0  0  0  0  0  0
  -17.8100  -17.6312   26.5750 C   0  0  0  0  0  0  0  0  0  0  0  0
  -24.0221  -18.2454   28.4333 C   0  0  0  0  0  0  0  0  0  0  0  0
  -24.8989  -21.0382   28.8534 C   0  0  0  0  0  0  0  0  0  0  0  0
  -18.2230  -18.5280   27.7393 C   0  0  0  0  0  0  0  0  0  0  0  0
  -29.5014  -12.3309   18.1415 C   0  0  0  0  0  0  0  0  0  0  0  0
  -19.0000  -19.7384   27.2313 C   0  0  0  0  0  0  0  0  0  0  0  0
  -28.0723  -12.0510   18.6121 C   0  0  0  0  0  0  0  0  0  0  0  0
  -30.4478  -12.5738   19.3159 C   0  0  0  0  0  0  0  0  0  0  0  0
  -28.5794  -13.3255   20.7347 C   0  0  0  0  0  0  0  0  0  0  0  0
  -20.2908  -19.3082   26.5242 C   0  0  1  0  0  0  0  0  0  0  0  0
  -23.1084  -19.2865   29.0725 C   0  0  1  0  0  0  0  0  0  0  0  0
  -27.5760  -13.1387   19.5848 C   0  0  2  0  0  0  0  0  0  0  0  0
  -32.8125  -21.6146   20.5202 C   0  0  0  0  0  0  0  0  0  0  0  0
  -26.9069  -22.7458   34.8698 C   0  0  0  0  0  0  0  0  0  0  0  0
  -22.2935  -23.6908   30.2120 C   0  0  0  0  0  0  0  0  0  0  0  0
  -23.8163  -24.6548   31.9499 C   0  0  0  0  0  0  0  0  0  0  0  0
  -22.0477  -23.0240   32.6098 C   0  0  0  0  0  0  0  0  0  0  0  0
  -27.9368  -19.5616   33.0597 C   0  0  0  0  0  0  0  0  0  0  0  0
  -28.9736  -20.6515   21.5372 C   0  0  0  0  0  0  0  0  0  0  0  0
  -28.8134  -21.0710   23.0000 C   0  0  0  0  0  0  0  0  0  0  0  0
  -28.2474  -19.9675   23.8861 C   0  0  0  0  0  0  0  0  0  1  0  0
  -31.8895  -21.1237   21.6378 C   0  0  2  0  0  0  0  0  0  0  0  0
  -24.0774  -22.2063   31.3434 C   0  0  1  0  0  0  0  0  0  0  0  0
  -26.6997  -21.5203   33.9934 C   0  0  2  0  0  0  0  0  0  0  0  0
  -23.0692  -23.3786   31.5073 C   0  0  0  0  0  0  0  0  0  0  0  0
  -31.7620  -17.4281   20.9445 N   0  0  0  0  0  0  0  0  0  0  0  0
  -25.7994  -11.5628   20.2495 N   0  0  0  0  0  0  0  0  0  0  0  0
  -26.1772  -12.8430   20.0927 N   0  0  0  0  0  0  0  0  0  0  0  0
  -23.8498  -20.4009   29.6663 N   0  0  0  0  0  0  0  0  0  0  0  0
  -29.9150  -13.6194   20.1920 N   0  0  0  0  0  0  0  0  0  0  0  0
  -25.4249  -15.0767   20.3275 N   0  0  0  0  0  0  0  0  0  0  0  0
  -21.8634  -12.6335   21.6477 N   0  0  0  0  0  0  0  0  0  0  0  0
  -29.9348  -15.9312   20.6584 N   0  0  0  0  0  0  0  0  0  0  0  0
  -21.3041  -18.9525   27.4943 N   0  0  0  0  0  0  0  0  0  0  0  0
  -24.8068  -21.8707   32.5615 N   0  0  0  0  0  0  0  0  0  0  0  0
  -27.9996  -20.8010   33.8764 N   0  3  0  0  0  0  0  0  0  0  0  0
  -22.6388  -14.7660   21.3165 O   0  0  0  0  0  0  0  0  0  0  0  0
  -22.1307  -21.0905   27.9043 O   0  0  0  0  0  0  0  0  0  0  0  0
  -22.5332  -20.4229   31.5904 O   0  0  0  0  0  0  0  0  0  0  0  0
  -26.9284  -22.2097   31.6892 O   0  0  0  0  0  0  0  0  0  0  0  0
  -31.9176  -14.7466   20.4428 O   0  0  0  0  0  0  0  0  0  0  0  0
  -32.6405  -21.1000   22.8578 O   0  0  0  0  0  0  0  0  0  0  0  0
  -21.5744   -7.0735   21.8445 O   0  0  0  0  0  0  0  0  0  0  0  0
  -28.1218  -20.4676   25.2167 O   0  0  0  0  0  0  0  0  0  1  0  0
  -24.0645   -3.0527   24.6795 F   0  0  0  0  0  0  0  0  0  0  0  0
  -20.5876   -6.2409   24.2890 F   0  0  0  0  0  0  0  0  0  0  0  0
  1  2  1  0  0  0  0
  1  5  2  0  0  0  0
  2  6  2  0  0  0  0
  3  8  2  0  0  0  0
  3 17  1  0  0  0  0
  4  9  1  0  0  0  0
  4 17  2  0  0  0  0
  5 19  1  0  0  0  0
  6 21  1  0  0  0  0
  7 10  2  0  0  0  0
  7 20  1  0  0  0  0
  8 25  1  0  0  0  0
  9 25  2  0  0  0  0
 10 26  1  0  0  0  0
 11 12  2  0  0  0  0
 11 27  1  0  0  0  0
 12 28  1  0  0  0  0
 13 22  1  0  0  0  0
 13 26  2  0  0  0  0
 14 23  1  0  0  0  0
 14 31  2  0  0  0  0
 15 28  2  0  0  0  0
 15 29  1  0  0  0  0
 16 24  1  0  0  0  0
 16 63  2  0  0  0  0
 17 30  1  0  0  0  0
 18 30  1  0  0  0  0
 18 32  2  0  0  0  0
 18 33  1  0  0  0  0
 19 21  2  0  0  0  0
 19 38  1  0  0  0  0
 20 22  2  0  0  0  0
 20 39  1  0  0  0  0
 21 47  1  0  0  0  0
 22 40  1  0  0  0  0
 23 24  2  0  0  0  0
 23 56  1  0  0  0  0
 24 59  1  0  0  0  0
 25 80  1  0  0  0  0
 26 81  1  0  0  0  0
 27 29  2  0  0  0  0
 27 80  1  0  0  0  0
 28 82  1  0  0  0  0
 29 83  1  0  0  0  0
 30 64  2  0  0  0  0
 31 63  1  0  0  0  0
 31 70  1  0  0  0  0
 32 65  1  0  0  0  0
 32 68  1  0  0  0  0
 33 69  1  0  0  0  0
 33 74  2  0  0  0  0
 34 48  1  0  0  0  0
 34 71  1  0  0  0  0
 34 75  2  0  0  0  0
 35 60  1  0  0  0  0
 35 66  1  0  0  0  0
 35 76  2  0  0  0  0
 36 61  1  0  0  0  0
 36 72  1  0  0  0  0
 36 77  2  0  0  0  0
 37 67  1  0  0  0  0
 37 70  1  0  0  0  0
 37 78  2  0  0  0  0
 38 41  1  0  0  0  0
 39 48  1  0  0  0  0
 40 66  1  0  0  0  0
 41 43  1  0  0  0  0
 42 44  1  0  0  0  0
 42 45  1  0  0  0  0
 43 47  1  0  0  0  0
 44 49  1  0  0  0  0
 45 67  1  0  0  0  0
 46 49  1  0  0  0  0
 46 67  1  0  0  0  0
 47 71  1  0  0  0  0
 48 66  1  0  0  0  0
 49 65  1  0  0  0  0
 50 59  1  0  0  0  0
 51 61  1  0  0  0  0
 52 62  1  0  0  0  0
 53 62  1  0  0  0  0
 54 62  1  0  0  0  0
 55 73  1  0  0  0  0
 56 57  1  0  0  0  0
 57 58  1  0  0  0  0
 58 81  1  0  0  0  0
 59 79  1  0  0  0  0
 60 62  1  0  0  0  0
 60 72  1  0  0  0  0
 61 73  1  0  0  0  0
 64 65  1  0  0  0  0
M  CHG  1  73   1
M  ISO  4  37 100  58 101  70 100  81 101
M  END
> <Batch ID>
0102

> <Smiles>
CNC(C)C(=O)NC(C(=O)N1Cc2cc([101O:1][101CH2:1]CCc3cc([100NH:0][100C:0](=O)N4CCCC(n5nc(-c6ccc(Oc7ccc(F)cc7F)cc6)c(C(N)=O)c5N)C4)ncc3C(C)O)ccc2CC1C(=O)NC1CCCc2ccccc21)C(C)(C)C

> <Shape>
0.184

> <Color>
0.188

> <Negative vol penalty>
0.000

$$$$

  -OEChem-04052319383D

 83 91  0     1  0  0  0  0  0999 V2000
  -28.8603  -35.9689   21.4498 C   0  0  0  0  0  0  0  0  0  0  0  0
  -29.3985  -34.8738   20.7816 C   0  0  0  0  0  0  0  0  0  0  0  0
  -26.4819  -12.2572   21.2783 C   0  0  0  0  0  0  0  0  0  0  0  0
  -25.9134  -14.3313   20.1774 C   0  0  0  0  0  0  0  0  0  0  0  0
  -27.9773  -35.7717   22.5107 C   0  0  0  0  0  0  0  0  0  0  0  0
  -29.0549  -33.5808   21.1746 C   0  0  0  0  0  0  0  0  0  0  0  0
  -28.0138  -27.0211   18.4909 C   0  0  0  0  0  0  0  0  0  0  0  0
  -25.1463  -11.8594   21.2186 C   0  0  0  0  0  0  0  0  0  0  0  0
  -24.5778  -13.9335   20.1177 C   0  0  0  0  0  0  0  0  0  0  0  0
  -28.4185  -25.7011   18.6852 C   0  0  0  0  0  0  0  0  0  0  0  0
  -22.2831  -12.4879   22.9013 C   0  0  0  0  0  0  0  0  0  0  0  0
  -21.7230  -11.9267   24.0488 C   0  0  0  0  0  0  0  0  0  0  0  0
  -26.8219  -25.4824   20.4804 C   0  0  0  0  0  0  0  0  0  0  0  0
  -30.2327  -21.3940   20.5197 C   0  0  0  0  0  0  0  0  0  0  0  0
  -30.0192  -19.0422   20.0094 C   0  0  0  0  0  0  0  0  0  0  0  0
  -29.0503  -20.6914   18.5335 C   0  0  0  0  0  0  0  0  0  0  0  0
  -21.2643   -9.8919   22.8296 C   0  0  0  0  0  0  0  0  0  0  0  0
  -26.8655  -13.4931   20.7577 C   0  0  0  0  0  0  0  0  0  0  0  0
  -29.2462  -13.6694   19.8585 C   0  0  0  0  0  0  0  0  0  0  0  0
  -27.6152  -34.4757   22.9107 C   0  0  0  0  0  0  0  0  0  0  0  0
  -27.0162  -27.5859   19.2983 C   0  0  0  0  0  0  0  0  0  0  0  0
  -28.1673  -33.3661   22.2427 C   0  0  0  0  0  0  0  0  0  0  0  0
  -26.4047  -26.8089   20.2925 C   0  0  0  0  0  0  0  0  0  0  0  0
  -30.4845  -20.0604   20.8416 C   0  0  0  0  0  0  0  0  0  0  0  0
  -29.5156  -21.7095   19.3656 C   0  0  0  0  0  0  0  0  0  0  0  0
  -29.3021  -19.3577   18.8553 C   0  0  0  0  0  0  0  0  0  0  0  0
  -24.1943  -12.6975   20.6383 C   0  0  0  0  0  0  0  0  0  0  0  0
  -27.8246  -24.9325   19.6820 C   0  0  0  0  0  0  0  0  0  0  0  0
  -22.3338  -11.7512   21.7179 C   0  0  0  0  0  0  0  0  0  0  0  0
  -21.2136  -10.6286   24.0129 C   0  0  0  0  0  0  0  0  0  0  0  0
  -21.8245  -10.4532   21.6820 C   0  0  0  0  0  0  0  0  0  0  0  0
  -28.2449  -13.9048   20.8196 C   0  0  0  0  0  0  0  0  0  0  0  0
  -30.3711  -14.2573   20.3835 C   0  0  0  0  0  0  0  0  0  0  0  0
  -29.1667  -12.9809   18.6034 C   0  0  0  0  0  0  0  0  0  0  0  0
  -26.8949  -30.0154   21.3445 C   0  0  0  0  0  0  0  0  0  0  0  0
  -31.0900  -18.7105   24.3538 C   0  0  0  0  0  0  0  0  0  0  0  0
  -23.7286  -29.3119   21.3889 C   0  0  0  0  0  0  0  0  0  0  0  0
  -21.2682  -26.9961   20.9088 C   0  0  0  0  0  0  0  0  0  0  0  0
  -26.6939  -34.3119   24.0935 C   0  0  0  0  0  0  0  0  0  0  0  0
  -26.5722  -29.0029   19.0583 C   0  0  0  0  0  0  0  0  0  0  0  0
  -25.3149  -27.3620   21.1729 C   0  0  0  0  0  0  0  0  0  0  0  0
  -26.0896  -32.9146   24.2059 C   0  0  0  0  0  0  0  0  0  0  0  0
  -32.4177  -15.3880   24.5489 C   0  0  0  0  0  0  0  0  0  0  0  0
  -27.1662  -31.8506   24.0167 C   0  0  0  0  0  0  0  0  0  0  0  0
  -31.5703  -14.6035   23.5482 C   0  0  0  0  0  0  0  0  0  0  0  0
  -31.5969  -16.4637   25.2533 C   0  0  0  0  0  0  0  0  0  0  0  0
  -30.0597  -16.6263   23.3214 C   0  0  0  0  0  0  0  0  0  0  0  0
  -27.7996  -31.9484   22.6235 C   0  0  1  0  0  0  0  0  0  0  0  0
  -25.9078  -29.6354   20.2773 C   0  0  1  0  0  0  0  0  0  0  0  0
  -30.8582  -15.5497   22.5653 C   0  0  2  0  0  0  0  0  0  0  0  0
  -27.7983  -17.3428   18.6749 C   0  0  0  0  0  0  0  0  0  0  0  0
  -29.9489  -17.4322   17.3626 C   0  0  0  0  0  0  0  0  0  0  0  0
  -29.9845  -20.8714   23.9494 C   0  0  0  0  0  0  0  0  0  0  0  0
  -18.7804  -26.7048   21.0608 C   0  0  0  0  0  0  0  0  0  0  0  0
  -23.9364  -29.1430   24.4284 C   0  0  0  0  0  0  0  0  0  0  0  0
  -21.7365  -27.9479   24.4427 C   0  0  0  0  0  0  0  0  0  0  0  0
  -21.8781  -30.2862   23.5854 C   0  0  0  0  0  0  0  0  0  0  0  0
  -21.0469  -26.3842   18.0217 C   0  0  0  0  0  0  0  0  0  0  0  0
  -31.2517  -19.7236   22.0756 C   0  0  0  0  0  0  0  0  0  0  0  0
  -29.2448  -23.1439   19.0186 C   0  0  0  0  0  0  0  0  0  1  0  0
  -28.8046  -18.2687   17.9658 C   0  0  0  0  0  0  0  0  0  0  0  0
  -30.3624  -19.5341   23.3212 C   0  0  1  0  0  0  0  0  0  0  0  0
  -22.8473  -28.4004   22.2084 C   0  0  1  0  0  0  0  0  0  0  0  0
  -19.9501  -27.0675   20.1592 C   0  0  2  0  0  0  0  0  0  0  0  0
  -22.6215  -28.9343   23.6511 C   0  0  0  0  0  0  0  0  0  0  0  0
  -28.6940  -14.5889   21.8752 N   0  0  0  0  0  0  0  0  0  0  0  0
  -29.9900  -14.7882   21.5806 N   0  0  0  0  0  0  0  0  0  0  0  0
  -24.9199  -28.7544   20.9034 N   0  0  0  0  0  0  0  0  0  0  0  0
  -30.9184  -17.3278   24.2857 N   0  0  0  0  0  0  0  0  0  0  0  0
  -31.6390  -14.3667   19.9333 N   0  0  0  0  0  0  0  0  0  0  0  0
  -27.9343  -12.4369   18.2166 N   0  0  0  0  0  0  0  0  0  0  0  0
  -26.9240  -31.3674   21.6284 N   0  0  0  0  0  0  0  0  0  0  0  0
  -21.6208  -28.2190   21.4395 N   0  0  0  0  0  0  0  0  0  0  0  0
  -19.9607  -26.1282   19.0022 N   0  3  0  0  0  0  0  0  0  0  0  0
  -30.1630  -12.8376   17.8548 O   0  0  0  0  0  0  0  0  0  0  0  0
  -27.5784  -29.1460   21.8724 O   0  0  0  0  0  0  0  0  0  0  0  0
  -31.7918  -19.2807   25.1933 O   0  0  0  0  0  0  0  0  0  0  0  0
  -23.3696  -30.4736   21.1810 O   0  0  0  0  0  0  0  0  0  0  0  0
  -21.9181  -25.9585   21.0163 O   0  0  0  0  0  0  0  0  0  0  0  0
  -22.8910  -12.3096   20.5797 O   0  0  0  0  0  0  0  0  0  0  0  0
  -28.2181  -23.6440   19.8743 O   0  0  0  0  0  0  0  0  0  1  0  0
  -20.6771  -10.0892   25.1154 F   0  0  0  0  0  0  0  0  0  0  0  0
  -21.8714   -9.7401   20.5484 F   0  0  0  0  0  0  0  0  0  0  0  0
  1  2  1  0  0  0  0
  1  5  2  0  0  0  0
  2  6  2  0  0  0  0
  3  8  2  0  0  0  0
  3 18  1  0  0  0  0
  4  9  1  0  0  0  0
  4 18  2  0  0  0  0
  5 20  1  0  0  0  0
  6 22  1  0  0  0  0
  7 10  2  0  0  0  0
  7 21  1  0  0  0  0
  8 27  1  0  0  0  0
  9 27  2  0  0  0  0
 10 28  1  0  0  0  0
 11 12  2  0  0  0  0
 11 29  1  0  0  0  0
 12 30  1  0  0  0  0
 13 23  1  0  0  0  0
 13 28  2  0  0  0  0
 14 24  2  0  0  0  0
 14 25  1  0  0  0  0
 15 24  1  0  0  0  0
 15 26  2  0  0  0  0
 16 25  2  0  0  0  0
 16 26  1  0  0  0  0
 17 30  2  0  0  0  0
 17 31  1  0  0  0  0
 18 32  1  0  0  0  0
 19 32  1  0  0  0  0
 19 33  2  0  0  0  0
 19 34  1  0  0  0  0
 20 22  2  0  0  0  0
 20 39  1  0  0  0  0
 21 23  2  0  0  0  0
 21 40  1  0  0  0  0
 22 48  1  0  0  0  0
 23 41  1  0  0  0  0
 24 59  1  0  0  0  0
 25 60  1  0  0  0  0
 26 61  1  0  0  0  0
 27 80  1  0  0  0  0
 28 81  1  0  0  0  0
 29 31  2  0  0  0  0
 29 80  1  0  0  0  0
 30 82  1  0  0  0  0
 31 83  1  0  0  0  0
 32 66  2  0  0  0  0
 33 67  1  0  0  0  0
 33 70  1  0  0  0  0
 34 71  1  0  0  0  0
 34 75  2  0  0  0  0
 35 49  1  0  0  0  0
 35 72  1  0  0  0  0
 35 76  2  0  0  0  0
 36 62  1  0  0  0  0
 36 69  1  0  0  0  0
 36 77  2  0  0  0  0
 37 63  1  0  0  0  0
 37 68  1  0  0  0  0
 37 78  2  0  0  0  0
 38 64  1  0  0  0  0
 38 73  1  0  0  0  0
 38 79  2  0  0  0  0
 39 42  1  0  0  0  0
 40 49  1  0  0  0  0
 41 68  1  0  0  0  0
 42 44  1  0  0  0  0
 43 45  1  0  0  0  0
 43 46  1  0  0  0  0
 44 48  1  0  0  0  0
 45 50  1  0  0  0  0
 46 69  1  0  0  0  0
 47 50  1  0  0  0  0
 47 69  1  0  0  0  0
 48 72  1  0  0  0  0
 49 68  1  0  0  0  0
 50 67  1  0  0  0  0
 51 61  1  0  0  0  0
 52 61  1  0  0  0  0
 53 62  1  0  0  0  0
 54 64  1  0  0  0  0
 55 65  1  0  0  0  0
 56 65  1  0  0  0  0
 57 65  1  0  0  0  0
 58 74  1  0  0  0  0
 59 62  1  0  0  0  0
 60 81  1  0  0  0  0
 63 65  1  0  0  0  0
 63 73  1  0  0  0  0
 64 74  1  0  0  0  0
 66 67  1  0  0  0  0
M  CHG  1  74   1
M  ISO  4  36 100  60 101  62 100  81 101
M  END
> <Batch ID>
0102

> <Smiles>
CNC(C)C(=O)NC(C(=O)N1Cc2cc([101O:1][101CH2:1]c3cc(C[100CH:0](C)[100C:0](=O)N4CCCC(n5nc(-c6ccc(Oc7ccc(F)cc7F)cc6)c(C(N)=O)c5N)C4)cc(C(C)C)c3)ccc2CC1C(=O)NC1CCCc2ccccc21)C(C)(C)C

> <Shape>
0.301

> <Color>
0.056

> <Negative vol penalty>
0.000

$$$$

  -OEChem-04052319383D

 88 96  0     1  0  0  0  0  0999 V2000
  -31.3642  -26.5901   17.6195 C   0  0  0  0  0  0  0  0  0  0  0  0
  -30.2536  -25.7899   17.3710 C   0  0  0  0  0  0  0  0  0  0  0  0
  -22.1978  -26.4425   20.8983 C   0  0  0  0  0  0  0  0  0  0  0  0
  -24.2329  -25.6775   21.9519 C   0  0  0  0  0  0  0  0  0  0  0  0
  -32.4308  -26.0883   18.3642 C   0  0  0  0  0  0  0  0  0  0  0  0
  -30.2094  -24.4871   17.8661 C   0  0  0  0  0  0  0  0  0  0  0  0
  -25.5856  -19.6137   20.3533 C   0  0  0  0  0  0  0  0  0  0  0  0
  -22.2486  -27.6153   21.6515 C   0  0  0  0  0  0  0  0  0  0  0  0
  -24.2837  -26.8504   22.7052 C   0  0  0  0  0  0  0  0  0  0  0  0
  -25.2056  -18.2877   20.1508 C   0  0  0  0  0  0  0  0  0  0  0  0
  -25.1457  -29.8030   24.6436 C   0  0  0  0  0  0  0  0  0  0  0  0
  -26.3743  -30.4552   24.7475 C   0  0  0  0  0  0  0  0  0  0  0  0
  -27.0720  -17.5543   21.4916 C   0  0  0  0  0  0  0  0  0  0  0  0
  -24.8635  -11.0877   20.0835 C   0  0  0  0  0  0  0  0  0  0  0  0
  -26.5124  -12.8346   19.8260 C   0  0  0  0  0  0  0  0  0  0  0  0
  -26.4352  -30.7229   22.3471 C   0  0  0  0  0  0  0  0  0  0  0  0
  -23.1899  -25.4735   21.0485 C   0  0  0  0  0  0  0  0  0  0  0  0
  -23.7099  -24.0387   19.0044 C   0  0  0  0  0  0  0  0  0  0  0  0
  -32.3955  -24.7819   18.8768 C   0  0  0  0  0  0  0  0  0  0  0  0
  -26.7199  -19.9200   21.1188 C   0  0  0  0  0  0  0  0  0  0  0  0
  -31.2772  -23.9670   18.6172 C   0  0  0  0  0  0  0  0  0  0  0  0
  -27.4628  -18.8851   21.7045 C   0  0  0  0  0  0  0  0  0  0  0  0
  -26.0224  -11.5754   19.4797 C   0  0  0  0  0  0  0  0  0  0  0  0
  -24.1943  -11.8594   21.0335 C   0  0  0  0  0  0  0  0  0  0  0  0
  -25.8433  -13.6063   20.7760 C   0  0  0  0  0  0  0  0  0  0  0  0
  -24.6842  -13.1186   21.3798 C   0  0  0  0  0  0  0  0  0  0  0  0
  -23.2916  -27.8193   22.5550 C   0  0  0  0  0  0  0  0  0  0  0  0
  -25.9505  -17.2576   20.7176 C   0  0  0  0  0  0  0  0  0  0  0  0
  -24.5618  -29.6107   23.3914 C   0  0  0  0  0  0  0  0  0  0  0  0
  -27.0190  -30.9151   23.5993 C   0  0  0  0  0  0  0  0  0  0  0  0
  -25.2066  -30.0707   22.2432 C   0  0  0  0  0  0  0  0  0  0  0  0
  -23.1376  -24.2615   20.2711 C   0  0  0  0  0  0  0  0  0  0  0  0
  -23.3795  -22.7404   18.7019 C   0  0  0  0  0  0  0  0  0  0  0  0
  -24.4722  -24.9261   18.1753 C   0  0  0  0  0  0  0  0  0  0  0  0
  -29.4897  -21.3695   20.5436 C   0  0  0  0  0  0  0  0  0  0  0  0
  -29.8888  -21.0257   23.7444 C   0  0  0  0  0  0  0  0  0  0  0  0
  -29.0881  -19.3351   26.5988 C   0  0  0  0  0  0  0  0  0  0  0  0
  -22.1600  -18.0911   22.1300 C   0  0  0  0  0  0  0  0  0  0  0  0
  -33.5928  -24.2675   19.6361 C   0  0  0  0  0  0  0  0  0  0  0  0
  -27.1011  -21.3566   21.3501 C   0  0  0  0  0  0  0  0  0  0  0  0
  -28.6771  -19.1617   22.5515 C   0  0  0  0  0  0  0  0  0  0  0  0
  -33.3056  -23.0036   20.4426 C   0  0  0  0  0  0  0  0  0  0  0  0
  -20.0183  -19.4384   19.5425 C   0  0  0  0  0  0  0  0  0  0  0  0
  -32.5385  -21.9929   19.5959 C   0  0  0  0  0  0  0  0  0  0  0  0
  -20.6415  -20.8176   19.3194 C   0  0  0  0  0  0  0  0  0  0  0  0
  -20.0532  -19.0480   21.0172 C   0  0  0  0  0  0  0  0  0  0  0  0
  -22.0352  -20.4592   21.4096 C   0  0  0  0  0  0  0  0  0  0  0  0
  -31.1814  -22.5569   19.1583 C   0  0  1  0  0  0  0  0  0  0  0  0
  -28.5704  -21.5326   21.7209 C   0  0  1  0  0  0  0  0  0  0  0  0
  -22.0507  -20.9019   19.9353 C   0  0  2  0  0  0  0  0  0  0  0  0
  -22.9559  -11.3136   21.6661 C   0  0  0  0  0  0  0  0  0  0  0  0
  -28.1419  -10.3604   18.9820 C   0  0  0  0  0  0  0  0  0  0  0  0
  -29.6031  -19.2595   29.0537 C   0  0  0  0  0  0  0  0  0  0  0  0
  -25.4024  -11.7189   16.5062 C   0  0  0  0  0  0  0  0  0  0  0  0
  -27.5609  -10.5758   16.0102 C   0  0  0  0  0  0  0  0  0  0  0  0
  -32.5578  -19.6760   23.1403 C   0  0  0  0  0  0  0  0  0  0  0  0
  -32.5638  -18.7959   25.4842 C   0  0  0  0  0  0  0  0  0  0  0  0
  -32.6030  -21.2568   25.0778 C   0  0  0  0  0  0  0  0  0  0  0  0
  -26.2773  -19.9114   27.3244 C   0  0  0  0  0  0  0  0  0  0  0  0
  -23.9668  -13.9455   22.3988 C   0  0  0  0  0  0  0  0  0  0  0  0
  -26.3909  -14.9574   21.1310 C   0  0  0  0  0  0  0  0  0  1  0  0
  -22.1371  -15.7017   22.7989 C   0  0  0  0  0  0  0  0  0  0  0  0
  -26.7375  -10.7507   18.4635 C   0  0  2  0  0  0  0  0  0  0  0  0
  -30.4759  -19.9620   24.6404 C   0  0  1  0  0  0  0  0  0  0  0  0
  -28.6861  -19.8226   27.9791 C   0  0  2  0  0  0  0  0  0  0  0  0
  -26.8099  -11.4228   17.0452 C   0  0  0  0  0  0  0  0  0  0  0  0
  -22.8980  -14.8615   21.7717 C   0  0  2  0  0  0  0  0  0  0  0  0
  -32.0284  -19.9171   24.5682 C   0  0  0  0  0  0  0  0  0  0  0  0
  -22.4924  -23.1906   20.7410 N   0  0  0  0  0  0  0  0  0  0  0  0
  -22.6572  -22.2823   19.7642 N   0  0  0  0  0  0  0  0  0  0  0  0
  -29.0131  -20.5822   22.7432 N   0  0  0  0  0  0  0  0  0  0  0  0
  -21.4253  -19.1314   21.5372 N   0  0  0  0  0  0  0  0  0  0  0  0
  -23.6392  -21.9572   17.6334 N   0  0  0  0  0  0  0  0  0  0  0  0
  -24.7199  -26.2255   18.6384 N   0  0  0  0  0  0  0  0  0  0  0  0
  -30.2332  -22.4966   20.2500 N   0  0  0  0  0  0  0  0  0  0  0  0
  -29.9470  -20.2159   25.9761 N   0  0  0  0  0  0  0  0  0  0  0  0
  -21.5078  -16.8674   22.2190 N   0  0  0  0  0  0  0  0  0  0  0  0
  -27.2888  -19.4071   28.2886 N   0  3  0  0  0  0  0  0  0  0  0  0
  -24.9063  -24.5823   17.0498 O   0  0  0  0  0  0  0  0  0  0  0  0
  -29.5231  -20.2998   19.9468 O   0  0  0  0  0  0  0  0  0  0  0  0
  -30.1902  -22.2073   23.9306 O   0  0  0  0  0  0  0  0  0  0  0  0
  -28.6837  -18.2769   26.1222 O   0  0  0  0  0  0  0  0  0  0  0  0
  -23.3145  -18.2402   22.5447 O   0  0  0  0  0  0  0  0  0  0  0  0
  -21.9627  -14.0782   21.0303 O   0  0  0  0  0  0  0  0  0  0  0  0
  -23.3416  -28.9638   23.2900 O   0  0  0  0  0  0  0  0  0  0  0  0
  -25.5822  -15.9624   20.5209 O   0  0  0  0  0  0  0  0  0  1  0  0
  -28.1981  -31.5427   23.6994 F   0  0  0  0  0  0  0  0  0  0  0  0
  -24.6500  -29.8899   21.0377 F   0  0  0  0  0  0  0  0  0  0  0  0
  1  2  1  0  0  0  0
  1  5  2  0  0  0  0
  2  6  2  0  0  0  0
  3  8  2  0  0  0  0
  3 17  1  0  0  0  0
  4  9  1  0  0  0  0
  4 17  2  0  0  0  0
  5 19  1  0  0  0  0
  6 21  1  0  0  0  0
  7 10  2  0  0  0  0
  7 20  1  0  0  0  0
  8 27  1  0  0  0  0
  9 27  2  0  0  0  0
 10 28  1  0  0  0  0
 11 12  2  0  0  0  0
 11 29  1  0  0  0  0
 12 30  1  0  0  0  0
 13 22  1  0  0  0  0
 13 28  2  0  0  0  0
 14 23  1  0  0  0  0
 14 24  2  0  0  0  0
 15 23  2  0  0  0  0
 15 25  1  0  0  0  0
 16 30  2  0  0  0  0
 16 31  1  0  0  0  0
 17 32  1  0  0  0  0
 18 32  1  0  0  0  0
 18 33  2  0  0  0  0
 18 34  1  0  0  0  0
 19 21  2  0  0  0  0
 19 39  1  0  0  0  0
 20 22  2  0  0  0  0
 20 40  1  0  0  0  0
 21 48  1  0  0  0  0
 22 41  1  0  0  0  0
 23 63  1  0  0  0  0
 24 26  1  0  0  0  0
 24 51  1  0  0  0  0
 25 26  2  0  0  0  0
 25 61  1  0  0  0  0
 26 60  1  0  0  0  0
 27 85  1  0  0  0  0
 28 86  1  0  0  0  0
 29 31  2  0  0  0  0
 29 85  1  0  0  0  0
 30 87  1  0  0  0  0
 31 88  1  0  0  0  0
 32 69  2  0  0  0  0
 33 70  1  0  0  0  0
 33 73  1  0  0  0  0
 34 74  1  0  0  0  0
 34 79  2  0  0  0  0
 35 49  1  0  0  0  0
 35 75  1  0  0  0  0
 35 80  2  0  0  0  0
 36 64  1  0  0  0  0
 36 71  1  0  0  0  0
 36 81  2  0  0  0  0
 37 65  1  0  0  0  0
 37 76  1  0  0  0  0
 37 82  2  0  0  0  0
 38 72  1  0  0  0  0
 38 77  1  0  0  0  0
 38 83  2  0  0  0  0
 39 42  1  0  0  0  0
 40 49  1  0  0  0  0
 41 71  1  0  0  0  0
 42 44  1  0  0  0  0
 43 45  1  0  0  0  0
 43 46  1  0  0  0  0
 44 48  1  0  0  0  0
 45 50  1  0  0  0  0
 46 72  1  0  0  0  0
 47 50  1  0  0  0  0
 47 72  1  0  0  0  0
 48 75  1  0  0  0  0
 49 71  1  0  0  0  0
 50 70  1  0  0  0  0
 52 63  1  0  0  0  0
 53 65  1  0  0  0  0
 54 66  1  0  0  0  0
 55 66  1  0  0  0  0
 56 68  1  0  0  0  0
 57 68  1  0  0  0  0
 58 68  1  0  0  0  0
 59 78  1  0  0  0  0
 60 67  1  0  0  0  0
 61 86  1  0  0  0  0
 62 67  1  0  0  0  0
 62 77  1  0  0  0  0
 63 66  1  0  0  0  0
 64 68  1  0  0  0  0
 64 76  1  0  0  0  0
 65 78  1  0  0  0  0
 67 84  1  0  0  0  0
 69 70  1  0  0  0  0
M  CHG  1  78   1
M  ISO  4  38 100  61 101  77 100  86 101
M  END
> <Batch ID>
0102

> <Smiles>
CNC(C)C(=O)NC(C(=O)N1Cc2cc([101O:1][101CH2:1]c3cc(C(C)C(C)C)cc(C)c3CC(O)C[100NH:0][100C:0](=O)N3CCCC(n4nc(-c5ccc(Oc6ccc(F)cc6F)cc5)c(C(N)=O)c4N)C3)ccc2CC1C(=O)NC1CCCc2ccccc21)C(C)(C)C

> <Shape>
0.164

> <Color>
0.073

> <Negative vol penalty>
0.000

$$$$

  -OEChem-04052319383D

 84 92  0     1  0  0  0  0  0999 V2000
  -22.0212  -34.1268   20.6051 C   0  0  0  0  0  0  0  0  0  0  0  0
  -23.1197  -33.2749   20.6610 C   0  0  0  0  0  0  0  0  0  0  0  0
  -25.9060  -15.1182   20.6815 C   0  0  0  0  0  0  0  0  0  0  0  0
  -26.2265  -15.0684   18.2874 C   0  0  0  0  0  0  0  0  0  0  0  0
  -20.8881  -33.8524   21.3697 C   0  0  0  0  0  0  0  0  0  0  0  0
  -23.0860  -32.1487   21.4825 C   0  0  0  0  0  0  0  0  0  0  0  0
  -24.8675  -28.0075   19.1755 C   0  0  0  0  0  0  0  0  0  0  0  0
  -24.8573  -14.2066   20.5601 C   0  0  0  0  0  0  0  0  0  0  0  0
  -25.1778  -14.1567   18.1660 C   0  0  0  0  0  0  0  0  0  0  0  0
  -26.2522  -27.8820   19.0724 C   0  0  0  0  0  0  0  0  0  0  0  0
  -24.4919  -10.8730   20.1284 C   0  0  0  0  0  0  0  0  0  0  0  0
  -24.4539   -9.8054   21.0253 C   0  0  0  0  0  0  0  0  0  0  0  0
  -31.4926  -25.3475   19.8009 C   0  0  0  0  0  0  0  0  0  0  0  0
  -26.2505  -26.3794   20.9595 C   0  0  0  0  0  0  0  0  0  0  0  0
  -30.5640  -25.3359   17.5823 C   0  0  0  0  0  0  0  0  0  0  0  0
  -22.2942  -10.5461   21.8154 C   0  0  0  0  0  0  0  0  0  0  0  0
  -31.8267  -24.0164   19.6098 C   0  0  0  0  0  0  0  0  0  0  0  0
  -26.5906  -15.5491   19.5451 C   0  0  0  0  0  0  0  0  0  0  0  0
  -29.0377  -16.1984   19.8583 C   0  0  0  0  0  0  0  0  0  0  0  0
  -20.8369  -32.7170   22.1936 C   0  0  0  0  0  0  0  0  0  0  0  0
  -24.1640  -27.3273   20.1799 C   0  0  0  0  0  0  0  0  0  0  0  0
  -21.9517  -31.8595   22.2599 C   0  0  0  0  0  0  0  0  0  0  0  0
  -24.8566  -26.4959   21.0717 C   0  0  0  0  0  0  0  0  0  0  0  0
  -30.8494  -26.0125   18.7630 C   0  0  0  0  0  0  0  0  0  0  0  0
  -24.4932  -13.7258   19.3024 C   0  0  0  0  0  0  0  0  0  0  0  0
  -26.9442  -27.0701   19.9662 C   0  0  0  0  0  0  0  0  0  0  0  0
  -23.4311  -11.7772   20.0751 C   0  0  0  0  0  0  0  0  0  0  0  0
  -23.3551   -9.6419   21.8688 C   0  0  0  0  0  0  0  0  0  0  0  0
  -22.3323  -11.6137   20.9185 C   0  0  0  0  0  0  0  0  0  0  0  0
  -27.6737  -16.4912   19.6698 C   0  0  0  0  0  0  0  0  0  0  0  0
  -30.9399  -24.0054   17.4904 C   0  0  0  0  0  0  0  0  0  0  0  0
  -29.6483  -17.4274   19.9137 C   0  0  0  0  0  0  0  0  0  0  0  0
  -29.6940  -14.9289   19.9731 C   0  0  0  0  0  0  0  0  0  0  0  0
  -22.3635  -28.2080   22.6470 C   0  0  0  0  0  0  0  0  0  0  0  0
  -21.8452  -25.0165   22.9078 C   0  0  0  0  0  0  0  0  0  0  0  0
  -22.9317  -21.8437   22.2757 C   0  0  0  0  0  0  0  0  0  0  0  0
  -27.6434  -22.7779   17.7020 C   0  0  0  0  0  0  0  0  0  0  0  0
  -19.6083  -32.4875   23.0378 C   0  0  0  0  0  0  0  0  0  0  0  0
  -22.6672  -27.4522   20.2611 C   0  0  0  0  0  0  0  0  0  0  0  0
  -24.1457  -25.7284   22.1552 C   0  0  0  0  0  0  0  0  0  0  0  0
  -19.5095  -31.0705   23.5970 C   0  0  0  0  0  0  0  0  0  0  0  0
  -28.8276  -21.9787   21.1167 C   0  0  0  0  0  0  0  0  0  0  0  0
  -20.8459  -30.6364   24.1904 C   0  0  0  0  0  0  0  0  0  0  0  0
  -28.7096  -20.4562   21.1624 C   0  0  0  0  0  0  0  0  0  0  0  0
  -27.8154  -22.5975   20.1575 C   0  0  0  0  0  0  0  0  0  0  0  0
  -27.7530  -20.5153   18.8253 C   0  0  0  0  0  0  0  0  0  0  0  0
  -21.9438  -30.6145   23.1200 C   0  0  1  0  0  0  0  0  0  0  0  0
  -22.1139  -27.1184   21.6430 C   0  0  1  0  0  0  0  0  0  0  0  0
  -28.7901  -19.8570   19.7476 C   0  0  2  0  0  0  0  0  0  0  0  0
  -31.1867  -28.3505   17.8960 C   0  0  0  0  0  0  0  0  0  0  0  0
  -31.9409  -22.7795   15.5362 C   0  0  0  0  0  0  0  0  0  0  0  0
  -22.3132  -19.4397   22.6440 C   0  0  0  0  0  0  0  0  0  0  0  0
  -22.7305  -25.2374   25.8194 C   0  0  0  0  0  0  0  0  0  0  0  0
  -23.0057  -22.7492   25.8518 C   0  0  0  0  0  0  0  0  0  0  0  0
  -20.7576  -23.7483   25.4390 C   0  0  0  0  0  0  0  0  0  0  0  0
  -27.6870  -22.7278   15.2372 C   0  0  0  0  0  0  0  0  0  0  0  0
  -22.7806  -21.3163   19.3674 C   0  0  0  0  0  0  0  0  0  0  0  0
  -29.7160  -22.0329   16.4562 C   0  0  0  0  0  0  0  0  0  0  0  0
  -28.9410  -27.6767   18.8258 C   0  0  0  0  0  0  0  0  0  1  0  0
  -30.4595  -27.4740   18.9195 C   0  0  1  0  0  0  0  0  0  0  0  0
  -30.6494  -23.2479   16.2379 C   0  0  1  0  0  0  0  0  0  0  0  0
  -22.5226  -23.8792   23.6335 C   0  0  1  0  0  0  0  0  0  0  0  0
  -22.2206  -20.6309   21.7031 C   0  0  2  0  0  0  0  0  0  0  0  0
  -22.2680  -23.9194   25.1668 C   0  0  0  0  0  0  0  0  0  0  0  0
  -31.5660  -23.3258   18.4772 N   0  0  0  0  0  0  0  0  0  0  0  0
  -27.4315  -17.8034   19.6096 N   0  0  0  0  0  0  0  0  0  0  0  0
  -28.6517  -18.3460   19.7612 N   0  0  0  0  0  0  0  0  0  0  0  0
  -22.6827  -25.8883   22.1976 N   0  0  0  0  0  0  0  0  0  0  0  0
  -27.8841  -21.9801   18.8326 N   0  0  0  0  0  0  0  0  0  0  0  0
  -30.9351  -17.8012   20.0774 N   0  0  0  0  0  0  0  0  0  0  0  0
  -28.9168  -13.7653   19.8940 N   0  0  0  0  0  0  0  0  0  0  0  0
  -21.8231  -29.4306   22.2965 N   0  0  0  0  0  0  0  0  0  0  0  0
  -22.0698  -22.6536   22.9845 N   0  0  0  0  0  0  0  0  0  0  0  0
  -28.3104  -22.4276   16.5183 N   0  0  0  0  0  0  0  0  0  0  0  0
  -22.8245  -20.2455   20.3962 N   0  3  0  0  0  0  0  0  0  0  0  0
  -30.9309  -14.8296   20.1572 O   0  0  0  0  0  0  0  0  0  0  0  0
  -22.9981  -27.9578   23.6650 O   0  0  0  0  0  0  0  0  0  0  0  0
  -20.6175  -25.1233   22.9630 O   0  0  0  0  0  0  0  0  0  0  0  0
  -24.1324  -22.0500   22.1137 O   0  0  0  0  0  0  0  0  0  0  0  0
  -26.8835  -23.7537   17.7504 O   0  0  0  0  0  0  0  0  0  0  0  0
  -23.4700  -12.8361   19.1836 O   0  0  0  0  0  0  0  0  0  0  0  0
  -28.2959  -26.9464   19.8682 O   0  0  0  0  0  0  0  0  0  1  0  0
  -23.3180   -8.6158   22.7290 F   0  0  0  0  0  0  0  0  0  0  0  0
  -21.3097  -12.4785   20.8710 F   0  0  0  0  0  0  0  0  0  0  0  0
  1  2  1  0  0  0  0
  1  5  2  0  0  0  0
  2  6  2  0  0  0  0
  3  8  2  0  0  0  0
  3 18  1  0  0  0  0
  4  9  1  0  0  0  0
  4 18  2  0  0  0  0
  5 20  1  0  0  0  0
  6 22  1  0  0  0  0
  7 10  2  0  0  0  0
  7 21  1  0  0  0  0
  8 25  1  0  0  0  0
  9 25  2  0  0  0  0
 10 26  1  0  0  0  0
 11 12  2  0  0  0  0
 11 27  1  0  0  0  0
 12 28  1  0  0  0  0
 13 17  2  0  0  0  0
 13 24  1  0  0  0  0
 14 23  1  0  0  0  0
 14 26  2  0  0  0  0
 15 24  2  0  0  0  0
 15 31  1  0  0  0  0
 16 28  2  0  0  0  0
 16 29  1  0  0  0  0
 17 65  1  0  0  0  0
 18 30  1  0  0  0  0
 19 30  1  0  0  0  0
 19 32  2  0  0  0  0
 19 33  1  0  0  0  0
 20 22  2  0  0  0  0
 20 38  1  0  0  0  0
 21 23  2  0  0  0  0
 21 39  1  0  0  0  0
 22 47  1  0  0  0  0
 23 40  1  0  0  0  0
 24 60  1  0  0  0  0
 25 81  1  0  0  0  0
 26 82  1  0  0  0  0
 27 29  2  0  0  0  0
 27 81  1  0  0  0  0
 28 83  1  0  0  0  0
 29 84  1  0  0  0  0
 30 66  2  0  0  0  0
 31 61  1  0  0  0  0
 31 65  2  0  0  0  0
 32 67  1  0  0  0  0
 32 70  1  0  0  0  0
 33 71  1  0  0  0  0
 33 76  2  0  0  0  0
 34 48  1  0  0  0  0
 34 72  1  0  0  0  0
 34 77  2  0  0  0  0
 35 62  1  0  0  0  0
 35 68  1  0  0  0  0
 35 78  2  0  0  0  0
 36 63  1  0  0  0  0
 36 73  1  0  0  0  0
 36 79  2  0  0  0  0
 37 69  1  0  0  0  0
 37 74  1  0  0  0  0
 37 80  2  0  0  0  0
 38 41  1  0  0  0  0
 39 48  1  0  0  0  0
 40 68  1  0  0  0  0
 41 43  1  0  0  0  0
 42 44  1  0  0  0  0
 42 45  1  0  0  0  0
 43 47  1  0  0  0  0
 44 49  1  0  0  0  0
 45 69  1  0  0  0  0
 46 49  1  0  0  0  0
 46 69  1  0  0  0  0
 47 72  1  0  0  0  0
 48 68  1  0  0  0  0
 49 67  1  0  0  0  0
 50 60  1  0  0  0  0
 51 61  1  0  0  0  0
 52 63  1  0  0  0  0
 53 64  1  0  0  0  0
 54 64  1  0  0  0  0
 55 64  1  0  0  0  0
 56 74  1  0  0  0  0
 57 75  1  0  0  0  0
 58 61  1  0  0  0  0
 58 74  1  0  0  0  0
 59 60  1  0  0  0  0
 59 82  1  0  0  0  0
 62 64  1  0  0  0  0
 62 73  1  0  0  0  0
 63 75  1  0  0  0  0
 66 67  1  0  0  0  0
M  CHG  1  75   1
M  ISO  4  37 100  59 101  74 100  82 101
M  END
> <Batch ID>
0102

> <Smiles>
CNC(C)C(=O)NC(C(=O)N1Cc2cc([101O:1][101CH2:1]C(C)c3ccnc(C(C)C[100N:0](C)[100C:0](=O)N4CCCC(n5nc(-c6ccc(Oc7ccc(F)cc7F)cc6)c(C(N)=O)c5N)C4)c3)ccc2CC1C(=O)NC1CCCc2ccccc21)C(C)(C)C

> <Shape>
0.231

> <Color>
0.069

> <Negative vol penalty>
0.000

$$$$

  -OEChem-04052319383D

 82 90  0     1  0  0  0  0  0999 V2000
  -23.2401  -22.7274   23.1711 C   0  0  0  0  0  0  0  0  0  0  0  0
  -24.6047  -22.4621   23.1189 C   0  0  0  0  0  0  0  0  0  0  0  0
  -23.1023   -9.7661   20.1094 C   0  0  0  0  0  0  0  0  0  0  0  0
  -23.7428  -10.0722   22.4188 C   0  0  0  0  0  0  0  0  0  0  0  0
  -22.7165  -23.8195   22.4803 C   0  0  0  0  0  0  0  0  0  0  0  0
  -25.4465  -23.2881   22.3749 C   0  0  0  0  0  0  0  0  0  0  0  0
  -29.6967  -24.4744   24.8595 C   0  0  0  0  0  0  0  0  0  0  0  0
  -22.3701   -8.6327   20.4627 C   0  0  0  0  0  0  0  0  0  0  0  0
  -23.0106   -8.9387   22.7721 C   0  0  0  0  0  0  0  0  0  0  0  0
  -30.6989  -23.5063   24.9051 C   0  0  0  0  0  0  0  0  0  0  0  0
  -23.3972   -5.5825   22.6418 C   0  0  0  0  0  0  0  0  0  0  0  0
  -23.9957   -4.6688   23.5094 C   0  0  0  0  0  0  0  0  0  0  0  0
  -31.8646  -24.6377   23.1218 C   0  0  0  0  0  0  0  0  0  0  0  0
  -29.4669  -18.0636   22.2264 C   0  0  0  0  0  0  0  0  0  0  0  0
  -22.2055   -5.0037   25.0969 C   0  0  0  0  0  0  0  0  0  0  0  0
  -31.9682  -18.8521   21.4732 C   0  0  0  0  0  0  0  0  0  0  0  0
  -23.7887  -10.4859   21.0875 C   0  0  0  0  0  0  0  0  0  0  0  0
  -24.0849  -12.9858   20.6749 C   0  0  0  0  0  0  0  0  0  0  0  0
  -23.5537  -24.6649   21.7353 C   0  0  0  0  0  0  0  0  0  0  0  0
  -29.7656  -25.5272   23.9357 C   0  0  0  0  0  0  0  0  0  0  0  0
  -24.9335  -24.3917   21.6723 C   0  0  0  0  0  0  0  0  0  0  0  0
  -30.8633  -25.6193   23.0682 C   0  0  0  0  0  0  0  0  0  0  0  0
  -29.8947  -19.3524   22.5252 C   0  0  0  0  0  0  0  0  0  0  0  0
  -31.1678  -19.7620   22.1449 C   0  0  0  0  0  0  0  0  0  0  0  0
  -22.3242   -8.2190   21.7940 C   0  0  0  0  0  0  0  0  0  0  0  0
  -31.7816  -23.5862   24.0342 C   0  0  0  0  0  0  0  0  0  0  0  0
  -22.2030   -6.2069   23.0018 C   0  0  0  0  0  0  0  0  0  0  0  0
  -23.3998   -4.3793   24.7369 C   0  0  0  0  0  0  0  0  0  0  0  0
  -21.6071   -5.9174   24.2293 C   0  0  0  0  0  0  0  0  0  0  0  0
  -24.5457  -11.6565   20.7231 C   0  0  0  0  0  0  0  0  0  0  0  0
  -30.3434  -17.2297   21.5509 C   0  0  0  0  0  0  0  0  0  0  0  0
  -25.1788  -13.7141   20.2758 C   0  0  0  0  0  0  0  0  0  0  0  0
  -22.7843  -13.5150   20.9650 C   0  0  0  0  0  0  0  0  0  0  0  0
  -27.9636  -26.4995   21.5044 C   0  0  0  0  0  0  0  0  0  0  0  0
  -30.0338  -28.9966   21.4763 C   0  0  0  0  0  0  0  0  0  0  0  0
  -33.1279  -30.2039   22.2614 C   0  0  0  0  0  0  0  0  0  0  0  0
  -30.6064  -14.9175   20.5862 C   0  0  0  0  0  0  0  0  0  0  0  0
  -22.9350  -25.8057   20.9667 C   0  0  0  0  0  0  0  0  0  0  0  0
  -28.6898  -26.5783   23.9174 C   0  0  0  0  0  0  0  0  0  0  0  0
  -30.9945  -26.7410   22.0716 C   0  0  0  0  0  0  0  0  0  0  0  0
  -23.9484  -26.8502   20.5061 C   0  0  0  0  0  0  0  0  0  0  0  0
  -29.6647  -12.2048   18.4811 C   0  0  0  0  0  0  0  0  0  0  0  0
  -25.1642  -26.1747   19.8797 C   0  0  0  0  0  0  0  0  0  0  0  0
  -28.2110  -11.9297   18.8727 C   0  0  0  0  0  0  0  0  0  0  0  0
  -30.5119  -12.6023   19.6886 C   0  0  0  0  0  0  0  0  0  0  0  0
  -28.5220  -13.4387   20.8760 C   0  0  0  0  0  0  0  0  0  0  0  0
  -25.8824  -25.2790   20.8963 C   0  0  1  0  0  0  0  0  0  0  0  0
  -28.6030  -27.3212   22.5877 C   0  0  1  0  0  0  0  0  0  0  0  0
  -27.6148  -13.0977   19.6825 C   0  0  2  0  0  0  0  0  0  0  0  0
  -28.9743  -20.2763   23.2516 C   0  0  0  0  0  0  0  0  0  0  0  0
  -32.6019  -21.6664   21.3210 C   0  0  0  0  0  0  0  0  0  0  0  0
  -34.5406  -32.2700   22.0797 C   0  0  0  0  0  0  0  0  0  0  0  0
  -33.5833  -20.3800   23.9987 C   0  0  0  0  0  0  0  0  0  0  0  0
  -30.5013  -28.4139   18.5180 C   0  0  0  0  0  0  0  0  0  0  0  0
  -32.5585  -29.8361   18.6345 C   0  0  0  0  0  0  0  0  0  0  0  0
  -30.3213  -30.8425   19.0871 C   0  0  0  0  0  0  0  0  0  0  0  0
  -33.3737  -30.4348   25.2016 C   0  0  0  0  0  0  0  0  0  0  0  0
  -31.6872  -21.1605   22.4462 C   0  0  2  0  0  0  0  0  0  0  0  0
  -31.3492  -29.2873   20.7949 C   0  0  1  0  0  0  0  0  0  0  0  0
  -33.5648  -31.4872   22.9445 C   0  0  2  0  0  0  0  0  0  0  0  0
  -32.3722  -21.2917   23.8282 C   0  0  2  0  0  0  0  0  0  1  0  0
  -31.1794  -29.5726   19.2760 C   0  0  0  0  0  0  0  0  0  0  0  0
  -31.5875  -17.5920   21.1653 N   0  0  0  0  0  0  0  0  0  0  0  0
  -25.8321  -11.5439   20.3817 N   0  0  0  0  0  0  0  0  0  0  0  0
  -26.1889  -12.8119   20.1151 N   0  0  0  0  0  0  0  0  0  0  0  0
  -29.9139  -27.7407   22.0880 N   0  0  0  0  0  0  0  0  0  0  0  0
  -29.8877  -13.7170   20.4044 N   0  0  0  0  0  0  0  0  0  0  0  0
  -25.3656  -15.0319   20.0501 N   0  0  0  0  0  0  0  0  0  0  0  0
  -21.7750  -12.6271   21.3618 N   0  0  0  0  0  0  0  0  0  0  0  0
  -29.8991  -15.9178   21.2524 N   0  0  0  0  0  0  0  0  0  0  0  0
  -26.6808  -26.0794   21.7998 N   0  0  0  0  0  0  0  0  0  0  0  0
  -31.9640  -30.3786   21.5428 N   0  0  0  0  0  0  0  0  0  0  0  0
  -34.2283  -31.1824   24.2437 N   0  3  0  0  0  0  0  0  0  0  0  0
  -22.5205  -14.7367   20.8592 O   0  0  0  0  0  0  0  0  0  0  0  0
  -28.5874  -26.2652   20.4760 O   0  0  0  0  0  0  0  0  0  0  0  0
  -29.1481  -29.8551   21.4724 O   0  0  0  0  0  0  0  0  0  0  0  0
  -33.7581  -29.1527   22.3527 O   0  0  0  0  0  0  0  0  0  0  0  0
  -31.7544  -15.0579   20.1569 O   0  0  0  0  0  0  0  0  0  0  0  0
  -21.6097   -7.1132   22.1391 O   0  0  0  0  0  0  0  0  0  0  0  0
  -32.7609  -22.6422   24.0761 O   0  0  0  0  0  0  0  0  0  1  0  0
  -23.9737   -3.5007   25.5692 F   0  0  0  0  0  0  0  0  0  0  0  0
  -20.4591   -6.5132   24.5802 F   0  0  0  0  0  0  0  0  0  0  0  0
  1  2  1  0  0  0  0
  1  5  2  0  0  0  0
  2  6  2  0  0  0  0
  3  8  2  0  0  0  0
  3 17  1  0  0  0  0
  4  9  1  0  0  0  0
  4 17  2  0  0  0  0
  5 19  1  0  0  0  0
  6 21  1  0  0  0  0
  7 10  2  0  0  0  0
  7 20  1  0  0  0  0
  8 25  1  0  0  0  0
  9 25  2  0  0  0  0
 10 26  1  0  0  0  0
 11 12  2  0  0  0  0
 11 27  1  0  0  0  0
 12 28  1  0  0  0  0
 13 22  1  0  0  0  0
 13 26  2  0  0  0  0
 14 23  1  0  0  0  0
 14 31  2  0  0  0  0
 15 28  2  0  0  0  0
 15 29  1  0  0  0  0
 16 24  1  0  0  0  0
 16 63  2  0  0  0  0
 17 30  1  0  0  0  0
 18 30  1  0  0  0  0
 18 32  2  0  0  0  0
 18 33  1  0  0  0  0
 19 21  2  0  0  0  0
 19 38  1  0  0  0  0
 20 22  2  0  0  0  0
 20 39  1  0  0  0  0
 21 47  1  0  0  0  0
 22 40  1  0  0  0  0
 23 24  2  0  0  0  0
 23 50  1  0  0  0  0
 24 58  1  0  0  0  0
 25 79  1  0  0  0  0
 26 80  1  0  0  0  0
 27 29  2  0  0  0  0
 27 79  1  0  0  0  0
 28 81  1  0  0  0  0
 29 82  1  0  0  0  0
 30 64  2  0  0  0  0
 31 63  1  0  0  0  0
 31 70  1  0  0  0  0
 32 65  1  0  0  0  0
 32 68  1  0  0  0  0
 33 69  1  0  0  0  0
 33 74  2  0  0  0  0
 34 48  1  0  0  0  0
 34 71  1  0  0  0  0
 34 75  2  0  0  0  0
 35 59  1  0  0  0  0
 35 66  1  0  0  0  0
 35 76  2  0  0  0  0
 36 60  1  0  0  0  0
 36 72  1  0  0  0  0
 36 77  2  0  0  0  0
 37 67  1  0  0  0  0
 37 70  1  0  0  0  0
 37 78  2  0  0  0  0
 38 41  1  0  0  0  0
 39 48  1  0  0  0  0
 40 66  1  0  0  0  0
 41 43  1  0  0  0  0
 42 44  1  0  0  0  0
 42 45  1  0  0  0  0
 43 47  1  0  0  0  0
 44 49  1  0  0  0  0
 45 67  1  0  0  0  0
 46 49  1  0  0  0  0
 46 67  1  0  0  0  0
 47 71  1  0  0  0  0
 48 66  1  0  0  0  0
 49 65  1  0  0  0  0
 51 58  1  0  0  0  0
 52 60  1  0  0  0  0
 53 61  1  0  0  0  0
 54 62  1  0  0  0  0
 55 62  1  0  0  0  0
 56 62  1  0  0  0  0
 57 73  1  0  0  0  0
 58 61  1  0  0  0  0
 59 62  1  0  0  0  0
 59 72  1  0  0  0  0
 60 73  1  0  0  0  0
 61 80  1  0  0  0  0
 64 65  1  0  0  0  0
M  CHG  1  73   1
M  ISO  4  37 100  61 101  70 100  80 101
M  END
> <Batch ID>
0102

> <Smiles>
CNC(C)C(=O)NC(C(=O)N1Cc2cc([101O:1][101CH:1](C)C(C)c3cnc([100NH:0][100C:0](=O)N4CCCC(n5nc(-c6ccc(Oc7ccc(F)cc7F)cc6)c(C(N)=O)c5N)C4)cc3C)ccc2CC1C(=O)NC1CCCc2ccccc21)C(C)(C)C

> <Shape>
0.208

> <Color>
0.200

> <Negative vol penalty>
0.000

$$$$

  -OEChem-04052319383D

 86 94  0     1  0  0  0  0  0999 V2000
  -25.2645  -32.4730   28.9115 C   0  0  0  0  0  0  0  0  0  0  0  0
  -26.0299  -31.7300   28.0185 C   0  0  0  0  0  0  0  0  0  0  0  0
  -26.2883  -11.6635   21.1938 C   0  0  0  0  0  0  0  0  0  0  0  0
  -25.9613  -12.4355   18.9279 C   0  0  0  0  0  0  0  0  0  0  0  0
  -23.8738  -32.4622   28.8126 C   0  0  0  0  0  0  0  0  0  0  0  0
  -25.4050  -30.9749   27.0267 C   0  0  0  0  0  0  0  0  0  0  0  0
  -27.4607  -29.9262   21.3539 C   0  0  0  0  0  0  0  0  0  0  0  0
  -24.9611  -11.2369   21.2400 C   0  0  0  0  0  0  0  0  0  0  0  0
  -24.6340  -12.0088   18.9741 C   0  0  0  0  0  0  0  0  0  0  0  0
  -28.1349  -28.8465   20.7852 C   0  0  0  0  0  0  0  0  0  0  0  0
  -23.1497   -8.6073   20.1279 C   0  0  0  0  0  0  0  0  0  0  0  0
  -22.8925   -7.3459   20.6648 C   0  0  0  0  0  0  0  0  0  0  0  0
  -26.0357  -27.9608   19.9927 C   0  0  0  0  0  0  0  0  0  0  0  0
  -28.4062  -21.0762   17.8650 C   0  0  0  0  0  0  0  0  0  0  0  0
  -21.5026   -8.3530   22.3651 C   0  0  0  0  0  0  0  0  0  0  0  0
  -30.3822  -22.1547   17.9109 C   0  0  0  0  0  0  0  0  0  0  0  0
  -26.7884  -12.2628   20.0377 C   0  0  0  0  0  0  0  0  0  0  0  0
  -29.2783  -11.9583   19.5736 C   0  0  0  0  0  0  0  0  0  0  0  0
  -23.2319  -31.7142   27.8130 C   0  0  0  0  0  0  0  0  0  0  0  0
  -26.0654  -30.0258   21.2555 C   0  0  0  0  0  0  0  0  0  0  0  0
  -24.0044  -30.9530   26.9152 C   0  0  0  0  0  0  0  0  0  0  0  0
  -25.3464  -29.0440   20.5588 C   0  0  0  0  0  0  0  0  0  0  0  0
  -29.8061  -20.9191   17.7140 C   0  0  0  0  0  0  0  0  0  0  0  0
  -24.1340  -11.4096   20.1302 C   0  0  0  0  0  0  0  0  0  0  0  0
  -27.4222  -27.8621   20.1070 C   0  0  0  0  0  0  0  0  0  0  0  0
  -22.5833   -9.7416   20.7096 C   0  0  0  0  0  0  0  0  0  0  0  0
  -22.0690   -7.2187   21.7834 C   0  0  0  0  0  0  0  0  0  0  0  0
  -21.7598   -9.6144   21.8282 C   0  0  0  0  0  0  0  0  0  0  0  0
  -28.1591  -12.7042   19.9895 C   0  0  0  0  0  0  0  0  0  0  0  0
  -28.1695  -22.4030   18.1493 C   0  0  0  0  0  0  0  0  0  0  0  0
  -30.3375  -12.8214   19.7139 C   0  0  0  0  0  0  0  0  0  0  0  0
  -29.3536  -10.6062   19.1026 C   0  0  0  0  0  0  0  0  0  0  0  0
  -23.6675  -30.0767   23.3414 C   0  0  0  0  0  0  0  0  0  0  0  0
  -21.8924  -30.6810   20.6945 C   0  0  0  0  0  0  0  0  0  0  0  0
  -21.5706  -30.4426   17.3054 C   0  0  0  0  0  0  0  0  0  0  0  0
  -30.7579  -18.7942   19.7154 C   0  0  0  0  0  0  0  0  0  0  0  0
  -21.7243  -31.6962   27.7752 C   0  0  0  0  0  0  0  0  0  0  0  0
  -25.3557  -31.2105   21.8514 C   0  0  0  0  0  0  0  0  0  0  0  0
  -23.8496  -29.1150   20.4074 C   0  0  0  0  0  0  0  0  0  0  0  0
  -21.1542  -31.1670   26.4617 C   0  0  0  0  0  0  0  0  0  0  0  0
  -31.7924  -16.5746   22.2999 C   0  0  0  0  0  0  0  0  0  0  0  0
  -21.8707  -29.8860   26.0465 C   0  0  0  0  0  0  0  0  0  0  0  0
  -31.0796  -15.2636   21.9633 C   0  0  0  0  0  0  0  0  0  0  0  0
  -30.9255  -17.7885   21.9730 C   0  0  0  0  0  0  0  0  0  0  0  0
  -29.6986  -16.5174   20.2546 C   0  0  0  0  0  0  0  0  0  0  0  0
  -23.3642  -30.1410   25.8102 C   0  0  1  0  0  0  0  0  0  0  0  0
  -23.8803  -30.9437   22.1329 C   0  0  1  0  0  0  0  0  0  0  0  0
  -30.5551  -15.2664   20.5148 C   0  0  2  0  0  0  0  0  0  0  0  0
  -26.1500  -22.5804   19.6473 C   0  0  0  0  0  0  0  0  0  0  0  0
  -25.9390  -23.0711   17.1836 C   0  0  0  0  0  0  0  0  0  0  0  0
  -19.9930  -30.9926   15.4329 C   0  0  0  0  0  0  0  0  0  0  0  0
  -30.8382  -24.4506   20.6228 C   0  0  0  0  0  0  0  0  0  0  0  0
  -32.0750  -19.7612   17.2897 C   0  0  0  0  0  0  0  0  0  0  0  0
  -30.0313  -19.0644   16.0468 C   0  0  0  0  0  0  0  0  0  0  0  0
  -20.1259  -28.3252   21.4941 C   0  0  0  0  0  0  0  0  0  0  0  0
  -19.1924  -28.3266   19.1710 C   0  0  0  0  0  0  0  0  0  0  0  0
  -18.8817  -30.3191   20.6394 C   0  0  0  0  0  0  0  0  0  0  0  0
  -23.5494  -32.2179   16.0048 C   0  0  0  0  0  0  0  0  0  0  0  0
  -29.5897  -24.5180   18.4489 C   0  0  0  0  0  0  0  0  0  0  0  0
  -29.2828  -26.3831   20.1876 C   0  0  0  0  0  0  0  0  0  1  0  0
  -26.8941  -23.1062   18.3986 C   0  0  0  0  0  0  0  0  0  0  0  0
  -21.1684  -29.8336   19.6764 C   0  0  1  0  0  0  0  0  0  0  0  0
  -21.1802  -31.4677   16.2560 C   0  0  2  0  0  0  0  0  0  0  0  0
  -29.5328  -24.8865   19.9471 C   0  0  2  0  0  0  0  0  0  0  0  0
  -30.5171  -19.6643   17.4037 C   0  0  0  0  0  0  0  0  0  0  0  0
  -19.8701  -29.1985   20.2495 C   0  0  0  0  0  0  0  0  0  0  0  0
  -28.4777  -13.9455   20.3659 N   0  0  0  0  0  0  0  0  0  0  0  0
  -29.3778  -23.0491   18.1745 N   0  0  0  0  0  0  0  0  0  0  0  0
  -29.8091  -13.9862   20.1871 N   0  0  0  0  0  0  0  0  0  0  0  0
  -23.2005  -30.2895   21.0130 N   0  0  0  0  0  0  0  0  0  0  0  0
  -30.4620  -17.7312   20.5846 N   0  0  0  0  0  0  0  0  0  0  0  0
  -31.6601  -12.6898   19.4774 N   0  0  0  0  0  0  0  0  0  0  0  0
  -28.1698   -9.8605   19.0202 N   0  0  0  0  0  0  0  0  0  0  0  0
  -23.5714  -30.7788   24.5277 N   0  0  0  0  0  0  0  0  0  0  0  0
  -20.9528  -30.6877   18.5135 N   0  0  0  0  0  0  0  0  0  0  0  0
  -30.2870  -18.6571   18.4153 N   0  0  0  0  0  0  0  0  0  0  0  0
  -22.3210  -31.7230   15.3317 N   0  3  0  0  0  0  0  0  0  0  0  0
  -30.4408  -10.0699   18.7803 O   0  0  0  0  0  0  0  0  0  0  0  0
  -23.5944  -28.8608   23.2074 O   0  0  0  0  0  0  0  0  0  0  0  0
  -21.3210  -31.6587   21.1837 O   0  0  0  0  0  0  0  0  0  0  0  0
  -22.3431  -29.5148   17.0752 O   0  0  0  0  0  0  0  0  0  0  0  0
  -31.3992  -19.7891   20.0702 O   0  0  0  0  0  0  0  0  0  0  0  0
  -22.8389  -10.9932   20.1749 O   0  0  0  0  0  0  0  0  0  0  0  0
  -28.0778  -26.8068   19.5515 O   0  0  0  0  0  0  0  0  0  1  0  0
  -21.8209   -6.0072   22.2980 F   0  0  0  0  0  0  0  0  0  0  0  0
  -21.2119  -10.7003   22.3907 F   0  0  0  0  0  0  0  0  0  0  0  0
  1  2  1  0  0  0  0
  1  5  2  0  0  0  0
  2  6  2  0  0  0  0
  3  8  2  0  0  0  0
  3 17  1  0  0  0  0
  4  9  1  0  0  0  0
  4 17  2  0  0  0  0
  5 19  1  0  0  0  0
  6 21  1  0  0  0  0
  7 10  2  0  0  0  0
  7 20  1  0  0  0  0
  8 24  1  0  0  0  0
  9 24  2  0  0  0  0
 10 25  1  0  0  0  0
 11 12  2  0  0  0  0
 11 26  1  0  0  0  0
 12 27  1  0  0  0  0
 13 22  1  0  0  0  0
 13 25  2  0  0  0  0
 14 23  1  0  0  0  0
 14 30  2  0  0  0  0
 15 27  2  0  0  0  0
 15 28  1  0  0  0  0
 16 23  2  0  0  0  0
 16 68  1  0  0  0  0
 17 29  1  0  0  0  0
 18 29  1  0  0  0  0
 18 31  2  0  0  0  0
 18 32  1  0  0  0  0
 19 21  2  0  0  0  0
 19 37  1  0  0  0  0
 20 22  2  0  0  0  0
 20 38  1  0  0  0  0
 21 46  1  0  0  0  0
 22 39  1  0  0  0  0
 23 65  1  0  0  0  0
 24 83  1  0  0  0  0
 25 84  1  0  0  0  0
 26 28  2  0  0  0  0
 26 83  1  0  0  0  0
 27 85  1  0  0  0  0
 28 86  1  0  0  0  0
 29 67  2  0  0  0  0
 30 61  1  0  0  0  0
 30 68  1  0  0  0  0
 31 69  1  0  0  0  0
 31 72  1  0  0  0  0
 32 73  1  0  0  0  0
 32 78  2  0  0  0  0
 33 47  1  0  0  0  0
 33 74  1  0  0  0  0
 33 79  2  0  0  0  0
 34 62  1  0  0  0  0
 34 70  1  0  0  0  0
 34 80  2  0  0  0  0
 35 63  1  0  0  0  0
 35 75  1  0  0  0  0
 35 81  2  0  0  0  0
 36 71  1  0  0  0  0
 36 76  1  0  0  0  0
 36 82  2  0  0  0  0
 37 40  1  0  0  0  0
 38 47  1  0  0  0  0
 39 70  1  0  0  0  0
 40 42  1  0  0  0  0
 41 43  1  0  0  0  0
 41 44  1  0  0  0  0
 42 46  1  0  0  0  0
 43 48  1  0  0  0  0
 44 71  1  0  0  0  0
 45 48  1  0  0  0  0
 45 71  1  0  0  0  0
 46 74  1  0  0  0  0
 47 70  1  0  0  0  0
 48 69  1  0  0  0  0
 49 61  1  0  0  0  0
 50 61  1  0  0  0  0
 51 63  1  0  0  0  0
 52 64  1  0  0  0  0
 53 65  1  0  0  0  0
 54 65  1  0  0  0  0
 55 66  1  0  0  0  0
 56 66  1  0  0  0  0
 57 66  1  0  0  0  0
 58 77  1  0  0  0  0
 59 64  1  0  0  0  0
 59 68  1  0  0  0  0
 60 64  1  0  0  0  0
 60 84  1  0  0  0  0
 62 66  1  0  0  0  0
 62 75  1  0  0  0  0
 63 77  1  0  0  0  0
 65 76  1  0  0  0  0
 67 69  1  0  0  0  0
M  CHG  1  77   1
M  ISO  4  36 100  60 101  76 100  84 101
M  END
> <Batch ID>
0102

> <Smiles>
CNC(C)C(=O)NC(C(=O)N1Cc2cc([101O:1][101CH2:1]C(C)Cn3cc(C(C)(C)[100NH:0][100C:0](=O)N4CCCC(n5nc(-c6ccc(Oc7ccc(F)cc7F)cc6)c(C(N)=O)c5N)C4)cc3C(C)C)ccc2CC1C(=O)NC1CCCc2ccccc21)C(C)(C)C

> <Shape>
0.289

> <Color>
0.083

> <Negative vol penalty>
0.000

$$$$

  -OEChem-04052319383D

 83 91  0     1  0  0  0  0  0999 V2000
  -37.9232  -22.0983   34.6290 C   0  0  0  0  0  0  0  0  0  0  0  0
  -37.7592  -21.1927   33.5857 C   0  0  0  0  0  0  0  0  0  0  0  0
  -22.6598  -10.2016   20.1750 C   0  0  0  0  0  0  0  0  0  0  0  0
  -24.3388   -9.4097   21.7212 C   0  0  0  0  0  0  0  0  0  0  0  0
  -37.5536  -23.4317   34.4578 C   0  0  0  0  0  0  0  0  0  0  0  0
  -37.2244  -21.6199   32.3708 C   0  0  0  0  0  0  0  0  0  0  0  0
  -39.7869  -19.8338   28.3849 C   0  0  0  0  0  0  0  0  0  0  0  0
  -21.9304   -9.0282   20.3660 C   0  0  0  0  0  0  0  0  0  0  0  0
  -23.6094   -8.2363   21.9123 C   0  0  0  0  0  0  0  0  0  0  0  0
  -39.5491  -18.5105   28.0160 C   0  0  0  0  0  0  0  0  0  0  0  0
  -20.8915   -7.2520   23.6630 C   0  0  0  0  0  0  0  0  0  0  0  0
  -20.7286   -6.7978   24.9717 C   0  0  0  0  0  0  0  0  0  0  0  0
  -38.0780  -19.2702   26.2617 C   0  0  0  0  0  0  0  0  0  0  0  0
  -21.8466   -4.7351   24.3950 C   0  0  0  0  0  0  0  0  0  0  0  0
  -23.8641  -10.3924   20.8525 C   0  0  0  0  0  0  0  0  0  0  0  0
  -24.1941  -12.9212   20.9141 C   0  0  0  0  0  0  0  0  0  0  0  0
  -37.0230  -23.8775   33.2370 C   0  0  0  0  0  0  0  0  0  0  0  0
  -39.1625  -20.8866   27.7007 C   0  0  0  0  0  0  0  0  0  0  0  0
  -36.8461  -22.9603   32.1835 C   0  0  0  0  0  0  0  0  0  0  0  0
  -38.3116  -20.6061   26.6222 C   0  0  0  0  0  0  0  0  0  0  0  0
  -22.4051   -8.0455   21.2347 C   0  0  0  0  0  0  0  0  0  0  0  0
  -38.6923  -18.2284   26.9562 C   0  0  0  0  0  0  0  0  0  0  0  0
  -21.5319   -6.4477   22.7202 C   0  0  0  0  0  0  0  0  0  0  0  0
  -21.2062   -5.5394   25.3378 C   0  0  0  0  0  0  0  0  0  0  0  0
  -22.0095   -5.1893   23.0863 C   0  0  0  0  0  0  0  0  0  0  0  0
  -24.6183  -11.6041   20.6552 C   0  0  0  0  0  0  0  0  0  0  0  0
  -25.2677  -13.7029   20.5635 C   0  0  0  0  0  0  0  0  0  0  0  0
  -22.9416  -13.3957   21.4258 C   0  0  0  0  0  0  0  0  0  0  0  0
  -37.1236  -23.1883   28.5061 C   0  0  0  0  0  0  0  0  0  0  0  0
  -30.7770  -14.6628   20.6857 C   0  0  0  0  0  0  0  0  0  0  0  0
  -37.6682  -24.1964   25.4713 C   0  0  0  0  0  0  0  0  0  0  0  0
  -38.6331  -23.4225   22.2906 C   0  0  0  0  0  0  0  0  0  0  0  0
  -36.5941  -25.3183   33.1148 C   0  0  0  0  0  0  0  0  0  0  0  0
  -39.4504  -22.3096   28.0938 C   0  0  0  0  0  0  0  0  0  0  0  0
  -37.6324  -21.7011   25.8423 C   0  0  0  0  0  0  0  0  0  0  0  0
  -36.3834  -25.7708   31.6722 C   0  0  0  0  0  0  0  0  0  0  0  0
  -29.5115  -12.5590   18.0756 C   0  0  0  0  0  0  0  0  0  0  0  0
  -35.5644  -24.7390   30.9032 C   0  0  0  0  0  0  0  0  0  0  0  0
  -28.1021  -12.2069   18.5500 C   0  0  0  0  0  0  0  0  0  0  0  0
  -35.7701  -14.7449   25.1454 C   0  0  0  0  0  0  0  0  0  0  0  0
  -34.7050  -16.5926   26.5139 C   0  0  0  0  0  0  0  0  0  0  0  0
  -37.1460  -15.1620   25.6591 C   0  0  0  0  0  0  0  0  0  0  0  0
  -36.0836  -17.0057   27.0238 C   0  0  0  0  0  0  0  0  0  0  0  0
  -30.4824  -12.6737   19.2466 C   0  0  0  0  0  0  0  0  0  0  0  0
  -28.6394  -13.2868   20.7793 C   0  0  0  0  0  0  0  0  0  0  0  0
  -36.2925  -23.3908   30.8425 C   0  0  1  0  0  0  0  0  0  0  0  0
  -38.3596  -23.2825   27.6568 C   0  0  1  0  0  0  0  0  0  0  0  0
  -27.6203  -13.1915   19.6301 C   0  0  2  0  0  0  0  0  0  0  0  0
  -34.6817  -15.1087   26.1533 C   0  0  0  0  0  0  0  0  0  0  0  0
  -37.1855  -16.6445   26.0273 C   0  0  0  0  0  0  0  0  0  1  0  0
  -29.3932  -16.6639   21.0135 C   0  0  0  0  0  0  0  0  0  0  0  0
  -38.9406  -24.4477   20.0209 C   0  0  0  0  0  0  0  0  0  0  0  0
  -34.6455  -24.1770   25.0557 C   0  0  0  0  0  0  0  0  0  0  0  0
  -35.0544  -24.2701   22.5874 C   0  0  0  0  0  0  0  0  0  0  0  0
  -35.8245  -26.1393   24.0488 C   0  0  0  0  0  0  0  0  0  0  0  0
  -41.5242  -22.7902   22.2690 C   0  0  0  0  0  0  0  0  0  0  0  0
  -32.2989  -14.5598   26.6244 C   0  0  0  0  0  0  0  0  0  0  0  0
  -31.7909  -15.2115   23.6769 C   0  0  0  0  0  0  0  0  0  0  0  0
  -31.2932  -16.1870   22.6015 C   0  0  0  0  0  0  0  0  0  0  0  0
  -32.9061  -15.7848   24.5432 C   0  0  0  0  0  0  0  0  0  0  0  0
  -30.1879  -15.5772   21.7301 C   0  0  2  0  0  0  0  0  0  0  0  0
  -37.0407  -23.9242   24.1256 C   0  0  1  0  0  0  0  0  0  0  0  0
  -39.6077  -24.0962   21.3416 C   0  0  2  0  0  0  0  0  0  0  0  0
  -35.6524  -24.6067   23.9701 C   0  0  0  0  0  0  0  0  0  0  0  0
  -25.8642  -11.5483   20.1769 N   0  0  0  0  0  0  0  0  0  0  0  0
  -26.2320  -12.8402   20.1324 N   0  0  0  0  0  0  0  0  0  0  0  0
  -37.9408  -23.0760   26.2690 N   0  0  0  0  0  0  0  0  0  0  0  0
  -29.9782  -13.6009   20.2611 N   0  0  0  0  0  0  0  0  0  0  0  0
  -25.4714  -15.0373   20.5850 N   0  0  0  0  0  0  0  0  0  0  0  0
  -22.7951  -13.5317   22.8130 N   0  0  0  0  0  0  0  0  0  0  0  0
  -37.3440  -23.4285   29.8489 N   0  0  0  0  0  0  0  0  0  0  0  0
  -38.0227  -24.3330   23.1271 N   0  0  0  0  0  0  0  0  0  0  0  0
  -40.7622  -23.1969   21.0602 N   0  3  0  0  0  0  0  0  0  0  0  0
  -33.3549  -14.7760   25.5701 N   0  3  1  0  0  0  0  0  0  0  0  0
  -21.9753  -13.6746   20.6761 O   0  0  0  0  0  0  0  0  0  0  0  0
  -36.0493  -22.9192   27.9816 O   0  0  0  0  0  0  0  0  0  0  0  0
  -31.9124  -14.8889   20.2589 O   0  0  0  0  0  0  0  0  0  0  0  0
  -37.9143  -25.3597   25.7997 O   0  0  0  0  0  0  0  0  0  0  0  0
  -38.4305  -22.2102   22.2875 O   0  0  0  0  0  0  0  0  0  0  0  0
  -21.6935   -6.9004   21.4215 O   0  0  0  0  0  0  0  0  0  0  0  0
  -38.4579  -16.9376   26.5945 O   0  0  0  0  0  0  0  0  0  1  0  0
  -21.0511   -5.1040   26.5950 F   0  0  0  0  0  0  0  0  0  0  0  0
  -22.6265   -4.4127   22.1852 F   0  0  0  0  0  0  0  0  0  0  0  0
  1  2  1  0  0  0  0
  1  5  2  0  0  0  0
  2  6  2  0  0  0  0
  3  8  2  0  0  0  0
  3 15  1  0  0  0  0
  4  9  1  0  0  0  0
  4 15  2  0  0  0  0
  5 17  1  0  0  0  0
  6 19  1  0  0  0  0
  7 10  2  0  0  0  0
  7 18  1  0  0  0  0
  8 21  1  0  0  0  0
  9 21  2  0  0  0  0
 10 22  1  0  0  0  0
 11 12  2  0  0  0  0
 11 23  1  0  0  0  0
 12 24  1  0  0  0  0
 13 20  1  0  0  0  0
 13 22  2  0  0  0  0
 14 24  2  0  0  0  0
 14 25  1  0  0  0  0
 15 26  1  0  0  0  0
 16 26  1  0  0  0  0
 16 27  2  0  0  0  0
 16 28  1  0  0  0  0
 17 19  2  0  0  0  0
 17 33  1  0  0  0  0
 18 20  2  0  0  0  0
 18 34  1  0  0  0  0
 19 46  1  0  0  0  0
 20 35  1  0  0  0  0
 21 80  1  0  0  0  0
 22 81  1  0  0  0  0
 23 25  2  0  0  0  0
 23 80  1  0  0  0  0
 24 82  1  0  0  0  0
 25 83  1  0  0  0  0
 26 65  2  0  0  0  0
 27 66  1  0  0  0  0
 27 69  1  0  0  0  0
 28 70  1  0  0  0  0
 28 75  2  0  0  0  0
 29 47  1  0  0  0  0
 29 71  1  0  0  0  0
 29 76  2  0  0  0  0
 30 61  1  0  0  0  0
 30 68  1  0  0  0  0
 30 77  2  0  0  0  0
 31 62  1  0  0  0  0
 31 67  1  0  0  0  0
 31 78  2  0  0  0  0
 32 63  1  0  0  0  0
 32 72  1  0  0  0  0
 32 79  2  0  0  0  0
 33 36  1  0  0  0  0
 34 47  1  0  0  0  0
 35 67  1  0  0  0  0
 36 38  1  0  0  0  0
 37 39  1  0  0  0  0
 37 44  1  0  0  0  0
 38 46  1  0  0  0  0
 39 48  1  0  0  0  0
 40 42  1  0  0  0  0
 40 49  1  0  0  0  0
 41 43  1  0  0  0  0
 41 49  1  0  0  0  0
 42 50  1  0  0  0  0
 43 50  1  0  0  0  0
 44 68  1  0  0  0  0
 45 48  1  0  0  0  0
 45 68  1  0  0  0  0
 46 71  1  0  0  0  0
 47 67  1  0  0  0  0
 48 66  1  0  0  0  0
 49 74  1  0  0  0  0
 50 81  1  0  0  0  0
 51 61  1  0  0  0  0
 52 63  1  0  0  0  0
 53 64  1  0  0  0  0
 54 64  1  0  0  0  0
 55 64  1  0  0  0  0
 56 73  1  0  0  0  0
 57 74  1  0  0  0  0
 58 59  1  0  0  0  0
 58 60  1  0  0  0  0
 59 61  1  0  0  0  0
 60 74  1  0  0  0  0
 62 64  1  0  0  0  0
 62 72  1  0  0  0  0
 63 73  1  0  0  0  0
 65 66  1  0  0  0  0
M  CHG  2  73   1  74   1
M  ISO  4  30 100  50 101  61 100  81 101
M  END
> <Batch ID>
0102

> <Smiles>
CNC(C)C(=O)NC(C(=O)N1Cc2cc([101O:1][101CH:1]3CCC(N(C)CCC[100CH:0](C)[100C:0](=O)N4CCCC(n5nc(-c6ccc(Oc7ccc(F)cc7F)cc6)c(C(N)=O)c5N)C4)CC3)ccc2CC1C(=O)NC1CCCc2ccccc21)C(C)(C)C

> <Shape>
0.181

> <Color>
0.178

> <Negative vol penalty>
0.000

$$$$

  -OEChem-04052319383D

 89 97  0     1  0  0  0  0  0999 V2000
  -27.2478  -10.2763   14.7221 C   0  0  0  0  0  0  0  0  0  0  0  0
  -26.3686  -11.3012   15.0571 C   0  0  0  0  0  0  0  0  0  0  0  0
  -24.8229  -31.0601   21.0309 C   0  0  0  0  0  0  0  0  0  0  0  0
  -24.6420  -29.6507   22.9849 C   0  0  0  0  0  0  0  0  0  0  0  0
  -28.3527  -10.0150   15.5312 C   0  0  0  0  0  0  0  0  0  0  0  0
  -26.5933  -12.0645   16.2022 C   0  0  0  0  0  0  0  0  0  0  0  0
  -25.9701  -17.0232   15.3845 C   0  0  0  0  0  0  0  0  0  0  0  0
  -24.1450  -32.0777   21.7022 C   0  0  0  0  0  0  0  0  0  0  0  0
  -23.9642  -30.6683   23.6562 C   0  0  0  0  0  0  0  0  0  0  0  0
  -24.6611  -17.5003   15.3320 C   0  0  0  0  0  0  0  0  0  0  0  0
  -22.7799  -35.1766   23.0244 C   0  0  0  0  0  0  0  0  0  0  0  0
  -23.2896  -36.4710   22.9242 C   0  0  0  0  0  0  0  0  0  0  0  0
  -24.8594  -18.2767   17.6074 C   0  0  0  0  0  0  0  0  0  0  0  0
  -25.3632  -35.7315   23.9195 C   0  0  0  0  0  0  0  0  0  0  0  0
  -25.0713  -29.8465   21.6722 C   0  0  0  0  0  0  0  0  0  0  0  0
  -27.1610  -28.5745   20.9493 C   0  0  0  0  0  0  0  0  0  0  0  0
  -28.5965  -10.7818   16.6815 C   0  0  0  0  0  0  0  0  0  0  0  0
  -26.7312  -17.1597   16.5543 C   0  0  0  0  0  0  0  0  0  0  0  0
  -27.7019  -11.8123   17.0282 C   0  0  0  0  0  0  0  0  0  0  0  0
  -26.1787  -17.8027   17.6712 C   0  0  0  0  0  0  0  0  0  0  0  0
  -23.7157  -31.8818   23.0148 C   0  0  0  0  0  0  0  0  0  0  0  0
  -24.1046  -18.1245   16.4445 C   0  0  0  0  0  0  0  0  0  0  0  0
  -23.5617  -34.1595   23.5722 C   0  0  0  0  0  0  0  0  0  0  0  0
  -24.5813  -36.7485   23.3717 C   0  0  0  0  0  0  0  0  0  0  0  0
  -24.8534  -34.4370   24.0197 C   0  0  0  0  0  0  0  0  0  0  0  0
  -25.7709  -28.7947   20.9792 C   0  0  0  0  0  0  0  0  0  0  0  0
  -27.3153  -27.4604   20.1610 C   0  0  0  0  0  0  0  0  0  0  0  0
  -28.2183  -29.3112   21.5779 C   0  0  0  0  0  0  0  0  0  0  0  0
  -28.0958  -15.1370   18.5915 C   0  0  0  0  0  0  0  0  0  0  0  0
  -23.5889  -22.9367   18.8338 C   0  0  0  0  0  0  0  0  0  0  0  0
  -29.2990  -17.8589   19.8822 C   0  0  0  0  0  0  0  0  0  0  0  0
  -29.0065  -21.2298   20.3277 C   0  0  0  0  0  0  0  0  0  0  0  0
  -29.7780  -10.4312   17.5508 C   0  0  0  0  0  0  0  0  0  0  0  0
  -28.1507  -16.6636   16.5859 C   0  0  0  0  0  0  0  0  0  0  0  0
  -26.9606  -17.9925   18.9444 C   0  0  0  0  0  0  0  0  0  0  0  0
  -30.1513  -11.5295   18.5431 C   0  0  0  0  0  0  0  0  0  0  0  0
  -20.5793  -22.2950   22.9005 C   0  0  0  0  0  0  0  0  0  0  0  0
  -25.2688  -25.1150   16.5375 C   0  0  0  0  0  0  0  0  0  0  0  0
  -28.9063  -12.0562   19.2498 C   0  0  0  0  0  0  0  0  0  0  0  0
  -25.6893  -26.2986   17.4078 C   0  0  0  0  0  0  0  0  0  0  0  0
  -20.1699  -21.4638   21.6693 C   0  0  0  0  0  0  0  0  0  0  0  0
  -21.0885  -23.3821   21.9346 C   0  0  0  0  0  0  0  0  0  0  0  0
  -23.9272  -24.5424   16.9841 C   0  0  0  0  0  0  0  0  0  0  0  0
  -24.3032  -25.3337   19.2980 C   0  0  0  0  0  0  0  0  0  0  0  0
  -27.9254  -12.6785   18.2488 C   0  0  1  0  0  0  0  0  0  0  0  0
  -28.6595  -16.3977   17.9993 C   0  0  1  0  0  0  0  0  0  0  0  0
  -25.6682  -25.9226   18.9000 C   0  0  2  0  0  0  0  0  0  0  0  0
  -21.1927  -22.2873   20.8322 C   0  0  0  0  0  0  0  0  0  0  0  0
  -30.1213  -23.1711   21.4616 C   0  0  0  0  0  0  0  0  0  0  0  0
  -16.7421  -19.4161   14.8110 C   0  0  0  0  0  0  0  0  0  0  0  0
  -17.2463  -21.0158   12.9546 C   0  0  0  0  0  0  0  0  0  0  0  0
  -28.1701  -16.9381   22.5632 C   0  0  0  0  0  0  0  0  0  0  0  0
  -28.4612  -19.2762   23.4098 C   0  0  0  0  0  0  0  0  0  0  0  0
  -30.4508  -17.9569   22.6862 C   0  0  0  0  0  0  0  0  0  0  0  0
  -29.4910  -22.6053   17.7524 C   0  0  0  0  0  0  0  0  0  0  0  0
  -20.6690  -22.7264   19.4705 C   0  0  0  0  0  0  0  0  0  0  0  0
  -22.5740  -21.6415   20.7190 C   0  0  0  0  0  0  0  0  0  0  0  0
  -20.2107  -21.5343   18.6274 C   0  0  0  0  0  0  0  0  0  0  0  0
  -21.3076  -20.1320   15.3099 C   0  0  0  0  0  0  0  0  0  0  0  0
  -19.6123  -21.9515   17.2788 C   0  0  0  0  0  0  0  0  0  0  0  0
  -20.1131  -19.6739   16.1563 C   0  0  0  0  0  0  0  0  0  0  0  0
  -18.3890  -21.3330   15.1694 C   0  0  0  0  0  0  0  0  0  0  0  0
  -25.0515  -22.2860   20.7285 C   0  0  0  0  0  0  0  0  0  0  0  0
  -22.3382  -19.0221   15.1291 C   0  0  0  0  0  0  0  0  0  1  0  0
  -23.6301  -22.6782   20.3188 C   0  0  1  0  0  0  0  0  0  0  0  0
  -28.8428  -18.8319   20.9424 C   0  0  1  0  0  0  0  0  0  0  0  0
  -30.0136  -22.3562   20.1821 C   0  0  2  0  0  0  0  0  0  0  0  0
  -17.8207  -20.2966   14.1791 C   0  0  0  0  0  0  0  0  0  0  0  0
  -19.0604  -20.7681   16.4459 C   0  0  2  0  0  0  0  0  0  0  0  0
  -28.9656  -18.2456   22.3772 C   0  0  0  0  0  0  0  0  0  0  0  0
  -25.0906  -27.8930   20.2664 N   0  0  0  0  0  0  0  0  0  0  0  0
  -26.0573  -27.0954   19.7811 N   0  0  0  0  0  0  0  0  0  0  0  0
  -28.3424  -17.4846   18.9280 N   0  0  0  0  0  0  0  0  0  0  0  0
  -23.9406  -24.2190   18.4118 N   0  0  0  0  0  0  0  0  0  0  0  0
  -28.4030  -26.7672   19.7625 N   0  0  0  0  0  0  0  0  0  0  0  0
  -27.8840  -30.4300   22.3531 N   0  0  0  0  0  0  0  0  0  0  0  0
  -28.3715  -13.9987   17.8583 N   0  0  0  0  0  0  0  0  0  0  0  0
  -29.6077  -20.0558   20.7296 N   0  0  0  0  0  0  0  0  0  0  0  0
  -25.2719  -22.4570   22.1863 N   0  3  0  0  0  0  0  0  0  0  0  0
  -29.6123  -23.2701   19.0753 N   0  3  0  0  0  0  0  0  0  0  0  0
  -29.4250  -28.9965   21.4425 O   0  0  0  0  0  0  0  0  0  0  0  0
  -27.4591  -15.1928   19.6371 O   0  0  0  0  0  0  0  0  0  0  0  0
  -23.2565  -22.0242   18.0728 O   0  0  0  0  0  0  0  0  0  0  0  0
  -30.4633  -17.4517   19.8959 O   0  0  0  0  0  0  0  0  0  0  0  0
  -27.8058  -21.3775   20.1104 O   0  0  0  0  0  0  0  0  0  0  0  0
  -23.0545  -32.8747   23.6702 O   0  0  0  0  0  0  0  0  0  0  0  0
  -22.8173  -18.5941   16.3959 O   0  0  0  0  0  0  0  0  0  1  0  0
  -25.0712  -37.9913   23.2741 F   0  0  0  0  0  0  0  0  0  0  0  0
  -25.6097  -33.4638   24.5457 F   0  0  0  0  0  0  0  0  0  0  0  0
  1  2  1  0  0  0  0
  1  5  2  0  0  0  0
  2  6  2  0  0  0  0
  3  8  2  0  0  0  0
  3 15  1  0  0  0  0
  4  9  1  0  0  0  0
  4 15  2  0  0  0  0
  5 17  1  0  0  0  0
  6 19  1  0  0  0  0
  7 10  2  0  0  0  0
  7 18  1  0  0  0  0
  8 21  1  0  0  0  0
  9 21  2  0  0  0  0
 10 22  1  0  0  0  0
 11 12  2  0  0  0  0
 11 23  1  0  0  0  0
 12 24  1  0  0  0  0
 13 20  1  0  0  0  0
 13 22  2  0  0  0  0
 14 24  2  0  0  0  0
 14 25  1  0  0  0  0
 15 26  1  0  0  0  0
 16 26  1  0  0  0  0
 16 27  2  0  0  0  0
 16 28  1  0  0  0  0
 17 19  2  0  0  0  0
 17 33  1  0  0  0  0
 18 20  2  0  0  0  0
 18 34  1  0  0  0  0
 19 45  1  0  0  0  0
 20 35  1  0  0  0  0
 21 86  1  0  0  0  0
 22 87  1  0  0  0  0
 23 25  2  0  0  0  0
 23 86  1  0  0  0  0
 24 88  1  0  0  0  0
 25 89  1  0  0  0  0
 26 71  2  0  0  0  0
 27 72  1  0  0  0  0
 27 75  1  0  0  0  0
 28 76  1  0  0  0  0
 28 81  2  0  0  0  0
 29 46  1  0  0  0  0
 29 77  1  0  0  0  0
 29 82  2  0  0  0  0
 30 65  1  0  0  0  0
 30 74  1  0  0  0  0
 30 83  2  0  0  0  0
 31 66  1  0  0  0  0
 31 73  1  0  0  0  0
 31 84  2  0  0  0  0
 32 67  1  0  0  0  0
 32 78  1  0  0  0  0
 32 85  2  0  0  0  0
 33 36  1  0  0  0  0
 34 46  1  0  0  0  0
 35 73  1  0  0  0  0
 36 39  1  0  0  0  0
 37 41  1  0  0  0  0
 37 42  1  0  0  0  0
 38 40  1  0  0  0  0
 38 43  1  0  0  0  0
 39 45  1  0  0  0  0
 40 47  1  0  0  0  0
 41 48  1  0  0  0  0
 42 48  1  0  0  0  0
 43 74  1  0  0  0  0
 44 47  1  0  0  0  0
 44 74  1  0  0  0  0
 45 77  1  0  0  0  0
 46 73  1  0  0  0  0
 47 72  1  0  0  0  0
 48 56  1  0  0  0  0
 48 57  1  0  0  0  0
 49 67  1  0  0  0  0
 50 68  1  0  0  0  0
 51 68  1  0  0  0  0
 52 70  1  0  0  0  0
 53 70  1  0  0  0  0
 54 70  1  0  0  0  0
 55 80  1  0  0  0  0
 56 58  1  0  0  0  0
 57 65  1  0  0  0  0
 58 60  1  0  0  0  0
 59 61  1  0  0  0  0
 59 64  1  0  0  0  0
 60 69  1  0  0  0  0
 61 69  1  0  0  0  0
 62 68  1  0  0  0  0
 62 69  1  0  0  0  0
 63 65  1  0  0  0  0
 63 79  1  0  0  0  0
 64 87  1  0  0  0  0
 66 70  1  0  0  0  0
 66 78  1  0  0  0  0
 67 80  1  0  0  0  0
 71 72  1  0  0  0  0
M  CHG  2  79   1  80   1
M  ISO  4  30 100  64 101  65 100  87 101
M  END
> <Batch ID>
0102

> <Smiles>
CNC(C)C(=O)NC(C(=O)N1Cc2cc([101O:1][101CH2:1]CCC(CCCC3(C[100CH:0](CN)[100C:0](=O)N4CCCC(n5nc(-c6ccc(Oc7ccc(F)cc7F)cc6)c(C(N)=O)c5N)C4)CCC3)CC(C)C)ccc2CC1C(=O)NC1CCCc2ccccc21)C(C)(C)C

> <Shape>
0.216

> <Color>
0.056

> <Negative vol penalty>
0.000

$$$$

  -OEChem-04052319383D

 87 95  0     1  0  0  0  0  0999 V2000
  -30.0625  -22.8017   14.3912 C   0  0  0  0  0  0  0  0  0  0  0  0
  -29.5182  -22.4871   15.6322 C   0  0  0  0  0  0  0  0  0  0  0  0
  -22.1456  -14.4023   21.0187 C   0  0  0  0  0  0  0  0  0  0  0  0
  -22.8984  -16.6860   21.2532 C   0  0  0  0  0  0  0  0  0  0  0  0
  -30.5435  -24.0875   14.1479 C   0  0  0  0  0  0  0  0  0  0  0  0
  -29.4556  -23.4580   16.6312 C   0  0  0  0  0  0  0  0  0  0  0  0
  -24.9802  -23.5223   19.0001 C   0  0  0  0  0  0  0  0  0  0  0  0
  -21.0949  -14.6581   21.8996 C   0  0  0  0  0  0  0  0  0  0  0  0
  -21.8475  -16.9419   22.1340 C   0  0  0  0  0  0  0  0  0  0  0  0
  -24.7518  -22.5339   19.9564 C   0  0  0  0  0  0  0  0  0  0  0  0
  -19.1523  -18.2952   24.1644 C   0  0  0  0  0  0  0  0  0  0  0  0
  -18.4303  -19.4756   23.9883 C   0  0  0  0  0  0  0  0  0  0  0  0
  -25.2823  -24.1104   21.7036 C   0  0  0  0  0  0  0  0  0  0  0  0
  -29.3960  -18.2213   22.4787 C   0  0  0  0  0  0  0  0  0  0  0  0
  -17.8113  -18.7652   21.7636 C   0  0  0  0  0  0  0  0  0  0  0  0
  -23.0475  -15.4162   20.6955 C   0  0  0  0  0  0  0  0  0  0  0  0
  -24.1246  -15.2992   18.3860 C   0  0  0  0  0  0  0  0  0  0  0  0
  -30.4779  -25.0774   15.1411 C   0  0  0  0  0  0  0  0  0  0  0  0
  -25.3727  -24.8114   19.3884 C   0  0  0  0  0  0  0  0  0  0  0  0
  -29.9374  -24.7580   16.4014 C   0  0  0  0  0  0  0  0  0  0  0  0
  -25.5126  -25.1140   20.7503 C   0  0  0  0  0  0  0  0  0  0  0  0
  -30.0787  -17.3736   21.6135 C   0  0  0  0  0  0  0  0  0  0  0  0
  -29.9537  -17.5443   20.2392 C   0  0  0  0  0  0  0  0  0  0  0  0
  -20.9458  -15.9280   22.4572 C   0  0  0  0  0  0  0  0  0  0  0  0
  -24.9056  -22.8271   21.3083 C   0  0  0  0  0  0  0  0  0  0  0  0
  -19.2038  -17.3498   23.1400 C   0  0  0  0  0  0  0  0  0  0  0  0
  -17.7598  -19.7106   22.7880 C   0  0  0  0  0  0  0  0  0  0  0  0
  -18.5333  -17.5848   21.9397 C   0  0  0  0  0  0  0  0  0  0  0  0
  -24.1335  -15.1524   19.7861 C   0  0  0  0  0  0  0  0  0  0  0  0
  -28.6075  -19.2164   21.9238 C   0  0  0  0  0  0  0  0  0  0  0  0
  -29.1401  -18.5695   19.7846 C   0  0  0  0  0  0  0  0  0  0  0  0
  -25.3863  -14.9245   17.9935 C   0  0  0  0  0  0  0  0  0  0  0  0
  -23.0701  -15.7354   17.5180 C   0  0  0  0  0  0  0  0  0  0  0  0
  -27.9353  -26.6231   18.8845 C   0  0  0  0  0  0  0  0  0  0  0  0
  -26.1693  -28.8677   20.4225 C   0  0  0  0  0  0  0  0  0  0  0  0
  -30.8734  -15.2744   19.8689 C   0  0  0  0  0  0  0  0  0  0  0  0
  -23.6387  -29.5703   22.6018 C   0  0  0  0  0  0  0  0  0  0  0  0
  -31.0537  -26.4400   14.8472 C   0  0  0  0  0  0  0  0  0  0  0  0
  -25.5892  -25.8737   18.3458 C   0  0  0  0  0  0  0  0  0  0  0  0
  -25.9125  -26.4880   21.2203 C   0  0  0  0  0  0  0  0  0  0  0  0
  -30.6083  -27.5154   15.8348 C   0  0  0  0  0  0  0  0  0  0  0  0
  -29.0044  -12.2192   19.9812 C   0  0  0  0  0  0  0  0  0  0  0  0
  -30.7319  -27.0082   17.2680 C   0  0  0  0  0  0  0  0  0  0  0  0
  -27.5544  -12.6800   19.8384 C   0  0  0  0  0  0  0  0  0  0  0  0
  -29.8334  -13.2228   20.7765 C   0  0  0  0  0  0  0  0  0  0  0  0
  -28.3465  -15.0752   20.0842 C   0  0  0  0  0  0  0  0  0  0  0  0
  -29.8293  -25.7908   17.5021 C   0  0  1  0  0  0  0  0  0  0  0  0
  -26.4847  -27.0107   18.8283 C   0  0  1  0  0  0  0  0  0  0  0  0
  -27.4814  -14.1046   19.2609 C   0  0  2  0  0  0  0  0  0  0  0  0
  -30.9338  -16.2903   22.1832 C   0  0  0  0  0  0  0  0  0  0  0  0
  -28.9675  -18.8034   18.3193 C   0  0  0  0  0  0  0  0  0  0  0  0
  -23.4026  -20.6484   25.3558 C   0  0  0  0  0  0  0  0  0  0  0  0
  -22.4538  -31.4964   23.6897 C   0  0  0  0  0  0  0  0  0  0  0  0
  -32.0820  -17.2182   18.9522 C   0  0  0  0  0  0  0  0  0  0  0  0
  -29.9636  -16.3808   17.9299 C   0  0  0  0  0  0  0  0  0  0  0  0
  -28.5306  -29.2470   22.3173 C   0  0  0  0  0  0  0  0  0  0  0  0
  -26.9863  -30.4305   23.8931 C   0  0  0  0  0  0  0  0  0  0  0  0
  -27.4026  -31.3669   21.6187 C   0  0  0  0  0  0  0  0  0  0  0  0
  -21.0515  -28.8222   21.3749 C   0  0  0  0  0  0  0  0  0  0  0  0
  -27.8533  -20.1558   22.8318 C   0  0  0  0  0  0  0  0  0  0  0  0
  -24.2861  -19.8640   24.3959 C   0  0  0  0  0  0  0  0  0  0  0  0
  -26.4562  -19.6191   23.1621 C   0  0  0  0  0  0  0  0  0  0  0  0
  -25.4331  -21.9506   23.4553 C   0  0  0  0  0  0  0  0  0  1  0  0
  -25.9894  -29.2847   21.8622 C   0  0  1  0  0  0  0  0  0  0  0  0
  -22.4703  -30.5352   22.5113 C   0  0  2  0  0  0  0  0  0  0  0  0
  -25.6296  -20.5575   24.0732 C   0  0  1  0  0  0  0  0  0  0  0  0
  -30.6760  -16.6516   19.2871 C   0  0  0  0  0  0  0  0  0  0  0  0
  -27.2216  -30.0558   22.4142 C   0  0  0  0  0  0  0  0  0  0  0  0
  -25.3077  -14.7181   20.2516 N   0  0  0  0  0  0  0  0  0  0  0  0
  -28.4614  -19.4131   20.5943 N   0  0  0  0  0  0  0  0  0  0  0  0
  -26.0484  -14.5888   19.1377 N   0  0  0  0  0  0  0  0  0  0  0  0
  -26.1190  -27.4908   20.1624 N   0  0  0  0  0  0  0  0  0  0  0  0
  -29.7199  -14.5678   20.2096 N   0  0  0  0  0  0  0  0  0  0  0  0
  -25.9830  -14.8528   16.7847 N   0  0  0  0  0  0  0  0  0  0  0  0
  -21.8371  -16.0826   18.0867 N   0  0  0  0  0  0  0  0  0  0  0  0
  -28.4538  -26.2069   17.6731 N   0  0  0  0  0  0  0  0  0  0  0  0
  -24.7405  -30.0367   21.9164 N   0  0  0  0  0  0  0  0  0  0  0  0
  -21.1811  -29.7876   22.4966 N   0  3  0  0  0  0  0  0  0  0  0  0
  -23.2118  -15.7992   16.2732 O   0  0  0  0  0  0  0  0  0  0  0  0
  -28.5399  -26.6977   19.9478 O   0  0  0  0  0  0  0  0  0  0  0  0
  -26.3407  -29.7321   19.5594 O   0  0  0  0  0  0  0  0  0  0  0  0
  -32.0192  -14.8402   20.0127 O   0  0  0  0  0  0  0  0  0  0  0  0
  -23.5812  -28.5107   23.2219 O   0  0  0  0  0  0  0  0  0  0  0  0
  -19.9204  -16.1781   23.3166 O   0  0  0  0  0  0  0  0  0  0  0  0
  -24.6839  -21.8640   22.2438 O   0  0  0  0  0  0  0  0  0  1  0  0
  -17.0653  -20.8435   22.6196 F   0  0  0  0  0  0  0  0  0  0  0  0
  -18.5782  -16.6798   20.9524 F   0  0  0  0  0  0  0  0  0  0  0  0
  1  2  1  0  0  0  0
  1  5  2  0  0  0  0
  2  6  2  0  0  0  0
  3  8  2  0  0  0  0
  3 16  1  0  0  0  0
  4  9  1  0  0  0  0
  4 16  2  0  0  0  0
  5 18  1  0  0  0  0
  6 20  1  0  0  0  0
  7 10  2  0  0  0  0
  7 19  1  0  0  0  0
  8 24  1  0  0  0  0
  9 24  2  0  0  0  0
 10 25  1  0  0  0  0
 11 12  2  0  0  0  0
 11 26  1  0  0  0  0
 12 27  1  0  0  0  0
 13 21  1  0  0  0  0
 13 25  2  0  0  0  0
 14 22  2  0  0  0  0
 14 30  1  0  0  0  0
 15 27  2  0  0  0  0
 15 28  1  0  0  0  0
 16 29  1  0  0  0  0
 17 29  1  0  0  0  0
 17 32  2  0  0  0  0
 17 33  1  0  0  0  0
 18 20  2  0  0  0  0
 18 38  1  0  0  0  0
 19 21  2  0  0  0  0
 19 39  1  0  0  0  0
 20 47  1  0  0  0  0
 21 40  1  0  0  0  0
 22 23  1  0  0  0  0
 22 50  1  0  0  0  0
 23 31  2  0  0  0  0
 23 67  1  0  0  0  0
 24 84  1  0  0  0  0
 25 85  1  0  0  0  0
 26 28  2  0  0  0  0
 26 84  1  0  0  0  0
 27 86  1  0  0  0  0
 28 87  1  0  0  0  0
 29 69  2  0  0  0  0
 30 60  1  0  0  0  0
 30 70  2  0  0  0  0
 31 51  1  0  0  0  0
 31 70  1  0  0  0  0
 32 71  1  0  0  0  0
 32 74  1  0  0  0  0
 33 75  1  0  0  0  0
 33 79  2  0  0  0  0
 34 48  1  0  0  0  0
 34 76  1  0  0  0  0
 34 80  2  0  0  0  0
 35 64  1  0  0  0  0
 35 72  1  0  0  0  0
 35 81  2  0  0  0  0
 36 67  1  0  0  0  0
 36 73  1  0  0  0  0
 36 82  2  0  0  0  0
 37 65  1  0  0  0  0
 37 77  1  0  0  0  0
 37 83  2  0  0  0  0
 38 41  1  0  0  0  0
 39 48  1  0  0  0  0
 40 72  1  0  0  0  0
 41 43  1  0  0  0  0
 42 44  1  0  0  0  0
 42 45  1  0  0  0  0
 43 47  1  0  0  0  0
 44 49  1  0  0  0  0
 45 73  1  0  0  0  0
 46 49  1  0  0  0  0
 46 73  1  0  0  0  0
 47 76  1  0  0  0  0
 48 72  1  0  0  0  0
 49 71  1  0  0  0  0
 52 61  1  0  0  0  0
 53 65  1  0  0  0  0
 54 67  1  0  0  0  0
 55 67  1  0  0  0  0
 56 68  1  0  0  0  0
 57 68  1  0  0  0  0
 58 68  1  0  0  0  0
 59 78  1  0  0  0  0
 60 62  1  0  0  0  0
 61 66  1  0  0  0  0
 62 66  1  0  0  0  0
 63 66  1  0  0  0  0
 63 85  1  0  0  0  0
 64 68  1  0  0  0  0
 64 77  1  0  0  0  0
 65 78  1  0  0  0  0
 69 71  1  0  0  0  0
M  CHG  1  78   1
M  ISO  4  36 100  63 101  67 100  85 101
M  END
> <Batch ID>
0102

> <Smiles>
CCC(CCc1cc(C)c([100C:0](C)(C)[100C:0](=O)N2CCCC(n3nc(-c4ccc(Oc5ccc(F)cc5F)cc4)c(C(N)=O)c3N)C2)c(C)n1)[101CH2:1][101O:1]c1ccc2c(c1)CN(C(=O)C(NC(=O)C(C)NC)C(C)(C)C)C(C(=O)NC1CCCc3ccccc31)C2

> <Shape>
0.209

> <Color>
0.091

> <Negative vol penalty>
0.000

$$$$

  -OEChem-04052319383D

 87 95  0     1  0  0  0  0  0999 V2000
  -38.0017  -29.3293   25.3091 C   0  0  0  0  0  0  0  0  0  0  0  0
  -37.1522  -28.9791   24.2646 C   0  0  0  0  0  0  0  0  0  0  0  0
  -23.1711   -9.8524   19.8975 C   0  0  0  0  0  0  0  0  0  0  0  0
  -23.8300   -9.8876   22.2217 C   0  0  0  0  0  0  0  0  0  0  0  0
  -38.7296  -28.3437   25.9745 C   0  0  0  0  0  0  0  0  0  0  0  0
  -37.0309  -27.6431   23.8840 C   0  0  0  0  0  0  0  0  0  0  0  0
  -31.9886  -24.8463   21.8202 C   0  0  0  0  0  0  0  0  0  0  0  0
  -22.4487   -8.6801   20.1200 C   0  0  0  0  0  0  0  0  0  0  0  0
  -23.1075   -8.7153   22.4442 C   0  0  0  0  0  0  0  0  0  0  0  0
  -31.5480  -24.5356   20.5345 C   0  0  0  0  0  0  0  0  0  0  0  0
  -20.1357   -5.8759   20.1568 C   0  0  0  0  0  0  0  0  0  0  0  0
  -18.8543   -5.7905   19.6125 C   0  0  0  0  0  0  0  0  0  0  0  0
  -32.4654  -22.3163   20.7631 C   0  0  0  0  0  0  0  0  0  0  0  0
  -32.5407  -19.5574   18.2601 C   0  0  0  0  0  0  0  0  0  0  0  0
  -30.6978  -18.0873   18.7363 C   0  0  0  0  0  0  0  0  0  0  0  0
  -18.1795   -7.7214   20.8983 C   0  0  0  0  0  0  0  0  0  0  0  0
  -23.8618  -10.4561   20.9483 C   0  0  0  0  0  0  0  0  0  0  0  0
  -24.1396  -12.9893   20.8322 C   0  0  0  0  0  0  0  0  0  0  0  0
  -38.6098  -26.9938   25.6082 C   0  0  0  0  0  0  0  0  0  0  0  0
  -32.6817  -23.8964   22.5842 C   0  0  0  0  0  0  0  0  0  0  0  0
  -37.7589  -26.6387   24.5442 C   0  0  0  0  0  0  0  0  0  0  0  0
  -32.9115  -22.6166   22.0592 C   0  0  0  0  0  0  0  0  0  0  0  0
  -32.0545  -18.2767   18.4979 C   0  0  0  0  0  0  0  0  0  0  0  0
  -22.4169   -8.1116   21.3933 C   0  0  0  0  0  0  0  0  0  0  0  0
  -31.7889  -23.2713   20.0047 C   0  0  0  0  0  0  0  0  0  0  0  0
  -20.4391   -6.8839   21.0720 C   0  0  0  0  0  0  0  0  0  0  0  0
  -17.8762   -6.7133   19.9832 C   0  0  0  0  0  0  0  0  0  0  0  0
  -19.4610   -7.8067   21.4427 C   0  0  0  0  0  0  0  0  0  0  0  0
  -24.6086  -11.6668   20.7190 C   0  0  0  0  0  0  0  0  0  0  0  0
  -31.6362  -20.6070   18.2715 C   0  0  0  0  0  0  0  0  0  0  0  0
  -29.8758  -19.2027   18.7266 C   0  0  0  0  0  0  0  0  0  0  0  0
  -25.2257  -13.7673   20.5134 C   0  0  0  0  0  0  0  0  0  0  0  0
  -22.8385  -13.4715   21.1933 C   0  0  0  0  0  0  0  0  0  0  0  0
  -35.5923  -23.7271   23.8505 C   0  0  0  0  0  0  0  0  0  0  0  0
  -34.4339  -21.0015   25.1740 C   0  0  0  0  0  0  0  0  0  0  0  0
  -32.1778  -18.4446   25.0347 C   0  0  0  0  0  0  0  0  0  0  0  0
  -30.5386  -14.9660   21.0456 C   0  0  0  0  0  0  0  0  0  0  0  0
  -39.4527  -25.9694   26.3257 C   0  0  0  0  0  0  0  0  0  0  0  0
  -33.1269  -24.2385   23.9795 C   0  0  0  0  0  0  0  0  0  0  0  0
  -33.6332  -21.5545   22.8462 C   0  0  0  0  0  0  0  0  0  0  0  0
  -38.9832  -24.5334   26.1073 C   0  0  0  0  0  0  0  0  0  0  0  0
  -29.7022  -12.5160   18.5166 C   0  0  0  0  0  0  0  0  0  0  0  0
  -38.7014  -24.2828   24.6293 C   0  0  0  0  0  0  0  0  0  0  0  0
  -28.2531  -12.1866   18.8797 C   0  0  0  0  0  0  0  0  0  0  0  0
  -30.5482  -12.7396   19.7666 C   0  0  0  0  0  0  0  0  0  0  0  0
  -28.5724  -13.4571   21.0532 C   0  0  0  0  0  0  0  0  0  0  0  0
  -37.5815  -25.1974   24.1184 C   0  0  1  0  0  0  0  0  0  0  0  0
  -34.2741  -23.3619   24.4725 C   0  0  1  0  0  0  0  0  0  0  0  0
  -27.6602  -13.2422   19.8318 C   0  0  2  0  0  0  0  0  0  0  0  0
  -32.0720  -22.3816   16.5382 C   0  0  0  0  0  0  0  0  0  0  0  0
  -31.5010  -16.3471   26.2346 C   0  0  0  0  0  0  0  0  0  0  0  0
  -28.1533  -18.4125   20.3861 C   0  0  0  0  0  0  0  0  0  0  0  0
  -27.7599  -18.0988   17.9197 C   0  0  0  0  0  0  0  0  0  0  0  0
  -27.5740  -20.3553   18.9468 C   0  0  0  0  0  0  0  0  0  0  0  0
  -36.8483  -19.5528   23.9984 C   0  0  0  0  0  0  0  0  0  0  0  0
  -35.6544  -17.3881   24.3941 C   0  0  0  0  0  0  0  0  0  0  0  0
  -36.2437  -18.8561   26.3229 C   0  0  0  0  0  0  0  0  0  0  0  0
  -29.4673  -19.4969   25.5871 C   0  0  0  0  0  0  0  0  0  0  0  0
  -32.9842  -17.1107   18.4961 C   0  0  0  0  0  0  0  0  0  0  0  0
  -32.5812  -16.3714   20.9465 C   0  0  0  0  0  0  0  0  0  0  0  0
  -32.1283  -22.0131   18.0153 C   0  0  1  0  0  0  0  0  0  1  0  0
  -34.3814  -19.5505   24.7603 C   0  0  1  0  0  0  0  0  0  0  0  0
  -31.2700  -17.8435   26.0926 C   0  0  2  0  0  0  0  0  0  0  0  0
  -33.5925  -16.7950   19.8784 C   0  0  1  0  0  0  0  0  0  0  0  0
  -28.4148  -19.0365   18.9806 C   0  0  0  0  0  0  0  0  0  0  0  0
  -35.7700  -18.8573   24.8531 C   0  0  0  0  0  0  0  0  0  0  0  0
  -25.8926  -11.6043   20.3565 N   0  0  0  0  0  0  0  0  0  0  0  0
  -30.3116  -20.4621   18.4994 N   0  0  0  0  0  0  0  0  0  0  0  0
  -26.2396  -12.8973   20.2390 N   0  0  0  0  0  0  0  0  0  0  0  0
  -34.0544  -21.9394   24.2034 N   0  0  0  0  0  0  0  0  0  0  0  0
  -29.9388  -13.7688   20.6208 N   0  0  0  0  0  0  0  0  0  0  0  0
  -25.4027  -15.1038   20.4437 N   0  0  0  0  0  0  0  0  0  0  0  0
  -21.8380  -12.5360   21.4903 N   0  0  0  0  0  0  0  0  0  0  0  0
  -36.2901  -24.6995   24.5411 N   0  0  0  0  0  0  0  0  0  0  0  0
  -33.3474  -18.9293   25.5809 N   0  0  0  0  0  0  0  0  0  0  0  0
  -31.8360  -15.1822   20.5978 N   0  0  0  0  0  0  0  0  0  0  0  0
  -34.5943  -15.6979   19.7141 N   0  3  0  0  0  0  0  0  0  0  0  0
  -29.8403  -18.0666   25.7358 N   0  3  0  0  0  0  0  0  0  0  0  0
  -22.5665  -14.6953   21.2349 O   0  0  0  0  0  0  0  0  0  0  0  0
  -35.9504  -23.1669   22.8211 O   0  0  0  0  0  0  0  0  0  0  0  0
  -34.7913  -21.2915   26.3184 O   0  0  0  0  0  0  0  0  0  0  0  0
  -31.8807  -18.4773   23.8425 O   0  0  0  0  0  0  0  0  0  0  0  0
  -29.9585  -15.7849   21.7666 O   0  0  0  0  0  0  0  0  0  0  0  0
  -21.7119   -6.9678   21.6109 O   0  0  0  0  0  0  0  0  0  0  0  0
  -31.3604  -22.9656   18.7497 O   0  0  0  0  0  0  0  0  0  1  0  0
  -16.6462   -6.6322   19.4593 F   0  0  0  0  0  0  0  0  0  0  0  0
  -19.7468   -8.7781   22.3205 F   0  0  0  0  0  0  0  0  0  0  0  0
  1  2  1  0  0  0  0
  1  5  2  0  0  0  0
  2  6  2  0  0  0  0
  3  8  2  0  0  0  0
  3 17  1  0  0  0  0
  4  9  1  0  0  0  0
  4 17  2  0  0  0  0
  5 19  1  0  0  0  0
  6 21  1  0  0  0  0
  7 10  2  0  0  0  0
  7 20  1  0  0  0  0
  8 24  1  0  0  0  0
  9 24  2  0  0  0  0
 10 25  1  0  0  0  0
 11 12  2  0  0  0  0
 11 26  1  0  0  0  0
 12 27  1  0  0  0  0
 13 22  1  0  0  0  0
 13 25  2  0  0  0  0
 14 23  2  0  0  0  0
 14 30  1  0  0  0  0
 15 23  1  0  0  0  0
 15 31  2  0  0  0  0
 16 27  2  0  0  0  0
 16 28  1  0  0  0  0
 17 29  1  0  0  0  0
 18 29  1  0  0  0  0
 18 32  2  0  0  0  0
 18 33  1  0  0  0  0
 19 21  2  0  0  0  0
 19 38  1  0  0  0  0
 20 22  2  0  0  0  0
 20 39  1  0  0  0  0
 21 47  1  0  0  0  0
 22 40  1  0  0  0  0
 23 59  1  0  0  0  0
 24 84  1  0  0  0  0
 25 85  1  0  0  0  0
 26 28  2  0  0  0  0
 26 84  1  0  0  0  0
 27 86  1  0  0  0  0
 28 87  1  0  0  0  0
 29 67  2  0  0  0  0
 30 61  1  0  0  0  0
 30 68  2  0  0  0  0
 31 65  1  0  0  0  0
 31 68  1  0  0  0  0
 32 69  1  0  0  0  0
 32 72  1  0  0  0  0
 33 73  1  0  0  0  0
 33 79  2  0  0  0  0
 34 48  1  0  0  0  0
 34 74  1  0  0  0  0
 34 80  2  0  0  0  0
 35 62  1  0  0  0  0
 35 70  1  0  0  0  0
 35 81  2  0  0  0  0
 36 63  1  0  0  0  0
 36 75  1  0  0  0  0
 36 82  2  0  0  0  0
 37 71  1  0  0  0  0
 37 76  1  0  0  0  0
 37 83  2  0  0  0  0
 38 41  1  0  0  0  0
 39 48  1  0  0  0  0
 40 70  1  0  0  0  0
 41 43  1  0  0  0  0
 42 44  1  0  0  0  0
 42 45  1  0  0  0  0
 43 47  1  0  0  0  0
 44 49  1  0  0  0  0
 45 71  1  0  0  0  0
 46 49  1  0  0  0  0
 46 71  1  0  0  0  0
 47 74  1  0  0  0  0
 48 70  1  0  0  0  0
 49 69  1  0  0  0  0
 50 61  1  0  0  0  0
 51 63  1  0  0  0  0
 52 65  1  0  0  0  0
 53 65  1  0  0  0  0
 54 65  1  0  0  0  0
 55 66  1  0  0  0  0
 56 66  1  0  0  0  0
 57 66  1  0  0  0  0
 58 78  1  0  0  0  0
 59 64  1  0  0  0  0
 60 64  1  0  0  0  0
 60 76  1  0  0  0  0
 61 85  1  0  0  0  0
 62 66  1  0  0  0  0
 62 75  1  0  0  0  0
 63 78  1  0  0  0  0
 64 77  1  0  0  0  0
 67 69  1  0  0  0  0
M  CHG  2  77   1  78   1
M  ISO  4  37 100  61 101  76 100  85 101
M  END
> <Batch ID>
0102

> <Smiles>
CNC(C)C(=O)NC(C(=O)N1Cc2cc([101O:1][101CH:1](C)c3cc(CC(N)C[100NH:0][100C:0](=O)N4CCCC(n5nc(-c6ccc(Oc7ccc(F)cc7F)cc6)c(C(N)=O)c5N)C4)cc(C(C)(C)C)n3)ccc2CC1C(=O)NC1CCCc2ccccc21)C(C)(C)C

> <Shape>
0.173

> <Color>
0.165

> <Negative vol penalty>
0.000

$$$$

  -OEChem-04052319382D

  0  0  0     0  0  0  0  0  0999 V2000
M  END
$$$$

  -OEChem-04052319383D

 83 91  0     1  0  0  0  0  0999 V2000
  -19.2620  -24.2737   24.3185 C   0  0  0  0  0  0  0  0  0  0  0  0
  -20.6407  -24.1506   24.1785 C   0  0  0  0  0  0  0  0  0  0  0  0
  -25.3496  -13.8916   20.7100 C   0  0  0  0  0  0  0  0  0  0  0  0
  -23.3159  -15.1904   20.5919 C   0  0  0  0  0  0  0  0  0  0  0  0
  -18.6107  -25.4042   23.8270 C   0  0  0  0  0  0  0  0  0  0  0  0
  -21.3687  -25.1577   23.5459 C   0  0  0  0  0  0  0  0  0  0  0  0
  -27.0513  -26.9970   24.8991 C   0  0  0  0  0  0  0  0  0  0  0  0
  -24.6476  -12.8468   21.3109 C   0  0  0  0  0  0  0  0  0  0  0  0
  -22.6137  -14.1456   21.1927 C   0  0  0  0  0  0  0  0  0  0  0  0
  -28.2923  -26.6987   24.3382 C   0  0  0  0  0  0  0  0  0  0  0  0
  -22.5795  -10.3536   20.3415 C   0  0  0  0  0  0  0  0  0  0  0  0
  -22.8165   -9.0606   19.8751 C   0  0  0  0  0  0  0  0  0  0  0  0
  -28.1597  -28.6989   22.9962 C   0  0  0  0  0  0  0  0  0  0  0  0
  -27.0928  -23.9410   19.1576 C   0  0  0  0  0  0  0  0  0  0  0  0
  -23.5560   -8.4012   22.0786 C   0  0  0  0  0  0  0  0  0  0  0  0
  -27.0813  -25.8453   20.3589 C   0  0  0  0  0  0  0  0  0  0  0  0
  -24.6838  -15.0635   20.3506 C   0  0  0  0  0  0  0  0  0  0  0  0
  -25.6179  -16.3461   18.3531 C   0  0  0  0  0  0  0  0  0  0  0  0
  -19.3324  -26.4301   23.1967 C   0  0  0  0  0  0  0  0  0  0  0  0
  -26.3490  -28.1447   24.5042 C   0  0  0  0  0  0  0  0  0  0  0  0
  -20.7263  -26.3025   23.0444 C   0  0  0  0  0  0  0  0  0  0  0  0
  -26.9111  -29.0108   23.5555 C   0  0  0  0  0  0  0  0  0  0  0  0
  -26.3239  -24.7401   20.0392 C   0  0  0  0  0  0  0  0  0  0  0  0
  -23.2796  -12.9738   21.5522 C   0  0  0  0  0  0  0  0  0  0  0  0
  -28.8454  -27.5482   23.3844 C   0  0  0  0  0  0  0  0  0  0  0  0
  -22.8308  -10.6704   21.6765 C   0  0  0  0  0  0  0  0  0  0  0  0
  -23.3047   -8.0844   20.7436 C   0  0  0  0  0  0  0  0  0  0  0  0
  -23.3190   -9.6942   22.5450 C   0  0  0  0  0  0  0  0  0  0  0  0
  -25.4086  -16.1433   19.7304 C   0  0  0  0  0  0  0  0  0  0  0  0
  -28.2968  -24.5821   18.9655 C   0  0  0  0  0  0  0  0  0  0  0  0
  -26.3583  -17.5009   18.2847 C   0  0  0  0  0  0  0  0  0  0  0  0
  -25.1819  -15.5609   17.2355 C   0  0  0  0  0  0  0  0  0  0  0  0
  -23.5459  -28.6897   23.1080 C   0  0  0  0  0  0  0  0  0  0  0  0
  -24.2872  -31.7891   23.7133 C   0  0  0  0  0  0  0  0  0  0  0  0
  -26.7008  -34.1293   24.3005 C   0  0  0  0  0  0  0  0  0  0  0  0
  -26.9434  -22.1929   21.9581 C   0  0  0  0  0  0  0  0  0  0  0  0
  -18.5784  -27.6115   22.6395 C   0  0  0  0  0  0  0  0  0  0  0  0
  -25.0236  -28.4664   25.1384 C   0  0  0  0  0  0  0  0  0  0  0  0
  -26.2069  -30.2662   23.1122 C   0  0  0  0  0  0  0  0  0  0  0  0
  -19.4716  -28.8063   22.3153 C   0  0  0  0  0  0  0  0  0  0  0  0
  -29.5397  -20.0622   20.7765 C   0  0  0  0  0  0  0  0  0  0  0  0
  -20.7106  -28.3541   21.5489 C   0  0  0  0  0  0  0  0  0  0  0  0
  -28.7943  -18.8346   20.2501 C   0  0  0  0  0  0  0  0  0  0  0  0
  -28.8704  -20.6376   22.0227 C   0  0  0  0  0  0  0  0  0  0  0  0
  -26.6893  -19.7119   21.3447 C   0  0  0  0  0  0  0  0  0  0  0  0
  -21.5540  -27.3850   22.3862 C   0  0  1  0  0  0  0  0  0  0  0  0
  -24.1618  -29.3918   24.2850 C   0  0  1  0  0  0  0  0  0  0  0  0
  -27.2948  -19.1296   20.0560 C   0  0  2  0  0  0  0  0  0  0  0  0
  -29.4598  -24.1886   18.1435 C   0  0  0  0  0  0  0  0  0  0  0  0
  -27.0032  -36.5849   24.7201 C   0  0  0  0  0  0  0  0  0  0  0  0
  -31.2165  -25.1583   22.8210 C   0  0  0  0  0  0  0  0  0  0  0  0
  -23.8077  -32.3515   20.7529 C   0  0  0  0  0  0  0  0  0  0  0  0
  -25.0166  -34.5248   21.0416 C   0  0  0  0  0  0  0  0  0  0  0  0
  -22.9091  -34.0946   22.3049 C   0  0  0  0  0  0  0  0  0  0  0  0
  -27.9116  -33.6444   26.9571 C   0  0  0  0  0  0  0  0  0  0  0  0
  -24.9629  -24.4445   20.5257 C   0  0  0  0  0  0  0  0  0  0  0  0
  -30.5647  -26.3080   20.6745 C   0  0  0  0  0  0  0  0  0  0  0  0
  -29.3939  -26.7498   19.7846 C   0  0  0  0  0  0  0  0  0  0  0  0
  -24.9235  -23.6292   21.8315 C   0  0  0  0  0  0  0  0  0  0  0  0
  -25.0230  -32.8773   22.9694 C   0  0  1  0  0  0  0  0  0  0  0  0
  -26.8153  -35.2156   25.3546 C   0  0  2  0  0  0  0  0  0  0  0  0
  -30.1710  -26.0239   22.1294 C   0  0  2  0  0  0  0  0  0  1  0  0
  -24.2018  -33.4375   21.7739 C   0  0  0  0  0  0  0  0  0  0  0  0
  -25.9708  -17.0930   20.4827 N   0  0  0  0  0  0  0  0  0  0  0  0
  -28.2786  -25.7385   19.7007 N   0  0  0  0  0  0  0  0  0  0  0  0
  -26.5407  -17.9037   19.5749 N   0  0  0  0  0  0  0  0  0  0  0  0
  -24.9106  -30.5340   23.7569 N   0  0  0  0  0  0  0  0  0  0  0  0
  -27.4506  -20.8964   21.7714 N   0  0  0  0  0  0  0  0  0  0  0  0
  -26.8647  -18.2009   17.2474 N   0  0  0  0  0  0  0  0  0  0  0  0
  -24.4299  -14.4046   17.4841 N   0  0  0  0  0  0  0  0  0  0  0  0
  -22.3212  -28.1089   23.3770 N   0  0  0  0  0  0  0  0  0  0  0  0
  -25.3868  -33.8788   23.9659 N   0  0  0  0  0  0  0  0  0  0  0  0
  -25.5891  -22.3532   21.6917 N   0  0  0  0  0  0  0  0  0  0  0  0
  -27.9769  -34.9489   26.2493 N   0  3  0  0  0  0  0  0  0  0  0  0
  -25.4651  -15.8664   16.0523 O   0  0  0  0  0  0  0  0  0  0  0  0
  -24.1373  -28.6770   22.0348 O   0  0  0  0  0  0  0  0  0  0  0  0
  -23.2028  -32.0452   24.2425 O   0  0  0  0  0  0  0  0  0  0  0  0
  -27.6793  -33.5624   23.8192 O   0  0  0  0  0  0  0  0  0  0  0  0
  -27.6467  -23.1388   22.3291 O   0  0  0  0  0  0  0  0  0  0  0  0
  -22.5942  -11.9544   22.1383 O   0  0  0  0  0  0  0  0  0  0  0  0
  -30.0562  -27.2590   22.8348 O   0  0  0  0  0  0  0  0  0  1  0  0
  -23.5309   -6.8424   20.2958 F   0  0  0  0  0  0  0  0  0  0  0  0
  -23.5612   -9.9923   23.8289 F   0  0  0  0  0  0  0  0  0  0  0  0
  1  2  1  0  0  0  0
  1  5  2  0  0  0  0
  2  6  2  0  0  0  0
  3  8  2  0  0  0  0
  3 17  1  0  0  0  0
  4  9  1  0  0  0  0
  4 17  2  0  0  0  0
  5 19  1  0  0  0  0
  6 21  1  0  0  0  0
  7 10  2  0  0  0  0
  7 20  1  0  0  0  0
  8 24  1  0  0  0  0
  9 24  2  0  0  0  0
 10 25  1  0  0  0  0
 11 12  2  0  0  0  0
 11 26  1  0  0  0  0
 12 27  1  0  0  0  0
 13 22  1  0  0  0  0
 13 25  2  0  0  0  0
 14 23  1  0  0  0  0
 14 30  2  0  0  0  0
 15 27  2  0  0  0  0
 15 28  1  0  0  0  0
 16 23  2  0  0  0  0
 16 65  1  0  0  0  0
 17 29  1  0  0  0  0
 18 29  1  0  0  0  0
 18 31  2  0  0  0  0
 18 32  1  0  0  0  0
 19 21  2  0  0  0  0
 19 37  1  0  0  0  0
 20 22  2  0  0  0  0
 20 38  1  0  0  0  0
 21 46  1  0  0  0  0
 22 39  1  0  0  0  0
 23 56  1  0  0  0  0
 24 80  1  0  0  0  0
 25 81  1  0  0  0  0
 26 28  2  0  0  0  0
 26 80  1  0  0  0  0
 27 82  1  0  0  0  0
 28 83  1  0  0  0  0
 29 64  2  0  0  0  0
 30 49  1  0  0  0  0
 30 65  1  0  0  0  0
 31 66  1  0  0  0  0
 31 69  1  0  0  0  0
 32 70  1  0  0  0  0
 32 75  2  0  0  0  0
 33 47  1  0  0  0  0
 33 71  1  0  0  0  0
 33 76  2  0  0  0  0
 34 60  1  0  0  0  0
 34 67  1  0  0  0  0
 34 77  2  0  0  0  0
 35 61  1  0  0  0  0
 35 72  1  0  0  0  0
 35 78  2  0  0  0  0
 36 68  1  0  0  0  0
 36 73  1  0  0  0  0
 36 79  2  0  0  0  0
 37 40  1  0  0  0  0
 38 47  1  0  0  0  0
 39 67  1  0  0  0  0
 40 42  1  0  0  0  0
 41 43  1  0  0  0  0
 41 44  1  0  0  0  0
 42 46  1  0  0  0  0
 43 48  1  0  0  0  0
 44 68  1  0  0  0  0
 45 48  1  0  0  0  0
 45 68  1  0  0  0  0
 46 71  1  0  0  0  0
 47 67  1  0  0  0  0
 48 66  1  0  0  0  0
 50 61  1  0  0  0  0
 51 62  1  0  0  0  0
 52 63  1  0  0  0  0
 53 63  1  0  0  0  0
 54 63  1  0  0  0  0
 55 74  1  0  0  0  0
 56 59  1  0  0  0  0
 57 58  1  0  0  0  0
 57 62  1  0  0  0  0
 58 65  1  0  0  0  0
 59 73  1  0  0  0  0
 60 63  1  0  0  0  0
 60 72  1  0  0  0  0
 61 74  1  0  0  0  0
 62 81  1  0  0  0  0
 64 66  1  0  0  0  0
M  CHG  1  74   1
M  ISO  4  36 100  62 101  73 100  81 101
M  END
> <Batch ID>
0102

> <Smiles>
CNC(C)C(=O)NC(C(=O)N1Cc2cc([101O:1][101CH:1](C)CCn3cc(CC[100NH:0][100C:0](=O)N4CCCC(n5nc(-c6ccc(Oc7ccc(F)cc7F)cc6)c(C(N)=O)c5N)C4)cc3C)ccc2CC1C(=O)NC1CCCc2ccccc21)C(C)(C)C

> <Shape>
0.250

> <Color>
0.067

> <Negative vol penalty>
0.000

$$$$

  -OEChem-04052319383D

 87 95  0     1  0  0  0  0  0999 V2000
  -21.4372  -28.2374   21.3240 C   0  0  0  0  0  0  0  0  0  0  0  0
  -22.0655  -27.0633   20.9216 C   0  0  0  0  0  0  0  0  0  0  0  0
  -23.3842  -15.9183   22.9588 C   0  0  0  0  0  0  0  0  0  0  0  0
  -22.6474  -16.1409   20.6687 C   0  0  0  0  0  0  0  0  0  0  0  0
  -22.1726  -29.4164   21.4386 C   0  0  0  0  0  0  0  0  0  0  0  0
  -23.4297  -27.0676   20.6325 C   0  0  0  0  0  0  0  0  0  0  0  0
  -27.4231  -22.5376   21.6510 C   0  0  0  0  0  0  0  0  0  0  0  0
  -26.2897  -17.2467   12.8775 C   0  0  0  0  0  0  0  0  0  0  0  0
  -27.1747  -17.9715   13.6757 C   0  0  0  0  0  0  0  0  0  0  0  0
  -22.4626  -16.8895   23.3497 C   0  0  0  0  0  0  0  0  0  0  0  0
  -21.7257  -17.1121   21.0596 C   0  0  0  0  0  0  0  0  0  0  0  0
  -27.9528  -21.5500   20.8216 C   0  0  0  0  0  0  0  0  0  0  0  0
  -18.6793  -17.2083   22.5193 C   0  0  0  0  0  0  0  0  0  0  0  0
  -17.3859  -17.1164   22.0052 C   0  0  0  0  0  0  0  0  0  0  0  0
  -29.8936  -22.9281   20.4302 C   0  0  0  0  0  0  0  0  0  0  0  0
  -27.3549  -15.1898   13.5644 C   0  0  0  0  0  0  0  0  0  0  0  0
  -17.6328  -19.2968   20.9942 C   0  0  0  0  0  0  0  0  0  0  0  0
  -23.4767  -15.5440   21.6182 C   0  0  0  0  0  0  0  0  0  0  0  0
  -24.2216  -13.1505   21.1450 C   0  0  0  0  0  0  0  0  0  0  0  0
  -23.5484  -29.4330   21.1601 C   0  0  0  0  0  0  0  0  0  0  0  0
  -28.1209  -23.7345   21.8679 C   0  0  0  0  0  0  0  0  0  0  0  0
  -24.1840  -28.2482   20.7422 C   0  0  0  0  0  0  0  0  0  0  0  0
  -29.3719  -23.9283   21.2647 C   0  0  0  0  0  0  0  0  0  0  0  0
  -26.3798  -15.8558   12.8219 C   0  0  0  0  0  0  0  0  0  0  0  0
  -28.1498  -17.3055   14.4181 C   0  0  0  0  0  0  0  0  0  0  0  0
  -28.2399  -15.9146   14.3625 C   0  0  0  0  0  0  0  0  0  0  0  0
  -21.6333  -17.4864   22.4002 C   0  0  0  0  0  0  0  0  0  0  0  0
  -29.1869  -21.7463   20.2088 C   0  0  0  0  0  0  0  0  0  0  0  0
  -19.4494  -18.3445   22.2709 C   0  0  0  0  0  0  0  0  0  0  0  0
  -16.8627  -18.1606   21.2427 C   0  0  0  0  0  0  0  0  0  0  0  0
  -18.9262  -19.3887   21.5084 C   0  0  0  0  0  0  0  0  0  0  0  0
  -24.4290  -14.5412   21.2137 C   0  0  0  0  0  0  0  0  0  0  0  0
  -25.4221  -12.6455   20.7088 C   0  0  0  0  0  0  0  0  0  0  0  0
  -23.0487  -12.3838   21.4483 C   0  0  0  0  0  0  0  0  0  0  0  0
  -27.5418  -26.8055   21.2871 C   0  0  0  0  0  0  0  0  0  0  0  0
  -30.2953  -27.2368   22.9468 C   0  0  0  0  0  0  0  0  0  0  0  0
  -33.2687  -25.9443   24.0121 C   0  0  0  0  0  0  0  0  0  0  0  0
  -29.9237  -14.9964   17.5371 C   0  0  0  0  0  0  0  0  0  0  0  0
  -24.2920  -30.7419   21.2525 C   0  0  0  0  0  0  0  0  0  0  0  0
  -27.5483  -24.7788   22.7865 C   0  0  0  0  0  0  0  0  0  0  0  0
  -30.1702  -25.1869   21.4813 C   0  0  0  0  0  0  0  0  0  0  0  0
  -25.8094  -30.5792   21.2893 C   0  0  0  0  0  0  0  0  0  0  0  0
  -30.1183  -13.5568   20.7877 C   0  0  0  0  0  0  0  0  0  0  0  0
  -26.2674  -29.5994   20.2136 C   0  0  0  0  0  0  0  0  0  0  0  0
  -28.6635  -13.5204   21.2593 C   0  0  0  0  0  0  0  0  0  0  0  0
  -30.4115  -14.8050   19.9582 C   0  0  0  0  0  0  0  0  0  0  0  0
  -28.0461  -14.9825   19.2896 C   0  0  0  0  0  0  0  0  0  0  0  0
  -25.6670  -28.2072   20.4437 C   0  0  1  0  0  0  0  0  0  0  0  0
  -28.1079  -26.1742   22.5275 C   0  0  1  0  0  0  0  0  0  0  0  0
  -27.6878  -13.7143   20.0831 C   0  0  2  0  0  0  0  0  0  0  0  0
  -26.9076  -15.1823    9.8688 C   0  0  0  0  0  0  0  0  0  0  0  0
  -23.6582  -14.8145   13.8028 C   0  0  0  0  0  0  0  0  0  0  0  0
  -35.3236  -26.5482   25.3199 C   0  0  0  0  0  0  0  0  0  0  0  0
  -31.3204  -28.8657   20.5791 C   0  0  0  0  0  0  0  0  0  0  0  0
  -33.6336  -28.6284   21.5069 C   0  0  0  0  0  0  0  0  0  0  0  0
  -31.8803  -29.8195   22.8222 C   0  0  0  0  0  0  0  0  0  0  0  0
  -32.7564  -23.8277   26.0162 C   0  0  0  0  0  0  0  0  0  0  0  0
  -29.0960  -18.1107   15.2727 C   0  0  0  0  0  0  0  0  0  0  0  0
  -29.2760  -15.1801   15.1484 C   0  0  0  0  0  0  0  0  0  0  0  0
  -26.1446  -14.2829   10.8342 C   0  0  0  0  0  0  0  0  0  0  0  0
  -24.5362  -14.1008   12.7815 C   0  0  0  0  0  0  0  0  0  0  0  0
  -28.4702  -18.6242   16.5743 C   0  0  0  0  0  0  0  0  0  0  0  0
  -29.4205  -19.5020   17.3898 C   0  0  0  0  0  0  0  0  0  0  0  0
  -28.7789  -19.9601   18.6926 C   0  0  0  0  0  0  0  0  0  1  0  0
  -25.4338  -15.0811   11.9681 C   0  0  0  0  0  0  0  0  0  0  0  0
  -31.7601  -27.3050   22.5883 C   0  0  1  0  0  0  0  0  0  0  0  0
  -33.9323  -25.9367   25.3774 C   0  0  2  0  0  0  0  0  0  0  0  0
  -32.1329  -28.6316   21.8683 C   0  0  0  0  0  0  0  0  0  0  0  0
  -25.6641  -14.8969   20.8503 N   0  0  0  0  0  0  0  0  0  0  0  0
  -26.2436  -13.7224   20.5493 N   0  0  0  0  0  0  0  0  0  0  0  0
  -29.5651  -26.1809   22.3831 N   0  0  0  0  0  0  0  0  0  0  0  0
  -29.4519  -14.9295   18.8585 N   0  0  0  0  0  0  0  0  0  0  0  0
  -25.8445  -11.3897   20.4501 N   0  0  0  0  0  0  0  0  0  0  0  0
  -21.9017  -13.0613   21.8840 N   0  0  0  0  0  0  0  0  0  0  0  0
  -26.3775  -27.5187   21.4999 N   0  0  0  0  0  0  0  0  0  0  0  0
  -32.4948  -27.0703   23.8267 N   0  0  0  0  0  0  0  0  0  0  0  0
  -28.9474  -15.1071   16.5547 N   0  0  0  0  0  0  0  0  0  0  0  0
  -34.0529  -24.5414   25.8869 N   0  3  0  0  0  0  0  0  0  0  0  0
  -23.0236  -11.1333   21.3521 O   0  0  0  0  0  0  0  0  0  0  0  0
  -28.1193  -26.6578   20.2164 O   0  0  0  0  0  0  0  0  0  0  0  0
  -29.8181  -28.0849   23.7049 O   0  0  0  0  0  0  0  0  0  0  0  0
  -33.4245  -25.0434   23.1907 O   0  0  0  0  0  0  0  0  0  0  0  0
  -31.1257  -14.9548   17.2536 O   0  0  0  0  0  0  0  0  0  0  0  0
  -20.7336  -18.4340   22.7814 O   0  0  0  0  0  0  0  0  0  0  0  0
  -29.7058  -20.7843   19.3983 O   0  0  0  0  0  0  0  0  0  1  0  0
  -15.6212  -18.0715   20.7478 F   0  0  0  0  0  0  0  0  0  0  0  0
  -19.6617  -20.4822   21.2654 F   0  0  0  0  0  0  0  0  0  0  0  0
  1  2  1  0  0  0  0
  1  5  2  0  0  0  0
  2  6  2  0  0  0  0
  3 10  2  0  0  0  0
  3 18  1  0  0  0  0
  4 11  1  0  0  0  0
  4 18  2  0  0  0  0
  5 20  1  0  0  0  0
  6 22  1  0  0  0  0
  7 12  2  0  0  0  0
  7 21  1  0  0  0  0
  8  9  2  0  0  0  0
  8 24  1  0  0  0  0
  9 25  1  0  0  0  0
 10 27  1  0  0  0  0
 11 27  2  0  0  0  0
 12 28  1  0  0  0  0
 13 14  2  0  0  0  0
 13 29  1  0  0  0  0
 14 30  1  0  0  0  0
 15 23  1  0  0  0  0
 15 28  2  0  0  0  0
 16 24  2  0  0  0  0
 16 26  1  0  0  0  0
 17 30  2  0  0  0  0
 17 31  1  0  0  0  0
 18 32  1  0  0  0  0
 19 32  1  0  0  0  0
 19 33  2  0  0  0  0
 19 34  1  0  0  0  0
 20 22  2  0  0  0  0
 20 39  1  0  0  0  0
 21 23  2  0  0  0  0
 21 40  1  0  0  0  0
 22 48  1  0  0  0  0
 23 41  1  0  0  0  0
 24 65  1  0  0  0  0
 25 26  2  0  0  0  0
 25 58  1  0  0  0  0
 26 59  1  0  0  0  0
 27 84  1  0  0  0  0
 28 85  1  0  0  0  0
 29 31  2  0  0  0  0
 29 84  1  0  0  0  0
 30 86  1  0  0  0  0
 31 87  1  0  0  0  0
 32 69  2  0  0  0  0
 33 70  1  0  0  0  0
 33 73  1  0  0  0  0
 34 74  1  0  0  0  0
 34 79  2  0  0  0  0
 35 49  1  0  0  0  0
 35 75  1  0  0  0  0
 35 80  2  0  0  0  0
 36 66  1  0  0  0  0
 36 71  1  0  0  0  0
 36 81  2  0  0  0  0
 37 67  1  0  0  0  0
 37 76  1  0  0  0  0
 37 82  2  0  0  0  0
 38 72  1  0  0  0  0
 38 77  1  0  0  0  0
 38 83  2  0  0  0  0
 39 42  1  0  0  0  0
 40 49  1  0  0  0  0
 41 71  1  0  0  0  0
 42 44  1  0  0  0  0
 43 45  1  0  0  0  0
 43 46  1  0  0  0  0
 44 48  1  0  0  0  0
 45 50  1  0  0  0  0
 46 72  1  0  0  0  0
 47 50  1  0  0  0  0
 47 72  1  0  0  0  0
 48 75  1  0  0  0  0
 49 71  1  0  0  0  0
 50 70  1  0  0  0  0
 51 60  1  0  0  0  0
 52 61  1  0  0  0  0
 53 67  1  0  0  0  0
 54 68  1  0  0  0  0
 55 68  1  0  0  0  0
 56 68  1  0  0  0  0
 57 78  1  0  0  0  0
 58 62  1  0  0  0  0
 59 77  1  0  0  0  0
 60 65  1  0  0  0  0
 61 65  1  0  0  0  0
 62 63  1  0  0  0  0
 63 64  1  0  0  0  0
 64 85  1  0  0  0  0
 66 68  1  0  0  0  0
 66 76  1  0  0  0  0
 67 78  1  0  0  0  0
 69 70  1  0  0  0  0
M  CHG  1  78   1
M  ISO  4  38 100  64 101  77 100  85 101
M  END
> <Batch ID>
0102

> <Smiles>
CCC(CC)c1ccc(CCC[101CH2:1][101O:1]c2ccc3c(c2)CN(C(=O)C(NC(=O)C(C)NC)C(C)(C)C)C(C(=O)NC2CCCc4ccccc42)C3)c(C[100NH:0][100C:0](=O)N2CCCC(n3nc(-c4ccc(Oc5ccc(F)cc5F)cc4)c(C(N)=O)c3N)C2)c1

> <Shape>
0.177

> <Color>
0.097

> <Negative vol penalty>
0.000

$$$$

  -OEChem-04052319383D

 84 92  0     1  0  0  0  0  0999 V2000
  -13.9731  -18.2940   17.5506 C   0  0  0  0  0  0  0  0  0  0  0  0
  -15.0891  -19.1238   17.5141 C   0  0  0  0  0  0  0  0  0  0  0  0
  -23.0012   -9.8945   19.9807 C   0  0  0  0  0  0  0  0  0  0  0  0
  -23.7314   -9.9426   22.2832 C   0  0  0  0  0  0  0  0  0  0  0  0
  -14.1304  -16.9250   17.7628 C   0  0  0  0  0  0  0  0  0  0  0  0
  -16.3631  -18.5852   17.6908 C   0  0  0  0  0  0  0  0  0  0  0  0
  -23.1525  -19.5049   15.5993 C   0  0  0  0  0  0  0  0  0  0  0  0
  -22.2366   -8.7587   20.2468 C   0  0  0  0  0  0  0  0  0  0  0  0
  -22.9667   -8.8068   22.5494 C   0  0  0  0  0  0  0  0  0  0  0  0
  -24.4325  -19.6547   16.1312 C   0  0  0  0  0  0  0  0  0  0  0  0
  -23.2140   -5.4689   22.0715 C   0  0  0  0  0  0  0  0  0  0  0  0
  -23.8044   -4.4512   22.8207 C   0  0  0  0  0  0  0  0  0  0  0  0
  -24.5892  -17.2639   16.4116 C   0  0  0  0  0  0  0  0  0  0  0  0
  -28.6230  -17.8094   19.4075 C   0  0  0  0  0  0  0  0  0  0  0  0
  -29.4534  -18.2400   17.1800 C   0  0  0  0  0  0  0  0  0  0  0  0
  -22.0839   -4.6894   24.5001 C   0  0  0  0  0  0  0  0  0  0  0  0
  -23.7486  -10.4865   20.9988 C   0  0  0  0  0  0  0  0  0  0  0  0
  -24.1306  -13.0028   20.8260 C   0  0  0  0  0  0  0  0  0  0  0  0
  -15.4077  -16.3680   17.9326 C   0  0  0  0  0  0  0  0  0  0  0  0
  -22.5760  -18.2322   15.4794 C   0  0  0  0  0  0  0  0  0  0  0  0
  -16.5376  -17.2077   17.9068 C   0  0  0  0  0  0  0  0  0  0  0  0
  -23.3028  -17.1004   15.8754 C   0  0  0  0  0  0  0  0  0  0  0  0
  -28.4161  -17.8540   18.0289 C   0  0  0  0  0  0  0  0  0  0  0  0
  -29.8673  -18.1510   19.9375 C   0  0  0  0  0  0  0  0  0  0  0  0
  -30.6978  -18.5815   17.7099 C   0  0  0  0  0  0  0  0  0  0  0  0
  -30.9047  -18.5370   19.0886 C   0  0  0  0  0  0  0  0  0  0  0  0
  -22.2194   -8.2148   21.5312 C   0  0  0  0  0  0  0  0  0  0  0  0
  -25.1499  -18.5343   16.5401 C   0  0  0  0  0  0  0  0  0  0  0  0
  -22.0586   -6.0969   22.5367 C   0  0  0  0  0  0  0  0  0  0  0  0
  -23.2394   -4.0614   24.0350 C   0  0  0  0  0  0  0  0  0  0  0  0
  -21.4935   -5.7071   23.7509 C   0  0  0  0  0  0  0  0  0  0  0  0
  -24.5391  -11.6595   20.7243 C   0  0  0  0  0  0  0  0  0  0  0  0
  -25.2386  -13.7273   20.4604 C   0  0  0  0  0  0  0  0  0  0  0  0
  -22.8628  -13.5471   21.2162 C   0  0  0  0  0  0  0  0  0  0  0  0
  -20.0050  -16.8109   16.6933 C   0  0  0  0  0  0  0  0  0  0  0  0
  -20.8549  -14.4179   14.6751 C   0  0  0  0  0  0  0  0  0  0  0  0
  -23.3169  -12.8750   12.8848 C   0  0  0  0  0  0  0  0  0  0  0  0
  -30.7344  -14.6681   20.6984 C   0  0  0  0  0  0  0  0  0  0  0  0
  -15.5243  -14.8894   18.2064 C   0  0  0  0  0  0  0  0  0  0  0  0
  -21.2048  -18.0852   14.8788 C   0  0  0  0  0  0  0  0  0  0  0  0
  -22.7369  -15.7103   15.7490 C   0  0  0  0  0  0  0  0  0  0  0  0
  -16.9364  -14.3433   18.0111 C   0  0  0  0  0  0  0  0  0  0  0  0
  -29.5915  -12.2468   18.3515 C   0  0  0  0  0  0  0  0  0  0  0  0
  -17.9586  -15.2530   18.6851 C   0  0  0  0  0  0  0  0  0  0  0  0
  -28.1443  -11.9847   18.7718 C   0  0  0  0  0  0  0  0  0  0  0  0
  -30.4963  -12.4814   19.5591 C   0  0  0  0  0  0  0  0  0  0  0  0
  -28.5881  -13.2724   20.9034 C   0  0  0  0  0  0  0  0  0  0  0  0
  -17.9378  -16.6574   18.0696 C   0  0  1  0  0  0  0  0  0  0  0  0
  -20.5131  -16.7859   15.2795 C   0  0  1  0  0  0  0  0  0  0  0  0
  -27.6268  -13.0855   19.7172 C   0  0  2  0  0  0  0  0  0  0  0  0
  -32.2388  -18.9028   19.6570 C   0  0  0  0  0  0  0  0  0  0  0  0
  -31.4458  -20.2689   15.9933 C   0  0  0  0  0  0  0  0  0  0  0  0
  -32.1858  -17.8664   15.8050 C   0  0  0  0  0  0  0  0  0  0  0  0
  -23.7154  -10.9205   11.3622 C   0  0  0  0  0  0  0  0  0  0  0  0
  -20.7792  -12.5356   17.0754 C   0  0  0  0  0  0  0  0  0  0  0  0
  -22.0744  -10.8729   15.7241 C   0  0  0  0  0  0  0  0  0  0  0  0
  -19.8050  -11.5885   14.9758 C   0  0  0  0  0  0  0  0  0  0  0  0
  -24.1592  -14.6331   10.6581 C   0  0  0  0  0  0  0  0  0  0  0  0
  -30.0633  -18.0940   21.4173 C   0  0  0  0  0  0  0  0  0  0  0  0
  -27.0774  -17.4872   17.4589 C   0  0  0  0  0  0  0  0  0  1  0  0
  -30.8171  -16.8452   21.8869 C   0  0  0  0  0  0  0  0  0  0  0  0
  -31.7923  -18.9915   16.7794 C   0  0  0  0  0  0  0  0  0  0  0  0
  -21.7422  -13.2005   14.7739 C   0  0  1  0  0  0  0  0  0  0  0  0
  -23.3671  -12.3986   11.4444 C   0  0  2  0  0  0  0  0  0  0  0  0
  -21.1104  -12.0756   15.6416 C   0  0  0  0  0  0  0  0  0  0  0  0
  -25.8077  -11.5351   20.3252 N   0  0  0  0  0  0  0  0  0  0  0  0
  -26.2058  -12.8096   20.1728 N   0  0  0  0  0  0  0  0  0  0  0  0
  -21.3900  -15.6191   15.1616 N   0  0  0  0  0  0  0  0  0  0  0  0
  -29.9501  -13.5380   20.4141 N   0  0  0  0  0  0  0  0  0  0  0  0
  -25.4703  -15.0535   20.3599 N   0  0  0  0  0  0  0  0  0  0  0  0
  -21.8328  -12.6611   21.5606 N   0  0  0  0  0  0  0  0  0  0  0  0
  -18.6353  -16.6638   16.8016 N   0  0  0  0  0  0  0  0  0  0  0  0
  -22.0413  -12.8010   13.4030 N   0  0  0  0  0  0  0  0  0  0  0  0
  -30.1387  -15.6248   21.5111 N   0  0  0  0  0  0  0  0  0  0  0  0
  -24.3911  -13.1659   10.6804 N   0  3  0  0  0  0  0  0  0  0  0  0
  -22.6447  -14.7821   21.2424 O   0  0  0  0  0  0  0  0  0  0  0  0
  -20.7971  -16.9518   17.6177 O   0  0  0  0  0  0  0  0  0  0  0  0
  -19.7314  -14.3086   14.1778 O   0  0  0  0  0  0  0  0  0  0  0  0
  -24.3106  -13.2696   13.4910 O   0  0  0  0  0  0  0  0  0  0  0  0
  -31.8787  -14.8161   20.2561 O   0  0  0  0  0  0  0  0  0  0  0  0
  -21.4732   -7.1066   21.7913 O   0  0  0  0  0  0  0  0  0  0  0  0
  -26.3992  -18.6778   17.0603 O   0  0  0  0  0  0  0  0  0  1  0  0
  -23.8056   -3.0830   24.7536 F   0  0  0  0  0  0  0  0  0  0  0  0
  -20.3829   -6.3059   24.2023 F   0  0  0  0  0  0  0  0  0  0  0  0
  1  2  1  0  0  0  0
  1  5  2  0  0  0  0
  2  6  2  0  0  0  0
  3  8  2  0  0  0  0
  3 17  1  0  0  0  0
  4  9  1  0  0  0  0
  4 17  2  0  0  0  0
  5 19  1  0  0  0  0
  6 21  1  0  0  0  0
  7 10  2  0  0  0  0
  7 20  1  0  0  0  0
  8 27  1  0  0  0  0
  9 27  2  0  0  0  0
 10 28  1  0  0  0  0
 11 12  2  0  0  0  0
 11 29  1  0  0  0  0
 12 30  1  0  0  0  0
 13 22  1  0  0  0  0
 13 28  2  0  0  0  0
 14 23  1  0  0  0  0
 14 24  2  0  0  0  0
 15 23  2  0  0  0  0
 15 25  1  0  0  0  0
 16 30  2  0  0  0  0
 16 31  1  0  0  0  0
 17 32  1  0  0  0  0
 18 32  1  0  0  0  0
 18 33  2  0  0  0  0
 18 34  1  0  0  0  0
 19 21  2  0  0  0  0
 19 39  1  0  0  0  0
 20 22  2  0  0  0  0
 20 40  1  0  0  0  0
 21 48  1  0  0  0  0
 22 41  1  0  0  0  0
 23 60  1  0  0  0  0
 24 26  1  0  0  0  0
 24 59  1  0  0  0  0
 25 26  2  0  0  0  0
 25 62  1  0  0  0  0
 26 51  1  0  0  0  0
 27 81  1  0  0  0  0
 28 82  1  0  0  0  0
 29 31  2  0  0  0  0
 29 81  1  0  0  0  0
 30 83  1  0  0  0  0
 31 84  1  0  0  0  0
 32 66  2  0  0  0  0
 33 67  1  0  0  0  0
 33 70  1  0  0  0  0
 34 71  1  0  0  0  0
 34 76  2  0  0  0  0
 35 49  1  0  0  0  0
 35 72  1  0  0  0  0
 35 77  2  0  0  0  0
 36 63  1  0  0  0  0
 36 68  1  0  0  0  0
 36 78  2  0  0  0  0
 37 64  1  0  0  0  0
 37 73  1  0  0  0  0
 37 79  2  0  0  0  0
 38 69  1  0  0  0  0
 38 74  1  0  0  0  0
 38 80  2  0  0  0  0
 39 42  1  0  0  0  0
 40 49  1  0  0  0  0
 41 68  1  0  0  0  0
 42 44  1  0  0  0  0
 43 45  1  0  0  0  0
 43 46  1  0  0  0  0
 44 48  1  0  0  0  0
 45 50  1  0  0  0  0
 46 69  1  0  0  0  0
 47 50  1  0  0  0  0
 47 69  1  0  0  0  0
 48 72  1  0  0  0  0
 49 68  1  0  0  0  0
 50 67  1  0  0  0  0
 52 62  1  0  0  0  0
 53 62  1  0  0  0  0
 54 64  1  0  0  0  0
 55 65  1  0  0  0  0
 56 65  1  0  0  0  0
 57 65  1  0  0  0  0
 58 75  1  0  0  0  0
 59 61  1  0  0  0  0
 60 82  1  0  0  0  0
 61 74  1  0  0  0  0
 63 65  1  0  0  0  0
 63 73  1  0  0  0  0
 64 75  1  0  0  0  0
 66 67  1  0  0  0  0
M  CHG  1  75   1
M  ISO  4  38 100  60 101  74 100  82 101
M  END
> <Batch ID>
0102

> <Smiles>
CNC(C)C(=O)NC(C(=O)N1Cc2cc([101O:1][101CH2:1]c3cc(CC[100NH:0][100C:0](=O)N4CCCC(n5nc(-c6ccc(Oc7ccc(F)cc7F)cc6)c(C(N)=O)c5N)C4)c(C)c(C(C)C)c3)ccc2CC1C(=O)NC1CCCc2ccccc21)C(C)(C)C

> <Shape>
0.197

> <Color>
0.202

> <Negative vol penalty>
0.000

$$$$

  -OEChem-04052319383D

 81 89  0     1  0  0  0  0  0999 V2000
  -21.9376  -23.4744   20.5359 C   0  0  0  0  0  0  0  0  0  0  0  0
  -23.1662  -22.8346   20.6654 C   0  0  0  0  0  0  0  0  0  0  0  0
  -23.4713  -30.2638   20.4275 C   0  0  0  0  0  0  0  0  0  0  0  0
  -23.3481  -28.5652   22.1412 C   0  0  0  0  0  0  0  0  0  0  0  0
  -20.7794  -22.8595   21.0096 C   0  0  0  0  0  0  0  0  0  0  0  0
  -23.2374  -21.5800   21.2698 C   0  0  0  0  0  0  0  0  0  0  0  0
  -26.1874  -18.3557   18.7112 C   0  0  0  0  0  0  0  0  0  0  0  0
  -22.2033  -30.7196   20.7880 C   0  0  0  0  0  0  0  0  0  0  0  0
  -22.0801  -29.0211   22.5018 C   0  0  0  0  0  0  0  0  0  0  0  0
  -27.5662  -18.4982   18.8611 C   0  0  0  0  0  0  0  0  0  0  0  0
  -18.9112  -28.7337   21.3588 C   0  0  0  0  0  0  0  0  0  0  0  0
  -17.9159  -27.7799   21.5715 C   0  0  0  0  0  0  0  0  0  0  0  0
  -27.5766  -16.6754   20.4411 C   0  0  0  0  0  0  0  0  0  0  0  0
  -17.6635  -28.5507   23.8473 C   0  0  0  0  0  0  0  0  0  0  0  0
  -31.5028  -20.5806   20.3806 C   0  0  0  0  0  0  0  0  0  0  0  0
  -24.0437  -29.1866   21.1040 C   0  0  0  0  0  0  0  0  0  0  0  0
  -26.5903  -29.1454   21.2475 C   0  0  0  0  0  0  0  0  0  0  0  0
  -20.8351  -21.5924   21.6114 C   0  0  0  0  0  0  0  0  0  0  0  0
  -25.4901  -17.3775   19.4346 C   0  0  0  0  0  0  0  0  0  0  0  0
  -22.0790  -20.9482   21.7532 C   0  0  0  0  0  0  0  0  0  0  0  0
  -26.1894  -16.5208   20.2967 C   0  0  0  0  0  0  0  0  0  0  0  0
  -31.1372  -21.8524   20.7628 C   0  0  0  0  0  0  0  0  0  0  0  0
  -30.5890  -21.7614   22.0660 C   0  0  0  0  0  0  0  0  0  0  0  0
  -21.5077  -30.0982   21.8252 C   0  0  0  0  0  0  0  0  0  0  0  0
  -28.2606  -17.6599   19.7284 C   0  0  0  0  0  0  0  0  0  0  0  0
  -19.2827  -29.5960   22.3904 C   0  0  0  0  0  0  0  0  0  0  0  0
  -17.2920  -27.6884   22.8157 C   0  0  0  0  0  0  0  0  0  0  0  0
  -18.6588  -29.5045   23.6346 C   0  0  0  0  0  0  0  0  0  0  0  0
  -25.3532  -28.7149   20.7316 C   0  0  0  0  0  0  0  0  0  0  0  0
  -30.6364  -20.4367   22.4406 C   0  0  0  0  0  0  0  0  0  0  0  0
  -27.5231  -28.3960   20.5730 C   0  0  0  0  0  0  0  0  0  0  0  0
  -26.8712  -30.1342   22.2470 C   0  0  0  0  0  0  0  0  0  0  0  0
  -23.1757  -17.4225   21.6129 C   0  0  0  0  0  0  0  0  0  0  0  0
  -23.2990  -14.2021   21.2439 C   0  0  0  0  0  0  0  0  0  0  0  0
  -25.1095  -11.4582   20.3275 C   0  0  0  0  0  0  0  0  0  0  0  0
  -29.2960  -23.5087   18.5442 C   0  0  0  0  0  0  0  0  0  0  0  0
  -19.5628  -20.9884   22.1507 C   0  0  0  0  0  0  0  0  0  0  0  0
  -24.0069  -17.2191   19.2414 C   0  0  0  0  0  0  0  0  0  0  0  0
  -25.4906  -15.4414   21.0808 C   0  0  0  0  0  0  0  0  0  0  0  0
  -19.6736  -19.4939   22.4414 C   0  0  0  0  0  0  0  0  0  0  0  0
  -27.0349  -25.3878   16.5359 C   0  0  0  0  0  0  0  0  0  0  0  0
  -20.9590  -19.1924   23.2053 C   0  0  0  0  0  0  0  0  0  0  0  0
  -26.4937  -26.4518   17.4923 C   0  0  0  0  0  0  0  0  0  0  0  0
  -27.2589  -24.0536   17.2442 C   0  0  0  0  0  0  0  0  0  0  0  0
  -27.5596  -25.1919   19.4094 C   0  0  0  0  0  0  0  0  0  0  0  0
  -22.1937  -19.5759   22.3807 C   0  0  1  0  0  0  0  0  0  0  0  0
  -23.3220  -16.5265   20.4156 C   0  0  1  0  0  0  0  0  0  0  0  0
  -27.3705  -26.5704   18.7534 C   0  0  2  0  0  0  0  0  0  0  0  0
  -30.0627  -22.8794   22.8760 C   0  0  0  0  0  0  0  0  0  0  0  0
  -30.1995  -19.7832   23.6925 C   0  0  0  0  0  0  0  0  0  0  0  0
  -24.9550   -8.9583   20.1713 C   0  0  0  0  0  0  0  0  0  0  0  0
  -23.6428  -13.9943   24.2686 C   0  0  0  0  0  0  0  0  0  0  0  0
  -24.4218  -11.6366   23.9481 C   0  0  0  0  0  0  0  0  0  0  0  0
  -22.1101  -12.2871   23.2732 C   0  0  0  0  0  0  0  0  0  0  0  0
  -25.5376  -11.4986   17.3993 C   0  0  0  0  0  0  0  0  0  0  0  0
  -31.2926  -23.0778   19.9539 C   0  0  0  0  0  0  0  0  0  0  0  0
  -31.4380  -18.2388   21.3875 C   0  0  0  0  0  0  0  0  0  0  0  0
  -30.1589  -17.4451   21.1447 C   0  0  0  0  0  0  0  0  0  1  0  0
  -24.0739  -13.0806   21.8926 C   0  0  1  0  0  0  0  0  0  0  0  0
  -24.7675  -10.2770   19.4373 C   0  0  2  0  0  0  0  0  0  0  0  0
  -23.5753  -12.7712   23.3325 C   0  0  0  0  0  0  0  0  0  0  0  0
  -25.4848  -27.7658   19.8011 N   0  0  0  0  0  0  0  0  0  0  0  0
  -31.1940  -19.7282   21.4084 N   0  0  0  0  0  0  0  0  0  0  0  0
  -26.8156  -27.5938   19.7268 N   0  0  0  0  0  0  0  0  0  0  0  0
  -24.0388  -15.3304   20.8625 N   0  0  0  0  0  0  0  0  0  0  0  0
  -28.0992  -24.2352   18.4303 N   0  0  0  0  0  0  0  0  0  0  0  0
  -28.8712  -28.3518   20.6270 N   0  0  0  0  0  0  0  0  0  0  0  0
  -25.7955  -30.8103   22.8388 N   0  0  0  0  0  0  0  0  0  0  0  0
  -22.4553  -18.5759   21.3677 N   0  0  0  0  0  0  0  0  0  0  0  0
  -23.9960  -11.9476   20.9769 N   0  0  0  0  0  0  0  0  0  0  0  0
  -30.0358  -23.7449   19.6964 N   0  0  0  0  0  0  0  0  0  0  0  0
  -25.6390  -10.2700   18.2284 N   0  3  0  0  0  0  0  0  0  0  0  0
  -28.0421  -30.4216   22.5931 O   0  0  0  0  0  0  0  0  0  0  0  0
  -23.6778  -17.0911   22.6805 O   0  0  0  0  0  0  0  0  0  0  0  0
  -22.0834  -14.0785   21.0752 O   0  0  0  0  0  0  0  0  0  0  0  0
  -26.2510  -11.8999   20.4387 O   0  0  0  0  0  0  0  0  0  0  0  0
  -29.6796  -22.7128   17.6803 O   0  0  0  0  0  0  0  0  0  0  0  0
  -20.2705  -30.5429   22.1775 O   0  0  0  0  0  0  0  0  0  0  0  0
  -29.6063  -17.7972   19.8771 O   0  0  0  0  0  0  0  0  0  1  0  0
  -16.3352  -26.7734   23.0193 F   0  0  0  0  0  0  0  0  0  0  0  0
  -19.0107  -30.3309   24.6292 F   0  0  0  0  0  0  0  0  0  0  0  0
  1  2  1  0  0  0  0
  1  5  2  0  0  0  0
  2  6  2  0  0  0  0
  3  8  2  0  0  0  0
  3 16  1  0  0  0  0
  4  9  1  0  0  0  0
  4 16  2  0  0  0  0
  5 18  1  0  0  0  0
  6 20  1  0  0  0  0
  7 10  2  0  0  0  0
  7 19  1  0  0  0  0
  8 24  1  0  0  0  0
  9 24  2  0  0  0  0
 10 25  1  0  0  0  0
 11 12  2  0  0  0  0
 11 26  1  0  0  0  0
 12 27  1  0  0  0  0
 13 21  1  0  0  0  0
 13 25  2  0  0  0  0
 14 27  2  0  0  0  0
 14 28  1  0  0  0  0
 15 22  2  0  0  0  0
 15 63  1  0  0  0  0
 16 29  1  0  0  0  0
 17 29  1  0  0  0  0
 17 31  2  0  0  0  0
 17 32  1  0  0  0  0
 18 20  2  0  0  0  0
 18 37  1  0  0  0  0
 19 21  2  0  0  0  0
 19 38  1  0  0  0  0
 20 46  1  0  0  0  0
 21 39  1  0  0  0  0
 22 23  1  0  0  0  0
 22 56  1  0  0  0  0
 23 30  2  0  0  0  0
 23 49  1  0  0  0  0
 24 78  1  0  0  0  0
 25 79  1  0  0  0  0
 26 28  2  0  0  0  0
 26 78  1  0  0  0  0
 27 80  1  0  0  0  0
 28 81  1  0  0  0  0
 29 62  2  0  0  0  0
 30 50  1  0  0  0  0
 30 63  1  0  0  0  0
 31 64  1  0  0  0  0
 31 67  1  0  0  0  0
 32 68  1  0  0  0  0
 32 73  2  0  0  0  0
 33 47  1  0  0  0  0
 33 69  1  0  0  0  0
 33 74  2  0  0  0  0
 34 59  1  0  0  0  0
 34 65  1  0  0  0  0
 34 75  2  0  0  0  0
 35 60  1  0  0  0  0
 35 70  1  0  0  0  0
 35 76  2  0  0  0  0
 36 66  1  0  0  0  0
 36 71  1  0  0  0  0
 36 77  2  0  0  0  0
 37 40  1  0  0  0  0
 38 47  1  0  0  0  0
 39 65  1  0  0  0  0
 40 42  1  0  0  0  0
 41 43  1  0  0  0  0
 41 44  1  0  0  0  0
 42 46  1  0  0  0  0
 43 48  1  0  0  0  0
 44 66  1  0  0  0  0
 45 48  1  0  0  0  0
 45 66  1  0  0  0  0
 46 69  1  0  0  0  0
 47 65  1  0  0  0  0
 48 64  1  0  0  0  0
 51 60  1  0  0  0  0
 52 61  1  0  0  0  0
 53 61  1  0  0  0  0
 54 61  1  0  0  0  0
 55 72  1  0  0  0  0
 56 71  1  0  0  0  0
 57 58  1  0  0  0  0
 57 63  1  0  0  0  0
 58 79  1  0  0  0  0
 59 61  1  0  0  0  0
 59 70  1  0  0  0  0
 60 72  1  0  0  0  0
 62 64  1  0  0  0  0
M  CHG  1  72   1
M  ISO  4  36 100  58 101  71 100  79 101
M  END
> <Batch ID>
0102

> <Smiles>
CNC(C)C(=O)NC(C(=O)N1Cc2cc([101O:1][101CH2:1]Cn3cc(C[100NH:0][100C:0](=O)N4CCCC(n5nc(-c6ccc(Oc7ccc(F)cc7F)cc6)c(C(N)=O)c5N)C4)c(C)c3C)ccc2CC1C(=O)NC1CCCc2ccccc21)C(C)(C)C

> <Shape>
0.237

> <Color>
0.067

> <Negative vol penalty>
0.000

$$$$

  -OEChem-04052319383D

 86 94  0     1  0  0  0  0  0999 V2000
  -20.4643  -25.6627   25.5947 C   0  0  0  0  0  0  0  0  0  0  0  0
  -21.5154  -25.5125   24.6958 C   0  0  0  0  0  0  0  0  0  0  0  0
  -29.0246  -11.0835   21.6045 C   0  0  0  0  0  0  0  0  0  0  0  0
  -28.9121  -12.2817   23.6994 C   0  0  0  0  0  0  0  0  0  0  0  0
  -19.4129  -26.5289   25.2977 C   0  0  0  0  0  0  0  0  0  0  0  0
  -21.5151  -26.2277   23.4987 C   0  0  0  0  0  0  0  0  0  0  0  0
  -26.0233  -28.2911   22.4676 C   0  0  0  0  0  0  0  0  0  0  0  0
  -29.6960  -10.0381   22.2385 C   0  0  0  0  0  0  0  0  0  0  0  0
  -29.5835  -11.2363   24.3334 C   0  0  0  0  0  0  0  0  0  0  0  0
  -27.0075  -27.4472   21.9549 C   0  0  0  0  0  0  0  0  0  0  0  0
  -28.8402   -8.1666   25.5353 C   0  0  0  0  0  0  0  0  0  0  0  0
  -28.3452   -7.7315   26.7647 C   0  0  0  0  0  0  0  0  0  0  0  0
  -26.5402  -28.2622   19.7330 C   0  0  0  0  0  0  0  0  0  0  0  0
  -26.8937  -22.1821   20.4306 C   0  0  0  0  0  0  0  0  0  0  0  0
  -30.4513   -8.2880   27.8095 C   0  0  0  0  0  0  0  0  0  0  0  0
  -28.8308  -23.3063   20.6620 C   0  0  0  0  0  0  0  0  0  0  0  0
  -28.6327  -12.2054   22.3350 C   0  0  0  0  0  0  0  0  0  0  0  0
  -26.5483  -13.4314   21.5228 C   0  0  0  0  0  0  0  0  0  0  0  0
  -19.4045  -27.2623   24.1008 C   0  0  0  0  0  0  0  0  0  0  0  0
  -25.2814  -29.1203   21.6141 C   0  0  0  0  0  0  0  0  0  0  0  0
  -20.4620  -27.1035   23.1848 C   0  0  0  0  0  0  0  0  0  0  0  0
  -25.5489  -29.1175   20.2377 C   0  0  0  0  0  0  0  0  0  0  0  0
  -28.0398  -22.3428   21.2478 C   0  0  0  0  0  0  0  0  0  0  0  0
  -29.9755  -10.1145   23.6029 C   0  0  0  0  0  0  0  0  0  0  0  0
  -27.2641  -27.4305   20.5870 C   0  0  0  0  0  0  0  0  0  0  0  0
  -30.1408   -8.6622   25.4430 C   0  0  0  0  0  0  0  0  0  0  0  0
  -29.1508   -7.7923   27.9018 C   0  0  0  0  0  0  0  0  0  0  0  0
  -30.9463   -8.7230   26.5801 C   0  0  0  0  0  0  0  0  0  0  0  0
  -27.9396  -13.2858   21.6805 C   0  0  0  0  0  0  0  0  0  0  0  0
  -27.0194  -23.0523   19.3702 C   0  0  0  0  0  0  0  0  0  0  0  0
  -26.4020  -14.6139   20.8395 C   0  0  0  0  0  0  0  0  0  0  0  0
  -25.4833  -12.5744   21.9552 C   0  0  0  0  0  0  0  0  0  0  0  0
  -22.2056  -29.3809   20.8554 C   0  0  0  0  0  0  0  0  0  0  0  0
  -23.2323  -31.9834   19.2138 C   0  0  0  0  0  0  0  0  0  0  0  0
  -25.8046  -33.5976   17.6568 C   0  0  0  0  0  0  0  0  0  0  0  0
  -29.8316  -19.4988   20.3634 C   0  0  0  0  0  0  0  0  0  0  0  0
  -18.2229  -28.1507   23.8020 C   0  0  0  0  0  0  0  0  0  0  0  0
  -24.2416  -30.0444   22.1862 C   0  0  0  0  0  0  0  0  0  0  0  0
  -24.7943  -30.0033   19.2814 C   0  0  0  0  0  0  0  0  0  0  0  0
  -18.4836  -29.1548   22.6822 C   0  0  0  0  0  0  0  0  0  0  0  0
  -28.6671  -17.4334   17.7073 C   0  0  0  0  0  0  0  0  0  0  0  0
  -19.1492  -28.4683   21.4937 C   0  0  0  0  0  0  0  0  0  0  0  0
  -28.2230  -16.1494   18.4102 C   0  0  0  0  0  0  0  0  0  0  0  0
  -29.9061  -18.0371   18.3648 C   0  0  0  0  0  0  0  0  0  0  0  0
  -29.3432  -16.9822   20.5197 C   0  0  0  0  0  0  0  0  0  0  0  0
  -20.5099  -27.8807   21.8872 C   0  0  1  0  0  0  0  0  0  0  0  0
  -23.1933  -30.4707   21.1630 C   0  0  1  0  0  0  0  0  0  0  0  0
  -28.0641  -16.3666   19.9270 C   0  0  2  0  0  0  0  0  0  0  0  0
  -24.0891  -24.0285   19.6190 C   0  0  0  0  0  0  0  0  0  0  0  0
  -26.4895  -22.4296   16.9991 C   0  0  0  0  0  0  0  0  0  0  0  0
  -26.3290  -35.6903   16.3750 C   0  0  0  0  0  0  0  0  0  0  0  0
  -27.2547  -20.5575   22.9487 C   0  0  0  0  0  0  0  0  0  0  0  0
  -28.4371  -22.6007   23.7122 C   0  0  0  0  0  0  0  0  0  0  0  0
  -21.8604  -30.8158   16.7511 C   0  0  0  0  0  0  0  0  0  0  0  0
  -23.1897  -32.4035   15.3439 C   0  0  0  0  0  0  0  0  0  0  0  0
  -21.5772  -33.2848   17.0308 C   0  0  0  0  0  0  0  0  0  0  0  0
  -27.7758  -34.4814   19.6797 C   0  0  0  0  0  0  0  0  0  0  0  0
  -24.6013  -23.0766   18.5448 C   0  0  0  0  0  0  0  0  0  0  0  0
  -28.7410  -24.7848   18.5862 C   0  0  0  0  0  0  0  0  0  0  0  0
  -29.7038  -20.8345   22.4511 C   0  0  0  0  0  0  0  0  0  0  0  0
  -28.0343  -26.1255   18.7540 C   0  0  0  0  0  0  0  0  0  1  0  0
  -26.1127  -23.2926   18.2285 C   0  0  1  0  0  0  0  0  0  0  0  0
  -23.7389  -32.2330   17.8137 C   0  0  1  0  0  0  0  0  0  0  0  0
  -26.2947  -35.0317   17.7453 C   0  0  2  0  0  0  0  0  0  0  0  0
  -28.3330  -21.6136   22.4963 C   0  0  0  0  0  0  0  0  0  0  0  0
  -22.6046  -32.1661   16.7524 C   0  0  0  0  0  0  0  0  0  0  0  0
  -28.6281  -14.2951   21.1408 N   0  0  0  0  0  0  0  0  0  0  0  0
  -28.2008  -23.7302   19.5212 N   0  0  0  0  0  0  0  0  0  0  0  0
  -27.6655  -15.0861   20.6371 N   0  0  0  0  0  0  0  0  0  0  0  0
  -23.7831  -30.8846   19.8883 N   0  0  0  0  0  0  0  0  0  0  0  0
  -29.6893  -18.2191   19.8021 N   0  0  0  0  0  0  0  0  0  0  0  0
  -25.3173  -15.2853   20.3980 N   0  0  0  0  0  0  0  0  0  0  0  0
  -25.8098  -11.3986   22.6445 N   0  0  0  0  0  0  0  0  0  0  0  0
  -21.5096  -28.9246   21.9586 N   0  0  0  0  0  0  0  0  0  0  0  0
  -24.4431  -33.5100   17.8560 N   0  0  0  0  0  0  0  0  0  0  0  0
  -29.6022  -19.5847   21.7311 N   0  0  0  0  0  0  0  0  0  0  0  0
  -27.6681  -35.0751   18.3222 N   0  3  0  0  0  0  0  0  0  0  0  0
  -24.2785  -12.8352   21.7226 O   0  0  0  0  0  0  0  0  0  0  0  0
  -22.0830  -28.9844   19.7024 O   0  0  0  0  0  0  0  0  0  0  0  0
  -22.3845  -32.7399   19.6939 O   0  0  0  0  0  0  0  0  0  0  0  0
  -26.5541  -32.6504   17.4297 O   0  0  0  0  0  0  0  0  0  0  0  0
  -30.1350  -20.4923   19.6942 O   0  0  0  0  0  0  0  0  0  0  0  0
  -30.6304   -9.0945   24.2219 O   0  0  0  0  0  0  0  0  0  0  0  0
  -28.2238  -26.6073   20.0838 O   0  0  0  0  0  0  0  0  0  1  0  0
  -28.6748   -7.3759   29.0826 F   0  0  0  0  0  0  0  0  0  0  0  0
  -32.1962   -9.1993   26.4979 F   0  0  0  0  0  0  0  0  0  0  0  0
  1  2  1  0  0  0  0
  1  5  2  0  0  0  0
  2  6  2  0  0  0  0
  3  8  2  0  0  0  0
  3 17  1  0  0  0  0
  4  9  1  0  0  0  0
  4 17  2  0  0  0  0
  5 19  1  0  0  0  0
  6 21  1  0  0  0  0
  7 10  2  0  0  0  0
  7 20  1  0  0  0  0
  8 24  1  0  0  0  0
  9 24  2  0  0  0  0
 10 25  1  0  0  0  0
 11 12  2  0  0  0  0
 11 26  1  0  0  0  0
 12 27  1  0  0  0  0
 13 22  1  0  0  0  0
 13 25  2  0  0  0  0
 14 23  1  0  0  0  0
 14 30  2  0  0  0  0
 15 27  2  0  0  0  0
 15 28  1  0  0  0  0
 16 23  2  0  0  0  0
 16 68  1  0  0  0  0
 17 29  1  0  0  0  0
 18 29  1  0  0  0  0
 18 31  2  0  0  0  0
 18 32  1  0  0  0  0
 19 21  2  0  0  0  0
 19 37  1  0  0  0  0
 20 22  2  0  0  0  0
 20 38  1  0  0  0  0
 21 46  1  0  0  0  0
 22 39  1  0  0  0  0
 23 65  1  0  0  0  0
 24 83  1  0  0  0  0
 25 84  1  0  0  0  0
 26 28  2  0  0  0  0
 26 83  1  0  0  0  0
 27 85  1  0  0  0  0
 28 86  1  0  0  0  0
 29 67  2  0  0  0  0
 30 62  1  0  0  0  0
 30 68  1  0  0  0  0
 31 69  1  0  0  0  0
 31 72  1  0  0  0  0
 32 73  1  0  0  0  0
 32 78  2  0  0  0  0
 33 47  1  0  0  0  0
 33 74  1  0  0  0  0
 33 79  2  0  0  0  0
 34 63  1  0  0  0  0
 34 70  1  0  0  0  0
 34 80  2  0  0  0  0
 35 64  1  0  0  0  0
 35 75  1  0  0  0  0
 35 81  2  0  0  0  0
 36 71  1  0  0  0  0
 36 76  1  0  0  0  0
 36 82  2  0  0  0  0
 37 40  1  0  0  0  0
 38 47  1  0  0  0  0
 39 70  1  0  0  0  0
 40 42  1  0  0  0  0
 41 43  1  0  0  0  0
 41 44  1  0  0  0  0
 42 46  1  0  0  0  0
 43 48  1  0  0  0  0
 44 71  1  0  0  0  0
 45 48  1  0  0  0  0
 45 71  1  0  0  0  0
 46 74  1  0  0  0  0
 47 70  1  0  0  0  0
 48 69  1  0  0  0  0
 49 58  1  0  0  0  0
 50 62  1  0  0  0  0
 51 64  1  0  0  0  0
 52 65  1  0  0  0  0
 53 65  1  0  0  0  0
 54 66  1  0  0  0  0
 55 66  1  0  0  0  0
 56 66  1  0  0  0  0
 57 77  1  0  0  0  0
 58 62  1  0  0  0  0
 59 61  1  0  0  0  0
 59 68  1  0  0  0  0
 60 65  1  0  0  0  0
 60 76  1  0  0  0  0
 61 84  1  0  0  0  0
 63 66  1  0  0  0  0
 63 75  1  0  0  0  0
 64 77  1  0  0  0  0
 67 69  1  0  0  0  0
M  CHG  1  77   1
M  ISO  4  36 100  61 101  76 100  84 101
M  END
> <Batch ID>
0102

> <Smiles>
CCC(C)c1cc(C(C)(C)C[100NH:0][100C:0](=O)N2CCCC(n3nc(-c4ccc(Oc5ccc(F)cc5F)cc4)c(C(N)=O)c3N)C2)cn1C[101CH2:1][101O:1]c1ccc2c(c1)CN(C(=O)C(NC(=O)C(C)NC)C(C)(C)C)C(C(=O)NC1CCCc3ccccc31)C2

> <Shape>
0.201

> <Color>
0.121

> <Negative vol penalty>
0.000

$$$$

  -OEChem-04052319383D

 78 85  0     1  0  0  0  0  0999 V2000
  -27.8504  -20.8560   27.3054 C   0  0  0  0  0  0  0  0  0  0  0  0
  -27.9581  -21.4000   26.0295 C   0  0  0  0  0  0  0  0  0  0  0  0
  -24.2894  -14.2083   20.4719 C   0  0  0  0  0  0  0  0  0  0  0  0
  -26.2979  -14.1453   21.8132 C   0  0  0  0  0  0  0  0  0  0  0  0
  -26.6158  -20.8396   27.9530 C   0  0  0  0  0  0  0  0  0  0  0  0
  -26.8309  -21.9269   25.4000 C   0  0  0  0  0  0  0  0  0  0  0  0
  -27.7511  -26.3849   23.1808 C   0  0  0  0  0  0  0  0  0  0  0  0
  -24.3691  -12.8279   20.2877 C   0  0  0  0  0  0  0  0  0  0  0  0
  -26.3775  -12.7649   21.6291 C   0  0  0  0  0  0  0  0  0  0  0  0
  -28.4155  -26.3610   21.9553 C   0  0  0  0  0  0  0  0  0  0  0  0
  -23.8421   -9.2695   19.7637 C   0  0  0  0  0  0  0  0  0  0  0  0
  -22.6701   -8.5271   19.9089 C   0  0  0  0  0  0  0  0  0  0  0  0
  -26.3091  -26.6465   20.8147 C   0  0  0  0  0  0  0  0  0  0  0  0
  -22.4695   -9.2903   22.1924 C   0  0  0  0  0  0  0  0  0  0  0  0
  -25.2538  -14.8670   21.2346 C   0  0  0  0  0  0  0  0  0  0  0  0
  -24.5038  -16.9759   22.4584 C   0  0  0  0  0  0  0  0  0  0  0  0
  -25.4748  -21.3754   27.3350 C   0  0  0  0  0  0  0  0  0  0  0  0
  -26.3572  -26.5291   23.2321 C   0  0  0  0  0  0  0  0  0  0  0  0
  -25.5796  -21.9165   26.0394 C   0  0  0  0  0  0  0  0  0  0  0  0
  -25.6297  -26.6745   22.0423 C   0  0  0  0  0  0  0  0  0  0  0  0
  -25.4131  -12.1062   20.8663 C   0  0  0  0  0  0  0  0  0  0  0  0
  -27.6942  -26.4889   20.7719 C   0  0  0  0  0  0  0  0  0  0  0  0
  -24.3278  -10.0222   20.8330 C   0  0  0  0  0  0  0  0  0  0  0  0
  -21.9838   -8.5375   21.1232 C   0  0  0  0  0  0  0  0  0  0  0  0
  -23.6415  -10.0326   22.0473 C   0  0  0  0  0  0  0  0  0  0  0  0
  -25.1724  -16.2929   21.4248 C   0  0  0  0  0  0  0  0  0  0  0  0
  -24.7251  -18.3048   22.1910 C   0  0  0  0  0  0  0  0  0  0  0  0
  -23.7502  -16.4556   23.5616 C   0  0  0  0  0  0  0  0  0  0  0  0
  -23.9548  -24.7407   24.2968 C   0  0  0  0  0  0  0  0  0  0  0  0
  -22.1927  -27.3657   23.5711 C   0  0  0  0  0  0  0  0  0  0  0  0
  -21.8769  -30.2272   21.7384 C   0  0  0  0  0  0  0  0  0  0  0  0
  -29.0727  -21.0655   19.3045 C   0  0  0  0  0  0  0  0  0  0  0  0
  -24.1525  -21.2924   28.0555 C   0  0  0  0  0  0  0  0  0  0  0  0
  -25.6585  -26.5798   24.5631 C   0  0  0  0  0  0  0  0  0  0  0  0
  -24.1341  -26.8522   22.0438 C   0  0  0  0  0  0  0  0  0  0  0  0
  -23.0816  -22.2097   27.4707 C   0  0  0  0  0  0  0  0  0  0  0  0
  -25.5406  -21.3078   18.5544 C   0  0  0  0  0  0  0  0  0  0  0  0
  -23.0483  -22.0900   25.9504 C   0  0  0  0  0  0  0  0  0  0  0  0
  -24.9850  -20.1014   19.3135 C   0  0  0  0  0  0  0  0  0  0  0  0
  -26.9005  -20.9943   17.9375 C   0  0  0  0  0  0  0  0  0  0  0  0
  -27.3678  -19.3040   19.6690 C   0  0  0  0  0  0  0  0  0  0  0  0
  -24.3848  -22.5201   25.3337 C   0  0  1  0  0  0  0  0  0  0  0  0
  -24.1796  -26.2155   24.4759 C   0  0  1  0  0  0  0  0  0  0  0  0
  -26.0046  -19.5642   20.3353 C   0  0  2  0  0  0  0  0  0  0  0  0
  -20.3098  -32.1453   21.3351 C   0  0  0  0  0  0  0  0  0  0  0  0
  -29.8815  -26.3839   17.1082 C   0  0  0  0  0  0  0  0  0  0  0  0
  -20.3997  -25.5467   21.9020 C   0  0  0  0  0  0  0  0  0  0  0  0
  -19.4720  -27.5924   20.7961 C   0  0  0  0  0  0  0  0  0  0  0  0
  -19.1785  -27.2622   23.2512 C   0  0  0  0  0  0  0  0  0  0  0  0
  -32.2595  -24.7821   18.3136 C   0  0  0  0  0  0  0  0  0  0  0  0
  -31.0498  -23.6184   16.4704 C   0  0  0  0  0  0  0  0  0  0  0  0
  -23.8774  -32.2057   22.6562 C   0  0  0  0  0  0  0  0  0  0  0  0
  -30.6868  -22.8885   18.8266 C   0  0  0  0  0  0  0  0  0  0  0  0
  -29.5390  -25.6952   19.4982 C   0  0  0  0  0  0  0  0  0  1  0  0
  -21.4624  -27.8576   22.3449 C   0  0  1  0  0  0  0  0  0  0  0  0
  -21.4999  -31.6425   22.1374 C   0  0  2  0  0  0  0  0  0  0  0  0
  -29.7415  -25.1799   18.0584 C   0  0  2  0  0  0  0  0  0  0  0  0
  -20.1561  -27.0595   22.0731 C   0  0  0  0  0  0  0  0  0  0  0  0
  -30.9111  -24.1320   17.9206 C   0  0  0  0  0  0  0  0  0  0  0  0
  -25.7732  -17.1196   20.5648 N   0  0  0  0  0  0  0  0  0  0  0  0
  -25.4829  -18.3358   21.0575 N   0  0  0  0  0  0  0  0  0  0  0  0
  -23.4958  -26.8890   23.3700 N   0  0  0  0  0  0  0  0  0  0  0  0
  -27.8297  -20.5055   18.9659 N   0  0  0  0  0  0  0  0  0  0  0  0
  -24.3433  -19.4381   22.8172 N   0  0  0  0  0  0  0  0  0  0  0  0
  -23.6221  -15.0655   23.6868 N   0  0  0  0  0  0  0  0  0  0  0  0
  -24.4879  -23.9634   25.3073 N   0  0  0  0  0  0  0  0  0  0  0  0
  -21.2587  -29.2893   22.5380 N   0  0  0  0  0  0  0  0  0  0  0  0
  -29.4393  -22.1976   18.5871 N   0  0  0  0  0  0  0  0  0  0  0  0
  -22.6456  -32.5677   21.9087 N   0  3  0  0  0  0  0  0  0  0  0  0
  -23.1928  -17.2016   24.4019 O   0  0  0  0  0  0  0  0  0  0  0  0
  -23.3416  -24.3378   23.3153 O   0  0  0  0  0  0  0  0  0  0  0  0
  -21.6303  -27.4096   24.6682 O   0  0  0  0  0  0  0  0  0  0  0  0
  -22.6402  -29.9784   20.8078 O   0  0  0  0  0  0  0  0  0  0  0  0
  -29.8003  -20.5944   20.1853 O   0  0  0  0  0  0  0  0  0  0  0  0
  -25.4910  -10.7593   20.6870 O   0  0  0  0  0  0  0  0  0  0  0  0
  -28.3400  -26.4653   19.5744 O   0  0  0  0  0  0  0  0  0  1  0  0
  -20.8576   -7.8259   21.2620 F   0  0  0  0  0  0  0  0  0  0  0  0
  -24.1026  -10.7548   23.0776 F   0  0  0  0  0  0  0  0  0  0  0  0
  1  2  1  0  0  0  0
  1  5  2  0  0  0  0
  2  6  2  0  0  0  0
  3  8  2  0  0  0  0
  3 15  1  0  0  0  0
  4  9  1  0  0  0  0
  4 15  2  0  0  0  0
  5 17  1  0  0  0  0
  6 19  1  0  0  0  0
  7 10  2  0  0  0  0
  7 18  1  0  0  0  0
  8 21  1  0  0  0  0
  9 21  2  0  0  0  0
 10 22  1  0  0  0  0
 11 12  2  0  0  0  0
 11 23  1  0  0  0  0
 12 24  1  0  0  0  0
 13 20  1  0  0  0  0
 13 22  2  0  0  0  0
 14 24  2  0  0  0  0
 14 25  1  0  0  0  0
 15 26  1  0  0  0  0
 16 26  1  0  0  0  0
 16 27  2  0  0  0  0
 16 28  1  0  0  0  0
 17 19  2  0  0  0  0
 17 33  1  0  0  0  0
 18 20  2  0  0  0  0
 18 34  1  0  0  0  0
 19 42  1  0  0  0  0
 20 35  1  0  0  0  0
 21 75  1  0  0  0  0
 22 76  1  0  0  0  0
 23 25  2  0  0  0  0
 23 75  1  0  0  0  0
 24 77  1  0  0  0  0
 25 78  1  0  0  0  0
 26 60  2  0  0  0  0
 27 61  1  0  0  0  0
 27 64  1  0  0  0  0
 28 65  1  0  0  0  0
 28 70  2  0  0  0  0
 29 43  1  0  0  0  0
 29 66  1  0  0  0  0
 29 71  2  0  0  0  0
 30 55  1  0  0  0  0
 30 62  1  0  0  0  0
 30 72  2  0  0  0  0
 31 56  1  0  0  0  0
 31 67  1  0  0  0  0
 31 73  2  0  0  0  0
 32 63  1  0  0  0  0
 32 68  1  0  0  0  0
 32 74  2  0  0  0  0
 33 36  1  0  0  0  0
 34 43  1  0  0  0  0
 35 62  1  0  0  0  0
 36 38  1  0  0  0  0
 37 39  1  0  0  0  0
 37 40  1  0  0  0  0
 38 42  1  0  0  0  0
 39 44  1  0  0  0  0
 40 63  1  0  0  0  0
 41 44  1  0  0  0  0
 41 63  1  0  0  0  0
 42 66  1  0  0  0  0
 43 62  1  0  0  0  0
 44 61  1  0  0  0  0
 45 56  1  0  0  0  0
 46 57  1  0  0  0  0
 47 58  1  0  0  0  0
 48 58  1  0  0  0  0
 49 58  1  0  0  0  0
 50 59  1  0  0  0  0
 51 59  1  0  0  0  0
 52 69  1  0  0  0  0
 53 59  1  0  0  0  0
 53 68  1  0  0  0  0
 54 57  1  0  0  0  0
 54 76  1  0  0  0  0
 55 58  1  0  0  0  0
 55 67  1  0  0  0  0
 56 69  1  0  0  0  0
 57 59  1  0  0  0  0
 60 61  1  0  0  0  0
M  CHG  1  69   1
M  ISO  4  32 100  54 101  68 100  76 101
M  END
> <Batch ID>
0102

> <Smiles>
CNC(C)C(=O)NC(C(=O)N1Cc2cc([101O:1][101CH2:1]C(C)C(C)(C)C[100NH:0][100C:0](=O)N3CCCC(n4nc(-c5ccc(Oc6ccc(F)cc6F)cc5)c(C(N)=O)c4N)C3)ccc2CC1C(=O)NC1CCCc2ccccc21)C(C)(C)C

> <Shape>
0.195

> <Color>
0.083

> <Negative vol penalty>
0.000

$$$$

  -OEChem-04052319383D

 90 98  0     1  0  0  0  0  0999 V2000
  -41.0984  -16.6851   35.9804 C   0  0  0  0  0  0  0  0  0  0  0  0
  -39.9469  -17.1343   35.3419 C   0  0  0  0  0  0  0  0  0  0  0  0
  -23.0746   -9.8692   19.9411 C   0  0  0  0  0  0  0  0  0  0  0  0
  -23.8392   -9.8746   22.2330 C   0  0  0  0  0  0  0  0  0  0  0  0
  -42.1732  -16.2143   35.2273 C   0  0  0  0  0  0  0  0  0  0  0  0
  -39.8700  -17.1142   33.9497 C   0  0  0  0  0  0  0  0  0  0  0  0
  -35.4443  -15.3110   32.2744 C   0  0  0  0  0  0  0  0  0  0  0  0
  -22.3321   -8.7152   20.1915 C   0  0  0  0  0  0  0  0  0  0  0  0
  -23.0967   -8.7207   22.4834 C   0  0  0  0  0  0  0  0  0  0  0  0
  -34.3492  -16.1729   32.3153 C   0  0  0  0  0  0  0  0  0  0  0  0
  -21.1165   -5.9809   23.8215 C   0  0  0  0  0  0  0  0  0  0  0  0
  -20.3627   -5.9356   24.9942 C   0  0  0  0  0  0  0  0  0  0  0  0
  -34.6306  -16.6321   29.9639 C   0  0  0  0  0  0  0  0  0  0  0  0
  -29.2622  -17.4821   27.2889 C   0  0  0  0  0  0  0  0  0  0  0  0
  -19.1152   -7.8727   24.2670 C   0  0  0  0  0  0  0  0  0  0  0  0
  -27.6804  -16.0344   28.3178 C   0  0  0  0  0  0  0  0  0  0  0  0
  -23.8282  -10.4488   20.9618 C   0  0  0  0  0  0  0  0  0  0  0  0
  -24.1679  -12.9744   20.8434 C   0  0  0  0  0  0  0  0  0  0  0  0
  -42.1057  -16.1794   33.8255 C   0  0  0  0  0  0  0  0  0  0  0  0
  -36.1487  -15.1113   31.0785 C   0  0  0  0  0  0  0  0  0  0  0  0
  -40.9454  -16.6438   33.1771 C   0  0  0  0  0  0  0  0  0  0  0  0
  -35.7327  -15.7653   29.9099 C   0  0  0  0  0  0  0  0  0  0  0  0
  -28.6047  -17.0594   28.4389 C   0  0  0  0  0  0  0  0  0  0  0  0
  -28.9792  -16.8754   26.0702 C   0  0  0  0  0  0  0  0  0  0  0  0
  -22.3431   -8.1410   21.4627 C   0  0  0  0  0  0  0  0  0  0  0  0
  -33.9439  -16.8358   31.1605 C   0  0  0  0  0  0  0  0  0  0  0  0
  -20.8697   -6.9720   22.8716 C   0  0  0  0  0  0  0  0  0  0  0  0
  -19.3620   -6.8815   25.2170 C   0  0  0  0  0  0  0  0  0  0  0  0
  -19.8691   -7.9179   23.0943 C   0  0  0  0  0  0  0  0  0  0  0  0
  -24.5959  -11.6405   20.7036 C   0  0  0  0  0  0  0  0  0  0  0  0
  -28.0382  -15.8585   26.0552 C   0  0  0  0  0  0  0  0  0  0  0  0
  -25.2588  -13.7250   20.4786 C   0  0  0  0  0  0  0  0  0  0  0  0
  -22.8979  -13.4888   21.2654 C   0  0  0  0  0  0  0  0  0  0  0  0
  -39.1338  -15.6337   30.1193 C   0  0  0  0  0  0  0  0  0  0  0  0
  -38.1325  -14.0887   27.4485 C   0  0  0  0  0  0  0  0  0  0  0  0
  -35.5342  -13.1654   25.4379 C   0  0  0  0  0  0  0  0  0  0  0  0
  -30.7421  -14.7479   20.6567 C   0  0  0  0  0  0  0  0  0  0  0  0
  -43.3110  -15.7061   33.0523 C   0  0  0  0  0  0  0  0  0  0  0  0
  -37.3115  -14.1578   31.0450 C   0  0  0  0  0  0  0  0  0  0  0  0
  -36.4426  -15.5695   28.5961 C   0  0  0  0  0  0  0  0  0  0  0  0
  -43.0057  -15.3678   31.5954 C   0  0  0  0  0  0  0  0  0  0  0  0
  -29.6014  -12.3648   18.2701 C   0  0  0  0  0  0  0  0  0  0  0  0
  -42.1643  -16.4683   30.9569 C   0  0  0  0  0  0  0  0  0  0  0  0
  -28.1651  -12.0696   18.7057 C   0  0  0  0  0  0  0  0  0  0  0  0
  -30.5208  -12.5852   19.4693 C   0  0  0  0  0  0  0  0  0  0  0  0
  -28.6214  -13.3136   20.8604 C   0  0  0  0  0  0  0  0  0  0  0  0
  -40.8145  -16.6145   31.6698 C   0  0  1  0  0  0  0  0  0  0  0  0
  -38.2706  -14.4255   29.8892 C   0  0  1  0  0  0  0  0  0  0  0  0
  -27.6450  -13.1393   19.6846 C   0  0  2  0  0  0  0  0  0  0  0  0
  -26.2178  -15.3612   24.3842 C   0  0  0  0  0  0  0  0  0  0  0  0
  -28.0392  -13.6698   24.8047 C   0  0  0  0  0  0  0  0  0  0  0  0
  -35.0317  -11.9403   23.3062 C   0  0  0  0  0  0  0  0  0  0  0  0
  -39.1349  -16.4803   25.8406 C   0  0  0  0  0  0  0  0  0  0  0  0
  -37.7829  -15.6548   23.9018 C   0  0  0  0  0  0  0  0  0  0  0  0
  -39.6321  -14.2531   24.8174 C   0  0  0  0  0  0  0  0  0  0  0  0
  -32.7599  -15.7137   22.9867 C   0  0  0  0  0  0  0  0  0  0  0  0
  -32.3413  -18.1261   23.4447 C   0  0  0  0  0  0  0  0  0  0  0  0
  -33.8683  -11.1642   26.8446 C   0  0  0  0  0  0  0  0  0  0  0  0
  -29.6787  -17.3246   24.8340 C   0  0  0  0  0  0  0  0  0  0  0  0
  -28.8878  -17.6926   29.7692 C   0  0  0  0  0  0  0  0  0  0  0  0
  -30.8019  -16.3531   24.4194 C   0  0  0  0  0  0  0  0  0  0  0  0
  -30.8089  -16.8974   21.8955 C   0  0  0  0  0  0  0  0  0  0  0  0
  -30.5249  -17.9220   31.6417 C   0  0  0  0  0  0  0  0  0  0  0  0
  -31.8500  -17.3847   32.1455 C   0  0  0  0  0  0  0  0  0  1  0  0
  -27.6946  -15.1700   24.7748 C   0  0  0  0  0  0  0  0  0  0  0  0
  -37.4961  -14.5087   26.1457 C   0  0  1  0  0  0  0  0  0  0  0  0
  -35.1661  -11.8299   24.8170 C   0  0  2  0  0  0  0  0  0  0  0  0
  -38.4991  -15.2296   25.2014 C   0  0  0  0  0  0  0  0  0  0  0  0
  -31.6521  -16.7709   23.1863 C   0  0  0  0  0  0  0  0  0  0  0  0
  -27.3791  -15.4208   27.1515 N   0  0  0  0  0  0  0  0  0  0  0  0
  -25.8600  -11.5460   20.2827 N   0  0  0  0  0  0  0  0  0  0  0  0
  -26.2356  -12.8300   20.1548 N   0  0  0  0  0  0  0  0  0  0  0  0
  -37.5777  -14.6320   28.6159 N   0  0  0  0  0  0  0  0  0  0  0  0
  -29.9713  -13.6125   20.3573 N   0  0  0  0  0  0  0  0  0  0  0  0
  -25.4680  -15.0567   20.4064 N   0  0  0  0  0  0  0  0  0  0  0  0
  -21.8874  -12.5786   21.6039 N   0  0  0  0  0  0  0  0  0  0  0  0
  -39.9100  -15.5616   31.2602 N   0  0  0  0  0  0  0  0  0  0  0  0
  -36.8989  -13.3054   25.5765 N   0  0  0  0  0  0  0  0  0  0  0  0
  -30.1440  -15.6755   21.5008 N   0  0  0  0  0  0  0  0  0  0  0  0
  -33.8713  -11.3411   25.3696 N   0  3  0  0  0  0  0  0  0  0  0  0
  -30.1886  -17.2665   30.3527 N   0  3  0  0  0  0  0  0  0  0  0  0
  -22.6609  -14.7192   21.3244 O   0  0  0  0  0  0  0  0  0  0  0  0
  -39.0993  -16.5619   29.3199 O   0  0  0  0  0  0  0  0  0  0  0  0
  -39.0823  -13.3018   27.4316 O   0  0  0  0  0  0  0  0  0  0  0  0
  -34.6951  -14.0024   25.7636 O   0  0  0  0  0  0  0  0  0  0  0  0
  -31.8770  -14.9247   20.2009 O   0  0  0  0  0  0  0  0  0  0  0  0
  -21.6185   -7.0151   21.7075 O   0  0  0  0  0  0  0  0  0  0  0  0
  -32.8757  -17.6781   31.1977 O   0  0  0  0  0  0  0  0  0  1  0  0
  -18.6371   -6.8370   26.3425 F   0  0  0  0  0  0  0  0  0  0  0  0
  -19.6266   -8.8718   22.1848 F   0  0  0  0  0  0  0  0  0  0  0  0
  1  2  1  0  0  0  0
  1  5  2  0  0  0  0
  2  6  2  0  0  0  0
  3  8  2  0  0  0  0
  3 17  1  0  0  0  0
  4  9  1  0  0  0  0
  4 17  2  0  0  0  0
  5 19  1  0  0  0  0
  6 21  1  0  0  0  0
  7 10  2  0  0  0  0
  7 20  1  0  0  0  0
  8 25  1  0  0  0  0
  9 25  2  0  0  0  0
 10 26  1  0  0  0  0
 11 12  2  0  0  0  0
 11 27  1  0  0  0  0
 12 28  1  0  0  0  0
 13 22  1  0  0  0  0
 13 26  2  0  0  0  0
 14 23  2  0  0  0  0
 14 24  1  0  0  0  0
 15 28  2  0  0  0  0
 15 29  1  0  0  0  0
 16 23  1  0  0  0  0
 16 70  2  0  0  0  0
 17 30  1  0  0  0  0
 18 30  1  0  0  0  0
 18 32  2  0  0  0  0
 18 33  1  0  0  0  0
 19 21  2  0  0  0  0
 19 38  1  0  0  0  0
 20 22  2  0  0  0  0
 20 39  1  0  0  0  0
 21 47  1  0  0  0  0
 22 40  1  0  0  0  0
 23 60  1  0  0  0  0
 24 31  2  0  0  0  0
 24 59  1  0  0  0  0
 25 87  1  0  0  0  0
 26 88  1  0  0  0  0
 27 29  2  0  0  0  0
 27 87  1  0  0  0  0
 28 89  1  0  0  0  0
 29 90  1  0  0  0  0
 30 71  2  0  0  0  0
 31 65  1  0  0  0  0
 31 70  1  0  0  0  0
 32 72  1  0  0  0  0
 32 75  1  0  0  0  0
 33 76  1  0  0  0  0
 33 82  2  0  0  0  0
 34 48  1  0  0  0  0
 34 77  1  0  0  0  0
 34 83  2  0  0  0  0
 35 66  1  0  0  0  0
 35 73  1  0  0  0  0
 35 84  2  0  0  0  0
 36 67  1  0  0  0  0
 36 78  1  0  0  0  0
 36 85  2  0  0  0  0
 37 74  1  0  0  0  0
 37 79  1  0  0  0  0
 37 86  2  0  0  0  0
 38 41  1  0  0  0  0
 39 48  1  0  0  0  0
 40 73  1  0  0  0  0
 41 43  1  0  0  0  0
 42 44  1  0  0  0  0
 42 45  1  0  0  0  0
 43 47  1  0  0  0  0
 44 49  1  0  0  0  0
 45 74  1  0  0  0  0
 46 49  1  0  0  0  0
 46 74  1  0  0  0  0
 47 77  1  0  0  0  0
 48 73  1  0  0  0  0
 49 72  1  0  0  0  0
 50 65  1  0  0  0  0
 51 65  1  0  0  0  0
 52 67  1  0  0  0  0
 53 68  1  0  0  0  0
 54 68  1  0  0  0  0
 55 68  1  0  0  0  0
 56 69  1  0  0  0  0
 57 69  1  0  0  0  0
 58 80  1  0  0  0  0
 59 61  1  0  0  0  0
 60 81  1  0  0  0  0
 61 69  1  0  0  0  0
 62 69  1  0  0  0  0
 62 79  1  0  0  0  0
 63 64  1  0  0  0  0
 63 81  1  0  0  0  0
 64 88  1  0  0  0  0
 66 68  1  0  0  0  0
 66 78  1  0  0  0  0
 67 80  1  0  0  0  0
 71 72  1  0  0  0  0
M  CHG  2  80   1  81   1
M  ISO  4  37 100  64 101  79 100  88 101
M  END
> <Batch ID>
0102

> <Smiles>
CNC(C)C(=O)NC(C(=O)N1Cc2cc([101O:1][101CH2:1]CNCc3cnc(C(C)C)c(CCC(C)(C)C[100NH:0][100C:0](=O)N4CCCC(n5nc(-c6ccc(Oc7ccc(F)cc7F)cc6)c(C(N)=O)c5N)C4)c3)ccc2CC1C(=O)NC1CCCc2ccccc21)C(C)(C)C

> <Shape>
0.155

> <Color>
0.180

> <Negative vol penalty>
0.000

$$$$

  -OEChem-04052319383D

 77 85  0     1  0  0  0  0  0999 V2000
  -21.7141  -11.6319   26.6120 C   0  0  0  0  0  0  0  0  0  0  0  0
  -23.0955  -11.4909   26.5279 C   0  0  0  0  0  0  0  0  0  0  0  0
  -23.2884   -9.7995   19.9131 C   0  0  0  0  0  0  0  0  0  0  0  0
  -23.7390   -9.9395   22.2825 C   0  0  0  0  0  0  0  0  0  0  0  0
  -21.1578  -12.4743   27.5737 C   0  0  0  0  0  0  0  0  0  0  0  0
  -23.9216  -12.1930   27.4048 C   0  0  0  0  0  0  0  0  0  0  0  0
  -27.6204   -9.3110   29.3174 C   0  0  0  0  0  0  0  0  0  0  0  0
  -22.5619   -8.6270   20.1205 C   0  0  0  0  0  0  0  0  0  0  0  0
  -23.0124   -8.7670   22.4900 C   0  0  0  0  0  0  0  0  0  0  0  0
  -28.7188   -9.0575   28.4970 C   0  0  0  0  0  0  0  0  0  0  0  0
  -19.7653   -7.8562   22.7068 C   0  0  0  0  0  0  0  0  0  0  0  0
  -18.8628   -7.8343   23.7701 C   0  0  0  0  0  0  0  0  0  0  0  0
  -29.9656  -10.7731   29.6466 C   0  0  0  0  0  0  0  0  0  0  0  0
  -20.0683   -5.9867   24.7552 C   0  0  0  0  0  0  0  0  0  0  0  0
  -23.8770  -10.4557   20.9941 C   0  0  0  0  0  0  0  0  0  0  0  0
  -24.1366  -12.9857   20.7962 C   0  0  0  0  0  0  0  0  0  0  0  0
  -21.9770  -13.1797   28.4691 C   0  0  0  0  0  0  0  0  0  0  0  0
  -27.6827  -10.3065   30.3029 C   0  0  0  0  0  0  0  0  0  0  0  0
  -23.3758  -13.0467   28.3785 C   0  0  0  0  0  0  0  0  0  0  0  0
  -28.8674  -11.0355   30.4799 C   0  0  0  0  0  0  0  0  0  0  0  0
  -22.4239   -8.1107   21.4089 C   0  0  0  0  0  0  0  0  0  0  0  0
  -29.8907   -9.7906   28.6596 C   0  0  0  0  0  0  0  0  0  0  0  0
  -20.8192   -6.9433   22.6676 C   0  0  0  0  0  0  0  0  0  0  0  0
  -19.0143   -6.8996   24.7943 C   0  0  0  0  0  0  0  0  0  0  0  0
  -20.9707   -6.0086   23.6918 C   0  0  0  0  0  0  0  0  0  0  0  0
  -24.6281  -11.6666   20.7804 C   0  0  0  0  0  0  0  0  0  0  0  0
  -25.2382  -13.7656   20.5415 C   0  0  0  0  0  0  0  0  0  0  0  0
  -22.8036  -13.4634   21.0210 C   0  0  0  0  0  0  0  0  0  0  0  0
  -26.1183  -13.0180   30.8545 C   0  0  0  0  0  0  0  0  0  0  0  0
  -27.8503  -13.0042   33.5972 C   0  0  0  0  0  0  0  0  0  0  0  0
  -30.6383  -11.9478   35.2579 C   0  0  0  0  0  0  0  0  0  0  0  0
  -31.1090  -12.9218   21.3614 C   0  0  0  0  0  0  0  0  0  0  0  0
  -21.3317  -14.1149   29.4609 C   0  0  0  0  0  0  0  0  0  0  0  0
  -26.4981  -10.5494   31.1974 C   0  0  0  0  0  0  0  0  0  0  0  0
  -28.9924  -12.1012   31.5368 C   0  0  0  0  0  0  0  0  0  0  0  0
  -22.2615  -14.5345   30.5965 C   0  0  0  0  0  0  0  0  0  0  0  0
  -29.4605  -13.6621   18.2937 C   0  0  0  0  0  0  0  0  0  0  0  0
  -23.6243  -14.9441   30.0470 C   0  0  0  0  0  0  0  0  0  0  0  0
  -27.9907  -13.3537   18.5846 C   0  0  0  0  0  0  0  0  0  0  0  0
  -30.5975  -11.1828   25.9672 C   0  0  0  0  0  0  0  0  0  0  0  0
  -32.0620   -9.6799   25.5807 C   0  0  0  0  0  0  0  0  0  0  0  0
  -30.3936  -12.6825   19.0019 C   0  0  0  0  0  0  0  0  0  0  0  0
  -28.7068  -12.2528   20.7466 C   0  0  0  0  0  0  0  0  0  0  0  0
  -24.3040  -13.7725   29.3281 C   0  0  1  0  0  0  0  0  0  0  0  0
  -26.5002  -11.9387   31.8276 C   0  0  1  0  0  0  0  0  0  0  0  0
  -31.4517  -10.8189   24.7285 C   0  0  0  0  0  0  0  0  0  0  0  0
  -27.7290  -13.2483   20.0991 C   0  0  2  0  0  0  0  0  0  0  0  0
  -30.7802   -9.7236   26.4456 C   0  0  0  0  0  0  0  0  0  1  0  0
  -31.7974  -12.1303   37.4761 C   0  0  0  0  0  0  0  0  0  0  0  0
  -28.7795  -15.8199   32.8772 C   0  0  0  0  0  0  0  0  0  0  0  0
  -30.6115  -15.5718   34.5656 C   0  0  0  0  0  0  0  0  0  0  0  0
  -28.2270  -15.4897   35.2939 C   0  0  0  0  0  0  0  0  0  0  0  0
  -30.4562   -9.0308   35.7239 C   0  0  0  0  0  0  0  0  0  0  0  0
  -32.4100  -11.8806   24.2299 C   0  0  0  0  0  0  0  0  0  0  0  0
  -31.6707  -13.1349   23.7694 C   0  0  0  0  0  0  0  0  0  0  0  0
  -29.1995  -13.5393   34.0124 C   0  0  1  0  0  0  0  0  0  0  0  0
  -30.8181  -11.3291   36.6325 C   0  0  2  0  0  0  0  0  0  0  0  0
  -29.2017  -15.0865   34.1660 C   0  0  0  0  0  0  0  0  0  0  0  0
  -25.9397  -11.6079   20.5350 N   0  0  0  0  0  0  0  0  0  0  0  0
  -26.2818  -12.8999   20.3941 N   0  0  0  0  0  0  0  0  0  0  0  0
  -27.8047  -12.3059   32.3823 N   0  0  0  0  0  0  0  0  0  0  0  0
  -30.0942  -12.6307   20.4350 N   0  0  0  0  0  0  0  0  0  0  0  0
  -25.4063  -15.1005   20.4314 N   0  0  0  0  0  0  0  0  0  0  0  0
  -21.7909  -12.5266   21.2681 N   0  0  0  0  0  0  0  0  0  0  0  0
  -24.8689  -12.8492   30.2888 N   0  0  0  0  0  0  0  0  0  0  0  0
  -29.5691  -12.8178   35.2254 N   0  0  0  0  0  0  0  0  0  0  0  0
  -30.7392  -12.8560   22.6992 N   0  0  0  0  0  0  0  0  0  0  0  0
  -31.3332   -9.9360   36.5101 N   0  3  0  0  0  0  0  0  0  0  0  0
  -22.5158  -14.6839   20.9869 O   0  0  0  0  0  0  0  0  0  0  0  0
  -26.8988  -13.9367   30.6343 O   0  0  0  0  0  0  0  0  0  0  0  0
  -26.8742  -13.1925   34.3276 O   0  0  0  0  0  0  0  0  0  0  0  0
  -31.3750  -11.6882   34.3091 O   0  0  0  0  0  0  0  0  0  0  0  0
  -32.2581  -13.2236   21.0215 O   0  0  0  0  0  0  0  0  0  0  0  0
  -21.7148   -6.9667   21.6117 O   0  0  0  0  0  0  0  0  0  0  0  0
  -30.9641   -9.5457   27.8598 O   0  0  0  0  0  0  0  0  0  1  0  0
  -18.1485   -6.8797   25.8162 F   0  0  0  0  0  0  0  0  0  0  0  0
  -21.9820   -5.1298   23.6603 F   0  0  0  0  0  0  0  0  0  0  0  0
  1  2  1  0  0  0  0
  1  5  2  0  0  0  0
  2  6  2  0  0  0  0
  3  8  2  0  0  0  0
  3 15  1  0  0  0  0
  4  9  1  0  0  0  0
  4 15  2  0  0  0  0
  5 17  1  0  0  0  0
  6 19  1  0  0  0  0
  7 10  2  0  0  0  0
  7 18  1  0  0  0  0
  8 21  1  0  0  0  0
  9 21  2  0  0  0  0
 10 22  1  0  0  0  0
 11 12  2  0  0  0  0
 11 23  1  0  0  0  0
 12 24  1  0  0  0  0
 13 20  1  0  0  0  0
 13 22  2  0  0  0  0
 14 24  2  0  0  0  0
 14 25  1  0  0  0  0
 15 26  1  0  0  0  0
 16 26  1  0  0  0  0
 16 27  2  0  0  0  0
 16 28  1  0  0  0  0
 17 19  2  0  0  0  0
 17 33  1  0  0  0  0
 18 20  2  0  0  0  0
 18 34  1  0  0  0  0
 19 44  1  0  0  0  0
 20 35  1  0  0  0  0
 21 74  1  0  0  0  0
 22 75  1  0  0  0  0
 23 25  2  0  0  0  0
 23 74  1  0  0  0  0
 24 76  1  0  0  0  0
 25 77  1  0  0  0  0
 26 59  2  0  0  0  0
 27 60  1  0  0  0  0
 27 63  1  0  0  0  0
 28 64  1  0  0  0  0
 28 69  2  0  0  0  0
 29 45  1  0  0  0  0
 29 65  1  0  0  0  0
 29 70  2  0  0  0  0
 30 56  1  0  0  0  0
 30 61  1  0  0  0  0
 30 71  2  0  0  0  0
 31 57  1  0  0  0  0
 31 66  1  0  0  0  0
 31 72  2  0  0  0  0
 32 62  1  0  0  0  0
 32 67  1  0  0  0  0
 32 73  2  0  0  0  0
 33 36  1  0  0  0  0
 34 45  1  0  0  0  0
 35 61  1  0  0  0  0
 36 38  1  0  0  0  0
 37 39  1  0  0  0  0
 37 42  1  0  0  0  0
 38 44  1  0  0  0  0
 39 47  1  0  0  0  0
 40 46  1  0  0  0  0
 40 48  1  0  0  0  0
 41 46  1  0  0  0  0
 41 48  1  0  0  0  0
 42 62  1  0  0  0  0
 43 47  1  0  0  0  0
 43 62  1  0  0  0  0
 44 65  1  0  0  0  0
 45 61  1  0  0  0  0
 46 54  1  0  0  0  0
 47 60  1  0  0  0  0
 48 75  1  0  0  0  0
 49 57  1  0  0  0  0
 50 58  1  0  0  0  0
 51 58  1  0  0  0  0
 52 58  1  0  0  0  0
 53 68  1  0  0  0  0
 54 55  1  0  0  0  0
 55 67  1  0  0  0  0
 56 58  1  0  0  0  0
 56 66  1  0  0  0  0
 57 68  1  0  0  0  0
 59 60  1  0  0  0  0
M  CHG  1  68   1
M  ISO  4  32 100  48 101  67 100  75 101
M  END
> <Batch ID>
0102

> <Smiles>
CNC(C)C(=O)NC(C(=O)N1Cc2cc([101O:1][101CH:1]3CC(CC[100NH:0][100C:0](=O)N4CCCC(n5nc(-c6ccc(Oc7ccc(F)cc7F)cc6)c(C(N)=O)c5N)C4)C3)ccc2CC1C(=O)NC1CCCc2ccccc21)C(C)(C)C

> <Shape>
0.137

> <Color>
0.182

> <Negative vol penalty>
0.000

$$$$

  -OEChem-04052319383D

 85 93  0     1  0  0  0  0  0999 V2000
  -28.2690  -18.3836   18.5711 C   0  0  0  0  0  0  0  0  0  0  0  0
  -28.6684  -17.2789   19.3165 C   0  0  0  0  0  0  0  0  0  0  0  0
  -23.1480   -9.8476   19.9324 C   0  0  0  0  0  0  0  0  0  0  0  0
  -23.6451   -9.9830   22.2928 C   0  0  0  0  0  0  0  0  0  0  0  0
  -28.5391  -19.6705   19.0345 C   0  0  0  0  0  0  0  0  0  0  0  0
  -29.3391  -17.4606   20.5255 C   0  0  0  0  0  0  0  0  0  0  0  0
  -28.9025  -13.9701   25.5386 C   0  0  0  0  0  0  0  0  0  0  0  0
  -22.3901   -8.6985   20.1578 C   0  0  0  0  0  0  0  0  0  0  0  0
  -22.8871   -8.8339   22.5183 C   0  0  0  0  0  0  0  0  0  0  0  0
  -29.7035  -12.9453   26.0407 C   0  0  0  0  0  0  0  0  0  0  0  0
  -23.2658   -5.4921   22.1726 C   0  0  0  0  0  0  0  0  0  0  0  0
  -23.8049   -4.5137   23.0079 C   0  0  0  0  0  0  0  0  0  0  0  0
  -30.8308  -14.5325   27.4652 C   0  0  0  0  0  0  0  0  0  0  0  0
  -21.9210   -4.7510   24.5018 C   0  0  0  0  0  0  0  0  0  0  0  0
  -33.4567  -14.1194   24.4131 C   0  0  0  0  0  0  0  0  0  0  0  0
  -35.1464  -12.6784   24.1245 C   0  0  0  0  0  0  0  0  0  0  0  0
  -23.7756  -10.4898   20.9998 C   0  0  0  0  0  0  0  0  0  0  0  0
  -24.1082  -13.0100   20.7861 C   0  0  0  0  0  0  0  0  0  0  0  0
  -29.2049  -19.8681   20.2545 C   0  0  0  0  0  0  0  0  0  0  0  0
  -29.0674  -15.2878   25.9889 C   0  0  0  0  0  0  0  0  0  0  0  0
  -29.6195  -18.7514   21.0051 C   0  0  0  0  0  0  0  0  0  0  0  0
  -30.0289  -15.5717   26.9692 C   0  0  0  0  0  0  0  0  0  0  0  0
  -33.7313  -14.0723   23.0642 C   0  0  0  0  0  0  0  0  0  0  0  0
  -34.8003  -13.1608   22.8815 C   0  0  0  0  0  0  0  0  0  0  0  0
  -22.2596   -8.1917   21.4508 C   0  0  0  0  0  0  0  0  0  0  0  0
  -30.6697  -13.2269   27.0020 C   0  0  0  0  0  0  0  0  0  0  0  0
  -22.0543   -6.1000   22.5019 C   0  0  0  0  0  0  0  0  0  0  0  0
  -23.1325   -4.1432   24.1725 C   0  0  0  0  0  0  0  0  0  0  0  0
  -21.3819   -5.7295   23.6665 C   0  0  0  0  0  0  0  0  0  0  0  0
  -24.5591  -11.6765   20.7675 C   0  0  0  0  0  0  0  0  0  0  0  0
  -25.2282  -13.7550   20.5084 C   0  0  0  0  0  0  0  0  0  0  0  0
  -22.7946  -13.5288   21.0325 C   0  0  0  0  0  0  0  0  0  0  0  0
  -29.8780  -18.0406   24.6218 C   0  0  0  0  0  0  0  0  0  0  0  0
  -29.1676  -19.2534   27.5453 C   0  0  0  0  0  0  0  0  0  0  0  0
  -28.8427  -18.7232   30.9009 C   0  0  0  0  0  0  0  0  0  0  0  0
  -30.8063  -13.8006   21.6464 C   0  0  0  0  0  0  0  0  0  0  0  0
  -29.5164  -21.2777   20.6914 C   0  0  0  0  0  0  0  0  0  0  0  0
  -28.1773  -16.3774   25.4568 C   0  0  0  0  0  0  0  0  0  0  0  0
  -30.2319  -16.9663   27.5005 C   0  0  0  0  0  0  0  0  0  0  0  0
  -29.8999  -21.3879   22.1648 C   0  0  0  0  0  0  0  0  0  0  0  0
  -29.5934  -12.8248   18.3792 C   0  0  0  0  0  0  0  0  0  0  0  0
  -30.9143  -20.3103   22.5345 C   0  0  0  0  0  0  0  0  0  0  0  0
  -28.1155  -12.5583   18.6706 C   0  0  0  0  0  0  0  0  0  0  0  0
  -30.4758  -12.3719   19.5387 C   0  0  0  0  0  0  0  0  0  0  0  0
  -28.6401  -12.7038   21.1492 C   0  0  0  0  0  0  0  0  0  0  0  0
  -30.3274  -18.9079   22.3334 C   0  0  1  0  0  0  0  0  0  0  0  0
  -28.7802  -17.7702   25.6114 C   0  0  1  0  0  0  0  0  0  0  0  0
  -27.6938  -13.1604   20.0240 C   0  0  2  0  0  0  0  0  0  0  0  0
  -33.8868  -10.8150   21.0736 C   0  0  0  0  0  0  0  0  0  0  0  0
  -36.9256  -13.2064   21.5504 C   0  0  0  0  0  0  0  0  0  0  0  0
  -28.2865  -19.9141   33.0386 C   0  0  0  0  0  0  0  0  0  0  0  0
  -31.8505  -10.0555   26.5555 C   0  0  0  0  0  0  0  0  0  0  0  0
  -31.9343  -20.5399   27.5457 C   0  0  0  0  0  0  0  0  0  0  0  0
  -31.6953  -20.8886   30.0133 C   0  0  0  0  0  0  0  0  0  0  0  0
  -30.1072  -21.9949   28.4395 C   0  0  0  0  0  0  0  0  0  0  0  0
  -26.5010  -16.9828   31.3969 C   0  0  0  0  0  0  0  0  0  0  0  0
  -33.0320  -14.8353   22.0112 C   0  0  0  0  0  0  0  0  0  0  0  0
  -35.3299  -11.2749   21.2409 C   0  0  0  0  0  0  0  0  0  0  0  0
  -33.7405  -11.6758   26.9518 C   0  0  0  0  0  0  0  0  0  0  0  0
  -34.3622  -13.0162   26.5340 C   0  0  0  0  0  0  0  0  0  0  0  0
  -35.4347  -12.7887   21.6016 C   0  0  1  0  0  0  0  0  0  0  0  0
  -29.9422  -19.5004   28.8173 C   0  0  1  0  0  0  0  0  0  0  0  0
  -27.7422  -19.0963   31.8777 C   0  0  2  0  0  0  0  0  0  0  0  0
  -32.2663  -11.5211   26.5580 C   0  0  2  0  0  0  0  0  0  1  0  0
  -30.9175  -20.7049   28.6927 C   0  0  0  0  0  0  0  0  0  0  0  0
  -25.8637  -11.5769   20.4990 N   0  0  0  0  0  0  0  0  0  0  0  0
  -34.3228  -13.2678   25.0478 N   0  0  0  0  0  0  0  0  0  0  0  0
  -26.2422  -12.8574   20.3463 N   0  0  0  0  0  0  0  0  0  0  0  0
  -29.3414  -17.9985   26.9446 N   0  0  0  0  0  0  0  0  0  0  0  0
  -30.0330  -12.9952   20.7939 N   0  0  0  0  0  0  0  0  0  0  0  0
  -25.4347  -15.0837   20.3894 N   0  0  0  0  0  0  0  0  0  0  0  0
  -21.7585  -12.6242   21.3018 N   0  0  0  0  0  0  0  0  0  0  0  0
  -29.4379  -18.5711   23.4242 N   0  0  0  0  0  0  0  0  0  0  0  0
  -28.9507  -19.6416   29.8781 N   0  0  0  0  0  0  0  0  0  0  0  0
  -32.1168  -14.0224   21.2413 N   0  0  0  0  0  0  0  0  0  0  0  0
  -27.0999  -17.8691   32.4277 N   0  3  0  0  0  0  0  0  0  0  0  0
  -22.5434  -14.7574   20.9982 O   0  0  0  0  0  0  0  0  0  0  0  0
  -31.0387  -17.7880   24.9230 O   0  0  0  0  0  0  0  0  0  0  0  0
  -28.4298  -20.1385   27.1049 O   0  0  0  0  0  0  0  0  0  0  0  0
  -29.5396  -17.7197   31.0341 O   0  0  0  0  0  0  0  0  0  0  0  0
  -30.3601  -14.2907   22.6894 O   0  0  0  0  0  0  0  0  0  0  0  0
  -21.5199   -7.0706   21.6712 O   0  0  0  0  0  0  0  0  0  0  0  0
  -31.4533  -12.2286   27.4933 O   0  0  0  0  0  0  0  0  0  1  0  0
  -23.6496   -3.2025   24.9737 F   0  0  0  0  0  0  0  0  0  0  0  0
  -20.2171   -6.3091   23.9875 F   0  0  0  0  0  0  0  0  0  0  0  0
  1  2  1  0  0  0  0
  1  5  2  0  0  0  0
  2  6  2  0  0  0  0
  3  8  2  0  0  0  0
  3 17  1  0  0  0  0
  4  9  1  0  0  0  0
  4 17  2  0  0  0  0
  5 19  1  0  0  0  0
  6 21  1  0  0  0  0
  7 10  2  0  0  0  0
  7 20  1  0  0  0  0
  8 25  1  0  0  0  0
  9 25  2  0  0  0  0
 10 26  1  0  0  0  0
 11 12  2  0  0  0  0
 11 27  1  0  0  0  0
 12 28  1  0  0  0  0
 13 22  1  0  0  0  0
 13 26  2  0  0  0  0
 14 28  2  0  0  0  0
 14 29  1  0  0  0  0
 15 23  2  0  0  0  0
 15 67  1  0  0  0  0
 16 24  2  0  0  0  0
 16 67  1  0  0  0  0
 17 30  1  0  0  0  0
 18 30  1  0  0  0  0
 18 31  2  0  0  0  0
 18 32  1  0  0  0  0
 19 21  2  0  0  0  0
 19 37  1  0  0  0  0
 20 22  2  0  0  0  0
 20 38  1  0  0  0  0
 21 46  1  0  0  0  0
 22 39  1  0  0  0  0
 23 24  1  0  0  0  0
 23 57  1  0  0  0  0
 24 61  1  0  0  0  0
 25 82  1  0  0  0  0
 26 83  1  0  0  0  0
 27 29  2  0  0  0  0
 27 82  1  0  0  0  0
 28 84  1  0  0  0  0
 29 85  1  0  0  0  0
 30 66  2  0  0  0  0
 31 68  1  0  0  0  0
 31 71  1  0  0  0  0
 32 72  1  0  0  0  0
 32 77  2  0  0  0  0
 33 47  1  0  0  0  0
 33 73  1  0  0  0  0
 33 78  2  0  0  0  0
 34 62  1  0  0  0  0
 34 69  1  0  0  0  0
 34 79  2  0  0  0  0
 35 63  1  0  0  0  0
 35 74  1  0  0  0  0
 35 80  2  0  0  0  0
 36 70  1  0  0  0  0
 36 75  1  0  0  0  0
 36 81  2  0  0  0  0
 37 40  1  0  0  0  0
 38 47  1  0  0  0  0
 39 69  1  0  0  0  0
 40 42  1  0  0  0  0
 41 43  1  0  0  0  0
 41 44  1  0  0  0  0
 42 46  1  0  0  0  0
 43 48  1  0  0  0  0
 44 70  1  0  0  0  0
 45 48  1  0  0  0  0
 45 70  1  0  0  0  0
 46 73  1  0  0  0  0
 47 69  1  0  0  0  0
 48 68  1  0  0  0  0
 49 58  1  0  0  0  0
 50 61  1  0  0  0  0
 51 63  1  0  0  0  0
 52 64  1  0  0  0  0
 53 65  1  0  0  0  0
 54 65  1  0  0  0  0
 55 65  1  0  0  0  0
 56 76  1  0  0  0  0
 57 75  1  0  0  0  0
 58 61  1  0  0  0  0
 59 60  1  0  0  0  0
 59 64  1  0  0  0  0
 60 67  1  0  0  0  0
 62 65  1  0  0  0  0
 62 74  1  0  0  0  0
 63 76  1  0  0  0  0
 64 83  1  0  0  0  0
 66 68  1  0  0  0  0
M  CHG  1  76   1
M  ISO  4  36 100  64 101  75 100  83 101
M  END
> <Batch ID>
0102

> <Smiles>
CCC(C)c1cn(CC[101CH:1](C)[101O:1]c2ccc3c(c2)CN(C(=O)C(NC(=O)C(C)NC)C(C)(C)C)C(C(=O)NC2CCCc4ccccc42)C3)cc1C[100NH:0][100C:0](=O)N1CCCC(n2nc(-c3ccc(Oc4ccc(F)cc4F)cc3)c(C(N)=O)c2N)C1

> <Shape>
0.200

> <Color>
0.180

> <Negative vol penalty>
0.000

$$$$

  -OEChem-04052319383D

 87 96  0     1  0  0  0  0  0999 V2000
  -25.7280  -23.9165   25.5356 C   0  0  0  0  0  0  0  0  0  0  0  0
  -26.8304  -23.1526   25.1661 C   0  0  0  0  0  0  0  0  0  0  0  0
  -27.7576  -18.3463   21.8357 C   0  0  0  0  0  0  0  0  0  0  0  0
  -23.2124   -9.8697   20.0097 C   0  0  0  0  0  0  0  0  0  0  0  0
  -23.9044  -10.0266   22.3192 C   0  0  0  0  0  0  0  0  0  0  0  0
  -24.8693  -24.4176   24.5580 C   0  0  0  0  0  0  0  0  0  0  0  0
  -27.0742  -22.8884   23.8188 C   0  0  0  0  0  0  0  0  0  0  0  0
  -31.9420  -23.5077   22.5676 C   0  0  0  0  0  0  0  0  0  0  0  0
  -29.0785  -17.9189   21.6772 C   0  0  0  0  0  0  0  0  0  0  0  0
  -22.5098   -8.7002   20.2997 C   0  0  0  0  0  0  0  0  0  0  0  0
  -23.2017   -8.8570   22.6091 C   0  0  0  0  0  0  0  0  0  0  0  0
  -32.8247  -22.4877   22.9199 C   0  0  0  0  0  0  0  0  0  0  0  0
  -20.2370   -5.8706   20.5073 C   0  0  0  0  0  0  0  0  0  0  0  0
  -18.9491   -5.7419   19.9873 C   0  0  0  0  0  0  0  0  0  0  0  0
  -32.7359  -21.6396   20.6633 C   0  0  0  0  0  0  0  0  0  0  0  0
  -29.1781  -17.2870   24.0096 C   0  0  0  0  0  0  0  0  0  0  0  0
  -18.2662   -7.7239   21.1882 C   0  0  0  0  0  0  0  0  0  0  0  0
  -25.5489  -18.3629   24.8299 C   0  0  0  0  0  0  0  0  0  0  0  0
  -27.1196  -18.2500   23.0961 C   0  0  0  0  0  0  0  0  0  0  0  0
  -23.9097  -10.5329   21.0195 C   0  0  0  0  0  0  0  0  0  0  0  0
  -24.1504  -13.0609   20.7766 C   0  0  0  0  0  0  0  0  0  0  0  0
  -25.1081  -24.1675   23.1975 C   0  0  0  0  0  0  0  0  0  0  0  0
  -31.4402  -23.5950   21.2610 C   0  0  0  0  0  0  0  0  0  0  0  0
  -26.2172  -23.3855   22.8222 C   0  0  0  0  0  0  0  0  0  0  0  0
  -31.8489  -22.6632   20.2963 C   0  0  0  0  0  0  0  0  0  0  0  0
  -29.7794  -17.3950   22.7541 C   0  0  0  0  0  0  0  0  0  0  0  0
  -25.7922  -18.6166   23.5010 C   0  0  0  0  0  0  0  0  0  0  0  0
  -22.5044   -8.1938   21.5994 C   0  0  0  0  0  0  0  0  0  0  0  0
  -33.2196  -21.5517   21.9685 C   0  0  0  0  0  0  0  0  0  0  0  0
  -20.5395   -6.9259   21.3679 C   0  0  0  0  0  0  0  0  0  0  0  0
  -17.9637   -6.6686   20.3277 C   0  0  0  0  0  0  0  0  0  0  0  0
  -19.5541   -7.8526   21.7083 C   0  0  0  0  0  0  0  0  0  0  0  0
  -27.8464  -17.7188   24.1660 C   0  0  0  0  0  0  0  0  0  0  0  0
  -24.6362  -11.7408   20.7205 C   0  0  0  0  0  0  0  0  0  0  0  0
  -25.2208  -13.8368   20.4040 C   0  0  0  0  0  0  0  0  0  0  0  0
  -22.8481  -13.5428   21.1336 C   0  0  0  0  0  0  0  0  0  0  0  0
  -28.5466  -23.4416   19.9545 C   0  0  0  0  0  0  0  0  0  0  0  0
  -30.1522  -24.2342   17.2497 C   0  0  0  0  0  0  0  0  0  0  0  0
  -33.1042  -24.2681   15.5375 C   0  0  0  0  0  0  0  0  0  0  0  0
  -30.9818  -14.0542   20.9316 C   0  0  0  0  0  0  0  0  0  0  0  0
  -24.1256  -24.6906   22.1799 C   0  0  0  0  0  0  0  0  0  0  0  0
  -30.5097  -24.7171   20.8901 C   0  0  0  0  0  0  0  0  0  0  0  0
  -31.3549  -22.7249   18.8748 C   0  0  0  0  0  0  0  0  0  0  0  0
  -24.6641  -24.6796   20.7515 C   0  0  0  0  0  0  0  0  0  0  0  0
  -29.4100  -13.0262   17.9068 C   0  0  0  0  0  0  0  0  0  0  0  0
  -25.3320  -23.3433   20.4431 C   0  0  0  0  0  0  0  0  0  0  0  0
  -27.9736  -12.7126   18.3292 C   0  0  0  0  0  0  0  0  0  0  0  0
  -30.4150  -12.6295   18.9860 C   0  0  0  0  0  0  0  0  0  0  0  0
  -28.7064  -12.8777   20.7447 C   0  0  0  0  0  0  0  0  0  0  0  0
  -26.5290  -23.0980   21.3696 C   0  0  1  0  0  0  0  0  0  0  0  0
  -29.6599  -24.4072   19.6616 C   0  0  1  0  0  0  0  0  0  0  0  0
  -27.6523  -13.3115   19.7118 C   0  0  2  0  0  0  0  0  0  0  0  0
  -24.7796  -19.2081   22.5909 C   0  0  0  0  0  0  0  0  0  0  0  0
  -34.0958  -24.9463   13.3343 C   0  0  0  0  0  0  0  0  0  0  0  0
  -28.8791  -21.7960   15.9290 C   0  0  0  0  0  0  0  0  0  0  0  0
  -30.5915  -21.9734   14.1111 C   0  0  0  0  0  0  0  0  0  0  0  0
  -28.9734  -23.8350   14.4840 C   0  0  0  0  0  0  0  0  0  0  0  0
  -34.9658  -26.1716   16.8297 C   0  0  0  0  0  0  0  0  0  0  0  0
  -34.4525  -18.6307   23.6929 C   0  0  0  0  0  0  0  0  0  0  0  0
  -31.3967  -15.4600   22.9343 C   0  0  0  0  0  0  0  0  0  0  0  0
  -33.5604  -17.7273   22.8549 C   0  0  0  0  0  0  0  0  0  0  0  0
  -34.0422  -20.0978   23.6612 C   0  0  0  0  0  0  0  0  0  1  0  0
  -31.2086  -16.9359   22.5691 C   0  0  2  0  0  0  0  0  0  0  0  0
  -30.8390  -23.4622   16.1491 C   0  0  1  0  0  0  0  0  0  0  0  0
  -33.8088  -25.3697   14.7665 C   0  0  2  0  0  0  0  0  0  0  0  0
  -29.8287  -22.7641   15.1955 C   0  0  0  0  0  0  0  0  0  0  0  0
  -25.9155  -11.6778   20.3419 N   0  0  0  0  0  0  0  0  0  0  0  0
  -26.2427  -12.9680   20.1567 N   0  0  0  0  0  0  0  0  0  0  0  0
  -30.4418  -23.8367   18.5628 N   0  0  0  0  0  0  0  0  0  0  0  0
  -30.0540  -13.2314   20.2719 N   0  0  0  0  0  0  0  0  0  0  0  0
  -25.3781  -15.1705   20.2671 N   0  0  0  0  0  0  0  0  0  0  0  0
  -21.8652  -12.6096   21.4908 N   0  0  0  0  0  0  0  0  0  0  0  0
  -27.6720  -23.8716   20.9341 N   0  0  0  0  0  0  0  0  0  0  0  0
  -31.7331  -24.4051   15.4858 N   0  0  0  0  0  0  0  0  0  0  0  0
  -30.5573  -14.5896   22.1416 N   0  0  0  0  0  0  0  0  0  0  0  0
  -35.1015  -25.7157   15.4223 N   0  3  0  0  0  0  0  0  0  0  0  0
  -32.1692  -17.7496   23.3645 N   0  3  0  0  0  0  0  0  0  0  0  0
  -22.5597  -14.7635   21.1201 O   0  0  0  0  0  0  0  0  0  0  0  0
  -28.4847  -22.3852   19.3365 O   0  0  0  0  0  0  0  0  0  0  0  0
  -29.3926  -25.1604   16.9555 O   0  0  0  0  0  0  0  0  0  0  0  0
  -33.7094  -23.3733   16.1237 O   0  0  0  0  0  0  0  0  0  0  0  0
  -32.1032  -14.2983   20.4736 O   0  0  0  0  0  0  0  0  0  0  0  0
  -21.8187   -7.0527   21.8827 O   0  0  0  0  0  0  0  0  0  0  0  0
  -34.0805  -20.5547   22.3099 O   0  0  0  0  0  0  0  0  0  1  0  0
  -16.7274   -6.5458   19.8270 F   0  0  0  0  0  0  0  0  0  0  0  0
  -19.8390   -8.8692   22.5336 F   0  0  0  0  0  0  0  0  0  0  0  0
  -26.9039  -17.6836   25.6096 S   0  0  0  0  0  0  0  0  0  0  0  0
  1  2  1  0  0  0  0
  1  6  2  0  0  0  0
  2  7  2  0  0  0  0
  3  9  2  0  0  0  0
  3 19  1  0  0  0  0
  4 10  2  0  0  0  0
  4 20  1  0  0  0  0
  5 11  1  0  0  0  0
  5 20  2  0  0  0  0
  6 22  1  0  0  0  0
  7 24  1  0  0  0  0
  8 12  2  0  0  0  0
  8 23  1  0  0  0  0
  9 26  1  0  0  0  0
 10 28  1  0  0  0  0
 11 28  2  0  0  0  0
 12 29  1  0  0  0  0
 13 14  2  0  0  0  0
 13 30  1  0  0  0  0
 14 31  1  0  0  0  0
 15 25  1  0  0  0  0
 15 29  2  0  0  0  0
 16 26  2  0  0  0  0
 16 33  1  0  0  0  0
 17 31  2  0  0  0  0
 17 32  1  0  0  0  0
 18 27  2  0  0  0  0
 18 87  1  0  0  0  0
 19 27  1  0  0  0  0
 19 33  2  0  0  0  0
 20 34  1  0  0  0  0
 21 34  1  0  0  0  0
 21 35  2  0  0  0  0
 21 36  1  0  0  0  0
 22 24  2  0  0  0  0
 22 41  1  0  0  0  0
 23 25  2  0  0  0  0
 23 42  1  0  0  0  0
 24 50  1  0  0  0  0
 25 43  1  0  0  0  0
 26 63  1  0  0  0  0
 27 53  1  0  0  0  0
 28 83  1  0  0  0  0
 29 84  1  0  0  0  0
 30 32  2  0  0  0  0
 30 83  1  0  0  0  0
 31 85  1  0  0  0  0
 32 86  1  0  0  0  0
 33 87  1  0  0  0  0
 34 67  2  0  0  0  0
 35 68  1  0  0  0  0
 35 71  1  0  0  0  0
 36 72  1  0  0  0  0
 36 78  2  0  0  0  0
 37 51  1  0  0  0  0
 37 73  1  0  0  0  0
 37 79  2  0  0  0  0
 38 64  1  0  0  0  0
 38 69  1  0  0  0  0
 38 80  2  0  0  0  0
 39 65  1  0  0  0  0
 39 74  1  0  0  0  0
 39 81  2  0  0  0  0
 40 70  1  0  0  0  0
 40 75  1  0  0  0  0
 40 82  2  0  0  0  0
 41 44  1  0  0  0  0
 42 51  1  0  0  0  0
 43 69  1  0  0  0  0
 44 46  1  0  0  0  0
 45 47  1  0  0  0  0
 45 48  1  0  0  0  0
 46 50  1  0  0  0  0
 47 52  1  0  0  0  0
 48 70  1  0  0  0  0
 49 52  1  0  0  0  0
 49 70  1  0  0  0  0
 50 73  1  0  0  0  0
 51 69  1  0  0  0  0
 52 68  1  0  0  0  0
 54 65  1  0  0  0  0
 55 66  1  0  0  0  0
 56 66  1  0  0  0  0
 57 66  1  0  0  0  0
 58 76  1  0  0  0  0
 59 61  1  0  0  0  0
 59 62  1  0  0  0  0
 60 63  1  0  0  0  0
 60 75  1  0  0  0  0
 61 77  1  0  0  0  0
 62 84  1  0  0  0  0
 63 77  1  0  0  0  0
 64 66  1  0  0  0  0
 64 74  1  0  0  0  0
 65 76  1  0  0  0  0
 67 68  1  0  0  0  0
M  CHG  2  76   1  77   1
M  ISO  4  40 100  62 101  75 100  84 101
M  END
> <Batch ID>
0102

> <Smiles>
CNC(C)C(=O)NC(C(=O)N1Cc2cc([101O:1][101CH2:1]CCNC(C[100NH:0][100C:0](=O)N3CCCC(n4nc(-c5ccc(Oc6ccc(F)cc6F)cc5)c(C(N)=O)c4N)C3)c3ccc4c(C)csc4c3)ccc2CC1C(=O)NC1CCCc2ccccc21)C(C)(C)C

> <Shape>
0.201

> <Color>
0.189

> <Negative vol penalty>
0.000

$$$$

  -OEChem-04052319383D

 82 89  0     1  0  0  0  0  0999 V2000
  -16.7267  -30.0455   24.1544 C   0  0  0  0  0  0  0  0  0  0  0  0
  -17.9044  -30.5800   24.6668 C   0  0  0  0  0  0  0  0  0  0  0  0
  -24.9110  -18.1449   22.1361 C   0  0  0  0  0  0  0  0  0  0  0  0
  -27.2521  -17.6651   21.7808 C   0  0  0  0  0  0  0  0  0  0  0  0
  -16.7765  -28.9512   23.2919 C   0  0  0  0  0  0  0  0  0  0  0  0
  -19.1328  -30.0199   24.3176 C   0  0  0  0  0  0  0  0  0  0  0  0
  -25.9646  -31.8309   23.1502 C   0  0  0  0  0  0  0  0  0  0  0  0
  -24.5690  -16.9637   21.4778 C   0  0  0  0  0  0  0  0  0  0  0  0
  -26.9101  -16.4838   21.1227 C   0  0  0  0  0  0  0  0  0  0  0  0
  -27.2546  -31.4789   23.5447 C   0  0  0  0  0  0  0  0  0  0  0  0
  -25.9370  -13.3584   21.9625 C   0  0  0  0  0  0  0  0  0  0  0  0
  -26.6516  -12.2060   22.2893 C   0  0  0  0  0  0  0  0  0  0  0  0
  -27.2236  -29.6398   21.9839 C   0  0  0  0  0  0  0  0  0  0  0  0
  -27.3815  -12.0078   19.9947 C   0  0  0  0  0  0  0  0  0  0  0  0
  -26.2525  -18.4957   22.2875 C   0  0  0  0  0  0  0  0  0  0  0  0
  -26.8497  -19.8830   24.3434 C   0  0  0  0  0  0  0  0  0  0  0  0
  -18.0066  -28.3834   22.9244 C   0  0  0  0  0  0  0  0  0  0  0  0
  -25.2890  -31.0822   22.1758 C   0  0  0  0  0  0  0  0  0  0  0  0
  -19.1990  -28.9161   23.4504 C   0  0  0  0  0  0  0  0  0  0  0  0
  -25.9260  -29.9859   21.5770 C   0  0  0  0  0  0  0  0  0  0  0  0
  -25.5685  -16.1331   20.9712 C   0  0  0  0  0  0  0  0  0  0  0  0
  -27.8832  -30.3815   22.9636 C   0  0  0  0  0  0  0  0  0  0  0  0
  -25.9445  -13.8355   20.6518 C   0  0  0  0  0  0  0  0  0  0  0  0
  -27.3739  -11.5307   21.3055 C   0  0  0  0  0  0  0  0  0  0  0  0
  -26.6668  -13.1603   19.6679 C   0  0  0  0  0  0  0  0  0  0  0  0
  -26.6064  -19.7161   22.9669 C   0  0  0  0  0  0  0  0  0  0  0  0
  -27.1449  -21.2174   24.4806 C   0  0  0  0  0  0  0  0  0  0  0  0
  -26.8123  -18.9181   25.4032 C   0  0  0  0  0  0  0  0  0  0  0  0
  -22.6191  -29.3580   22.1236 C   0  0  0  0  0  0  0  0  0  0  0  0
  -23.2691  -29.1634   18.9515 C   0  0  0  0  0  0  0  0  0  0  0  0
  -25.5941  -29.2985   16.4569 C   0  0  0  0  0  0  0  0  0  0  0  0
  -29.3221  -25.3211   20.7030 C   0  0  0  0  0  0  0  0  0  0  0  0
  -18.0074  -27.1717   22.0264 C   0  0  0  0  0  0  0  0  0  0  0  0
  -23.9080  -31.4909   21.7421 C   0  0  0  0  0  0  0  0  0  0  0  0
  -25.2517  -29.1616   20.5119 C   0  0  0  0  0  0  0  0  0  0  0  0
  -19.3711  -26.8715   21.4096 C   0  0  0  0  0  0  0  0  0  0  0  0
  -26.2469  -25.4748   22.4908 C   0  0  0  0  0  0  0  0  0  0  0  0
  -20.4647  -26.9455   22.4705 C   0  0  0  0  0  0  0  0  0  0  0  0
  -26.0123  -24.0314   22.9398 C   0  0  0  0  0  0  0  0  0  0  0  0
  -26.8876  -25.5381   21.1061 C   0  0  0  0  0  0  0  0  0  0  0  0
  -27.8920  -23.3081   21.4093 C   0  0  0  0  0  0  0  0  0  0  0  0
  -20.5522  -28.3518   23.0755 C   0  0  1  0  0  0  0  0  0  0  0  0
  -23.1177  -30.3492   21.1103 C   0  0  1  0  0  0  0  0  0  0  0  0
  -27.2988  -23.1920   22.8239 C   0  0  2  0  0  0  0  0  0  0  0  0
  -25.8308  -29.0625   13.9698 C   0  0  0  0  0  0  0  0  0  0  0  0
  -29.7731  -25.9305   24.5814 C   0  0  0  0  0  0  0  0  0  0  0  0
  -33.3168  -24.8048   24.0429 C   0  0  0  0  0  0  0  0  0  0  0  0
  -23.0554  -26.1316   19.2213 C   0  0  0  0  0  0  0  0  0  0  0  0
  -24.2097  -25.9233   17.0094 C   0  0  0  0  0  0  0  0  0  0  0  0
  -22.0006  -27.0723   17.1580 C   0  0  0  0  0  0  0  0  0  0  0  0
  -33.2809  -23.2978   21.4101 C   0  0  0  0  0  0  0  0  0  0  0  0
  -34.0588  -25.6305   21.1205 C   0  0  0  0  0  0  0  0  0  0  0  0
  -26.5630  -32.0801   16.1686 C   0  0  0  0  0  0  0  0  0  0  0  0
  -30.5292  -28.3437   24.3408 C   0  0  0  0  0  0  0  0  0  0  0  0
  -31.7402  -26.5395   23.0742 C   0  0  0  0  0  0  0  0  0  0  0  0
  -31.7503  -24.9489   20.3502 C   0  0  0  0  0  0  0  0  0  0  0  0
  -29.4876  -28.6531   23.2714 C   0  0  0  0  0  0  0  0  0  1  0  0
  -24.0580  -28.2181   18.0779 C   0  0  1  0  0  0  0  0  0  0  0  0
  -25.6005  -30.0254   15.1242 C   0  0  2  0  0  0  0  0  0  0  0  0
  -30.9698  -26.8641   24.3798 C   0  0  2  0  0  0  0  0  0  0  0  0
  -32.2966  -25.0953   22.9290 C   0  0  1  0  0  0  0  0  0  0  0  0
  -23.3432  -26.8505   17.8881 C   0  0  0  0  0  0  0  0  0  0  0  0
  -32.8145  -24.7779   21.4646 C   0  0  0  0  0  0  0  0  0  0  0  0
  -26.7357  -20.8536   22.2788 N   0  0  0  0  0  0  0  0  0  0  0  0
  -27.0633  -21.7480   23.2268 N   0  0  0  0  0  0  0  0  0  0  0  0
  -23.8993  -29.5974   20.1264 N   0  0  0  0  0  0  0  0  0  0  0  0
  -28.1037  -24.7225   21.0637 N   0  0  0  0  0  0  0  0  0  0  0  0
  -27.4635  -21.9769   25.5502 N   0  0  0  0  0  0  0  0  0  0  0  0
  -26.4916  -17.5908   25.0874 N   0  0  0  0  0  0  0  0  0  0  0  0
  -21.2425  -29.2482   22.1731 N   0  0  0  0  0  0  0  0  0  0  0  0
  -24.3188  -28.9338   16.8337 N   0  0  0  0  0  0  0  0  0  0  0  0
  -30.4269  -24.4785   20.6941 N   0  0  0  0  0  0  0  0  0  0  0  0
  -26.6786  -31.0540   15.1005 N   0  3  0  0  0  0  0  0  0  0  0  0
  -27.0400  -19.2272   26.5974 O   0  0  0  0  0  0  0  0  0  0  0  0
  -23.4238  -28.7377   22.8086 O   0  0  0  0  0  0  0  0  0  0  0  0
  -22.1383  -29.5096   18.6008 O   0  0  0  0  0  0  0  0  0  0  0  0
  -26.6184  -29.0732   17.0977 O   0  0  0  0  0  0  0  0  0  0  0  0
  -29.4191  -26.5190   20.4157 O   0  0  0  0  0  0  0  0  0  0  0  0
  -25.2352  -14.9802   20.3290 O   0  0  0  0  0  0  0  0  0  0  0  0
  -29.1507  -30.0329   23.3498 O   0  0  0  0  0  0  0  0  0  1  0  0
  -28.0614  -10.4249   21.6198 F   0  0  0  0  0  0  0  0  0  0  0  0
  -26.6788  -13.6145   18.4072 F   0  0  0  0  0  0  0  0  0  0  0  0
  1  2  1  0  0  0  0
  1  5  2  0  0  0  0
  2  6  2  0  0  0  0
  3  8  2  0  0  0  0
  3 15  1  0  0  0  0
  4  9  1  0  0  0  0
  4 15  2  0  0  0  0
  5 17  1  0  0  0  0
  6 19  1  0  0  0  0
  7 10  2  0  0  0  0
  7 18  1  0  0  0  0
  8 21  1  0  0  0  0
  9 21  2  0  0  0  0
 10 22  1  0  0  0  0
 11 12  2  0  0  0  0
 11 23  1  0  0  0  0
 12 24  1  0  0  0  0
 13 20  1  0  0  0  0
 13 22  2  0  0  0  0
 14 24  2  0  0  0  0
 14 25  1  0  0  0  0
 15 26  1  0  0  0  0
 16 26  1  0  0  0  0
 16 27  2  0  0  0  0
 16 28  1  0  0  0  0
 17 19  2  0  0  0  0
 17 33  1  0  0  0  0
 18 20  2  0  0  0  0
 18 34  1  0  0  0  0
 19 42  1  0  0  0  0
 20 35  1  0  0  0  0
 21 79  1  0  0  0  0
 22 80  1  0  0  0  0
 23 25  2  0  0  0  0
 23 79  1  0  0  0  0
 24 81  1  0  0  0  0
 25 82  1  0  0  0  0
 26 64  2  0  0  0  0
 27 65  1  0  0  0  0
 27 68  1  0  0  0  0
 28 69  1  0  0  0  0
 28 74  2  0  0  0  0
 29 43  1  0  0  0  0
 29 70  1  0  0  0  0
 29 75  2  0  0  0  0
 30 58  1  0  0  0  0
 30 66  1  0  0  0  0
 30 76  2  0  0  0  0
 31 59  1  0  0  0  0
 31 71  1  0  0  0  0
 31 77  2  0  0  0  0
 32 67  1  0  0  0  0
 32 72  1  0  0  0  0
 32 78  2  0  0  0  0
 33 36  1  0  0  0  0
 34 43  1  0  0  0  0
 35 66  1  0  0  0  0
 36 38  1  0  0  0  0
 37 39  1  0  0  0  0
 37 40  1  0  0  0  0
 38 42  1  0  0  0  0
 39 44  1  0  0  0  0
 40 67  1  0  0  0  0
 41 44  1  0  0  0  0
 41 67  1  0  0  0  0
 42 70  1  0  0  0  0
 43 66  1  0  0  0  0
 44 65  1  0  0  0  0
 45 59  1  0  0  0  0
 46 60  1  0  0  0  0
 47 61  1  0  0  0  0
 48 62  1  0  0  0  0
 49 62  1  0  0  0  0
 50 62  1  0  0  0  0
 51 63  1  0  0  0  0
 52 63  1  0  0  0  0
 53 73  1  0  0  0  0
 54 57  1  0  0  0  0
 54 60  1  0  0  0  0
 55 60  1  0  0  0  0
 55 61  1  0  0  0  0
 56 63  1  0  0  0  0
 56 72  1  0  0  0  0
 57 80  1  0  0  0  0
 58 62  1  0  0  0  0
 58 71  1  0  0  0  0
 59 73  1  0  0  0  0
 61 63  1  0  0  0  0
 64 65  1  0  0  0  0
M  CHG  1  73   1
M  ISO  4  32 100  57 101  72 100  80 101
M  END
> <Batch ID>
0102

> <Smiles>
CNC(C)C(=O)NC(C(=O)N1Cc2cc([101O:1][101CH2:1]CC(C)CC(C)C(C)(C)C[100NH:0][100C:0](=O)N3CCCC(n4nc(-c5ccc(Oc6ccc(F)cc6F)cc5)c(C(N)=O)c4N)C3)ccc2CC1C(=O)NC1CCCc2ccccc21)C(C)(C)C

> <Shape>
0.212

> <Color>
0.114

> <Negative vol penalty>
0.000

$$$$

  -OEChem-04052319383D

 83 91  0     1  0  0  0  0  0999 V2000
  -19.7833   -9.9102   19.2374 C   0  0  0  0  0  0  0  0  0  0  0  0
  -19.3048  -11.1573   18.8488 C   0  0  0  0  0  0  0  0  0  0  0  0
  -28.7759  -25.6807   17.8426 C   0  0  0  0  0  0  0  0  0  0  0  0
  -28.2755  -24.6017   19.9456 C   0  0  0  0  0  0  0  0  0  0  0  0
  -20.6463   -9.8046   20.3274 C   0  0  0  0  0  0  0  0  0  0  0  0
  -19.6883  -12.2996   19.5506 C   0  0  0  0  0  0  0  0  0  0  0  0
  -21.0497  -19.2632   18.5651 C   0  0  0  0  0  0  0  0  0  0  0  0
  -29.9746  -24.9719   17.7641 C   0  0  0  0  0  0  0  0  0  0  0  0
  -29.4743  -23.8928   19.8671 C   0  0  0  0  0  0  0  0  0  0  0  0
  -20.6917  -20.5126   19.0698 C   0  0  0  0  0  0  0  0  0  0  0  0
  -32.9960  -23.1782   16.8317 C   0  0  0  0  0  0  0  0  0  0  0  0
  -33.3267  -22.5969   15.6077 C   0  0  0  0  0  0  0  0  0  0  0  0
  -22.2500  -20.2181   20.8875 C   0  0  0  0  0  0  0  0  0  0  0  0
  -18.6307  -28.4703   21.7718 C   0  0  0  0  0  0  0  0  0  0  0  0
  -31.3068  -21.2739   15.6902 C   0  0  0  0  0  0  0  0  0  0  0  0
  -19.7111  -27.5230   23.6671 C   0  0  0  0  0  0  0  0  0  0  0  0
  -27.9264  -25.4957   18.9334 C   0  0  0  0  0  0  0  0  0  0  0  0
  -25.4328  -25.8341   18.5147 C   0  0  0  0  0  0  0  0  0  0  0  0
  -21.0482  -10.9472   21.0369 C   0  0  0  0  0  0  0  0  0  0  0  0
  -22.0042  -18.4759   19.2250 C   0  0  0  0  0  0  0  0  0  0  0  0
  -20.5564  -12.2091   20.6519 C   0  0  0  0  0  0  0  0  0  0  0  0
  -22.6202  -18.9602   20.3878 C   0  0  0  0  0  0  0  0  0  0  0  0
  -19.5717  -28.5856   22.7889 C   0  0  0  0  0  0  0  0  0  0  0  0
  -17.8686  -27.3121   21.6654 C   0  0  0  0  0  0  0  0  0  0  0  0
  -30.3238  -24.0779   18.7763 C   0  0  0  0  0  0  0  0  0  0  0  0
  -21.2898  -20.9890   20.2327 C   0  0  0  0  0  0  0  0  0  0  0  0
  -31.8207  -22.8073   17.4851 C   0  0  0  0  0  0  0  0  0  0  0  0
  -32.4821  -21.6448   15.0369 C   0  0  0  0  0  0  0  0  0  0  0  0
  -30.9761  -21.8552   16.9143 C   0  0  0  0  0  0  0  0  0  0  0  0
  -26.6882  -26.2280   19.0153 C   0  0  0  0  0  0  0  0  0  0  0  0
  -18.0844  -26.3064   22.5938 C   0  0  0  0  0  0  0  0  0  0  0  0
  -24.5913  -26.8679   18.8459 C   0  0  0  0  0  0  0  0  0  0  0  0
  -25.0606  -24.6404   17.8131 C   0  0  0  0  0  0  0  0  0  0  0  0
  -21.9798  -15.6187   20.6178 C   0  0  0  0  0  0  0  0  0  0  0  0
  -25.1689  -16.1512   20.8798 C   0  0  0  0  0  0  0  0  0  0  0  0
  -27.7284  -18.4044   21.0162 C   0  0  0  0  0  0  0  0  0  0  0  0
  -22.7105  -30.6267   22.5174 C   0  0  0  0  0  0  0  0  0  0  0  0
  -21.9452  -10.7780   22.2376 C   0  0  0  0  0  0  0  0  0  0  0  0
  -22.3988  -17.1419   18.6530 C   0  0  0  0  0  0  0  0  0  0  0  0
  -23.6652  -18.1625   21.1227 C   0  0  0  0  0  0  0  0  0  0  0  0
  -22.6001  -12.0782   22.6967 C   0  0  0  0  0  0  0  0  0  0  0  0
  -25.6011  -31.4930   20.6278 C   0  0  0  0  0  0  0  0  0  0  0  0
  -21.5707  -13.2022   22.7568 C   0  0  0  0  0  0  0  0  0  0  0  0
  -26.0412  -30.1674   20.0041 C   0  0  0  0  0  0  0  0  0  0  0  0
  -25.0464  -31.2970   22.0370 C   0  0  0  0  0  0  0  0  0  0  0  0
  -24.4050  -28.9743   21.5200 C   0  0  0  0  0  0  0  0  0  0  0  0
  -20.9692  -13.4741   21.3727 C   0  0  1  0  0  0  0  0  0  0  0  0
  -23.0073  -16.2034   19.6904 C   0  0  1  0  0  0  0  0  0  0  0  0
  -24.9198  -29.1137   20.0772 C   0  0  2  0  0  0  0  0  0  0  0  0
  -16.8574  -27.1828   20.5791 C   0  0  0  0  0  0  0  0  0  0  0  0
  -30.0935  -19.2400   21.0907 C   0  0  0  0  0  0  0  0  0  0  0  0
  -24.8915  -15.5845   23.8651 C   0  0  0  0  0  0  0  0  0  0  0  0
  -27.1351  -16.6430   24.2035 C   0  0  0  0  0  0  0  0  0  0  0  0
  -26.9246  -14.5919   22.7993 C   0  0  0  0  0  0  0  0  0  0  0  0
  -27.9316  -18.4395   18.0638 C   0  0  0  0  0  0  0  0  0  0  0  0
  -20.4032  -29.8107   22.9295 C   0  0  0  0  0  0  0  0  0  0  0  0
  -17.2879  -25.0277   22.5273 C   0  0  0  0  0  0  0  0  0  0  0  0
  -17.7451  -24.0703   21.4211 C   0  0  0  0  0  0  0  0  0  0  0  0
  -19.1765  -23.5686   21.6174 C   0  0  0  0  0  0  0  0  0  0  0  0
  -19.6088  -22.6530   20.4802 C   0  0  0  0  0  0  0  0  0  1  0  0
  -26.0640  -16.7966   21.9100 C   0  0  1  0  0  0  0  0  0  0  0  0
  -29.0611  -18.4601   20.2915 C   0  0  2  0  0  0  0  0  0  0  0  0
  -26.2327  -15.9184   23.1819 C   0  0  0  0  0  0  0  0  0  0  0  0
  -18.9891  -26.3823   23.5955 N   0  0  0  0  0  0  0  0  0  0  0  0
  -26.6521  -27.4192   19.6185 N   0  0  0  0  0  0  0  0  0  0  0  0
  -25.3639  -27.7827   19.4990 N   0  0  0  0  0  0  0  0  0  0  0  0
  -24.0126  -16.8616   20.5274 N   0  0  0  0  0  0  0  0  0  0  0  0
  -23.9858  -30.2865   22.0369 N   0  0  0  0  0  0  0  0  0  0  0  0
  -23.2734  -27.0746   18.6392 N   0  0  0  0  0  0  0  0  0  0  0  0
  -26.0493  -23.6811   17.5553 N   0  0  0  0  0  0  0  0  0  0  0  0
  -21.8912  -14.2409   20.5626 N   0  0  0  0  0  0  0  0  0  0  0  0
  -27.3155  -17.1059   21.2270 N   0  0  0  0  0  0  0  0  0  0  0  0
  -21.7618  -29.6123   22.4760 N   0  0  0  0  0  0  0  0  0  0  0  0
  -28.9014  -19.1162   18.9630 N   0  3  0  0  0  0  0  0  0  0  0  0
  -23.8894  -24.4381   17.4119 O   0  0  0  0  0  0  0  0  0  0  0  0
  -21.3175  -16.3626   21.3318 O   0  0  0  0  0  0  0  0  0  0  0  0
  -25.4877  -15.0604   20.4000 O   0  0  0  0  0  0  0  0  0  0  0  0
  -27.1168  -19.4121   21.3640 O   0  0  0  0  0  0  0  0  0  0  0  0
  -22.4361  -31.7526   22.9462 O   0  0  0  0  0  0  0  0  0  0  0  0
  -31.4933  -23.3858   18.6999 O   0  0  0  0  0  0  0  0  0  0  0  0
  -20.9418  -22.2079   20.7278 O   0  0  0  0  0  0  0  0  0  1  0  0
  -32.7990  -21.0878   13.8607 F   0  0  0  0  0  0  0  0  0  0  0  0
  -29.8450  -21.4957   17.5367 F   0  0  0  0  0  0  0  0  0  0  0  0
  1  2  1  0  0  0  0
  1  5  2  0  0  0  0
  2  6  2  0  0  0  0
  3  8  2  0  0  0  0
  3 17  1  0  0  0  0
  4  9  1  0  0  0  0
  4 17  2  0  0  0  0
  5 19  1  0  0  0  0
  6 21  1  0  0  0  0
  7 10  2  0  0  0  0
  7 20  1  0  0  0  0
  8 25  1  0  0  0  0
  9 25  2  0  0  0  0
 10 26  1  0  0  0  0
 11 12  2  0  0  0  0
 11 27  1  0  0  0  0
 12 28  1  0  0  0  0
 13 22  1  0  0  0  0
 13 26  2  0  0  0  0
 14 23  2  0  0  0  0
 14 24  1  0  0  0  0
 15 28  2  0  0  0  0
 15 29  1  0  0  0  0
 16 23  1  0  0  0  0
 16 64  2  0  0  0  0
 17 30  1  0  0  0  0
 18 30  1  0  0  0  0
 18 32  2  0  0  0  0
 18 33  1  0  0  0  0
 19 21  2  0  0  0  0
 19 38  1  0  0  0  0
 20 22  2  0  0  0  0
 20 39  1  0  0  0  0
 21 47  1  0  0  0  0
 22 40  1  0  0  0  0
 23 56  1  0  0  0  0
 24 31  2  0  0  0  0
 24 50  1  0  0  0  0
 25 80  1  0  0  0  0
 26 81  1  0  0  0  0
 27 29  2  0  0  0  0
 27 80  1  0  0  0  0
 28 82  1  0  0  0  0
 29 83  1  0  0  0  0
 30 65  2  0  0  0  0
 31 57  1  0  0  0  0
 31 64  1  0  0  0  0
 32 66  1  0  0  0  0
 32 69  1  0  0  0  0
 33 70  1  0  0  0  0
 33 75  2  0  0  0  0
 34 48  1  0  0  0  0
 34 71  1  0  0  0  0
 34 76  2  0  0  0  0
 35 61  1  0  0  0  0
 35 67  1  0  0  0  0
 35 77  2  0  0  0  0
 36 62  1  0  0  0  0
 36 72  1  0  0  0  0
 36 78  2  0  0  0  0
 37 68  1  0  0  0  0
 37 73  1  0  0  0  0
 37 79  2  0  0  0  0
 38 41  1  0  0  0  0
 39 48  1  0  0  0  0
 40 67  1  0  0  0  0
 41 43  1  0  0  0  0
 42 44  1  0  0  0  0
 42 45  1  0  0  0  0
 43 47  1  0  0  0  0
 44 49  1  0  0  0  0
 45 68  1  0  0  0  0
 46 49  1  0  0  0  0
 46 68  1  0  0  0  0
 47 71  1  0  0  0  0
 48 67  1  0  0  0  0
 49 66  1  0  0  0  0
 51 62  1  0  0  0  0
 52 63  1  0  0  0  0
 53 63  1  0  0  0  0
 54 63  1  0  0  0  0
 55 74  1  0  0  0  0
 56 73  1  0  0  0  0
 57 58  1  0  0  0  0
 58 59  1  0  0  0  0
 59 60  1  0  0  0  0
 60 81  1  0  0  0  0
 61 63  1  0  0  0  0
 61 72  1  0  0  0  0
 62 74  1  0  0  0  0
 65 66  1  0  0  0  0
M  CHG  1  74   1
M  ISO  4  37 100  60 101  73 100  81 101
M  END
> <Batch ID>
0102

> <Smiles>
CNC(C)C(=O)NC(C(=O)N1Cc2cc([101O:1][101CH2:1]CCCc3ncc(C[100NH:0][100C:0](=O)N4CCCC(n5nc(-c6ccc(Oc7ccc(F)cc7F)cc6)c(C(N)=O)c5N)C4)cc3C)ccc2CC1C(=O)NC1CCCc2ccccc21)C(C)(C)C

> <Shape>
0.212

> <Color>
0.071

> <Negative vol penalty>
0.000

$$$$

  -OEChem-04052319383D

 84 92  0     1  0  0  0  0  0999 V2000
  -16.6243  -29.6290   24.3519 C   0  0  0  0  0  0  0  0  0  0  0  0
  -17.0238  -28.5913   23.5158 C   0  0  0  0  0  0  0  0  0  0  0  0
  -26.5161  -12.2817   21.7640 C   0  0  0  0  0  0  0  0  0  0  0  0
  -25.9035  -13.0974   19.5739 C   0  0  0  0  0  0  0  0  0  0  0  0
  -17.3314  -30.8307   24.3562 C   0  0  0  0  0  0  0  0  0  0  0  0
  -18.1300  -28.7551   22.6828 C   0  0  0  0  0  0  0  0  0  0  0  0
  -22.1952  -24.4659   21.0754 C   0  0  0  0  0  0  0  0  0  0  0  0
  -25.2763  -11.6524   21.8764 C   0  0  0  0  0  0  0  0  0  0  0  0
  -24.6637  -12.4681   19.6863 C   0  0  0  0  0  0  0  0  0  0  0  0
  -22.3205  -23.6725   19.9359 C   0  0  0  0  0  0  0  0  0  0  0  0
  -21.7071  -13.0450   21.2214 C   0  0  0  0  0  0  0  0  0  0  0  0
  -20.5761  -13.7696   20.8455 C   0  0  0  0  0  0  0  0  0  0  0  0
  -23.8960  -25.2514   19.0171 C   0  0  0  0  0  0  0  0  0  0  0  0
  -27.4705  -21.0321   17.5800 C   0  0  0  0  0  0  0  0  0  0  0  0
  -20.0659  -12.1046   19.1709 C   0  0  0  0  0  0  0  0  0  0  0  0
  -26.8297  -13.0042   20.6128 C   0  0  0  0  0  0  0  0  0  0  0  0
  -29.2941  -13.1119   19.9626 C   0  0  0  0  0  0  0  0  0  0  0  0
  -18.4526  -31.0058   23.5299 C   0  0  0  0  0  0  0  0  0  0  0  0
  -22.9122  -25.6656   21.1898 C   0  0  0  0  0  0  0  0  0  0  0  0
  -18.8519  -29.9606   22.6751 C   0  0  0  0  0  0  0  0  0  0  0  0
  -23.7799  -26.0570   20.1602 C   0  0  0  0  0  0  0  0  0  0  0  0
  -27.2985  -22.0032   16.5998 C   0  0  0  0  0  0  0  0  0  0  0  0
  -28.2117  -23.0464   16.4949 C   0  0  0  0  0  0  0  0  0  0  0  0
  -24.3502  -11.7456   20.8376 C   0  0  0  0  0  0  0  0  0  0  0  0
  -23.1688  -24.0666   18.9053 C   0  0  0  0  0  0  0  0  0  0  0  0
  -22.0176  -11.8502   20.5720 C   0  0  0  0  0  0  0  0  0  0  0  0
  -19.7555  -13.2994   19.8203 C   0  0  0  0  0  0  0  0  0  0  0  0
  -21.1970  -11.3799   19.5467 C   0  0  0  0  0  0  0  0  0  0  0  0
  -28.1099  -13.6549   20.4963 C   0  0  0  0  0  0  0  0  0  0  0  0
  -29.2714  -23.0730   17.3871 C   0  0  0  0  0  0  0  0  0  0  0  0
  -28.5635  -21.1487   18.4235 C   0  0  0  0  0  0  0  0  0  0  0  0
  -30.2179  -14.1216   20.0794 C   0  0  0  0  0  0  0  0  0  0  0  0
  -29.5372  -11.8112   19.4107 C   0  0  0  0  0  0  0  0  0  0  0  0
  -22.1238  -28.7315   21.4763 C   0  0  0  0  0  0  0  0  0  0  0  0
  -25.3215  -29.1152   21.8628 C   0  0  0  0  0  0  0  0  0  0  0  0
  -28.4702  -27.9180   21.3160 C   0  0  0  0  0  0  0  0  0  0  0  0
  -29.7476  -20.0714   20.3687 C   0  0  0  0  0  0  0  0  0  0  0  0
  -19.1568  -32.3395   23.5348 C   0  0  0  0  0  0  0  0  0  0  0  0
  -22.7863  -26.4968   22.4370 C   0  0  0  0  0  0  0  0  0  0  0  0
  -24.5873  -27.3258   20.2429 C   0  0  0  0  0  0  0  0  0  0  0  0
  -20.5426  -32.2990   22.8958 C   0  0  0  0  0  0  0  0  0  0  0  0
  -31.2753  -17.9367   22.7742 C   0  0  0  0  0  0  0  0  0  0  0  0
  -20.4970  -31.5471   21.5694 C   0  0  0  0  0  0  0  0  0  0  0  0
  -30.7495  -16.5461   22.4107 C   0  0  0  0  0  0  0  0  0  0  0  0
  -30.2135  -19.0158   22.5695 C   0  0  0  0  0  0  0  0  0  0  0  0
  -29.0687  -17.6427   20.8745 C   0  0  0  0  0  0  0  0  0  0  0  0
  -20.0615  -30.0912   21.7752 C   0  0  1  0  0  0  0  0  0  0  0  0
  -23.1725  -27.9571   22.2234 C   0  0  1  0  0  0  0  0  0  0  0  0
  -30.1229  -16.5309   21.0026 C   0  0  2  0  0  0  0  0  0  0  0  0
  -28.0537  -24.1020   15.4527 C   0  0  0  0  0  0  0  0  0  0  0  0
  -30.2833  -24.1704   17.3230 C   0  0  0  0  0  0  0  0  0  0  0  0
  -27.4007  -20.4974   13.9476 C   0  0  0  0  0  0  0  0  0  0  0  0
  -30.8850  -28.4705   21.7169 C   0  0  0  0  0  0  0  0  0  0  0  0
  -25.2176  -31.1843   19.6227 C   0  0  0  0  0  0  0  0  0  0  0  0
  -27.7060  -30.9924   19.4245 C   0  0  0  0  0  0  0  0  0  0  0  0
  -26.6850  -31.8062   21.5500 C   0  0  0  0  0  0  0  0  0  0  0  0
  -28.8827  -25.4704   22.9279 C   0  0  0  0  0  0  0  0  0  0  0  0
  -26.1474  -20.6134   14.8074 C   0  0  0  0  0  0  0  0  0  0  0  0
  -24.7640  -21.9905   16.4144 C   0  0  0  0  0  0  0  0  0  0  0  0
  -24.5470  -23.3302   17.1124 C   0  0  0  0  0  0  0  0  0  1  0  0
  -26.1081  -21.9030   15.6588 C   0  0  1  0  0  0  0  0  0  0  0  0
  -26.4884  -29.3613   20.9371 C   0  0  1  0  0  0  0  0  0  0  0  0
  -29.6576  -27.7448   22.2458 C   0  0  2  0  0  0  0  0  0  0  0  0
  -26.5077  -30.8131   20.3809 C   0  0  0  0  0  0  0  0  0  0  0  0
  -28.2645  -14.9119   20.9206 N   0  0  0  0  0  0  0  0  0  0  0  0
  -29.4715  -22.1477   18.3522 N   0  0  0  0  0  0  0  0  0  0  0  0
  -29.5567  -15.1672   20.6538 N   0  0  0  0  0  0  0  0  0  0  0  0
  -24.4250  -28.1076   21.4798 N   0  0  0  0  0  0  0  0  0  0  0  0
  -29.6680  -18.9433   21.2124 N   0  0  0  0  0  0  0  0  0  0  0  0
  -31.5231  -14.2082   19.7458 N   0  0  0  0  0  0  0  0  0  0  0  0
  -28.4773  -10.8952   19.3668 N   0  0  0  0  0  0  0  0  0  0  0  0
  -28.7298  -20.1543   19.4191 N   0  0  0  0  0  0  0  0  0  0  0  0
  -21.1614  -29.3022   22.2873 N   0  0  0  0  0  0  0  0  0  0  0  0
  -27.6863  -28.9912   21.6831 N   0  0  0  0  0  0  0  0  0  0  0  0
  -29.9932  -26.3004   22.3940 N   0  3  0  0  0  0  0  0  0  0  0  0
  -30.6653  -11.4657   18.9845 O   0  0  0  0  0  0  0  0  0  0  0  0
  -22.1841  -28.8070   20.2547 O   0  0  0  0  0  0  0  0  0  0  0  0
  -25.2136  -29.7873   22.8916 O   0  0  0  0  0  0  0  0  0  0  0  0
  -28.2612  -27.1776   20.3575 O   0  0  0  0  0  0  0  0  0  0  0  0
  -30.6672  -20.8884   20.4627 O   0  0  0  0  0  0  0  0  0  0  0  0
  -23.1404  -11.1315   20.9469 O   0  0  0  0  0  0  0  0  0  0  0  0
  -23.2925  -23.2943   17.7917 O   0  0  0  0  0  0  0  0  0  1  0  0
  -18.6686  -13.9946   19.4604 F   0  0  0  0  0  0  0  0  0  0  0  0
  -21.4895  -10.2321   18.9200 F   0  0  0  0  0  0  0  0  0  0  0  0
  1  2  1  0  0  0  0
  1  5  2  0  0  0  0
  2  6  2  0  0  0  0
  3  8  2  0  0  0  0
  3 16  1  0  0  0  0
  4  9  1  0  0  0  0
  4 16  2  0  0  0  0
  5 18  1  0  0  0  0
  6 20  1  0  0  0  0
  7 10  2  0  0  0  0
  7 19  1  0  0  0  0
  8 24  1  0  0  0  0
  9 24  2  0  0  0  0
 10 25  1  0  0  0  0
 11 12  2  0  0  0  0
 11 26  1  0  0  0  0
 12 27  1  0  0  0  0
 13 21  1  0  0  0  0
 13 25  2  0  0  0  0
 14 22  1  0  0  0  0
 14 31  2  0  0  0  0
 15 27  2  0  0  0  0
 15 28  1  0  0  0  0
 16 29  1  0  0  0  0
 17 29  1  0  0  0  0
 17 32  2  0  0  0  0
 17 33  1  0  0  0  0
 18 20  2  0  0  0  0
 18 38  1  0  0  0  0
 19 21  2  0  0  0  0
 19 39  1  0  0  0  0
 20 47  1  0  0  0  0
 21 40  1  0  0  0  0
 22 23  2  0  0  0  0
 22 61  1  0  0  0  0
 23 30  1  0  0  0  0
 23 50  1  0  0  0  0
 24 81  1  0  0  0  0
 25 82  1  0  0  0  0
 26 28  2  0  0  0  0
 26 81  1  0  0  0  0
 27 83  1  0  0  0  0
 28 84  1  0  0  0  0
 29 65  2  0  0  0  0
 30 51  1  0  0  0  0
 30 66  2  0  0  0  0
 31 66  1  0  0  0  0
 31 72  1  0  0  0  0
 32 67  1  0  0  0  0
 32 70  1  0  0  0  0
 33 71  1  0  0  0  0
 33 76  2  0  0  0  0
 34 48  1  0  0  0  0
 34 73  1  0  0  0  0
 34 77  2  0  0  0  0
 35 62  1  0  0  0  0
 35 68  1  0  0  0  0
 35 78  2  0  0  0  0
 36 63  1  0  0  0  0
 36 74  1  0  0  0  0
 36 79  2  0  0  0  0
 37 69  1  0  0  0  0
 37 72  1  0  0  0  0
 37 80  2  0  0  0  0
 38 41  1  0  0  0  0
 39 48  1  0  0  0  0
 40 68  1  0  0  0  0
 41 43  1  0  0  0  0
 42 44  1  0  0  0  0
 42 45  1  0  0  0  0
 43 47  1  0  0  0  0
 44 49  1  0  0  0  0
 45 69  1  0  0  0  0
 46 49  1  0  0  0  0
 46 69  1  0  0  0  0
 47 73  1  0  0  0  0
 48 68  1  0  0  0  0
 49 67  1  0  0  0  0
 52 58  1  0  0  0  0
 53 63  1  0  0  0  0
 54 64  1  0  0  0  0
 55 64  1  0  0  0  0
 56 64  1  0  0  0  0
 57 75  1  0  0  0  0
 58 61  1  0  0  0  0
 59 60  1  0  0  0  0
 59 61  1  0  0  0  0
 60 82  1  0  0  0  0
 62 64  1  0  0  0  0
 62 74  1  0  0  0  0
 63 75  1  0  0  0  0
 65 67  1  0  0  0  0
M  CHG  1  75   1
M  ISO  4  37 100  60 101  72 100  82 101
M  END
> <Batch ID>
0102

> <Smiles>
CCC(C[101CH2:1][101O:1]c1ccc2c(c1)CN(C(=O)C(NC(=O)C(C)NC)C(C)(C)C)C(C(=O)NC1CCCc3ccccc31)C2)c1cc([100NH:0][100C:0](=O)N2CCCC(n3nc(-c4ccc(Oc5ccc(F)cc5F)cc4)c(C(N)=O)c3N)C2)nc(C)c1C

> <Shape>
0.275

> <Color>
0.087

> <Negative vol penalty>
0.000

$$$$

  -OEChem-04052319383D

 84 92  0     1  0  0  0  0  0999 V2000
  -30.7199  -23.9788   17.5229 C   0  0  0  0  0  0  0  0  0  0  0  0
  -29.5671  -23.5752   18.1869 C   0  0  0  0  0  0  0  0  0  0  0  0
  -24.3443  -12.3676   20.3216 C   0  0  0  0  0  0  0  0  0  0  0  0
  -24.6551  -13.1934   22.5707 C   0  0  0  0  0  0  0  0  0  0  0  0
  -31.1592  -25.2963   17.6350 C   0  0  0  0  0  0  0  0  0  0  0  0
  -28.8465  -24.4917   18.9535 C   0  0  0  0  0  0  0  0  0  0  0  0
  -24.5340  -22.9798   20.7755 C   0  0  0  0  0  0  0  0  0  0  0  0
  -24.4301  -11.0569   20.7910 C   0  0  0  0  0  0  0  0  0  0  0  0
  -24.7408  -11.8827   23.0402 C   0  0  0  0  0  0  0  0  0  0  0  0
  -24.4375  -22.0613   21.8200 C   0  0  0  0  0  0  0  0  0  0  0  0
  -24.2062   -7.4886   21.4486 C   0  0  0  0  0  0  0  0  0  0  0  0
  -23.2704   -6.5683   20.9767 C   0  0  0  0  0  0  0  0  0  0  0  0
  -23.9201  -23.8580   23.3442 C   0  0  0  0  0  0  0  0  0  0  0  0
  -26.3681  -20.9649   24.0878 C   0  0  0  0  0  0  0  0  0  0  0  0
  -21.4849   -7.9154   21.8900 C   0  0  0  0  0  0  0  0  0  0  0  0
  -24.7004  -19.3123   24.4689 C   0  0  0  0  0  0  0  0  0  0  0  0
  -24.4569  -13.4358   21.2115 C   0  0  0  0  0  0  0  0  0  0  0  0
  -23.2065  -15.5737   20.6002 C   0  0  0  0  0  0  0  0  0  0  0  0
  -30.4499  -26.2256   18.4136 C   0  0  0  0  0  0  0  0  0  0  0  0
  -24.3347  -24.3478   21.0101 C   0  0  0  0  0  0  0  0  0  0  0  0
  -29.2604  -25.8318   19.0596 C   0  0  0  0  0  0  0  0  0  0  0  0
  -24.0121  -24.7915   22.3006 C   0  0  0  0  0  0  0  0  0  0  0  0
  -27.3343  -19.9707   24.1941 C   0  0  0  0  0  0  0  0  0  0  0  0
  -24.6282  -10.8144   22.1502 C   0  0  0  0  0  0  0  0  0  0  0  0
  -24.1333  -22.5006   23.1051 C   0  0  0  0  0  0  0  0  0  0  0  0
  -23.7814   -8.6224   22.1414 C   0  0  0  0  0  0  0  0  0  0  0  0
  -25.0238  -20.6376   24.2271 C   0  0  0  0  0  0  0  0  0  1  0  0
  -21.9098   -6.7817   21.1973 C   0  0  0  0  0  0  0  0  0  0  0  0
  -22.4207   -8.8358   22.3620 C   0  0  0  0  0  0  0  0  0  0  0  0
  -24.3691  -14.7900   20.7271 C   0  0  0  0  0  0  0  0  0  0  0  0
  -26.9077  -18.6751   24.4377 C   0  0  0  0  0  0  0  0  0  0  0  0
  -23.6532  -16.7721   20.0994 C   0  0  0  0  0  0  0  0  0  0  0  0
  -21.8446  -15.2476   20.9077 C   0  0  0  0  0  0  0  0  0  0  0  0
  -26.1303  -26.9561   20.7334 C   0  0  0  0  0  0  0  0  0  0  0  0
  -23.3596  -28.4694   21.4787 C   0  0  0  0  0  0  0  0  0  0  0  0
  -20.2840  -28.3237   22.9504 C   0  0  0  0  0  0  0  0  0  0  0  0
  -28.9421  -19.5697   20.3289 C   0  0  0  0  0  0  0  0  0  0  0  0
  -30.9659  -27.6407   18.4940 C   0  0  0  0  0  0  0  0  0  0  0  0
  -24.4161  -25.3228   19.8676 C   0  0  0  0  0  0  0  0  0  0  0  0
  -23.7690  -26.2472   22.6010 C   0  0  0  0  0  0  0  0  0  0  0  0
  -30.3917  -28.4167   19.6748 C   0  0  0  0  0  0  0  0  0  0  0  0
  -27.1380  -18.6382   17.4041 C   0  0  0  0  0  0  0  0  0  0  0  0
  -28.8779  -28.2684   19.7075 C   0  0  0  0  0  0  0  0  0  0  0  0
  -26.1189  -17.6170   17.9126 C   0  0  0  0  0  0  0  0  0  0  0  0
  -28.4725  -18.5165   18.1364 C   0  0  0  0  0  0  0  0  0  0  0  0
  -27.3606  -17.5572   20.1157 C   0  0  0  0  0  0  0  0  0  0  0  0
  -28.4773  -26.8036   19.9238 C   0  0  1  0  0  0  0  0  0  0  0  0
  -24.7002  -26.7516   20.3204 C   0  0  1  0  0  0  0  0  0  0  0  0
  -25.9812  -17.6781   19.4458 C   0  0  2  0  0  0  0  0  0  0  0  0
  -28.3694  -17.3300   26.0021 C   0  0  0  0  0  0  0  0  0  0  0  0
  -18.2625  -29.7301   23.4329 C   0  0  0  0  0  0  0  0  0  0  0  0
  -24.8781  -29.8792   23.7185 C   0  0  0  0  0  0  0  0  0  0  0  0
  -22.6728  -30.5046   24.7254 C   0  0  0  0  0  0  0  0  0  0  0  0
  -23.2876  -31.3394   22.4565 C   0  0  0  0  0  0  0  0  0  0  0  0
  -30.8293  -20.3809   22.5206 C   0  0  0  0  0  0  0  0  0  0  0  0
  -28.9188  -21.9353   22.1137 C   0  0  0  0  0  0  0  0  0  0  0  0
  -18.5246  -26.5427   21.3718 C   0  0  0  0  0  0  0  0  0  0  0  0
  -28.7760  -20.3148   24.0469 C   0  0  0  0  0  0  0  0  0  0  0  0
  -27.9011  -17.5664   24.5611 C   0  0  1  0  0  0  0  0  0  0  0  0
  -22.6889  -28.9019   22.7601 C   0  0  1  0  0  0  0  0  0  0  0  0
  -18.9127  -28.7557   22.4631 C   0  0  2  0  0  0  0  0  0  0  0  0
  -23.3883  -30.1290   23.4102 C   0  0  0  0  0  0  0  0  0  0  0  0
  -29.3017  -20.5243   22.5913 C   0  0  0  0  0  0  0  0  0  0  0  0
  -25.6111  -18.3190   24.5780 N   0  0  0  0  0  0  0  0  0  0  0  0
  -25.4714  -15.4361   20.3381 N   0  0  0  0  0  0  0  0  0  0  0  0
  -25.0036  -16.6384   19.9618 N   0  0  0  0  0  0  0  0  0  0  0  0
  -23.8662  -27.1623   21.4518 N   0  0  0  0  0  0  0  0  0  0  0  0
  -28.2722  -18.5835   19.5860 N   0  0  0  0  0  0  0  0  0  0  0  0
  -23.0188  -17.9165   19.7676 N   0  0  0  0  0  0  0  0  0  0  0  0
  -21.5610  -13.9720   21.4144 N   0  0  0  0  0  0  0  0  0  0  0  0
  -27.0486  -26.6729   19.7404 N   0  0  0  0  0  0  0  0  0  0  0  0
  -21.2840  -29.1192   22.4324 N   0  0  0  0  0  0  0  0  0  0  0  0
  -28.6915  -19.5672   21.6956 N   0  0  0  0  0  0  0  0  0  0  0  0
  -27.3963  -16.2540   24.0322 N   0  3  0  0  0  0  0  0  0  0  0  0
  -18.0188  -27.5724   22.3158 N   0  3  0  0  0  0  0  0  0  0  0  0
  -20.9048  -16.0576   20.7226 O   0  0  0  0  0  0  0  0  0  0  0  0
  -26.3820  -27.3437   21.8683 O   0  0  0  0  0  0  0  0  0  0  0  0
  -23.4252  -29.2597   20.5338 O   0  0  0  0  0  0  0  0  0  0  0  0
  -20.4509  -27.3777   23.7170 O   0  0  0  0  0  0  0  0  0  0  0  0
  -29.7027  -20.3948   19.8117 O   0  0  0  0  0  0  0  0  0  0  0  0
  -24.7117   -9.5356   22.6087 O   0  0  0  0  0  0  0  0  0  0  0  0
  -24.0391  -21.6063   24.1264 O   0  0  0  0  0  0  0  0  0  1  0  0
  -21.0111   -5.8985   20.7427 F   0  0  0  0  0  0  0  0  0  0  0  0
  -22.0065   -9.9237   23.0259 F   0  0  0  0  0  0  0  0  0  0  0  0
  1  2  1  0  0  0  0
  1  5  2  0  0  0  0
  2  6  2  0  0  0  0
  3  8  2  0  0  0  0
  3 17  1  0  0  0  0
  4  9  1  0  0  0  0
  4 17  2  0  0  0  0
  5 19  1  0  0  0  0
  6 21  1  0  0  0  0
  7 10  2  0  0  0  0
  7 20  1  0  0  0  0
  8 24  1  0  0  0  0
  9 24  2  0  0  0  0
 10 25  1  0  0  0  0
 11 12  2  0  0  0  0
 11 26  1  0  0  0  0
 12 28  1  0  0  0  0
 13 22  1  0  0  0  0
 13 25  2  0  0  0  0
 14 23  1  0  0  0  0
 14 27  2  0  0  0  0
 15 28  2  0  0  0  0
 15 29  1  0  0  0  0
 16 27  1  0  0  0  0
 16 64  2  0  0  0  0
 17 30  1  0  0  0  0
 18 30  1  0  0  0  0
 18 32  2  0  0  0  0
 18 33  1  0  0  0  0
 19 21  2  0  0  0  0
 19 38  1  0  0  0  0
 20 22  2  0  0  0  0
 20 39  1  0  0  0  0
 21 47  1  0  0  0  0
 22 40  1  0  0  0  0
 23 31  2  0  0  0  0
 23 58  1  0  0  0  0
 24 81  1  0  0  0  0
 25 82  1  0  0  0  0
 26 29  2  0  0  0  0
 26 81  1  0  0  0  0
 27 82  1  0  0  0  0
 28 83  1  0  0  0  0
 29 84  1  0  0  0  0
 30 65  2  0  0  0  0
 31 59  1  0  0  0  0
 31 64  1  0  0  0  0
 32 66  1  0  0  0  0
 32 69  1  0  0  0  0
 33 70  1  0  0  0  0
 33 76  2  0  0  0  0
 34 48  1  0  0  0  0
 34 71  1  0  0  0  0
 34 77  2  0  0  0  0
 35 60  1  0  0  0  0
 35 67  1  0  0  0  0
 35 78  2  0  0  0  0
 36 61  1  0  0  0  0
 36 72  1  0  0  0  0
 36 79  2  0  0  0  0
 37 68  1  0  0  0  0
 37 73  1  0  0  0  0
 37 80  2  0  0  0  0
 38 41  1  0  0  0  0
 39 48  1  0  0  0  0
 40 67  1  0  0  0  0
 41 43  1  0  0  0  0
 42 44  1  0  0  0  0
 42 45  1  0  0  0  0
 43 47  1  0  0  0  0
 44 49  1  0  0  0  0
 45 68  1  0  0  0  0
 46 49  1  0  0  0  0
 46 68  1  0  0  0  0
 47 71  1  0  0  0  0
 48 67  1  0  0  0  0
 49 66  1  0  0  0  0
 50 59  1  0  0  0  0
 51 61  1  0  0  0  0
 52 62  1  0  0  0  0
 53 62  1  0  0  0  0
 54 62  1  0  0  0  0
 55 63  1  0  0  0  0
 56 63  1  0  0  0  0
 57 75  1  0  0  0  0
 58 63  1  0  0  0  0
 59 74  1  0  0  0  0
 60 62  1  0  0  0  0
 60 72  1  0  0  0  0
 61 75  1  0  0  0  0
 63 73  1  0  0  0  0
 65 66  1  0  0  0  0
M  CHG  2  74   1  75   1
M  ISO  4  27 101  37 100  73 100  82 101
M  END
> <Batch ID>
0102

> <Smiles>
CNC(C)C(=O)NC(C(=O)N1Cc2cc([101O:1][101c:1]3cnc(C(C)N)c(CC(C)(C)[100NH:0][100C:0](=O)N4CCCC(n5nc(-c6ccc(Oc7ccc(F)cc7F)cc6)c(C(N)=O)c5N)C4)c3)ccc2CC1C(=O)NC1CCCc2ccccc21)C(C)(C)C

> <Shape>
0.251

> <Color>
0.057

> <Negative vol penalty>
0.000

$$$$

  -OEChem-04052319383D

 85 93  0     1  0  0  0  0  0999 V2000
  -22.6955   -8.2495   21.9697 C   0  0  0  0  0  0  0  0  0  0  0  0
  -23.9454   -8.7946   22.2456 C   0  0  0  0  0  0  0  0  0  0  0  0
  -22.8756  -31.3616   23.5317 C   0  0  0  0  0  0  0  0  0  0  0  0
  -23.8958  -30.8589   21.4002 C   0  0  0  0  0  0  0  0  0  0  0  0
  -21.8917   -8.8166   20.9817 C   0  0  0  0  0  0  0  0  0  0  0  0
  -24.3926   -9.9065   21.5329 C   0  0  0  0  0  0  0  0  0  0  0  0
  -28.3810  -15.8053   22.3160 C   0  0  0  0  0  0  0  0  0  0  0  0
  -23.2595  -32.6961   23.4008 C   0  0  0  0  0  0  0  0  0  0  0  0
  -24.2797  -32.1934   21.2692 C   0  0  0  0  0  0  0  0  0  0  0  0
  -29.4503  -16.4699   21.7170 C   0  0  0  0  0  0  0  0  0  0  0  0
  -24.2855  -36.1626   23.7941 C   0  0  0  0  0  0  0  0  0  0  0  0
  -24.8485  -36.7891   24.9059 C   0  0  0  0  0  0  0  0  0  0  0  0
  -27.9428  -17.4137   20.0873 C   0  0  0  0  0  0  0  0  0  0  0  0
  -26.6327  -35.1601   24.9202 C   0  0  0  0  0  0  0  0  0  0  0  0
  -30.5032  -21.3597   21.2013 C   0  0  0  0  0  0  0  0  0  0  0  0
  -23.1938  -30.4429   22.5315 C   0  0  0  0  0  0  0  0  0  0  0  0
  -21.5951  -28.4782   22.2287 C   0  0  0  0  0  0  0  0  0  0  0  0
  -22.3252   -9.9419   20.2631 C   0  0  0  0  0  0  0  0  0  0  0  0
  -27.0841  -15.9315   21.7977 C   0  0  0  0  0  0  0  0  0  0  0  0
  -23.5944  -10.4884   20.5334 C   0  0  0  0  0  0  0  0  0  0  0  0
  -26.8584  -16.7518   20.6831 C   0  0  0  0  0  0  0  0  0  0  0  0
  -31.1312  -20.7247   20.1527 C   0  0  0  0  0  0  0  0  0  0  0  0
  -30.7447  -21.3895   18.9629 C   0  0  0  0  0  0  0  0  0  0  0  0
  -23.9616  -33.1121   22.2695 C   0  0  0  0  0  0  0  0  0  0  0  0
  -29.2317  -17.2719   20.6007 C   0  0  0  0  0  0  0  0  0  0  0  0
  -24.8960  -35.0348   23.2455 C   0  0  0  0  0  0  0  0  0  0  0  0
  -26.0222  -36.2879   25.4689 C   0  0  0  0  0  0  0  0  0  0  0  0
  -26.0696  -34.5336   23.8085 C   0  0  0  0  0  0  0  0  0  0  0  0
  -22.7980  -29.0641   22.6665 C   0  0  0  0  0  0  0  0  0  0  0  0
  -29.8924  -22.4108   19.3207 C   0  0  0  0  0  0  0  0  0  0  0  0
  -21.7044  -27.1579   22.5914 C   0  0  0  0  0  0  0  0  0  0  0  0
  -20.4789  -29.0740   21.5544 C   0  0  0  0  0  0  0  0  0  0  0  0
  -24.9617  -13.9211   20.5500 C   0  0  0  0  0  0  0  0  0  0  0  0
  -23.0409  -16.5346   20.5952 C   0  0  0  0  0  0  0  0  0  0  0  0
  -22.7784  -19.9372   20.6163 C   0  0  0  0  0  0  0  0  0  0  0  0
  -26.3994  -23.5777   23.5860 C   0  0  0  0  0  0  0  0  0  0  0  0
  -21.4410  -10.4913   19.1718 C   0  0  0  0  0  0  0  0  0  0  0  0
  -25.9372  -15.2294   22.4716 C   0  0  0  0  0  0  0  0  0  0  0  0
  -25.4820  -16.9366   20.1003 C   0  0  0  0  0  0  0  0  0  0  0  0
  -21.8318  -11.8964   18.7207 C   0  0  0  0  0  0  0  0  0  0  0  0
  -23.7617  -24.3296   25.8562 C   0  0  0  0  0  0  0  0  0  0  0  0
  -23.3384  -11.9864   18.4996 C   0  0  0  0  0  0  0  0  0  0  0  0
  -23.1071  -25.5754   25.2566 C   0  0  0  0  0  0  0  0  0  0  0  0
  -25.2760  -24.3374   25.6590 C   0  0  0  0  0  0  0  0  0  0  0  0
  -25.0633  -25.7697   23.6647 C   0  0  0  0  0  0  0  0  0  0  0  0
  -24.1042  -11.7094   19.7990 C   0  0  1  0  0  0  0  0  0  0  0  0
  -24.7398  -15.0206   21.5496 C   0  0  1  0  0  0  0  0  0  0  0  0
  -23.5301  -25.7801   23.7895 C   0  0  2  0  0  0  0  0  0  0  0  0
  -29.1983  -23.4116   18.4829 C   0  0  0  0  0  0  0  0  0  0  0  0
  -33.3142  -19.8813   21.0774 C   0  0  0  0  0  0  0  0  0  0  0  0
  -31.9674  -22.1911   16.9096 C   0  0  0  0  0  0  0  0  0  0  0  0
  -30.0008  -20.6312   16.6769 C   0  0  0  0  0  0  0  0  0  0  0  0
  -21.0769  -21.7817   20.6148 C   0  0  0  0  0  0  0  0  0  0  0  0
  -22.5204  -16.0487   17.6282 C   0  0  0  0  0  0  0  0  0  0  0  0
  -21.6285  -18.3830   17.4738 C   0  0  0  0  0  0  0  0  0  0  0  0
  -20.5018  -16.7141   18.9462 C   0  0  0  0  0  0  0  0  0  0  0  0
  -23.7346  -20.9787   23.2164 C   0  0  0  0  0  0  0  0  0  0  0  0
  -28.9435  -23.2864   21.4719 C   0  0  0  0  0  0  0  0  0  0  0  0
  -27.4566  -22.9434   21.4321 C   0  0  0  0  0  0  0  0  0  0  0  0
  -31.3596  -18.3026   20.8574 C   0  0  0  0  0  0  0  0  0  1  0  0
  -32.0651  -19.5298   20.2644 C   0  0  1  0  0  0  0  0  0  0  0  0
  -31.1749  -21.0518   17.5903 C   0  0  0  0  0  0  0  0  0  0  0  0
  -22.7436  -17.6597   19.6335 C   0  0  1  0  0  0  0  0  0  0  0  0
  -21.9497  -20.8783   21.4720 C   0  0  2  0  0  0  0  0  0  0  0  0
  -21.8749  -17.1966   18.4300 C   0  0  0  0  0  0  0  0  0  0  0  0
  -23.6115  -28.1879   23.2619 N   0  0  0  0  0  0  0  0  0  0  0  0
  -29.7531  -22.3833   20.6838 N   0  0  0  0  0  0  0  0  0  0  0  0
  -22.9186  -27.0381   23.2010 N   0  0  0  0  0  0  0  0  0  0  0  0
  -24.3941  -16.2243   20.7907 N   0  0  0  0  0  0  0  0  0  0  0  0
  -25.6101  -24.5338   24.2463 N   0  0  0  0  0  0  0  0  0  0  0  0
  -20.8792  -26.0995   22.4453 N   0  0  0  0  0  0  0  0  0  0  0  0
  -20.5308  -30.4427   21.2573 N   0  0  0  0  0  0  0  0  0  0  0  0
  -24.0712  -12.8704   20.6624 N   0  0  0  0  0  0  0  0  0  0  0  0
  -22.1446  -18.7274   20.4269 N   0  0  0  0  0  0  0  0  0  0  0  0
  -26.6640  -23.8372   22.2469 N   0  0  0  0  0  0  0  0  0  0  0  0
  -22.8372  -21.7365   22.3067 N   0  3  0  0  0  0  0  0  0  0  0  0
  -19.4585  -28.4158   21.2397 O   0  0  0  0  0  0  0  0  0  0  0  0
  -25.8724  -14.0194   19.7359 O   0  0  0  0  0  0  0  0  0  0  0  0
  -22.1071  -15.9574   21.1578 O   0  0  0  0  0  0  0  0  0  0  0  0
  -23.8764  -20.2459   20.1585 O   0  0  0  0  0  0  0  0  0  0  0  0
  -26.8316  -22.5650   24.1469 O   0  0  0  0  0  0  0  0  0  0  0  0
  -24.3361  -34.4143   22.1412 O   0  0  0  0  0  0  0  0  0  0  0  0
  -30.2737  -17.9212   20.0137 O   0  0  0  0  0  0  0  0  0  1  0  0
  -26.5636  -36.8906   26.5356 F   0  0  0  0  0  0  0  0  0  0  0  0
  -26.6613  -33.4511   23.2851 F   0  0  0  0  0  0  0  0  0  0  0  0
  1  2  1  0  0  0  0
  1  5  2  0  0  0  0
  2  6  2  0  0  0  0
  3  8  2  0  0  0  0
  3 16  1  0  0  0  0
  4  9  1  0  0  0  0
  4 16  2  0  0  0  0
  5 18  1  0  0  0  0
  6 20  1  0  0  0  0
  7 10  2  0  0  0  0
  7 19  1  0  0  0  0
  8 24  1  0  0  0  0
  9 24  2  0  0  0  0
 10 25  1  0  0  0  0
 11 12  2  0  0  0  0
 11 26  1  0  0  0  0
 12 27  1  0  0  0  0
 13 21  1  0  0  0  0
 13 25  2  0  0  0  0
 14 27  2  0  0  0  0
 14 28  1  0  0  0  0
 15 22  2  0  0  0  0
 15 67  1  0  0  0  0
 16 29  1  0  0  0  0
 17 29  1  0  0  0  0
 17 31  2  0  0  0  0
 17 32  1  0  0  0  0
 18 20  2  0  0  0  0
 18 37  1  0  0  0  0
 19 21  2  0  0  0  0
 19 38  1  0  0  0  0
 20 46  1  0  0  0  0
 21 39  1  0  0  0  0
 22 23  1  0  0  0  0
 22 61  1  0  0  0  0
 23 30  2  0  0  0  0
 23 62  1  0  0  0  0
 24 82  1  0  0  0  0
 25 83  1  0  0  0  0
 26 28  2  0  0  0  0
 26 82  1  0  0  0  0
 27 84  1  0  0  0  0
 28 85  1  0  0  0  0
 29 66  2  0  0  0  0
 30 49  1  0  0  0  0
 30 67  1  0  0  0  0
 31 68  1  0  0  0  0
 31 71  1  0  0  0  0
 32 72  1  0  0  0  0
 32 77  2  0  0  0  0
 33 47  1  0  0  0  0
 33 73  1  0  0  0  0
 33 78  2  0  0  0  0
 34 63  1  0  0  0  0
 34 69  1  0  0  0  0
 34 79  2  0  0  0  0
 35 64  1  0  0  0  0
 35 74  1  0  0  0  0
 35 80  2  0  0  0  0
 36 70  1  0  0  0  0
 36 75  1  0  0  0  0
 36 81  2  0  0  0  0
 37 40  1  0  0  0  0
 38 47  1  0  0  0  0
 39 69  1  0  0  0  0
 40 42  1  0  0  0  0
 41 43  1  0  0  0  0
 41 44  1  0  0  0  0
 42 46  1  0  0  0  0
 43 48  1  0  0  0  0
 44 70  1  0  0  0  0
 45 48  1  0  0  0  0
 45 70  1  0  0  0  0
 46 73  1  0  0  0  0
 47 69  1  0  0  0  0
 48 68  1  0  0  0  0
 50 61  1  0  0  0  0
 51 62  1  0  0  0  0
 52 62  1  0  0  0  0
 53 64  1  0  0  0  0
 54 65  1  0  0  0  0
 55 65  1  0  0  0  0
 56 65  1  0  0  0  0
 57 76  1  0  0  0  0
 58 59  1  0  0  0  0
 58 67  1  0  0  0  0
 59 75  1  0  0  0  0
 60 61  1  0  0  0  0
 60 83  1  0  0  0  0
 63 65  1  0  0  0  0
 63 74  1  0  0  0  0
 64 76  1  0  0  0  0
 66 68  1  0  0  0  0
M  CHG  1  76   1
M  ISO  4  36 100  60 101  75 100  83 101
M  END
> <Batch ID>
0102

> <Smiles>
CNC(C)C(=O)NC(C(=O)N1Cc2cc([101O:1][101CH2:1]C(C)c3cn(CC[100NH:0][100C:0](=O)N4CCCC(n5nc(-c6ccc(Oc7ccc(F)cc7F)cc6)c(C(N)=O)c5N)C4)c(C)c3C(C)C)ccc2CC1C(=O)NC1CCCc2ccccc21)C(C)(C)C

> <Shape>
0.230

> <Color>
0.054

> <Negative vol penalty>
0.000

$$$$

  -OEChem-04052319383D

 90 98  0     1  0  0  0  0  0999 V2000
  -23.9850  -35.3863   21.6179 C   0  0  0  0  0  0  0  0  0  0  0  0
  -24.8649  -34.3089   21.5961 C   0  0  0  0  0  0  0  0  0  0  0  0
  -24.6460   -8.4669   20.7075 C   0  0  0  0  0  0  0  0  0  0  0  0
  -22.8979  -10.0780   20.2769 C   0  0  0  0  0  0  0  0  0  0  0  0
  -22.7305  -35.2485   22.2105 C   0  0  0  0  0  0  0  0  0  0  0  0
  -24.4911  -33.0933   22.1679 C   0  0  0  0  0  0  0  0  0  0  0  0
  -25.6516  -29.1295   19.2376 C   0  0  0  0  0  0  0  0  0  0  0  0
  -23.6879   -7.5322   21.0999 C   0  0  0  0  0  0  0  0  0  0  0  0
  -21.9397   -9.1433   20.6693 C   0  0  0  0  0  0  0  0  0  0  0  0
  -26.9811  -28.7097   19.2317 C   0  0  0  0  0  0  0  0  0  0  0  0
  -21.8069   -6.8918   23.8342 C   0  0  0  0  0  0  0  0  0  0  0  0
  -22.0535   -6.1609   24.9963 C   0  0  0  0  0  0  0  0  0  0  0  0
  -26.4221  -26.9379   20.7703 C   0  0  0  0  0  0  0  0  0  0  0  0
  -26.9343  -19.9218   21.1433 C   0  0  0  0  0  0  0  0  0  0  0  0
  -21.9735   -4.1092   23.7230 C   0  0  0  0  0  0  0  0  0  0  0  0
  -24.2510   -9.7399   20.2961 C   0  0  0  0  0  0  0  0  0  0  0  0
  -25.7478  -10.9104   18.5941 C   0  0  0  0  0  0  0  0  0  0  0  0
  -22.3374  -34.0278   22.7813 C   0  0  0  0  0  0  0  0  0  0  0  0
  -24.6979  -28.4622   20.0197 C   0  0  0  0  0  0  0  0  0  0  0  0
  -23.2306  -32.9394   22.7699 C   0  0  0  0  0  0  0  0  0  0  0  0
  -25.0807  -27.3496   20.7824 C   0  0  0  0  0  0  0  0  0  0  0  0
  -26.9878  -20.4288   19.8214 C   0  0  0  0  0  0  0  0  0  0  0  0
  -22.3348   -7.8704   21.0808 C   0  0  0  0  0  0  0  0  0  0  0  0
  -27.3671  -27.6155   20.0003 C   0  0  0  0  0  0  0  0  0  0  0  0
  -21.6436   -6.2314   22.6164 C   0  0  0  0  0  0  0  0  0  0  0  0
  -22.1369   -4.7696   24.9408 C   0  0  0  0  0  0  0  0  0  0  0  0
  -21.7269   -4.8401   22.5608 C   0  0  0  0  0  0  0  0  0  0  0  0
  -25.2402  -10.7060   19.8911 C   0  0  0  0  0  0  0  0  0  0  0  0
  -25.9550  -18.9537   21.1732 C   0  0  0  0  0  0  0  0  0  0  0  0
  -26.0394  -19.7550   19.0839 C   0  0  0  0  0  0  0  0  0  0  0  0
  -26.6538  -11.9329   18.7371 C   0  0  0  0  0  0  0  0  0  0  0  0
  -25.4289  -10.2364   17.3694 C   0  0  0  0  0  0  0  0  0  0  0  0
  -22.8178  -29.2817   22.4481 C   0  0  0  0  0  0  0  0  0  0  0  0
  -21.6155  -26.3002   22.0151 C   0  0  0  0  0  0  0  0  0  0  0  0
  -22.0881  -23.1262   20.8537 C   0  0  0  0  0  0  0  0  0  0  0  0
  -27.2018  -16.3672   22.7230 C   0  0  0  0  0  0  0  0  0  0  0  0
  -28.8252  -22.1491   20.0333 C   0  0  0  0  0  0  0  0  0  0  0  0
  -20.9895  -33.9408   23.4523 C   0  0  0  0  0  0  0  0  0  0  0  0
  -23.2626  -28.9111   19.9944 C   0  0  0  0  0  0  0  0  0  0  0  0
  -24.0914  -26.5865   21.6235 C   0  0  0  0  0  0  0  0  0  0  0  0
  -20.5258  -32.5083   23.7041 C   0  0  0  0  0  0  0  0  0  0  0  0
  -29.6269  -13.8807   21.9398 C   0  0  0  0  0  0  0  0  0  0  0  0
  -21.6541  -31.6809   24.3115 C   0  0  0  0  0  0  0  0  0  0  0  0
  -28.8234  -12.8036   21.2089 C   0  0  0  0  0  0  0  0  0  0  0  0
  -28.8182  -14.5215   23.0656 C   0  0  0  0  0  0  0  0  0  0  0  0
  -26.7009  -13.9769   21.9279 C   0  0  0  0  0  0  0  0  0  0  0  0
  -22.8520  -31.5973   23.3578 C   0  0  1  0  0  0  0  0  0  0  0  0
  -22.4780  -28.4740   21.2275 C   0  0  1  0  0  0  0  0  0  0  0  0
  -27.4552  -13.3407   20.7478 C   0  0  2  0  0  0  0  0  0  0  0  0
  -25.6688  -19.8838   17.6577 C   0  0  0  0  0  0  0  0  0  0  0  0
  -20.9393  -20.9023   20.6755 C   0  0  0  0  0  0  0  0  0  0  0  0
  -23.0259  -15.1904   19.5222 C   0  0  0  0  0  0  0  0  0  0  0  0
  -24.3935  -14.6265   17.5040 C   0  0  0  0  0  0  0  0  0  0  0  0
  -22.1437  -25.7927   24.9771 C   0  0  0  0  0  0  0  0  0  0  0  0
  -21.8870  -23.3424   24.5315 C   0  0  0  0  0  0  0  0  0  0  0  0
  -19.9695  -24.8880   24.1352 C   0  0  0  0  0  0  0  0  0  0  0  0
  -22.2073  -23.1712   17.8969 C   0  0  0  0  0  0  0  0  0  0  0  0
  -25.4897  -18.1120   22.2949 C   0  0  0  0  0  0  0  0  0  0  0  0
  -24.8880  -16.7514   18.7493 C   0  0  0  0  0  0  0  0  0  0  0  0
  -30.1640  -25.4119   19.4515 C   0  0  0  0  0  0  0  0  0  0  0  0
  -24.3556  -17.9568   19.5270 C   0  0  0  0  0  0  0  0  0  0  0  0
  -30.5197  -23.9422   19.6303 C   0  0  0  0  0  0  0  0  0  0  0  0
  -28.9052  -25.8138   20.2104 C   0  0  0  0  0  0  0  0  0  1  0  0
  -21.9410  -24.9277   22.5529 C   0  0  1  0  0  0  0  0  0  0  0  0
  -21.2197  -22.2301   19.9892 C   0  0  2  0  0  0  0  0  0  0  0  0
  -23.7846  -15.7655   18.3253 C   0  0  0  0  0  0  0  0  0  0  0  0
  -21.5046  -24.7530   24.0350 C   0  0  0  0  0  0  0  0  0  0  0  0
  -25.7791  -11.5321   20.7918 N   0  0  0  0  0  0  0  0  0  0  0  0
  -25.4176  -18.8610   19.9159 N   0  0  0  0  0  0  0  0  0  0  0  0
  -26.6347  -12.2655   20.0597 N   0  0  0  0  0  0  0  0  0  0  0  0
  -22.7011  -27.0679   21.5703 N   0  0  0  0  0  0  0  0  0  0  0  0
  -27.5330  -15.0117   22.5617 N   0  0  0  0  0  0  0  0  0  0  0  0
  -27.4569  -12.5707   17.8593 N   0  0  0  0  0  0  0  0  0  0  0  0
  -24.4757   -9.2094   17.4007 N   0  0  0  0  0  0  0  0  0  0  0  0
  -27.8484  -21.4382   19.3305 N   0  0  0  0  0  0  0  0  0  0  0  0
  -22.5943  -30.6379   22.3054 N   0  0  0  0  0  0  0  0  0  0  0  0
  -21.3301  -23.9736   21.6337 N   0  0  0  0  0  0  0  0  0  0  0  0
  -25.9681  -16.7500   22.2111 N   0  0  0  0  0  0  0  0  0  0  0  0
  -29.4682  -23.0677   19.1900 N   0  0  0  0  0  0  0  0  0  0  0  0
  -21.8934  -21.9541   18.6889 N   0  3  0  0  0  0  0  0  0  0  0  0
  -25.9851  -10.5250   16.2827 O   0  0  0  0  0  0  0  0  0  0  0  0
  -23.2492  -28.7162   23.4460 O   0  0  0  0  0  0  0  0  0  0  0  0
  -20.4405  -26.6745   21.9841 O   0  0  0  0  0  0  0  0  0  0  0  0
  -23.3161  -23.0765   20.8412 O   0  0  0  0  0  0  0  0  0  0  0  0
  -27.9525  -17.1774   23.2771 O   0  0  0  0  0  0  0  0  0  0  0  0
  -29.1129  -22.0199   21.2208 O   0  0  0  0  0  0  0  0  0  0  0  0
  -21.3996   -6.9585   21.4634 O   0  0  0  0  0  0  0  0  0  0  0  0
  -28.6642  -27.2040   19.9969 O   0  0  0  0  0  0  0  0  0  1  0  0
  -22.3752   -4.0680   26.0566 F   0  0  0  0  0  0  0  0  0  0  0  0
  -21.5720   -4.2002   21.3937 F   0  0  0  0  0  0  0  0  0  0  0  0
  1  2  1  0  0  0  0
  1  5  2  0  0  0  0
  2  6  2  0  0  0  0
  3  8  2  0  0  0  0
  3 16  1  0  0  0  0
  4  9  1  0  0  0  0
  4 16  2  0  0  0  0
  5 18  1  0  0  0  0
  6 20  1  0  0  0  0
  7 10  2  0  0  0  0
  7 19  1  0  0  0  0
  8 23  1  0  0  0  0
  9 23  2  0  0  0  0
 10 24  1  0  0  0  0
 11 12  2  0  0  0  0
 11 25  1  0  0  0  0
 12 26  1  0  0  0  0
 13 21  1  0  0  0  0
 13 24  2  0  0  0  0
 14 22  1  0  0  0  0
 14 29  2  0  0  0  0
 15 26  2  0  0  0  0
 15 27  1  0  0  0  0
 16 28  1  0  0  0  0
 17 28  1  0  0  0  0
 17 31  2  0  0  0  0
 17 32  1  0  0  0  0
 18 20  2  0  0  0  0
 18 38  1  0  0  0  0
 19 21  2  0  0  0  0
 19 39  1  0  0  0  0
 20 47  1  0  0  0  0
 21 40  1  0  0  0  0
 22 30  2  0  0  0  0
 22 75  1  0  0  0  0
 23 87  1  0  0  0  0
 24 88  1  0  0  0  0
 25 27  2  0  0  0  0
 25 87  1  0  0  0  0
 26 89  1  0  0  0  0
 27 90  1  0  0  0  0
 28 68  2  0  0  0  0
 29 58  1  0  0  0  0
 29 69  1  0  0  0  0
 30 50  1  0  0  0  0
 30 69  1  0  0  0  0
 31 70  1  0  0  0  0
 31 73  1  0  0  0  0
 32 74  1  0  0  0  0
 32 81  2  0  0  0  0
 33 48  1  0  0  0  0
 33 76  1  0  0  0  0
 33 82  2  0  0  0  0
 34 64  1  0  0  0  0
 34 71  1  0  0  0  0
 34 83  2  0  0  0  0
 35 65  1  0  0  0  0
 35 77  1  0  0  0  0
 35 84  2  0  0  0  0
 36 72  1  0  0  0  0
 36 78  1  0  0  0  0
 36 85  2  0  0  0  0
 37 75  1  0  0  0  0
 37 79  1  0  0  0  0
 37 86  2  0  0  0  0
 38 41  1  0  0  0  0
 39 48  1  0  0  0  0
 40 71  1  0  0  0  0
 41 43  1  0  0  0  0
 42 44  1  0  0  0  0
 42 45  1  0  0  0  0
 43 47  1  0  0  0  0
 44 49  1  0  0  0  0
 45 72  1  0  0  0  0
 46 49  1  0  0  0  0
 46 72  1  0  0  0  0
 47 76  1  0  0  0  0
 48 71  1  0  0  0  0
 49 70  1  0  0  0  0
 51 65  1  0  0  0  0
 52 66  1  0  0  0  0
 53 66  1  0  0  0  0
 54 67  1  0  0  0  0
 55 67  1  0  0  0  0
 56 67  1  0  0  0  0
 57 80  1  0  0  0  0
 58 78  1  0  0  0  0
 59 61  1  0  0  0  0
 59 66  1  0  0  0  0
 60 62  1  0  0  0  0
 60 63  1  0  0  0  0
 61 69  1  0  0  0  0
 62 79  1  0  0  0  0
 63 88  1  0  0  0  0
 64 67  1  0  0  0  0
 64 77  1  0  0  0  0
 65 80  1  0  0  0  0
 68 70  1  0  0  0  0
M  CHG  1  80   1
M  ISO  4  36 100  63 101  78 100  88 101
M  END
> <Batch ID>
0102

> <Smiles>
CNC(C)C(=O)NC(C(=O)N1Cc2cc([101O:1][101CH2:1]CCNC(=O)Nc3cc(C[100NH:0][100C:0](=O)N4CCCC(n5nc(-c6ccc(Oc7ccc(F)cc7F)cc6)c(C(N)=O)c5N)C4)n(CCC(C)C)c3C)ccc2CC1C(=O)NC1CCCc2ccccc21)C(C)(C)C

> <Shape>
0.250

> <Color>
0.117

> <Negative vol penalty>
0.000

$$$$

  -OEChem-04052319383D

 87 95  0     1  0  0  0  0  0999 V2000
  -24.0879  -32.5075   18.6343 C   0  0  0  0  0  0  0  0  0  0  0  0
  -24.0405  -31.1171   18.6232 C   0  0  0  0  0  0  0  0  0  0  0  0
  -23.1063   -9.7617   20.0238 C   0  0  0  0  0  0  0  0  0  0  0  0
  -23.8172   -9.9157   22.3277 C   0  0  0  0  0  0  0  0  0  0  0  0
  -25.2810  -33.1607   18.9405 C   0  0  0  0  0  0  0  0  0  0  0  0
  -25.1866  -30.3792   18.9172 C   0  0  0  0  0  0  0  0  0  0  0  0
  -25.4564  -25.0107   21.8519 C   0  0  0  0  0  0  0  0  0  0  0  0
  -22.3721   -8.6152   20.3270 C   0  0  0  0  0  0  0  0  0  0  0  0
  -23.0830   -8.7692   22.6309 C   0  0  0  0  0  0  0  0  0  0  0  0
  -25.5632  -23.6972   21.3968 C   0  0  0  0  0  0  0  0  0  0  0  0
  -19.8532   -7.9634   23.2140 C   0  0  0  0  0  0  0  0  0  0  0  0
  -19.0721   -7.9826   24.3695 C   0  0  0  0  0  0  0  0  0  0  0  0
  -27.9523  -23.7865   21.7185 C   0  0  0  0  0  0  0  0  0  0  0  0
  -29.1084  -18.3845   24.7655 C   0  0  0  0  0  0  0  0  0  0  0  0
  -20.3223   -6.1099   25.2456 C   0  0  0  0  0  0  0  0  0  0  0  0
  -23.8289  -10.4120   21.0242 C   0  0  0  0  0  0  0  0  0  0  0  0
  -24.1409  -12.9301   20.7605 C   0  0  0  0  0  0  0  0  0  0  0  0
  -26.4398  -32.4304   19.2478 C   0  0  0  0  0  0  0  0  0  0  0  0
  -26.5998  -25.7268   22.2341 C   0  0  0  0  0  0  0  0  0  0  0  0
  -26.3966  -31.0232   19.2264 C   0  0  0  0  0  0  0  0  0  0  0  0
  -27.8570  -25.1081   22.1806 C   0  0  0  0  0  0  0  0  0  0  0  0
  -29.0054  -17.9690   23.4150 C   0  0  0  0  0  0  0  0  0  0  0  0
  -22.3604   -8.1189   21.6305 C   0  0  0  0  0  0  0  0  0  0  0  0
  -26.8117  -23.0859   21.3273 C   0  0  0  0  0  0  0  0  0  0  0  0
  -20.8688   -7.0175   23.0742 C   0  0  0  0  0  0  0  0  0  0  0  0
  -19.3067   -7.0559   25.3853 C   0  0  0  0  0  0  0  0  0  0  0  0
  -21.1034   -6.0908   24.0900 C   0  0  0  0  0  0  0  0  0  0  0  0
  -24.5880  -11.5961   20.7115 C   0  0  0  0  0  0  0  0  0  0  0  0
  -30.4149  -18.1915   25.1567 C   0  0  0  0  0  0  0  0  0  0  0  0
  -30.2521  -17.5345   23.0221 C   0  0  0  0  0  0  0  0  0  0  0  0
  -25.2308  -13.6719   20.3755 C   0  0  0  0  0  0  0  0  0  0  0  0
  -22.8553  -13.4520   21.1218 C   0  0  0  0  0  0  0  0  0  0  0  0
  -28.0345  -28.3732   21.2133 C   0  0  0  0  0  0  0  0  0  0  0  0
  -29.9165  -27.8884   23.8105 C   0  0  0  0  0  0  0  0  0  0  0  0
  -31.1853  -25.6997   26.1011 C   0  0  0  0  0  0  0  0  0  0  0  0
  -30.6959  -14.7772   20.6146 C   0  0  0  0  0  0  0  0  0  0  0  0
  -27.7182  -33.1807   19.5262 C   0  0  0  0  0  0  0  0  0  0  0  0
  -26.4646  -27.1339   22.7481 C   0  0  0  0  0  0  0  0  0  0  0  0
  -29.1129  -25.8267   22.5984 C   0  0  0  0  0  0  0  0  0  0  0  0
  -28.7932  -32.3261   20.1929 C   0  0  0  0  0  0  0  0  0  0  0  0
  -29.6398  -12.2392   18.3518 C   0  0  0  0  0  0  0  0  0  0  0  0
  -28.9221  -30.9816   19.4839 C   0  0  0  0  0  0  0  0  0  0  0  0
  -28.1973  -11.9516   18.7721 C   0  0  0  0  0  0  0  0  0  0  0  0
  -30.5283  -12.5439   19.5558 C   0  0  0  0  0  0  0  0  0  0  0  0
  -28.5884  -13.3294   20.8571 C   0  0  0  0  0  0  0  0  0  0  0  0
  -27.6125  -30.1879   19.5641 C   0  0  1  0  0  0  0  0  0  0  0  0
  -27.7530  -27.9415   22.6247 C   0  0  1  0  0  0  0  0  0  0  0  0
  -27.6417  -13.0714   19.6724 C   0  0  2  0  0  0  0  0  0  0  0  0
  -26.6187  -17.1728   23.1650 C   0  0  0  0  0  0  0  0  0  0  0  0
  -30.4651  -17.6203   27.6112 C   0  0  0  0  0  0  0  0  0  0  0  0
  -31.0385  -19.9535   26.8480 C   0  0  0  0  0  0  0  0  0  0  0  0
  -30.5313  -17.9913   20.5573 C   0  0  0  0  0  0  0  0  0  0  0  0
  -32.7264  -25.5911   28.0786 C   0  0  0  0  0  0  0  0  0  0  0  0
  -32.3227  -28.0484   21.9411 C   0  0  0  0  0  0  0  0  0  0  0  0
  -33.7083  -27.0094   23.7489 C   0  0  0  0  0  0  0  0  0  0  0  0
  -32.6216  -29.2223   24.1290 C   0  0  0  0  0  0  0  0  0  0  0  0
  -32.5069  -17.3285   24.0889 C   0  0  0  0  0  0  0  0  0  0  0  0
  -29.0131  -24.7835   27.8902 C   0  0  0  0  0  0  0  0  0  0  0  0
  -26.2936  -19.5056   21.2114 C   0  0  0  0  0  0  0  0  0  0  0  0
  -25.8092  -20.9392   21.1209 C   0  0  0  0  0  0  0  0  0  1  0  0
  -27.7540  -18.0006   22.5681 C   0  0  1  0  0  0  0  0  0  0  0  0
  -31.0626  -18.4580   26.4575 C   0  0  0  0  0  0  0  0  0  0  0  0
  -30.7079  -16.9982   21.7218 C   0  0  2  0  0  0  0  0  0  0  0  0
  -31.1968  -27.1344   24.0772 C   0  0  1  0  0  0  0  0  0  0  0  0
  -31.2898  -25.7728   27.6137 C   0  0  2  0  0  0  0  0  0  0  0  0
  -32.4391  -27.8405   23.4643 C   0  0  0  0  0  0  0  0  0  0  0  0
  -25.8626  -11.4933   20.3256 N   0  0  0  0  0  0  0  0  0  0  0  0
  -31.1009  -17.6742   24.0889 N   0  0  0  0  0  0  0  0  0  0  0  0
  -26.2257  -12.7722   20.1286 N   0  0  0  0  0  0  0  0  0  0  0  0
  -28.9295  -27.2030   23.0880 N   0  0  0  0  0  0  0  0  0  0  0  0
  -29.9459  -13.6155   20.3673 N   0  0  0  0  0  0  0  0  0  0  0  0
  -25.4257  -14.9995   20.2274 N   0  0  0  0  0  0  0  0  0  0  0  0
  -21.8482  -12.5504   21.4921 N   0  0  0  0  0  0  0  0  0  0  0  0
  -27.4658  -29.5855   20.8718 N   0  0  0  0  0  0  0  0  0  0  0  0
  -31.2677  -26.9486   25.5225 N   0  0  0  0  0  0  0  0  0  0  0  0
  -30.0671  -15.7459   21.3872 N   0  0  0  0  0  0  0  0  0  0  0  0
  -30.4545  -24.7109   28.2426 N   0  3  0  0  0  0  0  0  0  0  0  0
  -27.2492  -19.3816   22.3409 N   0  3  0  0  0  0  0  0  0  0  0  0
  -22.6022  -14.6804   21.1007 O   0  0  0  0  0  0  0  0  0  0  0  0
  -28.7182  -27.6601   20.4883 O   0  0  0  0  0  0  0  0  0  0  0  0
  -29.7937  -29.0405   24.2340 O   0  0  0  0  0  0  0  0  0  0  0  0
  -31.0482  -24.6403   25.4933 O   0  0  0  0  0  0  0  0  0  0  0  0
  -31.8388  -14.9413   20.1746 O   0  0  0  0  0  0  0  0  0  0  0  0
  -21.6439   -7.0002   21.9268 O   0  0  0  0  0  0  0  0  0  0  0  0
  -26.9189  -21.8042   20.8828 O   0  0  0  0  0  0  0  0  0  1  0  0
  -18.5576   -7.0754   26.4955 F   0  0  0  0  0  0  0  0  0  0  0  0
  -22.0784   -5.1804   23.9620 F   0  0  0  0  0  0  0  0  0  0  0  0
  1  2  1  0  0  0  0
  1  5  2  0  0  0  0
  2  6  2  0  0  0  0
  3  8  2  0  0  0  0
  3 16  1  0  0  0  0
  4  9  1  0  0  0  0
  4 16  2  0  0  0  0
  5 18  1  0  0  0  0
  6 20  1  0  0  0  0
  7 10  2  0  0  0  0
  7 19  1  0  0  0  0
  8 23  1  0  0  0  0
  9 23  2  0  0  0  0
 10 24  1  0  0  0  0
 11 12  2  0  0  0  0
 11 25  1  0  0  0  0
 12 26  1  0  0  0  0
 13 21  1  0  0  0  0
 13 24  2  0  0  0  0
 14 22  1  0  0  0  0
 14 29  2  0  0  0  0
 15 26  2  0  0  0  0
 15 27  1  0  0  0  0
 16 28  1  0  0  0  0
 17 28  1  0  0  0  0
 17 31  2  0  0  0  0
 17 32  1  0  0  0  0
 18 20  2  0  0  0  0
 18 37  1  0  0  0  0
 19 21  2  0  0  0  0
 19 38  1  0  0  0  0
 20 46  1  0  0  0  0
 21 39  1  0  0  0  0
 22 30  2  0  0  0  0
 22 61  1  0  0  0  0
 23 84  1  0  0  0  0
 24 85  1  0  0  0  0
 25 27  2  0  0  0  0
 25 84  1  0  0  0  0
 26 86  1  0  0  0  0
 27 87  1  0  0  0  0
 28 67  2  0  0  0  0
 29 62  1  0  0  0  0
 29 68  1  0  0  0  0
 30 63  1  0  0  0  0
 30 68  1  0  0  0  0
 31 69  1  0  0  0  0
 31 72  1  0  0  0  0
 32 73  1  0  0  0  0
 32 79  2  0  0  0  0
 33 47  1  0  0  0  0
 33 74  1  0  0  0  0
 33 80  2  0  0  0  0
 34 64  1  0  0  0  0
 34 70  1  0  0  0  0
 34 81  2  0  0  0  0
 35 65  1  0  0  0  0
 35 75  1  0  0  0  0
 35 82  2  0  0  0  0
 36 71  1  0  0  0  0
 36 76  1  0  0  0  0
 36 83  2  0  0  0  0
 37 40  1  0  0  0  0
 38 47  1  0  0  0  0
 39 70  1  0  0  0  0
 40 42  1  0  0  0  0
 41 43  1  0  0  0  0
 41 44  1  0  0  0  0
 42 46  1  0  0  0  0
 43 48  1  0  0  0  0
 44 71  1  0  0  0  0
 45 48  1  0  0  0  0
 45 71  1  0  0  0  0
 46 74  1  0  0  0  0
 47 70  1  0  0  0  0
 48 69  1  0  0  0  0
 49 61  1  0  0  0  0
 50 62  1  0  0  0  0
 51 62  1  0  0  0  0
 52 63  1  0  0  0  0
 53 65  1  0  0  0  0
 54 66  1  0  0  0  0
 55 66  1  0  0  0  0
 56 66  1  0  0  0  0
 57 68  1  0  0  0  0
 58 77  1  0  0  0  0
 59 60  1  0  0  0  0
 59 78  1  0  0  0  0
 60 85  1  0  0  0  0
 61 78  1  0  0  0  0
 63 76  1  0  0  0  0
 64 66  1  0  0  0  0
 64 75  1  0  0  0  0
 65 77  1  0  0  0  0
 67 69  1  0  0  0  0
M  CHG  2  77   1  78   1
M  ISO  4  36 100  60 101  76 100  85 101
M  END
> <Batch ID>
0102

> <Smiles>
CNC(C)C(=O)NC(C(=O)N1Cc2cc([101O:1][101CH2:1]CNC(C)c3cc(C(C)C)n(C)c3C(C)[100NH:0][100C:0](=O)N3CCCC(n4nc(-c5ccc(Oc6ccc(F)cc6F)cc5)c(C(N)=O)c4N)C3)ccc2CC1C(=O)NC1CCCc2ccccc21)C(C)(C)C

> <Shape>
0.214

> <Color>
0.191

> <Negative vol penalty>
0.000

$$$$

  -OEChem-04052319383D

 84 91  0     1  0  0  0  0  0999 V2000
  -26.2216  -32.3995   18.0972 C   0  0  0  0  0  0  0  0  0  0  0  0
  -27.1523  -31.3908   18.3245 C   0  0  0  0  0  0  0  0  0  0  0  0
  -22.9602  -10.1098   20.4784 C   0  0  0  0  0  0  0  0  0  0  0  0
  -24.4673   -9.1080   22.0790 C   0  0  0  0  0  0  0  0  0  0  0  0
  -25.0727  -32.4764   18.8834 C   0  0  0  0  0  0  0  0  0  0  0  0
  -26.9352  -30.4590   19.3390 C   0  0  0  0  0  0  0  0  0  0  0  0
  -28.4996  -24.5381   19.2959 C   0  0  0  0  0  0  0  0  0  0  0  0
  -22.2003   -8.9403   20.4618 C   0  0  0  0  0  0  0  0  0  0  0  0
  -23.7074   -7.9384   22.0625 C   0  0  0  0  0  0  0  0  0  0  0  0
  -29.5832  -23.8503   19.8403 C   0  0  0  0  0  0  0  0  0  0  0  0
  -21.9604   -4.8175   22.7150 C   0  0  0  0  0  0  0  0  0  0  0  0
  -21.6630   -4.2191   23.9393 C   0  0  0  0  0  0  0  0  0  0  0  0
  -28.2524  -23.2972   21.7748 C   0  0  0  0  0  0  0  0  0  0  0  0
  -20.5189   -6.2274   24.6429 C   0  0  0  0  0  0  0  0  0  0  0  0
  -24.0938  -10.1937   21.2869 C   0  0  0  0  0  0  0  0  0  0  0  0
  -24.7143  -12.5110   22.1544 C   0  0  0  0  0  0  0  0  0  0  0  0
  -24.8367  -31.5393   19.9016 C   0  0  0  0  0  0  0  0  0  0  0  0
  -27.2856  -24.6201   19.9929 C   0  0  0  0  0  0  0  0  0  0  0  0
  -25.7827  -30.5242   20.1404 C   0  0  0  0  0  0  0  0  0  0  0  0
  -27.1541  -23.9845   21.2359 C   0  0  0  0  0  0  0  0  0  0  0  0
  -22.5739   -7.8546   21.2539 C   0  0  0  0  0  0  0  0  0  0  0  0
  -29.4606  -23.2321   21.0813 C   0  0  0  0  0  0  0  0  0  0  0  0
  -21.5371   -6.1209   22.4546 C   0  0  0  0  0  0  0  0  0  0  0  0
  -20.9422   -4.9240   24.9033 C   0  0  0  0  0  0  0  0  0  0  0  0
  -20.8163   -6.8258   23.4186 C   0  0  0  0  0  0  0  0  0  0  0  0
  -24.8795  -11.4014   21.3040 C   0  0  0  0  0  0  0  0  0  0  0  0
  -25.7021  -13.3859   21.7731 C   0  0  0  0  0  0  0  0  0  0  0  0
  -23.7538  -12.7313   23.1959 C   0  0  0  0  0  0  0  0  0  0  0  0
  -25.5475  -26.9921   21.1996 C   0  0  0  0  0  0  0  0  0  0  0  0
  -23.4227  -24.6137   21.7917 C   0  0  0  0  0  0  0  0  0  0  0  0
  -22.8680  -21.2858   22.3056 C   0  0  0  0  0  0  0  0  0  0  0  0
  -31.2115  -13.9606   20.4952 C   0  0  0  0  0  0  0  0  0  0  0  0
  -23.6034  -31.6912   20.7564 C   0  0  0  0  0  0  0  0  0  0  0  0
  -26.1179  -25.3432   19.3798 C   0  0  0  0  0  0  0  0  0  0  0  0
  -25.8660  -24.0257   22.0153 C   0  0  0  0  0  0  0  0  0  0  0  0
  -23.2655  -30.4418   21.5657 C   0  0  0  0  0  0  0  0  0  0  0  0
  -28.7790  -13.3635   17.7697 C   0  0  0  0  0  0  0  0  0  0  0  0
  -24.5149  -29.8934   22.2476 C   0  0  0  0  0  0  0  0  0  0  0  0
  -27.5630  -12.8239   18.5208 C   0  0  0  0  0  0  0  0  0  0  0  0
  -30.0817  -13.0491   18.4991 C   0  0  0  0  0  0  0  0  0  0  0  0
  -28.8907  -12.9717   20.6647 C   0  0  0  0  0  0  0  0  0  0  0  0
  -25.5706  -29.4801   21.2151 C   0  0  1  0  0  0  0  0  0  0  0  0
  -25.0892  -25.7986   20.4103 C   0  0  1  0  0  0  0  0  0  0  0  0
  -27.5585  -13.3121   19.9799 C   0  0  2  0  0  0  0  0  0  0  0  0
  -30.0458  -19.2141   16.3599 C   0  0  0  0  0  0  0  0  0  0  0  0
  -33.6397  -19.8281   23.3840 C   0  0  0  0  0  0  0  0  0  0  0  0
  -21.0324  -19.6483   22.8017 C   0  0  0  0  0  0  0  0  0  0  0  0
  -23.3817  -25.5438   24.6975 C   0  0  0  0  0  0  0  0  0  0  0  0
  -22.3240  -23.3585   25.3091 C   0  0  0  0  0  0  0  0  0  0  0  0
  -21.1436  -24.9255   23.7683 C   0  0  0  0  0  0  0  0  0  0  0  0
  -32.0618  -14.9999   22.5631 C   0  0  0  0  0  0  0  0  0  0  0  0
  -23.3438  -19.8113   19.7840 C   0  0  0  0  0  0  0  0  0  0  0  0
  -29.7304  -19.5147   17.8162 C   0  0  0  0  0  0  0  0  0  0  0  0
  -32.5098  -20.8444   23.3028 C   0  0  0  0  0  0  0  0  0  0  0  0
  -30.8121  -17.2920   20.7785 C   0  0  0  0  0  0  0  0  0  0  0  0
  -30.1587  -16.0698   21.4145 C   0  0  0  0  0  0  0  0  0  0  0  0
  -30.9743  -19.4020   18.6830 C   0  0  0  0  0  0  0  0  0  0  0  0
  -29.8668  -18.4850   20.7160 C   0  0  0  0  0  0  0  0  0  0  0  0
  -31.7556  -20.0915   20.9449 C   0  0  0  0  0  0  0  0  0  0  0  0
  -30.2201  -21.4563   22.4689 C   0  0  0  0  0  0  0  0  0  1  0  0
  -23.1723  -23.6650   22.9390 C   0  0  1  0  0  0  0  0  0  0  0  0
  -21.8461  -20.3318   21.7139 C   0  0  2  0  0  0  0  0  0  0  0  0
  -31.3438  -20.4089   22.3926 C   0  0  2  0  0  0  0  0  0  0  0  0
  -22.5304  -24.3739   24.1649 C   0  0  0  0  0  0  0  0  0  0  0  0
  -25.8924  -11.5547   20.4470 N   0  0  0  0  0  0  0  0  0  0  0  0
  -26.3726  -12.7711   20.7568 N   0  0  0  0  0  0  0  0  0  0  0  0
  -24.7549  -24.7504   21.3766 N   0  0  0  0  0  0  0  0  0  0  0  0
  -30.0340  -13.4848   19.8952 N   0  0  0  0  0  0  0  0  0  0  0  0
  -26.0538  -14.6133   22.2112 N   0  0  0  0  0  0  0  0  0  0  0  0
  -22.8094  -11.7291   23.4567 N   0  0  0  0  0  0  0  0  0  0  0  0
  -25.2260  -28.2057   20.6222 N   0  0  0  0  0  0  0  0  0  0  0  0
  -22.3749  -22.5702   22.3967 N   0  0  0  0  0  0  0  0  0  0  0  0
  -31.0710  -14.9314   21.4984 N   0  0  0  0  0  0  0  0  0  0  0  0
  -22.5260  -19.2809   20.9051 N   0  3  0  0  0  0  0  0  0  0  0  0
  -30.5997  -19.6637   20.1219 N   0  3  1  0  0  0  0  0  0  0  0  0
  -23.7234  -13.7925   23.8641 O   0  0  0  0  0  0  0  0  0  0  0  0
  -26.1471  -26.8245   22.2551 O   0  0  0  0  0  0  0  0  0  0  0  0
  -22.4705  -25.2062   21.2780 O   0  0  0  0  0  0  0  0  0  0  0  0
  -23.9901  -20.9267   22.6555 O   0  0  0  0  0  0  0  0  0  0  0  0
  -32.3254  -13.5484   20.1469 O   0  0  0  0  0  0  0  0  0  0  0  0
  -21.8324   -6.7133   21.2382 O   0  0  0  0  0  0  0  0  0  0  0  0
  -30.5170  -22.5606   21.6153 O   0  0  0  0  0  0  0  0  0  1  0  0
  -20.6554   -4.3487   26.0784 F   0  0  0  0  0  0  0  0  0  0  0  0
  -20.4060   -8.0777   23.1737 F   0  0  0  0  0  0  0  0  0  0  0  0
  1  2  1  0  0  0  0
  1  5  2  0  0  0  0
  2  6  2  0  0  0  0
  3  8  2  0  0  0  0
  3 15  1  0  0  0  0
  4  9  1  0  0  0  0
  4 15  2  0  0  0  0
  5 17  1  0  0  0  0
  6 19  1  0  0  0  0
  7 10  2  0  0  0  0
  7 18  1  0  0  0  0
  8 21  1  0  0  0  0
  9 21  2  0  0  0  0
 10 22  1  0  0  0  0
 11 12  2  0  0  0  0
 11 23  1  0  0  0  0
 12 24  1  0  0  0  0
 13 20  1  0  0  0  0
 13 22  2  0  0  0  0
 14 24  2  0  0  0  0
 14 25  1  0  0  0  0
 15 26  1  0  0  0  0
 16 26  1  0  0  0  0
 16 27  2  0  0  0  0
 16 28  1  0  0  0  0
 17 19  2  0  0  0  0
 17 33  1  0  0  0  0
 18 20  2  0  0  0  0
 18 34  1  0  0  0  0
 19 42  1  0  0  0  0
 20 35  1  0  0  0  0
 21 81  1  0  0  0  0
 22 82  1  0  0  0  0
 23 25  2  0  0  0  0
 23 81  1  0  0  0  0
 24 83  1  0  0  0  0
 25 84  1  0  0  0  0
 26 65  2  0  0  0  0
 27 66  1  0  0  0  0
 27 69  1  0  0  0  0
 28 70  1  0  0  0  0
 28 76  2  0  0  0  0
 29 43  1  0  0  0  0
 29 71  1  0  0  0  0
 29 77  2  0  0  0  0
 30 61  1  0  0  0  0
 30 67  1  0  0  0  0
 30 78  2  0  0  0  0
 31 62  1  0  0  0  0
 31 72  1  0  0  0  0
 31 79  2  0  0  0  0
 32 68  1  0  0  0  0
 32 73  1  0  0  0  0
 32 80  2  0  0  0  0
 33 36  1  0  0  0  0
 34 43  1  0  0  0  0
 35 67  1  0  0  0  0
 36 38  1  0  0  0  0
 37 39  1  0  0  0  0
 37 40  1  0  0  0  0
 38 42  1  0  0  0  0
 39 44  1  0  0  0  0
 40 68  1  0  0  0  0
 41 44  1  0  0  0  0
 41 68  1  0  0  0  0
 42 71  1  0  0  0  0
 43 67  1  0  0  0  0
 44 66  1  0  0  0  0
 45 53  1  0  0  0  0
 46 54  1  0  0  0  0
 47 62  1  0  0  0  0
 48 64  1  0  0  0  0
 49 64  1  0  0  0  0
 50 64  1  0  0  0  0
 51 73  1  0  0  0  0
 52 74  1  0  0  0  0
 53 57  1  0  0  0  0
 54 63  1  0  0  0  0
 55 56  1  0  0  0  0
 55 58  1  0  0  0  0
 56 73  1  0  0  0  0
 57 75  1  0  0  0  0
 58 75  1  0  0  0  0
 59 63  1  0  0  0  0
 59 75  1  0  0  0  0
 60 63  1  0  0  0  0
 60 82  1  0  0  0  0
 61 64  1  0  0  0  0
 61 72  1  0  0  0  0
 62 74  1  0  0  0  0
 65 66  1  0  0  0  0
M  CHG  2  74   1  75   1
M  ISO  4  32 100  60 101  73 100  82 101
M  END
> <Batch ID>
0102

> <Smiles>
CCCN(CCC[100N:0](C)[100C:0](=O)N1CCCC(n2nc(-c3ccc(Oc4ccc(F)cc4F)cc3)c(C(N)=O)c2N)C1)CC(CC)[101CH2:1][101O:1]c1ccc2c(c1)CN(C(=O)C(NC(=O)C(C)NC)C(C)(C)C)C(C(=O)NC1CCCc3ccccc31)C2

> <Shape>
0.252

> <Color>
0.118

> <Negative vol penalty>
0.000

$$$$

  -OEChem-04052319383D

 82 90  0     1  0  0  0  0  0999 V2000
  -22.1237  -26.7740   24.9249 C   0  0  0  0  0  0  0  0  0  0  0  0
  -22.3310  -25.4454   25.2814 C   0  0  0  0  0  0  0  0  0  0  0  0
  -29.7430  -23.6864   19.2852 C   0  0  0  0  0  0  0  0  0  0  0  0
  -27.6294  -23.3138   20.3947 C   0  0  0  0  0  0  0  0  0  0  0  0
  -21.6353  -27.0864   23.6569 C   0  0  0  0  0  0  0  0  0  0  0  0
  -22.0489  -24.4281   24.3703 C   0  0  0  0  0  0  0  0  0  0  0  0
  -24.2920  -17.9157   22.4023 C   0  0  0  0  0  0  0  0  0  0  0  0
  -29.2407  -24.8596   18.7222 C   0  0  0  0  0  0  0  0  0  0  0  0
  -27.1271  -24.4870   19.8318 C   0  0  0  0  0  0  0  0  0  0  0  0
  -23.8036  -16.6277   22.1871 C   0  0  0  0  0  0  0  0  0  0  0  0
  -25.4058  -27.5728   18.9753 C   0  0  0  0  0  0  0  0  0  0  0  0
  -24.6902  -28.4363   19.8047 C   0  0  0  0  0  0  0  0  0  0  0  0
  -23.0387  -17.2902   19.9973 C   0  0  0  0  0  0  0  0  0  0  0  0
  -25.3010  -13.2881   20.0730 C   0  0  0  0  0  0  0  0  0  0  0  0
  -26.6288  -28.6775   21.2262 C   0  0  0  0  0  0  0  0  0  0  0  0
  -24.2918  -11.3602   20.6514 C   0  0  0  0  0  0  0  0  0  0  0  0
  -28.9373  -22.9135   20.1214 C   0  0  0  0  0  0  0  0  0  0  0  0
  -30.1251  -21.5674   21.9338 C   0  0  0  0  0  0  0  0  0  0  0  0
  -21.3562  -26.0730   22.7265 C   0  0  0  0  0  0  0  0  0  0  0  0
  -24.1476  -18.9052   21.4193 C   0  0  0  0  0  0  0  0  0  0  0  0
  -21.5550  -24.7271   23.0891 C   0  0  0  0  0  0  0  0  0  0  0  0
  -23.5285  -18.5893   20.2015 C   0  0  0  0  0  0  0  0  0  0  0  0
  -24.0825  -12.5672   20.0217 C   0  0  0  0  0  0  0  0  0  0  0  0
  -27.9327  -25.2599   18.9955 C   0  0  0  0  0  0  0  0  0  0  0  0
  -23.1742  -16.3156   20.9856 C   0  0  0  0  0  0  0  0  0  0  0  0
  -26.7330  -27.2616   19.2714 C   0  0  0  0  0  0  0  0  0  0  0  0
  -25.3017  -28.9887   20.9301 C   0  0  0  0  0  0  0  0  0  0  0  0
  -27.3444  -27.8140   20.3968 C   0  0  0  0  0  0  0  0  0  0  0  0
  -29.4555  -21.7012   20.7028 C   0  0  0  0  0  0  0  0  0  0  0  0
  -26.2180  -12.4995   20.7323 C   0  0  0  0  0  0  0  0  0  0  0  0
  -30.4090  -20.2267   22.0263 C   0  0  0  0  0  0  0  0  0  0  0  0
  -30.4604  -22.5657   22.9068 C   0  0  0  0  0  0  0  0  0  0  0  0
  -22.6650  -21.7126   21.2634 C   0  0  0  0  0  0  0  0  0  0  0  0
  -24.1501  -21.8974   18.3854 C   0  0  0  0  0  0  0  0  0  0  0  0
  -25.5883  -20.2633   15.7571 C   0  0  0  0  0  0  0  0  0  0  0  0
  -28.0576  -15.1933   20.7821 C   0  0  0  0  0  0  0  0  0  0  0  0
  -20.7850  -26.4569   21.3845 C   0  0  0  0  0  0  0  0  0  0  0  0
  -24.7037  -20.2825   21.6563 C   0  0  0  0  0  0  0  0  0  0  0  0
  -23.3663  -19.6101   19.1060 C   0  0  0  0  0  0  0  0  0  0  0  0
  -20.8656  -25.3407   20.3463 C   0  0  0  0  0  0  0  0  0  0  0  0
  -30.7739  -16.5096   18.7854 C   0  0  0  0  0  0  0  0  0  0  0  0
  -20.3937  -24.0195   20.9452 C   0  0  0  0  0  0  0  0  0  0  0  0
  -30.7729  -17.9813   19.2029 C   0  0  0  0  0  0  0  0  0  0  0  0
  -29.3538  -15.9578   18.7017 C   0  0  0  0  0  0  0  0  0  0  0  0
  -28.5542  -17.5862   20.3698 C   0  0  0  0  0  0  0  0  0  0  0  0
  -21.2842  -23.5969   22.1199 C   0  0  1  0  0  0  0  0  0  0  0  0
  -24.0441  -21.3506   20.7894 C   0  0  1  0  0  0  0  0  0  0  0  0
  -29.9620  -18.1967   20.4945 C   0  0  2  0  0  0  0  0  0  0  0  0
  -26.6779  -20.6814   13.5356 C   0  0  0  0  0  0  0  0  0  0  0  0
  -21.5003  -12.4683   20.0610 C   0  0  0  0  0  0  0  0  0  0  0  0
  -22.7286  -12.5892   17.9037 C   0  0  0  0  0  0  0  0  0  0  0  0
  -21.4146  -22.4444   17.1494 C   0  0  0  0  0  0  0  0  0  0  0  0
  -22.3973  -21.9102   14.9095 C   0  0  0  0  0  0  0  0  0  0  0  0
  -23.2741  -23.8389   16.2263 C   0  0  0  0  0  0  0  0  0  0  0  0
  -26.1989  -10.2237   21.7877 C   0  0  0  0  0  0  0  0  0  0  0  0
  -28.1294  -19.0300   16.6407 C   0  0  0  0  0  0  0  0  0  0  0  0
  -27.6343  -12.7641   21.0595 C   0  0  0  0  0  0  0  0  0  0  0  0
  -22.6757  -14.5914   19.4253 C   0  0  0  0  0  0  0  0  0  1  0  0
  -23.8045  -21.4832   16.9755 C   0  0  1  0  0  0  0  0  0  0  0  0
  -26.9004  -20.4880   15.0275 C   0  0  2  0  0  0  0  0  0  0  0  0
  -22.7656  -13.0441   19.3808 C   0  0  0  0  0  0  0  0  0  0  0  0
  -22.7238  -22.4002   16.3364 C   0  0  0  0  0  0  0  0  0  0  0  0
  -29.3221  -20.5384   20.0593 N   0  0  0  0  0  0  0  0  0  0  0  0
  -25.5935  -11.3299   21.0791 N   0  0  0  0  0  0  0  0  0  0  0  0
  -29.9119  -19.6611   20.8891 N   0  0  0  0  0  0  0  0  0  0  0  0
  -23.9211  -20.9444   19.3880 N   0  0  0  0  0  0  0  0  0  0  0  0
  -28.6425  -16.1781   19.9688 N   0  0  0  0  0  0  0  0  0  0  0  0
  -31.0330  -19.4883   22.9685 N   0  0  0  0  0  0  0  0  0  0  0  0
  -30.0942  -23.8947   22.6540 N   0  0  0  0  0  0  0  0  0  0  0  0
  -22.5274  -23.0363   21.6355 N   0  0  0  0  0  0  0  0  0  0  0  0
  -25.0646  -21.4434   16.2413 N   0  0  0  0  0  0  0  0  0  0  0  0
  -28.1796  -13.8859   20.3278 N   0  0  0  0  0  0  0  0  0  0  0  0
  -27.8067  -19.3207   15.2201 N   0  3  0  0  0  0  0  0  0  0  0  0
  -31.0813  -22.2899   23.9613 O   0  0  0  0  0  0  0  0  0  0  0  0
  -21.7901  -20.8549   21.2882 O   0  0  0  0  0  0  0  0  0  0  0  0
  -24.6131  -23.0225   18.5888 O   0  0  0  0  0  0  0  0  0  0  0  0
  -25.0771  -19.1526   15.8817 O   0  0  0  0  0  0  0  0  0  0  0  0
  -27.4740  -15.4590   21.8385 O   0  0  0  0  0  0  0  0  0  0  0  0
  -27.4423  -26.4048   18.4466 O   0  0  0  0  0  0  0  0  0  0  0  0
  -22.6959  -15.0594   20.7732 O   0  0  0  0  0  0  0  0  0  1  0  0
  -24.6149  -29.8191   21.7256 F   0  0  0  0  0  0  0  0  0  0  0  0
  -28.6195  -27.5197   20.6858 F   0  0  0  0  0  0  0  0  0  0  0  0
  1  2  1  0  0  0  0
  1  5  2  0  0  0  0
  2  6  2  0  0  0  0
  3  8  2  0  0  0  0
  3 17  1  0  0  0  0
  4  9  1  0  0  0  0
  4 17  2  0  0  0  0
  5 19  1  0  0  0  0
  6 21  1  0  0  0  0
  7 10  2  0  0  0  0
  7 20  1  0  0  0  0
  8 24  1  0  0  0  0
  9 24  2  0  0  0  0
 10 25  1  0  0  0  0
 11 12  2  0  0  0  0
 11 26  1  0  0  0  0
 12 27  1  0  0  0  0
 13 22  1  0  0  0  0
 13 25  2  0  0  0  0
 14 23  1  0  0  0  0
 14 30  2  0  0  0  0
 15 27  2  0  0  0  0
 15 28  1  0  0  0  0
 16 23  2  0  0  0  0
 16 64  1  0  0  0  0
 17 29  1  0  0  0  0
 18 29  1  0  0  0  0
 18 31  2  0  0  0  0
 18 32  1  0  0  0  0
 19 21  2  0  0  0  0
 19 37  1  0  0  0  0
 20 22  2  0  0  0  0
 20 38  1  0  0  0  0
 21 46  1  0  0  0  0
 22 39  1  0  0  0  0
 23 61  1  0  0  0  0
 24 79  1  0  0  0  0
 25 80  1  0  0  0  0
 26 28  2  0  0  0  0
 26 79  1  0  0  0  0
 27 81  1  0  0  0  0
 28 82  1  0  0  0  0
 29 63  2  0  0  0  0
 30 57  1  0  0  0  0
 30 64  1  0  0  0  0
 31 65  1  0  0  0  0
 31 68  1  0  0  0  0
 32 69  1  0  0  0  0
 32 74  2  0  0  0  0
 33 47  1  0  0  0  0
 33 70  1  0  0  0  0
 33 75  2  0  0  0  0
 34 59  1  0  0  0  0
 34 66  1  0  0  0  0
 34 76  2  0  0  0  0
 35 60  1  0  0  0  0
 35 71  1  0  0  0  0
 35 77  2  0  0  0  0
 36 67  1  0  0  0  0
 36 72  1  0  0  0  0
 36 78  2  0  0  0  0
 37 40  1  0  0  0  0
 38 47  1  0  0  0  0
 39 66  1  0  0  0  0
 40 42  1  0  0  0  0
 41 43  1  0  0  0  0
 41 44  1  0  0  0  0
 42 46  1  0  0  0  0
 43 48  1  0  0  0  0
 44 67  1  0  0  0  0
 45 48  1  0  0  0  0
 45 67  1  0  0  0  0
 46 70  1  0  0  0  0
 47 66  1  0  0  0  0
 48 65  1  0  0  0  0
 49 60  1  0  0  0  0
 50 61  1  0  0  0  0
 51 61  1  0  0  0  0
 52 62  1  0  0  0  0
 53 62  1  0  0  0  0
 54 62  1  0  0  0  0
 55 64  1  0  0  0  0
 56 73  1  0  0  0  0
 57 72  1  0  0  0  0
 58 61  1  0  0  0  0
 58 80  1  0  0  0  0
 59 62  1  0  0  0  0
 59 71  1  0  0  0  0
 60 73  1  0  0  0  0
 63 65  1  0  0  0  0
M  CHG  1  73   1
M  ISO  4  36 100  58 101  72 100  80 101
M  END
> <Batch ID>
0102

> <Smiles>
CNC(C)C(=O)NC(C(=O)N1Cc2cc([101O:1][101CH2:1]C(C)(C)c3cc(C[100NH:0][100C:0](=O)N4CCCC(n5nc(-c6ccc(Oc7ccc(F)cc7F)cc6)c(C(N)=O)c5N)C4)n(C)c3)ccc2CC1C(=O)NC1CCCc2ccccc21)C(C)(C)C

> <Shape>
0.181

> <Color>
0.068

> <Negative vol penalty>
0.000

$$$$

  -OEChem-04052319383D

 86 94  0     1  0  0  0  0  0999 V2000
  -30.2589  -23.4074   18.5683 C   0  0  0  0  0  0  0  0  0  0  0  0
  -29.0083  -24.0082   18.6567 C   0  0  0  0  0  0  0  0  0  0  0  0
  -24.8946  -11.8848   21.2286 C   0  0  0  0  0  0  0  0  0  0  0  0
  -23.1996  -13.5320   21.7296 C   0  0  0  0  0  0  0  0  0  0  0  0
  -31.2529  -23.7372   19.4873 C   0  0  0  0  0  0  0  0  0  0  0  0
  -28.7549  -24.9478   19.6567 C   0  0  0  0  0  0  0  0  0  0  0  0
  -24.4498  -27.3202   19.4553 C   0  0  0  0  0  0  0  0  0  0  0  0
  -24.4013  -11.0678   22.2458 C   0  0  0  0  0  0  0  0  0  0  0  0
  -22.7063  -12.7149   22.7468 C   0  0  0  0  0  0  0  0  0  0  0  0
  -23.2352  -26.7046   19.7545 C   0  0  0  0  0  0  0  0  0  0  0  0
  -23.3628   -8.3886   24.4726 C   0  0  0  0  0  0  0  0  0  0  0  0
  -23.2072   -7.0305   24.1955 C   0  0  0  0  0  0  0  0  0  0  0  0
  -23.2108  -27.8085   21.8993 C   0  0  0  0  0  0  0  0  0  0  0  0
  -21.6647   -7.5702   22.4161 C   0  0  0  0  0  0  0  0  0  0  0  0
  -24.2223  -22.3555   21.9574 C   0  0  0  0  0  0  0  0  0  0  0  0
  -22.5667  -21.7537   20.5749 C   0  0  0  0  0  0  0  0  0  0  0  0
  -24.2938  -13.1170   20.9705 C   0  0  0  0  0  0  0  0  0  0  0  0
  -24.4100  -13.9684   18.5686 C   0  0  0  0  0  0  0  0  0  0  0  0
  -31.0069  -24.6721   20.5062 C   0  0  0  0  0  0  0  0  0  0  0  0
  -25.0604  -28.1776   20.3819 C   0  0  0  0  0  0  0  0  0  0  0  0
  -29.7527  -25.3118   20.5790 C   0  0  0  0  0  0  0  0  0  0  0  0
  -24.4319  -28.4358   21.6084 C   0  0  0  0  0  0  0  0  0  0  0  0
  -24.8011  -21.7714   20.8523 C   0  0  0  0  0  0  0  0  0  0  0  0
  -23.7536  -21.3905   19.9777 C   0  0  0  0  0  0  0  0  0  0  0  0
  -23.3071  -11.4828   23.0048 C   0  0  0  0  0  0  0  0  0  0  0  0
  -22.6170  -26.9464   20.9778 C   0  0  0  0  0  0  0  0  0  0  0  0
  -22.6692   -9.3376   23.7215 C   0  0  0  0  0  0  0  0  0  0  0  0
  -22.3583   -6.6212   23.1673 C   0  0  0  0  0  0  0  0  0  0  0  0
  -21.8202   -8.9284   22.6932 C   0  0  0  0  0  0  0  0  0  0  0  0
  -24.8033  -13.9617   19.9203 C   0  0  0  0  0  0  0  0  0  0  0  0
  -25.1854  -14.9435   17.9903 C   0  0  0  0  0  0  0  0  0  0  0  0
  -23.4312  -13.1652   17.8960 C   0  0  0  0  0  0  0  0  0  0  0  0
  -27.8115  -28.1663   21.9741 C   0  0  0  0  0  0  0  0  0  0  0  0
  -26.8321  -31.1130   22.9122 C   0  0  0  0  0  0  0  0  0  0  0  0
  -24.2445  -33.2757   23.4354 C   0  0  0  0  0  0  0  0  0  0  0  0
  -27.9175  -19.8061   20.1679 C   0  0  0  0  0  0  0  0  0  0  0  0
  -32.1211  -24.9978   21.4694 C   0  0  0  0  0  0  0  0  0  0  0  0
  -26.3574  -28.8549   20.0332 C   0  0  0  0  0  0  0  0  0  0  0  0
  -25.0361  -29.3638   22.6293 C   0  0  0  0  0  0  0  0  0  0  0  0
  -31.6251  -25.6626   22.7494 C   0  0  0  0  0  0  0  0  0  0  0  0
  -29.4355  -17.0968   18.4265 C   0  0  0  0  0  0  0  0  0  0  0  0
  -30.6952  -26.8174   22.4086 C   0  0  0  0  0  0  0  0  0  0  0  0
  -28.3850  -15.9867   18.4899 C   0  0  0  0  0  0  0  0  0  0  0  0
  -29.4612  -17.9235   19.7102 C   0  0  0  0  0  0  0  0  0  0  0  0
  -27.1060  -17.3693   20.1785 C   0  0  0  0  0  0  0  0  0  0  0  0
  -29.4446  -26.3138   21.6768 C   0  0  1  0  0  0  0  0  0  0  0  0
  -27.1440  -29.3071   21.2596 C   0  0  1  0  0  0  0  0  0  0  0  0
  -27.0039  -16.5436   18.8846 C   0  0  2  0  0  0  0  0  0  0  0  0
  -24.0511  -22.8710   17.2711 C   0  0  0  0  0  0  0  0  0  0  0  0
  -19.6293  -24.9266   19.4838 C   0  0  0  0  0  0  0  0  0  0  0  0
  -23.2483  -19.3191   18.6569 C   0  0  0  0  0  0  0  0  0  0  0  0
  -23.7527  -35.6005   24.2420 C   0  0  0  0  0  0  0  0  0  0  0  0
  -27.2639  -30.2025   25.7922 C   0  0  0  0  0  0  0  0  0  0  0  0
  -25.8900  -32.1564   26.5424 C   0  0  0  0  0  0  0  0  0  0  0  0
  -28.0257  -32.5352   25.3103 C   0  0  0  0  0  0  0  0  0  0  0  0
  -23.0774  -34.0574   20.8305 C   0  0  0  0  0  0  0  0  0  0  0  0
  -26.2486  -21.5837   20.6306 C   0  0  0  0  0  0  0  0  0  0  0  0
  -23.3315  -21.5414   17.4622 C   0  0  0  0  0  0  0  0  0  0  0  0
  -20.0279  -24.4189   20.8631 C   0  0  0  0  0  0  0  0  0  0  0  0
  -21.7760  -24.4150   22.6918 C   0  0  0  0  0  0  0  0  0  0  0  0
  -21.8513  -22.8850   22.7526 C   0  0  0  0  0  0  0  0  0  0  0  0
  -23.8952  -20.7267   18.6668 C   0  0  1  0  0  0  0  0  0  0  0  0
  -26.0133  -31.6523   24.0601 C   0  0  1  0  0  0  0  0  0  0  0  0
  -24.0469  -34.7261   23.0331 C   0  0  2  0  0  0  0  0  0  0  0  0
  -21.4126  -24.9194   21.2892 C   0  0  2  0  0  0  0  0  0  1  0  0
  -26.7875  -31.6176   25.4080 C   0  0  0  0  0  0  0  0  0  0  0  0
  -25.7548  -14.8610   20.1850 N   0  0  0  0  0  0  0  0  0  0  0  0
  -22.8637  -22.3396   21.7776 N   0  0  0  0  0  0  0  0  0  0  0  0
  -25.9659  -15.4418   18.9916 N   0  0  0  0  0  0  0  0  0  0  0  0
  -26.3082  -29.9971   22.2442 N   0  0  0  0  0  0  0  0  0  0  0  0
  -28.1213  -18.4234   20.0275 N   0  0  0  0  0  0  0  0  0  0  0  0
  -25.2690  -15.4145   16.7279 N   0  0  0  0  0  0  0  0  0  0  0  0
  -22.7245  -12.2106   18.6401 N   0  0  0  0  0  0  0  0  0  0  0  0
  -28.6939  -27.4496   21.1885 N   0  0  0  0  0  0  0  0  0  0  0  0
  -25.5737  -32.9839   23.6577 N   0  0  0  0  0  0  0  0  0  0  0  0
  -26.6166  -20.1955   20.4626 N   0  0  0  0  0  0  0  0  0  0  0  0
  -22.9103  -34.8481   22.0770 N   0  3  0  0  0  0  0  0  0  0  0  0
  -23.2020  -13.2789   16.6680 O   0  0  0  0  0  0  0  0  0  0  0  0
  -27.5467  -27.9530   23.1515 O   0  0  0  0  0  0  0  0  0  0  0  0
  -27.8938  -31.6659   22.6144 O   0  0  0  0  0  0  0  0  0  0  0  0
  -23.3126  -32.4820   23.5453 O   0  0  0  0  0  0  0  0  0  0  0  0
  -28.8263  -20.6326   20.0348 O   0  0  0  0  0  0  0  0  0  0  0  0
  -22.8253  -10.6857   23.9973 O   0  0  0  0  0  0  0  0  0  0  0  0
  -21.4317  -26.3462   21.2726 O   0  0  0  0  0  0  0  0  0  1  0  0
  -22.2102   -5.3170   22.9003 F   0  0  0  0  0  0  0  0  0  0  0  0
  -21.1522   -9.8354   21.9674 F   0  0  0  0  0  0  0  0  0  0  0  0
  1  2  1  0  0  0  0
  1  5  2  0  0  0  0
  2  6  2  0  0  0  0
  3  8  2  0  0  0  0
  3 17  1  0  0  0  0
  4  9  1  0  0  0  0
  4 17  2  0  0  0  0
  5 19  1  0  0  0  0
  6 21  1  0  0  0  0
  7 10  2  0  0  0  0
  7 20  1  0  0  0  0
  8 25  1  0  0  0  0
  9 25  2  0  0  0  0
 10 26  1  0  0  0  0
 11 12  2  0  0  0  0
 11 27  1  0  0  0  0
 12 28  1  0  0  0  0
 13 22  1  0  0  0  0
 13 26  2  0  0  0  0
 14 28  2  0  0  0  0
 14 29  1  0  0  0  0
 15 23  2  0  0  0  0
 15 68  1  0  0  0  0
 16 24  2  0  0  0  0
 16 68  1  0  0  0  0
 17 30  1  0  0  0  0
 18 30  1  0  0  0  0
 18 31  2  0  0  0  0
 18 32  1  0  0  0  0
 19 21  2  0  0  0  0
 19 37  1  0  0  0  0
 20 22  2  0  0  0  0
 20 38  1  0  0  0  0
 21 46  1  0  0  0  0
 22 39  1  0  0  0  0
 23 24  1  0  0  0  0
 23 57  1  0  0  0  0
 24 62  1  0  0  0  0
 25 83  1  0  0  0  0
 26 84  1  0  0  0  0
 27 29  2  0  0  0  0
 27 83  1  0  0  0  0
 28 85  1  0  0  0  0
 29 86  1  0  0  0  0
 30 67  2  0  0  0  0
 31 69  1  0  0  0  0
 31 72  1  0  0  0  0
 32 73  1  0  0  0  0
 32 78  2  0  0  0  0
 33 47  1  0  0  0  0
 33 74  1  0  0  0  0
 33 79  2  0  0  0  0
 34 63  1  0  0  0  0
 34 70  1  0  0  0  0
 34 80  2  0  0  0  0
 35 64  1  0  0  0  0
 35 75  1  0  0  0  0
 35 81  2  0  0  0  0
 36 71  1  0  0  0  0
 36 76  1  0  0  0  0
 36 82  2  0  0  0  0
 37 40  1  0  0  0  0
 38 47  1  0  0  0  0
 39 70  1  0  0  0  0
 40 42  1  0  0  0  0
 41 43  1  0  0  0  0
 41 44  1  0  0  0  0
 42 46  1  0  0  0  0
 43 48  1  0  0  0  0
 44 71  1  0  0  0  0
 45 48  1  0  0  0  0
 45 71  1  0  0  0  0
 46 74  1  0  0  0  0
 47 70  1  0  0  0  0
 48 69  1  0  0  0  0
 49 58  1  0  0  0  0
 50 59  1  0  0  0  0
 51 62  1  0  0  0  0
 52 64  1  0  0  0  0
 53 66  1  0  0  0  0
 54 66  1  0  0  0  0
 55 66  1  0  0  0  0
 56 77  1  0  0  0  0
 57 76  1  0  0  0  0
 58 62  1  0  0  0  0
 59 65  1  0  0  0  0
 60 61  1  0  0  0  0
 60 65  1  0  0  0  0
 61 68  1  0  0  0  0
 63 66  1  0  0  0  0
 63 75  1  0  0  0  0
 64 77  1  0  0  0  0
 65 84  1  0  0  0  0
 67 69  1  0  0  0  0
M  CHG  1  77   1
M  ISO  4  36 100  65 101  76 100  84 101
M  END
> <Batch ID>
0102

> <Smiles>
CCC(C)c1cn(CC[101CH:1](CC)[101O:1]c2ccc3c(c2)CN(C(=O)C(NC(=O)C(C)NC)C(C)(C)C)C(C(=O)NC2CCCc4ccccc42)C3)cc1C[100NH:0][100C:0](=O)N1CCCC(n2nc(-c3ccc(Oc4ccc(F)cc4F)cc3)c(C(N)=O)c2N)C1

> <Shape>
0.253

> <Color>
0.067

> <Negative vol penalty>
0.000

$$$$

  -OEChem-04052319383D

 86 94  0     1  0  0  0  0  0999 V2000
  -29.8070  -23.5984   12.2147 C   0  0  0  0  0  0  0  0  0  0  0  0
  -29.3191  -22.7937   13.2393 C   0  0  0  0  0  0  0  0  0  0  0  0
  -23.0563   -9.8935   19.9151 C   0  0  0  0  0  0  0  0  0  0  0  0
  -23.8438   -9.8363   22.1985 C   0  0  0  0  0  0  0  0  0  0  0  0
  -30.6041  -24.7020   12.5161 C   0  0  0  0  0  0  0  0  0  0  0  0
  -29.6290  -23.0913   14.5659 C   0  0  0  0  0  0  0  0  0  0  0  0
  -26.0344  -22.2796   19.4573 C   0  0  0  0  0  0  0  0  0  0  0  0
  -22.3089   -8.7383   20.1439 C   0  0  0  0  0  0  0  0  0  0  0  0
  -23.0963   -8.6811   22.4273 C   0  0  0  0  0  0  0  0  0  0  0  0
  -25.9733  -21.2727   20.4196 C   0  0  0  0  0  0  0  0  0  0  0  0
  -19.8711   -7.8853   23.0480 C   0  0  0  0  0  0  0  0  0  0  0  0
  -19.1281   -7.8188   24.2266 C   0  0  0  0  0  0  0  0  0  0  0  0
  -27.3589  -22.5969   21.8845 C   0  0  0  0  0  0  0  0  0  0  0  0
  -30.9708  -18.0509   19.6939 C   0  0  0  0  0  0  0  0  0  0  0  0
  -20.3671   -5.8560   24.8970 C   0  0  0  0  0  0  0  0  0  0  0  0
  -30.0182  -19.9829   20.3494 C   0  0  0  0  0  0  0  0  0  0  0  0
  -23.8238  -10.4425   20.9424 C   0  0  0  0  0  0  0  0  0  0  0  0
  -24.1787  -12.9681   20.8842 C   0  0  0  0  0  0  0  0  0  0  0  0
  -30.9159  -25.0189   13.8477 C   0  0  0  0  0  0  0  0  0  0  0  0
  -26.7685  -23.4501   19.6974 C   0  0  0  0  0  0  0  0  0  0  0  0
  -30.4320  -24.1994   14.8853 C   0  0  0  0  0  0  0  0  0  0  0  0
  -27.4257  -23.6183   20.9245 C   0  0  0  0  0  0  0  0  0  0  0  0
  -30.5684  -19.3392   19.2631 C   0  0  0  0  0  0  0  0  0  0  0  0
  -22.3289   -8.1320   21.4000 C   0  0  0  0  0  0  0  0  0  0  0  0
  -26.6380  -21.4300   21.6323 C   0  0  0  0  0  0  0  0  0  0  0  0
  -20.8621   -6.9371   22.7939 C   0  0  0  0  0  0  0  0  0  0  0  0
  -19.3761   -6.8042   25.1511 C   0  0  0  0  0  0  0  0  0  0  0  0
  -21.1101   -5.9225   23.7184 C   0  0  0  0  0  0  0  0  0  0  0  0
  -24.5966  -11.6355   20.7065 C   0  0  0  0  0  0  0  0  0  0  0  0
  -30.6541  -17.9466   21.0304 C   0  0  0  0  0  0  0  0  0  0  0  0
  -25.2707  -13.7209   20.5274 C   0  0  0  0  0  0  0  0  0  0  0  0
  -22.9163  -13.4796   21.3319 C   0  0  0  0  0  0  0  0  0  0  0  0
  -29.2852  -24.8377   18.3393 C   0  0  0  0  0  0  0  0  0  0  0  0
  -28.6103  -27.2215   20.4331 C   0  0  0  0  0  0  0  0  0  0  0  0
  -27.1697  -28.1693   23.3781 C   0  0  0  0  0  0  0  0  0  0  0  0
  -30.7621  -14.7049   20.6755 C   0  0  0  0  0  0  0  0  0  0  0  0
  -31.8202  -26.1945   14.1214 C   0  0  0  0  0  0  0  0  0  0  0  0
  -26.8025  -24.5383   18.6596 C   0  0  0  0  0  0  0  0  0  0  0  0
  -28.2106  -24.8645   21.2394 C   0  0  0  0  0  0  0  0  0  0  0  0
  -31.7928  -26.6584   15.5755 C   0  0  0  0  0  0  0  0  0  0  0  0
  -29.5822  -12.3899   18.2413 C   0  0  0  0  0  0  0  0  0  0  0  0
  -31.9070  -25.4650   16.5187 C   0  0  0  0  0  0  0  0  0  0  0  0
  -28.1484  -12.0927   18.6839 C   0  0  0  0  0  0  0  0  0  0  0  0
  -30.5149  -12.5742   19.4363 C   0  0  0  0  0  0  0  0  0  0  0  0
  -28.6342  -13.2790   20.8646 C   0  0  0  0  0  0  0  0  0  0  0  0
  -30.7257  -24.5041   16.3382 C   0  0  1  0  0  0  0  0  0  0  0  0
  -28.0036  -25.4673   18.8071 C   0  0  1  0  0  0  0  0  0  0  0  0
  -27.6450  -13.1406   19.6947 C   0  0  2  0  0  0  0  0  0  0  0  0
  -26.8140  -30.1773   24.8406 C   0  0  0  0  0  0  0  0  0  0  0  0
  -27.9735  -17.9334   15.8846 C   0  0  0  0  0  0  0  0  0  0  0  0
  -30.3978  -17.3746   16.1509 C   0  0  0  0  0  0  0  0  0  0  0  0
  -25.9521  -18.1504   22.2842 C   0  0  0  0  0  0  0  0  0  0  0  0
  -31.5090  -27.0495   21.3701 C   0  0  0  0  0  0  0  0  0  0  0  0
  -30.8548  -28.3504   23.4068 C   0  0  0  0  0  0  0  0  0  0  0  0
  -30.6218  -29.3769   21.1452 C   0  0  0  0  0  0  0  0  0  0  0  0
  -24.2267  -27.9653   23.1408 C   0  0  0  0  0  0  0  0  0  0  0  0
  -30.7120  -19.8909   17.9023 C   0  0  0  0  0  0  0  0  0  0  0  0
  -30.8551  -16.8219   21.9673 C   0  0  0  0  0  0  0  0  0  0  0  0
  -29.4841  -19.5962   17.0100 C   0  0  0  0  0  0  0  0  0  0  0  0
  -28.2338  -18.7851   23.1474 C   0  0  0  0  0  0  0  0  0  0  0  0
  -29.5732  -19.4518   22.8022 C   0  0  0  0  0  0  0  0  0  0  0  0
  -29.0216  -27.5499   21.8480 C   0  0  1  0  0  0  0  0  0  0  0  0
  -26.2425  -29.3214   23.7210 C   0  0  2  0  0  0  0  0  0  0  0  0
  -29.2058  -18.0995   16.7774 C   0  0  0  0  0  0  0  0  0  0  0  0
  -27.0852  -19.1655   22.2049 C   0  0  2  0  0  0  0  0  0  1  0  0
  -30.4887  -28.0572   21.9361 C   0  0  0  0  0  0  0  0  0  0  0  0
  -25.8558  -11.5438   20.2705 N   0  0  0  0  0  0  0  0  0  0  0  0
  -30.0752  -19.1268   21.4180 N   0  0  0  0  0  0  0  0  0  0  0  0
  -26.2385  -12.8283   20.1712 N   0  0  0  0  0  0  0  0  0  0  0  0
  -28.2191  -25.8972   20.1902 N   0  0  0  0  0  0  0  0  0  0  0  0
  -29.9810  -13.5821   20.3555 N   0  0  0  0  0  0  0  0  0  0  0  0
  -25.4878  -15.0526   20.4866 N   0  0  0  0  0  0  0  0  0  0  0  0
  -21.9033  -12.5674   21.6576 N   0  0  0  0  0  0  0  0  0  0  0  0
  -29.5459  -25.0245   16.9952 N   0  0  0  0  0  0  0  0  0  0  0  0
  -28.0312  -28.4952   22.3520 N   0  0  0  0  0  0  0  0  0  0  0  0
  -30.1784  -15.6146   21.5488 N   0  0  0  0  0  0  0  0  0  0  0  0
  -24.9137  -28.8051   24.1556 N   0  3  0  0  0  0  0  0  0  0  0  0
  -22.6878  -14.7096   21.4243 O   0  0  0  0  0  0  0  0  0  0  0  0
  -29.9863  -24.2288   19.1389 O   0  0  0  0  0  0  0  0  0  0  0  0
  -28.6285  -28.1091   19.5766 O   0  0  0  0  0  0  0  0  0  0  0  0
  -27.1358  -27.0898   23.9645 O   0  0  0  0  0  0  0  0  0  0  0  0
  -31.8935  -14.8860   20.2129 O   0  0  0  0  0  0  0  0  0  0  0  0
  -21.5995   -7.0049   21.6237 O   0  0  0  0  0  0  0  0  0  0  0  0
  -26.5805  -20.4484   22.5731 O   0  0  0  0  0  0  0  0  0  1  0  0
  -18.6636   -6.7414   26.2836 F   0  0  0  0  0  0  0  0  0  0  0  0
  -22.0617   -5.0094   23.4803 F   0  0  0  0  0  0  0  0  0  0  0  0
  1  2  1  0  0  0  0
  1  5  2  0  0  0  0
  2  6  2  0  0  0  0
  3  8  2  0  0  0  0
  3 17  1  0  0  0  0
  4  9  1  0  0  0  0
  4 17  2  0  0  0  0
  5 19  1  0  0  0  0
  6 21  1  0  0  0  0
  7 10  2  0  0  0  0
  7 20  1  0  0  0  0
  8 24  1  0  0  0  0
  9 24  2  0  0  0  0
 10 25  1  0  0  0  0
 11 12  2  0  0  0  0
 11 26  1  0  0  0  0
 12 27  1  0  0  0  0
 13 22  1  0  0  0  0
 13 25  2  0  0  0  0
 14 23  1  0  0  0  0
 14 30  2  0  0  0  0
 15 27  2  0  0  0  0
 15 28  1  0  0  0  0
 16 23  2  0  0  0  0
 16 68  1  0  0  0  0
 17 29  1  0  0  0  0
 18 29  1  0  0  0  0
 18 31  2  0  0  0  0
 18 32  1  0  0  0  0
 19 21  2  0  0  0  0
 19 37  1  0  0  0  0
 20 22  2  0  0  0  0
 20 38  1  0  0  0  0
 21 46  1  0  0  0  0
 22 39  1  0  0  0  0
 23 57  1  0  0  0  0
 24 83  1  0  0  0  0
 25 84  1  0  0  0  0
 26 28  2  0  0  0  0
 26 83  1  0  0  0  0
 27 85  1  0  0  0  0
 28 86  1  0  0  0  0
 29 67  2  0  0  0  0
 30 58  1  0  0  0  0
 30 68  1  0  0  0  0
 31 69  1  0  0  0  0
 31 72  1  0  0  0  0
 32 73  1  0  0  0  0
 32 78  2  0  0  0  0
 33 47  1  0  0  0  0
 33 74  1  0  0  0  0
 33 79  2  0  0  0  0
 34 62  1  0  0  0  0
 34 70  1  0  0  0  0
 34 80  2  0  0  0  0
 35 63  1  0  0  0  0
 35 75  1  0  0  0  0
 35 81  2  0  0  0  0
 36 71  1  0  0  0  0
 36 76  1  0  0  0  0
 36 82  2  0  0  0  0
 37 40  1  0  0  0  0
 38 47  1  0  0  0  0
 39 70  1  0  0  0  0
 40 42  1  0  0  0  0
 41 43  1  0  0  0  0
 41 44  1  0  0  0  0
 42 46  1  0  0  0  0
 43 48  1  0  0  0  0
 44 71  1  0  0  0  0
 45 48  1  0  0  0  0
 45 71  1  0  0  0  0
 46 74  1  0  0  0  0
 47 70  1  0  0  0  0
 48 69  1  0  0  0  0
 49 63  1  0  0  0  0
 50 64  1  0  0  0  0
 51 64  1  0  0  0  0
 52 65  1  0  0  0  0
 53 66  1  0  0  0  0
 54 66  1  0  0  0  0
 55 66  1  0  0  0  0
 56 77  1  0  0  0  0
 57 59  1  0  0  0  0
 58 76  1  0  0  0  0
 59 64  1  0  0  0  0
 60 61  1  0  0  0  0
 60 65  1  0  0  0  0
 61 68  1  0  0  0  0
 62 66  1  0  0  0  0
 62 75  1  0  0  0  0
 63 77  1  0  0  0  0
 65 84  1  0  0  0  0
 67 69  1  0  0  0  0
M  CHG  1  77   1
M  ISO  4  36 100  65 101  76 100  84 101
M  END
> <Batch ID>
0102

> <Smiles>
CNC(C)C(=O)NC(C(=O)N1Cc2cc([101O:1][101CH:1](C)CCn3cc(CCC(C)C)cc3C[100NH:0][100C:0](=O)N3CCCC(n4nc(-c5ccc(Oc6ccc(F)cc6F)cc5)c(C(N)=O)c4N)C3)ccc2CC1C(=O)NC1CCCc2ccccc21)C(C)(C)C

> <Shape>
0.278

> <Color>
0.204

> <Negative vol penalty>
0.000

$$$$

  -OEChem-04052319383D

 86 94  0     1  0  0  0  0  0999 V2000
  -21.0422  -20.4849   25.3274 C   0  0  0  0  0  0  0  0  0  0  0  0
  -22.2247  -20.8250   24.6783 C   0  0  0  0  0  0  0  0  0  0  0  0
  -24.3372  -14.0014   21.3496 C   0  0  0  0  0  0  0  0  0  0  0  0
  -26.0460  -13.8775   19.6462 C   0  0  0  0  0  0  0  0  0  0  0  0
  -19.9019  -21.2677   25.1518 C   0  0  0  0  0  0  0  0  0  0  0  0
  -22.2673  -21.9475   23.8521 C   0  0  0  0  0  0  0  0  0  0  0  0
  -27.0039  -25.7440   23.0410 C   0  0  0  0  0  0  0  0  0  0  0  0
  -23.8265  -12.7742   20.9267 C   0  0  0  0  0  0  0  0  0  0  0  0
  -25.5354  -12.6502   19.2233 C   0  0  0  0  0  0  0  0  0  0  0  0
  -27.9782  -25.8292   22.0475 C   0  0  0  0  0  0  0  0  0  0  0  0
  -24.5875   -9.5001   21.2929 C   0  0  0  0  0  0  0  0  0  0  0  0
  -24.2627   -8.5612   22.2718 C   0  0  0  0  0  0  0  0  0  0  0  0
  -26.6702  -27.5119   20.9175 C   0  0  0  0  0  0  0  0  0  0  0  0
  -31.3214  -24.4635   21.1280 C   0  0  0  0  0  0  0  0  0  0  0  0
  -21.9699   -8.5604   21.5102 C   0  0  0  0  0  0  0  0  0  0  0  0
  -25.4469  -14.5531   20.7093 C   0  0  0  0  0  0  0  0  0  0  0  0
  -26.9643  -16.0392   22.1222 C   0  0  0  0  0  0  0  0  0  0  0  0
  -19.9332  -22.4059   24.3307 C   0  0  0  0  0  0  0  0  0  0  0  0
  -25.8482  -26.5355   22.9744 C   0  0  0  0  0  0  0  0  0  0  0  0
  -21.1260  -22.7455   23.6642 C   0  0  0  0  0  0  0  0  0  0  0  0
  -25.6839  -27.4367   21.9128 C   0  0  0  0  0  0  0  0  0  0  0  0
  -31.5937  -23.1096   20.9661 C   0  0  0  0  0  0  0  0  0  0  0  0
  -30.9713  -22.3981   19.9464 C   0  0  0  0  0  0  0  0  0  0  0  0
  -24.4256  -12.0986   19.8635 C   0  0  0  0  0  0  0  0  0  0  0  0
  -27.8101  -26.7111   20.9840 C   0  0  0  0  0  0  0  0  0  0  0  0
  -23.6035   -9.9694   20.4226 C   0  0  0  0  0  0  0  0  0  0  0  0
  -22.9539   -8.0913   22.3805 C   0  0  0  0  0  0  0  0  0  0  0  0
  -22.2947   -9.4995   20.5313 C   0  0  0  0  0  0  0  0  0  0  0  0
  -25.9744  -15.8210   21.1453 C   0  0  0  0  0  0  0  0  0  0  0  0
  -30.4262  -25.0544   20.2509 C   0  0  0  0  0  0  0  0  0  0  0  0
  -30.0917  -23.0815   19.1223 C   0  0  0  0  0  0  0  0  0  0  0  0
  -27.1083  -17.4044   22.1661 C   0  0  0  0  0  0  0  0  0  0  0  0
  -27.6890  -15.0925   22.9187 C   0  0  0  0  0  0  0  0  0  0  0  0
  -22.7337  -25.9431   22.7458 C   0  0  0  0  0  0  0  0  0  0  0  0
  -22.4908  -29.1550   23.1294 C   0  0  0  0  0  0  0  0  0  0  0  0
  -23.9536  -32.2254   22.8466 C   0  0  0  0  0  0  0  0  0  0  0  0
  -27.0289  -22.0216   18.6748 C   0  0  0  0  0  0  0  0  0  0  0  0
  -18.6626  -23.1943   24.1341 C   0  0  0  0  0  0  0  0  0  0  0  0
  -24.8192  -26.4511   24.0682 C   0  0  0  0  0  0  0  0  0  0  0  0
  -24.4710  -28.3231   21.8056 C   0  0  0  0  0  0  0  0  0  0  0  0
  -18.8921  -24.5808   23.5380 C   0  0  0  0  0  0  0  0  0  0  0  0
  -24.3018  -21.2488   20.8294 C   0  0  0  0  0  0  0  0  0  0  0  0
  -19.8453  -24.5000   22.3499 C   0  0  0  0  0  0  0  0  0  0  0  0
  -24.5472  -19.7906   21.2213 C   0  0  0  0  0  0  0  0  0  0  0  0
  -24.7086  -21.5204   19.3828 C   0  0  0  0  0  0  0  0  0  0  0  0
  -26.3342  -19.6688   19.4351 C   0  0  0  0  0  0  0  0  0  0  0  0
  -21.2186  -23.9698   22.7795 C   0  0  1  0  0  0  0  0  0  0  0  0
  -23.4397  -26.9325   23.6291 C   0  0  1  0  0  0  0  0  0  0  0  0
  -25.9914  -19.3597   20.9025 C   0  0  2  0  0  0  0  0  0  0  0  0
  -32.8935  -19.2202   18.8923 C   0  0  0  0  0  0  0  0  0  0  0  0
  -32.0657  -22.4735   23.3590 C   0  0  0  0  0  0  0  0  0  0  0  0
  -33.9691  -23.0416   21.8069 C   0  0  0  0  0  0  0  0  0  0  0  0
  -31.0329  -27.3991   19.5599 C   0  0  0  0  0  0  0  0  0  0  0  0
  -23.4937  -34.6667   23.2014 C   0  0  0  0  0  0  0  0  0  0  0  0
  -20.8110  -29.2063   20.5827 C   0  0  0  0  0  0  0  0  0  0  0  0
  -21.1862  -31.6790   20.4682 C   0  0  0  0  0  0  0  0  0  0  0  0
  -19.9761  -30.6917   22.4133 C   0  0  0  0  0  0  0  0  0  0  0  0
  -26.1273  -32.4638   24.8408 C   0  0  0  0  0  0  0  0  0  0  0  0
  -31.2460  -20.9455   19.7472 C   0  0  0  0  0  0  0  0  0  0  0  0
  -29.3939  -22.3713   18.0086 C   0  0  0  0  0  0  0  0  0  0  0  0
  -32.5999  -20.7022   19.0636 C   0  0  0  0  0  0  0  0  0  0  0  0
  -32.5523  -22.4455   21.8983 C   0  0  0  0  0  0  0  0  0  0  0  0
  -30.1069  -26.5248   20.3958 C   0  0  1  0  0  0  0  0  0  1  0  0
  -22.4712  -30.3443   22.1998 C   0  0  1  0  0  0  0  0  0  0  0  0
  -24.0464  -33.3900   23.8158 C   0  0  2  0  0  0  0  0  0  0  0  0
  -21.1332  -30.4623   21.4167 C   0  0  0  0  0  0  0  0  0  0  0  0
  -25.5215  -16.9567   20.6076 N   0  0  0  0  0  0  0  0  0  0  0  0
  -29.8021  -24.3960   19.2487 N   0  0  0  0  0  0  0  0  0  0  0  0
  -26.2299  -17.9016   21.2489 N   0  0  0  0  0  0  0  0  0  0  0  0
  -23.4899  -28.1993   22.8964 N   0  0  0  0  0  0  0  0  0  0  0  0
  -26.0890  -21.0906   19.1467 N   0  0  0  0  0  0  0  0  0  0  0  0
  -27.8993  -18.2161   22.8996 N   0  0  0  0  0  0  0  0  0  0  0  0
  -27.4176  -13.7283   22.7467 N   0  0  0  0  0  0  0  0  0  0  0  0
  -21.9803  -25.0116   23.4344 N   0  0  0  0  0  0  0  0  0  0  0  0
  -22.7885  -31.5086   23.0196 N   0  0  0  0  0  0  0  0  0  0  0  0
  -28.3157  -21.5333   18.4839 N   0  0  0  0  0  0  0  0  0  0  0  0
  -25.4655  -33.6305   24.2022 N   0  3  0  0  0  0  0  0  0  0  0  0
  -28.5398  -15.4467   23.7696 O   0  0  0  0  0  0  0  0  0  0  0  0
  -22.8617  -26.0201   21.5295 O   0  0  0  0  0  0  0  0  0  0  0  0
  -21.6551  -29.0804   24.0336 O   0  0  0  0  0  0  0  0  0  0  0  0
  -24.8256  -31.9786   22.0163 O   0  0  0  0  0  0  0  0  0  0  0  0
  -26.7439  -23.2020   18.4459 O   0  0  0  0  0  0  0  0  0  0  0  0
  -23.9278  -10.9010   19.4508 O   0  0  0  0  0  0  0  0  0  0  0  0
  -28.7593  -26.7958   20.0125 O   0  0  0  0  0  0  0  0  0  1  0  0
  -22.6424   -7.1884   23.3196 F   0  0  0  0  0  0  0  0  0  0  0  0
  -21.3454   -9.9456   19.6973 F   0  0  0  0  0  0  0  0  0  0  0  0
  1  2  1  0  0  0  0
  1  5  2  0  0  0  0
  2  6  2  0  0  0  0
  3  8  2  0  0  0  0
  3 16  1  0  0  0  0
  4  9  1  0  0  0  0
  4 16  2  0  0  0  0
  5 18  1  0  0  0  0
  6 20  1  0  0  0  0
  7 10  2  0  0  0  0
  7 19  1  0  0  0  0
  8 24  1  0  0  0  0
  9 24  2  0  0  0  0
 10 25  1  0  0  0  0
 11 12  2  0  0  0  0
 11 26  1  0  0  0  0
 12 27  1  0  0  0  0
 13 21  1  0  0  0  0
 13 25  2  0  0  0  0
 14 22  2  0  0  0  0
 14 30  1  0  0  0  0
 15 27  2  0  0  0  0
 15 28  1  0  0  0  0
 16 29  1  0  0  0  0
 17 29  1  0  0  0  0
 17 32  2  0  0  0  0
 17 33  1  0  0  0  0
 18 20  2  0  0  0  0
 18 38  1  0  0  0  0
 19 21  2  0  0  0  0
 19 39  1  0  0  0  0
 20 47  1  0  0  0  0
 21 40  1  0  0  0  0
 22 23  1  0  0  0  0
 22 62  1  0  0  0  0
 23 31  2  0  0  0  0
 23 59  1  0  0  0  0
 24 83  1  0  0  0  0
 25 84  1  0  0  0  0
 26 28  2  0  0  0  0
 26 83  1  0  0  0  0
 27 85  1  0  0  0  0
 28 86  1  0  0  0  0
 29 67  2  0  0  0  0
 30 63  1  0  0  0  0
 30 68  2  0  0  0  0
 31 60  1  0  0  0  0
 31 68  1  0  0  0  0
 32 69  1  0  0  0  0
 32 72  1  0  0  0  0
 33 73  1  0  0  0  0
 33 78  2  0  0  0  0
 34 48  1  0  0  0  0
 34 74  1  0  0  0  0
 34 79  2  0  0  0  0
 35 64  1  0  0  0  0
 35 70  1  0  0  0  0
 35 80  2  0  0  0  0
 36 65  1  0  0  0  0
 36 75  1  0  0  0  0
 36 81  2  0  0  0  0
 37 71  1  0  0  0  0
 37 76  1  0  0  0  0
 37 82  2  0  0  0  0
 38 41  1  0  0  0  0
 39 48  1  0  0  0  0
 40 70  1  0  0  0  0
 41 43  1  0  0  0  0
 42 44  1  0  0  0  0
 42 45  1  0  0  0  0
 43 47  1  0  0  0  0
 44 49  1  0  0  0  0
 45 71  1  0  0  0  0
 46 49  1  0  0  0  0
 46 71  1  0  0  0  0
 47 74  1  0  0  0  0
 48 70  1  0  0  0  0
 49 69  1  0  0  0  0
 50 61  1  0  0  0  0
 51 62  1  0  0  0  0
 52 62  1  0  0  0  0
 53 63  1  0  0  0  0
 54 65  1  0  0  0  0
 55 66  1  0  0  0  0
 56 66  1  0  0  0  0
 57 66  1  0  0  0  0
 58 77  1  0  0  0  0
 59 61  1  0  0  0  0
 60 76  1  0  0  0  0
 63 84  1  0  0  0  0
 64 66  1  0  0  0  0
 64 75  1  0  0  0  0
 65 77  1  0  0  0  0
 67 69  1  0  0  0  0
M  CHG  1  77   1
M  ISO  4  37 100  63 101  76 100  84 101
M  END
> <Batch ID>
0102

> <Smiles>
CCCc1c(C(C)C)cc([101CH:1](C)[101O:1]c2ccc3c(c2)CN(C(=O)C(NC(=O)C(C)NC)C(C)(C)C)C(C(=O)NC2CCCc4ccccc42)C3)nc1C[100NH:0][100C:0](=O)N1CCCC(n2nc(-c3ccc(Oc4ccc(F)cc4F)cc3)c(C(N)=O)c2N)C1

> <Shape>
0.213

> <Color>
0.066

> <Negative vol penalty>
0.000

$$$$

  -OEChem-04052319383D

 84 92  0     1  0  0  0  0  0999 V2000
  -29.3743  -34.2281   23.0474 C   0  0  0  0  0  0  0  0  0  0  0  0
  -29.7852  -33.1111   22.3270 C   0  0  0  0  0  0  0  0  0  0  0  0
  -22.9588  -10.3518   22.3559 C   0  0  0  0  0  0  0  0  0  0  0  0
  -22.4575  -10.2464   19.9948 C   0  0  0  0  0  0  0  0  0  0  0  0
  -28.4905  -34.0808   24.1157 C   0  0  0  0  0  0  0  0  0  0  0  0
  -29.3134  -31.8460   22.6752 C   0  0  0  0  0  0  0  0  0  0  0  0
  -28.0843  -27.2015   18.8773 C   0  0  0  0  0  0  0  0  0  0  0  0
  -22.5317   -9.0324   22.5055 C   0  0  0  0  0  0  0  0  0  0  0  0
  -22.0304   -8.9270   20.1444 C   0  0  0  0  0  0  0  0  0  0  0  0
  -28.8139  -26.0714   18.5107 C   0  0  0  0  0  0  0  0  0  0  0  0
  -23.7591   -5.9358   21.9247 C   0  0  0  0  0  0  0  0  0  0  0  0
  -24.5542   -5.0794   22.6862 C   0  0  0  0  0  0  0  0  0  0  0  0
  -27.6401  -24.7808   20.1768 C   0  0  0  0  0  0  0  0  0  0  0  0
  -22.7098   -4.7165   24.2040 C   0  0  0  0  0  0  0  0  0  0  0  0
  -22.9217  -10.9588   21.1005 C   0  0  0  0  0  0  0  0  0  0  0  0
  -24.6649  -12.7657   20.6488 C   0  0  0  0  0  0  0  0  0  0  0  0
  -28.0000  -32.8143   24.4710 C   0  0  0  0  0  0  0  0  0  0  0  0
  -27.1333  -27.1322   19.9055 C   0  0  0  0  0  0  0  0  0  0  0  0
  -28.4232  -31.6814   23.7500 C   0  0  0  0  0  0  0  0  0  0  0  0
  -26.8980  -25.9108   20.5528 C   0  0  0  0  0  0  0  0  0  0  0  0
  -27.9804  -21.1002   21.0484 C   0  0  0  0  0  0  0  0  0  0  0  0
  -28.4462  -21.7667   19.8883 C   0  0  0  0  0  0  0  0  0  0  0  0
  -22.0675   -8.3200   21.3998 C   0  0  0  0  0  0  0  0  0  0  0  0
  -28.5939  -24.8615   19.1624 C   0  0  0  0  0  0  0  0  0  0  0  0
  -22.4393   -6.1826   22.3029 C   0  0  0  0  0  0  0  0  0  0  0  0
  -24.0296   -4.4697   23.8258 C   0  0  0  0  0  0  0  0  0  0  0  0
  -21.9147   -5.5729   23.4425 C   0  0  0  0  0  0  0  0  0  0  0  0
  -23.3622  -12.3219   20.9454 C   0  0  0  0  0  0  0  0  0  0  0  0
  -26.9620  -20.2587   20.6584 C   0  0  0  0  0  0  0  0  0  0  0  0
  -27.6982  -21.3123   18.8246 C   0  0  0  0  0  0  0  0  0  0  0  0
  -24.5604  -14.1347   20.6090 C   0  0  0  0  0  0  0  0  0  0  0  0
  -25.8622  -12.0083   20.4289 C   0  0  0  0  0  0  0  0  0  0  0  0
  -26.7939  -28.5213   22.7443 C   0  0  0  0  0  0  0  0  0  0  0  0
  -23.9349  -26.9889   22.7175 C   0  0  0  0  0  0  0  0  0  0  0  0
  -22.0410  -24.4103   21.5300 C   0  0  0  0  0  0  0  0  0  0  0  0
  -21.8851  -18.7672   19.0193 C   0  0  0  0  0  0  0  0  0  0  0  0
  -27.0833  -32.6992   25.6631 C   0  0  0  0  0  0  0  0  0  0  0  0
  -26.3357  -28.3540   20.2709 C   0  0  0  0  0  0  0  0  0  0  0  0
  -25.8740  -25.7788   21.6493 C   0  0  0  0  0  0  0  0  0  0  0  0
  -26.3374  -31.3690   25.7316 C   0  0  0  0  0  0  0  0  0  0  0  0
  -20.7828  -17.1906   22.0152 C   0  0  0  0  0  0  0  0  0  0  0  0
  -27.2936  -30.2072   25.4811 C   0  0  0  0  0  0  0  0  0  0  0  0
  -21.4578  -15.8184   21.9762 C   0  0  0  0  0  0  0  0  0  0  0  0
  -20.3608  -17.6518   20.6220 C   0  0  0  0  0  0  0  0  0  0  0  0
  -22.1123  -16.2700   19.5748 C   0  0  0  0  0  0  0  0  0  0  0  0
  -27.9142  -30.2954   24.0816 C   0  0  1  0  0  0  0  0  0  0  0  0
  -25.7575  -28.2904   21.6812 C   0  0  1  0  0  0  0  0  0  0  0  0
  -22.6060  -15.7874   20.9495 C   0  0  2  0  0  0  0  0  0  0  0  0
  -28.4915  -21.2728   22.4239 C   0  0  0  0  0  0  0  0  0  0  0  0
  -26.1302  -19.3349   21.4588 C   0  0  0  0  0  0  0  0  0  0  0  0
  -27.7604  -21.6736   17.3921 C   0  0  0  0  0  0  0  0  0  0  0  0
  -30.9139  -22.1513   19.5630 C   0  0  0  0  0  0  0  0  0  0  0  0
  -19.7532  -23.3965   21.7189 C   0  0  0  0  0  0  0  0  0  0  0  0
  -24.6873  -25.8017   25.4257 C   0  0  0  0  0  0  0  0  0  0  0  0
  -22.8636  -24.1148   25.1146 C   0  0  0  0  0  0  0  0  0  0  0  0
  -22.3063  -26.5432   25.2369 C   0  0  0  0  0  0  0  0  0  0  0  0
  -21.4845  -24.8443   18.6558 C   0  0  0  0  0  0  0  0  0  0  0  0
  -24.5794  -20.5124   18.1596 C   0  0  0  0  0  0  0  0  0  0  0  0
  -25.8248  -19.6845   18.5041 C   0  0  0  0  0  0  0  0  0  0  0  0
  -23.4963  -19.7449   17.4045 C   0  0  0  0  0  0  0  0  0  0  0  0
  -29.5564  -22.7906   19.8265 C   0  0  1  0  0  0  0  0  0  1  0  0
  -23.4434  -25.6350   23.1694 C   0  0  1  0  0  0  0  0  0  0  0  0
  -20.6356  -24.3731   20.9572 C   0  0  2  0  0  0  0  0  0  0  0  0
  -23.3459  -25.5263   24.7174 C   0  0  0  0  0  0  0  0  0  0  0  0
  -22.4940  -13.3273   21.0843 N   0  0  0  0  0  0  0  0  0  0  0  0
  -26.7990  -20.3962   19.3046 N   0  0  0  0  0  0  0  0  0  0  0  0
  -23.2526  -14.4166   20.8742 N   0  0  0  0  0  0  0  0  0  0  0  0
  -25.1240  -27.0032   21.9748 N   0  0  0  0  0  0  0  0  0  0  0  0
  -21.4955  -17.6002   19.6969 N   0  0  0  0  0  0  0  0  0  0  0  0
  -25.4606  -15.1127   20.3734 N   0  0  0  0  0  0  0  0  0  0  0  0
  -25.7925  -10.6107   20.5068 N   0  0  0  0  0  0  0  0  0  0  0  0
  -26.9686  -29.8501   23.0805 N   0  0  0  0  0  0  0  0  0  0  0  0
  -22.1817  -25.4057   22.4737 N   0  0  0  0  0  0  0  0  0  0  0  0
  -22.9737  -18.6325   18.1663 N   0  0  0  0  0  0  0  0  0  0  0  0
  -20.6703  -23.9577   19.5264 N   0  3  0  0  0  0  0  0  0  0  0  0
  -26.9648  -12.5554   20.1870 O   0  0  0  0  0  0  0  0  0  0  0  0
  -27.3897  -27.5645   23.2252 O   0  0  0  0  0  0  0  0  0  0  0  0
  -23.2839  -27.9960   23.0065 O   0  0  0  0  0  0  0  0  0  0  0  0
  -22.9244  -23.6315   21.1784 O   0  0  0  0  0  0  0  0  0  0  0  0
  -21.3090  -19.8503   19.1677 O   0  0  0  0  0  0  0  0  0  0  0  0
  -21.6509   -7.0325   21.5454 O   0  0  0  0  0  0  0  0  0  0  0  0
  -29.3050  -23.7570   18.8071 O   0  0  0  0  0  0  0  0  0  1  0  0
  -24.7929   -3.6461   24.5561 F   0  0  0  0  0  0  0  0  0  0  0  0
  -20.6471   -5.8052   23.8101 F   0  0  0  0  0  0  0  0  0  0  0  0
  1  2  1  0  0  0  0
  1  5  2  0  0  0  0
  2  6  2  0  0  0  0
  3  8  2  0  0  0  0
  3 15  1  0  0  0  0
  4  9  1  0  0  0  0
  4 15  2  0  0  0  0
  5 17  1  0  0  0  0
  6 19  1  0  0  0  0
  7 10  2  0  0  0  0
  7 18  1  0  0  0  0
  8 23  1  0  0  0  0
  9 23  2  0  0  0  0
 10 24  1  0  0  0  0
 11 12  2  0  0  0  0
 11 25  1  0  0  0  0
 12 26  1  0  0  0  0
 13 20  1  0  0  0  0
 13 24  2  0  0  0  0
 14 26  2  0  0  0  0
 14 27  1  0  0  0  0
 15 28  1  0  0  0  0
 16 28  1  0  0  0  0
 16 31  2  0  0  0  0
 16 32  1  0  0  0  0
 17 19  2  0  0  0  0
 17 37  1  0  0  0  0
 18 20  2  0  0  0  0
 18 38  1  0  0  0  0
 19 46  1  0  0  0  0
 20 39  1  0  0  0  0
 21 22  1  0  0  0  0
 21 29  2  0  0  0  0
 21 49  1  0  0  0  0
 22 30  2  0  0  0  0
 22 61  1  0  0  0  0
 23 81  1  0  0  0  0
 24 82  1  0  0  0  0
 25 27  2  0  0  0  0
 25 81  1  0  0  0  0
 26 83  1  0  0  0  0
 27 84  1  0  0  0  0
 28 65  2  0  0  0  0
 29 50  1  0  0  0  0
 29 66  1  0  0  0  0
 30 51  1  0  0  0  0
 30 66  1  0  0  0  0
 31 67  1  0  0  0  0
 31 70  1  0  0  0  0
 32 71  1  0  0  0  0
 32 76  2  0  0  0  0
 33 47  1  0  0  0  0
 33 72  1  0  0  0  0
 33 77  2  0  0  0  0
 34 62  1  0  0  0  0
 34 68  1  0  0  0  0
 34 78  2  0  0  0  0
 35 63  1  0  0  0  0
 35 73  1  0  0  0  0
 35 79  2  0  0  0  0
 36 69  1  0  0  0  0
 36 74  1  0  0  0  0
 36 80  2  0  0  0  0
 37 40  1  0  0  0  0
 38 47  1  0  0  0  0
 39 68  1  0  0  0  0
 40 42  1  0  0  0  0
 41 43  1  0  0  0  0
 41 44  1  0  0  0  0
 42 46  1  0  0  0  0
 43 48  1  0  0  0  0
 44 69  1  0  0  0  0
 45 48  1  0  0  0  0
 45 69  1  0  0  0  0
 46 72  1  0  0  0  0
 47 68  1  0  0  0  0
 48 67  1  0  0  0  0
 52 61  1  0  0  0  0
 53 63  1  0  0  0  0
 54 64  1  0  0  0  0
 55 64  1  0  0  0  0
 56 64  1  0  0  0  0
 57 75  1  0  0  0  0
 58 59  1  0  0  0  0
 58 60  1  0  0  0  0
 59 66  1  0  0  0  0
 60 74  1  0  0  0  0
 61 82  1  0  0  0  0
 62 64  1  0  0  0  0
 62 73  1  0  0  0  0
 63 75  1  0  0  0  0
 65 67  1  0  0  0  0
M  CHG  1  75   1
M  ISO  4  36 100  61 101  74 100  82 101
M  END
> <Batch ID>
0102

> <Smiles>
CNC(C)C(=O)NC(C(=O)N1Cc2cc([101O:1][101CH:1](C)c3c(C)c(C)n(CCC[100NH:0][100C:0](=O)N4CCCC(n5nc(-c6ccc(Oc7ccc(F)cc7F)cc6)c(C(N)=O)c5N)C4)c3C)ccc2CC1C(=O)NC1CCCc2ccccc21)C(C)(C)C

> <Shape>
0.222

> <Color>
0.102

> <Negative vol penalty>
0.000

$$$$

  -OEChem-04052319383D

 88 96  0     1  0  0  0  0  0999 V2000
  -27.8935  -16.4609   14.3681 C   0  0  0  0  0  0  0  0  0  0  0  0
  -27.5128  -17.7334   14.7819 C   0  0  0  0  0  0  0  0  0  0  0  0
  -25.5349  -14.8636   18.7083 C   0  0  0  0  0  0  0  0  0  0  0  0
  -23.7196  -14.8701   20.3027 C   0  0  0  0  0  0  0  0  0  0  0  0
  -28.6734  -15.6618   15.2030 C   0  0  0  0  0  0  0  0  0  0  0  0
  -27.9111  -18.2072   16.0315 C   0  0  0  0  0  0  0  0  0  0  0  0
  -29.3244  -23.9823   17.4997 C   0  0  0  0  0  0  0  0  0  0  0  0
  -25.9445  -13.6164   19.1798 C   0  0  0  0  0  0  0  0  0  0  0  0
  -24.1293  -13.6229   20.7741 C   0  0  0  0  0  0  0  0  0  0  0  0
  -28.5947  -24.9996   18.1132 C   0  0  0  0  0  0  0  0  0  0  0  0
  -23.8703  -10.3922   19.8170 C   0  0  0  0  0  0  0  0  0  0  0  0
  -22.8872   -9.4248   20.0250 C   0  0  0  0  0  0  0  0  0  0  0  0
  -29.5735  -24.4119   20.2383 C   0  0  0  0  0  0  0  0  0  0  0  0
  -21.6223  -27.8768   23.3543 C   0  0  0  0  0  0  0  0  0  0  0  0
  -23.6406  -28.5620   22.2168 C   0  0  0  0  0  0  0  0  0  0  0  0
  -23.4953   -9.3088   22.3604 C   0  0  0  0  0  0  0  0  0  0  0  0
  -24.4224  -15.4905   19.2698 C   0  0  0  0  0  0  0  0  0  0  0  0
  -23.0862  -17.0373   17.7435 C   0  0  0  0  0  0  0  0  0  0  0  0
  -29.0895  -16.1298   16.4594 C   0  0  0  0  0  0  0  0  0  0  0  0
  -30.1773  -23.1638   18.2540 C   0  0  0  0  0  0  0  0  0  0  0  0
  -28.6962  -17.4131   16.8845 C   0  0  0  0  0  0  0  0  0  0  0  0
  -30.3148  -23.3866   19.6315 C   0  0  0  0  0  0  0  0  0  0  0  0
  -21.4045  -26.9021   22.3807 C   0  0  0  0  0  0  0  0  0  0  0  0
  -23.4228  -27.5873   21.2431 C   0  0  0  0  0  0  0  0  0  0  0  0
  -22.3047  -26.7573   21.3251 C   0  0  0  0  0  0  0  0  0  0  0  0
  -25.2418  -12.9960   20.2127 C   0  0  0  0  0  0  0  0  0  0  0  0
  -28.7169  -25.2127   19.4832 C   0  0  0  0  0  0  0  0  0  0  0  0
  -24.6660  -10.8179   20.8807 C   0  0  0  0  0  0  0  0  0  0  0  0
  -22.6997   -8.8831   21.2966 C   0  0  0  0  0  0  0  0  0  0  0  0
  -22.7404  -28.7068   23.2724 C   0  0  0  0  0  0  0  0  0  0  0  0
  -24.4785  -10.2762   22.1524 C   0  0  0  0  0  0  0  0  0  0  0  0
  -23.9991  -16.7791   18.7836 C   0  0  0  0  0  0  0  0  0  0  0  0
  -23.0266  -18.4076   17.6713 C   0  0  0  0  0  0  0  0  0  0  0  0
  -22.3573  -16.1205   16.9166 C   0  0  0  0  0  0  0  0  0  0  0  0
  -30.3068  -20.0550   18.9042 C   0  0  0  0  0  0  0  0  0  0  0  0
  -33.1063  -20.8664   20.3279 C   0  0  0  0  0  0  0  0  0  0  0  0
  -35.0150  -23.2832   21.7984 C   0  0  0  0  0  0  0  0  0  0  0  0
  -22.5535  -23.2833   20.1107 C   0  0  0  0  0  0  0  0  0  0  0  0
  -29.8922  -15.2115   17.3466 C   0  0  0  0  0  0  0  0  0  0  0  0
  -30.9779  -22.0880   17.5727 C   0  0  0  0  0  0  0  0  0  0  0  0
  -31.2324  -22.5486   20.4827 C   0  0  0  0  0  0  0  0  0  0  0  0
  -30.5861  -15.9319   18.4998 C   0  0  0  0  0  0  0  0  0  0  0  0
  -25.9077  -21.9500   19.8488 C   0  0  0  0  0  0  0  0  0  0  0  0
  -29.6194  -16.8884   19.1907 C   0  0  0  0  0  0  0  0  0  0  0  0
  -25.6281  -20.4973   19.4595 C   0  0  0  0  0  0  0  0  0  0  0  0
  -24.8733  -22.4642   20.8457 C   0  0  0  0  0  0  0  0  0  0  0  0
  -23.1791  -20.8878   19.9980 C   0  0  0  0  0  0  0  0  0  0  0  0
  -29.1291  -17.9719   18.2226 C   0  0  1  0  0  0  0  0  0  0  0  0
  -31.4258  -20.9831   18.5246 C   0  0  1  0  0  0  0  0  0  0  0  0
  -24.1774  -20.3164   18.9747 C   0  0  2  0  0  0  0  0  0  0  0  0
  -23.1630  -29.1213   18.6180 C   0  0  0  0  0  0  0  0  0  0  0  0
  -37.2433  -23.6364   22.8972 C   0  0  0  0  0  0  0  0  0  0  0  0
  -17.7429  -25.6382   21.9310 C   0  0  0  0  0  0  0  0  0  0  0  0
  -18.5826  -27.9620   22.3295 C   0  0  0  0  0  0  0  0  0  0  0  0
  -32.0781  -19.4905   22.8498 C   0  0  0  0  0  0  0  0  0  0  0  0
  -33.8673  -20.6737   24.1408 C   0  0  0  0  0  0  0  0  0  0  0  0
  -34.4889  -19.0651   22.3384 C   0  0  0  0  0  0  0  0  0  0  0  0
  -35.8390  -25.2603   19.7560 C   0  0  0  0  0  0  0  0  0  0  0  0
  -20.1991  -26.0272   22.4923 C   0  0  0  0  0  0  0  0  0  0  0  0
  -22.0708  -25.7112   20.2819 C   0  0  0  0  0  0  0  0  0  0  0  0
  -24.4979  -28.7318   19.2423 C   0  0  0  0  0  0  0  0  0  0  0  0
  -25.8286  -27.0709   20.6073 C   0  0  0  0  0  0  0  0  0  0  0  0
  -26.7443  -26.5409   19.5075 C   0  0  0  0  0  0  0  0  0  1  0  0
  -24.4191  -27.4499   20.1024 C   0  0  1  0  0  0  0  0  0  0  0  0
  -33.5121  -21.3114   21.7122 C   0  0  1  0  0  0  0  0  0  0  0  0
  -36.4639  -23.6866   21.5923 C   0  0  2  0  0  0  0  0  0  0  0  0
  -18.9409  -26.5791   21.7797 C   0  0  0  0  0  0  0  0  0  0  0  0
  -33.4677  -20.1499   22.7449 C   0  0  0  0  0  0  0  0  0  0  0  0
  -24.4846  -17.8957   19.3326 N   0  0  0  0  0  0  0  0  0  0  0  0
  -23.8746  -18.8689   18.6348 N   0  0  0  0  0  0  0  0  0  0  0  0
  -31.9891  -21.5052   19.7713 N   0  0  0  0  0  0  0  0  0  0  0  0
  -23.5148  -22.2798   20.3158 N   0  0  0  0  0  0  0  0  0  0  0  0
  -22.3321  -19.2509   16.8782 N   0  0  0  0  0  0  0  0  0  0  0  0
  -22.5360  -14.7460   17.1246 N   0  0  0  0  0  0  0  0  0  0  0  0
  -30.1453  -18.9865   18.0430 N   0  0  0  0  0  0  0  0  0  0  0  0
  -34.8227  -21.9367   21.5721 N   0  0  0  0  0  0  0  0  0  0  0  0
  -22.9484  -24.5733   20.4432 N   0  0  0  0  0  0  0  0  0  0  0  0
  -36.5436  -25.0726   21.0504 N   0  3  0  0  0  0  0  0  0  0  0  0
  -21.5832  -16.5085   16.0090 O   0  0  0  0  0  0  0  0  0  0  0  0
  -29.6401  -20.2901   19.9052 O   0  0  0  0  0  0  0  0  0  0  0  0
  -33.7608  -19.9895   19.7584 O   0  0  0  0  0  0  0  0  0  0  0  0
  -34.1420  -24.0819   22.1308 O   0  0  0  0  0  0  0  0  0  0  0  0
  -21.4275  -23.0479   19.6591 O   0  0  0  0  0  0  0  0  0  0  0  0
  -25.6411  -11.7789   20.6728 O   0  0  0  0  0  0  0  0  0  0  0  0
  -28.0053  -26.2045   20.0846 O   0  0  0  0  0  0  0  0  0  1  0  0
  -21.7545   -7.9553   21.4965 F   0  0  0  0  0  0  0  0  0  0  0  0
  -22.9493  -29.6430   24.2074 F   0  0  0  0  0  0  0  0  0  0  0  0
  -25.2390  -10.6821   23.1784 F   0  0  0  0  0  0  0  0  0  0  0  0
  1  2  1  0  0  0  0
  1  5  2  0  0  0  0
  2  6  2  0  0  0  0
  3  8  2  0  0  0  0
  3 17  1  0  0  0  0
  4  9  1  0  0  0  0
  4 17  2  0  0  0  0
  5 19  1  0  0  0  0
  6 21  1  0  0  0  0
  7 10  2  0  0  0  0
  7 20  1  0  0  0  0
  8 26  1  0  0  0  0
  9 26  2  0  0  0  0
 10 27  1  0  0  0  0
 11 12  2  0  0  0  0
 11 28  1  0  0  0  0
 12 29  1  0  0  0  0
 13 22  1  0  0  0  0
 13 27  2  0  0  0  0
 14 23  2  0  0  0  0
 14 30  1  0  0  0  0
 15 24  1  0  0  0  0
 15 30  2  0  0  0  0
 16 29  2  0  0  0  0
 16 31  1  0  0  0  0
 17 32  1  0  0  0  0
 18 32  1  0  0  0  0
 18 33  2  0  0  0  0
 18 34  1  0  0  0  0
 19 21  2  0  0  0  0
 19 39  1  0  0  0  0
 20 22  2  0  0  0  0
 20 40  1  0  0  0  0
 21 48  1  0  0  0  0
 22 41  1  0  0  0  0
 23 25  1  0  0  0  0
 23 59  1  0  0  0  0
 24 25  2  0  0  0  0
 24 64  1  0  0  0  0
 25 60  1  0  0  0  0
 26 84  1  0  0  0  0
 27 85  1  0  0  0  0
 28 31  2  0  0  0  0
 28 84  1  0  0  0  0
 29 86  1  0  0  0  0
 30 87  1  0  0  0  0
 31 88  1  0  0  0  0
 32 69  2  0  0  0  0
 33 70  1  0  0  0  0
 33 73  1  0  0  0  0
 34 74  1  0  0  0  0
 34 79  2  0  0  0  0
 35 49  1  0  0  0  0
 35 75  1  0  0  0  0
 35 80  2  0  0  0  0
 36 65  1  0  0  0  0
 36 71  1  0  0  0  0
 36 81  2  0  0  0  0
 37 66  1  0  0  0  0
 37 76  1  0  0  0  0
 37 82  2  0  0  0  0
 38 72  1  0  0  0  0
 38 77  1  0  0  0  0
 38 83  2  0  0  0  0
 39 42  1  0  0  0  0
 40 49  1  0  0  0  0
 41 71  1  0  0  0  0
 42 44  1  0  0  0  0
 43 45  1  0  0  0  0
 43 46  1  0  0  0  0
 44 48  1  0  0  0  0
 45 50  1  0  0  0  0
 46 72  1  0  0  0  0
 47 50  1  0  0  0  0
 47 72  1  0  0  0  0
 48 75  1  0  0  0  0
 49 71  1  0  0  0  0
 50 70  1  0  0  0  0
 51 61  1  0  0  0  0
 52 66  1  0  0  0  0
 53 67  1  0  0  0  0
 54 67  1  0  0  0  0
 55 68  1  0  0  0  0
 56 68  1  0  0  0  0
 57 68  1  0  0  0  0
 58 78  1  0  0  0  0
 59 67  1  0  0  0  0
 60 77  1  0  0  0  0
 61 64  1  0  0  0  0
 62 63  1  0  0  0  0
 62 64  1  0  0  0  0
 63 85  1  0  0  0  0
 65 68  1  0  0  0  0
 65 76  1  0  0  0  0
 66 78  1  0  0  0  0
 69 70  1  0  0  0  0
M  CHG  1  78   1
M  ISO  4  38 100  63 101  77 100  85 101
M  END
> <Batch ID>
0102

> <Smiles>
CCC(C[101CH2:1][101O:1]c1ccc2c(c1)CN(C(=O)C(NC(=O)C(C)NC)C(C)(C)C)C(C(=O)NC1CCCc3ccccc31)C2)c1cc(F)cc(CC(C)C)c1C[100NH:0][100C:0](=O)N1CCCC(n2nc(-c3ccc(Oc4ccc(F)cc4F)cc3)c(C(N)=O)c2N)C1

> <Shape>
0.191

> <Color>
0.057

> <Negative vol penalty>
0.000

$$$$

  -OEChem-04052319383D

 89 97  0     1  0  0  0  0  0999 V2000
  -32.2528  -14.1879   21.0474 C   0  0  0  0  0  0  0  0  0  0  0  0
  -31.4245  -15.2428   21.4135 C   0  0  0  0  0  0  0  0  0  0  0  0
  -29.3378  -25.8655   19.4333 C   0  0  0  0  0  0  0  0  0  0  0  0
  -27.5747  -24.2890   19.9267 C   0  0  0  0  0  0  0  0  0  0  0  0
  -31.7129  -13.0697   20.4156 C   0  0  0  0  0  0  0  0  0  0  0  0
  -30.0543  -15.1747   21.1587 C   0  0  0  0  0  0  0  0  0  0  0  0
  -25.6535  -19.2980   22.0294 C   0  0  0  0  0  0  0  0  0  0  0  0
  -30.2897  -24.9211   19.8174 C   0  0  0  0  0  0  0  0  0  0  0  0
  -28.5267  -23.3446   20.3108 C   0  0  0  0  0  0  0  0  0  0  0  0
  -25.0369  -20.3144   21.3010 C   0  0  0  0  0  0  0  0  0  0  0  0
  -30.5074  -20.3943   21.0792 C   0  0  0  0  0  0  0  0  0  0  0  0
  -30.3490  -19.0878   20.6173 C   0  0  0  0  0  0  0  0  0  0  0  0
  -23.2533  -18.8012   20.7109 C   0  0  0  0  0  0  0  0  0  0  0  0
  -30.4856  -19.8772   18.3379 C   0  0  0  0  0  0  0  0  0  0  0  0
  -20.4929  -24.9930   23.1279 C   0  0  0  0  0  0  0  0  0  0  0  0
  -22.5547  -24.1957   23.4859 C   0  0  0  0  0  0  0  0  0  0  0  0
  -27.9802  -25.5495   19.4880 C   0  0  0  0  0  0  0  0  0  0  0  0
  -26.4623  -26.7187   17.8039 C   0  0  0  0  0  0  0  0  0  0  0  0
  -30.3373  -12.9940   20.1420 C   0  0  0  0  0  0  0  0  0  0  0  0
  -25.0792  -18.0204   22.0951 C   0  0  0  0  0  0  0  0  0  0  0  0
  -29.4868  -14.0442   20.5435 C   0  0  0  0  0  0  0  0  0  0  0  0
  -23.8633  -17.7710   21.4429 C   0  0  0  0  0  0  0  0  0  0  0  0
  -21.1860  -25.9487   23.8375 C   0  0  0  0  0  0  0  0  0  0  0  0
  -22.4904  -25.4442   24.0641 C   0  0  0  0  0  0  0  0  0  0  0  0
  -29.8842  -23.6607   20.2562 C   0  0  0  0  0  0  0  0  0  0  0  0
  -23.8381  -20.0653   20.6393 C   0  0  0  0  0  0  0  0  0  0  0  0
  -30.6549  -21.4424   20.1706 C   0  0  0  0  0  0  0  0  0  0  0  0
  -30.3381  -18.8292   19.2466 C   0  0  0  0  0  0  0  0  0  0  0  0
  -30.6440  -21.1838   18.8000 C   0  0  0  0  0  0  0  0  0  0  0  0
  -26.9964  -26.5248   19.0919 C   0  0  0  0  0  0  0  0  0  0  0  0
  -25.5749  -27.7564   17.9529 C   0  0  0  0  0  0  0  0  0  0  0  0
  -26.7430  -26.0230   16.5821 C   0  0  0  0  0  0  0  0  0  0  0  0
  -25.9784  -15.1079   21.1937 C   0  0  0  0  0  0  0  0  0  0  0  0
  -23.2609  -14.2185   22.7256 C   0  0  0  0  0  0  0  0  0  0  0  0
  -20.1561  -15.0780   23.8517 C   0  0  0  0  0  0  0  0  0  0  0  0
  -22.4881  -29.8406   22.6410 C   0  0  0  0  0  0  0  0  0  0  0  0
  -29.8048  -11.7568   19.4630 C   0  0  0  0  0  0  0  0  0  0  0  0
  -25.7432  -16.9423   22.9070 C   0  0  0  0  0  0  0  0  0  0  0  0
  -23.1953  -16.4223   21.4990 C   0  0  0  0  0  0  0  0  0  0  0  0
  -28.4286  -11.9663   18.8399 C   0  0  0  0  0  0  0  0  0  0  0  0
  -24.7839  -31.6543   20.6122 C   0  0  0  0  0  0  0  0  0  0  0  0
  -27.4933  -12.6128   19.8507 C   0  0  0  0  0  0  0  0  0  0  0  0
  -25.5631  -30.5628   19.8763 C   0  0  0  0  0  0  0  0  0  0  0  0
  -24.4434  -31.2384   22.0416 C   0  0  0  0  0  0  0  0  0  0  0  0
  -24.5234  -28.8537   21.4244 C   0  0  0  0  0  0  0  0  0  0  0  0
  -27.9981  -14.0055   20.2490 C   0  0  1  0  0  0  0  0  0  0  0  0
  -25.3333  -15.5358   22.4815 C   0  0  1  0  0  0  0  0  0  0  0  0
  -24.8411  -29.2046   19.9608 C   0  0  2  0  0  0  0  0  0  0  0  0
  -23.2314  -23.8294   17.6734 C   0  0  0  0  0  0  0  0  0  0  0  0
  -18.1561  -14.1278   25.0325 C   0  0  0  0  0  0  0  0  0  0  0  0
  -22.4412  -12.7714   20.1675 C   0  0  0  0  0  0  0  0  0  0  0  0
  -20.1032  -12.6694   21.0572 C   0  0  0  0  0  0  0  0  0  0  0  0
  -21.9511  -11.5202   22.2767 C   0  0  0  0  0  0  0  0  0  0  0  0
  -25.6838  -26.4925   25.7222 C   0  0  0  0  0  0  0  0  0  0  0  0
  -24.7001  -24.1858   25.7184 C   0  0  0  0  0  0  0  0  0  0  0  0
  -25.4832  -25.2214   23.5731 C   0  0  0  0  0  0  0  0  0  0  0  0
  -20.4207  -16.9967   26.0895 C   0  0  0  0  0  0  0  0  0  0  0  0
  -20.6528  -27.2549   24.2746 C   0  0  0  0  0  0  0  0  0  0  0  0
  -22.0256  -23.3273   18.4555 C   0  0  0  0  0  0  0  0  0  0  0  0
  -20.9248  -22.8294   20.6547 C   0  0  0  0  0  0  0  0  0  0  0  0
  -20.9743  -22.6676   22.1806 C   0  0  0  0  0  0  0  0  0  0  0  0
  -20.5997  -28.3165   23.1614 C   0  0  0  0  0  0  0  0  0  0  0  0
  -23.4363  -22.3946   20.3767 C   0  0  0  0  0  0  0  0  0  1  0  0
  -21.8159  -14.0444   22.3249 C   0  0  1  0  0  0  0  0  0  0  0  0
  -19.4763  -14.8655   25.1923 C   0  0  2  0  0  0  0  0  0  0  0  0
  -22.2462  -23.2851   19.9859 C   0  0  1  0  0  0  0  0  0  0  0  0
  -21.5912  -12.7763   21.4537 C   0  0  0  0  0  0  0  0  0  0  0  0
  -24.8290  -25.4947   24.9323 C   0  0  0  0  0  0  0  0  0  0  0  0
  -26.4907  -27.3715   19.9927 N   0  0  0  0  0  0  0  0  0  0  0  0
  -21.3349  -23.9319   22.9195 N   0  0  0  0  0  0  0  0  0  0  0  0
  -25.6296  -28.1075   19.2696 N   0  0  0  0  0  0  0  0  0  0  0  0
  -23.8867  -15.3990   22.3005 N   0  0  0  0  0  0  0  0  0  0  0  0
  -23.7589  -29.9432   22.0516 N   0  0  0  0  0  0  0  0  0  0  0  0
  -24.7610  -28.3938   17.0846 N   0  0  0  0  0  0  0  0  0  0  0  0
  -27.6814  -24.9822   16.6063 N   0  0  0  0  0  0  0  0  0  0  0  0
  -23.4951  -26.0601   24.7224 N   0  0  0  0  0  0  0  0  0  0  0  0
  -27.2066  -14.4958   21.3558 N   0  0  0  0  0  0  0  0  0  0  0  0
  -21.0440  -14.0634   23.5627 N   0  0  0  0  0  0  0  0  0  0  0  0
  -21.9070  -28.5790   22.6020 N   0  0  0  0  0  0  0  0  0  0  0  0
  -19.2062  -16.1754   25.8496 N   0  3  0  0  0  0  0  0  0  0  0  0
  -26.1906  -26.3264   15.4975 O   0  0  0  0  0  0  0  0  0  0  0  0
  -25.4036  -15.3162   20.1316 O   0  0  0  0  0  0  0  0  0  0  0  0
  -23.8120  -13.3429   23.3973 O   0  0  0  0  0  0  0  0  0  0  0  0
  -19.9201  -16.0453   23.1311 O   0  0  0  0  0  0  0  0  0  0  0  0
  -21.9115  -30.8032   23.1586 O   0  0  0  0  0  0  0  0  0  0  0  0
  -30.8128  -22.7388   20.6309 O   0  0  0  0  0  0  0  0  0  0  0  0
  -23.2344  -21.0554   19.9271 O   0  0  0  0  0  0  0  0  0  1  0  0
  -30.1876  -17.5743   18.8031 F   0  0  0  0  0  0  0  0  0  0  0  0
  -30.7864  -22.1863   17.9222 F   0  0  0  0  0  0  0  0  0  0  0  0
  1  2  1  0  0  0  0
  1  5  2  0  0  0  0
  2  6  2  0  0  0  0
  3  8  2  0  0  0  0
  3 17  1  0  0  0  0
  4  9  1  0  0  0  0
  4 17  2  0  0  0  0
  5 19  1  0  0  0  0
  6 21  1  0  0  0  0
  7 10  2  0  0  0  0
  7 20  1  0  0  0  0
  8 25  1  0  0  0  0
  9 25  2  0  0  0  0
 10 26  1  0  0  0  0
 11 12  2  0  0  0  0
 11 27  1  0  0  0  0
 12 28  1  0  0  0  0
 13 22  1  0  0  0  0
 13 26  2  0  0  0  0
 14 28  2  0  0  0  0
 14 29  1  0  0  0  0
 15 23  2  0  0  0  0
 15 70  1  0  0  0  0
 16 24  2  0  0  0  0
 16 70  1  0  0  0  0
 17 30  1  0  0  0  0
 18 30  1  0  0  0  0
 18 31  2  0  0  0  0
 18 32  1  0  0  0  0
 19 21  2  0  0  0  0
 19 37  1  0  0  0  0
 20 22  2  0  0  0  0
 20 38  1  0  0  0  0
 21 46  1  0  0  0  0
 22 39  1  0  0  0  0
 23 24  1  0  0  0  0
 23 58  1  0  0  0  0
 24 76  1  0  0  0  0
 25 86  1  0  0  0  0
 26 87  1  0  0  0  0
 27 29  2  0  0  0  0
 27 86  1  0  0  0  0
 28 88  1  0  0  0  0
 29 89  1  0  0  0  0
 30 69  2  0  0  0  0
 31 71  1  0  0  0  0
 31 74  1  0  0  0  0
 32 75  1  0  0  0  0
 32 81  2  0  0  0  0
 33 47  1  0  0  0  0
 33 77  1  0  0  0  0
 33 82  2  0  0  0  0
 34 64  1  0  0  0  0
 34 72  1  0  0  0  0
 34 83  2  0  0  0  0
 35 65  1  0  0  0  0
 35 78  1  0  0  0  0
 35 84  2  0  0  0  0
 36 73  1  0  0  0  0
 36 79  1  0  0  0  0
 36 85  2  0  0  0  0
 37 40  1  0  0  0  0
 38 47  1  0  0  0  0
 39 72  1  0  0  0  0
 40 42  1  0  0  0  0
 41 43  1  0  0  0  0
 41 44  1  0  0  0  0
 42 46  1  0  0  0  0
 43 48  1  0  0  0  0
 44 73  1  0  0  0  0
 45 48  1  0  0  0  0
 45 73  1  0  0  0  0
 46 77  1  0  0  0  0
 47 72  1  0  0  0  0
 48 71  1  0  0  0  0
 49 59  1  0  0  0  0
 50 65  1  0  0  0  0
 51 67  1  0  0  0  0
 52 67  1  0  0  0  0
 53 67  1  0  0  0  0
 54 68  1  0  0  0  0
 55 68  1  0  0  0  0
 56 68  1  0  0  0  0
 57 80  1  0  0  0  0
 58 62  1  0  0  0  0
 59 66  1  0  0  0  0
 60 61  1  0  0  0  0
 60 66  1  0  0  0  0
 61 70  1  0  0  0  0
 62 79  1  0  0  0  0
 63 66  1  0  0  0  0
 63 87  1  0  0  0  0
 64 67  1  0  0  0  0
 64 78  1  0  0  0  0
 65 80  1  0  0  0  0
 68 76  1  0  0  0  0
 69 71  1  0  0  0  0
M  CHG  1  80   1
M  ISO  4  36 100  63 101  79 100  87 101
M  END
> <Batch ID>
0102

> <Smiles>
CCC(CCn1cc(CC[100NH:0][100C:0](=O)N2CCCC(n3nc(-c4ccc(Oc5ccc(F)cc5F)cc4)c(C(N)=O)c3N)C2)c(NC(C)(C)C)c1)[101CH2:1][101O:1]c1ccc2c(c1)CN(C(=O)C(NC(=O)C(C)NC)C(C)(C)C)C(C(=O)NC1CCCc3ccccc31)C2

> <Shape>
0.221

> <Color>
0.062

> <Negative vol penalty>
0.000

$$$$

  -OEChem-04052319383D

 88 96  0     1  0  0  0  0  0999 V2000
  -29.3605  -21.5250   19.2769 C   0  0  0  0  0  0  0  0  0  0  0  0
  -28.0762  -22.0457   19.3987 C   0  0  0  0  0  0  0  0  0  0  0  0
  -24.8068   -8.7110   21.0019 C   0  0  0  0  0  0  0  0  0  0  0  0
  -23.0404  -10.0577   20.0515 C   0  0  0  0  0  0  0  0  0  0  0  0
  -30.3953  -22.0349   20.0598 C   0  0  0  0  0  0  0  0  0  0  0  0
  -27.8258  -23.0760   20.3042 C   0  0  0  0  0  0  0  0  0  0  0  0
  -24.9572  -26.7492   18.3232 C   0  0  0  0  0  0  0  0  0  0  0  0
  -20.9590  -21.4608   21.4294 C   0  0  0  0  0  0  0  0  0  0  0  0
  -21.5894  -20.2304   21.6151 C   0  0  0  0  0  0  0  0  0  0  0  0
  -23.8728   -7.7393   21.3610 C   0  0  0  0  0  0  0  0  0  0  0  0
  -22.1063   -9.0859   20.4105 C   0  0  0  0  0  0  0  0  0  0  0  0
  -23.5873  -26.5073   18.2307 C   0  0  0  0  0  0  0  0  0  0  0  0
  -21.5860   -7.2655   23.8045 C   0  0  0  0  0  0  0  0  0  0  0  0
  -21.6766   -6.7229   25.0863 C   0  0  0  0  0  0  0  0  0  0  0  0
  -23.2282  -27.8119   20.2278 C   0  0  0  0  0  0  0  0  0  0  0  0
  -21.9960   -4.5257   24.1335 C   0  0  0  0  0  0  0  0  0  0  0  0
  -24.3906   -9.8703   20.3472 C   0  0  0  0  0  0  0  0  0  0  0  0
  -26.0707  -10.9607   18.7674 C   0  0  0  0  0  0  0  0  0  0  0  0
  -30.1595  -23.0786   20.9685 C   0  0  0  0  0  0  0  0  0  0  0  0
  -25.4750  -27.5165   19.3766 C   0  0  0  0  0  0  0  0  0  0  0  0
  -28.8582  -23.5996   21.1010 C   0  0  0  0  0  0  0  0  0  0  0  0
  -24.6048  -28.0642   20.3300 C   0  0  0  0  0  0  0  0  0  0  0  0
  -21.6119  -22.6401   21.7881 C   0  0  0  0  0  0  0  0  0  0  0  0
  -22.8725  -20.1794   22.1597 C   0  0  0  0  0  0  0  0  0  0  0  0
  -22.8950  -22.5890   22.3327 C   0  0  0  0  0  0  0  0  0  0  0  0
  -23.5254  -21.3587   22.5185 C   0  0  0  0  0  0  0  0  0  0  0  0
  -22.5226   -7.9267   21.0653 C   0  0  0  0  0  0  0  0  0  0  0  0
  -22.7229  -27.0362   19.1847 C   0  0  0  0  0  0  0  0  0  0  0  0
  -21.7003   -6.4382   22.6872 C   0  0  0  0  0  0  0  0  0  0  0  0
  -21.8816   -5.3530   25.2508 C   0  0  0  0  0  0  0  0  0  0  0  0
  -21.9053   -5.0684   22.8518 C   0  0  0  0  0  0  0  0  0  0  0  0
  -25.3548  -10.8747   19.9765 C   0  0  0  0  0  0  0  0  0  0  0  0
  -26.8494  -12.0833   18.9086 C   0  0  0  0  0  0  0  0  0  0  0  0
  -26.0349  -10.1026   17.6193 C   0  0  0  0  0  0  0  0  0  0  0  0
  -27.4965  -26.9691   21.7678 C   0  0  0  0  0  0  0  0  0  0  0  0
  -27.1510  -30.1547   22.2729 C   0  0  0  0  0  0  0  0  0  0  0  0
  -25.2453  -32.9594   21.8870 C   0  0  0  0  0  0  0  0  0  0  0  0
  -26.3033  -17.0329   22.2334 C   0  0  0  0  0  0  0  0  0  0  0  0
  -31.3000  -23.5651   21.8272 C   0  0  0  0  0  0  0  0  0  0  0  0
  -26.9522  -27.7905   19.4472 C   0  0  0  0  0  0  0  0  0  0  0  0
  -25.1081  -28.9115   21.4689 C   0  0  0  0  0  0  0  0  0  0  0  0
  -31.0294  -24.9116   22.4936 C   0  0  0  0  0  0  0  0  0  0  0  0
  -29.0244  -14.7367   22.2433 C   0  0  0  0  0  0  0  0  0  0  0  0
  -29.6383  -24.9275   23.1193 C   0  0  0  0  0  0  0  0  0  0  0  0
  -28.4571  -13.4943   21.5544 C   0  0  0  0  0  0  0  0  0  0  0  0
  -27.9756  -15.4296   23.1105 C   0  0  0  0  0  0  0  0  0  0  0  0
  -26.1510  -14.5198   21.7259 C   0  0  0  0  0  0  0  0  0  0  0  0
  -28.5521  -24.7343   22.0543 C   0  0  1  0  0  0  0  0  0  0  0  0
  -27.4256  -28.1570   20.8504 C   0  0  1  0  0  0  0  0  0  0  0  0
  -27.1559  -13.8186   20.7960 C   0  0  2  0  0  0  0  0  0  0  0  0
  -23.5933  -23.8554   22.7153 C   0  0  0  0  0  0  0  0  0  0  0  0
  -25.2084  -35.4072   22.4387 C   0  0  0  0  0  0  0  0  0  0  0  0
  -24.1090  -21.1818   25.5237 C   0  0  0  0  0  0  0  0  0  0  0  0
  -26.4649  -21.8506   25.0080 C   0  0  0  0  0  0  0  0  0  0  0  0
  -19.2789  -25.9957   19.9183 C   0  0  0  0  0  0  0  0  0  0  0  0
  -26.4180  -29.4906   25.1594 C   0  0  0  0  0  0  0  0  0  0  0  0
  -25.4904  -31.8053   25.3830 C   0  0  0  0  0  0  0  0  0  0  0  0
  -27.9143  -31.4768   24.8935 C   0  0  0  0  0  0  0  0  0  0  0  0
  -25.1892  -33.7215   19.0278 C   0  0  0  0  0  0  0  0  0  0  0  0
  -20.9080  -23.9567   21.5763 C   0  0  0  0  0  0  0  0  0  0  0  0
  -23.5242  -18.8486   22.3499 C   0  0  0  0  0  0  0  0  0  0  0  0
  -24.9010  -21.3018   23.1039 C   0  0  0  0  0  0  0  0  0  0  0  0
  -21.4221  -24.7456   20.3632 C   0  0  0  0  0  0  0  0  0  0  0  0
  -24.5608  -18.5154   21.2717 C   0  0  0  0  0  0  0  0  0  0  0  0
  -26.2105  -31.0127   23.0842 C   0  0  1  0  0  0  0  0  0  0  0  0
  -25.5953  -34.3571   21.4090 C   0  0  2  0  0  0  0  0  0  0  0  0
  -25.0139  -21.9055   24.5234 C   0  0  0  0  0  0  0  0  0  0  0  0
  -20.7718  -26.1241   20.1933 C   0  0  1  0  0  0  0  0  0  1  0  0
  -26.4987  -30.9288   24.6098 C   0  0  0  0  0  0  0  0  0  0  0  0
  -25.6524  -11.8637   20.8235 N   0  0  0  0  0  0  0  0  0  0  0  0
  -26.5640  -12.5818   20.1456 N   0  0  0  0  0  0  0  0  0  0  0  0
  -26.5613  -29.1458   21.4982 N   0  0  0  0  0  0  0  0  0  0  0  0
  -26.7674  -15.7107   22.3312 N   0  0  0  0  0  0  0  0  0  0  0  0
  -27.7437  -12.6826   18.0940 N   0  0  0  0  0  0  0  0  0  0  0  0
  -25.1787   -8.9933   17.6408 N   0  0  0  0  0  0  0  0  0  0  0  0
  -28.3356  -25.9649   21.3241 N   0  0  0  0  0  0  0  0  0  0  0  0
  -26.3066  -32.3593   22.5311 N   0  0  0  0  0  0  0  0  0  0  0  0
  -25.1558  -17.2127   21.4708 N   0  0  0  0  0  0  0  0  0  0  0  0
  -24.8833  -34.6625   20.1359 N   0  3  0  0  0  0  0  0  0  0  0  0
  -26.7534  -10.3042   16.6111 O   0  0  0  0  0  0  0  0  0  0  0  0
  -26.8397  -26.9646   22.8024 O   0  0  0  0  0  0  0  0  0  0  0  0
  -28.3636  -30.3762   22.3191 O   0  0  0  0  0  0  0  0  0  0  0  0
  -24.1398  -32.4522   21.7103 O   0  0  0  0  0  0  0  0  0  0  0  0
  -26.8727  -17.9835   22.7803 O   0  0  0  0  0  0  0  0  0  0  0  0
  -21.6109   -6.9786   21.4153 O   0  0  0  0  0  0  0  0  0  0  0  0
  -21.3854  -26.8011   19.0972 O   0  0  0  0  0  0  0  0  0  1  0  0
  -21.9701   -4.8323   26.4817 F   0  0  0  0  0  0  0  0  0  0  0  0
  -22.0171   -4.2688   21.7822 F   0  0  0  0  0  0  0  0  0  0  0  0
  1  2  1  0  0  0  0
  1  5  2  0  0  0  0
  2  6  2  0  0  0  0
  3 10  2  0  0  0  0
  3 17  1  0  0  0  0
  4 11  1  0  0  0  0
  4 17  2  0  0  0  0
  5 19  1  0  0  0  0
  6 21  1  0  0  0  0
  7 12  2  0  0  0  0
  7 20  1  0  0  0  0
  8  9  2  0  0  0  0
  8 23  1  0  0  0  0
  9 24  1  0  0  0  0
 10 27  1  0  0  0  0
 11 27  2  0  0  0  0
 12 28  1  0  0  0  0
 13 14  2  0  0  0  0
 13 29  1  0  0  0  0
 14 30  1  0  0  0  0
 15 22  1  0  0  0  0
 15 28  2  0  0  0  0
 16 30  2  0  0  0  0
 16 31  1  0  0  0  0
 17 32  1  0  0  0  0
 18 32  1  0  0  0  0
 18 33  2  0  0  0  0
 18 34  1  0  0  0  0
 19 21  2  0  0  0  0
 19 39  1  0  0  0  0
 20 22  2  0  0  0  0
 20 40  1  0  0  0  0
 21 48  1  0  0  0  0
 22 41  1  0  0  0  0
 23 25  2  0  0  0  0
 23 60  1  0  0  0  0
 24 26  2  0  0  0  0
 24 61  1  0  0  0  0
 25 26  1  0  0  0  0
 25 51  1  0  0  0  0
 26 62  1  0  0  0  0
 27 85  1  0  0  0  0
 28 86  1  0  0  0  0
 29 31  2  0  0  0  0
 29 85  1  0  0  0  0
 30 87  1  0  0  0  0
 31 88  1  0  0  0  0
 32 70  2  0  0  0  0
 33 71  1  0  0  0  0
 33 74  1  0  0  0  0
 34 75  1  0  0  0  0
 34 80  2  0  0  0  0
 35 49  1  0  0  0  0
 35 76  1  0  0  0  0
 35 81  2  0  0  0  0
 36 65  1  0  0  0  0
 36 72  1  0  0  0  0
 36 82  2  0  0  0  0
 37 66  1  0  0  0  0
 37 77  1  0  0  0  0
 37 83  2  0  0  0  0
 38 73  1  0  0  0  0
 38 78  1  0  0  0  0
 38 84  2  0  0  0  0
 39 42  1  0  0  0  0
 40 49  1  0  0  0  0
 41 72  1  0  0  0  0
 42 44  1  0  0  0  0
 43 45  1  0  0  0  0
 43 46  1  0  0  0  0
 44 48  1  0  0  0  0
 45 50  1  0  0  0  0
 46 73  1  0  0  0  0
 47 50  1  0  0  0  0
 47 73  1  0  0  0  0
 48 76  1  0  0  0  0
 49 72  1  0  0  0  0
 50 71  1  0  0  0  0
 52 66  1  0  0  0  0
 53 67  1  0  0  0  0
 54 67  1  0  0  0  0
 55 68  1  0  0  0  0
 56 69  1  0  0  0  0
 57 69  1  0  0  0  0
 58 69  1  0  0  0  0
 59 79  1  0  0  0  0
 60 63  1  0  0  0  0
 61 64  1  0  0  0  0
 62 67  1  0  0  0  0
 63 68  1  0  0  0  0
 64 78  1  0  0  0  0
 65 69  1  0  0  0  0
 65 77  1  0  0  0  0
 66 79  1  0  0  0  0
 68 86  1  0  0  0  0
 70 71  1  0  0  0  0
M  CHG  1  79   1
M  ISO  4  38 100  68 101  78 100  86 101
M  END
> <Batch ID>
0102

> <Smiles>
CNC(C)C(=O)NC(C(=O)N1Cc2cc([101O:1][101CH:1](C)CCc3ccc(CC[100NH:0][100C:0](=O)N4CCCC(n5nc(-c6ccc(Oc7ccc(F)cc7F)cc6)c(C(N)=O)c5N)C4)c(CC(C)C)c3C)ccc2CC1C(=O)NC1CCCc2ccccc21)C(C)(C)C

> <Shape>
0.253

> <Color>
0.093

> <Negative vol penalty>
0.000

$$$$

  -OEChem-04052319383D

 78 85  0     1  0  0  0  0  0999 V2000
  -27.8504  -20.8560   27.3054 C   0  0  0  0  0  0  0  0  0  0  0  0
  -27.9581  -21.4000   26.0295 C   0  0  0  0  0  0  0  0  0  0  0  0
  -24.2894  -14.2083   20.4719 C   0  0  0  0  0  0  0  0  0  0  0  0
  -26.2979  -14.1453   21.8132 C   0  0  0  0  0  0  0  0  0  0  0  0
  -26.6158  -20.8396   27.9530 C   0  0  0  0  0  0  0  0  0  0  0  0
  -26.8309  -21.9269   25.4000 C   0  0  0  0  0  0  0  0  0  0  0  0
  -27.7511  -26.3849   23.1808 C   0  0  0  0  0  0  0  0  0  0  0  0
  -24.3691  -12.8279   20.2877 C   0  0  0  0  0  0  0  0  0  0  0  0
  -26.3775  -12.7649   21.6291 C   0  0  0  0  0  0  0  0  0  0  0  0
  -28.4155  -26.3610   21.9553 C   0  0  0  0  0  0  0  0  0  0  0  0
  -23.8421   -9.2695   19.7637 C   0  0  0  0  0  0  0  0  0  0  0  0
  -22.6701   -8.5271   19.9089 C   0  0  0  0  0  0  0  0  0  0  0  0
  -26.3091  -26.6465   20.8147 C   0  0  0  0  0  0  0  0  0  0  0  0
  -22.4695   -9.2903   22.1924 C   0  0  0  0  0  0  0  0  0  0  0  0
  -25.2538  -14.8670   21.2346 C   0  0  0  0  0  0  0  0  0  0  0  0
  -24.5038  -16.9759   22.4584 C   0  0  0  0  0  0  0  0  0  0  0  0
  -25.4748  -21.3754   27.3350 C   0  0  0  0  0  0  0  0  0  0  0  0
  -26.3572  -26.5291   23.2321 C   0  0  0  0  0  0  0  0  0  0  0  0
  -25.5796  -21.9165   26.0394 C   0  0  0  0  0  0  0  0  0  0  0  0
  -25.6297  -26.6745   22.0423 C   0  0  0  0  0  0  0  0  0  0  0  0
  -25.4131  -12.1062   20.8663 C   0  0  0  0  0  0  0  0  0  0  0  0
  -27.6942  -26.4889   20.7719 C   0  0  0  0  0  0  0  0  0  0  0  0
  -24.3278  -10.0222   20.8330 C   0  0  0  0  0  0  0  0  0  0  0  0
  -21.9838   -8.5375   21.1232 C   0  0  0  0  0  0  0  0  0  0  0  0
  -23.6415  -10.0326   22.0473 C   0  0  0  0  0  0  0  0  0  0  0  0
  -25.1724  -16.2929   21.4248 C   0  0  0  0  0  0  0  0  0  0  0  0
  -24.7251  -18.3048   22.1910 C   0  0  0  0  0  0  0  0  0  0  0  0
  -23.7502  -16.4556   23.5616 C   0  0  0  0  0  0  0  0  0  0  0  0
  -23.9548  -24.7407   24.2968 C   0  0  0  0  0  0  0  0  0  0  0  0
  -22.1927  -27.3657   23.5711 C   0  0  0  0  0  0  0  0  0  0  0  0
  -21.8769  -30.2272   21.7384 C   0  0  0  0  0  0  0  0  0  0  0  0
  -29.0727  -21.0655   19.3045 C   0  0  0  0  0  0  0  0  0  0  0  0
  -24.1525  -21.2924   28.0555 C   0  0  0  0  0  0  0  0  0  0  0  0
  -25.6585  -26.5798   24.5631 C   0  0  0  0  0  0  0  0  0  0  0  0
  -24.1341  -26.8522   22.0438 C   0  0  0  0  0  0  0  0  0  0  0  0
  -23.0816  -22.2097   27.4707 C   0  0  0  0  0  0  0  0  0  0  0  0
  -25.5406  -21.3078   18.5544 C   0  0  0  0  0  0  0  0  0  0  0  0
  -23.0483  -22.0900   25.9504 C   0  0  0  0  0  0  0  0  0  0  0  0
  -24.9850  -20.1014   19.3135 C   0  0  0  0  0  0  0  0  0  0  0  0
  -26.9005  -20.9943   17.9375 C   0  0  0  0  0  0  0  0  0  0  0  0
  -27.3678  -19.3040   19.6690 C   0  0  0  0  0  0  0  0  0  0  0  0
  -24.3848  -22.5201   25.3337 C   0  0  1  0  0  0  0  0  0  0  0  0
  -24.1796  -26.2155   24.4759 C   0  0  1  0  0  0  0  0  0  0  0  0
  -26.0046  -19.5642   20.3353 C   0  0  2  0  0  0  0  0  0  0  0  0
  -20.3098  -32.1453   21.3351 C   0  0  0  0  0  0  0  0  0  0  0  0
  -29.8815  -26.3839   17.1082 C   0  0  0  0  0  0  0  0  0  0  0  0
  -20.3997  -25.5467   21.9020 C   0  0  0  0  0  0  0  0  0  0  0  0
  -19.4720  -27.5924   20.7961 C   0  0  0  0  0  0  0  0  0  0  0  0
  -19.1785  -27.2622   23.2512 C   0  0  0  0  0  0  0  0  0  0  0  0
  -32.2595  -24.7821   18.3136 C   0  0  0  0  0  0  0  0  0  0  0  0
  -31.0498  -23.6184   16.4704 C   0  0  0  0  0  0  0  0  0  0  0  0
  -23.8774  -32.2057   22.6562 C   0  0  0  0  0  0  0  0  0  0  0  0
  -30.6868  -22.8885   18.8266 C   0  0  0  0  0  0  0  0  0  0  0  0
  -29.5390  -25.6952   19.4982 C   0  0  0  0  0  0  0  0  0  1  0  0
  -21.4624  -27.8576   22.3449 C   0  0  1  0  0  0  0  0  0  0  0  0
  -21.4999  -31.6425   22.1374 C   0  0  2  0  0  0  0  0  0  0  0  0
  -29.7415  -25.1799   18.0584 C   0  0  2  0  0  0  0  0  0  0  0  0
  -20.1561  -27.0595   22.0731 C   0  0  0  0  0  0  0  0  0  0  0  0
  -30.9111  -24.1320   17.9206 C   0  0  0  0  0  0  0  0  0  0  0  0
  -25.7732  -17.1196   20.5648 N   0  0  0  0  0  0  0  0  0  0  0  0
  -25.4829  -18.3358   21.0575 N   0  0  0  0  0  0  0  0  0  0  0  0
  -23.4958  -26.8890   23.3700 N   0  0  0  0  0  0  0  0  0  0  0  0
  -27.8297  -20.5055   18.9659 N   0  0  0  0  0  0  0  0  0  0  0  0
  -24.3433  -19.4381   22.8172 N   0  0  0  0  0  0  0  0  0  0  0  0
  -23.6221  -15.0655   23.6868 N   0  0  0  0  0  0  0  0  0  0  0  0
  -24.4879  -23.9634   25.3073 N   0  0  0  0  0  0  0  0  0  0  0  0
  -21.2587  -29.2893   22.5380 N   0  0  0  0  0  0  0  0  0  0  0  0
  -29.4393  -22.1976   18.5871 N   0  0  0  0  0  0  0  0  0  0  0  0
  -22.6456  -32.5677   21.9087 N   0  3  0  0  0  0  0  0  0  0  0  0
  -23.1928  -17.2016   24.4019 O   0  0  0  0  0  0  0  0  0  0  0  0
  -23.3416  -24.3378   23.3153 O   0  0  0  0  0  0  0  0  0  0  0  0
  -21.6303  -27.4096   24.6682 O   0  0  0  0  0  0  0  0  0  0  0  0
  -22.6402  -29.9784   20.8078 O   0  0  0  0  0  0  0  0  0  0  0  0
  -29.8003  -20.5944   20.1853 O   0  0  0  0  0  0  0  0  0  0  0  0
  -25.4910  -10.7593   20.6870 O   0  0  0  0  0  0  0  0  0  0  0  0
  -28.3400  -26.4653   19.5744 O   0  0  0  0  0  0  0  0  0  1  0  0
  -20.8576   -7.8259   21.2620 F   0  0  0  0  0  0  0  0  0  0  0  0
  -24.1026  -10.7548   23.0776 F   0  0  0  0  0  0  0  0  0  0  0  0
  1  2  1  0  0  0  0
  1  5  2  0  0  0  0
  2  6  2  0  0  0  0
  3  8  2  0  0  0  0
  3 15  1  0  0  0  0
  4  9  1  0  0  0  0
  4 15  2  0  0  0  0
  5 17  1  0  0  0  0
  6 19  1  0  0  0  0
  7 10  2  0  0  0  0
  7 18  1  0  0  0  0
  8 21  1  0  0  0  0
  9 21  2  0  0  0  0
 10 22  1  0  0  0  0
 11 12  2  0  0  0  0
 11 23  1  0  0  0  0
 12 24  1  0  0  0  0
 13 20  1  0  0  0  0
 13 22  2  0  0  0  0
 14 24  2  0  0  0  0
 14 25  1  0  0  0  0
 15 26  1  0  0  0  0
 16 26  1  0  0  0  0
 16 27  2  0  0  0  0
 16 28  1  0  0  0  0
 17 19  2  0  0  0  0
 17 33  1  0  0  0  0
 18 20  2  0  0  0  0
 18 34  1  0  0  0  0
 19 42  1  0  0  0  0
 20 35  1  0  0  0  0
 21 75  1  0  0  0  0
 22 76  1  0  0  0  0
 23 25  2  0  0  0  0
 23 75  1  0  0  0  0
 24 77  1  0  0  0  0
 25 78  1  0  0  0  0
 26 60  2  0  0  0  0
 27 61  1  0  0  0  0
 27 64  1  0  0  0  0
 28 65  1  0  0  0  0
 28 70  2  0  0  0  0
 29 43  1  0  0  0  0
 29 66  1  0  0  0  0
 29 71  2  0  0  0  0
 30 55  1  0  0  0  0
 30 62  1  0  0  0  0
 30 72  2  0  0  0  0
 31 56  1  0  0  0  0
 31 67  1  0  0  0  0
 31 73  2  0  0  0  0
 32 63  1  0  0  0  0
 32 68  1  0  0  0  0
 32 74  2  0  0  0  0
 33 36  1  0  0  0  0
 34 43  1  0  0  0  0
 35 62  1  0  0  0  0
 36 38  1  0  0  0  0
 37 39  1  0  0  0  0
 37 40  1  0  0  0  0
 38 42  1  0  0  0  0
 39 44  1  0  0  0  0
 40 63  1  0  0  0  0
 41 44  1  0  0  0  0
 41 63  1  0  0  0  0
 42 66  1  0  0  0  0
 43 62  1  0  0  0  0
 44 61  1  0  0  0  0
 45 56  1  0  0  0  0
 46 57  1  0  0  0  0
 47 58  1  0  0  0  0
 48 58  1  0  0  0  0
 49 58  1  0  0  0  0
 50 59  1  0  0  0  0
 51 59  1  0  0  0  0
 52 69  1  0  0  0  0
 53 59  1  0  0  0  0
 53 68  1  0  0  0  0
 54 57  1  0  0  0  0
 54 76  1  0  0  0  0
 55 58  1  0  0  0  0
 55 67  1  0  0  0  0
 56 69  1  0  0  0  0
 57 59  1  0  0  0  0
 60 61  1  0  0  0  0
M  CHG  1  69   1
M  ISO  4  32 100  54 101  68 100  76 101
M  END
> <Batch ID>
0102

> <Smiles>
CNC(C)C(=O)NC(C(=O)N1Cc2cc([101O:1][101CH2:1]C(C)C(C)(C)C[100NH:0][100C:0](=O)N3CCCC(n4nc(-c5ccc(Oc6ccc(F)cc6F)cc5)c(C(N)=O)c4N)C3)ccc2CC1C(=O)NC1CCCc2ccccc21)C(C)(C)C

> <Shape>
0.195

> <Color>
0.083

> <Negative vol penalty>
0.000

$$$$

  -OEChem-04052319383D

 86 94  0     1  0  0  0  0  0999 V2000
  -18.4820  -25.0746   20.4027 C   0  0  0  0  0  0  0  0  0  0  0  0
  -19.7873  -25.2872   19.9711 C   0  0  0  0  0  0  0  0  0  0  0  0
  -23.9949  -13.3861   20.5778 C   0  0  0  0  0  0  0  0  0  0  0  0
  -26.3988  -13.3721   20.8192 C   0  0  0  0  0  0  0  0  0  0  0  0
  -17.9652  -25.8297   21.4547 C   0  0  0  0  0  0  0  0  0  0  0  0
  -20.5763  -26.2557   20.5906 C   0  0  0  0  0  0  0  0  0  0  0  0
  -25.2671  -24.6118   21.5595 C   0  0  0  0  0  0  0  0  0  0  0  0
  -30.8634  -23.6716   20.3303 C   0  0  0  0  0  0  0  0  0  0  0  0
  -30.9848  -22.3334   20.7043 C   0  0  0  0  0  0  0  0  0  0  0  0
  -24.0082  -12.0075   20.3657 C   0  0  0  0  0  0  0  0  0  0  0  0
  -26.4121  -11.9935   20.6072 C   0  0  0  0  0  0  0  0  0  0  0  0
  -26.1625  -24.5758   20.4915 C   0  0  0  0  0  0  0  0  0  0  0  0
  -23.3727   -8.4367   20.1193 C   0  0  0  0  0  0  0  0  0  0  0  0
  -22.4221   -7.6681   20.7910 C   0  0  0  0  0  0  0  0  0  0  0  0
  -27.1329  -26.6526   21.2430 C   0  0  0  0  0  0  0  0  0  0  0  0
  -30.1251  -22.9906   18.1330 C   0  0  0  0  0  0  0  0  0  0  0  0
  -23.3004   -8.4318   22.9081 C   0  0  0  0  0  0  0  0  0  0  0  0
  -25.1903  -14.0684   20.8045 C   0  0  0  0  0  0  0  0  0  0  0  0
  -25.0576  -16.1624   22.2553 C   0  0  0  0  0  0  0  0  0  0  0  0
  -18.7514  -26.8013   22.0938 C   0  0  0  0  0  0  0  0  0  0  0  0
  -25.2908  -25.6757   22.4726 C   0  0  0  0  0  0  0  0  0  0  0  0
  -20.0691  -27.0254   21.6513 C   0  0  0  0  0  0  0  0  0  0  0  0
  -26.2384  -26.6983   22.3232 C   0  0  0  0  0  0  0  0  0  0  0  0
  -30.4335  -24.0003   19.0447 C   0  0  0  0  0  0  0  0  0  0  0  0
  -30.6764  -21.3237   19.7927 C   0  0  0  0  0  0  0  0  0  0  0  0
  -30.2465  -21.6523   18.5070 C   0  0  0  0  0  0  0  0  0  0  0  0
  -25.2167  -11.3112   20.3805 C   0  0  0  0  0  0  0  0  0  0  0  0
  -27.0937  -25.5978   20.3314 C   0  0  0  0  0  0  0  0  0  0  0  0
  -24.2873   -9.2028   20.8421 C   0  0  0  0  0  0  0  0  0  0  0  0
  -22.3859   -7.6656   22.1853 C   0  0  0  0  0  0  0  0  0  0  0  0
  -24.2511   -9.2004   22.2365 C   0  0  0  0  0  0  0  0  0  0  0  0
  -25.1773  -15.4925   21.0230 C   0  0  0  0  0  0  0  0  0  0  0  0
  -25.0992  -17.4954   21.9270 C   0  0  0  0  0  0  0  0  0  0  0  0
  -24.9212  -15.6276   23.5786 C   0  0  0  0  0  0  0  0  0  0  0  0
  -23.2270  -27.9314   23.3425 C   0  0  0  0  0  0  0  0  0  0  0  0
  -25.5032  -28.6156   25.5500 C   0  0  0  0  0  0  0  0  0  0  0  0
  -28.7875  -28.4699   26.4658 C   0  0  0  0  0  0  0  0  0  0  0  0
  -27.4410  -20.4831   17.2966 C   0  0  0  0  0  0  0  0  0  0  0  0
  -18.1336  -27.6255   23.1954 C   0  0  0  0  0  0  0  0  0  0  0  0
  -24.3358  -25.6861   23.6346 C   0  0  0  0  0  0  0  0  0  0  0  0
  -26.3184  -27.8525   23.2875 C   0  0  0  0  0  0  0  0  0  0  0  0
  -19.1584  -28.3727   24.0450 C   0  0  0  0  0  0  0  0  0  0  0  0
  -24.0443  -20.5087   18.3635 C   0  0  0  0  0  0  0  0  0  0  0  0
  -20.1845  -29.0674   23.1555 C   0  0  0  0  0  0  0  0  0  0  0  0
  -23.9387  -19.2865   19.2773 C   0  0  0  0  0  0  0  0  0  0  0  0
  -24.9774  -20.2513   17.1823 C   0  0  0  0  0  0  0  0  0  0  0  0
  -26.2174  -18.5494   18.4629 C   0  0  0  0  0  0  0  0  0  0  0  0
  -20.9643  -28.0497   22.3143 C   0  0  1  0  0  0  0  0  0  0  0  0
  -24.1105  -27.0807   24.2105 C   0  0  1  0  0  0  0  0  0  0  0  0
  -25.3311  -18.7796   19.6989 C   0  0  2  0  0  0  0  0  0  0  0  0
  -33.9654  -26.5095   17.7637 C   0  0  0  0  0  0  0  0  0  0  0  0
  -29.8762  -19.5378   21.3814 C   0  0  0  0  0  0  0  0  0  0  0  0
  -32.2659  -19.5322   20.5787 C   0  0  0  0  0  0  0  0  0  0  0  0
  -30.3507  -29.1474   28.3084 C   0  0  0  0  0  0  0  0  0  0  0  0
  -25.4289  -31.4974   24.5501 C   0  0  0  0  0  0  0  0  0  0  0  0
  -27.6089  -31.8855   25.7186 C   0  0  0  0  0  0  0  0  0  0  0  0
  -25.5846  -31.2589   27.0347 C   0  0  0  0  0  0  0  0  0  0  0  0
  -29.5245  -25.6599   27.0312 C   0  0  0  0  0  0  0  0  0  0  0  0
  -29.9110  -20.5883   17.5140 C   0  0  0  0  0  0  0  0  0  0  0  0
  -32.6941  -25.6749   17.7328 C   0  0  0  0  0  0  0  0  0  0  0  0
  -31.6438  -26.2217   18.7058 C   0  0  0  0  0  0  0  0  0  0  0  0
  -29.2419  -26.1769   19.4913 C   0  0  0  0  0  0  0  0  0  1  0  0
  -30.3015  -25.4610   18.6365 C   0  0  2  0  0  0  0  0  0  0  0  0
  -30.8152  -19.8981   20.2156 C   0  0  0  0  0  0  0  0  0  0  0  0
  -26.7142  -29.5159   25.5932 C   0  0  1  0  0  0  0  0  0  0  0  0
  -29.4538  -28.0471   27.7627 C   0  0  2  0  0  0  0  0  0  0  0  0
  -26.3316  -31.0188   25.7047 C   0  0  0  0  0  0  0  0  0  0  0  0
  -25.2865  -16.3308   19.9889 N   0  0  0  0  0  0  0  0  0  0  0  0
  -25.2356  -17.5412   20.5707 N   0  0  0  0  0  0  0  0  0  0  0  0
  -25.3591  -27.8208   24.4039 N   0  0  0  0  0  0  0  0  0  0  0  0
  -26.2810  -19.7745   17.6504 N   0  0  0  0  0  0  0  0  0  0  0  0
  -25.0319  -18.6212   22.6690 N   0  0  0  0  0  0  0  0  0  0  0  0
  -24.8964  -14.2352   23.7372 N   0  0  0  0  0  0  0  0  0  0  0  0
  -21.9730  -27.3953   23.1197 N   0  0  0  0  0  0  0  0  0  0  0  0
  -27.5465  -29.0284   26.6877 N   0  0  0  0  0  0  0  0  0  0  0  0
  -28.6343  -19.9669   17.7870 N   0  0  0  0  0  0  0  0  0  0  0  0
  -30.2839  -26.8287   27.5453 N   0  3  0  0  0  0  0  0  0  0  0  0
  -24.8076  -16.3626   24.5887 O   0  0  0  0  0  0  0  0  0  0  0  0
  -23.6510  -28.9960   22.9083 O   0  0  0  0  0  0  0  0  0  0  0  0
  -24.7179  -28.6122   26.5013 O   0  0  0  0  0  0  0  0  0  0  0  0
  -29.3168  -28.3231   25.3663 O   0  0  0  0  0  0  0  0  0  0  0  0
  -27.4148  -21.5033   16.5999 O   0  0  0  0  0  0  0  0  0  0  0  0
  -25.2300   -9.9660   20.1739 O   0  0  0  0  0  0  0  0  0  0  0  0
  -27.9684  -25.5655   19.2894 O   0  0  0  0  0  0  0  0  0  1  0  0
  -21.4719   -6.9287   22.8301 F   0  0  0  0  0  0  0  0  0  0  0  0
  -25.1264   -9.9352   22.9363 F   0  0  0  0  0  0  0  0  0  0  0  0
  1  2  1  0  0  0  0
  1  5  2  0  0  0  0
  2  6  2  0  0  0  0
  3 10  2  0  0  0  0
  3 18  1  0  0  0  0
  4 11  1  0  0  0  0
  4 18  2  0  0  0  0
  5 20  1  0  0  0  0
  6 22  1  0  0  0  0
  7 12  2  0  0  0  0
  7 21  1  0  0  0  0
  8  9  2  0  0  0  0
  8 24  1  0  0  0  0
  9 25  1  0  0  0  0
 10 27  1  0  0  0  0
 11 27  2  0  0  0  0
 12 28  1  0  0  0  0
 13 14  2  0  0  0  0
 13 29  1  0  0  0  0
 14 30  1  0  0  0  0
 15 23  1  0  0  0  0
 15 28  2  0  0  0  0
 16 24  2  0  0  0  0
 16 26  1  0  0  0  0
 17 30  2  0  0  0  0
 17 31  1  0  0  0  0
 18 32  1  0  0  0  0
 19 32  1  0  0  0  0
 19 33  2  0  0  0  0
 19 34  1  0  0  0  0
 20 22  2  0  0  0  0
 20 39  1  0  0  0  0
 21 23  2  0  0  0  0
 21 40  1  0  0  0  0
 22 48  1  0  0  0  0
 23 41  1  0  0  0  0
 24 63  1  0  0  0  0
 25 26  2  0  0  0  0
 25 64  1  0  0  0  0
 26 59  1  0  0  0  0
 27 83  1  0  0  0  0
 28 84  1  0  0  0  0
 29 31  2  0  0  0  0
 29 83  1  0  0  0  0
 30 85  1  0  0  0  0
 31 86  1  0  0  0  0
 32 68  2  0  0  0  0
 33 69  1  0  0  0  0
 33 72  1  0  0  0  0
 34 73  1  0  0  0  0
 34 78  2  0  0  0  0
 35 49  1  0  0  0  0
 35 74  1  0  0  0  0
 35 79  2  0  0  0  0
 36 65  1  0  0  0  0
 36 70  1  0  0  0  0
 36 80  2  0  0  0  0
 37 66  1  0  0  0  0
 37 75  1  0  0  0  0
 37 81  2  0  0  0  0
 38 71  1  0  0  0  0
 38 76  1  0  0  0  0
 38 82  2  0  0  0  0
 39 42  1  0  0  0  0
 40 49  1  0  0  0  0
 41 70  1  0  0  0  0
 42 44  1  0  0  0  0
 43 45  1  0  0  0  0
 43 46  1  0  0  0  0
 44 48  1  0  0  0  0
 45 50  1  0  0  0  0
 46 71  1  0  0  0  0
 47 50  1  0  0  0  0
 47 71  1  0  0  0  0
 48 74  1  0  0  0  0
 49 70  1  0  0  0  0
 50 69  1  0  0  0  0
 51 60  1  0  0  0  0
 52 64  1  0  0  0  0
 53 64  1  0  0  0  0
 54 66  1  0  0  0  0
 55 67  1  0  0  0  0
 56 67  1  0  0  0  0
 57 67  1  0  0  0  0
 58 77  1  0  0  0  0
 59 76  1  0  0  0  0
 60 61  1  0  0  0  0
 61 63  1  0  0  0  0
 62 63  1  0  0  0  0
 62 84  1  0  0  0  0
 65 67  1  0  0  0  0
 65 75  1  0  0  0  0
 66 77  1  0  0  0  0
 68 69  1  0  0  0  0
M  CHG  1  77   1
M  ISO  4  38 100  62 101  76 100  84 101
M  END
> <Batch ID>
0102

> <Smiles>
CCCC(c1ccc(C(C)C)c(C[100NH:0][100C:0](=O)N2CCCC(n3nc(-c4ccc(Oc5ccc(F)cc5F)cc4)c(C(N)=O)c3N)C2)c1)[101CH2:1][101O:1]c1ccc2c(c1)CN(C(=O)C(NC(=O)C(C)NC)C(C)(C)C)C(C(=O)NC1CCCc3ccccc31)C2

> <Shape>
0.236

> <Color>
0.083

> <Negative vol penalty>
0.000

$$$$

  -OEChem-04052319383D

 83 91  0     1  0  0  0  0  0999 V2000
  -20.1552  -31.6190   18.0225 C   0  0  0  0  0  0  0  0  0  0  0  0
  -21.2371  -30.7492   18.1132 C   0  0  0  0  0  0  0  0  0  0  0  0
  -25.1073  -13.5005   21.8074 C   0  0  0  0  0  0  0  0  0  0  0  0
  -26.3541  -13.4319   19.7392 C   0  0  0  0  0  0  0  0  0  0  0  0
  -19.6141  -32.1796   19.1787 C   0  0  0  0  0  0  0  0  0  0  0  0
  -21.7793  -30.4403   19.3602 C   0  0  0  0  0  0  0  0  0  0  0  0
  -24.1845  -25.0852   21.1049 C   0  0  0  0  0  0  0  0  0  0  0  0
  -24.2580  -12.5030   21.3286 C   0  0  0  0  0  0  0  0  0  0  0  0
  -25.5049  -12.4344   19.2603 C   0  0  0  0  0  0  0  0  0  0  0  0
  -25.4998  -24.6305   21.1886 C   0  0  0  0  0  0  0  0  0  0  0  0
  -24.3235   -9.1429   20.9560 C   0  0  0  0  0  0  0  0  0  0  0  0
  -24.0060   -8.0931   21.8178 C   0  0  0  0  0  0  0  0  0  0  0  0
  -25.5433  -25.2060   23.5308 C   0  0  0  0  0  0  0  0  0  0  0  0
  -29.6790  -26.8383   21.5280 C   0  0  0  0  0  0  0  0  0  0  0  0
  -21.6649   -8.6671   21.6545 C   0  0  0  0  0  0  0  0  0  0  0  0
  -30.4253  -26.7195   19.2730 C   0  0  0  0  0  0  0  0  0  0  0  0
  -26.1553  -13.9650   21.0127 C   0  0  0  0  0  0  0  0  0  0  0  0
  -28.2263  -14.8207   22.2319 C   0  0  0  0  0  0  0  0  0  0  0  0
  -20.1438  -31.8700   20.4413 C   0  0  0  0  0  0  0  0  0  0  0  0
  -23.5413  -25.6147   22.2329 C   0  0  0  0  0  0  0  0  0  0  0  0
  -21.2457  -30.9984   20.5343 C   0  0  0  0  0  0  0  0  0  0  0  0
  -24.2190  -25.6644   23.4594 C   0  0  0  0  0  0  0  0  0  0  0  0
  -29.8962  -27.4715   20.3094 C   0  0  0  0  0  0  0  0  0  0  0  0
  -29.9931  -25.4914   21.6710 C   0  0  0  0  0  0  0  0  0  0  0  0
  -24.4568  -11.9699   20.0550 C   0  0  0  0  0  0  0  0  0  0  0  0
  -26.1804  -24.6936   22.4010 C   0  0  0  0  0  0  0  0  0  0  0  0
  -23.3117   -9.9549   20.4435 C   0  0  0  0  0  0  0  0  0  0  0  0
  -22.6767   -7.8552   22.1670 C   0  0  0  0  0  0  0  0  0  0  0  0
  -21.9824   -9.7170   20.7927 C   0  0  0  0  0  0  0  0  0  0  0  0
  -27.0325  -14.9958   21.5066 C   0  0  0  0  0  0  0  0  0  0  0  0
  -30.5177  -24.8279   20.5735 C   0  0  0  0  0  0  0  0  0  0  0  0
  -28.6790  -16.0969   22.4615 C   0  0  0  0  0  0  0  0  0  0  0  0
  -28.8687  -13.6123   22.6597 C   0  0  0  0  0  0  0  0  0  0  0  0
  -22.2977  -28.4414   22.9855 C   0  0  0  0  0  0  0  0  0  0  0  0
  -21.3223  -26.8668   25.6484 C   0  0  0  0  0  0  0  0  0  0  0  0
  -21.7807  -24.2620   27.8052 C   0  0  0  0  0  0  0  0  0  0  0  0
  -29.8038  -21.1409   20.6615 C   0  0  0  0  0  0  0  0  0  0  0  0
  -19.5554  -32.5376   21.6590 C   0  0  0  0  0  0  0  0  0  0  0  0
  -22.1133  -26.0762   22.1323 C   0  0  0  0  0  0  0  0  0  0  0  0
  -23.5665  -26.2051   24.7045 C   0  0  0  0  0  0  0  0  0  0  0  0
  -19.9499  -31.8663   22.9720 C   0  0  0  0  0  0  0  0  0  0  0  0
  -26.4117  -20.5683   21.7855 C   0  0  0  0  0  0  0  0  0  0  0  0
  -21.4483  -31.5816   22.9970 C   0  0  0  0  0  0  0  0  0  0  0  0
  -26.3737  -19.0415   21.8724 C   0  0  0  0  0  0  0  0  0  0  0  0
  -27.2394  -21.0337   20.5911 C   0  0  0  0  0  0  0  0  0  0  0  0
  -28.5958  -18.9769   20.6484 C   0  0  0  0  0  0  0  0  0  0  0  0
  -21.8459  -30.6196   21.8709 C   0  0  1  0  0  0  0  0  0  0  0  0
  -21.7287  -27.0712   23.2230 C   0  0  1  0  0  0  0  0  0  0  0  0
  -27.7928  -18.4434   21.8488 C   0  0  2  0  0  0  0  0  0  0  0  0
  -30.3961  -29.8297   21.0461 C   0  0  0  0  0  0  0  0  0  0  0  0
  -28.0678  -29.2068   20.3070 C   0  0  0  0  0  0  0  0  0  0  0  0
  -20.8495  -23.2587   29.9084 C   0  0  0  0  0  0  0  0  0  0  0  0
  -22.6606  -29.0654   27.2869 C   0  0  0  0  0  0  0  0  0  0  0  0
  -22.5371  -27.5576   29.2818 C   0  0  0  0  0  0  0  0  0  0  0  0
  -20.4410  -28.3164   28.1624 C   0  0  0  0  0  0  0  0  0  0  0  0
  -21.1103  -21.7252   26.4362 C   0  0  0  0  0  0  0  0  0  0  0  0
  -29.7615  -24.7982   22.9917 C   0  0  0  0  0  0  0  0  0  0  0  0
  -30.8730  -23.3800   20.6686 C   0  0  0  0  0  0  0  0  0  0  0  0
  -28.3084  -24.8854   23.4454 C   0  0  0  0  0  0  0  0  0  1  0  0
  -29.5700  -28.9107   20.1237 C   0  0  0  0  0  0  0  0  0  0  0  0
  -21.9112  -26.6098   27.0145 C   0  0  1  0  0  0  0  0  0  0  0  0
  -20.8071  -23.2537   28.3883 C   0  0  2  0  0  0  0  0  0  0  0  0
  -21.9007  -27.8788   27.9127 C   0  0  0  0  0  0  0  0  0  0  0  0
  -30.7428  -25.4093   19.3740 N   0  0  0  0  0  0  0  0  0  0  0  0
  -26.7448  -16.2820   21.2900 N   0  0  0  0  0  0  0  0  0  0  0  0
  -27.7643  -16.9266   21.8827 N   0  0  0  0  0  0  0  0  0  0  0  0
  -22.1712  -26.6500   24.5538 N   0  0  0  0  0  0  0  0  0  0  0  0
  -28.5846  -20.4435   20.6384 N   0  0  0  0  0  0  0  0  0  0  0  0
  -29.7662  -16.5791   23.1001 N   0  0  0  0  0  0  0  0  0  0  0  0
  -28.2684  -12.3870   22.3393 N   0  0  0  0  0  0  0  0  0  0  0  0
  -21.4910  -29.2603   22.2185 N   0  0  0  0  0  0  0  0  0  0  0  0
  -21.1760  -25.4786   27.5697 N   0  0  0  0  0  0  0  0  0  0  0  0
  -29.7058  -22.5268   20.6427 N   0  0  0  0  0  0  0  0  0  0  0  0
  -21.1375  -21.8802   27.9134 N   0  3  0  0  0  0  0  0  0  0  0  0
  -29.9345  -13.6195   23.3210 O   0  0  0  0  0  0  0  0  0  0  0  0
  -23.3871  -28.7346   23.4638 O   0  0  0  0  0  0  0  0  0  0  0  0
  -20.1499  -27.2390   25.5556 O   0  0  0  0  0  0  0  0  0  0  0  0
  -22.9606  -23.9980   27.5845 O   0  0  0  0  0  0  0  0  0  0  0  0
  -30.8993  -20.5706   20.7014 O   0  0  0  0  0  0  0  0  0  0  0  0
  -23.6285  -10.9963   19.5875 O   0  0  0  0  0  0  0  0  0  0  0  0
  -27.4645  -24.2510   22.4853 O   0  0  0  0  0  0  0  0  0  1  0  0
  -22.3718   -6.8460   22.9933 F   0  0  0  0  0  0  0  0  0  0  0  0
  -21.0059  -10.4929   20.3026 F   0  0  0  0  0  0  0  0  0  0  0  0
  1  2  1  0  0  0  0
  1  5  2  0  0  0  0
  2  6  2  0  0  0  0
  3  8  2  0  0  0  0
  3 17  1  0  0  0  0
  4  9  1  0  0  0  0
  4 17  2  0  0  0  0
  5 19  1  0  0  0  0
  6 21  1  0  0  0  0
  7 10  2  0  0  0  0
  7 20  1  0  0  0  0
  8 25  1  0  0  0  0
  9 25  2  0  0  0  0
 10 26  1  0  0  0  0
 11 12  2  0  0  0  0
 11 27  1  0  0  0  0
 12 28  1  0  0  0  0
 13 22  1  0  0  0  0
 13 26  2  0  0  0  0
 14 23  2  0  0  0  0
 14 24  1  0  0  0  0
 15 28  2  0  0  0  0
 15 29  1  0  0  0  0
 16 23  1  0  0  0  0
 16 64  2  0  0  0  0
 17 30  1  0  0  0  0
 18 30  1  0  0  0  0
 18 32  2  0  0  0  0
 18 33  1  0  0  0  0
 19 21  2  0  0  0  0
 19 38  1  0  0  0  0
 20 22  2  0  0  0  0
 20 39  1  0  0  0  0
 21 47  1  0  0  0  0
 22 40  1  0  0  0  0
 23 60  1  0  0  0  0
 24 31  2  0  0  0  0
 24 57  1  0  0  0  0
 25 80  1  0  0  0  0
 26 81  1  0  0  0  0
 27 29  2  0  0  0  0
 27 80  1  0  0  0  0
 28 82  1  0  0  0  0
 29 83  1  0  0  0  0
 30 65  2  0  0  0  0
 31 58  1  0  0  0  0
 31 64  1  0  0  0  0
 32 66  1  0  0  0  0
 32 69  1  0  0  0  0
 33 70  1  0  0  0  0
 33 75  2  0  0  0  0
 34 48  1  0  0  0  0
 34 71  1  0  0  0  0
 34 76  2  0  0  0  0
 35 61  1  0  0  0  0
 35 67  1  0  0  0  0
 35 77  2  0  0  0  0
 36 62  1  0  0  0  0
 36 72  1  0  0  0  0
 36 78  2  0  0  0  0
 37 68  1  0  0  0  0
 37 73  1  0  0  0  0
 37 79  2  0  0  0  0
 38 41  1  0  0  0  0
 39 48  1  0  0  0  0
 40 67  1  0  0  0  0
 41 43  1  0  0  0  0
 42 44  1  0  0  0  0
 42 45  1  0  0  0  0
 43 47  1  0  0  0  0
 44 49  1  0  0  0  0
 45 68  1  0  0  0  0
 46 49  1  0  0  0  0
 46 68  1  0  0  0  0
 47 71  1  0  0  0  0
 48 67  1  0  0  0  0
 49 66  1  0  0  0  0
 50 60  1  0  0  0  0
 51 60  1  0  0  0  0
 52 62  1  0  0  0  0
 53 63  1  0  0  0  0
 54 63  1  0  0  0  0
 55 63  1  0  0  0  0
 56 74  1  0  0  0  0
 57 59  1  0  0  0  0
 58 73  1  0  0  0  0
 59 81  1  0  0  0  0
 61 63  1  0  0  0  0
 61 72  1  0  0  0  0
 62 74  1  0  0  0  0
 65 66  1  0  0  0  0
M  CHG  1  74   1
M  ISO  4  37 100  59 101  73 100  81 101
M  END
> <Batch ID>
0102

> <Smiles>
CNC(C)C(=O)NC(C(=O)N1Cc2cc([101O:1][101CH2:1]Cc3cc(C(C)C)cnc3C[100NH:0][100C:0](=O)N3CCCC(n4nc(-c5ccc(Oc6ccc(F)cc6F)cc5)c(C(N)=O)c4N)C3)ccc2CC1C(=O)NC1CCCc2ccccc21)C(C)(C)C

> <Shape>
0.195

> <Color>
0.092

> <Negative vol penalty>
0.000

$$$$

  -OEChem-04052319383D

 84 92  0     1  0  0  0  0  0999 V2000
  -28.9043  -32.1100   21.2179 C   0  0  0  0  0  0  0  0  0  0  0  0
  -28.4037  -30.8624   20.8598 C   0  0  0  0  0  0  0  0  0  0  0  0
  -26.8492  -12.9790   20.6240 C   0  0  0  0  0  0  0  0  0  0  0  0
  -25.5697  -14.4418   19.1888 C   0  0  0  0  0  0  0  0  0  0  0  0
  -28.3276  -32.8143   22.2741 C   0  0  0  0  0  0  0  0  0  0  0  0
  -27.3268  -30.3178   21.5584 C   0  0  0  0  0  0  0  0  0  0  0  0
  -23.8372  -28.3064   18.4889 C   0  0  0  0  0  0  0  0  0  0  0  0
  -25.9472  -11.9448   20.3742 C   0  0  0  0  0  0  0  0  0  0  0  0
  -24.6676  -13.4077   18.9389 C   0  0  0  0  0  0  0  0  0  0  0  0
  -24.1122  -27.0510   17.9484 C   0  0  0  0  0  0  0  0  0  0  0  0
  -23.7805   -9.0244   20.3983 C   0  0  0  0  0  0  0  0  0  0  0  0
  -23.3442   -8.2659   21.4844 C   0  0  0  0  0  0  0  0  0  0  0  0
  -22.6990  -26.0303   19.6159 C   0  0  0  0  0  0  0  0  0  0  0  0
  -26.7878  -22.9699   16.9904 C   0  0  0  0  0  0  0  0  0  0  0  0
  -26.8597  -23.3546   19.3745 C   0  0  0  0  0  0  0  0  0  0  0  0
  -22.4325  -10.2556   22.5077 C   0  0  0  0  0  0  0  0  0  0  0  0
  -26.6604  -14.2275   20.0314 C   0  0  0  0  0  0  0  0  0  0  0  0
  -28.7573  -15.6025   19.5620 C   0  0  0  0  0  0  0  0  0  0  0  0
  -27.2369  -32.2823   22.9798 C   0  0  0  0  0  0  0  0  0  0  0  0
  -22.9983  -28.4324   19.6055 C   0  0  0  0  0  0  0  0  0  0  0  0
  -26.7359  -31.0150   22.6259 C   0  0  0  0  0  0  0  0  0  0  0  0
  -22.4129  -27.2887   20.1671 C   0  0  0  0  0  0  0  0  0  0  0  0
  -26.1631  -22.9457   18.2373 C   0  0  0  0  0  0  0  0  0  0  0  0
  -28.1093  -23.4028   16.8807 C   0  0  0  0  0  0  0  0  0  0  0  0
  -28.1812  -23.7875   19.2648 C   0  0  0  0  0  0  0  0  0  0  0  0
  -28.8059  -23.8116   18.0179 C   0  0  0  0  0  0  0  0  0  0  0  0
  -24.8564  -12.1591   19.5316 C   0  0  0  0  0  0  0  0  0  0  0  0
  -23.5454  -25.9125   18.5137 C   0  0  0  0  0  0  0  0  0  0  0  0
  -23.5430  -10.3986   20.3668 C   0  0  0  0  0  0  0  0  0  0  0  0
  -22.6701   -8.8814   22.5391 C   0  0  0  0  0  0  0  0  0  0  0  0
  -22.8689  -11.0141   21.4215 C   0  0  0  0  0  0  0  0  0  0  0  0
  -27.5916  -15.2964   20.2895 C   0  0  0  0  0  0  0  0  0  0  0  0
  -29.2855  -16.6958   20.2041 C   0  0  0  0  0  0  0  0  0  0  0  0
  -29.3129  -14.9565   18.4090 C   0  0  0  0  0  0  0  0  0  0  0  0
  -23.3613  -29.5108   22.5735 C   0  0  0  0  0  0  0  0  0  0  0  0
  -20.1591  -29.0166   22.7289 C   0  0  0  0  0  0  0  0  0  0  0  0
  -17.4219  -27.3618   21.5389 C   0  0  0  0  0  0  0  0  0  0  0  0
  -28.6678  -21.6839   22.6296 C   0  0  0  0  0  0  0  0  0  0  0  0
  -26.6771  -33.0597   24.1447 C   0  0  0  0  0  0  0  0  0  0  0  0
  -22.6903  -29.7962   20.1601 C   0  0  0  0  0  0  0  0  0  0  0  0
  -21.4894  -27.3719   21.3539 C   0  0  0  0  0  0  0  0  0  0  0  0
  -25.2993  -32.5785   24.5923 C   0  0  0  0  0  0  0  0  0  0  0  0
  -28.0856  -18.8052   24.6422 C   0  0  0  0  0  0  0  0  0  0  0  0
  -25.2748  -31.0572   24.7018 C   0  0  0  0  0  0  0  0  0  0  0  0
  -27.9952  -17.6627   23.6291 C   0  0  0  0  0  0  0  0  0  0  0  0
  -27.4672  -20.0915   24.0990 C   0  0  0  0  0  0  0  0  0  0  0  0
  -27.9023  -19.3848   21.7785 C   0  0  0  0  0  0  0  0  0  0  0  0
  -25.5531  -30.4018   23.3436 C   0  0  1  0  0  0  0  0  0  0  0  0
  -22.2316  -29.7601   21.6147 C   0  0  1  0  0  0  0  0  0  0  0  0
  -28.5629  -18.0815   22.2596 C   0  0  2  0  0  0  0  0  0  0  0  0
  -28.7550  -23.4201   15.5337 C   0  0  0  0  0  0  0  0  0  0  0  0
  -30.2226  -24.2762   17.8999 C   0  0  0  0  0  0  0  0  0  0  0  0
  -24.6253  -21.2197   19.2311 C   0  0  0  0  0  0  0  0  0  0  0  0
  -14.9470  -27.1407   21.8898 C   0  0  0  0  0  0  0  0  0  0  0  0
  -20.6657  -27.3376   25.2257 C   0  0  0  0  0  0  0  0  0  0  0  0
  -18.3613  -26.3921   24.9726 C   0  0  0  0  0  0  0  0  0  0  0  0
  -18.6685  -28.8365   25.3640 C   0  0  0  0  0  0  0  0  0  0  0  0
  -16.8321  -28.2904   18.7913 C   0  0  0  0  0  0  0  0  0  0  0  0
  -28.9052  -24.2203   20.4978 C   0  0  0  0  0  0  0  0  0  0  0  0
  -29.8721  -23.1634   21.0421 C   0  0  0  0  0  0  0  0  0  0  0  0
  -23.7979  -23.5774   18.8872 C   0  0  0  0  0  0  0  0  0  1  0  0
  -24.7227  -22.4732   18.3570 C   0  0  1  0  0  0  0  0  0  0  0  0
  -19.2739  -27.8558   23.1137 C   0  0  1  0  0  0  0  0  0  0  0  0
  -16.0482  -27.8560   21.1228 C   0  0  2  0  0  0  0  0  0  0  0  0
  -19.2613  -27.6034   24.6479 C   0  0  0  0  0  0  0  0  0  0  0  0
  -27.3907  -16.1279   21.3153 N   0  0  0  0  0  0  0  0  0  0  0  0
  -28.4373  -16.9672   21.2371 N   0  0  0  0  0  0  0  0  0  0  0  0
  -21.2241  -28.7272   21.8641 N   0  0  0  0  0  0  0  0  0  0  0  0
  -28.0499  -20.4339   22.7994 N   0  0  0  0  0  0  0  0  0  0  0  0
  -30.3881  -17.4418   19.9802 N   0  0  0  0  0  0  0  0  0  0  0  0
  -28.6424  -13.8467   17.8768 N   0  0  0  0  0  0  0  0  0  0  0  0
  -24.3726  -30.4501   22.5078 N   0  0  0  0  0  0  0  0  0  0  0  0
  -17.9609  -28.1372   22.5436 N   0  0  0  0  0  0  0  0  0  0  0  0
  -29.1998  -21.9256   21.3689 N   0  0  0  0  0  0  0  0  0  0  0  0
  -15.8334  -27.6240   19.6664 N   0  3  0  0  0  0  0  0  0  0  0  0
  -30.3814  -15.3416   17.8764 O   0  0  0  0  0  0  0  0  0  0  0  0
  -23.3178  -28.5391   23.3189 O   0  0  0  0  0  0  0  0  0  0  0  0
  -19.9104  -30.1401   23.1733 O   0  0  0  0  0  0  0  0  0  0  0  0
  -17.9612  -26.3834   21.0266 O   0  0  0  0  0  0  0  0  0  0  0  0
  -28.7447  -22.5202   23.5360 O   0  0  0  0  0  0  0  0  0  0  0  0
  -23.9761  -11.1502   19.2874 O   0  0  0  0  0  0  0  0  0  0  0  0
  -23.8127  -24.6858   17.9886 O   0  0  0  0  0  0  0  0  0  1  0  0
  -22.2498   -8.1526   23.5814 F   0  0  0  0  0  0  0  0  0  0  0  0
  -22.6367  -12.3337   21.3964 F   0  0  0  0  0  0  0  0  0  0  0  0
  1  2  1  0  0  0  0
  1  5  2  0  0  0  0
  2  6  2  0  0  0  0
  3  8  2  0  0  0  0
  3 17  1  0  0  0  0
  4  9  1  0  0  0  0
  4 17  2  0  0  0  0
  5 19  1  0  0  0  0
  6 21  1  0  0  0  0
  7 10  2  0  0  0  0
  7 20  1  0  0  0  0
  8 27  1  0  0  0  0
  9 27  2  0  0  0  0
 10 28  1  0  0  0  0
 11 12  2  0  0  0  0
 11 29  1  0  0  0  0
 12 30  1  0  0  0  0
 13 22  1  0  0  0  0
 13 28  2  0  0  0  0
 14 23  1  0  0  0  0
 14 24  2  0  0  0  0
 15 23  2  0  0  0  0
 15 25  1  0  0  0  0
 16 30  2  0  0  0  0
 16 31  1  0  0  0  0
 17 32  1  0  0  0  0
 18 32  1  0  0  0  0
 18 33  2  0  0  0  0
 18 34  1  0  0  0  0
 19 21  2  0  0  0  0
 19 39  1  0  0  0  0
 20 22  2  0  0  0  0
 20 40  1  0  0  0  0
 21 48  1  0  0  0  0
 22 41  1  0  0  0  0
 23 62  1  0  0  0  0
 24 26  1  0  0  0  0
 24 51  1  0  0  0  0
 25 26  2  0  0  0  0
 25 59  1  0  0  0  0
 26 52  1  0  0  0  0
 27 81  1  0  0  0  0
 28 82  1  0  0  0  0
 29 31  2  0  0  0  0
 29 81  1  0  0  0  0
 30 83  1  0  0  0  0
 31 84  1  0  0  0  0
 32 66  2  0  0  0  0
 33 67  1  0  0  0  0
 33 70  1  0  0  0  0
 34 71  1  0  0  0  0
 34 76  2  0  0  0  0
 35 49  1  0  0  0  0
 35 72  1  0  0  0  0
 35 77  2  0  0  0  0
 36 63  1  0  0  0  0
 36 68  1  0  0  0  0
 36 78  2  0  0  0  0
 37 64  1  0  0  0  0
 37 73  1  0  0  0  0
 37 79  2  0  0  0  0
 38 69  1  0  0  0  0
 38 74  1  0  0  0  0
 38 80  2  0  0  0  0
 39 42  1  0  0  0  0
 40 49  1  0  0  0  0
 41 68  1  0  0  0  0
 42 44  1  0  0  0  0
 43 45  1  0  0  0  0
 43 46  1  0  0  0  0
 44 48  1  0  0  0  0
 45 50  1  0  0  0  0
 46 69  1  0  0  0  0
 47 50  1  0  0  0  0
 47 69  1  0  0  0  0
 48 72  1  0  0  0  0
 49 68  1  0  0  0  0
 50 67  1  0  0  0  0
 53 62  1  0  0  0  0
 54 64  1  0  0  0  0
 55 65  1  0  0  0  0
 56 65  1  0  0  0  0
 57 65  1  0  0  0  0
 58 75  1  0  0  0  0
 59 60  1  0  0  0  0
 60 74  1  0  0  0  0
 61 62  1  0  0  0  0
 61 82  1  0  0  0  0
 63 65  1  0  0  0  0
 63 73  1  0  0  0  0
 64 75  1  0  0  0  0
 66 67  1  0  0  0  0
M  CHG  1  75   1
M  ISO  4  38 100  61 101  74 100  82 101
M  END
> <Batch ID>
0102

> <Smiles>
CNC(C)C(=O)NC(C(=O)N1Cc2cc([101O:1][101CH2:1]C(C)c3cc(C)c(C)c(CC[100NH:0][100C:0](=O)N4CCCC(n5nc(-c6ccc(Oc7ccc(F)cc7F)cc6)c(C(N)=O)c5N)C4)c3)ccc2CC1C(=O)NC1CCCc2ccccc21)C(C)(C)C

> <Shape>
0.267

> <Color>
0.056

> <Negative vol penalty>
0.000

$$$$

  -OEChem-04052319383D

 86 94  0     1  0  0  0  0  0999 V2000
  -15.5436  -23.6425   24.4914 C   0  0  0  0  0  0  0  0  0  0  0  0
  -16.5402  -23.1256   23.6698 C   0  0  0  0  0  0  0  0  0  0  0  0
  -30.2555  -22.5460   18.1851 C   0  0  0  0  0  0  0  0  0  0  0  0
  -28.0721  -21.7767   17.4936 C   0  0  0  0  0  0  0  0  0  0  0  0
  -15.4399  -25.0205   24.6770 C   0  0  0  0  0  0  0  0  0  0  0  0
  -17.4331  -23.9864   23.0325 C   0  0  0  0  0  0  0  0  0  0  0  0
  -22.2279  -22.3857   23.3373 C   0  0  0  0  0  0  0  0  0  0  0  0
  -30.4199  -23.1841   16.9558 C   0  0  0  0  0  0  0  0  0  0  0  0
  -28.2365  -22.4149   16.2643 C   0  0  0  0  0  0  0  0  0  0  0  0
  -22.6127  -21.3599   22.4752 C   0  0  0  0  0  0  0  0  0  0  0  0
  -31.2647  -25.3184   14.1368 C   0  0  0  0  0  0  0  0  0  0  0  0
  -31.7724  -26.6175   14.1434 C   0  0  0  0  0  0  0  0  0  0  0  0
  -23.6363  -22.9818   21.0120 C   0  0  0  0  0  0  0  0  0  0  0  0
  -24.0445  -13.5892   19.9818 C   0  0  0  0  0  0  0  0  0  0  0  0
  -29.8965  -27.3439   15.4815 C   0  0  0  0  0  0  0  0  0  0  0  0
  -25.4084  -11.9862   21.0894 C   0  0  0  0  0  0  0  0  0  0  0  0
  -29.0815  -21.8422   18.4540 C   0  0  0  0  0  0  0  0  0  0  0  0
  -28.3491  -21.7244   20.8948 C   0  0  0  0  0  0  0  0  0  0  0  0
  -16.3380  -25.8980   24.0493 C   0  0  0  0  0  0  0  0  0  0  0  0
  -22.5354  -23.7205   23.0373 C   0  0  0  0  0  0  0  0  0  0  0  0
  -17.3405  -25.3774   23.2088 C   0  0  0  0  0  0  0  0  0  0  0  0
  -23.2565  -24.0224   21.8733 C   0  0  0  0  0  0  0  0  0  0  0  0
  -24.1936  -12.3106   20.5073 C   0  0  0  0  0  0  0  0  0  0  0  0
  -25.0999  -14.4917   20.0535 C   0  0  0  0  0  0  0  0  0  0  0  0
  -29.4105  -23.1187   15.9954 C   0  0  0  0  0  0  0  0  0  0  0  0
  -23.3145  -21.6581   21.3108 C   0  0  0  0  0  0  0  0  0  0  0  0
  -30.0729  -25.0320   14.8025 C   0  0  0  0  0  0  0  0  0  0  0  0
  -31.0883  -27.6303   14.8157 C   0  0  0  0  0  0  0  0  0  0  0  0
  -29.3888  -26.0447   15.4749 C   0  0  0  0  0  0  0  0  0  0  0  0
  -28.9113  -21.1822   19.7235 C   0  0  0  0  0  0  0  0  0  0  0  0
  -26.2740  -14.0697   20.6562 C   0  0  0  0  0  0  0  0  0  0  0  0
  -28.4170  -20.7044   21.8121 C   0  0  0  0  0  0  0  0  0  0  0  0
  -27.8134  -23.0329   21.1323 C   0  0  0  0  0  0  0  0  0  0  0  0
  -20.8301  -26.3426   22.4713 C   0  0  0  0  0  0  0  0  0  0  0  0
  -23.7440  -27.7679   22.4752 C   0  0  0  0  0  0  0  0  0  0  0  0
  -27.1177  -27.4655   22.0584 C   0  0  0  0  0  0  0  0  0  0  0  0
  -28.6128  -14.7547   21.2944 C   0  0  0  0  0  0  0  0  0  0  0  0
  -16.1570  -27.3828   24.2426 C   0  0  0  0  0  0  0  0  0  0  0  0
  -22.1365  -24.8130   23.9911 C   0  0  0  0  0  0  0  0  0  0  0  0
  -23.6290  -25.4373   21.5157 C   0  0  0  0  0  0  0  0  0  0  0  0
  -17.3755  -28.2040   23.8288 C   0  0  0  0  0  0  0  0  0  0  0  0
  -31.0055  -16.8305   22.9201 C   0  0  0  0  0  0  0  0  0  0  0  0
  -17.8938  -27.7427   22.4703 C   0  0  0  0  0  0  0  0  0  0  0  0
  -30.6849  -18.2323   22.3961 C   0  0  0  0  0  0  0  0  0  0  0  0
  -30.8161  -15.7650   21.8419 C   0  0  0  0  0  0  0  0  0  0  0  0
  -29.1849  -17.1796   20.6557 C   0  0  0  0  0  0  0  0  0  0  0  0
  -18.3433  -26.2774   22.5199 C   0  0  1  0  0  0  0  0  0  0  0  0
  -22.0543  -26.1845   23.3281 C   0  0  1  0  0  0  0  0  0  0  0  0
  -29.2986  -18.2793   21.7241 C   0  0  2  0  0  0  0  0  0  0  0  0
  -29.5338  -28.1437   22.0573 C   0  0  0  0  0  0  0  0  0  0  0  0
  -25.6709  -18.8624   19.2851 C   0  0  0  0  0  0  0  0  0  0  0  0
  -22.6670  -11.0251   18.9701 C   0  0  0  0  0  0  0  0  0  0  0  0
  -21.8155  -11.8415   21.1937 C   0  0  0  0  0  0  0  0  0  0  0  0
  -23.3910   -9.9217   21.0773 C   0  0  0  0  0  0  0  0  0  0  0  0
  -23.0420  -28.9270   19.7414 C   0  0  0  0  0  0  0  0  0  0  0  0
  -25.4702  -29.4410   19.4133 C   0  0  0  0  0  0  0  0  0  0  0  0
  -24.2108  -30.5156   21.2792 C   0  0  0  0  0  0  0  0  0  0  0  0
  -27.4568  -26.6898   24.8943 C   0  0  0  0  0  0  0  0  0  0  0  0
  -24.9341  -15.8781   19.4834 C   0  0  0  0  0  0  0  0  0  0  0  0
  -24.6322  -16.9537   20.5361 C   0  0  0  0  0  0  0  0  0  0  0  0
  -23.9537  -19.3824   21.0487 C   0  0  0  0  0  0  0  0  0  1  0  0
  -24.7928  -28.0598   21.4293 C   0  0  1  0  0  0  0  0  0  0  0  0
  -28.2841  -27.9482   22.9016 C   0  0  2  0  0  0  0  0  0  0  0  0
  -24.3925  -18.3741   19.9782 C   0  0  1  0  0  0  0  0  0  0  0  0
  -23.0841  -11.3220   20.4455 C   0  0  0  0  0  0  0  0  0  0  0  0
  -24.3704  -29.2093   20.4713 C   0  0  0  0  0  0  0  0  0  0  0  0
  -26.4562  -12.8358   21.1777 N   0  0  0  0  0  0  0  0  0  0  0  0
  -29.3073  -19.9162   19.8798 N   0  0  0  0  0  0  0  0  0  0  0  0
  -28.9936  -19.6544   21.1600 N   0  0  0  0  0  0  0  0  0  0  0  0
  -23.2110  -26.4711   22.4770 N   0  0  0  0  0  0  0  0  0  0  0  0
  -29.4790  -15.8677   21.2531 N   0  0  0  0  0  0  0  0  0  0  0  0
  -28.0393  -20.6123   23.1049 N   0  0  0  0  0  0  0  0  0  0  0  0
  -27.8210  -23.9590   20.0804 N   0  0  0  0  0  0  0  0  0  0  0  0
  -27.3566  -14.9807   20.7327 N   0  0  0  0  0  0  0  0  0  0  0  0
  -19.6405  -26.1678   23.1522 N   0  0  0  0  0  0  0  0  0  0  0  0
  -26.0334  -28.3118   22.1544 N   0  0  0  0  0  0  0  0  0  0  0  0
  -28.5915  -26.9604   23.9744 N   0  3  0  0  0  0  0  0  0  0  0  0
  -27.3568  -23.3761   22.2491 O   0  0  0  0  0  0  0  0  0  0  0  0
  -20.9555  -26.6053   21.2809 O   0  0  0  0  0  0  0  0  0  0  0  0
  -23.4153  -28.6555   23.2662 O   0  0  0  0  0  0  0  0  0  0  0  0
  -27.1651  -26.4422   21.3794 O   0  0  0  0  0  0  0  0  0  0  0  0
  -28.9502  -13.6887   21.8157 O   0  0  0  0  0  0  0  0  0  0  0  0
  -29.5705  -23.7415   14.7958 O   0  0  0  0  0  0  0  0  0  0  0  0
  -23.6908  -20.6587   20.4672 O   0  0  0  0  0  0  0  0  0  1  0  0
  -31.5768  -28.8775   14.8232 F   0  0  0  0  0  0  0  0  0  0  0  0
  -28.2440  -25.7754   16.1173 F   0  0  0  0  0  0  0  0  0  0  0  0
  1  2  1  0  0  0  0
  1  5  2  0  0  0  0
  2  6  2  0  0  0  0
  3  8  2  0  0  0  0
  3 17  1  0  0  0  0
  4  9  1  0  0  0  0
  4 17  2  0  0  0  0
  5 19  1  0  0  0  0
  6 21  1  0  0  0  0
  7 10  2  0  0  0  0
  7 20  1  0  0  0  0
  8 25  1  0  0  0  0
  9 25  2  0  0  0  0
 10 26  1  0  0  0  0
 11 12  2  0  0  0  0
 11 27  1  0  0  0  0
 12 28  1  0  0  0  0
 13 22  1  0  0  0  0
 13 26  2  0  0  0  0
 14 23  2  0  0  0  0
 14 24  1  0  0  0  0
 15 28  2  0  0  0  0
 15 29  1  0  0  0  0
 16 23  1  0  0  0  0
 16 67  2  0  0  0  0
 17 30  1  0  0  0  0
 18 30  1  0  0  0  0
 18 32  2  0  0  0  0
 18 33  1  0  0  0  0
 19 21  2  0  0  0  0
 19 38  1  0  0  0  0
 20 22  2  0  0  0  0
 20 39  1  0  0  0  0
 21 47  1  0  0  0  0
 22 40  1  0  0  0  0
 23 65  1  0  0  0  0
 24 31  2  0  0  0  0
 24 59  1  0  0  0  0
 25 83  1  0  0  0  0
 26 84  1  0  0  0  0
 27 29  2  0  0  0  0
 27 83  1  0  0  0  0
 28 85  1  0  0  0  0
 29 86  1  0  0  0  0
 30 68  2  0  0  0  0
 31 67  1  0  0  0  0
 31 74  1  0  0  0  0
 32 69  1  0  0  0  0
 32 72  1  0  0  0  0
 33 73  1  0  0  0  0
 33 78  2  0  0  0  0
 34 48  1  0  0  0  0
 34 75  1  0  0  0  0
 34 79  2  0  0  0  0
 35 62  1  0  0  0  0
 35 70  1  0  0  0  0
 35 80  2  0  0  0  0
 36 63  1  0  0  0  0
 36 76  1  0  0  0  0
 36 81  2  0  0  0  0
 37 71  1  0  0  0  0
 37 74  1  0  0  0  0
 37 82  2  0  0  0  0
 38 41  1  0  0  0  0
 39 48  1  0  0  0  0
 40 70  1  0  0  0  0
 41 43  1  0  0  0  0
 42 44  1  0  0  0  0
 42 45  1  0  0  0  0
 43 47  1  0  0  0  0
 44 49  1  0  0  0  0
 45 71  1  0  0  0  0
 46 49  1  0  0  0  0
 46 71  1  0  0  0  0
 47 75  1  0  0  0  0
 48 70  1  0  0  0  0
 49 69  1  0  0  0  0
 50 63  1  0  0  0  0
 51 64  1  0  0  0  0
 52 65  1  0  0  0  0
 53 65  1  0  0  0  0
 54 65  1  0  0  0  0
 55 66  1  0  0  0  0
 56 66  1  0  0  0  0
 57 66  1  0  0  0  0
 58 77  1  0  0  0  0
 59 60  1  0  0  0  0
 60 64  1  0  0  0  0
 61 64  1  0  0  0  0
 61 84  1  0  0  0  0
 62 66  1  0  0  0  0
 62 76  1  0  0  0  0
 63 77  1  0  0  0  0
 68 69  1  0  0  0  0
M  CHG  1  77   1
M  ISO  4  37 100  61 101  74 100  84 101
M  END
> <Batch ID>
0102

> <Smiles>
CNC(C)C(=O)NC(C(=O)N1Cc2cc([101O:1][101CH2:1]C(C)CCc3cc(C(C)(C)C)cnc3[100NH:0][100C:0](=O)N3CCCC(n4nc(-c5ccc(Oc6ccc(F)cc6F)cc5)c(C(N)=O)c4N)C3)ccc2CC1C(=O)NC1CCCc2ccccc21)C(C)(C)C

> <Shape>
0.225

> <Color>
0.049

> <Negative vol penalty>
0.000

$$$$

  -OEChem-04052319383D

 83 91  0     1  0  0  0  0  0999 V2000
  -21.7195  -30.0972   18.9621 C   0  0  0  0  0  0  0  0  0  0  0  0
  -22.5062  -29.1016   18.3917 C   0  0  0  0  0  0  0  0  0  0  0  0
  -23.1746   -9.7807   21.4835 C   0  0  0  0  0  0  0  0  0  0  0  0
  -24.0914  -10.7207   23.5115 C   0  0  0  0  0  0  0  0  0  0  0  0
  -22.2294  -30.8794   19.9975 C   0  0  0  0  0  0  0  0  0  0  0  0
  -23.8037  -28.8883   18.8557 C   0  0  0  0  0  0  0  0  0  0  0  0
  -26.7368  -23.5268   19.2530 C   0  0  0  0  0  0  0  0  0  0  0  0
  -22.5375   -8.7901   22.2306 C   0  0  0  0  0  0  0  0  0  0  0  0
  -23.4541   -9.7300   24.2587 C   0  0  0  0  0  0  0  0  0  0  0  0
  -27.6690  -22.9040   18.4243 C   0  0  0  0  0  0  0  0  0  0  0  0
  -23.3725   -5.8802   23.7338 C   0  0  0  0  0  0  0  0  0  0  0  0
  -23.4490   -4.5678   23.2675 C   0  0  0  0  0  0  0  0  0  0  0  0
  -29.4563  -23.7761   19.7897 C   0  0  0  0  0  0  0  0  0  0  0  0
  -21.0400   -4.4853   23.1041 C   0  0  0  0  0  0  0  0  0  0  0  0
  -23.9517  -10.7460   22.1239 C   0  0  0  0  0  0  0  0  0  0  0  0
  -24.0967  -13.0315   21.0001 C   0  0  0  0  0  0  0  0  0  0  0  0
  -23.5305  -30.6691   20.4810 C   0  0  0  0  0  0  0  0  0  0  0  0
  -27.1584  -24.2893   20.3518 C   0  0  0  0  0  0  0  0  0  0  0  0
  -24.3320  -29.6693   19.8977 C   0  0  0  0  0  0  0  0  0  0  0  0
  -28.5273  -24.4054   20.6322 C   0  0  0  0  0  0  0  0  0  0  0  0
  -22.6772   -8.7647   23.6182 C   0  0  0  0  0  0  0  0  0  0  0  0
  -29.0291  -23.0309   18.6908 C   0  0  0  0  0  0  0  0  0  0  0  0
  -22.1296   -6.4951   23.8853 C   0  0  0  0  0  0  0  0  0  0  0  0
  -22.2828   -3.8704   22.9526 C   0  0  0  0  0  0  0  0  0  0  0  0
  -20.9634   -5.7977   23.5704 C   0  0  0  0  0  0  0  0  0  0  0  0
  -24.6106  -11.7692   21.3526 C   0  0  0  0  0  0  0  0  0  0  0  0
  -25.1022  -13.6209   20.2735 C   0  0  0  0  0  0  0  0  0  0  0  0
  -22.8242  -13.6189   21.3026 C   0  0  0  0  0  0  0  0  0  0  0  0
  -26.8866  -27.3400   21.2020 C   0  0  0  0  0  0  0  0  0  0  0  0
  -28.2588  -26.2923   23.9482 C   0  0  0  0  0  0  0  0  0  0  0  0
  -30.2013  -23.9616   25.5106 C   0  0  0  0  0  0  0  0  0  0  0  0
  -30.6767  -14.7342   20.0609 C   0  0  0  0  0  0  0  0  0  0  0  0
  -24.0548  -31.5712   21.5701 C   0  0  0  0  0  0  0  0  0  0  0  0
  -26.1392  -24.9327   21.2516 C   0  0  0  0  0  0  0  0  0  0  0  0
  -29.0310  -25.1959   21.8112 C   0  0  0  0  0  0  0  0  0  0  0  0
  -25.3072  -31.0325   22.2568 C   0  0  0  0  0  0  0  0  0  0  0  0
  -29.3665  -11.7096   18.3650 C   0  0  0  0  0  0  0  0  0  0  0  0
  -26.3146  -30.5423   21.2217 C   0  0  0  0  0  0  0  0  0  0  0  0
  -28.0015  -11.5259   19.0259 C   0  0  0  0  0  0  0  0  0  0  0  0
  -31.2931  -17.9314   18.8631 C   0  0  0  0  0  0  0  0  0  0  0  0
  -29.1002  -17.0725   17.9491 C   0  0  0  0  0  0  0  0  0  0  0  0
  -30.3546  -12.4114   19.2913 C   0  0  0  0  0  0  0  0  0  0  0  0
  -31.0047  -17.1872   20.1642 C   0  0  0  0  0  0  0  0  0  0  0  0
  -28.8671  -16.3210   19.2631 C   0  0  0  0  0  0  0  0  0  0  0  0
  -28.4961  -13.5315   20.4802 C   0  0  0  0  0  0  0  0  0  0  0  0
  -25.7356  -29.3911   20.3903 C   0  0  1  0  0  0  0  0  0  0  0  0
  -26.7000  -26.1096   22.0440 C   0  0  1  0  0  0  0  0  0  0  0  0
  -27.4649  -12.8667   19.5557 C   0  0  2  0  0  0  0  0  0  0  0  0
  -29.9849  -18.2984   18.1656 C   0  0  0  0  0  0  0  0  0  0  0  0
  -31.1776  -23.3929   27.7514 C   0  0  0  0  0  0  0  0  0  0  0  0
  -32.1392  -22.1805   15.8677 C   0  0  0  0  0  0  0  0  0  0  0  0
  -32.6695  -19.7951   15.3171 C   0  0  0  0  0  0  0  0  0  0  0  0
  -30.3583  -28.4764   23.5852 C   0  0  0  0  0  0  0  0  0  0  0  0
  -31.7883  -27.2830   25.2582 C   0  0  0  0  0  0  0  0  0  0  0  0
  -29.5604  -28.1769   25.9364 C   0  0  0  0  0  0  0  0  0  0  0  0
  -28.7468  -21.3865   25.6202 C   0  0  0  0  0  0  0  0  0  0  0  0
  -29.1484  -18.7960   15.8736 C   0  0  0  0  0  0  0  0  0  0  0  0
  -29.5368  -21.2153   17.2411 C   0  0  0  0  0  0  0  0  0  1  0  0
  -29.6763  -26.1392   24.4443 C   0  0  1  0  0  0  0  0  0  0  0  0
  -30.0058  -23.1903   26.8034 C   0  0  2  0  0  0  0  0  0  0  0  0
  -31.5583  -20.7696   15.7200 C   0  0  0  0  0  0  0  0  0  0  0  0
  -30.7618  -20.3418   16.9728 C   0  0  2  0  0  0  0  0  0  0  0  0
  -30.3367  -27.5055   24.7826 C   0  0  0  0  0  0  0  0  0  0  0  0
  -25.8465  -11.5676   20.8880 N   0  0  0  0  0  0  0  0  0  0  0  0
  -26.1176  -12.7111   20.2360 N   0  0  0  0  0  0  0  0  0  0  0  0
  -27.9957  -25.8116   22.6577 N   0  0  0  0  0  0  0  0  0  0  0  0
  -29.8043  -13.6597   19.8199 N   0  0  0  0  0  0  0  0  0  0  0  0
  -30.1447  -16.0258   19.9286 N   0  0  0  0  0  0  0  0  0  0  0  0
  -25.2080  -14.8234   19.6692 N   0  0  0  0  0  0  0  0  0  0  0  0
  -21.9084  -12.8758   22.0600 N   0  0  0  0  0  0  0  0  0  0  0  0
  -25.7727  -28.1556   21.1430 N   0  0  0  0  0  0  0  0  0  0  0  0
  -29.6177  -25.2096   25.5672 N   0  0  0  0  0  0  0  0  0  0  0  0
  -29.8753  -21.7326   26.5223 N   0  3  0  0  0  0  0  0  0  0  0  0
  -30.2931  -18.9136   16.8487 N   0  3  1  0  0  0  0  0  0  0  0  0
  -22.5022  -14.7620   20.8988 O   0  0  0  0  0  0  0  0  0  0  0  0
  -27.9621  -27.5357   20.6481 O   0  0  0  0  0  0  0  0  0  0  0  0
  -27.4144  -26.8127   24.6816 O   0  0  0  0  0  0  0  0  0  0  0  0
  -30.8140  -23.5043   24.5483 O   0  0  0  0  0  0  0  0  0  0  0  0
  -31.8597  -14.5491   20.3730 O   0  0  0  0  0  0  0  0  0  0  0  0
  -22.0553   -7.7984   24.3476 O   0  0  0  0  0  0  0  0  0  0  0  0
  -29.9471  -22.4207   17.8780 O   0  0  0  0  0  0  0  0  0  1  0  0
  -22.3566   -2.6106   22.5034 F   0  0  0  0  0  0  0  0  0  0  0  0
  -19.7666   -6.3836   23.7128 F   0  0  0  0  0  0  0  0  0  0  0  0
  1  2  1  0  0  0  0
  1  5  2  0  0  0  0
  2  6  2  0  0  0  0
  3  8  2  0  0  0  0
  3 15  1  0  0  0  0
  4  9  1  0  0  0  0
  4 15  2  0  0  0  0
  5 17  1  0  0  0  0
  6 19  1  0  0  0  0
  7 10  2  0  0  0  0
  7 18  1  0  0  0  0
  8 21  1  0  0  0  0
  9 21  2  0  0  0  0
 10 22  1  0  0  0  0
 11 12  2  0  0  0  0
 11 23  1  0  0  0  0
 12 24  1  0  0  0  0
 13 20  1  0  0  0  0
 13 22  2  0  0  0  0
 14 24  2  0  0  0  0
 14 25  1  0  0  0  0
 15 26  1  0  0  0  0
 16 26  1  0  0  0  0
 16 27  2  0  0  0  0
 16 28  1  0  0  0  0
 17 19  2  0  0  0  0
 17 33  1  0  0  0  0
 18 20  2  0  0  0  0
 18 34  1  0  0  0  0
 19 46  1  0  0  0  0
 20 35  1  0  0  0  0
 21 80  1  0  0  0  0
 22 81  1  0  0  0  0
 23 25  2  0  0  0  0
 23 80  1  0  0  0  0
 24 82  1  0  0  0  0
 25 83  1  0  0  0  0
 26 64  2  0  0  0  0
 27 65  1  0  0  0  0
 27 69  1  0  0  0  0
 28 70  1  0  0  0  0
 28 75  2  0  0  0  0
 29 47  1  0  0  0  0
 29 71  1  0  0  0  0
 29 76  2  0  0  0  0
 30 59  1  0  0  0  0
 30 66  1  0  0  0  0
 30 77  2  0  0  0  0
 31 60  1  0  0  0  0
 31 72  1  0  0  0  0
 31 78  2  0  0  0  0
 32 67  1  0  0  0  0
 32 68  1  0  0  0  0
 32 79  2  0  0  0  0
 33 36  1  0  0  0  0
 34 47  1  0  0  0  0
 35 66  1  0  0  0  0
 36 38  1  0  0  0  0
 37 39  1  0  0  0  0
 37 42  1  0  0  0  0
 38 46  1  0  0  0  0
 39 48  1  0  0  0  0
 40 43  1  0  0  0  0
 40 49  1  0  0  0  0
 41 44  1  0  0  0  0
 41 49  1  0  0  0  0
 42 67  1  0  0  0  0
 43 68  1  0  0  0  0
 44 68  1  0  0  0  0
 45 48  1  0  0  0  0
 45 67  1  0  0  0  0
 46 71  1  0  0  0  0
 47 66  1  0  0  0  0
 48 65  1  0  0  0  0
 49 74  1  0  0  0  0
 50 60  1  0  0  0  0
 51 61  1  0  0  0  0
 52 61  1  0  0  0  0
 53 63  1  0  0  0  0
 54 63  1  0  0  0  0
 55 63  1  0  0  0  0
 56 73  1  0  0  0  0
 57 74  1  0  0  0  0
 58 62  1  0  0  0  0
 58 81  1  0  0  0  0
 59 63  1  0  0  0  0
 59 72  1  0  0  0  0
 60 73  1  0  0  0  0
 61 62  1  0  0  0  0
 62 74  1  0  0  0  0
 64 65  1  0  0  0  0
M  CHG  2  73   1  74   1
M  ISO  4  32 100  58 101  68 100  81 101
M  END
> <Batch ID>
0102

> <Smiles>
CNC(C)C(=O)NC(C(=O)N1Cc2cc([101O:1][101CH2:1]C(C(C)C)N(C)C3CC[100N:0]([100C:0](=O)N4CCCC(n5nc(-c6ccc(Oc7ccc(F)cc7F)cc6)c(C(N)=O)c5N)C4)CC3)ccc2CC1C(=O)NC1CCCc2ccccc21)C(C)(C)C

> <Shape>
0.256

> <Color>
0.180

> <Negative vol penalty>
0.000

$$$$

  -OEChem-04052319383D

 91 99  0     1  0  0  0  0  0999 V2000
  -19.7897   -8.2094   19.7365 C   0  0  0  0  0  0  0  0  0  0  0  0
  -19.5018   -9.5079   20.1445 C   0  0  0  0  0  0  0  0  0  0  0  0
  -28.9471  -27.8655   19.3187 C   0  0  0  0  0  0  0  0  0  0  0  0
  -28.0456  -25.7969   20.1818 C   0  0  0  0  0  0  0  0  0  0  0  0
  -21.0604   -7.6777   19.9523 C   0  0  0  0  0  0  0  0  0  0  0  0
  -20.4843  -10.2751   20.7695 C   0  0  0  0  0  0  0  0  0  0  0  0
  -21.3001  -16.3246   20.2750 C   0  0  0  0  0  0  0  0  0  0  0  0
  -30.1879  -27.2525   19.1453 C   0  0  0  0  0  0  0  0  0  0  0  0
  -29.2864  -25.1838   20.0084 C   0  0  0  0  0  0  0  0  0  0  0  0
  -20.9237  -17.3915   21.0896 C   0  0  0  0  0  0  0  0  0  0  0  0
  -32.1207  -22.9747   19.4560 C   0  0  0  0  0  0  0  0  0  0  0  0
  -32.1424  -21.7045   18.8802 C   0  0  0  0  0  0  0  0  0  0  0  0
  -23.1041  -17.3652   22.1213 C   0  0  0  0  0  0  0  0  0  0  0  0
  -31.0998  -22.5895   16.8885 C   0  0  0  0  0  0  0  0  0  0  0  0
  -27.8759  -27.1378   19.8370 C   0  0  0  0  0  0  0  0  0  0  0  0
  -25.5418  -27.8399   19.0842 C   0  0  0  0  0  0  0  0  0  0  0  0
  -22.0618   -8.4422   20.5716 C   0  0  0  0  0  0  0  0  0  0  0  0
  -22.5798  -15.7619   20.3851 C   0  0  0  0  0  0  0  0  0  0  0  0
  -21.7691   -9.7527   20.9950 C   0  0  0  0  0  0  0  0  0  0  0  0
  -23.4952  -16.2928   21.3051 C   0  0  0  0  0  0  0  0  0  0  0  0
  -22.3417  -23.6671   23.9982 C   0  0  0  0  0  0  0  0  0  0  0  0
  -22.0246  -24.5479   22.9349 C   0  0  0  0  0  0  0  0  0  0  0  0
  -30.3576  -25.9116   19.4902 C   0  0  0  0  0  0  0  0  0  0  0  0
  -21.8247  -17.9101   22.0150 C   0  0  0  0  0  0  0  0  0  0  0  0
  -31.5884  -24.0524   18.7481 C   0  0  0  0  0  0  0  0  0  0  0  0
  -31.6320  -21.5118   17.5964 C   0  0  0  0  0  0  0  0  0  0  0  0
  -31.0780  -23.8597   17.4644 C   0  0  0  0  0  0  0  0  0  0  0  0
  -26.5940  -27.7707   20.0169 C   0  0  0  0  0  0  0  0  0  0  0  0
  -22.0303  -24.3130   25.1743 C   0  0  0  0  0  0  0  0  0  0  0  0
  -21.5292  -25.7054   23.4935 C   0  0  0  0  0  0  0  0  0  0  0  0
  -24.5539  -28.5399   19.7325 C   0  0  0  0  0  0  0  0  0  0  0  0
  -25.4643  -27.3179   17.7511 C   0  0  0  0  0  0  0  0  0  0  0  0
  -23.7099  -12.8928   21.1565 C   0  0  0  0  0  0  0  0  0  0  0  0
  -26.5497  -14.2151   20.3146 C   0  0  0  0  0  0  0  0  0  0  0  0
  -28.4203  -17.0388   19.8963 C   0  0  0  0  0  0  0  0  0  0  0  0
  -23.2635  -29.3571   25.5220 C   0  0  0  0  0  0  0  0  0  0  0  0
  -23.4063   -7.8079   20.8260 C   0  0  0  0  0  0  0  0  0  0  0  0
  -22.9795  -14.6287   19.4804 C   0  0  0  0  0  0  0  0  0  0  0  0
  -24.8879  -15.7377   21.4484 C   0  0  0  0  0  0  0  0  0  0  0  0
  -24.5028   -8.8169   21.1576 C   0  0  0  0  0  0  0  0  0  0  0  0
  -23.9248  -31.8808   23.0991 C   0  0  0  0  0  0  0  0  0  0  0  0
  -24.0073   -9.8232   22.1914 C   0  0  0  0  0  0  0  0  0  0  0  0
  -24.5889  -31.1198   21.9503 C   0  0  0  0  0  0  0  0  0  0  0  0
  -24.3360  -31.3209   24.4591 C   0  0  0  0  0  0  0  0  0  0  0  0
  -24.7904  -29.1090   23.4718 C   0  0  0  0  0  0  0  0  0  0  0  0
  -22.8156  -10.6248   21.6540 C   0  0  1  0  0  0  0  0  0  0  0  0
  -24.1334  -13.7994   20.0356 C   0  0  1  0  0  0  0  0  0  0  0  0
  -24.3626  -29.6014   22.0786 C   0  0  2  0  0  0  0  0  0  0  0  0
  -22.1594  -23.8570   26.5748 C   0  0  0  0  0  0  0  0  0  0  0  0
  -23.1901  -25.2475   20.8122 C   0  0  0  0  0  0  0  0  0  0  0  0
  -20.8602  -24.2899   20.7142 C   0  0  0  0  0  0  0  0  0  0  0  0
  -30.7184  -17.7992   19.2348 C   0  0  0  0  0  0  0  0  0  0  0  0
  -17.2000  -29.8083   21.2004 C   0  0  0  0  0  0  0  0  0  0  0  0
  -16.8875  -28.5255   23.3258 C   0  0  0  0  0  0  0  0  0  0  0  0
  -27.6171  -13.3524   23.0397 C   0  0  0  0  0  0  0  0  0  0  0  0
  -29.5348  -14.9277   22.7097 C   0  0  0  0  0  0  0  0  0  0  0  0
  -29.2097  -13.0154   21.1412 C   0  0  0  0  0  0  0  0  0  0  0  0
  -27.3750  -18.5757   17.5932 C   0  0  0  0  0  0  0  0  0  0  0  0
  -22.9134  -22.2777   23.8695 C   0  0  0  0  0  0  0  0  0  0  0  0
  -21.0508  -26.9466   22.8477 C   0  0  0  0  0  0  0  0  0  0  0  0
  -21.8877  -21.2272   23.4382 C   0  0  0  0  0  0  0  0  0  0  0  0
  -19.5131  -27.0784   22.7578 C   0  0  0  0  0  0  0  0  0  0  0  0
  -19.0750  -28.3525   22.0243 C   0  0  0  0  0  0  0  0  0  0  0  0
  -21.0953  -26.5458   25.8103 C   0  0  0  0  0  0  0  0  0  0  0  0
  -22.2503  -27.2979   26.4664 C   0  0  0  0  0  0  0  0  0  0  0  0
  -22.4923  -19.8439   23.2278 C   0  0  0  0  0  0  0  0  0  1  0  0
  -22.1958  -24.2787   21.4923 C   0  0  0  0  0  0  0  0  0  0  0  0
  -27.6275  -14.9847   21.0393 C   0  0  1  0  0  0  0  0  0  0  0  0
  -29.3073  -17.4994   18.7537 C   0  0  2  0  0  0  0  0  0  0  0  0
  -17.5453  -28.5162   21.9452 C   0  0  0  0  0  0  0  0  0  0  0  0
  -28.4704  -14.0795   21.9814 C   0  0  0  0  0  0  0  0  0  0  0  0
  -26.3020  -28.3785   21.1698 N   0  0  0  0  0  0  0  0  0  0  0  0
  -21.5375  -25.5514   24.8553 N   0  0  0  0  0  0  0  0  0  0  0  0
  -25.0550  -28.8363   20.9659 N   0  0  0  0  0  0  0  0  0  0  0  0
  -25.2292  -14.6258   20.5457 N   0  0  0  0  0  0  0  0  0  0  0  0
  -24.0943  -29.8772   24.5159 N   0  0  0  0  0  0  0  0  0  0  0  0
  -23.3141  -28.9249   19.3622 N   0  0  0  0  0  0  0  0  0  0  0  0
  -26.5695  -26.6239   17.2400 N   0  0  0  0  0  0  0  0  0  0  0  0
  -23.2682  -11.6515   20.7399 N   0  0  0  0  0  0  0  0  0  0  0  0
  -28.4060  -15.6647   20.0099 N   0  0  0  0  0  0  0  0  0  0  0  0
  -23.0822  -27.9797   25.5001 N   0  0  0  0  0  0  0  0  0  0  0  0
  -28.7507  -18.7338   18.1311 N   0  3  0  0  0  0  0  0  0  0  0  0
  -24.4514  -27.4769   17.0284 O   0  0  0  0  0  0  0  0  0  0  0  0
  -23.7801  -13.2896   22.3138 O   0  0  0  0  0  0  0  0  0  0  0  0
  -26.8683  -13.2885   19.5652 O   0  0  0  0  0  0  0  0  0  0  0  0
  -27.8048  -17.8200   20.6184 O   0  0  0  0  0  0  0  0  0  0  0  0
  -22.7191  -30.0683   26.3734 O   0  0  0  0  0  0  0  0  0  0  0  0
  -31.5682  -25.3130   19.3209 O   0  0  0  0  0  0  0  0  0  0  0  0
  -21.4597  -18.9511   22.8118 O   0  0  0  0  0  0  0  0  0  1  0  0
  -31.6544  -20.2923   17.0430 F   0  0  0  0  0  0  0  0  0  0  0  0
  -30.5664  -24.8914   16.7790 F   0  0  0  0  0  0  0  0  0  0  0  0
  1  2  1  0  0  0  0
  1  5  2  0  0  0  0
  2  6  2  0  0  0  0
  3  8  2  0  0  0  0
  3 15  1  0  0  0  0
  4  9  1  0  0  0  0
  4 15  2  0  0  0  0
  5 17  1  0  0  0  0
  6 19  1  0  0  0  0
  7 10  2  0  0  0  0
  7 18  1  0  0  0  0
  8 23  1  0  0  0  0
  9 23  2  0  0  0  0
 10 24  1  0  0  0  0
 11 12  2  0  0  0  0
 11 25  1  0  0  0  0
 12 26  1  0  0  0  0
 13 20  1  0  0  0  0
 13 24  2  0  0  0  0
 14 26  2  0  0  0  0
 14 27  1  0  0  0  0
 15 28  1  0  0  0  0
 16 28  1  0  0  0  0
 16 31  2  0  0  0  0
 16 32  1  0  0  0  0
 17 19  2  0  0  0  0
 17 37  1  0  0  0  0
 18 20  2  0  0  0  0
 18 38  1  0  0  0  0
 19 46  1  0  0  0  0
 20 39  1  0  0  0  0
 21 22  1  0  0  0  0
 21 29  2  0  0  0  0
 21 59  1  0  0  0  0
 22 30  2  0  0  0  0
 22 67  1  0  0  0  0
 23 88  1  0  0  0  0
 24 89  1  0  0  0  0
 25 27  2  0  0  0  0
 25 88  1  0  0  0  0
 26 90  1  0  0  0  0
 27 91  1  0  0  0  0
 28 72  2  0  0  0  0
 29 49  1  0  0  0  0
 29 73  1  0  0  0  0
 30 60  1  0  0  0  0
 30 73  1  0  0  0  0
 31 74  1  0  0  0  0
 31 77  1  0  0  0  0
 32 78  1  0  0  0  0
 32 83  2  0  0  0  0
 33 47  1  0  0  0  0
 33 79  1  0  0  0  0
 33 84  2  0  0  0  0
 34 68  1  0  0  0  0
 34 75  1  0  0  0  0
 34 85  2  0  0  0  0
 35 69  1  0  0  0  0
 35 80  1  0  0  0  0
 35 86  2  0  0  0  0
 36 76  1  0  0  0  0
 36 81  1  0  0  0  0
 36 87  2  0  0  0  0
 37 40  1  0  0  0  0
 38 47  1  0  0  0  0
 39 75  1  0  0  0  0
 40 42  1  0  0  0  0
 41 43  1  0  0  0  0
 41 44  1  0  0  0  0
 42 46  1  0  0  0  0
 43 48  1  0  0  0  0
 44 76  1  0  0  0  0
 45 48  1  0  0  0  0
 45 76  1  0  0  0  0
 46 79  1  0  0  0  0
 47 75  1  0  0  0  0
 48 74  1  0  0  0  0
 50 67  1  0  0  0  0
 51 67  1  0  0  0  0
 52 69  1  0  0  0  0
 53 70  1  0  0  0  0
 54 70  1  0  0  0  0
 55 71  1  0  0  0  0
 56 71  1  0  0  0  0
 57 71  1  0  0  0  0
 58 82  1  0  0  0  0
 59 61  1  0  0  0  0
 60 62  1  0  0  0  0
 61 66  1  0  0  0  0
 62 63  1  0  0  0  0
 63 70  1  0  0  0  0
 64 65  1  0  0  0  0
 64 73  1  0  0  0  0
 65 81  1  0  0  0  0
 66 89  1  0  0  0  0
 68 71  1  0  0  0  0
 68 80  1  0  0  0  0
 69 82  1  0  0  0  0
 72 74  1  0  0  0  0
M  CHG  1  82   1
M  ISO  4  36 100  66 101  81 100  89 101
M  END
> <Batch ID>
0102

> <Smiles>
CNC(C)C(=O)NC(C(=O)N1Cc2cc([101O:1][101CH2:1]CCc3c(C(C)C)c(CCCC(C)C)n(CC[100NH:0][100C:0](=O)N4CCCC(n5nc(-c6ccc(Oc7ccc(F)cc7F)cc6)c(C(N)=O)c5N)C4)c3C)ccc2CC1C(=O)NC1CCCc2ccccc21)C(C)(C)C

> <Shape>
0.266

> <Color>
0.044

> <Negative vol penalty>
0.000

$$$$

  -OEChem-04052319383D

 87 95  0     1  0  0  0  0  0999 V2000
  -25.4000  -11.3013   20.0279 C   0  0  0  0  0  0  0  0  0  0  0  0
  -25.1207  -12.5275   20.6229 C   0  0  0  0  0  0  0  0  0  0  0  0
  -31.4269  -26.3507   20.7293 C   0  0  0  0  0  0  0  0  0  0  0  0
  -30.9749  -28.6366   20.0911 C   0  0  0  0  0  0  0  0  0  0  0  0
  -26.6791  -11.0408   19.5382 C   0  0  0  0  0  0  0  0  0  0  0  0
  -26.1207  -13.4934   20.7294 C   0  0  0  0  0  0  0  0  0  0  0  0
  -24.5014  -18.1162   19.4438 C   0  0  0  0  0  0  0  0  0  0  0  0
  -32.7619  -26.5111   20.3587 C   0  0  0  0  0  0  0  0  0  0  0  0
  -32.3100  -28.7971   19.7204 C   0  0  0  0  0  0  0  0  0  0  0  0
  -23.7417  -18.8093   20.3851 C   0  0  0  0  0  0  0  0  0  0  0  0
  -36.3695  -26.4291   19.9185 C   0  0  0  0  0  0  0  0  0  0  0  0
  -37.3465  -25.9404   20.7857 C   0  0  0  0  0  0  0  0  0  0  0  0
  -25.6949  -20.0741   21.0214 C   0  0  0  0  0  0  0  0  0  0  0  0
  -36.5370  -27.4086   22.5252 C   0  0  0  0  0  0  0  0  0  0  0  0
  -19.4070  -27.1015   21.4020 C   0  0  0  0  0  0  0  0  0  0  0  0
  -19.9518  -26.9185   23.5664 C   0  0  0  0  0  0  0  0  0  0  0  0
  -30.5333  -27.4134   20.5955 C   0  0  0  0  0  0  0  0  0  0  0  0
  -28.5877  -27.4898   22.2437 C   0  0  0  0  0  0  0  0  0  0  0  0
  -27.6927  -12.0076   19.6301 C   0  0  0  0  0  0  0  0  0  0  0  0
  -25.8684  -18.3896   19.2915 C   0  0  0  0  0  0  0  0  0  0  0  0
  -27.4149  -13.2450   20.2417 C   0  0  0  0  0  0  0  0  0  0  0  0
  -26.4692  -19.3848   20.0756 C   0  0  0  0  0  0  0  0  0  0  0  0
  -20.4537  -27.9654   21.6372 C   0  0  0  0  0  0  0  0  0  0  0  0
  -20.7983  -27.8497   23.0065 C   0  0  0  0  0  0  0  0  0  0  0  0
  -33.2035  -27.7343   19.8542 C   0  0  0  0  0  0  0  0  0  0  0  0
  -24.3390  -19.7864   21.1761 C   0  0  0  0  0  0  0  0  0  0  0  0
  -35.4762  -27.4077   20.3546 C   0  0  0  0  0  0  0  0  0  0  0  0
  -37.4303  -26.4300   22.0891 C   0  0  0  0  0  0  0  0  0  0  0  0
  -35.5600  -27.8974   21.6580 C   0  0  0  0  0  0  0  0  0  0  0  0
  -29.1539  -27.2481   20.9777 C   0  0  0  0  0  0  0  0  0  0  0  0
  -27.2576  -27.1845   22.0889 C   0  0  0  0  0  0  0  0  0  0  0  0
  -29.2086  -27.9493   23.4516 C   0  0  0  0  0  0  0  0  0  0  0  0
  -28.5449  -16.7129   19.6503 C   0  0  0  0  0  0  0  0  0  0  0  0
  -29.9210  -19.3842   18.4284 C   0  0  0  0  0  0  0  0  0  0  0  0
  -29.7435  -22.7506   17.8967 C   0  0  0  0  0  0  0  0  0  0  0  0
  -22.5133  -27.4441   19.1615 C   0  0  0  0  0  0  0  0  0  0  0  0
  -29.0727  -11.6625   19.1289 C   0  0  0  0  0  0  0  0  0  0  0  0
  -26.6681  -17.6517   18.2531 C   0  0  0  0  0  0  0  0  0  0  0  0
  -27.9286  -19.7303   19.9370 C   0  0  0  0  0  0  0  0  0  0  0  0
  -29.9755  -12.8794   18.9438 C   0  0  0  0  0  0  0  0  0  0  0  0
  -24.8281  -24.8805   18.2974 C   0  0  0  0  0  0  0  0  0  0  0  0
  -29.8919  -13.7961   20.1601 C   0  0  0  0  0  0  0  0  0  0  0  0
  -26.1141  -25.2912   19.0168 C   0  0  0  0  0  0  0  0  0  0  0  0
  -24.0607  -26.0937   17.7765 C   0  0  0  0  0  0  0  0  0  0  0  0
  -25.0563  -27.5356   19.5095 C   0  0  0  0  0  0  0  0  0  0  0  0
  -28.4665  -14.3275   20.3535 C   0  0  1  0  0  0  0  0  0  0  0  0
  -28.1663  -17.6527   18.5407 C   0  0  1  0  0  0  0  0  0  0  0  0
  -25.8364  -26.3492   20.1015 C   0  0  2  0  0  0  0  0  0  0  0  0
  -22.9643  -27.6581   24.2815 C   0  0  0  0  0  0  0  0  0  0  0  0
  -21.3259  -29.4884   24.8478 C   0  0  0  0  0  0  0  0  0  0  0  0
  -31.0365  -24.6592   16.9053 C   0  0  0  0  0  0  0  0  0  0  0  0
  -19.5232  -23.2072   24.3575 C   0  0  0  0  0  0  0  0  0  0  0  0
  -31.7634  -19.3962   20.8605 C   0  0  0  0  0  0  0  0  0  0  0  0
  -32.3486  -21.7694   20.3184 C   0  0  0  0  0  0  0  0  0  0  0  0
  -32.8881  -19.9520   18.6970 C   0  0  0  0  0  0  0  0  0  0  0  0
  -27.6128  -23.3211   15.9236 C   0  0  0  0  0  0  0  0  0  0  0  0
  -21.0921  -28.8445   20.6374 C   0  0  0  0  0  0  0  0  0  0  0  0
  -21.7542  -21.9611   22.4324 C   0  0  0  0  0  0  0  0  0  0  0  0
  -20.2692  -22.2154   22.1718 C   0  0  0  0  0  0  0  0  0  0  0  0
  -18.4550  -24.0711   22.2229 C   0  0  0  0  0  0  0  0  0  0  0  0
  -18.0255  -25.4380   22.7675 C   0  0  0  0  0  0  0  0  0  0  0  0
  -22.2152  -20.6514   21.8063 C   0  0  0  0  0  0  0  0  0  1  0  0
  -21.8648  -28.5855   23.7140 C   0  0  0  0  0  0  0  0  0  0  0  0
  -30.4812  -20.6598   19.0098 C   0  0  1  0  0  0  0  0  0  0  0  0
  -29.9863  -23.5883   16.6543 C   0  0  2  0  0  0  0  0  0  0  0  0
  -19.7289  -23.4822   22.8641 C   0  0  1  0  0  0  0  0  0  0  0  0
  -31.8432  -20.4367   19.7256 C   0  0  0  0  0  0  0  0  0  0  0  0
  -28.2569  -26.8219   20.0845 N   0  0  0  0  0  0  0  0  0  0  0  0
  -19.1105  -26.4702   22.5818 N   0  0  0  0  0  0  0  0  0  0  0  0
  -27.1136  -26.7933   20.7903 N   0  0  0  0  0  0  0  0  0  0  0  0
  -28.6697  -18.9767   18.9121 N   0  0  0  0  0  0  0  0  0  0  0  0
  -23.8284  -27.0578   18.8547 N   0  0  0  0  0  0  0  0  0  0  0  0
  -26.2088  -27.2150   22.9384 N   0  0  0  0  0  0  0  0  0  0  0  0
  -30.5844  -28.2162   23.4359 N   0  0  0  0  0  0  0  0  0  0  0  0
  -28.1944  -15.3968   19.4170 N   0  0  0  0  0  0  0  0  0  0  0  0
  -30.5329  -21.6201   17.9128 N   0  0  0  0  0  0  0  0  0  0  0  0
  -22.3814  -28.3567   20.2010 N   0  0  0  0  0  0  0  0  0  0  0  0
  -28.7254  -24.2578   16.2264 N   0  3  0  0  0  0  0  0  0  0  0  0
  -28.5657  -28.1026   24.5177 O   0  0  0  0  0  0  0  0  0  0  0  0
  -29.1142  -17.1493   20.6438 O   0  0  0  0  0  0  0  0  0  0  0  0
  -30.5665  -18.7757   17.5712 O   0  0  0  0  0  0  0  0  0  0  0  0
  -28.9372  -23.0692   18.7679 O   0  0  0  0  0  0  0  0  0  0  0  0
  -21.5291  -27.0039   18.5577 O   0  0  0  0  0  0  0  0  0  0  0  0
  -34.5063  -27.8913   19.4927 O   0  0  0  0  0  0  0  0  0  0  0  0
  -23.5998  -20.4640   22.0961 O   0  0  0  0  0  0  0  0  0  1  0  0
  -38.3676  -25.9595   22.9222 F   0  0  0  0  0  0  0  0  0  0  0  0
  -34.7038  -28.8366   22.0831 F   0  0  0  0  0  0  0  0  0  0  0  0
  1  2  1  0  0  0  0
  1  5  2  0  0  0  0
  2  6  2  0  0  0  0
  3  8  2  0  0  0  0
  3 17  1  0  0  0  0
  4  9  1  0  0  0  0
  4 17  2  0  0  0  0
  5 19  1  0  0  0  0
  6 21  1  0  0  0  0
  7 10  2  0  0  0  0
  7 20  1  0  0  0  0
  8 25  1  0  0  0  0
  9 25  2  0  0  0  0
 10 26  1  0  0  0  0
 11 12  2  0  0  0  0
 11 27  1  0  0  0  0
 12 28  1  0  0  0  0
 13 22  1  0  0  0  0
 13 26  2  0  0  0  0
 14 28  2  0  0  0  0
 14 29  1  0  0  0  0
 15 23  2  0  0  0  0
 15 69  1  0  0  0  0
 16 24  2  0  0  0  0
 16 69  1  0  0  0  0
 17 30  1  0  0  0  0
 18 30  1  0  0  0  0
 18 31  2  0  0  0  0
 18 32  1  0  0  0  0
 19 21  2  0  0  0  0
 19 37  1  0  0  0  0
 20 22  2  0  0  0  0
 20 38  1  0  0  0  0
 21 46  1  0  0  0  0
 22 39  1  0  0  0  0
 23 24  1  0  0  0  0
 23 57  1  0  0  0  0
 24 63  1  0  0  0  0
 25 84  1  0  0  0  0
 26 85  1  0  0  0  0
 27 29  2  0  0  0  0
 27 84  1  0  0  0  0
 28 86  1  0  0  0  0
 29 87  1  0  0  0  0
 30 68  2  0  0  0  0
 31 70  1  0  0  0  0
 31 73  1  0  0  0  0
 32 74  1  0  0  0  0
 32 79  2  0  0  0  0
 33 47  1  0  0  0  0
 33 75  1  0  0  0  0
 33 80  2  0  0  0  0
 34 64  1  0  0  0  0
 34 71  1  0  0  0  0
 34 81  2  0  0  0  0
 35 65  1  0  0  0  0
 35 76  1  0  0  0  0
 35 82  2  0  0  0  0
 36 72  1  0  0  0  0
 36 77  1  0  0  0  0
 36 83  2  0  0  0  0
 37 40  1  0  0  0  0
 38 47  1  0  0  0  0
 39 71  1  0  0  0  0
 40 42  1  0  0  0  0
 41 43  1  0  0  0  0
 41 44  1  0  0  0  0
 42 46  1  0  0  0  0
 43 48  1  0  0  0  0
 44 72  1  0  0  0  0
 45 48  1  0  0  0  0
 45 72  1  0  0  0  0
 46 75  1  0  0  0  0
 47 71  1  0  0  0  0
 48 70  1  0  0  0  0
 49 63  1  0  0  0  0
 50 63  1  0  0  0  0
 51 65  1  0  0  0  0
 52 66  1  0  0  0  0
 53 67  1  0  0  0  0
 54 67  1  0  0  0  0
 55 67  1  0  0  0  0
 56 78  1  0  0  0  0
 57 77  1  0  0  0  0
 58 59  1  0  0  0  0
 58 62  1  0  0  0  0
 59 66  1  0  0  0  0
 60 61  1  0  0  0  0
 60 66  1  0  0  0  0
 61 69  1  0  0  0  0
 62 85  1  0  0  0  0
 64 67  1  0  0  0  0
 64 76  1  0  0  0  0
 65 78  1  0  0  0  0
 68 70  1  0  0  0  0
M  CHG  1  78   1
M  ISO  4  36 100  62 101  77 100  85 101
M  END
> <Batch ID>
0102

> <Smiles>
CNC(C)C(=O)NC(C(=O)N1Cc2cc([101O:1][101CH2:1]CCC(C)CCn3cc(C[100NH:0][100C:0](=O)N4CCCC(n5nc(-c6ccc(Oc7ccc(F)cc7F)cc6)c(C(N)=O)c5N)C4)c(C(C)C)c3)ccc2CC1C(=O)NC1CCCc2ccccc21)C(C)(C)C

> <Shape>
0.219

> <Color>
0.069

> <Negative vol penalty>
0.000

$$$$

  -OEChem-04052319383D

 84 92  0     1  0  0  0  0  0999 V2000
  -31.0628  -23.1535    9.9258 C   0  0  0  0  0  0  0  0  0  0  0  0
  -30.0607  -22.9595   10.8712 C   0  0  0  0  0  0  0  0  0  0  0  0
  -23.0748   -9.8713   19.9393 C   0  0  0  0  0  0  0  0  0  0  0  0
  -23.8389   -9.8756   22.2313 C   0  0  0  0  0  0  0  0  0  0  0  0
  -32.3945  -23.2364   10.3303 C   0  0  0  0  0  0  0  0  0  0  0  0
  -30.3900  -22.8471   12.2215 C   0  0  0  0  0  0  0  0  0  0  0  0
  -27.1011  -24.8334   16.9905 C   0  0  0  0  0  0  0  0  0  0  0  0
  -22.3323   -8.7172   20.1889 C   0  0  0  0  0  0  0  0  0  0  0  0
  -23.0964   -8.7214   22.4809 C   0  0  0  0  0  0  0  0  0  0  0  0
  -26.2242  -24.1861   17.8599 C   0  0  0  0  0  0  0  0  0  0  0  0
  -19.8700   -7.9201   23.0882 C   0  0  0  0  0  0  0  0  0  0  0  0
  -19.1153   -7.8778   24.2604 C   0  0  0  0  0  0  0  0  0  0  0  0
  -28.0178  -23.9019   19.4478 C   0  0  0  0  0  0  0  0  0  0  0  0
  -27.0323  -18.4657   20.0567 C   0  0  0  0  0  0  0  0  0  0  0  0
  -20.3596   -5.9403   24.9918 C   0  0  0  0  0  0  0  0  0  0  0  0
  -28.3933  -19.0683   21.7462 C   0  0  0  0  0  0  0  0  0  0  0  0
  -23.8281  -10.4505   20.9604 C   0  0  0  0  0  0  0  0  0  0  0  0
  -24.1676  -12.9761   20.8435 C   0  0  0  0  0  0  0  0  0  0  0  0
  -32.7393  -23.1346   11.6872 C   0  0  0  0  0  0  0  0  0  0  0  0
  -28.4477  -25.0105   17.3392 C   0  0  0  0  0  0  0  0  0  0  0  0
  -31.7277  -22.9273   12.6443 C   0  0  0  0  0  0  0  0  0  0  0  0
  -28.9091  -24.5541   18.5822 C   0  0  0  0  0  0  0  0  0  0  0  0
  -27.0947  -19.1521   21.2945 C   0  0  0  0  0  0  0  0  0  0  0  0
  -22.3431   -8.1423   21.4597 C   0  0  0  0  0  0  0  0  0  0  0  0
  -26.6831  -23.7177   19.0875 C   0  0  0  0  0  0  0  0  0  0  0  0
  -20.8695   -6.9724   22.8677 C   0  0  0  0  0  0  0  0  0  0  0  0
  -19.3601   -6.8879   25.2122 C   0  0  0  0  0  0  0  0  0  0  0  0
  -21.1144   -5.9826   23.8195 C   0  0  0  0  0  0  0  0  0  0  0  0
  -24.5957  -11.6424   20.7030 C   0  0  0  0  0  0  0  0  0  0  0  0
  -28.2946  -17.9832   19.7898 C   0  0  0  0  0  0  0  0  0  0  0  0
  -25.2585  -13.7270   20.4793 C   0  0  0  0  0  0  0  0  0  0  0  0
  -22.8975  -13.4902   21.2655 C   0  0  0  0  0  0  0  0  0  0  0  0
  -31.2237  -24.0422   16.1309 C   0  0  0  0  0  0  0  0  0  0  0  0
  -32.4530  -25.9836   18.4205 C   0  0  0  0  0  0  0  0  0  0  0  0
  -32.0330  -27.5473   21.4246 C   0  0  0  0  0  0  0  0  0  0  0  0
  -30.7417  -14.7503   20.6591 C   0  0  0  0  0  0  0  0  0  0  0  0
  -34.1970  -23.1830   12.0714 C   0  0  0  0  0  0  0  0  0  0  0  0
  -29.3747  -25.7344   16.4017 C   0  0  0  0  0  0  0  0  0  0  0  0
  -30.3408  -24.7371   19.0125 C   0  0  0  0  0  0  0  0  0  0  0  0
  -34.4266  -23.4289   13.5604 C   0  0  0  0  0  0  0  0  0  0  0  0
  -29.6017  -12.3684   18.2709 C   0  0  0  0  0  0  0  0  0  0  0  0
  -33.5218  -22.5287   14.3959 C   0  0  0  0  0  0  0  0  0  0  0  0
  -28.1653  -12.0728   18.7060 C   0  0  0  0  0  0  0  0  0  0  0  0
  -30.5209  -12.5882   19.4704 C   0  0  0  0  0  0  0  0  0  0  0  0
  -28.6211  -13.3157   20.8616 C   0  0  0  0  0  0  0  0  0  0  0  0
  -32.0427  -22.8254   14.1210 C   0  0  1  0  0  0  0  0  0  0  0  0
  -30.8446  -25.4037   16.6410 C   0  0  1  0  0  0  0  0  0  0  0  0
  -27.6449  -13.1420   19.6855 C   0  0  2  0  0  0  0  0  0  0  0  0
  -28.7861  -17.2002   18.6372 C   0  0  0  0  0  0  0  0  0  0  0  0
  -24.8876  -18.8100   22.4029 C   0  0  0  0  0  0  0  0  0  0  0  0
  -33.2273  -29.0348   23.0551 C   0  0  0  0  0  0  0  0  0  0  0  0
  -24.1501  -21.6801   21.8531 C   0  0  0  0  0  0  0  0  0  0  0  0
  -34.1186  -23.6077   19.3642 C   0  0  0  0  0  0  0  0  0  0  0  0
  -34.5401  -24.8414   21.5017 C   0  0  0  0  0  0  0  0  0  0  0  0
  -35.3375  -25.7912   19.3373 C   0  0  0  0  0  0  0  0  0  0  0  0
  -30.0012  -29.6809   21.1444 C   0  0  0  0  0  0  0  0  0  0  0  0
  -30.5231  -18.0519   20.9398 C   0  0  0  0  0  0  0  0  0  0  0  0
  -30.8081  -16.8991   21.8990 C   0  0  0  0  0  0  0  0  0  0  0  0
  -26.3871  -22.0938   20.7996 C   0  0  0  0  0  0  0  0  0  1  0  0
  -25.9397  -19.8541   21.9972 C   0  0  2  0  0  0  0  0  0  0  0  0
  -32.8644  -25.8088   19.8624 C   0  0  1  0  0  0  0  0  0  0  0  0
  -32.2892  -28.9790   21.8595 C   0  0  2  0  0  0  0  0  0  0  0  0
  -25.3403  -21.0161   21.1440 C   0  0  1  0  0  0  0  0  0  0  0  0
  -34.1886  -25.0069   20.0078 C   0  0  0  0  0  0  0  0  0  0  0  0
  -25.8599  -11.5482   20.2823 N   0  0  0  0  0  0  0  0  0  0  0  0
  -29.1136  -18.3553   20.8237 N   0  0  0  0  0  0  0  0  0  0  0  0
  -26.2355  -12.8323   20.1551 N   0  0  0  0  0  0  0  0  0  0  0  0
  -31.2099  -25.4455   18.0584 N   0  0  0  0  0  0  0  0  0  0  0  0
  -29.9711  -13.6150   20.3589 N   0  0  0  0  0  0  0  0  0  0  0  0
  -25.4677  -15.0588   20.4079 N   0  0  0  0  0  0  0  0  0  0  0  0
  -21.8870  -12.5797   21.6033 N   0  0  0  0  0  0  0  0  0  0  0  0
  -31.6321  -24.0296   14.8108 N   0  0  0  0  0  0  0  0  0  0  0  0
  -32.9106  -27.1482   20.4389 N   0  0  0  0  0  0  0  0  0  0  0  0
  -30.1434  -15.6774   21.5036 N   0  0  0  0  0  0  0  0  0  0  0  0
  -31.0090  -29.6432   22.2352 N   0  3  0  0  0  0  0  0  0  0  0  0
  -22.6604  -14.7206   21.3251 O   0  0  0  0  0  0  0  0  0  0  0  0
  -31.1525  -23.0749   16.8799 O   0  0  0  0  0  0  0  0  0  0  0  0
  -33.2035  -26.5819   17.6456 O   0  0  0  0  0  0  0  0  0  0  0  0
  -31.1457  -26.8514   21.9134 O   0  0  0  0  0  0  0  0  0  0  0  0
  -31.8767  -14.9274   20.2036 O   0  0  0  0  0  0  0  0  0  0  0  0
  -21.6185   -7.0162   21.7037 O   0  0  0  0  0  0  0  0  0  0  0  0
  -25.8294  -23.0850   19.9377 O   0  0  0  0  0  0  0  0  0  1  0  0
  -18.6362   -6.8484   26.3386 F   0  0  0  0  0  0  0  0  0  0  0  0
  -22.0741   -5.0702   23.6137 F   0  0  0  0  0  0  0  0  0  0  0  0
  1  2  1  0  0  0  0
  1  5  2  0  0  0  0
  2  6  2  0  0  0  0
  3  8  2  0  0  0  0
  3 17  1  0  0  0  0
  4  9  1  0  0  0  0
  4 17  2  0  0  0  0
  5 19  1  0  0  0  0
  6 21  1  0  0  0  0
  7 10  2  0  0  0  0
  7 20  1  0  0  0  0
  8 24  1  0  0  0  0
  9 24  2  0  0  0  0
 10 25  1  0  0  0  0
 11 12  2  0  0  0  0
 11 26  1  0  0  0  0
 12 27  1  0  0  0  0
 13 22  1  0  0  0  0
 13 25  2  0  0  0  0
 14 23  1  0  0  0  0
 14 30  2  0  0  0  0
 15 27  2  0  0  0  0
 15 28  1  0  0  0  0
 16 23  2  0  0  0  0
 16 66  1  0  0  0  0
 17 29  1  0  0  0  0
 18 29  1  0  0  0  0
 18 31  2  0  0  0  0
 18 32  1  0  0  0  0
 19 21  2  0  0  0  0
 19 37  1  0  0  0  0
 20 22  2  0  0  0  0
 20 38  1  0  0  0  0
 21 46  1  0  0  0  0
 22 39  1  0  0  0  0
 23 60  1  0  0  0  0
 24 81  1  0  0  0  0
 25 82  1  0  0  0  0
 26 28  2  0  0  0  0
 26 81  1  0  0  0  0
 27 83  1  0  0  0  0
 28 84  1  0  0  0  0
 29 65  2  0  0  0  0
 30 49  1  0  0  0  0
 30 66  1  0  0  0  0
 31 67  1  0  0  0  0
 31 70  1  0  0  0  0
 32 71  1  0  0  0  0
 32 76  2  0  0  0  0
 33 47  1  0  0  0  0
 33 72  1  0  0  0  0
 33 77  2  0  0  0  0
 34 61  1  0  0  0  0
 34 68  1  0  0  0  0
 34 78  2  0  0  0  0
 35 62  1  0  0  0  0
 35 73  1  0  0  0  0
 35 79  2  0  0  0  0
 36 69  1  0  0  0  0
 36 74  1  0  0  0  0
 36 80  2  0  0  0  0
 37 40  1  0  0  0  0
 38 47  1  0  0  0  0
 39 68  1  0  0  0  0
 40 42  1  0  0  0  0
 41 43  1  0  0  0  0
 41 44  1  0  0  0  0
 42 46  1  0  0  0  0
 43 48  1  0  0  0  0
 44 69  1  0  0  0  0
 45 48  1  0  0  0  0
 45 69  1  0  0  0  0
 46 72  1  0  0  0  0
 47 68  1  0  0  0  0
 48 67  1  0  0  0  0
 50 60  1  0  0  0  0
 51 62  1  0  0  0  0
 52 63  1  0  0  0  0
 53 64  1  0  0  0  0
 54 64  1  0  0  0  0
 55 64  1  0  0  0  0
 56 75  1  0  0  0  0
 57 58  1  0  0  0  0
 57 66  1  0  0  0  0
 58 74  1  0  0  0  0
 59 63  1  0  0  0  0
 59 82  1  0  0  0  0
 60 63  1  0  0  0  0
 61 64  1  0  0  0  0
 61 73  1  0  0  0  0
 62 75  1  0  0  0  0
 65 67  1  0  0  0  0
M  CHG  1  75   1
M  ISO  4  36 100  59 101  74 100  82 101
M  END
> <Batch ID>
0102

> <Smiles>
CNC(C)C(=O)NC(C(=O)N1Cc2cc([101O:1][101CH2:1]C(C)C(C)c3cc(C)n(CC[100NH:0][100C:0](=O)N4CCCC(n5nc(-c6ccc(Oc7ccc(F)cc7F)cc6)c(C(N)=O)c5N)C4)c3)ccc2CC1C(=O)NC1CCCc2ccccc21)C(C)(C)C

> <Shape>
0.242

> <Color>
0.191

> <Negative vol penalty>
0.000

$$$$

  -OEChem-04052319383D

 81 89  0     1  0  0  0  0  0999 V2000
  -30.8435  -27.3689   14.4957 C   0  0  0  0  0  0  0  0  0  0  0  0
  -30.1217  -26.6888   15.4714 C   0  0  0  0  0  0  0  0  0  0  0  0
  -22.6598   -9.9977   20.4680 C   0  0  0  0  0  0  0  0  0  0  0  0
  -24.5145   -8.7954   21.4436 C   0  0  0  0  0  0  0  0  0  0  0  0
  -31.4190  -28.6042   14.7901 C   0  0  0  0  0  0  0  0  0  0  0  0
  -29.9760  -27.2433   16.7426 C   0  0  0  0  0  0  0  0  0  0  0  0
  -25.2323  -26.8969   18.4810 C   0  0  0  0  0  0  0  0  0  0  0  0
  -21.7833   -9.3547   21.3418 C   0  0  0  0  0  0  0  0  0  0  0  0
  -23.6379   -8.1524   22.3175 C   0  0  0  0  0  0  0  0  0  0  0  0
  -24.8263  -25.6607   18.9816 C   0  0  0  0  0  0  0  0  0  0  0  0
  -21.4475   -5.5795   22.2035 C   0  0  0  0  0  0  0  0  0  0  0  0
  -21.5999   -4.2041   22.3787 C   0  0  0  0  0  0  0  0  0  0  0  0
  -25.1985  -26.4551   21.2287 C   0  0  0  0  0  0  0  0  0  0  0  0
  -21.9963   -4.5484   24.7369 C   0  0  0  0  0  0  0  0  0  0  0  0
  -24.0255   -9.7181   20.5188 C   0  0  0  0  0  0  0  0  0  0  0  0
  -24.9132  -10.3381   18.2090 C   0  0  0  0  0  0  0  0  0  0  0  0
  -31.2721  -29.1786   16.0626 C   0  0  0  0  0  0  0  0  0  0  0  0
  -25.6355  -27.9197   19.3515 C   0  0  0  0  0  0  0  0  0  0  0  0
  -30.5512  -28.4868   17.0547 C   0  0  0  0  0  0  0  0  0  0  0  0
  -25.6067  -27.7043   20.7368 C   0  0  0  0  0  0  0  0  0  0  0  0
  -22.2723   -8.4320   22.2666 C   0  0  0  0  0  0  0  0  0  0  0  0
  -24.8121  -25.4386   20.3555 C   0  0  0  0  0  0  0  0  0  0  0  0
  -21.5696   -6.4393   23.2950 C   0  0  0  0  0  0  0  0  0  0  0  0
  -21.8742   -3.6885   23.6454 C   0  0  0  0  0  0  0  0  0  0  0  0
  -21.8439   -5.9238   24.5618 C   0  0  0  0  0  0  0  0  0  0  0  0
  -24.9314  -10.3816   19.6159 C   0  0  0  0  0  0  0  0  0  0  0  0
  -25.9707  -11.1271   17.8273 C   0  0  0  0  0  0  0  0  0  0  0  0
  -24.0201   -9.6464   17.3260 C   0  0  0  0  0  0  0  0  0  0  0  0
  -25.8307  -21.6626   21.0154 C   0  0  0  0  0  0  0  0  0  0  0  0
  -28.3334  -29.5345   19.8181 C   0  0  0  0  0  0  0  0  0  0  0  0
  -26.4958  -31.2473   21.8704 C   0  0  0  0  0  0  0  0  0  0  0  0
  -23.9524  -30.5542   24.3337 C   0  0  0  0  0  0  0  0  0  0  0  0
  -28.8418  -15.6612   20.4824 C   0  0  0  0  0  0  0  0  0  0  0  0
  -31.9523  -30.4940   16.3482 C   0  0  0  0  0  0  0  0  0  0  0  0
  -26.0452  -29.2564   18.7968 C   0  0  0  0  0  0  0  0  0  0  0  0
  -26.0106  -28.7763   21.7145 C   0  0  0  0  0  0  0  0  0  0  0  0
  -31.4348  -31.1868   17.6061 C   0  0  0  0  0  0  0  0  0  0  0  0
  -30.2663  -12.6112   19.3226 C   0  0  0  0  0  0  0  0  0  0  0  0
  -31.3381  -30.1946   18.7606 C   0  0  0  0  0  0  0  0  0  0  0  0
  -26.0395  -19.6488   19.5975 C   0  0  0  0  0  0  0  0  0  0  0  0
  -27.1299  -19.7430   21.8762 C   0  0  0  0  0  0  0  0  0  0  0  0
  -29.0589  -11.6900   19.1393 C   0  0  0  0  0  0  0  0  0  0  0  0
  -26.2408  -18.1347   19.5632 C   0  0  0  0  0  0  0  0  0  0  0  0
  -27.3328  -18.2291   21.8425 C   0  0  0  0  0  0  0  0  0  0  0  0
  -30.0987  -13.5272   20.5330 C   0  0  0  0  0  0  0  0  0  0  0  0
  -27.6438  -13.3925   20.3631 C   0  0  0  0  0  0  0  0  0  0  0  0
  -30.3501  -29.0671   18.4378 C   0  0  1  0  0  0  0  0  0  0  0  0
  -25.9281  -20.1681   21.0315 C   0  0  0  0  0  0  0  0  0  0  0  0
  -26.9256  -30.0556   19.7527 C   0  0  1  0  0  0  0  0  0  0  0  0
  -27.7417  -12.4887   19.1222 C   0  0  2  0  0  0  0  0  0  0  0  0
  -27.4465  -17.7122   20.4065 C   0  0  0  0  0  0  0  0  0  0  0  0
  -22.0678  -31.9797   25.1786 C   0  0  0  0  0  0  0  0  0  0  0  0
  -28.4566  -32.0246   24.0752 C   0  0  0  0  0  0  0  0  0  0  0  0
  -26.5449  -31.9899   25.6915 C   0  0  0  0  0  0  0  0  0  0  0  0
  -26.5352  -33.5989   23.7853 C   0  0  0  0  0  0  0  0  0  0  0  0
  -21.9381  -28.4921   23.6633 C   0  0  0  0  0  0  0  0  0  0  0  0
  -25.0170  -22.2909   22.1357 C   0  0  0  0  0  0  0  0  0  0  0  0
  -24.9999  -23.8106   22.0789 C   0  0  0  0  0  0  0  0  0  1  0  0
  -26.1460  -31.1417   23.3351 C   0  0  1  0  0  0  0  0  0  0  0  0
  -22.4711  -30.8672   24.2233 C   0  0  2  0  0  0  0  0  0  0  0  0
  -26.9270  -32.1657   24.2063 C   0  0  0  0  0  0  0  0  0  0  0  0
  -25.9221  -11.1382   20.0956 N   0  0  0  0  0  0  0  0  0  0  0  0
  -26.5362  -11.5774   18.9838 N   0  0  0  0  0  0  0  0  0  0  0  0
  -26.4094  -30.0642   21.1230 N   0  0  0  0  0  0  0  0  0  0  0  0
  -28.8309  -14.2569   20.4547 N   0  0  0  0  0  0  0  0  0  0  0  0
  -26.4627  -11.4726   16.6186 N   0  0  0  0  0  0  0  0  0  0  0  0
  -24.3453   -8.3403   16.9353 N   0  0  0  0  0  0  0  0  0  0  0  0
  -28.9876  -29.5269   18.6010 N   0  0  0  0  0  0  0  0  0  0  0  0
  -24.6952  -31.2698   23.4186 N   0  0  0  0  0  0  0  0  0  0  0  0
  -27.5978  -16.2742   20.3971 N   0  0  0  0  0  0  0  0  0  0  0  0
  -21.6609  -29.6576   24.5418 N   0  3  0  0  0  0  0  0  0  0  0  0
  -22.9733  -10.1770   16.8830 O   0  0  0  0  0  0  0  0  0  0  0  0
  -26.3841  -22.3233   20.1379 O   0  0  0  0  0  0  0  0  0  0  0  0
  -28.7926  -29.1678   20.8934 O   0  0  0  0  0  0  0  0  0  0  0  0
  -26.8264  -32.3408   21.4049 O   0  0  0  0  0  0  0  0  0  0  0  0
  -24.4056  -29.7575   25.1525 O   0  0  0  0  0  0  0  0  0  0  0  0
  -29.8835  -16.3200   20.5707 O   0  0  0  0  0  0  0  0  0  0  0  0
  -21.4172   -7.8045   23.1196 O   0  0  0  0  0  0  0  0  0  0  0  0
  -24.4168  -24.2327   20.8467 O   0  0  0  0  0  0  0  0  0  1  0  0
  -22.0190   -2.3676   23.8137 F   0  0  0  0  0  0  0  0  0  0  0  0
  -21.9611   -6.7448   25.6144 F   0  0  0  0  0  0  0  0  0  0  0  0
  1  2  1  0  0  0  0
  1  5  2  0  0  0  0
  2  6  2  0  0  0  0
  3  8  2  0  0  0  0
  3 15  1  0  0  0  0
  4  9  1  0  0  0  0
  4 15  2  0  0  0  0
  5 17  1  0  0  0  0
  6 19  1  0  0  0  0
  7 10  2  0  0  0  0
  7 18  1  0  0  0  0
  8 21  1  0  0  0  0
  9 21  2  0  0  0  0
 10 22  1  0  0  0  0
 11 12  2  0  0  0  0
 11 23  1  0  0  0  0
 12 24  1  0  0  0  0
 13 20  1  0  0  0  0
 13 22  2  0  0  0  0
 14 24  2  0  0  0  0
 14 25  1  0  0  0  0
 15 26  1  0  0  0  0
 16 26  1  0  0  0  0
 16 27  2  0  0  0  0
 16 28  1  0  0  0  0
 17 19  2  0  0  0  0
 17 34  1  0  0  0  0
 18 20  2  0  0  0  0
 18 35  1  0  0  0  0
 19 47  1  0  0  0  0
 20 36  1  0  0  0  0
 21 78  1  0  0  0  0
 22 79  1  0  0  0  0
 23 25  2  0  0  0  0
 23 78  1  0  0  0  0
 24 80  1  0  0  0  0
 25 81  1  0  0  0  0
 26 62  2  0  0  0  0
 27 63  1  0  0  0  0
 27 66  1  0  0  0  0
 28 67  1  0  0  0  0
 28 72  2  0  0  0  0
 29 48  1  0  0  0  0
 29 57  1  0  0  0  0
 29 73  2  0  0  0  0
 30 49  1  0  0  0  0
 30 68  1  0  0  0  0
 30 74  2  0  0  0  0
 31 59  1  0  0  0  0
 31 64  1  0  0  0  0
 31 75  2  0  0  0  0
 32 60  1  0  0  0  0
 32 69  1  0  0  0  0
 32 76  2  0  0  0  0
 33 65  1  0  0  0  0
 33 70  1  0  0  0  0
 33 77  2  0  0  0  0
 34 37  1  0  0  0  0
 35 49  1  0  0  0  0
 36 64  1  0  0  0  0
 37 39  1  0  0  0  0
 38 42  1  0  0  0  0
 38 45  1  0  0  0  0
 39 47  1  0  0  0  0
 40 43  1  0  0  0  0
 40 48  1  0  0  0  0
 41 44  1  0  0  0  0
 41 48  1  0  0  0  0
 42 50  1  0  0  0  0
 43 51  1  0  0  0  0
 44 51  1  0  0  0  0
 45 65  1  0  0  0  0
 46 50  1  0  0  0  0
 46 65  1  0  0  0  0
 47 68  1  0  0  0  0
 49 64  1  0  0  0  0
 50 63  1  0  0  0  0
 51 70  1  0  0  0  0
 52 60  1  0  0  0  0
 53 61  1  0  0  0  0
 54 61  1  0  0  0  0
 55 61  1  0  0  0  0
 56 71  1  0  0  0  0
 57 58  1  0  0  0  0
 58 79  1  0  0  0  0
 59 61  1  0  0  0  0
 59 69  1  0  0  0  0
 60 71  1  0  0  0  0
 62 63  1  0  0  0  0
M  CHG  1  71   1
M  ISO  4  33 100  58 101  70 100  79 101
M  END
> <Batch ID>
0102

> <Smiles>
CNC(C)C(=O)NC(C(=O)N1Cc2cc([101O:1][101CH2:1]CC(=O)C3CCC([100NH:0][100C:0](=O)N4CCCC(n5nc(-c6ccc(Oc7ccc(F)cc7F)cc6)c(C(N)=O)c5N)C4)CC3)ccc2CC1C(=O)NC1CCCc2ccccc21)C(C)(C)C

> <Shape>
0.245

> <Color>
0.084

> <Negative vol penalty>
0.000

$$$$

  -OEChem-04052319383D

 82 90  0     1  0  0  0  0  0999 V2000
  -21.8434  -12.2572   22.5679 C   0  0  0  0  0  0  0  0  0  0  0  0
  -22.5275  -13.2722   23.2291 C   0  0  0  0  0  0  0  0  0  0  0  0
  -24.6003  -28.4684   20.3336 C   0  0  0  0  0  0  0  0  0  0  0  0
  -24.2389  -28.8263   22.6955 C   0  0  0  0  0  0  0  0  0  0  0  0
  -22.4245  -11.6285   21.4674 C   0  0  0  0  0  0  0  0  0  0  0  0
  -23.7936  -13.6585   22.7907 C   0  0  0  0  0  0  0  0  0  0  0  0
  -24.3342  -18.6903   22.6065 C   0  0  0  0  0  0  0  0  0  0  0  0
  -23.2456  -28.6965   20.0918 C   0  0  0  0  0  0  0  0  0  0  0  0
  -22.8842  -29.0545   22.4536 C   0  0  0  0  0  0  0  0  0  0  0  0
  -24.5583  -19.3512   23.8134 C   0  0  0  0  0  0  0  0  0  0  0  0
  -20.1157  -27.2094   21.8522 C   0  0  0  0  0  0  0  0  0  0  0  0
  -19.1935  -26.5915   22.6969 C   0  0  0  0  0  0  0  0  0  0  0  0
  -26.9163  -19.4504   23.3142 C   0  0  0  0  0  0  0  0  0  0  0  0
  -26.0008  -22.5993   27.2655 C   0  0  0  0  0  0  0  0  0  0  0  0
  -18.3402  -28.7559   23.3485 C   0  0  0  0  0  0  0  0  0  0  0  0
  -25.5338  -21.4381   29.6901 C   0  0  0  0  0  0  0  0  0  0  0  0
  -25.0969  -28.5333   21.6355 C   0  0  0  0  0  0  0  0  0  0  0  0
  -27.5302  -29.2522   21.8997 C   0  0  0  0  0  0  0  0  0  0  0  0
  -23.6943  -12.0139   21.0094 C   0  0  0  0  0  0  0  0  0  0  0  0
  -25.4027  -18.3943   21.7479 C   0  0  0  0  0  0  0  0  0  0  0  0
  -24.3928  -13.0336   21.6839 C   0  0  0  0  0  0  0  0  0  0  0  0
  -26.7027  -18.7879   22.0958 C   0  0  0  0  0  0  0  0  0  0  0  0
  -26.3985  -23.2565   28.4244 C   0  0  0  0  0  0  0  0  0  0  0  0
  -26.1642  -22.6716   29.6639 C   0  0  0  0  0  0  0  0  0  0  0  0
  -22.3876  -28.9895   21.1517 C   0  0  0  0  0  0  0  0  0  0  0  0
  -25.8499  -19.7288   24.1688 C   0  0  0  0  0  0  0  0  0  0  0  0
  -20.1502  -28.6005   21.7557 C   0  0  0  0  0  0  0  0  0  0  0  0
  -18.3058  -27.3648   23.4450 C   0  0  0  0  0  0  0  0  0  0  0  0
  -19.2624  -29.3738   22.5038 C   0  0  0  0  0  0  0  0  0  0  0  0
  -26.4960  -28.2972   21.8860 C   0  0  0  0  0  0  0  0  0  0  0  0
  -25.3779  -21.3689   27.3991 C   0  0  0  0  0  0  0  0  0  0  0  0
  -28.6624  -28.5283   22.1835 C   0  0  0  0  0  0  0  0  0  0  0  0
  -27.4725  -30.6673   21.6760 C   0  0  0  0  0  0  0  0  0  0  0  0
  -26.6877  -15.7210   20.6051 C   0  0  0  0  0  0  0  0  0  0  0  0
  -28.4733  -17.7887   18.8562 C   0  0  0  0  0  0  0  0  0  0  0  0
  -29.7871  -20.9212   18.5273 C   0  0  0  0  0  0  0  0  0  0  0  0
  -29.5756  -23.3263   25.0042 C   0  0  0  0  0  0  0  0  0  0  0  0
  -24.3016  -11.2729   19.8446 C   0  0  0  0  0  0  0  0  0  0  0  0
  -25.1407  -17.7046   20.4372 C   0  0  0  0  0  0  0  0  0  0  0  0
  -27.8814  -18.5117   21.1998 C   0  0  0  0  0  0  0  0  0  0  0  0
  -25.4881  -11.9972   19.2139 C   0  0  0  0  0  0  0  0  0  0  0  0
  -30.5355  -24.1550   21.6773 C   0  0  0  0  0  0  0  0  0  0  0  0
  -26.4463  -12.4921   20.2927 C   0  0  0  0  0  0  0  0  0  0  0  0
  -29.7024  -25.3967   21.3547 C   0  0  0  0  0  0  0  0  0  0  0  0
  -29.7585  -23.1623   22.5392 C   0  0  0  0  0  0  0  0  0  0  0  0
  -28.3561  -24.9710   23.4536 C   0  0  0  0  0  0  0  0  0  0  0  0
  -25.7575  -13.4976   21.2232 C   0  0  1  0  0  0  0  0  0  0  0  0
  -26.3711  -16.9971   19.8778 C   0  0  1  0  0  0  0  0  0  0  0  0
  -29.1167  -26.0265   22.6329 C   0  0  2  0  0  0  0  0  0  0  0  0
  -26.5688  -23.3319   30.9360 C   0  0  0  0  0  0  0  0  0  0  0  0
  -31.2354  -22.3008   17.0119 C   0  0  0  0  0  0  0  0  0  0  0  0
  -30.9483  -16.3585   19.9236 C   0  0  0  0  0  0  0  0  0  0  0  0
  -32.3178  -18.3143   19.1701 C   0  0  0  0  0  0  0  0  0  0  0  0
  -31.0555  -16.9597   17.4984 C   0  0  0  0  0  0  0  0  0  0  0  0
  -27.6042  -22.8506   18.0062 C   0  0  0  0  0  0  0  0  0  0  0  0
  -27.0728  -24.5838   28.3146 C   0  0  0  0  0  0  0  0  0  0  0  0
  -24.9349  -20.6310   26.1700 C   0  0  0  0  0  0  0  0  0  1  0  0
  -28.6056  -24.5335   28.4634 C   0  0  0  0  0  0  0  0  0  0  0  0
  -29.3062  -23.6279   27.4528 C   0  0  0  0  0  0  0  0  0  0  0  0
  -29.7910  -18.4975   19.0567 C   0  0  1  0  0  0  0  0  0  0  0  0
  -29.8134  -21.8844   17.3543 C   0  0  2  0  0  0  0  0  0  0  0  0
  -31.0064  -17.5361   18.9302 C   0  0  0  0  0  0  0  0  0  0  0  0
  -25.1331  -20.7692   28.5857 N   0  0  0  0  0  0  0  0  0  0  0  0
  -26.9326  -27.0608   22.1407 N   0  0  0  0  0  0  0  0  0  0  0  0
  -28.2536  -27.2340   22.3170 N   0  0  0  0  0  0  0  0  0  0  0  0
  -27.5748  -17.8293   19.9318 N   0  0  0  0  0  0  0  0  0  0  0  0
  -29.2312  -23.8224   23.7360 N   0  0  0  0  0  0  0  0  0  0  0  0
  -29.9578  -28.8790   22.3293 N   0  0  0  0  0  0  0  0  0  0  0  0
  -26.2286  -31.2494   21.3967 N   0  0  0  0  0  0  0  0  0  0  0  0
  -25.6635  -14.7936   20.5860 N   0  0  0  0  0  0  0  0  0  0  0  0
  -29.8058  -19.6072   18.1097 N   0  0  0  0  0  0  0  0  0  0  0  0
  -29.0382  -24.0141   26.0854 N   0  0  0  0  0  0  0  0  0  0  0  0
  -29.0285  -23.1105   17.6731 N   0  3  0  0  0  0  0  0  0  0  0  0
  -28.4963  -31.3915   21.7062 O   0  0  0  0  0  0  0  0  0  0  0  0
  -27.7809  -15.5871   21.1425 O   0  0  0  0  0  0  0  0  0  0  0  0
  -28.2467  -17.2259   17.7822 O   0  0  0  0  0  0  0  0  0  0  0  0
  -29.7570  -21.2969   19.6971 O   0  0  0  0  0  0  0  0  0  0  0  0
  -30.3121  -22.3466   25.1614 O   0  0  0  0  0  0  0  0  0  0  0  0
  -21.0657  -29.2124   20.9161 O   0  0  0  0  0  0  0  0  0  0  0  0
  -26.0715  -20.3735   25.3466 O   0  0  0  0  0  0  0  0  0  1  0  0
  -17.4193  -26.7713   24.2550 F   0  0  0  0  0  0  0  0  0  0  0  0
  -19.2900  -30.7106   22.4144 F   0  0  0  0  0  0  0  0  0  0  0  0
  1  2  1  0  0  0  0
  1  5  2  0  0  0  0
  2  6  2  0  0  0  0
  3  8  2  0  0  0  0
  3 17  1  0  0  0  0
  4  9  1  0  0  0  0
  4 17  2  0  0  0  0
  5 19  1  0  0  0  0
  6 21  1  0  0  0  0
  7 10  2  0  0  0  0
  7 20  1  0  0  0  0
  8 25  1  0  0  0  0
  9 25  2  0  0  0  0
 10 26  1  0  0  0  0
 11 12  2  0  0  0  0
 11 27  1  0  0  0  0
 12 28  1  0  0  0  0
 13 22  1  0  0  0  0
 13 26  2  0  0  0  0
 14 23  2  0  0  0  0
 14 31  1  0  0  0  0
 15 28  2  0  0  0  0
 15 29  1  0  0  0  0
 16 24  2  0  0  0  0
 16 63  1  0  0  0  0
 17 30  1  0  0  0  0
 18 30  1  0  0  0  0
 18 32  2  0  0  0  0
 18 33  1  0  0  0  0
 19 21  2  0  0  0  0
 19 38  1  0  0  0  0
 20 22  2  0  0  0  0
 20 39  1  0  0  0  0
 21 47  1  0  0  0  0
 22 40  1  0  0  0  0
 23 24  1  0  0  0  0
 23 56  1  0  0  0  0
 24 50  1  0  0  0  0
 25 79  1  0  0  0  0
 26 80  1  0  0  0  0
 27 29  2  0  0  0  0
 27 79  1  0  0  0  0
 28 81  1  0  0  0  0
 29 82  1  0  0  0  0
 30 64  2  0  0  0  0
 31 57  1  0  0  0  0
 31 63  2  0  0  0  0
 32 65  1  0  0  0  0
 32 68  1  0  0  0  0
 33 69  1  0  0  0  0
 33 74  2  0  0  0  0
 34 48  1  0  0  0  0
 34 70  1  0  0  0  0
 34 75  2  0  0  0  0
 35 60  1  0  0  0  0
 35 66  1  0  0  0  0
 35 76  2  0  0  0  0
 36 61  1  0  0  0  0
 36 71  1  0  0  0  0
 36 77  2  0  0  0  0
 37 67  1  0  0  0  0
 37 72  1  0  0  0  0
 37 78  2  0  0  0  0
 38 41  1  0  0  0  0
 39 48  1  0  0  0  0
 40 66  1  0  0  0  0
 41 43  1  0  0  0  0
 42 44  1  0  0  0  0
 42 45  1  0  0  0  0
 43 47  1  0  0  0  0
 44 49  1  0  0  0  0
 45 67  1  0  0  0  0
 46 49  1  0  0  0  0
 46 67  1  0  0  0  0
 47 70  1  0  0  0  0
 48 66  1  0  0  0  0
 49 65  1  0  0  0  0
 51 61  1  0  0  0  0
 52 62  1  0  0  0  0
 53 62  1  0  0  0  0
 54 62  1  0  0  0  0
 55 73  1  0  0  0  0
 56 58  1  0  0  0  0
 57 80  1  0  0  0  0
 58 59  1  0  0  0  0
 59 72  1  0  0  0  0
 60 62  1  0  0  0  0
 60 71  1  0  0  0  0
 61 73  1  0  0  0  0
 64 65  1  0  0  0  0
M  CHG  1  73   1
M  ISO  4  37 100  57 101  72 100  80 101
M  END
> <Batch ID>
0102

> <Smiles>
CNC(C)C(=O)NC(C(=O)N1Cc2cc([101O:1][101CH2:1]c3cc(CCC[100NH:0][100C:0](=O)N4CCCC(n5nc(-c6ccc(Oc7ccc(F)cc7F)cc6)c(C(N)=O)c5N)C4)c(C)cn3)ccc2CC1C(=O)NC1CCCc2ccccc21)C(C)(C)C

> <Shape>
0.200

> <Color>
0.057

> <Negative vol penalty>
0.000

$$$$

  -OEChem-04052319383D

 81 89  0     1  0  0  0  0  0999 V2000
  -23.6205  -22.5043   18.4037 C   0  0  0  0  0  0  0  0  0  0  0  0
  -24.5969  -21.6690   17.8704 C   0  0  0  0  0  0  0  0  0  0  0  0
  -25.4703  -26.7081   20.7974 C   0  0  0  0  0  0  0  0  0  0  0  0
  -26.6328  -26.6976   22.9153 C   0  0  0  0  0  0  0  0  0  0  0  0
  -23.1098  -22.2538   19.6766 C   0  0  0  0  0  0  0  0  0  0  0  0
  -25.0640  -20.5833   18.6103 C   0  0  0  0  0  0  0  0  0  0  0  0
  -27.5176  -13.9042   17.7818 C   0  0  0  0  0  0  0  0  0  0  0  0
  -24.3826  -27.3424   21.3975 C   0  0  0  0  0  0  0  0  0  0  0  0
  -25.5451  -27.3320   23.5155 C   0  0  0  0  0  0  0  0  0  0  0  0
  -28.5985  -13.1013   18.1433 C   0  0  0  0  0  0  0  0  0  0  0  0
  -21.4461  -29.2890   22.2933 C   0  0  0  0  0  0  0  0  0  0  0  0
  -20.8690  -30.3645   21.6180 C   0  0  0  0  0  0  0  0  0  0  0  0
  -27.5863  -12.7197   20.2994 C   0  0  0  0  0  0  0  0  0  0  0  0
  -22.9744  -31.5466   21.7015 C   0  0  0  0  0  0  0  0  0  0  0  0
  -30.9242  -13.9975   21.8863 C   0  0  0  0  0  0  0  0  0  0  0  0
  -32.3004  -15.9806   20.7459 C   0  0  0  0  0  0  0  0  0  0  0  0
  -26.5954  -26.3856   21.5563 C   0  0  0  0  0  0  0  0  0  0  0  0
  -28.8317  -26.3421   20.3296 C   0  0  0  0  0  0  0  0  0  0  0  0
  -23.5639  -21.1589   20.4286 C   0  0  0  0  0  0  0  0  0  0  0  0
  -26.4664  -14.1301   18.6820 C   0  0  0  0  0  0  0  0  0  0  0  0
  -24.5598  -20.3187   19.8950 C   0  0  0  0  0  0  0  0  0  0  0  0
  -26.4920  -13.5238   19.9461 C   0  0  0  0  0  0  0  0  0  0  0  0
  -24.4200  -27.6544   22.7566 C   0  0  0  0  0  0  0  0  0  0  0  0
  -28.6344  -12.5112   19.4033 C   0  0  0  0  0  0  0  0  0  0  0  0
  -22.7873  -29.3424   22.6728 C   0  0  0  0  0  0  0  0  0  0  0  0
  -21.6331  -31.4933   21.3221 C   0  0  0  0  0  0  0  0  0  0  0  0
  -23.5514  -30.4712   22.3769 C   0  0  0  0  0  0  0  0  0  0  0  0
  -27.7190  -25.7299   20.9370 C   0  0  0  0  0  0  0  0  0  0  0  0
  -31.7757  -13.7564   20.8307 C   0  0  0  0  0  0  0  0  0  0  0  0
  -31.4483  -16.2219   21.8010 C   0  0  0  0  0  0  0  0  0  0  0  0
  -29.6079  -25.2939   19.8993 C   0  0  0  0  0  0  0  0  0  0  0  0
  -29.1363  -27.7339   20.1688 C   0  0  0  0  0  0  0  0  0  0  0  0
  -25.2496  -16.6951   20.1117 C   0  0  0  0  0  0  0  0  0  0  0  0
  -23.0159  -14.5803   21.1416 C   0  0  0  0  0  0  0  0  0  0  0  0
  -22.1971  -11.3419   21.8410 C   0  0  0  0  0  0  0  0  0  0  0  0
  -30.1123  -19.7298   21.8076 C   0  0  0  0  0  0  0  0  0  0  0  0
  -23.0161  -20.9559   21.8190 C   0  0  0  0  0  0  0  0  0  0  0  0
  -25.2947  -14.9772   18.2671 C   0  0  0  0  0  0  0  0  0  0  0  0
  -25.3787  -13.7184   20.9416 C   0  0  0  0  0  0  0  0  0  0  0  0
  -23.2945  -19.5664   22.3866 C   0  0  0  0  0  0  0  0  0  0  0  0
  -29.2847  -20.7487   18.4350 C   0  0  0  0  0  0  0  0  0  0  0  0
  -24.7510  -19.1770   22.1546 C   0  0  0  0  0  0  0  0  0  0  0  0
  -28.8934  -22.2123   18.6468 C   0  0  0  0  0  0  0  0  0  0  0  0
  -28.8155  -19.8774   19.5964 C   0  0  0  0  0  0  0  0  0  0  0  0
  -28.9011  -21.7894   21.1490 C   0  0  0  0  0  0  0  0  0  0  0  0
  -25.0741  -19.1165   20.6568 C   0  0  1  0  0  0  0  0  0  0  0  0
  -24.5264  -15.5555   19.4514 C   0  0  1  0  0  0  0  0  0  0  0  0
  -29.3670  -22.7260   20.0194 C   0  0  2  0  0  0  0  0  0  0  0  0
  -20.3110   -9.9292   22.7038 C   0  0  0  0  0  0  0  0  0  0  0  0
  -31.4138  -10.8344   18.3585 C   0  0  0  0  0  0  0  0  0  0  0  0
  -23.6045  -15.5323   23.9802 C   0  0  0  0  0  0  0  0  0  0  0  0
  -22.4388  -13.4873   24.8331 C   0  0  0  0  0  0  0  0  0  0  0  0
  -21.1808  -15.1666   23.4840 C   0  0  0  0  0  0  0  0  0  0  0  0
  -22.0424   -9.8024   19.3182 C   0  0  0  0  0  0  0  0  0  0  0  0
  -31.9518  -12.3564   20.2916 C   0  0  0  0  0  0  0  0  0  0  0  0
  -31.2751  -17.6016   22.3325 C   0  0  0  0  0  0  0  0  0  0  0  0
  -22.8732  -13.6757   22.3418 C   0  0  1  0  0  0  0  0  0  0  0  0
  -20.9855  -10.5064   21.4690 C   0  0  2  0  0  0  0  0  0  0  0  0
  -30.9534  -12.0358   19.1742 C   0  0  2  0  0  0  0  0  0  1  0  0
  -22.5464  -14.4632   23.6419 C   0  0  0  0  0  0  0  0  0  0  0  0
  -32.4794  -14.7435   20.2417 N   0  0  0  0  0  0  0  0  0  0  0  0
  -30.7450  -15.2346   22.3902 N   0  0  0  0  0  0  0  0  0  0  0  0
  -27.7792  -24.3961   20.8979 N   0  0  0  0  0  0  0  0  0  0  0  0
  -28.9390  -24.1617   20.2607 N   0  0  0  0  0  0  0  0  0  0  0  0
  -24.2580  -14.5603   20.4914 N   0  0  0  0  0  0  0  0  0  0  0  0
  -29.3156  -20.4101   20.8717 N   0  0  0  0  0  0  0  0  0  0  0  0
  -30.7906  -25.2395   19.2506 N   0  0  0  0  0  0  0  0  0  0  0  0
  -28.2302  -28.6784   20.6700 N   0  0  0  0  0  0  0  0  0  0  0  0
  -24.5614  -17.8930   20.0783 N   0  0  0  0  0  0  0  0  0  0  0  0
  -21.8744  -12.6750   21.9822 N   0  0  0  0  0  0  0  0  0  0  0  0
  -30.4552  -18.4257   21.4725 N   0  0  0  0  0  0  0  0  0  0  0  0
  -21.3869   -9.3781   20.5820 N   0  3  0  0  0  0  0  0  0  0  0  0
  -30.1731  -28.1283   19.5831 O   0  0  0  0  0  0  0  0  0  0  0  0
  -26.3497  -16.5016   20.6155 O   0  0  0  0  0  0  0  0  0  0  0  0
  -22.0583  -15.2736   20.7897 O   0  0  0  0  0  0  0  0  0  0  0  0
  -23.3170  -10.8596   21.9950 O   0  0  0  0  0  0  0  0  0  0  0  0
  -30.4946  -20.2484   22.8622 O   0  0  0  0  0  0  0  0  0  0  0  0
  -23.3590  -28.2736   23.3425 O   0  0  0  0  0  0  0  0  0  0  0  0
  -29.6886  -11.7276   19.7589 O   0  0  0  0  0  0  0  0  0  1  0  0
  -21.0793  -32.5253   20.6723 F   0  0  0  0  0  0  0  0  0  0  0  0
  -24.8408  -30.5278   22.7378 F   0  0  0  0  0  0  0  0  0  0  0  0
  1  2  1  0  0  0  0
  1  5  2  0  0  0  0
  2  6  2  0  0  0  0
  3  8  2  0  0  0  0
  3 17  1  0  0  0  0
  4  9  1  0  0  0  0
  4 17  2  0  0  0  0
  5 19  1  0  0  0  0
  6 21  1  0  0  0  0
  7 10  2  0  0  0  0
  7 20  1  0  0  0  0
  8 23  1  0  0  0  0
  9 23  2  0  0  0  0
 10 24  1  0  0  0  0
 11 12  2  0  0  0  0
 11 25  1  0  0  0  0
 12 26  1  0  0  0  0
 13 22  1  0  0  0  0
 13 24  2  0  0  0  0
 14 26  2  0  0  0  0
 14 27  1  0  0  0  0
 15 29  1  0  0  0  0
 15 62  2  0  0  0  0
 16 30  2  0  0  0  0
 16 61  1  0  0  0  0
 17 28  1  0  0  0  0
 18 28  1  0  0  0  0
 18 31  2  0  0  0  0
 18 32  1  0  0  0  0
 19 21  2  0  0  0  0
 19 37  1  0  0  0  0
 20 22  2  0  0  0  0
 20 38  1  0  0  0  0
 21 46  1  0  0  0  0
 22 39  1  0  0  0  0
 23 78  1  0  0  0  0
 24 79  1  0  0  0  0
 25 27  2  0  0  0  0
 25 78  1  0  0  0  0
 26 80  1  0  0  0  0
 27 81  1  0  0  0  0
 28 63  2  0  0  0  0
 29 55  1  0  0  0  0
 29 61  2  0  0  0  0
 30 56  1  0  0  0  0
 30 62  1  0  0  0  0
 31 64  1  0  0  0  0
 31 67  1  0  0  0  0
 32 68  1  0  0  0  0
 32 73  2  0  0  0  0
 33 47  1  0  0  0  0
 33 69  1  0  0  0  0
 33 74  2  0  0  0  0
 34 57  1  0  0  0  0
 34 65  1  0  0  0  0
 34 75  2  0  0  0  0
 35 58  1  0  0  0  0
 35 70  1  0  0  0  0
 35 76  2  0  0  0  0
 36 66  1  0  0  0  0
 36 71  1  0  0  0  0
 36 77  2  0  0  0  0
 37 40  1  0  0  0  0
 38 47  1  0  0  0  0
 39 65  1  0  0  0  0
 40 42  1  0  0  0  0
 41 43  1  0  0  0  0
 41 44  1  0  0  0  0
 42 46  1  0  0  0  0
 43 48  1  0  0  0  0
 44 66  1  0  0  0  0
 45 48  1  0  0  0  0
 45 66  1  0  0  0  0
 46 69  1  0  0  0  0
 47 65  1  0  0  0  0
 48 64  1  0  0  0  0
 49 58  1  0  0  0  0
 50 59  1  0  0  0  0
 51 60  1  0  0  0  0
 52 60  1  0  0  0  0
 53 60  1  0  0  0  0
 54 72  1  0  0  0  0
 55 59  1  0  0  0  0
 56 71  1  0  0  0  0
 57 60  1  0  0  0  0
 57 70  1  0  0  0  0
 58 72  1  0  0  0  0
 59 79  1  0  0  0  0
 63 64  1  0  0  0  0
M  CHG  1  72   1
M  ISO  4  36 100  59 101  71 100  79 101
M  END
> <Batch ID>
0102

> <Smiles>
CNC(C)C(=O)NC(C(=O)N1Cc2cc([101O:1][101CH:1](C)Cc3cnc(C[100NH:0][100C:0](=O)N4CCCC(n5nc(-c6ccc(Oc7ccc(F)cc7F)cc6)c(C(N)=O)c5N)C4)cn3)ccc2CC1C(=O)NC1CCCc2ccccc21)C(C)(C)C

> <Shape>
0.261

> <Color>
0.075

> <Negative vol penalty>
0.000

$$$$

  -OEChem-04052319383D

 87 95  0     1  0  0  0  0  0999 V2000
  -21.8584  -34.7121   15.3925 C   0  0  0  0  0  0  0  0  0  0  0  0
  -22.7232  -33.6379   15.5761 C   0  0  0  0  0  0  0  0  0  0  0  0
  -26.3344  -12.7993   21.6349 C   0  0  0  0  0  0  0  0  0  0  0  0
  -26.2700  -13.5077   19.3259 C   0  0  0  0  0  0  0  0  0  0  0  0
  -21.7084  -35.6648   16.3994 C   0  0  0  0  0  0  0  0  0  0  0  0
  -23.4393  -33.5164   16.7664 C   0  0  0  0  0  0  0  0  0  0  0  0
  -23.3791  -28.7951   18.5966 C   0  0  0  0  0  0  0  0  0  0  0  0
  -25.0799  -12.2074   21.4883 C   0  0  0  0  0  0  0  0  0  0  0  0
  -25.0156  -12.9157   19.1793 C   0  0  0  0  0  0  0  0  0  0  0  0
  -24.2318  -27.8690   17.9974 C   0  0  0  0  0  0  0  0  0  0  0  0
  -23.8062   -9.3608   20.1817 C   0  0  0  0  0  0  0  0  0  0  0  0
  -23.6282   -8.0806   20.7061 C   0  0  0  0  0  0  0  0  0  0  0  0
  -25.8029  -28.1547   19.8056 C   0  0  0  0  0  0  0  0  0  0  0  0
  -27.8517  -24.2553   19.4058 C   0  0  0  0  0  0  0  0  0  0  0  0
  -21.8759   -8.9140   22.1457 C   0  0  0  0  0  0  0  0  0  0  0  0
  -25.9412  -22.8640   19.1391 C   0  0  0  0  0  0  0  0  0  0  0  0
  -26.9295  -13.4495   20.5537 C   0  0  0  0  0  0  0  0  0  0  0  0
  -29.4795  -13.4617   20.4854 C   0  0  0  0  0  0  0  0  0  0  0  0
  -22.4158  -35.5497   17.6064 C   0  0  0  0  0  0  0  0  0  0  0  0
  -23.7374  -29.4171   19.8013 C   0  0  0  0  0  0  0  0  0  0  0  0
  -23.2997  -34.4692   17.7898 C   0  0  0  0  0  0  0  0  0  0  0  0
  -24.9518  -29.0864   20.4194 C   0  0  0  0  0  0  0  0  0  0  0  0
  -26.7923  -23.8237   18.6153 C   0  0  0  0  0  0  0  0  0  0  0  0
  -28.0251  -23.7214   20.6779 C   0  0  0  0  0  0  0  0  0  0  0  0
  -24.4205  -12.2656   20.2605 C   0  0  0  0  0  0  0  0  0  0  0  0
  -25.4452  -27.5508   18.6004 C   0  0  0  0  0  0  0  0  0  0  0  0
  -23.0191  -10.4176   20.6393 C   0  0  0  0  0  0  0  0  0  0  0  0
  -22.6630   -7.8572   21.6881 C   0  0  0  0  0  0  0  0  0  0  0  0
  -22.0540  -10.1942   21.6212 C   0  0  0  0  0  0  0  0  0  0  0  0
  -28.2251  -14.0617   20.7047 C   0  0  0  0  0  0  0  0  0  0  0  0
  -27.1187  -22.7664   21.1094 C   0  0  0  0  0  0  0  0  0  0  0  0
  -30.3879  -14.4536   20.7635 C   0  0  0  0  0  0  0  0  0  0  0  0
  -29.7954  -12.1270   20.0676 C   0  0  0  0  0  0  0  0  0  0  0  0
  -24.2772  -32.4170   20.7028 C   0  0  0  0  0  0  0  0  0  0  0  0
  -24.4938  -31.0807   23.6507 C   0  0  0  0  0  0  0  0  0  0  0  0
  -25.1061  -28.3011   25.5338 C   0  0  0  0  0  0  0  0  0  0  0  0
  -29.9734  -20.3390   20.5508 C   0  0  0  0  0  0  0  0  0  0  0  0
  -22.2567  -36.6298   18.6469 C   0  0  0  0  0  0  0  0  0  0  0  0
  -22.7944  -30.3940   20.4485 C   0  0  0  0  0  0  0  0  0  0  0  0
  -25.3738  -29.7110   21.7233 C   0  0  0  0  0  0  0  0  0  0  0  0
  -22.7685  -36.2261   20.0273 C   0  0  0  0  0  0  0  0  0  0  0  0
  -30.9393  -18.3837   23.4389 C   0  0  0  0  0  0  0  0  0  0  0  0
  -24.1415  -35.5707   19.9168 C   0  0  0  0  0  0  0  0  0  0  0  0
  -30.4651  -16.9871   23.0331 C   0  0  0  0  0  0  0  0  0  0  0  0
  -29.9662  -19.4581   22.9626 C   0  0  0  0  0  0  0  0  0  0  0  0
  -29.2184  -18.0409   21.0901 C   0  0  0  0  0  0  0  0  0  0  0  0
  -24.0752  -34.2894   19.0768 C   0  0  1  0  0  0  0  0  0  0  0  0
  -23.4923  -31.3496   21.4115 C   0  0  1  0  0  0  0  0  0  0  0  0
  -30.1713  -16.9119   21.5231 C   0  0  2  0  0  0  0  0  0  0  0  0
  -27.2552  -22.1586   22.4672 C   0  0  0  0  0  0  0  0  0  0  0  0
  -25.2461  -27.5280   27.9171 C   0  0  0  0  0  0  0  0  0  0  0  0
  -32.1779  -22.5410   19.6243 C   0  0  0  0  0  0  0  0  0  0  0  0
  -27.2134  -32.4359   23.9281 C   0  0  0  0  0  0  0  0  0  0  0  0
  -27.7043  -30.9023   25.8452 C   0  0  0  0  0  0  0  0  0  0  0  0
  -25.7983  -32.5052   25.9889 C   0  0  0  0  0  0  0  0  0  0  0  0
  -22.9091  -26.3550   25.1532 C   0  0  0  0  0  0  0  0  0  0  0  0
  -27.7467  -25.9134   22.6225 C   0  0  0  0  0  0  0  0  0  0  0  0
  -30.2288  -26.0942   22.7059 C   0  0  0  0  0  0  0  0  0  0  0  0
  -26.5755  -24.3838   17.2305 C   0  0  0  0  0  0  0  0  0  0  0  0
  -30.5655  -24.0032   20.8960 C   0  0  0  0  0  0  0  0  0  0  0  0
  -25.6771  -25.6158   17.2374 C   0  0  0  0  0  0  0  0  0  1  0  0
  -29.1591  -24.1780   21.5293 C   0  0  1  0  0  0  0  0  0  0  0  0
  -25.6100  -30.4880   24.4764 C   0  0  1  0  0  0  0  0  0  0  0  0
  -24.3504  -27.6869   26.6983 C   0  0  2  0  0  0  0  0  0  0  0  0
  -30.7556  -22.6621   20.1650 C   0  0  2  0  0  0  0  0  0  0  0  0
  -26.5747  -31.5724   25.0341 C   0  0  0  0  0  0  0  0  0  0  0  0
  -26.0776  -22.3222   20.3701 N   0  0  0  0  0  0  0  0  0  0  0  0
  -28.3237  -15.3360   21.0924 N   0  0  0  0  0  0  0  0  0  0  0  0
  -29.6510  -15.5449   21.1190 N   0  0  0  0  0  0  0  0  0  0  0  0
  -24.4205  -30.6649   22.3137 N   0  0  0  0  0  0  0  0  0  0  0  0
  -29.7440  -19.3428   21.5143 N   0  0  0  0  0  0  0  0  0  0  0  0
  -31.7371  -14.4901   20.7364 N   0  0  0  0  0  0  0  0  0  0  0  0
  -28.7413  -11.2359   19.8244 N   0  0  0  0  0  0  0  0  0  0  0  0
  -23.5201  -33.2030   19.8552 N   0  0  0  0  0  0  0  0  0  0  0  0
  -24.9697  -29.6729   25.5031 N   0  0  0  0  0  0  0  0  0  0  0  0
  -30.4648  -21.5449   21.0358 N   0  0  0  0  0  0  0  0  0  0  0  0
  -23.8240  -26.3440   26.3236 N   0  3  0  0  0  0  0  0  0  0  0  0
  -29.0399  -25.6313   21.9180 N   0  3  0  0  0  0  0  0  0  0  0  0
  -30.9779  -11.7313   19.9304 O   0  0  0  0  0  0  0  0  0  0  0  0
  -25.4804  -32.5208   20.9109 O   0  0  0  0  0  0  0  0  0  0  0  0
  -23.7114  -31.8775   24.1746 O   0  0  0  0  0  0  0  0  0  0  0  0
  -25.7556  -27.6314   24.7337 O   0  0  0  0  0  0  0  0  0  0  0  0
  -29.7611  -20.1651   19.3459 O   0  0  0  0  0  0  0  0  0  0  0  0
  -23.1965  -11.6878   20.1170 O   0  0  0  0  0  0  0  0  0  0  0  0
  -26.2797  -26.6477   18.0174 O   0  0  0  0  0  0  0  0  0  1  0  0
  -22.4912   -6.6275   22.1905 F   0  0  0  0  0  0  0  0  0  0  0  0
  -21.2940  -11.2053   22.0639 F   0  0  0  0  0  0  0  0  0  0  0  0
  1  2  1  0  0  0  0
  1  5  2  0  0  0  0
  2  6  2  0  0  0  0
  3  8  2  0  0  0  0
  3 17  1  0  0  0  0
  4  9  1  0  0  0  0
  4 17  2  0  0  0  0
  5 19  1  0  0  0  0
  6 21  1  0  0  0  0
  7 10  2  0  0  0  0
  7 20  1  0  0  0  0
  8 25  1  0  0  0  0
  9 25  2  0  0  0  0
 10 26  1  0  0  0  0
 11 12  2  0  0  0  0
 11 27  1  0  0  0  0
 12 28  1  0  0  0  0
 13 22  1  0  0  0  0
 13 26  2  0  0  0  0
 14 23  2  0  0  0  0
 14 24  1  0  0  0  0
 15 28  2  0  0  0  0
 15 29  1  0  0  0  0
 16 23  1  0  0  0  0
 16 67  2  0  0  0  0
 17 30  1  0  0  0  0
 18 30  1  0  0  0  0
 18 32  2  0  0  0  0
 18 33  1  0  0  0  0
 19 21  2  0  0  0  0
 19 38  1  0  0  0  0
 20 22  2  0  0  0  0
 20 39  1  0  0  0  0
 21 47  1  0  0  0  0
 22 40  1  0  0  0  0
 23 59  1  0  0  0  0
 24 31  2  0  0  0  0
 24 62  1  0  0  0  0
 25 84  1  0  0  0  0
 26 85  1  0  0  0  0
 27 29  2  0  0  0  0
 27 84  1  0  0  0  0
 28 86  1  0  0  0  0
 29 87  1  0  0  0  0
 30 68  2  0  0  0  0
 31 50  1  0  0  0  0
 31 67  1  0  0  0  0
 32 69  1  0  0  0  0
 32 72  1  0  0  0  0
 33 73  1  0  0  0  0
 33 79  2  0  0  0  0
 34 48  1  0  0  0  0
 34 74  1  0  0  0  0
 34 80  2  0  0  0  0
 35 63  1  0  0  0  0
 35 70  1  0  0  0  0
 35 81  2  0  0  0  0
 36 64  1  0  0  0  0
 36 75  1  0  0  0  0
 36 82  2  0  0  0  0
 37 71  1  0  0  0  0
 37 76  1  0  0  0  0
 37 83  2  0  0  0  0
 38 41  1  0  0  0  0
 39 48  1  0  0  0  0
 40 70  1  0  0  0  0
 41 43  1  0  0  0  0
 42 44  1  0  0  0  0
 42 45  1  0  0  0  0
 43 47  1  0  0  0  0
 44 49  1  0  0  0  0
 45 71  1  0  0  0  0
 46 49  1  0  0  0  0
 46 71  1  0  0  0  0
 47 74  1  0  0  0  0
 48 70  1  0  0  0  0
 49 69  1  0  0  0  0
 51 64  1  0  0  0  0
 52 65  1  0  0  0  0
 53 66  1  0  0  0  0
 54 66  1  0  0  0  0
 55 66  1  0  0  0  0
 56 77  1  0  0  0  0
 57 78  1  0  0  0  0
 58 78  1  0  0  0  0
 59 61  1  0  0  0  0
 60 62  1  0  0  0  0
 60 65  1  0  0  0  0
 61 85  1  0  0  0  0
 62 78  1  0  0  0  0
 63 66  1  0  0  0  0
 63 75  1  0  0  0  0
 64 77  1  0  0  0  0
 65 76  1  0  0  0  0
 68 69  1  0  0  0  0
M  CHG  2  77   1  78   1
M  ISO  4  37 100  61 101  76 100  85 101
M  END
> <Batch ID>
0102

> <Smiles>
CNC(C)C(=O)NC(C(=O)N1Cc2cc([101O:1][101CH2:1]Cc3cnc(C)c(C(CC(C)[100NH:0][100C:0](=O)N4CCCC(n5nc(-c6ccc(Oc7ccc(F)cc7F)cc6)c(C(N)=O)c5N)C4)N(C)C)c3)ccc2CC1C(=O)NC1CCCc2ccccc21)C(C)(C)C

> <Shape>
0.276

> <Color>
0.098

> <Negative vol penalty>
0.000

$$$$

  -OEChem-04052319383D

 88 97  0     1  0  0  0  0  0999 V2000
  -23.9627  -27.5100   27.6316 C   0  0  0  0  0  0  0  0  0  0  0  0
  -25.3381  -27.6116   27.4559 C   0  0  0  0  0  0  0  0  0  0  0  0
  -23.0067   -9.8919   19.9735 C   0  0  0  0  0  0  0  0  0  0  0  0
  -23.7379   -9.9330   22.2758 C   0  0  0  0  0  0  0  0  0  0  0  0
  -23.1785  -26.9258   26.6391 C   0  0  0  0  0  0  0  0  0  0  0  0
  -25.9283  -27.1401   26.2828 C   0  0  0  0  0  0  0  0  0  0  0  0
  -31.7988  -25.5205   21.0962 C   0  0  0  0  0  0  0  0  0  0  0  0
  -31.6593  -18.2680   20.0420 C   0  0  0  0  0  0  0  0  0  0  0  0
  -22.2452   -8.7530   20.2357 C   0  0  0  0  0  0  0  0  0  0  0  0
  -22.9764   -8.7942   22.5381 C   0  0  0  0  0  0  0  0  0  0  0  0
  -32.1311  -24.7625   19.9742 C   0  0  0  0  0  0  0  0  0  0  0  0
  -31.5028  -19.2821   19.0972 C   0  0  0  0  0  0  0  0  0  0  0  0
  -23.2320   -5.4588   22.0473 C   0  0  0  0  0  0  0  0  0  0  0  0
  -23.8254   -4.4398   22.7923 C   0  0  0  0  0  0  0  0  0  0  0  0
  -30.1861  -25.6146   18.8300 C   0  0  0  0  0  0  0  0  0  0  0  0
  -22.1052   -4.6671   24.4735 C   0  0  0  0  0  0  0  0  0  0  0  0
  -23.7531  -10.4818   20.9936 C   0  0  0  0  0  0  0  0  0  0  0  0
  -24.1285  -12.9998   20.8302 C   0  0  0  0  0  0  0  0  0  0  0  0
  -23.7617  -26.4358   25.4590 C   0  0  0  0  0  0  0  0  0  0  0  0
  -30.6501  -26.3249   21.0977 C   0  0  0  0  0  0  0  0  0  0  0  0
  -25.1508  -26.5689   25.2591 C   0  0  0  0  0  0  0  0  0  0  0  0
  -29.8443  -26.3855   19.9515 C   0  0  0  0  0  0  0  0  0  0  0  0
  -29.2439  -19.6534   19.8699 C   0  0  0  0  0  0  0  0  0  0  0  0
  -30.6081  -17.9465   20.9007 C   0  0  0  0  0  0  0  0  0  0  0  0
  -29.4005  -18.6393   20.8147 C   0  0  0  0  0  0  0  0  0  0  0  0
  -22.2300   -8.2042   21.5180 C   0  0  0  0  0  0  0  0  0  0  0  0
  -31.3235  -24.8078   18.8418 C   0  0  0  0  0  0  0  0  0  0  0  0
  -30.2951  -19.9749   19.0112 C   0  0  0  0  0  0  0  0  0  0  0  0
  -22.0752   -6.0821   22.5154 C   0  0  0  0  0  0  0  0  0  0  0  0
  -23.2620   -4.0439   24.0053 C   0  0  0  0  0  0  0  0  0  0  0  0
  -21.5118   -5.6862   23.7285 C   0  0  0  0  0  0  0  0  0  0  0  0
  -24.5404  -11.6579   20.7232 C   0  0  0  0  0  0  0  0  0  0  0  0
  -25.2345  -13.7285   20.4668 C   0  0  0  0  0  0  0  0  0  0  0  0
  -22.8595  -13.5393   21.2232 C   0  0  0  0  0  0  0  0  0  0  0  0
  -27.9434  -26.4987   22.7976 C   0  0  0  0  0  0  0  0  0  0  0  0
  -27.5466  -29.2086   20.9129 C   0  0  0  0  0  0  0  0  0  0  0  0
  -26.0509  -31.0382   23.3737 C   0  0  0  0  0  0  0  0  0  0  0  0
  -30.7280  -14.6826   20.7056 C   0  0  0  0  0  0  0  0  0  0  0  0
  -22.8648  -25.8199   24.4142 C   0  0  0  0  0  0  0  0  0  0  0  0
  -30.3259  -27.1585   22.3078 C   0  0  0  0  0  0  0  0  0  0  0  0
  -28.6036  -27.2357   19.9017 C   0  0  0  0  0  0  0  0  0  0  0  0
  -23.6246  -24.9555   23.4133 C   0  0  0  0  0  0  0  0  0  0  0  0
  -26.2554  -21.4757   18.4142 C   0  0  0  0  0  0  0  0  0  0  0  0
  -26.7337  -22.4613   19.4813 C   0  0  0  0  0  0  0  0  0  0  0  0
  -29.5900  -12.2674   18.3500 C   0  0  0  0  0  0  0  0  0  0  0  0
  -27.2659  -20.3310   18.4002 C   0  0  0  0  0  0  0  0  0  0  0  0
  -28.0600  -21.9146   19.9977 C   0  0  0  0  0  0  0  0  0  0  0  0
  -24.8281  -25.7165   22.8775 C   0  0  0  0  0  0  0  0  0  0  0  0
  -28.1437  -11.9999   18.7701 C   0  0  0  0  0  0  0  0  0  0  0  0
  -30.4948  -12.4996   19.5581 C   0  0  0  0  0  0  0  0  0  0  0  0
  -28.5854  -13.2806   20.9063 C   0  0  0  0  0  0  0  0  0  0  0  0
  -27.9473  -20.4069   19.7677 C   0  0  0  0  0  0  0  0  0  0  0  0
  -25.8185  -26.0353   24.0046 C   0  0  1  0  0  0  0  0  0  0  0  0
  -28.8663  -27.6040   22.3687 C   0  0  1  0  0  0  0  0  0  0  0  0
  -27.6239  -13.0958   19.7199 C   0  0  2  0  0  0  0  0  0  0  0  0
  -24.7190  -32.8939   24.4126 C   0  0  0  0  0  0  0  0  0  0  0  0
  -30.2019  -30.7036   20.7711 C   0  0  0  0  0  0  0  0  0  0  0  0
  -29.1391  -32.5698   22.0580 C   0  0  0  0  0  0  0  0  0  0  0  0
  -28.2536  -31.9438   19.8116 C   0  0  0  0  0  0  0  0  0  0  0  0
  -23.5036  -29.5813   22.9894 C   0  0  0  0  0  0  0  0  0  0  0  0
  -30.8057  -16.8553   21.9024 C   0  0  0  0  0  0  0  0  0  0  0  0
  -30.9489  -22.3150   16.2422 C   0  0  0  0  0  0  0  0  0  0  0  0
  -30.5679  -23.6189   16.9256 C   0  0  0  0  0  0  0  0  0  1  0  0
  -31.2857  -21.2237   17.2463 C   0  0  0  0  0  0  0  0  0  0  0  0
  -27.8427  -30.4083   21.7777 C   0  0  1  0  0  0  0  0  0  0  0  0
  -24.7000  -31.7278   23.4367 C   0  0  2  0  0  0  0  0  0  0  0  0
  -28.8598  -31.3799   21.1151 C   0  0  0  0  0  0  0  0  0  0  0  0
  -25.8091  -11.5384   20.3229 N   0  0  0  0  0  0  0  0  0  0  0  0
  -26.2038  -12.8145   20.1752 N   0  0  0  0  0  0  0  0  0  0  0  0
  -28.3778  -28.0926   21.0730 N   0  0  0  0  0  0  0  0  0  0  0  0
  -29.9464  -13.5516   20.4174 N   0  0  0  0  0  0  0  0  0  0  0  0
  -28.3355  -18.3122   21.6860 N   0  0  0  0  0  0  0  0  0  0  0  0
  -25.4627  -15.0557   20.3713 N   0  0  0  0  0  0  0  0  0  0  0  0
  -21.8320  -12.6494   21.5647 N   0  0  0  0  0  0  0  0  0  0  0  0
  -26.8351  -26.9319   23.5001 N   0  0  0  0  0  0  0  0  0  0  0  0
  -26.5531  -31.0149   22.0897 N   0  0  0  0  0  0  0  0  0  0  0  0
  -30.1302  -15.6347   21.5222 N   0  0  0  0  0  0  0  0  0  0  0  0
  -23.6478  -30.7668   23.8730 N   0  3  0  0  0  0  0  0  0  0  0  0
  -22.6382  -14.7736   21.2542 O   0  0  0  0  0  0  0  0  0  0  0  0
  -28.2158  -25.3388   22.5110 O   0  0  0  0  0  0  0  0  0  0  0  0
  -26.6096  -29.2598   20.1113 O   0  0  0  0  0  0  0  0  0  0  0  0
  -26.6069  -30.5704   24.3650 O   0  0  0  0  0  0  0  0  0  0  0  0
  -31.8716  -14.8352   20.2632 O   0  0  0  0  0  0  0  0  0  0  0  0
  -21.4868   -7.0931   21.7743 O   0  0  0  0  0  0  0  0  0  0  0  0
  -31.6458  -24.0693   17.7451 O   0  0  0  0  0  0  0  0  0  1  0  0
  -30.1607  -20.9681   18.0762 O   0  0  0  0  0  0  0  0  0  0  0  0
  -23.8311   -3.0642   24.7199 F   0  0  0  0  0  0  0  0  0  0  0  0
  -20.3999   -6.2804   24.1828 F   0  0  0  0  0  0  0  0  0  0  0  0
  1  2  1  0  0  0  0
  1  5  2  0  0  0  0
  2  6  2  0  0  0  0
  3  9  2  0  0  0  0
  3 17  1  0  0  0  0
  4 10  1  0  0  0  0
  4 17  2  0  0  0  0
  5 19  1  0  0  0  0
  6 21  1  0  0  0  0
  7 11  2  0  0  0  0
  7 20  1  0  0  0  0
  8 12  2  0  0  0  0
  8 24  1  0  0  0  0
  9 26  1  0  0  0  0
 10 26  2  0  0  0  0
 11 27  1  0  0  0  0
 12 28  1  0  0  0  0
 13 14  2  0  0  0  0
 13 29  1  0  0  0  0
 14 30  1  0  0  0  0
 15 22  1  0  0  0  0
 15 27  2  0  0  0  0
 16 30  2  0  0  0  0
 16 31  1  0  0  0  0
 17 32  1  0  0  0  0
 18 32  1  0  0  0  0
 18 33  2  0  0  0  0
 18 34  1  0  0  0  0
 19 21  2  0  0  0  0
 19 39  1  0  0  0  0
 20 22  2  0  0  0  0
 20 40  1  0  0  0  0
 21 53  1  0  0  0  0
 22 41  1  0  0  0  0
 23 25  1  0  0  0  0
 23 28  2  0  0  0  0
 23 52  1  0  0  0  0
 24 25  2  0  0  0  0
 24 61  1  0  0  0  0
 25 72  1  0  0  0  0
 26 84  1  0  0  0  0
 27 85  1  0  0  0  0
 28 86  1  0  0  0  0
 29 31  2  0  0  0  0
 29 84  1  0  0  0  0
 30 87  1  0  0  0  0
 31 88  1  0  0  0  0
 32 68  2  0  0  0  0
 33 69  1  0  0  0  0
 33 73  1  0  0  0  0
 34 74  1  0  0  0  0
 34 79  2  0  0  0  0
 35 54  1  0  0  0  0
 35 75  1  0  0  0  0
 35 80  2  0  0  0  0
 36 65  1  0  0  0  0
 36 70  1  0  0  0  0
 36 81  2  0  0  0  0
 37 66  1  0  0  0  0
 37 76  1  0  0  0  0
 37 82  2  0  0  0  0
 38 71  1  0  0  0  0
 38 77  1  0  0  0  0
 38 83  2  0  0  0  0
 39 42  1  0  0  0  0
 40 54  1  0  0  0  0
 41 70  1  0  0  0  0
 42 48  1  0  0  0  0
 43 44  1  0  0  0  0
 43 46  1  0  0  0  0
 44 47  1  0  0  0  0
 45 49  1  0  0  0  0
 45 50  1  0  0  0  0
 46 52  1  0  0  0  0
 47 52  1  0  0  0  0
 48 53  1  0  0  0  0
 49 55  1  0  0  0  0
 50 71  1  0  0  0  0
 51 55  1  0  0  0  0
 51 71  1  0  0  0  0
 53 75  1  0  0  0  0
 54 70  1  0  0  0  0
 55 69  1  0  0  0  0
 56 66  1  0  0  0  0
 57 67  1  0  0  0  0
 58 67  1  0  0  0  0
 59 67  1  0  0  0  0
 60 78  1  0  0  0  0
 61 77  1  0  0  0  0
 62 63  1  0  0  0  0
 62 64  1  0  0  0  0
 63 85  1  0  0  0  0
 64 86  1  0  0  0  0
 65 67  1  0  0  0  0
 65 76  1  0  0  0  0
 66 78  1  0  0  0  0
 68 69  1  0  0  0  0
M  CHG  1  78   1
M  ISO  4  38 100  63 101  77 100  85 101
M  END
> <Batch ID>
0102

> <Smiles>
CNC(C)C(=O)NC(C(=O)N1Cc2cc([101O:1][101CH2:1]CCOc3ccc(C[100NH:0][100C:0](=O)N4CCCC(n5nc(-c6ccc(Oc7ccc(F)cc7F)cc6)c(C(N)=O)c5N)C4)c(N)c3C3CCCC3)ccc2CC1C(=O)NC1CCCc2ccccc21)C(C)(C)C

> <Shape>
0.347

> <Color>
0.190

> <Negative vol penalty>
0.000

$$$$

  -OEChem-04052319383D

 81 89  0     1  0  0  0  0  0999 V2000
  -29.0794  -11.3916   19.8654 C   0  0  0  0  0  0  0  0  0  0  0  0
  -29.1245  -12.7672   19.6625 C   0  0  0  0  0  0  0  0  0  0  0  0
  -20.4465  -25.1728   23.5868 C   0  0  0  0  0  0  0  0  0  0  0  0
  -20.6013  -26.5199   21.5873 C   0  0  0  0  0  0  0  0  0  0  0  0
  -27.9078  -10.7945   20.3286 C   0  0  0  0  0  0  0  0  0  0  0  0
  -27.9975  -13.5463   19.9218 C   0  0  0  0  0  0  0  0  0  0  0  0
  -29.1065  -17.7792   22.4709 C   0  0  0  0  0  0  0  0  0  0  0  0
  -19.2349  -25.7858   23.9060 C   0  0  0  0  0  0  0  0  0  0  0  0
  -19.3897  -27.1330   21.9065 C   0  0  0  0  0  0  0  0  0  0  0  0
  -29.6593  -18.8333   21.7449 C   0  0  0  0  0  0  0  0  0  0  0  0
  -18.2985  -29.5571   23.9954 C   0  0  0  0  0  0  0  0  0  0  0  0
  -18.2212  -30.9441   23.8702 C   0  0  0  0  0  0  0  0  0  0  0  0
  -27.4959  -19.8965   21.6527 C   0  0  0  0  0  0  0  0  0  0  0  0
  -30.6478  -24.8239   17.9626 C   0  0  0  0  0  0  0  0  0  0  0  0
  -30.1310  -23.8560   20.1028 C   0  0  0  0  0  0  0  0  0  0  0  0
  -16.4404  -30.6991   22.2559 C   0  0  0  0  0  0  0  0  0  0  0  0
  -21.1297  -25.5399   22.4274 C   0  0  0  0  0  0  0  0  0  0  0  0
  -22.5692  -23.7437   21.3277 C   0  0  0  0  0  0  0  0  0  0  0  0
  -26.7689  -11.5679   20.6029 C   0  0  0  0  0  0  0  0  0  0  0  0
  -27.7397  -17.7705   22.7843 C   0  0  0  0  0  0  0  0  0  0  0  0
  -26.8091  -12.9588   20.3878 C   0  0  0  0  0  0  0  0  0  0  0  0
  -26.9287  -18.8423   22.3849 C   0  0  0  0  0  0  0  0  0  0  0  0
  -30.8267  -24.7882   19.3410 C   0  0  0  0  0  0  0  0  0  0  0  0
  -18.7065  -26.7659   23.0659 C   0  0  0  0  0  0  0  0  0  0  0  0
  -28.8535  -19.8907   21.3332 C   0  0  0  0  0  0  0  0  0  0  0  0
  -17.4468  -28.7410   23.2509 C   0  0  0  0  0  0  0  0  0  0  0  0
  -17.2922  -31.5151   23.0004 C   0  0  0  0  0  0  0  0  0  0  0  0
  -16.5178  -29.3120   22.3811 C   0  0  0  0  0  0  0  0  0  0  0  0
  -22.3816  -24.9074   22.0975 C   0  0  0  0  0  0  0  0  0  0  0  0
  -29.7688  -23.9132   17.3989 C   0  0  0  0  0  0  0  0  0  0  0  0
  -29.2750  -22.9888   19.4433 C   0  0  0  0  0  0  0  0  0  0  0  0
  -23.9303  -23.5604   21.3086 C   0  0  0  0  0  0  0  0  0  0  0  0
  -21.5998  -22.9036   20.6872 C   0  0  0  0  0  0  0  0  0  0  0  0
  -25.2914  -15.8656   22.0909 C   0  0  0  0  0  0  0  0  0  0  0  0
  -23.7072  -17.7959   24.1612 C   0  0  0  0  0  0  0  0  0  0  0  0
  -23.4845  -20.8362   25.6954 C   0  0  0  0  0  0  0  0  0  0  0  0
  -28.7211  -26.6214   21.0091 C   0  0  0  0  0  0  0  0  0  0  0  0
  -25.5105  -10.8715   21.0571 C   0  0  0  0  0  0  0  0  0  0  0  0
  -27.1641  -16.6391   23.5911 C   0  0  0  0  0  0  0  0  0  0  0  0
  -25.4596  -18.8906   22.7134 C   0  0  0  0  0  0  0  0  0  0  0  0
  -24.4769  -11.8163   21.6647 C   0  0  0  0  0  0  0  0  0  0  0  0
  -27.6937  -25.0950   24.1255 C   0  0  0  0  0  0  0  0  0  0  0  0
  -24.3038  -13.0529   20.7886 C   0  0  0  0  0  0  0  0  0  0  0  0
  -26.2253  -24.7762   23.8385 C   0  0  0  0  0  0  0  0  0  0  0  0
  -28.1052  -26.4216   23.4937 C   0  0  0  0  0  0  0  0  0  0  0  0
  -26.3918  -26.1897   21.7374 C   0  0  0  0  0  0  0  0  0  0  0  0
  -25.6150  -13.8409   20.6813 C   0  0  1  0  0  0  0  0  0  0  0  0
  -25.6573  -16.4829   23.4110 C   0  0  1  0  0  0  0  0  0  0  0  0
  -25.9204  -24.8495   22.3305 C   0  0  2  0  0  0  0  0  0  0  0  0
  -29.5531  -23.9213   15.9224 C   0  0  0  0  0  0  0  0  0  0  0  0
  -22.0602  -22.1303   27.3062 C   0  0  0  0  0  0  0  0  0  0  0  0
  -21.6279  -18.2294   21.9707 C   0  0  0  0  0  0  0  0  0  0  0  0
  -20.7894  -20.2083   23.2549 C   0  0  0  0  0  0  0  0  0  0  0  0
  -20.6791  -17.9302   24.2651 C   0  0  0  0  0  0  0  0  0  0  0  0
  -25.7193  -21.1335   27.6127 C   0  0  0  0  0  0  0  0  0  0  0  0
  -31.7618  -25.7451   19.9995 C   0  0  0  0  0  0  0  0  0  0  0  0
  -28.5067  -21.9711   20.2342 C   0  0  0  0  0  0  0  0  0  1  0  0
  -31.0949  -27.0565   20.4321 C   0  0  0  0  0  0  0  0  0  0  0  0
  -22.9202  -19.0783   24.0384 C   0  0  1  0  0  0  0  0  0  0  0  0
  -23.2665  -21.2177   27.1485 C   0  0  2  0  0  0  0  0  0  0  0  0
  -21.5314  -18.8600   23.3743 C   0  0  0  0  0  0  0  0  0  0  0  0
  -23.5315  -25.4266   22.5358 N   0  0  0  0  0  0  0  0  0  0  0  0
  -29.0753  -22.9932   18.1062 N   0  0  0  0  0  0  0  0  0  0  0  0
  -24.4547  -24.5853   22.0399 N   0  0  0  0  0  0  0  0  0  0  0  0
  -24.9424  -17.7578   23.4989 N   0  0  0  0  0  0  0  0  0  0  0  0
  -27.8053  -26.4190   22.0549 N   0  0  0  0  0  0  0  0  0  0  0  0
  -24.7176  -22.6240   20.7379 N   0  0  0  0  0  0  0  0  0  0  0  0
  -20.2437  -23.2365   20.8074 N   0  0  0  0  0  0  0  0  0  0  0  0
  -25.8398  -14.6142   21.8838 N   0  0  0  0  0  0  0  0  0  0  0  0
  -22.8581  -19.6491   25.3795 N   0  0  0  0  0  0  0  0  0  0  0  0
  -30.0382  -26.8386   21.3949 N   0  0  0  0  0  0  0  0  0  0  0  0
  -24.4641  -21.9251   27.6836 N   0  3  0  0  0  0  0  0  0  0  0  0
  -21.9255  -21.8786   20.0416 O   0  0  0  0  0  0  0  0  0  0  0  0
  -24.5643  -16.4785   21.3181 O   0  0  0  0  0  0  0  0  0  0  0  0
  -23.2464  -16.8649   24.8265 O   0  0  0  0  0  0  0  0  0  0  0  0
  -24.1413  -21.5245   24.9174 O   0  0  0  0  0  0  0  0  0  0  0  0
  -28.3905  -26.6044   19.8185 O   0  0  0  0  0  0  0  0  0  0  0  0
  -17.5242  -27.3641   23.3769 O   0  0  0  0  0  0  0  0  0  0  0  0
  -29.3904  -20.9205   20.6239 O   0  0  0  0  0  0  0  0  0  1  0  0
  -17.2170  -32.8472   22.8814 F   0  0  0  0  0  0  0  0  0  0  0  0
  -15.6961  -28.5332   21.6641 F   0  0  0  0  0  0  0  0  0  0  0  0
  1  2  1  0  0  0  0
  1  5  2  0  0  0  0
  2  6  2  0  0  0  0
  3  8  2  0  0  0  0
  3 17  1  0  0  0  0
  4  9  1  0  0  0  0
  4 17  2  0  0  0  0
  5 19  1  0  0  0  0
  6 21  1  0  0  0  0
  7 10  2  0  0  0  0
  7 20  1  0  0  0  0
  8 24  1  0  0  0  0
  9 24  2  0  0  0  0
 10 25  1  0  0  0  0
 11 12  2  0  0  0  0
 11 26  1  0  0  0  0
 12 27  1  0  0  0  0
 13 22  1  0  0  0  0
 13 25  2  0  0  0  0
 14 23  1  0  0  0  0
 14 30  2  0  0  0  0
 15 23  2  0  0  0  0
 15 31  1  0  0  0  0
 16 27  2  0  0  0  0
 16 28  1  0  0  0  0
 17 29  1  0  0  0  0
 18 29  1  0  0  0  0
 18 32  2  0  0  0  0
 18 33  1  0  0  0  0
 19 21  2  0  0  0  0
 19 38  1  0  0  0  0
 20 22  2  0  0  0  0
 20 39  1  0  0  0  0
 21 47  1  0  0  0  0
 22 40  1  0  0  0  0
 23 56  1  0  0  0  0
 24 78  1  0  0  0  0
 25 79  1  0  0  0  0
 26 28  2  0  0  0  0
 26 78  1  0  0  0  0
 27 80  1  0  0  0  0
 28 81  1  0  0  0  0
 29 62  2  0  0  0  0
 30 50  1  0  0  0  0
 30 63  1  0  0  0  0
 31 57  1  0  0  0  0
 31 63  2  0  0  0  0
 32 64  1  0  0  0  0
 32 67  1  0  0  0  0
 33 68  1  0  0  0  0
 33 73  2  0  0  0  0
 34 48  1  0  0  0  0
 34 69  1  0  0  0  0
 34 74  2  0  0  0  0
 35 59  1  0  0  0  0
 35 65  1  0  0  0  0
 35 75  2  0  0  0  0
 36 60  1  0  0  0  0
 36 70  1  0  0  0  0
 36 76  2  0  0  0  0
 37 66  1  0  0  0  0
 37 71  1  0  0  0  0
 37 77  2  0  0  0  0
 38 41  1  0  0  0  0
 39 48  1  0  0  0  0
 40 65  1  0  0  0  0
 41 43  1  0  0  0  0
 42 44  1  0  0  0  0
 42 45  1  0  0  0  0
 43 47  1  0  0  0  0
 44 49  1  0  0  0  0
 45 66  1  0  0  0  0
 46 49  1  0  0  0  0
 46 66  1  0  0  0  0
 47 69  1  0  0  0  0
 48 65  1  0  0  0  0
 49 64  1  0  0  0  0
 51 60  1  0  0  0  0
 52 61  1  0  0  0  0
 53 61  1  0  0  0  0
 54 61  1  0  0  0  0
 55 72  1  0  0  0  0
 56 58  1  0  0  0  0
 57 79  1  0  0  0  0
 58 71  1  0  0  0  0
 59 61  1  0  0  0  0
 59 70  1  0  0  0  0
 60 72  1  0  0  0  0
 62 64  1  0  0  0  0
M  CHG  1  72   1
M  ISO  4  37 100  57 101  71 100  79 101
M  END
> <Batch ID>
0102

> <Smiles>
CNC(C)C(=O)NC(C(=O)N1Cc2cc([101O:1][101CH2:1]c3cc(CC[100NH:0][100C:0](=O)N4CCCC(n5nc(-c6ccc(Oc7ccc(F)cc7F)cc6)c(C(N)=O)c5N)C4)cc(C)n3)ccc2CC1C(=O)NC1CCCc2ccccc21)C(C)(C)C

> <Shape>
0.208

> <Color>
0.069

> <Negative vol penalty>
0.000

$$$$

  -OEChem-04052319383D

 87 95  0     1  0  0  0  0  0999 V2000
  -29.0237  -23.5345   21.1723 C   0  0  0  0  0  0  0  0  0  0  0  0
  -27.9061  -22.7458   21.4262 C   0  0  0  0  0  0  0  0  0  0  0  0
  -24.8097  -30.3388   20.3105 C   0  0  0  0  0  0  0  0  0  0  0  0
  -24.1971  -28.7926   22.0630 C   0  0  0  0  0  0  0  0  0  0  0  0
  -29.8977  -23.1919   20.1415 C   0  0  0  0  0  0  0  0  0  0  0  0
  -27.6613  -21.6146   20.6485 C   0  0  0  0  0  0  0  0  0  0  0  0
  -26.3378  -17.5946   23.4294 C   0  0  0  0  0  0  0  0  0  0  0  0
  -24.5387  -31.4104   21.1612 C   0  0  0  0  0  0  0  0  0  0  0  0
  -23.9261  -29.8643   22.9137 C   0  0  0  0  0  0  0  0  0  0  0  0
  -25.0252  -17.5483   23.8972 C   0  0  0  0  0  0  0  0  0  0  0  0
  -24.3537  -34.5481   22.9877 C   0  0  0  0  0  0  0  0  0  0  0  0
  -25.2758  -35.5938   23.0273 C   0  0  0  0  0  0  0  0  0  0  0  0
  -24.4474  -16.0367   22.1081 C   0  0  0  0  0  0  0  0  0  0  0  0
  -21.9085  -20.9820   22.0966 C   0  0  0  0  0  0  0  0  0  0  0  0
  -26.9890  -34.0555   23.7593 C   0  0  0  0  0  0  0  0  0  0  0  0
  -24.6388  -29.0298   20.7613 C   0  0  0  0  0  0  0  0  0  0  0  0
  -26.1462  -27.2534   19.7222 C   0  0  0  0  0  0  0  0  0  0  0  0
  -29.6687  -22.0505   19.3570 C   0  0  0  0  0  0  0  0  0  0  0  0
  -26.7130  -16.8698   22.2892 C   0  0  0  0  0  0  0  0  0  0  0  0
  -28.5323  -21.2571   19.6053 C   0  0  0  0  0  0  0  0  0  0  0  0
  -25.7660  -16.0736   21.6294 C   0  0  0  0  0  0  0  0  0  0  0  0
  -21.7338  -21.2758   20.7489 C   0  0  0  0  0  0  0  0  0  0  0  0
  -20.4523  -21.4722   20.2463 C   0  0  0  0  0  0  0  0  0  0  0  0
  -24.0969  -31.1732   22.4628 C   0  0  0  0  0  0  0  0  0  0  0  0
  -24.0791  -16.7715   23.2348 C   0  0  0  0  0  0  0  0  0  0  0  0
  -24.7491  -33.2560   23.3339 C   0  0  0  0  0  0  0  0  0  0  0  0
  -26.5935  -35.3476   23.4131 C   0  0  0  0  0  0  0  0  0  0  0  0
  -26.0668  -33.0097   23.7197 C   0  0  0  0  0  0  0  0  0  0  0  0
  -24.9180  -27.9224   19.8828 C   0  0  0  0  0  0  0  0  0  0  0  0
  -20.7783  -20.8964   22.8936 C   0  0  0  0  0  0  0  0  0  0  0  0
  -19.3873  -21.3645   21.1260 C   0  0  0  0  0  0  0  0  0  0  0  0
  -25.8900  -26.2866   18.7808 C   0  0  0  0  0  0  0  0  0  0  0  0
  -27.4059  -27.4851   20.3664 C   0  0  0  0  0  0  0  0  0  0  0  0
  -27.8398  -17.6325   19.4165 C   0  0  0  0  0  0  0  0  0  0  0  0
  -28.1008  -14.4153   19.0942 C   0  0  0  0  0  0  0  0  0  0  0  0
  -27.0540  -11.3129   20.0564 C   0  0  0  0  0  0  0  0  0  0  0  0
  -20.8868  -23.4640   17.0922 C   0  0  0  0  0  0  0  0  0  0  0  0
  -30.6158  -21.7468   18.2233 C   0  0  0  0  0  0  0  0  0  0  0  0
  -28.1393  -16.9093   21.8130 C   0  0  0  0  0  0  0  0  0  0  0  0
  -26.1228  -15.2607   20.4128 C   0  0  0  0  0  0  0  0  0  0  0  0
  -30.4878  -20.3232   17.6873 C   0  0  0  0  0  0  0  0  0  0  0  0
  -23.0707  -25.3708   15.0254 C   0  0  0  0  0  0  0  0  0  0  0  0
  -29.0209  -19.9619   17.4771 C   0  0  0  0  0  0  0  0  0  0  0  0
  -23.9026  -26.1806   16.0214 C   0  0  0  0  0  0  0  0  0  0  0  0
  -21.6272  -25.2081   15.4965 C   0  0  0  0  0  0  0  0  0  0  0  0
  -22.3098  -25.4630   17.8508 C   0  0  0  0  0  0  0  0  0  0  0  0
  -28.2461  -20.0085   18.7996 C   0  0  1  0  0  0  0  0  0  0  0  0
  -28.2884  -16.5365   20.3412 C   0  0  1  0  0  0  0  0  0  0  0  0
  -23.7869  -25.6062   17.4462 C   0  0  2  0  0  0  0  0  0  0  0  0
  -17.9873  -21.5664   20.6453 C   0  0  0  0  0  0  0  0  0  0  0  0
  -23.7057  -20.0423   19.7775 C   0  0  0  0  0  0  0  0  0  0  0  0
  -23.8868  -22.5038   20.2903 C   0  0  0  0  0  0  0  0  0  0  0  0
  -20.4335  -21.7513   25.2254 C   0  0  0  0  0  0  0  0  0  0  0  0
  -27.4246   -8.8756   19.5878 C   0  0  0  0  0  0  0  0  0  0  0  0
  -26.4890  -14.6685   16.5159 C   0  0  0  0  0  0  0  0  0  0  0  0
  -26.0836  -12.1997   16.6089 C   0  0  0  0  0  0  0  0  0  0  0  0
  -28.4104  -13.0725   16.3925 C   0  0  0  0  0  0  0  0  0  0  0  0
  -27.9418  -10.7951   22.8318 C   0  0  0  0  0  0  0  0  0  0  0  0
  -20.2346  -21.7911   18.8054 C   0  0  0  0  0  0  0  0  0  0  0  0
  -20.8044  -18.0292   24.1026 C   0  0  0  0  0  0  0  0  0  0  0  0
  -20.2198  -19.2727   24.7882 C   0  0  0  0  0  0  0  0  0  0  0  0
  -22.3011  -17.8860   24.3541 C   0  0  0  0  0  0  0  0  0  1  0  0
  -22.9336  -21.3716   19.8655 C   0  0  0  0  0  0  0  0  0  0  0  0
  -20.9305  -20.5785   24.3711 C   0  0  1  0  0  0  0  0  0  0  0  0
  -27.1961  -13.3138   18.5969 C   0  0  1  0  0  0  0  0  0  0  0  0
  -27.8260  -10.0652   20.4459 C   0  0  2  0  0  0  0  0  0  0  0  0
  -27.0373  -13.3304   17.0503 C   0  0  0  0  0  0  0  0  0  0  0  0
  -23.9533  -27.4230   19.1057 N   0  0  0  0  0  0  0  0  0  0  0  0
  -19.5177  -21.0807   22.4414 N   0  0  0  0  0  0  0  0  0  0  0  0
  -24.5753  -26.4300   18.4476 N   0  0  0  0  0  0  0  0  0  0  0  0
  -27.5286  -15.3373   19.9822 N   0  0  0  0  0  0  0  0  0  0  0  0
  -21.5875  -24.6578   16.8535 N   0  0  0  0  0  0  0  0  0  0  0  0
  -26.6634  -25.3365   18.2139 N   0  0  0  0  0  0  0  0  0  0  0  0
  -27.4945  -28.5191   21.3085 N   0  0  0  0  0  0  0  0  0  0  0  0
  -28.5177  -18.8246   19.5864 N   0  0  0  0  0  0  0  0  0  0  0  0
  -27.7391  -12.0684   19.1285 N   0  0  0  0  0  0  0  0  0  0  0  0
  -20.9046  -23.0082   18.4047 N   0  0  0  0  0  0  0  0  0  0  0  0
  -27.5704   -9.7224   21.8735 N   0  3  0  0  0  0  0  0  0  0  0  0
  -28.4272  -26.8064   20.1020 O   0  0  0  0  0  0  0  0  0  0  0  0
  -26.9460  -17.4125   18.6076 O   0  0  0  0  0  0  0  0  0  0  0  0
  -29.2739  -14.4521   18.7146 O   0  0  0  0  0  0  0  0  0  0  0  0
  -25.9518  -11.5877   20.5255 O   0  0  0  0  0  0  0  0  0  0  0  0
  -20.2941  -22.8470   16.2005 O   0  0  0  0  0  0  0  0  0  0  0  0
  -23.8327  -32.2186   23.2933 O   0  0  0  0  0  0  0  0  0  0  0  0
  -22.7971  -16.7250   23.6889 O   0  0  0  0  0  0  0  0  0  1  0  0
  -27.4793  -36.3517   23.4496 F   0  0  0  0  0  0  0  0  0  0  0  0
  -26.4529  -31.7703   24.0523 F   0  0  0  0  0  0  0  0  0  0  0  0
  1  2  1  0  0  0  0
  1  5  2  0  0  0  0
  2  6  2  0  0  0  0
  3  8  2  0  0  0  0
  3 16  1  0  0  0  0
  4  9  1  0  0  0  0
  4 16  2  0  0  0  0
  5 18  1  0  0  0  0
  6 20  1  0  0  0  0
  7 10  2  0  0  0  0
  7 19  1  0  0  0  0
  8 24  1  0  0  0  0
  9 24  2  0  0  0  0
 10 25  1  0  0  0  0
 11 12  2  0  0  0  0
 11 26  1  0  0  0  0
 12 27  1  0  0  0  0
 13 21  1  0  0  0  0
 13 25  2  0  0  0  0
 14 22  2  0  0  0  0
 14 30  1  0  0  0  0
 15 27  2  0  0  0  0
 15 28  1  0  0  0  0
 16 29  1  0  0  0  0
 17 29  1  0  0  0  0
 17 32  2  0  0  0  0
 17 33  1  0  0  0  0
 18 20  2  0  0  0  0
 18 38  1  0  0  0  0
 19 21  2  0  0  0  0
 19 39  1  0  0  0  0
 20 47  1  0  0  0  0
 21 40  1  0  0  0  0
 22 23  1  0  0  0  0
 22 63  1  0  0  0  0
 23 31  2  0  0  0  0
 23 59  1  0  0  0  0
 24 84  1  0  0  0  0
 25 85  1  0  0  0  0
 26 28  2  0  0  0  0
 26 84  1  0  0  0  0
 27 86  1  0  0  0  0
 28 87  1  0  0  0  0
 29 68  2  0  0  0  0
 30 64  1  0  0  0  0
 30 69  2  0  0  0  0
 31 50  1  0  0  0  0
 31 69  1  0  0  0  0
 32 70  1  0  0  0  0
 32 73  1  0  0  0  0
 33 74  1  0  0  0  0
 33 79  2  0  0  0  0
 34 48  1  0  0  0  0
 34 75  1  0  0  0  0
 34 80  2  0  0  0  0
 35 65  1  0  0  0  0
 35 71  1  0  0  0  0
 35 81  2  0  0  0  0
 36 66  1  0  0  0  0
 36 76  1  0  0  0  0
 36 82  2  0  0  0  0
 37 72  1  0  0  0  0
 37 77  1  0  0  0  0
 37 83  2  0  0  0  0
 38 41  1  0  0  0  0
 39 48  1  0  0  0  0
 40 71  1  0  0  0  0
 41 43  1  0  0  0  0
 42 44  1  0  0  0  0
 42 45  1  0  0  0  0
 43 47  1  0  0  0  0
 44 49  1  0  0  0  0
 45 72  1  0  0  0  0
 46 49  1  0  0  0  0
 46 72  1  0  0  0  0
 47 75  1  0  0  0  0
 48 71  1  0  0  0  0
 49 70  1  0  0  0  0
 51 63  1  0  0  0  0
 52 63  1  0  0  0  0
 53 64  1  0  0  0  0
 54 66  1  0  0  0  0
 55 67  1  0  0  0  0
 56 67  1  0  0  0  0
 57 67  1  0  0  0  0
 58 78  1  0  0  0  0
 59 77  1  0  0  0  0
 60 61  1  0  0  0  0
 60 62  1  0  0  0  0
 61 64  1  0  0  0  0
 62 85  1  0  0  0  0
 65 67  1  0  0  0  0
 65 76  1  0  0  0  0
 66 78  1  0  0  0  0
 68 70  1  0  0  0  0
M  CHG  1  78   1
M  ISO  4  37 100  62 101  77 100  85 101
M  END
> <Batch ID>
0102

> <Smiles>
CNC(C)C(=O)NC(C(=O)N1Cc2cc([101O:1][101CH2:1]CCC(C)c3cc(C(C)C)c(C[100NH:0][100C:0](=O)N4CCCC(n5nc(-c6ccc(Oc7ccc(F)cc7F)cc6)c(C(N)=O)c5N)C4)c(C)n3)ccc2CC1C(=O)NC1CCCc2ccccc21)C(C)(C)C

> <Shape>
0.215

> <Color>
0.062

> <Negative vol penalty>
0.000

$$$$

  -OEChem-04052319383D

 83 91  0     1  0  0  0  0  0999 V2000
  -18.1467  -26.3332   21.9513 C   0  0  0  0  0  0  0  0  0  0  0  0
  -19.2622  -25.5351   21.7190 C   0  0  0  0  0  0  0  0  0  0  0  0
  -22.8806  -10.1159   20.0307 C   0  0  0  0  0  0  0  0  0  0  0  0
  -23.6776  -10.0217   22.3095 C   0  0  0  0  0  0  0  0  0  0  0  0
  -18.0213  -27.5603   21.3012 C   0  0  0  0  0  0  0  0  0  0  0  0
  -20.2527  -25.9631   20.8357 C   0  0  0  0  0  0  0  0  0  0  0  0
  -26.2763  -24.9555   21.2899 C   0  0  0  0  0  0  0  0  0  0  0  0
  -22.0510   -9.0217   20.2755 C   0  0  0  0  0  0  0  0  0  0  0  0
  -22.8479   -8.9275   22.5544 C   0  0  0  0  0  0  0  0  0  0  0  0
  -27.1179  -24.0170   20.6942 C   0  0  0  0  0  0  0  0  0  0  0  0
  -22.8618   -5.6032   21.9381 C   0  0  0  0  0  0  0  0  0  0  0  0
  -23.4051   -4.5195   22.6279 C   0  0  0  0  0  0  0  0  0  0  0  0
  -27.6995  -25.6266   18.9942 C   0  0  0  0  0  0  0  0  0  0  0  0
  -28.1098  -18.1799   20.9043 C   0  0  0  0  0  0  0  0  0  0  0  0
  -21.7524   -4.7985   24.3680 C   0  0  0  0  0  0  0  0  0  0  0  0
  -30.2540  -16.8741   19.8353 C   0  0  0  0  0  0  0  0  0  0  0  0
  -23.6940  -10.6159   21.0476 C   0  0  0  0  0  0  0  0  0  0  0  0
  -24.2353  -13.1074   20.9623 C   0  0  0  0  0  0  0  0  0  0  0  0
  -19.0154  -28.0080   20.4169 C   0  0  0  0  0  0  0  0  0  0  0  0
  -26.1314  -26.2351   20.7350 C   0  0  0  0  0  0  0  0  0  0  0  0
  -20.1399  -27.1967   20.1722 C   0  0  0  0  0  0  0  0  0  0  0  0
  -26.8574  -26.5803   19.5861 C   0  0  0  0  0  0  0  0  0  0  0  0
  -28.6769  -17.1172   21.5988 C   0  0  0  0  0  0  0  0  0  0  0  0
  -29.7697  -16.4466   21.0610 C   0  0  0  0  0  0  0  0  0  0  0  0
  -22.0346   -8.4275   21.5374 C   0  0  0  0  0  0  0  0  0  0  0  0
  -27.8274  -24.3515   19.5445 C   0  0  0  0  0  0  0  0  0  0  0  0
  -21.7638   -6.2847   22.4632 C   0  0  0  0  0  0  0  0  0  0  0  0
  -22.8505   -4.1171   23.8428 C   0  0  0  0  0  0  0  0  0  0  0  0
  -21.2091   -5.8823   23.6782 C   0  0  0  0  0  0  0  0  0  0  0  0
  -24.5517  -11.7458   20.7951 C   0  0  0  0  0  0  0  0  0  0  0  0
  -28.6685  -18.5300   19.6857 C   0  0  0  0  0  0  0  0  0  0  0  0
  -25.3777  -13.7734   20.5912 C   0  0  0  0  0  0  0  0  0  0  0  0
  -23.0176  -13.7157   21.4128 C   0  0  0  0  0  0  0  0  0  0  0  0
  -23.7086  -27.8868   19.5079 C   0  0  0  0  0  0  0  0  0  0  0  0
  -30.9451  -14.2777   20.7906 C   0  0  0  0  0  0  0  0  0  0  0  0
  -25.8978  -30.2785   19.4104 C   0  0  0  0  0  0  0  0  0  0  0  0
  -29.1829  -31.1964   19.3019 C   0  0  0  0  0  0  0  0  0  0  0  0
  -18.8131  -29.3202   19.7015 C   0  0  0  0  0  0  0  0  0  0  0  0
  -25.2401  -27.2448   21.4048 C   0  0  0  0  0  0  0  0  0  0  0  0
  -26.7525  -27.9473   18.9627 C   0  0  0  0  0  0  0  0  0  0  0  0
  -20.0876  -29.8707   19.0668 C   0  0  0  0  0  0  0  0  0  0  0  0
  -29.5574  -12.1259   18.2839 C   0  0  0  0  0  0  0  0  0  0  0  0
  -20.8203  -28.7730   18.3019 C   0  0  0  0  0  0  0  0  0  0  0  0
  -28.1144  -11.9228   18.7439 C   0  0  0  0  0  0  0  0  0  0  0  0
  -30.5115  -12.2331   19.4693 C   0  0  0  0  0  0  0  0  0  0  0  0
  -28.6974  -13.0929   20.9155 C   0  0  0  0  0  0  0  0  0  0  0  0
  -21.2475  -27.6377   19.2401 C   0  0  1  0  0  0  0  0  0  0  0  0
  -24.7739  -28.3492   20.4613 C   0  0  1  0  0  0  0  0  0  0  0  0
  -27.6965  -13.0103   19.7494 C   0  0  2  0  0  0  0  0  0  0  0  0
  -28.0985  -16.7153   22.9150 C   0  0  0  0  0  0  0  0  0  0  0  0
  -31.5482  -15.7270   22.7076 C   0  0  0  0  0  0  0  0  0  0  0  0
  -30.6595  -33.2225   19.1909 C   0  0  0  0  0  0  0  0  0  0  0  0
  -28.2399  -22.1104   17.0031 C   0  0  0  0  0  0  0  0  0  0  0  0
  -25.2291  -30.6007   16.4508 C   0  0  0  0  0  0  0  0  0  0  0  0
  -27.3390  -31.9231   16.1897 C   0  0  0  0  0  0  0  0  0  0  0  0
  -25.5283  -32.7507   17.6928 C   0  0  0  0  0  0  0  0  0  0  0  0
  -30.4699  -30.5432   21.8856 C   0  0  0  0  0  0  0  0  0  0  0  0
  -28.0794  -19.6772   18.9043 C   0  0  0  0  0  0  0  0  0  0  0  0
  -28.7059  -21.0393   19.2369 C   0  0  0  0  0  0  0  0  0  0  0  0
  -30.4150  -15.3020   21.7621 C   0  0  1  0  0  0  0  0  0  0  0  0
  -26.9133  -30.7577   18.4015 C   0  0  1  0  0  0  0  0  0  0  0  0
  -29.9701  -32.2186   20.1018 C   0  0  2  0  0  0  0  0  0  0  0  0
  -28.0522  -22.2215   18.5108 C   0  0  1  0  0  0  0  0  0  1  0  0
  -26.2531  -31.4816   17.1941 C   0  0  0  0  0  0  0  0  0  0  0  0
  -29.7297  -17.9022   19.1312 N   0  0  0  0  0  0  0  0  0  0  0  0
  -25.7975  -11.5566   20.3522 N   0  0  0  0  0  0  0  0  0  0  0  0
  -26.2739  -12.8080   20.2377 N   0  0  0  0  0  0  0  0  0  0  0  0
  -25.8633  -28.8976   19.6509 N   0  0  0  0  0  0  0  0  0  0  0  0
  -30.0678  -13.2612   20.4123 N   0  0  0  0  0  0  0  0  0  0  0  0
  -25.6930  -15.0849   20.5359 N   0  0  0  0  0  0  0  0  0  0  0  0
  -21.9419  -12.8845   21.7538 N   0  0  0  0  0  0  0  0  0  0  0  0
  -22.4220  -28.0202   19.9942 N   0  0  0  0  0  0  0  0  0  0  0  0
  -27.8676  -31.5773   19.1405 N   0  0  0  0  0  0  0  0  0  0  0  0
  -31.0100  -31.5413   20.9270 N   0  3  0  0  0  0  0  0  0  0  0  0
  -22.8819  -14.9600   21.4944 O   0  0  0  0  0  0  0  0  0  0  0  0
  -24.0300  -27.4432   18.4118 O   0  0  0  0  0  0  0  0  0  0  0  0
  -32.1036  -14.3813   20.3791 O   0  0  0  0  0  0  0  0  0  0  0  0
  -25.1670  -31.0998   19.9699 O   0  0  0  0  0  0  0  0  0  0  0  0
  -29.6856  -30.1653   18.8608 O   0  0  0  0  0  0  0  0  0  0  0  0
  -21.2250   -7.3599   21.7768 O   0  0  0  0  0  0  0  0  0  0  0  0
  -28.6490  -23.4372   18.9607 O   0  0  0  0  0  0  0  0  0  1  0  0
  -23.3714   -3.0754   24.5044 F   0  0  0  0  0  0  0  0  0  0  0  0
  -20.1535   -6.5323   24.1871 F   0  0  0  0  0  0  0  0  0  0  0  0
  1  2  1  0  0  0  0
  1  5  2  0  0  0  0
  2  6  2  0  0  0  0
  3  8  2  0  0  0  0
  3 17  1  0  0  0  0
  4  9  1  0  0  0  0
  4 17  2  0  0  0  0
  5 19  1  0  0  0  0
  6 21  1  0  0  0  0
  7 10  2  0  0  0  0
  7 20  1  0  0  0  0
  8 25  1  0  0  0  0
  9 25  2  0  0  0  0
 10 26  1  0  0  0  0
 11 12  2  0  0  0  0
 11 27  1  0  0  0  0
 12 28  1  0  0  0  0
 13 22  1  0  0  0  0
 13 26  2  0  0  0  0
 14 23  2  0  0  0  0
 14 31  1  0  0  0  0
 15 28  2  0  0  0  0
 15 29  1  0  0  0  0
 16 24  2  0  0  0  0
 16 65  1  0  0  0  0
 17 30  1  0  0  0  0
 18 30  1  0  0  0  0
 18 32  2  0  0  0  0
 18 33  1  0  0  0  0
 19 21  2  0  0  0  0
 19 38  1  0  0  0  0
 20 22  2  0  0  0  0
 20 39  1  0  0  0  0
 21 47  1  0  0  0  0
 22 40  1  0  0  0  0
 23 24  1  0  0  0  0
 23 50  1  0  0  0  0
 24 60  1  0  0  0  0
 25 80  1  0  0  0  0
 26 81  1  0  0  0  0
 27 29  2  0  0  0  0
 27 80  1  0  0  0  0
 28 82  1  0  0  0  0
 29 83  1  0  0  0  0
 30 66  2  0  0  0  0
 31 58  1  0  0  0  0
 31 65  2  0  0  0  0
 32 67  1  0  0  0  0
 32 70  1  0  0  0  0
 33 71  1  0  0  0  0
 33 75  2  0  0  0  0
 34 48  1  0  0  0  0
 34 72  1  0  0  0  0
 34 76  2  0  0  0  0
 35 60  1  0  0  0  0
 35 69  1  0  0  0  0
 35 77  2  0  0  0  0
 36 61  1  0  0  0  0
 36 68  1  0  0  0  0
 36 78  2  0  0  0  0
 37 62  1  0  0  0  0
 37 73  1  0  0  0  0
 37 79  2  0  0  0  0
 38 41  1  0  0  0  0
 39 48  1  0  0  0  0
 40 68  1  0  0  0  0
 41 43  1  0  0  0  0
 42 44  1  0  0  0  0
 42 45  1  0  0  0  0
 43 47  1  0  0  0  0
 44 49  1  0  0  0  0
 45 69  1  0  0  0  0
 46 49  1  0  0  0  0
 46 69  1  0  0  0  0
 47 72  1  0  0  0  0
 48 68  1  0  0  0  0
 49 67  1  0  0  0  0
 51 60  1  0  0  0  0
 52 62  1  0  0  0  0
 53 63  1  0  0  0  0
 54 64  1  0  0  0  0
 55 64  1  0  0  0  0
 56 64  1  0  0  0  0
 57 74  1  0  0  0  0
 58 59  1  0  0  0  0
 59 63  1  0  0  0  0
 61 64  1  0  0  0  0
 61 73  1  0  0  0  0
 62 74  1  0  0  0  0
 63 81  1  0  0  0  0
 66 67  1  0  0  0  0
M  CHG  1  74   1
M  ISO  4  35 100  60 100  63 101  81 101
M  END
> <Batch ID>
0102

> <Smiles>
CNC(C)C(=O)NC(C(=O)N1Cc2cc([101O:1][101CH:1](C)CCc3cc(C)c([100CH:0](C)[100C:0](=O)N4CCCC(n5nc(-c6ccc(Oc7ccc(F)cc7F)cc6)c(C(N)=O)c5N)C4)cn3)ccc2CC1C(=O)NC1CCCc2ccccc21)C(C)(C)C

> <Shape>
0.318

> <Color>
0.231

> <Negative vol penalty>
0.000

$$$$

  -OEChem-04052319383D

 83 90  0     1  0  0  0  0  0999 V2000
  -28.5066  -34.9315   23.4954 C   0  0  0  0  0  0  0  0  0  0  0  0
  -29.2126  -34.0350   22.6996 C   0  0  0  0  0  0  0  0  0  0  0  0
  -26.5986  -13.3435   18.7406 C   0  0  0  0  0  0  0  0  0  0  0  0
  -26.7318  -12.9815   21.1256 C   0  0  0  0  0  0  0  0  0  0  0  0
  -27.4693  -34.4741   24.3069 C   0  0  0  0  0  0  0  0  0  0  0  0
  -28.8824  -32.6803   22.7157 C   0  0  0  0  0  0  0  0  0  0  0  0
  -28.6915  -26.9293   18.4489 C   0  0  0  0  0  0  0  0  0  0  0  0
  -26.0548  -12.0694   18.5776 C   0  0  0  0  0  0  0  0  0  0  0  0
  -26.1879  -11.7074   20.9626 C   0  0  0  0  0  0  0  0  0  0  0  0
  -29.1326  -25.6076   18.4024 C   0  0  0  0  0  0  0  0  0  0  0  0
  -24.4998   -8.4972   21.2144 C   0  0  0  0  0  0  0  0  0  0  0  0
  -23.4932   -8.1033   22.0959 C   0  0  0  0  0  0  0  0  0  0  0  0
  -27.2699  -24.9437   19.7839 C   0  0  0  0  0  0  0  0  0  0  0  0
  -22.1240   -9.9523   21.3587 C   0  0  0  0  0  0  0  0  0  0  0  0
  -26.9372  -13.7995   20.0146 C   0  0  0  0  0  0  0  0  0  0  0  0
  -26.7999  -16.3167   20.4053 C   0  0  0  0  0  0  0  0  0  0  0  0
  -27.1198  -33.1146   24.3258 C   0  0  0  0  0  0  0  0  0  0  0  0
  -27.5404  -27.2705   19.1734 C   0  0  0  0  0  0  0  0  0  0  0  0
  -27.8402  -32.2041   23.5293 C   0  0  0  0  0  0  0  0  0  0  0  0
  -26.8148  -26.2701   19.8359 C   0  0  0  0  0  0  0  0  0  0  0  0
  -25.8494  -11.2514   19.6885 C   0  0  0  0  0  0  0  0  0  0  0  0
  -28.4234  -24.6150   19.0723 C   0  0  0  0  0  0  0  0  0  0  0  0
  -24.3186   -9.6188   20.4051 C   0  0  0  0  0  0  0  0  0  0  0  0
  -22.3053   -8.8308   22.1681 C   0  0  0  0  0  0  0  0  0  0  0  0
  -23.1307  -10.3463   20.4772 C   0  0  0  0  0  0  0  0  0  0  0  0
  -27.4995  -15.1153   20.1837 C   0  0  0  0  0  0  0  0  0  0  0  0
  -27.7811  -17.2735   20.4966 C   0  0  0  0  0  0  0  0  0  0  0  0
  -25.3894  -16.5472   20.5186 C   0  0  0  0  0  0  0  0  0  0  0  0
  -26.9339  -29.1426   21.6697 C   0  0  0  0  0  0  0  0  0  0  0  0
  -23.8518  -28.3984   20.9845 C   0  0  0  0  0  0  0  0  0  0  0  0
  -21.6462  -26.2239   19.5515 C   0  0  0  0  0  0  0  0  0  0  0  0
  -32.7283  -19.0036   22.4142 C   0  0  0  0  0  0  0  0  0  0  0  0
  -26.0221  -32.6601   25.2548 C   0  0  0  0  0  0  0  0  0  0  0  0
  -27.0628  -28.6966   19.1917 C   0  0  0  0  0  0  0  0  0  0  0  0
  -25.5614  -26.5809   20.6110 C   0  0  0  0  0  0  0  0  0  0  0  0
  -25.4890  -31.2666   24.9319 C   0  0  0  0  0  0  0  0  0  0  0  0
  -32.7241  -17.0305   19.4505 C   0  0  0  0  0  0  0  0  0  0  0  0
  -26.6415  -30.2952   24.6975 C   0  0  0  0  0  0  0  0  0  0  0  0
  -31.3094  -16.4509   19.3989 C   0  0  0  0  0  0  0  0  0  0  0  0
  -33.2433  -17.1253   20.8834 C   0  0  0  0  0  0  0  0  0  0  0  0
  -30.9461  -17.2725   21.7636 C   0  0  0  0  0  0  0  0  0  0  0  0
  -27.4954  -30.7309   23.5007 C   0  0  1  0  0  0  0  0  0  0  0  0
  -26.1658  -29.0112   20.3849 C   0  0  1  0  0  0  0  0  0  0  0  0
  -30.3579  -17.2095   20.3436 C   0  0  2  0  0  0  0  0  0  0  0  0
  -19.1896  -25.8653   19.1855 C   0  0  0  0  0  0  0  0  0  0  0  0
  -30.5391  -22.3718   17.5943 C   0  0  0  0  0  0  0  0  0  0  0  0
  -23.5501  -27.5163   23.8898 C   0  0  0  0  0  0  0  0  0  0  0  0
  -21.4522  -26.3170   23.2349 C   0  0  0  0  0  0  0  0  0  0  0  0
  -21.6023  -28.7940   22.9799 C   0  0  0  0  0  0  0  0  0  0  0  0
  -28.5799  -21.7688   24.3896 C   0  0  0  0  0  0  0  0  0  0  0  0
  -30.0530  -23.7710   24.6594 C   0  0  0  0  0  0  0  0  0  0  0  0
  -28.3082  -23.7493   22.8898 C   0  0  0  0  0  0  0  0  0  0  0  0
  -21.9538  -26.3112   16.6093 C   0  0  0  0  0  0  0  0  0  0  0  0
  -31.3645  -24.3361   21.5826 C   0  0  0  0  0  0  0  0  0  0  0  0
  -31.8109  -22.1164   23.1443 C   0  0  0  0  0  0  0  0  0  0  0  0
  -32.0564  -20.8365   23.9466 C   0  0  0  0  0  0  0  0  0  0  0  0
  -30.7681  -22.3946   20.1420 C   0  0  0  0  0  0  0  0  0  0  0  0
  -22.8983  -27.3045   21.4006 C   0  0  1  0  0  0  0  0  0  0  0  0
  -20.4725  -26.4502   18.6157 C   0  0  2  0  0  0  0  0  0  0  0  0
  -30.3760  -22.2887   22.5988 C   0  0  1  0  0  0  0  0  0  0  0  0
  -30.2568  -23.1104   18.8960 C   0  0  2  0  0  0  0  0  0  1  0  0
  -22.4004  -27.4771   22.8634 C   0  0  0  0  0  0  0  0  0  0  0  0
  -29.3419  -22.8682   23.6251 C   0  0  0  0  0  0  0  0  0  0  0  0
  -28.8228  -15.2903   20.1368 N   0  0  0  0  0  0  0  0  0  0  0  0
  -28.9626  -16.6128   20.3302 N   0  0  0  0  0  0  0  0  0  0  0  0
  -25.1384  -27.9911   20.6042 N   0  0  0  0  0  0  0  0  0  0  0  0
  -32.2956  -17.8575   21.7270 N   0  0  0  0  0  0  0  0  0  0  0  0
  -27.7398  -18.6071   20.7020 N   0  0  0  0  0  0  0  0  0  0  0  0
  -24.5219  -15.4527   20.4001 N   0  0  0  0  0  0  0  0  0  0  0  0
  -26.8365  -30.3889   22.2584 N   0  0  0  0  0  0  0  0  0  0  0  0
  -21.8326  -27.2913   20.4043 N   0  0  0  0  0  0  0  0  0  0  0  0
  -31.7652  -19.6415   23.1863 N   0  0  0  0  0  0  0  0  0  0  0  0
  -20.7334  -25.8125   17.2942 N   0  3  0  0  0  0  0  0  0  0  0  0
  -30.4414  -23.1617   21.3698 N   0  3  1  0  0  0  0  0  0  0  0  0
  -24.9114  -17.6923   20.7026 O   0  0  0  0  0  0  0  0  0  0  0  0
  -27.5668  -28.1837   22.0960 O   0  0  0  0  0  0  0  0  0  0  0  0
  -23.4671  -29.5704   20.9897 O   0  0  0  0  0  0  0  0  0  0  0  0
  -22.3270  -25.2009   19.5309 O   0  0  0  0  0  0  0  0  0  0  0  0
  -33.8858  -19.4300   22.3406 O   0  0  0  0  0  0  0  0  0  0  0  0
  -25.3186  -10.0082   19.5298 O   0  0  0  0  0  0  0  0  0  0  0  0
  -28.8522  -23.3242   19.0291 O   0  0  0  0  0  0  0  0  0  1  0  0
  -21.3381   -8.4515   23.0136 F   0  0  0  0  0  0  0  0  0  0  0  0
  -22.9503  -11.4239   19.7014 F   0  0  0  0  0  0  0  0  0  0  0  0
  1  2  1  0  0  0  0
  1  5  2  0  0  0  0
  2  6  2  0  0  0  0
  3  8  2  0  0  0  0
  3 15  1  0  0  0  0
  4  9  1  0  0  0  0
  4 15  2  0  0  0  0
  5 17  1  0  0  0  0
  6 19  1  0  0  0  0
  7 10  2  0  0  0  0
  7 18  1  0  0  0  0
  8 21  1  0  0  0  0
  9 21  2  0  0  0  0
 10 22  1  0  0  0  0
 11 12  2  0  0  0  0
 11 23  1  0  0  0  0
 12 24  1  0  0  0  0
 13 20  1  0  0  0  0
 13 22  2  0  0  0  0
 14 24  2  0  0  0  0
 14 25  1  0  0  0  0
 15 26  1  0  0  0  0
 16 26  1  0  0  0  0
 16 27  2  0  0  0  0
 16 28  1  0  0  0  0
 17 19  2  0  0  0  0
 17 33  1  0  0  0  0
 18 20  2  0  0  0  0
 18 34  1  0  0  0  0
 19 42  1  0  0  0  0
 20 35  1  0  0  0  0
 21 80  1  0  0  0  0
 22 81  1  0  0  0  0
 23 25  2  0  0  0  0
 23 80  1  0  0  0  0
 24 82  1  0  0  0  0
 25 83  1  0  0  0  0
 26 64  2  0  0  0  0
 27 65  1  0  0  0  0
 27 68  1  0  0  0  0
 28 69  1  0  0  0  0
 28 75  2  0  0  0  0
 29 43  1  0  0  0  0
 29 70  1  0  0  0  0
 29 76  2  0  0  0  0
 30 58  1  0  0  0  0
 30 66  1  0  0  0  0
 30 77  2  0  0  0  0
 31 59  1  0  0  0  0
 31 71  1  0  0  0  0
 31 78  2  0  0  0  0
 32 67  1  0  0  0  0
 32 72  1  0  0  0  0
 32 79  2  0  0  0  0
 33 36  1  0  0  0  0
 34 43  1  0  0  0  0
 35 66  1  0  0  0  0
 36 38  1  0  0  0  0
 37 39  1  0  0  0  0
 37 40  1  0  0  0  0
 38 42  1  0  0  0  0
 39 44  1  0  0  0  0
 40 67  1  0  0  0  0
 41 44  1  0  0  0  0
 41 67  1  0  0  0  0
 42 70  1  0  0  0  0
 43 66  1  0  0  0  0
 44 65  1  0  0  0  0
 45 59  1  0  0  0  0
 46 61  1  0  0  0  0
 47 62  1  0  0  0  0
 48 62  1  0  0  0  0
 49 62  1  0  0  0  0
 50 63  1  0  0  0  0
 51 63  1  0  0  0  0
 52 63  1  0  0  0  0
 53 73  1  0  0  0  0
 54 74  1  0  0  0  0
 55 56  1  0  0  0  0
 55 60  1  0  0  0  0
 56 72  1  0  0  0  0
 57 61  1  0  0  0  0
 57 74  1  0  0  0  0
 58 62  1  0  0  0  0
 58 71  1  0  0  0  0
 59 73  1  0  0  0  0
 60 63  1  0  0  0  0
 60 74  1  0  0  0  0
 61 81  1  0  0  0  0
 64 65  1  0  0  0  0
M  CHG  2  73   1  74   1
M  ISO  4  32 100  61 101  72 100  81 101
M  END
> <Batch ID>
0102

> <Smiles>
CNC(C)C(=O)NC(C(=O)N1Cc2cc([101O:1][101CH:1](C)CN(C)C(CC[100NH:0][100C:0](=O)N3CCCC(n4nc(-c5ccc(Oc6ccc(F)cc6F)cc5)c(C(N)=O)c4N)C3)C(C)(C)C)ccc2CC1C(=O)NC1CCCc2ccccc21)C(C)(C)C

> <Shape>
0.258

> <Color>
0.057

> <Negative vol penalty>
0.000

$$$$

  -OEChem-04052319383D

 84 92  0     1  0  0  0  0  0999 V2000
  -30.9221  -33.3706   21.9308 C   0  0  0  0  0  0  0  0  0  0  0  0
  -30.8404  -32.3279   21.0135 C   0  0  0  0  0  0  0  0  0  0  0  0
  -26.9215  -13.5858   21.4394 C   0  0  0  0  0  0  0  0  0  0  0  0
  -26.7161  -13.6988   19.0348 C   0  0  0  0  0  0  0  0  0  0  0  0
  -30.3517  -33.2313   23.1954 C   0  0  0  0  0  0  0  0  0  0  0  0
  -30.1892  -31.1448   21.3606 C   0  0  0  0  0  0  0  0  0  0  0  0
  -26.8947  -27.5360   17.6688 C   0  0  0  0  0  0  0  0  0  0  0  0
  -26.2557  -12.3601   21.4388 C   0  0  0  0  0  0  0  0  0  0  0  0
  -26.0504  -12.4730   19.0341 C   0  0  0  0  0  0  0  0  0  0  0  0
  -27.2024  -26.3578   16.9900 C   0  0  0  0  0  0  0  0  0  0  0  0
  -24.2920   -9.3727   22.1043 C   0  0  0  0  0  0  0  0  0  0  0  0
  -23.2934   -9.1748   23.0578 C   0  0  0  0  0  0  0  0  0  0  0  0
  -26.2473  -25.0750   18.7959 C   0  0  0  0  0  0  0  0  0  0  0  0
  -31.8183  -21.7557   19.6291 C   0  0  0  0  0  0  0  0  0  0  0  0
  -29.7401  -22.4070   20.6495 C   0  0  0  0  0  0  0  0  0  0  0  0
  -22.0687  -11.0568   22.1660 C   0  0  0  0  0  0  0  0  0  0  0  0
  -27.1516  -14.2552   20.2375 C   0  0  0  0  0  0  0  0  0  0  0  0
  -29.2258  -15.7363   20.1290 C   0  0  0  0  0  0  0  0  0  0  0  0
  -29.6848  -32.0495   23.5548 C   0  0  0  0  0  0  0  0  0  0  0  0
  -26.2698  -27.4922   18.9234 C   0  0  0  0  0  0  0  0  0  0  0  0
  -29.6105  -30.9890   22.6317 C   0  0  0  0  0  0  0  0  0  0  0  0
  -25.9304  -26.2541   19.4874 C   0  0  0  0  0  0  0  0  0  0  0  0
  -30.5729  -22.3670   19.5367 C   0  0  0  0  0  0  0  0  0  0  0  0
  -25.8202  -11.8037   20.2361 C   0  0  0  0  0  0  0  0  0  0  0  0
  -26.8813  -25.1269   17.5548 C   0  0  0  0  0  0  0  0  0  0  0  0
  -24.1790  -10.4128   21.1816 C   0  0  0  0  0  0  0  0  0  0  0  0
  -22.1818  -10.0168   23.0887 C   0  0  0  0  0  0  0  0  0  0  0  0
  -23.0673  -11.2548   21.2124 C   0  0  0  0  0  0  0  0  0  0  0  0
  -27.8387  -15.5217   20.2376 C   0  0  0  0  0  0  0  0  0  0  0  0
  -32.1811  -21.2036   20.8470 C   0  0  0  0  0  0  0  0  0  0  0  0
  -30.1958  -21.8256   21.8217 C   0  0  0  0  0  0  0  0  0  0  0  0
  -29.3670  -17.1015   20.1803 C   0  0  0  0  0  0  0  0  0  0  0  0
  -30.2913  -14.7865   19.9939 C   0  0  0  0  0  0  0  0  0  0  0  0
  -27.0566  -28.4340   21.8556 C   0  0  0  0  0  0  0  0  0  0  0  0
  -24.0148  -27.5380   22.5387 C   0  0  0  0  0  0  0  0  0  0  0  0
  -21.3056  -25.6279   21.7273 C   0  0  0  0  0  0  0  0  0  0  0  0
  -27.9195  -21.8832   22.8736 C   0  0  0  0  0  0  0  0  0  0  0  0
  -29.1249  -31.9275   24.9499 C   0  0  0  0  0  0  0  0  0  0  0  0
  -25.9204  -28.7729   19.6307 C   0  0  0  0  0  0  0  0  0  0  0  0
  -25.2406  -26.1533   20.8225 C   0  0  0  0  0  0  0  0  0  0  0  0
  -28.1270  -30.7832   25.1079 C   0  0  0  0  0  0  0  0  0  0  0  0
  -25.9573  -20.8130   19.9244 C   0  0  0  0  0  0  0  0  0  0  0  0
  -28.6697  -29.5094   24.4678 C   0  0  0  0  0  0  0  0  0  0  0  0
  -26.3244  -19.3363   19.7904 C   0  0  0  0  0  0  0  0  0  0  0  0
  -26.0460  -21.2895   21.3711 C   0  0  0  0  0  0  0  0  0  0  0  0
  -27.7452  -19.5554   21.8676 C   0  0  0  0  0  0  0  0  0  0  0  0
  -28.8909  -29.6995   22.9623 C   0  0  1  0  0  0  0  0  0  0  0  0
  -25.7475  -28.5961   21.1361 C   0  0  1  0  0  0  0  0  0  0  0  0
  -27.7027  -19.0612   20.4138 C   0  0  1  0  0  0  0  0  0  0  0  0
  -33.5103  -20.5387   20.9826 C   0  0  0  0  0  0  0  0  0  0  0  0
  -18.9796  -25.0813   22.4945 C   0  0  0  0  0  0  0  0  0  0  0  0
  -30.1846  -22.6400   15.0238 C   0  0  0  0  0  0  0  0  0  0  0  0
  -25.1613  -25.7934   24.7639 C   0  0  0  0  0  0  0  0  0  0  0  0
  -22.9701  -24.5854   24.8508 C   0  0  0  0  0  0  0  0  0  0  0  0
  -23.0705  -27.0223   25.3744 C   0  0  0  0  0  0  0  0  0  0  0  0
  -29.9188  -22.1802   24.2687 C   0  0  0  0  0  0  0  0  0  0  0  0
  -20.1147  -26.6332   19.2113 C   0  0  0  0  0  0  0  0  0  0  0  0
  -30.1270  -22.9842   18.2348 C   0  0  0  0  0  0  0  0  0  0  0  0
  -29.3713  -22.0174   17.3125 C   0  0  0  0  0  0  0  0  0  0  0  0
  -28.3247  -23.9948   16.0412 C   0  0  0  0  0  0  0  0  0  1  0  0
  -23.3517  -26.2561   22.9815 C   0  0  1  0  0  0  0  0  0  0  0  0
  -19.8320  -25.9709   21.6030 C   0  0  2  0  0  0  0  0  0  0  0  0
  -28.9571  -22.6000   15.9431 C   0  0  1  0  0  0  0  0  0  0  0  0
  -23.6532  -25.9158   24.4683 C   0  0  0  0  0  0  0  0  0  0  0  0
  -27.1481  -16.6595   20.3496 N   0  0  0  0  0  0  0  0  0  0  0  0
  -31.3992  -21.2229   21.9496 N   0  0  0  0  0  0  0  0  0  0  0  0
  -28.1052  -17.6022   20.3117 N   0  0  0  0  0  0  0  0  0  0  0  0
  -24.9256  -27.4335   21.4779 N   0  0  0  0  0  0  0  0  0  0  0  0
  -27.3420  -20.9674   21.9703 N   0  0  0  0  0  0  0  0  0  0  0  0
  -30.4463  -17.9106   20.1254 N   0  0  0  0  0  0  0  0  0  0  0  0
  -29.9701  -13.4227   19.9580 N   0  0  0  0  0  0  0  0  0  0  0  0
  -27.6314  -29.6260   22.2532 N   0  0  0  0  0  0  0  0  0  0  0  0
  -21.9324  -26.4048   22.6784 N   0  0  0  0  0  0  0  0  0  0  0  0
  -29.3241  -21.8720   22.9701 N   0  0  0  0  0  0  0  0  0  0  0  0
  -19.3771  -25.7986   20.1944 N   0  3  0  0  0  0  0  0  0  0  0  0
  -31.4940  -15.1360   19.9240 O   0  0  0  0  0  0  0  0  0  0  0  0
  -27.5108  -27.3105   22.0378 O   0  0  0  0  0  0  0  0  0  0  0  0
  -23.7295  -28.5944   23.1083 O   0  0  0  0  0  0  0  0  0  0  0  0
  -21.8457  -24.7552   21.0510 O   0  0  0  0  0  0  0  0  0  0  0  0
  -27.2298  -22.6220   23.5869 O   0  0  0  0  0  0  0  0  0  0  0  0
  -25.1708  -10.6075   20.2350 O   0  0  0  0  0  0  0  0  0  0  0  0
  -27.1812  -23.9754   16.8946 O   0  0  0  0  0  0  0  0  0  1  0  0
  -21.2222   -9.8256   24.0034 F   0  0  0  0  0  0  0  0  0  0  0  0
  -22.9527  -12.2549   20.3279 F   0  0  0  0  0  0  0  0  0  0  0  0
  1  2  1  0  0  0  0
  1  5  2  0  0  0  0
  2  6  2  0  0  0  0
  3  8  2  0  0  0  0
  3 17  1  0  0  0  0
  4  9  1  0  0  0  0
  4 17  2  0  0  0  0
  5 19  1  0  0  0  0
  6 21  1  0  0  0  0
  7 10  2  0  0  0  0
  7 20  1  0  0  0  0
  8 24  1  0  0  0  0
  9 24  2  0  0  0  0
 10 25  1  0  0  0  0
 11 12  2  0  0  0  0
 11 26  1  0  0  0  0
 12 27  1  0  0  0  0
 13 22  1  0  0  0  0
 13 25  2  0  0  0  0
 14 23  1  0  0  0  0
 14 30  2  0  0  0  0
 15 23  2  0  0  0  0
 15 31  1  0  0  0  0
 16 27  2  0  0  0  0
 16 28  1  0  0  0  0
 17 29  1  0  0  0  0
 18 29  1  0  0  0  0
 18 32  2  0  0  0  0
 18 33  1  0  0  0  0
 19 21  2  0  0  0  0
 19 38  1  0  0  0  0
 20 22  2  0  0  0  0
 20 39  1  0  0  0  0
 21 47  1  0  0  0  0
 22 40  1  0  0  0  0
 23 58  1  0  0  0  0
 24 81  1  0  0  0  0
 25 82  1  0  0  0  0
 26 28  2  0  0  0  0
 26 81  1  0  0  0  0
 27 83  1  0  0  0  0
 28 84  1  0  0  0  0
 29 65  2  0  0  0  0
 30 50  1  0  0  0  0
 30 66  1  0  0  0  0
 31 66  2  0  0  0  0
 31 74  1  0  0  0  0
 32 67  1  0  0  0  0
 32 70  1  0  0  0  0
 33 71  1  0  0  0  0
 33 76  2  0  0  0  0
 34 48  1  0  0  0  0
 34 72  1  0  0  0  0
 34 77  2  0  0  0  0
 35 61  1  0  0  0  0
 35 68  1  0  0  0  0
 35 78  2  0  0  0  0
 36 62  1  0  0  0  0
 36 73  1  0  0  0  0
 36 79  2  0  0  0  0
 37 69  1  0  0  0  0
 37 74  1  0  0  0  0
 37 80  2  0  0  0  0
 38 41  1  0  0  0  0
 39 48  1  0  0  0  0
 40 68  1  0  0  0  0
 41 43  1  0  0  0  0
 42 44  1  0  0  0  0
 42 45  1  0  0  0  0
 43 47  1  0  0  0  0
 44 49  1  0  0  0  0
 45 69  1  0  0  0  0
 46 49  1  0  0  0  0
 46 69  1  0  0  0  0
 47 72  1  0  0  0  0
 48 68  1  0  0  0  0
 49 67  1  0  0  0  0
 51 62  1  0  0  0  0
 52 63  1  0  0  0  0
 53 64  1  0  0  0  0
 54 64  1  0  0  0  0
 55 64  1  0  0  0  0
 56 74  1  0  0  0  0
 57 75  1  0  0  0  0
 58 59  1  0  0  0  0
 59 63  1  0  0  0  0
 60 63  1  0  0  0  0
 60 82  1  0  0  0  0
 61 64  1  0  0  0  0
 61 73  1  0  0  0  0
 62 75  1  0  0  0  0
 65 67  1  0  0  0  0
M  CHG  1  75   1
M  ISO  4  37 100  60 101  74 100  82 101
M  END
> <Batch ID>
0102

> <Smiles>
CNC(C)C(=O)NC(C(=O)N1Cc2cc([101O:1][101CH2:1]C(C)CCc3cc(C)nc([100N:0](C)[100C:0](=O)N4CCCC(n5nc(-c6ccc(Oc7ccc(F)cc7F)cc6)c(C(N)=O)c5N)C4)c3)ccc2CC1C(=O)NC1CCCc2ccccc21)C(C)(C)C

> <Shape>
0.206

> <Color>
0.066

> <Negative vol penalty>
0.000

$$$$

  -OEChem-04052319383D

 85 93  0     1  0  0  0  0  0999 V2000
  -28.0839  -37.1488   23.9476 C   0  0  0  0  0  0  0  0  0  0  0  0
  -28.5830  -36.2047   23.0560 C   0  0  0  0  0  0  0  0  0  0  0  0
  -24.7732  -10.2639   22.5520 C   0  0  0  0  0  0  0  0  0  0  0  0
  -24.4423  -11.6945   24.4706 C   0  0  0  0  0  0  0  0  0  0  0  0
  -27.2277  -36.7522   24.9741 C   0  0  0  0  0  0  0  0  0  0  0  0
  -28.2270  -34.8632   23.1910 C   0  0  0  0  0  0  0  0  0  0  0  0
  -26.9910  -28.9938   19.2746 C   0  0  0  0  0  0  0  0  0  0  0  0
  -29.6963  -23.1172   19.3059 C   0  0  0  0  0  0  0  0  0  0  0  0
  -29.9329  -21.7431   19.3447 C   0  0  0  0  0  0  0  0  0  0  0  0
  -24.3497   -9.1645   23.2987 C   0  0  0  0  0  0  0  0  0  0  0  0
  -24.0187  -10.5951   25.2173 C   0  0  0  0  0  0  0  0  0  0  0  0
  -27.3767  -27.6569   19.1863 C   0  0  0  0  0  0  0  0  0  0  0  0
  -23.0119   -6.0427   24.5945 C   0  0  0  0  0  0  0  0  0  0  0  0
  -22.1124   -5.1602   23.9964 C   0  0  0  0  0  0  0  0  0  0  0  0
  -25.8277  -27.0997   20.9496 C   0  0  0  0  0  0  0  0  0  0  0  0
  -27.3794  -22.7028   18.7607 C   0  0  0  0  0  0  0  0  0  0  0  0
  -20.5179   -6.9575   23.7426 C   0  0  0  0  0  0  0  0  0  0  0  0
  -24.8196  -11.5289   23.1380 C   0  0  0  0  0  0  0  0  0  0  0  0
  -24.4582  -13.5237   21.5895 C   0  0  0  0  0  0  0  0  0  0  0  0
  -26.8534  -35.4067   25.1159 C   0  0  0  0  0  0  0  0  0  0  0  0
  -26.0270  -29.3961   20.2101 C   0  0  0  0  0  0  0  0  0  0  0  0
  -27.3661  -34.4481   24.2211 C   0  0  0  0  0  0  0  0  0  0  0  0
  -25.4296  -28.4419   21.0460 C   0  0  0  0  0  0  0  0  0  0  0  0
  -28.4195  -23.5970   19.0139 C   0  0  0  0  0  0  0  0  0  0  0  0
  -28.8928  -20.8489   19.0915 C   0  0  0  0  0  0  0  0  0  0  0  0
  -27.6160  -21.3287   18.7995 C   0  0  0  0  0  0  0  0  0  0  0  0
  -23.9724   -9.3301   24.6313 C   0  0  0  0  0  0  0  0  0  0  0  0
  -26.7972  -26.7101   20.0258 C   0  0  0  0  0  0  0  0  0  0  0  0
  -22.6644   -7.3825   24.7668 C   0  0  0  0  0  0  0  0  0  0  0  0
  -20.8655   -5.6176   23.5704 C   0  0  0  0  0  0  0  0  0  0  0  0
  -21.4174   -7.8399   24.3408 C   0  0  0  0  0  0  0  0  0  0  0  0
  -25.2576  -12.6649   22.3674 C   0  0  0  0  0  0  0  0  0  0  0  0
  -25.3425  -14.4340   21.0643 C   0  0  0  0  0  0  0  0  0  0  0  0
  -23.0428  -13.5006   21.3619 C   0  0  0  0  0  0  0  0  0  0  0  0
  -26.0078  -31.3636   22.7065 C   0  0  0  0  0  0  0  0  0  0  0  0
  -22.8317  -30.7044   22.7073 C   0  0  0  0  0  0  0  0  0  0  0  0
  -20.3169  -28.5635   21.8478 C   0  0  0  0  0  0  0  0  0  0  0  0
  -29.6956  -17.9154   22.1810 C   0  0  0  0  0  0  0  0  0  0  0  0
  -25.9629  -35.0187   26.2697 C   0  0  0  0  0  0  0  0  0  0  0  0
  -25.6024  -30.8376   20.2745 C   0  0  0  0  0  0  0  0  0  0  0  0
  -24.3754  -28.8190   22.0534 C   0  0  0  0  0  0  0  0  0  0  0  0
  -25.3366  -33.6349   26.1171 C   0  0  0  0  0  0  0  0  0  0  0  0
  -30.3910  -14.4807   20.9892 C   0  0  0  0  0  0  0  0  0  0  0  0
  -26.3878  -32.6180   25.6838 C   0  0  0  0  0  0  0  0  0  0  0  0
  -29.0671  -13.7637   21.2486 C   0  0  0  0  0  0  0  0  0  0  0  0
  -30.6117  -15.6340   21.9632 C   0  0  0  0  0  0  0  0  0  0  0  0
  -28.1708  -15.8999   22.2555 C   0  0  0  0  0  0  0  0  0  0  0  0
  -26.9833  -32.9873   24.3198 C   0  0  1  0  0  0  0  0  0  0  0  0
  -24.9843  -31.2191   21.6160 C   0  0  1  0  0  0  0  0  0  0  0  0
  -27.8961  -14.7616   21.2613 C   0  0  2  0  0  0  0  0  0  0  0  0
  -26.4871  -20.3902   18.5247 C   0  0  0  0  0  0  0  0  0  0  0  0
  -29.6007  -19.1926   16.5612 C   0  0  0  0  0  0  0  0  0  0  0  0
  -17.8294  -28.2780   22.0157 C   0  0  0  0  0  0  0  0  0  0  0  0
  -30.6521  -18.9861   19.4774 C   0  0  0  0  0  0  0  0  0  0  0  0
  -23.1220  -29.9228   25.6424 C   0  0  0  0  0  0  0  0  0  0  0  0
  -20.9018  -28.7764   25.4845 C   0  0  0  0  0  0  0  0  0  0  0  0
  -21.0619  -31.2377   25.1119 C   0  0  0  0  0  0  0  0  0  0  0  0
  -28.5496  -20.0984   22.2061 C   0  0  0  0  0  0  0  0  0  0  0  0
  -20.0032  -28.5499   18.9049 C   0  0  0  0  0  0  0  0  0  0  0  0
  -28.1653  -25.0752   18.9716 C   0  0  0  0  0  0  0  0  0  1  0  0
  -28.8231  -18.6721   17.7671 C   0  0  0  0  0  0  0  0  0  0  0  0
  -28.2795  -18.6596   20.2205 C   0  0  0  0  0  0  0  0  0  0  0  0
  -21.9574  -29.6571   23.3535 C   0  0  1  0  0  0  0  0  0  0  0  0
  -18.9797  -28.8009   21.1695 C   0  0  2  0  0  0  0  0  0  0  0  0
  -29.1705  -19.3821   19.1377 C   0  0  2  0  0  0  0  0  0  0  0  0
  -21.7820  -29.8914   24.8805 C   0  0  0  0  0  0  0  0  0  0  0  0
  -26.5504  -12.9996   22.3415 N   0  0  0  0  0  0  0  0  0  0  0  0
  -26.5701  -14.0788   21.5408 N   0  0  0  0  0  0  0  0  0  0  0  0
  -23.9985  -30.2419   22.0825 N   0  0  0  0  0  0  0  0  0  0  0  0
  -29.4656  -16.5434   21.9872 N   0  0  0  0  0  0  0  0  0  0  0  0
  -25.1820  -15.4956   20.2460 N   0  0  0  0  0  0  0  0  0  0  0  0
  -22.2832  -12.4969   21.9784 N   0  0  0  0  0  0  0  0  0  0  0  0
  -26.0696  -32.6300   23.2559 N   0  0  0  0  0  0  0  0  0  0  0  0
  -20.7066  -29.6496   22.6026 N   0  0  0  0  0  0  0  0  0  0  0  0
  -28.7930  -18.8063   21.5807 N   0  0  0  0  0  0  0  0  0  0  0  0
  -18.9405  -28.1145   19.8473 N   0  3  0  0  0  0  0  0  0  0  0  0
  -22.4709  -14.3353   20.6204 O   0  0  0  0  0  0  0  0  0  0  0  0
  -26.6899  -30.3973   23.0268 O   0  0  0  0  0  0  0  0  0  0  0  0
  -22.4883  -31.8885   22.7491 O   0  0  0  0  0  0  0  0  0  0  0  0
  -20.9504  -27.5177   21.7236 O   0  0  0  0  0  0  0  0  0  0  0  0
  -30.6586  -18.3211   22.8443 O   0  0  0  0  0  0  0  0  0  0  0  0
  -23.5588   -8.2576   25.3601 O   0  0  0  0  0  0  0  0  0  0  0  0
  -27.1724  -25.4047   19.9422 O   0  0  0  0  0  0  0  0  0  1  0  0
  -20.0024   -4.7704   22.9946 F   0  0  0  0  0  0  0  0  0  0  0  0
  -21.0783   -9.1263   24.5025 F   0  0  0  0  0  0  0  0  0  0  0  0
  1  2  1  0  0  0  0
  1  5  2  0  0  0  0
  2  6  2  0  0  0  0
  3 10  2  0  0  0  0
  3 18  1  0  0  0  0
  4 11  1  0  0  0  0
  4 18  2  0  0  0  0
  5 20  1  0  0  0  0
  6 22  1  0  0  0  0
  7 12  2  0  0  0  0
  7 21  1  0  0  0  0
  8  9  2  0  0  0  0
  8 24  1  0  0  0  0
  9 25  1  0  0  0  0
 10 27  1  0  0  0  0
 11 27  2  0  0  0  0
 12 28  1  0  0  0  0
 13 14  2  0  0  0  0
 13 29  1  0  0  0  0
 14 30  1  0  0  0  0
 15 23  1  0  0  0  0
 15 28  2  0  0  0  0
 16 24  2  0  0  0  0
 16 26  1  0  0  0  0
 17 30  2  0  0  0  0
 17 31  1  0  0  0  0
 18 32  1  0  0  0  0
 19 32  1  0  0  0  0
 19 33  2  0  0  0  0
 19 34  1  0  0  0  0
 20 22  2  0  0  0  0
 20 39  1  0  0  0  0
 21 23  2  0  0  0  0
 21 40  1  0  0  0  0
 22 48  1  0  0  0  0
 23 41  1  0  0  0  0
 24 60  1  0  0  0  0
 25 26  2  0  0  0  0
 25 65  1  0  0  0  0
 26 51  1  0  0  0  0
 27 82  1  0  0  0  0
 28 83  1  0  0  0  0
 29 31  2  0  0  0  0
 29 82  1  0  0  0  0
 30 84  1  0  0  0  0
 31 85  1  0  0  0  0
 32 67  2  0  0  0  0
 33 68  1  0  0  0  0
 33 71  1  0  0  0  0
 34 72  1  0  0  0  0
 34 77  2  0  0  0  0
 35 49  1  0  0  0  0
 35 73  1  0  0  0  0
 35 78  2  0  0  0  0
 36 63  1  0  0  0  0
 36 69  1  0  0  0  0
 36 79  2  0  0  0  0
 37 64  1  0  0  0  0
 37 74  1  0  0  0  0
 37 80  2  0  0  0  0
 38 70  1  0  0  0  0
 38 75  1  0  0  0  0
 38 81  2  0  0  0  0
 39 42  1  0  0  0  0
 40 49  1  0  0  0  0
 41 69  1  0  0  0  0
 42 44  1  0  0  0  0
 43 45  1  0  0  0  0
 43 46  1  0  0  0  0
 44 48  1  0  0  0  0
 45 50  1  0  0  0  0
 46 70  1  0  0  0  0
 47 50  1  0  0  0  0
 47 70  1  0  0  0  0
 48 73  1  0  0  0  0
 49 69  1  0  0  0  0
 50 68  1  0  0  0  0
 52 61  1  0  0  0  0
 53 64  1  0  0  0  0
 54 65  1  0  0  0  0
 55 66  1  0  0  0  0
 56 66  1  0  0  0  0
 57 66  1  0  0  0  0
 58 75  1  0  0  0  0
 59 76  1  0  0  0  0
 60 83  1  0  0  0  0
 61 65  1  0  0  0  0
 62 65  1  0  0  0  0
 62 75  1  0  0  0  0
 63 66  1  0  0  0  0
 63 74  1  0  0  0  0
 64 76  1  0  0  0  0
 67 68  1  0  0  0  0
M  CHG  1  76   1
M  ISO  4  38 100  60 101  75 100  83 101
M  END
> <Batch ID>
0102

> <Smiles>
CCC(C)(C[100N:0](C)[100C:0](=O)N1CCCC(n2nc(-c3ccc(Oc4ccc(F)cc4F)cc3)c(C(N)=O)c2N)C1)c1ccc([101CH2:1][101O:1]c2ccc3c(c2)CN(C(=O)C(NC(=O)C(C)NC)C(C)(C)C)C(C(=O)NC2CCCc4ccccc42)C3)cc1C

> <Shape>
0.328

> <Color>
0.125

> <Negative vol penalty>
0.000

$$$$

  -OEChem-04052319383D

 85 93  0     1  0  0  0  0  0999 V2000
  -21.6997  -12.0599   19.0741 C   0  0  0  0  0  0  0  0  0  0  0  0
  -21.6497  -13.4250   19.3374 C   0  0  0  0  0  0  0  0  0  0  0  0
  -25.7870  -28.7471   21.6225 C   0  0  0  0  0  0  0  0  0  0  0  0
  -25.0614  -28.3856   19.3465 C   0  0  0  0  0  0  0  0  0  0  0  0
  -22.8070  -11.3137   19.4754 C   0  0  0  0  0  0  0  0  0  0  0  0
  -22.7067  -14.0446   20.0033 C   0  0  0  0  0  0  0  0  0  0  0  0
  -24.0500  -18.4307   17.8579 C   0  0  0  0  0  0  0  0  0  0  0  0
  -27.0572  -28.2745   21.2926 C   0  0  0  0  0  0  0  0  0  0  0  0
  -26.3316  -27.9130   19.0166 C   0  0  0  0  0  0  0  0  0  0  0  0
  -23.2457  -19.5394   18.1180 C   0  0  0  0  0  0  0  0  0  0  0  0
  -28.5548  -25.2820   20.8164 C   0  0  0  0  0  0  0  0  0  0  0  0
  -29.1583  -24.3811   21.6937 C   0  0  0  0  0  0  0  0  0  0  0  0
  -24.8284  -20.2911   19.7761 C   0  0  0  0  0  0  0  0  0  0  0  0
  -30.9916  -25.9217   22.0145 C   0  0  0  0  0  0  0  0  0  0  0  0
  -24.7891  -28.8026   20.6494 C   0  0  0  0  0  0  0  0  0  0  0  0
  -23.0204  -30.6204   20.9237 C   0  0  0  0  0  0  0  0  0  0  0  0
  -23.8823  -11.9263   20.1380 C   0  0  0  0  0  0  0  0  0  0  0  0
  -25.2462  -18.2378   18.5639 C   0  0  0  0  0  0  0  0  0  0  0  0
  -23.8288  -13.3057   20.4151 C   0  0  0  0  0  0  0  0  0  0  0  0
  -25.6474  -19.1805   19.5213 C   0  0  0  0  0  0  0  0  0  0  0  0
  -27.3295  -27.8574   19.9897 C   0  0  0  0  0  0  0  0  0  0  0  0
  -23.6334  -20.4683   19.0793 C   0  0  0  0  0  0  0  0  0  0  0  0
  -29.1697  -26.5027   20.5380 C   0  0  0  0  0  0  0  0  0  0  0  0
  -30.3766  -24.7009   22.2928 C   0  0  0  0  0  0  0  0  0  0  0  0
  -30.3881  -26.8226   21.1371 C   0  0  0  0  0  0  0  0  0  0  0  0
  -23.4766  -29.2902   20.9897 C   0  0  0  0  0  0  0  0  0  0  0  0
  -21.7158  -30.5574   21.3487 C   0  0  0  0  0  0  0  0  0  0  0  0
  -23.7138  -31.8068   20.5146 C   0  0  0  0  0  0  0  0  0  0  0  0
  -26.3533  -16.0013   20.5326 C   0  0  0  0  0  0  0  0  0  0  0  0
  -29.0924  -17.7266   20.3255 C   0  0  0  0  0  0  0  0  0  0  0  0
  -30.5833  -20.7310   19.6951 C   0  0  0  0  0  0  0  0  0  0  0  0
  -17.1464  -27.3536   21.0414 C   0  0  0  0  0  0  0  0  0  0  0  0
  -25.0367  -11.0697   20.5944 C   0  0  0  0  0  0  0  0  0  0  0  0
  -26.1159  -17.0507   18.2526 C   0  0  0  0  0  0  0  0  0  0  0  0
  -26.9324  -19.0300   20.2923 C   0  0  0  0  0  0  0  0  0  0  0  0
  -26.2822  -11.8719   20.9626 C   0  0  0  0  0  0  0  0  0  0  0  0
  -19.0564  -27.3665   24.0119 C   0  0  0  0  0  0  0  0  0  0  0  0
  -25.9111  -13.0584   21.8464 C   0  0  0  0  0  0  0  0  0  0  0  0
  -20.3638  -27.9924   23.5283 C   0  0  0  0  0  0  0  0  0  0  0  0
  -19.1957  -22.2141   19.9882 C   0  0  0  0  0  0  0  0  0  0  0  0
  -18.4691  -26.3968   22.9848 C   0  0  0  0  0  0  0  0  0  0  0  0
  -19.6070  -27.6101   21.1529 C   0  0  0  0  0  0  0  0  0  0  0  0
  -20.9428  -21.9135   21.5698 C   0  0  0  0  0  0  0  0  0  0  0  0
  -24.9667  -14.0186   21.1131 C   0  0  1  0  0  0  0  0  0  0  0  0
  -27.0582  -16.6845   19.3951 C   0  0  1  0  0  0  0  0  0  0  0  0
  -20.7120  -22.2957   20.1163 C   0  0  1  0  0  0  0  0  0  0  0  0
  -20.1866  -28.6338   22.1411 C   0  0  2  0  0  0  0  0  0  0  0  0
  -18.7131  -22.8731   21.2739 C   0  0  1  0  0  0  0  0  0  0  0  0
  -32.8333  -21.8411   19.6425 C   0  0  0  0  0  0  0  0  0  0  0  0
  -14.8989  -22.1096   21.2668 C   0  0  0  0  0  0  0  0  0  0  0  0
  -14.3830  -28.2753   21.7815 C   0  0  0  0  0  0  0  0  0  0  0  0
  -14.5748  -27.2361   19.4997 C   0  0  0  0  0  0  0  0  0  0  0  0
  -29.1085  -17.8328   23.3748 C   0  0  0  0  0  0  0  0  0  0  0  0
  -30.7737  -19.6968   23.2317 C   0  0  0  0  0  0  0  0  0  0  0  0
  -31.3481  -17.4419   22.3327 C   0  0  0  0  0  0  0  0  0  0  0  0
  -30.3319  -21.3658   16.8153 C   0  0  0  0  0  0  0  0  0  0  0  0
  -21.4443  -21.3954   19.1445 C   0  0  0  0  0  0  0  0  0  1  0  0
  -17.3461  -22.4082   21.7337 C   0  0  0  0  0  0  0  0  0  0  0  0
  -16.0801  -24.2100   20.4371 C   0  0  0  0  0  0  0  0  0  0  0  0
  -16.1422  -25.1161   21.6660 C   0  0  0  0  0  0  0  0  0  0  0  0
  -29.6862  -18.8855   21.0892 C   0  0  1  0  0  0  0  0  0  0  0  0
  -31.7778  -21.1020   18.8348 C   0  0  2  0  0  0  0  0  0  0  0  0
  -16.2078  -22.6979   20.7274 C   0  0  2  0  0  0  0  0  0  0  0  0
  -14.7057  -27.0079   21.0000 C   0  0  0  0  0  0  0  0  0  0  0  0
  -30.2039  -18.4664   22.4941 C   0  0  0  0  0  0  0  0  0  0  0  0
  -22.5382  -28.4441   21.4228 N   0  0  0  0  0  0  0  0  0  0  0  0
  -21.4793  -29.2446   21.6328 N   0  0  0  0  0  0  0  0  0  0  0  0
  -27.7453  -17.8494   19.9565 N   0  0  0  0  0  0  0  0  0  0  0  0
  -18.3614  -27.0337   21.6651 N   0  0  0  0  0  0  0  0  0  0  0  0
  -20.7595  -31.4976   21.5035 N   0  0  0  0  0  0  0  0  0  0  0  0
  -25.0501  -31.6928   20.1075 N   0  0  0  0  0  0  0  0  0  0  0  0
  -25.7054  -14.8348   20.1736 N   0  0  0  0  0  0  0  0  0  0  0  0
  -30.7085  -19.4637   20.2238 N   0  0  0  0  0  0  0  0  0  0  0  0
  -16.0437  -26.5339   21.3250 N   0  0  0  0  0  0  0  0  0  0  0  0
  -19.7597  -22.4956   22.2917 N   0  3  0  0  0  0  0  0  0  0  0  0
  -31.3516  -21.9769   17.7062 N   0  3  0  0  0  0  0  0  0  0  0  0
  -23.1697  -32.9370   20.5259 O   0  0  0  0  0  0  0  0  0  0  0  0
  -26.3954  -16.4951   21.6533 O   0  0  0  0  0  0  0  0  0  0  0  0
  -29.7997  -16.7516   20.0597 O   0  0  0  0  0  0  0  0  0  0  0  0
  -29.6358  -21.4910   19.8825 O   0  0  0  0  0  0  0  0  0  0  0  0
  -17.0525  -28.3143   20.2666 O   0  0  0  0  0  0  0  0  0  0  0  0
  -28.5689  -27.3964   19.6674 O   0  0  0  0  0  0  0  0  0  0  0  0
  -22.8499  -21.5510   19.3355 O   0  0  0  0  0  0  0  0  0  1  0  0
  -30.9553  -23.8364   23.1365 F   0  0  0  0  0  0  0  0  0  0  0  0
  -30.9830  -27.9943   20.8745 F   0  0  0  0  0  0  0  0  0  0  0  0
  1  2  1  0  0  0  0
  1  5  2  0  0  0  0
  2  6  2  0  0  0  0
  3  8  2  0  0  0  0
  3 15  1  0  0  0  0
  4  9  1  0  0  0  0
  4 15  2  0  0  0  0
  5 17  1  0  0  0  0
  6 19  1  0  0  0  0
  7 10  2  0  0  0  0
  7 18  1  0  0  0  0
  8 21  1  0  0  0  0
  9 21  2  0  0  0  0
 10 22  1  0  0  0  0
 11 12  2  0  0  0  0
 11 23  1  0  0  0  0
 12 24  1  0  0  0  0
 13 20  1  0  0  0  0
 13 22  2  0  0  0  0
 14 24  2  0  0  0  0
 14 25  1  0  0  0  0
 15 26  1  0  0  0  0
 16 26  1  0  0  0  0
 16 27  2  0  0  0  0
 16 28  1  0  0  0  0
 17 19  2  0  0  0  0
 17 33  1  0  0  0  0
 18 20  2  0  0  0  0
 18 34  1  0  0  0  0
 19 44  1  0  0  0  0
 20 35  1  0  0  0  0
 21 82  1  0  0  0  0
 22 83  1  0  0  0  0
 23 25  2  0  0  0  0
 23 82  1  0  0  0  0
 24 84  1  0  0  0  0
 25 85  1  0  0  0  0
 26 66  2  0  0  0  0
 27 67  1  0  0  0  0
 27 70  1  0  0  0  0
 28 71  1  0  0  0  0
 28 77  2  0  0  0  0
 29 45  1  0  0  0  0
 29 72  1  0  0  0  0
 29 78  2  0  0  0  0
 30 61  1  0  0  0  0
 30 68  1  0  0  0  0
 30 79  2  0  0  0  0
 31 62  1  0  0  0  0
 31 73  1  0  0  0  0
 31 80  2  0  0  0  0
 32 69  1  0  0  0  0
 32 74  1  0  0  0  0
 32 81  2  0  0  0  0
 33 36  1  0  0  0  0
 34 45  1  0  0  0  0
 35 68  1  0  0  0  0
 36 38  1  0  0  0  0
 37 39  1  0  0  0  0
 37 41  1  0  0  0  0
 38 44  1  0  0  0  0
 39 47  1  0  0  0  0
 40 46  1  0  0  0  0
 40 48  1  0  0  0  0
 41 69  1  0  0  0  0
 42 47  1  0  0  0  0
 42 69  1  0  0  0  0
 43 46  1  0  0  0  0
 43 75  1  0  0  0  0
 44 72  1  0  0  0  0
 45 68  1  0  0  0  0
 46 57  1  0  0  0  0
 47 67  1  0  0  0  0
 48 58  1  0  0  0  0
 48 75  1  0  0  0  0
 49 62  1  0  0  0  0
 50 63  1  0  0  0  0
 51 64  1  0  0  0  0
 52 64  1  0  0  0  0
 53 65  1  0  0  0  0
 54 65  1  0  0  0  0
 55 65  1  0  0  0  0
 56 76  1  0  0  0  0
 57 83  1  0  0  0  0
 58 63  1  0  0  0  0
 59 60  1  0  0  0  0
 59 63  1  0  0  0  0
 60 74  1  0  0  0  0
 61 65  1  0  0  0  0
 61 73  1  0  0  0  0
 62 76  1  0  0  0  0
 64 74  1  0  0  0  0
 66 67  1  0  0  0  0
M  CHG  2  75   1  76   1
M  ISO  4  32 100  57 101  74 100  83 101
M  END
> <Batch ID>
0102

> <Smiles>
CNC(C)C(=O)NC(C(=O)N1Cc2cc([101O:1][101CH2:1]C3CNC(CC(C)CC[100N:0](C(C)C)[100C:0](=O)N4CCCC(n5nc(-c6ccc(Oc7ccc(F)cc7F)cc6)c(C(N)=O)c5N)C4)C3)ccc2CC1C(=O)NC1CCCc2ccccc21)C(C)(C)C

> <Shape>
0.227

> <Color>
0.092

> <Negative vol penalty>
0.000

$$$$

  -OEChem-04052319383D

 86 94  0     1  0  0  0  0  0999 V2000
  -25.3660  -37.5554   22.7537 C   0  0  0  0  0  0  0  0  0  0  0  0
  -26.1497  -36.5290   22.2362 C   0  0  0  0  0  0  0  0  0  0  0  0
  -26.6097  -11.7617   20.2795 C   0  0  0  0  0  0  0  0  0  0  0  0
  -25.5212  -13.8433   20.8445 C   0  0  0  0  0  0  0  0  0  0  0  0
  -24.3805  -37.2701   23.6978 C   0  0  0  0  0  0  0  0  0  0  0  0
  -25.9491  -35.2169   22.6633 C   0  0  0  0  0  0  0  0  0  0  0  0
  -26.5329  -30.1244   19.3119 C   0  0  0  0  0  0  0  0  0  0  0  0
  -25.6178  -11.0577   20.9622 C   0  0  0  0  0  0  0  0  0  0  0  0
  -24.5292  -13.1393   21.5272 C   0  0  0  0  0  0  0  0  0  0  0  0
  -27.5658  -29.1962   19.1882 C   0  0  0  0  0  0  0  0  0  0  0  0
  -22.4344  -10.0649   20.4025 C   0  0  0  0  0  0  0  0  0  0  0  0
  -21.8940   -8.9392   19.7810 C   0  0  0  0  0  0  0  0  0  0  0  0
  -26.4825  -27.7831   20.8158 C   0  0  0  0  0  0  0  0  0  0  0  0
  -29.7223  -21.7137   21.2798 C   0  0  0  0  0  0  0  0  0  0  0  0
  -27.5592  -22.1291   22.2724 C   0  0  0  0  0  0  0  0  0  0  0  0
  -22.6329   -7.5658   21.6262 C   0  0  0  0  0  0  0  0  0  0  0  0
  -26.5614  -13.1545   20.2207 C   0  0  0  0  0  0  0  0  0  0  0  0
  -27.5854  -14.2510   18.1575 C   0  0  0  0  0  0  0  0  0  0  0  0
  -24.1612  -35.9524   24.1295 C   0  0  0  0  0  0  0  0  0  0  0  0
  -25.4708  -29.8936   20.1979 C   0  0  0  0  0  0  0  0  0  0  0  0
  -24.9606  -34.9139   23.6150 C   0  0  0  0  0  0  0  0  0  0  0  0
  -25.4361  -28.7087   20.9469 C   0  0  0  0  0  0  0  0  0  0  0  0
  -28.4933  -22.3732   21.2657 C   0  0  0  0  0  0  0  0  0  0  0  0
  -30.0172  -20.8099   22.3006 C   0  0  0  0  0  0  0  0  0  0  0  0
  -27.8540  -21.2253   23.2932 C   0  0  0  0  0  0  0  0  0  0  0  0
  -29.0830  -20.5658   23.3073 C   0  0  0  0  0  0  0  0  0  0  0  0
  -24.5775  -11.7464   21.5860 C   0  0  0  0  0  0  0  0  0  0  0  0
  -27.5422  -28.0266   19.9424 C   0  0  0  0  0  0  0  0  0  0  0  0
  -23.0741   -9.9411   21.6359 C   0  0  0  0  0  0  0  0  0  0  0  0
  -21.9932   -7.6896   20.3928 C   0  0  0  0  0  0  0  0  0  0  0  0
  -23.1733   -8.6915   22.2478 C   0  0  0  0  0  0  0  0  0  0  0  0
  -27.5861  -13.8823   19.5161 C   0  0  0  0  0  0  0  0  0  0  0  0
  -28.7721  -14.9200   17.9826 C   0  0  0  0  0  0  0  0  0  0  0  0
  -26.6001  -14.0103   17.1441 C   0  0  0  0  0  0  0  0  0  0  0  0
  -24.3388  -31.3697   22.7754 C   0  0  0  0  0  0  0  0  0  0  0  0
  -21.9837  -29.1523   22.5321 C   0  0  0  0  0  0  0  0  0  0  0  0
  -20.9976  -26.0848   21.4075 C   0  0  0  0  0  0  0  0  0  0  0  0
  -32.3508  -17.9220   21.7286 C   0  0  0  0  0  0  0  0  0  0  0  0
  -23.1159  -35.6995   25.1869 C   0  0  0  0  0  0  0  0  0  0  0  0
  -24.3508  -30.8924   20.2999 C   0  0  0  0  0  0  0  0  0  0  0  0
  -24.3081  -28.4041   21.8973 C   0  0  0  0  0  0  0  0  0  0  0  0
  -22.7154  -34.2314   25.3085 C   0  0  0  0  0  0  0  0  0  0  0  0
  -33.2351  -15.1378   19.6932 C   0  0  0  0  0  0  0  0  0  0  0  0
  -23.9534  -33.3407   25.3345 C   0  0  0  0  0  0  0  0  0  0  0  0
  -31.8875  -14.5336   19.2944 C   0  0  0  0  0  0  0  0  0  0  0  0
  -33.2103  -15.6796   21.1207 C   0  0  0  0  0  0  0  0  0  0  0  0
  -30.7735  -16.0291   21.0035 C   0  0  0  0  0  0  0  0  0  0  0  0
  -24.7565  -33.4744   24.0350 C   0  0  1  0  0  0  0  0  0  0  0  0
  -23.5803  -30.7941   21.6130 C   0  0  1  0  0  0  0  0  0  0  0  0
  -30.7324  -15.5197   19.5526 C   0  0  2  0  0  0  0  0  0  0  0  0
  -29.3996  -19.5970   24.4019 C   0  0  0  0  0  0  0  0  0  0  0  0
  -25.5340  -20.3807   23.8009 C   0  0  0  0  0  0  0  0  0  0  0  0
  -26.5226  -22.2512   25.1718 C   0  0  0  0  0  0  0  0  0  0  0  0
  -19.0265  -24.5317   21.3942 C   0  0  0  0  0  0  0  0  0  0  0  0
  -28.9025  -25.5130   18.0762 C   0  0  0  0  0  0  0  0  0  0  0  0
  -22.5437  -28.4207   25.4409 C   0  0  0  0  0  0  0  0  0  0  0  0
  -21.2627  -26.2999   25.0813 C   0  0  0  0  0  0  0  0  0  0  0  0
  -20.1189  -28.5029   24.8341 C   0  0  0  0  0  0  0  0  0  0  0  0
  -20.8355  -26.1288   18.4527 C   0  0  0  0  0  0  0  0  0  0  0  0
  -28.1743  -23.3496   20.1619 C   0  0  0  0  0  0  0  0  0  0  0  0
  -31.3409  -20.1175   22.2932 C   0  0  0  0  0  0  0  0  0  0  0  0
  -28.5938  -24.7939   20.4723 C   0  0  0  0  0  0  0  0  0  0  0  0
  -26.8366  -20.9816   24.3596 C   0  0  0  0  0  0  0  0  0  0  0  0
  -21.7687  -27.7578   23.0690 C   0  0  1  0  0  0  0  0  0  0  0  0
  -19.7583  -25.6394   20.6524 C   0  0  2  0  0  0  0  0  0  0  0  0
  -28.1936  -25.8065   19.3923 C   0  0  1  0  0  0  0  0  0  1  0  0
  -21.4459  -27.7517   24.5899 C   0  0  0  0  0  0  0  0  0  0  0  0
  -28.6861  -14.2837   20.1587 N   0  0  0  0  0  0  0  0  0  0  0  0
  -29.3877  -14.9114   19.1997 N   0  0  0  0  0  0  0  0  0  0  0  0
  -23.2396  -29.4146   21.9665 N   0  0  0  0  0  0  0  0  0  0  0  0
  -32.0927  -16.6098   21.2989 N   0  0  0  0  0  0  0  0  0  0  0  0
  -29.3388  -15.5087   16.9081 N   0  0  0  0  0  0  0  0  0  0  0  0
  -25.4393  -13.3073   17.4944 N   0  0  0  0  0  0  0  0  0  0  0  0
  -24.1268  -32.7210   22.9719 N   0  0  0  0  0  0  0  0  0  0  0  0
  -20.7337  -27.1548   22.2361 N   0  0  0  0  0  0  0  0  0  0  0  0
  -31.2361  -18.7402   21.8658 N   0  0  0  0  0  0  0  0  0  0  0  0
  -20.1291  -25.1341   19.3003 N   0  3  0  0  0  0  0  0  0  0  0  0
  -26.7522  -14.3925   15.9591 O   0  0  0  0  0  0  0  0  0  0  0  0
  -25.0616  -30.6414   23.4454 O   0  0  0  0  0  0  0  0  0  0  0  0
  -21.0687  -29.9762   22.6052 O   0  0  0  0  0  0  0  0  0  0  0  0
  -22.0896  -25.5358   21.2782 O   0  0  0  0  0  0  0  0  0  0  0  0
  -33.4907  -18.3354   21.9668 O   0  0  0  0  0  0  0  0  0  0  0  0
  -23.6093  -11.0598   22.2521 O   0  0  0  0  0  0  0  0  0  0  0  0
  -28.5494  -27.1192   19.8241 O   0  0  0  0  0  0  0  0  0  1  0  0
  -21.4729   -6.6089   19.7966 F   0  0  0  0  0  0  0  0  0  0  0  0
  -23.7856   -8.5665   23.4332 F   0  0  0  0  0  0  0  0  0  0  0  0
  1  2  1  0  0  0  0
  1  5  2  0  0  0  0
  2  6  2  0  0  0  0
  3  8  2  0  0  0  0
  3 17  1  0  0  0  0
  4  9  1  0  0  0  0
  4 17  2  0  0  0  0
  5 19  1  0  0  0  0
  6 21  1  0  0  0  0
  7 10  2  0  0  0  0
  7 20  1  0  0  0  0
  8 27  1  0  0  0  0
  9 27  2  0  0  0  0
 10 28  1  0  0  0  0
 11 12  2  0  0  0  0
 11 29  1  0  0  0  0
 12 30  1  0  0  0  0
 13 22  1  0  0  0  0
 13 28  2  0  0  0  0
 14 23  1  0  0  0  0
 14 24  2  0  0  0  0
 15 23  2  0  0  0  0
 15 25  1  0  0  0  0
 16 30  2  0  0  0  0
 16 31  1  0  0  0  0
 17 32  1  0  0  0  0
 18 32  1  0  0  0  0
 18 33  2  0  0  0  0
 18 34  1  0  0  0  0
 19 21  2  0  0  0  0
 19 39  1  0  0  0  0
 20 22  2  0  0  0  0
 20 40  1  0  0  0  0
 21 48  1  0  0  0  0
 22 41  1  0  0  0  0
 23 60  1  0  0  0  0
 24 26  1  0  0  0  0
 24 61  1  0  0  0  0
 25 26  2  0  0  0  0
 25 63  1  0  0  0  0
 26 51  1  0  0  0  0
 27 83  1  0  0  0  0
 28 84  1  0  0  0  0
 29 31  2  0  0  0  0
 29 83  1  0  0  0  0
 30 85  1  0  0  0  0
 31 86  1  0  0  0  0
 32 68  2  0  0  0  0
 33 69  1  0  0  0  0
 33 72  1  0  0  0  0
 34 73  1  0  0  0  0
 34 78  2  0  0  0  0
 35 49  1  0  0  0  0
 35 74  1  0  0  0  0
 35 79  2  0  0  0  0
 36 64  1  0  0  0  0
 36 70  1  0  0  0  0
 36 80  2  0  0  0  0
 37 65  1  0  0  0  0
 37 75  1  0  0  0  0
 37 81  2  0  0  0  0
 38 71  1  0  0  0  0
 38 76  1  0  0  0  0
 38 82  2  0  0  0  0
 39 42  1  0  0  0  0
 40 49  1  0  0  0  0
 41 70  1  0  0  0  0
 42 44  1  0  0  0  0
 43 45  1  0  0  0  0
 43 46  1  0  0  0  0
 44 48  1  0  0  0  0
 45 50  1  0  0  0  0
 46 71  1  0  0  0  0
 47 50  1  0  0  0  0
 47 71  1  0  0  0  0
 48 74  1  0  0  0  0
 49 70  1  0  0  0  0
 50 69  1  0  0  0  0
 52 63  1  0  0  0  0
 53 63  1  0  0  0  0
 54 65  1  0  0  0  0
 55 66  1  0  0  0  0
 56 67  1  0  0  0  0
 57 67  1  0  0  0  0
 58 67  1  0  0  0  0
 59 77  1  0  0  0  0
 60 62  1  0  0  0  0
 61 76  1  0  0  0  0
 62 66  1  0  0  0  0
 64 67  1  0  0  0  0
 64 75  1  0  0  0  0
 65 77  1  0  0  0  0
 66 84  1  0  0  0  0
 68 69  1  0  0  0  0
M  CHG  1  77   1
M  ISO  4  38 100  66 101  76 100  84 101
M  END
> <Batch ID>
0102

> <Smiles>
CNC(C)C(=O)NC(C(=O)N1Cc2cc([101O:1][101CH:1](C)CCc3cc(C[100NH:0][100C:0](=O)N4CCCC(n5nc(-c6ccc(Oc7ccc(F)cc7F)cc6)c(C(N)=O)c5N)C4)c(C)c(C(C)C)c3)ccc2CC1C(=O)NC1CCCc2ccccc21)C(C)(C)C

> <Shape>
0.302

> <Color>
0.067

> <Negative vol penalty>
0.000

$$$$

  -OEChem-04052319383D

 83 91  0     1  0  0  0  0  0999 V2000
  -21.2576  -21.6338   18.0569 C   0  0  0  0  0  0  0  0  0  0  0  0
  -22.5346  -22.0564   18.4121 C   0  0  0  0  0  0  0  0  0  0  0  0
  -26.9727  -13.1793   21.0696 C   0  0  0  0  0  0  0  0  0  0  0  0
  -26.8403  -13.5516   18.6861 C   0  0  0  0  0  0  0  0  0  0  0  0
  -20.3843  -22.5155   17.4214 C   0  0  0  0  0  0  0  0  0  0  0  0
  -22.9394  -23.3609   18.1310 C   0  0  0  0  0  0  0  0  0  0  0  0
  -25.3289  -25.5363   22.0300 C   0  0  0  0  0  0  0  0  0  0  0  0
  -26.2942  -11.9700   20.9184 C   0  0  0  0  0  0  0  0  0  0  0  0
  -26.1618  -12.3422   18.5349 C   0  0  0  0  0  0  0  0  0  0  0  0
  -26.6591  -25.1769   22.2423 C   0  0  0  0  0  0  0  0  0  0  0  0
  -23.1040  -10.9419   20.4824 C   0  0  0  0  0  0  0  0  0  0  0  0
  -22.0745  -10.6606   21.3805 C   0  0  0  0  0  0  0  0  0  0  0  0
  -27.3750  -27.2053   21.1503 C   0  0  0  0  0  0  0  0  0  0  0  0
  -30.5915  -22.5656   16.9485 C   0  0  0  0  0  0  0  0  0  0  0  0
  -23.2475   -8.6760   22.1035 C   0  0  0  0  0  0  0  0  0  0  0  0
  -29.5675  -24.3885   17.7842 C   0  0  0  0  0  0  0  0  0  0  0  0
  -27.2457  -13.9701   19.9535 C   0  0  0  0  0  0  0  0  0  0  0  0
  -29.3379  -15.4254   20.0637 C   0  0  0  0  0  0  0  0  0  0  0  0
  -20.7752  -23.8343   17.1411 C   0  0  0  0  0  0  0  0  0  0  0  0
  -25.0113  -26.7296   21.3655 C   0  0  0  0  0  0  0  0  0  0  0  0
  -22.0709  -24.2607   17.4900 C   0  0  0  0  0  0  0  0  0  0  0  0
  -26.0399  -27.5788   20.9332 C   0  0  0  0  0  0  0  0  0  0  0  0
  -29.3319  -23.1620   17.2033 C   0  0  0  0  0  0  0  0  0  0  0  0
  -25.8888  -11.5514   19.6511 C   0  0  0  0  0  0  0  0  0  0  0  0
  -27.6825  -26.0100   21.7998 C   0  0  0  0  0  0  0  0  0  0  0  0
  -24.2052  -10.0903   20.3947 C   0  0  0  0  0  0  0  0  0  0  0  0
  -22.1462   -9.5277   22.1910 C   0  0  0  0  0  0  0  0  0  0  0  0
  -24.2770   -8.9574   21.2053 C   0  0  0  0  0  0  0  0  0  0  0  0
  -27.9460  -15.2197   20.1091 C   0  0  0  0  0  0  0  0  0  0  0  0
  -31.5585  -23.4458   17.3815 C   0  0  0  0  0  0  0  0  0  0  0  0
  -29.4922  -16.7753   20.2651 C   0  0  0  0  0  0  0  0  0  0  0  0
  -30.3967  -14.4809   19.8578 C   0  0  0  0  0  0  0  0  0  0  0  0
  -23.4901  -27.4609   18.6720 C   0  0  0  0  0  0  0  0  0  0  0  0
  -23.8834  -30.5008   19.7335 C   0  0  0  0  0  0  0  0  0  0  0  0
  -25.6433  -32.6865   21.6757 C   0  0  0  0  0  0  0  0  0  0  0  0
  -26.9241  -21.8059   18.9954 C   0  0  0  0  0  0  0  0  0  0  0  0
  -19.8130  -24.7369   16.4102 C   0  0  0  0  0  0  0  0  0  0  0  0
  -23.5711  -27.1159   21.1681 C   0  0  0  0  0  0  0  0  0  0  0  0
  -25.7518  -28.8806   20.2327 C   0  0  0  0  0  0  0  0  0  0  0  0
  -20.1878  -26.2148   16.4848 C   0  0  0  0  0  0  0  0  0  0  0  0
  -26.6971  -20.3460   22.2348 C   0  0  0  0  0  0  0  0  0  0  0  0
  -21.6723  -26.4046   16.1897 C   0  0  0  0  0  0  0  0  0  0  0  0
  -27.1254  -18.8944   22.0127 C   0  0  0  0  0  0  0  0  0  0  0  0
  -25.8954  -20.8852   21.0522 C   0  0  0  0  0  0  0  0  0  0  0  0
  -26.9835  -19.2921   19.5186 C   0  0  0  0  0  0  0  0  0  0  0  0
  -22.5381  -25.6753   17.2242 C   0  0  1  0  0  0  0  0  0  0  0  0
  -23.3691  -28.1049   20.0242 C   0  0  1  0  0  0  0  0  0  0  0  0
  -27.8426  -18.7221   20.6602 C   0  0  2  0  0  0  0  0  0  0  0  0
  -33.0309  -23.3252   17.3543 C   0  0  0  0  0  0  0  0  0  0  0  0
  -25.7523  -35.1126   22.3081 C   0  0  0  0  0  0  0  0  0  0  0  0
  -31.8205  -25.0362   22.3151 C   0  0  0  0  0  0  0  0  0  0  0  0
  -25.1619  -31.1434   17.0386 C   0  0  0  0  0  0  0  0  0  0  0  0
  -26.0843  -33.2376   18.0542 C   0  0  0  0  0  0  0  0  0  0  0  0
  -23.6162  -32.9072   17.9070 C   0  0  0  0  0  0  0  0  0  0  0  0
  -25.1433  -32.0845   24.5299 C   0  0  0  0  0  0  0  0  0  0  0  0
  -28.0109  -22.5784   16.9022 C   0  0  0  0  0  0  0  0  0  0  0  0
  -32.1610  -25.5491   19.8845 C   0  0  0  0  0  0  0  0  0  0  0  0
  -31.5990  -25.7660   18.4726 C   0  0  0  0  0  0  0  0  0  0  0  0
  -29.9354  -26.1148   21.0453 C   0  0  0  0  0  0  0  0  0  1  0  0
  -24.9499  -31.5579   19.5781 C   0  0  1  0  0  0  0  0  0  0  0  0
  -25.1902  -33.7452   22.6648 C   0  0  2  0  0  0  0  0  0  0  0  0
  -31.1219  -25.1458   20.9537 C   0  0  2  0  0  0  0  0  0  0  0  0
  -24.9588  -32.1861   18.1559 C   0  0  0  0  0  0  0  0  0  0  0  0
  -27.2646  -16.3484   20.3227 N   0  0  0  0  0  0  0  0  0  0  0  0
  -30.9245  -24.5503   17.8879 N   0  0  0  0  0  0  0  0  0  0  0  0
  -28.2324  -17.2764   20.4135 N   0  0  0  0  0  0  0  0  0  0  0  0
  -24.3279  -29.2112   20.0576 N   0  0  0  0  0  0  0  0  0  0  0  0
  -26.6317  -20.6927   19.8005 N   0  0  0  0  0  0  0  0  0  0  0  0
  -30.5812  -17.5706   20.3281 N   0  0  0  0  0  0  0  0  0  0  0  0
  -30.0622  -13.1333   19.6666 N   0  0  0  0  0  0  0  0  0  0  0  0
  -22.5951  -26.4301   18.4577 N   0  0  0  0  0  0  0  0  0  0  0  0
  -24.7323  -32.5185   20.6543 N   0  0  0  0  0  0  0  0  0  0  0  0
  -27.6306  -21.5363   17.8297 N   0  0  0  0  0  0  0  0  0  0  0  0
  -25.6423  -33.3956   24.0411 N   0  3  0  0  0  0  0  0  0  0  0  0
  -31.6047  -14.8192   19.8601 O   0  0  0  0  0  0  0  0  0  0  0  0
  -24.3320  -27.8700   17.8812 O   0  0  0  0  0  0  0  0  0  0  0  0
  -22.6990  -30.8096   19.5802 O   0  0  0  0  0  0  0  0  0  0  0  0
  -26.7014  -32.0728   21.7950 O   0  0  0  0  0  0  0  0  0  0  0  0
  -26.5856  -22.9557   19.2960 O   0  0  0  0  0  0  0  0  0  0  0  0
  -25.2269  -10.3714   19.5032 O   0  0  0  0  0  0  0  0  0  0  0  0
  -28.9818  -25.6613   22.0051 O   0  0  0  0  0  0  0  0  0  1  0  0
  -21.1583   -9.2585   23.0545 F   0  0  0  0  0  0  0  0  0  0  0  0
  -25.3330   -8.1361   21.1265 F   0  0  0  0  0  0  0  0  0  0  0  0
  1  2  1  0  0  0  0
  1  5  2  0  0  0  0
  2  6  2  0  0  0  0
  3  8  2  0  0  0  0
  3 17  1  0  0  0  0
  4  9  1  0  0  0  0
  4 17  2  0  0  0  0
  5 19  1  0  0  0  0
  6 21  1  0  0  0  0
  7 10  2  0  0  0  0
  7 20  1  0  0  0  0
  8 24  1  0  0  0  0
  9 24  2  0  0  0  0
 10 25  1  0  0  0  0
 11 12  2  0  0  0  0
 11 26  1  0  0  0  0
 12 27  1  0  0  0  0
 13 22  1  0  0  0  0
 13 25  2  0  0  0  0
 14 23  1  0  0  0  0
 14 30  2  0  0  0  0
 15 27  2  0  0  0  0
 15 28  1  0  0  0  0
 16 23  2  0  0  0  0
 16 65  1  0  0  0  0
 17 29  1  0  0  0  0
 18 29  1  0  0  0  0
 18 31  2  0  0  0  0
 18 32  1  0  0  0  0
 19 21  2  0  0  0  0
 19 37  1  0  0  0  0
 20 22  2  0  0  0  0
 20 38  1  0  0  0  0
 21 46  1  0  0  0  0
 22 39  1  0  0  0  0
 23 56  1  0  0  0  0
 24 80  1  0  0  0  0
 25 81  1  0  0  0  0
 26 28  2  0  0  0  0
 26 80  1  0  0  0  0
 27 82  1  0  0  0  0
 28 83  1  0  0  0  0
 29 64  2  0  0  0  0
 30 49  1  0  0  0  0
 30 65  1  0  0  0  0
 31 66  1  0  0  0  0
 31 69  1  0  0  0  0
 32 70  1  0  0  0  0
 32 75  2  0  0  0  0
 33 47  1  0  0  0  0
 33 71  1  0  0  0  0
 33 76  2  0  0  0  0
 34 60  1  0  0  0  0
 34 67  1  0  0  0  0
 34 77  2  0  0  0  0
 35 61  1  0  0  0  0
 35 72  1  0  0  0  0
 35 78  2  0  0  0  0
 36 68  1  0  0  0  0
 36 73  1  0  0  0  0
 36 79  2  0  0  0  0
 37 40  1  0  0  0  0
 38 47  1  0  0  0  0
 39 67  1  0  0  0  0
 40 42  1  0  0  0  0
 41 43  1  0  0  0  0
 41 44  1  0  0  0  0
 42 46  1  0  0  0  0
 43 48  1  0  0  0  0
 44 68  1  0  0  0  0
 45 48  1  0  0  0  0
 45 68  1  0  0  0  0
 46 71  1  0  0  0  0
 47 67  1  0  0  0  0
 48 66  1  0  0  0  0
 50 61  1  0  0  0  0
 51 62  1  0  0  0  0
 52 63  1  0  0  0  0
 53 63  1  0  0  0  0
 54 63  1  0  0  0  0
 55 74  1  0  0  0  0
 56 73  1  0  0  0  0
 57 58  1  0  0  0  0
 57 62  1  0  0  0  0
 58 65  1  0  0  0  0
 59 62  1  0  0  0  0
 59 81  1  0  0  0  0
 60 63  1  0  0  0  0
 60 72  1  0  0  0  0
 61 74  1  0  0  0  0
 64 66  1  0  0  0  0
M  CHG  1  74   1
M  ISO  4  36 100  59 101  73 100  81 101
M  END
> <Batch ID>
0102

> <Smiles>
CNC(C)C(=O)NC(C(=O)N1Cc2cc([101O:1][101CH2:1]C(C)CCn3cc(C[100NH:0][100C:0](=O)N4CCCC(n5nc(-c6ccc(Oc7ccc(F)cc7F)cc6)c(C(N)=O)c5N)C4)cc3C)ccc2CC1C(=O)NC1CCCc2ccccc21)C(C)(C)C

> <Shape>
0.225

> <Color>
0.067

> <Negative vol penalty>
0.000

$$$$

  -OEChem-04052319383D

 84 92  0     1  0  0  0  0  0999 V2000
  -19.0451  -22.7848   23.7273 C   0  0  0  0  0  0  0  0  0  0  0  0
  -20.3562  -22.3328   23.6175 C   0  0  0  0  0  0  0  0  0  0  0  0
  -26.1315  -12.6737   21.6024 C   0  0  0  0  0  0  0  0  0  0  0  0
  -25.2048  -13.3363   19.4718 C   0  0  0  0  0  0  0  0  0  0  0  0
  -18.6409  -23.9237   23.0319 C   0  0  0  0  0  0  0  0  0  0  0  0
  -21.2637  -23.0189   22.8112 C   0  0  0  0  0  0  0  0  0  0  0  0
  -28.2203  -24.6781   22.3981 C   0  0  0  0  0  0  0  0  0  0  0  0
  -25.1974  -11.6414   21.6876 C   0  0  0  0  0  0  0  0  0  0  0  0
  -24.2708  -12.3039   19.5570 C   0  0  0  0  0  0  0  0  0  0  0  0
  -29.2924  -24.6117   21.5093 C   0  0  0  0  0  0  0  0  0  0  0  0
  -23.2888   -8.6078   22.2957 C   0  0  0  0  0  0  0  0  0  0  0  0
  -23.7445   -7.3526   22.6987 C   0  0  0  0  0  0  0  0  0  0  0  0
  -28.5030  -26.6125   20.4171 C   0  0  0  0  0  0  0  0  0  0  0  0
  -25.2396   -7.2865   20.8020 C   0  0  0  0  0  0  0  0  0  0  0  0
  -27.1840  -23.7097   17.9240 C   0  0  0  0  0  0  0  0  0  0  0  0
  -28.1677  -22.7392   16.1618 C   0  0  0  0  0  0  0  0  0  0  0  0
  -26.1352  -13.5213   20.4945 C   0  0  0  0  0  0  0  0  0  0  0  0
  -28.3824  -14.5291   19.8296 C   0  0  0  0  0  0  0  0  0  0  0  0
  -19.5465  -24.6296   22.2243 C   0  0  0  0  0  0  0  0  0  0  0  0
  -27.2738  -25.7077   22.2960 C   0  0  0  0  0  0  0  0  0  0  0  0
  -20.8710  -24.1676   22.1033 C   0  0  0  0  0  0  0  0  0  0  0  0
  -27.4212  -26.6911   21.3073 C   0  0  0  0  0  0  0  0  0  0  0  0
  -26.5536  -22.5031   17.7139 C   0  0  0  0  0  0  0  0  0  0  0  0
  -27.1758  -21.8892   16.5990 C   0  0  0  0  0  0  0  0  0  0  0  0
  -24.2671  -11.4564   20.6649 C   0  0  0  0  0  0  0  0  0  0  0  0
  -29.4323  -25.5774   20.5168 C   0  0  0  0  0  0  0  0  0  0  0  0
  -23.8085   -9.2024   21.1459 C   0  0  0  0  0  0  0  0  0  0  0  0
  -24.7199   -6.6919   21.9518 C   0  0  0  0  0  0  0  0  0  0  0  0
  -24.7839   -8.5417   20.3990 C   0  0  0  0  0  0  0  0  0  0  0  0
  -27.0995  -14.5882   20.4061 C   0  0  0  0  0  0  0  0  0  0  0  0
  -28.8936  -15.7925   19.9992 C   0  0  0  0  0  0  0  0  0  0  0  0
  -29.0520  -13.4303   19.1971 C   0  0  0  0  0  0  0  0  0  0  0  0
  -24.1481  -25.8335   21.7317 C   0  0  0  0  0  0  0  0  0  0  0  0
  -24.5541  -28.9872   22.3732 C   0  0  0  0  0  0  0  0  0  0  0  0
  -26.6585  -31.6710   22.4974 C   0  0  0  0  0  0  0  0  0  0  0  0
  -26.3420  -21.1659   20.6820 C   0  0  0  0  0  0  0  0  0  0  0  0
  -19.0510  -25.8282   21.4545 C   0  0  0  0  0  0  0  0  0  0  0  0
  -26.1378  -25.7803   23.2791 C   0  0  0  0  0  0  0  0  0  0  0  0
  -26.4436  -27.8284   21.1681 C   0  0  0  0  0  0  0  0  0  0  0  0
  -20.1727  -26.7131   20.9169 C   0  0  0  0  0  0  0  0  0  0  0  0
  -28.6245  -19.5815   22.9082 C   0  0  0  0  0  0  0  0  0  0  0  0
  -21.2511  -25.8632   20.2523 C   0  0  0  0  0  0  0  0  0  0  0  0
  -28.6083  -18.1168   22.4673 C   0  0  0  0  0  0  0  0  0  0  0  0
  -27.2438  -20.2225   22.7875 C   0  0  0  0  0  0  0  0  0  0  0  0
  -26.6007  -18.6328   21.0175 C   0  0  0  0  0  0  0  0  0  0  0  0
  -21.8913  -24.8989   21.2582 C   0  0  1  0  0  0  0  0  0  0  0  0
  -24.9483  -26.5821   22.7598 C   0  0  1  0  0  0  0  0  0  0  0  0
  -27.9827  -17.9591   21.0684 C   0  0  2  0  0  0  0  0  0  0  0  0
  -27.9936  -19.5616   16.0818 C   0  0  0  0  0  0  0  0  0  0  0  0
  -26.3472  -20.6904   14.5422 C   0  0  0  0  0  0  0  0  0  0  0  0
  -26.6928  -34.1247   23.0226 C   0  0  0  0  0  0  0  0  0  0  0  0
  -31.8909  -23.6377   19.1588 C   0  0  0  0  0  0  0  0  0  0  0  0
  -23.2103  -29.5761   19.6979 C   0  0  0  0  0  0  0  0  0  0  0  0
  -24.1132  -31.9072   19.8367 C   0  0  0  0  0  0  0  0  0  0  0  0
  -22.5168  -31.0847   21.5681 C   0  0  0  0  0  0  0  0  0  0  0  0
  -28.6035  -31.2915   24.6955 C   0  0  0  0  0  0  0  0  0  0  0  0
  -25.4366  -21.9595   18.5117 C   0  0  0  0  0  0  0  0  0  0  0  0
  -30.5164  -24.7453   17.3593 C   0  0  0  0  0  0  0  0  0  0  0  0
  -29.0957  -25.0207   16.8461 C   0  0  0  0  0  0  0  0  0  0  0  0
  -26.8336  -20.5813   16.0060 C   0  0  0  0  0  0  0  0  0  0  0  0
  -24.8890  -30.2103   21.5542 C   0  0  1  0  0  0  0  0  0  0  0  0
  -26.8912  -32.7198   23.5700 C   0  0  2  0  0  0  0  0  0  0  0  0
  -30.5797  -24.3439   18.8382 C   0  0  2  0  0  0  0  0  0  1  0  0
  -23.6998  -30.6722   20.6654 C   0  0  0  0  0  0  0  0  0  0  0  0
  -26.8134  -15.7938   20.9049 N   0  0  0  0  0  0  0  0  0  0  0  0
  -28.1637  -23.8424   16.9748 N   0  0  0  0  0  0  0  0  0  0  0  0
  -27.9238  -16.5039   20.6423 N   0  0  0  0  0  0  0  0  0  0  0  0
  -25.3462  -27.8522   22.1493 N   0  0  0  0  0  0  0  0  0  0  0  0
  -26.7073  -20.0391   21.4367 N   0  0  0  0  0  0  0  0  0  0  0  0
  -30.0737  -16.3533   19.6595 N   0  0  0  0  0  0  0  0  0  0  0  0
  -28.3826  -12.2022   19.1072 N   0  0  0  0  0  0  0  0  0  0  0  0
  -22.8367  -25.6006   22.0998 N   0  0  0  0  0  0  0  0  0  0  0  0
  -25.3558  -31.2191   22.4991 N   0  0  0  0  0  0  0  0  0  0  0  0
  -25.8485  -20.9037   19.4098 N   0  0  0  0  0  0  0  0  0  0  0  0
  -28.2784  -32.6151   24.1044 N   0  3  0  0  0  0  0  0  0  0  0  0
  -30.2160  -13.5298   18.7404 O   0  0  0  0  0  0  0  0  0  0  0  0
  -24.6806  -25.4936   20.6817 O   0  0  0  0  0  0  0  0  0  0  0  0
  -23.6285  -29.0392   23.1870 O   0  0  0  0  0  0  0  0  0  0  0  0
  -27.5428  -31.2934   21.7320 O   0  0  0  0  0  0  0  0  0  0  0  0
  -26.4527  -22.3205   21.1081 O   0  0  0  0  0  0  0  0  0  0  0  0
  -23.3556  -10.4489   20.7476 O   0  0  0  0  0  0  0  0  0  0  0  0
  -30.4775  -25.5146   19.6477 O   0  0  0  0  0  0  0  0  0  1  0  0
  -25.1585   -5.4872   22.3397 F   0  0  0  0  0  0  0  0  0  0  0  0
  -25.2877   -9.1084   19.2941 F   0  0  0  0  0  0  0  0  0  0  0  0
  1  2  1  0  0  0  0
  1  5  2  0  0  0  0
  2  6  2  0  0  0  0
  3  8  2  0  0  0  0
  3 17  1  0  0  0  0
  4  9  1  0  0  0  0
  4 17  2  0  0  0  0
  5 19  1  0  0  0  0
  6 21  1  0  0  0  0
  7 10  2  0  0  0  0
  7 20  1  0  0  0  0
  8 25  1  0  0  0  0
  9 25  2  0  0  0  0
 10 26  1  0  0  0  0
 11 12  2  0  0  0  0
 11 27  1  0  0  0  0
 12 28  1  0  0  0  0
 13 22  1  0  0  0  0
 13 26  2  0  0  0  0
 14 28  2  0  0  0  0
 14 29  1  0  0  0  0
 15 23  2  0  0  0  0
 15 66  1  0  0  0  0
 16 24  2  0  0  0  0
 16 66  1  0  0  0  0
 17 30  1  0  0  0  0
 18 30  1  0  0  0  0
 18 31  2  0  0  0  0
 18 32  1  0  0  0  0
 19 21  2  0  0  0  0
 19 37  1  0  0  0  0
 20 22  2  0  0  0  0
 20 38  1  0  0  0  0
 21 46  1  0  0  0  0
 22 39  1  0  0  0  0
 23 24  1  0  0  0  0
 23 57  1  0  0  0  0
 24 60  1  0  0  0  0
 25 81  1  0  0  0  0
 26 82  1  0  0  0  0
 27 29  2  0  0  0  0
 27 81  1  0  0  0  0
 28 83  1  0  0  0  0
 29 84  1  0  0  0  0
 30 65  2  0  0  0  0
 31 67  1  0  0  0  0
 31 70  1  0  0  0  0
 32 71  1  0  0  0  0
 32 76  2  0  0  0  0
 33 47  1  0  0  0  0
 33 72  1  0  0  0  0
 33 77  2  0  0  0  0
 34 61  1  0  0  0  0
 34 68  1  0  0  0  0
 34 78  2  0  0  0  0
 35 62  1  0  0  0  0
 35 73  1  0  0  0  0
 35 79  2  0  0  0  0
 36 69  1  0  0  0  0
 36 74  1  0  0  0  0
 36 80  2  0  0  0  0
 37 40  1  0  0  0  0
 38 47  1  0  0  0  0
 39 68  1  0  0  0  0
 40 42  1  0  0  0  0
 41 43  1  0  0  0  0
 41 44  1  0  0  0  0
 42 46  1  0  0  0  0
 43 48  1  0  0  0  0
 44 69  1  0  0  0  0
 45 48  1  0  0  0  0
 45 69  1  0  0  0  0
 46 72  1  0  0  0  0
 47 68  1  0  0  0  0
 48 67  1  0  0  0  0
 49 60  1  0  0  0  0
 50 60  1  0  0  0  0
 51 62  1  0  0  0  0
 52 63  1  0  0  0  0
 53 64  1  0  0  0  0
 54 64  1  0  0  0  0
 55 64  1  0  0  0  0
 56 75  1  0  0  0  0
 57 74  1  0  0  0  0
 58 59  1  0  0  0  0
 58 63  1  0  0  0  0
 59 66  1  0  0  0  0
 61 64  1  0  0  0  0
 61 73  1  0  0  0  0
 62 75  1  0  0  0  0
 63 82  1  0  0  0  0
 65 67  1  0  0  0  0
M  CHG  1  75   1
M  ISO  4  36 100  63 101  74 100  82 101
M  END
> <Batch ID>
0102

> <Smiles>
CNC(C)C(=O)NC(C(=O)N1Cc2cc([101O:1][101CH:1](C)CCn3cc(C[100NH:0][100C:0](=O)N4CCCC(n5nc(-c6ccc(Oc7ccc(F)cc7F)cc6)c(C(N)=O)c5N)C4)c(C(C)C)c3)ccc2CC1C(=O)NC1CCCc2ccccc21)C(C)(C)C

> <Shape>
0.236

> <Color>
0.058

> <Negative vol penalty>
0.000

$$$$

  -OEChem-04052319383D

 87 95  0     1  0  0  0  0  0999 V2000
  -28.7938  -36.3654   21.1976 C   0  0  0  0  0  0  0  0  0  0  0  0
  -28.9999  -34.9907   21.1402 C   0  0  0  0  0  0  0  0  0  0  0  0
  -26.8377  -12.5330   21.5384 C   0  0  0  0  0  0  0  0  0  0  0  0
  -26.3724  -13.6002   19.4215 C   0  0  0  0  0  0  0  0  0  0  0  0
  -27.7770  -36.8838   21.9984 C   0  0  0  0  0  0  0  0  0  0  0  0
  -28.1899  -34.1337   21.8845 C   0  0  0  0  0  0  0  0  0  0  0  0
  -26.6429  -30.1172   19.2163 C   0  0  0  0  0  0  0  0  0  0  0  0
  -26.1505  -11.3951   21.1158 C   0  0  0  0  0  0  0  0  0  0  0  0
  -25.6853  -12.4623   18.9988 C   0  0  0  0  0  0  0  0  0  0  0  0
  -27.5591  -29.0821   19.0349 C   0  0  0  0  0  0  0  0  0  0  0  0
  -22.9357  -10.3973   20.8097 C   0  0  0  0  0  0  0  0  0  0  0  0
  -22.0429   -9.8101   21.7061 C   0  0  0  0  0  0  0  0  0  0  0  0
  -26.5019  -27.8428   20.8141 C   0  0  0  0  0  0  0  0  0  0  0  0
  -23.3148   -7.7574   21.6281 C   0  0  0  0  0  0  0  0  0  0  0  0
  -27.2315  -23.8586   17.3942 C   0  0  0  0  0  0  0  0  0  0  0  0
  -26.9486  -13.6356   20.6913 C   0  0  0  0  0  0  0  0  0  0  0  0
  -29.0287  -15.0867   20.9647 C   0  0  0  0  0  0  0  0  0  0  0  0
  -26.9480  -36.0322   22.7454 C   0  0  0  0  0  0  0  0  0  0  0  0
  -25.6545  -30.0275   20.2069 C   0  0  0  0  0  0  0  0  0  0  0  0
  -27.1620  -34.6414   22.6971 C   0  0  0  0  0  0  0  0  0  0  0  0
  -25.5728  -28.8770   21.0044 C   0  0  0  0  0  0  0  0  0  0  0  0
  -25.5744  -11.3597   19.8460 C   0  0  0  0  0  0  0  0  0  0  0  0
  -27.4905  -27.9459   19.8358 C   0  0  0  0  0  0  0  0  0  0  0  0
  -24.0181   -9.6647   20.3224 C   0  0  0  0  0  0  0  0  0  0  0  0
  -22.2324   -8.4901   22.1153 C   0  0  0  0  0  0  0  0  0  0  0  0
  -24.2076   -8.3447   20.7317 C   0  0  0  0  0  0  0  0  0  0  0  0
  -27.6577  -14.8115   21.1275 C   0  0  0  0  0  0  0  0  0  0  0  0
  -26.3773  -23.0270   18.1429 C   0  0  0  0  0  0  0  0  0  0  0  0
  -28.1302  -24.3435   18.3127 C   0  0  0  0  0  0  0  0  0  0  0  0
  -29.2031  -16.3187   21.5465 C   0  0  0  0  0  0  0  0  0  0  0  0
  -30.0530  -14.2993   20.3431 C   0  0  0  0  0  0  0  0  0  0  0  0
  -24.9355  -31.6950   22.8158 C   0  0  0  0  0  0  0  0  0  0  0  0
  -22.3548  -29.7309   22.8868 C   0  0  0  0  0  0  0  0  0  0  0  0
  -20.9569  -26.7502   21.9880 C   0  0  0  0  0  0  0  0  0  0  0  0
  -27.5482  -21.5817   22.3877 C   0  0  0  0  0  0  0  0  0  0  0  0
  -25.8924  -36.6420   23.6333 C   0  0  0  0  0  0  0  0  0  0  0  0
  -24.6571  -31.1412   20.3721 C   0  0  0  0  0  0  0  0  0  0  0  0
  -24.5180  -28.7229   22.0683 C   0  0  0  0  0  0  0  0  0  0  0  0
  -24.8372  -35.6425   24.1000 C   0  0  0  0  0  0  0  0  0  0  0  0
  -26.0915  -19.0632   24.4400 C   0  0  0  0  0  0  0  0  0  0  0  0
  -25.4986  -34.3599   24.5944 C   0  0  0  0  0  0  0  0  0  0  0  0
  -26.4769  -17.7564   23.7445 C   0  0  0  0  0  0  0  0  0  0  0  0
  -25.7989  -20.1734   23.4332 C   0  0  0  0  0  0  0  0  0  0  0  0
  -27.2565  -19.1097   21.7546 C   0  0  0  0  0  0  0  0  0  0  0  0
  -26.2883  -33.6779   23.4707 C   0  0  1  0  0  0  0  0  0  0  0  0
  -24.0126  -31.1659   21.7546 C   0  0  1  0  0  0  0  0  0  0  0  0
  -27.6154  -17.9757   22.7301 C   0  0  2  0  0  0  0  0  0  0  0  0
  -26.5683  -20.1428   17.0627 C   0  0  0  0  0  0  0  0  0  0  0  0
  -23.4975  -24.1240   17.9819 C   0  0  0  0  0  0  0  0  0  0  0  0
  -18.8464  -25.4134   22.2243 C   0  0  0  0  0  0  0  0  0  0  0  0
  -23.1189  -29.0367   25.7581 C   0  0  0  0  0  0  0  0  0  0  0  0
  -21.6000  -27.0520   25.6086 C   0  0  0  0  0  0  0  0  0  0  0  0
  -20.6674  -29.3541   25.3786 C   0  0  0  0  0  0  0  0  0  0  0  0
  -29.9901  -23.2783   22.6002 C   0  0  0  0  0  0  0  0  0  0  0  0
  -30.4785  -22.5817   20.2535 C   0  0  0  0  0  0  0  0  0  0  0  0
  -20.5124  -26.7178   19.0622 C   0  0  0  0  0  0  0  0  0  0  0  0
  -29.2998  -25.2844   18.1542 C   0  0  0  0  0  0  0  0  0  0  0  0
  -25.3816  -20.7042   17.8371 C   0  0  0  0  0  0  0  0  0  0  0  0
  -23.8603  -22.6765   18.2925 C   0  0  0  0  0  0  0  0  0  0  0  0
  -28.4184  -23.9998   20.7852 C   0  0  0  0  0  0  0  0  0  0  0  0
  -28.9000  -26.7436   18.3446 C   0  0  0  0  0  0  0  0  0  1  0  0
  -25.2251  -22.2512   17.6538 C   0  0  0  0  0  0  0  0  0  0  0  0
  -22.0526  -28.3845   23.4990 C   0  0  1  0  0  0  0  0  0  0  0  0
  -19.6110  -26.4140   21.3717 C   0  0  2  0  0  0  0  0  0  0  0  0
  -21.8809  -28.4602   25.0424 C   0  0  0  0  0  0  0  0  0  0  0  0
  -29.3551  -22.8587   21.2637 C   0  0  0  0  0  0  0  0  0  0  0  0
  -27.0074  -15.7898   21.7631 N   0  0  0  0  0  0  0  0  0  0  0  0
  -26.7041  -22.9836   19.4372 N   0  0  0  0  0  0  0  0  0  0  0  0
  -27.7738  -23.7940   19.5090 N   0  0  0  0  0  0  0  0  0  0  0  0
  -27.9739  -16.6918   22.0048 N   0  0  0  0  0  0  0  0  0  0  0  0
  -23.5696  -29.8417   22.1955 N   0  0  0  0  0  0  0  0  0  0  0  0
  -26.9181  -20.3315   22.5013 N   0  0  0  0  0  0  0  0  0  0  0  0
  -30.2864  -17.1083   21.7057 N   0  0  0  0  0  0  0  0  0  0  0  0
  -29.7015  -13.0580   19.7954 N   0  0  0  0  0  0  0  0  0  0  0  0
  -25.3919  -32.9771   22.5763 N   0  0  0  0  0  0  0  0  0  0  0  0
  -20.8854  -27.8677   22.7926 N   0  0  0  0  0  0  0  0  0  0  0  0
  -28.6041  -21.6434   21.4866 N   0  0  0  0  0  0  0  0  0  0  0  0
  -19.7948  -25.8301   20.0129 N   0  3  0  0  0  0  0  0  0  0  0  0
  -31.2478  -14.6776   20.2899 O   0  0  0  0  0  0  0  0  0  0  0  0
  -25.2118  -30.9925   23.7812 O   0  0  0  0  0  0  0  0  0  0  0  0
  -21.5398  -30.6484   23.0112 O   0  0  0  0  0  0  0  0  0  0  0  0
  -21.9696  -26.0856   21.7797 O   0  0  0  0  0  0  0  0  0  0  0  0
  -27.1994  -22.5683   23.0448 O   0  0  0  0  0  0  0  0  0  0  0  0
  -24.9040  -10.2494   19.4332 O   0  0  0  0  0  0  0  0  0  0  0  0
  -28.3839  -26.9343   19.6613 O   0  0  0  0  0  0  0  0  0  1  0  0
  -21.3758   -7.9268   22.9773 F   0  0  0  0  0  0  0  0  0  0  0  0
  -25.2462   -7.6362   20.2679 F   0  0  0  0  0  0  0  0  0  0  0  0
  1  2  1  0  0  0  0
  1  5  2  0  0  0  0
  2  6  2  0  0  0  0
  3  8  2  0  0  0  0
  3 16  1  0  0  0  0
  4  9  1  0  0  0  0
  4 16  2  0  0  0  0
  5 18  1  0  0  0  0
  6 20  1  0  0  0  0
  7 10  2  0  0  0  0
  7 19  1  0  0  0  0
  8 22  1  0  0  0  0
  9 22  2  0  0  0  0
 10 23  1  0  0  0  0
 11 12  2  0  0  0  0
 11 24  1  0  0  0  0
 12 25  1  0  0  0  0
 13 21  1  0  0  0  0
 13 23  2  0  0  0  0
 14 25  2  0  0  0  0
 14 26  1  0  0  0  0
 15 28  1  0  0  0  0
 15 29  2  0  0  0  0
 16 27  1  0  0  0  0
 17 27  1  0  0  0  0
 17 30  2  0  0  0  0
 17 31  1  0  0  0  0
 18 20  2  0  0  0  0
 18 36  1  0  0  0  0
 19 21  2  0  0  0  0
 19 37  1  0  0  0  0
 20 45  1  0  0  0  0
 21 38  1  0  0  0  0
 22 84  1  0  0  0  0
 23 85  1  0  0  0  0
 24 26  2  0  0  0  0
 24 84  1  0  0  0  0
 25 86  1  0  0  0  0
 26 87  1  0  0  0  0
 27 67  2  0  0  0  0
 28 62  1  0  0  0  0
 28 68  2  0  0  0  0
 29 57  1  0  0  0  0
 29 69  1  0  0  0  0
 30 70  1  0  0  0  0
 30 73  1  0  0  0  0
 31 74  1  0  0  0  0
 31 79  2  0  0  0  0
 32 46  1  0  0  0  0
 32 75  1  0  0  0  0
 32 80  2  0  0  0  0
 33 63  1  0  0  0  0
 33 71  1  0  0  0  0
 33 81  2  0  0  0  0
 34 64  1  0  0  0  0
 34 76  1  0  0  0  0
 34 82  2  0  0  0  0
 35 72  1  0  0  0  0
 35 77  1  0  0  0  0
 35 83  2  0  0  0  0
 36 39  1  0  0  0  0
 37 46  1  0  0  0  0
 38 71  1  0  0  0  0
 39 41  1  0  0  0  0
 40 42  1  0  0  0  0
 40 43  1  0  0  0  0
 41 45  1  0  0  0  0
 42 47  1  0  0  0  0
 43 72  1  0  0  0  0
 44 47  1  0  0  0  0
 44 72  1  0  0  0  0
 45 75  1  0  0  0  0
 46 71  1  0  0  0  0
 47 70  1  0  0  0  0
 48 58  1  0  0  0  0
 49 59  1  0  0  0  0
 50 64  1  0  0  0  0
 51 65  1  0  0  0  0
 52 65  1  0  0  0  0
 53 65  1  0  0  0  0
 54 66  1  0  0  0  0
 55 66  1  0  0  0  0
 56 78  1  0  0  0  0
 57 61  1  0  0  0  0
 58 62  1  0  0  0  0
 59 62  1  0  0  0  0
 60 66  1  0  0  0  0
 60 69  1  0  0  0  0
 61 85  1  0  0  0  0
 63 65  1  0  0  0  0
 63 76  1  0  0  0  0
 64 78  1  0  0  0  0
 66 77  1  0  0  0  0
 67 70  1  0  0  0  0
 68 69  1  0  0  0  0
M  CHG  1  78   1
M  ISO  4  35 100  61 101  77 100  85 101
M  END
> <Batch ID>
0102

> <Smiles>
CCC(CC)c1cc(C[101CH2:1][101O:1]c2ccc3c(c2)CN(C(=O)C(NC(=O)C(C)NC)C(C)(C)C)C(C(=O)NC2CCCc4ccccc42)C3)n(CC(C)(C)[100NH:0][100C:0](=O)N2CCCC(n3nc(-c4ccc(Oc5ccc(F)cc5F)cc4)c(C(N)=O)c3N)C2)n1

> <Shape>
0.294

> <Color>
0.081

> <Negative vol penalty>
0.000

$$$$

  -OEChem-04052319383D

 89 97  0     1  0  0  0  0  0999 V2000
  -41.7328  -26.7815   16.1313 C   0  0  0  0  0  0  0  0  0  0  0  0
  -40.9652  -25.8127   16.7698 C   0  0  0  0  0  0  0  0  0  0  0  0
  -23.0010   -9.8978   19.9733 C   0  0  0  0  0  0  0  0  0  0  0  0
  -23.7369   -9.9302   22.2743 C   0  0  0  0  0  0  0  0  0  0  0  0
  -41.2228  -28.0667   15.9520 C   0  0  0  0  0  0  0  0  0  0  0  0
  -39.6876  -26.1290   17.2304 C   0  0  0  0  0  0  0  0  0  0  0  0
  -36.2772  -22.5594   16.1025 C   0  0  0  0  0  0  0  0  0  0  0  0
  -22.2375   -8.7599   20.2335 C   0  0  0  0  0  0  0  0  0  0  0  0
  -22.9733   -8.7923   22.5345 C   0  0  0  0  0  0  0  0  0  0  0  0
  -36.2709  -21.4119   16.8944 C   0  0  0  0  0  0  0  0  0  0  0  0
  -23.2204   -5.4579   22.0330 C   0  0  0  0  0  0  0  0  0  0  0  0
  -23.8130   -4.4352   22.7737 C   0  0  0  0  0  0  0  0  0  0  0  0
  -34.3972  -22.2869   18.1366 C   0  0  0  0  0  0  0  0  0  0  0  0
  -32.9940  -17.7381   17.3890 C   0  0  0  0  0  0  0  0  0  0  0  0
  -30.8119  -17.8668   18.4180 C   0  0  0  0  0  0  0  0  0  0  0  0
  -32.7986  -17.8805   19.7928 C   0  0  0  0  0  0  0  0  0  0  0  0
  -22.0966   -4.6612   24.4589 C   0  0  0  0  0  0  0  0  0  0  0  0
  -23.7508  -10.4829   20.9937 C   0  0  0  0  0  0  0  0  0  0  0  0
  -24.1315  -13.0005   20.8373 C   0  0  0  0  0  0  0  0  0  0  0  0
  -39.9346  -28.3962   16.4020 C   0  0  0  0  0  0  0  0  0  0  0  0
  -35.3490  -23.5858   16.3291 C   0  0  0  0  0  0  0  0  0  0  0  0
  -39.1605  -27.4201   17.0581 C   0  0  0  0  0  0  0  0  0  0  0  0
  -34.3922  -23.4452   17.3445 C   0  0  0  0  0  0  0  0  0  0  0  0
  -31.6045  -17.7764   17.2737 C   0  0  0  0  0  0  0  0  0  0  0  0
  -33.5911  -17.7902   18.6485 C   0  0  0  0  0  0  0  0  0  0  0  0
  -31.4090  -17.9188   19.6776 C   0  0  0  0  0  0  0  0  0  0  0  0
  -22.2236   -8.2071   21.5141 C   0  0  0  0  0  0  0  0  0  0  0  0
  -35.3326  -21.2768   17.9135 C   0  0  0  0  0  0  0  0  0  0  0  0
  -22.0660   -6.0823   22.5053 C   0  0  0  0  0  0  0  0  0  0  0  0
  -23.2511   -4.0368   23.9866 C   0  0  0  0  0  0  0  0  0  0  0  0
  -21.5041   -5.6839   23.7182 C   0  0  0  0  0  0  0  0  0  0  0  0
  -24.5402  -11.6580   20.7254 C   0  0  0  0  0  0  0  0  0  0  0  0
  -25.2385  -13.7279   20.4740 C   0  0  0  0  0  0  0  0  0  0  0  0
  -22.8646  -13.5416   21.2344 C   0  0  0  0  0  0  0  0  0  0  0  0
  -35.5485  -26.6478   17.1585 C   0  0  0  0  0  0  0  0  0  0  0  0
  -32.3492  -26.5976   16.6256 C   0  0  0  0  0  0  0  0  0  0  0  0
  -29.4705  -24.7735   16.4444 C   0  0  0  0  0  0  0  0  0  0  0  0
  -30.7345  -14.6688   20.7049 C   0  0  0  0  0  0  0  0  0  0  0  0
  -39.4446  -29.8119   16.2276 C   0  0  0  0  0  0  0  0  0  0  0  0
  -35.3520  -24.8054   15.4489 C   0  0  0  0  0  0  0  0  0  0  0  0
  -33.3613  -24.5092   17.6155 C   0  0  0  0  0  0  0  0  0  0  0  0
  -37.9366  -29.9615   16.4112 C   0  0  0  0  0  0  0  0  0  0  0  0
  -29.5866  -12.2635   18.3441 C   0  0  0  0  0  0  0  0  0  0  0  0
  -37.4750  -29.2202   17.6619 C   0  0  0  0  0  0  0  0  0  0  0  0
  -28.1404  -11.9980   18.7662 C   0  0  0  0  0  0  0  0  0  0  0  0
  -30.4943  -12.4899   19.5511 C   0  0  0  0  0  0  0  0  0  0  0  0
  -28.5892  -13.2711   20.9055 C   0  0  0  0  0  0  0  0  0  0  0  0
  -37.7605  -27.7178   17.5497 C   0  0  1  0  0  0  0  0  0  0  0  0
  -34.6890  -26.0147   16.1011 C   0  0  1  0  0  0  0  0  0  0  0  0
  -27.6249  -13.0920   19.7204 C   0  0  2  0  0  0  0  0  0  0  0  0
  -35.6677  -16.4305   18.2355 C   0  0  0  0  0  0  0  0  0  0  0  0
  -27.0475  -24.2839   16.0122 C   0  0  0  0  0  0  0  0  0  0  0  0
  -29.0136  -18.0509   20.6477 C   0  0  0  0  0  0  0  0  0  0  0  0
  -30.8687  -19.3392   21.6747 C   0  0  0  0  0  0  0  0  0  0  0  0
  -29.7033  -19.8976   16.0619 C   0  0  0  0  0  0  0  0  0  0  0  0
  -32.0081  -19.9168   15.1076 C   0  0  0  0  0  0  0  0  0  0  0  0
  -30.1170  -18.8996   13.8132 C   0  0  0  0  0  0  0  0  0  0  0  0
  -31.9907  -27.7509   19.4276 C   0  0  0  0  0  0  0  0  0  0  0  0
  -29.5794  -27.0865   19.3170 C   0  0  0  0  0  0  0  0  0  0  0  0
  -30.4904  -28.7443   17.6908 C   0  0  0  0  0  0  0  0  0  0  0  0
  -29.9874  -24.1325   13.6017 C   0  0  0  0  0  0  0  0  0  0  0  0
  -30.9667  -17.7211   15.9266 C   0  0  0  0  0  0  0  0  0  0  0  0
  -30.8195  -16.8377   21.9082 C   0  0  0  0  0  0  0  0  0  0  0  0
  -35.7728  -18.9459   18.0834 C   0  0  0  0  0  0  0  0  0  1  0  0
  -35.1059  -17.7489   18.7748 C   0  0  1  0  0  0  0  0  0  0  0  0
  -31.1296  -26.3085   17.4670 C   0  0  1  0  0  0  0  0  0  0  0  0
  -28.3661  -24.7353   15.4036 C   0  0  2  0  0  0  0  0  0  0  0  0
  -30.5612  -18.0154   20.9009 C   0  0  0  0  0  0  0  0  0  0  0  0
  -30.7140  -19.0922   15.2181 C   0  0  0  0  0  0  0  0  0  0  0  0
  -30.8180  -27.4532   18.4720 C   0  0  0  0  0  0  0  0  0  0  0  0
  -25.8078  -11.5369   20.3222 N   0  0  0  0  0  0  0  0  0  0  0  0
  -26.2052  -12.8125   20.1776 N   0  0  0  0  0  0  0  0  0  0  0  0
  -33.4090  -25.6858   16.7318 N   0  0  0  0  0  0  0  0  0  0  0  0
  -29.9498  -13.5405   20.4147 N   0  0  0  0  0  0  0  0  0  0  0  0
  -25.4695  -15.0548   20.3821 N   0  0  0  0  0  0  0  0  0  0  0  0
  -21.8357  -12.6530   21.5752 N   0  0  0  0  0  0  0  0  0  0  0  0
  -36.7787  -27.0788   16.6999 N   0  0  0  0  0  0  0  0  0  0  0  0
  -30.0468  -26.0231   16.5319 N   0  0  0  0  0  0  0  0  0  0  0  0
  -30.1405  -15.6197   21.5256 N   0  0  0  0  0  0  0  0  0  0  0  0
  -28.7228  -23.7945   14.3042 N   0  3  0  0  0  0  0  0  0  0  0  0
  -22.6461  -14.7764   21.2697 O   0  0  0  0  0  0  0  0  0  0  0  0
  -35.1263  -26.7398   18.3052 O   0  0  0  0  0  0  0  0  0  0  0  0
  -32.3583  -27.5918   15.8954 O   0  0  0  0  0  0  0  0  0  0  0  0
  -29.7876  -23.7939   17.1154 O   0  0  0  0  0  0  0  0  0  0  0  0
  -31.8777  -14.8202   20.2607 O   0  0  0  0  0  0  0  0  0  0  0  0
  -21.4784   -7.0969   21.7684 O   0  0  0  0  0  0  0  0  0  0  0  0
  -35.3246  -20.1581   18.6883 O   0  0  0  0  0  0  0  0  0  1  0  0
  -23.8194   -3.0537   24.6970 F   0  0  0  0  0  0  0  0  0  0  0  0
  -20.3944   -6.2792   24.1765 F   0  0  0  0  0  0  0  0  0  0  0  0
  1  2  1  0  0  0  0
  1  5  2  0  0  0  0
  2  6  2  0  0  0  0
  3  8  2  0  0  0  0
  3 18  1  0  0  0  0
  4  9  1  0  0  0  0
  4 18  2  0  0  0  0
  5 20  1  0  0  0  0
  6 22  1  0  0  0  0
  7 10  2  0  0  0  0
  7 21  1  0  0  0  0
  8 27  1  0  0  0  0
  9 27  2  0  0  0  0
 10 28  1  0  0  0  0
 11 12  2  0  0  0  0
 11 29  1  0  0  0  0
 12 30  1  0  0  0  0
 13 23  1  0  0  0  0
 13 28  2  0  0  0  0
 14 24  2  0  0  0  0
 14 25  1  0  0  0  0
 15 24  1  0  0  0  0
 15 26  2  0  0  0  0
 16 25  2  0  0  0  0
 16 26  1  0  0  0  0
 17 30  2  0  0  0  0
 17 31  1  0  0  0  0
 18 32  1  0  0  0  0
 19 32  1  0  0  0  0
 19 33  2  0  0  0  0
 19 34  1  0  0  0  0
 20 22  2  0  0  0  0
 20 39  1  0  0  0  0
 21 23  2  0  0  0  0
 21 40  1  0  0  0  0
 22 48  1  0  0  0  0
 23 41  1  0  0  0  0
 24 62  1  0  0  0  0
 25 65  1  0  0  0  0
 26 68  1  0  0  0  0
 27 86  1  0  0  0  0
 28 87  1  0  0  0  0
 29 31  2  0  0  0  0
 29 86  1  0  0  0  0
 30 88  1  0  0  0  0
 31 89  1  0  0  0  0
 32 71  2  0  0  0  0
 33 72  1  0  0  0  0
 33 75  1  0  0  0  0
 34 76  1  0  0  0  0
 34 81  2  0  0  0  0
 35 49  1  0  0  0  0
 35 77  1  0  0  0  0
 35 82  2  0  0  0  0
 36 66  1  0  0  0  0
 36 73  1  0  0  0  0
 36 83  2  0  0  0  0
 37 67  1  0  0  0  0
 37 78  1  0  0  0  0
 37 84  2  0  0  0  0
 38 74  1  0  0  0  0
 38 79  1  0  0  0  0
 38 85  2  0  0  0  0
 39 42  1  0  0  0  0
 40 49  1  0  0  0  0
 41 73  1  0  0  0  0
 42 44  1  0  0  0  0
 43 45  1  0  0  0  0
 43 46  1  0  0  0  0
 44 48  1  0  0  0  0
 45 50  1  0  0  0  0
 46 74  1  0  0  0  0
 47 50  1  0  0  0  0
 47 74  1  0  0  0  0
 48 77  1  0  0  0  0
 49 73  1  0  0  0  0
 50 72  1  0  0  0  0
 51 65  1  0  0  0  0
 52 67  1  0  0  0  0
 53 68  1  0  0  0  0
 54 68  1  0  0  0  0
 55 69  1  0  0  0  0
 56 69  1  0  0  0  0
 57 69  1  0  0  0  0
 58 70  1  0  0  0  0
 59 70  1  0  0  0  0
 60 70  1  0  0  0  0
 61 80  1  0  0  0  0
 62 69  1  0  0  0  0
 63 68  1  0  0  0  0
 63 79  1  0  0  0  0
 64 65  1  0  0  0  0
 64 87  1  0  0  0  0
 66 70  1  0  0  0  0
 66 78  1  0  0  0  0
 67 80  1  0  0  0  0
 71 72  1  0  0  0  0
M  CHG  1  80   1
M  ISO  4  38 100  64 101  79 100  87 101
M  END
> <Batch ID>
0102

> <Smiles>
CNC(C)C(=O)NC(C(=O)N1Cc2cc([101O:1][101CH2:1]C(C)c3cc(CC(C)(C)C)cc(C(C)(C)C[100NH:0][100C:0](=O)N4CCCC(n5nc(-c6ccc(Oc7ccc(F)cc7F)cc6)c(C(N)=O)c5N)C4)c3)ccc2CC1C(=O)NC1CCCc2ccccc21)C(C)(C)C

> <Shape>
0.213

> <Color>
0.194

> <Negative vol penalty>
0.000

$$$$

  -OEChem-04052319383D

 85 93  0     1  0  0  0  0  0999 V2000
  -25.8119  -35.4954   22.1559 C   0  0  0  0  0  0  0  0  0  0  0  0
  -26.3909  -34.2317   22.0980 C   0  0  0  0  0  0  0  0  0  0  0  0
  -24.8648  -13.9184   21.3063 C   0  0  0  0  0  0  0  0  0  0  0  0
  -25.6484  -13.8911   19.0211 C   0  0  0  0  0  0  0  0  0  0  0  0
  -24.5122  -35.6440   22.6380 C   0  0  0  0  0  0  0  0  0  0  0  0
  -25.6707  -33.1159   22.5232 C   0  0  0  0  0  0  0  0  0  0  0  0
  -26.0742  -29.2093   19.3263 C   0  0  0  0  0  0  0  0  0  0  0  0
  -24.1171  -12.7661   21.0637 C   0  0  0  0  0  0  0  0  0  0  0  0
  -24.9007  -12.7388   18.7784 C   0  0  0  0  0  0  0  0  0  0  0  0
  -27.2498  -28.4618   19.3796 C   0  0  0  0  0  0  0  0  0  0  0  0
  -24.6746   -9.4400   20.8208 C   0  0  0  0  0  0  0  0  0  0  0  0
  -24.7262   -8.4214   21.7724 C   0  0  0  0  0  0  0  0  0  0  0  0
  -26.1188  -26.7882   20.6983 C   0  0  0  0  0  0  0  0  0  0  0  0
  -22.3394   -8.6052   22.0985 C   0  0  0  0  0  0  0  0  0  0  0  0
  -28.2254  -23.8393   16.1380 C   0  0  0  0  0  0  0  0  0  0  0  0
  -30.1406  -22.7163   15.8455 C   0  0  0  0  0  0  0  0  0  0  0  0
  -25.6304  -14.4809   20.2850 C   0  0  0  0  0  0  0  0  0  0  0  0
  -27.7329  -15.7420   20.9900 C   0  0  0  0  0  0  0  0  0  0  0  0
  -23.7722  -34.5283   23.0603 C   0  0  0  0  0  0  0  0  0  0  0  0
  -24.9130  -28.7564   19.9689 C   0  0  0  0  0  0  0  0  0  0  0  0
  -24.3603  -33.2499   23.0127 C   0  0  0  0  0  0  0  0  0  0  0  0
  -24.9290  -27.5306   20.6496 C   0  0  0  0  0  0  0  0  0  0  0  0
  -27.8999  -22.5156   15.9405 C   0  0  0  0  0  0  0  0  0  0  0  0
  -29.1116  -21.8051   15.7553 C   0  0  0  0  0  0  0  0  0  0  0  0
  -24.1350  -12.1764   19.7998 C   0  0  0  0  0  0  0  0  0  0  0  0
  -27.2730  -27.2524   20.0681 C   0  0  0  0  0  0  0  0  0  0  0  0
  -23.4554  -10.0413   20.5082 C   0  0  0  0  0  0  0  0  0  0  0  0
  -23.5586   -8.0040   22.4112 C   0  0  0  0  0  0  0  0  0  0  0  0
  -22.2878   -9.6238   21.1470 C   0  0  0  0  0  0  0  0  0  0  0  0
  -26.4026  -15.6715   20.5349 C   0  0  0  0  0  0  0  0  0  0  0  0
  -27.9994  -17.0873   21.0645 C   0  0  0  0  0  0  0  0  0  0  0  0
  -28.6460  -14.6859   21.3162 C   0  0  0  0  0  0  0  0  0  0  0  0
  -23.0748  -29.8562   22.3174 C   0  0  0  0  0  0  0  0  0  0  0  0
  -21.2096  -27.3259   21.5169 C   0  0  0  0  0  0  0  0  0  0  0  0
  -20.9791  -24.2300   20.0995 C   0  0  0  0  0  0  0  0  0  0  0  0
  -25.7081  -21.8590   18.2659 C   0  0  0  0  0  0  0  0  0  0  0  0
  -22.3877  -34.7443   23.6181 C   0  0  0  0  0  0  0  0  0  0  0  0
  -23.6456  -29.5615   19.8795 C   0  0  0  0  0  0  0  0  0  0  0  0
  -23.7038  -26.9903   21.3390 C   0  0  0  0  0  0  0  0  0  0  0  0
  -21.5571  -33.4661   23.6984 C   0  0  0  0  0  0  0  0  0  0  0  0
  -25.8427  -21.2979   21.7792 C   0  0  0  0  0  0  0  0  0  0  0  0
  -22.3778  -32.3335   24.3072 C   0  0  0  0  0  0  0  0  0  0  0  0
  -26.1215  -19.7986   21.8998 C   0  0  0  0  0  0  0  0  0  0  0  0
  -24.9215  -21.6077   20.6014 C   0  0  0  0  0  0  0  0  0  0  0  0
  -25.6497  -19.5680   19.4253 C   0  0  0  0  0  0  0  0  0  0  0  0
  -23.6021  -32.0124   23.4415 C   0  0  1  0  0  0  0  0  0  0  0  0
  -22.6618  -29.2541   21.0042 C   0  0  1  0  0  0  0  0  0  0  0  0
  -26.6193  -19.2118   20.5652 C   0  0  2  0  0  0  0  0  0  0  0  0
  -30.0453  -19.6316   16.6257 C   0  0  0  0  0  0  0  0  0  0  0  0
  -29.9030  -20.0376   14.1417 C   0  0  0  0  0  0  0  0  0  0  0  0
  -19.3311  -22.3974   19.6274 C   0  0  0  0  0  0  0  0  0  0  0  0
  -30.9451  -25.0496   20.0937 C   0  0  0  0  0  0  0  0  0  0  0  0
  -21.3067  -26.4866   24.4488 C   0  0  0  0  0  0  0  0  0  0  0  0
  -20.4868  -24.2247   23.7562 C   0  0  0  0  0  0  0  0  0  0  0  0
  -19.0661  -26.2376   23.3661 C   0  0  0  0  0  0  0  0  0  0  0  0
  -21.3888  -24.4561   17.1772 C   0  0  0  0  0  0  0  0  0  0  0  0
  -26.5353  -21.9521   15.9279 C   0  0  0  0  0  0  0  0  0  0  0  0
  -31.0597  -25.3674   17.6092 C   0  0  0  0  0  0  0  0  0  0  0  0
  -30.3673  -25.2313   16.2460 C   0  0  0  0  0  0  0  0  0  0  0  0
  -29.3117  -26.6293   19.0138 C   0  0  0  0  0  0  0  0  0  1  0  0
  -29.2574  -20.3567   15.5101 C   0  0  0  0  0  0  0  0  0  0  0  0
  -21.1268  -25.8808   21.9455 C   0  0  1  0  0  0  0  0  0  0  0  0
  -20.0005  -23.6537   19.0922 C   0  0  2  0  0  0  0  0  0  0  0  0
  -30.1186  -25.3364   18.8336 C   0  0  2  0  0  0  0  0  0  0  0  0
  -20.5204  -25.7183   23.3679 C   0  0  0  0  0  0  0  0  0  0  0  0
  -25.8616  -16.8761   20.3345 N   0  0  0  0  0  0  0  0  0  0  0  0
  -29.5901  -23.9496   16.0785 N   0  0  0  0  0  0  0  0  0  0  0  0
  -26.8569  -17.7163   20.6653 N   0  0  0  0  0  0  0  0  0  0  0  0
  -22.4907  -27.8172   21.2284 N   0  0  0  0  0  0  0  0  0  0  0  0
  -25.4512  -21.0247   19.3663 N   0  0  0  0  0  0  0  0  0  0  0  0
  -29.0972  -17.7818   21.4319 N   0  0  0  0  0  0  0  0  0  0  0  0
  -28.2098  -13.3606   21.1832 N   0  0  0  0  0  0  0  0  0  0  0  0
  -23.2139  -31.2307   22.2871 N   0  0  0  0  0  0  0  0  0  0  0  0
  -20.3870  -25.1860   20.8975 N   0  0  0  0  0  0  0  0  0  0  0  0
  -26.2150  -21.2268   17.1371 N   0  0  0  0  0  0  0  0  0  0  0  0
  -20.7049  -23.3076   17.8253 N   0  3  0  0  0  0  0  0  0  0  0  0
  -29.8088  -14.9109   21.7295 O   0  0  0  0  0  0  0  0  0  0  0  0
  -23.2527  -29.1279   23.2868 O   0  0  0  0  0  0  0  0  0  0  0  0
  -20.1748  -27.9923   21.4341 O   0  0  0  0  0  0  0  0  0  0  0  0
  -22.1506  -23.8658   20.1737 O   0  0  0  0  0  0  0  0  0  0  0  0
  -25.5061  -23.0779   18.2895 O   0  0  0  0  0  0  0  0  0  0  0  0
  -23.4057  -11.0519   19.5627 O   0  0  0  0  0  0  0  0  0  0  0  0
  -28.4194  -26.5211   20.1222 O   0  0  0  0  0  0  0  0  0  1  0  0
  -23.6081   -7.0248   23.3238 F   0  0  0  0  0  0  0  0  0  0  0  0
  -21.1134  -10.1969   20.8499 F   0  0  0  0  0  0  0  0  0  0  0  0
  1  2  1  0  0  0  0
  1  5  2  0  0  0  0
  2  6  2  0  0  0  0
  3  8  2  0  0  0  0
  3 17  1  0  0  0  0
  4  9  1  0  0  0  0
  4 17  2  0  0  0  0
  5 19  1  0  0  0  0
  6 21  1  0  0  0  0
  7 10  2  0  0  0  0
  7 20  1  0  0  0  0
  8 25  1  0  0  0  0
  9 25  2  0  0  0  0
 10 26  1  0  0  0  0
 11 12  2  0  0  0  0
 11 27  1  0  0  0  0
 12 28  1  0  0  0  0
 13 22  1  0  0  0  0
 13 26  2  0  0  0  0
 14 28  2  0  0  0  0
 14 29  1  0  0  0  0
 15 23  2  0  0  0  0
 15 67  1  0  0  0  0
 16 24  2  0  0  0  0
 16 67  1  0  0  0  0
 17 30  1  0  0  0  0
 18 30  1  0  0  0  0
 18 31  2  0  0  0  0
 18 32  1  0  0  0  0
 19 21  2  0  0  0  0
 19 37  1  0  0  0  0
 20 22  2  0  0  0  0
 20 38  1  0  0  0  0
 21 46  1  0  0  0  0
 22 39  1  0  0  0  0
 23 24  1  0  0  0  0
 23 57  1  0  0  0  0
 24 61  1  0  0  0  0
 25 82  1  0  0  0  0
 26 83  1  0  0  0  0
 27 29  2  0  0  0  0
 27 82  1  0  0  0  0
 28 84  1  0  0  0  0
 29 85  1  0  0  0  0
 30 66  2  0  0  0  0
 31 68  1  0  0  0  0
 31 71  1  0  0  0  0
 32 72  1  0  0  0  0
 32 77  2  0  0  0  0
 33 47  1  0  0  0  0
 33 73  1  0  0  0  0
 33 78  2  0  0  0  0
 34 62  1  0  0  0  0
 34 69  1  0  0  0  0
 34 79  2  0  0  0  0
 35 63  1  0  0  0  0
 35 74  1  0  0  0  0
 35 80  2  0  0  0  0
 36 70  1  0  0  0  0
 36 75  1  0  0  0  0
 36 81  2  0  0  0  0
 37 40  1  0  0  0  0
 38 47  1  0  0  0  0
 39 69  1  0  0  0  0
 40 42  1  0  0  0  0
 41 43  1  0  0  0  0
 41 44  1  0  0  0  0
 42 46  1  0  0  0  0
 43 48  1  0  0  0  0
 44 70  1  0  0  0  0
 45 48  1  0  0  0  0
 45 70  1  0  0  0  0
 46 73  1  0  0  0  0
 47 69  1  0  0  0  0
 48 68  1  0  0  0  0
 49 61  1  0  0  0  0
 50 61  1  0  0  0  0
 51 63  1  0  0  0  0
 52 64  1  0  0  0  0
 53 65  1  0  0  0  0
 54 65  1  0  0  0  0
 55 65  1  0  0  0  0
 56 76  1  0  0  0  0
 57 75  1  0  0  0  0
 58 59  1  0  0  0  0
 58 64  1  0  0  0  0
 59 67  1  0  0  0  0
 60 64  1  0  0  0  0
 60 83  1  0  0  0  0
 62 65  1  0  0  0  0
 62 74  1  0  0  0  0
 63 76  1  0  0  0  0
 66 68  1  0  0  0  0
M  CHG  1  76   1
M  ISO  4  36 100  60 101  75 100  83 101
M  END
> <Batch ID>
0102

> <Smiles>
CNC(C)C(=O)NC(C(=O)N1Cc2cc([101O:1][101CH2:1]C(C)CCn3cc(C[100NH:0][100C:0](=O)N4CCCC(n5nc(-c6ccc(Oc7ccc(F)cc7F)cc6)c(C(N)=O)c5N)C4)c(C(C)C)c3)ccc2CC1C(=O)NC1CCCc2ccccc21)C(C)(C)C

> <Shape>
0.249

> <Color>
0.077

> <Negative vol penalty>
0.000

$$$$

  -OEChem-04052319383D

 86 94  0     1  0  0  0  0  0999 V2000
  -28.0557  -18.3096   18.8424 C   0  0  0  0  0  0  0  0  0  0  0  0
  -28.5173  -17.1946   19.5345 C   0  0  0  0  0  0  0  0  0  0  0  0
  -23.1469   -9.8477   19.9322 C   0  0  0  0  0  0  0  0  0  0  0  0
  -23.6429   -9.9837   22.2928 C   0  0  0  0  0  0  0  0  0  0  0  0
  -28.2981  -19.5884   19.3421 C   0  0  0  0  0  0  0  0  0  0  0  0
  -29.2225  -17.3578   20.7263 C   0  0  0  0  0  0  0  0  0  0  0  0
  -29.0754  -13.6837   25.6238 C   0  0  0  0  0  0  0  0  0  0  0  0
  -22.3885   -8.6991   20.1577 C   0  0  0  0  0  0  0  0  0  0  0  0
  -22.8844   -8.8350   22.5184 C   0  0  0  0  0  0  0  0  0  0  0  0
  -29.9270  -12.6708   26.0624 C   0  0  0  0  0  0  0  0  0  0  0  0
  -21.3755   -5.7343   23.6666 C   0  0  0  0  0  0  0  0  0  0  0  0
  -21.9120   -4.7574   24.5053 C   0  0  0  0  0  0  0  0  0  0  0  0
  -31.0485  -14.2462   27.5045 C   0  0  0  0  0  0  0  0  0  0  0  0
  -34.8862  -13.1915   22.7432 C   0  0  0  0  0  0  0  0  0  0  0  0
  -23.7987   -4.5148   23.0158 C   0  0  0  0  0  0  0  0  0  0  0  0
  -33.5747  -14.0328   24.3686 C   0  0  0  0  0  0  0  0  0  0  0  0
  -23.7742  -10.4900   20.9998 C   0  0  0  0  0  0  0  0  0  0  0  0
  -24.1080  -13.0100   20.7854 C   0  0  0  0  0  0  0  0  0  0  0  0
  -28.9983  -19.7671   20.5457 C   0  0  0  0  0  0  0  0  0  0  0  0
  -29.2112  -14.9902   26.1150 C   0  0  0  0  0  0  0  0  0  0  0  0
  -29.4757  -18.6403   21.2419 C   0  0  0  0  0  0  0  0  0  0  0  0
  -30.1957  -15.2734   27.0724 C   0  0  0  0  0  0  0  0  0  0  0  0
  -33.7941  -14.0540   23.0089 C   0  0  0  0  0  0  0  0  0  0  0  0
  -22.2572   -8.1927   21.4508 C   0  0  0  0  0  0  0  0  0  0  0  0
  -30.9156  -12.9525   27.0007 C   0  0  0  0  0  0  0  0  0  0  0  0
  -22.0505   -6.1014   22.5024 C   0  0  0  0  0  0  0  0  0  0  0  0
  -23.1236   -4.1477   24.1800 C   0  0  0  0  0  0  0  0  0  0  0  0
  -23.2622   -5.4917   22.1771 C   0  0  0  0  0  0  0  0  0  0  0  0
  -24.5583  -11.6763   20.7674 C   0  0  0  0  0  0  0  0  0  0  0  0
  -35.3008  -12.6694   23.9486 C   0  0  0  0  0  0  0  0  0  0  0  0
  -25.2284  -13.7545   20.5080 C   0  0  0  0  0  0  0  0  0  0  0  0
  -22.7944  -13.5295   21.0311 C   0  0  0  0  0  0  0  0  0  0  0  0
  -29.8817  -17.8148   24.8206 C   0  0  0  0  0  0  0  0  0  0  0  0
  -29.2314  -18.9009   27.8072 C   0  0  0  0  0  0  0  0  0  0  0  0
  -29.0396  -18.2447   31.1508 C   0  0  0  0  0  0  0  0  0  0  0  0
  -30.8060  -13.7983   21.6485 C   0  0  0  0  0  0  0  0  0  0  0  0
  -29.2771  -21.1707   21.0219 C   0  0  0  0  0  0  0  0  0  0  0  0
  -28.2673  -16.0658   25.6517 C   0  0  0  0  0  0  0  0  0  0  0  0
  -30.3698  -16.6551   27.6461 C   0  0  0  0  0  0  0  0  0  0  0  0
  -29.7069  -21.2434   22.4848 C   0  0  0  0  0  0  0  0  0  0  0  0
  -29.5942  -12.8219   18.3811 C   0  0  0  0  0  0  0  0  0  0  0  0
  -30.7690  -20.1897   22.7822 C   0  0  0  0  0  0  0  0  0  0  0  0
  -28.1160  -12.5561   18.6718 C   0  0  0  0  0  0  0  0  0  0  0  0
  -30.4759  -12.3690   19.5411 C   0  0  0  0  0  0  0  0  0  0  0  0
  -28.6396  -12.7022   21.1506 C   0  0  0  0  0  0  0  0  0  0  0  0
  -30.2230  -18.7755   22.5509 C   0  0  1  0  0  0  0  0  0  0  0  0
  -28.8281  -17.4726   25.8357 C   0  0  1  0  0  0  0  0  0  0  0  0
  -27.6939  -13.1588   20.0249 C   0  0  2  0  0  0  0  0  0  0  0  0
  -35.7692   -8.8773   21.6231 C   0  0  0  0  0  0  0  0  0  0  0  0
  -37.7108  -12.4536   24.6073 C   0  0  0  0  0  0  0  0  0  0  0  0
  -28.5172  -19.3412   33.3467 C   0  0  0  0  0  0  0  0  0  0  0  0
  -32.1863   -9.8413   26.4030 C   0  0  0  0  0  0  0  0  0  0  0  0
  -31.9518  -20.2820   27.7619 C   0  0  0  0  0  0  0  0  0  0  0  0
  -31.7858  -20.5371   30.2470 C   0  0  0  0  0  0  0  0  0  0  0  0
  -30.1085  -21.6410   28.7668 C   0  0  0  0  0  0  0  0  0  0  0  0
  -26.7760  -16.4078   31.6617 C   0  0  0  0  0  0  0  0  0  0  0  0
  -33.0319  -14.8321   22.0140 C   0  0  0  0  0  0  0  0  0  0  0  0
  -35.4700   -9.8362   22.7655 C   0  0  0  0  0  0  0  0  0  0  0  0
  -36.6915  -10.6960   23.1073 C   0  0  0  0  0  0  0  0  0  0  0  0
  -34.0332  -11.5118   26.7939 C   0  0  0  0  0  0  0  0  0  0  0  0
  -34.5948  -12.8866   26.4037 C   0  0  0  0  0  0  0  0  0  0  0  0
  -36.3950  -11.7218   24.2451 C   0  0  2  0  0  0  0  0  0  0  0  0
  -30.0404  -19.1308   29.0609 C   0  0  1  0  0  0  0  0  0  0  0  0
  -27.9613  -18.5454   32.1761 C   0  0  2  0  0  0  0  0  0  0  0  0
  -32.5524  -11.3195   26.4438 C   0  0  2  0  0  0  0  0  0  1  0  0
  -30.9698  -20.3720   28.9471 C   0  0  0  0  0  0  0  0  0  0  0  0
  -25.8630  -11.5762   20.4995 N   0  0  0  0  0  0  0  0  0  0  0  0
  -34.4962  -13.1876   24.9295 N   0  0  0  0  0  0  0  0  0  0  0  0
  -26.2421  -12.8564   20.3466 N   0  0  0  0  0  0  0  0  0  0  0  0
  -29.4265  -17.6742   27.1569 N   0  0  0  0  0  0  0  0  0  0  0  0
  -30.0328  -12.9929   20.7959 N   0  0  0  0  0  0  0  0  0  0  0  0
  -25.4355  -15.0831   20.3887 N   0  0  0  0  0  0  0  0  0  0  0  0
  -21.7579  -12.6253   21.3002 N   0  0  0  0  0  0  0  0  0  0  0  0
  -29.3832  -18.3707   23.6578 N   0  0  0  0  0  0  0  0  0  0  0  0
  -29.0816  -19.2009   30.1583 N   0  0  0  0  0  0  0  0  0  0  0  0
  -32.1168  -14.0194   21.2439 N   0  0  0  0  0  0  0  0  0  0  0  0
  -27.3798  -17.2784   32.7030 N   0  3  0  0  0  0  0  0  0  0  0  0
  -22.5438  -14.7581   20.9963 O   0  0  0  0  0  0  0  0  0  0  0  0
  -31.0598  -17.5925   25.0741 O   0  0  0  0  0  0  0  0  0  0  0  0
  -28.4497  -19.7744   27.4232 O   0  0  0  0  0  0  0  0  0  0  0  0
  -29.7739  -17.2619   31.2251 O   0  0  0  0  0  0  0  0  0  0  0  0
  -30.3596  -14.2889   22.6911 O   0  0  0  0  0  0  0  0  0  0  0  0
  -21.5170   -7.0720   21.6712 O   0  0  0  0  0  0  0  0  0  0  0  0
  -31.7486  -11.9658   27.4300 O   0  0  0  0  0  0  0  0  0  1  0  0
  -23.6395   -3.2107   24.9863 F   0  0  0  0  0  0  0  0  0  0  0  0
  -23.9159   -5.8410   21.0607 F   0  0  0  0  0  0  0  0  0  0  0  0
  1  2  1  0  0  0  0
  1  5  2  0  0  0  0
  2  6  2  0  0  0  0
  3  8  2  0  0  0  0
  3 17  1  0  0  0  0
  4  9  1  0  0  0  0
  4 17  2  0  0  0  0
  5 19  1  0  0  0  0
  6 21  1  0  0  0  0
  7 10  2  0  0  0  0
  7 20  1  0  0  0  0
  8 24  1  0  0  0  0
  9 24  2  0  0  0  0
 10 25  1  0  0  0  0
 11 12  2  0  0  0  0
 11 26  1  0  0  0  0
 12 27  1  0  0  0  0
 13 22  1  0  0  0  0
 13 25  2  0  0  0  0
 14 23  1  0  0  0  0
 14 30  2  0  0  0  0
 15 27  2  0  0  0  0
 15 28  1  0  0  0  0
 16 23  2  0  0  0  0
 16 68  1  0  0  0  0
 17 29  1  0  0  0  0
 18 29  1  0  0  0  0
 18 31  2  0  0  0  0
 18 32  1  0  0  0  0
 19 21  2  0  0  0  0
 19 37  1  0  0  0  0
 20 22  2  0  0  0  0
 20 38  1  0  0  0  0
 21 46  1  0  0  0  0
 22 39  1  0  0  0  0
 23 57  1  0  0  0  0
 24 83  1  0  0  0  0
 25 84  1  0  0  0  0
 26 28  2  0  0  0  0
 26 83  1  0  0  0  0
 27 85  1  0  0  0  0
 28 86  1  0  0  0  0
 29 67  2  0  0  0  0
 30 62  1  0  0  0  0
 30 68  1  0  0  0  0
 31 69  1  0  0  0  0
 31 72  1  0  0  0  0
 32 73  1  0  0  0  0
 32 78  2  0  0  0  0
 33 47  1  0  0  0  0
 33 74  1  0  0  0  0
 33 79  2  0  0  0  0
 34 63  1  0  0  0  0
 34 70  1  0  0  0  0
 34 80  2  0  0  0  0
 35 64  1  0  0  0  0
 35 75  1  0  0  0  0
 35 81  2  0  0  0  0
 36 71  1  0  0  0  0
 36 76  1  0  0  0  0
 36 82  2  0  0  0  0
 37 40  1  0  0  0  0
 38 47  1  0  0  0  0
 39 70  1  0  0  0  0
 40 42  1  0  0  0  0
 41 43  1  0  0  0  0
 41 44  1  0  0  0  0
 42 46  1  0  0  0  0
 43 48  1  0  0  0  0
 44 71  1  0  0  0  0
 45 48  1  0  0  0  0
 45 71  1  0  0  0  0
 46 74  1  0  0  0  0
 47 70  1  0  0  0  0
 48 69  1  0  0  0  0
 49 58  1  0  0  0  0
 50 62  1  0  0  0  0
 51 64  1  0  0  0  0
 52 65  1  0  0  0  0
 53 66  1  0  0  0  0
 54 66  1  0  0  0  0
 55 66  1  0  0  0  0
 56 77  1  0  0  0  0
 57 76  1  0  0  0  0
 58 59  1  0  0  0  0
 59 62  1  0  0  0  0
 60 61  1  0  0  0  0
 60 65  1  0  0  0  0
 61 68  1  0  0  0  0
 63 66  1  0  0  0  0
 63 75  1  0  0  0  0
 64 77  1  0  0  0  0
 65 84  1  0  0  0  0
 67 69  1  0  0  0  0
M  CHG  1  77   1
M  ISO  4  36 100  65 101  76 100  84 101
M  END
> <Batch ID>
0102

> <Smiles>
CCCC(C)c1cc(C[100NH:0][100C:0](=O)N2CCCC(n3nc(-c4ccc(Oc5ccc(F)cc5F)cc4)c(C(N)=O)c3N)C2)cn1CC[101CH:1](C)[101O:1]c1ccc2c(c1)CN(C(=O)C(NC(=O)C(C)NC)C(C)(C)C)C(C(=O)NC1CCCc3ccccc31)C2

> <Shape>
0.195

> <Color>
0.180

> <Negative vol penalty>
0.000

$$$$

  -OEChem-04052319383D

 89 97  0     1  0  0  0  0  0999 V2000
  -20.0221  -29.3448   25.8751 C   0  0  0  0  0  0  0  0  0  0  0  0
  -20.5317  -28.0831   26.1644 C   0  0  0  0  0  0  0  0  0  0  0  0
  -29.9280  -23.6007   21.0687 C   0  0  0  0  0  0  0  0  0  0  0  0
  -27.5990  -23.1998   20.5669 C   0  0  0  0  0  0  0  0  0  0  0  0
  -19.3599  -29.5681   24.6686 C   0  0  0  0  0  0  0  0  0  0  0  0
  -20.3785  -27.0435   25.2477 C   0  0  0  0  0  0  0  0  0  0  0  0
  -23.7134  -21.1719   22.8564 C   0  0  0  0  0  0  0  0  0  0  0  0
  -29.8285  -24.8759   20.5123 C   0  0  0  0  0  0  0  0  0  0  0  0
  -27.4994  -24.4751   20.0105 C   0  0  0  0  0  0  0  0  0  0  0  0
  -23.4821  -19.8139   22.6416 C   0  0  0  0  0  0  0  0  0  0  0  0
  -26.5381  -27.7596   18.7833 C   0  0  0  0  0  0  0  0  0  0  0  0
  -25.4261  -28.5306   19.1218 C   0  0  0  0  0  0  0  0  0  0  0  0
  -22.3897  -20.3363   20.5552 C   0  0  0  0  0  0  0  0  0  0  0  0
  -26.1310  -12.6983   19.4803 C   0  0  0  0  0  0  0  0  0  0  0  0
  -24.3864  -13.6972   21.4146 C   0  0  0  0  0  0  0  0  0  0  0  0
  -26.0629  -28.4269   21.4501 C   0  0  0  0  0  0  0  0  0  0  0  0
  -28.8133  -22.7626   21.0959 C   0  0  0  0  0  0  0  0  0  0  0  0
  -28.6890  -21.0821   23.0112 C   0  0  0  0  0  0  0  0  0  0  0  0
  -19.2069  -28.5332   23.7325 C   0  0  0  0  0  0  0  0  0  0  0  0
  -23.2743  -22.1246   21.9260 C   0  0  0  0  0  0  0  0  0  0  0  0
  -19.7124  -27.2528   24.0281 C   0  0  0  0  0  0  0  0  0  0  0  0
  -22.6191  -21.7055   20.7593 C   0  0  0  0  0  0  0  0  0  0  0  0
  -25.6526  -11.8602   20.4875 C   0  0  0  0  0  0  0  0  0  0  0  0
  -24.7803  -12.3596   21.4546 C   0  0  0  0  0  0  0  0  0  0  0  0
  -24.8648  -14.5353   20.4074 C   0  0  0  0  0  0  0  0  0  0  0  0
  -25.7371  -14.0359   19.4403 C   0  0  0  0  0  0  0  0  0  0  0  0
  -28.6141  -25.3131   19.9833 C   0  0  0  0  0  0  0  0  0  0  0  0
  -22.8176  -19.3961   21.4922 C   0  0  0  0  0  0  0  0  0  0  0  0
  -27.4125  -27.3222   19.7782 C   0  0  0  0  0  0  0  0  0  0  0  0
  -25.1885  -28.8643   20.4551 C   0  0  0  0  0  0  0  0  0  0  0  0
  -27.1749  -27.6559   21.1116 C   0  0  0  0  0  0  0  0  0  0  0  0
  -28.9157  -21.4450   21.6700 C   0  0  0  0  0  0  0  0  0  0  0  0
  -28.9144  -19.7276   23.0432 C   0  0  0  0  0  0  0  0  0  0  0  0
  -28.3086  -21.8966   24.1282 C   0  0  0  0  0  0  0  0  0  0  0  0
  -21.2378  -24.5639   22.0043 C   0  0  0  0  0  0  0  0  0  0  0  0
  -22.3686  -25.0982   19.0112 C   0  0  0  0  0  0  0  0  0  0  0  0
  -23.8520  -23.8399   16.2072 C   0  0  0  0  0  0  0  0  0  0  0  0
  -28.6320  -15.4474   18.8657 C   0  0  0  0  0  0  0  0  0  0  0  0
  -18.4423  -28.8104   22.4624 C   0  0  0  0  0  0  0  0  0  0  0  0
  -23.5554  -23.5837   22.1595 C   0  0  0  0  0  0  0  0  0  0  0  0
  -22.1454  -22.6870   19.7196 C   0  0  0  0  0  0  0  0  0  0  0  0
  -18.6504  -27.7515   21.3827 C   0  0  0  0  0  0  0  0  0  0  0  0
  -31.4488  -16.3011   20.8692 C   0  0  0  0  0  0  0  0  0  0  0  0
  -18.5204  -26.3520   21.9755 C   0  0  0  0  0  0  0  0  0  0  0  0
  -31.0985  -17.6835   21.4226 C   0  0  0  0  0  0  0  0  0  0  0  0
  -30.9457  -16.1219   19.4385 C   0  0  0  0  0  0  0  0  0  0  0  0
  -29.1593  -17.7805   19.8012 C   0  0  0  0  0  0  0  0  0  0  0  0
  -19.5879  -26.1061   23.0485 C   0  0  1  0  0  0  0  0  0  0  0  0
  -22.6096  -24.5043   21.3942 C   0  0  1  0  0  0  0  0  0  0  0  0
  -29.5971  -17.9881   21.2612 C   0  0  2  0  0  0  0  0  0  0  0  0
  -26.0876  -10.4317   20.5096 C   0  0  0  0  0  0  0  0  0  0  0  0
  -24.6129  -24.5098   13.9116 C   0  0  0  0  0  0  0  0  0  0  0  0
  -20.2294   -9.3818   22.2367 C   0  0  0  0  0  0  0  0  0  0  0  0
  -22.0478   -7.7620   21.6793 C   0  0  0  0  0  0  0  0  0  0  0  0
  -21.0731   -7.7892   23.9795 C   0  0  0  0  0  0  0  0  0  0  0  0
  -19.4729  -25.0825   18.0496 C   0  0  0  0  0  0  0  0  0  0  0  0
  -20.3238  -24.7992   15.7121 C   0  0  0  0  0  0  0  0  0  0  0  0
  -20.9077  -26.8477   17.0103 C   0  0  0  0  0  0  0  0  0  0  0  0
  -26.6656  -23.1492   16.8118 C   0  0  0  0  0  0  0  0  0  0  0  0
  -24.2547  -11.4811   22.5420 C   0  0  0  0  0  0  0  0  0  0  0  0
  -24.4258  -15.9776   20.3852 C   0  0  0  0  0  0  0  0  0  0  0  0
  -26.2630  -14.9144   18.3531 C   0  0  0  0  0  0  0  0  0  0  0  0
  -23.1316  -10.5544   22.0477 C   0  0  0  0  0  0  0  0  0  0  0  0
  -23.0018  -16.1800   19.8628 C   0  0  0  0  0  0  0  0  0  0  0  0
  -22.5752   -9.6912   23.1870 C   0  0  0  0  0  0  0  0  0  0  0  0
  -22.5365  -17.6302   19.9243 C   0  0  0  0  0  0  0  0  0  1  0  0
  -21.9813  -24.6427   17.6250 C   0  0  1  0  0  0  0  0  0  0  0  0
  -25.0132  -24.3440   15.3693 C   0  0  2  0  0  0  0  0  0  0  0  0
  -21.4769   -8.6704   22.7860 C   0  0  0  0  0  0  0  0  0  0  0  0
  -20.6785  -25.3244   17.1196 C   0  0  0  0  0  0  0  0  0  0  0  0
  -29.2589  -20.4051   20.9054 N   0  0  0  0  0  0  0  0  0  0  0  0
  -29.2497  -19.3754   21.7689 N   0  0  0  0  0  0  0  0  0  0  0  0
  -22.4383  -24.1030   19.9964 N   0  0  0  0  0  0  0  0  0  0  0  0
  -29.5149  -16.4246   19.3541 N   0  0  0  0  0  0  0  0  0  0  0  0
  -28.8566  -18.8155   24.0367 N   0  0  0  0  0  0  0  0  0  0  0  0
  -28.1180  -23.2694   23.9199 N   0  0  0  0  0  0  0  0  0  0  0  0
  -20.8672  -25.8240   22.4335 N   0  0  0  0  0  0  0  0  0  0  0  0
  -23.1458  -24.8775   16.7781 N   0  0  0  0  0  0  0  0  0  0  0  0
  -27.2923  -15.8137   18.8248 N   0  0  0  0  0  0  0  0  0  0  0  0
  -26.1546  -23.3882   15.4375 N   0  3  0  0  0  0  0  0  0  0  0  0
  -28.1587  -21.4238   25.2803 O   0  0  0  0  0  0  0  0  0  0  0  0
  -20.5647  -23.5426   22.0786 O   0  0  0  0  0  0  0  0  0  0  0  0
  -22.6075  -26.2917   19.2109 O   0  0  0  0  0  0  0  0  0  0  0  0
  -23.5948  -22.6453   16.3387 O   0  0  0  0  0  0  0  0  0  0  0  0
  -29.0090  -14.3293   18.4987 O   0  0  0  0  0  0  0  0  0  0  0  0
  -28.5165  -26.5575   19.4405 O   0  0  0  0  0  0  0  0  0  0  0  0
  -22.5899  -18.0713   21.2804 O   0  0  0  0  0  0  0  0  0  1  0  0
  -24.1214  -29.6059   20.7798 F   0  0  0  0  0  0  0  0  0  0  0  0
  -28.0120  -27.2395   22.0716 F   0  0  0  0  0  0  0  0  0  0  0  0
  1  2  1  0  0  0  0
  1  5  2  0  0  0  0
  2  6  2  0  0  0  0
  3  8  2  0  0  0  0
  3 17  1  0  0  0  0
  4  9  1  0  0  0  0
  4 17  2  0  0  0  0
  5 19  1  0  0  0  0
  6 21  1  0  0  0  0
  7 10  2  0  0  0  0
  7 20  1  0  0  0  0
  8 27  1  0  0  0  0
  9 27  2  0  0  0  0
 10 28  1  0  0  0  0
 11 12  2  0  0  0  0
 11 29  1  0  0  0  0
 12 30  1  0  0  0  0
 13 22  1  0  0  0  0
 13 28  2  0  0  0  0
 14 23  2  0  0  0  0
 14 26  1  0  0  0  0
 15 24  2  0  0  0  0
 15 25  1  0  0  0  0
 16 30  2  0  0  0  0
 16 31  1  0  0  0  0
 17 32  1  0  0  0  0
 18 32  1  0  0  0  0
 18 33  2  0  0  0  0
 18 34  1  0  0  0  0
 19 21  2  0  0  0  0
 19 39  1  0  0  0  0
 20 22  2  0  0  0  0
 20 40  1  0  0  0  0
 21 48  1  0  0  0  0
 22 41  1  0  0  0  0
 23 24  1  0  0  0  0
 23 51  1  0  0  0  0
 24 60  1  0  0  0  0
 25 26  2  0  0  0  0
 25 61  1  0  0  0  0
 26 62  1  0  0  0  0
 27 86  1  0  0  0  0
 28 87  1  0  0  0  0
 29 31  2  0  0  0  0
 29 86  1  0  0  0  0
 30 88  1  0  0  0  0
 31 89  1  0  0  0  0
 32 71  2  0  0  0  0
 33 72  1  0  0  0  0
 33 75  1  0  0  0  0
 34 76  1  0  0  0  0
 34 81  2  0  0  0  0
 35 49  1  0  0  0  0
 35 77  1  0  0  0  0
 35 82  2  0  0  0  0
 36 67  1  0  0  0  0
 36 73  1  0  0  0  0
 36 83  2  0  0  0  0
 37 68  1  0  0  0  0
 37 78  1  0  0  0  0
 37 84  2  0  0  0  0
 38 74  1  0  0  0  0
 38 79  1  0  0  0  0
 38 85  2  0  0  0  0
 39 42  1  0  0  0  0
 40 49  1  0  0  0  0
 41 73  1  0  0  0  0
 42 44  1  0  0  0  0
 43 45  1  0  0  0  0
 43 46  1  0  0  0  0
 44 48  1  0  0  0  0
 45 50  1  0  0  0  0
 46 74  1  0  0  0  0
 47 50  1  0  0  0  0
 47 74  1  0  0  0  0
 48 77  1  0  0  0  0
 49 73  1  0  0  0  0
 50 72  1  0  0  0  0
 52 68  1  0  0  0  0
 53 69  1  0  0  0  0
 54 69  1  0  0  0  0
 55 69  1  0  0  0  0
 56 70  1  0  0  0  0
 57 70  1  0  0  0  0
 58 70  1  0  0  0  0
 59 80  1  0  0  0  0
 60 63  1  0  0  0  0
 61 64  1  0  0  0  0
 62 79  1  0  0  0  0
 63 65  1  0  0  0  0
 64 66  1  0  0  0  0
 65 69  1  0  0  0  0
 66 87  1  0  0  0  0
 67 70  1  0  0  0  0
 67 78  1  0  0  0  0
 68 80  1  0  0  0  0
 71 72  1  0  0  0  0
M  CHG  1  80   1
M  ISO  4  38 100  66 101  79 100  87 101
M  END
> <Batch ID>
0102

> <Smiles>
CNC(C)C(=O)NC(C(=O)N1Cc2cc([101O:1][101CH2:1]CCc3cc(CCCC(C)(C)C)c(C)cc3C[100NH:0][100C:0](=O)N3CCCC(n4nc(-c5ccc(Oc6ccc(F)cc6F)cc5)c(C(N)=O)c4N)C3)ccc2CC1C(=O)NC1CCCc2ccccc21)C(C)(C)C

> <Shape>
0.208

> <Color>
0.068

> <Negative vol penalty>
0.000

$$$$

  -OEChem-04052319383D

 92100  0     1  0  0  0  0  0999 V2000
  -24.3393  -35.7675   15.7747 C   0  0  0  0  0  0  0  0  0  0  0  0
  -24.6333  -34.4085   15.7304 C   0  0  0  0  0  0  0  0  0  0  0  0
  -24.5205   -8.7927   20.7097 C   0  0  0  0  0  0  0  0  0  0  0  0
  -22.8396  -10.5258   20.8001 C   0  0  0  0  0  0  0  0  0  0  0  0
  -24.6236  -36.5040   16.9239 C   0  0  0  0  0  0  0  0  0  0  0  0
  -25.2128  -33.7853   16.8351 C   0  0  0  0  0  0  0  0  0  0  0  0
  -24.2393  -28.0534   18.7594 C   0  0  0  0  0  0  0  0  0  0  0  0
  -23.5549   -7.8393   21.0325 C   0  0  0  0  0  0  0  0  0  0  0  0
  -21.8739   -9.5724   21.1229 C   0  0  0  0  0  0  0  0  0  0  0  0
  -24.9559  -26.8704   18.5834 C   0  0  0  0  0  0  0  0  0  0  0  0
  -21.6004   -4.9981   22.1864 C   0  0  0  0  0  0  0  0  0  0  0  0
  -21.9252   -4.0451   23.1517 C   0  0  0  0  0  0  0  0  0  0  0  0
  -26.0298  -27.2106   20.7165 C   0  0  0  0  0  0  0  0  0  0  0  0
  -27.3998  -20.3924   17.0637 C   0  0  0  0  0  0  0  0  0  0  0  0
  -22.2739   -5.8041   24.7709 C   0  0  0  0  0  0  0  0  0  0  0  0
  -24.1628  -10.1360   20.5935 C   0  0  0  0  0  0  0  0  0  0  0  0
  -25.5337  -11.5513   18.9732 C   0  0  0  0  0  0  0  0  0  0  0  0
  -25.1980  -35.8875   18.0467 C   0  0  0  0  0  0  0  0  0  0  0  0
  -24.4211  -28.8308   19.9123 C   0  0  0  0  0  0  0  0  0  0  0  0
  -25.5063  -34.5145   17.9999 C   0  0  0  0  0  0  0  0  0  0  0  0
  -25.3125  -28.4017   20.9059 C   0  0  0  0  0  0  0  0  0  0  0  0
  -26.8232  -19.3221   16.3889 C   0  0  0  0  0  0  0  0  0  0  0  0
  -27.9446  -20.1977   18.3281 C   0  0  0  0  0  0  0  0  0  0  0  0
  -22.2316   -8.2291   21.2391 C   0  0  0  0  0  0  0  0  0  0  0  0
  -25.8534  -26.4504   19.5607 C   0  0  0  0  0  0  0  0  0  0  0  0
  -21.6125   -6.3541   22.5132 C   0  0  0  0  0  0  0  0  0  0  0  0
  -22.2619   -4.4481   24.4440 C   0  0  0  0  0  0  0  0  0  0  0  0
  -21.9492   -6.7571   23.8055 C   0  0  0  0  0  0  0  0  0  0  0  0
  -25.1599  -11.1214   20.2605 C   0  0  0  0  0  0  0  0  0  0  0  0
  -26.8167  -18.0871   17.0170 C   0  0  0  0  0  0  0  0  0  0  0  0
  -27.8878  -18.9235   18.8694 C   0  0  0  0  0  0  0  0  0  0  0  0
  -26.5118  -12.4896   19.1950 C   0  0  0  0  0  0  0  0  0  0  0  0
  -25.0406  -11.1393   17.6914 C   0  0  0  0  0  0  0  0  0  0  0  0
  -25.4482  -31.7833   20.4879 C   0  0  0  0  0  0  0  0  0  0  0  0
  -24.5578  -31.0825   23.5274 C   0  0  0  0  0  0  0  0  0  0  0  0
  -23.9466  -28.6973   25.8904 C   0  0  0  0  0  0  0  0  0  0  0  0
  -28.4757  -16.9068   21.9838 C   0  0  0  0  0  0  0  0  0  0  0  0
  -25.5306  -36.7347   19.2493 C   0  0  0  0  0  0  0  0  0  0  0  0
  -23.6208  -30.0905   20.0993 C   0  0  0  0  0  0  0  0  0  0  0  0
  -25.5290  -29.1897   22.1711 C   0  0  0  0  0  0  0  0  0  0  0  0
  -25.8002  -35.9206   20.5122 C   0  0  0  0  0  0  0  0  0  0  0  0
  -29.0212  -13.6942   23.4186 C   0  0  0  0  0  0  0  0  0  0  0  0
  -26.7377  -34.7566   20.2070 C   0  0  0  0  0  0  0  0  0  0  0  0
  -28.0919  -12.7757   22.6231 C   0  0  0  0  0  0  0  0  0  0  0  0
  -28.3977  -15.0698   23.6440 C   0  0  0  0  0  0  0  0  0  0  0  0
  -27.0073  -14.8307   21.6233 C   0  0  0  0  0  0  0  0  0  0  0  0
  -26.1123  -33.7975   19.1868 C   0  0  1  0  0  0  0  0  0  0  0  0
  -24.2654  -31.0682   21.0771 C   0  0  1  0  0  0  0  0  0  0  0  0
  -27.6157  -13.4502   21.3225 C   0  0  2  0  0  0  0  0  0  0  0  0
  -26.2102  -16.9013   16.3410 C   0  0  0  0  0  0  0  0  0  0  0  0
  -24.4349  -22.4526   22.4270 C   0  0  0  0  0  0  0  0  0  0  0  0
  -30.0882  -21.3980   18.8123 C   0  0  0  0  0  0  0  0  0  0  0  0
  -23.2712  -28.4317   28.2926 C   0  0  0  0  0  0  0  0  0  0  0  0
  -27.9206  -19.8796   11.5170 C   0  0  0  0  0  0  0  0  0  0  0  0
  -25.8169  -18.6656   12.1176 C   0  0  0  0  0  0  0  0  0  0  0  0
  -27.3655  -31.8938   24.4039 C   0  0  0  0  0  0  0  0  0  0  0  0
  -26.9458  -30.7321   26.5817 C   0  0  0  0  0  0  0  0  0  0  0  0
  -25.5336  -32.6774   25.9153 C   0  0  0  0  0  0  0  0  0  0  0  0
  -21.5045  -27.1943   25.1583 C   0  0  0  0  0  0  0  0  0  0  0  0
  -26.2379  -19.5241   15.0341 C   0  0  0  0  0  0  0  0  0  0  0  0
  -28.4586  -18.6563   20.2237 C   0  0  0  0  0  0  0  0  0  0  0  0
  -24.6550  -22.7814   20.9574 C   0  0  0  0  0  0  0  0  0  0  0  0
  -27.3220  -19.6196   13.9434 C   0  0  0  0  0  0  0  0  0  0  0  0
  -26.1328  -22.6574   20.5772 C   0  0  0  0  0  0  0  0  0  0  0  0
  -27.9455  -22.7299   18.7163 C   0  0  0  0  0  0  0  0  0  0  0  0
  -25.9327  -24.2652   18.6254 C   0  0  0  0  0  0  0  0  0  1  0  0
  -28.5758  -21.3628   19.0708 C   0  0  1  0  0  0  0  0  0  0  0  0
  -25.2384  -30.4662   24.7256 C   0  0  1  0  0  0  0  0  0  0  0  0
  -22.7881  -28.5061   26.8525 C   0  0  2  0  0  0  0  0  0  0  0  0
  -26.7657  -19.7961   12.5182 C   0  0  0  0  0  0  0  0  0  0  0  0
  -26.4487  -22.8906   19.0844 C   0  0  2  0  0  0  0  0  0  0  0  0
  -26.2684  -31.4283   25.3820 C   0  0  0  0  0  0  0  0  0  0  0  0
  -25.8450  -11.7360   21.2285 N   0  0  0  0  0  0  0  0  0  0  0  0
  -27.3360  -17.8594   18.2442 N   0  0  0  0  0  0  0  0  0  0  0  0
  -26.6590  -12.5616   20.5490 N   0  0  0  0  0  0  0  0  0  0  0  0
  -24.7278  -30.4176   22.3047 N   0  0  0  0  0  0  0  0  0  0  0  0
  -27.9689  -15.6554   22.3715 N   0  0  0  0  0  0  0  0  0  0  0  0
  -27.2518  -13.2518   18.3620 N   0  0  0  0  0  0  0  0  0  0  0  0
  -24.0344  -10.1648   17.6443 N   0  0  0  0  0  0  0  0  0  0  0  0
  -25.1262  -32.9527   19.8259 N   0  0  0  0  0  0  0  0  0  0  0  0
  -24.1724  -30.0307   25.6214 N   0  0  0  0  0  0  0  0  0  0  0  0
  -28.0228  -17.3866   20.7609 N   0  0  0  0  0  0  0  0  0  0  0  0
  -22.0551  -27.2474   26.5371 N   0  3  0  0  0  0  0  0  0  0  0  0
  -25.4909  -11.6092   16.6191 O   0  0  0  0  0  0  0  0  0  0  0  0
  -26.5702  -31.3099   20.6251 O   0  0  0  0  0  0  0  0  0  0  0  0
  -23.8937  -32.1119   23.6722 O   0  0  0  0  0  0  0  0  0  0  0  0
  -24.5896  -27.7579   25.4269 O   0  0  0  0  0  0  0  0  0  0  0  0
  -29.2769  -17.5464   22.6737 O   0  0  0  0  0  0  0  0  0  0  0  0
  -21.2891   -7.2990   21.5539 O   0  0  0  0  0  0  0  0  0  0  0  0
  -26.5545  -25.2964   19.3911 O   0  0  0  0  0  0  0  0  0  1  0  0
  -22.5722   -3.5327   25.3713 F   0  0  0  0  0  0  0  0  0  0  0  0
  -21.9613   -8.0583   24.1258 F   0  0  0  0  0  0  0  0  0  0  0  0
  1  2  1  0  0  0  0
  1  5  2  0  0  0  0
  2  6  2  0  0  0  0
  3  8  2  0  0  0  0
  3 16  1  0  0  0  0
  4  9  1  0  0  0  0
  4 16  2  0  0  0  0
  5 18  1  0  0  0  0
  6 20  1  0  0  0  0
  7 10  2  0  0  0  0
  7 19  1  0  0  0  0
  8 24  1  0  0  0  0
  9 24  2  0  0  0  0
 10 25  1  0  0  0  0
 11 12  2  0  0  0  0
 11 26  1  0  0  0  0
 12 27  1  0  0  0  0
 13 21  1  0  0  0  0
 13 25  2  0  0  0  0
 14 22  2  0  0  0  0
 14 23  1  0  0  0  0
 15 27  2  0  0  0  0
 15 28  1  0  0  0  0
 16 29  1  0  0  0  0
 17 29  1  0  0  0  0
 17 32  2  0  0  0  0
 17 33  1  0  0  0  0
 18 20  2  0  0  0  0
 18 38  1  0  0  0  0
 19 21  2  0  0  0  0
 19 39  1  0  0  0  0
 20 47  1  0  0  0  0
 21 40  1  0  0  0  0
 22 30  1  0  0  0  0
 22 60  1  0  0  0  0
 23 31  2  0  0  0  0
 23 67  1  0  0  0  0
 24 89  1  0  0  0  0
 25 90  1  0  0  0  0
 26 28  2  0  0  0  0
 26 89  1  0  0  0  0
 27 91  1  0  0  0  0
 28 92  1  0  0  0  0
 29 73  2  0  0  0  0
 30 50  1  0  0  0  0
 30 74  2  0  0  0  0
 31 61  1  0  0  0  0
 31 74  1  0  0  0  0
 32 75  1  0  0  0  0
 32 78  1  0  0  0  0
 33 79  1  0  0  0  0
 33 84  2  0  0  0  0
 34 48  1  0  0  0  0
 34 80  1  0  0  0  0
 34 85  2  0  0  0  0
 35 68  1  0  0  0  0
 35 76  1  0  0  0  0
 35 86  2  0  0  0  0
 36 69  1  0  0  0  0
 36 81  1  0  0  0  0
 36 87  2  0  0  0  0
 37 77  1  0  0  0  0
 37 82  1  0  0  0  0
 37 88  2  0  0  0  0
 38 41  1  0  0  0  0
 39 48  1  0  0  0  0
 40 76  1  0  0  0  0
 41 43  1  0  0  0  0
 42 44  1  0  0  0  0
 42 45  1  0  0  0  0
 43 47  1  0  0  0  0
 44 49  1  0  0  0  0
 45 77  1  0  0  0  0
 46 49  1  0  0  0  0
 46 77  1  0  0  0  0
 47 80  1  0  0  0  0
 48 76  1  0  0  0  0
 49 75  1  0  0  0  0
 51 62  1  0  0  0  0
 52 67  1  0  0  0  0
 53 69  1  0  0  0  0
 54 70  1  0  0  0  0
 55 70  1  0  0  0  0
 56 72  1  0  0  0  0
 57 72  1  0  0  0  0
 58 72  1  0  0  0  0
 59 83  1  0  0  0  0
 60 63  1  0  0  0  0
 61 82  1  0  0  0  0
 62 64  1  0  0  0  0
 63 70  1  0  0  0  0
 64 71  1  0  0  0  0
 65 67  1  0  0  0  0
 65 71  1  0  0  0  0
 66 71  1  0  0  0  0
 66 90  1  0  0  0  0
 68 72  1  0  0  0  0
 68 81  1  0  0  0  0
 69 83  1  0  0  0  0
 73 75  1  0  0  0  0
M  CHG  1  83   1
M  ISO  4  37 100  66 101  82 100  90 101
M  END
> <Batch ID>
0102

> <Smiles>
CCCC(CC(C)c1cc(CCC(C)C)c(C)nc1C[100NH:0][100C:0](=O)N1CCCC(n2nc(-c3ccc(Oc4ccc(F)cc4F)cc3)c(C(N)=O)c2N)C1)[101CH2:1][101O:1]c1ccc2c(c1)CN(C(=O)C(NC(=O)C(C)NC)C(C)(C)C)C(C(=O)NC1CCCc3ccccc31)C2

> <Shape>
0.251

> <Color>
0.119

> <Negative vol penalty>
0.000

$$$$

  -OEChem-04052319383D

 84 93  0     1  0  0  0  0  0999 V2000
  -22.1140  -34.5888   19.4506 C   0  0  0  0  0  0  0  0  0  0  0  0
  -21.7971  -33.2345   19.4238 C   0  0  0  0  0  0  0  0  0  0  0  0
  -24.0907   -9.3578   21.0823 C   0  0  0  0  0  0  0  0  0  0  0  0
  -25.4990   -9.9858   22.9423 C   0  0  0  0  0  0  0  0  0  0  0  0
  -23.3554  -35.0225   18.9871 C   0  0  0  0  0  0  0  0  0  0  0  0
  -22.7212  -32.3130   18.9324 C   0  0  0  0  0  0  0  0  0  0  0  0
  -26.2678  -19.6582   19.2124 C   0  0  0  0  0  0  0  0  0  0  0  0
  -23.6177  -26.5866   20.9100 C   0  0  0  0  0  0  0  0  0  0  0  0
  -24.9760  -20.1135   18.9507 C   0  0  0  0  0  0  0  0  0  0  0  0
  -23.8734   -8.1107   21.6679 C   0  0  0  0  0  0  0  0  0  0  0  0
  -25.2816   -8.7386   23.5279 C   0  0  0  0  0  0  0  0  0  0  0  0
  -23.1730  -25.3516   20.4402 C   0  0  0  0  0  0  0  0  0  0  0  0
  -21.9584   -6.8175   24.1363 C   0  0  0  0  0  0  0  0  0  0  0  0
  -20.6516   -6.3303   24.1578 C   0  0  0  0  0  0  0  0  0  0  0  0
  -24.7308  -20.7338   21.2681 C   0  0  0  0  0  0  0  0  0  0  0  0
  -25.2465  -25.0682   19.2404 C   0  0  0  0  0  0  0  0  0  0  0  0
  -21.3473   -4.4073   22.8713 C   0  0  0  0  0  0  0  0  0  0  0  0
  -24.9036  -10.2954   21.7195 C   0  0  0  0  0  0  0  0  0  0  0  0
  -24.1599  -12.5528   20.7928 C   0  0  0  0  0  0  0  0  0  0  0  0
  -24.2988  -34.1048   18.4988 C   0  0  0  0  0  0  0  0  0  0  0  0
  -24.8779  -27.0775   20.5391 C   0  0  0  0  0  0  0  0  0  0  0  0
  -23.9759  -32.7349   18.4607 C   0  0  0  0  0  0  0  0  0  0  0  0
  -26.8089  -19.7345   20.5071 C   0  0  0  0  0  0  0  0  0  0  0  0
  -26.0263  -20.2710   21.5478 C   0  0  0  0  0  0  0  0  0  0  0  0
  -25.7059  -26.3086   19.7089 C   0  0  0  0  0  0  0  0  0  0  0  0
  -24.2078  -20.6513   19.9783 C   0  0  0  0  0  0  0  0  0  0  0  0
  -24.4688   -7.8010   22.8907 C   0  0  0  0  0  0  0  0  0  0  0  0
  -23.9863  -24.5935   19.6029 C   0  0  0  0  0  0  0  0  0  0  0  0
  -22.9597   -6.0996   23.4822 C   0  0  0  0  0  0  0  0  0  0  0  0
  -20.3460   -5.1252   23.5253 C   0  0  0  0  0  0  0  0  0  0  0  0
  -22.6541   -4.8945   22.8497 C   0  0  0  0  0  0  0  0  0  0  0  0
  -25.1289  -11.5837   21.1148 C   0  0  0  0  0  0  0  0  0  0  0  0
  -24.8780  -13.5874   20.2447 C   0  0  0  0  0  0  0  0  0  0  0  0
  -22.7379  -12.5207   20.9731 C   0  0  0  0  0  0  0  0  0  0  0  0
  -25.9124  -29.6255   18.9451 C   0  0  0  0  0  0  0  0  0  0  0  0
  -28.8271  -28.5155   19.8366 C   0  0  0  0  0  0  0  0  0  0  0  0
  -30.7463  -25.8638   20.8020 C   0  0  0  0  0  0  0  0  0  0  0  0
  -29.2806  -17.0168   20.2904 C   0  0  0  0  0  0  0  0  0  0  0  0
  -25.6095  -34.6260   17.9646 C   0  0  0  0  0  0  0  0  0  0  0  0
  -25.3538  -28.3995   21.0760 C   0  0  0  0  0  0  0  0  0  0  0  0
  -26.5654  -20.4293   22.9479 C   0  0  0  0  0  0  0  0  0  0  0  0
  -27.0755  -26.7814   19.2977 C   0  0  0  0  0  0  0  0  0  0  0  0
  -26.6762  -33.5453   17.8077 C   0  0  0  0  0  0  0  0  0  0  0  0
  -27.8235  -19.6072   23.2169 C   0  0  0  0  0  0  0  0  0  0  0  0
  -29.7122  -13.8241   18.7748 C   0  0  0  0  0  0  0  0  0  0  0  0
  -26.0920  -32.3140   17.1225 C   0  0  0  0  0  0  0  0  0  0  0  0
  -28.8072  -19.7455   22.0605 C   0  0  0  0  0  0  0  0  0  0  0  0
  -28.4821  -13.0352   19.2269 C   0  0  0  0  0  0  0  0  0  0  0  0
  -30.2155  -14.7616   19.8702 C   0  0  0  0  0  0  0  0  0  0  0  0
  -27.9667  -14.8876   20.8707 C   0  0  0  0  0  0  0  0  0  0  0  0
  -24.9612  -31.7021   17.9582 C   0  0  1  0  0  0  0  0  0  0  0  0
  -28.2049  -19.2039   20.7575 C   0  0  1  0  0  0  0  0  0  0  0  0
  -26.4451  -29.0342   20.2196 C   0  0  1  0  0  0  0  0  0  0  0  0
  -27.3891  -13.9694   19.7800 C   0  0  2  0  0  0  0  0  0  0  0  0
  -21.7599  -20.3538   20.4809 C   0  0  0  0  0  0  0  0  0  0  0  0
  -33.1012  -25.2592   21.4236 C   0  0  0  0  0  0  0  0  0  0  0  0
  -29.6279  -28.6195   16.8941 C   0  0  0  0  0  0  0  0  0  0  0  0
  -31.5780  -27.1490   17.4449 C   0  0  0  0  0  0  0  0  0  0  0  0
  -31.3900  -29.4093   18.4834 C   0  0  0  0  0  0  0  0  0  0  0  0
  -29.9319  -24.9988   23.5126 C   0  0  0  0  0  0  0  0  0  0  0  0
  -22.6593  -22.6560   19.9787 C   0  0  0  0  0  0  0  0  0  1  0  0
  -22.8010  -21.1546   19.6937 C   0  0  1  0  0  0  0  0  0  0  0  0
  -29.8367  -27.5640   19.2412 C   0  0  1  0  0  0  0  0  0  0  0  0
  -31.7397  -25.7000   21.9381 C   0  0  2  0  0  0  0  0  0  0  0  0
  -30.5816  -28.1771   18.0219 C   0  0  0  0  0  0  0  0  0  0  0  0
  -26.3681  -11.9682   20.7976 N   0  0  0  0  0  0  0  0  0  0  0  0
  -26.1826  -13.1904   20.2704 N   0  0  0  0  0  0  0  0  0  0  0  0
  -27.4933  -28.0833   19.8436 N   0  0  0  0  0  0  0  0  0  0  0  0
  -29.1310  -15.6214   20.3502 N   0  0  0  0  0  0  0  0  0  0  0  0
  -24.5145  -14.7889   19.7480 N   0  0  0  0  0  0  0  0  0  0  0  0
  -22.2056  -13.0075   22.1748 N   0  0  0  0  0  0  0  0  0  0  0  0
  -25.5041  -30.9404   19.0625 N   0  0  0  0  0  0  0  0  0  0  0  0
  -30.7128  -27.1610   20.3358 N   0  0  0  0  0  0  0  0  0  0  0  0
  -28.2031  -17.7580   20.7598 N   0  0  0  0  0  0  0  0  0  0  0  0
  -31.2519  -24.6807   22.9098 N   0  3  0  0  0  0  0  0  0  0  0  0
  -21.9635  -12.0585   20.1013 O   0  0  0  0  0  0  0  0  0  0  0  0
  -25.8759  -28.9400   17.9300 O   0  0  0  0  0  0  0  0  0  0  0  0
  -29.2089  -29.5991   20.2856 O   0  0  0  0  0  0  0  0  0  0  0  0
  -30.0705  -24.9331   20.3687 O   0  0  0  0  0  0  0  0  0  0  0  0
  -30.2969  -17.5616   19.8463 O   0  0  0  0  0  0  0  0  0  0  0  0
  -24.2568   -6.5842   23.4625 O   0  0  0  0  0  0  0  0  0  0  0  0
  -23.5544  -23.3880   19.1424 O   0  0  0  0  0  0  0  0  0  1  0  0
  -19.0914   -4.6567   23.5473 F   0  0  0  0  0  0  0  0  0  0  0  0
  -23.6121   -4.1998   22.2208 F   0  0  0  0  0  0  0  0  0  0  0  0
  1  2  1  0  0  0  0
  1  5  2  0  0  0  0
  2  6  2  0  0  0  0
  3 10  2  0  0  0  0
  3 18  1  0  0  0  0
  4 11  1  0  0  0  0
  4 18  2  0  0  0  0
  5 20  1  0  0  0  0
  6 22  1  0  0  0  0
  7  9  2  0  0  0  0
  7 23  1  0  0  0  0
  8 12  2  0  0  0  0
  8 21  1  0  0  0  0
  9 26  1  0  0  0  0
 10 27  1  0  0  0  0
 11 27  2  0  0  0  0
 12 28  1  0  0  0  0
 13 14  2  0  0  0  0
 13 29  1  0  0  0  0
 14 30  1  0  0  0  0
 15 24  1  0  0  0  0
 15 26  2  0  0  0  0
 16 25  1  0  0  0  0
 16 28  2  0  0  0  0
 17 30  2  0  0  0  0
 17 31  1  0  0  0  0
 18 32  1  0  0  0  0
 19 32  1  0  0  0  0
 19 33  2  0  0  0  0
 19 34  1  0  0  0  0
 20 22  2  0  0  0  0
 20 39  1  0  0  0  0
 21 25  2  0  0  0  0
 21 40  1  0  0  0  0
 22 51  1  0  0  0  0
 23 24  2  0  0  0  0
 23 52  1  0  0  0  0
 24 41  1  0  0  0  0
 25 42  1  0  0  0  0
 26 62  1  0  0  0  0
 27 81  1  0  0  0  0
 28 82  1  0  0  0  0
 29 31  2  0  0  0  0
 29 81  1  0  0  0  0
 30 83  1  0  0  0  0
 31 84  1  0  0  0  0
 32 66  2  0  0  0  0
 33 67  1  0  0  0  0
 33 70  1  0  0  0  0
 34 71  1  0  0  0  0
 34 76  2  0  0  0  0
 35 53  1  0  0  0  0
 35 72  1  0  0  0  0
 35 77  2  0  0  0  0
 36 63  1  0  0  0  0
 36 68  1  0  0  0  0
 36 78  2  0  0  0  0
 37 64  1  0  0  0  0
 37 73  1  0  0  0  0
 37 79  2  0  0  0  0
 38 69  1  0  0  0  0
 38 74  1  0  0  0  0
 38 80  2  0  0  0  0
 39 43  1  0  0  0  0
 40 53  1  0  0  0  0
 41 44  1  0  0  0  0
 42 68  1  0  0  0  0
 43 46  1  0  0  0  0
 44 47  1  0  0  0  0
 45 48  1  0  0  0  0
 45 49  1  0  0  0  0
 46 51  1  0  0  0  0
 47 52  1  0  0  0  0
 48 54  1  0  0  0  0
 49 69  1  0  0  0  0
 50 54  1  0  0  0  0
 50 69  1  0  0  0  0
 51 72  1  0  0  0  0
 52 74  1  0  0  0  0
 53 68  1  0  0  0  0
 54 67  1  0  0  0  0
 55 62  1  0  0  0  0
 56 64  1  0  0  0  0
 57 65  1  0  0  0  0
 58 65  1  0  0  0  0
 59 65  1  0  0  0  0
 60 75  1  0  0  0  0
 61 62  1  0  0  0  0
 61 82  1  0  0  0  0
 63 65  1  0  0  0  0
 63 73  1  0  0  0  0
 64 75  1  0  0  0  0
 66 67  1  0  0  0  0
M  CHG  1  75   1
M  ISO  4  38 100  61 101  74 100  82 101
M  END
> <Batch ID>
0102

> <Smiles>
CNC(C)C(=O)NC(C(=O)N1Cc2cc([101O:1][101CH2:1]C(C)c3ccc4c(c3)CCCC4[100NH:0][100C:0](=O)N3CCCC(n4nc(-c5ccc(Oc6ccc(F)cc6F)cc5)c(C(N)=O)c4N)C3)ccc2CC1C(=O)NC1CCCc2ccccc21)C(C)(C)C

> <Shape>
0.217

> <Color>
0.118

> <Negative vol penalty>
0.000

$$$$

  -OEChem-04052319383D

 77 84  0     1  0  0  0  0  0999 V2000
  -29.1668  -35.7917   25.9211 C   0  0  0  0  0  0  0  0  0  0  0  0
  -29.5561  -35.0502   24.8102 C   0  0  0  0  0  0  0  0  0  0  0  0
  -26.5825  -13.8925   21.8219 C   0  0  0  0  0  0  0  0  0  0  0  0
  -26.5293  -13.3004   19.4802 C   0  0  0  0  0  0  0  0  0  0  0  0
  -28.2436  -35.2627   26.8222 C   0  0  0  0  0  0  0  0  0  0  0  0
  -29.0233  -33.7789   24.6003 C   0  0  0  0  0  0  0  0  0  0  0  0
  -27.1087  -29.3297   19.3225 C   0  0  0  0  0  0  0  0  0  0  0  0
  -25.8506  -12.7455   22.1286 C   0  0  0  0  0  0  0  0  0  0  0  0
  -25.7974  -12.1533   19.7869 C   0  0  0  0  0  0  0  0  0  0  0  0
  -27.3164  -28.0212   18.8883 C   0  0  0  0  0  0  0  0  0  0  0  0
  -26.4090   -9.0644   21.0138 C   0  0  0  0  0  0  0  0  0  0  0  0
  -26.7948   -7.8697   20.4062 C   0  0  0  0  0  0  0  0  0  0  0  0
  -25.6693  -27.2417   20.4690 C   0  0  0  0  0  0  0  0  0  0  0  0
  -24.6134   -7.6851   19.3841 C   0  0  0  0  0  0  0  0  0  0  0  0
  -26.9218  -14.1701   20.4976 C   0  0  0  0  0  0  0  0  0  0  0  0
  -29.0783  -15.4787   20.1169 C   0  0  0  0  0  0  0  0  0  0  0  0
  -27.6919  -33.9881   26.6180 C   0  0  0  0  0  0  0  0  0  0  0  0
  -26.1861  -29.6032   20.3425 C   0  0  0  0  0  0  0  0  0  0  0  0
  -28.0929  -33.2318   25.5002 C   0  0  0  0  0  0  0  0  0  0  0  0
  -25.4499  -28.5548   20.9125 C   0  0  0  0  0  0  0  0  0  0  0  0
  -25.4581  -11.8758   21.1111 C   0  0  0  0  0  0  0  0  0  0  0  0
  -26.5987  -26.9766   19.4635 C   0  0  0  0  0  0  0  0  0  0  0  0
  -25.1254   -9.5695   20.8067 C   0  0  0  0  0  0  0  0  0  0  0  0
  -25.8971   -7.1800   19.5913 C   0  0  0  0  0  0  0  0  0  0  0  0
  -24.2276   -8.8799   19.9918 C   0  0  0  0  0  0  0  0  0  0  0  0
  -27.6773  -15.3552   20.1801 C   0  0  0  0  0  0  0  0  0  0  0  0
  -29.2922  -16.7926   19.7789 C   0  0  0  0  0  0  0  0  0  0  0  0
  -30.0952  -14.4937   20.3433 C   0  0  0  0  0  0  0  0  0  0  0  0
  -26.3726  -30.8486   23.2610 C   0  0  0  0  0  0  0  0  0  0  0  0
  -23.1379  -30.6404   23.1336 C   0  0  0  0  0  0  0  0  0  0  0  0
  -20.3817  -29.1465   21.7852 C   0  0  0  0  0  0  0  0  0  0  0  0
  -25.4540  -20.5912   16.9938 C   0  0  0  0  0  0  0  0  0  0  0  0
  -26.7331  -33.4392   27.6447 C   0  0  0  0  0  0  0  0  0  0  0  0
  -25.9543  -31.0232   20.7810 C   0  0  0  0  0  0  0  0  0  0  0  0
  -24.4330  -28.7977   21.9967 C   0  0  0  0  0  0  0  0  0  0  0  0
  -25.9330  -32.2371   27.1495 C   0  0  0  0  0  0  0  0  0  0  0  0
  -27.3491  -21.1362   20.1724 C   0  0  0  0  0  0  0  0  0  0  0  0
  -26.8499  -31.2348   26.4556 C   0  0  0  0  0  0  0  0  0  0  0  0
  -27.7030  -19.6988   20.5508 C   0  0  0  0  0  0  0  0  0  0  0  0
  -26.0530  -21.1931   19.3728 C   0  0  0  0  0  0  0  0  0  0  0  0
  -26.4150  -18.9014   18.5162 C   0  0  0  0  0  0  0  0  0  0  0  0
  -27.5185  -31.8590   25.2248 C   0  0  1  0  0  0  0  0  0  0  0  0
  -25.3629  -31.1264   22.1835 C   0  0  1  0  0  0  0  0  0  0  0  0
  -27.7288  -18.7930   19.3080 C   0  0  2  0  0  0  0  0  0  0  0  0
  -17.8752  -29.1614   21.9064 C   0  0  0  0  0  0  0  0  0  0  0  0
  -25.5643  -22.5606   14.7255 C   0  0  0  0  0  0  0  0  0  0  0  0
  -23.3825  -21.3312   14.9524 C   0  0  0  0  0  0  0  0  0  0  0  0
  -23.2585  -29.1003   25.7649 C   0  0  0  0  0  0  0  0  0  0  0  0
  -20.9103  -28.3391   25.3464 C   0  0  0  0  0  0  0  0  0  0  0  0
  -21.4021  -30.7696   25.6173 C   0  0  0  0  0  0  0  0  0  0  0  0
  -20.1332  -29.9304   18.9422 C   0  0  0  0  0  0  0  0  0  0  0  0
  -25.7969  -23.7836   18.0001 C   0  0  0  0  0  0  0  0  0  0  0  0
  -24.6632  -22.7672   18.0132 C   0  0  0  0  0  0  0  0  0  0  0  0
  -25.6909  -24.8045   19.1265 C   0  0  0  0  0  0  0  0  0  1  0  0
  -22.1191  -29.5884   23.5000 C   0  0  1  0  0  0  0  0  0  0  0  0
  -19.1027  -29.7259   21.2083 C   0  0  2  0  0  0  0  0  0  0  0  0
  -24.3498  -22.3072   15.6098 C   0  0  0  0  0  0  0  0  0  0  0  0
  -21.9430  -29.4442   25.0381 C   0  0  0  0  0  0  0  0  0  0  0  0
  -27.0459  -16.4994   19.9046 N   0  0  0  0  0  0  0  0  0  0  0  0
  -28.0547  -17.3545   19.6651 N   0  0  0  0  0  0  0  0  0  0  0  0
  -24.2468  -30.2026   22.3957 N   0  0  0  0  0  0  0  0  0  0  0  0
  -26.0935  -20.2971   18.2093 N   0  0  0  0  0  0  0  0  0  0  0  0
  -30.4163  -17.5107   19.5711 N   0  0  0  0  0  0  0  0  0  0  0  0
  -29.7011  -13.1921   20.6822 N   0  0  0  0  0  0  0  0  0  0  0  0
  -26.5891  -31.9117   24.1168 N   0  0  0  0  0  0  0  0  0  0  0  0
  -20.8949  -29.9406   22.7889 N   0  0  0  0  0  0  0  0  0  0  0  0
  -24.7624  -21.8094   16.9143 N   0  0  0  0  0  0  0  0  0  0  0  0
  -19.0020  -29.4133   19.7546 N   0  3  0  0  0  0  0  0  0  0  0  0
  -31.3176  -14.7640   20.2641 O   0  0  0  0  0  0  0  0  0  0  0  0
  -26.9139  -29.7505   23.3131 O   0  0  0  0  0  0  0  0  0  0  0  0
  -22.9531  -31.8089   23.4830 O   0  0  0  0  0  0  0  0  0  0  0  0
  -20.8742  -28.0928   21.3879 O   0  0  0  0  0  0  0  0  0  0  0  0
  -25.5073  -19.8145   16.0316 O   0  0  0  0  0  0  0  0  0  0  0  0
  -24.7441  -10.7562   21.4100 O   0  0  0  0  0  0  0  0  0  0  0  0
  -26.8000  -25.6985   19.0421 O   0  0  0  0  0  0  0  0  0  1  0  0
  -26.2682   -6.0334   19.0066 F   0  0  0  0  0  0  0  0  0  0  0  0
  -22.9935   -9.3608   19.7881 F   0  0  0  0  0  0  0  0  0  0  0  0
  1  2  1  0  0  0  0
  1  5  2  0  0  0  0
  2  6  2  0  0  0  0
  3  8  2  0  0  0  0
  3 15  1  0  0  0  0
  4  9  1  0  0  0  0
  4 15  2  0  0  0  0
  5 17  1  0  0  0  0
  6 19  1  0  0  0  0
  7 10  2  0  0  0  0
  7 18  1  0  0  0  0
  8 21  1  0  0  0  0
  9 21  2  0  0  0  0
 10 22  1  0  0  0  0
 11 12  2  0  0  0  0
 11 23  1  0  0  0  0
 12 24  1  0  0  0  0
 13 20  1  0  0  0  0
 13 22  2  0  0  0  0
 14 24  2  0  0  0  0
 14 25  1  0  0  0  0
 15 26  1  0  0  0  0
 16 26  1  0  0  0  0
 16 27  2  0  0  0  0
 16 28  1  0  0  0  0
 17 19  2  0  0  0  0
 17 33  1  0  0  0  0
 18 20  2  0  0  0  0
 18 34  1  0  0  0  0
 19 42  1  0  0  0  0
 20 35  1  0  0  0  0
 21 74  1  0  0  0  0
 22 75  1  0  0  0  0
 23 25  2  0  0  0  0
 23 74  1  0  0  0  0
 24 76  1  0  0  0  0
 25 77  1  0  0  0  0
 26 59  2  0  0  0  0
 27 60  1  0  0  0  0
 27 63  1  0  0  0  0
 28 64  1  0  0  0  0
 28 69  2  0  0  0  0
 29 43  1  0  0  0  0
 29 65  1  0  0  0  0
 29 70  2  0  0  0  0
 30 55  1  0  0  0  0
 30 61  1  0  0  0  0
 30 71  2  0  0  0  0
 31 56  1  0  0  0  0
 31 66  1  0  0  0  0
 31 72  2  0  0  0  0
 32 62  1  0  0  0  0
 32 67  1  0  0  0  0
 32 73  2  0  0  0  0
 33 36  1  0  0  0  0
 34 43  1  0  0  0  0
 35 61  1  0  0  0  0
 36 38  1  0  0  0  0
 37 39  1  0  0  0  0
 37 40  1  0  0  0  0
 38 42  1  0  0  0  0
 39 44  1  0  0  0  0
 40 62  1  0  0  0  0
 41 44  1  0  0  0  0
 41 62  1  0  0  0  0
 42 65  1  0  0  0  0
 43 61  1  0  0  0  0
 44 60  1  0  0  0  0
 45 56  1  0  0  0  0
 46 57  1  0  0  0  0
 47 57  1  0  0  0  0
 48 58  1  0  0  0  0
 49 58  1  0  0  0  0
 50 58  1  0  0  0  0
 51 68  1  0  0  0  0
 52 53  1  0  0  0  0
 52 54  1  0  0  0  0
 53 67  1  0  0  0  0
 54 75  1  0  0  0  0
 55 58  1  0  0  0  0
 55 66  1  0  0  0  0
 56 68  1  0  0  0  0
 57 67  1  0  0  0  0
 59 60  1  0  0  0  0
M  CHG  1  68   1
M  ISO  4  32 100  54 101  67 100  75 101
M  END
> <Batch ID>
0102

> <Smiles>
CNC(C)C(=O)NC(C(=O)N1Cc2cc([101O:1][101CH2:1]CC[100N:0](C(C)C)[100C:0](=O)N3CCCC(n4nc(-c5ccc(Oc6ccc(F)cc6F)cc5)c(C(N)=O)c4N)C3)ccc2CC1C(=O)NC1CCCc2ccccc21)C(C)(C)C

> <Shape>
0.236

> <Color>
0.093

> <Negative vol penalty>
0.000

$$$$
