
  -OEChem-04052319413D

 81 88  0     1  0  0  0  0  0999 V2000
  -28.1331  -25.0792   16.2920 C   0  0  0  0  0  0  0  0  0  0  0  0
  -26.9595  -25.2045   17.0284 C   0  0  0  0  0  0  0  0  0  0  0  0
  -25.5113  -20.2797   24.6749 C   0  0  0  0  0  0  0  0  0  0  0  0
  -23.4826  -20.1833   23.3665 C   0  0  0  0  0  0  0  0  0  0  0  0
  -29.3280  -25.5931   16.7940 C   0  0  0  0  0  0  0  0  0  0  0  0
  -26.9803  -25.8430   18.2679 C   0  0  0  0  0  0  0  0  0  0  0  0
  -23.1288  -29.0788   18.8516 C   0  0  0  0  0  0  0  0  0  0  0  0
  -25.5451  -18.8862   24.7253 C   0  0  0  0  0  0  0  0  0  0  0  0
  -23.5164  -18.7898   23.4168 C   0  0  0  0  0  0  0  0  0  0  0  0
  -21.8823  -28.5359   19.1602 C   0  0  0  0  0  0  0  0  0  0  0  0
  -23.2657  -15.2006   22.8945 C   0  0  0  0  0  0  0  0  0  0  0  0
  -23.0208  -14.5021   21.7123 C   0  0  0  0  0  0  0  0  0  0  0  0
  -22.2202  -29.0958   21.4822 C   0  0  0  0  0  0  0  0  0  0  0  0
  -24.9210  -15.5809   20.6813 C   0  0  0  0  0  0  0  0  0  0  0  0
  -24.4800  -20.9283   23.9956 C   0  0  0  0  0  0  0  0  0  0  0  0
  -25.0321  -23.1983   22.9708 C   0  0  0  0  0  0  0  0  0  0  0  0
  -29.3616  -26.2467   18.0359 C   0  0  0  0  0  0  0  0  0  0  0  0
  -23.9364  -29.6254   19.8593 C   0  0  0  0  0  0  0  0  0  0  0  0
  -28.1770  -26.3649   18.7877 C   0  0  0  0  0  0  0  0  0  0  0  0
  -23.4754  -29.6473   21.1833 C   0  0  0  0  0  0  0  0  0  0  0  0
  -24.5476  -18.1412   24.0962 C   0  0  0  0  0  0  0  0  0  0  0  0
  -21.4291  -28.5417   20.4761 C   0  0  0  0  0  0  0  0  0  0  0  0
  -24.3382  -16.0893   22.9702 C   0  0  0  0  0  0  0  0  0  0  0  0
  -23.8485  -14.6922   20.6057 C   0  0  0  0  0  0  0  0  0  0  0  0
  -25.1658  -16.2794   21.8636 C   0  0  0  0  0  0  0  0  0  0  0  0
  -24.4442  -22.3678   23.9437 C   0  0  0  0  0  0  0  0  0  0  0  0
  -24.7132  -24.4733   23.3697 C   0  0  0  0  0  0  0  0  0  0  0  0
  -25.7978  -22.8484   21.8102 C   0  0  0  0  0  0  0  0  0  0  0  0
  -26.8119  -28.9580   21.0383 C   0  0  0  0  0  0  0  0  0  0  0  0
  -26.3209  -31.6814   22.7306 C   0  0  0  0  0  0  0  0  0  0  0  0
  -24.1002  -33.9087   24.0553 C   0  0  0  0  0  0  0  0  0  0  0  0
  -20.1241  -26.2917   26.9990 C   0  0  0  0  0  0  0  0  0  0  0  0
  -30.6860  -26.7441   18.5588 C   0  0  0  0  0  0  0  0  0  0  0  0
  -25.2670  -30.2312   19.5058 C   0  0  0  0  0  0  0  0  0  0  0  0
  -24.2954  -30.2405   22.2988 C   0  0  0  0  0  0  0  0  0  0  0  0
  -30.5519  -27.7373   19.7103 C   0  0  0  0  0  0  0  0  0  0  0  0
  -23.7359  -27.0550   27.2703 C   0  0  0  0  0  0  0  0  0  0  0  0
  -29.5502  -27.2272   20.7413 C   0  0  0  0  0  0  0  0  0  0  0  0
  -24.3730  -25.9588   26.4179 C   0  0  0  0  0  0  0  0  0  0  0  0
  -22.4100  -26.6042   27.8756 C   0  0  0  0  0  0  0  0  0  0  0  0
  -22.0682  -25.0039   26.0219 C   0  0  0  0  0  0  0  0  0  0  0  0
  -28.1545  -27.0727   20.1251 C   0  0  1  0  0  0  0  0  0  0  0  0
  -26.2268  -30.2974   20.6898 C   0  0  1  0  0  0  0  0  0  0  0  0
  -23.3831  -25.4420   25.3595 C   0  0  2  0  0  0  0  0  0  0  0  0
  -18.7694  -25.3842   20.0742 C   0  0  0  0  0  0  0  0  0  0  0  0
  -23.9966  -36.0131   25.4184 C   0  0  0  0  0  0  0  0  0  0  0  0
  -17.4335  -29.1410   22.1922 C   0  0  0  0  0  0  0  0  0  0  0  0
  -16.0838  -27.0918   21.8198 C   0  0  0  0  0  0  0  0  0  0  0  0
  -26.9251  -30.0745   25.2530 C   0  0  0  0  0  0  0  0  0  0  0  0
  -25.8981  -31.9233   26.5929 C   0  0  0  0  0  0  0  0  0  0  0  0
  -27.9270  -32.3655   25.2107 C   0  0  0  0  0  0  0  0  0  0  0  0
  -17.9310  -25.3813   26.3348 C   0  0  0  0  0  0  0  0  0  0  0  0
  -22.7823  -35.4003   21.8651 C   0  0  0  0  0  0  0  0  0  0  0  0
  -18.6077  -25.3933   21.5917 C   0  0  0  0  0  0  0  0  0  0  0  0
  -18.4741  -26.6477   23.8359 C   0  0  0  0  0  0  0  0  0  0  0  0
  -19.5752  -25.8772   24.5639 C   0  0  0  0  0  0  0  0  0  0  0  0
  -20.0546  -27.4456   22.0777 C   0  0  0  0  0  0  0  0  0  1  0  0
  -25.7003  -32.0129   24.0663 C   0  0  1  0  0  0  0  0  0  0  0  0
  -24.0505  -35.4254   24.0168 C   0  0  2  0  0  0  0  0  0  0  0  0
  -17.4914  -27.6948   21.6743 C   0  0  0  0  0  0  0  0  0  0  0  0
  -26.5978  -31.5810   25.2603 C   0  0  0  0  0  0  0  0  0  0  0  0
  -18.6529  -26.7984   22.2858 C   0  0  1  0  0  0  0  0  0  0  0  0
  -23.8008  -23.0573   24.8896 N   0  0  0  0  0  0  0  0  0  0  0  0
  -23.9826  -24.3345   24.5129 N   0  0  0  0  0  0  0  0  0  0  0  0
  -25.5921  -30.8149   21.9037 N   0  0  0  0  0  0  0  0  0  0  0  0
  -21.5046  -26.0777   26.8537 N   0  0  0  0  0  0  0  0  0  0  0  0
  -24.9894  -25.6885   22.8505 N   0  0  0  0  0  0  0  0  0  0  0  0
  -26.0320  -21.4916   21.5483 N   0  0  0  0  0  0  0  0  0  0  0  0
  -27.5096  -28.3627   20.0047 N   0  0  0  0  0  0  0  0  0  0  0  0
  -25.3966  -33.4395   24.0325 N   0  0  0  0  0  0  0  0  0  0  0  0
  -19.2886  -25.7819   25.9936 N   0  0  0  0  0  0  0  0  0  0  0  0
  -22.8470  -35.8854   23.2678 N   0  3  0  0  0  0  0  0  0  0  0  0
  -26.2744  -23.7140   21.0375 O   0  0  0  0  0  0  0  0  0  0  0  0
  -26.6441  -28.4993   22.1622 O   0  0  0  0  0  0  0  0  0  0  0  0
  -27.4087  -32.1788   22.4291 O   0  0  0  0  0  0  0  0  0  0  0  0
  -23.0902  -33.2101   24.1047 O   0  0  0  0  0  0  0  0  0  0  0  0
  -19.6653  -26.9119   27.9669 O   0  0  0  0  0  0  0  0  0  0  0  0
  -24.5804  -16.7814   24.1449 O   0  0  0  0  0  0  0  0  0  0  0  0
  -20.2036  -28.0078   20.7826 O   0  0  0  0  0  0  0  0  0  1  0  0
  -23.6141  -14.0202   19.4709 F   0  0  0  0  0  0  0  0  0  0  0  0
  -26.1984  -17.1310   21.9307 F   0  0  0  0  0  0  0  0  0  0  0  0
  1  2  1  0  0  0  0
  1  5  2  0  0  0  0
  2  6  2  0  0  0  0
  3  8  2  0  0  0  0
  3 15  1  0  0  0  0
  4  9  1  0  0  0  0
  4 15  2  0  0  0  0
  5 17  1  0  0  0  0
  6 19  1  0  0  0  0
  7 10  2  0  0  0  0
  7 18  1  0  0  0  0
  8 21  1  0  0  0  0
  9 21  2  0  0  0  0
 10 22  1  0  0  0  0
 11 12  2  0  0  0  0
 11 23  1  0  0  0  0
 12 24  1  0  0  0  0
 13 20  1  0  0  0  0
 13 22  2  0  0  0  0
 14 24  2  0  0  0  0
 14 25  1  0  0  0  0
 15 26  1  0  0  0  0
 16 26  1  0  0  0  0
 16 27  2  0  0  0  0
 16 28  1  0  0  0  0
 17 19  2  0  0  0  0
 17 33  1  0  0  0  0
 18 20  2  0  0  0  0
 18 34  1  0  0  0  0
 19 42  1  0  0  0  0
 20 35  1  0  0  0  0
 21 78  1  0  0  0  0
 22 79  1  0  0  0  0
 23 25  2  0  0  0  0
 23 78  1  0  0  0  0
 24 80  1  0  0  0  0
 25 81  1  0  0  0  0
 26 63  2  0  0  0  0
 27 64  1  0  0  0  0
 27 67  1  0  0  0  0
 28 68  1  0  0  0  0
 28 73  2  0  0  0  0
 29 43  1  0  0  0  0
 29 69  1  0  0  0  0
 29 74  2  0  0  0  0
 30 58  1  0  0  0  0
 30 65  1  0  0  0  0
 30 75  2  0  0  0  0
 31 59  1  0  0  0  0
 31 70  1  0  0  0  0
 31 76  2  0  0  0  0
 32 66  1  0  0  0  0
 32 71  1  0  0  0  0
 32 77  2  0  0  0  0
 33 36  1  0  0  0  0
 34 43  1  0  0  0  0
 35 65  1  0  0  0  0
 36 38  1  0  0  0  0
 37 39  1  0  0  0  0
 37 40  1  0  0  0  0
 38 42  1  0  0  0  0
 39 44  1  0  0  0  0
 40 66  1  0  0  0  0
 41 44  1  0  0  0  0
 41 66  1  0  0  0  0
 42 69  1  0  0  0  0
 43 65  1  0  0  0  0
 44 64  1  0  0  0  0
 45 54  1  0  0  0  0
 46 59  1  0  0  0  0
 47 60  1  0  0  0  0
 48 60  1  0  0  0  0
 49 61  1  0  0  0  0
 50 61  1  0  0  0  0
 51 61  1  0  0  0  0
 52 71  1  0  0  0  0
 53 72  1  0  0  0  0
 54 62  1  0  0  0  0
 55 56  1  0  0  0  0
 55 62  1  0  0  0  0
 56 71  1  0  0  0  0
 57 62  1  0  0  0  0
 57 79  1  0  0  0  0
 58 61  1  0  0  0  0
 58 70  1  0  0  0  0
 59 72  1  0  0  0  0
 60 62  1  0  0  0  0
 63 64  1  0  0  0  0
M  CHG  1  72   1
M  ISO  4  32 100  57 101  71 100  79 101
M  END
> <Batch ID>
0103

> <Smiles>
CCC(CC[100N:0](C)[100C:0](=O)N1CCCC(n2nc(-c3ccc(Oc4ccc(F)cc4F)cc3)c(C(N)=O)c2N)C1)(C(C)C)[101CH2:1][101O:1]c1ccc2c(c1)CN(C(=O)C(NC(=O)C(C)NC)C(C)(C)C)C(C(=O)NC1CCCc3ccccc31)C2

> <Shape>
0.223

> <Color>
0.056

> <Negative vol penalty>
0.000

$$$$

  -OEChem-04052319413D

 81 89  0     1  0  0  0  0  0999 V2000
  -29.6395  -36.5232   21.3020 C   0  0  0  0  0  0  0  0  0  0  0  0
  -29.6920  -35.2583   20.7252 C   0  0  0  0  0  0  0  0  0  0  0  0
  -26.5262  -13.0508   21.5301 C   0  0  0  0  0  0  0  0  0  0  0  0
  -26.2608  -13.7877   19.2445 C   0  0  0  0  0  0  0  0  0  0  0  0
  -29.0208  -36.6987   22.5391 C   0  0  0  0  0  0  0  0  0  0  0  0
  -29.1268  -34.1680   21.3856 C   0  0  0  0  0  0  0  0  0  0  0  0
  -26.3373  -29.3547   18.8250 C   0  0  0  0  0  0  0  0  0  0  0  0
  -25.2320  -12.5309   21.5128 C   0  0  0  0  0  0  0  0  0  0  0  0
  -24.9665  -13.2677   19.2272 C   0  0  0  0  0  0  0  0  0  0  0  0
  -26.7770  -28.0662   18.5246 C   0  0  0  0  0  0  0  0  0  0  0  0
  -23.6706   -9.7741   20.3316 C   0  0  0  0  0  0  0  0  0  0  0  0
  -23.4767   -8.4999   20.8649 C   0  0  0  0  0  0  0  0  0  0  0  0
  -25.8452  -27.2704   20.6025 C   0  0  0  0  0  0  0  0  0  0  0  0
  -27.8922  -21.9259   17.4677 C   0  0  0  0  0  0  0  0  0  0  0  0
  -21.9342   -9.4126   22.4850 C   0  0  0  0  0  0  0  0  0  0  0  0
  -29.2865  -23.6209   17.9704 C   0  0  0  0  0  0  0  0  0  0  0  0
  -27.0406  -13.6793   20.3960 C   0  0  0  0  0  0  0  0  0  0  0  0
  -29.5662  -13.5510   20.0604 C   0  0  0  0  0  0  0  0  0  0  0  0
  -28.4392  -35.6117   23.2105 C   0  0  0  0  0  0  0  0  0  0  0  0
  -25.6566  -29.6132   20.0235 C   0  0  0  0  0  0  0  0  0  0  0  0
  -28.5010  -34.3289   22.6334 C   0  0  0  0  0  0  0  0  0  0  0  0
  -25.3957  -28.5625   20.9146 C   0  0  0  0  0  0  0  0  0  0  0  0
  -29.2328  -22.2572   17.7841 C   0  0  0  0  0  0  0  0  0  0  0  0
  -24.4522  -12.6393   20.3613 C   0  0  0  0  0  0  0  0  0  0  0  0
  -26.5335  -27.0244   19.4148 C   0  0  0  0  0  0  0  0  0  0  0  0
  -22.9963  -10.8676   20.8751 C   0  0  0  0  0  0  0  0  0  0  0  0
  -22.6085   -8.3191   21.9416 C   0  0  0  0  0  0  0  0  0  0  0  0
  -22.1281  -10.6869   21.9517 C   0  0  0  0  0  0  0  0  0  0  0  0
  -28.3772  -14.2170   20.4134 C   0  0  0  0  0  0  0  0  0  0  0  0
  -27.1675  -23.0974   17.4701 C   0  0  0  0  0  0  0  0  0  0  0  0
  -30.5530  -14.4880   20.2470 C   0  0  0  0  0  0  0  0  0  0  0  0
  -29.7611  -12.2057   19.6045 C   0  0  0  0  0  0  0  0  0  0  0  0
  -26.2142  -31.4272   22.5735 C   0  0  0  0  0  0  0  0  0  0  0  0
  -23.2290  -30.4789   23.4168 C   0  0  0  0  0  0  0  0  0  0  0  0
  -20.7349  -28.1669   23.1323 C   0  0  0  0  0  0  0  0  0  0  0  0
  -30.5477  -20.4755   20.2223 C   0  0  0  0  0  0  0  0  0  0  0  0
  -27.8231  -35.8422   24.5677 C   0  0  0  0  0  0  0  0  0  0  0  0
  -25.1654  -31.0036   20.3204 C   0  0  0  0  0  0  0  0  0  0  0  0
  -24.6514  -28.7836   22.2052 C   0  0  0  0  0  0  0  0  0  0  0  0
  -26.9189  -34.7015   25.0278 C   0  0  0  0  0  0  0  0  0  0  0  0
  -31.6045  -18.3465   22.8732 C   0  0  0  0  0  0  0  0  0  0  0  0
  -27.5986  -33.3555   24.7977 C   0  0  0  0  0  0  0  0  0  0  0  0
  -31.0045  -16.9867   22.5115 C   0  0  0  0  0  0  0  0  0  0  0  0
  -30.6713  -19.4941   22.4934 C   0  0  0  0  0  0  0  0  0  0  0  0
  -29.6267  -18.1314   20.7255 C   0  0  0  0  0  0  0  0  0  0  0  0
  -27.8775  -33.1259   23.3074 C   0  0  1  0  0  0  0  0  0  0  0  0
  -24.9335  -31.2504   21.8079 C   0  0  1  0  0  0  0  0  0  0  0  0
  -30.5555  -16.9458   21.0384 C   0  0  2  0  0  0  0  0  0  0  0  0
  -24.8117  -22.6111   18.2234 C   0  0  0  0  0  0  0  0  0  0  0  0
  -25.3118  -22.9260   15.7728 C   0  0  0  0  0  0  0  0  0  0  0  0
  -18.4283  -27.6441   23.9712 C   0  0  0  0  0  0  0  0  0  0  0  0
  -24.4071  -29.5636   26.0785 C   0  0  0  0  0  0  0  0  0  0  0  0
  -22.3243  -28.2280   26.4615 C   0  0  0  0  0  0  0  0  0  0  0  0
  -22.1920  -30.7107   26.2575 C   0  0  0  0  0  0  0  0  0  0  0  0
  -19.5897  -28.2898   20.4061 C   0  0  0  0  0  0  0  0  0  0  0  0
  -30.3636  -21.3162   17.8945 C   0  0  0  0  0  0  0  0  0  0  0  0
  -27.6574  -25.5768   17.8886 C   0  0  0  0  0  0  0  0  0  1  0  0
  -25.7315  -23.3243   17.2062 C   0  0  0  0  0  0  0  0  0  0  0  0
  -22.6556  -29.3207   24.1971 C   0  0  1  0  0  0  0  0  0  0  0  0
  -19.2456  -28.3177   22.8798 C   0  0  2  0  0  0  0  0  0  0  0  0
  -22.9105  -29.4516   25.7253 C   0  0  0  0  0  0  0  0  0  0  0  0
  -28.5873  -15.4795   20.7955 N   0  0  0  0  0  0  0  0  0  0  0  0
  -28.0254  -24.1212   17.7767 N   0  0  0  0  0  0  0  0  0  0  0  0
  -29.9198  -15.6143   20.6837 N   0  0  0  0  0  0  0  0  0  0  0  0
  -24.1969  -30.1618   22.4534 N   0  0  0  0  0  0  0  0  0  0  0  0
  -30.2842  -19.3979   21.0838 N   0  0  0  0  0  0  0  0  0  0  0  0
  -31.8918  -14.4500   20.0785 N   0  0  0  0  0  0  0  0  0  0  0  0
  -28.6390  -11.3771   19.4684 N   0  0  0  0  0  0  0  0  0  0  0  0
  -26.6656  -32.7323   22.6212 N   0  0  0  0  0  0  0  0  0  0  0  0
  -21.2456  -29.2401   23.8312 N   0  0  0  0  0  0  0  0  0  0  0  0
  -30.1545  -20.2996   18.9012 N   0  0  0  0  0  0  0  0  0  0  0  0
  -18.8774  -27.7059   21.5717 N   0  3  0  0  0  0  0  0  0  0  0  0
  -30.8986  -11.7468   19.3417 O   0  0  0  0  0  0  0  0  0  0  0  0
  -26.7522  -30.4519   23.0844 O   0  0  0  0  0  0  0  0  0  0  0  0
  -22.8274  -31.6220   23.6485 O   0  0  0  0  0  0  0  0  0  0  0  0
  -21.3798  -27.1926   22.7511 O   0  0  0  0  0  0  0  0  0  0  0  0
  -31.0979  -21.5151   20.6010 O   0  0  0  0  0  0  0  0  0  0  0  0
  -23.1893  -12.1319   20.3440 O   0  0  0  0  0  0  0  0  0  0  0  0
  -26.9622  -25.7659   19.1243 O   0  0  0  0  0  0  0  0  0  1  0  0
  -22.4212   -7.0952   22.4526 F   0  0  0  0  0  0  0  0  0  0  0  0
  -21.4767  -11.7334   22.4772 F   0  0  0  0  0  0  0  0  0  0  0  0
  1  2  1  0  0  0  0
  1  5  2  0  0  0  0
  2  6  2  0  0  0  0
  3  8  2  0  0  0  0
  3 17  1  0  0  0  0
  4  9  1  0  0  0  0
  4 17  2  0  0  0  0
  5 19  1  0  0  0  0
  6 21  1  0  0  0  0
  7 10  2  0  0  0  0
  7 20  1  0  0  0  0
  8 24  1  0  0  0  0
  9 24  2  0  0  0  0
 10 25  1  0  0  0  0
 11 12  2  0  0  0  0
 11 26  1  0  0  0  0
 12 27  1  0  0  0  0
 13 22  1  0  0  0  0
 13 25  2  0  0  0  0
 14 23  1  0  0  0  0
 14 30  2  0  0  0  0
 15 27  2  0  0  0  0
 15 28  1  0  0  0  0
 16 23  2  0  0  0  0
 16 63  1  0  0  0  0
 17 29  1  0  0  0  0
 18 29  1  0  0  0  0
 18 31  2  0  0  0  0
 18 32  1  0  0  0  0
 19 21  2  0  0  0  0
 19 37  1  0  0  0  0
 20 22  2  0  0  0  0
 20 38  1  0  0  0  0
 21 46  1  0  0  0  0
 22 39  1  0  0  0  0
 23 56  1  0  0  0  0
 24 78  1  0  0  0  0
 25 79  1  0  0  0  0
 26 28  2  0  0  0  0
 26 78  1  0  0  0  0
 27 80  1  0  0  0  0
 28 81  1  0  0  0  0
 29 62  2  0  0  0  0
 30 58  1  0  0  0  0
 30 63  1  0  0  0  0
 31 64  1  0  0  0  0
 31 67  1  0  0  0  0
 32 68  1  0  0  0  0
 32 73  2  0  0  0  0
 33 47  1  0  0  0  0
 33 69  1  0  0  0  0
 33 74  2  0  0  0  0
 34 59  1  0  0  0  0
 34 65  1  0  0  0  0
 34 75  2  0  0  0  0
 35 60  1  0  0  0  0
 35 70  1  0  0  0  0
 35 76  2  0  0  0  0
 36 66  1  0  0  0  0
 36 71  1  0  0  0  0
 36 77  2  0  0  0  0
 37 40  1  0  0  0  0
 38 47  1  0  0  0  0
 39 65  1  0  0  0  0
 40 42  1  0  0  0  0
 41 43  1  0  0  0  0
 41 44  1  0  0  0  0
 42 46  1  0  0  0  0
 43 48  1  0  0  0  0
 44 66  1  0  0  0  0
 45 48  1  0  0  0  0
 45 66  1  0  0  0  0
 46 69  1  0  0  0  0
 47 65  1  0  0  0  0
 48 64  1  0  0  0  0
 49 58  1  0  0  0  0
 50 58  1  0  0  0  0
 51 60  1  0  0  0  0
 52 61  1  0  0  0  0
 53 61  1  0  0  0  0
 54 61  1  0  0  0  0
 55 72  1  0  0  0  0
 56 71  1  0  0  0  0
 57 63  1  0  0  0  0
 57 79  1  0  0  0  0
 59 61  1  0  0  0  0
 59 70  1  0  0  0  0
 60 72  1  0  0  0  0
 62 64  1  0  0  0  0
M  CHG  1  72   1
M  ISO  4  36 100  57 101  71 100  79 101
M  END
> <Batch ID>
0103

> <Smiles>
CNC(C)C(=O)NC(C(=O)N1Cc2cc([101O:1][101CH2:1]n3cc(C[100NH:0][100C:0](=O)N4CCCC(n5nc(-c6ccc(Oc7ccc(F)cc7F)cc6)c(C(N)=O)c5N)C4)cc3C(C)C)ccc2CC1C(=O)NC1CCCc2ccccc21)C(C)(C)C

> <Shape>
0.307

> <Color>
0.089

> <Negative vol penalty>
0.000

$$$$

  -OEChem-04052319413D

 87 95  0     1  0  0  0  0  0999 V2000
  -23.7347  -14.0302   22.3727 C   0  0  0  0  0  0  0  0  0  0  0  0
  -23.9837  -15.3964   22.4564 C   0  0  0  0  0  0  0  0  0  0  0  0
  -30.5591  -18.1073   21.4683 C   0  0  0  0  0  0  0  0  0  0  0  0
  -29.3131  -17.7657   19.4269 C   0  0  0  0  0  0  0  0  0  0  0  0
  -23.7462  -13.3954   21.1315 C   0  0  0  0  0  0  0  0  0  0  0  0
  -24.2455  -16.1284   21.2987 C   0  0  0  0  0  0  0  0  0  0  0  0
  -22.6242  -21.9237   20.1622 C   0  0  0  0  0  0  0  0  0  0  0  0
  -31.0507  -16.8045   21.3864 C   0  0  0  0  0  0  0  0  0  0  0  0
  -29.8046  -16.4629   19.3449 C   0  0  0  0  0  0  0  0  0  0  0  0
  -23.3210  -23.1278   20.2536 C   0  0  0  0  0  0  0  0  0  0  0  0
  -30.4464  -12.9287   18.7900 C   0  0  0  0  0  0  0  0  0  0  0  0
  -29.5429  -11.9134   18.4763 C   0  0  0  0  0  0  0  0  0  0  0  0
  -23.8357  -23.0016   17.9002 C   0  0  0  0  0  0  0  0  0  0  0  0
  -26.5858  -26.9470   21.1250 C   0  0  0  0  0  0  0  0  0  0  0  0
  -24.9771  -27.7576   19.5152 C   0  0  0  0  0  0  0  0  0  0  0  0
  -28.2578  -12.4466   20.4515 C   0  0  0  0  0  0  0  0  0  0  0  0
  -29.6903  -18.5879   20.4886 C   0  0  0  0  0  0  0  0  0  0  0  0
  -28.4121  -20.4876   21.6133 C   0  0  0  0  0  0  0  0  0  0  0  0
  -23.9986  -14.1218   19.9570 C   0  0  0  0  0  0  0  0  0  0  0  0
  -22.5370  -21.2429   18.9393 C   0  0  0  0  0  0  0  0  0  0  0  0
  -24.2616  -15.5025   20.0407 C   0  0  0  0  0  0  0  0  0  0  0  0
  -23.1350  -21.7904   17.7954 C   0  0  0  0  0  0  0  0  0  0  0  0
  -25.4264  -26.7544   20.3739 C   0  0  0  0  0  0  0  0  0  0  0  0
  -27.2959  -28.1428   21.0176 C   0  0  0  0  0  0  0  0  0  0  0  0
  -25.6872  -28.9534   19.4076 C   0  0  0  0  0  0  0  0  0  0  0  0
  -26.8466  -29.1460   20.1588 C   0  0  0  0  0  0  0  0  0  0  0  0
  -30.6735  -15.9823   20.3247 C   0  0  0  0  0  0  0  0  0  0  0  0
  -23.9294  -23.6655   19.1231 C   0  0  0  0  0  0  0  0  0  0  0  0
  -30.2557  -13.7029   19.9345 C   0  0  0  0  0  0  0  0  0  0  0  0
  -28.4486  -11.6724   19.3070 C   0  0  0  0  0  0  0  0  0  0  0  0
  -29.1614  -13.4619   20.7652 C   0  0  0  0  0  0  0  0  0  0  0  0
  -29.1817  -19.9334   20.5730 C   0  0  0  0  0  0  0  0  0  0  0  0
  -28.1864  -21.7841   21.2203 C   0  0  0  0  0  0  0  0  0  0  0  0
  -27.9431  -19.8843   22.8265 C   0  0  0  0  0  0  0  0  0  0  0  0
  -23.4870  -18.3997   17.8822 C   0  0  0  0  0  0  0  0  0  0  0  0
  -21.8380  -19.2697   15.2277 C   0  0  0  0  0  0  0  0  0  0  0  0
  -20.5716  -21.7834   13.2979 C   0  0  0  0  0  0  0  0  0  0  0  0
  -30.0028  -26.6056   19.0756 C   0  0  0  0  0  0  0  0  0  0  0  0
  -24.0473  -13.3832   18.6430 C   0  0  0  0  0  0  0  0  0  0  0  0
  -21.7589  -19.9586   18.8516 C   0  0  0  0  0  0  0  0  0  0  0  0
  -23.0534  -21.1090   16.4546 C   0  0  0  0  0  0  0  0  0  0  0  0
  -23.9629  -14.3001   17.4254 C   0  0  0  0  0  0  0  0  0  0  0  0
  -29.0076  -24.0697   16.7832 C   0  0  0  0  0  0  0  0  0  0  0  0
  -24.9066  -15.4879   17.5852 C   0  0  0  0  0  0  0  0  0  0  0  0
  -28.9069  -22.8128   17.6492 C   0  0  0  0  0  0  0  0  0  0  0  0
  -30.1614  -24.9678   17.2239 C   0  0  0  0  0  0  0  0  0  0  0  0
  -30.0502  -24.0762   19.5188 C   0  0  0  0  0  0  0  0  0  0  0  0
  -24.5251  -16.3353   18.8050 C   0  0  1  0  0  0  0  0  0  0  0  0
  -22.1703  -19.0906   17.6664 C   0  0  1  0  0  0  0  0  0  0  0  0
  -28.8665  -23.1663   19.1481 C   0  0  2  0  0  0  0  0  0  0  0  0
  -23.7925  -30.5309   18.8829 C   0  0  0  0  0  0  0  0  0  0  0  0
  -25.1677  -29.5466   17.0134 C   0  0  0  0  0  0  0  0  0  0  0  0
  -19.3057  -22.1855   11.1688 C   0  0  0  0  0  0  0  0  0  0  0  0
  -24.3616  -18.6771   13.6182 C   0  0  0  0  0  0  0  0  0  0  0  0
  -23.3687  -19.9691   11.7174 C   0  0  0  0  0  0  0  0  0  0  0  0
  -22.2366  -17.9071   12.5477 C   0  0  0  0  0  0  0  0  0  0  0  0
  -18.3417  -23.0952   14.7352 C   0  0  0  0  0  0  0  0  0  0  0  0
  -28.5351  -28.3236   21.8321 C   0  0  0  0  0  0  0  0  0  0  0  0
  -24.6623  -25.4684   20.4900 C   0  0  0  0  0  0  0  0  0  1  0  0
  -29.8271  -28.1205   21.0335 C   0  0  0  0  0  0  0  0  0  0  0  0
  -25.1850  -30.0119   18.4808 C   0  0  0  0  0  0  0  0  0  0  0  0
  -22.1743  -20.0072   13.9541 C   0  0  1  0  0  0  0  0  0  0  0  0
  -19.2027  -21.9809   12.6722 C   0  0  2  0  0  0  0  0  0  0  0  0
  -27.6084  -30.4278   20.0435 C   0  0  0  0  0  0  0  0  0  0  0  0
  -23.0387  -19.1522   12.9849 C   0  0  0  0  0  0  0  0  0  0  0  0
  -29.4284  -20.8064   19.5927 N   0  0  0  0  0  0  0  0  0  0  0  0
  -28.8101  -21.9223   20.0153 N   0  0  0  0  0  0  0  0  0  0  0  0
  -22.2869  -19.8525   16.4214 N   0  0  0  0  0  0  0  0  0  0  0  0
  -30.0634  -25.2669   18.6546 N   0  0  0  0  0  0  0  0  0  0  0  0
  -27.5173  -22.8081   21.7914 N   0  0  0  0  0  0  0  0  0  0  0  0
  -26.6935  -19.2495   22.8174 N   0  0  0  0  0  0  0  0  0  0  0  0
  -23.3818  -17.1697   18.5031 N   0  0  0  0  0  0  0  0  0  0  0  0
  -20.9032  -20.4482   13.3901 N   0  0  0  0  0  0  0  0  0  0  0  0
  -29.9047  -26.8007   20.4479 N   0  0  0  0  0  0  0  0  0  0  0  0
  -18.5298  -23.1720   13.2636 N   0  3  0  0  0  0  0  0  0  0  0  0
  -28.6050  -19.9217   23.8914 O   0  0  0  0  0  0  0  0  0  0  0  0
  -24.5216  -18.9417   17.5115 O   0  0  0  0  0  0  0  0  0  0  0  0
  -21.1945  -18.2192   15.1663 O   0  0  0  0  0  0  0  0  0  0  0  0
  -21.2778  -22.7201   13.6646 O   0  0  0  0  0  0  0  0  0  0  0  0
  -30.0286  -27.5563   18.2867 O   0  0  0  0  0  0  0  0  0  0  0  0
  -31.1531  -14.7111   20.2442 O   0  0  0  0  0  0  0  0  0  0  0  0
  -24.6107  -24.8403   19.2097 O   0  0  0  0  0  0  0  0  0  1  0  0
  -27.5802  -10.6984   19.0047 F   0  0  0  0  0  0  0  0  0  0  0  0
  -28.9722  -14.2032   21.8655 F   0  0  0  0  0  0  0  0  0  0  0  0
  -28.7184  -30.4734   20.8354 F   0  0  0  0  0  0  0  0  0  0  0  0
  -28.0571  -30.6805   18.7802 F   0  0  0  0  0  0  0  0  0  0  0  0
  -26.8597  -31.5121   20.3937 F   0  0  0  0  0  0  0  0  0  0  0  0
  1  2  1  0  0  0  0
  1  5  2  0  0  0  0
  2  6  2  0  0  0  0
  3  8  2  0  0  0  0
  3 17  1  0  0  0  0
  4  9  1  0  0  0  0
  4 17  2  0  0  0  0
  5 19  1  0  0  0  0
  6 21  1  0  0  0  0
  7 10  2  0  0  0  0
  7 20  1  0  0  0  0
  8 27  1  0  0  0  0
  9 27  2  0  0  0  0
 10 28  1  0  0  0  0
 11 12  2  0  0  0  0
 11 29  1  0  0  0  0
 12 30  1  0  0  0  0
 13 22  1  0  0  0  0
 13 28  2  0  0  0  0
 14 23  1  0  0  0  0
 14 24  2  0  0  0  0
 15 23  2  0  0  0  0
 15 25  1  0  0  0  0
 16 30  2  0  0  0  0
 16 31  1  0  0  0  0
 17 32  1  0  0  0  0
 18 32  1  0  0  0  0
 18 33  2  0  0  0  0
 18 34  1  0  0  0  0
 19 21  2  0  0  0  0
 19 39  1  0  0  0  0
 20 22  2  0  0  0  0
 20 40  1  0  0  0  0
 21 48  1  0  0  0  0
 22 41  1  0  0  0  0
 23 59  1  0  0  0  0
 24 26  1  0  0  0  0
 24 58  1  0  0  0  0
 25 26  2  0  0  0  0
 25 61  1  0  0  0  0
 26 64  1  0  0  0  0
 27 81  1  0  0  0  0
 28 82  1  0  0  0  0
 29 31  2  0  0  0  0
 29 81  1  0  0  0  0
 30 83  1  0  0  0  0
 31 84  1  0  0  0  0
 32 66  2  0  0  0  0
 33 67  1  0  0  0  0
 33 70  1  0  0  0  0
 34 71  1  0  0  0  0
 34 76  2  0  0  0  0
 35 49  1  0  0  0  0
 35 72  1  0  0  0  0
 35 77  2  0  0  0  0
 36 62  1  0  0  0  0
 36 68  1  0  0  0  0
 36 78  2  0  0  0  0
 37 63  1  0  0  0  0
 37 73  1  0  0  0  0
 37 79  2  0  0  0  0
 38 69  1  0  0  0  0
 38 74  1  0  0  0  0
 38 80  2  0  0  0  0
 39 42  1  0  0  0  0
 40 49  1  0  0  0  0
 41 68  1  0  0  0  0
 42 44  1  0  0  0  0
 43 45  1  0  0  0  0
 43 46  1  0  0  0  0
 44 48  1  0  0  0  0
 45 50  1  0  0  0  0
 46 69  1  0  0  0  0
 47 50  1  0  0  0  0
 47 69  1  0  0  0  0
 48 72  1  0  0  0  0
 49 68  1  0  0  0  0
 50 67  1  0  0  0  0
 51 61  1  0  0  0  0
 52 61  1  0  0  0  0
 53 63  1  0  0  0  0
 54 65  1  0  0  0  0
 55 65  1  0  0  0  0
 56 65  1  0  0  0  0
 57 75  1  0  0  0  0
 58 60  1  0  0  0  0
 59 82  1  0  0  0  0
 60 74  1  0  0  0  0
 62 65  1  0  0  0  0
 62 73  1  0  0  0  0
 63 75  1  0  0  0  0
 64 85  1  0  0  0  0
 64 86  1  0  0  0  0
 64 87  1  0  0  0  0
 66 67  1  0  0  0  0
M  CHG  1  75   1
M  ISO  4  38 100  59 101  74 100  82 101
M  END
> <Batch ID>
0103

> <Smiles>
CNC(C)C(=O)NC(C(=O)N1Cc2cc([101O:1][101CH2:1]c3cc(CC[100NH:0][100C:0](=O)N4CCCC(n5nc(-c6ccc(Oc7ccc(F)cc7F)cc6)c(C(N)=O)c5N)C4)c(C(F)(F)F)c(C(C)C)c3)ccc2CC1C(=O)NC1CCCc2ccccc21)C(C)(C)C

> <Shape>
0.223

> <Color>
0.062

> <Negative vol penalty>
0.000

$$$$

  -OEChem-04052319413D

 92100  0     1  0  0  0  0  0999 V2000
  -31.1887  -27.5749   28.4865 C   0  0  0  0  0  0  0  0  0  0  0  0
  -31.8076  -26.6559   27.6451 C   0  0  0  0  0  0  0  0  0  0  0  0
  -23.0043   -9.8895   19.9811 C   0  0  0  0  0  0  0  0  0  0  0  0
  -23.7339   -9.9415   22.2837 C   0  0  0  0  0  0  0  0  0  0  0  0
  -29.9171  -28.0556   28.1768 C   0  0  0  0  0  0  0  0  0  0  0  0
  -31.1547  -26.2162   26.4941 C   0  0  0  0  0  0  0  0  0  0  0  0
  -32.4894  -24.1030   19.7807 C   0  0  0  0  0  0  0  0  0  0  0  0
  -22.2416   -8.7527   20.2483 C   0  0  0  0  0  0  0  0  0  0  0  0
  -22.9711   -8.8046   22.5510 C   0  0  0  0  0  0  0  0  0  0  0  0
  -32.2175  -23.0494   18.9090 C   0  0  0  0  0  0  0  0  0  0  0  0
  -23.2243   -5.4666   22.0770 C   0  0  0  0  0  0  0  0  0  0  0  0
  -23.8163   -4.4508   22.8274 C   0  0  0  0  0  0  0  0  0  0  0  0
  -30.0557  -24.0086   18.4337 C   0  0  0  0  0  0  0  0  0  0  0  0
  -28.8072  -20.3219   20.3545 C   0  0  0  0  0  0  0  0  0  0  0  0
  -29.9303  -18.2143   19.9893 C   0  0  0  0  0  0  0  0  0  0  0  0
  -22.0950   -4.6878   24.5061 C   0  0  0  0  0  0  0  0  0  0  0  0
  -23.7505  -10.4839   20.9987 C   0  0  0  0  0  0  0  0  0  0  0  0
  -24.1281  -13.0007   20.8232 C   0  0  0  0  0  0  0  0  0  0  0  0
  -29.2523  -27.6289   27.0164 C   0  0  0  0  0  0  0  0  0  0  0  0
  -31.5405  -25.1132   19.9941 C   0  0  0  0  0  0  0  0  0  0  0  0
  -29.8724  -26.6906   26.1694 C   0  0  0  0  0  0  0  0  0  0  0  0
  -30.3190  -25.0752   19.3066 C   0  0  0  0  0  0  0  0  0  0  0  0
  -29.2798  -19.3400   19.4839 C   0  0  0  0  0  0  0  0  0  0  0  0
  -28.9850  -20.1783   21.7305 C   0  0  0  0  0  0  0  0  0  0  0  0
  -30.1081  -18.0706   21.3653 C   0  0  0  0  0  0  0  0  0  0  0  0
  -29.6355  -19.0526   22.2359 C   0  0  0  0  0  0  0  0  0  0  0  0
  -22.2250   -8.2102   21.5333 C   0  0  0  0  0  0  0  0  0  0  0  0
  -30.9994  -23.0006   18.2375 C   0  0  0  0  0  0  0  0  0  0  0  0
  -22.0677   -6.0932   22.5411 C   0  0  0  0  0  0  0  0  0  0  0  0
  -23.2516   -4.0614   24.0420 C   0  0  0  0  0  0  0  0  0  0  0  0
  -21.5030   -5.7038   23.7557 C   0  0  0  0  0  0  0  0  0  0  0  0
  -24.5390  -11.6579   20.7231 C   0  0  0  0  0  0  0  0  0  0  0  0
  -25.2351  -13.7267   20.4570 C   0  0  0  0  0  0  0  0  0  0  0  0
  -22.8594  -13.5432   21.2125 C   0  0  0  0  0  0  0  0  0  0  0  0
  -29.9097  -26.1632   22.5124 C   0  0  0  0  0  0  0  0  0  0  0  0
  -28.9381  -28.4584   20.4362 C   0  0  0  0  0  0  0  0  0  0  0  0
  -28.4168  -29.4037   17.1987 C   0  0  0  0  0  0  0  0  0  0  0  0
  -30.7292  -14.6772   20.6951 C   0  0  0  0  0  0  0  0  0  0  0  0
  -27.8591  -28.1406   26.7483 C   0  0  0  0  0  0  0  0  0  0  0  0
  -31.8598  -26.2570   20.9173 C   0  0  0  0  0  0  0  0  0  0  0  0
  -29.2748  -26.1458   19.4854 C   0  0  0  0  0  0  0  0  0  0  0  0
  -27.3907  -27.9089   25.3140 C   0  0  0  0  0  0  0  0  0  0  0  0
  -29.5909  -12.2513   18.3507 C   0  0  0  0  0  0  0  0  0  0  0  0
  -27.6976  -26.4803   24.8764 C   0  0  0  0  0  0  0  0  0  0  0  0
  -28.1440  -11.9872   18.7710 C   0  0  0  0  0  0  0  0  0  0  0  0
  -30.4950  -12.4887   19.5583 C   0  0  0  0  0  0  0  0  0  0  0  0
  -28.5852  -13.2780   20.9012 C   0  0  0  0  0  0  0  0  0  0  0  0
  -29.2067  -26.2086   24.8987 C   0  0  1  0  0  0  0  0  0  0  0  0
  -30.6151  -26.9593   21.4511 C   0  0  1  0  0  0  0  0  0  0  0  0
  -27.6244  -13.0882   19.7150 C   0  0  2  0  0  0  0  0  0  0  0  0
  -28.4684  -21.2437   22.6415 C   0  0  0  0  0  0  0  0  0  0  0  0
  -28.1567  -18.3836   17.4737 C   0  0  0  0  0  0  0  0  0  0  0  0
  -29.1855  -17.6242   24.2731 C   0  0  0  0  0  0  0  0  0  0  0  0
  -27.5797  -31.3247   15.8179 C   0  0  0  0  0  0  0  0  0  0  0  0
  -34.1098  -19.0552   24.6977 C   0  0  0  0  0  0  0  0  0  0  0  0
  -33.7481  -20.0580   22.4322 C   0  0  0  0  0  0  0  0  0  0  0  0
  -30.2209  -19.6670   15.6916 C   0  0  0  0  0  0  0  0  0  0  0  0
  -31.4955  -20.9072   25.4743 C   0  0  0  0  0  0  0  0  0  0  0  0
  -26.0674  -27.7355   21.1753 C   0  0  0  0  0  0  0  0  0  0  0  0
  -25.3053  -28.9669   19.1330 C   0  0  0  0  0  0  0  0  0  0  0  0
  -26.5006  -30.1883   20.9502 C   0  0  0  0  0  0  0  0  0  0  0  0
  -31.0251  -29.7106   15.8342 C   0  0  0  0  0  0  0  0  0  0  0  0
  -30.8079  -16.8557   21.8812 C   0  0  0  0  0  0  0  0  0  0  0  0
  -31.3391  -20.7147   17.6758 C   0  0  0  0  0  0  0  0  0  1  0  0
  -29.0862  -19.4972   17.9811 C   0  0  2  0  0  0  0  0  0  0  0  0
  -29.8256  -18.8986   23.7114 C   0  0  1  0  0  0  0  0  0  0  0  0
  -27.7934  -28.6043   19.4629 C   0  0  1  0  0  0  0  0  0  0  0  0
  -28.7983  -30.6641   16.4435 C   0  0  2  0  0  0  0  0  0  0  0  0
  -33.4063  -20.1733   23.9222 C   0  0  0  0  0  0  0  0  0  0  0  0
  -30.4413  -19.5525   17.2078 C   0  0  1  0  0  0  0  0  0  0  0  0
  -31.8807  -20.2470   24.1551 C   0  0  1  0  0  0  0  0  0  0  0  0
  -26.4353  -28.8524   20.1782 C   0  0  0  0  0  0  0  0  0  0  0  0
  -25.8079  -11.5353   20.3244 N   0  0  0  0  0  0  0  0  0  0  0  0
  -26.2038  -12.8103   20.1706 N   0  0  0  0  0  0  0  0  0  0  0  0
  -29.6314  -27.2401   20.4034 N   0  0  0  0  0  0  0  0  0  0  0  0
  -29.9468  -13.5454   20.4120 N   0  0  0  0  0  0  0  0  0  0  0  0
  -25.4645  -15.0531   20.3551 N   0  0  0  0  0  0  0  0  0  0  0  0
  -21.8308  -12.6559   21.5576 N   0  0  0  0  0  0  0  0  0  0  0  0
  -29.8432  -26.7957   23.7392 N   0  0  0  0  0  0  0  0  0  0  0  0
  -28.1804  -29.6596   18.5328 N   0  0  0  0  0  0  0  0  0  0  0  0
  -30.1316  -15.6338   21.5066 N   0  0  0  0  0  0  0  0  0  0  0  0
  -29.7684  -30.3441   15.3584 N   0  3  0  0  0  0  0  0  0  0  0  0
  -31.2687  -18.8987   24.1263 N   0  3  0  0  0  0  0  0  0  0  0  0
  -22.6391  -14.7779   21.2373 O   0  0  0  0  0  0  0  0  0  0  0  0
  -29.4579  -25.0576   22.2382 O   0  0  0  0  0  0  0  0  0  0  0  0
  -29.2118  -29.3936   21.1926 O   0  0  0  0  0  0  0  0  0  0  0  0
  -28.3329  -28.3031   16.6584 O   0  0  0  0  0  0  0  0  0  0  0  0
  -31.8733  -14.8266   20.2529 O   0  0  0  0  0  0  0  0  0  0  0  0
  -21.4807   -7.1010   21.7945 O   0  0  0  0  0  0  0  0  0  0  0  0
  -30.7312  -21.9730   17.3866 O   0  0  0  0  0  0  0  0  0  1  0  0
  -23.8193   -3.0848   24.7617 F   0  0  0  0  0  0  0  0  0  0  0  0
  -20.3913   -6.3012   24.2062 F   0  0  0  0  0  0  0  0  0  0  0  0
  1  2  1  0  0  0  0
  1  5  2  0  0  0  0
  2  6  2  0  0  0  0
  3  8  2  0  0  0  0
  3 17  1  0  0  0  0
  4  9  1  0  0  0  0
  4 17  2  0  0  0  0
  5 19  1  0  0  0  0
  6 21  1  0  0  0  0
  7 10  2  0  0  0  0
  7 20  1  0  0  0  0
  8 27  1  0  0  0  0
  9 27  2  0  0  0  0
 10 28  1  0  0  0  0
 11 12  2  0  0  0  0
 11 29  1  0  0  0  0
 12 30  1  0  0  0  0
 13 22  1  0  0  0  0
 13 28  2  0  0  0  0
 14 23  1  0  0  0  0
 14 24  2  0  0  0  0
 15 23  2  0  0  0  0
 15 25  1  0  0  0  0
 16 30  2  0  0  0  0
 16 31  1  0  0  0  0
 17 32  1  0  0  0  0
 18 32  1  0  0  0  0
 18 33  2  0  0  0  0
 18 34  1  0  0  0  0
 19 21  2  0  0  0  0
 19 39  1  0  0  0  0
 20 22  2  0  0  0  0
 20 40  1  0  0  0  0
 21 48  1  0  0  0  0
 22 41  1  0  0  0  0
 23 65  1  0  0  0  0
 24 26  1  0  0  0  0
 24 51  1  0  0  0  0
 25 26  2  0  0  0  0
 25 63  1  0  0  0  0
 26 66  1  0  0  0  0
 27 89  1  0  0  0  0
 28 90  1  0  0  0  0
 29 31  2  0  0  0  0
 29 89  1  0  0  0  0
 30 91  1  0  0  0  0
 31 92  1  0  0  0  0
 32 73  2  0  0  0  0
 33 74  1  0  0  0  0
 33 77  1  0  0  0  0
 34 78  1  0  0  0  0
 34 84  2  0  0  0  0
 35 49  1  0  0  0  0
 35 79  1  0  0  0  0
 35 85  2  0  0  0  0
 36 67  1  0  0  0  0
 36 75  1  0  0  0  0
 36 86  2  0  0  0  0
 37 68  1  0  0  0  0
 37 80  1  0  0  0  0
 37 87  2  0  0  0  0
 38 76  1  0  0  0  0
 38 81  1  0  0  0  0
 38 88  2  0  0  0  0
 39 42  1  0  0  0  0
 40 49  1  0  0  0  0
 41 75  1  0  0  0  0
 42 44  1  0  0  0  0
 43 45  1  0  0  0  0
 43 46  1  0  0  0  0
 44 48  1  0  0  0  0
 45 50  1  0  0  0  0
 46 76  1  0  0  0  0
 47 50  1  0  0  0  0
 47 76  1  0  0  0  0
 48 79  1  0  0  0  0
 49 75  1  0  0  0  0
 50 74  1  0  0  0  0
 52 65  1  0  0  0  0
 53 66  1  0  0  0  0
 54 68  1  0  0  0  0
 55 69  1  0  0  0  0
 56 69  1  0  0  0  0
 57 70  1  0  0  0  0
 58 71  1  0  0  0  0
 59 72  1  0  0  0  0
 60 72  1  0  0  0  0
 61 72  1  0  0  0  0
 62 82  1  0  0  0  0
 63 81  1  0  0  0  0
 64 70  1  0  0  0  0
 64 90  1  0  0  0  0
 65 70  1  0  0  0  0
 66 83  1  0  0  0  0
 67 72  1  0  0  0  0
 67 80  1  0  0  0  0
 68 82  1  0  0  0  0
 69 71  1  0  0  0  0
 71 83  1  0  0  0  0
 73 74  1  0  0  0  0
M  CHG  2  82   1  83   1
M  ISO  4  38 100  64 101  81 100  90 101
M  END
> <Batch ID>
0103

> <Smiles>
CNC(C)C(=O)NC(C(=O)N1Cc2cc([101O:1][101CH2:1]C(C)C(C)c3cc(C)c(C(C)NC(C)C(C)C)c(C[100NH:0][100C:0](=O)N4CCCC(n5nc(-c6ccc(Oc7ccc(F)cc7F)cc6)c(C(N)=O)c5N)C4)c3)ccc2CC1C(=O)NC1CCCc2ccccc21)C(C)(C)C

> <Shape>
0.304

> <Color>
0.186

> <Negative vol penalty>
0.000

$$$$

  -OEChem-04052319413D

 86 94  0     1  0  0  0  0  0999 V2000
  -27.6549  -25.0043   16.1147 C   0  0  0  0  0  0  0  0  0  0  0  0
  -26.5030  -25.1746   16.8761 C   0  0  0  0  0  0  0  0  0  0  0  0
  -26.7771  -13.7193   21.9169 C   0  0  0  0  0  0  0  0  0  0  0  0
  -24.6891  -14.0537   20.7484 C   0  0  0  0  0  0  0  0  0  0  0  0
  -28.8827  -25.4522   16.6003 C   0  0  0  0  0  0  0  0  0  0  0  0
  -26.5785  -25.7920   18.1241 C   0  0  0  0  0  0  0  0  0  0  0  0
  -22.9002  -29.2000   18.8314 C   0  0  0  0  0  0  0  0  0  0  0  0
  -26.2778  -12.5411   22.4720 C   0  0  0  0  0  0  0  0  0  0  0  0
  -24.1898  -12.8755   21.3035 C   0  0  0  0  0  0  0  0  0  0  0  0
  -21.6350  -28.7131   19.1568 C   0  0  0  0  0  0  0  0  0  0  0  0
  -24.4763   -9.5520   20.7620 C   0  0  0  0  0  0  0  0  0  0  0  0
  -23.7992   -8.6745   19.9152 C   0  0  0  0  0  0  0  0  0  0  0  0
  -22.0440  -29.2199   21.4795 C   0  0  0  0  0  0  0  0  0  0  0  0
  -21.7149  -23.1711   20.7666 C   0  0  0  0  0  0  0  0  0  0  0  0
  -21.8163   -8.8887   21.2787 C   0  0  0  0  0  0  0  0  0  0  0  0
  -21.7677  -25.2386   21.6569 C   0  0  0  0  0  0  0  0  0  0  0  0
  -25.9828  -14.4756   21.0551 C   0  0  0  0  0  0  0  0  0  0  0  0
  -27.1986  -15.8314   19.2687 C   0  0  0  0  0  0  0  0  0  0  0  0
  -28.9718  -26.0841   17.8507 C   0  0  0  0  0  0  0  0  0  0  0  0
  -23.7525  -29.6914   19.8307 C   0  0  0  0  0  0  0  0  0  0  0  0
  -27.8089  -26.2475   18.6275 C   0  0  0  0  0  0  0  0  0  0  0  0
  -23.3186  -29.7149   21.1638 C   0  0  0  0  0  0  0  0  0  0  0  0
  -22.5674  -24.2282   21.1703 C   0  0  0  0  0  0  0  0  0  0  0  0
  -24.9842  -12.1192   22.1653 C   0  0  0  0  0  0  0  0  0  0  0  0
  -21.2079  -28.7203   20.4814 C   0  0  0  0  0  0  0  0  0  0  0  0
  -23.8234  -10.0978   21.8673 C   0  0  0  0  0  0  0  0  0  0  0  0
  -22.4692   -8.3429   20.1734 C   0  0  0  0  0  0  0  0  0  0  0  0
  -22.4934   -9.7661   22.1255 C   0  0  0  0  0  0  0  0  0  0  0  0
  -26.4978  -15.6931   20.4818 C   0  0  0  0  0  0  0  0  0  0  0  0
  -20.4201  -23.5679   21.0186 C   0  0  0  0  0  0  0  0  0  0  0  0
  -27.4642  -17.1759   19.1771 C   0  0  0  0  0  0  0  0  0  0  0  0
  -27.5757  -14.8339   18.3104 C   0  0  0  0  0  0  0  0  0  0  0  0
  -26.6143  -28.8681   20.9424 C   0  0  0  0  0  0  0  0  0  0  0  0
  -26.2883  -31.5854   22.6838 C   0  0  0  0  0  0  0  0  0  0  0  0
  -24.2040  -33.8962   24.0847 C   0  0  0  0  0  0  0  0  0  0  0  0
  -24.8360  -21.9161   21.2338 C   0  0  0  0  0  0  0  0  0  0  0  0
  -30.3284  -26.5090   18.3543 C   0  0  0  0  0  0  0  0  0  0  0  0
  -25.1039  -30.2378   19.4597 C   0  0  0  0  0  0  0  0  0  0  0  0
  -24.1875  -30.2505   22.2713 C   0  0  0  0  0  0  0  0  0  0  0  0
  -30.2647  -27.4895   19.5227 C   0  0  0  0  0  0  0  0  0  0  0  0
  -28.1994  -21.0494   21.8728 C   0  0  0  0  0  0  0  0  0  0  0  0
  -29.2593  -27.0122   20.5659 C   0  0  0  0  0  0  0  0  0  0  0  0
  -28.2126  -19.5741   21.4749 C   0  0  0  0  0  0  0  0  0  0  0  0
  -26.9146  -21.4347   22.6083 C   0  0  0  0  0  0  0  0  0  0  0  0
  -25.6905  -19.6048   21.4789 C   0  0  0  0  0  0  0  0  0  0  0  0
  -27.8463  -26.9348   19.9753 C   0  0  1  0  0  0  0  0  0  0  0  0
  -26.0883  -30.2393   20.6252 C   0  0  1  0  0  0  0  0  0  0  0  0
  -26.9444  -19.2058   20.6856 C   0  0  2  0  0  0  0  0  0  0  0  0
  -24.2286  -35.9817   25.4801 C   0  0  0  0  0  0  0  0  0  0  0  0
  -17.0623  -20.4564   23.0910 C   0  0  0  0  0  0  0  0  0  0  0  0
  -16.2248  -22.2152   21.5208 C   0  0  0  0  0  0  0  0  0  0  0  0
  -26.8622  -29.9122   25.1700 C   0  0  0  0  0  0  0  0  0  0  0  0
  -25.9518  -31.7873   26.5568 C   0  0  0  0  0  0  0  0  0  0  0  0
  -27.9729  -32.1527   25.1411 C   0  0  0  0  0  0  0  0  0  0  0  0
  -24.8052  -23.4087   23.2774 C   0  0  0  0  0  0  0  0  0  0  0  0
  -22.9181  -35.4833   21.9431 C   0  0  0  0  0  0  0  0  0  0  0  0
  -24.0402  -24.2449   21.0861 C   0  0  0  0  0  0  0  0  0  0  0  0
  -19.1478  -22.8526   20.7890 C   0  0  0  0  0  0  0  0  0  0  0  0
  -18.7203  -22.0012   22.0058 C   0  0  0  0  0  0  0  0  0  0  0  0
  -18.5404  -26.3210   20.8266 C   0  0  0  0  0  0  0  0  0  0  0  0
  -19.2736  -25.6461   21.9879 C   0  0  0  0  0  0  0  0  0  0  0  0
  -19.4424  -27.2087   19.9771 C   0  0  0  0  0  0  0  0  0  1  0  0
  -25.7103  -31.9256   24.0362 C   0  0  1  0  0  0  0  0  0  0  0  0
  -24.2270  -35.4139   24.0693 C   0  0  2  0  0  0  0  0  0  0  0  0
  -17.3807  -21.2625   21.8292 C   0  0  0  0  0  0  0  0  0  0  0  0
  -26.6084  -31.4325   25.2056 C   0  0  0  0  0  0  0  0  0  0  0  0
  -26.3290  -16.8567   21.1154 N   0  0  0  0  0  0  0  0  0  0  0  0
  -20.4643  -24.8263   21.5595 N   0  0  0  0  0  0  0  0  0  0  0  0
  -26.9276  -17.7391   20.2973 N   0  0  0  0  0  0  0  0  0  0  0  0
  -25.5027  -30.7679   21.8589 N   0  0  0  0  0  0  0  0  0  0  0  0
  -25.7296  -21.0231   21.8433 N   0  0  0  0  0  0  0  0  0  0  0  0
  -28.1022  -17.9194   18.2484 N   0  0  0  0  0  0  0  0  0  0  0  0
  -27.2233  -13.5006   18.5600 N   0  0  0  0  0  0  0  0  0  0  0  0
  -27.2624  -28.2560   19.8866 N   0  0  0  0  0  0  0  0  0  0  0  0
  -25.4754  -33.3655   24.0292 N   0  0  0  0  0  0  0  0  0  0  0  0
  -24.6641  -23.1684   21.8426 N   0  0  0  0  0  0  0  0  0  0  0  0
  -23.0331  -35.9429   23.3511 N   0  3  0  0  0  0  0  0  0  0  0  0
  -28.2208  -15.1143   17.2717 O   0  0  0  0  0  0  0  0  0  0  0  0
  -26.4460  -28.4006   22.0626 O   0  0  0  0  0  0  0  0  0  0  0  0
  -27.3930  -32.0345   22.3679 O   0  0  0  0  0  0  0  0  0  0  0  0
  -23.1624  -33.2464   24.1440 O   0  0  0  0  0  0  0  0  0  0  0  0
  -24.2183  -21.6094   20.2059 O   0  0  0  0  0  0  0  0  0  0  0  0
  -24.4967  -10.9695   22.7066 O   0  0  0  0  0  0  0  0  0  0  0  0
  -19.9737  -28.2450   20.8019 O   0  0  0  0  0  0  0  0  0  1  0  0
  -21.8187   -7.5014   19.3592 F   0  0  0  0  0  0  0  0  0  0  0  0
  -21.8605  -10.2882   23.1851 F   0  0  0  0  0  0  0  0  0  0  0  0
  1  2  1  0  0  0  0
  1  5  2  0  0  0  0
  2  6  2  0  0  0  0
  3  8  2  0  0  0  0
  3 17  1  0  0  0  0
  4  9  1  0  0  0  0
  4 17  2  0  0  0  0
  5 19  1  0  0  0  0
  6 21  1  0  0  0  0
  7 10  2  0  0  0  0
  7 20  1  0  0  0  0
  8 24  1  0  0  0  0
  9 24  2  0  0  0  0
 10 25  1  0  0  0  0
 11 12  2  0  0  0  0
 11 26  1  0  0  0  0
 12 27  1  0  0  0  0
 13 22  1  0  0  0  0
 13 25  2  0  0  0  0
 14 23  1  0  0  0  0
 14 30  2  0  0  0  0
 15 27  2  0  0  0  0
 15 28  1  0  0  0  0
 16 23  2  0  0  0  0
 16 68  1  0  0  0  0
 17 29  1  0  0  0  0
 18 29  1  0  0  0  0
 18 31  2  0  0  0  0
 18 32  1  0  0  0  0
 19 21  2  0  0  0  0
 19 37  1  0  0  0  0
 20 22  2  0  0  0  0
 20 38  1  0  0  0  0
 21 46  1  0  0  0  0
 22 39  1  0  0  0  0
 23 57  1  0  0  0  0
 24 83  1  0  0  0  0
 25 84  1  0  0  0  0
 26 28  2  0  0  0  0
 26 83  1  0  0  0  0
 27 85  1  0  0  0  0
 28 86  1  0  0  0  0
 29 67  2  0  0  0  0
 30 58  1  0  0  0  0
 30 68  1  0  0  0  0
 31 69  1  0  0  0  0
 31 72  1  0  0  0  0
 32 73  1  0  0  0  0
 32 78  2  0  0  0  0
 33 47  1  0  0  0  0
 33 74  1  0  0  0  0
 33 79  2  0  0  0  0
 34 63  1  0  0  0  0
 34 70  1  0  0  0  0
 34 80  2  0  0  0  0
 35 64  1  0  0  0  0
 35 75  1  0  0  0  0
 35 81  2  0  0  0  0
 36 71  1  0  0  0  0
 36 76  1  0  0  0  0
 36 82  2  0  0  0  0
 37 40  1  0  0  0  0
 38 47  1  0  0  0  0
 39 70  1  0  0  0  0
 40 42  1  0  0  0  0
 41 43  1  0  0  0  0
 41 44  1  0  0  0  0
 42 46  1  0  0  0  0
 43 48  1  0  0  0  0
 44 71  1  0  0  0  0
 45 48  1  0  0  0  0
 45 71  1  0  0  0  0
 46 74  1  0  0  0  0
 47 70  1  0  0  0  0
 48 69  1  0  0  0  0
 49 64  1  0  0  0  0
 50 65  1  0  0  0  0
 51 65  1  0  0  0  0
 52 66  1  0  0  0  0
 53 66  1  0  0  0  0
 54 66  1  0  0  0  0
 55 76  1  0  0  0  0
 56 77  1  0  0  0  0
 57 76  1  0  0  0  0
 58 59  1  0  0  0  0
 59 65  1  0  0  0  0
 60 61  1  0  0  0  0
 60 62  1  0  0  0  0
 61 68  1  0  0  0  0
 62 84  1  0  0  0  0
 63 66  1  0  0  0  0
 63 75  1  0  0  0  0
 64 77  1  0  0  0  0
 67 69  1  0  0  0  0
M  CHG  1  77   1
M  ISO  4  36 100  62 101  76 100  84 101
M  END
> <Batch ID>
0103

> <Smiles>
CNC(C)C(=O)NC(C(=O)N1Cc2cc([101O:1][101CH2:1]CCn3cc(C[100N:0](C)[100C:0](=O)N4CCCC(n5nc(-c6ccc(Oc7ccc(F)cc7F)cc6)c(C(N)=O)c5N)C4)cc3CCC(C)C)ccc2CC1C(=O)NC1CCCc2ccccc21)C(C)(C)C

> <Shape>
0.277

> <Color>
0.082

> <Negative vol penalty>
0.000

$$$$

  -OEChem-04052319413D

 86 94  0     1  0  0  0  0  0999 V2000
  -37.1109  -26.1407   18.6640 C   0  0  0  0  0  0  0  0  0  0  0  0
  -36.4921  -25.1425   19.4097 C   0  0  0  0  0  0  0  0  0  0  0  0
  -23.3131   -9.8278   19.9496 C   0  0  0  0  0  0  0  0  0  0  0  0
  -23.7803  -10.0071   22.3132 C   0  0  0  0  0  0  0  0  0  0  0  0
  -36.3436  -27.1390   18.0652 C   0  0  0  0  0  0  0  0  0  0  0  0
  -35.1056  -25.1427   19.5580 C   0  0  0  0  0  0  0  0  0  0  0  0
  -33.0816  -20.5464   18.9078 C   0  0  0  0  0  0  0  0  0  0  0  0
  -22.5941   -8.6551   20.1807 C   0  0  0  0  0  0  0  0  0  0  0  0
  -23.0613   -8.8344   22.5443 C   0  0  0  0  0  0  0  0  0  0  0  0
  -33.1878  -19.6481   19.9687 C   0  0  0  0  0  0  0  0  0  0  0  0
  -19.8206   -7.9109   22.7995 C   0  0  0  0  0  0  0  0  0  0  0  0
  -18.9261   -7.9012   23.8697 C   0  0  0  0  0  0  0  0  0  0  0  0
  -30.9181  -20.1504   20.6132 C   0  0  0  0  0  0  0  0  0  0  0  0
  -20.1482   -6.0754   24.8746 C   0  0  0  0  0  0  0  0  0  0  0  0
  -32.7989  -15.5599   23.6361 C   0  0  0  0  0  0  0  0  0  0  0  0
  -23.9062  -10.5038   21.0158 C   0  0  0  0  0  0  0  0  0  0  0  0
  -24.1515  -13.0317   20.7764 C   0  0  0  0  0  0  0  0  0  0  0  0
  -34.9461  -27.1460   18.1982 C   0  0  0  0  0  0  0  0  0  0  0  0
  -31.8946  -21.2628   18.6978 C   0  0  0  0  0  0  0  0  0  0  0  0
  -34.3190  -26.1428   18.9615 C   0  0  0  0  0  0  0  0  0  0  0  0
  -30.7986  -21.0553   19.5473 C   0  0  0  0  0  0  0  0  0  0  0  0
  -31.7806  -14.7069   24.0005 C   0  0  0  0  0  0  0  0  0  0  0  0
  -30.8284  -15.4685   24.7218 C   0  0  0  0  0  0  0  0  0  0  0  0
  -22.4682   -8.1584   21.4780 C   0  0  0  0  0  0  0  0  0  0  0  0
  -32.1069  -19.4521   20.8233 C   0  0  0  0  0  0  0  0  0  0  0  0
  -20.8789   -7.0028   22.7667 C   0  0  0  0  0  0  0  0  0  0  0  0
  -19.0899   -6.9835   24.9073 C   0  0  0  0  0  0  0  0  0  0  0  0
  -21.0427   -6.0850   23.8043 C   0  0  0  0  0  0  0  0  0  0  0  0
  -24.6495  -11.7150   20.7777 C   0  0  0  0  0  0  0  0  0  0  0  0
  -31.2937  -16.7639   24.7762 C   0  0  0  0  0  0  0  0  0  0  0  0
  -25.2471  -13.8129   20.5014 C   0  0  0  0  0  0  0  0  0  0  0  0
  -22.8177  -13.5062   21.0036 C   0  0  0  0  0  0  0  0  0  0  0  0
  -31.1042  -24.3416   18.6898 C   0  0  0  0  0  0  0  0  0  0  0  0
  -28.2373  -23.2021   17.6874 C   0  0  0  0  0  0  0  0  0  0  0  0
  -26.0458  -20.5897   17.5493 C   0  0  0  0  0  0  0  0  0  0  0  0
  -31.1281  -13.0115   21.2907 C   0  0  0  0  0  0  0  0  0  0  0  0
  -34.1629  -28.2725   17.5720 C   0  0  0  0  0  0  0  0  0  0  0  0
  -31.7872  -22.2082   17.5329 C   0  0  0  0  0  0  0  0  0  0  0  0
  -29.4952  -21.7846   19.3528 C   0  0  0  0  0  0  0  0  0  0  0  0
  -32.6668  -27.9887   17.4656 C   0  0  0  0  0  0  0  0  0  0  0  0
  -29.4532  -13.6954   18.2241 C   0  0  0  0  0  0  0  0  0  0  0  0
  -32.1355  -27.4255   18.7799 C   0  0  0  0  0  0  0  0  0  0  0  0
  -27.9873  -13.3842   18.5307 C   0  0  0  0  0  0  0  0  0  0  0  0
  -30.3965  -12.7316   18.9406 C   0  0  0  0  0  0  0  0  0  0  0  0
  -28.7248  -12.3209   20.7043 C   0  0  0  0  0  0  0  0  0  0  0  0
  -32.8152  -26.0949   19.1247 C   0  0  1  0  0  0  0  0  0  0  0  0
  -30.7039  -23.2661   17.7198 C   0  0  1  0  0  0  0  0  0  0  0  0
  -27.7372  -13.3012   20.0486 C   0  0  2  0  0  0  0  0  0  0  0  0
  -30.7011  -17.9648   25.4021 C   0  0  0  0  0  0  0  0  0  0  0  0
  -34.7017  -17.6180   26.0651 C   0  0  0  0  0  0  0  0  0  0  0  0
  -23.7684  -19.9719   16.6954 C   0  0  0  0  0  0  0  0  0  0  0  0
  -30.1683  -15.5541   27.7186 C   0  0  0  0  0  0  0  0  0  0  0  0
  -28.3454  -13.9010   27.2628 C   0  0  0  0  0  0  0  0  0  0  0  0
  -26.9585  -24.7584   19.9793 C   0  0  0  0  0  0  0  0  0  0  0  0
  -24.8915  -23.3801   19.6694 C   0  0  0  0  0  0  0  0  0  0  0  0
  -25.6957  -24.8515   17.8226 C   0  0  0  0  0  0  0  0  0  0  0  0
  -27.1491  -18.4754   15.7967 C   0  0  0  0  0  0  0  0  0  0  0  0
  -29.5681  -14.9683   25.3087 C   0  0  0  0  0  0  0  0  0  0  0  0
  -31.7064  -13.2651   23.6908 C   0  0  0  0  0  0  0  0  0  0  0  0
  -34.7579  -17.8867   24.5659 C   0  0  0  0  0  0  0  0  0  0  0  0
  -33.5021  -18.3955   22.4336 C   0  0  0  0  0  0  0  0  0  1  0  0
  -26.9729  -22.7394   18.3701 C   0  0  1  0  0  0  0  0  0  0  0  0
  -25.2591  -19.9947   16.3954 C   0  0  2  0  0  0  0  0  0  0  0  0
  -29.6854  -14.4534   26.7706 C   0  0  0  0  0  0  0  0  0  0  0  0
  -33.3633  -18.0419   23.9240 C   0  0  1  0  0  0  0  0  0  0  0  0
  -26.1547  -23.9199   18.9655 C   0  0  0  0  0  0  0  0  0  0  0  0
  -25.9596  -11.6590   20.5234 N   0  0  0  0  0  0  0  0  0  0  0  0
  -32.4921  -16.8077   24.1127 N   0  0  0  0  0  0  0  0  0  0  0  0
  -26.2940  -12.9503   20.3598 N   0  0  0  0  0  0  0  0  0  0  0  0
  -29.4416  -22.7032   18.2035 N   0  0  0  0  0  0  0  0  0  0  0  0
  -30.1079  -12.7009   20.3765 N   0  0  0  0  0  0  0  0  0  0  0  0
  -25.4076  -15.1468   20.3692 N   0  0  0  0  0  0  0  0  0  0  0  0
  -21.8117  -12.5682   21.2729 N   0  0  0  0  0  0  0  0  0  0  0  0
  -32.2539  -25.0207   18.3339 N   0  0  0  0  0  0  0  0  0  0  0  0
  -26.2455  -21.9442   17.3867 N   0  0  0  0  0  0  0  0  0  0  0  0
  -30.7685  -12.9648   22.6320 N   0  0  0  0  0  0  0  0  0  0  0  0
  -25.7063  -18.5983   16.1290 N   0  3  0  0  0  0  0  0  0  0  0  0
  -22.5235  -14.7245   20.9526 O   0  0  0  0  0  0  0  0  0  0  0  0
  -30.4198  -24.5415   19.6864 O   0  0  0  0  0  0  0  0  0  0  0  0
  -28.1589  -23.9722   16.7269 O   0  0  0  0  0  0  0  0  0  0  0  0
  -26.4402  -19.9204   18.5017 O   0  0  0  0  0  0  0  0  0  0  0  0
  -32.2731  -13.3136   20.9375 O   0  0  0  0  0  0  0  0  0  0  0  0
  -21.7665   -7.0142   21.7039 O   0  0  0  0  0  0  0  0  0  0  0  0
  -32.2080  -18.5764   21.8600 O   0  0  0  0  0  0  0  0  0  1  0  0
  -18.2318   -6.9753   25.9357 F   0  0  0  0  0  0  0  0  0  0  0  0
  -22.0582   -5.2110   23.7790 F   0  0  0  0  0  0  0  0  0  0  0  0
  1  2  1  0  0  0  0
  1  5  2  0  0  0  0
  2  6  2  0  0  0  0
  3  8  2  0  0  0  0
  3 16  1  0  0  0  0
  4  9  1  0  0  0  0
  4 16  2  0  0  0  0
  5 18  1  0  0  0  0
  6 20  1  0  0  0  0
  7 10  2  0  0  0  0
  7 19  1  0  0  0  0
  8 24  1  0  0  0  0
  9 24  2  0  0  0  0
 10 25  1  0  0  0  0
 11 12  2  0  0  0  0
 11 26  1  0  0  0  0
 12 27  1  0  0  0  0
 13 21  1  0  0  0  0
 13 25  2  0  0  0  0
 14 27  2  0  0  0  0
 14 28  1  0  0  0  0
 15 22  2  0  0  0  0
 15 68  1  0  0  0  0
 16 29  1  0  0  0  0
 17 29  1  0  0  0  0
 17 31  2  0  0  0  0
 17 32  1  0  0  0  0
 18 20  2  0  0  0  0
 18 37  1  0  0  0  0
 19 21  2  0  0  0  0
 19 38  1  0  0  0  0
 20 46  1  0  0  0  0
 21 39  1  0  0  0  0
 22 23  1  0  0  0  0
 22 59  1  0  0  0  0
 23 30  2  0  0  0  0
 23 58  1  0  0  0  0
 24 83  1  0  0  0  0
 25 84  1  0  0  0  0
 26 28  2  0  0  0  0
 26 83  1  0  0  0  0
 27 85  1  0  0  0  0
 28 86  1  0  0  0  0
 29 67  2  0  0  0  0
 30 49  1  0  0  0  0
 30 68  1  0  0  0  0
 31 69  1  0  0  0  0
 31 72  1  0  0  0  0
 32 73  1  0  0  0  0
 32 78  2  0  0  0  0
 33 47  1  0  0  0  0
 33 74  1  0  0  0  0
 33 79  2  0  0  0  0
 34 62  1  0  0  0  0
 34 70  1  0  0  0  0
 34 80  2  0  0  0  0
 35 63  1  0  0  0  0
 35 75  1  0  0  0  0
 35 81  2  0  0  0  0
 36 71  1  0  0  0  0
 36 76  1  0  0  0  0
 36 82  2  0  0  0  0
 37 40  1  0  0  0  0
 38 47  1  0  0  0  0
 39 70  1  0  0  0  0
 40 42  1  0  0  0  0
 41 43  1  0  0  0  0
 41 44  1  0  0  0  0
 42 46  1  0  0  0  0
 43 48  1  0  0  0  0
 44 71  1  0  0  0  0
 45 48  1  0  0  0  0
 45 71  1  0  0  0  0
 46 74  1  0  0  0  0
 47 70  1  0  0  0  0
 48 69  1  0  0  0  0
 50 60  1  0  0  0  0
 51 63  1  0  0  0  0
 52 64  1  0  0  0  0
 53 64  1  0  0  0  0
 54 66  1  0  0  0  0
 55 66  1  0  0  0  0
 56 66  1  0  0  0  0
 57 77  1  0  0  0  0
 58 64  1  0  0  0  0
 59 76  1  0  0  0  0
 60 65  1  0  0  0  0
 61 65  1  0  0  0  0
 61 84  1  0  0  0  0
 62 66  1  0  0  0  0
 62 75  1  0  0  0  0
 63 77  1  0  0  0  0
 65 68  1  0  0  0  0
 67 69  1  0  0  0  0
M  CHG  1  77   1
M  ISO  4  36 100  61 101  76 100  84 101
M  END
> <Batch ID>
0103

> <Smiles>
CCC(n1cc(C[100NH:0][100C:0](=O)N2CCCC(n3nc(-c4ccc(Oc5ccc(F)cc5F)cc4)c(C(N)=O)c3N)C2)c(CC(C)C)c1C)[101CH2:1][101O:1]c1ccc2c(c1)CN(C(=O)C(NC(=O)C(C)NC)C(C)(C)C)C(C(=O)NC1CCCc3ccccc31)C2

> <Shape>
0.189

> <Color>
0.185

> <Negative vol penalty>
0.000

$$$$

  -OEChem-04052319413D

 84 92  0     1  0  0  0  0  0999 V2000
  -24.8969  -37.7611   20.1706 C   0  0  0  0  0  0  0  0  0  0  0  0
  -25.6896  -36.6639   19.8493 C   0  0  0  0  0  0  0  0  0  0  0  0
  -26.3170  -12.3146   20.7508 C   0  0  0  0  0  0  0  0  0  0  0  0
  -24.5498  -13.9250   20.4033 C   0  0  0  0  0  0  0  0  0  0  0  0
  -24.0949  -37.7302   21.3107 C   0  0  0  0  0  0  0  0  0  0  0  0
  -25.6816  -35.5356   20.6686 C   0  0  0  0  0  0  0  0  0  0  0  0
  -26.2457  -29.6990   18.9018 C   0  0  0  0  0  0  0  0  0  0  0  0
  -25.3906  -11.4099   21.2692 C   0  0  0  0  0  0  0  0  0  0  0  0
  -23.6234  -13.0202   20.9217 C   0  0  0  0  0  0  0  0  0  0  0  0
  -27.3329  -28.8264   18.8801 C   0  0  0  0  0  0  0  0  0  0  0  0
  -23.4349   -8.5423   22.3497 C   0  0  0  0  0  0  0  0  0  0  0  0
  -23.5090   -7.2185   21.9166 C   0  0  0  0  0  0  0  0  0  0  0  0
  -26.6447  -27.9253   21.0093 C   0  0  0  0  0  0  0  0  0  0  0  0
  -23.1377   -7.9420   19.6415 C   0  0  0  0  0  0  0  0  0  0  0  0
  -28.7458  -23.7379   20.5493 C   0  0  0  0  0  0  0  0  0  0  0  0
  -27.7958  -23.6246   18.5246 C   0  0  0  0  0  0  0  0  0  0  0  0
  -25.8966  -13.5723   20.3179 C   0  0  0  0  0  0  0  0  0  0  0  0
  -27.2448  -14.6473   18.4379 C   0  0  0  0  0  0  0  0  0  0  0  0
  -24.0698  -36.5972   22.1391 C   0  0  0  0  0  0  0  0  0  0  0  0
  -25.3545  -29.6988   19.9845 C   0  0  0  0  0  0  0  0  0  0  0  0
  -24.8796  -35.4901   21.8216 C   0  0  0  0  0  0  0  0  0  0  0  0
  -25.5455  -28.7971   21.0412 C   0  0  0  0  0  0  0  0  0  0  0  0
  -27.7428  -22.7963   20.6176 C   0  0  0  0  0  0  0  0  0  0  0  0
  -27.1417  -22.7247   19.3368 C   0  0  0  0  0  0  0  0  0  0  0  0
  -24.0438  -11.7626   21.3546 C   0  0  0  0  0  0  0  0  0  0  0  0
  -27.5342  -27.9414   19.9352 C   0  0  0  0  0  0  0  0  0  0  0  0
  -23.2121   -9.5660   21.4287 C   0  0  0  0  0  0  0  0  0  0  0  0
  -23.3604   -6.9184   20.5625 C   0  0  0  0  0  0  0  0  0  0  0  0
  -23.0635   -9.2659   20.0747 C   0  0  0  0  0  0  0  0  0  0  0  0
  -26.8532  -14.5075   19.7828 C   0  0  0  0  0  0  0  0  0  0  0  0
  -28.1676  -15.6644   18.4528 C   0  0  0  0  0  0  0  0  0  0  0  0
  -26.8128  -13.9225   17.2786 C   0  0  0  0  0  0  0  0  0  0  0  0
  -24.4826  -31.8333   22.1725 C   0  0  0  0  0  0  0  0  0  0  0  0
  -22.3413  -29.5390   22.9933 C   0  0  0  0  0  0  0  0  0  0  0  0
  -21.4975  -26.2323   22.9990 C   0  0  0  0  0  0  0  0  0  0  0  0
  -29.1026  -20.2674   22.1662 C   0  0  0  0  0  0  0  0  0  0  0  0
  -23.2227  -36.6287   23.3866 C   0  0  0  0  0  0  0  0  0  0  0  0
  -24.1715  -30.6277   19.9803 C   0  0  0  0  0  0  0  0  0  0  0  0
  -24.6061  -28.7431   22.2172 C   0  0  0  0  0  0  0  0  0  0  0  0
  -22.9875  -35.2500   23.9981 C   0  0  0  0  0  0  0  0  0  0  0  0
  -31.4291  -17.7199   21.2862 C   0  0  0  0  0  0  0  0  0  0  0  0
  -24.2953  -34.4682   24.0710 C   0  0  0  0  0  0  0  0  0  0  0  0
  -30.5555  -16.6204   20.6798 C   0  0  0  0  0  0  0  0  0  0  0  0
  -30.7289  -18.4203   22.4487 C   0  0  0  0  0  0  0  0  0  0  0  0
  -28.5145  -17.8497   21.5294 C   0  0  0  0  0  0  0  0  0  0  0  0
  -24.8794  -34.2383   22.6719 C   0  0  1  0  0  0  0  0  0  0  0  0
  -23.6182  -30.8970   21.3762 C   0  0  1  0  0  0  0  0  0  0  0  0
  -29.1558  -17.1521   20.3176 C   0  0  2  0  0  0  0  0  0  0  0  0
  -24.1696  -23.5073   19.5891 C   0  0  0  0  0  0  0  0  0  0  0  0
  -27.4927  -19.8672   18.2318 C   0  0  0  0  0  0  0  0  0  0  0  0
  -20.0825  -24.1909   23.3566 C   0  0  0  0  0  0  0  0  0  0  0  0
  -23.3957  -29.7526   25.8485 C   0  0  0  0  0  0  0  0  0  0  0  0
  -22.2849  -27.5652   26.3482 C   0  0  0  0  0  0  0  0  0  0  0  0
  -20.9110  -29.5330   25.6677 C   0  0  0  0  0  0  0  0  0  0  0  0
  -20.2508  -26.4863   20.3269 C   0  0  0  0  0  0  0  0  0  0  0  0
  -27.3724  -22.0110   21.8118 C   0  0  0  0  0  0  0  0  0  0  0  0
  -24.7464  -22.6357   18.4796 C   0  0  0  0  0  0  0  0  0  0  0  0
  -26.3924  -20.8327   17.8073 C   0  0  0  0  0  0  0  0  0  0  0  0
  -29.7220  -25.2900   18.7660 C   0  0  0  0  0  0  0  0  0  0  0  0
  -29.0586  -26.6570   18.6383 C   0  0  0  0  0  0  0  0  0  1  0  0
  -26.0212  -21.8518   18.9346 C   0  0  0  0  0  0  0  0  0  0  0  0
  -22.3433  -28.3651   23.9424 C   0  0  1  0  0  0  0  0  0  0  0  0
  -20.2081  -25.5211   22.6302 C   0  0  2  0  0  0  0  0  0  0  0  0
  -22.2527  -28.8061   25.4306 C   0  0  0  0  0  0  0  0  0  0  0  0
  -27.4765  -15.3671   20.5933 N   0  0  0  0  0  0  0  0  0  0  0  0
  -28.7691  -24.2346   19.2722 N   0  0  0  0  0  0  0  0  0  0  0  0
  -28.2690  -16.0566   19.7551 N   0  0  0  0  0  0  0  0  0  0  0  0
  -23.4679  -29.6756   22.1699 N   0  0  0  0  0  0  0  0  0  0  0  0
  -29.4077  -18.9022   22.0387 N   0  0  0  0  0  0  0  0  0  0  0  0
  -28.8941  -16.2526   17.4788 N   0  0  0  0  0  0  0  0  0  0  0  0
  -25.8584  -12.9091   17.4415 N   0  0  0  0  0  0  0  0  0  0  0  0
  -24.1736  -33.1689   21.9991 N   0  0  0  0  0  0  0  0  0  0  0  0
  -21.2586  -27.4899   23.5114 N   0  0  0  0  0  0  0  0  0  0  0  0
  -27.8311  -20.6412   21.7487 N   0  0  0  0  0  0  0  0  0  0  0  0
  -20.1607  -25.2619   21.1634 N   0  3  0  0  0  0  0  0  0  0  0  0
  -27.2721  -14.1552   16.1348 O   0  0  0  0  0  0  0  0  0  0  0  0
  -25.3635  -31.3776   22.8921 O   0  0  0  0  0  0  0  0  0  0  0  0
  -21.3725  -30.3025   22.9778 O   0  0  0  0  0  0  0  0  0  0  0  0
  -22.6056  -25.7217   22.8511 O   0  0  0  0  0  0  0  0  0  0  0  0
  -29.9058  -21.0929   22.6137 O   0  0  0  0  0  0  0  0  0  0  0  0
  -23.1395  -10.8799   21.8602 O   0  0  0  0  0  0  0  0  0  0  0  0
  -28.5949  -27.0892   19.9168 O   0  0  0  0  0  0  0  0  0  1  0  0
  -23.4332   -5.6472   20.1466 F   0  0  0  0  0  0  0  0  0  0  0  0
  -22.8505  -10.2452   19.1851 F   0  0  0  0  0  0  0  0  0  0  0  0
  1  2  1  0  0  0  0
  1  5  2  0  0  0  0
  2  6  2  0  0  0  0
  3  8  2  0  0  0  0
  3 17  1  0  0  0  0
  4  9  1  0  0  0  0
  4 17  2  0  0  0  0
  5 19  1  0  0  0  0
  6 21  1  0  0  0  0
  7 10  2  0  0  0  0
  7 20  1  0  0  0  0
  8 25  1  0  0  0  0
  9 25  2  0  0  0  0
 10 26  1  0  0  0  0
 11 12  2  0  0  0  0
 11 27  1  0  0  0  0
 12 28  1  0  0  0  0
 13 22  1  0  0  0  0
 13 26  2  0  0  0  0
 14 28  2  0  0  0  0
 14 29  1  0  0  0  0
 15 23  2  0  0  0  0
 15 66  1  0  0  0  0
 16 24  2  0  0  0  0
 16 66  1  0  0  0  0
 17 30  1  0  0  0  0
 18 30  1  0  0  0  0
 18 31  2  0  0  0  0
 18 32  1  0  0  0  0
 19 21  2  0  0  0  0
 19 37  1  0  0  0  0
 20 22  2  0  0  0  0
 20 38  1  0  0  0  0
 21 46  1  0  0  0  0
 22 39  1  0  0  0  0
 23 24  1  0  0  0  0
 23 56  1  0  0  0  0
 24 61  1  0  0  0  0
 25 81  1  0  0  0  0
 26 82  1  0  0  0  0
 27 29  2  0  0  0  0
 27 81  1  0  0  0  0
 28 83  1  0  0  0  0
 29 84  1  0  0  0  0
 30 65  2  0  0  0  0
 31 67  1  0  0  0  0
 31 70  1  0  0  0  0
 32 71  1  0  0  0  0
 32 76  2  0  0  0  0
 33 47  1  0  0  0  0
 33 72  1  0  0  0  0
 33 77  2  0  0  0  0
 34 62  1  0  0  0  0
 34 68  1  0  0  0  0
 34 78  2  0  0  0  0
 35 63  1  0  0  0  0
 35 73  1  0  0  0  0
 35 79  2  0  0  0  0
 36 69  1  0  0  0  0
 36 74  1  0  0  0  0
 36 80  2  0  0  0  0
 37 40  1  0  0  0  0
 38 47  1  0  0  0  0
 39 68  1  0  0  0  0
 40 42  1  0  0  0  0
 41 43  1  0  0  0  0
 41 44  1  0  0  0  0
 42 46  1  0  0  0  0
 43 48  1  0  0  0  0
 44 69  1  0  0  0  0
 45 48  1  0  0  0  0
 45 69  1  0  0  0  0
 46 72  1  0  0  0  0
 47 68  1  0  0  0  0
 48 67  1  0  0  0  0
 49 57  1  0  0  0  0
 50 58  1  0  0  0  0
 51 63  1  0  0  0  0
 52 64  1  0  0  0  0
 53 64  1  0  0  0  0
 54 64  1  0  0  0  0
 55 75  1  0  0  0  0
 56 74  1  0  0  0  0
 57 61  1  0  0  0  0
 58 61  1  0  0  0  0
 59 60  1  0  0  0  0
 59 66  1  0  0  0  0
 60 82  1  0  0  0  0
 62 64  1  0  0  0  0
 62 73  1  0  0  0  0
 63 75  1  0  0  0  0
 65 67  1  0  0  0  0
M  CHG  1  75   1
M  ISO  4  36 100  60 101  74 100  82 101
M  END
> <Batch ID>
0103

> <Smiles>
CCC(CC)c1cn(C[101CH2:1][101O:1]c2ccc3c(c2)CN(C(=O)C(NC(=O)C(C)NC)C(C)(C)C)C(C(=O)NC2CCCc4ccccc42)C3)cc1C[100NH:0][100C:0](=O)N1CCCC(n2nc(-c3ccc(Oc4ccc(F)cc4F)cc3)c(C(N)=O)c2N)C1

> <Shape>
0.285

> <Color>
0.067

> <Negative vol penalty>
0.000

$$$$

  -OEChem-04052319413D

 83 91  0     1  0  0  0  0  0999 V2000
  -21.9987  -26.0975   18.4420 C   0  0  0  0  0  0  0  0  0  0  0  0
  -22.6856  -24.8937   18.3224 C   0  0  0  0  0  0  0  0  0  0  0  0
  -26.2061  -27.8812   18.7617 C   0  0  0  0  0  0  0  0  0  0  0  0
  -26.2371  -27.6122   21.1625 C   0  0  0  0  0  0  0  0  0  0  0  0
  -21.3750  -26.4265   19.6448 C   0  0  0  0  0  0  0  0  0  0  0  0
  -22.7500  -24.0184   19.4060 C   0  0  0  0  0  0  0  0  0  0  0  0
  -22.7868  -17.8979   19.1978 C   0  0  0  0  0  0  0  0  0  0  0  0
  -25.1107  -28.7376   18.8718 C   0  0  0  0  0  0  0  0  0  0  0  0
  -25.1417  -28.4686   21.2726 C   0  0  0  0  0  0  0  0  0  0  0  0
  -23.8191  -16.9632   19.2655 C   0  0  0  0  0  0  0  0  0  0  0  0
  -24.5687  -31.7984   21.2046 C   0  0  0  0  0  0  0  0  0  0  0  0
  -24.6134  -32.7816   22.1930 C   0  0  0  0  0  0  0  0  0  0  0  0
  -23.4168  -16.6991   21.6293 C   0  0  0  0  0  0  0  0  0  0  0  0
  -22.6255  -31.8541   23.2056 C   0  0  0  0  0  0  0  0  0  0  0  0
  -32.5828  -15.7810   19.7950 C   0  0  0  0  0  0  0  0  0  0  0  0
  -30.9311  -14.4400   20.6619 C   0  0  0  0  0  0  0  0  0  0  0  0
  -26.7693  -27.3184   19.9071 C   0  0  0  0  0  0  0  0  0  0  0  0
  -29.2628  -26.7875   19.8162 C   0  0  0  0  0  0  0  0  0  0  0  0
  -21.4236  -25.5505   20.7406 C   0  0  0  0  0  0  0  0  0  0  0  0
  -22.0677  -18.2488   20.3494 C   0  0  0  0  0  0  0  0  0  0  0  0
  -22.1275  -24.3365   20.6251 C   0  0  0  0  0  0  0  0  0  0  0  0
  -22.3741  -17.6366   21.5730 C   0  0  0  0  0  0  0  0  0  0  0  0
  -32.0899  -16.9007   20.4454 C   0  0  0  0  0  0  0  0  0  0  0  0
  -30.3609  -15.4968   21.3531 C   0  0  0  0  0  0  0  0  0  0  0  0
  -30.9574  -16.7474   21.2374 C   0  0  0  0  0  0  0  0  0  0  0  0
  -24.5785  -29.0314   20.1272 C   0  0  0  0  0  0  0  0  0  0  0  0
  -24.1361  -16.3658   20.4819 C   0  0  0  0  0  0  0  0  0  0  0  0
  -23.5523  -30.8431   21.2166 C   0  0  0  0  0  0  0  0  0  0  0  0
  -23.6419  -32.8094   23.1935 C   0  0  0  0  0  0  0  0  0  0  0  0
  -22.5808  -30.8710   22.2171 C   0  0  0  0  0  0  0  0  0  0  0  0
  -27.9006  -26.4332   19.7939 C   0  0  0  0  0  0  0  0  0  0  0  0
  -29.9301  -25.5954   19.6749 C   0  0  0  0  0  0  0  0  0  0  0  0
  -29.8708  -28.0789   19.9526 C   0  0  0  0  0  0  0  0  0  0  0  0
  -21.6265  -20.9380   21.9857 C   0  0  0  0  0  0  0  0  0  0  0  0
  -19.5324  -19.1148   23.6630 C   0  0  0  0  0  0  0  0  0  0  0  0
  -18.5540  -16.0010   24.6600 C   0  0  0  0  0  0  0  0  0  0  0  0
  -29.5285  -20.1685   21.3482 C   0  0  0  0  0  0  0  0  0  0  0  0
  -20.7742  -25.9707   22.0353 C   0  0  0  0  0  0  0  0  0  0  0  0
  -20.9394  -19.2390   20.2544 C   0  0  0  0  0  0  0  0  0  0  0  0
  -21.6190  -17.9637   22.8345 C   0  0  0  0  0  0  0  0  0  0  0  0
  -20.5722  -24.8195   23.0172 C   0  0  0  0  0  0  0  0  0  0  0  0
  -28.7387  -21.1180   17.9464 C   0  0  0  0  0  0  0  0  0  0  0  0
  -21.8405  -23.9785   23.1221 C   0  0  0  0  0  0  0  0  0  0  0  0
  -28.5747  -22.6328   18.0837 C   0  0  0  0  0  0  0  0  0  0  0  0
  -28.1887  -20.3894   19.1690 C   0  0  0  0  0  0  0  0  0  0  0  0
  -28.6104  -22.3473   20.6050 C   0  0  0  0  0  0  0  0  0  0  0  0
  -22.1989  -23.3497   21.7702 C   0  0  1  0  0  0  0  0  0  0  0  0
  -20.6128  -19.9023   21.5888 C   0  0  1  0  0  0  0  0  0  0  0  0
  -29.1678  -23.1426   19.4105 C   0  0  2  0  0  0  0  0  0  0  0  0
  -32.7698  -18.2160   20.2846 C   0  0  0  0  0  0  0  0  0  0  0  0
  -16.8294  -14.8316   26.0585 C   0  0  0  0  0  0  0  0  0  0  0  0
  -21.0089  -19.9682   26.1931 C   0  0  0  0  0  0  0  0  0  0  0  0
  -19.8897  -18.0811   27.3991 C   0  0  0  0  0  0  0  0  0  0  0  0
  -18.5178  -19.9133   26.4073 C   0  0  0  0  0  0  0  0  0  0  0  0
  -17.5075  -14.5082   22.3286 C   0  0  0  0  0  0  0  0  0  0  0  0
  -29.1332  -15.2717   22.1993 C   0  0  0  0  0  0  0  0  0  0  0  0
  -30.3840  -17.9220   21.9632 C   0  0  0  0  0  0  0  0  0  0  0  0
  -27.8368  -15.7766   21.5561 C   0  0  0  0  0  0  0  0  0  0  0  0
  -27.4908  -15.0493   20.2560 C   0  0  0  0  0  0  0  0  0  0  0  0
  -26.2202  -15.6039   19.6263 C   0  0  0  0  0  0  0  0  0  1  0  0
  -19.6241  -18.2282   24.8814 C   0  0  1  0  0  0  0  0  0  0  0  0
  -17.1940  -15.3267   24.6675 C   0  0  2  0  0  0  0  0  0  0  0  0
  -19.7758  -19.0428   26.1970 C   0  0  0  0  0  0  0  0  0  0  0  0
  -32.0306  -14.5501   19.8831 N   0  0  0  0  0  0  0  0  0  0  0  0
  -27.7120  -25.1188   19.6496 N   0  0  0  0  0  0  0  0  0  0  0  0
  -28.9645  -24.6368   19.5798 N   0  0  0  0  0  0  0  0  0  0  0  0
  -20.5286  -18.9426   22.6915 N   0  0  0  0  0  0  0  0  0  0  0  0
  -28.8073  -20.9089   20.3968 N   0  0  0  0  0  0  0  0  0  0  0  0
  -31.2426  -25.2840   19.6237 N   0  0  0  0  0  0  0  0  0  0  0  0
  -29.0384  -29.1983   20.0881 N   0  0  0  0  0  0  0  0  0  0  0  0
  -21.3542  -22.2047   21.5055 N   0  0  0  0  0  0  0  0  0  0  0  0
  -18.4498  -17.3632   24.8462 N   0  0  0  0  0  0  0  0  0  0  0  0
  -29.6636  -18.8119   21.0799 N   0  0  0  0  0  0  0  0  0  0  0  0
  -17.1880  -14.1622   23.7376 N   0  3  0  0  0  0  0  0  0  0  0  0
  -31.1150  -28.2373   19.9379 O   0  0  0  0  0  0  0  0  0  0  0  0
  -22.5839  -20.6122   22.6777 O   0  0  0  0  0  0  0  0  0  0  0  0
  -18.6067  -19.9251   23.5730 O   0  0  0  0  0  0  0  0  0  0  0  0
  -19.6041  -15.3807   24.5081 O   0  0  0  0  0  0  0  0  0  0  0  0
  -30.0206  -20.6798   22.3599 O   0  0  0  0  0  0  0  0  0  0  0  0
  -23.5097  -29.8672   20.2351 O   0  0  0  0  0  0  0  0  0  0  0  0
  -25.1437  -15.4537   20.5509 O   0  0  0  0  0  0  0  0  0  1  0  0
  -23.6859  -33.7527   24.1435 F   0  0  0  0  0  0  0  0  0  0  0  0
  -21.6026  -29.9552   22.2345 F   0  0  0  0  0  0  0  0  0  0  0  0
  1  2  1  0  0  0  0
  1  5  2  0  0  0  0
  2  6  2  0  0  0  0
  3  8  2  0  0  0  0
  3 17  1  0  0  0  0
  4  9  1  0  0  0  0
  4 17  2  0  0  0  0
  5 19  1  0  0  0  0
  6 21  1  0  0  0  0
  7 10  2  0  0  0  0
  7 20  1  0  0  0  0
  8 26  1  0  0  0  0
  9 26  2  0  0  0  0
 10 27  1  0  0  0  0
 11 12  2  0  0  0  0
 11 28  1  0  0  0  0
 12 29  1  0  0  0  0
 13 22  1  0  0  0  0
 13 27  2  0  0  0  0
 14 29  2  0  0  0  0
 14 30  1  0  0  0  0
 15 23  2  0  0  0  0
 15 64  1  0  0  0  0
 16 24  1  0  0  0  0
 16 64  2  0  0  0  0
 17 31  1  0  0  0  0
 18 31  1  0  0  0  0
 18 32  2  0  0  0  0
 18 33  1  0  0  0  0
 19 21  2  0  0  0  0
 19 38  1  0  0  0  0
 20 22  2  0  0  0  0
 20 39  1  0  0  0  0
 21 47  1  0  0  0  0
 22 40  1  0  0  0  0
 23 25  1  0  0  0  0
 23 50  1  0  0  0  0
 24 25  2  0  0  0  0
 24 56  1  0  0  0  0
 25 57  1  0  0  0  0
 26 80  1  0  0  0  0
 27 81  1  0  0  0  0
 28 30  2  0  0  0  0
 28 80  1  0  0  0  0
 29 82  1  0  0  0  0
 30 83  1  0  0  0  0
 31 65  2  0  0  0  0
 32 66  1  0  0  0  0
 32 69  1  0  0  0  0
 33 70  1  0  0  0  0
 33 75  2  0  0  0  0
 34 48  1  0  0  0  0
 34 71  1  0  0  0  0
 34 76  2  0  0  0  0
 35 61  1  0  0  0  0
 35 67  1  0  0  0  0
 35 77  2  0  0  0  0
 36 62  1  0  0  0  0
 36 72  1  0  0  0  0
 36 78  2  0  0  0  0
 37 68  1  0  0  0  0
 37 73  1  0  0  0  0
 37 79  2  0  0  0  0
 38 41  1  0  0  0  0
 39 48  1  0  0  0  0
 40 67  1  0  0  0  0
 41 43  1  0  0  0  0
 42 44  1  0  0  0  0
 42 45  1  0  0  0  0
 43 47  1  0  0  0  0
 44 49  1  0  0  0  0
 45 68  1  0  0  0  0
 46 49  1  0  0  0  0
 46 68  1  0  0  0  0
 47 71  1  0  0  0  0
 48 67  1  0  0  0  0
 49 66  1  0  0  0  0
 51 62  1  0  0  0  0
 52 63  1  0  0  0  0
 53 63  1  0  0  0  0
 54 63  1  0  0  0  0
 55 74  1  0  0  0  0
 56 58  1  0  0  0  0
 57 73  1  0  0  0  0
 58 59  1  0  0  0  0
 59 60  1  0  0  0  0
 60 81  1  0  0  0  0
 61 63  1  0  0  0  0
 61 72  1  0  0  0  0
 62 74  1  0  0  0  0
 65 66  1  0  0  0  0
M  CHG  1  74   1
M  ISO  4  37 100  60 101  73 100  81 101
M  END
> <Batch ID>
0103

> <Smiles>
CNC(C)C(=O)NC(C(=O)N1Cc2cc([101O:1][101CH2:1]CCCc3cncc(C)c3C[100NH:0][100C:0](=O)N3CCCC(n4nc(-c5ccc(Oc6ccc(F)cc6F)cc5)c(C(N)=O)c4N)C3)ccc2CC1C(=O)NC1CCCc2ccccc21)C(C)(C)C

> <Shape>
0.202

> <Color>
0.067

> <Negative vol penalty>
0.000

$$$$

  -OEChem-04052319413D

 93101  0     1  0  0  0  0  0999 V2000
  -41.6554  -21.1742   19.9424 C   0  0  0  0  0  0  0  0  0  0  0  0
  -40.6802  -20.9998   20.9192 C   0  0  0  0  0  0  0  0  0  0  0  0
  -23.1196   -9.8751   19.9473 C   0  0  0  0  0  0  0  0  0  0  0  0
  -23.9032   -9.8992   22.2325 C   0  0  0  0  0  0  0  0  0  0  0  0
  -41.5157  -22.1849   18.9922 C   0  0  0  0  0  0  0  0  0  0  0  0
  -39.5653  -21.8367   20.9469 C   0  0  0  0  0  0  0  0  0  0  0  0
  -32.5945  -21.7970   22.5972 C   0  0  0  0  0  0  0  0  0  0  0  0
  -22.4029   -8.7067   20.2053 C   0  0  0  0  0  0  0  0  0  0  0  0
  -23.1864   -8.7308   22.4906 C   0  0  0  0  0  0  0  0  0  0  0  0
  -31.6653  -22.4981   23.3646 C   0  0  0  0  0  0  0  0  0  0  0  0
  -19.4875   -7.8488   21.6876 C   0  0  0  0  0  0  0  0  0  0  0  0
  -18.1768   -7.7748   21.2161 C   0  0  0  0  0  0  0  0  0  0  0  0
  -31.4908  -24.1596   21.6244 C   0  0  0  0  0  0  0  0  0  0  0  0
  -29.7430  -20.2206   18.9029 C   0  0  0  0  0  0  0  0  0  0  0  0
  -28.9585  -18.9321   20.7900 C   0  0  0  0  0  0  0  0  0  0  0  0
  -18.7635   -5.8434   19.8885 C   0  0  0  0  0  0  0  0  0  0  0  0
  -23.8698  -10.4714   20.9609 C   0  0  0  0  0  0  0  0  0  0  0  0
  -24.1571  -13.0031   20.8366 C   0  0  0  0  0  0  0  0  0  0  0  0
  -40.3937  -23.0285   19.0025 C   0  0  0  0  0  0  0  0  0  0  0  0
  -32.9876  -22.2785   21.3402 C   0  0  0  0  0  0  0  0  0  0  0  0
  -39.4111  -22.8605   19.9968 C   0  0  0  0  0  0  0  0  0  0  0  0
  -32.4232  -23.4614   20.8419 C   0  0  0  0  0  0  0  0  0  0  0  0
  -29.1643  -20.1650   20.1708 C   0  0  0  0  0  0  0  0  0  0  0  0
  -30.1158  -19.0434   18.2541 C   0  0  0  0  0  0  0  0  0  0  0  0
  -29.3313  -17.7549   20.1413 C   0  0  0  0  0  0  0  0  0  0  0  0
  -29.9100  -17.8106   18.8733 C   0  0  0  0  0  0  0  0  0  0  0  0
  -22.4362   -8.1345   21.4769 C   0  0  0  0  0  0  0  0  0  0  0  0
  -31.1155  -23.6811   22.8794 C   0  0  0  0  0  0  0  0  0  0  0  0
  -20.4362   -6.9201   21.2595 C   0  0  0  0  0  0  0  0  0  0  0  0
  -17.8148   -6.7721   20.3166 C   0  0  0  0  0  0  0  0  0  0  0  0
  -20.0742   -5.9174   20.3600 C   0  0  0  0  0  0  0  0  0  0  0  0
  -24.6109  -11.6781   20.6948 C   0  0  0  0  0  0  0  0  0  0  0  0
  -25.2293  -13.7753   20.4617 C   0  0  0  0  0  0  0  0  0  0  0  0
  -22.8805  -13.4922   21.2687 C   0  0  0  0  0  0  0  0  0  0  0  0
  -35.7363  -23.2398   20.0656 C   0  0  0  0  0  0  0  0  0  0  0  0
  -33.9740  -23.3898   17.3464 C   0  0  0  0  0  0  0  0  0  0  0  0
  -30.9697  -24.1512   15.4992 C   0  0  0  0  0  0  0  0  0  0  0  0
  -30.8252  -14.6064   21.0208 C   0  0  0  0  0  0  0  0  0  0  0  0
  -40.3098  -24.1373   17.9835 C   0  0  0  0  0  0  0  0  0  0  0  0
  -33.9710  -21.4965   20.5132 C   0  0  0  0  0  0  0  0  0  0  0  0
  -32.7966  -24.0101   19.4899 C   0  0  0  0  0  0  0  0  0  0  0  0
  -38.9140  -24.7416   17.8546 C   0  0  0  0  0  0  0  0  0  0  0  0
  -29.5792  -12.5337   18.2184 C   0  0  0  0  0  0  0  0  0  0  0  0
  -38.3253  -25.0247   19.2330 C   0  0  0  0  0  0  0  0  0  0  0  0
  -28.1623  -12.1820   18.6686 C   0  0  0  0  0  0  0  0  0  0  0  0
  -30.5095  -12.7678   19.4047 C   0  0  0  0  0  0  0  0  0  0  0  0
  -28.5942  -13.4337   20.8197 C   0  0  0  0  0  0  0  0  0  0  0  0
  -38.1751  -23.7324   20.0447 C   0  0  1  0  0  0  0  0  0  0  0  0
  -34.6841  -22.3490   19.4682 C   0  0  1  0  0  0  0  0  0  0  0  0
  -27.6201  -13.2372   19.6484 C   0  0  2  0  0  0  0  0  0  0  0  0
  -30.3103  -16.5486   18.1777 C   0  0  0  0  0  0  0  0  0  0  0  0
  -30.4183  -23.8214   13.0734 C   0  0  0  0  0  0  0  0  0  0  0  0
  -31.5177  -17.9227   14.2222 C   0  0  0  0  0  0  0  0  0  0  0  0
  -29.2831  -18.5448   13.2842 C   0  0  0  0  0  0  0  0  0  0  0  0
  -34.9265  -26.2719   17.0367 C   0  0  0  0  0  0  0  0  0  0  0  0
  -33.0845  -26.6291   15.3791 C   0  0  0  0  0  0  0  0  0  0  0  0
  -34.8745  -24.9562   14.9105 C   0  0  0  0  0  0  0  0  0  0  0  0
  -31.2083  -16.8119   22.0545 C   0  0  0  0  0  0  0  0  0  0  0  0
  -28.5442  -22.5828   16.1442 C   0  0  0  0  0  0  0  0  0  0  0  0
  -25.8871  -22.3897   23.3529 C   0  0  0  0  0  0  0  0  0  0  0  0
  -28.7606  -21.4375   20.8718 C   0  0  0  0  0  0  0  0  0  0  0  0
  -30.7347  -19.1305   16.8972 C   0  0  0  0  0  0  0  0  0  0  0  0
  -29.1003  -16.4474   20.8260 C   0  0  0  0  0  0  0  0  0  0  0  0
  -27.3217  -21.8802   20.5755 C   0  0  0  0  0  0  0  0  0  0  0  0
  -29.7371  -18.7585   15.7856 C   0  0  0  0  0  0  0  0  0  0  0  0
  -28.0390  -24.3112   24.6475 C   0  0  0  0  0  0  0  0  0  0  0  0
  -26.8946  -23.1942   21.2225 C   0  0  0  0  0  0  0  0  0  0  0  0
  -27.2816  -24.4530   23.3359 C   0  0  0  0  0  0  0  0  0  0  0  0
  -29.3827  -23.6064   24.5066 C   0  0  0  0  0  0  0  0  0  1  0  0
  -33.1347  -24.4489   16.6734 C   0  0  1  0  0  0  0  0  0  0  0  0
  -30.2792  -23.2622   14.4808 C   0  0  2  0  0  0  0  0  0  0  0  0
  -30.3186  -18.8637   14.3635 C   0  0  0  0  0  0  0  0  0  0  0  0
  -33.9993  -25.5675   16.0263 C   0  0  0  0  0  0  0  0  0  0  0  0
  -25.8730  -11.6087   20.2633 N   0  0  0  0  0  0  0  0  0  0  0  0
  -26.2214  -12.8999   20.1307 N   0  0  0  0  0  0  0  0  0  0  0  0
  -33.7669  -23.2126   18.7218 N   0  0  0  0  0  0  0  0  0  0  0  0
  -29.9501  -13.7427   20.3417 N   0  0  0  0  0  0  0  0  0  0  0  0
  -25.4108  -15.1109   20.3862 N   0  0  0  0  0  0  0  0  0  0  0  0
  -21.8915  -12.5621   21.6168 N   0  0  0  0  0  0  0  0  0  0  0  0
  -37.0141  -22.9900   19.6027 N   0  0  0  0  0  0  0  0  0  0  0  0
  -32.2666  -23.7463   15.7347 N   0  0  0  0  0  0  0  0  0  0  0  0
  -30.3350  -15.8765   21.3599 N   0  0  0  0  0  0  0  0  0  0  0  0
  -28.8279  -23.1421   14.7975 N   0  3  0  0  0  0  0  0  0  0  0  0
  -27.0460  -23.1246   22.7231 N   0  3  1  0  0  0  0  0  0  0  0  0
  -22.6189  -14.7176   21.3282 O   0  0  0  0  0  0  0  0  0  0  0  0
  -35.4126  -24.0919   20.8848 O   0  0  0  0  0  0  0  0  0  0  0  0
  -34.7783  -22.7386   16.6751 O   0  0  0  0  0  0  0  0  0  0  0  0
  -30.4154  -25.1113   16.0298 O   0  0  0  0  0  0  0  0  0  0  0  0
  -31.9819  -14.2652   21.2991 O   0  0  0  0  0  0  0  0  0  0  0  0
  -21.7368   -6.9945   21.7292 O   0  0  0  0  0  0  0  0  0  0  0  0
  -30.2088  -24.3677   23.6267 O   0  0  0  0  0  0  0  0  0  1  0  0
  -16.5558   -6.7002   19.8651 F   0  0  0  0  0  0  0  0  0  0  0  0
  -20.9809   -5.0217   19.9461 F   0  0  0  0  0  0  0  0  0  0  0  0
  1  2  1  0  0  0  0
  1  5  2  0  0  0  0
  2  6  2  0  0  0  0
  3  8  2  0  0  0  0
  3 17  1  0  0  0  0
  4  9  1  0  0  0  0
  4 17  2  0  0  0  0
  5 19  1  0  0  0  0
  6 21  1  0  0  0  0
  7 10  2  0  0  0  0
  7 20  1  0  0  0  0
  8 27  1  0  0  0  0
  9 27  2  0  0  0  0
 10 28  1  0  0  0  0
 11 12  2  0  0  0  0
 11 29  1  0  0  0  0
 12 30  1  0  0  0  0
 13 22  1  0  0  0  0
 13 28  2  0  0  0  0
 14 23  1  0  0  0  0
 14 24  2  0  0  0  0
 15 23  2  0  0  0  0
 15 25  1  0  0  0  0
 16 30  2  0  0  0  0
 16 31  1  0  0  0  0
 17 32  1  0  0  0  0
 18 32  1  0  0  0  0
 18 33  2  0  0  0  0
 18 34  1  0  0  0  0
 19 21  2  0  0  0  0
 19 39  1  0  0  0  0
 20 22  2  0  0  0  0
 20 40  1  0  0  0  0
 21 48  1  0  0  0  0
 22 41  1  0  0  0  0
 23 61  1  0  0  0  0
 24 26  1  0  0  0  0
 24 62  1  0  0  0  0
 25 26  2  0  0  0  0
 25 63  1  0  0  0  0
 26 51  1  0  0  0  0
 27 90  1  0  0  0  0
 28 91  1  0  0  0  0
 29 31  2  0  0  0  0
 29 90  1  0  0  0  0
 30 92  1  0  0  0  0
 31 93  1  0  0  0  0
 32 74  2  0  0  0  0
 33 75  1  0  0  0  0
 33 78  1  0  0  0  0
 34 79  1  0  0  0  0
 34 85  2  0  0  0  0
 35 49  1  0  0  0  0
 35 80  1  0  0  0  0
 35 86  2  0  0  0  0
 36 70  1  0  0  0  0
 36 76  1  0  0  0  0
 36 87  2  0  0  0  0
 37 71  1  0  0  0  0
 37 81  1  0  0  0  0
 37 88  2  0  0  0  0
 38 77  1  0  0  0  0
 38 82  1  0  0  0  0
 38 89  2  0  0  0  0
 39 42  1  0  0  0  0
 40 49  1  0  0  0  0
 41 76  1  0  0  0  0
 42 44  1  0  0  0  0
 43 45  1  0  0  0  0
 43 46  1  0  0  0  0
 44 48  1  0  0  0  0
 45 50  1  0  0  0  0
 46 77  1  0  0  0  0
 47 50  1  0  0  0  0
 47 77  1  0  0  0  0
 48 80  1  0  0  0  0
 49 76  1  0  0  0  0
 50 75  1  0  0  0  0
 52 71  1  0  0  0  0
 53 72  1  0  0  0  0
 54 72  1  0  0  0  0
 55 73  1  0  0  0  0
 56 73  1  0  0  0  0
 57 73  1  0  0  0  0
 58 82  1  0  0  0  0
 59 83  1  0  0  0  0
 60 84  1  0  0  0  0
 61 64  1  0  0  0  0
 62 65  1  0  0  0  0
 63 82  1  0  0  0  0
 64 67  1  0  0  0  0
 65 72  1  0  0  0  0
 66 68  1  0  0  0  0
 66 69  1  0  0  0  0
 67 84  1  0  0  0  0
 68 84  1  0  0  0  0
 69 91  1  0  0  0  0
 70 73  1  0  0  0  0
 70 81  1  0  0  0  0
 71 83  1  0  0  0  0
 74 75  1  0  0  0  0
M  CHG  2  83   1  84   1
M  ISO  4  38 100  69 101  82 100  91 101
M  END
> <Batch ID>
0103

> <Smiles>
CNC(C)C(=O)NC(C(=O)N1Cc2cc([101O:1][101CH2:1]CCN(C)CCCc3cc(CCC(C)C)c(C)c(C[100N:0](C)[100C:0](=O)N4CCCC(n5nc(-c6ccc(Oc7ccc(F)cc7F)cc6)c(C(N)=O)c5N)C4)c3)ccc2CC1C(=O)NC1CCCc2ccccc21)C(C)(C)C

> <Shape>
0.193

> <Color>
0.173

> <Negative vol penalty>
0.000

$$$$

  -OEChem-04052319413D

 81 88  0     1  0  0  0  0  0999 V2000
  -25.5911  -34.8583   24.5864 C   0  0  0  0  0  0  0  0  0  0  0  0
  -25.9017  -33.9098   23.6184 C   0  0  0  0  0  0  0  0  0  0  0  0
  -24.7346  -13.7044   22.2218 C   0  0  0  0  0  0  0  0  0  0  0  0
  -26.1770  -13.9697   20.3019 C   0  0  0  0  0  0  0  0  0  0  0  0
  -24.6065  -34.5853   25.5335 C   0  0  0  0  0  0  0  0  0  0  0  0
  -25.2195  -32.6930   23.5900 C   0  0  0  0  0  0  0  0  0  0  0  0
  -26.1136  -29.7183   19.7748 C   0  0  0  0  0  0  0  0  0  0  0  0
  -24.7438  -12.3218   22.0376 C   0  0  0  0  0  0  0  0  0  0  0  0
  -26.1862  -12.5871   20.1177 C   0  0  0  0  0  0  0  0  0  0  0  0
  -27.3141  -29.0255   19.6244 C   0  0  0  0  0  0  0  0  0  0  0  0
  -23.2288  -10.0674   20.0260 C   0  0  0  0  0  0  0  0  0  0  0  0
  -22.0105   -9.3942   20.1161 C   0  0  0  0  0  0  0  0  0  0  0  0
  -26.2277  -26.9976   20.3502 C   0  0  0  0  0  0  0  0  0  0  0  0
  -22.8748   -8.0751   21.9464 C   0  0  0  0  0  0  0  0  0  0  0  0
  -25.4512  -14.5284   21.3539 C   0  0  0  0  0  0  0  0  0  0  0  0
  -25.8805  -16.6669   22.6768 C   0  0  0  0  0  0  0  0  0  0  0  0
  -23.9210  -33.3593   25.5236 C   0  0  0  0  0  0  0  0  0  0  0  0
  -24.9619  -29.0572   20.2252 C   0  0  0  0  0  0  0  0  0  0  0  0
  -24.2058  -32.4083   24.5226 C   0  0  0  0  0  0  0  0  0  0  0  0
  -25.0132  -27.6838   20.5030 C   0  0  0  0  0  0  0  0  0  0  0  0
  -25.4696  -11.7631   20.9856 C   0  0  0  0  0  0  0  0  0  0  0  0
  -27.3720  -27.6656   19.9149 C   0  0  0  0  0  0  0  0  0  0  0  0
  -24.2702   -9.7443   20.8960 C   0  0  0  0  0  0  0  0  0  0  0  0
  -21.8334   -8.3981   21.0763 C   0  0  0  0  0  0  0  0  0  0  0  0
  -24.0931   -8.7482   21.8562 C   0  0  0  0  0  0  0  0  0  0  0  0
  -25.4417  -15.9567   21.5433 C   0  0  0  0  0  0  0  0  0  0  0  0
  -25.6626  -17.9858   22.3613 C   0  0  0  0  0  0  0  0  0  0  0  0
  -26.4355  -16.1781   23.9051 C   0  0  0  0  0  0  0  0  0  0  0  0
  -23.0599  -29.3373   22.7566 C   0  0  0  0  0  0  0  0  0  0  0  0
  -21.2937  -27.1141   21.1880 C   0  0  0  0  0  0  0  0  0  0  0  0
  -21.1881  -24.5884   18.8954 C   0  0  0  0  0  0  0  0  0  0  0  0
  -25.2694  -20.9222   17.1580 C   0  0  0  0  0  0  0  0  0  0  0  0
  -22.8590  -33.1193   26.5675 C   0  0  0  0  0  0  0  0  0  0  0  0
  -23.6681  -29.8131   20.3567 C   0  0  0  0  0  0  0  0  0  0  0  0
  -23.8000  -26.9233   20.9702 C   0  0  0  0  0  0  0  0  0  0  0  0
  -22.5077  -31.6440   26.7299 C   0  0  0  0  0  0  0  0  0  0  0  0
  -22.8109  -20.7845   19.7297 C   0  0  0  0  0  0  0  0  0  0  0  0
  -22.2408  -31.0203   25.3682 C   0  0  0  0  0  0  0  0  0  0  0  0
  -23.2459  -19.5957   20.5884 C   0  0  0  0  0  0  0  0  0  0  0  0
  -23.0778  -20.5371   18.2466 C   0  0  0  0  0  0  0  0  0  0  0  0
  -24.9000  -18.9662   18.7810 C   0  0  0  0  0  0  0  0  0  0  0  0
  -23.4983  -31.0656   24.4909 C   0  0  1  0  0  0  0  0  0  0  0  0
  -22.6831  -29.1496   21.3142 C   0  0  1  0  0  0  0  0  0  0  0  0
  -24.7022  -19.1914   20.2898 C   0  0  2  0  0  0  0  0  0  0  0  0
  -19.6108  -22.9366   17.8555 C   0  0  0  0  0  0  0  0  0  0  0  0
  -30.9826  -23.2953   17.9944 C   0  0  0  0  0  0  0  0  0  0  0  0
  -21.3872  -25.4285   23.7297 C   0  0  0  0  0  0  0  0  0  0  0  0
  -20.6551  -23.4596   22.3675 C   0  0  0  0  0  0  0  0  0  0  0  0
  -19.1691  -25.4524   22.5748 C   0  0  0  0  0  0  0  0  0  0  0  0
  -28.5717  -23.8452   14.9367 C   0  0  0  0  0  0  0  0  0  0  0  0
  -21.6225  -25.7022   16.1881 C   0  0  0  0  0  0  0  0  0  0  0  0
  -30.2592  -26.2864   18.2122 C   0  0  0  0  0  0  0  0  0  0  0  0
  -29.3697  -25.2145   17.5646 C   0  0  0  0  0  0  0  0  0  0  0  0
  -28.2699  -22.2828   16.9220 C   0  0  0  0  0  0  0  0  0  0  0  0
  -27.5253  -21.1857   16.1576 C   0  0  0  0  0  0  0  0  0  0  0  0
  -29.4440  -27.4498   18.7676 C   0  0  0  0  0  0  0  0  0  1  0  0
  -21.2569  -25.6053   21.1572 C   0  0  1  0  0  0  0  0  0  0  0  0
  -20.2417  -24.3155   17.7402 C   0  0  2  0  0  0  0  0  0  0  0  0
  -30.1691  -24.0519   16.9292 C   0  0  2  0  0  0  0  0  0  0  0  0
  -20.6406  -25.0009   22.4503 C   0  0  0  0  0  0  0  0  0  0  0  0
  -29.2811  -23.0851   16.0692 C   0  0  2  0  0  0  0  0  0  0  0  0
  -24.9798  -16.7581   20.5797 N   0  0  0  0  0  0  0  0  0  0  0  0
  -25.1271  -17.9854   21.1069 N   0  0  0  0  0  0  0  0  0  0  0  0
  -22.5600  -27.7079   21.0892 N   0  0  0  0  0  0  0  0  0  0  0  0
  -24.4767  -20.1593   18.0313 N   0  0  0  0  0  0  0  0  0  0  0  0
  -25.8787  -19.1342   23.0372 N   0  0  0  0  0  0  0  0  0  0  0  0
  -27.8254  -16.0218   23.9948 N   0  0  0  0  0  0  0  0  0  0  0  0
  -23.1510  -30.6598   23.1468 N   0  0  0  0  0  0  0  0  0  0  0  0
  -20.5538  -25.2391   19.9325 N   0  0  0  0  0  0  0  0  0  0  0  0
  -26.5854  -20.4994   17.0158 N   0  0  0  0  0  0  0  0  0  0  0  0
  -20.9720  -24.3913   16.4433 N   0  3  0  0  0  0  0  0  0  0  0  0
  -25.7187  -15.8730   24.8883 O   0  0  0  0  0  0  0  0  0  0  0  0
  -23.2522  -28.3550   23.4636 O   0  0  0  0  0  0  0  0  0  0  0  0
  -20.2372  -27.7429   21.2887 O   0  0  0  0  0  0  0  0  0  0  0  0
  -22.3707  -24.2542   18.8808 O   0  0  0  0  0  0  0  0  0  0  0  0
  -24.8380  -21.9103   16.5543 O   0  0  0  0  0  0  0  0  0  0  0  0
  -30.1532  -22.1353   15.4356 O   0  0  0  0  0  0  0  0  0  0  0  0
  -25.4789  -10.4140   20.8057 O   0  0  0  0  0  0  0  0  0  0  0  0
  -28.5515  -26.9819   19.7685 O   0  0  0  0  0  0  0  0  0  1  0  0
  -20.6629   -7.7528   21.1638 F   0  0  0  0  0  0  0  0  0  0  0  0
  -25.0895   -8.4343   22.6956 F   0  0  0  0  0  0  0  0  0  0  0  0
  1  2  1  0  0  0  0
  1  5  2  0  0  0  0
  2  6  2  0  0  0  0
  3  8  2  0  0  0  0
  3 15  1  0  0  0  0
  4  9  1  0  0  0  0
  4 15  2  0  0  0  0
  5 17  1  0  0  0  0
  6 19  1  0  0  0  0
  7 10  2  0  0  0  0
  7 18  1  0  0  0  0
  8 21  1  0  0  0  0
  9 21  2  0  0  0  0
 10 22  1  0  0  0  0
 11 12  2  0  0  0  0
 11 23  1  0  0  0  0
 12 24  1  0  0  0  0
 13 20  1  0  0  0  0
 13 22  2  0  0  0  0
 14 24  2  0  0  0  0
 14 25  1  0  0  0  0
 15 26  1  0  0  0  0
 16 26  1  0  0  0  0
 16 27  2  0  0  0  0
 16 28  1  0  0  0  0
 17 19  2  0  0  0  0
 17 33  1  0  0  0  0
 18 20  2  0  0  0  0
 18 34  1  0  0  0  0
 19 42  1  0  0  0  0
 20 35  1  0  0  0  0
 21 78  1  0  0  0  0
 22 79  1  0  0  0  0
 23 25  2  0  0  0  0
 23 78  1  0  0  0  0
 24 80  1  0  0  0  0
 25 81  1  0  0  0  0
 26 62  2  0  0  0  0
 27 63  1  0  0  0  0
 27 66  1  0  0  0  0
 28 67  1  0  0  0  0
 28 72  2  0  0  0  0
 29 43  1  0  0  0  0
 29 68  1  0  0  0  0
 29 73  2  0  0  0  0
 30 57  1  0  0  0  0
 30 64  1  0  0  0  0
 30 74  2  0  0  0  0
 31 58  1  0  0  0  0
 31 69  1  0  0  0  0
 31 75  2  0  0  0  0
 32 65  1  0  0  0  0
 32 70  1  0  0  0  0
 32 76  2  0  0  0  0
 33 36  1  0  0  0  0
 34 43  1  0  0  0  0
 35 64  1  0  0  0  0
 36 38  1  0  0  0  0
 37 39  1  0  0  0  0
 37 40  1  0  0  0  0
 38 42  1  0  0  0  0
 39 44  1  0  0  0  0
 40 65  1  0  0  0  0
 41 44  1  0  0  0  0
 41 65  1  0  0  0  0
 42 68  1  0  0  0  0
 43 64  1  0  0  0  0
 44 63  1  0  0  0  0
 45 58  1  0  0  0  0
 46 59  1  0  0  0  0
 47 60  1  0  0  0  0
 48 60  1  0  0  0  0
 49 60  1  0  0  0  0
 50 61  1  0  0  0  0
 51 71  1  0  0  0  0
 52 53  1  0  0  0  0
 52 56  1  0  0  0  0
 53 59  1  0  0  0  0
 54 55  1  0  0  0  0
 54 61  1  0  0  0  0
 55 70  1  0  0  0  0
 56 79  1  0  0  0  0
 57 60  1  0  0  0  0
 57 69  1  0  0  0  0
 58 71  1  0  0  0  0
 59 61  1  0  0  0  0
 61 77  1  0  0  0  0
 62 63  1  0  0  0  0
M  CHG  1  71   1
M  ISO  4  32 100  56 101  70 100  79 101
M  END
> <Batch ID>
0103

> <Smiles>
CNC(C)C(=O)NC(C(=O)N1Cc2cc([101O:1][101CH2:1]CCC(C)C(C)(O)CC[100NH:0][100C:0](=O)N3CCCC(n4nc(-c5ccc(Oc6ccc(F)cc6F)cc5)c(C(N)=O)c4N)C3)ccc2CC1C(=O)NC1CCCc2ccccc21)C(C)(C)C

> <Shape>
0.221

> <Color>
0.084

> <Negative vol penalty>
0.000

$$$$

  -OEChem-04052319413D

 86 94  0     1  0  0  0  0  0999 V2000
  -22.9547  -17.8991   22.4845 C   0  0  0  0  0  0  0  0  0  0  0  0
  -23.8895  -18.9155   22.3158 C   0  0  0  0  0  0  0  0  0  0  0  0
  -25.9175  -12.7658   21.4638 C   0  0  0  0  0  0  0  0  0  0  0  0
  -25.8009  -12.9480   19.0576 C   0  0  0  0  0  0  0  0  0  0  0  0
  -21.6191  -18.1193   22.1504 C   0  0  0  0  0  0  0  0  0  0  0  0
  -23.4893  -20.1526   21.8119 C   0  0  0  0  0  0  0  0  0  0  0  0
  -25.7264  -25.6464   23.3348 C   0  0  0  0  0  0  0  0  0  0  0  0
  -24.7892  -11.9458   21.4565 C   0  0  0  0  0  0  0  0  0  0  0  0
  -24.6725  -12.1280   19.0501 C   0  0  0  0  0  0  0  0  0  0  0  0
  -26.6667  -26.4775   22.7274 C   0  0  0  0  0  0  0  0  0  0  0  0
  -24.0663   -8.7093   20.7965 C   0  0  0  0  0  0  0  0  0  0  0  0
  -24.0965   -7.5579   21.5832 C   0  0  0  0  0  0  0  0  0  0  0  0
  -24.8846  -27.7017   21.6576 C   0  0  0  0  0  0  0  0  0  0  0  0
  -29.4525  -26.1472   17.8269 C   0  0  0  0  0  0  0  0  0  0  0  0
  -22.1843   -8.3563   22.8254 C   0  0  0  0  0  0  0  0  0  0  0  0
  -26.4233  -13.2670   20.2644 C   0  0  0  0  0  0  0  0  0  0  0  0
  -28.9338  -13.7111   20.1755 C   0  0  0  0  0  0  0  0  0  0  0  0
  -21.2006  -19.3629   21.6512 C   0  0  0  0  0  0  0  0  0  0  0  0
  -24.3564  -25.8302   23.0991 C   0  0  0  0  0  0  0  0  0  0  0  0
  -22.1471  -20.3893   21.4696 C   0  0  0  0  0  0  0  0  0  0  0  0
  -23.9289  -26.8732   22.2652 C   0  0  0  0  0  0  0  0  0  0  0  0
  -29.4075  -24.8169   17.4250 C   0  0  0  0  0  0  0  0  0  0  0  0
  -30.2368  -23.8833   18.0365 C   0  0  0  0  0  0  0  0  0  0  0  0
  -24.1667  -11.6269   20.2496 C   0  0  0  0  0  0  0  0  0  0  0  0
  -26.2460  -27.5035   21.8864 C   0  0  0  0  0  0  0  0  0  0  0  0
  -23.0950   -9.6843   21.0244 C   0  0  0  0  0  0  0  0  0  0  0  0
  -23.1556   -7.3813   22.5976 C   0  0  0  0  0  0  0  0  0  0  0  0
  -22.1541   -9.5078   22.0388 C   0  0  0  0  0  0  0  0  0  0  0  0
  -27.5885  -14.1146   20.2714 C   0  0  0  0  0  0  0  0  0  0  0  0
  -30.3371  -26.4900   18.8368 C   0  0  0  0  0  0  0  0  0  0  0  0
  -31.0864  -24.3275   19.0368 C   0  0  0  0  0  0  0  0  0  0  0  0
  -29.6483  -14.8829   20.2288 C   0  0  0  0  0  0  0  0  0  0  0  0
  -29.4880  -12.3948   20.0494 C   0  0  0  0  0  0  0  0  0  0  0  0
  -22.0451  -24.0668   21.8138 C   0  0  0  0  0  0  0  0  0  0  0  0
  -20.1602  -26.5122   22.8084 C   0  0  0  0  0  0  0  0  0  0  0  0
  -19.8997  -29.8042   23.6698 C   0  0  0  0  0  0  0  0  0  0  0  0
  -29.3203  -20.2577   18.3807 C   0  0  0  0  0  0  0  0  0  0  0  0
  -19.7548  -19.5385   21.2596 C   0  0  0  0  0  0  0  0  0  0  0  0
  -23.3535  -24.9419   23.7831 C   0  0  0  0  0  0  0  0  0  0  0  0
  -22.4686  -27.1252   21.9956 C   0  0  0  0  0  0  0  0  0  0  0  0
  -19.3444  -20.9983   21.0840 C   0  0  0  0  0  0  0  0  0  0  0  0
  -28.7227  -19.4586   21.8594 C   0  0  0  0  0  0  0  0  0  0  0  0
  -20.3808  -21.7481   20.2531 C   0  0  0  0  0  0  0  0  0  0  0  0
  -28.4995  -17.9468   21.7902 C   0  0  0  0  0  0  0  0  0  0  0  0
  -28.1188  -20.1626   20.6479 C   0  0  0  0  0  0  0  0  0  0  0  0
  -28.3802  -18.1410   19.2628 C   0  0  0  0  0  0  0  0  0  0  0  0
  -21.7473  -21.7529   20.9490 C   0  0  1  0  0  0  0  0  0  0  0  0
  -22.0079  -24.8969   23.0656 C   0  0  1  0  0  0  0  0  0  0  0  0
  -28.9875  -17.3692   20.4484 C   0  0  2  0  0  0  0  0  0  0  0  0
  -28.4657  -24.4189   16.3370 C   0  0  0  0  0  0  0  0  0  0  0  0
  -32.6129  -23.9705   20.9936 C   0  0  0  0  0  0  0  0  0  0  0  0
  -18.2232  -31.5223   24.4012 C   0  0  0  0  0  0  0  0  0  0  0  0
  -31.4425  -28.1919   20.4405 C   0  0  0  0  0  0  0  0  0  0  0  0
  -30.8685  -28.8283   18.1145 C   0  0  0  0  0  0  0  0  0  0  0  0
  -19.1061  -26.6967   19.9510 C   0  0  0  0  0  0  0  0  0  0  0  0
  -18.1967  -28.9621   20.5068 C   0  0  0  0  0  0  0  0  0  0  0  0
  -17.3618  -26.9516   21.7249 C   0  0  0  0  0  0  0  0  0  0  0  0
  -21.3138  -30.2634   26.2288 C   0  0  0  0  0  0  0  0  0  0  0  0
  -30.2085  -22.4489   17.6278 C   0  0  0  0  0  0  0  0  0  0  0  0
  -31.9998  -23.3712   19.7318 C   0  0  0  0  0  0  0  0  0  0  0  0
  -29.0209  -28.4668   19.7832 C   0  0  0  0  0  0  0  0  0  0  0  0
  -28.4396  -27.7508   21.0015 C   0  0  0  0  0  0  0  0  0  1  0  0
  -19.6897  -27.8134   22.2045 C   0  0  1  0  0  0  0  0  0  0  0  0
  -19.2399  -30.4862   24.8547 C   0  0  2  0  0  0  0  0  0  0  0  0
  -30.4139  -27.9532   19.3092 C   0  0  0  0  0  0  0  0  0  0  0  0
  -18.6163  -27.6002   21.1001 C   0  0  0  0  0  0  0  0  0  0  0  0
  -27.4538  -15.4392   20.3778 N   0  0  0  0  0  0  0  0  0  0  0  0
  -31.1582  -25.6113   19.4543 N   0  0  0  0  0  0  0  0  0  0  0  0
  -28.7236  -15.8782   20.3490 N   0  0  0  0  0  0  0  0  0  0  0  0
  -21.5269  -26.2259   22.6826 N   0  0  0  0  0  0  0  0  0  0  0  0
  -28.6383  -19.5779   19.4035 N   0  0  0  0  0  0  0  0  0  0  0  0
  -30.9711  -15.1486   20.1841 N   0  0  0  0  0  0  0  0  0  0  0  0
  -28.6116  -11.3018   20.0098 N   0  0  0  0  0  0  0  0  0  0  0  0
  -21.7668  -22.7287   22.0176 N   0  0  0  0  0  0  0  0  0  0  0  0
  -19.2441  -28.6430   23.3188 N   0  0  0  0  0  0  0  0  0  0  0  0
  -29.5179  -21.6173   18.5883 N   0  0  0  0  0  0  0  0  0  0  0  0
  -20.2636  -31.1688   25.6955 N   0  3  0  0  0  0  0  0  0  0  0  0
  -30.7246  -12.1925   19.9905 O   0  0  0  0  0  0  0  0  0  0  0  0
  -22.3054  -24.6010   20.7421 O   0  0  0  0  0  0  0  0  0  0  0  0
  -19.3463  -25.7803   23.3773 O   0  0  0  0  0  0  0  0  0  0  0  0
  -20.8947  -30.2582   23.1092 O   0  0  0  0  0  0  0  0  0  0  0  0
  -29.7280  -19.6935   17.3596 O   0  0  0  0  0  0  0  0  0  0  0  0
  -23.0658  -10.8266   20.2420 O   0  0  0  0  0  0  0  0  0  0  0  0
  -27.1617  -28.3158   21.2917 O   0  0  0  0  0  0  0  0  0  1  0  0
  -23.1838   -6.2748   23.3519 F   0  0  0  0  0  0  0  0  0  0  0  0
  -21.2179  -10.4404   22.2616 F   0  0  0  0  0  0  0  0  0  0  0  0
  1  2  1  0  0  0  0
  1  5  2  0  0  0  0
  2  6  2  0  0  0  0
  3  8  2  0  0  0  0
  3 16  1  0  0  0  0
  4  9  1  0  0  0  0
  4 16  2  0  0  0  0
  5 18  1  0  0  0  0
  6 20  1  0  0  0  0
  7 10  2  0  0  0  0
  7 19  1  0  0  0  0
  8 24  1  0  0  0  0
  9 24  2  0  0  0  0
 10 25  1  0  0  0  0
 11 12  2  0  0  0  0
 11 26  1  0  0  0  0
 12 27  1  0  0  0  0
 13 21  1  0  0  0  0
 13 25  2  0  0  0  0
 14 22  2  0  0  0  0
 14 30  1  0  0  0  0
 15 27  2  0  0  0  0
 15 28  1  0  0  0  0
 16 29  1  0  0  0  0
 17 29  1  0  0  0  0
 17 32  2  0  0  0  0
 17 33  1  0  0  0  0
 18 20  2  0  0  0  0
 18 38  1  0  0  0  0
 19 21  2  0  0  0  0
 19 39  1  0  0  0  0
 20 47  1  0  0  0  0
 21 40  1  0  0  0  0
 22 23  1  0  0  0  0
 22 50  1  0  0  0  0
 23 31  2  0  0  0  0
 23 59  1  0  0  0  0
 24 83  1  0  0  0  0
 25 84  1  0  0  0  0
 26 28  2  0  0  0  0
 26 83  1  0  0  0  0
 27 85  1  0  0  0  0
 28 86  1  0  0  0  0
 29 67  2  0  0  0  0
 30 65  1  0  0  0  0
 30 68  2  0  0  0  0
 31 60  1  0  0  0  0
 31 68  1  0  0  0  0
 32 69  1  0  0  0  0
 32 72  1  0  0  0  0
 33 73  1  0  0  0  0
 33 78  2  0  0  0  0
 34 48  1  0  0  0  0
 34 74  1  0  0  0  0
 34 79  2  0  0  0  0
 35 63  1  0  0  0  0
 35 70  1  0  0  0  0
 35 80  2  0  0  0  0
 36 64  1  0  0  0  0
 36 75  1  0  0  0  0
 36 81  2  0  0  0  0
 37 71  1  0  0  0  0
 37 76  1  0  0  0  0
 37 82  2  0  0  0  0
 38 41  1  0  0  0  0
 39 48  1  0  0  0  0
 40 70  1  0  0  0  0
 41 43  1  0  0  0  0
 42 44  1  0  0  0  0
 42 45  1  0  0  0  0
 43 47  1  0  0  0  0
 44 49  1  0  0  0  0
 45 71  1  0  0  0  0
 46 49  1  0  0  0  0
 46 71  1  0  0  0  0
 47 74  1  0  0  0  0
 48 70  1  0  0  0  0
 49 69  1  0  0  0  0
 51 60  1  0  0  0  0
 52 64  1  0  0  0  0
 53 65  1  0  0  0  0
 54 65  1  0  0  0  0
 55 66  1  0  0  0  0
 56 66  1  0  0  0  0
 57 66  1  0  0  0  0
 58 77  1  0  0  0  0
 59 76  1  0  0  0  0
 61 62  1  0  0  0  0
 61 65  1  0  0  0  0
 62 84  1  0  0  0  0
 63 66  1  0  0  0  0
 63 75  1  0  0  0  0
 64 77  1  0  0  0  0
 67 69  1  0  0  0  0
M  CHG  1  77   1
M  ISO  4  37 100  62 101  76 100  84 101
M  END
> <Batch ID>
0103

> <Smiles>
CCc1nc(C(C)(C)C[101CH2:1][101O:1]c2ccc3c(c2)CN(C(=O)C(NC(=O)C(C)NC)C(C)(C)C)C(C(=O)NC2CCCc4ccccc42)C3)cc(C)c1C[100NH:0][100C:0](=O)N1CCCC(n2nc(-c3ccc(Oc4ccc(F)cc4F)cc3)c(C(N)=O)c2N)C1

> <Shape>
0.277

> <Color>
0.045

> <Negative vol penalty>
0.000

$$$$

  -OEChem-04052319413D

 85 93  0     1  0  0  0  0  0999 V2000
  -16.2183  -22.7975   24.9514 C   0  0  0  0  0  0  0  0  0  0  0  0
  -17.4912  -22.3500   24.6128 C   0  0  0  0  0  0  0  0  0  0  0  0
  -23.2869   -9.8002   19.9125 C   0  0  0  0  0  0  0  0  0  0  0  0
  -23.7346   -9.9416   22.2825 C   0  0  0  0  0  0  0  0  0  0  0  0
  -15.5461  -22.2304   26.0333 C   0  0  0  0  0  0  0  0  0  0  0  0
  -18.0933  -21.3357   25.3566 C   0  0  0  0  0  0  0  0  0  0  0  0
  -22.5606  -15.7825   24.6346 C   0  0  0  0  0  0  0  0  0  0  0  0
  -22.5595   -8.6283   20.1198 C   0  0  0  0  0  0  0  0  0  0  0  0
  -23.0072   -8.7696   22.4898 C   0  0  0  0  0  0  0  0  0  0  0  0
  -23.7292  -15.2612   25.1882 C   0  0  0  0  0  0  0  0  0  0  0  0
  -19.4760   -7.7703   21.2102 C   0  0  0  0  0  0  0  0  0  0  0  0
  -18.2478   -7.6462   20.5609 C   0  0  0  0  0  0  0  0  0  0  0  0
  -22.4411  -14.3009   26.9877 C   0  0  0  0  0  0  0  0  0  0  0  0
  -31.4734  -12.1263   26.1455 C   0  0  0  0  0  0  0  0  0  0  0  0
  -19.0495   -5.6725   19.4213 C   0  0  0  0  0  0  0  0  0  0  0  0
  -29.9807  -13.7186   25.5921 C   0  0  0  0  0  0  0  0  0  0  0  0
  -23.8745  -10.4569   20.9938 C   0  0  0  0  0  0  0  0  0  0  0  0
  -24.1358  -12.9866   20.7945 C   0  0  0  0  0  0  0  0  0  0  0  0
  -16.1363  -21.2020   26.7849 C   0  0  0  0  0  0  0  0  0  0  0  0
  -21.3228  -15.5759   25.2603 C   0  0  0  0  0  0  0  0  0  0  0  0
  -17.4290  -20.7553   26.4504 C   0  0  0  0  0  0  0  0  0  0  0  0
  -21.2580  -14.8185   26.4386 C   0  0  0  0  0  0  0  0  0  0  0  0
  -31.0579  -13.0051   25.1149 C   0  0  0  0  0  0  0  0  0  0  0  0
  -22.4196   -8.1129   21.4084 C   0  0  0  0  0  0  0  0  0  0  0  0
  -23.6699  -14.5227   26.3665 C   0  0  0  0  0  0  0  0  0  0  0  0
  -20.4911   -6.8454   20.9650 C   0  0  0  0  0  0  0  0  0  0  0  0
  -18.0345   -6.5973   19.6665 C   0  0  0  0  0  0  0  0  0  0  0  0
  -20.2778   -5.7965   20.0707 C   0  0  0  0  0  0  0  0  0  0  0  0
  -24.6265  -11.6672   20.7803 C   0  0  0  0  0  0  0  0  0  0  0  0
  -30.6372  -12.3295   27.2212 C   0  0  0  0  0  0  0  0  0  0  0  0
  -25.2381  -13.7657   20.5406 C   0  0  0  0  0  0  0  0  0  0  0  0
  -22.8027  -13.4652   21.0173 C   0  0  0  0  0  0  0  0  0  0  0  0
  -19.1137  -17.4680   26.5423 C   0  0  0  0  0  0  0  0  0  0  0  0
  -17.4537  -14.6943   26.8129 C   0  0  0  0  0  0  0  0  0  0  0  0
  -17.5172  -11.2889   27.0265 C   0  0  0  0  0  0  0  0  0  0  0  0
  -31.1075  -12.9192   21.3685 C   0  0  0  0  0  0  0  0  0  0  0  0
  -15.3902  -20.6525   27.9748 C   0  0  0  0  0  0  0  0  0  0  0  0
  -20.0681  -16.1222   24.6360 C   0  0  0  0  0  0  0  0  0  0  0  0
  -19.9514  -14.5509   27.1384 C   0  0  0  0  0  0  0  0  0  0  0  0
  -15.9453  -19.3236   28.4812 C   0  0  0  0  0  0  0  0  0  0  0  0
  -29.4631  -13.6584   18.2982 C   0  0  0  0  0  0  0  0  0  0  0  0
  -17.4656  -19.3863   28.5883 C   0  0  0  0  0  0  0  0  0  0  0  0
  -27.9928  -13.3509   18.5875 C   0  0  0  0  0  0  0  0  0  0  0  0
  -30.3948  -12.6787   19.0082 C   0  0  0  0  0  0  0  0  0  0  0  0
  -28.7056  -12.2512   20.7511 C   0  0  0  0  0  0  0  0  0  0  0  0
  -18.1052  -19.6399   27.2178 C   0  0  1  0  0  0  0  0  0  0  0  0
  -18.9262  -16.2856   25.6343 C   0  0  1  0  0  0  0  0  0  0  0  0
  -27.7291  -13.2467   20.1017 C   0  0  2  0  0  0  0  0  0  0  0  0
  -31.9208  -11.9314   29.3536 C   0  0  0  0  0  0  0  0  0  0  0  0
  -30.3580  -10.1599   28.4737 C   0  0  0  0  0  0  0  0  0  0  0  0
  -16.6262   -8.9449   27.1244 C   0  0  0  0  0  0  0  0  0  0  0  0
  -25.8476  -11.2844   26.7957 C   0  0  0  0  0  0  0  0  0  0  0  0
  -17.1055  -15.3374   29.7752 C   0  0  0  0  0  0  0  0  0  0  0  0
  -16.4546  -12.9485   30.1458 C   0  0  0  0  0  0  0  0  0  0  0  0
  -15.0696  -14.4012   28.6646 C   0  0  0  0  0  0  0  0  0  0  0  0
  -17.5064  -11.0460   24.0769 C   0  0  0  0  0  0  0  0  0  0  0  0
  -31.6663  -13.1336   23.7770 C   0  0  0  0  0  0  0  0  0  0  0  0
  -27.4300  -12.8905   27.8926 C   0  0  0  0  0  0  0  0  0  0  0  0
  -28.6310  -13.8360   27.7514 C   0  0  0  0  0  0  0  0  0  0  0  0
  -25.8624  -13.6738   26.0085 C   0  0  0  0  0  0  0  0  0  1  0  0
  -30.6253  -11.6805   28.5485 C   0  0  0  0  0  0  0  0  0  0  0  0
  -17.3359  -13.6170   27.8639 C   0  0  1  0  0  0  0  0  0  0  0  0
  -16.7225  -10.2190   26.2996 C   0  0  2  0  0  0  0  0  0  0  0  0
  -26.7156  -12.5293   26.5716 C   0  0  2  0  0  0  0  0  0  0  0  0
  -16.5164  -14.0825   29.1005 C   0  0  0  0  0  0  0  0  0  0  0  0
  -25.9384  -11.6076   20.5365 N   0  0  0  0  0  0  0  0  0  0  0  0
  -29.7337  -13.2994   26.8732 N   0  0  0  0  0  0  0  0  0  0  0  0
  -26.2814  -12.8993   20.3951 N   0  0  0  0  0  0  0  0  0  0  0  0
  -18.7532  -15.1116   26.4923 N   0  0  0  0  0  0  0  0  0  0  0  0
  -30.0936  -12.6281   20.4409 N   0  0  0  0  0  0  0  0  0  0  0  0
  -25.4070  -15.1004   20.4299 N   0  0  0  0  0  0  0  0  0  0  0  0
  -21.7893  -12.5290   21.2638 N   0  0  0  0  0  0  0  0  0  0  0  0
  -18.1210  -18.4232   26.4345 N   0  0  0  0  0  0  0  0  0  0  0  0
  -16.7859  -12.4465   27.1887 N   0  0  0  0  0  0  0  0  0  0  0  0
  -30.7359  -12.8545   22.7058 N   0  0  0  0  0  0  0  0  0  0  0  0
  -17.3685   -9.8885   24.9979 N   0  3  0  0  0  0  0  0  0  0  0  0
  -22.5157  -14.6858   20.9821 O   0  0  0  0  0  0  0  0  0  0  0  0
  -20.0862  -17.5099   27.2867 O   0  0  0  0  0  0  0  0  0  0  0  0
  -16.4306  -15.1438   26.2903 O   0  0  0  0  0  0  0  0  0  0  0  0
  -18.6699  -11.1138   27.4150 O   0  0  0  0  0  0  0  0  0  0  0  0
  -32.2571  -13.2201   21.0297 O   0  0  0  0  0  0  0  0  0  0  0  0
  -21.7097   -6.9695   21.6111 O   0  0  0  0  0  0  0  0  0  0  0  0
  -24.8090  -14.0133   26.9093 O   0  0  0  0  0  0  0  0  0  1  0  0
  -16.8545   -6.4775   19.0442 F   0  0  0  0  0  0  0  0  0  0  0  0
  -21.2488   -4.9043   19.8320 F   0  0  0  0  0  0  0  0  0  0  0  0
  1  2  1  0  0  0  0
  1  5  2  0  0  0  0
  2  6  2  0  0  0  0
  3  8  2  0  0  0  0
  3 17  1  0  0  0  0
  4  9  1  0  0  0  0
  4 17  2  0  0  0  0
  5 19  1  0  0  0  0
  6 21  1  0  0  0  0
  7 10  2  0  0  0  0
  7 20  1  0  0  0  0
  8 24  1  0  0  0  0
  9 24  2  0  0  0  0
 10 25  1  0  0  0  0
 11 12  2  0  0  0  0
 11 26  1  0  0  0  0
 12 27  1  0  0  0  0
 13 22  1  0  0  0  0
 13 25  2  0  0  0  0
 14 23  1  0  0  0  0
 14 30  2  0  0  0  0
 15 27  2  0  0  0  0
 15 28  1  0  0  0  0
 16 23  2  0  0  0  0
 16 67  1  0  0  0  0
 17 29  1  0  0  0  0
 18 29  1  0  0  0  0
 18 31  2  0  0  0  0
 18 32  1  0  0  0  0
 19 21  2  0  0  0  0
 19 37  1  0  0  0  0
 20 22  2  0  0  0  0
 20 38  1  0  0  0  0
 21 46  1  0  0  0  0
 22 39  1  0  0  0  0
 23 57  1  0  0  0  0
 24 82  1  0  0  0  0
 25 83  1  0  0  0  0
 26 28  2  0  0  0  0
 26 82  1  0  0  0  0
 27 84  1  0  0  0  0
 28 85  1  0  0  0  0
 29 66  2  0  0  0  0
 30 61  1  0  0  0  0
 30 67  1  0  0  0  0
 31 68  1  0  0  0  0
 31 71  1  0  0  0  0
 32 72  1  0  0  0  0
 32 77  2  0  0  0  0
 33 47  1  0  0  0  0
 33 73  1  0  0  0  0
 33 78  2  0  0  0  0
 34 62  1  0  0  0  0
 34 69  1  0  0  0  0
 34 79  2  0  0  0  0
 35 63  1  0  0  0  0
 35 74  1  0  0  0  0
 35 80  2  0  0  0  0
 36 70  1  0  0  0  0
 36 75  1  0  0  0  0
 36 81  2  0  0  0  0
 37 40  1  0  0  0  0
 38 47  1  0  0  0  0
 39 69  1  0  0  0  0
 40 42  1  0  0  0  0
 41 43  1  0  0  0  0
 41 44  1  0  0  0  0
 42 46  1  0  0  0  0
 43 48  1  0  0  0  0
 44 70  1  0  0  0  0
 45 48  1  0  0  0  0
 45 70  1  0  0  0  0
 46 73  1  0  0  0  0
 47 69  1  0  0  0  0
 48 68  1  0  0  0  0
 49 61  1  0  0  0  0
 50 61  1  0  0  0  0
 51 63  1  0  0  0  0
 52 64  1  0  0  0  0
 53 65  1  0  0  0  0
 54 65  1  0  0  0  0
 55 65  1  0  0  0  0
 56 76  1  0  0  0  0
 57 75  1  0  0  0  0
 58 59  1  0  0  0  0
 58 64  1  0  0  0  0
 59 67  1  0  0  0  0
 60 64  1  0  0  0  0
 60 83  1  0  0  0  0
 62 65  1  0  0  0  0
 62 74  1  0  0  0  0
 63 76  1  0  0  0  0
 66 68  1  0  0  0  0
M  CHG  1  76   1
M  ISO  4  36 100  60 101  75 100  83 101
M  END
> <Batch ID>
0103

> <Smiles>
CNC(C)C(=O)NC(C(=O)N1Cc2cc([101O:1][101CH2:1]C(C)CCn3cc(C[100NH:0][100C:0](=O)N4CCCC(n5nc(-c6ccc(Oc7ccc(F)cc7F)cc6)c(C(N)=O)c5N)C4)cc3C(C)C)ccc2CC1C(=O)NC1CCCc2ccccc21)C(C)(C)C

> <Shape>
0.117

> <Color>
0.174

> <Negative vol penalty>
0.000

$$$$

  -OEChem-04052319413D

 87 95  0     1  0  0  0  0  0999 V2000
  -28.2733  -34.2454   24.2809 C   0  0  0  0  0  0  0  0  0  0  0  0
  -28.3599  -32.8978   23.9464 C   0  0  0  0  0  0  0  0  0  0  0  0
  -25.5772  -16.1725   23.0486 C   0  0  0  0  0  0  0  0  0  0  0  0
  -27.0819  -17.3084   21.5377 C   0  0  0  0  0  0  0  0  0  0  0  0
  -27.0421  -34.7976   24.6318 C   0  0  0  0  0  0  0  0  0  0  0  0
  -27.2154  -32.1014   23.9636 C   0  0  0  0  0  0  0  0  0  0  0  0
  -26.8644  -29.1164   19.8879 C   0  0  0  0  0  0  0  0  0  0  0  0
  -26.3491  -15.0151   22.9472 C   0  0  0  0  0  0  0  0  0  0  0  0
  -27.8539  -16.1510   21.4364 C   0  0  0  0  0  0  0  0  0  0  0  0
  -27.6546  -27.9679   19.8699 C   0  0  0  0  0  0  0  0  0  0  0  0
  -30.0199  -13.3879   20.4966 C   0  0  0  0  0  0  0  0  0  0  0  0
  -30.4413  -12.9989   19.2251 C   0  0  0  0  0  0  0  0  0  0  0  0
  -25.7470  -26.6521   20.5400 C   0  0  0  0  0  0  0  0  0  0  0  0
  -24.8376  -22.7806   14.8592 C   0  0  0  0  0  0  0  0  0  0  0  0
  -28.1383  -12.8106   18.5195 C   0  0  0  0  0  0  0  0  0  0  0  0
  -25.1540  -23.5829   16.9392 C   0  0  0  0  0  0  0  0  0  0  0  0
  -25.9436  -17.3191   22.3438 C   0  0  0  0  0  0  0  0  0  0  0  0
  -25.2961  -19.5580   23.3809 C   0  0  0  0  0  0  0  0  0  0  0  0
  -25.8803  -34.0098   24.6439 C   0  0  0  0  0  0  0  0  0  0  0  0
  -25.5099  -29.0429   20.2433 C   0  0  0  0  0  0  0  0  0  0  0  0
  -25.9678  -32.6433   24.3163 C   0  0  0  0  0  0  0  0  0  0  0  0
  -24.9411  -27.8008   20.5593 C   0  0  0  0  0  0  0  0  0  0  0  0
  -24.2005  -23.0610   16.0932 C   0  0  0  0  0  0  0  0  0  0  0  0
  -27.4874  -15.0043   22.1412 C   0  0  0  0  0  0  0  0  0  0  0  0
  -27.0966  -26.7360   20.1988 C   0  0  0  0  0  0  0  0  0  0  0  0
  -28.6577  -13.4882   20.7796 C   0  0  0  0  0  0  0  0  0  0  0  0
  -29.5005  -12.7103   18.2365 C   0  0  0  0  0  0  0  0  0  0  0  0
  -27.7169  -13.1996   19.7910 C   0  0  0  0  0  0  0  0  0  0  0  0
  -25.1463  -18.5148   22.4476 C   0  0  0  0  0  0  0  0  0  0  0  0
  -26.1611  -23.1396   14.9888 C   0  0  0  0  0  0  0  0  0  0  0  0
  -24.3024  -20.4505   23.0607 C   0  0  0  0  0  0  0  0  0  0  0  0
  -26.2485  -19.7071   24.4422 C   0  0  0  0  0  0  0  0  0  0  0  0
  -23.7326  -30.2720   22.5745 C   0  0  0  0  0  0  0  0  0  0  0  0
  -21.3015  -28.9252   20.9017 C   0  0  0  0  0  0  0  0  0  0  0  0
  -20.2857  -26.5479   18.6739 C   0  0  0  0  0  0  0  0  0  0  0  0
  -21.3239  -21.5913   17.9934 C   0  0  0  0  0  0  0  0  0  0  0  0
  -24.5801  -34.6404   25.0757 C   0  0  0  0  0  0  0  0  0  0  0  0
  -24.6646  -30.2870   20.2320 C   0  0  0  0  0  0  0  0  0  0  0  0
  -23.4871  -27.6651   20.9281 C   0  0  0  0  0  0  0  0  0  0  0  0
  -23.3504  -33.8147   24.7064 C   0  0  0  0  0  0  0  0  0  0  0  0
  -19.9289  -20.6510   21.1313 C   0  0  0  0  0  0  0  0  0  0  0  0
  -23.5620  -32.3490   25.0723 C   0  0  0  0  0  0  0  0  0  0  0  0
  -21.1213  -20.0911   21.9087 C   0  0  0  0  0  0  0  0  0  0  0  0
  -20.0074  -20.2998   19.6472 C   0  0  0  0  0  0  0  0  0  0  0  0
  -22.4626  -20.1202   19.7641 C   0  0  0  0  0  0  0  0  0  0  0  0
  -24.7445  -31.7526   24.2992 C   0  0  1  0  0  0  0  0  0  0  0  0
  -23.4208  -30.1723   21.1080 C   0  0  1  0  0  0  0  0  0  0  0  0
  -22.4566  -20.4962   21.2557 C   0  0  2  0  0  0  0  0  0  0  0  0
  -27.0253  -23.9330   12.7579 C   0  0  0  0  0  0  0  0  0  0  0  0
  -27.5760  -21.6107   13.5694 C   0  0  0  0  0  0  0  0  0  0  0  0
  -18.2319  -25.6688   17.5308 C   0  0  0  0  0  0  0  0  0  0  0  0
  -28.3554  -21.9259   17.8291 C   0  0  0  0  0  0  0  0  0  0  0  0
  -20.4660  -27.5281   23.4824 C   0  0  0  0  0  0  0  0  0  0  0  0
  -19.0585  -25.9805   22.1069 C   0  0  0  0  0  0  0  0  0  0  0  0
  -18.5699  -28.4266   22.1216 C   0  0  0  0  0  0  0  0  0  0  0  0
  -29.6638  -23.3648   20.1544 C   0  0  0  0  0  0  0  0  0  0  0  0
  -30.5594  -24.1733   17.9654 C   0  0  0  0  0  0  0  0  0  0  0  0
  -21.3606  -27.1928   15.9929 C   0  0  0  0  0  0  0  0  0  0  0  0
  -22.7781  -22.8364   16.4141 C   0  0  0  0  0  0  0  0  0  0  0  0
  -27.6441  -24.1358   16.8335 C   0  0  0  0  0  0  0  0  0  0  0  0
  -28.9515  -25.5834   19.2570 C   0  0  0  0  0  0  0  0  0  1  0  0
  -27.2653  -23.0593   14.0103 C   0  0  0  0  0  0  0  0  0  0  0  0
  -20.6181  -27.5791   20.9056 C   0  0  1  0  0  0  0  0  0  0  0  0
  -19.4039  -26.6338   17.4412 C   0  0  2  0  0  0  0  0  0  0  0  0
  -28.0878  -23.4130   18.1349 C   0  0  2  0  0  0  0  0  0  0  0  0
  -19.7060  -27.3811   22.1491 C   0  0  0  0  0  0  0  0  0  0  0  0
  -29.3019  -24.1252   18.8555 C   0  0  0  0  0  0  0  0  0  0  0  0
  -24.1368  -18.7237   21.5984 N   0  0  0  0  0  0  0  0  0  0  0  0
  -26.3421  -23.6257   16.2573 N   0  0  0  0  0  0  0  0  0  0  0  0
  -23.6432  -19.9085   21.9969 N   0  0  0  0  0  0  0  0  0  0  0  0
  -22.7035  -28.9114   20.9088 N   0  0  0  0  0  0  0  0  0  0  0  0
  -21.2973  -20.7118   19.0882 N   0  0  0  0  0  0  0  0  0  0  0  0
  -23.9368  -21.6381   23.5884 N   0  0  0  0  0  0  0  0  0  0  0  0
  -27.2009  -18.6966   24.6322 N   0  0  0  0  0  0  0  0  0  0  0  0
  -24.3573  -31.4497   22.9381 N   0  0  0  0  0  0  0  0  0  0  0  0
  -19.9196  -27.4723   19.6292 N   0  0  0  0  0  0  0  0  0  0  0  0
  -22.5875  -21.9361   17.5294 N   0  0  0  0  0  0  0  0  0  0  0  0
  -20.1899  -26.3063   16.2181 N   0  3  0  0  0  0  0  0  0  0  0  0
  -26.2444  -20.6991   25.2101 O   0  0  0  0  0  0  0  0  0  0  0  0
  -23.4276  -29.3494   23.3211 O   0  0  0  0  0  0  0  0  0  0  0  0
  -20.6167  -29.9510   20.8856 O   0  0  0  0  0  0  0  0  0  0  0  0
  -21.2048  -25.7389   18.7803 O   0  0  0  0  0  0  0  0  0  0  0  0
  -20.2978  -22.0406   17.4717 O   0  0  0  0  0  0  0  0  0  0  0  0
  -28.2410  -13.8752   22.0422 O   0  0  0  0  0  0  0  0  0  0  0  0
  -27.8658  -25.6135   20.1826 O   0  0  0  0  0  0  0  0  0  1  0  0
  -29.9053  -12.3382   17.0151 F   0  0  0  0  0  0  0  0  0  0  0  0
  -26.4069  -13.2953   20.0566 F   0  0  0  0  0  0  0  0  0  0  0  0
  1  2  1  0  0  0  0
  1  5  2  0  0  0  0
  2  6  2  0  0  0  0
  3  8  2  0  0  0  0
  3 17  1  0  0  0  0
  4  9  1  0  0  0  0
  4 17  2  0  0  0  0
  5 19  1  0  0  0  0
  6 21  1  0  0  0  0
  7 10  2  0  0  0  0
  7 20  1  0  0  0  0
  8 24  1  0  0  0  0
  9 24  2  0  0  0  0
 10 25  1  0  0  0  0
 11 12  2  0  0  0  0
 11 26  1  0  0  0  0
 12 27  1  0  0  0  0
 13 22  1  0  0  0  0
 13 25  2  0  0  0  0
 14 23  1  0  0  0  0
 14 30  2  0  0  0  0
 15 27  2  0  0  0  0
 15 28  1  0  0  0  0
 16 23  2  0  0  0  0
 16 69  1  0  0  0  0
 17 29  1  0  0  0  0
 18 29  1  0  0  0  0
 18 31  2  0  0  0  0
 18 32  1  0  0  0  0
 19 21  2  0  0  0  0
 19 37  1  0  0  0  0
 20 22  2  0  0  0  0
 20 38  1  0  0  0  0
 21 46  1  0  0  0  0
 22 39  1  0  0  0  0
 23 59  1  0  0  0  0
 24 84  1  0  0  0  0
 25 85  1  0  0  0  0
 26 28  2  0  0  0  0
 26 84  1  0  0  0  0
 27 86  1  0  0  0  0
 28 87  1  0  0  0  0
 29 68  2  0  0  0  0
 30 62  1  0  0  0  0
 30 69  1  0  0  0  0
 31 70  1  0  0  0  0
 31 73  1  0  0  0  0
 32 74  1  0  0  0  0
 32 79  2  0  0  0  0
 33 47  1  0  0  0  0
 33 75  1  0  0  0  0
 33 80  2  0  0  0  0
 34 63  1  0  0  0  0
 34 71  1  0  0  0  0
 34 81  2  0  0  0  0
 35 64  1  0  0  0  0
 35 76  1  0  0  0  0
 35 82  2  0  0  0  0
 36 72  1  0  0  0  0
 36 77  1  0  0  0  0
 36 83  2  0  0  0  0
 37 40  1  0  0  0  0
 38 47  1  0  0  0  0
 39 71  1  0  0  0  0
 40 42  1  0  0  0  0
 41 43  1  0  0  0  0
 41 44  1  0  0  0  0
 42 46  1  0  0  0  0
 43 48  1  0  0  0  0
 44 72  1  0  0  0  0
 45 48  1  0  0  0  0
 45 72  1  0  0  0  0
 46 75  1  0  0  0  0
 47 71  1  0  0  0  0
 48 70  1  0  0  0  0
 49 62  1  0  0  0  0
 50 62  1  0  0  0  0
 51 64  1  0  0  0  0
 52 65  1  0  0  0  0
 53 66  1  0  0  0  0
 54 66  1  0  0  0  0
 55 66  1  0  0  0  0
 56 67  1  0  0  0  0
 57 67  1  0  0  0  0
 58 78  1  0  0  0  0
 59 77  1  0  0  0  0
 60 65  1  0  0  0  0
 60 69  1  0  0  0  0
 61 67  1  0  0  0  0
 61 85  1  0  0  0  0
 63 66  1  0  0  0  0
 63 76  1  0  0  0  0
 64 78  1  0  0  0  0
 65 67  1  0  0  0  0
 68 70  1  0  0  0  0
M  CHG  1  78   1
M  ISO  4  36 100  61 101  77 100  85 101
M  END
> <Batch ID>
0103

> <Smiles>
CNC(C)C(=O)NC(C(=O)N1Cc2cc([101O:1][101CH2:1]C(C)(C)C(C)Cn3cc(C[100NH:0][100C:0](=O)N4CCCC(n5nc(-c6ccc(Oc7ccc(F)cc7F)cc6)c(C(N)=O)c5N)C4)cc3C(C)C)ccc2CC1C(=O)NC1CCCc2ccccc21)C(C)(C)C

> <Shape>
0.231

> <Color>
0.053

> <Negative vol penalty>
0.000

$$$$

  -OEChem-04052319413D

 90 98  0     1  0  0  0  0  0999 V2000
  -18.5398  -28.1011   22.4235 C   0  0  0  0  0  0  0  0  0  0  0  0
  -18.7214  -26.8263   21.8971 C   0  0  0  0  0  0  0  0  0  0  0  0
  -28.4707  -22.9513   20.4898 C   0  0  0  0  0  0  0  0  0  0  0  0
  -29.8011  -22.3243   18.5731 C   0  0  0  0  0  0  0  0  0  0  0  0
  -19.6180  -28.7808   22.9887 C   0  0  0  0  0  0  0  0  0  0  0  0
  -19.9817  -26.2307   21.9346 C   0  0  0  0  0  0  0  0  0  0  0  0
  -21.2207  -20.2798   22.6812 C   0  0  0  0  0  0  0  0  0  0  0  0
  -29.0123  -24.2359   20.4456 C   0  0  0  0  0  0  0  0  0  0  0  0
  -30.3427  -23.6089   18.5288 C   0  0  0  0  0  0  0  0  0  0  0  0
  -21.5282  -19.2650   21.7761 C   0  0  0  0  0  0  0  0  0  0  0  0
  -28.5696  -27.0653   18.6480 C   0  0  0  0  0  0  0  0  0  0  0  0
  -27.6948  -28.1428   18.7872 C   0  0  0  0  0  0  0  0  0  0  0  0
  -23.8787  -19.6194   22.1864 C   0  0  0  0  0  0  0  0  0  0  0  0
  -25.3881  -13.7483   19.7289 C   0  0  0  0  0  0  0  0  0  0  0  0
  -28.8984  -28.8659   20.7534 C   0  0  0  0  0  0  0  0  0  0  0  0
  -28.8651  -21.9954   19.5536 C   0  0  0  0  0  0  0  0  0  0  0  0
  -27.1473  -20.2107   18.9440 C   0  0  0  0  0  0  0  0  0  0  0  0
  -20.8900  -28.1894   23.0419 C   0  0  0  0  0  0  0  0  0  0  0  0
  -22.2420  -20.9807   23.3387 C   0  0  0  0  0  0  0  0  0  0  0  0
  -21.0782  -26.9036   22.4998 C   0  0  0  0  0  0  0  0  0  0  0  0
  -23.5815  -20.6410   23.1013 C   0  0  0  0  0  0  0  0  0  0  0  0
  -24.6620  -13.8718   20.9135 C   0  0  0  0  0  0  0  0  0  0  0  0
  -26.0296  -12.5473   19.4260 C   0  0  0  0  0  0  0  0  0  0  0  0
  -24.5776  -12.7943   21.7952 C   0  0  0  0  0  0  0  0  0  0  0  0
  -25.2192  -11.5933   21.4924 C   0  0  0  0  0  0  0  0  0  0  0  0
  -29.9483  -24.5648   19.4651 C   0  0  0  0  0  0  0  0  0  0  0  0
  -22.8574  -18.9366   21.5264 C   0  0  0  0  0  0  0  0  0  0  0  0
  -29.6087  -26.8880   19.5615 C   0  0  0  0  0  0  0  0  0  0  0  0
  -27.8592  -29.0431   19.8399 C   0  0  0  0  0  0  0  0  0  0  0  0
  -29.7731  -27.7883   20.6141 C   0  0  0  0  0  0  0  0  0  0  0  0
  -25.9452  -11.4698   20.3078 C   0  0  0  0  0  0  0  0  0  0  0  0
  -28.3064  -20.6681   19.5992 C   0  0  0  0  0  0  0  0  0  0  0  0
  -27.0473  -18.8894   19.3057 C   0  0  0  0  0  0  0  0  0  0  0  0
  -26.2421  -20.9169   18.0853 C   0  0  0  0  0  0  0  0  0  0  0  0
  -23.1898  -24.0137   23.4176 C   0  0  0  0  0  0  0  0  0  0  0  0
  -25.2047  -22.9174   25.7112 C   0  0  0  0  0  0  0  0  0  0  0  0
  -26.8858  -20.2763   27.0695 C   0  0  0  0  0  0  0  0  0  0  0  0
  -29.3698  -13.8858   20.1515 C   0  0  0  0  0  0  0  0  0  0  0  0
  -22.0355  -28.9820   23.6201 C   0  0  0  0  0  0  0  0  0  0  0  0
  -21.8930  -22.0547   24.3323 C   0  0  0  0  0  0  0  0  0  0  0  0
  -24.7144  -21.3494   23.7965 C   0  0  0  0  0  0  0  0  0  0  0  0
  -23.2563  -28.1301   23.9580 C   0  0  0  0  0  0  0  0  0  0  0  0
  -29.5433  -16.2393   22.8175 C   0  0  0  0  0  0  0  0  0  0  0  0
  -23.5828  -27.1845   22.8065 C   0  0  0  0  0  0  0  0  0  0  0  0
  -29.1477  -17.5638   22.1626 C   0  0  0  0  0  0  0  0  0  0  0  0
  -30.3640  -15.3651   21.8719 C   0  0  0  0  0  0  0  0  0  0  0  0
  -29.3440  -16.4421   19.9038 C   0  0  0  0  0  0  0  0  0  0  0  0
  -22.4247  -26.2142   22.5441 C   0  0  1  0  0  0  0  0  0  0  0  0
  -23.0266  -23.0501   24.5589 C   0  0  1  0  0  0  0  0  0  0  0  0
  -28.4675  -17.3342   20.7995 C   0  0  2  0  0  0  0  0  0  0  0  0
  -24.5580  -13.7202   24.1252 C   0  0  0  0  0  0  0  0  0  0  0  0
  -26.5351  -10.0779   22.9974 C   0  0  0  0  0  0  0  0  0  0  0  0
  -28.4837  -19.6976   28.9159 C   0  0  0  0  0  0  0  0  0  0  0  0
  -23.1955   -9.5373   20.9917 C   0  0  0  0  0  0  0  0  0  0  0  0
  -27.4933  -24.1508   24.1139 C   0  0  0  0  0  0  0  0  0  0  0  0
  -29.0858  -22.7586   25.4534 C   0  0  0  0  0  0  0  0  0  0  0  0
  -27.6620  -24.4629   26.5895 C   0  0  0  0  0  0  0  0  0  0  0  0
  -24.9499  -18.4197   28.3201 C   0  0  0  0  0  0  0  0  0  0  0  0
  -23.9770  -15.1804   21.2164 C   0  0  0  0  0  0  0  0  0  0  0  0
  -26.8047  -12.4183   18.1583 C   0  0  0  0  0  0  0  0  0  0  0  0
  -23.7995  -12.9283   23.0656 C   0  0  0  0  0  0  0  0  0  0  0  0
  -22.9646  -15.6067   20.1512 C   0  0  0  0  0  0  0  0  0  0  0  0
  -28.3212  -12.5380   18.3507 C   0  0  0  0  0  0  0  0  0  0  0  0
  -22.2158  -16.8858   20.5073 C   0  0  0  0  0  0  0  0  0  1  0  0
  -25.1411  -10.4260   22.4213 C   0  0  2  0  0  0  0  0  0  0  0  0
  -26.5992  -22.3393   25.7219 C   0  0  1  0  0  0  0  0  0  0  0  0
  -27.0233  -19.8002   28.5044 C   0  0  2  0  0  0  0  0  0  0  0  0
  -24.4524   -9.1792   21.7831 C   0  0  1  0  0  0  0  0  0  0  0  0
  -27.6890  -23.4157   25.4550 C   0  0  0  0  0  0  0  0  0  0  0  0
  -28.9000  -19.7149   20.3224 N   0  0  0  0  0  0  0  0  0  0  0  0
  -28.1108  -18.6454   20.1239 N   0  0  0  0  0  0  0  0  0  0  0  0
  -24.3222  -22.3964   24.7544 N   0  0  0  0  0  0  0  0  0  0  0  0
  -29.6627  -15.1849   20.5985 N   0  0  0  0  0  0  0  0  0  0  0  0
  -26.1541  -17.9243   19.0006 N   0  0  0  0  0  0  0  0  0  0  0  0
  -26.4930  -22.2697   17.8178 N   0  0  0  0  0  0  0  0  0  0  0  0
  -22.4193  -25.1552   23.5305 N   0  0  0  0  0  0  0  0  0  0  0  0
  -26.7439  -21.6459   26.9973 N   0  0  0  0  0  0  0  0  0  0  0  0
  -28.6976  -13.8045   18.9381 N   0  0  0  0  0  0  0  0  0  0  0  0
  -24.0378   -8.2084   22.8422 N   0  3  0  0  0  0  0  0  0  0  0  0
  -26.3937  -18.4593   28.6678 N   0  3  0  0  0  0  0  0  0  0  0  0
  -25.2314  -20.3691   17.5835 O   0  0  0  0  0  0  0  0  0  0  0  0
  -23.9590  -23.7423   22.5030 O   0  0  0  0  0  0  0  0  0  0  0  0
  -24.9071  -23.7938   26.5267 O   0  0  0  0  0  0  0  0  0  0  0  0
  -26.9063  -19.5103   26.1086 O   0  0  0  0  0  0  0  0  0  0  0  0
  -29.6794  -12.8737   20.7892 O   0  0  0  0  0  0  0  0  0  0  0  0
  -30.4768  -25.8183   19.4215 O   0  0  0  0  0  0  0  0  0  0  0  0
  -23.1603  -17.9469   20.6429 O   0  0  0  0  0  0  0  0  0  1  0  0
  -27.0200  -30.0786   19.9726 F   0  0  0  0  0  0  0  0  0  0  0  0
  -30.7703  -27.6239   21.4942 F   0  0  0  0  0  0  0  0  0  0  0  0
  -26.5626  -10.3153   20.0157 F   0  0  0  0  0  0  0  0  0  0  0  0
  1  2  1  0  0  0  0
  1  5  2  0  0  0  0
  2  6  2  0  0  0  0
  3  8  2  0  0  0  0
  3 16  1  0  0  0  0
  4  9  1  0  0  0  0
  4 16  2  0  0  0  0
  5 18  1  0  0  0  0
  6 20  1  0  0  0  0
  7 10  2  0  0  0  0
  7 19  1  0  0  0  0
  8 26  1  0  0  0  0
  9 26  2  0  0  0  0
 10 27  1  0  0  0  0
 11 12  2  0  0  0  0
 11 28  1  0  0  0  0
 12 29  1  0  0  0  0
 13 21  1  0  0  0  0
 13 27  2  0  0  0  0
 14 22  2  0  0  0  0
 14 23  1  0  0  0  0
 15 29  2  0  0  0  0
 15 30  1  0  0  0  0
 16 32  1  0  0  0  0
 17 32  1  0  0  0  0
 17 33  2  0  0  0  0
 17 34  1  0  0  0  0
 18 20  2  0  0  0  0
 18 39  1  0  0  0  0
 19 21  2  0  0  0  0
 19 40  1  0  0  0  0
 20 48  1  0  0  0  0
 21 41  1  0  0  0  0
 22 24  1  0  0  0  0
 22 59  1  0  0  0  0
 23 31  2  0  0  0  0
 23 60  1  0  0  0  0
 24 25  2  0  0  0  0
 24 61  1  0  0  0  0
 25 31  1  0  0  0  0
 25 65  1  0  0  0  0
 26 86  1  0  0  0  0
 27 87  1  0  0  0  0
 28 30  2  0  0  0  0
 28 86  1  0  0  0  0
 29 88  1  0  0  0  0
 30 89  1  0  0  0  0
 31 90  1  0  0  0  0
 32 70  2  0  0  0  0
 33 71  1  0  0  0  0
 33 74  1  0  0  0  0
 34 75  1  0  0  0  0
 34 81  2  0  0  0  0
 35 49  1  0  0  0  0
 35 76  1  0  0  0  0
 35 82  2  0  0  0  0
 36 66  1  0  0  0  0
 36 72  1  0  0  0  0
 36 83  2  0  0  0  0
 37 67  1  0  0  0  0
 37 77  1  0  0  0  0
 37 84  2  0  0  0  0
 38 73  1  0  0  0  0
 38 78  1  0  0  0  0
 38 85  2  0  0  0  0
 39 42  1  0  0  0  0
 40 49  1  0  0  0  0
 41 72  1  0  0  0  0
 42 44  1  0  0  0  0
 43 45  1  0  0  0  0
 43 46  1  0  0  0  0
 44 48  1  0  0  0  0
 45 50  1  0  0  0  0
 46 73  1  0  0  0  0
 47 50  1  0  0  0  0
 47 73  1  0  0  0  0
 48 76  1  0  0  0  0
 49 72  1  0  0  0  0
 50 71  1  0  0  0  0
 51 61  1  0  0  0  0
 52 65  1  0  0  0  0
 53 67  1  0  0  0  0
 54 68  1  0  0  0  0
 55 69  1  0  0  0  0
 56 69  1  0  0  0  0
 57 69  1  0  0  0  0
 58 80  1  0  0  0  0
 59 62  1  0  0  0  0
 60 63  1  0  0  0  0
 62 64  1  0  0  0  0
 63 78  1  0  0  0  0
 64 87  1  0  0  0  0
 65 68  1  0  0  0  0
 66 69  1  0  0  0  0
 66 77  1  0  0  0  0
 67 80  1  0  0  0  0
 68 79  1  0  0  0  0
 70 71  1  0  0  0  0
M  CHG  2  79   1  80   1
M  ISO  4  38 100  64 101  78 100  87 101
M  END
> <Batch ID>
0103

> <Smiles>
CCc1c(CC[101CH2:1][101O:1]c2ccc3c(c2)CN(C(=O)C(NC(=O)C(C)NC)C(C)(C)C)C(C(=O)NC2CCCc4ccccc42)C3)cc(CC[100NH:0][100C:0](=O)N2CCCC(n3nc(-c4ccc(Oc5ccc(F)cc5F)cc4)c(C(N)=O)c3N)C2)c(F)c1C(C)C(C)N

> <Shape>
0.257

> <Color>
0.053

> <Negative vol penalty>
0.000

$$$$

  -OEChem-04052319413D

 86 94  0     1  0  0  0  0  0999 V2000
  -13.9887  -22.8332   21.0048 C   0  0  0  0  0  0  0  0  0  0  0  0
  -15.3401  -23.1006   21.1986 C   0  0  0  0  0  0  0  0  0  0  0  0
  -29.2107  -17.4616   19.3646 C   0  0  0  0  0  0  0  0  0  0  0  0
  -30.5092  -18.0689   21.3093 C   0  0  0  0  0  0  0  0  0  0  0  0
  -13.4156  -21.6967   21.5737 C   0  0  0  0  0  0  0  0  0  0  0  0
  -16.1190  -22.2322   21.9625 C   0  0  0  0  0  0  0  0  0  0  0  0
  -20.5900  -21.2270   19.8073 C   0  0  0  0  0  0  0  0  0  0  0  0
  -29.9246  -16.2678   19.2607 C   0  0  0  0  0  0  0  0  0  0  0  0
  -31.2231  -16.8751   21.2055 C   0  0  0  0  0  0  0  0  0  0  0  0
  -21.5822  -22.2004   19.9155 C   0  0  0  0  0  0  0  0  0  0  0  0
  -31.1606  -12.8957   18.6981 C   0  0  0  0  0  0  0  0  0  0  0  0
  -30.4381  -11.7268   18.4594 C   0  0  0  0  0  0  0  0  0  0  0  0
  -22.5920  -20.9617   21.7224 C   0  0  0  0  0  0  0  0  0  0  0  0
  -24.0110  -30.2516   21.7294 C   0  0  0  0  0  0  0  0  0  0  0  0
  -29.2136  -12.0639   20.5147 C   0  0  0  0  0  0  0  0  0  0  0  0
  -29.5030  -18.3622   20.3889 C   0  0  0  0  0  0  0  0  0  0  0  0
  -27.5793  -19.8168   21.2201 C   0  0  0  0  0  0  0  0  0  0  0  0
  -14.1900  -20.8087   22.3370 C   0  0  0  0  0  0  0  0  0  0  0  0
  -20.5852  -20.1172   20.6646 C   0  0  0  0  0  0  0  0  0  0  0  0
  -15.5554  -21.0834   22.5433 C   0  0  0  0  0  0  0  0  0  0  0  0
  -21.6001  -19.9743   21.6214 C   0  0  0  0  0  0  0  0  0  0  0  0
  -24.5412  -31.3198   20.9645 C   0  0  0  0  0  0  0  0  0  0  0  0
  -30.9307  -15.9745   20.1812 C   0  0  0  0  0  0  0  0  0  0  0  0
  -22.5818  -22.0694   20.8751 C   0  0  0  0  0  0  0  0  0  0  0  0
  -30.9097  -13.6488   19.8451 C   0  0  0  0  0  0  0  0  0  0  0  0
  -29.4646  -11.3108   19.3676 C   0  0  0  0  0  0  0  0  0  0  0  0
  -29.9362  -13.2329   20.7534 C   0  0  0  0  0  0  0  0  0  0  0  0
  -28.7664  -19.5958   20.4963 C   0  0  0  0  0  0  0  0  0  0  0  0
  -24.7745  -29.1365   21.4631 C   0  0  0  0  0  0  0  0  0  0  0  0
  -25.6125  -30.8248   20.2540 C   0  0  0  0  0  0  0  0  0  0  0  0
  -27.2864  -21.1411   21.0032 C   0  0  0  0  0  0  0  0  0  0  0  0
  -26.8103  -18.9065   22.0173 C   0  0  0  0  0  0  0  0  0  0  0  0
  -18.5792  -18.9826   22.8537 C   0  0  0  0  0  0  0  0  0  0  0  0
  -28.9432  -26.3852   20.8230 C   0  0  0  0  0  0  0  0  0  0  0  0
  -20.6637  -16.4979   22.9123 C   0  0  0  0  0  0  0  0  0  0  0  0
  -23.8287  -15.3573   22.3388 C   0  0  0  0  0  0  0  0  0  0  0  0
  -13.5156  -19.6182   22.9714 C   0  0  0  0  0  0  0  0  0  0  0  0
  -19.5231  -19.0624   20.5173 C   0  0  0  0  0  0  0  0  0  0  0  0
  -21.6515  -18.7914   22.5523 C   0  0  0  0  0  0  0  0  0  0  0  0
  -14.4934  -18.5506   23.4554 C   0  0  0  0  0  0  0  0  0  0  0  0
  -29.2479  -24.4671   17.7481 C   0  0  0  0  0  0  0  0  0  0  0  0
  -15.6400  -19.1898   24.2324 C   0  0  0  0  0  0  0  0  0  0  0  0
  -29.0803  -23.0377   18.2616 C   0  0  0  0  0  0  0  0  0  0  0  0
  -29.9903  -25.3418   18.7550 C   0  0  0  0  0  0  0  0  0  0  0  0
  -29.1976  -23.9319   20.6280 C   0  0  0  0  0  0  0  0  0  0  0  0
  -16.4387  -20.1522   23.3450 C   0  0  1  0  0  0  0  0  0  0  0  0
  -19.3230  -18.2351   21.7834 C   0  0  1  0  0  0  0  0  0  0  0  0
  -28.4266  -23.0248   19.6545 C   0  0  2  0  0  0  0  0  0  0  0  0
  -24.0334  -32.7059   20.9397 C   0  0  0  0  0  0  0  0  0  0  0  0
  -26.5216  -31.5029   19.3054 C   0  0  0  0  0  0  0  0  0  0  0  0
  -30.5861  -28.1947   20.5885 C   0  0  0  0  0  0  0  0  0  0  0  0
  -25.2401  -13.2901   22.5172 C   0  0  0  0  0  0  0  0  0  0  0  0
  -22.2795  -27.1453   21.4645 C   0  0  0  0  0  0  0  0  0  0  0  0
  -20.8536  -16.8911   25.9321 C   0  0  0  0  0  0  0  0  0  0  0  0
  -22.9273  -15.4884   25.9142 C   0  0  0  0  0  0  0  0  0  0  0  0
  -20.7511  -14.5034   25.1954 C   0  0  0  0  0  0  0  0  0  0  0  0
  -24.3439  -15.3172   19.4247 C   0  0  0  0  0  0  0  0  0  0  0  0
  -24.6555  -27.7314   22.0026 C   0  0  0  0  0  0  0  0  0  0  0  0
  -28.1293  -28.7504   20.6976 C   0  0  0  0  0  0  0  0  0  0  0  0
  -24.0510  -25.3204   21.4372 C   0  0  0  0  0  0  0  0  0  0  0  0
  -26.7546  -28.6093   20.0270 C   0  0  0  0  0  0  0  0  0  0  0  0
  -23.1956  -24.3535   20.6258 C   0  0  0  0  0  0  0  0  0  1  0  0
  -29.1793  -27.7421   20.2092 C   0  0  2  0  0  0  0  0  0  0  0  0
  -21.9144  -16.1698   23.6915 C   0  0  1  0  0  0  0  0  0  0  0  0
  -24.3393  -14.1226   21.6182 C   0  0  2  0  0  0  0  0  0  0  0  0
  -23.7441  -26.8065   21.1637 C   0  0  1  0  0  0  0  0  0  0  0  0
  -21.6098  -15.7866   25.1672 C   0  0  0  0  0  0  0  0  0  0  0  0
  -29.1979  -20.6918   19.8666 N   0  0  0  0  0  0  0  0  0  0  0  0
  -25.7448  -29.4966   20.5647 N   0  0  0  0  0  0  0  0  0  0  0  0
  -28.2770  -21.6143   20.1939 N   0  0  0  0  0  0  0  0  0  0  0  0
  -20.5872  -17.7900   22.3734 N   0  0  0  0  0  0  0  0  0  0  0  0
  -29.3525  -25.2806   20.0756 N   0  0  0  0  0  0  0  0  0  0  0  0
  -26.2806  -21.9352   21.4276 N   0  0  0  0  0  0  0  0  0  0  0  0
  -27.2535  -17.5820   22.1341 N   0  0  0  0  0  0  0  0  0  0  0  0
  -17.3243  -19.4151   22.4693 N   0  0  0  0  0  0  0  0  0  0  0  0
  -22.6060  -15.1316   22.9350 N   0  0  0  0  0  0  0  0  0  0  0  0
  -25.1153  -14.5133   20.4074 N   0  3  0  0  0  0  0  0  0  0  0  0
  -25.7522  -19.2530   22.5953 O   0  0  0  0  0  0  0  0  0  0  0  0
  -19.1042  -19.1530   23.9478 O   0  0  0  0  0  0  0  0  0  0  0  0
  -28.4084  -26.3111   21.9323 O   0  0  0  0  0  0  0  0  0  0  0  0
  -19.7901  -15.6371   22.7804 O   0  0  0  0  0  0  0  0  0  0  0  0
  -24.4538  -16.4150   22.3727 O   0  0  0  0  0  0  0  0  0  0  0  0
  -31.6274  -14.8096   20.0803 O   0  0  0  0  0  0  0  0  0  0  0  0
  -23.5510  -23.0184   20.9832 O   0  0  0  0  0  0  0  0  0  1  0  0
  -28.7697  -10.1890   19.1375 F   0  0  0  0  0  0  0  0  0  0  0  0
  -29.6899  -13.9528   21.8565 F   0  0  0  0  0  0  0  0  0  0  0  0
  1  2  1  0  0  0  0
  1  5  2  0  0  0  0
  2  6  2  0  0  0  0
  3  8  2  0  0  0  0
  3 16  1  0  0  0  0
  4  9  1  0  0  0  0
  4 16  2  0  0  0  0
  5 18  1  0  0  0  0
  6 20  1  0  0  0  0
  7 10  2  0  0  0  0
  7 19  1  0  0  0  0
  8 23  1  0  0  0  0
  9 23  2  0  0  0  0
 10 24  1  0  0  0  0
 11 12  2  0  0  0  0
 11 25  1  0  0  0  0
 12 26  1  0  0  0  0
 13 21  1  0  0  0  0
 13 24  2  0  0  0  0
 14 22  1  0  0  0  0
 14 29  2  0  0  0  0
 15 26  2  0  0  0  0
 15 27  1  0  0  0  0
 16 28  1  0  0  0  0
 17 28  1  0  0  0  0
 17 31  2  0  0  0  0
 17 32  1  0  0  0  0
 18 20  2  0  0  0  0
 18 37  1  0  0  0  0
 19 21  2  0  0  0  0
 19 38  1  0  0  0  0
 20 46  1  0  0  0  0
 21 39  1  0  0  0  0
 22 30  2  0  0  0  0
 22 49  1  0  0  0  0
 23 83  1  0  0  0  0
 24 84  1  0  0  0  0
 25 27  2  0  0  0  0
 25 83  1  0  0  0  0
 26 85  1  0  0  0  0
 27 86  1  0  0  0  0
 28 68  2  0  0  0  0
 29 58  1  0  0  0  0
 29 69  1  0  0  0  0
 30 50  1  0  0  0  0
 30 69  1  0  0  0  0
 31 70  1  0  0  0  0
 31 73  1  0  0  0  0
 32 74  1  0  0  0  0
 32 78  2  0  0  0  0
 33 47  1  0  0  0  0
 33 75  1  0  0  0  0
 33 79  2  0  0  0  0
 34 63  1  0  0  0  0
 34 72  1  0  0  0  0
 34 80  2  0  0  0  0
 35 64  1  0  0  0  0
 35 71  1  0  0  0  0
 35 81  2  0  0  0  0
 36 65  1  0  0  0  0
 36 76  1  0  0  0  0
 36 82  2  0  0  0  0
 37 40  1  0  0  0  0
 38 47  1  0  0  0  0
 39 71  1  0  0  0  0
 40 42  1  0  0  0  0
 41 43  1  0  0  0  0
 41 44  1  0  0  0  0
 42 46  1  0  0  0  0
 43 48  1  0  0  0  0
 44 72  1  0  0  0  0
 45 48  1  0  0  0  0
 45 72  1  0  0  0  0
 46 75  1  0  0  0  0
 47 71  1  0  0  0  0
 48 70  1  0  0  0  0
 51 63  1  0  0  0  0
 52 65  1  0  0  0  0
 53 66  1  0  0  0  0
 54 67  1  0  0  0  0
 55 67  1  0  0  0  0
 56 67  1  0  0  0  0
 57 77  1  0  0  0  0
 58 66  1  0  0  0  0
 59 61  1  0  0  0  0
 59 63  1  0  0  0  0
 60 62  1  0  0  0  0
 60 66  1  0  0  0  0
 61 69  1  0  0  0  0
 62 84  1  0  0  0  0
 64 67  1  0  0  0  0
 64 76  1  0  0  0  0
 65 77  1  0  0  0  0
 68 70  1  0  0  0  0
M  CHG  1  77   1
M  ISO  4  34 100  62 101  63 100  84 101
M  END
> <Batch ID>
0103

> <Smiles>
CNC(C)C(=O)NC(C(=O)N1Cc2cc([101O:1][101CH2:1]CC(C)Cc3cc(C)c(C)n3CC[100CH:0](C)[100C:0](=O)N3CCCC(n4nc(-c5ccc(Oc6ccc(F)cc6F)cc5)c(C(N)=O)c4N)C3)ccc2CC1C(=O)NC1CCCc2ccccc21)C(C)(C)C

> <Shape>
0.206

> <Color>
0.072

> <Negative vol penalty>
0.000

$$$$

  -OEChem-04052319413D

 74 81  0     1  0  0  0  0  0999 V2000
  -21.1072  -32.8965   18.5299 C   0  0  0  0  0  0  0  0  0  0  0  0
  -22.3243  -32.2908   18.8250 C   0  0  0  0  0  0  0  0  0  0  0  0
  -25.9134  -14.3406   21.4444 C   0  0  0  0  0  0  0  0  0  0  0  0
  -24.5847  -15.4212   19.7404 C   0  0  0  0  0  0  0  0  0  0  0  0
  -20.0503  -32.8123   19.4354 C   0  0  0  0  0  0  0  0  0  0  0  0
  -22.4856  -31.6014   20.0264 C   0  0  0  0  0  0  0  0  0  0  0  0
  -24.8185  -27.1487   19.4131 C   0  0  0  0  0  0  0  0  0  0  0  0
  -24.8869  -13.4216   21.6621 C   0  0  0  0  0  0  0  0  0  0  0  0
  -23.5581  -14.5022   19.9580 C   0  0  0  0  0  0  0  0  0  0  0  0
  -26.2028  -27.1724   19.2492 C   0  0  0  0  0  0  0  0  0  0  0  0
  -23.6926  -10.6247   20.1843 C   0  0  0  0  0  0  0  0  0  0  0  0
  -24.0405   -9.2785   20.2954 C   0  0  0  0  0  0  0  0  0  0  0  0
  -26.4818  -26.5798   21.5709 C   0  0  0  0  0  0  0  0  0  0  0  0
  -23.1087   -9.2216   22.5238 C   0  0  0  0  0  0  0  0  0  0  0  0
  -25.7623  -15.3404   20.4836 C   0  0  0  0  0  0  0  0  0  0  0  0
  -27.8909  -16.1722   19.3501 C   0  0  0  0  0  0  0  0  0  0  0  0
  -20.1957  -32.1134   20.6441 C   0  0  0  0  0  0  0  0  0  0  0  0
  -24.2546  -26.8506   20.6620 C   0  0  0  0  0  0  0  0  0  0  0  0
  -21.4301  -31.5090   20.9495 C   0  0  0  0  0  0  0  0  0  0  0  0
  -25.0900  -26.5505   21.7474 C   0  0  0  0  0  0  0  0  0  0  0  0
  -23.7093  -13.5024   20.9189 C   0  0  0  0  0  0  0  0  0  0  0  0
  -27.0348  -26.8908   20.3289 C   0  0  0  0  0  0  0  0  0  0  0  0
  -23.0529  -11.2694   21.2430 C   0  0  0  0  0  0  0  0  0  0  0  0
  -23.7485   -8.5770   21.4651 C   0  0  0  0  0  0  0  0  0  0  0  0
  -22.7609  -10.5679   22.4127 C   0  0  0  0  0  0  0  0  0  0  0  0
  -26.8221  -16.2903   20.2587 C   0  0  0  0  0  0  0  0  0  0  0  0
  -28.6137  -17.3280   19.5182 C   0  0  0  0  0  0  0  0  0  0  0  0
  -28.2024  -15.1126   18.4359 C   0  0  0  0  0  0  0  0  0  0  0  0
  -22.4070  -28.4167   22.7204 C   0  0  0  0  0  0  0  0  0  0  0  0
  -22.3911  -25.5688   24.2733 C   0  0  0  0  0  0  0  0  0  0  0  0
  -23.9337  -22.5826   24.8646 C   0  0  0  0  0  0  0  0  0  0  0  0
  -28.8315  -22.7749   19.9978 C   0  0  0  0  0  0  0  0  0  0  0  0
  -19.0398  -32.0899   21.6126 C   0  0  0  0  0  0  0  0  0  0  0  0
  -22.7592  -26.8029   20.8158 C   0  0  0  0  0  0  0  0  0  0  0  0
  -24.5343  -26.2045   23.1039 C   0  0  0  0  0  0  0  0  0  0  0  0
  -19.1743  -31.0226   22.6957 C   0  0  0  0  0  0  0  0  0  0  0  0
  -28.2997  -20.9243   23.0620 C   0  0  0  0  0  0  0  0  0  0  0  0
  -20.5769  -31.0440   23.2950 C   0  0  0  0  0  0  0  0  0  0  0  0
  -27.9542  -19.5352   22.5224 C   0  0  0  0  0  0  0  0  0  0  0  0
  -27.7100  -22.0219   22.1813 C   0  0  0  0  0  0  0  0  0  0  0  0
  -27.7584  -20.5505   20.2049 C   0  0  0  0  0  0  0  0  0  0  0  0
  -21.6361  -30.7313   22.2312 C   0  0  1  0  0  0  0  0  0  0  0  0
  -22.3006  -26.9908   22.2586 C   0  0  1  0  0  0  0  0  0  0  0  0
  -28.3451  -19.3972   21.0390 C   0  0  2  0  0  0  0  0  0  0  0  0
  -23.7011  -20.4777   26.2110 C   0  0  0  0  0  0  0  0  0  0  0  0
  -29.6497  -26.8011   18.1209 C   0  0  0  0  0  0  0  0  0  0  0  0
  -23.3094  -27.0661   26.7683 C   0  0  0  0  0  0  0  0  0  0  0  0
  -23.9635  -24.8641   27.7641 C   0  0  0  0  0  0  0  0  0  0  0  0
  -21.5786  -25.3094   27.1838 C   0  0  0  0  0  0  0  0  0  0  0  0
  -23.7878  -20.9044   22.4312 C   0  0  0  0  0  0  0  0  0  0  0  0
  -29.8637  -25.0307   19.9398 C   0  0  0  0  0  0  0  0  0  0  0  0
  -23.2539  -24.9225   25.3302 C   0  0  1  0  0  0  0  0  0  0  0  0
  -23.4020  -21.1609   24.8856 C   0  0  2  0  0  0  0  0  0  0  0  0
  -28.9446  -26.0126   19.2167 C   0  0  1  0  0  0  0  0  0  1  0  0
  -23.0372  -25.5489   26.7366 C   0  0  0  0  0  0  0  0  0  0  0  0
  -26.8589  -17.4310   20.9526 N   0  0  0  0  0  0  0  0  0  0  0  0
  -27.9596  -18.0402   20.4800 N   0  0  0  0  0  0  0  0  0  0  0  0
  -23.0658  -26.1771   23.2054 N   0  0  0  0  0  0  0  0  0  0  0  0
  -28.1353  -21.8434   20.7858 N   0  0  0  0  0  0  0  0  0  0  0  0
  -29.7387  -17.7943   18.9357 N   0  0  0  0  0  0  0  0  0  0  0  0
  -27.3542  -13.9977   18.3912 N   0  0  0  0  0  0  0  0  0  0  0  0
  -21.6764  -29.3102   21.9605 N   0  0  0  0  0  0  0  0  0  0  0  0
  -22.9771  -23.4916   25.2642 N   0  0  0  0  0  0  0  0  0  0  0  0
  -29.1445  -23.9769   20.6206 N   0  0  0  0  0  0  0  0  0  0  0  0
  -24.0227  -20.3595   23.7932 N   0  3  0  0  0  0  0  0  0  0  0  0
  -29.2123  -15.1458   17.6926 O   0  0  0  0  0  0  0  0  0  0  0  0
  -23.0993  -28.6861   23.6949 O   0  0  0  0  0  0  0  0  0  0  0  0
  -21.1635  -25.5289   24.3873 O   0  0  0  0  0  0  0  0  0  0  0  0
  -25.0839  -22.8587   24.5308 O   0  0  0  0  0  0  0  0  0  0  0  0
  -29.1553  -22.5500   18.8266 O   0  0  0  0  0  0  0  0  0  0  0  0
  -22.7075  -12.6057   21.1309 O   0  0  0  0  0  0  0  0  0  0  0  0
  -28.3863  -26.9139   20.1718 O   0  0  0  0  0  0  0  0  0  1  0  0
  -24.0812   -7.2838   21.5711 F   0  0  0  0  0  0  0  0  0  0  0  0
  -22.1454  -11.1816   23.4327 F   0  0  0  0  0  0  0  0  0  0  0  0
  1  2  1  0  0  0  0
  1  5  2  0  0  0  0
  2  6  2  0  0  0  0
  3  8  2  0  0  0  0
  3 15  1  0  0  0  0
  4  9  1  0  0  0  0
  4 15  2  0  0  0  0
  5 17  1  0  0  0  0
  6 19  1  0  0  0  0
  7 10  2  0  0  0  0
  7 18  1  0  0  0  0
  8 21  1  0  0  0  0
  9 21  2  0  0  0  0
 10 22  1  0  0  0  0
 11 12  2  0  0  0  0
 11 23  1  0  0  0  0
 12 24  1  0  0  0  0
 13 20  1  0  0  0  0
 13 22  2  0  0  0  0
 14 24  2  0  0  0  0
 14 25  1  0  0  0  0
 15 26  1  0  0  0  0
 16 26  1  0  0  0  0
 16 27  2  0  0  0  0
 16 28  1  0  0  0  0
 17 19  2  0  0  0  0
 17 33  1  0  0  0  0
 18 20  2  0  0  0  0
 18 34  1  0  0  0  0
 19 42  1  0  0  0  0
 20 35  1  0  0  0  0
 21 71  1  0  0  0  0
 22 72  1  0  0  0  0
 23 25  2  0  0  0  0
 23 71  1  0  0  0  0
 24 73  1  0  0  0  0
 25 74  1  0  0  0  0
 26 56  2  0  0  0  0
 27 57  1  0  0  0  0
 27 60  1  0  0  0  0
 28 61  1  0  0  0  0
 28 66  2  0  0  0  0
 29 43  1  0  0  0  0
 29 62  1  0  0  0  0
 29 67  2  0  0  0  0
 30 52  1  0  0  0  0
 30 58  1  0  0  0  0
 30 68  2  0  0  0  0
 31 53  1  0  0  0  0
 31 63  1  0  0  0  0
 31 69  2  0  0  0  0
 32 59  1  0  0  0  0
 32 64  1  0  0  0  0
 32 70  2  0  0  0  0
 33 36  1  0  0  0  0
 34 43  1  0  0  0  0
 35 58  1  0  0  0  0
 36 38  1  0  0  0  0
 37 39  1  0  0  0  0
 37 40  1  0  0  0  0
 38 42  1  0  0  0  0
 39 44  1  0  0  0  0
 40 59  1  0  0  0  0
 41 44  1  0  0  0  0
 41 59  1  0  0  0  0
 42 62  1  0  0  0  0
 43 58  1  0  0  0  0
 44 57  1  0  0  0  0
 45 53  1  0  0  0  0
 46 54  1  0  0  0  0
 47 55  1  0  0  0  0
 48 55  1  0  0  0  0
 49 55  1  0  0  0  0
 50 65  1  0  0  0  0
 51 54  1  0  0  0  0
 51 64  1  0  0  0  0
 52 55  1  0  0  0  0
 52 63  1  0  0  0  0
 53 65  1  0  0  0  0
 54 72  1  0  0  0  0
 56 57  1  0  0  0  0
M  CHG  1  65   1
M  ISO  4  32 100  54 101  64 100  72 101
M  END
> <Batch ID>
0103

> <Smiles>
CNC(C)C(=O)NC(C(=O)N1Cc2cc([101O:1][101CH:1](C)C[100NH:0][100C:0](=O)N3CCCC(n4nc(-c5ccc(Oc6ccc(F)cc6F)cc5)c(C(N)=O)c4N)C3)ccc2CC1C(=O)NC1CCCc2ccccc21)C(C)(C)C

> <Shape>
0.204

> <Color>
0.087

> <Negative vol penalty>
0.000

$$$$

  -OEChem-04052319413D

 84 92  0     1  0  0  0  0  0999 V2000
  -27.7663  -18.6924   19.1616 C   0  0  0  0  0  0  0  0  0  0  0  0
  -28.2599  -17.5562   19.7948 C   0  0  0  0  0  0  0  0  0  0  0  0
  -23.2295   -9.8292   19.9116 C   0  0  0  0  0  0  0  0  0  0  0  0
  -23.7829   -9.9293   22.2613 C   0  0  0  0  0  0  0  0  0  0  0  0
  -28.0385  -19.9551   19.6862 C   0  0  0  0  0  0  0  0  0  0  0  0
  -29.0270  -17.6823   20.9524 C   0  0  0  0  0  0  0  0  0  0  0  0
  -29.1246  -13.8622   25.7382 C   0  0  0  0  0  0  0  0  0  0  0  0
  -22.5029   -8.6593   20.1326 C   0  0  0  0  0  0  0  0  0  0  0  0
  -23.0562   -8.7594   22.4822 C   0  0  0  0  0  0  0  0  0  0  0  0
  -29.9949  -12.8352   26.1009 C   0  0  0  0  0  0  0  0  0  0  0  0
  -20.8005   -5.4480   20.0173 C   0  0  0  0  0  0  0  0  0  0  0  0
  -20.9787   -4.3933   19.1221 C   0  0  0  0  0  0  0  0  0  0  0  0
  -31.1951  -14.3646   27.5291 C   0  0  0  0  0  0  0  0  0  0  0  0
  -23.3275   -4.3146   19.6825 C   0  0  0  0  0  0  0  0  0  0  0  0
  -33.5729  -14.2307   24.2223 C   0  0  0  0  0  0  0  0  0  0  0  0
  -23.8696  -10.4642   20.9760 C   0  0  0  0  0  0  0  0  0  0  0  0
  -24.1415  -12.9949   20.8050 C   0  0  0  0  0  0  0  0  0  0  0  0
  -28.8012  -20.0962   20.8563 C   0  0  0  0  0  0  0  0  0  0  0  0
  -29.2900  -15.1530   26.2607 C   0  0  0  0  0  0  0  0  0  0  0  0
  -29.3108  -18.9482   21.4924 C   0  0  0  0  0  0  0  0  0  0  0  0
  -30.3240  -15.4057   27.1733 C   0  0  0  0  0  0  0  0  0  0  0  0
  -33.7899  -14.2333   22.8661 C   0  0  0  0  0  0  0  0  0  0  0  0
  -22.4162   -8.1244   21.4179 C   0  0  0  0  0  0  0  0  0  0  0  0
  -31.0320  -13.0869   26.9942 C   0  0  0  0  0  0  0  0  0  0  0  0
  -21.8858   -5.9362   20.7450 C   0  0  0  0  0  0  0  0  0  0  0  0
  -22.2422   -3.8265   18.9548 C   0  0  0  0  0  0  0  0  0  0  0  0
  -23.1493   -5.3694   20.5776 C   0  0  0  0  0  0  0  0  0  0  0  0
  -24.6208  -11.6725   20.7483 C   0  0  0  0  0  0  0  0  0  0  0  0
  -34.8699  -13.3495   22.6807 C   0  0  0  0  0  0  0  0  0  0  0  0
  -25.2375  -13.7701   20.5147 C   0  0  0  0  0  0  0  0  0  0  0  0
  -22.8234  -13.4793   21.0943 C   0  0  0  0  0  0  0  0  0  0  0  0
  -29.9007  -18.0145   25.0185 C   0  0  0  0  0  0  0  0  0  0  0  0
  -29.4108  -19.0108   28.0664 C   0  0  0  0  0  0  0  0  0  0  0  0
  -29.3920  -18.2542   31.3941 C   0  0  0  0  0  0  0  0  0  0  0  0
  -30.8402  -13.9183   21.5147 C   0  0  0  0  0  0  0  0  0  0  0  0
  -29.1089  -21.4844   21.3593 C   0  0  0  0  0  0  0  0  0  0  0  0
  -28.3266  -16.2436   25.8800 C   0  0  0  0  0  0  0  0  0  0  0  0
  -30.5322  -16.7692   27.7784 C   0  0  0  0  0  0  0  0  0  0  0  0
  -29.6148  -21.5123   22.7992 C   0  0  0  0  0  0  0  0  0  0  0  0
  -29.5669  -12.9800   18.2596 C   0  0  0  0  0  0  0  0  0  0  0  0
  -30.6876  -20.4484   23.0088 C   0  0  0  0  0  0  0  0  0  0  0  0
  -28.1030  -12.6748   18.5820 C   0  0  0  0  0  0  0  0  0  0  0  0
  -30.4880  -12.5242   19.3874 C   0  0  0  0  0  0  0  0  0  0  0  0
  -28.6867  -12.7833   21.0493 C   0  0  0  0  0  0  0  0  0  0  0  0
  -30.1259  -19.0427   22.7640 C   0  0  1  0  0  0  0  0  0  0  0  0
  -28.9005  -17.6433   26.0766 C   0  0  1  0  0  0  0  0  0  0  0  0
  -27.7025  -13.2406   19.9574 C   0  0  2  0  0  0  0  0  0  0  0  0
  -35.3985  -11.4650   21.0924 C   0  0  0  0  0  0  0  0  0  0  0  0
  -37.0131  -13.3832   21.3543 C   0  0  0  0  0  0  0  0  0  0  0  0
  -28.9886  -19.2848   33.6464 C   0  0  0  0  0  0  0  0  0  0  0  0
  -32.2600   -9.9933   26.2375 C   0  0  0  0  0  0  0  0  0  0  0  0
  -32.1294  -20.3885   27.9203 C   0  0  0  0  0  0  0  0  0  0  0  0
  -32.0943  -20.5687   30.4172 C   0  0  0  0  0  0  0  0  0  0  0  0
  -30.3454  -21.7193   29.0607 C   0  0  0  0  0  0  0  0  0  0  0  0
  -27.1525  -16.4062   31.9673 C   0  0  0  0  0  0  0  0  0  0  0  0
  -33.0512  -14.9951   21.8450 C   0  0  0  0  0  0  0  0  0  0  0  0
  -34.1300  -11.6483   26.5813 C   0  0  0  0  0  0  0  0  0  0  0  0
  -34.6748  -13.0334   26.2038 C   0  0  0  0  0  0  0  0  0  0  0  0
  -35.5221  -12.9735   21.4142 C   0  0  0  0  0  0  0  0  0  0  0  0
  -30.2849  -19.2015   29.2823 C   0  0  1  0  0  0  0  0  0  0  0  0
  -28.3697  -18.5255   32.4831 C   0  0  2  0  0  0  0  0  0  0  0  0
  -32.6324  -11.4690   26.3035 C   0  0  2  0  0  0  0  0  0  1  0  0
  -31.2110  -20.4442   29.1574 C   0  0  0  0  0  0  0  0  0  0  0  0
  -25.9201  -11.6075   20.4456 N   0  0  0  0  0  0  0  0  0  0  0  0
  -35.3085  -12.8237   23.8276 N   0  0  0  0  0  0  0  0  0  0  0  0
  -34.5002  -13.3789   24.7465 N   0  0  0  0  0  0  0  0  0  0  0  0
  -26.2665  -12.8988   20.3094 N   0  0  0  0  0  0  0  0  0  0  0  0
  -29.5679  -17.8040   27.3701 N   0  0  0  0  0  0  0  0  0  0  0  0
  -30.0635  -13.1127   20.6655 N   0  0  0  0  0  0  0  0  0  0  0  0
  -25.4118  -15.1053   20.4175 N   0  0  0  0  0  0  0  0  0  0  0  0
  -21.8146  -12.5466   21.3709 N   0  0  0  0  0  0  0  0  0  0  0  0
  -29.3438  -18.6059   23.9007 N   0  0  0  0  0  0  0  0  0  0  0  0
  -29.3850  -19.2399   30.4300 N   0  0  0  0  0  0  0  0  0  0  0  0
  -32.1349  -14.1773   21.0817 N   0  0  0  0  0  0  0  0  0  0  0  0
  -27.8126  -17.2441   33.0014 N   0  3  0  0  0  0  0  0  0  0  0  0
  -22.5446  -14.7023   21.0911 O   0  0  0  0  0  0  0  0  0  0  0  0
  -31.0898  -17.7828   25.2032 O   0  0  0  0  0  0  0  0  0  0  0  0
  -28.6128  -19.8968   27.7503 O   0  0  0  0  0  0  0  0  0  0  0  0
  -30.1261  -17.2685   31.4003 O   0  0  0  0  0  0  0  0  0  0  0  0
  -30.4099  -14.3777   22.5781 O   0  0  0  0  0  0  0  0  0  0  0  0
  -21.7070   -6.9829   21.6339 O   0  0  0  0  0  0  0  0  0  0  0  0
  -31.8833  -12.0864   27.3495 O   0  0  0  0  0  0  0  0  0  1  0  0
  -22.4129   -2.8126   18.0962 F   0  0  0  0  0  0  0  0  0  0  0  0
  -24.1954   -5.8333   21.2748 F   0  0  0  0  0  0  0  0  0  0  0  0
  1  2  1  0  0  0  0
  1  5  2  0  0  0  0
  2  6  2  0  0  0  0
  3  8  2  0  0  0  0
  3 16  1  0  0  0  0
  4  9  1  0  0  0  0
  4 16  2  0  0  0  0
  5 18  1  0  0  0  0
  6 20  1  0  0  0  0
  7 10  2  0  0  0  0
  7 19  1  0  0  0  0
  8 23  1  0  0  0  0
  9 23  2  0  0  0  0
 10 24  1  0  0  0  0
 11 12  2  0  0  0  0
 11 25  1  0  0  0  0
 12 26  1  0  0  0  0
 13 21  1  0  0  0  0
 13 24  2  0  0  0  0
 14 26  2  0  0  0  0
 14 27  1  0  0  0  0
 15 22  2  0  0  0  0
 15 66  1  0  0  0  0
 16 28  1  0  0  0  0
 17 28  1  0  0  0  0
 17 30  2  0  0  0  0
 17 31  1  0  0  0  0
 18 20  2  0  0  0  0
 18 36  1  0  0  0  0
 19 21  2  0  0  0  0
 19 37  1  0  0  0  0
 20 45  1  0  0  0  0
 21 38  1  0  0  0  0
 22 29  1  0  0  0  0
 22 56  1  0  0  0  0
 23 81  1  0  0  0  0
 24 82  1  0  0  0  0
 25 27  2  0  0  0  0
 25 81  1  0  0  0  0
 26 83  1  0  0  0  0
 27 84  1  0  0  0  0
 28 64  2  0  0  0  0
 29 59  1  0  0  0  0
 29 65  2  0  0  0  0
 30 67  1  0  0  0  0
 30 70  1  0  0  0  0
 31 71  1  0  0  0  0
 31 76  2  0  0  0  0
 32 46  1  0  0  0  0
 32 72  1  0  0  0  0
 32 77  2  0  0  0  0
 33 60  1  0  0  0  0
 33 68  1  0  0  0  0
 33 78  2  0  0  0  0
 34 61  1  0  0  0  0
 34 73  1  0  0  0  0
 34 79  2  0  0  0  0
 35 69  1  0  0  0  0
 35 74  1  0  0  0  0
 35 80  2  0  0  0  0
 36 39  1  0  0  0  0
 37 46  1  0  0  0  0
 38 68  1  0  0  0  0
 39 41  1  0  0  0  0
 40 42  1  0  0  0  0
 40 43  1  0  0  0  0
 41 45  1  0  0  0  0
 42 47  1  0  0  0  0
 43 69  1  0  0  0  0
 44 47  1  0  0  0  0
 44 69  1  0  0  0  0
 45 72  1  0  0  0  0
 46 68  1  0  0  0  0
 47 67  1  0  0  0  0
 48 59  1  0  0  0  0
 49 59  1  0  0  0  0
 50 61  1  0  0  0  0
 51 62  1  0  0  0  0
 52 63  1  0  0  0  0
 53 63  1  0  0  0  0
 54 63  1  0  0  0  0
 55 75  1  0  0  0  0
 56 74  1  0  0  0  0
 57 58  1  0  0  0  0
 57 62  1  0  0  0  0
 58 66  1  0  0  0  0
 60 63  1  0  0  0  0
 60 73  1  0  0  0  0
 61 75  1  0  0  0  0
 62 82  1  0  0  0  0
 64 67  1  0  0  0  0
 65 66  1  0  0  0  0
M  CHG  1  75   1
M  ISO  4  35 100  62 101  74 100  82 101
M  END
> <Batch ID>
0103

> <Smiles>
CNC(C)C(=O)NC(C(=O)N1Cc2cc([101O:1][101CH:1](C)CCn3cc(C[100NH:0][100C:0](=O)N4CCCC(n5nc(-c6ccc(Oc7ccc(F)cc7F)cc6)c(C(N)=O)c5N)C4)c(C(C)C)n3)ccc2CC1C(=O)NC1CCCc2ccccc21)C(C)(C)C

> <Shape>
0.174

> <Color>
0.173

> <Negative vol penalty>
0.000

$$$$

  -OEChem-04052319413D

 84 92  0     1  0  0  0  0  0999 V2000
  -25.2913  -32.8519   23.1696 C   0  0  0  0  0  0  0  0  0  0  0  0
  -25.0472  -31.4886   23.3014 C   0  0  0  0  0  0  0  0  0  0  0  0
  -22.9881   -9.9171   19.9730 C   0  0  0  0  0  0  0  0  0  0  0  0
  -23.7350   -9.9298   22.2707 C   0  0  0  0  0  0  0  0  0  0  0  0
  -25.8399  -33.3496   21.9884 C   0  0  0  0  0  0  0  0  0  0  0  0
  -25.3507  -30.6224   22.2516 C   0  0  0  0  0  0  0  0  0  0  0  0
  -27.3784  -24.8612   22.7015 C   0  0  0  0  0  0  0  0  0  0  0  0
  -22.2182   -8.7827   20.2295 C   0  0  0  0  0  0  0  0  0  0  0  0
  -22.9650   -8.7954   22.5272 C   0  0  0  0  0  0  0  0  0  0  0  0
  -26.7304  -23.6295   22.6179 C   0  0  0  0  0  0  0  0  0  0  0  0
  -23.1874   -5.4627   22.0030 C   0  0  0  0  0  0  0  0  0  0  0  0
  -23.7766   -4.4313   22.7343 C   0  0  0  0  0  0  0  0  0  0  0  0
  -27.3443  -23.4713   20.2904 C   0  0  0  0  0  0  0  0  0  0  0  0
  -22.0697   -4.6578   24.4290 C   0  0  0  0  0  0  0  0  0  0  0  0
  -28.3644  -18.7265   21.8467 C   0  0  0  0  0  0  0  0  0  0  0  0
  -23.7466  -10.4907   20.9936 C   0  0  0  0  0  0  0  0  0  0  0  0
  -24.1434  -13.0066   20.8517 C   0  0  0  0  0  0  0  0  0  0  0  0
  -26.1592  -32.4878   20.9272 C   0  0  0  0  0  0  0  0  0  0  0  0
  -28.0058  -25.4131   21.5754 C   0  0  0  0  0  0  0  0  0  0  0  0
  -25.9028  -31.1093   21.0546 C   0  0  0  0  0  0  0  0  0  0  0  0
  -28.0017  -24.7089   20.3629 C   0  0  0  0  0  0  0  0  0  0  0  0
  -29.1808  -18.3288   20.8110 C   0  0  0  0  0  0  0  0  0  0  0  0
  -28.4056  -18.3592   19.6256 C   0  0  0  0  0  0  0  0  0  0  0  0
  -22.2066   -8.2218   21.5066 C   0  0  0  0  0  0  0  0  0  0  0  0
  -26.7108  -22.9357   21.4116 C   0  0  0  0  0  0  0  0  0  0  0  0
  -22.0394   -6.0917   22.4848 C   0  0  0  0  0  0  0  0  0  0  0  0
  -23.2177   -4.0289   23.9473 C   0  0  0  0  0  0  0  0  0  0  0  0
  -21.4805   -5.6892   23.6978 C   0  0  0  0  0  0  0  0  0  0  0  0
  -24.5426  -11.6622   20.7291 C   0  0  0  0  0  0  0  0  0  0  0  0
  -27.1391  -18.7748   19.9729 C   0  0  0  0  0  0  0  0  0  0  0  0
  -25.2535  -13.7290   20.4878 C   0  0  0  0  0  0  0  0  0  0  0  0
  -22.8820  -13.5536   21.2582 C   0  0  0  0  0  0  0  0  0  0  0  0
  -27.6098  -28.0585   19.8581 C   0  0  0  0  0  0  0  0  0  0  0  0
  -30.2978  -27.0250   18.3650 C   0  0  0  0  0  0  0  0  0  0  0  0
  -32.3337  -24.4119   17.5447 C   0  0  0  0  0  0  0  0  0  0  0  0
  -30.7568  -14.6317   20.6987 C   0  0  0  0  0  0  0  0  0  0  0  0
  -26.7067  -33.0784   19.6520 C   0  0  0  0  0  0  0  0  0  0  0  0
  -28.7234  -26.7302   21.6888 C   0  0  0  0  0  0  0  0  0  0  0  0
  -28.6778  -25.2485   19.1301 C   0  0  0  0  0  0  0  0  0  0  0  0
  -27.3475  -32.0456   18.7285 C   0  0  0  0  0  0  0  0  0  0  0  0
  -29.5817  -12.2494   18.3280 C   0  0  0  0  0  0  0  0  0  0  0  0
  -26.4486  -30.8208   18.5920 C   0  0  0  0  0  0  0  0  0  0  0  0
  -28.1358  -11.9908   18.7552 C   0  0  0  0  0  0  0  0  0  0  0  0
  -30.4965  -12.4620   19.5321 C   0  0  0  0  0  0  0  0  0  0  0  0
  -28.6031  -13.2470   20.9005 C   0  0  0  0  0  0  0  0  0  0  0  0
  -26.2415  -30.1346   19.9476 C   0  0  1  0  0  0  0  0  0  0  0  0
  -28.8879  -27.4384   20.3477 C   0  0  1  0  0  0  0  0  0  0  0  0
  -27.6321  -13.0821   19.7189 C   0  0  2  0  0  0  0  0  0  0  0  0
  -25.9395  -18.9817   19.1342 C   0  0  0  0  0  0  0  0  0  0  0  0
  -28.7945  -19.1987   17.2809 C   0  0  0  0  0  0  0  0  0  0  0  0
  -28.1135  -16.8021   17.6649 C   0  0  0  0  0  0  0  0  0  0  0  0
  -34.4359  -23.8726   16.2847 C   0  0  0  0  0  0  0  0  0  0  0  0
  -28.7793  -27.2736   15.7302 C   0  0  0  0  0  0  0  0  0  0  0  0
  -30.5446  -25.8573   14.6596 C   0  0  0  0  0  0  0  0  0  0  0  0
  -31.1497  -28.0667   15.6471 C   0  0  0  0  0  0  0  0  0  0  0  0
  -33.6777  -23.4119   19.9845 C   0  0  0  0  0  0  0  0  0  0  0  0
  -30.6014  -17.9433   20.9273 C   0  0  0  0  0  0  0  0  0  0  0  0
  -25.9399  -19.4619   22.1344 C   0  0  0  0  0  0  0  0  0  0  0  0
  -30.8619  -16.7921   21.9156 C   0  0  0  0  0  0  0  0  0  0  0  0
  -26.0382  -20.9365   22.5100 C   0  0  0  0  0  0  0  0  0  1  0  0
  -28.8677  -18.0100   18.2663 C   0  0  0  0  0  0  0  0  0  0  0  0
  -30.5879  -26.1362   17.1798 C   0  0  1  0  0  0  0  0  0  0  0  0
  -33.8395  -24.2415   17.6341 C   0  0  2  0  0  0  0  0  0  0  0  0
  -30.2509  -26.8239   15.8267 C   0  0  0  0  0  0  0  0  0  0  0  0
  -25.8075  -11.5352   20.3192 N   0  0  0  0  0  0  0  0  0  0  0  0
  -27.1257  -18.9954   21.3254 N   0  0  0  0  0  0  0  0  0  0  0  0
  -26.2127  -12.8091   20.1810 N   0  0  0  0  0  0  0  0  0  0  0  0
  -29.3607  -26.5430   19.2899 N   0  0  0  0  0  0  0  0  0  0  0  0
  -29.9632  -13.5105   20.4051 N   0  0  0  0  0  0  0  0  0  0  0  0
  -25.4930  -15.0548   20.4034 N   0  0  0  0  0  0  0  0  0  0  0  0
  -21.8488  -12.6697   21.5981 N   0  0  0  0  0  0  0  0  0  0  0  0
  -27.4061  -29.3515   20.3009 N   0  0  0  0  0  0  0  0  0  0  0  0
  -31.9813  -25.7241   17.3100 N   0  0  0  0  0  0  0  0  0  0  0  0
  -30.1730  -15.5812   21.5284 N   0  0  0  0  0  0  0  0  0  0  0  0
  -34.1823  -23.1675   18.6088 N   0  3  0  0  0  0  0  0  0  0  0  0
  -22.6720  -14.7895   21.3025 O   0  0  0  0  0  0  0  0  0  0  0  0
  -26.8644  -27.4122   19.1312 O   0  0  0  0  0  0  0  0  0  0  0  0
  -30.8864  -28.1040   18.4702 O   0  0  0  0  0  0  0  0  0  0  0  0
  -31.5488  -23.4740   17.6668 O   0  0  0  0  0  0  0  0  0  0  0  0
  -31.8988  -14.7783   20.2502 O   0  0  0  0  0  0  0  0  0  0  0  0
  -21.4552   -7.1150   21.7573 O   0  0  0  0  0  0  0  0  0  0  0  0
  -26.0785  -21.7337   21.3271 O   0  0  0  0  0  0  0  0  0  1  0  0
  -23.7827   -3.0374   24.6486 F   0  0  0  0  0  0  0  0  0  0  0  0
  -20.3770   -6.2890   24.1652 F   0  0  0  0  0  0  0  0  0  0  0  0
  1  2  1  0  0  0  0
  1  5  2  0  0  0  0
  2  6  2  0  0  0  0
  3  8  2  0  0  0  0
  3 16  1  0  0  0  0
  4  9  1  0  0  0  0
  4 16  2  0  0  0  0
  5 18  1  0  0  0  0
  6 20  1  0  0  0  0
  7 10  2  0  0  0  0
  7 19  1  0  0  0  0
  8 24  1  0  0  0  0
  9 24  2  0  0  0  0
 10 25  1  0  0  0  0
 11 12  2  0  0  0  0
 11 26  1  0  0  0  0
 12 27  1  0  0  0  0
 13 21  1  0  0  0  0
 13 25  2  0  0  0  0
 14 27  2  0  0  0  0
 14 28  1  0  0  0  0
 15 22  2  0  0  0  0
 15 66  1  0  0  0  0
 16 29  1  0  0  0  0
 17 29  1  0  0  0  0
 17 31  2  0  0  0  0
 17 32  1  0  0  0  0
 18 20  2  0  0  0  0
 18 37  1  0  0  0  0
 19 21  2  0  0  0  0
 19 38  1  0  0  0  0
 20 46  1  0  0  0  0
 21 39  1  0  0  0  0
 22 23  1  0  0  0  0
 22 57  1  0  0  0  0
 23 30  2  0  0  0  0
 23 61  1  0  0  0  0
 24 81  1  0  0  0  0
 25 82  1  0  0  0  0
 26 28  2  0  0  0  0
 26 81  1  0  0  0  0
 27 83  1  0  0  0  0
 28 84  1  0  0  0  0
 29 65  2  0  0  0  0
 30 49  1  0  0  0  0
 30 66  1  0  0  0  0
 31 67  1  0  0  0  0
 31 70  1  0  0  0  0
 32 71  1  0  0  0  0
 32 76  2  0  0  0  0
 33 47  1  0  0  0  0
 33 72  1  0  0  0  0
 33 77  2  0  0  0  0
 34 62  1  0  0  0  0
 34 68  1  0  0  0  0
 34 78  2  0  0  0  0
 35 63  1  0  0  0  0
 35 73  1  0  0  0  0
 35 79  2  0  0  0  0
 36 69  1  0  0  0  0
 36 74  1  0  0  0  0
 36 80  2  0  0  0  0
 37 40  1  0  0  0  0
 38 47  1  0  0  0  0
 39 68  1  0  0  0  0
 40 42  1  0  0  0  0
 41 43  1  0  0  0  0
 41 44  1  0  0  0  0
 42 46  1  0  0  0  0
 43 48  1  0  0  0  0
 44 69  1  0  0  0  0
 45 48  1  0  0  0  0
 45 69  1  0  0  0  0
 46 72  1  0  0  0  0
 47 68  1  0  0  0  0
 48 67  1  0  0  0  0
 50 61  1  0  0  0  0
 51 61  1  0  0  0  0
 52 63  1  0  0  0  0
 53 64  1  0  0  0  0
 54 64  1  0  0  0  0
 55 64  1  0  0  0  0
 56 75  1  0  0  0  0
 57 59  1  0  0  0  0
 58 60  1  0  0  0  0
 58 66  1  0  0  0  0
 59 74  1  0  0  0  0
 60 82  1  0  0  0  0
 62 64  1  0  0  0  0
 62 73  1  0  0  0  0
 63 75  1  0  0  0  0
 65 67  1  0  0  0  0
M  CHG  1  75   1
M  ISO  4  36 100  60 101  74 100  82 101
M  END
> <Batch ID>
0103

> <Smiles>
CNC(C)C(=O)NC(C(=O)N1Cc2cc([101O:1][101CH2:1]Cn3cc(CC[100NH:0][100C:0](=O)N4CCCC(n5nc(-c6ccc(Oc7ccc(F)cc7F)cc6)c(C(N)=O)c5N)C4)c(C(C)C)c3C)ccc2CC1C(=O)NC1CCCc2ccccc21)C(C)(C)C

> <Shape>
0.325

> <Color>
0.202

> <Negative vol penalty>
0.000

$$$$

  -OEChem-04052319413D

 85 93  0     1  0  0  0  0  0999 V2000
  -32.0063  -25.9752   17.9197 C   0  0  0  0  0  0  0  0  0  0  0  0
  -31.0204  -25.1497   18.4508 C   0  0  0  0  0  0  0  0  0  0  0  0
  -24.3470  -13.3550   24.1737 C   0  0  0  0  0  0  0  0  0  0  0  0
  -23.5852  -15.2310   22.8557 C   0  0  0  0  0  0  0  0  0  0  0  0
  -32.1196  -27.2942   18.3572 C   0  0  0  0  0  0  0  0  0  0  0  0
  -30.1479  -25.6424   19.4205 C   0  0  0  0  0  0  0  0  0  0  0  0
  -25.3333  -24.3406   18.5435 C   0  0  0  0  0  0  0  0  0  0  0  0
  -23.8148  -13.9444   25.3204 C   0  0  0  0  0  0  0  0  0  0  0  0
  -23.0529  -15.8204   24.0023 C   0  0  0  0  0  0  0  0  0  0  0  0
  -24.9549  -23.0401   18.8743 C   0  0  0  0  0  0  0  0  0  0  0  0
  -21.1767  -17.6493   26.5230 C   0  0  0  0  0  0  0  0  0  0  0  0
  -19.8957  -18.1945   26.4378 C   0  0  0  0  0  0  0  0  0  0  0  0
  -23.9745  -23.8529   20.9231 C   0  0  0  0  0  0  0  0  0  0  0  0
  -27.6661  -17.2684   19.8664 C   0  0  0  0  0  0  0  0  0  0  0  0
  -19.0124  -16.0260   25.8422 C   0  0  0  0  0  0  0  0  0  0  0  0
  -28.4022  -17.6434   22.0967 C   0  0  0  0  0  0  0  0  0  0  0  0
  -24.2323  -13.9983   22.9414 C   0  0  0  0  0  0  0  0  0  0  0  0
  -24.1323  -12.5066   20.8744 C   0  0  0  0  0  0  0  0  0  0  0  0
  -31.2419  -27.8062   19.3258 C   0  0  0  0  0  0  0  0  0  0  0  0
  -25.0441  -25.4073   19.4067 C   0  0  0  0  0  0  0  0  0  0  0  0
  -30.2504  -26.9691   19.8723 C   0  0  0  0  0  0  0  0  0  0  0  0
  -24.3480  -25.1663   20.5997 C   0  0  0  0  0  0  0  0  0  0  0  0
  -27.3636  -17.6085   21.1803 C   0  0  0  0  0  0  0  0  0  0  0  0
  -28.9795  -16.9778   19.5142 C   0  0  0  0  0  0  0  0  0  0  0  0
  -23.1677  -15.1771   25.2347 C   0  0  0  0  0  0  0  0  0  0  0  0
  -24.2780  -22.7957   20.0656 C   0  0  0  0  0  0  0  0  0  0  0  0
  -21.3756  -16.2924   26.2676 C   0  0  0  0  0  0  0  0  0  0  0  0
  -18.8135  -17.3829   26.0974 C   0  0  0  0  0  0  0  0  0  0  0  0
  -20.2935  -15.4808   25.9273 C   0  0  0  0  0  0  0  0  0  0  0  0
  -24.7824  -13.3902   21.7566 C   0  0  0  0  0  0  0  0  0  0  0  0
  -29.9457  -17.0412   20.5052 C   0  0  0  0  0  0  0  0  0  0  0  0
  -25.0760  -12.2194   19.9186 C   0  0  0  0  0  0  0  0  0  0  0  0
  -22.7948  -11.9915   20.9151 C   0  0  0  0  0  0  0  0  0  0  0  0
  -26.7847  -27.5122   21.0326 C   0  0  0  0  0  0  0  0  0  0  0  0
  -23.8849  -28.7946   21.7176 C   0  0  0  0  0  0  0  0  0  0  0  0
  -29.9188  -15.2336   18.0284 C   0  0  0  0  0  0  0  0  0  0  0  0
  -20.5169  -28.3406   22.0298 C   0  0  0  0  0  0  0  0  0  0  0  0
  -31.4334  -29.2245   19.8017 C   0  0  0  0  0  0  0  0  0  0  0  0
  -25.4355  -26.8080   19.0227 C   0  0  0  0  0  0  0  0  0  0  0  0
  -23.9957  -26.2795   21.5511 C   0  0  0  0  0  0  0  0  0  0  0  0
  -30.2308  -29.7800   20.5602 C   0  0  0  0  0  0  0  0  0  0  0  0
  -29.7995  -11.8825   19.2915 C   0  0  0  0  0  0  0  0  0  0  0  0
  -29.7337  -28.7681   21.5877 C   0  0  0  0  0  0  0  0  0  0  0  0
  -28.4529  -11.8178   20.0110 C   0  0  0  0  0  0  0  0  0  0  0  0
  -30.4387  -13.2610   19.4259 C   0  0  0  0  0  0  0  0  0  0  0  0
  -28.2178  -14.3205   19.6849 C   0  0  0  0  0  0  0  0  0  0  0  0
  -29.2694  -27.4743   20.9079 C   0  0  1  0  0  0  0  0  0  0  0  0
  -25.5431  -27.7477   20.2197 C   0  0  1  0  0  0  0  0  0  0  0  0
  -27.5236  -12.9538   19.5480 C   0  0  2  0  0  0  0  0  0  0  0  0
  -32.2194  -18.0043   20.0701 C   0  0  0  0  0  0  0  0  0  0  0  0
  -18.4125  -29.5637   22.6404 C   0  0  0  0  0  0  0  0  0  0  0  0
  -30.3370  -17.6049   17.5001 C   0  0  0  0  0  0  0  0  0  0  0  0
  -28.1105  -16.5414   17.1181 C   0  0  0  0  0  0  0  0  0  0  0  0
  -24.6492  -28.6320   24.6671 C   0  0  0  0  0  0  0  0  0  0  0  0
  -22.2325  -28.9499   25.2390 C   0  0  0  0  0  0  0  0  0  0  0  0
  -23.4669  -30.7356   24.0102 C   0  0  0  0  0  0  0  0  0  0  0  0
  -19.3367  -27.8828   19.3546 C   0  0  0  0  0  0  0  0  0  0  0  0
  -25.9498  -17.9301   21.5947 C   0  0  0  0  0  0  0  0  0  0  0  0
  -31.3734  -16.7400   20.1846 C   0  0  0  0  0  0  0  0  0  0  0  0
  -25.5888  -19.4140   21.4646 C   0  0  0  0  0  0  0  0  0  0  0  0
  -24.1781  -19.7327   21.9616 C   0  0  0  0  0  0  0  0  0  0  0  0
  -23.8411  -21.2065   21.7800 C   0  0  0  0  0  0  0  0  0  1  0  0
  -22.8588  -28.5967   22.8071 C   0  0  1  0  0  0  0  0  0  0  0  0
  -19.3395  -29.1454   21.5097 C   0  0  2  0  0  0  0  0  0  0  0  0
  -29.3102  -16.6110   18.1087 C   0  0  0  0  0  0  0  0  0  0  0  0
  -23.3100  -29.2071   24.1640 C   0  0  0  0  0  0  0  0  0  0  0  0
  -29.6900  -17.3676   21.7920 N   0  0  0  0  0  0  0  0  0  0  0  0
  -26.0419  -13.6473   21.3937 N   0  0  0  0  0  0  0  0  0  0  0  0
  -26.1907  -12.9208   20.2729 N   0  0  0  0  0  0  0  0  0  0  0  0
  -24.4054  -27.6308   21.1342 N   0  0  0  0  0  0  0  0  0  0  0  0
  -29.5165  -14.3142   18.9973 N   0  0  0  0  0  0  0  0  0  0  0  0
  -25.0527  -11.4377   18.8182 N   0  0  0  0  0  0  0  0  0  0  0  0
  -21.9575  -12.3891   21.9664 N   0  0  0  0  0  0  0  0  0  0  0  0
  -27.9596  -27.6546   20.3194 N   0  0  0  0  0  0  0  0  0  0  0  0
  -21.6073  -29.1425   22.2931 N   0  0  0  0  0  0  0  0  0  0  0  0
  -18.5542  -28.3413   20.5312 N   0  3  0  0  0  0  0  0  0  0  0  0
  -22.3606  -11.1892   20.0541 O   0  0  0  0  0  0  0  0  0  0  0  0
  -26.6841  -27.2242   22.2195 O   0  0  0  0  0  0  0  0  0  0  0  0
  -24.2072  -29.9396   21.3911 O   0  0  0  0  0  0  0  0  0  0  0  0
  -30.7253  -14.9833   17.1288 O   0  0  0  0  0  0  0  0  0  0  0  0
  -20.4725  -27.1228   22.1901 O   0  0  0  0  0  0  0  0  0  0  0  0
  -22.6479  -15.7525   26.3534 O   0  0  0  0  0  0  0  0  0  0  0  0
  -23.9082  -21.5272   20.3911 O   0  0  0  0  0  0  0  0  0  1  0  0
  -17.5831  -17.9063   26.0172 F   0  0  0  0  0  0  0  0  0  0  0  0
  -20.4782  -14.1764   25.6820 F   0  0  0  0  0  0  0  0  0  0  0  0
  1  2  1  0  0  0  0
  1  5  2  0  0  0  0
  2  6  2  0  0  0  0
  3  8  2  0  0  0  0
  3 17  1  0  0  0  0
  4  9  1  0  0  0  0
  4 17  2  0  0  0  0
  5 19  1  0  0  0  0
  6 21  1  0  0  0  0
  7 10  2  0  0  0  0
  7 20  1  0  0  0  0
  8 25  1  0  0  0  0
  9 25  2  0  0  0  0
 10 26  1  0  0  0  0
 11 12  2  0  0  0  0
 11 27  1  0  0  0  0
 12 28  1  0  0  0  0
 13 22  1  0  0  0  0
 13 26  2  0  0  0  0
 14 23  2  0  0  0  0
 14 24  1  0  0  0  0
 15 28  2  0  0  0  0
 15 29  1  0  0  0  0
 16 23  1  0  0  0  0
 16 67  2  0  0  0  0
 17 30  1  0  0  0  0
 18 30  1  0  0  0  0
 18 32  2  0  0  0  0
 18 33  1  0  0  0  0
 19 21  2  0  0  0  0
 19 38  1  0  0  0  0
 20 22  2  0  0  0  0
 20 39  1  0  0  0  0
 21 47  1  0  0  0  0
 22 40  1  0  0  0  0
 23 58  1  0  0  0  0
 24 31  2  0  0  0  0
 24 65  1  0  0  0  0
 25 82  1  0  0  0  0
 26 83  1  0  0  0  0
 27 29  2  0  0  0  0
 27 82  1  0  0  0  0
 28 84  1  0  0  0  0
 29 85  1  0  0  0  0
 30 68  2  0  0  0  0
 31 59  1  0  0  0  0
 31 67  1  0  0  0  0
 32 69  1  0  0  0  0
 32 72  1  0  0  0  0
 33 73  1  0  0  0  0
 33 77  2  0  0  0  0
 34 48  1  0  0  0  0
 34 74  1  0  0  0  0
 34 78  2  0  0  0  0
 35 63  1  0  0  0  0
 35 70  1  0  0  0  0
 35 79  2  0  0  0  0
 36 65  1  0  0  0  0
 36 71  1  0  0  0  0
 36 80  2  0  0  0  0
 37 64  1  0  0  0  0
 37 75  1  0  0  0  0
 37 81  2  0  0  0  0
 38 41  1  0  0  0  0
 39 48  1  0  0  0  0
 40 70  1  0  0  0  0
 41 43  1  0  0  0  0
 42 44  1  0  0  0  0
 42 45  1  0  0  0  0
 43 47  1  0  0  0  0
 44 49  1  0  0  0  0
 45 71  1  0  0  0  0
 46 49  1  0  0  0  0
 46 71  1  0  0  0  0
 47 74  1  0  0  0  0
 48 70  1  0  0  0  0
 49 69  1  0  0  0  0
 50 59  1  0  0  0  0
 51 64  1  0  0  0  0
 52 65  1  0  0  0  0
 53 65  1  0  0  0  0
 54 66  1  0  0  0  0
 55 66  1  0  0  0  0
 56 66  1  0  0  0  0
 57 76  1  0  0  0  0
 58 60  1  0  0  0  0
 60 61  1  0  0  0  0
 61 62  1  0  0  0  0
 62 83  1  0  0  0  0
 63 66  1  0  0  0  0
 63 75  1  0  0  0  0
 64 76  1  0  0  0  0
 68 69  1  0  0  0  0
M  CHG  1  76   1
M  ISO  4  36 100  62 101  65 100  83 101
M  END
> <Batch ID>
0103

> <Smiles>
CCc1ncc(CCC[101CH2:1][101O:1]c2ccc3c(c2)CN(C(=O)C(NC(=O)C(C)NC)C(C)(C)C)C(C(=O)NC2CCCc4ccccc42)C3)cc1[100C:0](C)(C)[100C:0](=O)N1CCCC(n2nc(-c3ccc(Oc4ccc(F)cc4F)cc3)c(C(N)=O)c2N)C1

> <Shape>
0.228

> <Color>
0.069

> <Negative vol penalty>
0.000

$$$$

  -OEChem-04052319413D

 85 93  0     1  0  0  0  0  0999 V2000
  -16.2183  -22.7975   24.9514 C   0  0  0  0  0  0  0  0  0  0  0  0
  -17.4912  -22.3500   24.6128 C   0  0  0  0  0  0  0  0  0  0  0  0
  -23.2869   -9.8002   19.9125 C   0  0  0  0  0  0  0  0  0  0  0  0
  -23.7346   -9.9416   22.2825 C   0  0  0  0  0  0  0  0  0  0  0  0
  -15.5461  -22.2304   26.0333 C   0  0  0  0  0  0  0  0  0  0  0  0
  -18.0933  -21.3357   25.3566 C   0  0  0  0  0  0  0  0  0  0  0  0
  -22.5606  -15.7825   24.6346 C   0  0  0  0  0  0  0  0  0  0  0  0
  -22.5595   -8.6283   20.1198 C   0  0  0  0  0  0  0  0  0  0  0  0
  -23.0072   -8.7696   22.4898 C   0  0  0  0  0  0  0  0  0  0  0  0
  -23.7292  -15.2612   25.1882 C   0  0  0  0  0  0  0  0  0  0  0  0
  -19.4760   -7.7703   21.2102 C   0  0  0  0  0  0  0  0  0  0  0  0
  -18.2478   -7.6462   20.5609 C   0  0  0  0  0  0  0  0  0  0  0  0
  -22.4411  -14.3009   26.9877 C   0  0  0  0  0  0  0  0  0  0  0  0
  -31.4734  -12.1263   26.1455 C   0  0  0  0  0  0  0  0  0  0  0  0
  -19.0495   -5.6725   19.4213 C   0  0  0  0  0  0  0  0  0  0  0  0
  -29.9807  -13.7186   25.5921 C   0  0  0  0  0  0  0  0  0  0  0  0
  -23.8745  -10.4569   20.9938 C   0  0  0  0  0  0  0  0  0  0  0  0
  -24.1358  -12.9866   20.7945 C   0  0  0  0  0  0  0  0  0  0  0  0
  -16.1363  -21.2020   26.7849 C   0  0  0  0  0  0  0  0  0  0  0  0
  -21.3228  -15.5759   25.2603 C   0  0  0  0  0  0  0  0  0  0  0  0
  -17.4290  -20.7553   26.4504 C   0  0  0  0  0  0  0  0  0  0  0  0
  -21.2580  -14.8185   26.4386 C   0  0  0  0  0  0  0  0  0  0  0  0
  -31.0579  -13.0051   25.1149 C   0  0  0  0  0  0  0  0  0  0  0  0
  -22.4196   -8.1129   21.4084 C   0  0  0  0  0  0  0  0  0  0  0  0
  -23.6699  -14.5227   26.3665 C   0  0  0  0  0  0  0  0  0  0  0  0
  -20.4911   -6.8454   20.9650 C   0  0  0  0  0  0  0  0  0  0  0  0
  -18.0345   -6.5973   19.6665 C   0  0  0  0  0  0  0  0  0  0  0  0
  -20.2778   -5.7965   20.0707 C   0  0  0  0  0  0  0  0  0  0  0  0
  -24.6265  -11.6672   20.7803 C   0  0  0  0  0  0  0  0  0  0  0  0
  -30.6372  -12.3295   27.2212 C   0  0  0  0  0  0  0  0  0  0  0  0
  -25.2381  -13.7657   20.5406 C   0  0  0  0  0  0  0  0  0  0  0  0
  -22.8027  -13.4652   21.0173 C   0  0  0  0  0  0  0  0  0  0  0  0
  -19.1137  -17.4680   26.5423 C   0  0  0  0  0  0  0  0  0  0  0  0
  -17.4537  -14.6943   26.8129 C   0  0  0  0  0  0  0  0  0  0  0  0
  -17.5172  -11.2889   27.0265 C   0  0  0  0  0  0  0  0  0  0  0  0
  -31.1075  -12.9192   21.3685 C   0  0  0  0  0  0  0  0  0  0  0  0
  -15.3902  -20.6525   27.9748 C   0  0  0  0  0  0  0  0  0  0  0  0
  -20.0681  -16.1222   24.6360 C   0  0  0  0  0  0  0  0  0  0  0  0
  -19.9514  -14.5509   27.1384 C   0  0  0  0  0  0  0  0  0  0  0  0
  -15.9453  -19.3236   28.4812 C   0  0  0  0  0  0  0  0  0  0  0  0
  -29.4631  -13.6584   18.2982 C   0  0  0  0  0  0  0  0  0  0  0  0
  -17.4656  -19.3863   28.5883 C   0  0  0  0  0  0  0  0  0  0  0  0
  -27.9928  -13.3509   18.5875 C   0  0  0  0  0  0  0  0  0  0  0  0
  -30.3948  -12.6787   19.0082 C   0  0  0  0  0  0  0  0  0  0  0  0
  -28.7056  -12.2512   20.7511 C   0  0  0  0  0  0  0  0  0  0  0  0
  -18.1052  -19.6399   27.2178 C   0  0  1  0  0  0  0  0  0  0  0  0
  -18.9262  -16.2856   25.6343 C   0  0  1  0  0  0  0  0  0  0  0  0
  -27.7291  -13.2467   20.1017 C   0  0  2  0  0  0  0  0  0  0  0  0
  -31.9208  -11.9314   29.3536 C   0  0  0  0  0  0  0  0  0  0  0  0
  -30.3580  -10.1599   28.4737 C   0  0  0  0  0  0  0  0  0  0  0  0
  -16.6262   -8.9449   27.1244 C   0  0  0  0  0  0  0  0  0  0  0  0
  -25.8476  -11.2844   26.7957 C   0  0  0  0  0  0  0  0  0  0  0  0
  -17.1055  -15.3374   29.7752 C   0  0  0  0  0  0  0  0  0  0  0  0
  -16.4546  -12.9485   30.1458 C   0  0  0  0  0  0  0  0  0  0  0  0
  -15.0696  -14.4012   28.6646 C   0  0  0  0  0  0  0  0  0  0  0  0
  -17.5064  -11.0460   24.0769 C   0  0  0  0  0  0  0  0  0  0  0  0
  -31.6663  -13.1336   23.7770 C   0  0  0  0  0  0  0  0  0  0  0  0
  -27.4300  -12.8905   27.8926 C   0  0  0  0  0  0  0  0  0  0  0  0
  -28.6310  -13.8360   27.7514 C   0  0  0  0  0  0  0  0  0  0  0  0
  -25.8624  -13.6738   26.0085 C   0  0  0  0  0  0  0  0  0  1  0  0
  -30.6253  -11.6805   28.5485 C   0  0  0  0  0  0  0  0  0  0  0  0
  -17.3359  -13.6170   27.8639 C   0  0  1  0  0  0  0  0  0  0  0  0
  -16.7225  -10.2190   26.2996 C   0  0  2  0  0  0  0  0  0  0  0  0
  -26.7156  -12.5293   26.5716 C   0  0  2  0  0  0  0  0  0  0  0  0
  -16.5164  -14.0825   29.1005 C   0  0  0  0  0  0  0  0  0  0  0  0
  -25.9384  -11.6076   20.5365 N   0  0  0  0  0  0  0  0  0  0  0  0
  -29.7337  -13.2994   26.8732 N   0  0  0  0  0  0  0  0  0  0  0  0
  -26.2814  -12.8993   20.3951 N   0  0  0  0  0  0  0  0  0  0  0  0
  -18.7532  -15.1116   26.4923 N   0  0  0  0  0  0  0  0  0  0  0  0
  -30.0936  -12.6281   20.4409 N   0  0  0  0  0  0  0  0  0  0  0  0
  -25.4070  -15.1004   20.4299 N   0  0  0  0  0  0  0  0  0  0  0  0
  -21.7893  -12.5290   21.2638 N   0  0  0  0  0  0  0  0  0  0  0  0
  -18.1210  -18.4232   26.4345 N   0  0  0  0  0  0  0  0  0  0  0  0
  -16.7859  -12.4465   27.1887 N   0  0  0  0  0  0  0  0  0  0  0  0
  -30.7359  -12.8545   22.7058 N   0  0  0  0  0  0  0  0  0  0  0  0
  -17.3685   -9.8885   24.9979 N   0  3  0  0  0  0  0  0  0  0  0  0
  -22.5157  -14.6858   20.9821 O   0  0  0  0  0  0  0  0  0  0  0  0
  -20.0862  -17.5099   27.2867 O   0  0  0  0  0  0  0  0  0  0  0  0
  -16.4306  -15.1438   26.2903 O   0  0  0  0  0  0  0  0  0  0  0  0
  -18.6699  -11.1138   27.4150 O   0  0  0  0  0  0  0  0  0  0  0  0
  -32.2571  -13.2201   21.0297 O   0  0  0  0  0  0  0  0  0  0  0  0
  -21.7097   -6.9695   21.6111 O   0  0  0  0  0  0  0  0  0  0  0  0
  -24.8090  -14.0133   26.9093 O   0  0  0  0  0  0  0  0  0  1  0  0
  -16.8545   -6.4775   19.0442 F   0  0  0  0  0  0  0  0  0  0  0  0
  -21.2488   -4.9043   19.8320 F   0  0  0  0  0  0  0  0  0  0  0  0
  1  2  1  0  0  0  0
  1  5  2  0  0  0  0
  2  6  2  0  0  0  0
  3  8  2  0  0  0  0
  3 17  1  0  0  0  0
  4  9  1  0  0  0  0
  4 17  2  0  0  0  0
  5 19  1  0  0  0  0
  6 21  1  0  0  0  0
  7 10  2  0  0  0  0
  7 20  1  0  0  0  0
  8 24  1  0  0  0  0
  9 24  2  0  0  0  0
 10 25  1  0  0  0  0
 11 12  2  0  0  0  0
 11 26  1  0  0  0  0
 12 27  1  0  0  0  0
 13 22  1  0  0  0  0
 13 25  2  0  0  0  0
 14 23  1  0  0  0  0
 14 30  2  0  0  0  0
 15 27  2  0  0  0  0
 15 28  1  0  0  0  0
 16 23  2  0  0  0  0
 16 67  1  0  0  0  0
 17 29  1  0  0  0  0
 18 29  1  0  0  0  0
 18 31  2  0  0  0  0
 18 32  1  0  0  0  0
 19 21  2  0  0  0  0
 19 37  1  0  0  0  0
 20 22  2  0  0  0  0
 20 38  1  0  0  0  0
 21 46  1  0  0  0  0
 22 39  1  0  0  0  0
 23 57  1  0  0  0  0
 24 82  1  0  0  0  0
 25 83  1  0  0  0  0
 26 28  2  0  0  0  0
 26 82  1  0  0  0  0
 27 84  1  0  0  0  0
 28 85  1  0  0  0  0
 29 66  2  0  0  0  0
 30 61  1  0  0  0  0
 30 67  1  0  0  0  0
 31 68  1  0  0  0  0
 31 71  1  0  0  0  0
 32 72  1  0  0  0  0
 32 77  2  0  0  0  0
 33 47  1  0  0  0  0
 33 73  1  0  0  0  0
 33 78  2  0  0  0  0
 34 62  1  0  0  0  0
 34 69  1  0  0  0  0
 34 79  2  0  0  0  0
 35 63  1  0  0  0  0
 35 74  1  0  0  0  0
 35 80  2  0  0  0  0
 36 70  1  0  0  0  0
 36 75  1  0  0  0  0
 36 81  2  0  0  0  0
 37 40  1  0  0  0  0
 38 47  1  0  0  0  0
 39 69  1  0  0  0  0
 40 42  1  0  0  0  0
 41 43  1  0  0  0  0
 41 44  1  0  0  0  0
 42 46  1  0  0  0  0
 43 48  1  0  0  0  0
 44 70  1  0  0  0  0
 45 48  1  0  0  0  0
 45 70  1  0  0  0  0
 46 73  1  0  0  0  0
 47 69  1  0  0  0  0
 48 68  1  0  0  0  0
 49 61  1  0  0  0  0
 50 61  1  0  0  0  0
 51 63  1  0  0  0  0
 52 64  1  0  0  0  0
 53 65  1  0  0  0  0
 54 65  1  0  0  0  0
 55 65  1  0  0  0  0
 56 76  1  0  0  0  0
 57 75  1  0  0  0  0
 58 59  1  0  0  0  0
 58 64  1  0  0  0  0
 59 67  1  0  0  0  0
 60 64  1  0  0  0  0
 60 83  1  0  0  0  0
 62 65  1  0  0  0  0
 62 74  1  0  0  0  0
 63 76  1  0  0  0  0
 66 68  1  0  0  0  0
M  CHG  1  76   1
M  ISO  4  36 100  60 101  75 100  83 101
M  END
> <Batch ID>
0103

> <Smiles>
CNC(C)C(=O)NC(C(=O)N1Cc2cc([101O:1][101CH2:1]C(C)CCn3cc(C[100NH:0][100C:0](=O)N4CCCC(n5nc(-c6ccc(Oc7ccc(F)cc7F)cc6)c(C(N)=O)c5N)C4)cc3C(C)C)ccc2CC1C(=O)NC1CCCc2ccccc21)C(C)(C)C

> <Shape>
0.117

> <Color>
0.174

> <Negative vol penalty>
0.000

$$$$

  -OEChem-04052319413D

 82 90  0     1  0  0  0  0  0999 V2000
  -32.8667  -30.8289   12.3553 C   0  0  0  0  0  0  0  0  0  0  0  0
  -32.7623  -29.5574   12.9099 C   0  0  0  0  0  0  0  0  0  0  0  0
  -23.1117   -9.8745   19.9279 C   0  0  0  0  0  0  0  0  0  0  0  0
  -23.8837   -9.8784   22.2172 C   0  0  0  0  0  0  0  0  0  0  0  0
  -32.3916  -31.9357   13.0576 C   0  0  0  0  0  0  0  0  0  0  0  0
  -32.1837  -29.3920   14.1678 C   0  0  0  0  0  0  0  0  0  0  0  0
  -28.7842  -24.6639   16.0637 C   0  0  0  0  0  0  0  0  0  0  0  0
  -29.1098  -18.6331   20.8046 C   0  0  0  0  0  0  0  0  0  0  0  0
  -22.3943   -8.7034   20.1718 C   0  0  0  0  0  0  0  0  0  0  0  0
  -23.1664   -8.7073   22.4611 C   0  0  0  0  0  0  0  0  0  0  0  0
  -29.0898  -23.5312   16.8169 C   0  0  0  0  0  0  0  0  0  0  0  0
  -19.9596   -7.8344   23.0737 C   0  0  0  0  0  0  0  0  0  0  0  0
  -19.2101   -7.7681   24.2482 C   0  0  0  0  0  0  0  0  0  0  0  0
  -28.8614  -19.6682   19.9101 C   0  0  0  0  0  0  0  0  0  0  0  0
  -28.3137  -24.6525   18.8068 C   0  0  0  0  0  0  0  0  0  0  0  0
  -20.4972   -5.8518   24.9613 C   0  0  0  0  0  0  0  0  0  0  0  0
  -31.4100  -18.7402   20.2093 C   0  0  0  0  0  0  0  0  0  0  0  0
  -23.8564  -10.4620   20.9506 C   0  0  0  0  0  0  0  0  0  0  0  0
  -24.1428  -12.9949   20.8506 C   0  0  0  0  0  0  0  0  0  0  0  0
  -31.7982  -31.7827   14.3205 C   0  0  0  0  0  0  0  0  0  0  0  0
  -28.2502  -25.8052   16.6791 C   0  0  0  0  0  0  0  0  0  0  0  0
  -31.7015  -30.4980   14.8883 C   0  0  0  0  0  0  0  0  0  0  0  0
  -27.9998  -25.7975   18.0587 C   0  0  0  0  0  0  0  0  0  0  0  0
  -30.4056  -18.1545   20.9630 C   0  0  0  0  0  0  0  0  0  0  0  0
  -22.4217   -8.1198   21.4384 C   0  0  0  0  0  0  0  0  0  0  0  0
  -28.8573  -23.5264   18.1891 C   0  0  0  0  0  0  0  0  0  0  0  0
  -20.9779   -6.9094   22.8429 C   0  0  0  0  0  0  0  0  0  0  0  0
  -19.4789   -6.7768   25.1920 C   0  0  0  0  0  0  0  0  0  0  0  0
  -21.2467   -5.9182   23.7867 C   0  0  0  0  0  0  0  0  0  0  0  0
  -24.5981  -11.6715   20.6991 C   0  0  0  0  0  0  0  0  0  0  0  0
  -29.9349  -20.1863   19.2037 C   0  0  0  0  0  0  0  0  0  0  0  0
  -25.2164  -13.7710   20.4881 C   0  0  0  0  0  0  0  0  0  0  0  0
  -22.8637  -13.4794   21.2807 C   0  0  0  0  0  0  0  0  0  0  0  0
  -29.2018  -28.8178   17.0288 C   0  0  0  0  0  0  0  0  0  0  0  0
  -26.2524  -29.1891   18.3271 C   0  0  0  0  0  0  0  0  0  0  0  0
  -23.5703  -27.7613   19.8809 C   0  0  0  0  0  0  0  0  0  0  0  0
  -30.6777  -14.9073   20.6564 C   0  0  0  0  0  0  0  0  0  0  0  0
  -31.3421  -33.0142   15.0622 C   0  0  0  0  0  0  0  0  0  0  0  0
  -27.9011  -27.0095   15.8483 C   0  0  0  0  0  0  0  0  0  0  0  0
  -27.4091  -26.9899   18.7642 C   0  0  0  0  0  0  0  0  0  0  0  0
  -30.4031  -32.7109   16.2270 C   0  0  0  0  0  0  0  0  0  0  0  0
  -29.5791  -12.5191   18.2551 C   0  0  0  0  0  0  0  0  0  0  0  0
  -30.9495  -31.5613   17.0677 C   0  0  0  0  0  0  0  0  0  0  0  0
  -28.1507  -12.1906   18.6930 C   0  0  0  0  0  0  0  0  0  0  0  0
  -30.4977  -12.7496   19.4530 C   0  0  0  0  0  0  0  0  0  0  0  0
  -28.5882  -13.4273   20.8558 C   0  0  0  0  0  0  0  0  0  0  0  0
  -31.0577  -30.2751   16.2396 C   0  0  1  0  0  0  0  0  0  0  0  0
  -27.8405  -28.2990   16.6612 C   0  0  1  0  0  0  0  0  0  0  0  0
  -27.6116  -13.2416   19.6819 C   0  0  2  0  0  0  0  0  0  0  0  0
  -21.3266  -28.3256   20.8531 C   0  0  0  0  0  0  0  0  0  0  0  0
  -27.6187  -30.3932   20.7752 C   0  0  0  0  0  0  0  0  0  0  0  0
  -25.4878  -30.0534   22.0450 C   0  0  0  0  0  0  0  0  0  0  0  0
  -25.5288  -31.5681   20.0635 C   0  0  0  0  0  0  0  0  0  0  0  0
  -30.3229  -16.5339   25.7039 C   0  0  0  0  0  0  0  0  0  0  0  0
  -22.1686  -25.9794   17.9786 C   0  0  0  0  0  0  0  0  0  0  0  0
  -29.7038  -21.3043   18.2301 C   0  0  0  0  0  0  0  0  0  1  0  0
  -30.3243  -17.4024   23.3620 C   0  0  0  0  0  0  0  0  0  0  0  0
  -30.7037  -17.0482   21.9115 C   0  0  1  0  0  0  0  0  0  0  0  0
  -25.6726  -29.0680   19.7157 C   0  0  1  0  0  0  0  0  0  0  0  0
  -22.0793  -27.8646   19.6147 C   0  0  2  0  0  0  0  0  0  0  0  0
  -26.0899  -30.2487   20.6372 C   0  0  0  0  0  0  0  0  0  0  0  0
  -31.2073  -19.7474   19.3306 N   0  0  0  0  0  0  0  0  0  0  0  0
  -25.8624  -11.6067   20.2733 N   0  0  0  0  0  0  0  0  0  0  0  0
  -26.2107  -12.8992   20.1541 N   0  0  0  0  0  0  0  0  0  0  0  0
  -27.0905  -28.1456   17.9095 N   0  0  0  0  0  0  0  0  0  0  0  0
  -29.9299  -13.7583   20.3507 N   0  0  0  0  0  0  0  0  0  0  0  0
  -25.3975  -15.1073   20.4255 N   0  0  0  0  0  0  0  0  0  0  0  0
  -21.8736  -12.5456   21.6154 N   0  0  0  0  0  0  0  0  0  0  0  0
  -29.7558  -29.6622   16.0856 N   0  0  0  0  0  0  0  0  0  0  0  0
  -24.2309  -28.9241   19.5449 N   0  0  0  0  0  0  0  0  0  0  0  0
  -30.0632  -15.8157   21.5096 N   0  0  0  0  0  0  0  0  0  0  0  0
  -30.6792  -16.2900   24.2804 N   0  3  0  0  0  0  0  0  0  0  0  0
  -21.5345  -26.5413   19.1989 N   0  3  0  0  0  0  0  0  0  0  0  0
  -22.6012  -14.7041   21.3499 O   0  0  0  0  0  0  0  0  0  0  0  0
  -29.7113  -28.4785   18.0905 O   0  0  0  0  0  0  0  0  0  0  0  0
  -25.9663  -30.1698   17.6357 O   0  0  0  0  0  0  0  0  0  0  0  0
  -24.0957  -26.7516   20.3445 O   0  0  0  0  0  0  0  0  0  0  0  0
  -31.8071  -15.1113   20.1983 O   0  0  0  0  0  0  0  0  0  0  0  0
  -21.7216   -6.9771   21.6768 O   0  0  0  0  0  0  0  0  0  0  0  0
  -29.1553  -22.4224   18.9268 O   0  0  0  0  0  0  0  0  0  1  0  0
  -18.7601   -6.7141   26.3205 F   0  0  0  0  0  0  0  0  0  0  0  0
  -22.2245   -5.0275   23.5712 F   0  0  0  0  0  0  0  0  0  0  0  0
  1  2  1  0  0  0  0
  1  5  2  0  0  0  0
  2  6  2  0  0  0  0
  3  9  2  0  0  0  0
  3 18  1  0  0  0  0
  4 10  1  0  0  0  0
  4 18  2  0  0  0  0
  5 20  1  0  0  0  0
  6 22  1  0  0  0  0
  7 11  2  0  0  0  0
  7 21  1  0  0  0  0
  8 14  2  0  0  0  0
  8 24  1  0  0  0  0
  9 25  1  0  0  0  0
 10 25  2  0  0  0  0
 11 26  1  0  0  0  0
 12 13  2  0  0  0  0
 12 27  1  0  0  0  0
 13 28  1  0  0  0  0
 14 31  1  0  0  0  0
 15 23  1  0  0  0  0
 15 26  2  0  0  0  0
 16 28  2  0  0  0  0
 16 29  1  0  0  0  0
 17 24  2  0  0  0  0
 17 62  1  0  0  0  0
 18 30  1  0  0  0  0
 19 30  1  0  0  0  0
 19 32  2  0  0  0  0
 19 33  1  0  0  0  0
 20 22  2  0  0  0  0
 20 38  1  0  0  0  0
 21 23  2  0  0  0  0
 21 39  1  0  0  0  0
 22 47  1  0  0  0  0
 23 40  1  0  0  0  0
 24 58  1  0  0  0  0
 25 79  1  0  0  0  0
 26 80  1  0  0  0  0
 27 29  2  0  0  0  0
 27 79  1  0  0  0  0
 28 81  1  0  0  0  0
 29 82  1  0  0  0  0
 30 63  2  0  0  0  0
 31 56  1  0  0  0  0
 31 62  2  0  0  0  0
 32 64  1  0  0  0  0
 32 67  1  0  0  0  0
 33 68  1  0  0  0  0
 33 74  2  0  0  0  0
 34 48  1  0  0  0  0
 34 69  1  0  0  0  0
 34 75  2  0  0  0  0
 35 59  1  0  0  0  0
 35 65  1  0  0  0  0
 35 76  2  0  0  0  0
 36 60  1  0  0  0  0
 36 70  1  0  0  0  0
 36 77  2  0  0  0  0
 37 66  1  0  0  0  0
 37 71  1  0  0  0  0
 37 78  2  0  0  0  0
 38 41  1  0  0  0  0
 39 48  1  0  0  0  0
 40 65  1  0  0  0  0
 41 43  1  0  0  0  0
 42 44  1  0  0  0  0
 42 45  1  0  0  0  0
 43 47  1  0  0  0  0
 44 49  1  0  0  0  0
 45 66  1  0  0  0  0
 46 49  1  0  0  0  0
 46 66  1  0  0  0  0
 47 69  1  0  0  0  0
 48 65  1  0  0  0  0
 49 64  1  0  0  0  0
 50 60  1  0  0  0  0
 51 61  1  0  0  0  0
 52 61  1  0  0  0  0
 53 61  1  0  0  0  0
 54 72  1  0  0  0  0
 55 73  1  0  0  0  0
 56 80  1  0  0  0  0
 57 58  1  0  0  0  0
 57 72  1  0  0  0  0
 58 71  1  0  0  0  0
 59 61  1  0  0  0  0
 59 70  1  0  0  0  0
 60 73  1  0  0  0  0
 63 64  1  0  0  0  0
M  CHG  2  72   1  73   1
M  ISO  4  37 100  56 101  71 100  80 101
M  END
> <Batch ID>
0103

> <Smiles>
CNCC([100NH:0][100C:0](=O)N1CCCC(n2nc(-c3ccc(Oc4ccc(F)cc4F)cc3)c(C(N)=O)c2N)C1)c1ccc([101CH2:1][101O:1]c2ccc3c(c2)CN(C(=O)C(NC(=O)C(C)NC)C(C)(C)C)C(C(=O)NC2CCCc4ccccc42)C3)nc1

> <Shape>
0.281

> <Color>
0.203

> <Negative vol penalty>
0.000

$$$$

  -OEChem-04052319413D

 87 95  0     1  0  0  0  0  0999 V2000
  -30.2549  -25.2037   18.9260 C   0  0  0  0  0  0  0  0  0  0  0  0
  -29.0267  -25.5021   18.3448 C   0  0  0  0  0  0  0  0  0  0  0  0
  -26.0043  -14.2803   18.7677 C   0  0  0  0  0  0  0  0  0  0  0  0
  -23.8182  -14.3881   19.7907 C   0  0  0  0  0  0  0  0  0  0  0  0
  -30.4490  -25.4156   20.2903 C   0  0  0  0  0  0  0  0  0  0  0  0
  -27.9915  -26.0117   19.1278 C   0  0  0  0  0  0  0  0  0  0  0  0
  -22.3908  -30.4636   18.7684 C   0  0  0  0  0  0  0  0  0  0  0  0
  -26.2702  -13.0991   19.4601 C   0  0  0  0  0  0  0  0  0  0  0  0
  -24.0841  -13.2068   20.4832 C   0  0  0  0  0  0  0  0  0  0  0  0
  -21.0233  -30.4980   19.0377 C   0  0  0  0  0  0  0  0  0  0  0  0
  -24.1083   -9.8909   19.8315 C   0  0  0  0  0  0  0  0  0  0  0  0
  -23.1084   -8.9188   19.8595 C   0  0  0  0  0  0  0  0  0  0  0  0
  -21.4985  -30.8975   21.3687 C   0  0  0  0  0  0  0  0  0  0  0  0
  -23.0456   -9.0530   22.2710 C   0  0  0  0  0  0  0  0  0  0  0  0
  -18.7235  -25.8498   21.5844 C   0  0  0  0  0  0  0  0  0  0  0  0
  -20.6668  -26.9360   21.3425 C   0  0  0  0  0  0  0  0  0  0  0  0
  -24.7783  -14.9249   18.9330 C   0  0  0  0  0  0  0  0  0  0  0  0
  -23.9138  -16.2712   16.9461 C   0  0  0  0  0  0  0  0  0  0  0  0
  -29.4188  -25.9370   21.0886 C   0  0  0  0  0  0  0  0  0  0  0  0
  -23.3241  -30.6353   19.8008 C   0  0  0  0  0  0  0  0  0  0  0  0
  -28.1716  -26.2295   20.5044 C   0  0  0  0  0  0  0  0  0  0  0  0
  -22.8773  -30.8674   21.1095 C   0  0  0  0  0  0  0  0  0  0  0  0
  -19.5997  -24.9908   20.9584 C   0  0  0  0  0  0  0  0  0  0  0  0
  -20.8290  -25.6781   20.8052 C   0  0  0  0  0  0  0  0  0  0  0  0
  -25.3101  -12.5623   20.3179 C   0  0  0  0  0  0  0  0  0  0  0  0
  -20.5770  -30.7122   20.3385 C   0  0  0  0  0  0  0  0  0  0  0  0
  -24.5769  -10.4440   21.0232 C   0  0  0  0  0  0  0  0  0  0  0  0
  -22.5770   -8.4998   21.0793 C   0  0  0  0  0  0  0  0  0  0  0  0
  -24.0456  -10.0250   22.2429 C   0  0  0  0  0  0  0  0  0  0  0  0
  -24.5032  -16.1454   18.2183 C   0  0  0  0  0  0  0  0  0  0  0  0
  -23.8732  -17.6252   16.7189 C   0  0  0  0  0  0  0  0  0  0  0  0
  -23.4448  -15.2551   16.0499 C   0  0  0  0  0  0  0  0  0  0  0  0
  -25.6190  -28.8402   21.0714 C   0  0  0  0  0  0  0  0  0  0  0  0
  -26.2683  -31.5422   22.7448 C   0  0  0  0  0  0  0  0  0  0  0  0
  -25.1505  -34.5141   23.9960 C   0  0  0  0  0  0  0  0  0  0  0  0
  -23.6836  -22.2291   20.4099 C   0  0  0  0  0  0  0  0  0  0  0  0
  -29.6606  -26.1045   22.5678 C   0  0  0  0  0  0  0  0  0  0  0  0
  -24.7955  -30.6220   19.4894 C   0  0  0  0  0  0  0  0  0  0  0  0
  -23.8383  -31.0777   22.2500 C   0  0  0  0  0  0  0  0  0  0  0  0
  -28.6327  -26.9993   23.2556 C   0  0  0  0  0  0  0  0  0  0  0  0
  -26.1618  -21.6791   17.8305 C   0  0  0  0  0  0  0  0  0  0  0  0
  -27.2199  -26.6173   22.8259 C   0  0  0  0  0  0  0  0  0  0  0  0
  -25.9531  -20.1959   17.5195 C   0  0  0  0  0  0  0  0  0  0  0  0
  -25.9932  -21.9605   19.3206 C   0  0  0  0  0  0  0  0  0  0  0  0
  -24.4783  -20.0338   19.5782 C   0  0  0  0  0  0  0  0  0  0  0  0
  -27.0322  -26.8070   21.3158 C   0  0  1  0  0  0  0  0  0  0  0  0
  -25.6603  -30.2964   20.7033 C   0  0  1  0  0  0  0  0  0  0  0  0
  -24.6131  -19.6882   18.0841 C   0  0  2  0  0  0  0  0  0  0  0  0
  -18.4771  -24.2047   18.1787 C   0  0  0  0  0  0  0  0  0  0  0  0
  -18.9726  -22.6895   21.7338 C   0  0  0  0  0  0  0  0  0  0  0  0
  -25.9009  -36.4870   25.3531 C   0  0  0  0  0  0  0  0  0  0  0  0
  -17.4389  -29.9216   19.2526 C   0  0  0  0  0  0  0  0  0  0  0  0
  -26.0701  -29.8660   25.2866 C   0  0  0  0  0  0  0  0  0  0  0  0
  -25.8760  -31.9939   26.5914 C   0  0  0  0  0  0  0  0  0  0  0  0
  -27.9417  -31.5247   25.2741 C   0  0  0  0  0  0  0  0  0  0  0  0
  -24.6434  -36.3896   21.7635 C   0  0  0  0  0  0  0  0  0  0  0  0
  -18.1529  -23.4874   19.4835 C   0  0  0  0  0  0  0  0  0  0  0  0
  -17.8372  -29.0427   21.5814 C   0  0  0  0  0  0  0  0  0  0  0  0
  -18.7883  -28.2422   22.4827 C   0  0  0  0  0  0  0  0  0  0  0  0
  -23.0257  -24.4888   21.1961 C   0  0  0  0  0  0  0  0  0  0  0  0
  -19.3014  -23.6093   20.5316 C   0  0  1  0  0  0  0  0  0  0  0  0
  -22.0625  -25.1541   20.1861 C   0  0  2  0  0  0  0  0  0  0  0  0
  -25.8063  -32.1223   24.0597 C   0  0  1  0  0  0  0  0  0  0  0  0
  -25.7431  -35.9111   23.9545 C   0  0  2  0  0  0  0  0  0  0  0  0
  -18.4900  -29.5724   20.2986 C   0  0  2  0  0  0  0  0  0  1  0  0
  -26.4052  -31.3709   25.2820 C   0  0  0  0  0  0  0  0  0  0  0  0
  -24.8149  -17.3253   18.7612 N   0  0  0  0  0  0  0  0  0  0  0  0
  -19.3831  -27.0291   21.8133 N   0  0  0  0  0  0  0  0  0  0  0  0
  -24.4199  -18.2054   17.8256 N   0  0  0  0  0  0  0  0  0  0  0  0
  -25.2670  -31.0496   21.8958 N   0  0  0  0  0  0  0  0  0  0  0  0
  -24.6902  -21.4694   19.7909 N   0  0  0  0  0  0  0  0  0  0  0  0
  -23.4238  -18.3641   15.6824 N   0  0  0  0  0  0  0  0  0  0  0  0
  -23.5622  -13.9141   16.4401 N   0  0  0  0  0  0  0  0  0  0  0  0
  -26.8454  -28.2073   21.0017 N   0  0  0  0  0  0  0  0  0  0  0  0
  -26.1304  -33.5441   24.0149 N   0  0  0  0  0  0  0  0  0  0  0  0
  -23.9659  -23.5789   20.5804 N   0  0  0  0  0  0  0  0  0  0  0  0
  -22.8539  -26.2026   19.4379 N   0  3  0  0  0  0  0  0  0  0  0  0
  -24.8656  -36.8227   23.1671 N   0  3  0  0  0  0  0  0  0  0  0  0
  -22.9517  -15.5275   14.9291 O   0  0  0  0  0  0  0  0  0  0  0  0
  -24.5537  -28.3291   21.3962 O   0  0  0  0  0  0  0  0  0  0  0  0
  -27.4725  -31.5331   22.4776 O   0  0  0  0  0  0  0  0  0  0  0  0
  -23.9397  -34.3043   24.0138 O   0  0  0  0  0  0  0  0  0  0  0  0
  -22.6097  -21.7414   20.7789 O   0  0  0  0  0  0  0  0  0  0  0  0
  -25.5691  -11.4095   20.9936 O   0  0  0  0  0  0  0  0  0  0  0  0
  -19.2427  -30.7456   20.6042 O   0  0  0  0  0  0  0  0  0  1  0  0
  -21.6157   -7.5675   21.1060 F   0  0  0  0  0  0  0  0  0  0  0  0
  -24.4909  -10.5536   23.3910 F   0  0  0  0  0  0  0  0  0  0  0  0
  1  2  1  0  0  0  0
  1  5  2  0  0  0  0
  2  6  2  0  0  0  0
  3  8  2  0  0  0  0
  3 17  1  0  0  0  0
  4  9  1  0  0  0  0
  4 17  2  0  0  0  0
  5 19  1  0  0  0  0
  6 21  1  0  0  0  0
  7 10  2  0  0  0  0
  7 20  1  0  0  0  0
  8 25  1  0  0  0  0
  9 25  2  0  0  0  0
 10 26  1  0  0  0  0
 11 12  2  0  0  0  0
 11 27  1  0  0  0  0
 12 28  1  0  0  0  0
 13 22  1  0  0  0  0
 13 26  2  0  0  0  0
 14 28  2  0  0  0  0
 14 29  1  0  0  0  0
 15 23  2  0  0  0  0
 15 68  1  0  0  0  0
 16 24  2  0  0  0  0
 16 68  1  0  0  0  0
 17 30  1  0  0  0  0
 18 30  1  0  0  0  0
 18 31  2  0  0  0  0
 18 32  1  0  0  0  0
 19 21  2  0  0  0  0
 19 37  1  0  0  0  0
 20 22  2  0  0  0  0
 20 38  1  0  0  0  0
 21 46  1  0  0  0  0
 22 39  1  0  0  0  0
 23 24  1  0  0  0  0
 23 61  1  0  0  0  0
 24 62  1  0  0  0  0
 25 84  1  0  0  0  0
 26 85  1  0  0  0  0
 27 29  2  0  0  0  0
 27 84  1  0  0  0  0
 28 86  1  0  0  0  0
 29 87  1  0  0  0  0
 30 67  2  0  0  0  0
 31 69  1  0  0  0  0
 31 72  1  0  0  0  0
 32 73  1  0  0  0  0
 32 79  2  0  0  0  0
 33 47  1  0  0  0  0
 33 74  1  0  0  0  0
 33 80  2  0  0  0  0
 34 63  1  0  0  0  0
 34 70  1  0  0  0  0
 34 81  2  0  0  0  0
 35 64  1  0  0  0  0
 35 75  1  0  0  0  0
 35 82  2  0  0  0  0
 36 71  1  0  0  0  0
 36 76  1  0  0  0  0
 36 83  2  0  0  0  0
 37 40  1  0  0  0  0
 38 47  1  0  0  0  0
 39 70  1  0  0  0  0
 40 42  1  0  0  0  0
 41 43  1  0  0  0  0
 41 44  1  0  0  0  0
 42 46  1  0  0  0  0
 43 48  1  0  0  0  0
 44 71  1  0  0  0  0
 45 48  1  0  0  0  0
 45 71  1  0  0  0  0
 46 74  1  0  0  0  0
 47 70  1  0  0  0  0
 48 69  1  0  0  0  0
 49 57  1  0  0  0  0
 50 61  1  0  0  0  0
 51 64  1  0  0  0  0
 52 65  1  0  0  0  0
 53 66  1  0  0  0  0
 54 66  1  0  0  0  0
 55 66  1  0  0  0  0
 56 78  1  0  0  0  0
 57 61  1  0  0  0  0
 58 59  1  0  0  0  0
 58 65  1  0  0  0  0
 59 68  1  0  0  0  0
 60 62  1  0  0  0  0
 60 76  1  0  0  0  0
 62 77  1  0  0  0  0
 63 66  1  0  0  0  0
 63 75  1  0  0  0  0
 64 78  1  0  0  0  0
 65 85  1  0  0  0  0
 67 69  1  0  0  0  0
M  CHG  2  77   1  78   1
M  ISO  4  36 100  65 101  76 100  85 101
M  END
> <Batch ID>
0103

> <Smiles>
CCC(C)c1cn(CC[101CH:1](C)[101O:1]c2ccc3c(c2)CN(C(=O)C(NC(=O)C(C)NC)C(C)(C)C)C(C(=O)NC2CCCc4ccccc42)C3)cc1C(N)C[100NH:0][100C:0](=O)N1CCCC(n2nc(-c3ccc(Oc4ccc(F)cc4F)cc3)c(C(N)=O)c2N)C1

> <Shape>
0.270

> <Color>
0.069

> <Negative vol penalty>
0.000

$$$$

  -OEChem-04052319413D

 81 89  0     1  0  0  0  0  0999 V2000
  -17.7163  -28.7984   19.3049 C   0  0  0  0  0  0  0  0  0  0  0  0
  -19.0621  -28.9475   18.9856 C   0  0  0  0  0  0  0  0  0  0  0  0
  -27.4709  -18.0839   21.5981 C   0  0  0  0  0  0  0  0  0  0  0  0
  -29.7629  -17.7620   20.9053 C   0  0  0  0  0  0  0  0  0  0  0  0
  -17.3276  -28.6669   20.6374 C   0  0  0  0  0  0  0  0  0  0  0  0
  -20.0200  -28.9663   19.9988 C   0  0  0  0  0  0  0  0  0  0  0  0
  -25.7146  -26.7300   19.7232 C   0  0  0  0  0  0  0  0  0  0  0  0
  -27.3267  -16.7061   21.7611 C   0  0  0  0  0  0  0  0  0  0  0  0
  -29.6188  -16.3842   21.0684 C   0  0  0  0  0  0  0  0  0  0  0  0
  -26.9493  -27.3342   19.4902 C   0  0  0  0  0  0  0  0  0  0  0  0
  -29.7471  -12.7537   20.9560 C   0  0  0  0  0  0  0  0  0  0  0  0
  -30.2494  -11.9259   19.9520 C   0  0  0  0  0  0  0  0  0  0  0  0
  -27.3181  -27.4841   21.8694 C   0  0  0  0  0  0  0  0  0  0  0  0
  -33.3672  -26.9421   19.9420 C   0  0  0  0  0  0  0  0  0  0  0  0
  -28.7722  -12.9713   18.3512 C   0  0  0  0  0  0  0  0  0  0  0  0
  -28.6890  -18.6118   21.1701 C   0  0  0  0  0  0  0  0  0  0  0  0
  -29.2618  -20.9661   21.9681 C   0  0  0  0  0  0  0  0  0  0  0  0
  -18.2821  -28.6743   21.6667 C   0  0  0  0  0  0  0  0  0  0  0  0
  -25.2668  -26.5079   21.0334 C   0  0  0  0  0  0  0  0  0  0  0  0
  -19.6436  -28.8361   21.3464 C   0  0  0  0  0  0  0  0  0  0  0  0
  -26.0785  -26.8746   22.1163 C   0  0  0  0  0  0  0  0  0  0  0  0
  -33.2966  -27.7976   21.0690 C   0  0  0  0  0  0  0  0  0  0  0  0
  -28.4006  -15.8563   21.4963 C   0  0  0  0  0  0  0  0  0  0  0  0
  -27.7500  -27.7139   20.5634 C   0  0  0  0  0  0  0  0  0  0  0  0
  -28.7573  -13.6902   20.6577 C   0  0  0  0  0  0  0  0  0  0  0  0
  -29.7619  -12.0347   18.6496 C   0  0  0  0  0  0  0  0  0  0  0  0
  -28.2699  -13.7991   19.3553 C   0  0  0  0  0  0  0  0  0  0  0  0
  -28.8384  -20.0349   21.0010 C   0  0  0  0  0  0  0  0  0  0  0  0
  -32.4210  -27.3730   19.0385 C   0  0  0  0  0  0  0  0  0  0  0  0
  -32.3092  -28.7253   20.8199 C   0  0  0  0  0  0  0  0  0  0  0  0
  -29.2352  -22.1746   21.3160 C   0  0  0  0  0  0  0  0  0  0  0  0
  -29.6448  -20.7574   23.3339 C   0  0  0  0  0  0  0  0  0  0  0  0
  -22.7891  -27.5055   22.7565 C   0  0  0  0  0  0  0  0  0  0  0  0
  -23.9517  -25.3987   24.9318 C   0  0  0  0  0  0  0  0  0  0  0  0
  -26.6269  -23.6502   26.1289 C   0  0  0  0  0  0  0  0  0  0  0  0
  -30.3289  -25.3088   16.8297 C   0  0  0  0  0  0  0  0  0  0  0  0
  -17.8095  -28.5764   23.0956 C   0  0  0  0  0  0  0  0  0  0  0  0
  -23.9443  -25.8308   21.2676 C   0  0  0  0  0  0  0  0  0  0  0  0
  -25.6527  -26.6397   23.5418 C   0  0  0  0  0  0  0  0  0  0  0  0
  -18.9215  -28.2303   24.0826 C   0  0  0  0  0  0  0  0  0  0  0  0
  -27.2929  -23.4488   16.8226 C   0  0  0  0  0  0  0  0  0  0  0  0
  -20.1544  -29.0894   23.8204 C   0  0  0  0  0  0  0  0  0  0  0  0
  -27.4621  -22.4680   17.9842 C   0  0  0  0  0  0  0  0  0  0  0  0
  -28.6105  -23.6860   16.0879 C   0  0  0  0  0  0  0  0  0  0  0  0
  -29.9020  -23.1237   18.1102 C   0  0  0  0  0  0  0  0  0  0  0  0
  -20.7146  -28.8363   22.4155 C   0  0  1  0  0  0  0  0  0  0  0  0
  -23.3609  -26.1203   22.6471 C   0  0  1  0  0  0  0  0  0  0  0  0
  -28.6118  -22.8957   18.9162 C   0  0  2  0  0  0  0  0  0  0  0  0
  -34.1318  -27.7055   22.2830 C   0  0  0  0  0  0  0  0  0  0  0  0
  -31.8210  -29.8441   21.6542 C   0  0  0  0  0  0  0  0  0  0  0  0
  -27.8895  -22.0029   27.5394 C   0  0  0  0  0  0  0  0  0  0  0  0
  -23.9452  -27.6796   26.9585 C   0  0  0  0  0  0  0  0  0  0  0  0
  -25.4515  -26.3026   28.4086 C   0  0  0  0  0  0  0  0  0  0  0  0
  -23.1609  -25.4821   27.8586 C   0  0  0  0  0  0  0  0  0  0  0  0
  -26.1146  -21.4472   24.2202 C   0  0  0  0  0  0  0  0  0  0  0  0
  -32.0744  -26.8407   17.7046 C   0  0  0  0  0  0  0  0  0  0  0  0
  -30.6735  -29.2366   18.9208 C   0  0  0  0  0  0  0  0  0  0  0  0
  -29.3371  -28.5046   18.9785 C   0  0  0  0  0  0  0  0  0  1  0  0
  -24.9445  -25.4723   26.0667 C   0  0  1  0  0  0  0  0  0  0  0  0
  -26.7871  -22.1892   26.5084 C   0  0  2  0  0  0  0  0  0  0  0  0
  -24.3830  -26.2405   27.2964 C   0  0  0  0  0  0  0  0  0  0  0  0
  -28.5630  -20.6031   19.8240 N   0  0  0  0  0  0  0  0  0  0  0  0
  -31.7838  -28.4573   19.5829 N   0  0  0  0  0  0  0  0  0  0  0  0
  -28.8137  -21.9043   20.0473 N   0  0  0  0  0  0  0  0  0  0  0  0
  -24.3484  -25.9802   23.7192 N   0  0  0  0  0  0  0  0  0  0  0  0
  -29.6586  -24.0904   17.0281 N   0  0  0  0  0  0  0  0  0  0  0  0
  -29.5315  -23.4315   21.7097 N   0  0  0  0  0  0  0  0  0  0  0  0
  -29.6150  -19.4524   23.8442 N   0  0  0  0  0  0  0  0  0  0  0  0
  -21.4613  -27.5970   22.3849 N   0  0  0  0  0  0  0  0  0  0  0  0
  -25.3418  -24.0977   26.3513 N   0  0  0  0  0  0  0  0  0  0  0  0
  -31.3035  -25.6192   17.7702 N   0  0  0  0  0  0  0  0  0  0  0  0
  -27.1256  -21.3759   25.3063 N   0  3  0  0  0  0  0  0  0  0  0  0
  -29.9872  -21.7024   24.0844 O   0  0  0  0  0  0  0  0  0  0  0  0
  -23.4995  -28.4230   23.1503 O   0  0  0  0  0  0  0  0  0  0  0  0
  -22.8672  -24.8394   25.1124 O   0  0  0  0  0  0  0  0  0  0  0  0
  -27.5504  -24.3279   25.6835 O   0  0  0  0  0  0  0  0  0  0  0  0
  -30.0737  -26.0665   15.8875 O   0  0  0  0  0  0  0  0  0  0  0  0
  -28.2603  -14.5118   21.6555 O   0  0  0  0  0  0  0  0  0  0  0  0
  -28.9553  -28.3044   20.3388 O   0  0  0  0  0  0  0  0  0  1  0  0
  -30.2454  -11.2408   17.6851 F   0  0  0  0  0  0  0  0  0  0  0  0
  -27.3199  -14.6977   19.0625 F   0  0  0  0  0  0  0  0  0  0  0  0
  1  2  1  0  0  0  0
  1  5  2  0  0  0  0
  2  6  2  0  0  0  0
  3  8  2  0  0  0  0
  3 16  1  0  0  0  0
  4  9  1  0  0  0  0
  4 16  2  0  0  0  0
  5 18  1  0  0  0  0
  6 20  1  0  0  0  0
  7 10  2  0  0  0  0
  7 19  1  0  0  0  0
  8 23  1  0  0  0  0
  9 23  2  0  0  0  0
 10 24  1  0  0  0  0
 11 12  2  0  0  0  0
 11 25  1  0  0  0  0
 12 26  1  0  0  0  0
 13 21  1  0  0  0  0
 13 24  2  0  0  0  0
 14 22  1  0  0  0  0
 14 29  2  0  0  0  0
 15 26  2  0  0  0  0
 15 27  1  0  0  0  0
 16 28  1  0  0  0  0
 17 28  1  0  0  0  0
 17 31  2  0  0  0  0
 17 32  1  0  0  0  0
 18 20  2  0  0  0  0
 18 37  1  0  0  0  0
 19 21  2  0  0  0  0
 19 38  1  0  0  0  0
 20 46  1  0  0  0  0
 21 39  1  0  0  0  0
 22 30  2  0  0  0  0
 22 49  1  0  0  0  0
 23 78  1  0  0  0  0
 24 79  1  0  0  0  0
 25 27  2  0  0  0  0
 25 78  1  0  0  0  0
 26 80  1  0  0  0  0
 27 81  1  0  0  0  0
 28 62  2  0  0  0  0
 29 56  1  0  0  0  0
 29 63  1  0  0  0  0
 30 50  1  0  0  0  0
 30 63  1  0  0  0  0
 31 64  1  0  0  0  0
 31 67  1  0  0  0  0
 32 68  1  0  0  0  0
 32 73  2  0  0  0  0
 33 47  1  0  0  0  0
 33 69  1  0  0  0  0
 33 74  2  0  0  0  0
 34 59  1  0  0  0  0
 34 65  1  0  0  0  0
 34 75  2  0  0  0  0
 35 60  1  0  0  0  0
 35 70  1  0  0  0  0
 35 76  2  0  0  0  0
 36 66  1  0  0  0  0
 36 71  1  0  0  0  0
 36 77  2  0  0  0  0
 37 40  1  0  0  0  0
 38 47  1  0  0  0  0
 39 65  1  0  0  0  0
 40 42  1  0  0  0  0
 41 43  1  0  0  0  0
 41 44  1  0  0  0  0
 42 46  1  0  0  0  0
 43 48  1  0  0  0  0
 44 66  1  0  0  0  0
 45 48  1  0  0  0  0
 45 66  1  0  0  0  0
 46 69  1  0  0  0  0
 47 65  1  0  0  0  0
 48 64  1  0  0  0  0
 51 60  1  0  0  0  0
 52 61  1  0  0  0  0
 53 61  1  0  0  0  0
 54 61  1  0  0  0  0
 55 72  1  0  0  0  0
 56 71  1  0  0  0  0
 57 58  1  0  0  0  0
 57 63  1  0  0  0  0
 58 79  1  0  0  0  0
 59 61  1  0  0  0  0
 59 70  1  0  0  0  0
 60 72  1  0  0  0  0
 62 64  1  0  0  0  0
M  CHG  1  72   1
M  ISO  4  36 100  58 101  71 100  79 101
M  END
> <Batch ID>
0103

> <Smiles>
CNC(C)C(=O)NC(C(=O)N1Cc2cc([101O:1][101CH2:1]Cn3c(C[100NH:0][100C:0](=O)N4CCCC(n5nc(-c6ccc(Oc7ccc(F)cc7F)cc6)c(C(N)=O)c5N)C4)cc(C)c3C)ccc2CC1C(=O)NC1CCCc2ccccc21)C(C)(C)C

> <Shape>
0.207

> <Color>
0.056

> <Negative vol penalty>
0.000

$$$$

  -OEChem-04052319413D

 85 93  0     1  0  0  0  0  0999 V2000
  -29.8469  -17.9601   31.1351 C   0  0  0  0  0  0  0  0  0  0  0  0
  -30.6676  -17.9300   30.0121 C   0  0  0  0  0  0  0  0  0  0  0  0
  -23.0771   -9.8758   19.9530 C   0  0  0  0  0  0  0  0  0  0  0  0
  -23.7537   -9.9488   22.2712 C   0  0  0  0  0  0  0  0  0  0  0  0
  -28.6427  -18.6618   31.0984 C   0  0  0  0  0  0  0  0  0  0  0  0
  -30.2839  -18.6008   28.8514 C   0  0  0  0  0  0  0  0  0  0  0  0
  -33.0540  -22.1596   23.2856 C   0  0  0  0  0  0  0  0  0  0  0  0
  -29.5855  -20.0232   20.0933 C   0  0  0  0  0  0  0  0  0  0  0  0
  -29.3006  -18.8516   20.7945 C   0  0  0  0  0  0  0  0  0  0  0  0
  -22.3293   -8.7262   20.2074 C   0  0  0  0  0  0  0  0  0  0  0  0
  -23.0059   -8.7992   22.5256 C   0  0  0  0  0  0  0  0  0  0  0  0
  -33.0162  -22.1776   21.8921 C   0  0  0  0  0  0  0  0  0  0  0  0
  -23.3299   -5.4648   22.0700 C   0  0  0  0  0  0  0  0  0  0  0  0
  -23.9232   -4.4624   22.8373 C   0  0  0  0  0  0  0  0  0  0  0  0
  -30.9518  -23.4230   21.9701 C   0  0  0  0  0  0  0  0  0  0  0  0
  -22.1606   -4.6738   24.4762 C   0  0  0  0  0  0  0  0  0  0  0  0
  -23.7894  -10.4871   20.9849 C   0  0  0  0  0  0  0  0  0  0  0  0
  -24.1253  -13.0097   20.8084 C   0  0  0  0  0  0  0  0  0  0  0  0
  -28.2487  -19.3496   29.9398 C   0  0  0  0  0  0  0  0  0  0  0  0
  -32.0336  -22.7648   24.0332 C   0  0  0  0  0  0  0  0  0  0  0  0
  -29.0727  -19.3113   28.7988 C   0  0  0  0  0  0  0  0  0  0  0  0
  -30.9803  -23.4135   23.3730 C   0  0  0  0  0  0  0  0  0  0  0  0
  -30.0009  -19.9565   18.7634 C   0  0  0  0  0  0  0  0  0  0  0  0
  -29.4313  -17.6133   20.1660 C   0  0  0  0  0  0  0  0  0  0  0  0
  -30.1316  -18.7182   18.1348 C   0  0  0  0  0  0  0  0  0  0  0  0
  -29.8468  -17.5465   18.8360 C   0  0  0  0  0  0  0  0  0  0  0  0
  -22.2936   -8.1879   21.4937 C   0  0  0  0  0  0  0  0  0  0  0  0
  -31.9635  -22.8068   21.2341 C   0  0  0  0  0  0  0  0  0  0  0  0
  -22.1520   -6.0718   22.5057 C   0  0  0  0  0  0  0  0  0  0  0  0
  -23.3385   -4.0668   24.0404 C   0  0  0  0  0  0  0  0  0  0  0  0
  -21.5674   -5.6762   23.7088 C   0  0  0  0  0  0  0  0  0  0  0  0
  -24.5625  -11.6743   20.7226 C   0  0  0  0  0  0  0  0  0  0  0  0
  -25.2269  -13.7545   20.4643 C   0  0  0  0  0  0  0  0  0  0  0  0
  -22.8385  -13.5304   21.1671 C   0  0  0  0  0  0  0  0  0  0  0  0
  -29.8767  -21.7362   26.1293 C   0  0  0  0  0  0  0  0  0  0  0  0
  -29.2360  -24.9015   26.4344 C   0  0  0  0  0  0  0  0  0  0  0  0
  -29.3369  -28.0235   25.0598 C   0  0  0  0  0  0  0  0  0  0  0  0
  -30.8040  -14.5115   21.2638 C   0  0  0  0  0  0  0  0  0  0  0  0
  -26.9157  -20.0551   29.9324 C   0  0  0  0  0  0  0  0  0  0  0  0
  -32.1029  -22.7598   25.5357 C   0  0  0  0  0  0  0  0  0  0  0  0
  -29.8707  -24.0956   24.1294 C   0  0  0  0  0  0  0  0  0  0  0  0
  -26.7598  -21.0507   28.7858 C   0  0  0  0  0  0  0  0  0  0  0  0
  -29.6546  -12.3844   18.4610 C   0  0  0  0  0  0  0  0  0  0  0  0
  -27.2183  -20.4270   27.4713 C   0  0  0  0  0  0  0  0  0  0  0  0
  -28.2125  -12.0674   18.8531 C   0  0  0  0  0  0  0  0  0  0  0  0
  -30.5326  -12.6355   19.6832 C   0  0  0  0  0  0  0  0  0  0  0  0
  -28.5651  -13.3694   20.9887 C   0  0  0  0  0  0  0  0  0  0  0  0
  -28.7028  -20.0471   27.5292 C   0  0  1  0  0  0  0  0  0  0  0  0
  -30.7431  -22.9619   26.1972 C   0  0  1  0  0  0  0  0  0  0  0  0
  -27.6434  -13.1570   19.7784 C   0  0  2  0  0  0  0  0  0  0  0  0
  -30.5761  -18.6498   16.7081 C   0  0  0  0  0  0  0  0  0  0  0  0
  -29.9878  -16.2174   18.1640 C   0  0  0  0  0  0  0  0  0  0  0  0
  -28.0450  -16.5956   22.0110 C   0  0  0  0  0  0  0  0  0  0  0  0
  -28.7049  -30.4056   25.5329 C   0  0  0  0  0  0  0  0  0  0  0  0
  -26.3137  -24.2375   25.8608 C   0  0  0  0  0  0  0  0  0  0  0  0
  -25.9227  -26.6685   25.4076 C   0  0  0  0  0  0  0  0  0  0  0  0
  -26.6637  -25.9270   27.6712 C   0  0  0  0  0  0  0  0  0  0  0  0
  -31.1762  -16.7376   22.2566 C   0  0  0  0  0  0  0  0  0  0  0  0
  -32.1497  -28.9268   24.8825 C   0  0  0  0  0  0  0  0  0  0  0  0
  -30.3019  -21.2382   18.0283 C   0  0  0  0  0  0  0  0  0  0  0  0
  -31.7975  -21.5184   17.8659 C   0  0  0  0  0  0  0  0  0  0  0  0
  -32.5209  -21.7232   19.1918 C   0  0  0  0  0  0  0  0  0  1  0  0
  -29.1218  -16.3737   20.9403 C   0  0  2  0  0  0  0  0  0  0  0  0
  -28.3068  -25.8749   25.7504 C   0  0  1  0  0  0  0  0  0  0  0  0
  -29.8019  -29.3559   25.6193 C   0  0  2  0  0  0  0  0  0  0  0  0
  -26.8214  -25.6626   26.1579 C   0  0  0  0  0  0  0  0  0  0  0  0
  -25.8420  -11.5735   20.3528 N   0  0  0  0  0  0  0  0  0  0  0  0
  -26.2182  -12.8549   20.2031 N   0  0  0  0  0  0  0  0  0  0  0  0
  -29.9799  -24.0581   25.5971 N   0  0  0  0  0  0  0  0  0  0  0  0
  -29.9469  -13.6439   20.5671 N   0  0  0  0  0  0  0  0  0  0  0  0
  -25.4345  -15.0845   20.3626 N   0  0  0  0  0  0  0  0  0  0  0  0
  -21.8187  -12.6257   21.4925 N   0  0  0  0  0  0  0  0  0  0  0  0
  -29.5319  -21.2218   27.3646 N   0  0  0  0  0  0  0  0  0  0  0  0
  -28.8226  -27.2074   26.0451 N   0  0  0  0  0  0  0  0  0  0  0  0
  -30.3203  -15.7979   21.5463 N   0  0  0  0  0  0  0  0  0  0  0  0
  -30.9864  -29.8506   24.8621 N   0  3  0  0  0  0  0  0  0  0  0  0
  -22.5955  -14.7610   21.1823 O   0  0  0  0  0  0  0  0  0  0  0  0
  -29.5443  -21.2911   25.0370 O   0  0  0  0  0  0  0  0  0  0  0  0
  -29.3047  -24.8947   27.6660 O   0  0  0  0  0  0  0  0  0  0  0  0
  -29.4181  -27.7369   23.8674 O   0  0  0  0  0  0  0  0  0  0  0  0
  -31.9406  -14.1597   21.6050 O   0  0  0  0  0  0  0  0  0  0  0  0
  -21.5638   -7.0663   21.7424 O   0  0  0  0  0  0  0  0  0  0  0  0
  -31.9239  -22.8252   19.8740 O   0  0  0  0  0  0  0  0  0  1  0  0
  -23.9075   -3.1031   24.7764 F   0  0  0  0  0  0  0  0  0  0  0  0
  -20.4352   -6.2549   24.1321 F   0  0  0  0  0  0  0  0  0  0  0  0
  1  2  1  0  0  0  0
  1  5  2  0  0  0  0
  2  6  2  0  0  0  0
  3 10  2  0  0  0  0
  3 17  1  0  0  0  0
  4 11  1  0  0  0  0
  4 17  2  0  0  0  0
  5 19  1  0  0  0  0
  6 21  1  0  0  0  0
  7 12  2  0  0  0  0
  7 20  1  0  0  0  0
  8  9  2  0  0  0  0
  8 23  1  0  0  0  0
  9 24  1  0  0  0  0
 10 27  1  0  0  0  0
 11 27  2  0  0  0  0
 12 28  1  0  0  0  0
 13 14  2  0  0  0  0
 13 29  1  0  0  0  0
 14 30  1  0  0  0  0
 15 22  1  0  0  0  0
 15 28  2  0  0  0  0
 16 30  2  0  0  0  0
 16 31  1  0  0  0  0
 17 32  1  0  0  0  0
 18 32  1  0  0  0  0
 18 33  2  0  0  0  0
 18 34  1  0  0  0  0
 19 21  2  0  0  0  0
 19 39  1  0  0  0  0
 20 22  2  0  0  0  0
 20 40  1  0  0  0  0
 21 48  1  0  0  0  0
 22 41  1  0  0  0  0
 23 25  2  0  0  0  0
 23 60  1  0  0  0  0
 24 26  2  0  0  0  0
 24 63  1  0  0  0  0
 25 26  1  0  0  0  0
 25 51  1  0  0  0  0
 26 52  1  0  0  0  0
 27 82  1  0  0  0  0
 28 83  1  0  0  0  0
 29 31  2  0  0  0  0
 29 82  1  0  0  0  0
 30 84  1  0  0  0  0
 31 85  1  0  0  0  0
 32 67  2  0  0  0  0
 33 68  1  0  0  0  0
 33 71  1  0  0  0  0
 34 72  1  0  0  0  0
 34 77  2  0  0  0  0
 35 49  1  0  0  0  0
 35 73  1  0  0  0  0
 35 78  2  0  0  0  0
 36 64  1  0  0  0  0
 36 69  1  0  0  0  0
 36 79  2  0  0  0  0
 37 65  1  0  0  0  0
 37 74  1  0  0  0  0
 37 80  2  0  0  0  0
 38 70  1  0  0  0  0
 38 75  1  0  0  0  0
 38 81  2  0  0  0  0
 39 42  1  0  0  0  0
 40 49  1  0  0  0  0
 41 69  1  0  0  0  0
 42 44  1  0  0  0  0
 43 45  1  0  0  0  0
 43 46  1  0  0  0  0
 44 48  1  0  0  0  0
 45 50  1  0  0  0  0
 46 70  1  0  0  0  0
 47 50  1  0  0  0  0
 47 70  1  0  0  0  0
 48 73  1  0  0  0  0
 49 69  1  0  0  0  0
 50 68  1  0  0  0  0
 53 63  1  0  0  0  0
 54 65  1  0  0  0  0
 55 66  1  0  0  0  0
 56 66  1  0  0  0  0
 57 66  1  0  0  0  0
 58 75  1  0  0  0  0
 59 76  1  0  0  0  0
 60 61  1  0  0  0  0
 61 62  1  0  0  0  0
 62 83  1  0  0  0  0
 63 75  1  0  0  0  0
 64 66  1  0  0  0  0
 64 74  1  0  0  0  0
 65 76  1  0  0  0  0
 67 68  1  0  0  0  0
M  CHG  1  76   1
M  ISO  4  38 100  62 101  75 100  83 101
M  END
> <Batch ID>
0103

> <Smiles>
CNC(C)C(=O)NC(C(=O)N1Cc2cc([101O:1][101CH2:1]CCc3ccc(C(C)[100N:0](C)[100C:0](=O)N4CCCC(n5nc(-c6ccc(Oc7ccc(F)cc7F)cc6)c(C(N)=O)c5N)C4)c(C)c3C)ccc2CC1C(=O)NC1CCCc2ccccc21)C(C)(C)C

> <Shape>
0.213

> <Color>
0.189

> <Negative vol penalty>
0.000

$$$$

  -OEChem-04052319413D

 85 93  0     1  0  0  0  0  0999 V2000
  -24.5065  -35.0732   23.2076 C   0  0  0  0  0  0  0  0  0  0  0  0
  -25.3064  -33.9674   22.9375 C   0  0  0  0  0  0  0  0  0  0  0  0
  -24.9820  -12.6471   21.6572 C   0  0  0  0  0  0  0  0  0  0  0  0
  -25.1465  -12.9505   19.2660 C   0  0  0  0  0  0  0  0  0  0  0  0
  -23.2368  -34.8965   23.7557 C   0  0  0  0  0  0  0  0  0  0  0  0
  -24.8373  -32.6842   23.2164 C   0  0  0  0  0  0  0  0  0  0  0  0
  -25.7510  -29.4212   19.4531 C   0  0  0  0  0  0  0  0  0  0  0  0
  -24.2265  -11.4915   21.4586 C   0  0  0  0  0  0  0  0  0  0  0  0
  -24.3911  -11.7949   19.0674 C   0  0  0  0  0  0  0  0  0  0  0  0
  -27.0466  -28.9169   19.3481 C   0  0  0  0  0  0  0  0  0  0  0  0
  -24.7866   -8.2604   20.6345 C   0  0  0  0  0  0  0  0  0  0  0  0
  -25.1091   -7.1364   21.3949 C   0  0  0  0  0  0  0  0  0  0  0  0
  -26.3384  -26.8864   20.4410 C   0  0  0  0  0  0  0  0  0  0  0  0
  -30.3829  -21.2155   18.3048 C   0  0  0  0  0  0  0  0  0  0  0  0
  -22.8847   -7.1359   22.3378 C   0  0  0  0  0  0  0  0  0  0  0  0
  -25.4419  -13.3767   20.5609 C   0  0  0  0  0  0  0  0  0  0  0  0
  -27.6225  -14.6633   20.8733 C   0  0  0  0  0  0  0  0  0  0  0  0
  -22.7481  -33.6099   24.0325 C   0  0  0  0  0  0  0  0  0  0  0  0
  -24.7402  -28.6649   20.0637 C   0  0  0  0  0  0  0  0  0  0  0  0
  -23.5603  -32.4902   23.7700 C   0  0  0  0  0  0  0  0  0  0  0  0
  -25.0303  -27.3822   20.5502 C   0  0  0  0  0  0  0  0  0  0  0  0
  -31.4316  -22.0410   17.9147 C   0  0  0  0  0  0  0  0  0  0  0  0
  -31.3138  -23.4192   18.0563 C   0  0  0  0  0  0  0  0  0  0  0  0
  -23.9311  -11.0654   20.1637 C   0  0  0  0  0  0  0  0  0  0  0  0
  -27.3411  -27.6505   19.8447 C   0  0  0  0  0  0  0  0  0  0  0  0
  -23.5131   -8.8222   20.7258 C   0  0  0  0  0  0  0  0  0  0  0  0
  -24.1582   -6.5742   22.2465 C   0  0  0  0  0  0  0  0  0  0  0  0
  -22.5621   -8.2600   21.5773 C   0  0  0  0  0  0  0  0  0  0  0  0
  -26.2219  -14.5708   20.7654 C   0  0  0  0  0  0  0  0  0  0  0  0
  -30.1361  -23.9181   18.5891 C   0  0  0  0  0  0  0  0  0  0  0  0
  -29.2470  -21.8131   18.8267 C   0  0  0  0  0  0  0  0  0  0  0  0
  -27.8648  -16.0024   21.0591 C   0  0  0  0  0  0  0  0  0  0  0  0
  -28.6156  -13.6310   20.8112 C   0  0  0  0  0  0  0  0  0  0  0  0
  -22.8888  -29.0437   22.6195 C   0  0  0  0  0  0  0  0  0  0  0  0
  -21.4805  -26.3372   21.5176 C   0  0  0  0  0  0  0  0  0  0  0  0
  -21.7394  -23.4869   19.6587 C   0  0  0  0  0  0  0  0  0  0  0  0
  -26.9576  -21.3418   19.7665 C   0  0  0  0  0  0  0  0  0  0  0  0
  -21.3877  -33.4714   24.6688 C   0  0  0  0  0  0  0  0  0  0  0  0
  -23.3416  -29.2123   20.1452 C   0  0  0  0  0  0  0  0  0  0  0  0
  -23.9761  -26.5221   21.1963 C   0  0  0  0  0  0  0  0  0  0  0  0
  -20.8180  -32.0576   24.5867 C   0  0  0  0  0  0  0  0  0  0  0  0
  -24.6899  -19.8182   22.0497 C   0  0  0  0  0  0  0  0  0  0  0  0
  -21.8745  -31.0322   24.9857 C   0  0  0  0  0  0  0  0  0  0  0  0
  -25.0015  -18.3248   21.9280 C   0  0  0  0  0  0  0  0  0  0  0  0
  -24.8033  -20.5327   20.7042 C   0  0  0  0  0  0  0  0  0  0  0  0
  -26.3868  -18.8363   19.8770 C   0  0  0  0  0  0  0  0  0  0  0  0
  -23.0771  -31.0809   24.0356 C   0  0  1  0  0  0  0  0  0  0  0  0
  -22.5094  -28.5638   21.2472 C   0  0  1  0  0  0  0  0  0  0  0  0
  -26.3489  -18.0862   21.2185 C   0  0  2  0  0  0  0  0  0  0  0  0
  -32.4225  -24.3297   17.6476 C   0  0  0  0  0  0  0  0  0  0  0  0
  -33.8541  -21.2117   19.6149 C   0  0  0  0  0  0  0  0  0  0  0  0
  -31.8582  -21.5262   14.9148 C   0  0  0  0  0  0  0  0  0  0  0  0
  -20.4355  -21.4537   18.9783 C   0  0  0  0  0  0  0  0  0  0  0  0
  -21.9272  -25.1282   24.2833 C   0  0  0  0  0  0  0  0  0  0  0  0
  -21.5005  -22.8706   23.2887 C   0  0  0  0  0  0  0  0  0  0  0  0
  -19.7058  -24.6029   23.2615 C   0  0  0  0  0  0  0  0  0  0  0  0
  -21.9049  -24.1980   16.7906 C   0  0  0  0  0  0  0  0  0  0  0  0
  -29.9503  -25.4056   18.7654 C   0  0  0  0  0  0  0  0  0  0  0  0
  -33.4000  -20.4874   18.3530 C   0  0  0  0  0  0  0  0  0  0  0  0
  -32.4120  -20.6430   16.0267 C   0  0  0  0  0  0  0  0  0  0  0  0
  -28.7416  -25.7401   19.6328 C   0  0  0  0  0  0  0  0  0  1  0  0
  -32.6687  -21.4264   17.3482 C   0  0  0  0  0  0  0  0  0  0  0  0
  -21.6980  -24.8579   21.7259 C   0  0  1  0  0  0  0  0  0  0  0  0
  -20.8212  -22.8789   18.6139 C   0  0  2  0  0  0  0  0  0  0  0  0
  -21.2284  -24.3816   23.1294 C   0  0  0  0  0  0  0  0  0  0  0  0
  -25.6170  -15.7567   20.8738 N   0  0  0  0  0  0  0  0  0  0  0  0
  -29.0959  -23.1478   18.9793 N   0  0  0  0  0  0  0  0  0  0  0  0
  -26.6423  -16.6070   21.0518 N   0  0  0  0  0  0  0  0  0  0  0  0
  -22.6252  -27.1041   21.2581 N   0  0  0  0  0  0  0  0  0  0  0  0
  -26.1069  -20.2645   20.0930 N   0  0  0  0  0  0  0  0  0  0  0  0
  -29.0023  -16.7099   21.2264 N   0  0  0  0  0  0  0  0  0  0  0  0
  -28.1937  -12.3089   20.6151 N   0  0  0  0  0  0  0  0  0  0  0  0
  -28.1839  -20.9633   19.2209 N   0  0  0  0  0  0  0  0  0  0  0  0
  -22.7661  -30.4092   22.7919 N   0  0  0  0  0  0  0  0  0  0  0  0
  -21.0333  -24.1871   20.6139 N   0  0  0  0  0  0  0  0  0  0  0  0
  -21.4922  -22.8586   17.2834 N   0  3  0  0  0  0  0  0  0  0  0  0
  -29.8396  -13.8718   20.9424 O   0  0  0  0  0  0  0  0  0  0  0  0
  -23.2636  -28.2347   23.4603 O   0  0  0  0  0  0  0  0  0  0  0  0
  -20.3363  -26.7943   21.5759 O   0  0  0  0  0  0  0  0  0  0  0  0
  -22.9606  -23.3510   19.6324 O   0  0  0  0  0  0  0  0  0  0  0  0
  -26.6341  -22.5126   19.9820 O   0  0  0  0  0  0  0  0  0  0  0  0
  -23.1942   -9.9376   19.9696 O   0  0  0  0  0  0  0  0  0  0  0  0
  -28.6050  -27.1562   19.7440 O   0  0  0  0  0  0  0  0  0  1  0  0
  -24.4676   -5.4939   22.9755 F   0  0  0  0  0  0  0  0  0  0  0  0
  -21.3367   -8.7946   21.6683 F   0  0  0  0  0  0  0  0  0  0  0  0
  1  2  1  0  0  0  0
  1  5  2  0  0  0  0
  2  6  2  0  0  0  0
  3  8  2  0  0  0  0
  3 16  1  0  0  0  0
  4  9  1  0  0  0  0
  4 16  2  0  0  0  0
  5 18  1  0  0  0  0
  6 20  1  0  0  0  0
  7 10  2  0  0  0  0
  7 19  1  0  0  0  0
  8 24  1  0  0  0  0
  9 24  2  0  0  0  0
 10 25  1  0  0  0  0
 11 12  2  0  0  0  0
 11 26  1  0  0  0  0
 12 27  1  0  0  0  0
 13 21  1  0  0  0  0
 13 25  2  0  0  0  0
 14 22  1  0  0  0  0
 14 31  2  0  0  0  0
 15 27  2  0  0  0  0
 15 28  1  0  0  0  0
 16 29  1  0  0  0  0
 17 29  1  0  0  0  0
 17 32  2  0  0  0  0
 17 33  1  0  0  0  0
 18 20  2  0  0  0  0
 18 38  1  0  0  0  0
 19 21  2  0  0  0  0
 19 39  1  0  0  0  0
 20 47  1  0  0  0  0
 21 40  1  0  0  0  0
 22 23  2  0  0  0  0
 22 62  1  0  0  0  0
 23 30  1  0  0  0  0
 23 50  1  0  0  0  0
 24 82  1  0  0  0  0
 25 83  1  0  0  0  0
 26 28  2  0  0  0  0
 26 82  1  0  0  0  0
 27 84  1  0  0  0  0
 28 85  1  0  0  0  0
 29 66  2  0  0  0  0
 30 58  1  0  0  0  0
 30 67  2  0  0  0  0
 31 67  1  0  0  0  0
 31 73  1  0  0  0  0
 32 68  1  0  0  0  0
 32 71  1  0  0  0  0
 33 72  1  0  0  0  0
 33 77  2  0  0  0  0
 34 48  1  0  0  0  0
 34 74  1  0  0  0  0
 34 78  2  0  0  0  0
 35 63  1  0  0  0  0
 35 69  1  0  0  0  0
 35 79  2  0  0  0  0
 36 64  1  0  0  0  0
 36 75  1  0  0  0  0
 36 80  2  0  0  0  0
 37 70  1  0  0  0  0
 37 73  1  0  0  0  0
 37 81  2  0  0  0  0
 38 41  1  0  0  0  0
 39 48  1  0  0  0  0
 40 69  1  0  0  0  0
 41 43  1  0  0  0  0
 42 44  1  0  0  0  0
 42 45  1  0  0  0  0
 43 47  1  0  0  0  0
 44 49  1  0  0  0  0
 45 70  1  0  0  0  0
 46 49  1  0  0  0  0
 46 70  1  0  0  0  0
 47 74  1  0  0  0  0
 48 69  1  0  0  0  0
 49 68  1  0  0  0  0
 51 59  1  0  0  0  0
 52 60  1  0  0  0  0
 53 64  1  0  0  0  0
 54 65  1  0  0  0  0
 55 65  1  0  0  0  0
 56 65  1  0  0  0  0
 57 76  1  0  0  0  0
 58 61  1  0  0  0  0
 59 62  1  0  0  0  0
 60 62  1  0  0  0  0
 61 83  1  0  0  0  0
 63 65  1  0  0  0  0
 63 75  1  0  0  0  0
 64 76  1  0  0  0  0
 66 68  1  0  0  0  0
M  CHG  1  76   1
M  ISO  4  37 100  61 101  73 100  83 101
M  END
> <Batch ID>
0103

> <Smiles>
CCC(CC)c1cc([100NH:0][100C:0](=O)N2CCCC(n3nc(-c4ccc(Oc5ccc(F)cc5F)cc4)c(C(N)=O)c3N)C2)nc(C[101CH2:1][101O:1]c2ccc3c(c2)CN(C(=O)C(NC(=O)C(C)NC)C(C)(C)C)C(C(=O)NC2CCCc4ccccc42)C3)c1C

> <Shape>
0.246

> <Color>
0.087

> <Negative vol penalty>
0.000

$$$$

  -OEChem-04052319413D

 89 97  0     1  0  0  0  0  0999 V2000
  -28.0752  -37.2352   18.3515 C   0  0  0  0  0  0  0  0  0  0  0  0
  -28.4833  -35.9058   18.3918 C   0  0  0  0  0  0  0  0  0  0  0  0
  -27.5081  -14.4606   22.0593 C   0  0  0  0  0  0  0  0  0  0  0  0
  -26.1505  -15.0260   20.1425 C   0  0  0  0  0  0  0  0  0  0  0  0
  -27.1765  -37.7165   19.3027 C   0  0  0  0  0  0  0  0  0  0  0  0
  -27.9938  -35.0572   19.3841 C   0  0  0  0  0  0  0  0  0  0  0  0
  -26.7634  -29.0825   18.8405 C   0  0  0  0  0  0  0  0  0  0  0  0
  -27.1835  -13.1144   21.8921 C   0  0  0  0  0  0  0  0  0  0  0  0
  -25.8259  -13.6797   19.9752 C   0  0  0  0  0  0  0  0  0  0  0  0
  -27.4854  -27.9409   19.1858 C   0  0  0  0  0  0  0  0  0  0  0  0
  -23.7182  -11.4335   21.3690 C   0  0  0  0  0  0  0  0  0  0  0  0
  -22.3831  -11.1146   21.1213 C   0  0  0  0  0  0  0  0  0  0  0  0
  -26.2771  -27.8145   21.2699 C   0  0  0  0  0  0  0  0  0  0  0  0
  -23.0126  -10.1164   19.0131 C   0  0  0  0  0  0  0  0  0  0  0  0
  -26.9915  -15.4164   21.1845 C   0  0  0  0  0  0  0  0  0  0  0  0
  -28.4142  -17.4967   20.7894 C   0  0  0  0  0  0  0  0  0  0  0  0
  -26.6682  -36.8708   20.3012 C   0  0  0  0  0  0  0  0  0  0  0  0
  -25.7988  -29.6058   19.7135 C   0  0  0  0  0  0  0  0  0  0  0  0
  -27.0884  -35.5279   20.3502 C   0  0  0  0  0  0  0  0  0  0  0  0
  -25.5424  -28.9613   20.9321 C   0  0  0  0  0  0  0  0  0  0  0  0
  -27.4900  -23.4809   19.7872 C   0  0  0  0  0  0  0  0  0  0  0  0
  -26.2421  -23.0984   19.2361 C   0  0  0  0  0  0  0  0  0  0  0  0
  -26.3425  -12.7239   20.8501 C   0  0  0  0  0  0  0  0  0  0  0  0
  -27.2444  -27.3084   20.4019 C   0  0  0  0  0  0  0  0  0  0  0  0
  -24.7006  -11.0938   20.4387 C   0  0  0  0  0  0  0  0  0  0  0  0
  -22.0303  -10.4561   19.9434 C   0  0  0  0  0  0  0  0  0  0  0  0
  -24.3478  -10.4353   19.2608 C   0  0  0  0  0  0  0  0  0  0  0  0
  -27.3260  -16.8073   21.3570 C   0  0  0  0  0  0  0  0  0  0  0  0
  -28.4120  -23.4703   18.7639 C   0  0  0  0  0  0  0  0  0  0  0  0
  -26.4396  -22.8656   17.8929 C   0  0  0  0  0  0  0  0  0  0  0  0
  -28.2880  -18.7820   21.2569 C   0  0  0  0  0  0  0  0  0  0  0  0
  -29.4468  -17.0180   19.9174 C   0  0  0  0  0  0  0  0  0  0  0  0
  -25.4384  -32.3528   21.2717 C   0  0  0  0  0  0  0  0  0  0  0  0
  -22.5639  -31.0762   22.0653 C   0  0  0  0  0  0  0  0  0  0  0  0
  -20.6578  -28.2797   22.5048 C   0  0  0  0  0  0  0  0  0  0  0  0
  -23.6061  -21.9785   23.1838 C   0  0  0  0  0  0  0  0  0  0  0  0
  -25.7354  -37.4484   21.3361 C   0  0  0  0  0  0  0  0  0  0  0  0
  -25.0097  -30.8226   19.3145 C   0  0  0  0  0  0  0  0  0  0  0  0
  -24.5033  -29.4714   21.8957 C   0  0  0  0  0  0  0  0  0  0  0  0
  -24.9746  -36.3890   22.1293 C   0  0  0  0  0  0  0  0  0  0  0  0
  -26.5948  -21.2624   24.9813 C   0  0  0  0  0  0  0  0  0  0  0  0
  -25.9215  -35.2863   22.5920 C   0  0  0  0  0  0  0  0  0  0  0  0
  -27.2193  -20.1016   24.2051 C   0  0  0  0  0  0  0  0  0  0  0  0
  -25.0709  -21.1675   25.0094 C   0  0  0  0  0  0  0  0  0  0  0  0
  -25.0584  -19.8781   22.9092 C   0  0  0  0  0  0  0  0  0  0  0  0
  -26.5605  -34.5701   21.3962 C   0  0  1  0  0  0  0  0  0  0  0  0
  -24.4131  -31.5651   20.5062 C   0  0  1  0  0  0  0  0  0  0  0  0
  -26.5910  -19.9606   22.8056 C   0  0  2  0  0  0  0  0  0  0  0  0
  -29.8565  -23.7856   18.7795 C   0  0  0  0  0  0  0  0  0  0  0  0
  -25.4839  -22.4445   16.8455 C   0  0  0  0  0  0  0  0  0  0  0  0
  -18.6033  -26.9078   22.9457 C   0  0  0  0  0  0  0  0  0  0  0  0
  -29.8043  -21.5536   14.7423 C   0  0  0  0  0  0  0  0  0  0  0  0
  -28.2492  -20.4545   16.3669 C   0  0  0  0  0  0  0  0  0  0  0  0
  -23.2694  -31.6188   24.9839 C   0  0  0  0  0  0  0  0  0  0  0  0
  -21.4320  -30.0527   25.6466 C   0  0  0  0  0  0  0  0  0  0  0  0
  -20.8990  -32.1292   24.3713 C   0  0  0  0  0  0  0  0  0  0  0  0
  -19.9085  -28.2702   19.6417 C   0  0  0  0  0  0  0  0  0  0  0  0
  -27.7655  -23.8360   21.2281 C   0  0  0  0  0  0  0  0  0  0  0  0
  -28.3791  -22.9602   16.3142 C   0  0  0  0  0  0  0  0  0  0  0  0
  -23.7691  -23.3990   19.3772 C   0  0  0  0  0  0  0  0  0  0  0  0
  -22.2013  -22.6739   21.2596 C   0  0  0  0  0  0  0  0  0  0  0  0
  -27.2931  -25.2426   21.5792 C   0  0  0  0  0  0  0  0  0  1  0  0
  -22.0523  -30.2126   23.1929 C   0  0  1  0  0  0  0  0  0  0  0  0
  -19.2594  -27.9289   22.0293 C   0  0  2  0  0  0  0  0  0  0  0  0
  -29.1707  -21.6530   16.1317 C   0  0  0  0  0  0  0  0  0  0  0  0
  -22.8483  -23.8416   20.5152 C   0  0  2  0  0  0  0  0  0  0  0  0
  -21.9342  -30.9946   24.5316 C   0  0  0  0  0  0  0  0  0  0  0  0
  -26.5646  -17.5898   22.1265 N   0  0  0  0  0  0  0  0  0  0  0  0
  -27.7623  -23.0945   17.6172 N   0  0  0  0  0  0  0  0  0  0  0  0
  -27.1753  -18.7841   22.0457 N   0  0  0  0  0  0  0  0  0  0  0  0
  -23.7624  -30.6678   21.4631 N   0  0  0  0  0  0  0  0  0  0  0  0
  -24.5381  -21.0373   23.6510 N   0  0  0  0  0  0  0  0  0  0  0  0
  -29.0214  -19.8992   21.0661 N   0  0  0  0  0  0  0  0  0  0  0  0
  -29.4267  -15.6698   19.5350 N   0  0  0  0  0  0  0  0  0  0  0  0
  -25.0711  -22.9817   19.8992 N   0  0  0  0  0  0  0  0  0  0  0  0
  -25.6230  -33.6400   20.8042 N   0  0  0  0  0  0  0  0  0  0  0  0
  -20.7972  -29.6335   22.7264 N   0  0  0  0  0  0  0  0  0  0  0  0
  -23.1566  -21.7854   21.8832 N   0  0  0  0  0  0  0  0  0  0  0  0
  -21.7731  -24.7132   19.9571 N   0  3  0  0  0  0  0  0  0  0  0  0
  -19.3077  -27.3618   20.6520 N   0  3  0  0  0  0  0  0  0  0  0  0
  -30.3696  -17.7599   19.5033 O   0  0  0  0  0  0  0  0  0  0  0  0
  -26.0180  -31.8319   22.2174 O   0  0  0  0  0  0  0  0  0  0  0  0
  -21.9200  -32.0723   21.7265 O   0  0  0  0  0  0  0  0  0  0  0  0
  -21.5372  -27.4367   22.6672 O   0  0  0  0  0  0  0  0  0  0  0  0
  -23.2083  -22.9242   23.8725 O   0  0  0  0  0  0  0  0  0  0  0  0
  -26.0257  -11.4104   20.6865 O   0  0  0  0  0  0  0  0  0  0  0  0
  -27.9482  -26.1944   20.7417 O   0  0  0  0  0  0  0  0  0  1  0  0
  -20.7483  -10.1486   19.7063 F   0  0  0  0  0  0  0  0  0  0  0  0
  -25.2872  -10.1054   18.3639 F   0  0  0  0  0  0  0  0  0  0  0  0
  1  2  1  0  0  0  0
  1  5  2  0  0  0  0
  2  6  2  0  0  0  0
  3  8  2  0  0  0  0
  3 15  1  0  0  0  0
  4  9  1  0  0  0  0
  4 15  2  0  0  0  0
  5 17  1  0  0  0  0
  6 19  1  0  0  0  0
  7 10  2  0  0  0  0
  7 18  1  0  0  0  0
  8 23  1  0  0  0  0
  9 23  2  0  0  0  0
 10 24  1  0  0  0  0
 11 12  2  0  0  0  0
 11 25  1  0  0  0  0
 12 26  1  0  0  0  0
 13 20  1  0  0  0  0
 13 24  2  0  0  0  0
 14 26  2  0  0  0  0
 14 27  1  0  0  0  0
 15 28  1  0  0  0  0
 16 28  1  0  0  0  0
 16 31  2  0  0  0  0
 16 32  1  0  0  0  0
 17 19  2  0  0  0  0
 17 37  1  0  0  0  0
 18 20  2  0  0  0  0
 18 38  1  0  0  0  0
 19 46  1  0  0  0  0
 20 39  1  0  0  0  0
 21 22  1  0  0  0  0
 21 29  2  0  0  0  0
 21 58  1  0  0  0  0
 22 30  2  0  0  0  0
 22 75  1  0  0  0  0
 23 86  1  0  0  0  0
 24 87  1  0  0  0  0
 25 27  2  0  0  0  0
 25 86  1  0  0  0  0
 26 88  1  0  0  0  0
 27 89  1  0  0  0  0
 28 68  2  0  0  0  0
 29 49  1  0  0  0  0
 29 69  1  0  0  0  0
 30 50  1  0  0  0  0
 30 69  1  0  0  0  0
 31 70  1  0  0  0  0
 31 73  1  0  0  0  0
 32 74  1  0  0  0  0
 32 81  2  0  0  0  0
 33 47  1  0  0  0  0
 33 76  1  0  0  0  0
 33 82  2  0  0  0  0
 34 63  1  0  0  0  0
 34 71  1  0  0  0  0
 34 83  2  0  0  0  0
 35 64  1  0  0  0  0
 35 77  1  0  0  0  0
 35 84  2  0  0  0  0
 36 72  1  0  0  0  0
 36 78  1  0  0  0  0
 36 85  2  0  0  0  0
 37 40  1  0  0  0  0
 38 47  1  0  0  0  0
 39 71  1  0  0  0  0
 40 42  1  0  0  0  0
 41 43  1  0  0  0  0
 41 44  1  0  0  0  0
 42 46  1  0  0  0  0
 43 48  1  0  0  0  0
 44 72  1  0  0  0  0
 45 48  1  0  0  0  0
 45 72  1  0  0  0  0
 46 76  1  0  0  0  0
 47 71  1  0  0  0  0
 48 70  1  0  0  0  0
 51 64  1  0  0  0  0
 52 65  1  0  0  0  0
 53 65  1  0  0  0  0
 54 67  1  0  0  0  0
 55 67  1  0  0  0  0
 56 67  1  0  0  0  0
 57 80  1  0  0  0  0
 58 62  1  0  0  0  0
 59 65  1  0  0  0  0
 59 69  1  0  0  0  0
 60 66  1  0  0  0  0
 60 75  1  0  0  0  0
 61 66  1  0  0  0  0
 61 78  1  0  0  0  0
 62 87  1  0  0  0  0
 63 67  1  0  0  0  0
 63 77  1  0  0  0  0
 64 80  1  0  0  0  0
 66 79  1  0  0  0  0
 68 70  1  0  0  0  0
M  CHG  2  79   1  80   1
M  ISO  4  36 100  62 101  78 100  87 101
M  END
> <Batch ID>
0103

> <Smiles>
CNC(C)C(=O)NC(C(=O)N1Cc2cc([101O:1][101CH2:1]Cc3c(NCC(N)C[100NH:0][100C:0](=O)N4CCCC(n5nc(-c6ccc(Oc7ccc(F)cc7F)cc6)c(C(N)=O)c5N)C4)c(C)n(CC(C)C)c3C)ccc2CC1C(=O)NC1CCCc2ccccc21)C(C)(C)C

> <Shape>
0.219

> <Color>
0.084

> <Negative vol penalty>
0.000

$$$$

  -OEChem-04052319413D

 83 90  0     1  0  0  0  0  0999 V2000
  -28.9171  -11.7503   20.0405 C   0  0  0  0  0  0  0  0  0  0  0  0
  -28.6941  -12.6737   19.0242 C   0  0  0  0  0  0  0  0  0  0  0  0
  -23.0393  -30.8289   19.3560 C   0  0  0  0  0  0  0  0  0  0  0  0
  -22.3711  -28.5688   18.8245 C   0  0  0  0  0  0  0  0  0  0  0  0
  -27.9237  -11.5041   20.9874 C   0  0  0  0  0  0  0  0  0  0  0  0
  -27.4771  -13.3508   18.9536 C   0  0  0  0  0  0  0  0  0  0  0  0
  -28.0570  -18.3005   18.0541 C   0  0  0  0  0  0  0  0  0  0  0  0
  -22.0729  -31.3210   18.4788 C   0  0  0  0  0  0  0  0  0  0  0  0
  -21.4046  -29.0609   17.9474 C   0  0  0  0  0  0  0  0  0  0  0  0
  -28.3365  -18.6808   16.7423 C   0  0  0  0  0  0  0  0  0  0  0  0
  -18.3103  -30.4041   18.1520 C   0  0  0  0  0  0  0  0  0  0  0  0
  -17.0384  -29.8341   18.2056 C   0  0  0  0  0  0  0  0  0  0  0  0
  -26.0192  -19.2718   16.4263 C   0  0  0  0  0  0  0  0  0  0  0  0
  -17.2442  -29.1577   15.8953 C   0  0  0  0  0  0  0  0  0  0  0  0
  -23.1885  -29.4528   19.5288 C   0  0  0  0  0  0  0  0  0  0  0  0
  -24.0294  -28.6679   21.8057 C   0  0  0  0  0  0  0  0  0  0  0  0
  -26.6976  -12.1856   20.9340 C   0  0  0  0  0  0  0  0  0  0  0  0
  -26.7522  -18.3929   18.5594 C   0  0  0  0  0  0  0  0  0  0  0  0
  -26.4659  -13.1125   19.8999 C   0  0  0  0  0  0  0  0  0  0  0  0
  -25.7262  -18.8945   17.7457 C   0  0  0  0  0  0  0  0  0  0  0  0
  -21.2555  -30.4370   17.7745 C   0  0  0  0  0  0  0  0  0  0  0  0
  -27.3170  -19.1638   15.9272 C   0  0  0  0  0  0  0  0  0  0  0  0
  -19.0492  -30.3510   16.9701 C   0  0  0  0  0  0  0  0  0  0  0  0
  -16.5053  -29.2108   17.0773 C   0  0  0  0  0  0  0  0  0  0  0  0
  -18.5161  -29.7278   15.8417 C   0  0  0  0  0  0  0  0  0  0  0  0
  -24.1871  -28.9439   20.4343 C   0  0  0  0  0  0  0  0  0  0  0  0
  -25.2600  -28.2087   22.2072 C   0  0  0  0  0  0  0  0  0  0  0  0
  -22.8738  -28.8134   22.6419 C   0  0  0  0  0  0  0  0  0  0  0  0
  -24.6288  -16.3110   19.6820 C   0  0  0  0  0  0  0  0  0  0  0  0
  -22.9383  -18.9946   20.3621 C   0  0  0  0  0  0  0  0  0  0  0  0
  -22.3276  -22.2834   19.6854 C   0  0  0  0  0  0  0  0  0  0  0  0
  -29.7811  -25.5797   19.2918 C   0  0  0  0  0  0  0  0  0  0  0  0
  -25.6364  -11.8513   21.9522 C   0  0  0  0  0  0  0  0  0  0  0  0
  -26.4723  -18.0037   19.9851 C   0  0  0  0  0  0  0  0  0  0  0  0
  -24.3126  -19.0324   18.2466 C   0  0  0  0  0  0  0  0  0  0  0  0
  -24.5158  -12.8853   22.0259 C   0  0  0  0  0  0  0  0  0  0  0  0
  -29.9174  -28.5939   21.1820 C   0  0  0  0  0  0  0  0  0  0  0  0
  -24.0371  -13.2545   20.6254 C   0  0  0  0  0  0  0  0  0  0  0  0
  -28.4500  -29.0005   21.3284 C   0  0  0  0  0  0  0  0  0  0  0  0
  -30.1953  -27.9645   19.8186 C   0  0  0  0  0  0  0  0  0  0  0  0
  -27.8485  -27.2403   19.6142 C   0  0  0  0  0  0  0  0  0  0  0  0
  -25.1682  -13.8851   19.8042 C   0  0  1  0  0  0  0  0  0  0  0  0
  -25.0076  -17.6565   20.2331 C   0  0  1  0  0  0  0  0  0  0  0  0
  -27.5074  -27.8288   20.9940 C   0  0  2  0  0  0  0  0  0  0  0  0
  -20.8622  -24.1984   20.3801 C   0  0  0  0  0  0  0  0  0  0  0  0
  -27.4934  -19.0879   11.7799 C   0  0  0  0  0  0  0  0  0  0  0  0
  -20.6071  -17.7652   18.8247 C   0  0  0  0  0  0  0  0  0  0  0  0
  -19.5594  -20.0372   18.7341 C   0  0  0  0  0  0  0  0  0  0  0  0
  -19.9609  -18.9378   20.9370 C   0  0  0  0  0  0  0  0  0  0  0  0
  -26.1858  -23.2058   11.8989 C   0  0  0  0  0  0  0  0  0  0  0  0
  -28.5504  -23.9265   12.1771 C   0  0  0  0  0  0  0  0  0  0  0  0
  -24.6527  -23.9072   20.5318 C   0  0  0  0  0  0  0  0  0  0  0  0
  -29.3747  -22.9638   17.2882 C   0  0  0  0  0  0  0  0  0  0  0  0
  -28.0019  -21.4934   12.4406 C   0  0  0  0  0  0  0  0  0  0  0  0
  -29.2063  -23.2198   18.7820 C   0  0  0  0  0  0  0  0  0  0  0  0
  -28.1022  -23.2601   16.5048 C   0  0  0  0  0  0  0  0  0  0  0  0
  -27.1758  -23.2292   14.1854 C   0  0  0  0  0  0  0  0  0  0  0  0
  -26.4956  -20.0212   13.8666 C   0  0  0  0  0  0  0  0  0  1  0  0
  -21.9257  -19.8362   19.6236 C   0  0  1  0  0  0  0  0  0  0  0  0
  -22.1908  -23.4906   20.5956 C   0  0  2  0  0  0  0  0  0  0  0  0
  -26.9448  -20.3593   12.4358 C   0  0  2  0  0  0  0  0  0  0  0  0
  -20.5394  -19.1398   19.5195 C   0  0  0  0  0  0  0  0  0  0  0  0
  -27.4779  -22.9405   12.6952 C   0  0  0  0  0  0  0  0  0  0  0  0
  -25.4207  -28.6822   19.9942 N   0  0  0  0  0  0  0  0  0  0  0  0
  -26.0493  -28.2369   21.0953 N   0  0  0  0  0  0  0  0  0  0  0  0
  -24.0879  -18.6329   19.6457 N   0  0  0  0  0  0  0  0  0  0  0  0
  -29.2686  -26.8590   19.5635 N   0  0  0  0  0  0  0  0  0  0  0  0
  -25.7332  -27.7877   23.3994 N   0  0  0  0  0  0  0  0  0  0  0  0
  -21.6908  -29.2989   22.0682 N   0  0  0  0  0  0  0  0  0  0  0  0
  -25.3693  -15.2637   20.1960 N   0  0  0  0  0  0  0  0  0  0  0  0
  -21.8961  -21.1277   20.3014 N   0  0  0  0  0  0  0  0  0  0  0  0
  -28.8344  -24.5876   19.0678 N   0  0  0  0  0  0  0  0  0  0  0  0
  -23.2893  -24.4633   20.3347 N   0  3  0  0  0  0  0  0  0  0  0  0
  -28.3599  -23.0339   15.0561 N   0  3  0  0  0  0  0  0  0  0  0  0
  -22.8945  -28.5371   23.8653 O   0  0  0  0  0  0  0  0  0  0  0  0
  -23.7300  -16.2289   18.8531 O   0  0  0  0  0  0  0  0  0  0  0  0
  -22.7207  -18.6762   21.5338 O   0  0  0  0  0  0  0  0  0  0  0  0
  -22.7694  -22.3588   18.5410 O   0  0  0  0  0  0  0  0  0  0  0  0
  -30.9925  -25.3383   19.2571 O   0  0  0  0  0  0  0  0  0  0  0  0
  -20.3121  -30.9167   16.9187 O   0  0  0  0  0  0  0  0  0  0  0  0
  -27.5888  -19.5377   14.6373 O   0  0  0  0  0  0  0  0  0  1  0  0
  -15.2845  -28.6621   17.1293 F   0  0  0  0  0  0  0  0  0  0  0  0
  -19.2217  -29.6727   14.7038 F   0  0  0  0  0  0  0  0  0  0  0  0
  1  2  1  0  0  0  0
  1  5  2  0  0  0  0
  2  6  2  0  0  0  0
  3  8  2  0  0  0  0
  3 15  1  0  0  0  0
  4  9  1  0  0  0  0
  4 15  2  0  0  0  0
  5 17  1  0  0  0  0
  6 19  1  0  0  0  0
  7 10  2  0  0  0  0
  7 18  1  0  0  0  0
  8 21  1  0  0  0  0
  9 21  2  0  0  0  0
 10 22  1  0  0  0  0
 11 12  2  0  0  0  0
 11 23  1  0  0  0  0
 12 24  1  0  0  0  0
 13 20  1  0  0  0  0
 13 22  2  0  0  0  0
 14 24  2  0  0  0  0
 14 25  1  0  0  0  0
 15 26  1  0  0  0  0
 16 26  1  0  0  0  0
 16 27  2  0  0  0  0
 16 28  1  0  0  0  0
 17 19  2  0  0  0  0
 17 33  1  0  0  0  0
 18 20  2  0  0  0  0
 18 34  1  0  0  0  0
 19 42  1  0  0  0  0
 20 35  1  0  0  0  0
 21 80  1  0  0  0  0
 22 81  1  0  0  0  0
 23 25  2  0  0  0  0
 23 80  1  0  0  0  0
 24 82  1  0  0  0  0
 25 83  1  0  0  0  0
 26 64  2  0  0  0  0
 27 65  1  0  0  0  0
 27 68  1  0  0  0  0
 28 69  1  0  0  0  0
 28 75  2  0  0  0  0
 29 43  1  0  0  0  0
 29 70  1  0  0  0  0
 29 76  2  0  0  0  0
 30 59  1  0  0  0  0
 30 66  1  0  0  0  0
 30 77  2  0  0  0  0
 31 60  1  0  0  0  0
 31 71  1  0  0  0  0
 31 78  2  0  0  0  0
 32 67  1  0  0  0  0
 32 72  1  0  0  0  0
 32 79  2  0  0  0  0
 33 36  1  0  0  0  0
 34 43  1  0  0  0  0
 35 66  1  0  0  0  0
 36 38  1  0  0  0  0
 37 39  1  0  0  0  0
 37 40  1  0  0  0  0
 38 42  1  0  0  0  0
 39 44  1  0  0  0  0
 40 67  1  0  0  0  0
 41 44  1  0  0  0  0
 41 67  1  0  0  0  0
 42 70  1  0  0  0  0
 43 66  1  0  0  0  0
 44 65  1  0  0  0  0
 45 60  1  0  0  0  0
 46 61  1  0  0  0  0
 47 62  1  0  0  0  0
 48 62  1  0  0  0  0
 49 62  1  0  0  0  0
 50 63  1  0  0  0  0
 51 63  1  0  0  0  0
 52 73  1  0  0  0  0
 53 55  1  0  0  0  0
 53 56  1  0  0  0  0
 54 61  1  0  0  0  0
 54 63  1  0  0  0  0
 55 72  1  0  0  0  0
 56 74  1  0  0  0  0
 57 63  1  0  0  0  0
 57 74  1  0  0  0  0
 58 61  1  0  0  0  0
 58 81  1  0  0  0  0
 59 62  1  0  0  0  0
 59 71  1  0  0  0  0
 60 73  1  0  0  0  0
 64 65  1  0  0  0  0
M  CHG  2  73   1  74   1
M  ISO  4  32 100  58 101  72 100  81 101
M  END
> <Batch ID>
0103

> <Smiles>
CNC(C)C(=O)NC(C(=O)N1Cc2cc([101O:1][101CH2:1]C(C)CC(C)(C)CNCCC[100NH:0][100C:0](=O)N3CCCC(n4nc(-c5ccc(Oc6ccc(F)cc6F)cc5)c(C(N)=O)c4N)C3)ccc2CC1C(=O)NC1CCCc2ccccc21)C(C)(C)C

> <Shape>
0.163

> <Color>
0.084

> <Negative vol penalty>
0.000

$$$$

  -OEChem-04052319413D

 84 92  0     1  0  0  0  0  0999 V2000
  -18.8080  -31.2623   24.0439 C   0  0  0  0  0  0  0  0  0  0  0  0
  -20.1838  -31.1364   23.8805 C   0  0  0  0  0  0  0  0  0  0  0  0
  -26.5032  -13.2936   21.4974 C   0  0  0  0  0  0  0  0  0  0  0  0
  -24.8065  -13.2835   19.7775 C   0  0  0  0  0  0  0  0  0  0  0  0
  -17.9699  -30.1908   23.7382 C   0  0  0  0  0  0  0  0  0  0  0  0
  -20.7225  -29.9385   23.4123 C   0  0  0  0  0  0  0  0  0  0  0  0
  -25.6246  -29.2678   19.8033 C   0  0  0  0  0  0  0  0  0  0  0  0
  -26.3922  -11.9082   21.6152 C   0  0  0  0  0  0  0  0  0  0  0  0
  -24.6955  -11.8980   19.8952 C   0  0  0  0  0  0  0  0  0  0  0  0
  -26.9563  -28.9597   20.0777 C   0  0  0  0  0  0  0  0  0  0  0  0
  -23.2255   -9.6853   21.9866 C   0  0  0  0  0  0  0  0  0  0  0  0
  -21.9427   -9.1393   22.0302 C   0  0  0  0  0  0  0  0  0  0  0  0
  -26.5117  -26.6378   19.5979 C   0  0  0  0  0  0  0  0  0  0  0  0
  -29.5585  -24.4797   24.5525 C   0  0  0  0  0  0  0  0  0  0  0  0
  -28.5537  -23.3486   22.6828 C   0  0  0  0  0  0  0  0  0  0  0  0
  -22.4217   -7.8549   20.0407 C   0  0  0  0  0  0  0  0  0  0  0  0
  -25.7103  -13.9813   20.5786 C   0  0  0  0  0  0  0  0  0  0  0  0
  -26.6853  -16.1272   19.6029 C   0  0  0  0  0  0  0  0  0  0  0  0
  -18.4978  -28.9823   23.2569 C   0  0  0  0  0  0  0  0  0  0  0  0
  -24.7223  -28.2599   19.4340 C   0  0  0  0  0  0  0  0  0  0  0  0
  -19.8908  -28.8493   23.1012 C   0  0  0  0  0  0  0  0  0  0  0  0
  -25.1697  -26.9361   19.3168 C   0  0  0  0  0  0  0  0  0  0  0  0
  -29.5400  -24.1850   23.1938 C   0  0  0  0  0  0  0  0  0  0  0  0
  -25.4884  -11.2104   20.8141 C   0  0  0  0  0  0  0  0  0  0  0  0
  -27.3994  -27.6441   19.9779 C   0  0  0  0  0  0  0  0  0  0  0  0
  -24.1064   -9.3161   20.9700 C   0  0  0  0  0  0  0  0  0  0  0  0
  -21.5408   -8.2241   21.0573 C   0  0  0  0  0  0  0  0  0  0  0  0
  -23.7046   -8.4009   19.9971 C   0  0  0  0  0  0  0  0  0  0  0  0
  -25.8241  -15.4125   20.4569 C   0  0  0  0  0  0  0  0  0  0  0  0
  -28.5762  -23.9172   25.3515 C   0  0  0  0  0  0  0  0  0  0  0  0
  -27.6164  -22.8367   23.5656 C   0  0  0  0  0  0  0  0  0  0  0  0
  -26.4107  -17.4473   19.8648 C   0  0  0  0  0  0  0  0  0  0  0  0
  -27.6473  -15.6414   18.6574 C   0  0  0  0  0  0  0  0  0  0  0  0
  -22.0465  -27.0786   20.6783 C   0  0  0  0  0  0  0  0  0  0  0  0
  -21.9672  -25.3879   17.9110 C   0  0  0  0  0  0  0  0  0  0  0  0
  -23.6826  -24.0658   15.2735 C   0  0  0  0  0  0  0  0  0  0  0  0
  -25.6022  -21.4028   23.8516 C   0  0  0  0  0  0  0  0  0  0  0  0
  -17.5561  -27.8361   22.9849 C   0  0  0  0  0  0  0  0  0  0  0  0
  -23.2953  -28.6127   19.1153 C   0  0  0  0  0  0  0  0  0  0  0  0
  -24.2457  -25.8204   18.9044 C   0  0  0  0  0  0  0  0  0  0  0  0
  -18.1752  -26.7269   22.1383 C   0  0  0  0  0  0  0  0  0  0  0  0
  -22.6822  -19.5905   22.5103 C   0  0  0  0  0  0  0  0  0  0  0  0
  -19.5644  -26.3708   22.6583 C   0  0  0  0  0  0  0  0  0  0  0  0
  -23.3153  -18.3690   21.8459 C   0  0  0  0  0  0  0  0  0  0  0  0
  -23.5101  -20.0857   23.6923 C   0  0  0  0  0  0  0  0  0  0  0  0
  -25.5681  -19.1452   22.6871 C   0  0  0  0  0  0  0  0  0  0  0  0
  -20.5109  -27.5742   22.5723 C   0  0  1  0  0  0  0  0  0  0  0  0
  -22.3431  -27.4282   19.2474 C   0  0  1  0  0  0  0  0  0  0  0  0
  -24.7796  -18.6485   21.4658 C   0  0  1  0  0  0  0  0  0  0  0  0
  -28.7655  -22.9457   27.6697 C   0  0  0  0  0  0  0  0  0  0  0  0
  -27.2861  -24.9449   27.2578 C   0  0  0  0  0  0  0  0  0  0  0  0
  -23.3514  -22.7039   13.1920 C   0  0  0  0  0  0  0  0  0  0  0  0
  -21.7081  -22.8643   19.6064 C   0  0  0  0  0  0  0  0  0  0  0  0
  -22.3333  -21.5260   17.5849 C   0  0  0  0  0  0  0  0  0  0  0  0
  -20.2560  -22.9072   17.5707 C   0  0  0  0  0  0  0  0  0  0  0  0
  -26.4579  -21.8752   21.5681 C   0  0  0  0  0  0  0  0  0  0  0  0
  -24.6640  -26.2576   13.5439 C   0  0  0  0  0  0  0  0  0  0  0  0
  -30.5854  -24.7698   22.2780 C   0  0  0  0  0  0  0  0  0  0  0  0
  -30.1900  -26.1191   21.6742 C   0  0  0  0  0  0  0  0  0  0  0  0
  -28.9674  -26.0397   20.7674 C   0  0  0  0  0  0  0  0  0  1  0  0
  -28.5655  -24.2109   26.8147 C   0  0  0  0  0  0  0  0  0  0  0  0
  -22.5070  -24.0528   17.4581 C   0  0  1  0  0  0  0  0  0  0  0  0
  -23.4190  -24.1051   13.7791 C   0  0  2  0  0  0  0  0  0  0  0  0
  -21.7183  -22.8581   18.0647 C   0  0  0  0  0  0  0  0  0  0  0  0
  -25.0598  -16.2122   21.2055 N   0  0  0  0  0  0  0  0  0  0  0  0
  -27.6021  -23.1004   24.8915 N   0  0  0  0  0  0  0  0  0  0  0  0
  -25.4398  -17.4431   20.8227 N   0  0  0  0  0  0  0  0  0  0  0  0
  -22.8583  -26.2150   18.6095 N   0  0  0  0  0  0  0  0  0  0  0  0
  -24.9078  -20.3000   23.3151 N   0  0  0  0  0  0  0  0  0  0  0  0
  -26.9075  -18.5995   19.3669 N   0  0  0  0  0  0  0  0  0  0  0  0
  -27.8022  -14.2558   18.5138 N   0  0  0  0  0  0  0  0  0  0  0  0
  -20.9696  -27.7603   21.2123 N   0  0  0  0  0  0  0  0  0  0  0  0
  -22.5106  -24.0876   15.9996 N   0  0  0  0  0  0  0  0  0  0  0  0
  -26.5968  -21.9689   23.0251 N   0  0  0  0  0  0  0  0  0  0  0  0
  -24.5016  -24.8551   13.0817 N   0  3  0  0  0  0  0  0  0  0  0  0
  -28.3605  -16.4131   17.9722 O   0  0  0  0  0  0  0  0  0  0  0  0
  -22.7421  -26.2507   21.2547 O   0  0  0  0  0  0  0  0  0  0  0  0
  -20.8002  -25.6890   17.6484 O   0  0  0  0  0  0  0  0  0  0  0  0
  -24.8148  -24.0167   15.7492 O   0  0  0  0  0  0  0  0  0  0  0  0
  -25.3335  -21.8626   24.9679 O   0  0  0  0  0  0  0  0  0  0  0  0
  -25.3799   -9.8585   20.9285 O   0  0  0  0  0  0  0  0  0  0  0  0
  -28.6986  -27.3405   20.2458 O   0  0  0  0  0  0  0  0  0  1  0  0
  -20.3094   -7.6987   21.1001 F   0  0  0  0  0  0  0  0  0  0  0  0
  -24.5468   -8.0415   19.0187 F   0  0  0  0  0  0  0  0  0  0  0  0
  1  2  1  0  0  0  0
  1  5  2  0  0  0  0
  2  6  2  0  0  0  0
  3  8  2  0  0  0  0
  3 17  1  0  0  0  0
  4  9  1  0  0  0  0
  4 17  2  0  0  0  0
  5 19  1  0  0  0  0
  6 21  1  0  0  0  0
  7 10  2  0  0  0  0
  7 20  1  0  0  0  0
  8 24  1  0  0  0  0
  9 24  2  0  0  0  0
 10 25  1  0  0  0  0
 11 12  2  0  0  0  0
 11 26  1  0  0  0  0
 12 27  1  0  0  0  0
 13 22  1  0  0  0  0
 13 25  2  0  0  0  0
 14 23  1  0  0  0  0
 14 30  2  0  0  0  0
 15 23  2  0  0  0  0
 15 31  1  0  0  0  0
 16 27  2  0  0  0  0
 16 28  1  0  0  0  0
 17 29  1  0  0  0  0
 18 29  1  0  0  0  0
 18 32  2  0  0  0  0
 18 33  1  0  0  0  0
 19 21  2  0  0  0  0
 19 38  1  0  0  0  0
 20 22  2  0  0  0  0
 20 39  1  0  0  0  0
 21 47  1  0  0  0  0
 22 40  1  0  0  0  0
 23 58  1  0  0  0  0
 24 81  1  0  0  0  0
 25 82  1  0  0  0  0
 26 28  2  0  0  0  0
 26 81  1  0  0  0  0
 27 83  1  0  0  0  0
 28 84  1  0  0  0  0
 29 65  2  0  0  0  0
 30 61  1  0  0  0  0
 30 66  1  0  0  0  0
 31 66  2  0  0  0  0
 31 74  1  0  0  0  0
 32 67  1  0  0  0  0
 32 70  1  0  0  0  0
 33 71  1  0  0  0  0
 33 76  2  0  0  0  0
 34 48  1  0  0  0  0
 34 72  1  0  0  0  0
 34 77  2  0  0  0  0
 35 62  1  0  0  0  0
 35 68  1  0  0  0  0
 35 78  2  0  0  0  0
 36 63  1  0  0  0  0
 36 73  1  0  0  0  0
 36 79  2  0  0  0  0
 37 69  1  0  0  0  0
 37 74  1  0  0  0  0
 37 80  2  0  0  0  0
 38 41  1  0  0  0  0
 39 48  1  0  0  0  0
 40 68  1  0  0  0  0
 41 43  1  0  0  0  0
 42 44  1  0  0  0  0
 42 45  1  0  0  0  0
 43 47  1  0  0  0  0
 44 49  1  0  0  0  0
 45 69  1  0  0  0  0
 46 49  1  0  0  0  0
 46 69  1  0  0  0  0
 47 72  1  0  0  0  0
 48 68  1  0  0  0  0
 49 67  1  0  0  0  0
 50 61  1  0  0  0  0
 51 61  1  0  0  0  0
 52 63  1  0  0  0  0
 53 64  1  0  0  0  0
 54 64  1  0  0  0  0
 55 64  1  0  0  0  0
 56 74  1  0  0  0  0
 57 75  1  0  0  0  0
 58 59  1  0  0  0  0
 59 60  1  0  0  0  0
 60 82  1  0  0  0  0
 62 64  1  0  0  0  0
 62 73  1  0  0  0  0
 63 75  1  0  0  0  0
 65 67  1  0  0  0  0
M  CHG  1  75   1
M  ISO  4  37 100  60 101  74 100  82 101
M  END
> <Batch ID>
0103

> <Smiles>
CNC(C)C(=O)NC(C(=O)N1Cc2cc([101O:1][101CH2:1]CCc3cc(C(C)C)nc([100N:0](C)[100C:0](=O)N4CCCC(n5nc(-c6ccc(Oc7ccc(F)cc7F)cc6)c(C(N)=O)c5N)C4)c3)ccc2CC1C(=O)NC1CCCc2ccccc21)C(C)(C)C

> <Shape>
0.190

> <Color>
0.080

> <Negative vol penalty>
0.000

$$$$

  -OEChem-04052319413D

 81 89  0     1  0  0  0  0  0999 V2000
  -21.8996  -23.4727   20.5956 C   0  0  0  0  0  0  0  0  0  0  0  0
  -23.1297  -22.8346   20.7184 C   0  0  0  0  0  0  0  0  0  0  0  0
  -23.4485  -30.2875   20.4624 C   0  0  0  0  0  0  0  0  0  0  0  0
  -23.3316  -28.5942   22.1817 C   0  0  0  0  0  0  0  0  0  0  0  0
  -20.7442  -22.8539   21.0711 C   0  0  0  0  0  0  0  0  0  0  0  0
  -23.2053  -21.5778   21.3177 C   0  0  0  0  0  0  0  0  0  0  0  0
  -26.1519  -18.3686   18.7364 C   0  0  0  0  0  0  0  0  0  0  0  0
  -22.1829  -30.7460   20.8278 C   0  0  0  0  0  0  0  0  0  0  0  0
  -22.0659  -29.0527   22.5472 C   0  0  0  0  0  0  0  0  0  0  0  0
  -27.5310  -18.5130   18.8820 C   0  0  0  0  0  0  0  0  0  0  0  0
  -18.8911  -28.7662   21.4208 C   0  0  0  0  0  0  0  0  0  0  0  0
  -17.8956  -27.8143   21.6411 C   0  0  0  0  0  0  0  0  0  0  0  0
  -27.5502  -16.6841   20.4549 C   0  0  0  0  0  0  0  0  0  0  0  0
  -17.6555  -28.5921   23.9159 C   0  0  0  0  0  0  0  0  0  0  0  0
  -31.4693  -20.5963   20.3955 C   0  0  0  0  0  0  0  0  0  0  0  0
  -24.0228  -29.2115   21.1392 C   0  0  0  0  0  0  0  0  0  0  0  0
  -26.5701  -29.1674   21.2702 C   0  0  0  0  0  0  0  0  0  0  0  0
  -20.8043  -21.5847   21.6678 C   0  0  0  0  0  0  0  0  0  0  0  0
  -25.4589  -17.3864   19.4584 C   0  0  0  0  0  0  0  0  0  0  0  0
  -22.0497  -20.9421   21.8028 C   0  0  0  0  0  0  0  0  0  0  0  0
  -26.1628  -16.5277   20.3148 C   0  0  0  0  0  0  0  0  0  0  0  0
  -31.1044  -21.8663   20.7843 C   0  0  0  0  0  0  0  0  0  0  0  0
  -21.4916  -30.1287   21.8703 C   0  0  0  0  0  0  0  0  0  0  0  0
  -28.2299  -17.6726   19.7436 C   0  0  0  0  0  0  0  0  0  0  0  0
  -19.2688  -29.6310   22.4480 C   0  0  0  0  0  0  0  0  0  0  0  0
  -17.2778  -27.7273   22.8887 C   0  0  0  0  0  0  0  0  0  0  0  0
  -18.6510  -29.5440   23.6955 C   0  0  0  0  0  0  0  0  0  0  0  0
  -30.5619  -21.7698   22.0895 C   0  0  0  0  0  0  0  0  0  0  0  0
  -25.3299  -28.7370   20.7617 C   0  0  0  0  0  0  0  0  0  0  0  0
  -30.6119  -20.4436   22.4586 C   0  0  0  0  0  0  0  0  0  0  0  0
  -27.4985  -28.4148   20.5933 C   0  0  0  0  0  0  0  0  0  0  0  0
  -26.8572  -30.1587   22.2655 C   0  0  0  0  0  0  0  0  0  0  0  0
  -23.1521  -17.4189   21.6451 C   0  0  0  0  0  0  0  0  0  0  0  0
  -23.2799  -14.2002   21.2633 C   0  0  0  0  0  0  0  0  0  0  0  0
  -25.0919  -11.4630   20.3299 C   0  0  0  0  0  0  0  0  0  0  0  0
  -29.2550  -23.5192   18.5702 C   0  0  0  0  0  0  0  0  0  0  0  0
  -19.5349  -20.9763   22.2093 C   0  0  0  0  0  0  0  0  0  0  0  0
  -23.9753  -17.2261   19.2699 C   0  0  0  0  0  0  0  0  0  0  0  0
  -25.4686  -15.4440   21.0972 C   0  0  0  0  0  0  0  0  0  0  0  0
  -19.6493  -19.4809   22.4938 C   0  0  0  0  0  0  0  0  0  0  0  0
  -26.9864  -25.3954   16.5675 C   0  0  0  0  0  0  0  0  0  0  0  0
  -20.9380  -19.1788   23.2521 C   0  0  0  0  0  0  0  0  0  0  0  0
  -26.4513  -26.4629   17.5235 C   0  0  0  0  0  0  0  0  0  0  0  0
  -27.2122  -24.0630   17.2787 C   0  0  0  0  0  0  0  0  0  0  0  0
  -27.5251  -25.2072   19.4390 C   0  0  0  0  0  0  0  0  0  0  0  0
  -22.1690  -19.5676   22.4246 C   0  0  1  0  0  0  0  0  0  0  0  0
  -23.2958  -16.5278   20.4438 C   0  0  1  0  0  0  0  0  0  0  0  0
  -27.3345  -26.5840   18.7799 C   0  0  2  0  0  0  0  0  0  0  0  0
  -30.1791  -19.7809   23.7080 C   0  0  0  0  0  0  0  0  0  0  0  0
  -24.9412   -8.9635   20.1647 C   0  0  0  0  0  0  0  0  0  0  0  0
  -23.6346  -13.9814   24.2859 C   0  0  0  0  0  0  0  0  0  0  0  0
  -24.4166  -11.6264   23.9536 C   0  0  0  0  0  0  0  0  0  0  0  0
  -22.1014  -12.2754   23.2893 C   0  0  0  0  0  0  0  0  0  0  0  0
  -25.5096  -11.5154   17.4005 C   0  0  0  0  0  0  0  0  0  0  0  0
  -31.2580  -23.0899   19.9712 C   0  0  0  0  0  0  0  0  0  0  0  0
  -31.4121  -18.2508   21.3938 C   0  0  0  0  0  0  0  0  0  0  0  0
  -30.1336  -17.4557   21.1524 C   0  0  0  0  0  0  0  0  0  1  0  0
  -24.0590  -13.0776   21.9049 C   0  0  1  0  0  0  0  0  0  0  0  0
  -24.7488  -10.2847   19.4365 C   0  0  2  0  0  0  0  0  0  0  0  0
  -23.5660  -12.7618   23.3453 C   0  0  0  0  0  0  0  0  0  0  0  0
  -25.4556  -27.7850   19.8334 N   0  0  0  0  0  0  0  0  0  0  0  0
  -31.1656  -19.7397   21.4212 N   0  0  0  0  0  0  0  0  0  0  0  0
  -26.7858  -27.6110   19.7531 N   0  0  0  0  0  0  0  0  0  0  0  0
  -24.0163  -15.3313   20.8836 N   0  0  0  0  0  0  0  0  0  0  0  0
  -28.0586  -24.2470   18.4601 N   0  0  0  0  0  0  0  0  0  0  0  0
  -28.8468  -28.3690   20.6408 N   0  0  0  0  0  0  0  0  0  0  0  0
  -25.7853  -30.8380   22.8606 N   0  0  0  0  0  0  0  0  0  0  0  0
  -22.4289  -18.5720   21.4068 N   0  0  0  0  0  0  0  0  0  0  0  0
  -23.9798  -11.9480   20.9851 N   0  0  0  0  0  0  0  0  0  0  0  0
  -30.0008  -23.7578   19.7180 N   0  0  0  0  0  0  0  0  0  0  0  0
  -25.6160  -10.2839   18.2245 N   0  3  0  0  0  0  0  0  0  0  0  0
  -28.0302  -30.4456   22.6048 O   0  0  0  0  0  0  0  0  0  0  0  0
  -23.6586  -17.0844   22.7096 O   0  0  0  0  0  0  0  0  0  0  0  0
  -22.0638  -14.0751   21.0984 O   0  0  0  0  0  0  0  0  0  0  0  0
  -26.2330  -11.9064   20.4388 O   0  0  0  0  0  0  0  0  0  0  0  0
  -29.6333  -22.7203   17.7067 O   0  0  0  0  0  0  0  0  0  0  0  0
  -20.2567  -30.5760   22.2274 O   0  0  0  0  0  0  0  0  0  0  0  0
  -29.5759  -17.8118   19.8880 O   0  0  0  0  0  0  0  0  0  1  0  0
  -16.3208  -26.8142   23.0997 F   0  0  0  0  0  0  0  0  0  0  0  0
  -19.0088  -30.3728   24.6858 F   0  0  0  0  0  0  0  0  0  0  0  0
  -29.9617  -23.0691   23.0077 Cl  0  0  0  0  0  0  0  0  0  0  0  0
  1  2  1  0  0  0  0
  1  5  2  0  0  0  0
  2  6  2  0  0  0  0
  3  8  2  0  0  0  0
  3 16  1  0  0  0  0
  4  9  1  0  0  0  0
  4 16  2  0  0  0  0
  5 18  1  0  0  0  0
  6 20  1  0  0  0  0
  7 10  2  0  0  0  0
  7 19  1  0  0  0  0
  8 23  1  0  0  0  0
  9 23  2  0  0  0  0
 10 24  1  0  0  0  0
 11 12  2  0  0  0  0
 11 25  1  0  0  0  0
 12 26  1  0  0  0  0
 13 21  1  0  0  0  0
 13 24  2  0  0  0  0
 14 26  2  0  0  0  0
 14 27  1  0  0  0  0
 15 22  2  0  0  0  0
 15 62  1  0  0  0  0
 16 29  1  0  0  0  0
 17 29  1  0  0  0  0
 17 31  2  0  0  0  0
 17 32  1  0  0  0  0
 18 20  2  0  0  0  0
 18 37  1  0  0  0  0
 19 21  2  0  0  0  0
 19 38  1  0  0  0  0
 20 46  1  0  0  0  0
 21 39  1  0  0  0  0
 22 28  1  0  0  0  0
 22 55  1  0  0  0  0
 23 77  1  0  0  0  0
 24 78  1  0  0  0  0
 25 27  2  0  0  0  0
 25 77  1  0  0  0  0
 26 79  1  0  0  0  0
 27 80  1  0  0  0  0
 28 30  2  0  0  0  0
 28 81  1  0  0  0  0
 29 61  2  0  0  0  0
 30 49  1  0  0  0  0
 30 62  1  0  0  0  0
 31 63  1  0  0  0  0
 31 66  1  0  0  0  0
 32 67  1  0  0  0  0
 32 72  2  0  0  0  0
 33 47  1  0  0  0  0
 33 68  1  0  0  0  0
 33 73  2  0  0  0  0
 34 58  1  0  0  0  0
 34 64  1  0  0  0  0
 34 74  2  0  0  0  0
 35 59  1  0  0  0  0
 35 69  1  0  0  0  0
 35 75  2  0  0  0  0
 36 65  1  0  0  0  0
 36 70  1  0  0  0  0
 36 76  2  0  0  0  0
 37 40  1  0  0  0  0
 38 47  1  0  0  0  0
 39 64  1  0  0  0  0
 40 42  1  0  0  0  0
 41 43  1  0  0  0  0
 41 44  1  0  0  0  0
 42 46  1  0  0  0  0
 43 48  1  0  0  0  0
 44 65  1  0  0  0  0
 45 48  1  0  0  0  0
 45 65  1  0  0  0  0
 46 68  1  0  0  0  0
 47 64  1  0  0  0  0
 48 63  1  0  0  0  0
 50 59  1  0  0  0  0
 51 60  1  0  0  0  0
 52 60  1  0  0  0  0
 53 60  1  0  0  0  0
 54 71  1  0  0  0  0
 55 70  1  0  0  0  0
 56 57  1  0  0  0  0
 56 62  1  0  0  0  0
 57 78  1  0  0  0  0
 58 60  1  0  0  0  0
 58 69  1  0  0  0  0
 59 71  1  0  0  0  0
 61 63  1  0  0  0  0
M  CHG  1  71   1
M  ISO  4  36 100  57 101  70 100  78 101
M  END
> <Batch ID>
0103

> <Smiles>
CNC(C)C(=O)NC(C(=O)N1Cc2cc([101O:1][101CH2:1]Cn3cc(C[100NH:0][100C:0](=O)N4CCCC(n5nc(-c6ccc(Oc7ccc(F)cc7F)cc6)c(C(N)=O)c5N)C4)c(Cl)c3C)ccc2CC1C(=O)NC1CCCc2ccccc21)C(C)(C)C

> <Shape>
0.237

> <Color>
0.067

> <Negative vol penalty>
0.000

$$$$

  -OEChem-04052319413D

 91 99  0     1  0  0  0  0  0999 V2000
  -30.1685  -11.6468   19.3054 C   0  0  0  0  0  0  0  0  0  0  0  0
  -30.2887  -12.9476   19.7839 C   0  0  0  0  0  0  0  0  0  0  0  0
  -29.8564  -24.4812   19.7601 C   0  0  0  0  0  0  0  0  0  0  0  0
  -28.5720  -24.9717   17.7735 C   0  0  0  0  0  0  0  0  0  0  0  0
  -28.9137  -11.1443   18.9635 C   0  0  0  0  0  0  0  0  0  0  0  0
  -29.1543  -13.7470   19.9196 C   0  0  0  0  0  0  0  0  0  0  0  0
  -26.4537  -18.9547   24.0309 C   0  0  0  0  0  0  0  0  0  0  0  0
  -30.0779  -23.1844   19.2967 C   0  0  0  0  0  0  0  0  0  0  0  0
  -28.7936  -23.6748   17.3100 C   0  0  0  0  0  0  0  0  0  0  0  0
  -25.8865  -20.2241   23.9272 C   0  0  0  0  0  0  0  0  0  0  0  0
  -30.6792  -19.6321   18.8034 C   0  0  0  0  0  0  0  0  0  0  0  0
  -30.5214  -18.5825   19.7084 C   0  0  0  0  0  0  0  0  0  0  0  0
  -23.7610  -19.2231   23.3803 C   0  0  0  0  0  0  0  0  0  0  0  0
  -18.1454  -27.5069   22.9206 C   0  0  0  0  0  0  0  0  0  0  0  0
  -20.7662  -27.6268   21.9722 C   0  0  0  0  0  0  0  0  0  0  0  0
  -28.2148  -19.2183   20.0436 C   0  0  0  0  0  0  0  0  0  0  0  0
  -29.1033  -25.3748   18.9985 C   0  0  0  0  0  0  0  0  0  0  0  0
  -29.6717  -27.8499   19.2411 C   0  0  0  0  0  0  0  0  0  0  0  0
  -27.7622  -11.9347   19.1042 C   0  0  0  0  0  0  0  0  0  0  0  0
  -25.6801  -17.8084   23.7991 C   0  0  0  0  0  0  0  0  0  0  0  0
  -27.8831  -13.2550   19.5779 C   0  0  0  0  0  0  0  0  0  0  0  0
  -24.3201  -17.9402   23.4843 C   0  0  0  0  0  0  0  0  0  0  0  0
  -18.5855  -28.6347   22.2279 C   0  0  0  0  0  0  0  0  0  0  0  0
  -19.8959  -28.6947   21.7536 C   0  0  0  0  0  0  0  0  0  0  0  0
  -20.3262  -26.4989   22.6650 C   0  0  0  0  0  0  0  0  0  0  0  0
  -19.0158  -26.4390   23.1392 C   0  0  0  0  0  0  0  0  0  0  0  0
  -29.5466  -22.7812   18.0717 C   0  0  0  0  0  0  0  0  0  0  0  0
  -24.5407  -20.3585   23.5990 C   0  0  0  0  0  0  0  0  0  0  0  0
  -29.6048  -20.4748   18.5184 C   0  0  0  0  0  0  0  0  0  0  0  0
  -29.2892  -18.3756   20.3285 C   0  0  0  0  0  0  0  0  0  0  0  0
  -28.3726  -20.2679   19.1385 C   0  0  0  0  0  0  0  0  0  0  0  0
  -28.8736  -26.7144   19.4770 C   0  0  0  0  0  0  0  0  0  0  0  0
  -29.0291  -28.8654   19.9062 C   0  0  0  0  0  0  0  0  0  0  0  0
  -30.8853  -27.9755   18.4881 C   0  0  0  0  0  0  0  0  0  0  0  0
  -25.7736  -15.4267   21.6961 C   0  0  0  0  0  0  0  0  0  0  0  0
  -23.3761  -14.2341   23.5270 C   0  0  0  0  0  0  0  0  0  0  0  0
  -20.8446  -14.8338   25.7358 C   0  0  0  0  0  0  0  0  0  0  0  0
  -23.3673  -29.6272   21.3956 C   0  0  0  0  0  0  0  0  0  0  0  0
  -26.4332  -11.3637   18.6770 C   0  0  0  0  0  0  0  0  0  0  0  0
  -26.3004  -16.4455   23.9412 C   0  0  0  0  0  0  0  0  0  0  0  0
  -23.4414  -16.7405   23.2457 C   0  0  0  0  0  0  0  0  0  0  0  0
  -25.2351  -12.1491   19.2042 C   0  0  0  0  0  0  0  0  0  0  0  0
  -26.1822  -29.6638   23.6699 C   0  0  0  0  0  0  0  0  0  0  0  0
  -25.4434  -13.6455   18.9941 C   0  0  0  0  0  0  0  0  0  0  0  0
  -27.2718  -29.0130   22.8157 C   0  0  0  0  0  0  0  0  0  0  0  0
  -24.8235  -29.0161   23.4202 C   0  0  0  0  0  0  0  0  0  0  0  0
  -25.4830  -28.3626   21.1373 C   0  0  0  0  0  0  0  0  0  0  0  0
  -26.6729  -14.1446   19.7626 C   0  0  1  0  0  0  0  0  0  0  0  0
  -25.5432  -15.3620   23.1795 C   0  0  1  0  0  0  0  0  0  0  0  0
  -26.8768  -28.9882   21.3273 C   0  0  2  0  0  0  0  0  0  0  0  0
  -17.6355  -29.7654   22.0052 C   0  0  0  0  0  0  0  0  0  0  0  0
  -17.3656  -24.5336   23.1562 C   0  0  0  0  0  0  0  0  0  0  0  0
  -18.1050  -25.5802   25.3271 C   0  0  0  0  0  0  0  0  0  0  0  0
  -19.0367  -13.6646   27.0248 C   0  0  0  0  0  0  0  0  0  0  0  0
  -23.3408  -24.2119   26.0279 C   0  0  0  0  0  0  0  0  0  0  0  0
  -21.7179  -13.9920   20.9771 C   0  0  0  0  0  0  0  0  0  0  0  0
  -19.6797  -13.7421   22.4094 C   0  0  0  0  0  0  0  0  0  0  0  0
  -21.5111  -12.0538   22.5439 C   0  0  0  0  0  0  0  0  0  0  0  0
  -20.5199  -31.4729   23.0163 C   0  0  0  0  0  0  0  0  0  0  0  0
  -21.6826  -32.0543   20.8852 C   0  0  0  0  0  0  0  0  0  0  0  0
  -21.9873  -15.6803   28.3312 C   0  0  0  0  0  0  0  0  0  0  0  0
  -21.2857  -25.3569   22.8899 C   0  0  0  0  0  0  0  0  0  0  0  0
  -20.3891  -29.8915   21.0089 C   0  0  0  0  0  0  0  0  0  0  0  0
  -21.9103  -25.3321   24.2919 C   0  0  0  0  0  0  0  0  0  0  0  0
  -24.0176  -23.9906   23.5964 C   0  0  0  0  0  0  0  0  0  0  0  0
  -24.8386  -22.7139   23.7381 C   0  0  0  0  0  0  0  0  0  1  0  0
  -18.5225  -25.2423   23.8842 C   0  0  0  0  0  0  0  0  0  0  0  0
  -21.8712  -14.3543   23.5289 C   0  0  1  0  0  0  0  0  0  0  0  0
  -20.4724  -14.1655   27.0470 C   0  0  2  0  0  0  0  0  0  0  0  0
  -22.8412  -24.1350   24.5803 C   0  0  1  0  0  0  0  0  0  0  0  0
  -21.2117  -13.5584   22.3674 C   0  0  0  0  0  0  0  0  0  0  0  0
  -21.2749  -30.8950   21.8100 C   0  0  0  0  0  0  0  0  0  0  0  0
  -27.8057  -26.9827   20.2330 N   0  0  0  0  0  0  0  0  0  0  0  0
  -27.9283  -28.2984   20.4781 N   0  0  0  0  0  0  0  0  0  0  0  0
  -24.0957  -15.4296   23.3902 N   0  0  0  0  0  0  0  0  0  0  0  0
  -24.4990  -29.0415   21.9869 N   0  0  0  0  0  0  0  0  0  0  0  0
  -29.3041  -30.1790   20.0520 N   0  0  0  0  0  0  0  0  0  0  0  0
  -31.4085  -26.8323   17.8685 N   0  0  0  0  0  0  0  0  0  0  0  0
  -26.3639  -14.2941   21.1685 N   0  0  0  0  0  0  0  0  0  0  0  0
  -21.4308  -13.9461   24.8585 N   0  0  0  0  0  0  0  0  0  0  0  0
  -22.4811  -30.2438   22.2704 N   0  0  0  0  0  0  0  0  0  0  0  0
  -20.6177  -15.1258   28.1773 N   0  3  0  0  0  0  0  0  0  0  0  0
  -31.4967  -29.0656   18.3818 O   0  0  0  0  0  0  0  0  0  0  0  0
  -25.4391  -16.4292   21.0759 O   0  0  0  0  0  0  0  0  0  0  0  0
  -23.8940  -13.1213   23.6498 O   0  0  0  0  0  0  0  0  0  0  0  0
  -20.6328  -16.0234   25.5108 O   0  0  0  0  0  0  0  0  0  0  0  0
  -23.1640  -29.6070   20.1769 O   0  0  0  0  0  0  0  0  0  0  0  0
  -29.7628  -21.5159   17.6191 O   0  0  0  0  0  0  0  0  0  0  0  0
  -23.9847  -21.5964   23.4964 O   0  0  0  0  0  0  0  0  0  1  0  0
  -29.1374  -17.3668   21.1964 F   0  0  0  0  0  0  0  0  0  0  0  0
  -27.3364  -21.0735   18.8679 F   0  0  0  0  0  0  0  0  0  0  0  0
  1  2  1  0  0  0  0
  1  5  2  0  0  0  0
  2  6  2  0  0  0  0
  3  8  2  0  0  0  0
  3 17  1  0  0  0  0
  4  9  1  0  0  0  0
  4 17  2  0  0  0  0
  5 19  1  0  0  0  0
  6 21  1  0  0  0  0
  7 10  2  0  0  0  0
  7 20  1  0  0  0  0
  8 27  1  0  0  0  0
  9 27  2  0  0  0  0
 10 28  1  0  0  0  0
 11 12  2  0  0  0  0
 11 29  1  0  0  0  0
 12 30  1  0  0  0  0
 13 22  1  0  0  0  0
 13 28  2  0  0  0  0
 14 23  2  0  0  0  0
 14 26  1  0  0  0  0
 15 24  2  0  0  0  0
 15 25  1  0  0  0  0
 16 30  2  0  0  0  0
 16 31  1  0  0  0  0
 17 32  1  0  0  0  0
 18 32  1  0  0  0  0
 18 33  2  0  0  0  0
 18 34  1  0  0  0  0
 19 21  2  0  0  0  0
 19 39  1  0  0  0  0
 20 22  2  0  0  0  0
 20 40  1  0  0  0  0
 21 48  1  0  0  0  0
 22 41  1  0  0  0  0
 23 24  1  0  0  0  0
 23 51  1  0  0  0  0
 24 63  1  0  0  0  0
 25 26  2  0  0  0  0
 25 62  1  0  0  0  0
 26 67  1  0  0  0  0
 27 88  1  0  0  0  0
 28 89  1  0  0  0  0
 29 31  2  0  0  0  0
 29 88  1  0  0  0  0
 30 90  1  0  0  0  0
 31 91  1  0  0  0  0
 32 73  2  0  0  0  0
 33 74  1  0  0  0  0
 33 77  1  0  0  0  0
 34 78  1  0  0  0  0
 34 83  2  0  0  0  0
 35 49  1  0  0  0  0
 35 79  1  0  0  0  0
 35 84  2  0  0  0  0
 36 68  1  0  0  0  0
 36 75  1  0  0  0  0
 36 85  2  0  0  0  0
 37 69  1  0  0  0  0
 37 80  1  0  0  0  0
 37 86  2  0  0  0  0
 38 76  1  0  0  0  0
 38 81  1  0  0  0  0
 38 87  2  0  0  0  0
 39 42  1  0  0  0  0
 40 49  1  0  0  0  0
 41 75  1  0  0  0  0
 42 44  1  0  0  0  0
 43 45  1  0  0  0  0
 43 46  1  0  0  0  0
 44 48  1  0  0  0  0
 45 50  1  0  0  0  0
 46 76  1  0  0  0  0
 47 50  1  0  0  0  0
 47 76  1  0  0  0  0
 48 79  1  0  0  0  0
 49 75  1  0  0  0  0
 50 74  1  0  0  0  0
 52 67  1  0  0  0  0
 53 67  1  0  0  0  0
 54 69  1  0  0  0  0
 55 70  1  0  0  0  0
 56 71  1  0  0  0  0
 57 71  1  0  0  0  0
 58 71  1  0  0  0  0
 59 72  1  0  0  0  0
 60 72  1  0  0  0  0
 61 82  1  0  0  0  0
 62 64  1  0  0  0  0
 63 72  1  0  0  0  0
 64 70  1  0  0  0  0
 65 66  1  0  0  0  0
 65 70  1  0  0  0  0
 66 89  1  0  0  0  0
 68 71  1  0  0  0  0
 68 80  1  0  0  0  0
 69 82  1  0  0  0  0
 72 81  1  0  0  0  0
 73 74  1  0  0  0  0
M  CHG  1  82   1
M  ISO  4  38 100  66 101  81 100  89 101
M  END
> <Batch ID>
0103

> <Smiles>
CNC(C)C(=O)NC(C(=O)N1Cc2cc([101O:1][101CH2:1]CC(C)CCc3cc(CC(C)(C)[100NH:0][100C:0](=O)N4CCCC(n5nc(-c6ccc(Oc7ccc(F)cc7F)cc6)c(C(N)=O)c5N)C4)c(C)cc3C(C)C)ccc2CC1C(=O)NC1CCCc2ccccc21)C(C)(C)C

> <Shape>
0.264

> <Color>
0.053

> <Negative vol penalty>
0.000

$$$$

  -OEChem-04052319413D

 79 86  0     1  0  0  0  0  0999 V2000
  -29.7137  -36.4876   21.7493 C   0  0  0  0  0  0  0  0  0  0  0  0
  -29.7954  -35.2368   21.1458 C   0  0  0  0  0  0  0  0  0  0  0  0
  -22.9430  -14.9976   21.2202 C   0  0  0  0  0  0  0  0  0  0  0  0
  -24.8965  -13.7773   20.4909 C   0  0  0  0  0  0  0  0  0  0  0  0
  -28.9939  -36.6434   22.9331 C   0  0  0  0  0  0  0  0  0  0  0  0
  -29.1580  -34.1408   21.7263 C   0  0  0  0  0  0  0  0  0  0  0  0
  -26.5218  -29.4450   18.8099 C   0  0  0  0  0  0  0  0  0  0  0  0
  -22.1558  -13.8667   21.0039 C   0  0  0  0  0  0  0  0  0  0  0  0
  -24.1092  -12.6463   20.2746 C   0  0  0  0  0  0  0  0  0  0  0  0
  -26.9649  -28.1566   18.5142 C   0  0  0  0  0  0  0  0  0  0  0  0
  -22.6748   -9.3298   19.8730 C   0  0  0  0  0  0  0  0  0  0  0  0
  -23.1601   -8.1041   20.3290 C   0  0  0  0  0  0  0  0  0  0  0  0
  -25.8453  -27.3262   20.4830 C   0  0  0  0  0  0  0  0  0  0  0  0
  -23.2024   -8.9611   22.5875 C   0  0  0  0  0  0  0  0  0  0  0  0
  -24.3134  -14.9530   20.9636 C   0  0  0  0  0  0  0  0  0  0  0  0
  -25.7939  -16.4789   22.3733 C   0  0  0  0  0  0  0  0  0  0  0  0
  -28.3393  -35.5508   23.5233 C   0  0  0  0  0  0  0  0  0  0  0  0
  -25.7449  -29.6858   19.9522 C   0  0  0  0  0  0  0  0  0  0  0  0
  -28.4298  -34.2819   22.9199 C   0  0  0  0  0  0  0  0  0  0  0  0
  -25.3914  -28.6181   20.7896 C   0  0  0  0  0  0  0  0  0  0  0  0
  -22.7389  -12.6910   20.5311 C   0  0  0  0  0  0  0  0  0  0  0  0
  -26.6291  -27.0974   19.3524 C   0  0  0  0  0  0  0  0  0  0  0  0
  -22.4535  -10.3712   20.7743 C   0  0  0  0  0  0  0  0  0  0  0  0
  -23.4238   -7.9197   21.6862 C   0  0  0  0  0  0  0  0  0  0  0  0
  -22.7173  -10.1868   22.1315 C   0  0  0  0  0  0  0  0  0  0  0  0
  -25.1270  -16.1211   21.1863 C   0  0  0  0  0  0  0  0  0  0  0  0
  -26.4216  -17.6626   22.0711 C   0  0  0  0  0  0  0  0  0  0  0  0
  -25.8418  -15.8017   23.6362 C   0  0  0  0  0  0  0  0  0  0  0  0
  -26.1103  -31.4249   22.5877 C   0  0  0  0  0  0  0  0  0  0  0  0
  -23.0487  -30.5107   23.1472 C   0  0  0  0  0  0  0  0  0  0  0  0
  -20.5514  -28.2525   22.5892 C   0  0  0  0  0  0  0  0  0  0  0  0
  -29.3909  -20.8105   18.8720 C   0  0  0  0  0  0  0  0  0  0  0  0
  -27.6125  -35.7585   24.8284 C   0  0  0  0  0  0  0  0  0  0  0  0
  -25.2524  -31.0771   20.2427 C   0  0  0  0  0  0  0  0  0  0  0  0
  -24.5426  -28.8205   22.0172 C   0  0  0  0  0  0  0  0  0  0  0  0
  -26.6539  -34.6234   25.1792 C   0  0  0  0  0  0  0  0  0  0  0  0
  -25.9479  -20.7315   18.0901 C   0  0  0  0  0  0  0  0  0  0  0  0
  -27.3292  -33.2714   24.9724 C   0  0  0  0  0  0  0  0  0  0  0  0
  -25.4761  -19.5394   18.9214 C   0  0  0  0  0  0  0  0  0  0  0  0
  -27.3146  -20.4807   17.4501 C   0  0  0  0  0  0  0  0  0  0  0  0
  -27.8883  -18.8779   19.2457 C   0  0  0  0  0  0  0  0  0  0  0  0
  -27.7314  -33.0741   23.5059 C   0  0  1  0  0  0  0  0  0  0  0  0
  -24.8974  -31.2908   21.7109 C   0  0  1  0  0  0  0  0  0  0  0  0
  -26.5449  -19.1274   19.9485 C   0  0  2  0  0  0  0  0  0  0  0  0
  -18.1731  -27.7513   23.2136 C   0  0  0  0  0  0  0  0  0  0  0  0
  -32.6919  -25.0440   17.5931 C   0  0  0  0  0  0  0  0  0  0  0  0
  -31.6554  -25.4587   19.8346 C   0  0  0  0  0  0  0  0  0  0  0  0
  -23.9787  -29.5077   25.8746 C   0  0  0  0  0  0  0  0  0  0  0  0
  -21.8495  -28.2013   26.0426 C   0  0  0  0  0  0  0  0  0  0  0  0
  -21.7751  -30.6903   25.8938 C   0  0  0  0  0  0  0  0  0  0  0  0
  -29.9438  -21.4593   16.4891 C   0  0  0  0  0  0  0  0  0  0  0  0
  -19.6470  -28.4645   19.7792 C   0  0  0  0  0  0  0  0  0  0  0  0
  -28.9613  -24.3911   18.7260 C   0  0  0  0  0  0  0  0  0  0  0  0
  -30.8463  -22.7421   18.3933 C   0  0  0  0  0  0  0  0  0  0  0  0
  -28.3016  -25.7201   18.3717 C   0  0  0  0  0  0  0  0  0  1  0  0
  -22.3918  -29.3440   23.8446 C   0  0  1  0  0  0  0  0  0  0  0  0
  -19.0920  -28.4368   22.2143 C   0  0  2  0  0  0  0  0  0  0  0  0
  -31.3724  -25.2681   18.3423 C   0  0  0  0  0  0  0  0  0  0  0  0
  -30.3284  -24.1516   18.0385 C   0  0  2  0  0  0  0  0  0  0  0  0
  -22.5164  -29.4320   25.3919 C   0  0  0  0  0  0  0  0  0  0  0  0
  -25.3135  -17.0060   20.2033 N   0  0  0  0  0  0  0  0  0  0  0  0
  -26.1045  -17.9316   20.7722 N   0  0  0  0  0  0  0  0  0  0  0  0
  -24.0907  -30.2001   22.2620 N   0  0  0  0  0  0  0  0  0  0  0  0
  -28.2920  -20.0442   18.4565 N   0  0  0  0  0  0  0  0  0  0  0  0
  -27.2081  -18.4892   22.7925 N   0  0  0  0  0  0  0  0  0  0  0  0
  -25.1399  -14.5966   23.7752 N   0  0  0  0  0  0  0  0  0  0  0  0
  -26.5768  -32.7200   22.7084 N   0  0  0  0  0  0  0  0  0  0  0  0
  -21.0174  -29.2984   23.3575 N   0  0  0  0  0  0  0  0  0  0  0  0
  -29.9543  -21.6873   17.9327 N   0  0  0  0  0  0  0  0  0  0  0  0
  -18.8279  -27.8648   20.8638 N   0  3  0  0  0  0  0  0  0  0  0  0
  -26.4744  -16.2604   24.6175 O   0  0  0  0  0  0  0  0  0  0  0  0
  -26.5866  -30.4275   23.1168 O   0  0  0  0  0  0  0  0  0  0  0  0
  -22.6471  -31.6548   23.3739 O   0  0  0  0  0  0  0  0  0  0  0  0
  -21.2110  -27.2764   22.2389 O   0  0  0  0  0  0  0  0  0  0  0  0
  -29.8500  -20.7118   20.0172 O   0  0  0  0  0  0  0  0  0  0  0  0
  -21.9710  -11.5872   20.3202 O   0  0  0  0  0  0  0  0  0  0  0  0
  -27.0608  -25.8389   19.0664 O   0  0  0  0  0  0  0  0  0  1  0  0
  -23.8883   -6.7422   22.1241 F   0  0  0  0  0  0  0  0  0  0  0  0
  -22.5055  -11.1831   23.0023 F   0  0  0  0  0  0  0  0  0  0  0  0
  1  2  1  0  0  0  0
  1  5  2  0  0  0  0
  2  6  2  0  0  0  0
  3  8  2  0  0  0  0
  3 15  1  0  0  0  0
  4  9  1  0  0  0  0
  4 15  2  0  0  0  0
  5 17  1  0  0  0  0
  6 19  1  0  0  0  0
  7 10  2  0  0  0  0
  7 18  1  0  0  0  0
  8 21  1  0  0  0  0
  9 21  2  0  0  0  0
 10 22  1  0  0  0  0
 11 12  2  0  0  0  0
 11 23  1  0  0  0  0
 12 24  1  0  0  0  0
 13 20  1  0  0  0  0
 13 22  2  0  0  0  0
 14 24  2  0  0  0  0
 14 25  1  0  0  0  0
 15 26  1  0  0  0  0
 16 26  1  0  0  0  0
 16 27  2  0  0  0  0
 16 28  1  0  0  0  0
 17 19  2  0  0  0  0
 17 33  1  0  0  0  0
 18 20  2  0  0  0  0
 18 34  1  0  0  0  0
 19 42  1  0  0  0  0
 20 35  1  0  0  0  0
 21 76  1  0  0  0  0
 22 77  1  0  0  0  0
 23 25  2  0  0  0  0
 23 76  1  0  0  0  0
 24 78  1  0  0  0  0
 25 79  1  0  0  0  0
 26 61  2  0  0  0  0
 27 62  1  0  0  0  0
 27 65  1  0  0  0  0
 28 66  1  0  0  0  0
 28 71  2  0  0  0  0
 29 43  1  0  0  0  0
 29 67  1  0  0  0  0
 29 72  2  0  0  0  0
 30 56  1  0  0  0  0
 30 63  1  0  0  0  0
 30 73  2  0  0  0  0
 31 57  1  0  0  0  0
 31 68  1  0  0  0  0
 31 74  2  0  0  0  0
 32 64  1  0  0  0  0
 32 69  1  0  0  0  0
 32 75  2  0  0  0  0
 33 36  1  0  0  0  0
 34 43  1  0  0  0  0
 35 63  1  0  0  0  0
 36 38  1  0  0  0  0
 37 39  1  0  0  0  0
 37 40  1  0  0  0  0
 38 42  1  0  0  0  0
 39 44  1  0  0  0  0
 40 64  1  0  0  0  0
 41 44  1  0  0  0  0
 41 64  1  0  0  0  0
 42 67  1  0  0  0  0
 43 63  1  0  0  0  0
 44 62  1  0  0  0  0
 45 57  1  0  0  0  0
 46 58  1  0  0  0  0
 47 58  1  0  0  0  0
 48 60  1  0  0  0  0
 49 60  1  0  0  0  0
 50 60  1  0  0  0  0
 51 69  1  0  0  0  0
 52 70  1  0  0  0  0
 53 55  1  0  0  0  0
 53 59  1  0  0  0  0
 54 59  1  0  0  0  0
 54 69  1  0  0  0  0
 55 77  1  0  0  0  0
 56 60  1  0  0  0  0
 56 68  1  0  0  0  0
 57 70  1  0  0  0  0
 58 59  1  0  0  0  0
 61 62  1  0  0  0  0
M  CHG  1  70   1
M  ISO  4  32 100  55 101  69 100  77 101
M  END
> <Batch ID>
0103

> <Smiles>
CNC(C)C(=O)NC(C(=O)N1Cc2cc([101O:1][101CH2:1]CC(C[100N:0](C)[100C:0](=O)N3CCCC(n4nc(-c5ccc(Oc6ccc(F)cc6F)cc5)c(C(N)=O)c4N)C3)C(C)C)ccc2CC1C(=O)NC1CCCc2ccccc21)C(C)(C)C

> <Shape>
0.269

> <Color>
0.082

> <Negative vol penalty>
0.000

$$$$

  -OEChem-04052319413D

 87 95  0     1  0  0  0  0  0999 V2000
  -20.0310  -11.8511   20.9653 C   0  0  0  0  0  0  0  0  0  0  0  0
  -20.4055  -12.6907   19.9211 C   0  0  0  0  0  0  0  0  0  0  0  0
  -24.8189  -30.7596   21.1070 C   0  0  0  0  0  0  0  0  0  0  0  0
  -24.8993  -29.3204   23.0459 C   0  0  0  0  0  0  0  0  0  0  0  0
  -20.7515  -11.8611   22.1589 C   0  0  0  0  0  0  0  0  0  0  0  0
  -21.5000  -13.5417   20.0705 C   0  0  0  0  0  0  0  0  0  0  0  0
  -26.8225  -16.5054   16.3016 C   0  0  0  0  0  0  0  0  0  0  0  0
  -24.1935  -31.7482   21.8667 C   0  0  0  0  0  0  0  0  0  0  0  0
  -24.2739  -30.3090   23.8057 C   0  0  0  0  0  0  0  0  0  0  0  0
  -27.3927  -17.7501   16.0385 C   0  0  0  0  0  0  0  0  0  0  0  0
  -22.9014  -34.7884   23.3842 C   0  0  0  0  0  0  0  0  0  0  0  0
  -23.3606  -36.0985   23.2481 C   0  0  0  0  0  0  0  0  0  0  0  0
  -28.6108  -17.6247   18.1169 C   0  0  0  0  0  0  0  0  0  0  0  0
  -28.0116  -21.9958   21.8599 C   0  0  0  0  0  0  0  0  0  0  0  0
  -25.5531  -35.4073   23.9912 C   0  0  0  0  0  0  0  0  0  0  0  0
  -26.3260  -20.8421   22.8074 C   0  0  0  0  0  0  0  0  0  0  0  0
  -25.1718  -29.5457   21.6966 C   0  0  0  0  0  0  0  0  0  0  0  0
  -27.2007  -28.3450   20.7223 C   0  0  0  0  0  0  0  0  0  0  0  0
  -21.8612  -12.7057   22.3195 C   0  0  0  0  0  0  0  0  0  0  0  0
  -27.1343  -15.8147   17.4815 C   0  0  0  0  0  0  0  0  0  0  0  0
  -22.2351  -13.5640   21.2679 C   0  0  0  0  0  0  0  0  0  0  0  0
  -28.0452  -16.3702   18.3914 C   0  0  0  0  0  0  0  0  0  0  0  0
  -27.4728  -21.5500   23.0920 C   0  0  0  0  0  0  0  0  0  0  0  0
  -23.9210  -31.5229   23.2160 C   0  0  0  0  0  0  0  0  0  0  0  0
  -28.2848  -18.3113   16.9475 C   0  0  0  0  0  0  0  0  0  0  0  0
  -23.7681  -33.7878   23.8239 C   0  0  0  0  0  0  0  0  0  0  0  0
  -24.6864  -36.4079   23.5516 C   0  0  0  0  0  0  0  0  0  0  0  0
  -25.0939  -34.0972   24.1273 C   0  0  0  0  0  0  0  0  0  0  0  0
  -25.8173  -28.5239   20.9122 C   0  0  0  0  0  0  0  0  0  0  0  0
  -27.1775  -21.5469   20.8598 C   0  0  0  0  0  0  0  0  0  0  0  0
  -27.2956  -27.2461   19.9038 C   0  0  0  0  0  0  0  0  0  0  0  0
  -28.3015  -29.1041   21.2396 C   0  0  0  0  0  0  0  0  0  0  0  0
  -25.4735  -14.8116   19.9993 C   0  0  0  0  0  0  0  0  0  0  0  0
  -28.2879  -13.4174   20.8102 C   0  0  0  0  0  0  0  0  0  0  0  0
  -31.6892  -13.3817   20.5335 C   0  0  0  0  0  0  0  0  0  0  0  0
  -23.6739  -22.5850   18.8995 C   0  0  0  0  0  0  0  0  0  0  0  0
  -22.5802  -12.7155   23.6452 C   0  0  0  0  0  0  0  0  0  0  0  0
  -26.5313  -14.4608   17.7379 C   0  0  0  0  0  0  0  0  0  0  0  0
  -28.4287  -15.6601   19.6631 C   0  0  0  0  0  0  0  0  0  0  0  0
  -23.9551  -13.3764   23.5876 C   0  0  0  0  0  0  0  0  0  0  0  0
  -24.8995  -24.9019   16.4899 C   0  0  0  0  0  0  0  0  0  0  0  0
  -23.8799  -14.6999   22.8331 C   0  0  0  0  0  0  0  0  0  0  0  0
  -25.3985  -26.0768   17.3329 C   0  0  0  0  0  0  0  0  0  0  0  0
  -23.6425  -24.2729   17.0866 C   0  0  0  0  0  0  0  0  0  0  0  0
  -24.2616  -25.0454   19.3435 C   0  0  0  0  0  0  0  0  0  0  0  0
  -23.4316  -14.4834   21.3827 C   0  0  1  0  0  0  0  0  0  0  0  0
  -26.5253  -14.0793   19.2150 C   0  0  1  0  0  0  0  0  0  0  0  0
  -25.5596  -25.6772   18.8119 C   0  0  2  0  0  0  0  0  0  0  0  0
  -33.7186  -12.1470   21.3425 C   0  0  0  0  0  0  0  0  0  0  0  0
  -28.1295  -23.3278   24.7516 C   0  0  0  0  0  0  0  0  0  0  0  0
  -29.4810  -21.2116   24.5751 C   0  0  0  0  0  0  0  0  0  0  0  0
  -27.2339  -21.1847   25.6386 C   0  0  0  0  0  0  0  0  0  0  0  0
  -28.0580  -14.8152   23.5126 C   0  0  0  0  0  0  0  0  0  0  0  0
  -30.4866  -14.3365   23.8884 C   0  0  0  0  0  0  0  0  0  0  0  0
  -28.8720  -12.4532   23.6258 C   0  0  0  0  0  0  0  0  0  0  0  0
  -26.7548  -20.6999   16.5239 C   0  0  0  0  0  0  0  0  0  0  0  0
  -28.9356  -21.9170   16.7521 C   0  0  0  0  0  0  0  0  0  0  0  0
  -32.4414  -12.5823   17.7850 C   0  0  0  0  0  0  0  0  0  0  0  0
  -27.2719  -21.7309   19.3651 C   0  0  0  0  0  0  0  0  0  0  0  0
  -28.0733  -20.5977   18.7086 C   0  0  0  0  0  0  0  0  0  0  0  0
  -25.0602  -20.2054   20.7550 C   0  0  0  0  0  0  0  0  0  0  0  0
  -23.7642  -21.0097   20.8151 C   0  0  0  0  0  0  0  0  0  0  0  0
  -29.4995  -13.8387   21.6061 C   0  0  1  0  0  0  0  0  0  0  0  0
  -32.6650  -12.2537   20.2509 C   0  0  2  0  0  0  0  0  0  0  0  0
  -28.0354  -21.7973   24.4333 C   0  0  0  0  0  0  0  0  0  0  0  0
  -29.2205  -13.8754   23.1353 C   0  0  0  0  0  0  0  0  0  0  0  0
  -28.1418  -20.6748   17.1699 C   0  0  0  0  0  0  0  0  0  1  0  0
  -25.0859  -27.6119   20.2662 N   0  0  0  0  0  0  0  0  0  0  0  0
  -26.1562  -20.8471   21.4474 N   0  0  0  0  0  0  0  0  0  0  0  0
  -26.0132  -26.8493   19.6623 N   0  0  0  0  0  0  0  0  0  0  0  0
  -27.8075  -14.3417   19.8717 N   0  0  0  0  0  0  0  0  0  0  0  0
  -23.8622  -23.9154   18.4901 N   0  0  0  0  0  0  0  0  0  0  0  0
  -28.3500  -26.5903   19.3741 N   0  0  0  0  0  0  0  0  0  0  0  0
  -28.0262  -30.2025   22.0654 N   0  0  0  0  0  0  0  0  0  0  0  0
  -24.5306  -13.9869   20.5827 N   0  0  0  0  0  0  0  0  0  0  0  0
  -30.5776  -12.9362   21.2169 N   0  0  0  0  0  0  0  0  0  0  0  0
  -23.9095  -22.3305   20.2450 N   0  0  0  0  0  0  0  0  0  0  0  0
  -33.3568  -12.4808   18.9506 N   0  3  0  0  0  0  0  0  0  0  0  0
  -29.4934  -28.8267   20.9640 O   0  0  0  0  0  0  0  0  0  0  0  0
  -25.5151  -16.0342   20.0711 O   0  0  0  0  0  0  0  0  0  0  0  0
  -27.7904  -12.3062   21.0086 O   0  0  0  0  0  0  0  0  0  0  0  0
  -31.8943  -14.5427   20.1861 O   0  0  0  0  0  0  0  0  0  0  0  0
  -23.3270  -21.6891   18.1223 O   0  0  0  0  0  0  0  0  0  0  0  0
  -23.3110  -32.4875   23.9577 O   0  0  0  0  0  0  0  0  0  0  0  0
  -28.8422  -19.5264   16.6935 O   0  0  0  0  0  0  0  0  0  1  0  0
  -25.1275  -37.6657   23.4194 F   0  0  0  0  0  0  0  0  0  0  0  0
  -25.9315  -33.1399   24.5490 F   0  0  0  0  0  0  0  0  0  0  0  0
  1  2  1  0  0  0  0
  1  5  2  0  0  0  0
  2  6  2  0  0  0  0
  3  8  2  0  0  0  0
  3 17  1  0  0  0  0
  4  9  1  0  0  0  0
  4 17  2  0  0  0  0
  5 19  1  0  0  0  0
  6 21  1  0  0  0  0
  7 10  2  0  0  0  0
  7 20  1  0  0  0  0
  8 24  1  0  0  0  0
  9 24  2  0  0  0  0
 10 25  1  0  0  0  0
 11 12  2  0  0  0  0
 11 26  1  0  0  0  0
 12 27  1  0  0  0  0
 13 22  1  0  0  0  0
 13 25  2  0  0  0  0
 14 23  1  0  0  0  0
 14 30  2  0  0  0  0
 15 27  2  0  0  0  0
 15 28  1  0  0  0  0
 16 23  2  0  0  0  0
 16 69  1  0  0  0  0
 17 29  1  0  0  0  0
 18 29  1  0  0  0  0
 18 31  2  0  0  0  0
 18 32  1  0  0  0  0
 19 21  2  0  0  0  0
 19 37  1  0  0  0  0
 20 22  2  0  0  0  0
 20 38  1  0  0  0  0
 21 46  1  0  0  0  0
 22 39  1  0  0  0  0
 23 65  1  0  0  0  0
 24 84  1  0  0  0  0
 25 85  1  0  0  0  0
 26 28  2  0  0  0  0
 26 84  1  0  0  0  0
 27 86  1  0  0  0  0
 28 87  1  0  0  0  0
 29 68  2  0  0  0  0
 30 59  1  0  0  0  0
 30 69  1  0  0  0  0
 31 70  1  0  0  0  0
 31 73  1  0  0  0  0
 32 74  1  0  0  0  0
 32 79  2  0  0  0  0
 33 47  1  0  0  0  0
 33 75  1  0  0  0  0
 33 80  2  0  0  0  0
 34 63  1  0  0  0  0
 34 71  1  0  0  0  0
 34 81  2  0  0  0  0
 35 64  1  0  0  0  0
 35 76  1  0  0  0  0
 35 82  2  0  0  0  0
 36 72  1  0  0  0  0
 36 77  1  0  0  0  0
 36 83  2  0  0  0  0
 37 40  1  0  0  0  0
 38 47  1  0  0  0  0
 39 71  1  0  0  0  0
 40 42  1  0  0  0  0
 41 43  1  0  0  0  0
 41 44  1  0  0  0  0
 42 46  1  0  0  0  0
 43 48  1  0  0  0  0
 44 72  1  0  0  0  0
 45 48  1  0  0  0  0
 45 72  1  0  0  0  0
 46 75  1  0  0  0  0
 47 71  1  0  0  0  0
 48 70  1  0  0  0  0
 49 64  1  0  0  0  0
 50 65  1  0  0  0  0
 51 65  1  0  0  0  0
 52 65  1  0  0  0  0
 53 66  1  0  0  0  0
 54 66  1  0  0  0  0
 55 66  1  0  0  0  0
 56 67  1  0  0  0  0
 57 67  1  0  0  0  0
 58 78  1  0  0  0  0
 59 60  1  0  0  0  0
 60 67  1  0  0  0  0
 61 62  1  0  0  0  0
 61 69  1  0  0  0  0
 62 77  1  0  0  0  0
 63 66  1  0  0  0  0
 63 76  1  0  0  0  0
 64 78  1  0  0  0  0
 67 85  1  0  0  0  0
 68 70  1  0  0  0  0
M  CHG  1  78   1
M  ISO  4  36 100  67 101  77 100  85 101
M  END
> <Batch ID>
0103

> <Smiles>
CNC(C)C(=O)NC(C(=O)N1Cc2cc([101O:1][101C:1](C)(C)CCc3cc(C(C)(C)C)cn3CC[100NH:0][100C:0](=O)N3CCCC(n4nc(-c5ccc(Oc6ccc(F)cc6F)cc5)c(C(N)=O)c4N)C3)ccc2CC1C(=O)NC1CCCc2ccccc21)C(C)(C)C

> <Shape>
0.225

> <Color>
0.072

> <Negative vol penalty>
0.000

$$$$

  -OEChem-04052319413D

 83 91  0     1  0  0  0  0  0999 V2000
  -16.2753  -28.2080   22.4270 C   0  0  0  0  0  0  0  0  0  0  0  0
  -16.1895  -26.8287   22.2671 C   0  0  0  0  0  0  0  0  0  0  0  0
  -28.7159  -22.7732   21.2773 C   0  0  0  0  0  0  0  0  0  0  0  0
  -29.3341  -21.9550   19.0898 C   0  0  0  0  0  0  0  0  0  0  0  0
  -17.5229  -28.8179   22.5513 C   0  0  0  0  0  0  0  0  0  0  0  0
  -17.3514  -26.0586   22.2304 C   0  0  0  0  0  0  0  0  0  0  0  0
  -19.8221  -19.5901   24.0664 C   0  0  0  0  0  0  0  0  0  0  0  0
  -29.2854  -24.0102   20.9756 C   0  0  0  0  0  0  0  0  0  0  0  0
  -29.9036  -23.1921   18.7880 C   0  0  0  0  0  0  0  0  0  0  0  0
  -20.4972  -18.4998   23.5192 C   0  0  0  0  0  0  0  0  0  0  0  0
  -28.4523  -26.7724   19.2123 C   0  0  0  0  0  0  0  0  0  0  0  0
  -27.7272  -27.9175   19.5420 C   0  0  0  0  0  0  0  0  0  0  0  0
  -22.5940  -19.6531   23.8233 C   0  0  0  0  0  0  0  0  0  0  0  0
  -23.6309  -14.7408   22.7467 C   0  0  0  0  0  0  0  0  0  0  0  0
  -29.5295  -28.6454   20.9770 C   0  0  0  0  0  0  0  0  0  0  0  0
  -23.2877  -13.9420   20.1602 C   0  0  0  0  0  0  0  0  0  0  0  0
  -28.7403  -21.7456   20.3344 C   0  0  0  0  0  0  0  0  0  0  0  0
  -26.8108  -20.2080   20.9828 C   0  0  0  0  0  0  0  0  0  0  0  0
  -18.7002  -28.0538   22.5258 C   0  0  0  0  0  0  0  0  0  0  0  0
  -20.5281  -20.7264   24.4868 C   0  0  0  0  0  0  0  0  0  0  0  0
  -18.6159  -26.6590   22.3531 C   0  0  0  0  0  0  0  0  0  0  0  0
  -21.9258  -20.7554   24.3779 C   0  0  0  0  0  0  0  0  0  0  0  0
  -24.2857  -13.3369   20.9070 C   0  0  0  0  0  0  0  0  0  0  0  0
  -29.8792  -24.2197   19.7310 C   0  0  0  0  0  0  0  0  0  0  0  0
  -21.8830  -18.5324   23.3949 C   0  0  0  0  0  0  0  0  0  0  0  0
  -29.7159  -26.5637   19.7650 C   0  0  0  0  0  0  0  0  0  0  0  0
  -24.4541  -13.7497   22.2240 C   0  0  0  0  0  0  0  0  0  0  0  0
  -28.2658  -28.8540   20.4243 C   0  0  0  0  0  0  0  0  0  0  0  0
  -30.2545  -27.5003   20.6474 C   0  0  0  0  0  0  0  0  0  0  0  0
  -28.1528  -20.4673   20.6457 C   0  0  0  0  0  0  0  0  0  0  0  0
  -22.6623  -15.2832   21.9176 C   0  0  0  0  0  0  0  0  0  0  0  0
  -26.7635  -18.8502   21.1841 C   0  0  0  0  0  0  0  0  0  0  0  0
  -25.7057  -21.1136   21.1032 C   0  0  0  0  0  0  0  0  0  0  0  0
  -20.5565  -23.7901   23.6405 C   0  0  0  0  0  0  0  0  0  0  0  0
  -22.5565  -24.0701   26.1789 C   0  0  0  0  0  0  0  0  0  0  0  0
  -24.7751  -22.5754   28.2979 C   0  0  0  0  0  0  0  0  0  0  0  0
  -28.0947  -13.6531   19.6466 C   0  0  0  0  0  0  0  0  0  0  0  0
  -20.0281  -28.7631   22.6166 C   0  0  0  0  0  0  0  0  0  0  0  0
  -19.7876  -21.8834   25.0996 C   0  0  0  0  0  0  0  0  0  0  0  0
  -22.7321  -21.9433   24.8330 C   0  0  0  0  0  0  0  0  0  0  0  0
  -21.1941  -27.8336   22.9433 C   0  0  0  0  0  0  0  0  0  0  0  0
  -30.4866  -15.4487   21.5782 C   0  0  0  0  0  0  0  0  0  0  0  0
  -21.1382  -26.5813   22.0741 C   0  0  0  0  0  0  0  0  0  0  0  0
  -29.9854  -16.8932   21.5303 C   0  0  0  0  0  0  0  0  0  0  0  0
  -30.2440  -14.7230   20.2567 C   0  0  0  0  0  0  0  0  0  0  0  0
  -28.3495  -16.2076   19.7269 C   0  0  0  0  0  0  0  0  0  0  0  0
  -19.8525  -25.7868   22.3333 C   0  0  1  0  0  0  0  0  0  0  0  0
  -20.5603  -23.1964   25.0207 C   0  0  1  0  0  0  0  0  0  0  0  0
  -28.5215  -16.9634   21.0556 C   0  0  2  0  0  0  0  0  0  0  0  0
  -27.6991  -13.3008   23.7266 C   0  0  0  0  0  0  0  0  0  0  0  0
  -26.2754  -23.0691   30.2480 C   0  0  0  0  0  0  0  0  0  0  0  0
  -24.5472  -25.4210   24.3022 C   0  0  0  0  0  0  0  0  0  0  0  0
  -26.3263  -25.0279   26.0193 C   0  0  0  0  0  0  0  0  0  0  0  0
  -24.3670  -26.4725   26.5641 C   0  0  0  0  0  0  0  0  0  0  0  0
  -23.3338  -20.6650   30.0393 C   0  0  0  0  0  0  0  0  0  0  0  0
  -25.1419  -12.2793   20.3025 C   0  0  0  0  0  0  0  0  0  0  0  0
  -21.7555  -16.3545   22.4480 C   0  0  0  0  0  0  0  0  0  1  0  0
  -25.8744  -12.7303   19.0319 C   0  0  0  0  0  0  0  0  0  0  0  0
  -26.4107  -14.0725   23.5367 C   0  0  0  0  0  0  0  0  0  0  0  0
  -24.0494  -23.9711   26.3797 C   0  0  1  0  0  0  0  0  0  0  0  0
  -24.8963  -22.6003   29.8109 C   0  0  2  0  0  0  0  0  0  0  0  0
  -24.8074  -25.2014   25.8059 C   0  0  0  0  0  0  0  0  0  0  0  0
  -22.4687  -14.9079   20.6333 N   0  0  0  0  0  0  0  0  0  0  0  0
  -28.9038  -19.3628   20.6327 N   0  0  0  0  0  0  0  0  0  0  0  0
  -28.0307  -18.3964   20.9642 N   0  0  0  0  0  0  0  0  0  0  0  0
  -21.9618  -23.0524   25.4197 N   0  0  0  0  0  0  0  0  0  0  0  0
  -28.8366  -14.8260   19.8637 N   0  0  0  0  0  0  0  0  0  0  0  0
  -25.7620  -18.0121   21.5260 N   0  0  0  0  0  0  0  0  0  0  0  0
  -24.9239  -21.3683   19.9682 N   0  0  0  0  0  0  0  0  0  0  0  0
  -19.9623  -25.0354   23.5653 N   0  0  0  0  0  0  0  0  0  0  0  0
  -24.2558  -23.7548   27.8077 N   0  0  0  0  0  0  0  0  0  0  0  0
  -26.7666  -13.8400   19.2832 N   0  0  0  0  0  0  0  0  0  0  0  0
  -24.6629  -21.2394   30.3718 N   0  3  0  0  0  0  0  0  0  0  0  0
  -25.4300  -21.6928   22.1812 O   0  0  0  0  0  0  0  0  0  0  0  0
  -21.0569  -23.1654   22.7126 O   0  0  0  0  0  0  0  0  0  0  0  0
  -21.9396  -25.0117   26.6833 O   0  0  0  0  0  0  0  0  0  0  0  0
  -25.1113  -21.6078   27.6187 O   0  0  0  0  0  0  0  0  0  0  0  0
  -28.5785  -12.5231   19.7729 O   0  0  0  0  0  0  0  0  0  0  0  0
  -30.4347  -25.4268   19.4361 O   0  0  0  0  0  0  0  0  0  0  0  0
  -22.5443  -17.4698   22.8606 O   0  0  0  0  0  0  0  0  0  1  0  0
  -25.4164  -13.1948   23.0116 O   0  0  0  0  0  0  0  0  0  0  0  0
  -27.5701  -29.9544   20.7396 F   0  0  0  0  0  0  0  0  0  0  0  0
  -31.4684  -27.3059   21.1806 F   0  0  0  0  0  0  0  0  0  0  0  0
  1  2  1  0  0  0  0
  1  5  2  0  0  0  0
  2  6  2  0  0  0  0
  3  8  2  0  0  0  0
  3 17  1  0  0  0  0
  4  9  1  0  0  0  0
  4 17  2  0  0  0  0
  5 19  1  0  0  0  0
  6 21  1  0  0  0  0
  7 10  2  0  0  0  0
  7 20  1  0  0  0  0
  8 24  1  0  0  0  0
  9 24  2  0  0  0  0
 10 25  1  0  0  0  0
 11 12  2  0  0  0  0
 11 26  1  0  0  0  0
 12 28  1  0  0  0  0
 13 22  1  0  0  0  0
 13 25  2  0  0  0  0
 14 27  1  0  0  0  0
 14 31  2  0  0  0  0
 15 28  2  0  0  0  0
 15 29  1  0  0  0  0
 16 23  1  0  0  0  0
 16 63  2  0  0  0  0
 17 30  1  0  0  0  0
 18 30  1  0  0  0  0
 18 32  2  0  0  0  0
 18 33  1  0  0  0  0
 19 21  2  0  0  0  0
 19 38  1  0  0  0  0
 20 22  2  0  0  0  0
 20 39  1  0  0  0  0
 21 47  1  0  0  0  0
 22 40  1  0  0  0  0
 23 27  2  0  0  0  0
 23 56  1  0  0  0  0
 24 79  1  0  0  0  0
 25 80  1  0  0  0  0
 26 29  2  0  0  0  0
 26 79  1  0  0  0  0
 27 81  1  0  0  0  0
 28 82  1  0  0  0  0
 29 83  1  0  0  0  0
 30 64  2  0  0  0  0
 31 57  1  0  0  0  0
 31 63  1  0  0  0  0
 32 65  1  0  0  0  0
 32 68  1  0  0  0  0
 33 69  1  0  0  0  0
 33 74  2  0  0  0  0
 34 48  1  0  0  0  0
 34 70  1  0  0  0  0
 34 75  2  0  0  0  0
 35 60  1  0  0  0  0
 35 66  1  0  0  0  0
 35 76  2  0  0  0  0
 36 61  1  0  0  0  0
 36 71  1  0  0  0  0
 36 77  2  0  0  0  0
 37 67  1  0  0  0  0
 37 72  1  0  0  0  0
 37 78  2  0  0  0  0
 38 41  1  0  0  0  0
 39 48  1  0  0  0  0
 40 66  1  0  0  0  0
 41 43  1  0  0  0  0
 42 44  1  0  0  0  0
 42 45  1  0  0  0  0
 43 47  1  0  0  0  0
 44 49  1  0  0  0  0
 45 67  1  0  0  0  0
 46 49  1  0  0  0  0
 46 67  1  0  0  0  0
 47 70  1  0  0  0  0
 48 66  1  0  0  0  0
 49 65  1  0  0  0  0
 50 59  1  0  0  0  0
 51 61  1  0  0  0  0
 52 62  1  0  0  0  0
 53 62  1  0  0  0  0
 54 62  1  0  0  0  0
 55 73  1  0  0  0  0
 56 58  1  0  0  0  0
 57 80  1  0  0  0  0
 58 72  1  0  0  0  0
 59 81  1  0  0  0  0
 60 62  1  0  0  0  0
 60 71  1  0  0  0  0
 61 73  1  0  0  0  0
 64 65  1  0  0  0  0
M  CHG  1  73   1
M  ISO  4  37 100  57 101  72 100  80 101
M  END
> <Batch ID>
0103

> <Smiles>
CCOc1cc([101CH2:1][101O:1]c2ccc3c(c2)CN(C(=O)C(NC(=O)C(C)NC)C(C)(C)C)C(C(=O)NC2CCCc4ccccc42)C3)ncc1CC[100NH:0][100C:0](=O)N1CCCC(n2nc(-c3ccc(Oc4ccc(F)cc4F)cc3)c(C(N)=O)c2N)C1

> <Shape>
0.224

> <Color>
0.049

> <Negative vol penalty>
0.000

$$$$

  -OEChem-04052319413D

 78 85  0     1  0  0  0  0  0999 V2000
  -18.7383  -23.5866   18.0583 C   0  0  0  0  0  0  0  0  0  0  0  0
  -19.8620  -22.7886   18.2472 C   0  0  0  0  0  0  0  0  0  0  0  0
  -23.0655   -9.9454   19.8501 C   0  0  0  0  0  0  0  0  0  0  0  0
  -23.8899   -9.7654   22.1139 C   0  0  0  0  0  0  0  0  0  0  0  0
  -18.8279  -24.7426   17.2840 C   0  0  0  0  0  0  0  0  0  0  0  0
  -21.0759  -23.1455   17.6611 C   0  0  0  0  0  0  0  0  0  0  0  0
  -24.9821  -22.6907   20.8515 C   0  0  0  0  0  0  0  0  0  0  0  0
  -22.3374   -8.7681   20.0216 C   0  0  0  0  0  0  0  0  0  0  0  0
  -23.1618   -8.5881   22.2855 C   0  0  0  0  0  0  0  0  0  0  0  0
  -25.4759  -21.4060   21.0745 C   0  0  0  0  0  0  0  0  0  0  0  0
  -19.9770   -6.0037   19.9824 C   0  0  0  0  0  0  0  0  0  0  0  0
  -18.6584   -5.9846   19.5280 C   0  0  0  0  0  0  0  0  0  0  0  0
  -27.2717  -21.8332   19.5215 C   0  0  0  0  0  0  0  0  0  0  0  0
  -18.1166   -7.8031   21.0236 C   0  0  0  0  0  0  0  0  0  0  0  0
  -23.8418  -10.4441   20.8963 C   0  0  0  0  0  0  0  0  0  0  0  0
  -24.1616  -12.9735   20.9818 C   0  0  0  0  0  0  0  0  0  0  0  0
  -20.0457  -25.1191   16.6959 C   0  0  0  0  0  0  0  0  0  0  0  0
  -25.6243  -23.5538   19.9521 C   0  0  0  0  0  0  0  0  0  0  0  0
  -21.1815  -24.3069   16.8770 C   0  0  0  0  0  0  0  0  0  0  0  0
  -26.7856  -23.1292   19.2908 C   0  0  0  0  0  0  0  0  0  0  0  0
  -22.3856   -8.0894   21.2393 C   0  0  0  0  0  0  0  0  0  0  0  0
  -26.6191  -20.9761   20.4073 C   0  0  0  0  0  0  0  0  0  0  0  0
  -20.3654   -6.9225   20.9575 C   0  0  0  0  0  0  0  0  0  0  0  0
  -17.7282   -6.8843   20.0486 C   0  0  0  0  0  0  0  0  0  0  0  0
  -19.4352   -7.8221   21.4781 C   0  0  0  0  0  0  0  0  0  0  0  0
  -24.5945  -11.6599   20.7195 C   0  0  0  0  0  0  0  0  0  0  0  0
  -25.2375  -13.7616   20.6536 C   0  0  0  0  0  0  0  0  0  0  0  0
  -22.8997  -13.4396   21.4780 C   0  0  0  0  0  0  0  0  0  0  0  0
  -24.7948  -24.9890   17.2399 C   0  0  0  0  0  0  0  0  0  0  0  0
  -27.6846  -26.4250   17.5710 C   0  0  0  0  0  0  0  0  0  0  0  0
  -30.8328  -26.3312   18.8851 C   0  0  0  0  0  0  0  0  0  0  0  0
  -30.7168  -14.8142   20.7765 C   0  0  0  0  0  0  0  0  0  0  0  0
  -20.0824  -26.3522   15.8283 C   0  0  0  0  0  0  0  0  0  0  0  0
  -25.0944  -24.9459   19.7428 C   0  0  0  0  0  0  0  0  0  0  0  0
  -27.5237  -24.0244   18.3305 C   0  0  0  0  0  0  0  0  0  0  0  0
  -21.4950  -26.8599   15.5509 C   0  0  0  0  0  0  0  0  0  0  0  0
  -29.5295  -12.6296   18.2280 C   0  0  0  0  0  0  0  0  0  0  0  0
  -22.4079  -25.7057   15.1492 C   0  0  0  0  0  0  0  0  0  0  0  0
  -28.1071  -12.2863   18.6739 C   0  0  0  0  0  0  0  0  0  0  0  0
  -30.4787  -12.7567   19.4176 C   0  0  0  0  0  0  0  0  0  0  0  0
  -28.6116  -13.3492   20.9132 C   0  0  0  0  0  0  0  0  0  0  0  0
  -22.5219  -24.6740   16.2780 C   0  0  1  0  0  0  0  0  0  0  0  0
  -25.5341  -25.5595   18.4171 C   0  0  1  0  0  0  0  0  0  0  0  0
  -27.6058  -13.2656   19.7523 C   0  0  2  0  0  0  0  0  0  0  0  0
  -32.9796  -27.6290   18.9504 C   0  0  0  0  0  0  0  0  0  0  0  0
  -32.8567  -19.0349   21.5879 C   0  0  0  0  0  0  0  0  0  0  0  0
  -31.0578  -19.8864   23.1078 C   0  0  0  0  0  0  0  0  0  0  0  0
  -28.3357  -25.4853   14.7421 C   0  0  0  0  0  0  0  0  0  0  0  0
  -30.7485  -25.9576   15.2154 C   0  0  0  0  0  0  0  0  0  0  0  0
  -29.0828  -27.8138   15.2657 C   0  0  0  0  0  0  0  0  0  0  0  0
  -30.6799  -26.6601   21.8224 C   0  0  0  0  0  0  0  0  0  0  0  0
  -28.9629  -18.3847   21.3805 C   0  0  0  0  0  0  0  0  0  0  0  0
  -30.8019  -16.8527   22.1893 C   0  0  0  0  0  0  0  0  0  0  0  0
  -28.5116  -19.5382   20.4901 C   0  0  0  0  0  0  0  0  0  1  0  0
  -29.0931  -26.1070   17.1308 C   0  0  1  0  0  0  0  0  0  0  0  0
  -31.6441  -27.3746   19.6318 C   0  0  2  0  0  0  0  0  0  0  0  0
  -31.3564  -19.3280   21.7141 C   0  0  0  0  0  0  0  0  0  0  0  0
  -30.4836  -18.0949   21.3312 C   0  0  2  0  0  0  0  0  0  0  0  0
  -29.3003  -26.3231   15.6051 C   0  0  0  0  0  0  0  0  0  0  0  0
  -25.8477  -11.6121   20.2599 N   0  0  0  0  0  0  0  0  0  0  0  0
  -26.2114  -12.9056   20.2307 N   0  0  0  0  0  0  0  0  0  0  0  0
  -26.9627  -25.3742   18.1547 N   0  0  0  0  0  0  0  0  0  0  0  0
  -29.9459  -13.7011   20.4026 N   0  0  0  0  0  0  0  0  0  0  0  0
  -25.4360  -15.0965   20.6882 N   0  0  0  0  0  0  0  0  0  0  0  0
  -21.9044  -12.4954   21.7646 N   0  0  0  0  0  0  0  0  0  0  0  0
  -23.4237  -25.1474   17.3062 N   0  0  0  0  0  0  0  0  0  0  0  0
  -29.9748  -26.9082   17.9729 N   0  0  0  0  0  0  0  0  0  0  0  0
  -30.1349  -15.6624   21.7106 N   0  0  0  0  0  0  0  0  0  0  0  0
  -31.9071  -26.9246   21.0280 N   0  3  0  0  0  0  0  0  0  0  0  0
  -22.6562  -14.6586   21.6462 O   0  0  0  0  0  0  0  0  0  0  0  0
  -25.4221  -24.4468   16.3376 O   0  0  0  0  0  0  0  0  0  0  0  0
  -27.2436  -27.5657   17.4097 O   0  0  0  0  0  0  0  0  0  0  0  0
  -30.9512  -25.1249   19.0880 O   0  0  0  0  0  0  0  0  0  0  0  0
  -31.8381  -15.0384   20.3082 O   0  0  0  0  0  0  0  0  0  0  0  0
  -21.6751   -6.9407   21.4071 O   0  0  0  0  0  0  0  0  0  0  0  0
  -27.1028  -19.7225   20.6227 O   0  0  0  0  0  0  0  0  0  1  0  0
  -16.4623   -6.8668   19.6110 F   0  0  0  0  0  0  0  0  0  0  0  0
  -19.8028   -8.7079   22.4141 F   0  0  0  0  0  0  0  0  0  0  0  0
  1  2  1  0  0  0  0
  1  5  2  0  0  0  0
  2  6  2  0  0  0  0
  3  8  2  0  0  0  0
  3 15  1  0  0  0  0
  4  9  1  0  0  0  0
  4 15  2  0  0  0  0
  5 17  1  0  0  0  0
  6 19  1  0  0  0  0
  7 10  2  0  0  0  0
  7 18  1  0  0  0  0
  8 21  1  0  0  0  0
  9 21  2  0  0  0  0
 10 22  1  0  0  0  0
 11 12  2  0  0  0  0
 11 23  1  0  0  0  0
 12 24  1  0  0  0  0
 13 20  1  0  0  0  0
 13 22  2  0  0  0  0
 14 24  2  0  0  0  0
 14 25  1  0  0  0  0
 15 26  1  0  0  0  0
 16 26  1  0  0  0  0
 16 27  2  0  0  0  0
 16 28  1  0  0  0  0
 17 19  2  0  0  0  0
 17 33  1  0  0  0  0
 18 20  2  0  0  0  0
 18 34  1  0  0  0  0
 19 42  1  0  0  0  0
 20 35  1  0  0  0  0
 21 75  1  0  0  0  0
 22 76  1  0  0  0  0
 23 25  2  0  0  0  0
 23 75  1  0  0  0  0
 24 77  1  0  0  0  0
 25 78  1  0  0  0  0
 26 60  2  0  0  0  0
 27 61  1  0  0  0  0
 27 64  1  0  0  0  0
 28 65  1  0  0  0  0
 28 70  2  0  0  0  0
 29 43  1  0  0  0  0
 29 66  1  0  0  0  0
 29 71  2  0  0  0  0
 30 55  1  0  0  0  0
 30 62  1  0  0  0  0
 30 72  2  0  0  0  0
 31 56  1  0  0  0  0
 31 67  1  0  0  0  0
 31 73  2  0  0  0  0
 32 63  1  0  0  0  0
 32 68  1  0  0  0  0
 32 74  2  0  0  0  0
 33 36  1  0  0  0  0
 34 43  1  0  0  0  0
 35 62  1  0  0  0  0
 36 38  1  0  0  0  0
 37 39  1  0  0  0  0
 37 40  1  0  0  0  0
 38 42  1  0  0  0  0
 39 44  1  0  0  0  0
 40 63  1  0  0  0  0
 41 44  1  0  0  0  0
 41 63  1  0  0  0  0
 42 66  1  0  0  0  0
 43 62  1  0  0  0  0
 44 61  1  0  0  0  0
 45 56  1  0  0  0  0
 46 57  1  0  0  0  0
 47 57  1  0  0  0  0
 48 59  1  0  0  0  0
 49 59  1  0  0  0  0
 50 59  1  0  0  0  0
 51 69  1  0  0  0  0
 52 54  1  0  0  0  0
 52 58  1  0  0  0  0
 53 58  1  0  0  0  0
 53 68  1  0  0  0  0
 54 76  1  0  0  0  0
 55 59  1  0  0  0  0
 55 67  1  0  0  0  0
 56 69  1  0  0  0  0
 57 58  1  0  0  0  0
 60 61  1  0  0  0  0
M  CHG  1  69   1
M  ISO  4  32 100  54 101  68 100  76 101
M  END
> <Batch ID>
0103

> <Smiles>
CNC(C)C(=O)NC(C(=O)N1Cc2cc([101O:1][101CH2:1]CC(C[100NH:0][100C:0](=O)N3CCCC(n4nc(-c5ccc(Oc6ccc(F)cc6F)cc5)c(C(N)=O)c4N)C3)C(C)C)ccc2CC1C(=O)NC1CCCc2ccccc21)C(C)(C)C

> <Shape>
0.217

> <Color>
0.213

> <Negative vol penalty>
0.000

$$$$

  -OEChem-04052319413D

 78 85  0     1  0  0  0  0  0999 V2000
  -28.2064  -25.0696   16.3517 C   0  0  0  0  0  0  0  0  0  0  0  0
  -27.0287  -25.1933   17.0819 C   0  0  0  0  0  0  0  0  0  0  0  0
  -27.3360  -19.9721   22.3748 C   0  0  0  0  0  0  0  0  0  0  0  0
  -26.3622  -21.2408   20.5639 C   0  0  0  0  0  0  0  0  0  0  0  0
  -29.3966  -25.5912   16.8568 C   0  0  0  0  0  0  0  0  0  0  0  0
  -27.0408  -25.8379   18.3184 C   0  0  0  0  0  0  0  0  0  0  0  0
  -23.1724  -29.0594   18.8678 C   0  0  0  0  0  0  0  0  0  0  0  0
  -28.0725  -19.2251   21.4554 C   0  0  0  0  0  0  0  0  0  0  0  0
  -27.0988  -20.4938   19.6445 C   0  0  0  0  0  0  0  0  0  0  0  0
  -21.9268  -28.5125   19.1733 C   0  0  0  0  0  0  0  0  0  0  0  0
  -27.5323  -16.6437   19.3415 C   0  0  0  0  0  0  0  0  0  0  0  0
  -27.5723  -15.2603   19.5155 C   0  0  0  0  0  0  0  0  0  0  0  0
  -22.2511  -29.0853   21.4940 C   0  0  0  0  0  0  0  0  0  0  0  0
  -29.9762  -15.3577   19.7364 C   0  0  0  0  0  0  0  0  0  0  0  0
  -26.4808  -20.9799   21.9290 C   0  0  0  0  0  0  0  0  0  0  0  0
  -26.1085  -22.9489   23.5075 C   0  0  0  0  0  0  0  0  0  0  0  0
  -29.4214  -26.2510   18.0957 C   0  0  0  0  0  0  0  0  0  0  0  0
  -23.9727  -29.6145   19.8767 C   0  0  0  0  0  0  0  0  0  0  0  0
  -28.2328  -26.3677   18.8412 C   0  0  0  0  0  0  0  0  0  0  0  0
  -23.5053  -29.6409   21.1984 C   0  0  0  0  0  0  0  0  0  0  0  0
  -27.9539  -19.4860   20.0903 C   0  0  0  0  0  0  0  0  0  0  0  0
  -21.4673  -28.5228   20.4870 C   0  0  0  0  0  0  0  0  0  0  0  0
  -28.7142  -17.3841   19.3650 C   0  0  0  0  0  0  0  0  0  0  0  0
  -28.7943  -14.6173   19.7129 C   0  0  0  0  0  0  0  0  0  0  0  0
  -29.9362  -16.7411   19.5625 C   0  0  0  0  0  0  0  0  0  0  0  0
  -25.7192  -21.7514   22.8781 C   0  0  0  0  0  0  0  0  0  0  0  0
  -25.0430  -23.2775   24.3095 C   0  0  0  0  0  0  0  0  0  0  0  0
  -27.3246  -23.6975   23.3787 C   0  0  0  0  0  0  0  0  0  0  0  0
  -26.8455  -28.9656   21.0725 C   0  0  0  0  0  0  0  0  0  0  0  0
  -26.3344  -31.6951   22.7491 C   0  0  0  0  0  0  0  0  0  0  0  0
  -24.0976  -33.9190   24.0523 C   0  0  0  0  0  0  0  0  0  0  0  0
  -19.2039  -21.9746   24.0682 C   0  0  0  0  0  0  0  0  0  0  0  0
  -30.7411  -26.7569   18.6223 C   0  0  0  0  0  0  0  0  0  0  0  0
  -25.3023  -30.2244   19.5266 C   0  0  0  0  0  0  0  0  0  0  0  0
  -24.3174  -30.2431   22.3148 C   0  0  0  0  0  0  0  0  0  0  0  0
  -30.5972  -27.7551   19.7683 C   0  0  0  0  0  0  0  0  0  0  0  0
  -21.4413  -21.2887   26.7516 C   0  0  0  0  0  0  0  0  0  0  0  0
  -29.5928  -27.2456   20.7971 C   0  0  0  0  0  0  0  0  0  0  0  0
  -22.8265  -21.4376   26.1199 C   0  0  0  0  0  0  0  0  0  0  0  0
  -20.4395  -20.6741   25.7765 C   0  0  0  0  0  0  0  0  0  0  0  0
  -21.7208  -21.5140   23.8461 C   0  0  0  0  0  0  0  0  0  0  0  0
  -28.2007  -27.0819   20.1750 C   0  0  1  0  0  0  0  0  0  0  0  0
  -26.2561  -30.3007   20.7147 C   0  0  1  0  0  0  0  0  0  0  0  0
  -22.7515  -22.1812   24.7728 C   0  0  2  0  0  0  0  0  0  0  0  0
  -23.9783  -36.0296   25.4045 C   0  0  0  0  0  0  0  0  0  0  0  0
  -26.9337  -30.1032   25.2823 C   0  0  0  0  0  0  0  0  0  0  0  0
  -25.8921  -31.9540   26.6082 C   0  0  0  0  0  0  0  0  0  0  0  0
  -27.9256  -32.3985   25.2334 C   0  0  0  0  0  0  0  0  0  0  0  0
  -18.9507  -23.0288   19.9176 C   0  0  0  0  0  0  0  0  0  0  0  0
  -17.0739  -24.5954   20.4059 C   0  0  0  0  0  0  0  0  0  0  0  0
  -22.7835  -35.3940   21.8486 C   0  0  0  0  0  0  0  0  0  0  0  0
  -19.0459  -26.3195   22.0576 C   0  0  0  0  0  0  0  0  0  0  0  0
  -19.4465  -25.1791   21.1098 C   0  0  0  0  0  0  0  0  0  0  0  0
  -18.1087  -23.3051   22.2823 C   0  0  0  0  0  0  0  0  0  0  0  0
  -20.0937  -27.4284   22.0906 C   0  0  0  0  0  0  0  0  0  1  0  0
  -25.7060  -32.0304   24.0802 C   0  0  1  0  0  0  0  0  0  0  0  0
  -24.0414  -35.4353   24.0061 C   0  0  2  0  0  0  0  0  0  0  0  0
  -26.5997  -31.6084   25.2805 C   0  0  0  0  0  0  0  0  0  0  0  0
  -18.4029  -24.0364   20.9519 C   0  0  0  0  0  0  0  0  0  0  0  0
  -24.5015  -21.3464   23.2485 N   0  0  0  0  0  0  0  0  0  0  0  0
  -24.1165  -22.2948   24.1194 N   0  0  0  0  0  0  0  0  0  0  0  0
  -25.6134  -30.8214   21.9230 N   0  0  0  0  0  0  0  0  0  0  0  0
  -20.4158  -21.4269   24.5201 N   0  0  0  0  0  0  0  0  0  0  0  0
  -24.8176  -24.3081   25.1518 N   0  0  0  0  0  0  0  0  0  0  0  0
  -28.3154  -23.2182   22.5111 N   0  0  0  0  0  0  0  0  0  0  0  0
  -27.5507  -28.3684   20.0452 N   0  0  0  0  0  0  0  0  0  0  0  0
  -25.3961  -33.4554   24.0380 N   0  0  0  0  0  0  0  0  0  0  0  0
  -19.2707  -22.6784   22.8720 N   0  0  0  0  0  0  0  0  0  0  0  0
  -22.8394  -35.8862   23.2492 N   0  3  0  0  0  0  0  0  0  0  0  0
  -27.5332  -24.7512   24.0265 O   0  0  0  0  0  0  0  0  0  0  0  0
  -26.6743  -28.5117   22.1979 O   0  0  0  0  0  0  0  0  0  0  0  0
  -27.4214  -32.1959   22.4503 O   0  0  0  0  0  0  0  0  0  0  0  0
  -23.0905  -33.2162   24.1004 O   0  0  0  0  0  0  0  0  0  0  0  0
  -18.1420  -21.8506   24.6879 O   0  0  0  0  0  0  0  0  0  0  0  0
  -28.6727  -18.7575   19.1930 O   0  0  0  0  0  0  0  0  0  0  0  0
  -20.2522  -27.9890   20.7879 O   0  0  0  0  0  0  0  0  0  1  0  0
  -28.8325  -13.2890   19.8815 F   0  0  0  0  0  0  0  0  0  0  0  0
  -31.0748  -17.4472   19.5872 F   0  0  0  0  0  0  0  0  0  0  0  0
  1  2  1  0  0  0  0
  1  5  2  0  0  0  0
  2  6  2  0  0  0  0
  3  8  2  0  0  0  0
  3 15  1  0  0  0  0
  4  9  1  0  0  0  0
  4 15  2  0  0  0  0
  5 17  1  0  0  0  0
  6 19  1  0  0  0  0
  7 10  2  0  0  0  0
  7 18  1  0  0  0  0
  8 21  1  0  0  0  0
  9 21  2  0  0  0  0
 10 22  1  0  0  0  0
 11 12  2  0  0  0  0
 11 23  1  0  0  0  0
 12 24  1  0  0  0  0
 13 20  1  0  0  0  0
 13 22  2  0  0  0  0
 14 24  2  0  0  0  0
 14 25  1  0  0  0  0
 15 26  1  0  0  0  0
 16 26  1  0  0  0  0
 16 27  2  0  0  0  0
 16 28  1  0  0  0  0
 17 19  2  0  0  0  0
 17 33  1  0  0  0  0
 18 20  2  0  0  0  0
 18 34  1  0  0  0  0
 19 42  1  0  0  0  0
 20 35  1  0  0  0  0
 21 75  1  0  0  0  0
 22 76  1  0  0  0  0
 23 25  2  0  0  0  0
 23 75  1  0  0  0  0
 24 77  1  0  0  0  0
 25 78  1  0  0  0  0
 26 60  2  0  0  0  0
 27 61  1  0  0  0  0
 27 64  1  0  0  0  0
 28 65  1  0  0  0  0
 28 70  2  0  0  0  0
 29 43  1  0  0  0  0
 29 66  1  0  0  0  0
 29 71  2  0  0  0  0
 30 56  1  0  0  0  0
 30 62  1  0  0  0  0
 30 72  2  0  0  0  0
 31 57  1  0  0  0  0
 31 67  1  0  0  0  0
 31 73  2  0  0  0  0
 32 63  1  0  0  0  0
 32 68  1  0  0  0  0
 32 74  2  0  0  0  0
 33 36  1  0  0  0  0
 34 43  1  0  0  0  0
 35 62  1  0  0  0  0
 36 38  1  0  0  0  0
 37 39  1  0  0  0  0
 37 40  1  0  0  0  0
 38 42  1  0  0  0  0
 39 44  1  0  0  0  0
 40 63  1  0  0  0  0
 41 44  1  0  0  0  0
 41 63  1  0  0  0  0
 42 66  1  0  0  0  0
 43 62  1  0  0  0  0
 44 61  1  0  0  0  0
 45 57  1  0  0  0  0
 46 58  1  0  0  0  0
 47 58  1  0  0  0  0
 48 58  1  0  0  0  0
 49 59  1  0  0  0  0
 50 59  1  0  0  0  0
 51 69  1  0  0  0  0
 52 53  1  0  0  0  0
 52 55  1  0  0  0  0
 53 59  1  0  0  0  0
 54 59  1  0  0  0  0
 54 68  1  0  0  0  0
 55 76  1  0  0  0  0
 56 58  1  0  0  0  0
 56 67  1  0  0  0  0
 57 69  1  0  0  0  0
 60 61  1  0  0  0  0
M  CHG  1  69   1
M  ISO  4  32 100  55 101  68 100  76 101
M  END
> <Batch ID>
0103

> <Smiles>
CNC(C)C(=O)NC(C(=O)N1Cc2cc([101O:1][101CH2:1]CCC(C)(C)C[100NH:0][100C:0](=O)N3CCCC(n4nc(-c5ccc(Oc6ccc(F)cc6F)cc5)c(C(N)=O)c4N)C3)ccc2CC1C(=O)NC1CCCc2ccccc21)C(C)(C)C

> <Shape>
0.248

> <Color>
0.058

> <Negative vol penalty>
0.000

$$$$

  -OEChem-04052319413D

 82 90  0     1  0  0  0  0  0999 V2000
  -17.4553  -29.4708   23.0343 C   0  0  0  0  0  0  0  0  0  0  0  0
  -18.6997  -29.5686   22.4200 C   0  0  0  0  0  0  0  0  0  0  0  0
  -26.6721  -12.6963   21.7637 C   0  0  0  0  0  0  0  0  0  0  0  0
  -26.2242  -14.0888   19.8409 C   0  0  0  0  0  0  0  0  0  0  0  0
  -17.2734  -28.5934   24.1025 C   0  0  0  0  0  0  0  0  0  0  0  0
  -19.7633  -28.7897   22.8744 C   0  0  0  0  0  0  0  0  0  0  0  0
  -24.2469  -26.3482   19.4917 C   0  0  0  0  0  0  0  0  0  0  0  0
  -25.3645  -12.2130   21.7184 C   0  0  0  0  0  0  0  0  0  0  0  0
  -24.9166  -13.6055   19.7955 C   0  0  0  0  0  0  0  0  0  0  0  0
  -25.5553  -26.7550   19.2342 C   0  0  0  0  0  0  0  0  0  0  0  0
  -23.6063   -9.9488   19.9253 C   0  0  0  0  0  0  0  0  0  0  0  0
  -23.4178   -8.5743   20.0691 C   0  0  0  0  0  0  0  0  0  0  0  0
  -26.3451  -25.3093   20.9964 C   0  0  0  0  0  0  0  0  0  0  0  0
  -30.9909  -22.7131   20.5279 C   0  0  0  0  0  0  0  0  0  0  0  0
  -22.0630   -8.9655   22.0309 C   0  0  0  0  0  0  0  0  0  0  0  0
  -30.1085  -22.8188   18.4591 C   0  0  0  0  0  0  0  0  0  0  0  0
  -27.1020  -13.6342   20.8250 C   0  0  0  0  0  0  0  0  0  0  0  0
  -29.5802  -13.5987   20.2210 C   0  0  0  0  0  0  0  0  0  0  0  0
  -18.3328  -27.7963   24.5639 C   0  0  0  0  0  0  0  0  0  0  0  0
  -23.9761  -25.4256   20.5124 C   0  0  0  0  0  0  0  0  0  0  0  0
  -19.5958  -27.9018   23.9506 C   0  0  0  0  0  0  0  0  0  0  0  0
  -25.0326  -24.8905   21.2632 C   0  0  0  0  0  0  0  0  0  0  0  0
  -30.7995  -23.5493   19.4004 C   0  0  0  0  0  0  0  0  0  0  0  0
  -24.4867  -12.6676   20.7343 C   0  0  0  0  0  0  0  0  0  0  0  0
  -26.6044  -26.2377   19.9885 C   0  0  0  0  0  0  0  0  0  0  0  0
  -23.0232  -10.8317   20.8342 C   0  0  0  0  0  0  0  0  0  0  0  0
  -22.6461   -8.0826   21.1219 C   0  0  0  0  0  0  0  0  0  0  0  0
  -22.2515  -10.3400   21.8870 C   0  0  0  0  0  0  0  0  0  0  0  0
  -28.4526  -14.1342   20.8717 C   0  0  0  0  0  0  0  0  0  0  0  0
  -30.4112  -21.4969   20.2412 C   0  0  0  0  0  0  0  0  0  0  0  0
  -30.6120  -14.4304   20.5819 C   0  0  0  0  0  0  0  0  0  0  0  0
  -29.6856  -12.4521   19.3666 C   0  0  0  0  0  0  0  0  0  0  0  0
  -22.3014  -25.4958   23.2132 C   0  0  0  0  0  0  0  0  0  0  0  0
  -23.0362  -22.3373   23.2939 C   0  0  0  0  0  0  0  0  0  0  0  0
  -25.1299  -19.8240   22.3211 C   0  0  0  0  0  0  0  0  0  0  0  0
  -30.8331  -20.1422   22.3228 C   0  0  0  0  0  0  0  0  0  0  0  0
  -18.1006  -26.8972   25.7523 C   0  0  0  0  0  0  0  0  0  0  0  0
  -22.5620  -24.9769   20.7599 C   0  0  0  0  0  0  0  0  0  0  0  0
  -24.7972  -23.8820   22.3568 C   0  0  0  0  0  0  0  0  0  0  0  0
  -19.1804  -25.8330   25.9311 C   0  0  0  0  0  0  0  0  0  0  0  0
  -32.0288  -17.3174   24.1304 C   0  0  0  0  0  0  0  0  0  0  0  0
  -20.5678  -26.4520   25.7943 C   0  0  0  0  0  0  0  0  0  0  0  0
  -31.3548  -16.1313   23.4368 C   0  0  0  0  0  0  0  0  0  0  0  0
  -31.1072  -18.5339   24.1971 C   0  0  0  0  0  0  0  0  0  0  0  0
  -29.8600  -17.7637   22.2170 C   0  0  0  0  0  0  0  0  0  0  0  0
  -20.7675  -27.0554   24.3988 C   0  0  1  0  0  0  0  0  0  0  0  0
  -22.3487  -24.4209   22.1644 C   0  0  1  0  0  0  0  0  0  0  0  0
  -30.7725  -16.5354   22.0681 C   0  0  2  0  0  0  0  0  0  0  0  0
  -33.5258  -24.2978   18.2519 C   0  0  0  0  0  0  0  0  0  0  0  0
  -25.4949  -17.3544   22.5764 C   0  0  0  0  0  0  0  0  0  0  0  0
  -24.1338  -22.7925   26.1042 C   0  0  0  0  0  0  0  0  0  0  0  0
  -25.3108  -20.5899   25.9259 C   0  0  0  0  0  0  0  0  0  0  0  0
  -22.8200  -20.6827   25.8265 C   0  0  0  0  0  0  0  0  0  0  0  0
  -29.1764  -20.5135   18.2888 C   0  0  0  0  0  0  0  0  0  0  0  0
  -24.8220  -19.3606   19.4143 C   0  0  0  0  0  0  0  0  0  0  0  0
  -32.2762  -25.1563   18.0942 C   0  0  0  0  0  0  0  0  0  0  0  0
  -30.0888  -25.9667   19.0694 C   0  0  0  0  0  0  0  0  0  0  0  0
  -28.9186  -25.6901   20.0093 C   0  0  0  0  0  0  0  0  0  1  0  0
  -31.2693  -24.9883   19.2549 C   0  0  1  0  0  0  0  0  0  0  0  0
  -24.1709  -21.5178   23.8593 C   0  0  1  0  0  0  0  0  0  0  0  0
  -24.8518  -18.4496   21.7398 C   0  0  2  0  0  0  0  0  0  0  0  0
  -24.1135  -21.4162   25.4097 C   0  0  0  0  0  0  0  0  0  0  0  0
  -28.7407  -15.2217   21.5915 N   0  0  0  0  0  0  0  0  0  0  0  0
  -29.8782  -21.5726   18.9809 N   0  0  0  0  0  0  0  0  0  0  0  0
  -30.0612  -15.3764   21.3954 N   0  0  0  0  0  0  0  0  0  0  0  0
  -23.3964  -23.4794   22.5648 N   0  0  0  0  0  0  0  0  0  0  0  0
  -30.5972  -18.8606   22.8637 N   0  0  0  0  0  0  0  0  0  0  0  0
  -31.9277  -14.4374   20.2796 N   0  0  0  0  0  0  0  0  0  0  0  0
  -28.5275  -11.7093   19.0994 N   0  0  0  0  0  0  0  0  0  0  0  0
  -30.3293  -20.3265   21.0356 N   0  0  0  0  0  0  0  0  0  0  0  0
  -21.0390  -26.0135   23.4318 N   0  0  0  0  0  0  0  0  0  0  0  0
  -24.1257  -20.2306   23.1741 N   0  0  0  0  0  0  0  0  0  0  0  0
  -25.3868  -18.3562   20.3520 N   0  3  0  0  0  0  0  0  0  0  0  0
  -30.7776  -12.0872   18.8686 O   0  0  0  0  0  0  0  0  0  0  0  0
  -23.3337  -25.8297   23.7830 O   0  0  0  0  0  0  0  0  0  0  0  0
  -21.8732  -21.9735   23.4859 O   0  0  0  0  0  0  0  0  0  0  0  0
  -26.1390  -20.4707   22.0489 O   0  0  0  0  0  0  0  0  0  0  0  0
  -31.4613  -21.0033   22.9441 O   0  0  0  0  0  0  0  0  0  0  0  0
  -23.2106  -12.1961   20.6896 O   0  0  0  0  0  0  0  0  0  0  0  0
  -27.8824  -26.6335   19.7397 O   0  0  0  0  0  0  0  0  0  1  0  0
  -22.4639   -6.7627   21.2590 F   0  0  0  0  0  0  0  0  0  0  0  0
  -21.6878  -11.1834   22.7627 F   0  0  0  0  0  0  0  0  0  0  0  0
  1  2  1  0  0  0  0
  1  5  2  0  0  0  0
  2  6  2  0  0  0  0
  3  8  2  0  0  0  0
  3 17  1  0  0  0  0
  4  9  1  0  0  0  0
  4 17  2  0  0  0  0
  5 19  1  0  0  0  0
  6 21  1  0  0  0  0
  7 10  2  0  0  0  0
  7 20  1  0  0  0  0
  8 24  1  0  0  0  0
  9 24  2  0  0  0  0
 10 25  1  0  0  0  0
 11 12  2  0  0  0  0
 11 26  1  0  0  0  0
 12 27  1  0  0  0  0
 13 22  1  0  0  0  0
 13 25  2  0  0  0  0
 14 23  1  0  0  0  0
 14 30  2  0  0  0  0
 15 27  2  0  0  0  0
 15 28  1  0  0  0  0
 16 23  2  0  0  0  0
 16 64  1  0  0  0  0
 17 29  1  0  0  0  0
 18 29  1  0  0  0  0
 18 31  2  0  0  0  0
 18 32  1  0  0  0  0
 19 21  2  0  0  0  0
 19 37  1  0  0  0  0
 20 22  2  0  0  0  0
 20 38  1  0  0  0  0
 21 46  1  0  0  0  0
 22 39  1  0  0  0  0
 23 59  1  0  0  0  0
 24 79  1  0  0  0  0
 25 80  1  0  0  0  0
 26 28  2  0  0  0  0
 26 79  1  0  0  0  0
 27 81  1  0  0  0  0
 28 82  1  0  0  0  0
 29 63  2  0  0  0  0
 30 64  1  0  0  0  0
 30 70  1  0  0  0  0
 31 65  1  0  0  0  0
 31 68  1  0  0  0  0
 32 69  1  0  0  0  0
 32 74  2  0  0  0  0
 33 47  1  0  0  0  0
 33 71  1  0  0  0  0
 33 75  2  0  0  0  0
 34 60  1  0  0  0  0
 34 66  1  0  0  0  0
 34 76  2  0  0  0  0
 35 61  1  0  0  0  0
 35 72  1  0  0  0  0
 35 77  2  0  0  0  0
 36 67  1  0  0  0  0
 36 70  1  0  0  0  0
 36 78  2  0  0  0  0
 37 40  1  0  0  0  0
 38 47  1  0  0  0  0
 39 66  1  0  0  0  0
 40 42  1  0  0  0  0
 41 43  1  0  0  0  0
 41 44  1  0  0  0  0
 42 46  1  0  0  0  0
 43 48  1  0  0  0  0
 44 67  1  0  0  0  0
 45 48  1  0  0  0  0
 45 67  1  0  0  0  0
 46 71  1  0  0  0  0
 47 66  1  0  0  0  0
 48 65  1  0  0  0  0
 49 56  1  0  0  0  0
 50 61  1  0  0  0  0
 51 62  1  0  0  0  0
 52 62  1  0  0  0  0
 53 62  1  0  0  0  0
 54 64  1  0  0  0  0
 55 73  1  0  0  0  0
 56 59  1  0  0  0  0
 57 58  1  0  0  0  0
 57 59  1  0  0  0  0
 58 80  1  0  0  0  0
 60 62  1  0  0  0  0
 60 72  1  0  0  0  0
 61 73  1  0  0  0  0
 63 65  1  0  0  0  0
M  CHG  1  73   1
M  ISO  4  36 100  58 101  70 100  80 101
M  END
> <Batch ID>
0103

> <Smiles>
CCC(C[101CH2:1][101O:1]c1ccc2c(c1)CN(C(=O)C(NC(=O)C(C)NC)C(C)(C)C)C(C(=O)NC1CCCc3ccccc31)C2)c1cc([100NH:0][100C:0](=O)N2CCCC(n3nc(-c4ccc(Oc5ccc(F)cc5F)cc4)c(C(N)=O)c3N)C2)n(C)c1

> <Shape>
0.234

> <Color>
0.066

> <Negative vol penalty>
0.000

$$$$

  -OEChem-04052319413D

 85 93  0     1  0  0  0  0  0999 V2000
  -18.9992  -22.3670   22.2798 C   0  0  0  0  0  0  0  0  0  0  0  0
  -20.3249  -21.9897   22.4685 C   0  0  0  0  0  0  0  0  0  0  0  0
  -27.2418  -12.8378   21.2648 C   0  0  0  0  0  0  0  0  0  0  0  0
  -26.9005  -13.6338   19.0094 C   0  0  0  0  0  0  0  0  0  0  0  0
  -18.7011  -23.5372   21.5831 C   0  0  0  0  0  0  0  0  0  0  0  0
  -21.3533  -22.7819   21.9595 C   0  0  0  0  0  0  0  0  0  0  0  0
  -28.0738  -24.8054   23.3934 C   0  0  0  0  0  0  0  0  0  0  0  0
  -26.4357  -11.7315   20.9963 C   0  0  0  0  0  0  0  0  0  0  0  0
  -26.0945  -12.5275   18.7409 C   0  0  0  0  0  0  0  0  0  0  0  0
  -29.3320  -24.8633   22.7956 C   0  0  0  0  0  0  0  0  0  0  0  0
  -24.1751   -8.8832   21.0134 C   0  0  0  0  0  0  0  0  0  0  0  0
  -23.2220   -8.5265   21.9673 C   0  0  0  0  0  0  0  0  0  0  0  0
  -28.6999  -26.9049   21.6769 C   0  0  0  0  0  0  0  0  0  0  0  0
  -28.6393  -22.4501   17.3570 C   0  0  0  0  0  0  0  0  0  0  0  0
  -22.1771  -10.6922   21.7332 C   0  0  0  0  0  0  0  0  0  0  0  0
  -28.2266  -24.1656   18.7557 C   0  0  0  0  0  0  0  0  0  0  0  0
  -27.4741  -13.7890   20.2713 C   0  0  0  0  0  0  0  0  0  0  0  0
  -29.6993  -15.0323   20.3725 C   0  0  0  0  0  0  0  0  0  0  0  0
  -19.7266  -24.3493   21.0736 C   0  0  0  0  0  0  0  0  0  0  0  0
  -27.1138  -25.7927   23.1285 C   0  0  0  0  0  0  0  0  0  0  0  0
  -21.0686  -23.9635   21.2541 C   0  0  0  0  0  0  0  0  0  0  0  0
  -27.4312  -26.8587   22.2746 C   0  0  0  0  0  0  0  0  0  0  0  0
  -27.7349  -22.9535   18.3243 C   0  0  0  0  0  0  0  0  0  0  0  0
  -25.8621  -11.5764   19.7344 C   0  0  0  0  0  0  0  0  0  0  0  0
  -29.6443  -25.9116   21.9350 C   0  0  0  0  0  0  0  0  0  0  0  0
  -24.1293  -10.1445   20.4194 C   0  0  0  0  0  0  0  0  0  0  0  0
  -22.2230   -9.4310   22.3272 C   0  0  0  0  0  0  0  0  0  0  0  0
  -23.1303  -11.0490   20.7793 C   0  0  0  0  0  0  0  0  0  0  0  0
  -28.3061  -14.9323   20.5482 C   0  0  0  0  0  0  0  0  0  0  0  0
  -29.6564  -23.3700   17.2269 C   0  0  0  0  0  0  0  0  0  0  0  0
  -30.0055  -16.3090   20.7759 C   0  0  0  0  0  0  0  0  0  0  0  0
  -30.6332  -14.0582   19.8879 C   0  0  0  0  0  0  0  0  0  0  0  0
  -24.2184  -25.8114   21.8172 C   0  0  0  0  0  0  0  0  0  0  0  0
  -24.2437  -28.9191   22.7468 C   0  0  0  0  0  0  0  0  0  0  0  0
  -26.0698  -31.6833   23.5660 C   0  0  0  0  0  0  0  0  0  0  0  0
  -26.8179  -21.3694   21.0625 C   0  0  0  0  0  0  0  0  0  0  0  0
  -19.3542  -25.5805   20.2862 C   0  0  0  0  0  0  0  0  0  0  0  0
  -25.7705  -25.7303   23.8022 C   0  0  0  0  0  0  0  0  0  0  0  0
  -26.4430  -27.9546   21.9733 C   0  0  0  0  0  0  0  0  0  0  0  0
  -20.5111  -26.5595   20.1031 C   0  0  0  0  0  0  0  0  0  0  0  0
  -28.5195  -19.7564   23.7420 C   0  0  0  0  0  0  0  0  0  0  0  0
  -21.7733  -25.8195   19.6716 C   0  0  0  0  0  0  0  0  0  0  0  0
  -28.7835  -18.3462   23.2115 C   0  0  0  0  0  0  0  0  0  0  0  0
  -27.1721  -20.2953   23.2664 C   0  0  0  0  0  0  0  0  0  0  0  0
  -27.2330  -18.8438   21.2757 C   0  0  0  0  0  0  0  0  0  0  0  0
  -22.2126  -24.8094   20.7385 C   0  0  1  0  0  0  0  0  0  0  0  0
  -24.6923  -26.5126   23.0587 C   0  0  1  0  0  0  0  0  0  0  0  0
  -28.6050  -18.2797   21.6827 C   0  0  2  0  0  0  0  0  0  0  0  0
  -29.7795  -24.5277   14.3554 C   0  0  0  0  0  0  0  0  0  0  0  0
  -31.7957  -22.1671   16.7100 C   0  0  0  0  0  0  0  0  0  0  0  0
  -25.8108  -34.0853   24.2447 C   0  0  0  0  0  0  0  0  0  0  0  0
  -32.4838  -24.2097   21.1029 C   0  0  0  0  0  0  0  0  0  0  0  0
  -23.5551  -29.6560   19.8671 C   0  0  0  0  0  0  0  0  0  0  0  0
  -24.2388  -32.0093   20.3793 C   0  0  0  0  0  0  0  0  0  0  0  0
  -22.3278  -30.9731   21.6029 C   0  0  0  0  0  0  0  0  0  0  0  0
  -27.4423  -31.2227   26.1473 C   0  0  0  0  0  0  0  0  0  0  0  0
  -26.4945  -22.3010   18.7851 C   0  0  0  0  0  0  0  0  0  0  0  0
  -30.5446  -23.2991   14.8322 C   0  0  0  0  0  0  0  0  0  0  0  0
  -31.5176  -25.3908   19.0964 C   0  0  0  0  0  0  0  0  0  0  0  0
  -30.2493  -25.6373   18.2667 C   0  0  0  0  0  0  0  0  0  0  0  0
  -30.8526  -23.3445   16.3599 C   0  0  1  0  0  0  0  0  0  0  0  0
  -24.6851  -30.2191   22.1191 C   0  0  1  0  0  0  0  0  0  0  0  0
  -25.9637  -32.6521   24.7298 C   0  0  2  0  0  0  0  0  0  0  0  0
  -31.2457  -24.8749   20.5150 C   0  0  2  0  0  0  0  0  0  1  0  0
  -23.7199  -30.6929   20.9961 C   0  0  0  0  0  0  0  0  0  0  0  0
  -27.7648  -16.0558   21.0262 N   0  0  0  0  0  0  0  0  0  0  0  0
  -29.3951  -24.4085   18.0821 N   0  0  0  0  0  0  0  0  0  0  0  0
  -28.8232  -16.8740   21.1543 N   0  0  0  0  0  0  0  0  0  0  0  0
  -25.1407  -27.8457   22.6513 N   0  0  0  0  0  0  0  0  0  0  0  0
  -27.0674  -20.2054   21.8081 N   0  0  0  0  0  0  0  0  0  0  0  0
  -31.1680  -16.9922   20.8404 N   0  0  0  0  0  0  0  0  0  0  0  0
  -30.1498  -12.7962   19.5164 N   0  0  0  0  0  0  0  0  0  0  0  0
  -22.8755  -25.4861   21.8326 N   0  0  0  0  0  0  0  0  0  0  0  0
  -24.8392  -31.1698   23.2150 N   0  0  0  0  0  0  0  0  0  0  0  0
  -26.7398  -21.1969   19.6860 N   0  0  0  0  0  0  0  0  0  0  0  0
  -27.1829  -32.5723   25.5831 N   0  3  0  0  0  0  0  0  0  0  0  0
  -31.8622  -14.2944   19.8028 O   0  0  0  0  0  0  0  0  0  0  0  0
  -25.0120  -25.5837   20.9116 O   0  0  0  0  0  0  0  0  0  0  0  0
  -23.1465  -28.8601   23.3075 O   0  0  0  0  0  0  0  0  0  0  0  0
  -27.1371  -31.4121   23.0202 O   0  0  0  0  0  0  0  0  0  0  0  0
  -26.6805  -22.4810   21.5845 O   0  0  0  0  0  0  0  0  0  0  0  0
  -25.0757  -10.4969   19.4719 O   0  0  0  0  0  0  0  0  0  0  0  0
  -30.8714  -25.9701   21.3496 O   0  0  0  0  0  0  0  0  0  1  0  0
  -21.3069   -9.0877   23.2421 F   0  0  0  0  0  0  0  0  0  0  0  0
  -23.0804  -12.2617   20.2113 F   0  0  0  0  0  0  0  0  0  0  0  0
  1  2  1  0  0  0  0
  1  5  2  0  0  0  0
  2  6  2  0  0  0  0
  3  8  2  0  0  0  0
  3 17  1  0  0  0  0
  4  9  1  0  0  0  0
  4 17  2  0  0  0  0
  5 19  1  0  0  0  0
  6 21  1  0  0  0  0
  7 10  2  0  0  0  0
  7 20  1  0  0  0  0
  8 24  1  0  0  0  0
  9 24  2  0  0  0  0
 10 25  1  0  0  0  0
 11 12  2  0  0  0  0
 11 26  1  0  0  0  0
 12 27  1  0  0  0  0
 13 22  1  0  0  0  0
 13 25  2  0  0  0  0
 14 23  1  0  0  0  0
 14 30  2  0  0  0  0
 15 27  2  0  0  0  0
 15 28  1  0  0  0  0
 16 23  2  0  0  0  0
 16 67  1  0  0  0  0
 17 29  1  0  0  0  0
 18 29  1  0  0  0  0
 18 31  2  0  0  0  0
 18 32  1  0  0  0  0
 19 21  2  0  0  0  0
 19 37  1  0  0  0  0
 20 22  2  0  0  0  0
 20 38  1  0  0  0  0
 21 46  1  0  0  0  0
 22 39  1  0  0  0  0
 23 57  1  0  0  0  0
 24 82  1  0  0  0  0
 25 83  1  0  0  0  0
 26 28  2  0  0  0  0
 26 82  1  0  0  0  0
 27 84  1  0  0  0  0
 28 85  1  0  0  0  0
 29 66  2  0  0  0  0
 30 61  1  0  0  0  0
 30 67  1  0  0  0  0
 31 68  1  0  0  0  0
 31 71  1  0  0  0  0
 32 72  1  0  0  0  0
 32 77  2  0  0  0  0
 33 47  1  0  0  0  0
 33 73  1  0  0  0  0
 33 78  2  0  0  0  0
 34 62  1  0  0  0  0
 34 69  1  0  0  0  0
 34 79  2  0  0  0  0
 35 63  1  0  0  0  0
 35 74  1  0  0  0  0
 35 80  2  0  0  0  0
 36 70  1  0  0  0  0
 36 75  1  0  0  0  0
 36 81  2  0  0  0  0
 37 40  1  0  0  0  0
 38 47  1  0  0  0  0
 39 69  1  0  0  0  0
 40 42  1  0  0  0  0
 41 43  1  0  0  0  0
 41 44  1  0  0  0  0
 42 46  1  0  0  0  0
 43 48  1  0  0  0  0
 44 70  1  0  0  0  0
 45 48  1  0  0  0  0
 45 70  1  0  0  0  0
 46 73  1  0  0  0  0
 47 69  1  0  0  0  0
 48 68  1  0  0  0  0
 49 58  1  0  0  0  0
 50 61  1  0  0  0  0
 51 63  1  0  0  0  0
 52 64  1  0  0  0  0
 53 65  1  0  0  0  0
 54 65  1  0  0  0  0
 55 65  1  0  0  0  0
 56 76  1  0  0  0  0
 57 75  1  0  0  0  0
 58 61  1  0  0  0  0
 59 60  1  0  0  0  0
 59 64  1  0  0  0  0
 60 67  1  0  0  0  0
 62 65  1  0  0  0  0
 62 74  1  0  0  0  0
 63 76  1  0  0  0  0
 64 83  1  0  0  0  0
 66 68  1  0  0  0  0
M  CHG  1  76   1
M  ISO  4  36 100  64 101  75 100  83 101
M  END
> <Batch ID>
0103

> <Smiles>
CCC(C)c1cc(C[100NH:0][100C:0](=O)N2CCCC(n3nc(-c4ccc(Oc5ccc(F)cc5F)cc4)c(C(N)=O)c3N)C2)cn1CC[101CH:1](C)[101O:1]c1ccc2c(c1)CN(C(=O)C(NC(=O)C(C)NC)C(C)(C)C)C(C(=O)NC1CCCc3ccccc31)C2

> <Shape>
0.259

> <Color>
0.051

> <Negative vol penalty>
0.000

$$$$

  -OEChem-04052319413D

 82 90  0     1  0  0  0  0  0999 V2000
  -34.4445  -27.9703    8.9830 C   0  0  0  0  0  0  0  0  0  0  0  0
  -34.5463  -27.4394   10.2649 C   0  0  0  0  0  0  0  0  0  0  0  0
  -23.0016   -9.8938   19.9802 C   0  0  0  0  0  0  0  0  0  0  0  0
  -23.7271   -9.9432   22.2842 C   0  0  0  0  0  0  0  0  0  0  0  0
  -33.1903  -28.1450    8.3997 C   0  0  0  0  0  0  0  0  0  0  0  0
  -33.3938  -27.0839   10.9646 C   0  0  0  0  0  0  0  0  0  0  0  0
  -32.7509  -22.4072   14.8660 C   0  0  0  0  0  0  0  0  0  0  0  0
  -22.2355   -8.7588   20.2458 C   0  0  0  0  0  0  0  0  0  0  0  0
  -22.9609   -8.8082   22.5498 C   0  0  0  0  0  0  0  0  0  0  0  0
  -32.7870  -22.3351   16.2579 C   0  0  0  0  0  0  0  0  0  0  0  0
  -23.2064   -5.4697   22.0751 C   0  0  0  0  0  0  0  0  0  0  0  0
  -23.7944   -4.4521   22.8263 C   0  0  0  0  0  0  0  0  0  0  0  0
  -30.3801  -22.4821   16.3219 C   0  0  0  0  0  0  0  0  0  0  0  0
  -31.8266  -17.4549   21.6830 C   0  0  0  0  0  0  0  0  0  0  0  0
  -22.0706   -4.6931   24.5020 C   0  0  0  0  0  0  0  0  0  0  0  0
  -30.6255  -18.8699   22.9577 C   0  0  0  0  0  0  0  0  0  0  0  0
  -23.7474  -10.4859   20.9994 C   0  0  0  0  0  0  0  0  0  0  0  0
  -24.1318  -13.0018   20.8254 C   0  0  0  0  0  0  0  0  0  0  0  0
  -32.0223  -27.7825    9.0888 C   0  0  0  0  0  0  0  0  0  0  0  0
  -31.5278  -22.5286   14.1911 C   0  0  0  0  0  0  0  0  0  0  0  0
  -32.1227  -27.2552   10.3905 C   0  0  0  0  0  0  0  0  0  0  0  0
  -30.3310  -22.5531   14.9213 C   0  0  0  0  0  0  0  0  0  0  0  0
  -31.8466  -18.7094   22.3409 C   0  0  0  0  0  0  0  0  0  0  0  0
  -22.2151   -8.2160   21.5305 C   0  0  0  0  0  0  0  0  0  0  0  0
  -31.6017  -22.3754   16.9862 C   0  0  0  0  0  0  0  0  0  0  0  0
  -22.0505   -6.0991   22.5374 C   0  0  0  0  0  0  0  0  0  0  0  0
  -23.2265   -4.0638   24.0397 C   0  0  0  0  0  0  0  0  0  0  0  0
  -21.4826   -5.7107   23.7508 C   0  0  0  0  0  0  0  0  0  0  0  0
  -24.5394  -11.6580   20.7256 C   0  0  0  0  0  0  0  0  0  0  0  0
  -30.5938  -16.8871   21.9175 C   0  0  0  0  0  0  0  0  0  0  0  0
  -25.2413  -13.7251   20.4614 C   0  0  0  0  0  0  0  0  0  0  0  0
  -22.8637  -13.5475   21.2125 C   0  0  0  0  0  0  0  0  0  0  0  0
  -30.2248  -24.7130   12.2847 C   0  0  0  0  0  0  0  0  0  0  0  0
  -27.8836  -22.4881   11.9829 C   0  0  0  0  0  0  0  0  0  0  0  0
  -26.2691  -19.7845   13.2985 C   0  0  0  0  0  0  0  0  0  0  0  0
  -30.7205  -14.6878   20.6954 C   0  0  0  0  0  0  0  0  0  0  0  0
  -30.6864  -28.0340    8.4356 C   0  0  0  0  0  0  0  0  0  0  0  0
  -31.5041  -22.5783   12.6880 C   0  0  0  0  0  0  0  0  0  0  0  0
  -28.9905  -22.6620   14.2434 C   0  0  0  0  0  0  0  0  0  0  0  0
  -29.5337  -27.2833    9.0976 C   0  0  0  0  0  0  0  0  0  0  0  0
  -29.6026  -12.2365   18.3675 C   0  0  0  0  0  0  0  0  0  0  0  0
  -29.6000  -27.4334   10.6142 C   0  0  0  0  0  0  0  0  0  0  0  0
  -28.1522  -11.9781   18.7817 C   0  0  0  0  0  0  0  0  0  0  0  0
  -30.5033  -12.4792   19.5774 C   0  0  0  0  0  0  0  0  0  0  0  0
  -28.5879  -13.2663   20.9119 C   0  0  0  0  0  0  0  0  0  0  0  0
  -30.8968  -26.8344   11.1717 C   0  0  1  0  0  0  0  0  0  0  0  0
  -30.2361  -23.2183   12.1312 C   0  0  1  0  0  0  0  0  0  0  0  0
  -27.6301  -13.0806   19.7237 C   0  0  2  0  0  0  0  0  0  0  0  0
  -34.2180  -19.0815   23.0657 C   0  0  0  0  0  0  0  0  0  0  0  0
  -24.3706  -18.2086   12.8402 C   0  0  0  0  0  0  0  0  0  0  0  0
  -25.8932  -24.6546   12.7919 C   0  0  0  0  0  0  0  0  0  0  0  0
  -24.2162  -22.8498   13.2376 C   0  0  0  0  0  0  0  0  0  0  0  0
  -25.1202  -23.1688   10.9346 C   0  0  0  0  0  0  0  0  0  0  0  0
  -28.5219  -17.5502   23.1710 C   0  0  0  0  0  0  0  0  0  0  0  0
  -28.0752  -17.4407   13.2429 C   0  0  0  0  0  0  0  0  0  0  0  0
  -32.2698  -20.9990   20.2765 C   0  0  0  0  0  0  0  0  0  0  0  0
  -33.3931  -20.2052   20.9593 C   0  0  0  0  0  0  0  0  0  0  0  0
  -32.7065  -21.5700   18.9321 C   0  0  0  0  0  0  0  0  0  1  0  0
  -33.0010  -19.6963   22.3634 C   0  0  1  0  0  0  0  0  0  0  0  0
  -26.6055  -22.1739   12.7224 C   0  0  1  0  0  0  0  0  0  0  0  0
  -25.8629  -18.4568   12.6846 C   0  0  2  0  0  0  0  0  0  0  0  0
  -25.4840  -23.2117   12.4348 C   0  0  0  0  0  0  0  0  0  0  0  0
  -25.8087  -11.5323   20.3292 N   0  0  0  0  0  0  0  0  0  0  0  0
  -29.8719  -17.7562   22.6932 N   0  0  0  0  0  0  0  0  0  0  0  0
  -26.2082  -12.8063   20.1765 N   0  0  0  0  0  0  0  0  0  0  0  0
  -29.0200  -22.7140   12.7724 N   0  0  0  0  0  0  0  0  0  0  0  0
  -29.9480  -13.5392   20.4217 N   0  0  0  0  0  0  0  0  0  0  0  0
  -25.4743  -15.0509   20.3604 N   0  0  0  0  0  0  0  0  0  0  0  0
  -21.8323  -12.6627   21.5555 N   0  0  0  0  0  0  0  0  0  0  0  0
  -30.0760  -15.6421   21.4819 N   0  0  0  0  0  0  0  0  0  0  0  0
  -30.8032  -25.3913   11.2289 N   0  0  0  0  0  0  0  0  0  0  0  0
  -26.2557  -20.8025   12.3685 N   0  0  0  0  0  0  0  0  0  0  0  0
  -26.5964  -17.3372   13.3399 N   0  3  0  0  0  0  0  0  0  0  0  0
  -22.6466  -14.7827   21.2373 O   0  0  0  0  0  0  0  0  0  0  0  0
  -29.7267  -25.2137   13.2861 O   0  0  0  0  0  0  0  0  0  0  0  0
  -27.8755  -22.5244   10.7499 O   0  0  0  0  0  0  0  0  0  0  0  0
  -26.5647  -19.9070   14.4851 O   0  0  0  0  0  0  0  0  0  0  0  0
  -31.8590  -14.8275   20.2413 O   0  0  0  0  0  0  0  0  0  0  0  0
  -21.4675   -7.1087   21.7900 O   0  0  0  0  0  0  0  0  0  0  0  0
  -31.6341  -22.3059   18.3449 O   0  0  0  0  0  0  0  0  0  1  0  0
  -23.7904   -3.0855   24.7603 F   0  0  0  0  0  0  0  0  0  0  0  0
  -20.3716   -6.3109   24.1995 F   0  0  0  0  0  0  0  0  0  0  0  0
  1  2  1  0  0  0  0
  1  5  2  0  0  0  0
  2  6  2  0  0  0  0
  3  8  2  0  0  0  0
  3 17  1  0  0  0  0
  4  9  1  0  0  0  0
  4 17  2  0  0  0  0
  5 19  1  0  0  0  0
  6 21  1  0  0  0  0
  7 10  2  0  0  0  0
  7 20  1  0  0  0  0
  8 24  1  0  0  0  0
  9 24  2  0  0  0  0
 10 25  1  0  0  0  0
 11 12  2  0  0  0  0
 11 26  1  0  0  0  0
 12 27  1  0  0  0  0
 13 22  1  0  0  0  0
 13 25  2  0  0  0  0
 14 23  1  0  0  0  0
 14 30  2  0  0  0  0
 15 27  2  0  0  0  0
 15 28  1  0  0  0  0
 16 23  2  0  0  0  0
 16 64  1  0  0  0  0
 17 29  1  0  0  0  0
 18 29  1  0  0  0  0
 18 31  2  0  0  0  0
 18 32  1  0  0  0  0
 19 21  2  0  0  0  0
 19 37  1  0  0  0  0
 20 22  2  0  0  0  0
 20 38  1  0  0  0  0
 21 46  1  0  0  0  0
 22 39  1  0  0  0  0
 23 59  1  0  0  0  0
 24 79  1  0  0  0  0
 25 80  1  0  0  0  0
 26 28  2  0  0  0  0
 26 79  1  0  0  0  0
 27 81  1  0  0  0  0
 28 82  1  0  0  0  0
 29 63  2  0  0  0  0
 30 64  1  0  0  0  0
 30 70  1  0  0  0  0
 31 65  1  0  0  0  0
 31 68  1  0  0  0  0
 32 69  1  0  0  0  0
 32 74  2  0  0  0  0
 33 47  1  0  0  0  0
 33 71  1  0  0  0  0
 33 75  2  0  0  0  0
 34 60  1  0  0  0  0
 34 66  1  0  0  0  0
 34 76  2  0  0  0  0
 35 61  1  0  0  0  0
 35 72  1  0  0  0  0
 35 77  2  0  0  0  0
 36 67  1  0  0  0  0
 36 70  1  0  0  0  0
 36 78  2  0  0  0  0
 37 40  1  0  0  0  0
 38 47  1  0  0  0  0
 39 66  1  0  0  0  0
 40 42  1  0  0  0  0
 41 43  1  0  0  0  0
 41 44  1  0  0  0  0
 42 46  1  0  0  0  0
 43 48  1  0  0  0  0
 44 67  1  0  0  0  0
 45 48  1  0  0  0  0
 45 67  1  0  0  0  0
 46 71  1  0  0  0  0
 47 66  1  0  0  0  0
 48 65  1  0  0  0  0
 49 59  1  0  0  0  0
 50 61  1  0  0  0  0
 51 62  1  0  0  0  0
 52 62  1  0  0  0  0
 53 62  1  0  0  0  0
 54 64  1  0  0  0  0
 55 73  1  0  0  0  0
 56 57  1  0  0  0  0
 56 58  1  0  0  0  0
 57 59  1  0  0  0  0
 58 80  1  0  0  0  0
 60 62  1  0  0  0  0
 60 72  1  0  0  0  0
 61 73  1  0  0  0  0
 63 65  1  0  0  0  0
M  CHG  1  73   1
M  ISO  4  36 100  58 101  70 100  80 101
M  END
> <Batch ID>
0103

> <Smiles>
CNC(C)C(=O)NC(C(=O)N1Cc2cc([101O:1][101CH2:1]CCC(C)c3cc([100NH:0][100C:0](=O)N4CCCC(n5nc(-c6ccc(Oc7ccc(F)cc7F)cc6)c(C(N)=O)c5N)C4)n(C)c3)ccc2CC1C(=O)NC1CCCc2ccccc21)C(C)(C)C

> <Shape>
0.185

> <Color>
0.202

> <Negative vol penalty>
0.000

$$$$

  -OEChem-04052319413D

 86 94  0     1  0  0  0  0  0999 V2000
  -29.9847  -24.8864   17.7586 C   0  0  0  0  0  0  0  0  0  0  0  0
  -28.5987  -24.9716   17.8423 C   0  0  0  0  0  0  0  0  0  0  0  0
  -26.3228  -14.1274   19.1063 C   0  0  0  0  0  0  0  0  0  0  0  0
  -24.5692  -14.4519   20.7363 C   0  0  0  0  0  0  0  0  0  0  0  0
  -30.7760  -25.3756   18.7971 C   0  0  0  0  0  0  0  0  0  0  0  0
  -28.0030  -25.5451   18.9651 C   0  0  0  0  0  0  0  0  0  0  0  0
  -22.8642  -28.8733   19.1108 C   0  0  0  0  0  0  0  0  0  0  0  0
  -26.4182  -12.7858   19.4761 C   0  0  0  0  0  0  0  0  0  0  0  0
  -24.6646  -13.1104   21.1060 C   0  0  0  0  0  0  0  0  0  0  0  0
  -21.5460  -28.5501   19.4298 C   0  0  0  0  0  0  0  0  0  0  0  0
  -23.6238  -10.1216   19.9208 C   0  0  0  0  0  0  0  0  0  0  0  0
  -22.4355   -9.4085   20.0788 C   0  0  0  0  0  0  0  0  0  0  0  0
  -21.9042  -29.3378   21.6816 C   0  0  0  0  0  0  0  0  0  0  0  0
  -21.0791  -25.4117   22.2138 C   0  0  0  0  0  0  0  0  0  0  0  0
  -23.0052   -8.9705   22.3855 C   0  0  0  0  0  0  0  0  0  0  0  0
  -20.1722  -22.8384   22.1797 C   0  0  0  0  0  0  0  0  0  0  0  0
  -25.3983  -14.9605   19.7364 C   0  0  0  0  0  0  0  0  0  0  0  0
  -24.9837  -16.8577   18.0823 C   0  0  0  0  0  0  0  0  0  0  0  0
  -30.1900  -25.9642   19.9289 C   0  0  0  0  0  0  0  0  0  0  0  0
  -23.7169  -29.4221   20.0794 C   0  0  0  0  0  0  0  0  0  0  0  0
  -28.7872  -26.0415   20.0203 C   0  0  0  0  0  0  0  0  0  0  0  0
  -23.2320  -29.6695   21.3716 C   0  0  0  0  0  0  0  0  0  0  0  0
  -21.9861  -24.3710   22.0475 C   0  0  0  0  0  0  0  0  0  0  0  0
  -21.5321  -23.0569   22.0290 C   0  0  0  0  0  0  0  0  0  0  0  0
  -25.5891  -12.2773   20.4759 C   0  0  0  0  0  0  0  0  0  0  0  0
  -21.0667  -28.7796   20.7162 C   0  0  0  0  0  0  0  0  0  0  0  0
  -24.5028  -10.2592   20.9951 C   0  0  0  0  0  0  0  0  0  0  0  0
  -22.1262   -8.8329   21.3112 C   0  0  0  0  0  0  0  0  0  0  0  0
  -24.1935   -9.6837   22.2275 C   0  0  0  0  0  0  0  0  0  0  0  0
  -25.2997  -16.3465   19.3553 C   0  0  0  0  0  0  0  0  0  0  0  0
  -19.7394  -25.0878   22.3560 C   0  0  0  0  0  0  0  0  0  0  0  0
  -25.0184  -18.2214   18.2416 C   0  0  0  0  0  0  0  0  0  0  0  0
  -24.6854  -16.1619   16.8646 C   0  0  0  0  0  0  0  0  0  0  0  0
  -26.4389  -28.5126   21.4459 C   0  0  0  0  0  0  0  0  0  0  0  0
  -26.3000  -31.4642   22.7840 C   0  0  0  0  0  0  0  0  0  0  0  0
  -24.3877  -34.1226   23.7449 C   0  0  0  0  0  0  0  0  0  0  0  0
  -24.4138  -21.4686   23.4019 C   0  0  0  0  0  0  0  0  0  0  0  0
  -31.0851  -26.4361   21.0473 C   0  0  0  0  0  0  0  0  0  0  0  0
  -25.1283  -29.7900   19.7120 C   0  0  0  0  0  0  0  0  0  0  0  0
  -24.1010  -30.2755   22.4422 C   0  0  0  0  0  0  0  0  0  0  0  0
  -30.3868  -27.3682   22.0341 C   0  0  0  0  0  0  0  0  0  0  0  0
  -27.0901  -21.6470   20.8510 C   0  0  0  0  0  0  0  0  0  0  0  0
  -29.0261  -26.8039   22.4301 C   0  0  0  0  0  0  0  0  0  0  0  0
  -26.9439  -20.3129   20.1210 C   0  0  0  0  0  0  0  0  0  0  0  0
  -26.6204  -21.5553   22.2996 C   0  0  0  0  0  0  0  0  0  0  0  0
  -25.0873  -19.7033   21.7216 C   0  0  0  0  0  0  0  0  0  0  0  0
  -28.1045  -26.6792   21.2108 C   0  0  1  0  0  0  0  0  0  0  0  0
  -26.0589  -29.8672   20.9183 C   0  0  1  0  0  0  0  0  0  0  0  0
  -25.5084  -19.7734   20.2461 C   0  0  2  0  0  0  0  0  0  0  0  0
  -24.0224  -25.3872   23.1311 C   0  0  0  0  0  0  0  0  0  0  0  0
  -23.7232  -25.5253   20.6318 C   0  0  0  0  0  0  0  0  0  0  0  0
  -21.8046  -20.7109   21.1438 C   0  0  0  0  0  0  0  0  0  0  0  0
  -23.8574  -36.4161   24.6144 C   0  0  0  0  0  0  0  0  0  0  0  0
  -26.6085  -30.1101   25.5008 C   0  0  0  0  0  0  0  0  0  0  0  0
  -25.8231  -32.2332   26.5703 C   0  0  0  0  0  0  0  0  0  0  0  0
  -27.9270  -32.2178   25.2301 C   0  0  0  0  0  0  0  0  0  0  0  0
  -22.0933  -21.3064   24.2195 C   0  0  0  0  0  0  0  0  0  0  0  0
  -24.5932  -35.3197   21.0461 C   0  0  0  0  0  0  0  0  0  0  0  0
  -18.7273  -26.1904   22.5387 C   0  0  0  0  0  0  0  0  0  0  0  0
  -18.1472  -26.7179   21.2247 C   0  0  0  0  0  0  0  0  0  0  0  0
  -19.1883  -27.3743   20.3254 C   0  0  0  0  0  0  0  0  0  1  0  0
  -23.4367  -24.6867   21.8912 C   0  0  0  0  0  0  0  0  0  0  0  0
  -22.4599  -21.9050   21.8546 C   0  0  2  0  0  0  0  0  0  0  0  0
  -25.7010  -32.0394   24.0448 C   0  0  1  0  0  0  0  0  0  0  0  0
  -24.5553  -35.6154   23.5260 C   0  0  2  0  0  0  0  0  0  0  0  0
  -26.4988  -31.6369   25.3171 C   0  0  0  0  0  0  0  0  0  0  0  0
  -19.2609  -23.8235   22.3433 N   0  0  0  0  0  0  0  0  0  0  0  0
  -25.5191  -17.3073   20.2568 N   0  0  0  0  0  0  0  0  0  0  0  0
  -25.3408  -18.4359   19.5493 N   0  0  0  0  0  0  0  0  0  0  0  0
  -25.4754  -30.6123   22.0357 N   0  0  0  0  0  0  0  0  0  0  0  0
  -25.2700  -20.9993   22.3922 N   0  0  0  0  0  0  0  0  0  0  0  0
  -24.8043  -19.2461   17.3892 N   0  0  0  0  0  0  0  0  0  0  0  0
  -23.3502  -15.8338   16.5925 N   0  0  0  0  0  0  0  0  0  0  0  0
  -27.5636  -27.9726   20.8518 N   0  0  0  0  0  0  0  0  0  0  0  0
  -25.6043  -33.4792   23.8307 N   0  0  0  0  0  0  0  0  0  0  0  0
  -23.0385  -21.4709   23.1243 N   0  0  0  0  0  0  0  0  0  0  0  0
  -23.9822  -36.0134   22.2091 N   0  3  0  0  0  0  0  0  0  0  0  0
  -25.5783  -15.8263   16.0501 O   0  0  0  0  0  0  0  0  0  0  0  0
  -25.7626  -27.9961   22.3277 O   0  0  0  0  0  0  0  0  0  0  0  0
  -27.4544  -31.7656   22.4709 O   0  0  0  0  0  0  0  0  0  0  0  0
  -23.2877  -33.5819   23.8347 O   0  0  0  0  0  0  0  0  0  0  0  0
  -24.8544  -21.8718   24.4860 O   0  0  0  0  0  0  0  0  0  0  0  0
  -25.6818  -10.9682   20.8368 O   0  0  0  0  0  0  0  0  0  0  0  0
  -19.7807  -28.4644   21.0304 O   0  0  0  0  0  0  0  0  0  1  0  0
  -20.9843   -8.1494   21.4633 F   0  0  0  0  0  0  0  0  0  0  0  0
  -25.0335   -9.8135   23.2635 F   0  0  0  0  0  0  0  0  0  0  0  0
  1  2  1  0  0  0  0
  1  5  2  0  0  0  0
  2  6  2  0  0  0  0
  3  8  2  0  0  0  0
  3 17  1  0  0  0  0
  4  9  1  0  0  0  0
  4 17  2  0  0  0  0
  5 19  1  0  0  0  0
  6 21  1  0  0  0  0
  7 10  2  0  0  0  0
  7 20  1  0  0  0  0
  8 25  1  0  0  0  0
  9 25  2  0  0  0  0
 10 26  1  0  0  0  0
 11 12  2  0  0  0  0
 11 27  1  0  0  0  0
 12 28  1  0  0  0  0
 13 22  1  0  0  0  0
 13 26  2  0  0  0  0
 14 23  2  0  0  0  0
 14 31  1  0  0  0  0
 15 28  2  0  0  0  0
 15 29  1  0  0  0  0
 16 24  2  0  0  0  0
 16 67  1  0  0  0  0
 17 30  1  0  0  0  0
 18 30  1  0  0  0  0
 18 32  2  0  0  0  0
 18 33  1  0  0  0  0
 19 21  2  0  0  0  0
 19 38  1  0  0  0  0
 20 22  2  0  0  0  0
 20 39  1  0  0  0  0
 21 47  1  0  0  0  0
 22 40  1  0  0  0  0
 23 24  1  0  0  0  0
 23 62  1  0  0  0  0
 24 63  1  0  0  0  0
 25 83  1  0  0  0  0
 26 84  1  0  0  0  0
 27 29  2  0  0  0  0
 27 83  1  0  0  0  0
 28 85  1  0  0  0  0
 29 86  1  0  0  0  0
 30 68  2  0  0  0  0
 31 59  1  0  0  0  0
 31 67  2  0  0  0  0
 32 69  1  0  0  0  0
 32 72  1  0  0  0  0
 33 73  1  0  0  0  0
 33 78  2  0  0  0  0
 34 48  1  0  0  0  0
 34 74  1  0  0  0  0
 34 79  2  0  0  0  0
 35 64  1  0  0  0  0
 35 70  1  0  0  0  0
 35 80  2  0  0  0  0
 36 65  1  0  0  0  0
 36 75  1  0  0  0  0
 36 81  2  0  0  0  0
 37 71  1  0  0  0  0
 37 76  1  0  0  0  0
 37 82  2  0  0  0  0
 38 41  1  0  0  0  0
 39 48  1  0  0  0  0
 40 70  1  0  0  0  0
 41 43  1  0  0  0  0
 42 44  1  0  0  0  0
 42 45  1  0  0  0  0
 43 47  1  0  0  0  0
 44 49  1  0  0  0  0
 45 71  1  0  0  0  0
 46 49  1  0  0  0  0
 46 71  1  0  0  0  0
 47 74  1  0  0  0  0
 48 70  1  0  0  0  0
 49 69  1  0  0  0  0
 50 62  1  0  0  0  0
 51 62  1  0  0  0  0
 52 63  1  0  0  0  0
 53 65  1  0  0  0  0
 54 66  1  0  0  0  0
 55 66  1  0  0  0  0
 56 66  1  0  0  0  0
 57 76  1  0  0  0  0
 58 77  1  0  0  0  0
 59 60  1  0  0  0  0
 60 61  1  0  0  0  0
 61 84  1  0  0  0  0
 63 76  1  0  0  0  0
 64 66  1  0  0  0  0
 64 75  1  0  0  0  0
 65 77  1  0  0  0  0
 68 69  1  0  0  0  0
M  CHG  1  77   1
M  ISO  4  37 100  61 101  76 100  84 101
M  END
> <Batch ID>
0103

> <Smiles>
CNC(C)C(=O)NC(C(=O)N1Cc2cc([101O:1][101CH2:1]CCc3cc(C(C)C)c(C(C)[100N:0](C)[100C:0](=O)N4CCCC(n5nc(-c6ccc(Oc7ccc(F)cc7F)cc6)c(C(N)=O)c5N)C4)cn3)ccc2CC1C(=O)NC1CCCc2ccccc21)C(C)(C)C

> <Shape>
0.292

> <Color>
0.087

> <Negative vol penalty>
0.000

$$$$

  -OEChem-04052319413D

 85 93  0     1  0  0  0  0  0999 V2000
  -19.0683  -22.7020   23.6489 C   0  0  0  0  0  0  0  0  0  0  0  0
  -20.3823  -22.2578   23.5410 C   0  0  0  0  0  0  0  0  0  0  0  0
  -26.1125  -12.7212   21.6035 C   0  0  0  0  0  0  0  0  0  0  0  0
  -25.1852  -13.3860   19.4739 C   0  0  0  0  0  0  0  0  0  0  0  0
  -18.6613  -23.8449   22.9619 C   0  0  0  0  0  0  0  0  0  0  0  0
  -21.2898  -22.9558   22.7450 C   0  0  0  0  0  0  0  0  0  0  0  0
  -28.2393  -24.6546   22.3780 C   0  0  0  0  0  0  0  0  0  0  0  0
  -25.1713  -11.6957   21.6932 C   0  0  0  0  0  0  0  0  0  0  0  0
  -24.2440  -12.3605   19.5636 C   0  0  0  0  0  0  0  0  0  0  0  0
  -29.3158  -24.6018   21.4935 C   0  0  0  0  0  0  0  0  0  0  0  0
  -24.7318   -8.5987   20.4095 C   0  0  0  0  0  0  0  0  0  0  0  0
  -25.1805   -7.3403   20.8104 C   0  0  0  0  0  0  0  0  0  0  0  0
  -28.5208  -26.6081   20.4155 C   0  0  0  0  0  0  0  0  0  0  0  0
  -23.6926   -7.4157   22.7124 C   0  0  0  0  0  0  0  0  0  0  0  0
  -27.2341  -23.7419   17.9000 C   0  0  0  0  0  0  0  0  0  0  0  0
  -26.1195  -13.5664   20.4938 C   0  0  0  0  0  0  0  0  0  0  0  0
  -28.3721  -14.5567   19.8211 C   0  0  0  0  0  0  0  0  0  0  0  0
  -19.5668  -24.5627   22.1647 C   0  0  0  0  0  0  0  0  0  0  0  0
  -27.2879  -25.6802   22.2807 C   0  0  0  0  0  0  0  0  0  0  0  0
  -20.8942  -24.1086   22.0455 C   0  0  0  0  0  0  0  0  0  0  0  0
  -27.4346  -26.6731   21.3016 C   0  0  0  0  0  0  0  0  0  0  0  0
  -26.5950  -22.5393   17.6935 C   0  0  0  0  0  0  0  0  0  0  0  0
  -27.2092  -21.9200   16.5771 C   0  0  0  0  0  0  0  0  0  0  0  0
  -24.2371  -11.5153   20.6733 C   0  0  0  0  0  0  0  0  0  0  0  0
  -29.4550  -25.5770   20.5103 C   0  0  0  0  0  0  0  0  0  0  0  0
  -23.7636   -9.2657   21.1602 C   0  0  0  0  0  0  0  0  0  0  0  0
  -24.6609   -6.7487   21.9618 C   0  0  0  0  0  0  0  0  0  0  0  0
  -23.2440   -8.6741   22.3116 C   0  0  0  0  0  0  0  0  0  0  0  0
  -27.0911  -14.6263   20.4008 C   0  0  0  0  0  0  0  0  0  0  0  0
  -28.8928  -15.8168   19.9867 C   0  0  0  0  0  0  0  0  0  0  0  0
  -28.2052  -22.7629   16.1355 C   0  0  0  0  0  0  0  0  0  0  0  0
  -29.0322  -13.4519   19.1892 C   0  0  0  0  0  0  0  0  0  0  0  0
  -24.1642  -25.7948   21.7036 C   0  0  0  0  0  0  0  0  0  0  0  0
  -24.5508  -28.9447   22.3749 C   0  0  0  0  0  0  0  0  0  0  0  0
  -26.6406  -31.6382   22.5324 C   0  0  0  0  0  0  0  0  0  0  0  0
  -26.3814  -21.2098   20.6649 C   0  0  0  0  0  0  0  0  0  0  0  0
  -19.0685  -25.7655   21.4034 C   0  0  0  0  0  0  0  0  0  0  0  0
  -26.1472  -25.7381   23.2594 C   0  0  0  0  0  0  0  0  0  0  0  0
  -26.4517  -27.8065   21.1681 C   0  0  0  0  0  0  0  0  0  0  0  0
  -20.1879  -26.6610   20.8787 C   0  0  0  0  0  0  0  0  0  0  0  0
  -28.6583  -19.6136   22.8885 C   0  0  0  0  0  0  0  0  0  0  0  0
  -21.2737  -25.8227   20.2115 C   0  0  0  0  0  0  0  0  0  0  0  0
  -28.6304  -18.1482   22.4508 C   0  0  0  0  0  0  0  0  0  0  0  0
  -27.2819  -20.2643   22.7700 C   0  0  0  0  0  0  0  0  0  0  0  0
  -26.6229  -18.6755   21.0050 C   0  0  0  0  0  0  0  0  0  0  0  0
  -21.9145  -24.8528   21.2116 C   0  0  1  0  0  0  0  0  0  0  0  0
  -24.9559  -26.5383   22.7419 C   0  0  1  0  0  0  0  0  0  0  0  0
  -28.0002  -17.9921   21.0538 C   0  0  2  0  0  0  0  0  0  0  0  0
  -27.9976  -19.5805   16.0686 C   0  0  0  0  0  0  0  0  0  0  0  0
  -26.3536  -20.7183   14.5331 C   0  0  0  0  0  0  0  0  0  0  0  0
  -26.6597  -34.0872   23.0796 C   0  0  0  0  0  0  0  0  0  0  0  0
  -31.9298  -23.6622   19.1462 C   0  0  0  0  0  0  0  0  0  0  0  0
  -23.2159  -29.5505   19.6989 C   0  0  0  0  0  0  0  0  0  0  0  0
  -24.1060  -31.8849   19.8625 C   0  0  0  0  0  0  0  0  0  0  0  0
  -22.5062  -31.0388   21.5793 C   0  0  0  0  0  0  0  0  0  0  0  0
  -28.5777  -31.2493   24.7359 C   0  0  0  0  0  0  0  0  0  0  0  0
  -25.4762  -22.0053   18.4953 C   0  0  0  0  0  0  0  0  0  0  0  0
  -30.5576  -24.7787   17.3504 C   0  0  0  0  0  0  0  0  0  0  0  0
  -29.1377  -25.0513   16.8333 C   0  0  0  0  0  0  0  0  0  0  0  0
  -26.8481  -20.6111   15.9936 C   0  0  0  0  0  0  0  0  0  0  0  0
  -24.8830  -30.1768   21.5683 C   0  0  1  0  0  0  0  0  0  0  0  0
  -26.8630  -32.6786   23.6153 C   0  0  2  0  0  0  0  0  0  0  0  0
  -30.6163  -24.3644   18.8259 C   0  0  2  0  0  0  0  0  0  1  0  0
  -23.6954  -30.6404   20.6783 C   0  0  0  0  0  0  0  0  0  0  0  0
  -26.8150  -15.8349   20.8978 N   0  0  0  0  0  0  0  0  0  0  0  0
  -28.2113  -23.8671   16.9473 N   0  0  0  0  0  0  0  0  0  0  0  0
  -27.9298  -16.5364   20.6308 N   0  0  0  0  0  0  0  0  0  0  0  0
  -25.3498  -27.8159   22.1445 N   0  0  0  0  0  0  0  0  0  0  0  0
  -26.7406  -20.0819   21.4210 N   0  0  0  0  0  0  0  0  0  0  0  0
  -30.0760  -16.3684   19.6429 N   0  0  0  0  0  0  0  0  0  0  0  0
  -29.0815  -22.6487   15.1127 N   0  0  0  0  0  0  0  0  0  0  0  0
  -28.3538  -12.2285   19.1036 N   0  0  0  0  0  0  0  0  0  0  0  0
  -22.8524  -25.5519   22.0636 N   0  0  0  0  0  0  0  0  0  0  0  0
  -25.3403  -31.1795   22.5243 N   0  0  0  0  0  0  0  0  0  0  0  0
  -25.8828  -20.9484   19.3945 N   0  0  0  0  0  0  0  0  0  0  0  0
  -28.2483  -32.5764   24.1551 N   0  3  0  0  0  0  0  0  0  0  0  0
  -30.1957  -13.5422   18.7293 O   0  0  0  0  0  0  0  0  0  0  0  0
  -24.7032  -25.4671   20.6529 O   0  0  0  0  0  0  0  0  0  0  0  0
  -23.6213  -28.9846   23.1849 O   0  0  0  0  0  0  0  0  0  0  0  0
  -27.5303  -31.2720   21.7677 O   0  0  0  0  0  0  0  0  0  0  0  0
  -26.5015  -22.3645   21.0883 O   0  0  0  0  0  0  0  0  0  0  0  0
  -23.3186  -10.5146   20.7604 O   0  0  0  0  0  0  0  0  0  0  0  0
  -30.5044  -25.5274   19.6453 O   0  0  0  0  0  0  0  0  0  1  0  0
  -25.0907   -5.5396   22.3458 F   0  0  0  0  0  0  0  0  0  0  0  0
  -22.3128   -9.3095   23.0361 F   0  0  0  0  0  0  0  0  0  0  0  0
  1  2  1  0  0  0  0
  1  5  2  0  0  0  0
  2  6  2  0  0  0  0
  3  8  2  0  0  0  0
  3 16  1  0  0  0  0
  4  9  1  0  0  0  0
  4 16  2  0  0  0  0
  5 18  1  0  0  0  0
  6 20  1  0  0  0  0
  7 10  2  0  0  0  0
  7 19  1  0  0  0  0
  8 24  1  0  0  0  0
  9 24  2  0  0  0  0
 10 25  1  0  0  0  0
 11 12  2  0  0  0  0
 11 26  1  0  0  0  0
 12 27  1  0  0  0  0
 13 21  1  0  0  0  0
 13 25  2  0  0  0  0
 14 27  2  0  0  0  0
 14 28  1  0  0  0  0
 15 22  2  0  0  0  0
 15 66  1  0  0  0  0
 16 29  1  0  0  0  0
 17 29  1  0  0  0  0
 17 30  2  0  0  0  0
 17 32  1  0  0  0  0
 18 20  2  0  0  0  0
 18 37  1  0  0  0  0
 19 21  2  0  0  0  0
 19 38  1  0  0  0  0
 20 46  1  0  0  0  0
 21 39  1  0  0  0  0
 22 23  1  0  0  0  0
 22 57  1  0  0  0  0
 23 31  2  0  0  0  0
 23 60  1  0  0  0  0
 24 82  1  0  0  0  0
 25 83  1  0  0  0  0
 26 28  2  0  0  0  0
 26 82  1  0  0  0  0
 27 84  1  0  0  0  0
 28 85  1  0  0  0  0
 29 65  2  0  0  0  0
 30 67  1  0  0  0  0
 30 70  1  0  0  0  0
 31 66  1  0  0  0  0
 31 71  1  0  0  0  0
 32 72  1  0  0  0  0
 32 77  2  0  0  0  0
 33 47  1  0  0  0  0
 33 73  1  0  0  0  0
 33 78  2  0  0  0  0
 34 61  1  0  0  0  0
 34 68  1  0  0  0  0
 34 79  2  0  0  0  0
 35 62  1  0  0  0  0
 35 74  1  0  0  0  0
 35 80  2  0  0  0  0
 36 69  1  0  0  0  0
 36 75  1  0  0  0  0
 36 81  2  0  0  0  0
 37 40  1  0  0  0  0
 38 47  1  0  0  0  0
 39 68  1  0  0  0  0
 40 42  1  0  0  0  0
 41 43  1  0  0  0  0
 41 44  1  0  0  0  0
 42 46  1  0  0  0  0
 43 48  1  0  0  0  0
 44 69  1  0  0  0  0
 45 48  1  0  0  0  0
 45 69  1  0  0  0  0
 46 73  1  0  0  0  0
 47 68  1  0  0  0  0
 48 67  1  0  0  0  0
 49 60  1  0  0  0  0
 50 60  1  0  0  0  0
 51 62  1  0  0  0  0
 52 63  1  0  0  0  0
 53 64  1  0  0  0  0
 54 64  1  0  0  0  0
 55 64  1  0  0  0  0
 56 76  1  0  0  0  0
 57 75  1  0  0  0  0
 58 59  1  0  0  0  0
 58 63  1  0  0  0  0
 59 66  1  0  0  0  0
 61 64  1  0  0  0  0
 61 74  1  0  0  0  0
 62 76  1  0  0  0  0
 63 83  1  0  0  0  0
 65 67  1  0  0  0  0
M  CHG  1  76   1
M  ISO  4  36 100  63 101  75 100  83 101
M  END
> <Batch ID>
0103

> <Smiles>
CNC(C)C(=O)NC(C(=O)N1Cc2cc([101O:1][101CH:1](C)CCn3cc(C[100NH:0][100C:0](=O)N4CCCC(n5nc(-c6ccc(Oc7ccc(F)cc7F)cc6)c(C(N)=O)c5N)C4)c(C(C)C)c3N)ccc2CC1C(=O)NC1CCCc2ccccc21)C(C)(C)C

> <Shape>
0.238

> <Color>
0.057

> <Negative vol penalty>
0.000

$$$$

  -OEChem-04052319413D

 86 94  0     1  0  0  0  0  0999 V2000
  -35.2030  -12.4399   37.2079 C   0  0  0  0  0  0  0  0  0  0  0  0
  -34.3000  -12.2754   36.1624 C   0  0  0  0  0  0  0  0  0  0  0  0
  -23.0725   -9.8701   19.9433 C   0  0  0  0  0  0  0  0  0  0  0  0
  -23.8352   -9.8783   22.2357 C   0  0  0  0  0  0  0  0  0  0  0  0
  -35.4405  -13.7111   37.7289 C   0  0  0  0  0  0  0  0  0  0  0  0
  -33.6333  -13.3821   35.6380 C   0  0  0  0  0  0  0  0  0  0  0  0
  -32.0135  -14.2783   29.8002 C   0  0  0  0  0  0  0  0  0  0  0  0
  -27.3074  -16.8062   25.5942 C   0  0  0  0  0  0  0  0  0  0  0  0
  -27.6815  -17.9973   24.9723 C   0  0  0  0  0  0  0  0  0  0  0  0
  -22.3291   -8.7169   20.1947 C   0  0  0  0  0  0  0  0  0  0  0  0
  -23.0917   -8.7252   22.4872 C   0  0  0  0  0  0  0  0  0  0  0  0
  -30.8086  -14.0968   29.1227 C   0  0  0  0  0  0  0  0  0  0  0  0
  -19.3828   -7.9206   21.6499 C   0  0  0  0  0  0  0  0  0  0  0  0
  -18.0753   -7.8739   21.1663 C   0  0  0  0  0  0  0  0  0  0  0  0
  -30.2882  -16.4315   29.4354 C   0  0  0  0  0  0  0  0  0  0  0  0
  -29.3283  -15.7527   24.7921 C   0  0  0  0  0  0  0  0  0  0  0  0
  -18.6337   -5.9303   19.8443 C   0  0  0  0  0  0  0  0  0  0  0  0
  -23.8256  -10.4508   20.9638 C   0  0  0  0  0  0  0  0  0  0  0  0
  -24.1669  -12.9759   20.8421 C   0  0  0  0  0  0  0  0  0  0  0  0
  -34.7836  -14.8352   37.2041 C   0  0  0  0  0  0  0  0  0  0  0  0
  -32.3604  -15.5374   30.3108 C   0  0  0  0  0  0  0  0  0  0  0  0
  -33.8613  -14.6694   36.1533 C   0  0  0  0  0  0  0  0  0  0  0  0
  -31.4992  -16.6268   30.1168 C   0  0  0  0  0  0  0  0  0  0  0  0
  -28.1308  -15.6838   25.5041 C   0  0  0  0  0  0  0  0  0  0  0  0
  -28.8790  -18.0662   24.2603 C   0  0  0  0  0  0  0  0  0  0  0  0
  -29.7024  -16.9438   24.1702 C   0  0  0  0  0  0  0  0  0  0  0  0
  -22.3387   -8.1445   21.4666 C   0  0  0  0  0  0  0  0  0  0  0  0
  -29.9444  -15.1729   28.9427 C   0  0  0  0  0  0  0  0  0  0  0  0
  -20.3158   -6.9722   21.2307 C   0  0  0  0  0  0  0  0  0  0  0  0
  -17.7008   -6.8788   20.2635 C   0  0  0  0  0  0  0  0  0  0  0  0
  -19.9412   -5.9770   20.3279 C   0  0  0  0  0  0  0  0  0  0  0  0
  -24.5942  -11.6416   20.7045 C   0  0  0  0  0  0  0  0  0  0  0  0
  -25.2584  -13.7254   20.4772 C   0  0  0  0  0  0  0  0  0  0  0  0
  -22.8968  -13.4917   21.2623 C   0  0  0  0  0  0  0  0  0  0  0  0
  -32.9245  -16.7029   33.2138 C   0  0  0  0  0  0  0  0  0  0  0  0
  -33.7388  -19.3714   31.5590 C   0  0  0  0  0  0  0  0  0  0  0  0
  -33.4332  -21.2161   28.7041 C   0  0  0  0  0  0  0  0  0  0  0  0
  -30.7422  -14.7454   20.6584 C   0  0  0  0  0  0  0  0  0  0  0  0
  -35.0375  -16.1831   37.8314 C   0  0  0  0  0  0  0  0  0  0  0  0
  -33.6760  -15.7225   31.0160 C   0  0  0  0  0  0  0  0  0  0  0  0
  -31.8343  -18.0034   30.6279 C   0  0  0  0  0  0  0  0  0  0  0  0
  -34.5705  -17.3536   36.9700 C   0  0  0  0  0  0  0  0  0  0  0  0
  -29.6021  -12.3595   18.2741 C   0  0  0  0  0  0  0  0  0  0  0  0
  -33.1660  -17.0950   36.4340 C   0  0  0  0  0  0  0  0  0  0  0  0
  -28.1653  -12.0658   18.7090 C   0  0  0  0  0  0  0  0  0  0  0  0
  -30.5207  -12.5811   19.4738 C   0  0  0  0  0  0  0  0  0  0  0  0
  -28.6205  -13.3126   20.8624 C   0  0  0  0  0  0  0  0  0  0  0  0
  -33.1370  -15.8487   35.5410 C   0  0  1  0  0  0  0  0  0  0  0  0
  -33.6918  -16.9342   31.9428 C   0  0  1  0  0  0  0  0  0  0  0  0
  -27.6449  -13.1372   19.6860 C   0  0  2  0  0  0  0  0  0  0  0  0
  -26.4894  -13.5093   24.1157 C   0  0  0  0  0  0  0  0  0  0  0  0
  -29.4527  -20.4949   24.6150 C   0  0  0  0  0  0  0  0  0  0  0  0
  -28.2486  -19.7772   22.5198 C   0  0  0  0  0  0  0  0  0  0  0  0
  -34.1879  -23.3696   27.6600 C   0  0  0  0  0  0  0  0  0  0  0  0
  -31.7742  -20.9088   33.3159 C   0  0  0  0  0  0  0  0  0  0  0  0
  -31.8560  -22.7774   31.6516 C   0  0  0  0  0  0  0  0  0  0  0  0
  -33.9264  -22.1010   32.8676 C   0  0  0  0  0  0  0  0  0  0  0  0
  -34.7698  -19.8015   26.4744 C   0  0  0  0  0  0  0  0  0  0  0  0
  -30.9888  -16.9939   23.4130 C   0  0  0  0  0  0  0  0  0  0  0  0
  -27.5414  -13.2238   25.1809 C   0  0  0  0  0  0  0  0  0  0  0  0
  -30.8092  -16.8966   21.8941 C   0  0  0  0  0  0  0  0  0  0  0  0
  -28.7321  -13.9898   27.2734 C   0  0  0  0  0  0  0  0  0  1  0  0
  -27.7220  -14.3837   26.1826 C   0  0  1  0  0  0  0  0  0  0  0  0
  -29.2580  -19.3521   23.6019 C   0  0  0  0  0  0  0  0  0  0  0  0
  -32.9982  -20.5906   31.0650 C   0  0  1  0  0  0  0  0  0  0  0  0
  -34.4713  -21.8841   27.8206 C   0  0  2  0  0  0  0  0  0  0  0  0
  -32.6312  -21.5682   32.2170 C   0  0  0  0  0  0  0  0  0  0  0  0
  -25.8585  -11.5458   20.2848 N   0  0  0  0  0  0  0  0  0  0  0  0
  -26.2351  -12.8294   20.1554 N   0  0  0  0  0  0  0  0  0  0  0  0
  -33.1293  -18.1323   31.3164 N   0  0  0  0  0  0  0  0  0  0  0  0
  -29.9710  -13.6100   20.3600 N   0  0  0  0  0  0  0  0  0  0  0  0
  -25.4685  -15.0568   20.4032 N   0  0  0  0  0  0  0  0  0  0  0  0
  -21.8854  -12.5825   21.6013 N   0  0  0  0  0  0  0  0  0  0  0  0
  -33.6772  -16.1515   34.2330 N   0  0  0  0  0  0  0  0  0  0  0  0
  -33.8322  -21.1806   30.0235 N   0  0  0  0  0  0  0  0  0  0  0  0
  -30.1440  -15.6745   21.5007 N   0  0  0  0  0  0  0  0  0  0  0  0
  -34.4801  -21.2585   26.4680 N   0  3  0  0  0  0  0  0  0  0  0  0
  -22.6604  -14.7223   21.3193 O   0  0  0  0  0  0  0  0  0  0  0  0
  -31.7378  -17.0038   33.2663 O   0  0  0  0  0  0  0  0  0  0  0  0
  -34.8217  -19.5128   32.1325 O   0  0  0  0  0  0  0  0  0  0  0  0
  -32.3728  -20.7736   28.2681 O   0  0  0  0  0  0  0  0  0  0  0  0
  -31.8776  -14.9208   20.2033 O   0  0  0  0  0  0  0  0  0  0  0  0
  -21.6132   -7.0194   21.7124 O   0  0  0  0  0  0  0  0  0  0  0  0
  -28.7674  -14.9984   28.2823 O   0  0  0  0  0  0  0  0  0  1  0  0
  -16.4447   -6.8331   19.8003 F   0  0  0  0  0  0  0  0  0  0  0  0
  -20.8328   -5.0624   19.9225 F   0  0  0  0  0  0  0  0  0  0  0  0
  1  2  1  0  0  0  0
  1  5  2  0  0  0  0
  2  6  2  0  0  0  0
  3 10  2  0  0  0  0
  3 18  1  0  0  0  0
  4 11  1  0  0  0  0
  4 18  2  0  0  0  0
  5 20  1  0  0  0  0
  6 22  1  0  0  0  0
  7 12  2  0  0  0  0
  7 21  1  0  0  0  0
  8  9  2  0  0  0  0
  8 24  1  0  0  0  0
  9 25  1  0  0  0  0
 10 27  1  0  0  0  0
 11 27  2  0  0  0  0
 12 28  1  0  0  0  0
 13 14  2  0  0  0  0
 13 29  1  0  0  0  0
 14 30  1  0  0  0  0
 15 23  1  0  0  0  0
 15 28  2  0  0  0  0
 16 24  2  0  0  0  0
 16 26  1  0  0  0  0
 17 30  2  0  0  0  0
 17 31  1  0  0  0  0
 18 32  1  0  0  0  0
 19 32  1  0  0  0  0
 19 33  2  0  0  0  0
 19 34  1  0  0  0  0
 20 22  2  0  0  0  0
 20 39  1  0  0  0  0
 21 23  2  0  0  0  0
 21 40  1  0  0  0  0
 22 48  1  0  0  0  0
 23 41  1  0  0  0  0
 24 63  1  0  0  0  0
 25 26  2  0  0  0  0
 25 64  1  0  0  0  0
 26 59  1  0  0  0  0
 27 83  1  0  0  0  0
 28 84  1  0  0  0  0
 29 31  2  0  0  0  0
 29 83  1  0  0  0  0
 30 85  1  0  0  0  0
 31 86  1  0  0  0  0
 32 68  2  0  0  0  0
 33 69  1  0  0  0  0
 33 72  1  0  0  0  0
 34 73  1  0  0  0  0
 34 78  2  0  0  0  0
 35 49  1  0  0  0  0
 35 74  1  0  0  0  0
 35 79  2  0  0  0  0
 36 65  1  0  0  0  0
 36 70  1  0  0  0  0
 36 80  2  0  0  0  0
 37 66  1  0  0  0  0
 37 75  1  0  0  0  0
 37 81  2  0  0  0  0
 38 71  1  0  0  0  0
 38 76  1  0  0  0  0
 38 82  2  0  0  0  0
 39 42  1  0  0  0  0
 40 49  1  0  0  0  0
 41 70  1  0  0  0  0
 42 44  1  0  0  0  0
 43 45  1  0  0  0  0
 43 46  1  0  0  0  0
 44 48  1  0  0  0  0
 45 50  1  0  0  0  0
 46 71  1  0  0  0  0
 47 50  1  0  0  0  0
 47 71  1  0  0  0  0
 48 74  1  0  0  0  0
 49 70  1  0  0  0  0
 50 69  1  0  0  0  0
 51 60  1  0  0  0  0
 52 64  1  0  0  0  0
 53 64  1  0  0  0  0
 54 66  1  0  0  0  0
 55 67  1  0  0  0  0
 56 67  1  0  0  0  0
 57 67  1  0  0  0  0
 58 77  1  0  0  0  0
 59 61  1  0  0  0  0
 60 63  1  0  0  0  0
 61 76  1  0  0  0  0
 62 63  1  0  0  0  0
 62 84  1  0  0  0  0
 65 67  1  0  0  0  0
 65 75  1  0  0  0  0
 66 77  1  0  0  0  0
 68 69  1  0  0  0  0
M  CHG  1  77   1
M  ISO  4  38 100  62 101  76 100  84 101
M  END
> <Batch ID>
0103

> <Smiles>
CCC(c1ccc(C(C)C)c(CC[100NH:0][100C:0](=O)N2CCCC(n3nc(-c4ccc(Oc5ccc(F)cc5F)cc4)c(C(N)=O)c3N)C2)c1)[101CH2:1][101O:1]c1ccc2c(c1)CN(C(=O)C(NC(=O)C(C)NC)C(C)(C)C)C(C(=O)NC1CCCc3ccccc31)C2

> <Shape>
0.145

> <Color>
0.191

> <Negative vol penalty>
0.000

$$$$

  -OEChem-04052319413D

 86 94  0     1  0  0  0  0  0999 V2000
  -24.7956  -29.2055   23.4303 C   0  0  0  0  0  0  0  0  0  0  0  0
  -24.6296  -27.8363   23.6120 C   0  0  0  0  0  0  0  0  0  0  0  0
  -21.9757  -23.0650   23.9652 C   0  0  0  0  0  0  0  0  0  0  0  0
  -19.8614  -21.9907   24.4262 C   0  0  0  0  0  0  0  0  0  0  0  0
  -25.2651  -29.6940   22.2117 C   0  0  0  0  0  0  0  0  0  0  0  0
  -24.9321  -26.9547   22.5748 C   0  0  0  0  0  0  0  0  0  0  0  0
  -27.4509  -20.3491   21.4182 C   0  0  0  0  0  0  0  0  0  0  0  0
  -21.3666  -24.3143   24.0830 C   0  0  0  0  0  0  0  0  0  0  0  0
  -19.2523  -23.2400   24.5440 C   0  0  0  0  0  0  0  0  0  0  0  0
  -27.1281  -19.1777   20.7347 C   0  0  0  0  0  0  0  0  0  0  0  0
  -20.2912  -27.7836   23.9073 C   0  0  0  0  0  0  0  0  0  0  0  0
  -20.5900  -28.7460   22.9429 C   0  0  0  0  0  0  0  0  0  0  0  0
  -28.0074  -20.1297   18.7001 C   0  0  0  0  0  0  0  0  0  0  0  0
  -19.7203  -27.2908   21.2214 C   0  0  0  0  0  0  0  0  0  0  0  0
  -25.3460  -13.4896   21.6540 C   0  0  0  0  0  0  0  0  0  0  0  0
  -21.2231  -21.9032   24.1368 C   0  0  0  0  0  0  0  0  0  0  0  0
  -22.4567  -19.8611   25.0400 C   0  0  0  0  0  0  0  0  0  0  0  0
  -25.5826  -28.8173   21.1623 C   0  0  0  0  0  0  0  0  0  0  0  0
  -28.0455  -21.4256   20.7443 C   0  0  0  0  0  0  0  0  0  0  0  0
  -25.4050  -27.4320   21.3406 C   0  0  0  0  0  0  0  0  0  0  0  0
  -28.3391  -21.3128   19.3779 C   0  0  0  0  0  0  0  0  0  0  0  0
  -24.4655  -12.4305   21.6706 C   0  0  0  0  0  0  0  0  0  0  0  0
  -24.6736  -11.6886   20.4817 C   0  0  0  0  0  0  0  0  0  0  0  0
  -20.0049  -24.4018   24.3724 C   0  0  0  0  0  0  0  0  0  0  0  0
  -27.4037  -19.0689   19.3748 C   0  0  0  0  0  0  0  0  0  0  0  0
  -19.7070  -26.5748   23.5288 C   0  0  0  0  0  0  0  0  0  0  0  0
  -20.3045  -28.4996   21.5999 C   0  0  0  0  0  0  0  0  0  0  0  0
  -19.4215  -26.3284   22.1859 C   0  0  0  0  0  0  0  0  0  0  0  0
  -21.8516  -20.6124   24.0147 C   0  0  0  0  0  0  0  0  0  0  0  0
  -25.6753  -12.3168   19.7750 C   0  0  0  0  0  0  0  0  0  0  0  0
  -22.8988  -18.7208   24.4149 C   0  0  0  0  0  0  0  0  0  0  0  0
  -22.6056  -20.1666   26.4329 C   0  0  0  0  0  0  0  0  0  0  0  0
  -27.2163  -24.4372   20.1559 C   0  0  0  0  0  0  0  0  0  0  0  0
  -30.2170  -24.6154   18.9368 C   0  0  0  0  0  0  0  0  0  0  0  0
  -32.8930  -22.9914   17.5773 C   0  0  0  0  0  0  0  0  0  0  0  0
  -22.0926  -14.4946   20.8603 C   0  0  0  0  0  0  0  0  0  0  0  0
  -26.0421  -29.3954   19.8473 C   0  0  0  0  0  0  0  0  0  0  0  0
  -28.4120  -22.6723   21.5018 C   0  0  0  0  0  0  0  0  0  0  0  0
  -28.9951  -22.4320   18.6127 C   0  0  0  0  0  0  0  0  0  0  0  0
  -26.6954  -28.3688   18.9256 C   0  0  0  0  0  0  0  0  0  0  0  0
  -23.2335  -17.5801   19.4983 C   0  0  0  0  0  0  0  0  0  0  0  0
  -25.8571  -27.0958   18.8651 C   0  0  0  0  0  0  0  0  0  0  0  0
  -23.0198  -18.5825   20.6338 C   0  0  0  0  0  0  0  0  0  0  0  0
  -22.1227  -16.5331   19.4532 C   0  0  0  0  0  0  0  0  0  0  0  0
  -21.6767  -16.8238   21.8595 C   0  0  0  0  0  0  0  0  0  0  0  0
  -25.7458  -26.4422   20.2478 C   0  0  1  0  0  0  0  0  0  0  0  0
  -28.5454  -23.8990   20.6047 C   0  0  1  0  0  0  0  0  0  0  0  0
  -22.8014  -17.8664   21.9802 C   0  0  2  0  0  0  0  0  0  0  0  0
  -26.2861  -11.9707   18.4741 C   0  0  0  0  0  0  0  0  0  0  0  0
  -24.8759   -9.2346   19.9429 C   0  0  0  0  0  0  0  0  0  0  0  0
  -23.1552  -10.6471   18.7602 C   0  0  0  0  0  0  0  0  0  0  0  0
  -35.1855  -23.4090   16.6459 C   0  0  0  0  0  0  0  0  0  0  0  0
  -28.5547  -16.1509   18.0287 C   0  0  0  0  0  0  0  0  0  0  0  0
  -28.9740  -25.6914   16.3663 C   0  0  0  0  0  0  0  0  0  0  0  0
  -31.1302  -25.1908   15.1965 C   0  0  0  0  0  0  0  0  0  0  0  0
  -31.0818  -26.8409   17.0666 C   0  0  0  0  0  0  0  0  0  0  0  0
  -34.1676  -21.2999   19.6445 C   0  0  0  0  0  0  0  0  0  0  0  0
  -23.4881  -12.1337   22.7369 C   0  0  0  0  0  0  0  0  0  0  0  0
  -26.6120  -15.7268   19.5781 C   0  0  0  0  0  0  0  0  0  0  0  0
  -27.1534  -14.3871   20.0975 C   0  0  0  0  0  0  0  0  0  0  0  0
  -22.0446  -12.5492   22.4005 C   0  0  0  0  0  0  0  0  0  0  0  0
  -23.9511  -10.4663   20.0729 C   0  0  0  0  0  0  0  0  0  0  0  0
  -30.8358  -24.3777   17.5804 C   0  0  1  0  0  0  0  0  0  0  0  0
  -34.3776  -23.0619   17.8867 C   0  0  2  0  0  0  0  0  0  0  0  0
  -27.7020  -16.7197   19.1558 C   0  0  2  0  0  0  0  0  0  1  0  0
  -30.4913  -25.5047   16.5662 C   0  0  0  0  0  0  0  0  0  0  0  0
  -21.9030  -20.0009   22.8283 N   0  0  0  0  0  0  0  0  0  0  0  0
  -26.0766  -13.4101   20.4972 N   0  0  0  0  0  0  0  0  0  0  0  0
  -22.5458  -18.8534   23.1042 N   0  0  0  0  0  0  0  0  0  0  0  0
  -29.3284  -23.6330   19.3963 N   0  0  0  0  0  0  0  0  0  0  0  0
  -21.9679  -15.8902   20.7603 N   0  0  0  0  0  0  0  0  0  0  0  0
  -23.5514  -17.6277   24.8641 N   0  0  0  0  0  0  0  0  0  0  0  0
  -22.0932  -21.3811   26.9090 N   0  0  0  0  0  0  0  0  0  0  0  0
  -26.9643  -25.7312   20.5702 N   0  0  0  0  0  0  0  0  0  0  0  0
  -32.2651  -24.1967   17.8099 N   0  0  0  0  0  0  0  0  0  0  0  0
  -21.9380  -13.9668   22.1363 N   0  0  0  0  0  0  0  0  0  0  0  0
  -34.8602  -21.7529   18.4108 N   0  3  0  0  0  0  0  0  0  0  0  0
  -23.1908  -19.3931   27.2284 O   0  0  0  0  0  0  0  0  0  0  0  0
  -26.4749  -23.7314   19.4823 O   0  0  0  0  0  0  0  0  0  0  0  0
  -30.5167  -25.6317   19.5684 O   0  0  0  0  0  0  0  0  0  0  0  0
  -32.3460  -21.9703   17.1666 O   0  0  0  0  0  0  0  0  0  0  0  0
  -22.3299  -13.7731   19.8856 O   0  0  0  0  0  0  0  0  0  0  0  0
  -19.4103  -25.6207   24.4876 O   0  0  0  0  0  0  0  0  0  0  0  0
  -27.0890  -17.9269   18.7050 O   0  0  0  0  0  0  0  0  0  1  0  0
  -20.5900  -29.4245   20.6741 F   0  0  0  0  0  0  0  0  0  0  0  0
  -18.8593  -25.1695   21.8164 F   0  0  0  0  0  0  0  0  0  0  0  0
  1  2  1  0  0  0  0
  1  5  2  0  0  0  0
  2  6  2  0  0  0  0
  3  8  2  0  0  0  0
  3 16  1  0  0  0  0
  4  9  1  0  0  0  0
  4 16  2  0  0  0  0
  5 18  1  0  0  0  0
  6 20  1  0  0  0  0
  7 10  2  0  0  0  0
  7 19  1  0  0  0  0
  8 24  1  0  0  0  0
  9 24  2  0  0  0  0
 10 25  1  0  0  0  0
 11 12  2  0  0  0  0
 11 26  1  0  0  0  0
 12 27  1  0  0  0  0
 13 21  1  0  0  0  0
 13 25  2  0  0  0  0
 14 27  2  0  0  0  0
 14 28  1  0  0  0  0
 15 22  2  0  0  0  0
 15 68  1  0  0  0  0
 16 29  1  0  0  0  0
 17 29  1  0  0  0  0
 17 31  2  0  0  0  0
 17 32  1  0  0  0  0
 18 20  2  0  0  0  0
 18 37  1  0  0  0  0
 19 21  2  0  0  0  0
 19 38  1  0  0  0  0
 20 46  1  0  0  0  0
 21 39  1  0  0  0  0
 22 23  1  0  0  0  0
 22 58  1  0  0  0  0
 23 30  2  0  0  0  0
 23 62  1  0  0  0  0
 24 83  1  0  0  0  0
 25 84  1  0  0  0  0
 26 28  2  0  0  0  0
 26 83  1  0  0  0  0
 27 85  1  0  0  0  0
 28 86  1  0  0  0  0
 29 67  2  0  0  0  0
 30 49  1  0  0  0  0
 30 68  1  0  0  0  0
 31 69  1  0  0  0  0
 31 72  1  0  0  0  0
 32 73  1  0  0  0  0
 32 78  2  0  0  0  0
 33 47  1  0  0  0  0
 33 74  1  0  0  0  0
 33 79  2  0  0  0  0
 34 63  1  0  0  0  0
 34 70  1  0  0  0  0
 34 80  2  0  0  0  0
 35 64  1  0  0  0  0
 35 75  1  0  0  0  0
 35 81  2  0  0  0  0
 36 71  1  0  0  0  0
 36 76  1  0  0  0  0
 36 82  2  0  0  0  0
 37 40  1  0  0  0  0
 38 47  1  0  0  0  0
 39 70  1  0  0  0  0
 40 42  1  0  0  0  0
 41 43  1  0  0  0  0
 41 44  1  0  0  0  0
 42 46  1  0  0  0  0
 43 48  1  0  0  0  0
 44 71  1  0  0  0  0
 45 48  1  0  0  0  0
 45 71  1  0  0  0  0
 46 74  1  0  0  0  0
 47 70  1  0  0  0  0
 48 69  1  0  0  0  0
 50 62  1  0  0  0  0
 51 62  1  0  0  0  0
 52 64  1  0  0  0  0
 53 65  1  0  0  0  0
 54 66  1  0  0  0  0
 55 66  1  0  0  0  0
 56 66  1  0  0  0  0
 57 77  1  0  0  0  0
 58 61  1  0  0  0  0
 59 60  1  0  0  0  0
 59 65  1  0  0  0  0
 60 68  1  0  0  0  0
 61 76  1  0  0  0  0
 63 66  1  0  0  0  0
 63 75  1  0  0  0  0
 64 77  1  0  0  0  0
 65 84  1  0  0  0  0
 67 69  1  0  0  0  0
M  CHG  1  77   1
M  ISO  4  36 100  65 101  76 100  84 101
M  END
> <Batch ID>
0103

> <Smiles>
CNC(C)C(=O)NC(C(=O)N1Cc2cc([101O:1][101CH:1](C)CCn3cc(CC[100NH:0][100C:0](=O)N4CCCC(n5nc(-c6ccc(Oc7ccc(F)cc7F)cc6)c(C(N)=O)c5N)C4)c(C(C)C)c3C)ccc2CC1C(=O)NC1CCCc2ccccc21)C(C)(C)C

> <Shape>
0.213

> <Color>
0.076

> <Negative vol penalty>
0.000

$$$$

  -OEChem-04052319413D

 88 96  0     1  0  0  0  0  0999 V2000
  -32.5264  -30.9199   23.1344 C   0  0  0  0  0  0  0  0  0  0  0  0
  -31.7345  -29.9426   22.5401 C   0  0  0  0  0  0  0  0  0  0  0  0
  -23.9719  -12.6022   19.5227 C   0  0  0  0  0  0  0  0  0  0  0  0
  -25.2884  -12.3144   21.5280 C   0  0  0  0  0  0  0  0  0  0  0  0
  -32.0356  -31.6509   24.2154 C   0  0  0  0  0  0  0  0  0  0  0  0
  -30.4516  -29.6951   23.0271 C   0  0  0  0  0  0  0  0  0  0  0  0
  -27.0229  -29.2433   19.3278 C   0  0  0  0  0  0  0  0  0  0  0  0
  -23.9853  -11.2229   19.3159 C   0  0  0  0  0  0  0  0  0  0  0  0
  -25.3018  -10.9350   21.3211 C   0  0  0  0  0  0  0  0  0  0  0  0
  -26.9866  -28.0324   18.6376 C   0  0  0  0  0  0  0  0  0  0  0  0
  -25.3775   -7.3054   21.5173 C   0  0  0  0  0  0  0  0  0  0  0  0
  -25.1287   -6.4818   22.6152 C   0  0  0  0  0  0  0  0  0  0  0  0
  -25.0984  -27.3374   19.9683 C   0  0  0  0  0  0  0  0  0  0  0  0
  -22.9551   -7.5009   22.8871 C   0  0  0  0  0  0  0  0  0  0  0  0
  -26.7999  -23.2934   23.5669 C   0  0  0  0  0  0  0  0  0  0  0  0
  -24.6235  -13.1480   20.6288 C   0  0  0  0  0  0  0  0  0  0  0  0
  -23.6619  -15.3143   21.5722 C   0  0  0  0  0  0  0  0  0  0  0  0
  -30.7424  -31.4189   24.7098 C   0  0  0  0  0  0  0  0  0  0  0  0
  -26.1024  -29.5063   20.3525 C   0  0  0  0  0  0  0  0  0  0  0  0
  -29.9434  -30.4228   24.1166 C   0  0  0  0  0  0  0  0  0  0  0  0
  -25.1234  -28.5534   20.6682 C   0  0  0  0  0  0  0  0  0  0  0  0
  -26.8210  -22.9001   24.8868 C   0  0  0  0  0  0  0  0  0  0  0  0
  -27.1286  -21.5174   24.9114 C   0  0  0  0  0  0  0  0  0  0  0  0
  -24.6502  -10.3893   20.2151 C   0  0  0  0  0  0  0  0  0  0  0  0
  -26.0262  -27.0781   18.9598 C   0  0  0  0  0  0  0  0  0  0  0  0
  -24.4151   -8.2268   21.1043 C   0  0  0  0  0  0  0  0  0  0  0  0
  -23.9175   -6.5795   23.3001 C   0  0  0  0  0  0  0  0  0  0  0  0
  -23.2039   -8.3245   21.7892 C   0  0  0  0  0  0  0  0  0  0  0  0
  -24.6105  -14.5728   20.8427 C   0  0  0  0  0  0  0  0  0  0  0  0
  -27.2862  -21.1078   23.6057 C   0  0  0  0  0  0  0  0  0  0  0  0
  -24.0944  -16.6144   21.4758 C   0  0  0  0  0  0  0  0  0  0  0  0
  -22.4942  -14.8678   22.2742 C   0  0  0  0  0  0  0  0  0  0  0  0
  -26.3213  -30.0828   23.4707 C   0  0  0  0  0  0  0  0  0  0  0  0
  -23.1331  -30.6166   23.2000 C   0  0  0  0  0  0  0  0  0  0  0  0
  -20.2373  -30.0566   21.4832 C   0  0  0  0  0  0  0  0  0  0  0  0
  -29.3687  -19.3039   21.2975 C   0  0  0  0  0  0  0  0  0  0  0  0
  -30.2729  -32.2017   25.9104 C   0  0  0  0  0  0  0  0  0  0  0  0
  -26.1379  -30.8281   21.0693 C   0  0  0  0  0  0  0  0  0  0  0  0
  -24.0998  -28.7952   21.7462 C   0  0  0  0  0  0  0  0  0  0  0  0
  -28.7633  -32.1368   26.1276 C   0  0  0  0  0  0  0  0  0  0  0  0
  -27.0603  -19.0986   18.4112 C   0  0  0  0  0  0  0  0  0  0  0  0
  -28.2674  -30.6997   26.0034 C   0  0  0  0  0  0  0  0  0  0  0  0
  -26.1549  -17.9283   18.7914 C   0  0  0  0  0  0  0  0  0  0  0  0
  -28.4475  -18.9676   19.0326 C   0  0  0  0  0  0  0  0  0  0  0  0
  -27.5260  -17.6211   20.8905 C   0  0  0  0  0  0  0  0  0  0  0  0
  -28.5373  -30.1423   24.6005 C   0  0  1  0  0  0  0  0  0  0  0  0
  -25.4761  -30.7808   22.4431 C   0  0  1  0  0  0  0  0  0  0  0  0
  -26.1059  -17.7461   20.3184 C   0  0  2  0  0  0  0  0  0  0  0  0
  -27.2571  -20.6689   26.1142 C   0  0  0  0  0  0  0  0  0  0  0  0
  -25.1406  -24.3645   26.0638 C   0  0  0  0  0  0  0  0  0  0  0  0
  -27.5977  -24.9142   26.1885 C   0  0  0  0  0  0  0  0  0  0  0  0
  -17.7868  -30.5955   21.5250 C   0  0  0  0  0  0  0  0  0  0  0  0
  -24.4272  -21.7198   18.5863 C   0  0  0  0  0  0  0  0  0  0  0  0
  -22.7310  -28.6015   25.4556 C   0  0  0  0  0  0  0  0  0  0  0  0
  -20.3147  -28.4699   24.8134 C   0  0  0  0  0  0  0  0  0  0  0  0
  -21.2785  -30.6323   25.5996 C   0  0  0  0  0  0  0  0  0  0  0  0
  -29.9931  -20.2598   23.4829 C   0  0  0  0  0  0  0  0  0  0  0  0
  -20.3737  -31.4185   18.8591 C   0  0  0  0  0  0  0  0  0  0  0  0
  -27.6122  -19.7744   23.0571 C   0  0  0  0  0  0  0  0  0  0  0  0
  -25.7631  -22.2059   20.6586 C   0  0  0  0  0  0  0  0  0  0  0  0
  -26.2122  -23.5155   18.4686 C   0  0  0  0  0  0  0  0  0  0  0  0
  -27.1587  -22.2039   21.2907 C   0  0  0  0  0  0  0  0  0  0  0  0
  -25.5074  -24.7575   19.0025 C   0  0  0  0  0  0  0  0  0  1  0  0
  -26.5675  -23.7691   26.0533 C   0  0  0  0  0  0  0  0  0  0  0  0
  -21.8932  -29.7621   23.3068 C   0  0  1  0  0  0  0  0  0  0  0  0
  -19.1541  -31.0036   20.9991 C   0  0  2  0  0  0  0  0  0  0  0  0
  -25.7874  -22.1848   19.1175 C   0  0  2  0  0  0  0  0  0  0  0  0
  -21.5747  -29.3608   24.7748 C   0  0  0  0  0  0  0  0  0  0  0  0
  -25.5729  -15.3382   20.3212 N   0  0  0  0  0  0  0  0  0  0  0  0
  -27.0844  -22.1957   22.7972 N   0  0  0  0  0  0  0  0  0  0  0  0
  -25.2313  -16.5742   20.7235 N   0  0  0  0  0  0  0  0  0  0  0  0
  -24.1797  -30.1004   22.4227 N   0  0  0  0  0  0  0  0  0  0  0  0
  -28.3704  -18.7522   20.4778 N   0  0  0  0  0  0  0  0  0  0  0  0
  -23.6093  -17.7765   21.9620 N   0  0  0  0  0  0  0  0  0  0  0  0
  -22.1963  -13.4983   22.2723 N   0  0  0  0  0  0  0  0  0  0  0  0
  -27.5656  -30.6538   23.6579 N   0  0  0  0  0  0  0  0  0  0  0  0
  -20.8265  -30.5062   22.6459 N   0  0  0  0  0  0  0  0  0  0  0  0
  -28.9961  -19.6727   22.5990 N   0  0  0  0  0  0  0  0  0  0  0  0
  -19.1014  -31.0122   19.5097 N   0  3  0  0  0  0  0  0  0  0  0  0
  -21.7283  -15.6618   22.8713 O   0  0  0  0  0  0  0  0  0  0  0  0
  -25.8767  -29.0998   24.0520 O   0  0  0  0  0  0  0  0  0  0  0  0
  -23.1690  -31.7053   23.7788 O   0  0  0  0  0  0  0  0  0  0  0  0
  -20.5289  -29.0197   20.8912 O   0  0  0  0  0  0  0  0  0  0  0  0
  -30.5246  -19.4668   20.8861 O   0  0  0  0  0  0  0  0  0  0  0  0
  -24.6633   -9.0432   20.0137 O   0  0  0  0  0  0  0  0  0  0  0  0
  -25.9890  -25.8951   18.2882 O   0  0  0  0  0  0  0  0  0  1  0  0
  -23.6781   -5.7875   24.3534 F   0  0  0  0  0  0  0  0  0  0  0  0
  -22.2750   -9.2069   21.3964 F   0  0  0  0  0  0  0  0  0  0  0  0
  1  2  1  0  0  0  0
  1  5  2  0  0  0  0
  2  6  2  0  0  0  0
  3  8  2  0  0  0  0
  3 16  1  0  0  0  0
  4  9  1  0  0  0  0
  4 16  2  0  0  0  0
  5 18  1  0  0  0  0
  6 20  1  0  0  0  0
  7 10  2  0  0  0  0
  7 19  1  0  0  0  0
  8 24  1  0  0  0  0
  9 24  2  0  0  0  0
 10 25  1  0  0  0  0
 11 12  2  0  0  0  0
 11 26  1  0  0  0  0
 12 27  1  0  0  0  0
 13 21  1  0  0  0  0
 13 25  2  0  0  0  0
 14 27  2  0  0  0  0
 14 28  1  0  0  0  0
 15 22  2  0  0  0  0
 15 70  1  0  0  0  0
 16 29  1  0  0  0  0
 17 29  1  0  0  0  0
 17 31  2  0  0  0  0
 17 32  1  0  0  0  0
 18 20  2  0  0  0  0
 18 37  1  0  0  0  0
 19 21  2  0  0  0  0
 19 38  1  0  0  0  0
 20 46  1  0  0  0  0
 21 39  1  0  0  0  0
 22 23  1  0  0  0  0
 22 64  1  0  0  0  0
 23 30  2  0  0  0  0
 23 49  1  0  0  0  0
 24 85  1  0  0  0  0
 25 86  1  0  0  0  0
 26 28  2  0  0  0  0
 26 85  1  0  0  0  0
 27 87  1  0  0  0  0
 28 88  1  0  0  0  0
 29 69  2  0  0  0  0
 30 59  1  0  0  0  0
 30 70  1  0  0  0  0
 31 71  1  0  0  0  0
 31 74  1  0  0  0  0
 32 75  1  0  0  0  0
 32 80  2  0  0  0  0
 33 47  1  0  0  0  0
 33 76  1  0  0  0  0
 33 81  2  0  0  0  0
 34 65  1  0  0  0  0
 34 72  1  0  0  0  0
 34 82  2  0  0  0  0
 35 66  1  0  0  0  0
 35 77  1  0  0  0  0
 35 83  2  0  0  0  0
 36 73  1  0  0  0  0
 36 78  1  0  0  0  0
 36 84  2  0  0  0  0
 37 40  1  0  0  0  0
 38 47  1  0  0  0  0
 39 72  1  0  0  0  0
 40 42  1  0  0  0  0
 41 43  1  0  0  0  0
 41 44  1  0  0  0  0
 42 46  1  0  0  0  0
 43 48  1  0  0  0  0
 44 73  1  0  0  0  0
 45 48  1  0  0  0  0
 45 73  1  0  0  0  0
 46 76  1  0  0  0  0
 47 72  1  0  0  0  0
 48 71  1  0  0  0  0
 50 64  1  0  0  0  0
 51 64  1  0  0  0  0
 52 66  1  0  0  0  0
 53 67  1  0  0  0  0
 54 68  1  0  0  0  0
 55 68  1  0  0  0  0
 56 68  1  0  0  0  0
 57 78  1  0  0  0  0
 58 79  1  0  0  0  0
 59 78  1  0  0  0  0
 60 62  1  0  0  0  0
 60 67  1  0  0  0  0
 61 63  1  0  0  0  0
 61 67  1  0  0  0  0
 62 70  1  0  0  0  0
 63 86  1  0  0  0  0
 65 68  1  0  0  0  0
 65 77  1  0  0  0  0
 66 79  1  0  0  0  0
 69 71  1  0  0  0  0
M  CHG  1  79   1
M  ISO  4  36 100  63 101  78 100  86 101
M  END
> <Batch ID>
0103

> <Smiles>
CNC(C)C(=O)NC(C(=O)N1Cc2cc([101O:1][101CH2:1]CC(C)CCn3cc(C(C)C)c(C)c3C[100N:0](C)[100C:0](=O)N3CCCC(n4nc(-c5ccc(Oc6ccc(F)cc6F)cc5)c(C(N)=O)c4N)C3)ccc2CC1C(=O)NC1CCCc2ccccc21)C(C)(C)C

> <Shape>
0.207

> <Color>
0.082

> <Negative vol penalty>
0.000

$$$$

  -OEChem-04052319413D

 85 93  0     1  0  0  0  0  0999 V2000
  -15.8880   -8.4737   23.7139 C   0  0  0  0  0  0  0  0  0  0  0  0
  -17.2179   -8.8618   23.8405 C   0  0  0  0  0  0  0  0  0  0  0  0
  -23.1973   -9.8513   19.9548 C   0  0  0  0  0  0  0  0  0  0  0  0
  -23.9011   -9.9366   22.2645 C   0  0  0  0  0  0  0  0  0  0  0  0
  -14.9279   -9.4005   23.3100 C   0  0  0  0  0  0  0  0  0  0  0  0
  -17.5887  -10.1769   23.5623 C   0  0  0  0  0  0  0  0  0  0  0  0
  -21.9467  -13.4440   26.3624 C   0  0  0  0  0  0  0  0  0  0  0  0
  -28.3545  -17.3380   22.7001 C   0  0  0  0  0  0  0  0  0  0  0  0
  -22.5032   -8.6687   20.2100 C   0  0  0  0  0  0  0  0  0  0  0  0
  -23.2069   -8.7540   22.5197 C   0  0  0  0  0  0  0  0  0  0  0  0
  -23.2691  -13.7280   26.0243 C   0  0  0  0  0  0  0  0  0  0  0  0
  -20.8422   -5.4340   20.1712 C   0  0  0  0  0  0  0  0  0  0  0  0
  -20.9766   -4.3908   19.2552 C   0  0  0  0  0  0  0  0  0  0  0  0
  -26.9900  -17.2568   22.9549 C   0  0  0  0  0  0  0  0  0  0  0  0
  -22.5667  -15.8268   25.0648 C   0  0  0  0  0  0  0  0  0  0  0  0
  -23.3578   -4.3413   19.6608 C   0  0  0  0  0  0  0  0  0  0  0  0
  -23.8964  -10.4853   20.9820 C   0  0  0  0  0  0  0  0  0  0  0  0
  -24.1210  -13.0213   20.8208 C   0  0  0  0  0  0  0  0  0  0  0  0
  -15.2856  -10.7301   23.0360 C   0  0  0  0  0  0  0  0  0  0  0  0
  -20.9212  -14.3459   26.0439 C   0  0  0  0  0  0  0  0  0  0  0  0
  -16.6328  -11.1221   23.1531 C   0  0  0  0  0  0  0  0  0  0  0  0
  -21.2324  -15.5531   25.4021 C   0  0  0  0  0  0  0  0  0  0  0  0
  -29.2543  -16.7136   23.5567 C   0  0  0  0  0  0  0  0  0  0  0  0
  -22.5079   -8.1200   21.4924 C   0  0  0  0  0  0  0  0  0  0  0  0
  -23.5789  -14.9182   25.3728 C   0  0  0  0  0  0  0  0  0  0  0  0
  -21.9656   -5.9310   20.8321 C   0  0  0  0  0  0  0  0  0  0  0  0
  -22.2344   -3.8444   19.0000 C   0  0  0  0  0  0  0  0  0  0  0  0
  -23.2234   -5.3846   20.5769 C   0  0  0  0  0  0  0  0  0  0  0  0
  -24.6141  -11.7066   20.7189 C   0  0  0  0  0  0  0  0  0  0  0  0
  -26.5798  -16.5449   24.0706 C   0  0  0  0  0  0  0  0  0  0  0  0
  -28.7428  -16.0262   24.6456 C   0  0  0  0  0  0  0  0  0  0  0  0
  -25.1848  -13.8153   20.4683 C   0  0  0  0  0  0  0  0  0  0  0  0
  -22.8179  -13.4833   21.2004 C   0  0  0  0  0  0  0  0  0  0  0  0
  -18.3189  -14.2313   24.2221 C   0  0  0  0  0  0  0  0  0  0  0  0
  -17.7609  -17.1545   25.5129 C   0  0  0  0  0  0  0  0  0  0  0  0
  -19.0256  -19.9570   26.9938 C   0  0  0  0  0  0  0  0  0  0  0  0
  -30.9472  -14.0500   20.9722 C   0  0  0  0  0  0  0  0  0  0  0  0
  -14.2205  -11.6843   22.5568 C   0  0  0  0  0  0  0  0  0  0  0  0
  -19.5032  -14.0369   26.4393 C   0  0  0  0  0  0  0  0  0  0  0  0
  -20.1709  -16.5639   25.0561 C   0  0  0  0  0  0  0  0  0  0  0  0
  -14.6336  -13.1514   22.6428 C   0  0  0  0  0  0  0  0  0  0  0  0
  -29.3648  -13.1121   17.9237 C   0  0  0  0  0  0  0  0  0  0  0  0
  -16.0379  -13.3444   22.0792 C   0  0  0  0  0  0  0  0  0  0  0  0
  -27.9326  -12.7763   18.3432 C   0  0  0  0  0  0  0  0  0  0  0  0
  -30.3780  -12.6863   18.9840 C   0  0  0  0  0  0  0  0  0  0  0  0
  -28.6777  -12.8666   20.7589 C   0  0  0  0  0  0  0  0  0  0  0  0
  -17.0701  -12.5457   22.8842 C   0  0  1  0  0  0  0  0  0  0  0  0
  -18.4725  -14.7935   25.6071 C   0  0  1  0  0  0  0  0  0  0  0  0
  -27.6154  -13.3276   19.7463 C   0  0  2  0  0  0  0  0  0  0  0  0
  -29.4325  -13.8116   25.6322 C   0  0  0  0  0  0  0  0  0  0  0  0
  -29.5735  -15.9096   27.0226 C   0  0  0  0  0  0  0  0  0  0  0  0
  -18.3294  -22.1911   27.9001 C   0  0  0  0  0  0  0  0  0  0  0  0
  -31.5739  -17.4672   24.4218 C   0  0  0  0  0  0  0  0  0  0  0  0
  -30.9925  -17.6671   22.0181 C   0  0  0  0  0  0  0  0  0  0  0  0
  -17.4836  -18.2198   22.6672 C   0  0  0  0  0  0  0  0  0  0  0  0
  -17.7423  -20.5354   23.5832 C   0  0  0  0  0  0  0  0  0  0  0  0
  -15.8086  -19.1260   24.2881 C   0  0  0  0  0  0  0  0  0  0  0  0
  -19.9838  -19.2830   29.7116 C   0  0  0  0  0  0  0  0  0  0  0  0
  -25.1146  -16.4354   24.3749 C   0  0  0  0  0  0  0  0  0  1  0  0
  -31.3649  -15.3919   23.0176 C   0  0  0  0  0  0  0  0  0  0  0  0
  -29.6619  -15.3336   25.5976 C   0  0  0  0  0  0  0  0  0  0  0  0
  -18.1225  -18.5729   25.1437 C   0  0  1  0  0  0  0  0  0  0  0  0
  -18.5902  -20.7288   28.2263 C   0  0  2  0  0  0  0  0  0  0  0  0
  -30.7173  -16.7981   23.2896 C   0  0  0  0  0  0  0  0  0  0  0  0
  -17.3092  -19.0938   23.9252 C   0  0  0  0  0  0  0  0  0  0  0  0
  -25.8917  -11.6637   20.3317 N   0  0  0  0  0  0  0  0  0  0  0  0
  -27.4241  -15.9253   24.9256 N   0  0  0  0  0  0  0  0  0  0  0  0
  -26.2104  -12.9613   20.1872 N   0  0  0  0  0  0  0  0  0  0  0  0
  -18.7986  -16.2132   25.4578 N   0  0  0  0  0  0  0  0  0  0  0  0
  -30.0206  -13.2436   20.2907 N   0  0  0  0  0  0  0  0  0  0  0  0
  -25.3336  -15.1538   20.3742 N   0  0  0  0  0  0  0  0  0  0  0  0
  -21.8424  -12.5331   21.5319 N   0  0  0  0  0  0  0  0  0  0  0  0
  -17.3780  -13.2240   24.1250 N   0  0  0  0  0  0  0  0  0  0  0  0
  -17.9551  -19.3658   26.3568 N   0  0  0  0  0  0  0  0  0  0  0  0
  -30.5262  -14.5429   22.2012 N   0  0  0  0  0  0  0  0  0  0  0  0
  -19.6440  -20.6627   29.2780 N   0  3  0  0  0  0  0  0  0  0  0  0
  -22.5223  -14.7021   21.2284 O   0  0  0  0  0  0  0  0  0  0  0  0
  -19.0023  -14.6793   23.3090 O   0  0  0  0  0  0  0  0  0  0  0  0
  -16.6021  -16.8927   25.8450 O   0  0  0  0  0  0  0  0  0  0  0  0
  -20.1976  -19.8887   26.6302 O   0  0  0  0  0  0  0  0  0  0  0  0
  -32.0646  -14.3157   20.5164 O   0  0  0  0  0  0  0  0  0  0  0  0
  -21.8305   -6.9662   21.7418 O   0  0  0  0  0  0  0  0  0  0  0  0
  -24.8688  -15.1976   25.0412 O   0  0  0  0  0  0  0  0  0  1  0  0
  -22.3630   -2.8415   18.1214 F   0  0  0  0  0  0  0  0  0  0  0  0
  -24.3062   -5.8570   21.2096 F   0  0  0  0  0  0  0  0  0  0  0  0
  1  2  1  0  0  0  0
  1  5  2  0  0  0  0
  2  6  2  0  0  0  0
  3  9  2  0  0  0  0
  3 17  1  0  0  0  0
  4 10  1  0  0  0  0
  4 17  2  0  0  0  0
  5 19  1  0  0  0  0
  6 21  1  0  0  0  0
  7 11  2  0  0  0  0
  7 20  1  0  0  0  0
  8 14  2  0  0  0  0
  8 23  1  0  0  0  0
  9 24  1  0  0  0  0
 10 24  2  0  0  0  0
 11 25  1  0  0  0  0
 12 13  2  0  0  0  0
 12 26  1  0  0  0  0
 13 27  1  0  0  0  0
 14 30  1  0  0  0  0
 15 22  1  0  0  0  0
 15 25  2  0  0  0  0
 16 27  2  0  0  0  0
 16 28  1  0  0  0  0
 17 29  1  0  0  0  0
 18 29  1  0  0  0  0
 18 32  2  0  0  0  0
 18 33  1  0  0  0  0
 19 21  2  0  0  0  0
 19 38  1  0  0  0  0
 20 22  2  0  0  0  0
 20 39  1  0  0  0  0
 21 47  1  0  0  0  0
 22 40  1  0  0  0  0
 23 31  2  0  0  0  0
 23 64  1  0  0  0  0
 24 82  1  0  0  0  0
 25 83  1  0  0  0  0
 26 28  2  0  0  0  0
 26 82  1  0  0  0  0
 27 84  1  0  0  0  0
 28 85  1  0  0  0  0
 29 66  2  0  0  0  0
 30 59  1  0  0  0  0
 30 67  2  0  0  0  0
 31 61  1  0  0  0  0
 31 67  1  0  0  0  0
 32 68  1  0  0  0  0
 32 71  1  0  0  0  0
 33 72  1  0  0  0  0
 33 77  2  0  0  0  0
 34 48  1  0  0  0  0
 34 73  1  0  0  0  0
 34 78  2  0  0  0  0
 35 62  1  0  0  0  0
 35 69  1  0  0  0  0
 35 79  2  0  0  0  0
 36 63  1  0  0  0  0
 36 74  1  0  0  0  0
 36 80  2  0  0  0  0
 37 70  1  0  0  0  0
 37 75  1  0  0  0  0
 37 81  2  0  0  0  0
 38 41  1  0  0  0  0
 39 48  1  0  0  0  0
 40 69  1  0  0  0  0
 41 43  1  0  0  0  0
 42 44  1  0  0  0  0
 42 45  1  0  0  0  0
 43 47  1  0  0  0  0
 44 49  1  0  0  0  0
 45 70  1  0  0  0  0
 46 49  1  0  0  0  0
 46 70  1  0  0  0  0
 47 73  1  0  0  0  0
 48 69  1  0  0  0  0
 49 68  1  0  0  0  0
 50 61  1  0  0  0  0
 51 61  1  0  0  0  0
 52 63  1  0  0  0  0
 53 64  1  0  0  0  0
 54 64  1  0  0  0  0
 55 65  1  0  0  0  0
 56 65  1  0  0  0  0
 57 65  1  0  0  0  0
 58 76  1  0  0  0  0
 59 83  1  0  0  0  0
 60 64  1  0  0  0  0
 60 75  1  0  0  0  0
 62 65  1  0  0  0  0
 62 74  1  0  0  0  0
 63 76  1  0  0  0  0
 66 68  1  0  0  0  0
M  CHG  1  76   1
M  ISO  4  37 100  59 101  75 100  83 101
M  END
> <Batch ID>
0103

> <Smiles>
CNC(C)C(=O)NC(C(=O)N1Cc2cc([101O:1][101CH2:1]c3ccc(C(C)(C)C[100NH:0][100C:0](=O)N4CCCC(n5nc(-c6ccc(Oc7ccc(F)cc7F)cc6)c(C(N)=O)c5N)C4)c(C(C)C)n3)ccc2CC1C(=O)NC1CCCc2ccccc21)C(C)(C)C

> <Shape>
0.148

> <Color>
0.181

> <Negative vol penalty>
0.000

$$$$

  -OEChem-04052319413D

 82 89  0     1  0  0  0  0  0999 V2000
  -30.4719  -25.6176   17.6572 C   0  0  0  0  0  0  0  0  0  0  0  0
  -29.0841  -25.5945   17.7516 C   0  0  0  0  0  0  0  0  0  0  0  0
  -25.3832  -18.1380   18.8883 C   0  0  0  0  0  0  0  0  0  0  0  0
  -23.2724  -17.7133   19.9842 C   0  0  0  0  0  0  0  0  0  0  0  0
  -31.2317  -26.1439   18.7011 C   0  0  0  0  0  0  0  0  0  0  0  0
  -28.4553  -26.0967   18.8904 C   0  0  0  0  0  0  0  0  0  0  0  0
  -23.0782  -29.0170   19.1417 C   0  0  0  0  0  0  0  0  0  0  0  0
  -25.8136  -16.8531   19.2193 C   0  0  0  0  0  0  0  0  0  0  0  0
  -23.7027  -16.4284   20.3152 C   0  0  0  0  0  0  0  0  0  0  0  0
  -21.7913  -28.5869   19.4620 C   0  0  0  0  0  0  0  0  0  0  0  0
  -25.3473  -13.7012   18.0875 C   0  0  0  0  0  0  0  0  0  0  0  0
  -25.9800  -12.9536   17.0944 C   0  0  0  0  0  0  0  0  0  0  0  0
  -22.1062  -29.3517   21.7281 C   0  0  0  0  0  0  0  0  0  0  0  0
  -27.9631  -12.8087   18.4667 C   0  0  0  0  0  0  0  0  0  0  0  0
  -24.1126  -18.5681   19.2708 C   0  0  0  0  0  0  0  0  0  0  0  0
  -22.9832  -20.2893   17.7644 C   0  0  0  0  0  0  0  0  0  0  0  0
  -30.6116  -26.6616   19.8491 C   0  0  0  0  0  0  0  0  0  0  0  0
  -23.8941  -29.6088   20.1166 C   0  0  0  0  0  0  0  0  0  0  0  0
  -29.2077  -26.6291   19.9512 C   0  0  0  0  0  0  0  0  0  0  0  0
  -23.4022  -29.7908   21.4169 C   0  0  0  0  0  0  0  0  0  0  0  0
  -24.9734  -15.9983   19.9327 C   0  0  0  0  0  0  0  0  0  0  0  0
  -21.3061  -28.7516   20.7561 C   0  0  0  0  0  0  0  0  0  0  0  0
  -26.0226  -14.0027   19.2703 C   0  0  0  0  0  0  0  0  0  0  0  0
  -27.2878  -12.5073   17.2840 C   0  0  0  0  0  0  0  0  0  0  0  0
  -27.3305  -13.5564   19.4599 C   0  0  0  0  0  0  0  0  0  0  0  0
  -23.6677  -19.8954   18.9298 C   0  0  0  0  0  0  0  0  0  0  0  0
  -22.7909  -21.6404   17.9193 C   0  0  0  0  0  0  0  0  0  0  0  0
  -22.5591  -19.5041   16.6422 C   0  0  0  0  0  0  0  0  0  0  0  0
  -26.6887  -28.8819   21.4454 C   0  0  0  0  0  0  0  0  0  0  0  0
  -22.5193  -25.1199   22.8112 C   0  0  0  0  0  0  0  0  0  0  0  0
  -26.3350  -31.7851   22.8486 C   0  0  0  0  0  0  0  0  0  0  0  0
  -24.2327  -34.2679   23.8794 C   0  0  0  0  0  0  0  0  0  0  0  0
  -31.4768  -27.1769   20.9718 C   0  0  0  0  0  0  0  0  0  0  0  0
  -25.2702  -30.0917   19.7483 C   0  0  0  0  0  0  0  0  0  0  0  0
  -24.2308  -30.4388   22.4949 C   0  0  0  0  0  0  0  0  0  0  0  0
  -30.7172  -28.0315   21.9833 C   0  0  0  0  0  0  0  0  0  0  0  0
  -24.7087  -25.4895   19.9988 C   0  0  0  0  0  0  0  0  0  0  0  0
  -29.4070  -27.3561   22.3755 C   0  0  0  0  0  0  0  0  0  0  0  0
  -24.6498  -24.1236   19.3161 C   0  0  0  0  0  0  0  0  0  0  0  0
  -24.6117  -25.3602   21.5157 C   0  0  0  0  0  0  0  0  0  0  0  0
  -23.3462  -23.2446   21.3043 C   0  0  0  0  0  0  0  0  0  0  0  0
  -28.4878  -27.1871   21.1597 C   0  0  1  0  0  0  0  0  0  0  0  0
  -26.2020  -30.2143   20.9500 C   0  0  1  0  0  0  0  0  0  0  0  0
  -23.4102  -23.3322   19.7692 C   0  0  2  0  0  0  0  0  0  0  0  0
  -24.2332  -36.4993   25.0275 C   0  0  0  0  0  0  0  0  0  0  0  0
  -17.4195  -27.2690   21.6809 C   0  0  0  0  0  0  0  0  0  0  0  0
  -19.1898  -23.3137   22.0816 C   0  0  0  0  0  0  0  0  0  0  0  0
  -26.7682  -30.4010   25.5331 C   0  0  0  0  0  0  0  0  0  0  0  0
  -25.8313  -32.4344   26.6537 C   0  0  0  0  0  0  0  0  0  0  0  0
  -27.9193  -32.6090   25.3000 C   0  0  0  0  0  0  0  0  0  0  0  0
  -23.0716  -35.6152   21.5140 C   0  0  0  0  0  0  0  0  0  0  0  0
  -20.2779  -23.7954   27.3333 C   0  0  0  0  0  0  0  0  0  0  0  0
  -22.6444  -24.1701   28.0116 C   0  0  0  0  0  0  0  0  0  0  0  0
  -20.9169  -24.5166   24.6208 C   0  0  0  0  0  0  0  0  0  0  0  0
  -19.3619  -25.7926   22.4356 C   0  0  0  0  0  0  0  0  0  0  0  0
  -22.0294  -24.1496   25.5987 C   0  0  0  0  0  0  0  0  0  0  0  0
  -19.5368  -27.2158   20.3481 C   0  0  0  0  0  0  0  0  0  1  0  0
  -21.3293  -24.2619   23.1601 C   0  0  1  0  0  0  0  0  0  0  0  0
  -25.7040  -32.2856   24.1254 C   0  0  1  0  0  0  0  0  0  0  0  0
  -24.2838  -35.7735   23.6921 C   0  0  2  0  0  0  0  0  0  0  0  0
  -18.5915  -26.3927   21.2368 C   0  0  2  0  0  0  0  0  0  0  0  0
  -20.1673  -24.4975   22.1587 C   0  0  1  0  0  0  0  0  0  0  0  0
  -26.5405  -31.9185   25.3835 C   0  0  0  0  0  0  0  0  0  0  0  0
  -23.8950  -20.9139   19.7634 N   0  0  0  0  0  0  0  0  0  0  0  0
  -23.3503  -21.9612   19.1210 N   0  0  0  0  0  0  0  0  0  0  0  0
  -25.5721  -30.8885   22.0871 N   0  0  0  0  0  0  0  0  0  0  0  0
  -23.4335  -24.5831   21.9046 N   0  0  0  0  0  0  0  0  0  0  0  0
  -22.1995  -22.5735   17.1433 N   0  0  0  0  0  0  0  0  0  0  0  0
  -22.8375  -18.1305   16.6445 N   0  0  0  0  0  0  0  0  0  0  0  0
  -27.8466  -28.4426   20.8325 N   0  0  0  0  0  0  0  0  0  0  0  0
  -25.4956  -33.7181   23.9434 N   0  0  0  0  0  0  0  0  0  0  0  0
  -23.1325  -36.2318   22.8642 N   0  3  0  0  0  0  0  0  0  0  0  0
  -21.5839  -24.4632   26.9786 N   0  3  0  0  0  0  0  0  0  0  0  0
  -21.9658  -20.0086   15.6589 O   0  0  0  0  0  0  0  0  0  0  0  0
  -26.0610  -28.2965   22.3200 O   0  0  0  0  0  0  0  0  0  0  0  0
  -22.6296  -26.2350   23.3277 O   0  0  0  0  0  0  0  0  0  0  0  0
  -27.4605  -32.1807   22.5347 O   0  0  0  0  0  0  0  0  0  0  0  0
  -23.1781  -33.6426   23.9645 O   0  0  0  0  0  0  0  0  0  0  0  0
  -25.3929  -14.7444   20.2556 O   0  0  0  0  0  0  0  0  0  0  0  0
  -20.0417  -28.3291   21.0738 O   0  0  0  0  0  0  0  0  0  1  0  0
  -27.8947  -11.7880   16.3308 F   0  0  0  0  0  0  0  0  0  0  0  0
  -27.9839  -13.8419   20.5945 F   0  0  0  0  0  0  0  0  0  0  0  0
  1  2  1  0  0  0  0
  1  5  2  0  0  0  0
  2  6  2  0  0  0  0
  3  8  2  0  0  0  0
  3 15  1  0  0  0  0
  4  9  1  0  0  0  0
  4 15  2  0  0  0  0
  5 17  1  0  0  0  0
  6 19  1  0  0  0  0
  7 10  2  0  0  0  0
  7 18  1  0  0  0  0
  8 21  1  0  0  0  0
  9 21  2  0  0  0  0
 10 22  1  0  0  0  0
 11 12  2  0  0  0  0
 11 23  1  0  0  0  0
 12 24  1  0  0  0  0
 13 20  1  0  0  0  0
 13 22  2  0  0  0  0
 14 24  2  0  0  0  0
 14 25  1  0  0  0  0
 15 26  1  0  0  0  0
 16 26  1  0  0  0  0
 16 27  2  0  0  0  0
 16 28  1  0  0  0  0
 17 19  2  0  0  0  0
 17 33  1  0  0  0  0
 18 20  2  0  0  0  0
 18 34  1  0  0  0  0
 19 42  1  0  0  0  0
 20 35  1  0  0  0  0
 21 79  1  0  0  0  0
 22 80  1  0  0  0  0
 23 25  2  0  0  0  0
 23 79  1  0  0  0  0
 24 81  1  0  0  0  0
 25 82  1  0  0  0  0
 26 64  2  0  0  0  0
 27 65  1  0  0  0  0
 27 68  1  0  0  0  0
 28 69  1  0  0  0  0
 28 74  2  0  0  0  0
 29 43  1  0  0  0  0
 29 70  1  0  0  0  0
 29 75  2  0  0  0  0
 30 58  1  0  0  0  0
 30 67  1  0  0  0  0
 30 76  2  0  0  0  0
 31 59  1  0  0  0  0
 31 66  1  0  0  0  0
 31 77  2  0  0  0  0
 32 60  1  0  0  0  0
 32 71  1  0  0  0  0
 32 78  2  0  0  0  0
 33 36  1  0  0  0  0
 34 43  1  0  0  0  0
 35 66  1  0  0  0  0
 36 38  1  0  0  0  0
 37 39  1  0  0  0  0
 37 40  1  0  0  0  0
 38 42  1  0  0  0  0
 39 44  1  0  0  0  0
 40 67  1  0  0  0  0
 41 44  1  0  0  0  0
 41 67  1  0  0  0  0
 42 70  1  0  0  0  0
 43 66  1  0  0  0  0
 44 65  1  0  0  0  0
 45 60  1  0  0  0  0
 46 61  1  0  0  0  0
 47 62  1  0  0  0  0
 48 63  1  0  0  0  0
 49 63  1  0  0  0  0
 50 63  1  0  0  0  0
 51 72  1  0  0  0  0
 52 73  1  0  0  0  0
 53 73  1  0  0  0  0
 54 56  1  0  0  0  0
 54 58  1  0  0  0  0
 55 61  1  0  0  0  0
 55 62  1  0  0  0  0
 56 73  1  0  0  0  0
 57 61  1  0  0  0  0
 57 80  1  0  0  0  0
 58 62  1  0  0  0  0
 59 63  1  0  0  0  0
 59 71  1  0  0  0  0
 60 72  1  0  0  0  0
 64 65  1  0  0  0  0
M  CHG  2  72   1  73   1
M  ISO  4  30 100  57 101  58 100  80 101
M  END
> <Batch ID>
0103

> <Smiles>
CNC(C)C(=O)NC(C(=O)N1Cc2cc([101O:1][101CH2:1]C(C)CC(C)[100CH:0](CCN(C)C)[100C:0](=O)N3CCCC(n4nc(-c5ccc(Oc6ccc(F)cc6F)cc5)c(C(N)=O)c4N)C3)ccc2CC1C(=O)NC1CCCc2ccccc21)C(C)(C)C

> <Shape>
0.257

> <Color>
0.066

> <Negative vol penalty>
0.000

$$$$

  -OEChem-04052319413D

 77 84  0     1  0  0  0  0  0999 V2000
  -24.1693  -19.1302   33.7984 C   0  0  0  0  0  0  0  0  0  0  0  0
  -24.9297  -19.2831   32.6434 C   0  0  0  0  0  0  0  0  0  0  0  0
  -23.0006   -9.8942   19.9818 C   0  0  0  0  0  0  0  0  0  0  0  0
  -23.7308   -9.9443   22.2843 C   0  0  0  0  0  0  0  0  0  0  0  0
  -23.0222  -18.3380   33.7766 C   0  0  0  0  0  0  0  0  0  0  0  0
  -24.5439  -18.6428   31.4663 C   0  0  0  0  0  0  0  0  0  0  0  0
  -25.1960  -20.7419   25.7501 C   0  0  0  0  0  0  0  0  0  0  0  0
  -22.2357   -8.7588   20.2490 C   0  0  0  0  0  0  0  0  0  0  0  0
  -22.9659   -8.8089   22.5515 C   0  0  0  0  0  0  0  0  0  0  0  0
  -26.1464  -20.4908   24.7614 C   0  0  0  0  0  0  0  0  0  0  0  0
  -23.2123   -5.4705   22.0768 C   0  0  0  0  0  0  0  0  0  0  0  0
  -23.8025   -4.4534   22.8269 C   0  0  0  0  0  0  0  0  0  0  0  0
  -24.6900  -18.8304   23.7915 C   0  0  0  0  0  0  0  0  0  0  0  0
  -22.0821   -4.6935   24.5060 C   0  0  0  0  0  0  0  0  0  0  0  0
  -23.7482  -10.4869   20.9994 C   0  0  0  0  0  0  0  0  0  0  0  0
  -24.1308  -13.0030   20.8243 C   0  0  0  0  0  0  0  0  0  0  0  0
  -22.6169  -17.6955   32.5961 C   0  0  0  0  0  0  0  0  0  0  0  0
  -23.9880  -20.0301   25.7733 C   0  0  0  0  0  0  0  0  0  0  0  0
  -23.3911  -17.8402   31.4291 C   0  0  0  0  0  0  0  0  0  0  0  0
  -23.7248  -19.0760   24.7800 C   0  0  0  0  0  0  0  0  0  0  0  0
  -22.2184   -8.2162   21.5339 C   0  0  0  0  0  0  0  0  0  0  0  0
  -25.8947  -19.5329   23.7836 C   0  0  0  0  0  0  0  0  0  0  0  0
  -22.0571   -6.0992   22.5413 C   0  0  0  0  0  0  0  0  0  0  0  0
  -23.2374   -4.0648   24.0415 C   0  0  0  0  0  0  0  0  0  0  0  0
  -21.4919   -5.7107   23.7559 C   0  0  0  0  0  0  0  0  0  0  0  0
  -24.5390  -11.6595   20.7238 C   0  0  0  0  0  0  0  0  0  0  0  0
  -25.2390  -13.7269   20.4580 C   0  0  0  0  0  0  0  0  0  0  0  0
  -22.8631  -13.5480   21.2140 C   0  0  0  0  0  0  0  0  0  0  0  0
  -29.9156  -17.6755   22.7631 C   0  0  0  0  0  0  0  0  0  0  0  0
  -29.0597  -18.6131   22.2858 C   0  0  0  0  0  0  0  0  0  0  0  0
  -22.5931  -18.0452   27.8271 C   0  0  0  0  0  0  0  0  0  0  0  0
  -20.1164  -18.2503   25.7423 C   0  0  0  0  0  0  0  0  0  0  0  0
  -19.0500  -18.8905   22.5643 C   0  0  0  0  0  0  0  0  0  0  0  0
  -30.7350  -14.6665   20.6951 C   0  0  0  0  0  0  0  0  0  0  0  0
  -21.3957  -16.8113   32.6335 C   0  0  0  0  0  0  0  0  0  0  0  0
  -22.9619  -20.3316   26.8309 C   0  0  0  0  0  0  0  0  0  0  0  0
  -22.4350  -18.2990   24.7486 C   0  0  0  0  0  0  0  0  0  0  0  0
  -20.8487  -16.4693   31.2499 C   0  0  0  0  0  0  0  0  0  0  0  0
  -29.5915  -12.2434   18.3504 C   0  0  0  0  0  0  0  0  0  0  0  0
  -21.9800  -16.0454   30.3185 C   0  0  0  0  0  0  0  0  0  0  0  0
  -28.1442  -11.9820   18.7710 C   0  0  0  0  0  0  0  0  0  0  0  0
  -30.4963  -12.4788   19.5578 C   0  0  0  0  0  0  0  0  0  0  0  0
  -28.5884  -13.2716   20.9014 C   0  0  0  0  0  0  0  0  0  0  0  0
  -22.9915  -17.1818   30.1264 C   0  0  1  0  0  0  0  0  0  0  0  0
  -21.9835  -19.1834   27.0587 C   0  0  1  0  0  0  0  0  0  0  0  0
  -27.6270  -13.0838   19.7153 C   0  0  2  0  0  0  0  0  0  0  0  0
  -30.0867  -17.3730   24.2338 C   0  0  0  0  0  0  0  0  0  0  0  0
  -28.8870  -18.9173   20.8157 C   0  0  0  0  0  0  0  0  0  0  0  0
  -16.9739  -18.9397   21.1555 C   0  0  0  0  0  0  0  0  0  0  0  0
  -20.1295  -15.2015   25.6208 C   0  0  0  0  0  0  0  0  0  0  0  0
  -18.7358  -15.3477   23.5460 C   0  0  0  0  0  0  0  0  0  0  0  0
  -17.8525  -16.2325   25.7047 C   0  0  0  0  0  0  0  0  0  0  0  0
  -19.3728  -21.7745   21.9835 C   0  0  0  0  0  0  0  0  0  0  0  0
  -30.8183  -16.8447   21.8816 C   0  0  0  0  0  0  0  0  0  0  0  0
  -28.1908  -19.4814   23.1662 C   0  0  0  0  0  0  0  0  0  1  0  0
  -19.6912  -17.4903   24.5092 C   0  0  1  0  0  0  0  0  0  0  0  0
  -17.9138  -19.7478   22.0366 C   0  0  2  0  0  0  0  0  0  0  0  0
  -19.1275  -16.0811   24.8466 C   0  0  0  0  0  0  0  0  0  0  0  0
  -25.8075  -11.5345   20.3248 N   0  0  0  0  0  0  0  0  0  0  0  0
  -26.2059  -12.8087   20.1712 N   0  0  0  0  0  0  0  0  0  0  0  0
  -21.4658  -18.6254   25.8078 N   0  0  0  0  0  0  0  0  0  0  0  0
  -29.9504  -13.5364   20.4118 N   0  0  0  0  0  0  0  0  0  0  0  0
  -25.4710  -15.0529   20.3563 N   0  0  0  0  0  0  0  0  0  0  0  0
  -21.8329  -12.6626   21.5592 N   0  0  0  0  0  0  0  0  0  0  0  0
  -22.4761  -18.1658   29.1987 N   0  0  0  0  0  0  0  0  0  0  0  0
  -18.7541  -18.3546   23.7998 N   0  0  0  0  0  0  0  0  0  0  0  0
  -30.1396  -15.6242   21.5069 N   0  0  0  0  0  0  0  0  0  0  0  0
  -18.4510  -20.8827   21.2338 N   0  3  0  0  0  0  0  0  0  0  0  0
  -22.6453  -14.7830   21.2391 O   0  0  0  0  0  0  0  0  0  0  0  0
  -23.1286  -17.1249   27.2205 O   0  0  0  0  0  0  0  0  0  0  0  0
  -19.2805  -18.5081   26.6120 O   0  0  0  0  0  0  0  0  0  0  0  0
  -20.0939  -18.7109   21.9410 O   0  0  0  0  0  0  0  0  0  0  0  0
  -31.8794  -14.8138   20.2526 O   0  0  0  0  0  0  0  0  0  0  0  0
  -21.4719   -7.1084   21.7951 O   0  0  0  0  0  0  0  0  0  0  0  0
  -26.8209  -19.2855   22.8178 O   0  0  0  0  0  0  0  0  0  1  0  0
  -23.8033   -3.0870   24.7610 F   0  0  0  0  0  0  0  0  0  0  0  0
  -20.3815   -6.3102   24.2068 F   0  0  0  0  0  0  0  0  0  0  0  0
  1  2  1  0  0  0  0
  1  5  2  0  0  0  0
  2  6  2  0  0  0  0
  3  8  2  0  0  0  0
  3 15  1  0  0  0  0
  4  9  1  0  0  0  0
  4 15  2  0  0  0  0
  5 17  1  0  0  0  0
  6 19  1  0  0  0  0
  7 10  2  0  0  0  0
  7 18  1  0  0  0  0
  8 21  1  0  0  0  0
  9 21  2  0  0  0  0
 10 22  1  0  0  0  0
 11 12  2  0  0  0  0
 11 23  1  0  0  0  0
 12 24  1  0  0  0  0
 13 20  1  0  0  0  0
 13 22  2  0  0  0  0
 14 24  2  0  0  0  0
 14 25  1  0  0  0  0
 15 26  1  0  0  0  0
 16 26  1  0  0  0  0
 16 27  2  0  0  0  0
 16 28  1  0  0  0  0
 17 19  2  0  0  0  0
 17 35  1  0  0  0  0
 18 20  2  0  0  0  0
 18 36  1  0  0  0  0
 19 44  1  0  0  0  0
 20 37  1  0  0  0  0
 21 74  1  0  0  0  0
 22 75  1  0  0  0  0
 23 25  2  0  0  0  0
 23 74  1  0  0  0  0
 24 76  1  0  0  0  0
 25 77  1  0  0  0  0
 26 59  2  0  0  0  0
 27 60  1  0  0  0  0
 27 63  1  0  0  0  0
 28 64  1  0  0  0  0
 28 69  2  0  0  0  0
 29 30  2  0  0  0  0
 29 47  1  0  0  0  0
 29 54  1  0  0  0  0
 30 48  1  0  0  0  0
 30 55  1  0  0  0  0
 31 45  1  0  0  0  0
 31 65  1  0  0  0  0
 31 70  2  0  0  0  0
 32 56  1  0  0  0  0
 32 61  1  0  0  0  0
 32 71  2  0  0  0  0
 33 57  1  0  0  0  0
 33 66  1  0  0  0  0
 33 72  2  0  0  0  0
 34 62  1  0  0  0  0
 34 67  1  0  0  0  0
 34 73  2  0  0  0  0
 35 38  1  0  0  0  0
 36 45  1  0  0  0  0
 37 61  1  0  0  0  0
 38 40  1  0  0  0  0
 39 41  1  0  0  0  0
 39 42  1  0  0  0  0
 40 44  1  0  0  0  0
 41 46  1  0  0  0  0
 42 62  1  0  0  0  0
 43 46  1  0  0  0  0
 43 62  1  0  0  0  0
 44 65  1  0  0  0  0
 45 61  1  0  0  0  0
 46 60  1  0  0  0  0
 49 57  1  0  0  0  0
 50 58  1  0  0  0  0
 51 58  1  0  0  0  0
 52 58  1  0  0  0  0
 53 68  1  0  0  0  0
 54 67  1  0  0  0  0
 55 75  1  0  0  0  0
 56 58  1  0  0  0  0
 56 66  1  0  0  0  0
 57 68  1  0  0  0  0
 59 60  1  0  0  0  0
M  CHG  1  68   1
M  ISO  4  34 100  55 101  67 100  75 101
M  END
> <Batch ID>
0103

> <Smiles>
CNC(C)C(=O)NC(C(=O)N1Cc2cc([101O:1][101CH2:1]C(C)=C(C)C[100NH:0][100C:0](=O)N3CCCC(n4nc(-c5ccc(Oc6ccc(F)cc6F)cc5)c(C(N)=O)c4N)C3)ccc2CC1C(=O)NC1CCCc2ccccc21)C(C)(C)C

> <Shape>
0.184

> <Color>
0.202

> <Negative vol penalty>
0.000

$$$$

  -OEChem-04052319413D

 90 98  0     1  0  0  0  0  0999 V2000
  -32.6995  -24.1476   31.0298 C   0  0  0  0  0  0  0  0  0  0  0  0
  -33.2315  -23.6446   29.8469 C   0  0  0  0  0  0  0  0  0  0  0  0
  -23.0759   -9.8651   19.9430 C   0  0  0  0  0  0  0  0  0  0  0  0
  -23.8379   -9.8752   22.2357 C   0  0  0  0  0  0  0  0  0  0  0  0
  -31.4308  -24.7258   31.0318 C   0  0  0  0  0  0  0  0  0  0  0  0
  -32.4946  -23.7186   28.6654 C   0  0  0  0  0  0  0  0  0  0  0  0
  -34.6815  -24.5823   23.0105 C   0  0  0  0  0  0  0  0  0  0  0  0
  -22.3339   -8.7111   20.1947 C   0  0  0  0  0  0  0  0  0  0  0  0
  -23.0959   -8.7212   22.4874 C   0  0  0  0  0  0  0  0  0  0  0  0
  -34.9632  -23.6995   21.9688 C   0  0  0  0  0  0  0  0  0  0  0  0
  -19.8695   -7.9192   23.0936 C   0  0  0  0  0  0  0  0  0  0  0  0
  -19.1137   -7.8792   24.2653 C   0  0  0  0  0  0  0  0  0  0  0  0
  -32.7991  -24.1555   21.0054 C   0  0  0  0  0  0  0  0  0  0  0  0
  -31.6099  -18.3640   20.0462 C   0  0  0  0  0  0  0  0  0  0  0  0
  -29.1689  -19.7105   19.9390 C   0  0  0  0  0  0  0  0  0  0  0  0
  -20.3586   -5.9442   25.0023 C   0  0  0  0  0  0  0  0  0  0  0  0
  -23.8280  -10.4471   20.9635 C   0  0  0  0  0  0  0  0  0  0  0  0
  -24.1660  -12.9727   20.8410 C   0  0  0  0  0  0  0  0  0  0  0  0
  -30.6819  -24.8156   29.8479 C   0  0  0  0  0  0  0  0  0  0  0  0
  -33.4501  -25.2511   23.0634 C   0  0  0  0  0  0  0  0  0  0  0  0
  -31.2142  -24.2973   28.6518 C   0  0  0  0  0  0  0  0  0  0  0  0
  -32.5053  -25.0481   22.0474 C   0  0  0  0  0  0  0  0  0  0  0  0
  -31.4211  -19.3932   19.1240 C   0  0  0  0  0  0  0  0  0  0  0  0
  -30.5782  -18.0079   20.9149 C   0  0  0  0  0  0  0  0  0  0  0  0
  -30.2007  -20.0665   19.0703 C   0  0  0  0  0  0  0  0  0  0  0  0
  -29.3577  -18.6812   20.8613 C   0  0  0  0  0  0  0  0  0  0  0  0
  -22.3439   -8.1391   21.4669 C   0  0  0  0  0  0  0  0  0  0  0  0
  -34.0208  -23.4838   20.9675 C   0  0  0  0  0  0  0  0  0  0  0  0
  -20.8698   -6.9717   22.8762 C   0  0  0  0  0  0  0  0  0  0  0  0
  -19.3583   -6.8918   25.2196 C   0  0  0  0  0  0  0  0  0  0  0  0
  -21.1144   -5.9842   23.8306 C   0  0  0  0  0  0  0  0  0  0  0  0
  -24.5951  -11.6389   20.7040 C   0  0  0  0  0  0  0  0  0  0  0  0
  -25.2568  -13.7234   20.4760 C   0  0  0  0  0  0  0  0  0  0  0  0
  -22.8952  -13.4870   21.2606 C   0  0  0  0  0  0  0  0  0  0  0  0
  -31.0123  -25.3046   25.1025 C   0  0  0  0  0  0  0  0  0  0  0  0
  -29.9347  -27.6579   23.1473 C   0  0  0  0  0  0  0  0  0  0  0  0
  -29.9646  -29.0924   20.0508 C   0  0  0  0  0  0  0  0  0  0  0  0
  -30.7392  -14.7505   20.6583 C   0  0  0  0  0  0  0  0  0  0  0  0
  -29.2956  -25.4065   29.9088 C   0  0  0  0  0  0  0  0  0  0  0  0
  -33.1722  -26.2204   24.1795 C   0  0  0  0  0  0  0  0  0  0  0  0
  -31.1764  -25.7570   22.0472 C   0  0  0  0  0  0  0  0  0  0  0  0
  -28.7337  -25.7838   28.5405 C   0  0  0  0  0  0  0  0  0  0  0  0
  -29.6028  -12.3623   18.2747 C   0  0  0  0  0  0  0  0  0  0  0  0
  -28.9594  -24.6542   27.5407 C   0  0  0  0  0  0  0  0  0  0  0  0
  -28.1662  -12.0669   18.7092 C   0  0  0  0  0  0  0  0  0  0  0  0
  -30.5207  -12.5855   19.4745 C   0  0  0  0  0  0  0  0  0  0  0  0
  -28.6192  -13.3150   20.8623 C   0  0  0  0  0  0  0  0  0  0  0  0
  -30.4557  -24.3814   27.3450 C   0  0  1  0  0  0  0  0  0  0  0  0
  -31.6826  -26.4566   24.4087 C   0  0  1  0  0  0  0  0  0  0  0  0
  -27.6442  -13.1380   19.6857 C   0  0  2  0  0  0  0  0  0  0  0  0
  -29.0626  -22.2555   18.7111 C   0  0  0  0  0  0  0  0  0  0  0  0
  -28.9530  -30.9817   18.7452 C   0  0  0  0  0  0  0  0  0  0  0  0
  -29.7223  -21.7124   15.6030 C   0  0  0  0  0  0  0  0  0  0  0  0
  -27.9284  -20.3838   16.7114 C   0  0  0  0  0  0  0  0  0  0  0  0
  -27.3269  -26.0923   22.9070 C   0  0  0  0  0  0  0  0  0  0  0  0
  -26.7549  -27.4871   20.9080 C   0  0  0  0  0  0  0  0  0  0  0  0
  -27.0410  -28.5659   23.1389 C   0  0  0  0  0  0  0  0  0  0  0  0
  -32.6099  -30.3285   19.5678 C   0  0  0  0  0  0  0  0  0  0  0  0
  -32.5511  -19.7609   18.1957 C   0  0  0  0  0  0  0  0  0  0  0  0
  -30.8031  -16.9022   21.8933 C   0  0  0  0  0  0  0  0  0  0  0  0
  -33.6575  -20.5783   18.8659 C   0  0  0  0  0  0  0  0  0  0  0  0
  -33.1856  -21.9398   19.3631 C   0  0  0  0  0  0  0  0  0  1  0  0
  -29.9757  -21.1721   18.0917 C   0  0  2  0  0  0  0  0  0  0  0  0
  -29.0753  -27.7077   21.9072 C   0  0  1  0  0  0  0  0  0  0  0  0
  -30.1212  -30.5370   19.6114 C   0  0  2  0  0  0  0  0  0  0  0  0
  -29.4334  -20.6797   16.7028 C   0  0  0  0  0  0  0  0  0  0  0  0
  -28.2385  -18.3170   21.7806 C   0  0  0  0  0  0  0  0  0  0  0  0
  -27.5737  -27.4483   22.2160 C   0  0  0  0  0  0  0  0  0  0  0  0
  -25.8597  -11.5445   20.2846 N   0  0  0  0  0  0  0  0  0  0  0  0
  -26.2346  -12.8285   20.1548 N   0  0  0  0  0  0  0  0  0  0  0  0
  -30.9491  -26.6901   23.1631 N   0  0  0  0  0  0  0  0  0  0  0  0
  -29.9695  -13.6140   20.3601 N   0  0  0  0  0  0  0  0  0  0  0  0
  -25.4652  -15.0551   20.4016 N   0  0  0  0  0  0  0  0  0  0  0  0
  -21.8849  -12.5767   21.5997 N   0  0  0  0  0  0  0  0  0  0  0  0
  -31.0434  -25.3833   26.4818 N   0  0  0  0  0  0  0  0  0  0  0  0
  -29.3418  -28.9963   21.2773 N   0  0  0  0  0  0  0  0  0  0  0  0
  -30.1395  -15.6792   21.5001 N   0  0  0  0  0  0  0  0  0  0  0  0
  -31.3780  -30.7069   18.8287 N   0  3  0  0  0  0  0  0  0  0  0  0
  -22.6572  -14.7173   21.3171 O   0  0  0  0  0  0  0  0  0  0  0  0
  -30.5033  -24.4112   24.4358 O   0  0  0  0  0  0  0  0  0  0  0  0
  -29.7188  -28.4533   24.0651 O   0  0  0  0  0  0  0  0  0  0  0  0
  -30.3523  -28.1439   19.3721 O   0  0  0  0  0  0  0  0  0  0  0  0
  -31.8745  -14.9272   20.2035 O   0  0  0  0  0  0  0  0  0  0  0  0
  -21.6198   -7.0132   21.7129 O   0  0  0  0  0  0  0  0  0  0  0  0
  -34.2929  -22.6222   19.9499 O   0  0  0  0  0  0  0  0  0  1  0  0
  -18.6334   -6.8544   26.3454 F   0  0  0  0  0  0  0  0  0  0  0  0
  -22.0748   -5.0719   23.6278 F   0  0  0  0  0  0  0  0  0  0  0  0
  -27.1151  -19.0708   21.5976 F   0  0  0  0  0  0  0  0  0  0  0  0
  -27.8258  -17.0224   21.6501 F   0  0  0  0  0  0  0  0  0  0  0  0
  -28.5716  -18.4663   23.0949 F   0  0  0  0  0  0  0  0  0  0  0  0
  1  2  1  0  0  0  0
  1  5  2  0  0  0  0
  2  6  2  0  0  0  0
  3  8  2  0  0  0  0
  3 17  1  0  0  0  0
  4  9  1  0  0  0  0
  4 17  2  0  0  0  0
  5 19  1  0  0  0  0
  6 21  1  0  0  0  0
  7 10  2  0  0  0  0
  7 20  1  0  0  0  0
  8 27  1  0  0  0  0
  9 27  2  0  0  0  0
 10 28  1  0  0  0  0
 11 12  2  0  0  0  0
 11 29  1  0  0  0  0
 12 30  1  0  0  0  0
 13 22  1  0  0  0  0
 13 28  2  0  0  0  0
 14 23  1  0  0  0  0
 14 24  2  0  0  0  0
 15 25  1  0  0  0  0
 15 26  2  0  0  0  0
 16 30  2  0  0  0  0
 16 31  1  0  0  0  0
 17 32  1  0  0  0  0
 18 32  1  0  0  0  0
 18 33  2  0  0  0  0
 18 34  1  0  0  0  0
 19 21  2  0  0  0  0
 19 39  1  0  0  0  0
 20 22  2  0  0  0  0
 20 40  1  0  0  0  0
 21 48  1  0  0  0  0
 22 41  1  0  0  0  0
 23 25  2  0  0  0  0
 23 59  1  0  0  0  0
 24 26  1  0  0  0  0
 24 60  1  0  0  0  0
 25 63  1  0  0  0  0
 26 67  1  0  0  0  0
 27 84  1  0  0  0  0
 28 85  1  0  0  0  0
 29 31  2  0  0  0  0
 29 84  1  0  0  0  0
 30 86  1  0  0  0  0
 31 87  1  0  0  0  0
 32 69  2  0  0  0  0
 33 70  1  0  0  0  0
 33 73  1  0  0  0  0
 34 74  1  0  0  0  0
 34 79  2  0  0  0  0
 35 49  1  0  0  0  0
 35 75  1  0  0  0  0
 35 80  2  0  0  0  0
 36 64  1  0  0  0  0
 36 71  1  0  0  0  0
 36 81  2  0  0  0  0
 37 65  1  0  0  0  0
 37 76  1  0  0  0  0
 37 82  2  0  0  0  0
 38 72  1  0  0  0  0
 38 77  1  0  0  0  0
 38 83  2  0  0  0  0
 39 42  1  0  0  0  0
 40 49  1  0  0  0  0
 41 71  1  0  0  0  0
 42 44  1  0  0  0  0
 43 45  1  0  0  0  0
 43 46  1  0  0  0  0
 44 48  1  0  0  0  0
 45 50  1  0  0  0  0
 46 72  1  0  0  0  0
 47 50  1  0  0  0  0
 47 72  1  0  0  0  0
 48 75  1  0  0  0  0
 49 71  1  0  0  0  0
 50 70  1  0  0  0  0
 51 63  1  0  0  0  0
 52 65  1  0  0  0  0
 53 66  1  0  0  0  0
 54 66  1  0  0  0  0
 55 68  1  0  0  0  0
 56 68  1  0  0  0  0
 57 68  1  0  0  0  0
 58 78  1  0  0  0  0
 59 61  1  0  0  0  0
 60 77  1  0  0  0  0
 61 62  1  0  0  0  0
 62 85  1  0  0  0  0
 63 66  1  0  0  0  0
 64 68  1  0  0  0  0
 64 76  1  0  0  0  0
 65 78  1  0  0  0  0
 67 88  1  0  0  0  0
 67 89  1  0  0  0  0
 67 90  1  0  0  0  0
 69 70  1  0  0  0  0
M  CHG  1  78   1
M  ISO  4  38 100  62 101  77 100  85 101
M  END
> <Batch ID>
0103

> <Smiles>
CNC(C)C(=O)NC(C(=O)N1Cc2cc([101O:1][101CH2:1]CCc3cc(C[100NH:0][100C:0](=O)N4CCCC(n5nc(-c6ccc(Oc7ccc(F)cc7F)cc6)c(C(N)=O)c5N)C4)c(C(F)(F)F)cc3C(C)C(C)C)ccc2CC1C(=O)NC1CCCc2ccccc21)C(C)(C)C

> <Shape>
0.225

> <Color>
0.192

> <Negative vol penalty>
0.000

$$$$

  -OEChem-04052319413D

 87 95  0     1  0  0  0  0  0999 V2000
  -18.0013  -12.0686   20.6606 C   0  0  0  0  0  0  0  0  0  0  0  0
  -18.5562  -13.2818   20.2662 C   0  0  0  0  0  0  0  0  0  0  0  0
  -22.0008  -28.6971   20.6342 C   0  0  0  0  0  0  0  0  0  0  0  0
  -22.7114  -26.6953   21.7851 C   0  0  0  0  0  0  0  0  0  0  0  0
  -18.6410  -11.2915   21.6254 C   0  0  0  0  0  0  0  0  0  0  0  0
  -19.7508  -13.7192   20.8373 C   0  0  0  0  0  0  0  0  0  0  0  0
  -25.6661  -17.4347   19.2497 C   0  0  0  0  0  0  0  0  0  0  0  0
  -20.7167  -28.5415   21.1563 C   0  0  0  0  0  0  0  0  0  0  0  0
  -21.4274  -26.5396   22.3073 C   0  0  0  0  0  0  0  0  0  0  0  0
  -26.4249  -18.5049   19.7216 C   0  0  0  0  0  0  0  0  0  0  0  0
  -17.3455  -28.8712   22.4759 C   0  0  0  0  0  0  0  0  0  0  0  0
  -16.7155  -30.0018   22.9960 C   0  0  0  0  0  0  0  0  0  0  0  0
  -29.5845  -24.1174   20.8918 C   0  0  0  0  0  0  0  0  0  0  0  0
  -27.4824  -17.0417   21.3216 C   0  0  0  0  0  0  0  0  0  0  0  0
  -18.4995  -30.2557   24.6054 C   0  0  0  0  0  0  0  0  0  0  0  0
  -30.3993  -25.2171   20.6762 C   0  0  0  0  0  0  0  0  0  0  0  0
  -22.9981  -27.7740   20.9486 C   0  0  0  0  0  0  0  0  0  0  0  0
  -25.3959  -28.6441   20.9833 C   0  0  0  0  0  0  0  0  0  0  0  0
  -19.8490  -11.7151   22.2016 C   0  0  0  0  0  0  0  0  0  0  0  0
  -25.8021  -16.1602   19.8185 C   0  0  0  0  0  0  0  0  0  0  0  0
  -20.4066  -12.9478   21.8117 C   0  0  0  0  0  0  0  0  0  0  0  0
  -26.7260  -15.9564   20.8533 C   0  0  0  0  0  0  0  0  0  0  0  0
  -29.4353  -23.2044   19.8538 C   0  0  0  0  0  0  0  0  0  0  0  0
  -30.0962  -23.4160   18.6489 C   0  0  0  0  0  0  0  0  0  0  0  0
  -20.4300  -27.4628   21.9928 C   0  0  0  0  0  0  0  0  0  0  0  0
  -27.3311  -18.3091   20.7596 C   0  0  0  0  0  0  0  0  0  0  0  0
  -18.5525  -28.4328   23.0206 C   0  0  0  0  0  0  0  0  0  0  0  0
  -17.2924  -30.6940   24.0607 C   0  0  0  0  0  0  0  0  0  0  0  0
  -19.1295  -29.1251   24.0853 C   0  0  0  0  0  0  0  0  0  0  0  0
  -24.3246  -27.9339   20.4091 C   0  0  0  0  0  0  0  0  0  0  0  0
  -30.8880  -24.5473   18.5337 C   0  0  0  0  0  0  0  0  0  0  0  0
  -26.4265  -28.4941   20.0879 C   0  0  0  0  0  0  0  0  0  0  0  0
  -25.4543  -29.3741   22.2160 C   0  0  0  0  0  0  0  0  0  0  0  0
  -23.8627  -14.1791   21.3733 C   0  0  0  0  0  0  0  0  0  0  0  0
  -26.3915  -12.1587   21.1596 C   0  0  0  0  0  0  0  0  0  0  0  0
  -29.7626  -11.7642   20.8036 C   0  0  0  0  0  0  0  0  0  0  0  0
  -27.6735  -24.3341   15.9659 C   0  0  0  0  0  0  0  0  0  0  0  0
  -20.4792  -10.8634   23.2750 C   0  0  0  0  0  0  0  0  0  0  0  0
  -24.9956  -15.0104   19.2801 C   0  0  0  0  0  0  0  0  0  0  0  0
  -26.9244  -14.6033   21.4843 C   0  0  0  0  0  0  0  0  0  0  0  0
  -21.9359  -11.2207   23.5590 C   0  0  0  0  0  0  0  0  0  0  0  0
  -27.2687  -27.8299   15.4252 C   0  0  0  0  0  0  0  0  0  0  0  0
  -22.0989  -12.7315   23.6919 C   0  0  0  0  0  0  0  0  0  0  0  0
  -26.5649  -28.3170   16.6930 C   0  0  0  0  0  0  0  0  0  0  0  0
  -26.7876  -26.4411   15.0108 C   0  0  0  0  0  0  0  0  0  0  0  0
  -26.1693  -25.9025   17.3349 C   0  0  0  0  0  0  0  0  0  0  0  0
  -21.7138  -13.4445   22.3900 C   0  0  1  0  0  0  0  0  0  0  0  0
  -24.8440  -13.8673   20.2790 C   0  0  1  0  0  0  0  0  0  0  0  0
  -26.6620  -27.2753   17.8238 C   0  0  2  0  0  0  0  0  0  0  0  0
  -31.6221  -24.8277   17.2633 C   0  0  0  0  0  0  0  0  0  0  0  0
  -31.5392   -9.9947   20.7038 C   0  0  0  0  0  0  0  0  0  0  0  0
  -27.1117  -20.2340   23.2373 C   0  0  0  0  0  0  0  0  0  0  0  0
  -26.2003  -11.7997   24.1836 C   0  0  0  0  0  0  0  0  0  0  0  0
  -28.5068  -10.8267   24.1439 C   0  0  0  0  0  0  0  0  0  0  0  0
  -26.6567   -9.6963   22.9101 C   0  0  0  0  0  0  0  0  0  0  0  0
  -30.5588  -12.5541   18.0648 C   0  0  0  0  0  0  0  0  0  0  0  0
  -30.7336  -20.2778   16.5895 C   0  0  0  0  0  0  0  0  0  0  0  0
  -31.7589  -21.1817   18.6709 C   0  0  0  0  0  0  0  0  0  0  0  0
  -28.5550  -21.9976   20.0590 C   0  0  0  0  0  0  0  0  0  0  0  0
  -28.1833  -21.7447   21.5274 C   0  0  0  0  0  0  0  0  0  0  0  0
  -28.4948  -22.2665   17.0658 C   0  0  0  0  0  0  0  0  0  0  0  0
  -29.9550  -22.4534   17.5181 C   0  0  2  0  0  0  0  0  0  0  0  0
  -27.6000  -11.8645   22.0150 C   0  0  1  0  0  0  0  0  0  0  0  0
  -30.5811  -10.8598   19.8999 C   0  0  2  0  0  0  0  0  0  0  0  0
  -27.3613  -20.4697   21.7530 C   0  0  1  0  0  0  0  0  0  1  0  0
  -27.2360  -11.0728   23.3028 C   0  0  0  0  0  0  0  0  0  0  0  0
  -31.0572  -25.4564   19.5198 N   0  0  0  0  0  0  0  0  0  0  0  0
  -24.6449  -27.3745   19.2393 N   0  0  0  0  0  0  0  0  0  0  0  0
  -25.9291  -27.7331   19.0712 N   0  0  0  0  0  0  0  0  0  0  0  0
  -26.1080  -13.5121   20.9274 N   0  0  0  0  0  0  0  0  0  0  0  0
  -26.9075  -25.5004   16.1273 N   0  0  0  0  0  0  0  0  0  0  0  0
  -27.7005  -28.9403   20.0788 N   0  0  0  0  0  0  0  0  0  0  0  0
  -24.3048  -29.4270   23.0162 N   0  0  0  0  0  0  0  0  0  0  0  0
  -22.7768  -13.3255   21.4151 N   0  0  0  0  0  0  0  0  0  0  0  0
  -28.5586  -11.1874   21.1483 N   0  0  0  0  0  0  0  0  0  0  0  0
  -27.7402  -23.4999   17.0752 N   0  0  0  0  0  0  0  0  0  0  0  0
  -31.3768  -11.6726   18.9370 N   0  3  0  0  0  0  0  0  0  0  0  0
  -30.5182  -21.0927   17.8312 N   0  3  0  0  0  0  0  0  0  0  0  0
  -26.4900  -29.9757   22.5887 O   0  0  0  0  0  0  0  0  0  0  0  0
  -24.0757  -15.1231   22.1250 O   0  0  0  0  0  0  0  0  0  0  0  0
  -25.7278  -11.2222   20.7079 O   0  0  0  0  0  0  0  0  0  0  0  0
  -30.1540  -12.8701   21.1702 O   0  0  0  0  0  0  0  0  0  0  0  0
  -28.2594  -24.0595   14.9132 O   0  0  0  0  0  0  0  0  0  0  0  0
  -19.1772  -27.3107   22.5027 O   0  0  0  0  0  0  0  0  0  0  0  0
  -28.0726  -19.3521   21.2226 O   0  0  0  0  0  0  0  0  0  1  0  0
  -16.6881  -31.7806   24.5590 F   0  0  0  0  0  0  0  0  0  0  0  0
  -20.2895  -28.7094   24.6120 F   0  0  0  0  0  0  0  0  0  0  0  0
  1  2  1  0  0  0  0
  1  5  2  0  0  0  0
  2  6  2  0  0  0  0
  3  8  2  0  0  0  0
  3 17  1  0  0  0  0
  4  9  1  0  0  0  0
  4 17  2  0  0  0  0
  5 19  1  0  0  0  0
  6 21  1  0  0  0  0
  7 10  2  0  0  0  0
  7 20  1  0  0  0  0
  8 25  1  0  0  0  0
  9 25  2  0  0  0  0
 10 26  1  0  0  0  0
 11 12  2  0  0  0  0
 11 27  1  0  0  0  0
 12 28  1  0  0  0  0
 13 16  2  0  0  0  0
 13 23  1  0  0  0  0
 14 22  1  0  0  0  0
 14 26  2  0  0  0  0
 15 28  2  0  0  0  0
 15 29  1  0  0  0  0
 16 67  1  0  0  0  0
 17 30  1  0  0  0  0
 18 30  1  0  0  0  0
 18 32  2  0  0  0  0
 18 33  1  0  0  0  0
 19 21  2  0  0  0  0
 19 38  1  0  0  0  0
 20 22  2  0  0  0  0
 20 39  1  0  0  0  0
 21 47  1  0  0  0  0
 22 40  1  0  0  0  0
 23 24  2  0  0  0  0
 23 59  1  0  0  0  0
 24 31  1  0  0  0  0
 24 62  1  0  0  0  0
 25 84  1  0  0  0  0
 26 85  1  0  0  0  0
 27 29  2  0  0  0  0
 27 84  1  0  0  0  0
 28 86  1  0  0  0  0
 29 87  1  0  0  0  0
 30 68  2  0  0  0  0
 31 50  1  0  0  0  0
 31 67  2  0  0  0  0
 32 69  1  0  0  0  0
 32 72  1  0  0  0  0
 33 73  1  0  0  0  0
 33 79  2  0  0  0  0
 34 48  1  0  0  0  0
 34 74  1  0  0  0  0
 34 80  2  0  0  0  0
 35 63  1  0  0  0  0
 35 70  1  0  0  0  0
 35 81  2  0  0  0  0
 36 64  1  0  0  0  0
 36 75  1  0  0  0  0
 36 82  2  0  0  0  0
 37 71  1  0  0  0  0
 37 76  1  0  0  0  0
 37 83  2  0  0  0  0
 38 41  1  0  0  0  0
 39 48  1  0  0  0  0
 40 70  1  0  0  0  0
 41 43  1  0  0  0  0
 42 44  1  0  0  0  0
 42 45  1  0  0  0  0
 43 47  1  0  0  0  0
 44 49  1  0  0  0  0
 45 71  1  0  0  0  0
 46 49  1  0  0  0  0
 46 71  1  0  0  0  0
 47 74  1  0  0  0  0
 48 70  1  0  0  0  0
 49 69  1  0  0  0  0
 51 64  1  0  0  0  0
 52 65  1  0  0  0  0
 53 66  1  0  0  0  0
 54 66  1  0  0  0  0
 55 66  1  0  0  0  0
 56 77  1  0  0  0  0
 57 78  1  0  0  0  0
 58 78  1  0  0  0  0
 59 60  1  0  0  0  0
 60 65  1  0  0  0  0
 61 62  1  0  0  0  0
 61 76  1  0  0  0  0
 62 78  1  0  0  0  0
 63 66  1  0  0  0  0
 63 75  1  0  0  0  0
 64 77  1  0  0  0  0
 65 85  1  0  0  0  0
 68 69  1  0  0  0  0
M  CHG  2  77   1  78   1
M  ISO  4  37 100  65 101  76 100  85 101
M  END
> <Batch ID>
0103

> <Smiles>
CNC(C)C(=O)NC(C(=O)N1Cc2cc([101O:1][101CH:1](C)CCc3ccnc(C)c3C(C[100NH:0][100C:0](=O)N3CCCC(n4nc(-c5ccc(Oc6ccc(F)cc6F)cc5)c(C(N)=O)c4N)C3)N(C)C)ccc2CC1C(=O)NC1CCCc2ccccc21)C(C)(C)C

> <Shape>
0.272

> <Color>
0.067

> <Negative vol penalty>
0.000

$$$$

  -OEChem-04052319413D

 81 89  0     1  0  0  0  0  0999 V2000
  -18.5736  -23.0132   21.0530 C   0  0  0  0  0  0  0  0  0  0  0  0
  -19.8411  -22.4408   21.0181 C   0  0  0  0  0  0  0  0  0  0  0  0
  -26.7614  -13.8308   21.9562 C   0  0  0  0  0  0  0  0  0  0  0  0
  -26.6545  -13.2267   19.6193 C   0  0  0  0  0  0  0  0  0  0  0  0
  -18.3994  -24.3424   20.6699 C   0  0  0  0  0  0  0  0  0  0  0  0
  -20.9351  -23.1971   20.5990 C   0  0  0  0  0  0  0  0  0  0  0  0
  -27.9595  -23.9771   21.7675 C   0  0  0  0  0  0  0  0  0  0  0  0
  -26.1341  -12.6319   22.2948 C   0  0  0  0  0  0  0  0  0  0  0  0
  -26.0272  -12.0278   19.9580 C   0  0  0  0  0  0  0  0  0  0  0  0
  -29.1686  -24.0180   21.0746 C   0  0  0  0  0  0  0  0  0  0  0  0
  -22.9950  -11.3788   22.3006 C   0  0  0  0  0  0  0  0  0  0  0  0
  -21.9625  -11.4304   23.2370 C   0  0  0  0  0  0  0  0  0  0  0  0
  -28.7608  -26.3279   20.5114 C   0  0  0  0  0  0  0  0  0  0  0  0
  -30.3291  -23.9046   16.3663 C   0  0  0  0  0  0  0  0  0  0  0  0
  -23.2010   -9.9445   24.6846 C   0  0  0  0  0  0  0  0  0  0  0  0
  -32.2213  -23.0715   17.2582 C   0  0  0  0  0  0  0  0  0  0  0  0
  -27.0216  -14.1283   20.6184 C   0  0  0  0  0  0  0  0  0  0  0  0
  -29.0523  -15.5978   20.1447 C   0  0  0  0  0  0  0  0  0  0  0  0
  -19.4933  -25.1182   20.2551 C   0  0  0  0  0  0  0  0  0  0  0  0
  -27.1354  -25.1101   21.8285 C   0  0  0  0  0  0  0  0  0  0  0  0
  -20.7751  -24.5376   20.2087 C   0  0  0  0  0  0  0  0  0  0  0  0
  -27.5429  -26.2996   21.2079 C   0  0  0  0  0  0  0  0  0  0  0  0
  -31.4898  -24.2293   17.1110 C   0  0  0  0  0  0  0  0  0  0  0  0
  -25.7670  -11.7304   21.2958 C   0  0  0  0  0  0  0  0  0  0  0  0
  -29.5681  -25.1927   20.4439 C   0  0  0  0  0  0  0  0  0  0  0  0
  -24.1305  -10.6099   22.5562 C   0  0  0  0  0  0  0  0  0  0  0  0
  -22.0655  -10.7133   24.4290 C   0  0  0  0  0  0  0  0  0  0  0  0
  -24.2335   -9.8928   23.7481 C   0  0  0  0  0  0  0  0  0  0  0  0
  -27.6691  -15.3668   20.2679 C   0  0  0  0  0  0  0  0  0  0  0  0
  -30.3866  -22.5581   16.0814 C   0  0  0  0  0  0  0  0  0  0  0  0
  -29.1495  -16.9229   19.7968 C   0  0  0  0  0  0  0  0  0  0  0  0
  -30.1511  -14.6952   20.3283 C   0  0  0  0  0  0  0  0  0  0  0  0
  -24.1891  -25.7959   20.8524 C   0  0  0  0  0  0  0  0  0  0  0  0
  -24.7250  -28.5690   22.4477 C   0  0  0  0  0  0  0  0  0  0  0  0
  -26.9817  -30.8141   23.6781 C   0  0  0  0  0  0  0  0  0  0  0  0
  -27.4576  -21.2973   16.7722 C   0  0  0  0  0  0  0  0  0  0  0  0
  -19.2482  -26.5368   19.8053 C   0  0  0  0  0  0  0  0  0  0  0  0
  -25.8468  -25.0575   22.6025 C   0  0  0  0  0  0  0  0  0  0  0  0
  -26.7041  -27.5494   21.2607 C   0  0  0  0  0  0  0  0  0  0  0  0
  -20.5184  -27.3802   19.7310 C   0  0  0  0  0  0  0  0  0  0  0  0
  -25.6567  -20.5815   19.7591 C   0  0  0  0  0  0  0  0  0  0  0  0
  -21.6283  -26.6124   19.0200 C   0  0  0  0  0  0  0  0  0  0  0  0
  -26.1290  -19.1784   20.1437 C   0  0  0  0  0  0  0  0  0  0  0  0
  -25.5440  -20.7438   18.2448 C   0  0  0  0  0  0  0  0  0  0  0  0
  -27.2349  -18.9891   17.8765 C   0  0  0  0  0  0  0  0  0  0  0  0
  -21.9904  -25.3329   19.7836 C   0  0  1  0  0  0  0  0  0  0  0  0
  -24.8435  -26.1204   22.1655 C   0  0  1  0  0  0  0  0  0  0  0  0
  -27.4175  -18.7947   19.3915 C   0  0  2  0  0  0  0  0  0  0  0  0
  -32.0624  -26.6043   16.5084 C   0  0  0  0  0  0  0  0  0  0  0  0
  -27.1181  -33.0014   24.9006 C   0  0  0  0  0  0  0  0  0  0  0  0
  -23.9523  -30.0436   19.8907 C   0  0  0  0  0  0  0  0  0  0  0  0
  -25.0009  -32.1065   20.8462 C   0  0  0  0  0  0  0  0  0  0  0  0
  -23.0499  -31.0559   21.9920 C   0  0  0  0  0  0  0  0  0  0  0  0
  -31.9885  -20.6881   16.5616 C   0  0  0  0  0  0  0  0  0  0  0  0
  -28.4486  -29.5915   25.9392 C   0  0  0  0  0  0  0  0  0  0  0  0
  -29.4385  -21.7060   15.3342 C   0  0  0  0  0  0  0  0  0  0  0  0
  -30.8256  -26.1251   18.6536 C   0  0  0  0  0  0  0  0  0  1  0  0
  -31.8612  -25.6023   17.6487 C   0  0  1  0  0  0  0  0  0  0  0  0
  -25.3043  -29.9154   22.0865 C   0  0  1  0  0  0  0  0  0  0  0  0
  -27.0965  -31.4866   25.0342 C   0  0  2  0  0  0  0  0  0  0  0  0
  -24.3420  -30.7564   21.2010 C   0  0  0  0  0  0  0  0  0  0  0  0
  -26.9399  -16.4578   20.0187 N   0  0  0  0  0  0  0  0  0  0  0  0
  -31.5409  -22.0620   16.6287 N   0  0  0  0  0  0  0  0  0  0  0  0
  -27.8685  -17.3871   19.7355 N   0  0  0  0  0  0  0  0  0  0  0  0
  -25.4497  -27.4458   22.0245 N   0  0  0  0  0  0  0  0  0  0  0  0
  -26.7994  -20.3654   17.5917 N   0  0  0  0  0  0  0  0  0  0  0  0
  -30.2049  -17.7247   19.5406 N   0  0  0  0  0  0  0  0  0  0  0  0
  -29.8735  -13.3685   20.6847 N   0  0  0  0  0  0  0  0  0  0  0  0
  -22.8177  -25.6450   20.9293 N   0  0  0  0  0  0  0  0  0  0  0  0
  -25.6688  -30.5543   23.3464 N   0  0  0  0  0  0  0  0  0  0  0  0
  -28.6442  -20.8598   16.1967 N   0  0  0  0  0  0  0  0  0  0  0  0
  -28.3476  -31.0575   25.7210 N   0  3  0  0  0  0  0  0  0  0  0  0
  -31.3444  -15.0587   20.1966 O   0  0  0  0  0  0  0  0  0  0  0  0
  -24.8773  -25.6917   19.8438 O   0  0  0  0  0  0  0  0  0  0  0  0
  -23.6721  -28.5158   23.0883 O   0  0  0  0  0  0  0  0  0  0  0  0
  -27.9587  -30.5492   22.9811 O   0  0  0  0  0  0  0  0  0  0  0  0
  -27.0228  -22.4366   16.5729 O   0  0  0  0  0  0  0  0  0  0  0  0
  -25.1551  -10.5603   21.6259 O   0  0  0  0  0  0  0  0  0  0  0  0
  -30.7475  -25.2351   19.7664 O   0  0  0  0  0  0  0  0  0  1  0  0
  -21.0745  -10.7642   25.3288 F   0  0  0  0  0  0  0  0  0  0  0  0
  -25.3224   -9.1534   23.9998 F   0  0  0  0  0  0  0  0  0  0  0  0
  1  2  1  0  0  0  0
  1  5  2  0  0  0  0
  2  6  2  0  0  0  0
  3  8  2  0  0  0  0
  3 17  1  0  0  0  0
  4  9  1  0  0  0  0
  4 17  2  0  0  0  0
  5 19  1  0  0  0  0
  6 21  1  0  0  0  0
  7 10  2  0  0  0  0
  7 20  1  0  0  0  0
  8 24  1  0  0  0  0
  9 24  2  0  0  0  0
 10 25  1  0  0  0  0
 11 12  2  0  0  0  0
 11 26  1  0  0  0  0
 12 27  1  0  0  0  0
 13 22  1  0  0  0  0
 13 25  2  0  0  0  0
 14 23  1  0  0  0  0
 14 30  2  0  0  0  0
 15 27  2  0  0  0  0
 15 28  1  0  0  0  0
 16 23  2  0  0  0  0
 16 63  1  0  0  0  0
 17 29  1  0  0  0  0
 18 29  1  0  0  0  0
 18 31  2  0  0  0  0
 18 32  1  0  0  0  0
 19 21  2  0  0  0  0
 19 37  1  0  0  0  0
 20 22  2  0  0  0  0
 20 38  1  0  0  0  0
 21 46  1  0  0  0  0
 22 39  1  0  0  0  0
 23 58  1  0  0  0  0
 24 78  1  0  0  0  0
 25 79  1  0  0  0  0
 26 28  2  0  0  0  0
 26 78  1  0  0  0  0
 27 80  1  0  0  0  0
 28 81  1  0  0  0  0
 29 62  2  0  0  0  0
 30 56  1  0  0  0  0
 30 63  1  0  0  0  0
 31 64  1  0  0  0  0
 31 67  1  0  0  0  0
 32 68  1  0  0  0  0
 32 73  2  0  0  0  0
 33 47  1  0  0  0  0
 33 69  1  0  0  0  0
 33 74  2  0  0  0  0
 34 59  1  0  0  0  0
 34 65  1  0  0  0  0
 34 75  2  0  0  0  0
 35 60  1  0  0  0  0
 35 70  1  0  0  0  0
 35 76  2  0  0  0  0
 36 66  1  0  0  0  0
 36 71  1  0  0  0  0
 36 77  2  0  0  0  0
 37 40  1  0  0  0  0
 38 47  1  0  0  0  0
 39 65  1  0  0  0  0
 40 42  1  0  0  0  0
 41 43  1  0  0  0  0
 41 44  1  0  0  0  0
 42 46  1  0  0  0  0
 43 48  1  0  0  0  0
 44 66  1  0  0  0  0
 45 48  1  0  0  0  0
 45 66  1  0  0  0  0
 46 69  1  0  0  0  0
 47 65  1  0  0  0  0
 48 64  1  0  0  0  0
 49 58  1  0  0  0  0
 50 60  1  0  0  0  0
 51 61  1  0  0  0  0
 52 61  1  0  0  0  0
 53 61  1  0  0  0  0
 54 63  1  0  0  0  0
 55 72  1  0  0  0  0
 56 71  1  0  0  0  0
 57 58  1  0  0  0  0
 57 79  1  0  0  0  0
 59 61  1  0  0  0  0
 59 70  1  0  0  0  0
 60 72  1  0  0  0  0
 62 64  1  0  0  0  0
M  CHG  1  72   1
M  ISO  4  36 100  57 101  71 100  79 101
M  END
> <Batch ID>
0103

> <Smiles>
CNC(C)C(=O)NC(C(=O)N1Cc2cc([101O:1][101CH2:1]C(C)c3cc(C[100NH:0][100C:0](=O)N4CCCC(n5nc(-c6ccc(Oc7ccc(F)cc7F)cc6)c(C(N)=O)c5N)C4)n(C)c3)ccc2CC1C(=O)NC1CCCc2ccccc21)C(C)(C)C

> <Shape>
0.211

> <Color>
0.069

> <Negative vol penalty>
0.000

$$$$

  -OEChem-04052319413D

 86 94  0     1  0  0  0  0  0999 V2000
  -28.8754  -33.7315   24.2735 C   0  0  0  0  0  0  0  0  0  0  0  0
  -28.7685  -32.3897   23.9220 C   0  0  0  0  0  0  0  0  0  0  0  0
  -26.9708  -14.9969   19.8137 C   0  0  0  0  0  0  0  0  0  0  0  0
  -26.0999  -14.8524   22.0627 C   0  0  0  0  0  0  0  0  0  0  0  0
  -27.7428  -34.4375   24.6770 C   0  0  0  0  0  0  0  0  0  0  0  0
  -27.5292  -31.7528   23.9748 C   0  0  0  0  0  0  0  0  0  0  0  0
  -26.6327  -28.9043   19.8850 C   0  0  0  0  0  0  0  0  0  0  0  0
  -26.7110  -13.6394   19.6259 C   0  0  0  0  0  0  0  0  0  0  0  0
  -25.8401  -13.4948   21.8748 C   0  0  0  0  0  0  0  0  0  0  0  0
  -27.2609  -27.6611   19.8247 C   0  0  0  0  0  0  0  0  0  0  0  0
  -23.4881  -11.5965   20.3633 C   0  0  0  0  0  0  0  0  0  0  0  0
  -22.2535  -11.1091   20.7920 C   0  0  0  0  0  0  0  0  0  0  0  0
  -25.2202  -26.6014   20.5539 C   0  0  0  0  0  0  0  0  0  0  0  0
  -23.3765   -9.5853   22.2934 C   0  0  0  0  0  0  0  0  0  0  0  0
  -26.6652  -15.6034   21.0322 C   0  0  0  0  0  0  0  0  0  0  0  0
  -26.0669  -18.0822   20.9606 C   0  0  0  0  0  0  0  0  0  0  0  0
  -26.4873  -33.8115   24.7256 C   0  0  0  0  0  0  0  0  0  0  0  0
  -25.2945  -29.0066   20.2913 C   0  0  0  0  0  0  0  0  0  0  0  0
  -26.3790  -32.4508   24.3807 C   0  0  0  0  0  0  0  0  0  0  0  0
  -24.5766  -27.8467   20.6160 C   0  0  0  0  0  0  0  0  0  0  0  0
  -26.1456  -12.8883   20.6564 C   0  0  0  0  0  0  0  0  0  0  0  0
  -26.5555  -26.5097   20.1620 C   0  0  0  0  0  0  0  0  0  0  0  0
  -24.6669  -11.0782   20.8995 C   0  0  0  0  0  0  0  0  0  0  0  0
  -22.1977  -10.1035   21.7571 C   0  0  0  0  0  0  0  0  0  0  0  0
  -24.6111  -10.0727   21.8646 C   0  0  0  0  0  0  0  0  0  0  0  0
  -26.9339  -17.0055   21.2270 C   0  0  0  0  0  0  0  0  0  0  0  0
  -26.7869  -19.1978   21.3120 C   0  0  0  0  0  0  0  0  0  0  0  0
  -24.7302  -18.0746   20.4421 C   0  0  0  0  0  0  0  0  0  0  0  0
  -23.7843  -30.4257   22.7015 C   0  0  0  0  0  0  0  0  0  0  0  0
  -21.1352  -29.4410   21.1095 C   0  0  0  0  0  0  0  0  0  0  0  0
  -19.7294  -27.2549   18.8978 C   0  0  0  0  0  0  0  0  0  0  0  0
  -32.4932  -20.7784   21.0378 C   0  0  0  0  0  0  0  0  0  0  0  0
  -25.2999  -34.6032   25.2135 C   0  0  0  0  0  0  0  0  0  0  0  0
  -24.6234  -30.3523   20.3253 C   0  0  0  0  0  0  0  0  0  0  0  0
  -23.1320  -27.9005   21.0389 C   0  0  0  0  0  0  0  0  0  0  0  0
  -23.9581  -33.9545   24.8830 C   0  0  0  0  0  0  0  0  0  0  0  0
  -30.6890  -20.0824   24.1987 C   0  0  0  0  0  0  0  0  0  0  0  0
  -23.9849  -32.4683   25.2254 C   0  0  0  0  0  0  0  0  0  0  0  0
  -29.4987  -19.2511   23.7235 C   0  0  0  0  0  0  0  0  0  0  0  0
  -31.8929  -19.9270   23.2749 C   0  0  0  0  0  0  0  0  0  0  0  0
  -33.1149  -20.9974   18.6519 C   0  0  0  0  0  0  0  0  0  0  0  0
  -30.4052  -19.3985   21.3697 C   0  0  0  0  0  0  0  0  0  0  0  0
  -30.8218  -21.6077   19.3202 C   0  0  0  0  0  0  0  0  0  0  0  0
  -33.3661  -22.3884   18.0928 C   0  0  0  0  0  0  0  0  0  0  0  0
  -25.0477  -31.7315   24.4014 C   0  0  1  0  0  0  0  0  0  0  0  0
  -23.4085  -30.3910   21.2472 C   0  0  1  0  0  0  0  0  0  0  0  0
  -29.1616  -19.5664   22.2560 C   0  0  1  0  0  0  0  0  0  0  0  0
  -30.9999  -23.0324   18.7743 C   0  0  1  0  0  0  0  0  0  0  0  0
  -17.5360  -26.6752   17.8253 C   0  0  0  0  0  0  0  0  0  0  0  0
  -28.2865  -23.6481   22.2578 C   0  0  0  0  0  0  0  0  0  0  0  0
  -30.8681  -24.8662   16.6006 C   0  0  0  0  0  0  0  0  0  0  0  0
  -33.1077  -24.0816   15.7388 C   0  0  0  0  0  0  0  0  0  0  0  0
  -20.2155  -28.1283   23.7058 C   0  0  0  0  0  0  0  0  0  0  0  0
  -18.5641  -26.8034   22.3694 C   0  0  0  0  0  0  0  0  0  0  0  0
  -18.4080  -29.2924   22.4281 C   0  0  0  0  0  0  0  0  0  0  0  0
  -20.7819  -27.7919   16.1843 C   0  0  0  0  0  0  0  0  0  0  0  0
  -31.8142  -26.3232   20.1400 C   0  0  0  0  0  0  0  0  0  0  0  0
  -30.5252  -23.7826   21.1336 C   0  0  0  0  0  0  0  0  0  0  0  0
  -28.5706  -25.2601   20.3464 C   0  0  0  0  0  0  0  0  0  1  0  0
  -20.2784  -28.1982   21.1256 C   0  0  1  0  0  0  0  0  0  0  0  0
  -18.8224  -27.4766   17.7008 C   0  0  2  0  0  0  0  0  0  0  0  0
  -31.3577  -24.0334   19.8726 C   0  0  2  0  0  0  0  0  0  0  0  0
  -28.9991  -23.9047   20.9240 C   0  0  2  0  0  0  0  0  0  0  0  0
  -32.2370  -24.3133   16.9632 C   0  0  0  0  0  0  0  0  0  0  0  0
  -19.3943  -28.1044   22.4011 C   0  0  0  0  0  0  0  0  0  0  0  0
  -28.1145  -17.4015   21.7101 N   0  0  0  0  0  0  0  0  0  0  0  0
  -27.9944  -18.7394   21.7501 N   0  0  0  0  0  0  0  0  0  0  0  0
  -22.5220  -29.2403   21.0625 N   0  0  0  0  0  0  0  0  0  0  0  0
  -31.5372  -20.1871   21.8799 N   0  0  0  0  0  0  0  0  0  0  0  0
  -32.1085  -21.0178   19.7101 N   0  0  0  0  0  0  0  0  0  0  0  0
  -26.4986  -20.5164   21.2859 N   0  0  0  0  0  0  0  0  0  0  0  0
  -24.1403  -16.8412   20.1336 N   0  0  0  0  0  0  0  0  0  0  0  0
  -24.5739  -31.5039   23.0530 N   0  0  0  0  0  0  0  0  0  0  0  0
  -19.5256  -28.2051   19.8760 N   0  0  0  0  0  0  0  0  0  0  0  0
  -32.0484  -22.9987   17.6702 N   0  3  1  0  0  0  0  0  0  0  0  0
  -19.5122  -27.0661   16.4452 N   0  3  0  0  0  0  0  0  0  0  0  0
  -24.0843  -19.1311   20.2423 O   0  0  0  0  0  0  0  0  0  0  0  0
  -23.3862  -29.5406   23.4497 O   0  0  0  0  0  0  0  0  0  0  0  0
  -20.5937  -30.5491   21.1303 O   0  0  0  0  0  0  0  0  0  0  0  0
  -20.5353  -26.3290   18.9605 O   0  0  0  0  0  0  0  0  0  0  0  0
  -33.6199  -21.0803   21.4508 O   0  0  0  0  0  0  0  0  0  0  0  0
  -25.8918  -11.5637   20.4734 O   0  0  0  0  0  0  0  0  0  0  0  0
  -27.1711  -25.2860   20.1043 O   0  0  0  0  0  0  0  0  0  1  0  0
  -31.1028  -25.3478   19.3912 O   0  0  0  0  0  0  0  0  0  0  0  0
  -21.0120   -9.6366   22.1699 F   0  0  0  0  0  0  0  0  0  0  0  0
  -25.7401   -9.5718   22.3844 F   0  0  0  0  0  0  0  0  0  0  0  0
  1  2  1  0  0  0  0
  1  5  2  0  0  0  0
  2  6  2  0  0  0  0
  3  8  2  0  0  0  0
  3 15  1  0  0  0  0
  4  9  1  0  0  0  0
  4 15  2  0  0  0  0
  5 17  1  0  0  0  0
  6 19  1  0  0  0  0
  7 10  2  0  0  0  0
  7 18  1  0  0  0  0
  8 21  1  0  0  0  0
  9 21  2  0  0  0  0
 10 22  1  0  0  0  0
 11 12  2  0  0  0  0
 11 23  1  0  0  0  0
 12 24  1  0  0  0  0
 13 20  1  0  0  0  0
 13 22  2  0  0  0  0
 14 24  2  0  0  0  0
 14 25  1  0  0  0  0
 15 26  1  0  0  0  0
 16 26  1  0  0  0  0
 16 27  2  0  0  0  0
 16 28  1  0  0  0  0
 17 19  2  0  0  0  0
 17 33  1  0  0  0  0
 18 20  2  0  0  0  0
 18 34  1  0  0  0  0
 19 45  1  0  0  0  0
 20 35  1  0  0  0  0
 21 82  1  0  0  0  0
 22 83  1  0  0  0  0
 23 25  2  0  0  0  0
 23 82  1  0  0  0  0
 24 85  1  0  0  0  0
 25 86  1  0  0  0  0
 26 66  2  0  0  0  0
 27 67  1  0  0  0  0
 27 71  1  0  0  0  0
 28 72  1  0  0  0  0
 28 77  2  0  0  0  0
 29 46  1  0  0  0  0
 29 73  1  0  0  0  0
 29 78  2  0  0  0  0
 30 60  1  0  0  0  0
 30 68  1  0  0  0  0
 30 79  2  0  0  0  0
 31 61  1  0  0  0  0
 31 74  1  0  0  0  0
 31 80  2  0  0  0  0
 32 69  1  0  0  0  0
 32 70  1  0  0  0  0
 32 81  2  0  0  0  0
 33 36  1  0  0  0  0
 34 46  1  0  0  0  0
 35 68  1  0  0  0  0
 36 38  1  0  0  0  0
 37 39  1  0  0  0  0
 37 40  1  0  0  0  0
 38 45  1  0  0  0  0
 39 47  1  0  0  0  0
 40 69  1  0  0  0  0
 41 44  1  0  0  0  0
 41 70  1  0  0  0  0
 42 47  1  0  0  0  0
 42 69  1  0  0  0  0
 43 48  1  0  0  0  0
 43 70  1  0  0  0  0
 44 75  1  0  0  0  0
 45 73  1  0  0  0  0
 46 68  1  0  0  0  0
 47 67  1  0  0  0  0
 48 62  1  0  0  0  0
 48 75  1  0  0  0  0
 49 61  1  0  0  0  0
 50 63  1  0  0  0  0
 51 64  1  0  0  0  0
 52 64  1  0  0  0  0
 53 65  1  0  0  0  0
 54 65  1  0  0  0  0
 55 65  1  0  0  0  0
 56 76  1  0  0  0  0
 57 84  1  0  0  0  0
 58 62  1  0  0  0  0
 58 63  1  0  0  0  0
 59 63  1  0  0  0  0
 59 83  1  0  0  0  0
 60 65  1  0  0  0  0
 60 74  1  0  0  0  0
 61 76  1  0  0  0  0
 62 84  1  0  0  0  0
 64 75  1  0  0  0  0
 66 67  1  0  0  0  0
M  CHG  2  75   1  76   1
M  ISO  4  32 100  59 101  70 100  83 101
M  END
> <Batch ID>
0103

> <Smiles>
CNC(C)C(=O)NC(C(=O)N1Cc2cc([101O:1][101CH2:1]C(C)CC(OC)C3C[100N:0]([100C:0](=O)N4CCCC(n5nc(-c6ccc(Oc7ccc(F)cc7F)cc6)c(C(N)=O)c5N)C4)CCN3C(C)C)ccc2CC1C(=O)NC1CCCc2ccccc21)C(C)(C)C

> <Shape>
0.266

> <Color>
0.066

> <Negative vol penalty>
0.000

$$$$

  -OEChem-04052319413D

 84 91  0     1  0  0  0  0  0999 V2000
  -17.9623  -24.1909   22.5161 C   0  0  0  0  0  0  0  0  0  0  0  0
  -18.6498  -24.1511   21.3073 C   0  0  0  0  0  0  0  0  0  0  0  0
  -25.0857  -16.2901   21.5283 C   0  0  0  0  0  0  0  0  0  0  0  0
  -25.1003  -15.9026   19.1436 C   0  0  0  0  0  0  0  0  0  0  0  0
  -18.0553  -25.3171   23.3328 C   0  0  0  0  0  0  0  0  0  0  0  0
  -19.4298  -25.2379   20.9140 C   0  0  0  0  0  0  0  0  0  0  0  0
  -23.9431  -23.8333   19.0967 C   0  0  0  0  0  0  0  0  0  0  0  0
  -23.9153  -15.5399   21.6431 C   0  0  0  0  0  0  0  0  0  0  0  0
  -23.9299  -15.1524   19.2584 C   0  0  0  0  0  0  0  0  0  0  0  0
  -23.9798  -23.3440   17.7917 C   0  0  0  0  0  0  0  0  0  0  0  0
  -21.1223  -13.4254   22.6142 C   0  0  0  0  0  0  0  0  0  0  0  0
  -21.0474  -12.4950   23.6507 C   0  0  0  0  0  0  0  0  0  0  0  0
  -24.7490  -25.4939   17.0136 C   0  0  0  0  0  0  0  0  0  0  0  0
  -22.9720  -11.3417   22.7546 C   0  0  0  0  0  0  0  0  0  0  0  0
  -25.6781  -16.4714   20.2786 C   0  0  0  0  0  0  0  0  0  0  0  0
  -28.2107  -16.7757   20.2437 C   0  0  0  0  0  0  0  0  0  0  0  0
  -18.8446  -26.4144   22.9538 C   0  0  0  0  0  0  0  0  0  0  0  0
  -24.2992  -25.1621   19.3689 C   0  0  0  0  0  0  0  0  0  0  0  0
  -19.5324  -26.3803   21.7257 C   0  0  0  0  0  0  0  0  0  0  0  0
  -24.7184  -25.9969   18.3232 C   0  0  0  0  0  0  0  0  0  0  0  0
  -23.3375  -14.9711   20.5081 C   0  0  0  0  0  0  0  0  0  0  0  0
  -24.3800  -24.1751   16.7495 C   0  0  0  0  0  0  0  0  0  0  0  0
  -22.1220  -13.3139   21.6478 C   0  0  0  0  0  0  0  0  0  0  0  0
  -21.9722  -11.4532   23.7209 C   0  0  0  0  0  0  0  0  0  0  0  0
  -23.0469  -12.2720   21.7180 C   0  0  0  0  0  0  0  0  0  0  0  0
  -26.8868  -17.2467   20.1593 C   0  0  0  0  0  0  0  0  0  0  0  0
  -28.9856  -17.8956   20.0657 C   0  0  0  0  0  0  0  0  0  0  0  0
  -28.6966  -15.4447   20.4634 C   0  0  0  0  0  0  0  0  0  0  0  0
  -22.7889  -27.6883   20.5692 C   0  0  0  0  0  0  0  0  0  0  0  0
  -25.7349  -29.0367   20.4101 C   0  0  0  0  0  0  0  0  0  0  0  0
  -27.4423  -16.4506   14.7554 C   0  0  0  0  0  0  0  0  0  0  0  0
  -28.8315  -29.0716   18.9761 C   0  0  0  0  0  0  0  0  0  0  0  0
  -28.0137  -23.1343   17.3340 C   0  0  0  0  0  0  0  0  0  0  0  0
  -18.8766  -27.6288   23.8476 C   0  0  0  0  0  0  0  0  0  0  0  0
  -24.2799  -25.6669   20.7856 C   0  0  0  0  0  0  0  0  0  0  0  0
  -25.1302  -27.4253   18.5653 C   0  0  0  0  0  0  0  0  0  0  0  0
  -20.0234  -28.5861   23.5336 C   0  0  0  0  0  0  0  0  0  0  0  0
  -28.9311  -22.6323   20.7374 C   0  0  0  0  0  0  0  0  0  0  0  0
  -20.1174  -28.8320   22.0310 C   0  0  0  0  0  0  0  0  0  0  0  0
  -28.6307  -21.1526   20.9828 C   0  0  0  0  0  0  0  0  0  0  0  0
  -27.9034  -23.2698   19.8051 C   0  0  0  0  0  0  0  0  0  0  0  0
  -27.4125  -21.0893   18.7668 C   0  0  0  0  0  0  0  0  0  0  0  0
  -20.4086  -27.5294   21.2761 C   0  0  1  0  0  0  0  0  0  0  0  0
  -24.1711  -27.1858   20.8772 C   0  0  1  0  0  0  0  0  0  0  0  0
  -28.4537  -20.3890   19.6566 C   0  0  2  0  0  0  0  0  0  0  0  0
  -31.0115  -30.3137   19.0257 C   0  0  0  0  0  0  0  0  0  0  0  0
  -25.5519  -21.9525   11.7058 C   0  0  0  0  0  0  0  0  0  0  0  0
  -24.4677  -31.3191   18.8306 C   0  0  0  0  0  0  0  0  0  0  0  0
  -26.7656  -32.0033   18.1098 C   0  0  0  0  0  0  0  0  0  0  0  0
  -26.1571  -32.0377   20.5287 C   0  0  0  0  0  0  0  0  0  0  0  0
  -30.3235  -26.6536   19.8044 C   0  0  0  0  0  0  0  0  0  0  0  0
  -26.8711  -17.4568   13.7757 C   0  0  0  0  0  0  0  0  0  0  0  0
  -26.9154  -18.8841   14.3152 C   0  0  0  0  0  0  0  0  0  0  0  0
  -24.1265  -22.0169   13.7901 C   0  0  0  0  0  0  0  0  0  0  0  0
  -28.0977  -22.8379   14.8715 C   0  0  0  0  0  0  0  0  0  0  0  0
  -26.3738  -19.8722   13.2935 C   0  0  0  0  0  0  0  0  0  0  0  0
  -27.9012  -21.7692   13.8125 C   0  0  0  0  0  0  0  0  0  0  0  0
  -24.0307  -22.3405   15.2771 C   0  0  0  0  0  0  0  0  0  1  0  0
  -26.4983  -29.8177   19.3679 C   0  0  1  0  0  0  0  0  0  0  0  0
  -30.2216  -29.1393   19.5823 C   0  0  2  0  0  0  0  0  0  0  0  0
  -25.5270  -22.2125   13.2062 C   0  0  1  0  0  0  0  0  0  0  0  0
  -25.9626  -31.2681   19.2041 C   0  0  0  0  0  0  0  0  0  0  0  0
  -26.8207  -18.5633   19.9445 N   0  0  0  0  0  0  0  0  0  0  0  0
  -28.1128  -18.9292   19.8925 N   0  0  0  0  0  0  0  0  0  0  0  0
  -25.0884  -27.8742   19.9668 N   0  0  0  0  0  0  0  0  0  0  0  0
  -27.7846  -22.4985   18.5654 N   0  0  0  0  0  0  0  0  0  0  0  0
  -30.3217  -18.0872   20.0420 N   0  0  0  0  0  0  0  0  0  0  0  0
  -27.7638  -14.4114   20.6264 N   0  0  0  0  0  0  0  0  0  0  0  0
  -27.4015  -15.1624   14.2664 N   0  0  0  0  0  0  0  0  0  0  0  0
  -21.8071  -27.1773   21.3965 N   0  0  0  0  0  0  0  0  0  0  0  0
  -27.9046  -29.7395   19.7480 N   0  0  0  0  0  0  0  0  0  0  0  0
  -27.8866  -22.3295   16.2085 N   0  0  0  0  0  0  0  0  0  0  0  0
  -30.9749  -27.8866   19.2922 N   0  3  0  0  0  0  0  0  0  0  0  0
  -26.4807  -21.2678   13.8516 N   0  3  1  0  0  0  0  0  0  0  0  0
  -29.9214  -15.1824   20.5301 O   0  0  0  0  0  0  0  0  0  0  0  0
  -22.6255  -28.4820   19.6500 O   0  0  0  0  0  0  0  0  0  0  0  0
  -25.7189  -29.4392   21.5760 O   0  0  0  0  0  0  0  0  0  0  0  0
  -27.8897  -16.7468   15.8595 O   0  0  0  0  0  0  0  0  0  0  0  0
  -28.5926  -28.4880   17.9212 O   0  0  0  0  0  0  0  0  0  0  0  0
  -28.3147  -24.3295   17.2447 O   0  0  0  0  0  0  0  0  0  0  0  0
  -22.1956  -14.2388   20.6198 O   0  0  0  0  0  0  0  0  0  0  0  0
  -24.4161  -23.7002   15.4747 O   0  0  0  0  0  0  0  0  0  1  0  0
  -21.9011  -10.5607   24.7172 F   0  0  0  0  0  0  0  0  0  0  0  0
  -24.0102  -12.1604   20.7932 F   0  0  0  0  0  0  0  0  0  0  0  0
  1  2  1  0  0  0  0
  1  5  2  0  0  0  0
  2  6  2  0  0  0  0
  3  8  2  0  0  0  0
  3 15  1  0  0  0  0
  4  9  1  0  0  0  0
  4 15  2  0  0  0  0
  5 17  1  0  0  0  0
  6 19  1  0  0  0  0
  7 10  2  0  0  0  0
  7 18  1  0  0  0  0
  8 21  1  0  0  0  0
  9 21  2  0  0  0  0
 10 22  1  0  0  0  0
 11 12  2  0  0  0  0
 11 23  1  0  0  0  0
 12 24  1  0  0  0  0
 13 20  1  0  0  0  0
 13 22  2  0  0  0  0
 14 24  2  0  0  0  0
 14 25  1  0  0  0  0
 15 26  1  0  0  0  0
 16 26  1  0  0  0  0
 16 27  2  0  0  0  0
 16 28  1  0  0  0  0
 17 19  2  0  0  0  0
 17 34  1  0  0  0  0
 18 20  2  0  0  0  0
 18 35  1  0  0  0  0
 19 43  1  0  0  0  0
 20 36  1  0  0  0  0
 21 81  1  0  0  0  0
 22 82  1  0  0  0  0
 23 25  2  0  0  0  0
 23 81  1  0  0  0  0
 24 83  1  0  0  0  0
 25 84  1  0  0  0  0
 26 63  2  0  0  0  0
 27 64  1  0  0  0  0
 27 67  1  0  0  0  0
 28 68  1  0  0  0  0
 28 75  2  0  0  0  0
 29 44  1  0  0  0  0
 29 70  1  0  0  0  0
 29 76  2  0  0  0  0
 30 59  1  0  0  0  0
 30 65  1  0  0  0  0
 30 77  2  0  0  0  0
 31 52  1  0  0  0  0
 31 69  1  0  0  0  0
 31 78  2  0  0  0  0
 32 60  1  0  0  0  0
 32 71  1  0  0  0  0
 32 79  2  0  0  0  0
 33 66  1  0  0  0  0
 33 72  1  0  0  0  0
 33 80  2  0  0  0  0
 34 37  1  0  0  0  0
 35 44  1  0  0  0  0
 36 65  1  0  0  0  0
 37 39  1  0  0  0  0
 38 40  1  0  0  0  0
 38 41  1  0  0  0  0
 39 43  1  0  0  0  0
 40 45  1  0  0  0  0
 41 66  1  0  0  0  0
 42 45  1  0  0  0  0
 42 66  1  0  0  0  0
 43 70  1  0  0  0  0
 44 65  1  0  0  0  0
 45 64  1  0  0  0  0
 46 60  1  0  0  0  0
 47 61  1  0  0  0  0
 48 62  1  0  0  0  0
 49 62  1  0  0  0  0
 50 62  1  0  0  0  0
 51 73  1  0  0  0  0
 52 53  1  0  0  0  0
 53 56  1  0  0  0  0
 54 58  1  0  0  0  0
 54 61  1  0  0  0  0
 55 57  1  0  0  0  0
 55 72  1  0  0  0  0
 56 74  1  0  0  0  0
 57 74  1  0  0  0  0
 58 82  1  0  0  0  0
 59 62  1  0  0  0  0
 59 71  1  0  0  0  0
 60 73  1  0  0  0  0
 61 74  1  0  0  0  0
 63 64  1  0  0  0  0
M  CHG  2  73   1  74   1
M  ISO  4  33 100  58 101  72 100  82 101
M  END
> <Batch ID>
0103

> <Smiles>
CNC(C)C(=O)NC(C(=O)N1Cc2cc([101O:1][101CH2:1]CC(C)N(CCCC(N)=O)CC[100NH:0][100C:0](=O)N3CCCC(n4nc(-c5ccc(Oc6ccc(F)cc6F)cc5)c(C(N)=O)c4N)C3)ccc2CC1C(=O)NC1CCCc2ccccc21)C(C)(C)C

> <Shape>
0.213

> <Color>
0.049

> <Negative vol penalty>
0.000

$$$$

  -OEChem-04052319413D

 85 93  0     1  0  0  0  0  0999 V2000
  -23.0103  -10.6986   18.8024 C   0  0  0  0  0  0  0  0  0  0  0  0
  -22.3360  -11.9102   18.9148 C   0  0  0  0  0  0  0  0  0  0  0  0
  -26.2838  -29.2429   21.6740 C   0  0  0  0  0  0  0  0  0  0  0  0
  -24.9955  -27.7143   20.3174 C   0  0  0  0  0  0  0  0  0  0  0  0
  -24.2480  -10.5309   19.4221 C   0  0  0  0  0  0  0  0  0  0  0  0
  -22.8986  -12.9546   19.6477 C   0  0  0  0  0  0  0  0  0  0  0  0
  -22.4615  -18.9449   18.4516 C   0  0  0  0  0  0  0  0  0  0  0  0
  -27.4547  -28.8060   21.0545 C   0  0  0  0  0  0  0  0  0  0  0  0
  -26.1664  -27.2774   19.6978 C   0  0  0  0  0  0  0  0  0  0  0  0
  -21.6378  -19.9461   18.9643 C   0  0  0  0  0  0  0  0  0  0  0  0
  -29.5426  -26.1561   21.2623 C   0  0  0  0  0  0  0  0  0  0  0  0
  -30.6433  -25.8864   22.0754 C   0  0  0  0  0  0  0  0  0  0  0  0
  -23.3729  -20.5686   20.5203 C   0  0  0  0  0  0  0  0  0  0  0  0
  -15.8896  -23.9596   25.0744 C   0  0  0  0  0  0  0  0  0  0  0  0
  -17.2135  -24.0813   23.0571 C   0  0  0  0  0  0  0  0  0  0  0  0
  -31.9234  -27.5640   20.8988 C   0  0  0  0  0  0  0  0  0  0  0  0
  -25.0542  -28.6970   21.3055 C   0  0  0  0  0  0  0  0  0  0  0  0
  -23.0125  -30.2083   21.5400 C   0  0  0  0  0  0  0  0  0  0  0  0
  -24.8305  -11.5769   20.1549 C   0  0  0  0  0  0  0  0  0  0  0  0
  -23.7452  -18.7406   18.9777 C   0  0  0  0  0  0  0  0  0  0  0  0
  -24.1446  -12.8003   20.2789 C   0  0  0  0  0  0  0  0  0  0  0  0
  -24.2119  -19.5658   20.0109 C   0  0  0  0  0  0  0  0  0  0  0  0
  -16.6255  -24.7081   24.1558 C   0  0  0  0  0  0  0  0  0  0  0  0
  -15.7418  -22.5843   24.8944 C   0  0  0  0  0  0  0  0  0  0  0  0
  -17.0656  -22.7060   22.8771 C   0  0  0  0  0  0  0  0  0  0  0  0
  -16.3297  -21.9575   23.7958 C   0  0  0  0  0  0  0  0  0  0  0  0
  -27.3960  -27.8233   20.0664 C   0  0  0  0  0  0  0  0  0  0  0  0
  -22.0923  -20.7563   20.0007 C   0  0  0  0  0  0  0  0  0  0  0  0
  -29.6322  -27.1297   20.2674 C   0  0  0  0  0  0  0  0  0  0  0  0
  -31.8338  -26.5904   21.8937 C   0  0  0  0  0  0  0  0  0  0  0  0
  -30.8226  -27.8337   20.0857 C   0  0  0  0  0  0  0  0  0  0  0  0
  -23.8445  -29.1475   21.9455 C   0  0  0  0  0  0  0  0  0  0  0  0
  -22.0041  -30.2294   22.4723 C   0  0  0  0  0  0  0  0  0  0  0  0
  -23.1398  -31.0952   20.4207 C   0  0  0  0  0  0  0  0  0  0  0  0
  -25.2082  -16.3346   20.4524 C   0  0  0  0  0  0  0  0  0  0  0  0
  -27.8034  -18.2624   20.1863 C   0  0  0  0  0  0  0  0  0  0  0  0
  -29.0405  -21.4239   19.8382 C   0  0  0  0  0  0  0  0  0  0  0  0
  -18.8206  -26.6248   25.6951 C   0  0  0  0  0  0  0  0  0  0  0  0
  -26.1484  -11.3328   20.8465 C   0  0  0  0  0  0  0  0  0  0  0  0
  -24.6315  -17.6737   18.3957 C   0  0  0  0  0  0  0  0  0  0  0  0
  -25.5895  -19.4006   20.5969 C   0  0  0  0  0  0  0  0  0  0  0  0
  -26.8489  -12.6137   21.2922 C   0  0  0  0  0  0  0  0  0  0  0  0
  -21.4882  -28.5291   27.0859 C   0  0  0  0  0  0  0  0  0  0  0  0
  -25.8640  -13.5450   21.9919 C   0  0  0  0  0  0  0  0  0  0  0  0
  -22.2904  -28.9813   25.8644 C   0  0  0  0  0  0  0  0  0  0  0  0
  -20.9260  -27.1211   26.9022 C   0  0  0  0  0  0  0  0  0  0  0  0
  -20.9377  -27.3777   24.4511 C   0  0  0  0  0  0  0  0  0  0  0  0
  -24.7337  -13.9650   21.0447 C   0  0  1  0  0  0  0  0  0  0  0  0
  -25.7277  -17.2190   19.3544 C   0  0  1  0  0  0  0  0  0  0  0  0
  -21.4779  -28.8134   24.5664 C   0  0  2  0  0  0  0  0  0  0  0  0
  -14.9478  -21.8058   25.8921 C   0  0  0  0  0  0  0  0  0  0  0  0
  -17.5167  -19.7386   23.6494 C   0  0  0  0  0  0  0  0  0  0  0  0
  -15.4250  -20.1406   22.3009 C   0  0  0  0  0  0  0  0  0  0  0  0
  -31.2035  -22.6876   19.6896 C   0  0  0  0  0  0  0  0  0  0  0  0
  -28.1951  -17.9409   23.1951 C   0  0  0  0  0  0  0  0  0  0  0  0
  -29.7270  -19.9203   23.1369 C   0  0  0  0  0  0  0  0  0  0  0  0
  -30.3044  -17.8603   21.8540 C   0  0  0  0  0  0  0  0  0  0  0  0
  -28.3972  -22.4367   17.1327 C   0  0  0  0  0  0  0  0  0  0  0  0
  -17.7110  -22.0527   21.6812 C   0  0  0  0  0  0  0  0  0  0  0  0
  -16.7842  -26.1783   24.3486 C   0  0  0  0  0  0  0  0  0  0  0  0
  -19.2282  -22.2421   21.6200 C   0  0  0  0  0  0  0  0  0  0  0  0
  -19.8820  -21.5069   20.4557 C   0  0  0  0  0  0  0  0  0  1  0  0
  -16.1706  -20.4830   23.6028 C   0  0  0  0  0  0  0  0  0  0  0  0
  -28.4251  -19.3421   21.0388 C   0  0  1  0  0  0  0  0  0  0  0  0
  -30.0964  -21.9958   18.9095 C   0  0  2  0  0  0  0  0  0  0  0  0
  -29.1362  -18.7680   22.2967 C   0  0  0  0  0  0  0  0  0  0  0  0
  -23.4030  -28.5390   23.0495 N   0  0  0  0  0  0  0  0  0  0  0  0
  -22.2827  -29.2196   23.3457 N   0  0  0  0  0  0  0  0  0  0  0  0
  -26.4161  -18.3395   19.9983 N   0  0  0  0  0  0  0  0  0  0  0  0
  -20.1650  -27.0295   25.6538 N   0  0  0  0  0  0  0  0  0  0  0  0
  -20.9152  -31.0132   22.6221 N   0  0  0  0  0  0  0  0  0  0  0  0
  -24.2359  -30.9345   19.5622 N   0  0  0  0  0  0  0  0  0  0  0  0
  -25.1933  -14.9904   20.1326 N   0  0  0  0  0  0  0  0  0  0  0  0
  -29.2986  -20.1072   20.1556 N   0  0  0  0  0  0  0  0  0  0  0  0
  -18.1708  -26.5707   24.4681 N   0  0  0  0  0  0  0  0  0  0  0  0
  -29.4861  -22.9878   17.9797 N   0  3  0  0  0  0  0  0  0  0  0  0
  -22.3150  -32.0137   20.1980 O   0  0  0  0  0  0  0  0  0  0  0  0
  -24.8490  -16.8346   21.5119 O   0  0  0  0  0  0  0  0  0  0  0  0
  -28.5232  -17.3871   19.6990 O   0  0  0  0  0  0  0  0  0  0  0  0
  -28.0845  -22.0808   20.2445 O   0  0  0  0  0  0  0  0  0  0  0  0
  -18.2406  -26.3384   26.7480 O   0  0  0  0  0  0  0  0  0  0  0  0
  -28.5382  -27.3969   19.4615 O   0  0  0  0  0  0  0  0  0  0  0  0
  -21.2901  -21.7338   20.5033 O   0  0  0  0  0  0  0  0  0  1  0  0
  -32.8903  -26.3324   22.6756 F   0  0  0  0  0  0  0  0  0  0  0  0
  -30.9144  -28.7710   19.1324 F   0  0  0  0  0  0  0  0  0  0  0  0
  1  2  1  0  0  0  0
  1  5  2  0  0  0  0
  2  6  2  0  0  0  0
  3  8  2  0  0  0  0
  3 17  1  0  0  0  0
  4  9  1  0  0  0  0
  4 17  2  0  0  0  0
  5 19  1  0  0  0  0
  6 21  1  0  0  0  0
  7 10  2  0  0  0  0
  7 20  1  0  0  0  0
  8 27  1  0  0  0  0
  9 27  2  0  0  0  0
 10 28  1  0  0  0  0
 11 12  2  0  0  0  0
 11 29  1  0  0  0  0
 12 30  1  0  0  0  0
 13 22  1  0  0  0  0
 13 28  2  0  0  0  0
 14 23  1  0  0  0  0
 14 24  2  0  0  0  0
 15 23  2  0  0  0  0
 15 25  1  0  0  0  0
 16 30  2  0  0  0  0
 16 31  1  0  0  0  0
 17 32  1  0  0  0  0
 18 32  1  0  0  0  0
 18 33  2  0  0  0  0
 18 34  1  0  0  0  0
 19 21  2  0  0  0  0
 19 39  1  0  0  0  0
 20 22  2  0  0  0  0
 20 40  1  0  0  0  0
 21 48  1  0  0  0  0
 22 41  1  0  0  0  0
 23 60  1  0  0  0  0
 24 26  1  0  0  0  0
 24 51  1  0  0  0  0
 25 26  2  0  0  0  0
 25 59  1  0  0  0  0
 26 63  1  0  0  0  0
 27 82  1  0  0  0  0
 28 83  1  0  0  0  0
 29 31  2  0  0  0  0
 29 82  1  0  0  0  0
 30 84  1  0  0  0  0
 31 85  1  0  0  0  0
 32 67  2  0  0  0  0
 33 68  1  0  0  0  0
 33 71  1  0  0  0  0
 34 72  1  0  0  0  0
 34 77  2  0  0  0  0
 35 49  1  0  0  0  0
 35 73  1  0  0  0  0
 35 78  2  0  0  0  0
 36 64  1  0  0  0  0
 36 69  1  0  0  0  0
 36 79  2  0  0  0  0
 37 65  1  0  0  0  0
 37 74  1  0  0  0  0
 37 80  2  0  0  0  0
 38 70  1  0  0  0  0
 38 75  1  0  0  0  0
 38 81  2  0  0  0  0
 39 42  1  0  0  0  0
 40 49  1  0  0  0  0
 41 69  1  0  0  0  0
 42 44  1  0  0  0  0
 43 45  1  0  0  0  0
 43 46  1  0  0  0  0
 44 48  1  0  0  0  0
 45 50  1  0  0  0  0
 46 70  1  0  0  0  0
 47 50  1  0  0  0  0
 47 70  1  0  0  0  0
 48 73  1  0  0  0  0
 49 69  1  0  0  0  0
 50 68  1  0  0  0  0
 52 63  1  0  0  0  0
 53 63  1  0  0  0  0
 54 65  1  0  0  0  0
 55 66  1  0  0  0  0
 56 66  1  0  0  0  0
 57 66  1  0  0  0  0
 58 76  1  0  0  0  0
 59 61  1  0  0  0  0
 60 75  1  0  0  0  0
 61 62  1  0  0  0  0
 62 83  1  0  0  0  0
 64 66  1  0  0  0  0
 64 74  1  0  0  0  0
 65 76  1  0  0  0  0
 67 68  1  0  0  0  0
M  CHG  1  76   1
M  ISO  4  38 100  62 101  75 100  83 101
M  END
> <Batch ID>
0103

> <Smiles>
CNC(C)C(=O)NC(C(=O)N1Cc2cc([101O:1][101CH2:1]CCc3cc(C[100NH:0][100C:0](=O)N4CCCC(n5nc(-c6ccc(Oc7ccc(F)cc7F)cc6)c(C(N)=O)c5N)C4)cc(C)c3C(C)C)ccc2CC1C(=O)NC1CCCc2ccccc21)C(C)(C)C

> <Shape>
0.208

> <Color>
0.077

> <Negative vol penalty>
0.000

$$$$

  -OEChem-04052319413D

 86 94  0     1  0  0  0  0  0999 V2000
  -24.8234  -35.2535   21.1733 C   0  0  0  0  0  0  0  0  0  0  0  0
  -25.5718  -34.0810   21.1516 C   0  0  0  0  0  0  0  0  0  0  0  0
  -23.6216  -14.6294   18.9799 C   0  0  0  0  0  0  0  0  0  0  0  0
  -25.0793  -13.9120   20.7681 C   0  0  0  0  0  0  0  0  0  0  0  0
  -23.6188  -35.2974   21.8739 C   0  0  0  0  0  0  0  0  0  0  0  0
  -25.1165  -32.9519   21.8315 C   0  0  0  0  0  0  0  0  0  0  0  0
  -25.5625  -28.7197   19.0866 C   0  0  0  0  0  0  0  0  0  0  0  0
  -23.3468  -13.2976   18.6696 C   0  0  0  0  0  0  0  0  0  0  0  0
  -24.8044  -12.5801   20.4578 C   0  0  0  0  0  0  0  0  0  0  0  0
  -26.8309  -28.1474   19.0004 C   0  0  0  0  0  0  0  0  0  0  0  0
  -22.3126  -10.3619   20.9969 C   0  0  0  0  0  0  0  0  0  0  0  0
  -22.0362   -9.4954   22.0545 C   0  0  0  0  0  0  0  0  0  0  0  0
  -32.6670  -24.1953   19.9250 C   0  0  0  0  0  0  0  0  0  0  0  0
  -26.2156  -26.5434   20.6938 C   0  0  0  0  0  0  0  0  0  0  0  0
  -23.9276   -8.1285   21.4288 C   0  0  0  0  0  0  0  0  0  0  0  0
  -32.1521  -25.4080   19.4959 C   0  0  0  0  0  0  0  0  0  0  0  0
  -24.4880  -14.9366   20.0291 C   0  0  0  0  0  0  0  0  0  0  0  0
  -24.0736  -17.1373   21.2509 C   0  0  0  0  0  0  0  0  0  0  0  0
  -23.1437  -34.1654   22.5547 C   0  0  0  0  0  0  0  0  0  0  0  0
  -24.6132  -28.2141   19.9864 C   0  0  0  0  0  0  0  0  0  0  0  0
  -23.9050  -32.9811   22.5430 C   0  0  0  0  0  0  0  0  0  0  0  0
  -24.9350  -27.1094   20.7877 C   0  0  0  0  0  0  0  0  0  0  0  0
  -31.8163  -23.3314   20.6057 C   0  0  0  0  0  0  0  0  0  0  0  0
  -30.4954  -23.7014   20.8333 C   0  0  0  0  0  0  0  0  0  0  0  0
  -23.9381  -12.2729   19.4086 C   0  0  0  0  0  0  0  0  0  0  0  0
  -27.1586  -27.0609   19.8061 C   0  0  0  0  0  0  0  0  0  0  0  0
  -23.3964  -10.1116   20.1552 C   0  0  0  0  0  0  0  0  0  0  0  0
  -22.8437   -8.3787   22.2705 C   0  0  0  0  0  0  0  0  0  0  0  0
  -24.2039   -8.9950   20.3712 C   0  0  0  0  0  0  0  0  0  0  0  0
  -24.7727  -16.3122   20.3497 C   0  0  0  0  0  0  0  0  0  0  0  0
  -30.0778  -24.9362   20.3637 C   0  0  0  0  0  0  0  0  0  0  0  0
  -24.7333  -18.3408   21.1972 C   0  0  0  0  0  0  0  0  0  0  0  0
  -22.9302  -16.8422   22.0641 C   0  0  0  0  0  0  0  0  0  0  0  0
  -23.0588  -29.3846   22.4999 C   0  0  0  0  0  0  0  0  0  0  0  0
  -21.4970  -26.5447   22.3654 C   0  0  0  0  0  0  0  0  0  0  0  0
  -21.5070  -23.2764   21.3831 C   0  0  0  0  0  0  0  0  0  0  0  0
  -30.3088  -19.7122   19.8233 C   0  0  0  0  0  0  0  0  0  0  0  0
  -21.8592  -34.2751   23.3375 C   0  0  0  0  0  0  0  0  0  0  0  0
  -23.2404  -28.8259   20.0482 C   0  0  0  0  0  0  0  0  0  0  0  0
  -23.9449  -26.5163   21.7554 C   0  0  0  0  0  0  0  0  0  0  0  0
  -21.2622  -32.9234   23.7208 C   0  0  0  0  0  0  0  0  0  0  0  0
  -27.3431  -21.0518   18.2398 C   0  0  0  0  0  0  0  0  0  0  0  0
  -22.3402  -32.0053   24.2881 C   0  0  0  0  0  0  0  0  0  0  0  0
  -26.2776  -20.0534   18.6957 C   0  0  0  0  0  0  0  0  0  0  0  0
  -28.6692  -20.3532   17.9542 C   0  0  0  0  0  0  0  0  0  0  0  0
  -28.1365  -18.5512   19.5488 C   0  0  0  0  0  0  0  0  0  0  0  0
  -23.4322  -31.7281   23.2477 C   0  0  1  0  0  0  0  0  0  0  0  0
  -22.5241  -28.5543   21.3674 C   0  0  1  0  0  0  0  0  0  0  0  0
  -26.7785  -19.1989   19.8751 C   0  0  2  0  0  0  0  0  0  0  0  0
  -20.1054  -21.1958   21.4472 C   0  0  0  0  0  0  0  0  0  0  0  0
  -27.5057  -23.5819   24.6159 C   0  0  0  0  0  0  0  0  0  0  0  0
  -28.1946  -21.2523   23.9282 C   0  0  0  0  0  0  0  0  0  0  0  0
  -22.2252  -26.1476   25.3018 C   0  0  0  0  0  0  0  0  0  0  0  0
  -21.6576  -23.7229   25.0425 C   0  0  0  0  0  0  0  0  0  0  0  0
  -19.8975  -25.4574   24.7017 C   0  0  0  0  0  0  0  0  0  0  0  0
  -21.3683  -23.1393   18.4300 C   0  0  0  0  0  0  0  0  0  0  0  0
  -30.4224  -22.9159   23.8935 C   0  0  0  0  0  0  0  0  0  0  0  0
  -32.3430  -22.0174   21.0802 C   0  0  0  0  0  0  0  0  0  0  0  0
  -29.5602  -22.7948   21.5605 C   0  0  0  0  0  0  0  0  0  0  0  0
  -28.6640  -25.3901   20.5794 C   0  0  0  0  0  0  0  0  0  1  0  0
  -32.4467  -20.9630   19.9726 C   0  0  0  0  0  0  0  0  0  0  0  0
  -21.7133  -25.1762   22.9650 C   0  0  1  0  0  0  0  0  0  0  0  0
  -20.4707  -22.4406   20.6537 C   0  0  2  0  0  0  0  0  0  0  0  0
  -27.9772  -22.6886   23.4797 C   0  0  0  0  0  0  0  0  0  0  0  0
  -21.3929  -25.1382   24.4860 C   0  0  0  0  0  0  0  0  0  0  0  0
  -30.8749  -25.8021   19.6984 N   0  0  0  0  0  0  0  0  0  0  0  0
  -25.7979  -16.9386   19.7660 N   0  0  0  0  0  0  0  0  0  0  0  0
  -25.7477  -18.1702   20.3016 N   0  0  0  0  0  0  0  0  0  0  0  0
  -22.6180  -27.1535   21.7836 N   0  0  0  0  0  0  0  0  0  0  0  0
  -29.0993  -19.5722   19.1226 N   0  0  0  0  0  0  0  0  0  0  0  0
  -24.5387  -19.5178   21.8290 N   0  0  0  0  0  0  0  0  0  0  0  0
  -22.3772  -15.5561   21.9978 N   0  0  0  0  0  0  0  0  0  0  0  0
  -22.9767  -30.7473   22.2860 N   0  0  0  0  0  0  0  0  0  0  0  0
  -20.9205  -24.2497   22.1641 N   0  0  0  0  0  0  0  0  0  0  0  0
  -31.1682  -20.6970   19.3515 N   0  0  0  0  0  0  0  0  0  0  0  0
  -20.9916  -22.0143   19.3241 N   0  3  0  0  0  0  0  0  0  0  0  0
  -29.2835  -23.2291   22.9575 N   0  3  1  0  0  0  0  0  0  0  0  0
  -22.4041  -17.6988   22.8145 O   0  0  0  0  0  0  0  0  0  0  0  0
  -23.5109  -28.8300   23.4947 O   0  0  0  0  0  0  0  0  0  0  0  0
  -20.3731  -27.0516   22.4053 O   0  0  0  0  0  0  0  0  0  0  0  0
  -22.7158  -23.0826   21.2740 O   0  0  0  0  0  0  0  0  0  0  0  0
  -30.5995  -19.0145   20.8009 O   0  0  0  0  0  0  0  0  0  0  0  0
  -23.6700  -10.9732   19.1062 O   0  0  0  0  0  0  0  0  0  0  0  0
  -28.3961  -26.5008   19.7245 O   0  0  0  0  0  0  0  0  0  1  0  0
  -22.5791   -7.5476   23.2870 F   0  0  0  0  0  0  0  0  0  0  0  0
  -25.2473   -8.7500   19.5667 F   0  0  0  0  0  0  0  0  0  0  0  0
  1  2  1  0  0  0  0
  1  5  2  0  0  0  0
  2  6  2  0  0  0  0
  3  8  2  0  0  0  0
  3 17  1  0  0  0  0
  4  9  1  0  0  0  0
  4 17  2  0  0  0  0
  5 19  1  0  0  0  0
  6 21  1  0  0  0  0
  7 10  2  0  0  0  0
  7 20  1  0  0  0  0
  8 25  1  0  0  0  0
  9 25  2  0  0  0  0
 10 26  1  0  0  0  0
 11 12  2  0  0  0  0
 11 27  1  0  0  0  0
 12 28  1  0  0  0  0
 13 16  1  0  0  0  0
 13 23  2  0  0  0  0
 14 22  1  0  0  0  0
 14 26  2  0  0  0  0
 15 28  2  0  0  0  0
 15 29  1  0  0  0  0
 16 66  2  0  0  0  0
 17 30  1  0  0  0  0
 18 30  1  0  0  0  0
 18 32  2  0  0  0  0
 18 33  1  0  0  0  0
 19 21  2  0  0  0  0
 19 38  1  0  0  0  0
 20 22  2  0  0  0  0
 20 39  1  0  0  0  0
 21 47  1  0  0  0  0
 22 40  1  0  0  0  0
 23 24  1  0  0  0  0
 23 58  1  0  0  0  0
 24 31  2  0  0  0  0
 24 59  1  0  0  0  0
 25 83  1  0  0  0  0
 26 84  1  0  0  0  0
 27 29  2  0  0  0  0
 27 83  1  0  0  0  0
 28 85  1  0  0  0  0
 29 86  1  0  0  0  0
 30 67  2  0  0  0  0
 31 60  1  0  0  0  0
 31 66  1  0  0  0  0
 32 68  1  0  0  0  0
 32 71  1  0  0  0  0
 33 72  1  0  0  0  0
 33 78  2  0  0  0  0
 34 48  1  0  0  0  0
 34 73  1  0  0  0  0
 34 79  2  0  0  0  0
 35 62  1  0  0  0  0
 35 69  1  0  0  0  0
 35 80  2  0  0  0  0
 36 63  1  0  0  0  0
 36 74  1  0  0  0  0
 36 81  2  0  0  0  0
 37 70  1  0  0  0  0
 37 75  1  0  0  0  0
 37 82  2  0  0  0  0
 38 41  1  0  0  0  0
 39 48  1  0  0  0  0
 40 69  1  0  0  0  0
 41 43  1  0  0  0  0
 42 44  1  0  0  0  0
 42 45  1  0  0  0  0
 43 47  1  0  0  0  0
 44 49  1  0  0  0  0
 45 70  1  0  0  0  0
 46 49  1  0  0  0  0
 46 70  1  0  0  0  0
 47 73  1  0  0  0  0
 48 69  1  0  0  0  0
 49 68  1  0  0  0  0
 50 63  1  0  0  0  0
 51 64  1  0  0  0  0
 52 64  1  0  0  0  0
 53 65  1  0  0  0  0
 54 65  1  0  0  0  0
 55 65  1  0  0  0  0
 56 76  1  0  0  0  0
 57 77  1  0  0  0  0
 58 61  1  0  0  0  0
 59 77  1  0  0  0  0
 60 84  1  0  0  0  0
 61 75  1  0  0  0  0
 62 65  1  0  0  0  0
 62 74  1  0  0  0  0
 63 76  1  0  0  0  0
 64 77  1  0  0  0  0
 67 68  1  0  0  0  0
M  CHG  2  76   1  77   1
M  ISO  4  37 100  60 101  75 100  84 101
M  END
> <Batch ID>
0103

> <Smiles>
CNC(C)C(=O)NC(C(=O)N1Cc2cc([101O:1][101CH2:1]c3nccc(CC[100NH:0][100C:0](=O)N4CCCC(n5nc(-c6ccc(Oc7ccc(F)cc7F)cc6)c(C(N)=O)c5N)C4)c3CN(C)C(C)C)ccc2CC1C(=O)NC1CCCc2ccccc21)C(C)(C)C

> <Shape>
0.199

> <Color>
0.082

> <Negative vol penalty>
0.000

$$$$

  -OEChem-04052319413D

 81 89  0     1  0  0  0  0  0999 V2000
  -39.8835  -27.1922   24.2097 C   0  0  0  0  0  0  0  0  0  0  0  0
  -39.3266  -25.9173   24.2200 C   0  0  0  0  0  0  0  0  0  0  0  0
  -23.1333   -9.7664   19.9795 C   0  0  0  0  0  0  0  0  0  0  0  0
  -23.5023  -10.0228   22.3534 C   0  0  0  0  0  0  0  0  0  0  0  0
  -39.0552  -28.3131   24.1751 C   0  0  0  0  0  0  0  0  0  0  0  0
  -37.9410  -25.7627   24.1967 C   0  0  0  0  0  0  0  0  0  0  0  0
  -34.7801  -21.3020   21.4369 C   0  0  0  0  0  0  0  0  0  0  0  0
  -22.3426   -8.6436   20.2237 C   0  0  0  0  0  0  0  0  0  0  0  0
  -22.7116   -8.9001   22.5976 C   0  0  0  0  0  0  0  0  0  0  0  0
  -34.2125  -20.1213   21.9140 C   0  0  0  0  0  0  0  0  0  0  0  0
  -23.0454   -5.5387   22.4538 C   0  0  0  0  0  0  0  0  0  0  0  0
  -23.5192   -4.5990   23.3693 C   0  0  0  0  0  0  0  0  0  0  0  0
  -32.0872  -21.2405   22.1372 C   0  0  0  0  0  0  0  0  0  0  0  0
  -21.5608   -4.9477   24.7406 C   0  0  0  0  0  0  0  0  0  0  0  0
  -23.7133  -10.4560   21.0444 C   0  0  0  0  0  0  0  0  0  0  0  0
  -24.1048  -12.9551   20.7144 C   0  0  0  0  0  0  0  0  0  0  0  0
  -37.6589  -28.1721   24.1416 C   0  0  0  0  0  0  0  0  0  0  0  0
  -34.0069  -22.4656   21.3165 C   0  0  0  0  0  0  0  0  0  0  0  0
  -37.0932  -26.8829   24.1629 C   0  0  0  0  0  0  0  0  0  0  0  0
  -32.6468  -22.4339   21.6560 C   0  0  0  0  0  0  0  0  0  0  0  0
  -22.1317   -8.2104   21.5328 C   0  0  0  0  0  0  0  0  0  0  0  0
  -32.8665  -20.0912   22.2669 C   0  0  0  0  0  0  0  0  0  0  0  0
  -21.8293   -6.1829   22.6817 C   0  0  0  0  0  0  0  0  0  0  0  0
  -22.7769   -4.3035   24.5127 C   0  0  0  0  0  0  0  0  0  0  0  0
  -21.0870   -5.8874   23.8251 C   0  0  0  0  0  0  0  0  0  0  0  0
  -24.5307  -11.6156   20.7927 C   0  0  0  0  0  0  0  0  0  0  0  0
  -25.2523  -13.6659   20.4601 C   0  0  0  0  0  0  0  0  0  0  0  0
  -22.7896  -13.5075   20.8587 C   0  0  0  0  0  0  0  0  0  0  0  0
  -34.1010  -25.3656   22.6146 C   0  0  0  0  0  0  0  0  0  0  0  0
  -31.7042  -25.9594   20.5109 C   0  0  0  0  0  0  0  0  0  0  0  0
  -29.1729  -24.7297   18.5804 C   0  0  0  0  0  0  0  0  0  0  0  0
  -30.9722  -12.7604   21.5273 C   0  0  0  0  0  0  0  0  0  0  0  0
  -36.8033  -29.4141   24.1524 C   0  0  0  0  0  0  0  0  0  0  0  0
  -34.6278  -23.7241   20.7751 C   0  0  0  0  0  0  0  0  0  0  0  0
  -31.7685  -23.6506   21.5261 C   0  0  0  0  0  0  0  0  0  0  0  0
  -35.3529  -29.1581   23.7508 C   0  0  0  0  0  0  0  0  0  0  0  0
  -29.5444  -13.2566   18.4062 C   0  0  0  0  0  0  0  0  0  0  0  0
  -34.8048  -27.9357   24.4803 C   0  0  0  0  0  0  0  0  0  0  0  0
  -33.9302  -15.5634   23.0342 C   0  0  0  0  0  0  0  0  0  0  0  0
  -32.2887  -15.5401   21.1105 C   0  0  0  0  0  0  0  0  0  0  0  0
  -28.0532  -13.0215   18.6427 C   0  0  0  0  0  0  0  0  0  0  0  0
  -33.4189  -16.9398   23.4489 C   0  0  0  0  0  0  0  0  0  0  0  0
  -31.7823  -16.9168   21.5301 C   0  0  0  0  0  0  0  0  0  0  0  0
  -30.3840  -12.2461   19.1787 C   0  0  0  0  0  0  0  0  0  0  0  0
  -28.6282  -12.0088   20.9056 C   0  0  0  0  0  0  0  0  0  0  0  0
  -35.5952  -26.6739   24.1134 C   0  0  1  0  0  0  0  0  0  0  0  0
  -33.8709  -24.9855   21.1792 C   0  0  1  0  0  0  0  0  0  0  0  0
  -32.8482  -14.7549   22.3049 C   0  0  0  0  0  0  0  0  0  0  0  0
  -27.7293  -13.0066   20.1469 C   0  0  2  0  0  0  0  0  0  0  0  0
  -32.8602  -17.7161   22.2593 C   0  0  0  0  0  0  0  0  0  1  0  0
  -27.3656  -25.4625   17.0011 C   0  0  0  0  0  0  0  0  0  0  0  0
  -33.9142  -12.6155   23.0635 C   0  0  0  0  0  0  0  0  0  0  0  0
  -34.5452  -13.6132   20.8540 C   0  0  0  0  0  0  0  0  0  0  0  0
  -30.0457  -26.9506   22.8725 C   0  0  0  0  0  0  0  0  0  0  0  0
  -28.0078  -26.7632   21.4302 C   0  0  0  0  0  0  0  0  0  0  0  0
  -29.8400  -28.3342   20.7994 C   0  0  0  0  0  0  0  0  0  0  0  0
  -32.7721  -11.5178   20.3897 C   0  0  0  0  0  0  0  0  0  0  0  0
  -30.3157  -23.1482   16.3552 C   0  0  0  0  0  0  0  0  0  0  0  0
  -30.1994  -25.8446   20.5445 C   0  0  1  0  0  0  0  0  0  0  0  0
  -28.8012  -24.9772   17.1295 C   0  0  2  0  0  0  0  0  0  0  0  0
  -33.3983  -13.4037   21.8519 C   0  0  0  0  0  0  0  0  0  0  0  0
  -29.5400  -26.9505   21.4160 C   0  0  0  0  0  0  0  0  0  0  0  0
  -25.8460  -11.4807   20.6033 N   0  0  0  0  0  0  0  0  0  0  0  0
  -26.2565  -12.7447   20.4034 N   0  0  0  0  0  0  0  0  0  0  0  0
  -32.4234  -24.8587   20.9979 N   0  0  0  0  0  0  0  0  0  0  0  0
  -30.0464  -12.2553   20.6024 N   0  0  0  0  0  0  0  0  0  0  0  0
  -25.4901  -14.9827   20.2816 N   0  0  0  0  0  0  0  0  0  0  0  0
  -21.7234  -12.6355   21.1179 N   0  0  0  0  0  0  0  0  0  0  0  0
  -35.1944  -26.1875   22.8106 N   0  0  0  0  0  0  0  0  0  0  0  0
  -29.7593  -25.8382   19.1536 N   0  0  0  0  0  0  0  0  0  0  0  0
  -32.3323  -12.6420   21.2037 N   0  0  0  0  0  0  0  0  0  0  0  0
  -28.9463  -23.7237   16.3366 N   0  3  0  0  0  0  0  0  0  0  0  0
  -22.5640  -14.7361   20.7444 O   0  0  0  0  0  0  0  0  0  0  0  0
  -33.3418  -24.9455   23.4800 O   0  0  0  0  0  0  0  0  0  0  0  0
  -32.2226  -26.9849   20.0623 O   0  0  0  0  0  0  0  0  0  0  0  0
  -28.9606  -23.6613   19.1495 O   0  0  0  0  0  0  0  0  0  0  0  0
  -30.6049  -13.2951   22.5815 O   0  0  0  0  0  0  0  0  0  0  0  0
  -21.3599   -7.1150   21.7715 O   0  0  0  0  0  0  0  0  0  0  0  0
  -32.3101  -18.9403   22.7334 O   0  0  0  0  0  0  0  0  0  1  0  0
  -23.2312   -3.4000   25.3910 F   0  0  0  0  0  0  0  0  0  0  0  0
  -19.9175   -6.5022   24.0489 F   0  0  0  0  0  0  0  0  0  0  0  0
  1  2  1  0  0  0  0
  1  5  2  0  0  0  0
  2  6  2  0  0  0  0
  3  8  2  0  0  0  0
  3 15  1  0  0  0  0
  4  9  1  0  0  0  0
  4 15  2  0  0  0  0
  5 17  1  0  0  0  0
  6 19  1  0  0  0  0
  7 10  2  0  0  0  0
  7 18  1  0  0  0  0
  8 21  1  0  0  0  0
  9 21  2  0  0  0  0
 10 22  1  0  0  0  0
 11 12  2  0  0  0  0
 11 23  1  0  0  0  0
 12 24  1  0  0  0  0
 13 20  1  0  0  0  0
 13 22  2  0  0  0  0
 14 24  2  0  0  0  0
 14 25  1  0  0  0  0
 15 26  1  0  0  0  0
 16 26  1  0  0  0  0
 16 27  2  0  0  0  0
 16 28  1  0  0  0  0
 17 19  2  0  0  0  0
 17 33  1  0  0  0  0
 18 20  2  0  0  0  0
 18 34  1  0  0  0  0
 19 46  1  0  0  0  0
 20 35  1  0  0  0  0
 21 78  1  0  0  0  0
 22 79  1  0  0  0  0
 23 25  2  0  0  0  0
 23 78  1  0  0  0  0
 24 80  1  0  0  0  0
 25 81  1  0  0  0  0
 26 63  2  0  0  0  0
 27 64  1  0  0  0  0
 27 67  1  0  0  0  0
 28 68  1  0  0  0  0
 28 73  2  0  0  0  0
 29 47  1  0  0  0  0
 29 69  1  0  0  0  0
 29 74  2  0  0  0  0
 30 59  1  0  0  0  0
 30 65  1  0  0  0  0
 30 75  2  0  0  0  0
 31 60  1  0  0  0  0
 31 70  1  0  0  0  0
 31 76  2  0  0  0  0
 32 66  1  0  0  0  0
 32 71  1  0  0  0  0
 32 77  2  0  0  0  0
 33 36  1  0  0  0  0
 34 47  1  0  0  0  0
 35 65  1  0  0  0  0
 36 38  1  0  0  0  0
 37 41  1  0  0  0  0
 37 44  1  0  0  0  0
 38 46  1  0  0  0  0
 39 42  1  0  0  0  0
 39 48  1  0  0  0  0
 40 43  1  0  0  0  0
 40 48  1  0  0  0  0
 41 49  1  0  0  0  0
 42 50  1  0  0  0  0
 43 50  1  0  0  0  0
 44 66  1  0  0  0  0
 45 49  1  0  0  0  0
 45 66  1  0  0  0  0
 46 69  1  0  0  0  0
 47 65  1  0  0  0  0
 48 61  1  0  0  0  0
 49 64  1  0  0  0  0
 50 79  1  0  0  0  0
 51 60  1  0  0  0  0
 52 61  1  0  0  0  0
 53 61  1  0  0  0  0
 54 62  1  0  0  0  0
 55 62  1  0  0  0  0
 56 62  1  0  0  0  0
 57 71  1  0  0  0  0
 58 72  1  0  0  0  0
 59 62  1  0  0  0  0
 59 70  1  0  0  0  0
 60 72  1  0  0  0  0
 61 71  1  0  0  0  0
 63 64  1  0  0  0  0
M  CHG  1  72   1
M  ISO  4  32 100  50 101  71 100  79 101
M  END
> <Batch ID>
0103

> <Smiles>
CNC(C)C(=O)NC(C(=O)N1Cc2cc([101O:1][101CH:1]3CCC(C(C)(C)[100N:0](C)[100C:0](=O)N4CCCC(n5nc(-c6ccc(Oc7ccc(F)cc7F)cc6)c(C(N)=O)c5N)C4)CC3)ccc2CC1C(=O)NC1CCCc2ccccc21)C(C)(C)C

> <Shape>
0.215

> <Color>
0.201

> <Negative vol penalty>
0.000

$$$$

  -OEChem-04052319413D

 84 92  0     1  0  0  0  0  0999 V2000
  -16.9764  -28.3929   24.3413 C   0  0  0  0  0  0  0  0  0  0  0  0
  -17.6721  -27.4459   23.5966 C   0  0  0  0  0  0  0  0  0  0  0  0
  -24.4471  -15.0020   20.7016 C   0  0  0  0  0  0  0  0  0  0  0  0
  -26.1822  -13.3703   21.1065 C   0  0  0  0  0  0  0  0  0  0  0  0
  -17.3030  -29.7436   24.2290 C   0  0  0  0  0  0  0  0  0  0  0  0
  -18.6943  -27.8494   22.7382 C   0  0  0  0  0  0  0  0  0  0  0  0
  -22.8122  -24.9257   23.1116 C   0  0  0  0  0  0  0  0  0  0  0  0
  -23.6033  -13.9909   20.2422 C   0  0  0  0  0  0  0  0  0  0  0  0
  -25.3383  -12.3590   20.6471 C   0  0  0  0  0  0  0  0  0  0  0  0
  -22.7740  -23.6873   22.4723 C   0  0  0  0  0  0  0  0  0  0  0  0
  -23.5160   -9.2983   19.9197 C   0  0  0  0  0  0  0  0  0  0  0  0
  -23.4508   -8.1197   20.6627 C   0  0  0  0  0  0  0  0  0  0  0  0
  -24.0434  -24.6026   20.6365 C   0  0  0  0  0  0  0  0  0  0  0  0
  -27.5743  -20.4143   20.5318 C   0  0  0  0  0  0  0  0  0  0  0  0
  -22.6757   -9.3705   22.5789 C   0  0  0  0  0  0  0  0  0  0  0  0
  -25.8308  -20.5275   19.1116 C   0  0  0  0  0  0  0  0  0  0  0  0
  -25.7366  -14.6918   21.1337 C   0  0  0  0  0  0  0  0  0  0  0  0
  -26.7378  -16.2009   22.9303 C   0  0  0  0  0  0  0  0  0  0  0  0
  -18.3361  -30.1629   23.3761 C   0  0  0  0  0  0  0  0  0  0  0  0
  -23.4581  -26.0165   22.5121 C   0  0  0  0  0  0  0  0  0  0  0  0
  -19.0342  -29.2072   22.6134 C   0  0  0  0  0  0  0  0  0  0  0  0
  -24.0906  -25.8531   21.2715 C   0  0  0  0  0  0  0  0  0  0  0  0
  -27.1995  -20.6619   19.1882 C   0  0  0  0  0  0  0  0  0  0  0  0
  -24.0489  -12.6694   20.2150 C   0  0  0  0  0  0  0  0  0  0  0  0
  -23.3871  -23.5263   21.2332 C   0  0  0  0  0  0  0  0  0  0  0  0
  -23.1611  -10.5131   20.5063 C   0  0  0  0  0  0  0  0  0  0  0  0
  -23.0306   -8.1557   21.9923 C   0  0  0  0  0  0  0  0  0  0  0  0
  -22.7410  -10.5492   21.8359 C   0  0  0  0  0  0  0  0  0  0  0  0
  -26.6090  -15.7360   21.6077 C   0  0  0  0  0  0  0  0  0  0  0  0
  -26.4232  -20.1359   21.2353 C   0  0  0  0  0  0  0  0  0  0  0  0
  -27.6873  -17.1906   22.8553 C   0  0  0  0  0  0  0  0  0  0  0  0
  -26.0600  -15.7761   24.1201 C   0  0  0  0  0  0  0  0  0  0  0  0
  -22.5385  -28.8816   21.4879 C   0  0  0  0  0  0  0  0  0  0  0  0
  -25.7201  -29.3040   21.0176 C   0  0  0  0  0  0  0  0  0  0  0  0
  -28.7825  -27.8946   20.4863 C   0  0  0  0  0  0  0  0  0  0  0  0
  -29.3996  -20.5328   18.0316 C   0  0  0  0  0  0  0  0  0  0  0  0
  -18.6215  -31.6387   23.2525 C   0  0  0  0  0  0  0  0  0  0  0  0
  -23.5134  -27.3387   23.2271 C   0  0  0  0  0  0  0  0  0  0  0  0
  -24.8146  -26.9873   20.5949 C   0  0  0  0  0  0  0  0  0  0  0  0
  -19.9679  -31.9463   22.6021 C   0  0  0  0  0  0  0  0  0  0  0  0
  -31.5043  -18.5498   20.3225 C   0  0  0  0  0  0  0  0  0  0  0  0
  -20.1616  -31.0983   21.3490 C   0  0  0  0  0  0  0  0  0  0  0  0
  -30.4989  -17.6012   20.9733 C   0  0  0  0  0  0  0  0  0  0  0  0
  -31.0821  -18.9405   18.9093 C   0  0  0  0  0  0  0  0  0  0  0  0
  -28.7024  -18.5666   19.4814 C   0  0  0  0  0  0  0  0  0  0  0  0
  -20.1658  -29.6032   21.6900 C   0  0  1  0  0  0  0  0  0  0  0  0
  -23.7567  -28.5161   22.2879 C   0  0  1  0  0  0  0  0  0  0  0  0
  -29.0779  -18.1886   20.9222 C   0  0  1  0  0  0  0  0  0  0  0  0
  -26.2417  -19.8091   22.6644 C   0  0  0  0  0  0  0  0  0  0  0  0
  -25.0284  -22.9151   15.5140 C   0  0  0  0  0  0  0  0  0  0  0  0
  -31.1883  -28.4966   20.1032 C   0  0  0  0  0  0  0  0  0  0  0  0
  -28.2035  -23.9577   17.5137 C   0  0  0  0  0  0  0  0  0  0  0  0
  -25.0644  -30.0840   18.1416 C   0  0  0  0  0  0  0  0  0  0  0  0
  -27.4790  -29.7457   17.5729 C   0  0  0  0  0  0  0  0  0  0  0  0
  -26.8223  -31.4915   19.2293 C   0  0  0  0  0  0  0  0  0  0  0  0
  -29.6479  -26.4766   22.9356 C   0  0  0  0  0  0  0  0  0  0  0  0
  -26.2770  -23.6842   15.9211 C   0  0  0  0  0  0  0  0  0  0  0  0
  -23.9183  -19.9736   20.7040 C   0  0  0  0  0  0  0  0  0  0  0  0
  -27.4767  -21.6174   16.8932 C   0  0  0  0  0  0  0  0  0  0  0  0
  -23.2969  -21.1585   21.4356 C   0  0  0  0  0  0  0  0  0  1  0  0
  -26.6748  -29.0518   19.8757 C   0  0  1  0  0  0  0  0  0  0  0  0
  -30.1315  -28.1412   21.1373 C   0  0  2  0  0  0  0  0  0  0  0  0
  -27.0198  -23.0663   17.1213 C   0  0  1  0  0  0  0  0  0  0  0  0
  -26.4949  -30.0722   18.7164 C   0  0  0  0  0  0  0  0  0  0  0  0
  -27.4121  -16.3777   20.7550 N   0  0  0  0  0  0  0  0  0  0  0  0
  -25.3697  -20.2074   20.3618 N   0  0  0  0  0  0  0  0  0  0  0  0
  -28.0548  -17.2560   21.5435 N   0  0  0  0  0  0  0  0  0  0  0  0
  -24.8356  -28.2622   21.3309 N   0  0  0  0  0  0  0  0  0  0  0  0
  -29.7117  -19.4531   18.8820 N   0  0  0  0  0  0  0  0  0  0  0  0
  -28.2352  -18.0026   23.7842 N   0  0  0  0  0  0  0  0  0  0  0  0
  -25.1144  -14.7466   24.0189 N   0  0  0  0  0  0  0  0  0  0  0  0
  -21.4405  -29.2176   22.2566 N   0  0  0  0  0  0  0  0  0  0  0  0
  -28.0126  -29.0381   20.4575 N   0  0  0  0  0  0  0  0  0  0  0  0
  -28.0668  -20.9953   18.0830 N   0  0  0  0  0  0  0  0  0  0  0  0
  -30.5824  -26.9252   21.8715 N   0  3  0  0  0  0  0  0  0  0  0  0
  -26.2743  -16.3052   25.2371 O   0  0  0  0  0  0  0  0  0  0  0  0
  -22.5912  -28.8618   20.2637 O   0  0  0  0  0  0  0  0  0  0  0  0
  -25.7626  -30.3827   21.6143 O   0  0  0  0  0  0  0  0  0  0  0  0
  -28.4468  -26.7981   20.0440 O   0  0  0  0  0  0  0  0  0  0  0  0
  -30.2520  -21.0600   17.3069 O   0  0  0  0  0  0  0  0  0  0  0  0
  -23.2256  -11.6823   19.7671 O   0  0  0  0  0  0  0  0  0  0  0  0
  -23.3507  -22.3189   20.6067 O   0  0  0  0  0  0  0  0  0  1  0  0
  -22.9666   -7.0236   22.7052 F   0  0  0  0  0  0  0  0  0  0  0  0
  -22.3976  -11.7130   22.4045 F   0  0  0  0  0  0  0  0  0  0  0  0
  1  2  1  0  0  0  0
  1  5  2  0  0  0  0
  2  6  2  0  0  0  0
  3  8  2  0  0  0  0
  3 17  1  0  0  0  0
  4  9  1  0  0  0  0
  4 17  2  0  0  0  0
  5 19  1  0  0  0  0
  6 21  1  0  0  0  0
  7 10  2  0  0  0  0
  7 20  1  0  0  0  0
  8 24  1  0  0  0  0
  9 24  2  0  0  0  0
 10 25  1  0  0  0  0
 11 12  2  0  0  0  0
 11 26  1  0  0  0  0
 12 27  1  0  0  0  0
 13 22  1  0  0  0  0
 13 25  2  0  0  0  0
 14 23  1  0  0  0  0
 14 30  2  0  0  0  0
 15 27  2  0  0  0  0
 15 28  1  0  0  0  0
 16 23  2  0  0  0  0
 16 66  1  0  0  0  0
 17 29  1  0  0  0  0
 18 29  1  0  0  0  0
 18 31  2  0  0  0  0
 18 32  1  0  0  0  0
 19 21  2  0  0  0  0
 19 37  1  0  0  0  0
 20 22  2  0  0  0  0
 20 38  1  0  0  0  0
 21 46  1  0  0  0  0
 22 39  1  0  0  0  0
 23 74  1  0  0  0  0
 24 81  1  0  0  0  0
 25 82  1  0  0  0  0
 26 28  2  0  0  0  0
 26 81  1  0  0  0  0
 27 83  1  0  0  0  0
 28 84  1  0  0  0  0
 29 65  2  0  0  0  0
 30 49  1  0  0  0  0
 30 66  1  0  0  0  0
 31 67  1  0  0  0  0
 31 70  1  0  0  0  0
 32 71  1  0  0  0  0
 32 76  2  0  0  0  0
 33 47  1  0  0  0  0
 33 72  1  0  0  0  0
 33 77  2  0  0  0  0
 34 61  1  0  0  0  0
 34 68  1  0  0  0  0
 34 78  2  0  0  0  0
 35 62  1  0  0  0  0
 35 73  1  0  0  0  0
 35 79  2  0  0  0  0
 36 69  1  0  0  0  0
 36 74  1  0  0  0  0
 36 80  2  0  0  0  0
 37 40  1  0  0  0  0
 38 47  1  0  0  0  0
 39 68  1  0  0  0  0
 40 42  1  0  0  0  0
 41 43  1  0  0  0  0
 41 44  1  0  0  0  0
 42 46  1  0  0  0  0
 43 48  1  0  0  0  0
 44 69  1  0  0  0  0
 45 48  1  0  0  0  0
 45 69  1  0  0  0  0
 46 72  1  0  0  0  0
 47 68  1  0  0  0  0
 48 67  1  0  0  0  0
 50 57  1  0  0  0  0
 51 62  1  0  0  0  0
 52 63  1  0  0  0  0
 53 64  1  0  0  0  0
 54 64  1  0  0  0  0
 55 64  1  0  0  0  0
 56 75  1  0  0  0  0
 57 63  1  0  0  0  0
 58 60  1  0  0  0  0
 58 66  1  0  0  0  0
 59 63  1  0  0  0  0
 59 74  1  0  0  0  0
 60 82  1  0  0  0  0
 61 64  1  0  0  0  0
 61 73  1  0  0  0  0
 62 75  1  0  0  0  0
 65 67  1  0  0  0  0
M  CHG  1  75   1
M  ISO  4  36 100  60 101  74 100  82 101
M  END
> <Batch ID>
0103

> <Smiles>
CCC(C)C[100N:0](c1cc(C)n(C[101CH2:1][101O:1]c2ccc3c(c2)CN(C(=O)C(NC(=O)C(C)NC)C(C)(C)C)C(C(=O)NC2CCCc4ccccc42)C3)c1)[100C:0](=O)N1CCCC(n2nc(-c3ccc(Oc4ccc(F)cc4F)cc3)c(C(N)=O)c2N)C1

> <Shape>
0.236

> <Color>
0.077

> <Negative vol penalty>
0.000

$$$$

  -OEChem-04052319413D

 82 90  0     1  0  0  0  0  0999 V2000
  -28.9274  -18.5461   18.6363 C   0  0  0  0  0  0  0  0  0  0  0  0
  -29.3207  -17.5016   19.4669 C   0  0  0  0  0  0  0  0  0  0  0  0
  -23.1537   -9.8652   19.9616 C   0  0  0  0  0  0  0  0  0  0  0  0
  -23.8223   -9.9651   22.2811 C   0  0  0  0  0  0  0  0  0  0  0  0
  -28.6536  -19.8011   19.1784 C   0  0  0  0  0  0  0  0  0  0  0  0
  -29.4415  -17.7120   20.8401 C   0  0  0  0  0  0  0  0  0  0  0  0
  -28.2214  -13.6971   25.3008 C   0  0  0  0  0  0  0  0  0  0  0  0
  -22.4401   -8.6945   20.2177 C   0  0  0  0  0  0  0  0  0  0  0  0
  -23.1086   -8.7943   22.5373 C   0  0  0  0  0  0  0  0  0  0  0  0
  -29.0384  -12.8563   26.0553 C   0  0  0  0  0  0  0  0  0  0  0  0
  -23.5335   -5.4698   22.0922 C   0  0  0  0  0  0  0  0  0  0  0  0
  -24.1547   -4.4879   22.8638 C   0  0  0  0  0  0  0  0  0  0  0  0
  -29.1080  -14.5094   27.8109 C   0  0  0  0  0  0  0  0  0  0  0  0
  -33.3293  -13.8184   23.7593 C   0  0  0  0  0  0  0  0  0  0  0  0
  -22.3826   -4.6511   24.4980 C   0  0  0  0  0  0  0  0  0  0  0  0
  -31.9404  -14.4569   25.4125 C   0  0  0  0  0  0  0  0  0  0  0  0
  -23.8449  -10.5005   20.9933 C   0  0  0  0  0  0  0  0  0  0  0  0
  -24.1055  -13.0316   20.8102 C   0  0  0  0  0  0  0  0  0  0  0  0
  -28.7618  -20.0244   20.5601 C   0  0  0  0  0  0  0  0  0  0  0  0
  -27.8498  -14.9570   25.7919 C   0  0  0  0  0  0  0  0  0  0  0  0
  -29.1702  -18.9715   21.4010 C   0  0  0  0  0  0  0  0  0  0  0  0
  -28.2841  -15.3632   27.0617 C   0  0  0  0  0  0  0  0  0  0  0  0
  -32.1653  -14.5686   24.0582 C   0  0  0  0  0  0  0  0  0  0  0  0
  -22.4175   -8.1590   21.5055 C   0  0  0  0  0  0  0  0  0  0  0  0
  -29.4842  -13.2636   27.3093 C   0  0  0  0  0  0  0  0  0  0  0  0
  -22.3369   -6.0425   22.5234 C   0  0  0  0  0  0  0  0  0  0  0  0
  -23.5793   -4.0785   24.0667 C   0  0  0  0  0  0  0  0  0  0  0  0
  -21.7615   -5.6331   23.7263 C   0  0  0  0  0  0  0  0  0  0  0  0
  -24.5828  -11.7097   20.7293 C   0  0  0  0  0  0  0  0  0  0  0  0
  -33.7802  -13.2708   24.9402 C   0  0  0  0  0  0  0  0  0  0  0  0
  -25.1851  -13.8080   20.4664 C   0  0  0  0  0  0  0  0  0  0  0  0
  -22.8028  -13.5145   21.1644 C   0  0  0  0  0  0  0  0  0  0  0  0
  -28.3103  -17.9572   24.8484 C   0  0  0  0  0  0  0  0  0  0  0  0
  -26.3062  -18.6274   27.3094 C   0  0  0  0  0  0  0  0  0  0  0  0
  -24.9681  -17.6698   30.2993 C   0  0  0  0  0  0  0  0  0  0  0  0
  -30.9415  -13.9727   21.0590 C   0  0  0  0  0  0  0  0  0  0  0  0
  -28.5012  -21.4106   21.0941 C   0  0  0  0  0  0  0  0  0  0  0  0
  -26.9460  -15.8411   24.9770 C   0  0  0  0  0  0  0  0  0  0  0  0
  -27.8969  -16.6976   27.6429 C   0  0  0  0  0  0  0  0  0  0  0  0
  -28.2907  -21.4516   22.6054 C   0  0  0  0  0  0  0  0  0  0  0  0
  -29.3949  -13.0242   17.9955 C   0  0  0  0  0  0  0  0  0  0  0  0
  -29.3600  -20.6277   23.3159 C   0  0  0  0  0  0  0  0  0  0  0  0
  -27.9519  -12.7114   18.3957 C   0  0  0  0  0  0  0  0  0  0  0  0
  -30.3856  -12.5961   19.0759 C   0  0  0  0  0  0  0  0  0  0  0  0
  -28.6602  -12.8168   20.8218 C   0  0  0  0  0  0  0  0  0  0  0  0
  -29.2887  -19.1538   22.8986 C   0  0  1  0  0  0  0  0  0  0  0  0
  -27.0508  -17.3149   25.3569 C   0  0  1  0  0  0  0  0  0  0  0  0
  -27.6201  -13.2812   19.7879 C   0  0  2  0  0  0  0  0  0  0  0  0
  -34.9502  -12.4062   25.1984 C   0  0  0  0  0  0  0  0  0  0  0  0
  -23.3870  -18.4432   32.0879 C   0  0  0  0  0  0  0  0  0  0  0  0
  -30.7721  -10.1245   27.6815 C   0  0  0  0  0  0  0  0  0  0  0  0
  -28.4296  -20.5561   28.3492 C   0  0  0  0  0  0  0  0  0  0  0  0
  -27.2442  -20.5625   30.5544 C   0  0  0  0  0  0  0  0  0  0  0  0
  -26.0818  -21.4021   28.5132 C   0  0  0  0  0  0  0  0  0  0  0  0
  -23.1721  -15.3562   29.8742 C   0  0  0  0  0  0  0  0  0  0  0  0
  -31.3448  -15.3300   23.0972 C   0  0  0  0  0  0  0  0  0  0  0  0
  -32.6001  -11.8600   27.7078 C   0  0  0  0  0  0  0  0  0  0  0  0
  -33.0434  -13.2966   27.3958 C   0  0  0  0  0  0  0  0  0  0  0  0
  -26.4797  -18.9197   28.7803 C   0  0  1  0  0  0  0  0  0  0  0  0
  -23.5354  -17.6472   30.8007 C   0  0  2  0  0  0  0  0  0  0  0  0
  -31.1436  -11.5601   27.3326 C   0  0  2  0  0  0  0  0  0  1  0  0
  -27.0679  -20.3357   29.0378 C   0  0  0  0  0  0  0  0  0  0  0  0
  -25.8656  -11.6461   20.3628 N   0  0  0  0  0  0  0  0  0  0  0  0
  -32.9280  -13.6655   25.9383 N   0  0  0  0  0  0  0  0  0  0  0  0
  -26.2036  -12.9378   20.2102 N   0  0  0  0  0  0  0  0  0  0  0  0
  -27.0168  -17.5290   26.8051 N   0  0  0  0  0  0  0  0  0  0  0  0
  -30.0152  -13.1715   20.3711 N   0  0  0  0  0  0  0  0  0  0  0  0
  -25.3530  -15.1434   20.3613 N   0  0  0  0  0  0  0  0  0  0  0  0
  -21.8098  -12.5806   21.4900 N   0  0  0  0  0  0  0  0  0  0  0  0
  -28.1976  -18.4885   23.5778 N   0  0  0  0  0  0  0  0  0  0  0  0
  -25.1778  -18.6920   29.3981 N   0  0  0  0  0  0  0  0  0  0  0  0
  -30.5078  -14.4836   22.2762 N   0  0  0  0  0  0  0  0  0  0  0  0
  -23.1001  -16.2460   31.0617 N   0  3  0  0  0  0  0  0  0  0  0  0
  -22.5229  -14.7372   21.1754 O   0  0  0  0  0  0  0  0  0  0  0  0
  -29.3100  -17.9712   25.5570 O   0  0  0  0  0  0  0  0  0  0  0  0
  -25.5618  -19.3428   26.6344 O   0  0  0  0  0  0  0  0  0  0  0  0
  -25.8174  -16.8637   30.6729 O   0  0  0  0  0  0  0  0  0  0  0  0
  -32.0693  -14.2190   20.6183 O   0  0  0  0  0  0  0  0  0  0  0  0
  -21.7210   -7.0167   21.7558 O   0  0  0  0  0  0  0  0  0  0  0  0
  -30.2824  -12.4452   28.0476 O   0  0  0  0  0  0  0  0  0  1  0  0
  -24.1751   -3.1344   24.8069 F   0  0  0  0  0  0  0  0  0  0  0  0
  -20.6114   -6.1788   24.1452 F   0  0  0  0  0  0  0  0  0  0  0  0
  1  2  1  0  0  0  0
  1  5  2  0  0  0  0
  2  6  2  0  0  0  0
  3  8  2  0  0  0  0
  3 17  1  0  0  0  0
  4  9  1  0  0  0  0
  4 17  2  0  0  0  0
  5 19  1  0  0  0  0
  6 21  1  0  0  0  0
  7 10  2  0  0  0  0
  7 20  1  0  0  0  0
  8 24  1  0  0  0  0
  9 24  2  0  0  0  0
 10 25  1  0  0  0  0
 11 12  2  0  0  0  0
 11 26  1  0  0  0  0
 12 27  1  0  0  0  0
 13 22  1  0  0  0  0
 13 25  2  0  0  0  0
 14 23  1  0  0  0  0
 14 30  2  0  0  0  0
 15 27  2  0  0  0  0
 15 28  1  0  0  0  0
 16 23  2  0  0  0  0
 16 64  1  0  0  0  0
 17 29  1  0  0  0  0
 18 29  1  0  0  0  0
 18 31  2  0  0  0  0
 18 32  1  0  0  0  0
 19 21  2  0  0  0  0
 19 37  1  0  0  0  0
 20 22  2  0  0  0  0
 20 38  1  0  0  0  0
 21 46  1  0  0  0  0
 22 39  1  0  0  0  0
 23 56  1  0  0  0  0
 24 79  1  0  0  0  0
 25 80  1  0  0  0  0
 26 28  2  0  0  0  0
 26 79  1  0  0  0  0
 27 81  1  0  0  0  0
 28 82  1  0  0  0  0
 29 63  2  0  0  0  0
 30 49  1  0  0  0  0
 30 64  1  0  0  0  0
 31 65  1  0  0  0  0
 31 68  1  0  0  0  0
 32 69  1  0  0  0  0
 32 74  2  0  0  0  0
 33 47  1  0  0  0  0
 33 70  1  0  0  0  0
 33 75  2  0  0  0  0
 34 59  1  0  0  0  0
 34 66  1  0  0  0  0
 34 76  2  0  0  0  0
 35 60  1  0  0  0  0
 35 71  1  0  0  0  0
 35 77  2  0  0  0  0
 36 67  1  0  0  0  0
 36 72  1  0  0  0  0
 36 78  2  0  0  0  0
 37 40  1  0  0  0  0
 38 47  1  0  0  0  0
 39 66  1  0  0  0  0
 40 42  1  0  0  0  0
 41 43  1  0  0  0  0
 41 44  1  0  0  0  0
 42 46  1  0  0  0  0
 43 48  1  0  0  0  0
 44 67  1  0  0  0  0
 45 48  1  0  0  0  0
 45 67  1  0  0  0  0
 46 70  1  0  0  0  0
 47 66  1  0  0  0  0
 48 65  1  0  0  0  0
 50 60  1  0  0  0  0
 51 61  1  0  0  0  0
 52 62  1  0  0  0  0
 53 62  1  0  0  0  0
 54 62  1  0  0  0  0
 55 73  1  0  0  0  0
 56 72  1  0  0  0  0
 57 58  1  0  0  0  0
 57 61  1  0  0  0  0
 58 64  1  0  0  0  0
 59 62  1  0  0  0  0
 59 71  1  0  0  0  0
 60 73  1  0  0  0  0
 61 80  1  0  0  0  0
 63 65  1  0  0  0  0
M  CHG  1  73   1
M  ISO  4  36 100  61 101  72 100  80 101
M  END
> <Batch ID>
0103

> <Smiles>
CNC(C)C(=O)NC(C(=O)N1Cc2cc([101O:1][101CH:1](C)CCn3cc(C[100NH:0][100C:0](=O)N4CCCC(n5nc(-c6ccc(Oc7ccc(F)cc7F)cc6)c(C(N)=O)c5N)C4)cc3C)ccc2CC1C(=O)NC1CCCc2ccccc21)C(C)(C)C

> <Shape>
0.205

> <Color>
0.196

> <Negative vol penalty>
0.000

$$$$

  -OEChem-04052319413D

 84 92  0     1  0  0  0  0  0999 V2000
  -19.7228  -21.8340   24.4360 C   0  0  0  0  0  0  0  0  0  0  0  0
  -21.0769  -21.5466   24.2981 C   0  0  0  0  0  0  0  0  0  0  0  0
  -28.1649  -12.5933   22.6704 C   0  0  0  0  0  0  0  0  0  0  0  0
  -27.1521  -12.9589   20.5076 C   0  0  0  0  0  0  0  0  0  0  0  0
  -19.1454  -22.8484   23.6734 C   0  0  0  0  0  0  0  0  0  0  0  0
  -21.8544  -22.2729   23.3967 C   0  0  0  0  0  0  0  0  0  0  0  0
  -28.5097  -24.7714   22.5135 C   0  0  0  0  0  0  0  0  0  0  0  0
  -27.4149  -11.4274   22.8245 C   0  0  0  0  0  0  0  0  0  0  0  0
  -26.4022  -11.7929   20.6617 C   0  0  0  0  0  0  0  0  0  0  0  0
  -29.5465  -24.7684   21.5813 C   0  0  0  0  0  0  0  0  0  0  0  0
  -23.9551   -9.1057   20.6410 C   0  0  0  0  0  0  0  0  0  0  0  0
  -22.6020   -9.1561   20.3061 C   0  0  0  0  0  0  0  0  0  0  0  0
  -28.4584  -26.5512   20.3744 C   0  0  0  0  0  0  0  0  0  0  0  0
  -27.6036  -21.3953   17.0283 C   0  0  0  0  0  0  0  0  0  0  0  0
  -22.2548  -10.8755   21.9676 C   0  0  0  0  0  0  0  0  0  0  0  0
  -27.4426  -23.3170   18.1907 C   0  0  0  0  0  0  0  0  0  0  0  0
  -28.0334  -13.3591   21.5120 C   0  0  0  0  0  0  0  0  0  0  0  0
  -30.0853  -14.6831   20.7739 C   0  0  0  0  0  0  0  0  0  0  0  0
  -19.9182  -23.5939   22.7692 C   0  0  0  0  0  0  0  0  0  0  0  0
  -27.4323  -25.6584   22.3768 C   0  0  0  0  0  0  0  0  0  0  0  0
  -21.2865  -23.2973   22.6203 C   0  0  0  0  0  0  0  0  0  0  0  0
  -27.4105  -26.5653   21.3076 C   0  0  0  0  0  0  0  0  0  0  0  0
  -26.9583  -22.0295   18.1185 C   0  0  0  0  0  0  0  0  0  0  0  0
  -26.5336  -11.0272   21.8202 C   0  0  0  0  0  0  0  0  0  0  0  0
  -29.5195  -25.6564   20.5100 C   0  0  0  0  0  0  0  0  0  0  0  0
  -24.4581   -9.9401   21.6393 C   0  0  0  0  0  0  0  0  0  0  0  0
  -21.7519  -10.0410   20.9693 C   0  0  0  0  0  0  0  0  0  0  0  0
  -23.6080  -10.8250   22.3025 C   0  0  0  0  0  0  0  0  0  0  0  0
  -28.8074  -14.5640   21.3524 C   0  0  0  0  0  0  0  0  0  0  0  0
  -28.4628  -22.3145   16.4677 C   0  0  0  0  0  0  0  0  0  0  0  0
  -30.3786  -16.0220   20.8620 C   0  0  0  0  0  0  0  0  0  0  0  0
  -30.9315  -13.6737   20.2076 C   0  0  0  0  0  0  0  0  0  0  0  0
  -24.2982  -25.3331   21.9582 C   0  0  0  0  0  0  0  0  0  0  0  0
  -24.3081  -28.5558   22.3279 C   0  0  0  0  0  0  0  0  0  0  0  0
  -26.0426  -31.4887   22.1364 C   0  0  0  0  0  0  0  0  0  0  0  0
  -26.9659  -20.9286   21.2227 C   0  0  0  0  0  0  0  0  0  0  0  0
  -19.2396  -24.6492   21.9323 C   0  0  0  0  0  0  0  0  0  0  0  0
  -26.3351  -25.6674   23.4057 C   0  0  0  0  0  0  0  0  0  0  0  0
  -26.2867  -27.5516   21.1270 C   0  0  0  0  0  0  0  0  0  0  0  0
  -20.2131  -25.6222   21.2721 C   0  0  0  0  0  0  0  0  0  0  0  0
  -29.4685  -19.8870   23.5311 C   0  0  0  0  0  0  0  0  0  0  0  0
  -21.3682  -24.8648   20.6248 C   0  0  0  0  0  0  0  0  0  0  0  0
  -29.6981  -18.4154   23.1823 C   0  0  0  0  0  0  0  0  0  0  0  0
  -28.0010  -20.2809   23.3780 C   0  0  0  0  0  0  0  0  0  0  0  0
  -27.6403  -18.4994   21.7137 C   0  0  0  0  0  0  0  0  0  0  0  0
  -22.1682  -24.0795   21.6711 C   0  0  1  0  0  0  0  0  0  0  0  0
  -25.0312  -26.2628   22.8835 C   0  0  1  0  0  0  0  0  0  0  0  0
  -29.1147  -18.0693   21.7992 C   0  0  2  0  0  0  0  0  0  0  0  0
  -28.6296  -21.8864   13.9892 C   0  0  0  0  0  0  0  0  0  0  0  0
  -30.4676  -21.1084   15.5293 C   0  0  0  0  0  0  0  0  0  0  0  0
  -25.7725  -33.9620   22.4637 C   0  0  0  0  0  0  0  0  0  0  0  0
  -32.1591  -23.9407   19.1907 C   0  0  0  0  0  0  0  0  0  0  0  0
  -22.7969  -28.7383   19.6834 C   0  0  0  0  0  0  0  0  0  0  0  0
  -23.3885  -31.1694   19.5932 C   0  0  0  0  0  0  0  0  0  0  0  0
  -21.9822  -30.2982   21.4603 C   0  0  0  0  0  0  0  0  0  0  0  0
  -28.1033  -31.5500   24.2597 C   0  0  0  0  0  0  0  0  0  0  0  0
  -25.9526  -21.4241   19.0121 C   0  0  0  0  0  0  0  0  0  0  0  0
  -30.5825  -24.7060   17.3787 C   0  0  0  0  0  0  0  0  0  0  0  0
  -29.1192  -24.7520   16.9156 C   0  0  0  0  0  0  0  0  0  0  0  0
  -29.3737  -22.1789   15.3122 C   0  0  0  0  0  0  0  0  0  0  0  0
  -24.4469  -29.7380   21.3993 C   0  0  1  0  0  0  0  0  0  0  0  0
  -26.1755  -32.6457   23.1100 C   0  0  2  0  0  0  0  0  0  0  0  0
  -30.7548  -24.4428   18.8799 C   0  0  2  0  0  0  0  0  0  1  0  0
  -23.1740  -29.9662   20.5361 C   0  0  0  0  0  0  0  0  0  0  0  0
  -28.3224  -15.7339   21.7767 N   0  0  0  0  0  0  0  0  0  0  0  0
  -28.3567  -23.4789   17.1825 N   0  0  0  0  0  0  0  0  0  0  0  0
  -29.3007  -16.6009   21.4647 N   0  0  0  0  0  0  0  0  0  0  0  0
  -25.2341  -27.5172   22.1558 N   0  0  0  0  0  0  0  0  0  0  0  0
  -27.5095  -19.9272   22.0441 N   0  0  0  0  0  0  0  0  0  0  0  0
  -31.4508  -16.7488   20.4819 N   0  0  0  0  0  0  0  0  0  0  0  0
  -30.4759  -12.3483   20.1977 N   0  0  0  0  0  0  0  0  0  0  0  0
  -23.0441  -24.9657   22.4073 N   0  0  0  0  0  0  0  0  0  0  0  0
  -24.8121  -30.8748   22.2376 N   0  0  0  0  0  0  0  0  0  0  0  0
  -26.5295  -20.5093   19.9719 N   0  0  0  0  0  0  0  0  0  0  0  0
  -27.5838  -32.7659   23.5825 N   0  3  0  0  0  0  0  0  0  0  0  0
  -32.0652  -13.9367   19.7394 O   0  0  0  0  0  0  0  0  0  0  0  0
  -24.8304  -24.9768   20.9135 O   0  0  0  0  0  0  0  0  0  0  0  0
  -23.4155  -28.5571   23.1793 O   0  0  0  0  0  0  0  0  0  0  0  0
  -26.9392  -31.1644   21.3608 O   0  0  0  0  0  0  0  0  0  0  0  0
  -26.8810  -22.1097   21.5756 O   0  0  0  0  0  0  0  0  0  0  0  0
  -25.8018   -9.8894   21.9701 O   0  0  0  0  0  0  0  0  0  0  0  0
  -30.5298  -25.6551   19.5983 O   0  0  0  0  0  0  0  0  0  1  0  0
  -20.4528  -10.0904   20.6465 F   0  0  0  0  0  0  0  0  0  0  0  0
  -24.0856  -11.6299   23.2616 F   0  0  0  0  0  0  0  0  0  0  0  0
  1  2  1  0  0  0  0
  1  5  2  0  0  0  0
  2  6  2  0  0  0  0
  3  8  2  0  0  0  0
  3 17  1  0  0  0  0
  4  9  1  0  0  0  0
  4 17  2  0  0  0  0
  5 19  1  0  0  0  0
  6 21  1  0  0  0  0
  7 10  2  0  0  0  0
  7 20  1  0  0  0  0
  8 24  1  0  0  0  0
  9 24  2  0  0  0  0
 10 25  1  0  0  0  0
 11 12  2  0  0  0  0
 11 26  1  0  0  0  0
 12 27  1  0  0  0  0
 13 22  1  0  0  0  0
 13 25  2  0  0  0  0
 14 23  1  0  0  0  0
 14 30  2  0  0  0  0
 15 27  2  0  0  0  0
 15 28  1  0  0  0  0
 16 23  2  0  0  0  0
 16 66  1  0  0  0  0
 17 29  1  0  0  0  0
 18 29  1  0  0  0  0
 18 31  2  0  0  0  0
 18 32  1  0  0  0  0
 19 21  2  0  0  0  0
 19 37  1  0  0  0  0
 20 22  2  0  0  0  0
 20 38  1  0  0  0  0
 21 46  1  0  0  0  0
 22 39  1  0  0  0  0
 23 57  1  0  0  0  0
 24 81  1  0  0  0  0
 25 82  1  0  0  0  0
 26 28  2  0  0  0  0
 26 81  1  0  0  0  0
 27 83  1  0  0  0  0
 28 84  1  0  0  0  0
 29 65  2  0  0  0  0
 30 60  1  0  0  0  0
 30 66  1  0  0  0  0
 31 67  1  0  0  0  0
 31 70  1  0  0  0  0
 32 71  1  0  0  0  0
 32 76  2  0  0  0  0
 33 47  1  0  0  0  0
 33 72  1  0  0  0  0
 33 77  2  0  0  0  0
 34 61  1  0  0  0  0
 34 68  1  0  0  0  0
 34 78  2  0  0  0  0
 35 62  1  0  0  0  0
 35 73  1  0  0  0  0
 35 79  2  0  0  0  0
 36 69  1  0  0  0  0
 36 74  1  0  0  0  0
 36 80  2  0  0  0  0
 37 40  1  0  0  0  0
 38 47  1  0  0  0  0
 39 68  1  0  0  0  0
 40 42  1  0  0  0  0
 41 43  1  0  0  0  0
 41 44  1  0  0  0  0
 42 46  1  0  0  0  0
 43 48  1  0  0  0  0
 44 69  1  0  0  0  0
 45 48  1  0  0  0  0
 45 69  1  0  0  0  0
 46 72  1  0  0  0  0
 47 68  1  0  0  0  0
 48 67  1  0  0  0  0
 49 60  1  0  0  0  0
 50 60  1  0  0  0  0
 51 62  1  0  0  0  0
 52 63  1  0  0  0  0
 53 64  1  0  0  0  0
 54 64  1  0  0  0  0
 55 64  1  0  0  0  0
 56 75  1  0  0  0  0
 57 74  1  0  0  0  0
 58 59  1  0  0  0  0
 58 63  1  0  0  0  0
 59 66  1  0  0  0  0
 61 64  1  0  0  0  0
 61 73  1  0  0  0  0
 62 75  1  0  0  0  0
 63 82  1  0  0  0  0
 65 67  1  0  0  0  0
M  CHG  1  75   1
M  ISO  4  36 100  63 101  74 100  82 101
M  END
> <Batch ID>
0103

> <Smiles>
CNC(C)C(=O)NC(C(=O)N1Cc2cc([101O:1][101CH:1](C)CCn3cc(C[100NH:0][100C:0](=O)N4CCCC(n5nc(-c6ccc(Oc7ccc(F)cc7F)cc6)c(C(N)=O)c5N)C4)cc3C(C)C)ccc2CC1C(=O)NC1CCCc2ccccc21)C(C)(C)C

> <Shape>
0.238

> <Color>
0.056

> <Negative vol penalty>
0.000

$$$$

  -OEChem-04052319413D

 80 87  0     1  0  0  0  0  0999 V2000
  -29.8021  -19.6120   26.9170 C   0  0  0  0  0  0  0  0  0  0  0  0
  -29.6454  -20.7946   26.2029 C   0  0  0  0  0  0  0  0  0  0  0  0
  -26.5789  -14.7542   21.4077 C   0  0  0  0  0  0  0  0  0  0  0  0
  -26.4228  -14.9808   19.0075 C   0  0  0  0  0  0  0  0  0  0  0  0
  -28.7675  -18.6794   26.9491 C   0  0  0  0  0  0  0  0  0  0  0  0
  -28.4498  -21.0503   25.5307 C   0  0  0  0  0  0  0  0  0  0  0  0
  -27.9272  -25.5088   23.5175 C   0  0  0  0  0  0  0  0  0  0  0  0
  -25.5355  -13.8287   21.3882 C   0  0  0  0  0  0  0  0  0  0  0  0
  -25.3794  -14.0552   18.9879 C   0  0  0  0  0  0  0  0  0  0  0  0
  -28.6282  -25.9094   22.3809 C   0  0  0  0  0  0  0  0  0  0  0  0
  -25.1242  -10.5536   20.6548 C   0  0  0  0  0  0  0  0  0  0  0  0
  -25.2735   -9.3924   21.4130 C   0  0  0  0  0  0  0  0  0  0  0  0
  -26.6416  -25.5898   21.0504 C   0  0  0  0  0  0  0  0  0  0  0  0
  -23.3044   -9.9714   22.6875 C   0  0  0  0  0  0  0  0  0  0  0  0
  -27.0225  -15.3303   20.2173 C   0  0  0  0  0  0  0  0  0  0  0  0
  -29.4771  -16.0186   20.1219 C   0  0  0  0  0  0  0  0  0  0  0  0
  -27.5636  -18.9191   26.2663 C   0  0  0  0  0  0  0  0  0  0  0  0
  -26.5788  -25.1346   23.4270 C   0  0  0  0  0  0  0  0  0  0  0  0
  -27.3849  -20.1322   25.5708 C   0  0  0  0  0  0  0  0  0  0  0  0
  -25.9250  -25.1873   22.1877 C   0  0  0  0  0  0  0  0  0  0  0  0
  -24.9358  -13.4792   20.1783 C   0  0  0  0  0  0  0  0  0  0  0  0
  -27.9862  -25.9472   21.1466 C   0  0  0  0  0  0  0  0  0  0  0  0
  -24.0651  -11.4239   20.9130 C   0  0  0  0  0  0  0  0  0  0  0  0
  -24.3636   -9.1013   22.4293 C   0  0  0  0  0  0  0  0  0  0  0  0
  -23.1551  -11.1327   21.9293 C   0  0  0  0  0  0  0  0  0  0  0  0
  -28.0999  -16.2868   20.2369 C   0  0  0  0  0  0  0  0  0  0  0  0
  -30.0749  -17.2527   20.1987 C   0  0  0  0  0  0  0  0  0  0  0  0
  -30.1553  -14.7658   19.9599 C   0  0  0  0  0  0  0  0  0  0  0  0
  -24.9485  -22.4657   23.9953 C   0  0  0  0  0  0  0  0  0  0  0  0
  -22.3883  -24.3626   23.3876 C   0  0  0  0  0  0  0  0  0  0  0  0
  -21.1498  -27.1622   21.8793 C   0  0  0  0  0  0  0  0  0  0  0  0
  -30.3568  -22.5040   18.6848 C   0  0  0  0  0  0  0  0  0  0  0  0
  -26.4737  -17.8789   26.3410 C   0  0  0  0  0  0  0  0  0  0  0  0
  -25.8294  -24.7304   24.6670 C   0  0  0  0  0  0  0  0  0  0  0  0
  -24.4731  -24.8150   22.0406 C   0  0  0  0  0  0  0  0  0  0  0  0
  -25.4263  -18.0354   25.2434 C   0  0  0  0  0  0  0  0  0  0  0  0
  -28.1696  -21.7629   21.4713 C   0  0  0  0  0  0  0  0  0  0  0  0
  -24.9509  -19.4792   25.1806 C   0  0  0  0  0  0  0  0  0  0  0  0
  -28.0725  -20.2387   21.3847 C   0  0  0  0  0  0  0  0  0  0  0  0
  -28.2058  -22.3943   20.0827 C   0  0  0  0  0  0  0  0  0  0  0  0
  -29.1955  -20.3566   19.1121 C   0  0  0  0  0  0  0  0  0  0  0  0
  -26.1048  -20.4183   24.8067 C   0  0  1  0  0  0  0  0  0  0  0  0
  -24.5993  -23.8781   24.3706 C   0  0  1  0  0  0  0  0  0  0  0  0
  -29.1777  -19.6571   20.4834 C   0  0  2  0  0  0  0  0  0  0  0  0
  -19.0121  -28.4289   21.5287 C   0  0  0  0  0  0  0  0  0  0  0  0
  -21.5047  -22.2958   21.3242 C   0  0  0  0  0  0  0  0  0  0  0  0
  -19.9562  -24.0150   20.3679 C   0  0  0  0  0  0  0  0  0  0  0  0
  -19.6533  -23.2357   22.7182 C   0  0  0  0  0  0  0  0  0  0  0  0
  -27.9158  -28.6957   17.1791 C   0  0  0  0  0  0  0  0  0  0  0  0
  -29.2204  -29.1147   19.2682 C   0  0  0  0  0  0  0  0  0  0  0  0
  -22.2134  -29.5635   23.2436 C   0  0  0  0  0  0  0  0  0  0  0  0
  -29.1491  -26.2067   15.6800 C   0  0  0  0  0  0  0  0  0  0  0  0
  -31.4067  -24.7258   18.3410 C   0  0  0  0  0  0  0  0  0  0  0  0
  -31.0563  -25.2425   16.9581 C   0  0  0  0  0  0  0  0  0  0  0  0
  -30.0605  -27.4149   17.6577 C   0  0  0  0  0  0  0  0  0  0  0  0
  -27.9182  -26.9782   19.0046 C   0  0  0  0  0  0  0  0  0  1  0  0
  -21.6058  -24.7390   22.1527 C   0  0  1  0  0  0  0  0  0  0  0  0
  -20.2512  -28.2710   22.3962 C   0  0  2  0  0  0  0  0  0  0  0  0
  -20.7079  -23.5766   21.6429 C   0  0  0  0  0  0  0  0  0  0  0  0
  -28.7782  -28.0276   18.2658 C   0  0  0  0  0  0  0  0  0  0  0  0
  -27.8382  -17.5892   20.3764 N   0  0  0  0  0  0  0  0  0  0  0  0
  -29.0590  -18.1502   20.3496 N   0  0  0  0  0  0  0  0  0  0  0  0
  -23.7851  -24.4204   23.2810 N   0  0  0  0  0  0  0  0  0  0  0  0
  -29.2912  -21.8103   19.2821 N   0  0  0  0  0  0  0  0  0  0  0  0
  -31.3651  -17.6469   20.1513 N   0  0  0  0  0  0  0  0  0  0  0  0
  -29.3888  -13.5939   19.8999 N   0  0  0  0  0  0  0  0  0  0  0  0
  -25.6675  -21.7882   24.9616 N   0  0  0  0  0  0  0  0  0  0  0  0
  -20.8745  -25.9560   22.4881 N   0  0  0  0  0  0  0  0  0  0  0  0
  -30.3704  -23.8785   18.8880 N   0  0  0  0  0  0  0  0  0  0  0  0
  -20.9844  -29.5684   22.4090 N   0  3  0  0  0  0  0  0  0  0  0  0
  -29.8121  -26.0937   17.0311 N   0  3  1  0  0  0  0  0  0  0  0  0
  -31.4051  -14.6863   19.8876 O   0  0  0  0  0  0  0  0  0  0  0  0
  -24.5908  -22.0227   22.9102 O   0  0  0  0  0  0  0  0  0  0  0  0
  -21.7824  -24.0363   24.4114 O   0  0  0  0  0  0  0  0  0  0  0  0
  -22.0075  -27.3466   21.0185 O   0  0  0  0  0  0  0  0  0  0  0  0
  -31.2348  -21.9393   18.0235 O   0  0  0  0  0  0  0  0  0  0  0  0
  -23.9178  -12.5759   20.1589 O   0  0  0  0  0  0  0  0  0  0  0  0
  -28.6683  -26.3373   20.0356 O   0  0  0  0  0  0  0  0  0  1  0  0
  -24.5061   -7.9853   23.1563 F   0  0  0  0  0  0  0  0  0  0  0  0
  -22.1349  -11.9643   22.1812 F   0  0  0  0  0  0  0  0  0  0  0  0
  1  2  1  0  0  0  0
  1  5  2  0  0  0  0
  2  6  2  0  0  0  0
  3  8  2  0  0  0  0
  3 15  1  0  0  0  0
  4  9  1  0  0  0  0
  4 15  2  0  0  0  0
  5 17  1  0  0  0  0
  6 19  1  0  0  0  0
  7 10  2  0  0  0  0
  7 18  1  0  0  0  0
  8 21  1  0  0  0  0
  9 21  2  0  0  0  0
 10 22  1  0  0  0  0
 11 12  2  0  0  0  0
 11 23  1  0  0  0  0
 12 24  1  0  0  0  0
 13 20  1  0  0  0  0
 13 22  2  0  0  0  0
 14 24  2  0  0  0  0
 14 25  1  0  0  0  0
 15 26  1  0  0  0  0
 16 26  1  0  0  0  0
 16 27  2  0  0  0  0
 16 28  1  0  0  0  0
 17 19  2  0  0  0  0
 17 33  1  0  0  0  0
 18 20  2  0  0  0  0
 18 34  1  0  0  0  0
 19 42  1  0  0  0  0
 20 35  1  0  0  0  0
 21 77  1  0  0  0  0
 22 78  1  0  0  0  0
 23 25  2  0  0  0  0
 23 77  1  0  0  0  0
 24 79  1  0  0  0  0
 25 80  1  0  0  0  0
 26 61  2  0  0  0  0
 27 62  1  0  0  0  0
 27 65  1  0  0  0  0
 28 66  1  0  0  0  0
 28 72  2  0  0  0  0
 29 43  1  0  0  0  0
 29 67  1  0  0  0  0
 29 73  2  0  0  0  0
 30 57  1  0  0  0  0
 30 63  1  0  0  0  0
 30 74  2  0  0  0  0
 31 58  1  0  0  0  0
 31 68  1  0  0  0  0
 31 75  2  0  0  0  0
 32 64  1  0  0  0  0
 32 69  1  0  0  0  0
 32 76  2  0  0  0  0
 33 36  1  0  0  0  0
 34 43  1  0  0  0  0
 35 63  1  0  0  0  0
 36 38  1  0  0  0  0
 37 39  1  0  0  0  0
 37 40  1  0  0  0  0
 38 42  1  0  0  0  0
 39 44  1  0  0  0  0
 40 64  1  0  0  0  0
 41 44  1  0  0  0  0
 41 64  1  0  0  0  0
 42 67  1  0  0  0  0
 43 63  1  0  0  0  0
 44 62  1  0  0  0  0
 45 58  1  0  0  0  0
 46 59  1  0  0  0  0
 47 59  1  0  0  0  0
 48 59  1  0  0  0  0
 49 60  1  0  0  0  0
 50 60  1  0  0  0  0
 51 70  1  0  0  0  0
 52 71  1  0  0  0  0
 53 54  1  0  0  0  0
 53 69  1  0  0  0  0
 54 71  1  0  0  0  0
 55 60  1  0  0  0  0
 55 71  1  0  0  0  0
 56 60  1  0  0  0  0
 56 78  1  0  0  0  0
 57 59  1  0  0  0  0
 57 68  1  0  0  0  0
 58 70  1  0  0  0  0
 61 62  1  0  0  0  0
M  CHG  2  70   1  71   1
M  ISO  4  32 100  56 101  69 100  78 101
M  END
> <Batch ID>
0103

> <Smiles>
CNC(C)C(=O)NC(C(=O)N1Cc2cc([101O:1][101CH2:1]C(C)(C)CN(C)CC[100NH:0][100C:0](=O)N3CCCC(n4nc(-c5ccc(Oc6ccc(F)cc6F)cc5)c(C(N)=O)c4N)C3)ccc2CC1C(=O)NC1CCCc2ccccc21)C(C)(C)C

> <Shape>
0.209

> <Color>
0.054

> <Negative vol penalty>
0.000

$$$$

  -OEChem-04052319413D

 85 93  0     1  0  0  0  0  0999 V2000
  -28.2809  -11.2835   21.4566 C   0  0  0  0  0  0  0  0  0  0  0  0
  -28.7613  -12.3854   20.7562 C   0  0  0  0  0  0  0  0  0  0  0  0
  -24.3184  -28.4798   21.8123 C   0  0  0  0  0  0  0  0  0  0  0  0
  -25.5755  -30.1539   20.6064 C   0  0  0  0  0  0  0  0  0  0  0  0
  -26.9076  -11.1089   21.6222 C   0  0  0  0  0  0  0  0  0  0  0  0
  -27.8685  -13.3127   20.2200 C   0  0  0  0  0  0  0  0  0  0  0  0
  -29.2901  -18.0973   21.0756 C   0  0  0  0  0  0  0  0  0  0  0  0
  -23.8057  -29.4691   22.6513 C   0  0  0  0  0  0  0  0  0  0  0  0
  -25.0627  -31.1433   21.4454 C   0  0  0  0  0  0  0  0  0  0  0  0
  -30.3017  -18.6150   20.2680 C   0  0  0  0  0  0  0  0  0  0  0  0
  -24.3662  -34.0628   23.4950 C   0  0  0  0  0  0  0  0  0  0  0  0
  -25.2550  -35.0159   23.9923 C   0  0  0  0  0  0  0  0  0  0  0  0
  -28.6443  -19.7381   18.9223 C   0  0  0  0  0  0  0  0  0  0  0  0
  -26.5324  -33.2663   25.0620 C   0  0  0  0  0  0  0  0  0  0  0  0
  -32.7858  -22.4288   16.6383 C   0  0  0  0  0  0  0  0  0  0  0  0
  -25.2034  -28.8222   20.7898 C   0  0  0  0  0  0  0  0  0  0  0  0
  -25.1818  -27.3428   18.7117 C   0  0  0  0  0  0  0  0  0  0  0  0
  -25.9979  -12.0396   21.0961 C   0  0  0  0  0  0  0  0  0  0  0  0
  -27.9450  -18.3877   20.8057 C   0  0  0  0  0  0  0  0  0  0  0  0
  -26.4817  -13.1496   20.3776 C   0  0  0  0  0  0  0  0  0  0  0  0
  -27.6176  -19.2248   19.7295 C   0  0  0  0  0  0  0  0  0  0  0  0
  -33.9639  -22.9933   17.0749 C   0  0  0  0  0  0  0  0  0  0  0  0
  -34.8775  -21.9365   17.3106 C   0  0  0  0  0  0  0  0  0  0  0  0
  -24.1778  -30.8008   22.4679 C   0  0  0  0  0  0  0  0  0  0  0  0
  -29.9787  -19.4332   19.1894 C   0  0  0  0  0  0  0  0  0  0  0  0
  -24.5604  -32.7115   23.7813 C   0  0  0  0  0  0  0  0  0  0  0  0
  -26.3382  -34.6176   24.7757 C   0  0  0  0  0  0  0  0  0  0  0  0
  -25.6435  -32.3133   24.5648 C   0  0  0  0  0  0  0  0  0  0  0  0
  -25.7338  -27.8006   19.9232 C   0  0  0  0  0  0  0  0  0  0  0  0
  -34.2299  -20.7584   17.0108 C   0  0  0  0  0  0  0  0  0  0  0  0
  -26.0565  -26.3759   18.2796 C   0  0  0  0  0  0  0  0  0  0  0  0
  -23.9855  -27.7546   18.0373 C   0  0  0  0  0  0  0  0  0  0  0  0
  -25.3885  -16.6626   20.0363 C   0  0  0  0  0  0  0  0  0  0  0  0
  -23.8561  -19.5029   20.3638 C   0  0  0  0  0  0  0  0  0  0  0  0
  -24.0336  -22.9109   20.3344 C   0  0  0  0  0  0  0  0  0  0  0  0
  -31.8195  -25.5601   19.2681 C   0  0  0  0  0  0  0  0  0  0  0  0
  -24.5207  -11.7834   21.2600 C   0  0  0  0  0  0  0  0  0  0  0  0
  -26.8672  -17.8430   21.7024 C   0  0  0  0  0  0  0  0  0  0  0  0
  -26.1902  -19.5833   19.4094 C   0  0  0  0  0  0  0  0  0  0  0  0
  -23.6553  -13.0100   20.9831 C   0  0  0  0  0  0  0  0  0  0  0  0
  -29.1937  -23.1582   19.9263 C   0  0  0  0  0  0  0  0  0  0  0  0
  -24.0983  -13.6960   19.6947 C   0  0  0  0  0  0  0  0  0  0  0  0
  -27.9499  -24.0477   19.8826 C   0  0  0  0  0  0  0  0  0  0  0  0
  -30.3713  -23.8855   20.5685 C   0  0  0  0  0  0  0  0  0  0  0  0
  -29.4747  -26.0762   19.8826 C   0  0  0  0  0  0  0  0  0  0  0  0
  -25.5458  -14.1905   19.8025 C   0  0  1  0  0  0  0  0  0  0  0  0
  -25.5003  -17.7864   21.0273 C   0  0  1  0  0  0  0  0  0  0  0  0
  -28.2553  -25.4060   19.2239 C   0  0  2  0  0  0  0  0  0  0  0  0
  -34.1821  -18.6091   18.3011 C   0  0  0  0  0  0  0  0  0  0  0  0
  -37.3095  -21.5499   16.7722 C   0  0  0  0  0  0  0  0  0  0  0  0
  -36.5046  -21.3861   19.1555 C   0  0  0  0  0  0  0  0  0  0  0  0
  -22.6090  -24.9599   20.5975 C   0  0  0  0  0  0  0  0  0  0  0  0
  -22.7263  -19.0741   17.5621 C   0  0  0  0  0  0  0  0  0  0  0  0
  -22.1229  -21.5033   17.5092 C   0  0  0  0  0  0  0  0  0  0  0  0
  -21.0941  -20.0013   19.2145 C   0  0  0  0  0  0  0  0  0  0  0  0
  -25.5883  -23.8324   22.6781 C   0  0  0  0  0  0  0  0  0  0  0  0
  -34.2163  -24.4364   17.2598 C   0  0  0  0  0  0  0  0  0  0  0  0
  -34.7108  -19.3621   17.0766 C   0  0  0  0  0  0  0  0  0  0  0  0
  -31.8995  -20.0829   16.1773 C   0  0  0  0  0  0  0  0  0  0  0  0
  -34.1501  -24.9038   18.7250 C   0  0  0  0  0  0  0  0  0  0  0  0
  -30.6396  -20.1808   17.0306 C   0  0  0  0  0  0  0  0  0  1  0  0
  -36.2688  -22.0706   17.7898 C   0  0  0  0  0  0  0  0  0  0  0  0
  -23.5264  -20.6523   19.4423 C   0  0  1  0  0  0  0  0  0  0  0  0
  -23.5073  -23.9553   21.3022 C   0  0  2  0  0  0  0  0  0  0  0  0
  -22.3943  -20.2996   18.4367 C   0  0  0  0  0  0  0  0  0  0  0  0
  -26.8710  -27.1759   20.2403 N   0  0  0  0  0  0  0  0  0  0  0  0
  -32.9592  -21.0698   16.6029 N   0  0  0  0  0  0  0  0  0  0  0  0
  -27.0406  -26.3156   19.2220 N   0  0  0  0  0  0  0  0  0  0  0  0
  -25.1718  -19.0210   20.3117 N   0  0  0  0  0  0  0  0  0  0  0  0
  -30.6212  -25.1615   19.8833 N   0  0  0  0  0  0  0  0  0  0  0  0
  -26.0720  -25.5800   17.1894 N   0  0  0  0  0  0  0  0  0  0  0  0
  -23.2028  -28.7608   18.6198 N   0  0  0  0  0  0  0  0  0  0  0  0
  -25.6066  -15.4105   20.5786 N   0  0  0  0  0  0  0  0  0  0  0  0
  -23.2280  -21.7923   20.3023 N   0  0  0  0  0  0  0  0  0  0  0  0
  -32.8586  -24.6389   19.3190 N   0  0  0  0  0  0  0  0  0  0  0  0
  -24.6378  -24.6955   21.9307 N   0  3  0  0  0  0  0  0  0  0  0  0
  -23.6128  -27.2340   16.9586 O   0  0  0  0  0  0  0  0  0  0  0  0
  -25.1224  -16.9128   18.8665 O   0  0  0  0  0  0  0  0  0  0  0  0
  -22.9806  -19.0539   21.1078 O   0  0  0  0  0  0  0  0  0  0  0  0
  -25.0551  -23.0727   19.6704 O   0  0  0  0  0  0  0  0  0  0  0  0
  -31.9523  -26.6544   18.7096 O   0  0  0  0  0  0  0  0  0  0  0  0
  -23.6775  -31.7665   23.2863 O   0  0  0  0  0  0  0  0  0  0  0  0
  -30.9642  -19.9394   18.3991 O   0  0  0  0  0  0  0  0  0  1  0  0
  -27.1925  -35.5328   25.2519 F   0  0  0  0  0  0  0  0  0  0  0  0
  -25.8360  -31.0164   24.8422 F   0  0  0  0  0  0  0  0  0  0  0  0
  1  2  1  0  0  0  0
  1  5  2  0  0  0  0
  2  6  2  0  0  0  0
  3  8  2  0  0  0  0
  3 16  1  0  0  0  0
  4  9  1  0  0  0  0
  4 16  2  0  0  0  0
  5 18  1  0  0  0  0
  6 20  1  0  0  0  0
  7 10  2  0  0  0  0
  7 19  1  0  0  0  0
  8 24  1  0  0  0  0
  9 24  2  0  0  0  0
 10 25  1  0  0  0  0
 11 12  2  0  0  0  0
 11 26  1  0  0  0  0
 12 27  1  0  0  0  0
 13 21  1  0  0  0  0
 13 25  2  0  0  0  0
 14 27  2  0  0  0  0
 14 28  1  0  0  0  0
 15 22  2  0  0  0  0
 15 67  1  0  0  0  0
 16 29  1  0  0  0  0
 17 29  1  0  0  0  0
 17 31  2  0  0  0  0
 17 32  1  0  0  0  0
 18 20  2  0  0  0  0
 18 37  1  0  0  0  0
 19 21  2  0  0  0  0
 19 38  1  0  0  0  0
 20 46  1  0  0  0  0
 21 39  1  0  0  0  0
 22 23  1  0  0  0  0
 22 57  1  0  0  0  0
 23 30  2  0  0  0  0
 23 62  1  0  0  0  0
 24 82  1  0  0  0  0
 25 83  1  0  0  0  0
 26 28  2  0  0  0  0
 26 82  1  0  0  0  0
 27 84  1  0  0  0  0
 28 85  1  0  0  0  0
 29 66  2  0  0  0  0
 30 58  1  0  0  0  0
 30 67  1  0  0  0  0
 31 68  1  0  0  0  0
 31 71  1  0  0  0  0
 32 72  1  0  0  0  0
 32 77  2  0  0  0  0
 33 47  1  0  0  0  0
 33 73  1  0  0  0  0
 33 78  2  0  0  0  0
 34 63  1  0  0  0  0
 34 69  1  0  0  0  0
 34 79  2  0  0  0  0
 35 64  1  0  0  0  0
 35 74  1  0  0  0  0
 35 80  2  0  0  0  0
 36 70  1  0  0  0  0
 36 75  1  0  0  0  0
 36 81  2  0  0  0  0
 37 40  1  0  0  0  0
 38 47  1  0  0  0  0
 39 69  1  0  0  0  0
 40 42  1  0  0  0  0
 41 43  1  0  0  0  0
 41 44  1  0  0  0  0
 42 46  1  0  0  0  0
 43 48  1  0  0  0  0
 44 70  1  0  0  0  0
 45 48  1  0  0  0  0
 45 70  1  0  0  0  0
 46 73  1  0  0  0  0
 47 69  1  0  0  0  0
 48 68  1  0  0  0  0
 49 58  1  0  0  0  0
 50 62  1  0  0  0  0
 51 62  1  0  0  0  0
 52 64  1  0  0  0  0
 53 65  1  0  0  0  0
 54 65  1  0  0  0  0
 55 65  1  0  0  0  0
 56 76  1  0  0  0  0
 57 60  1  0  0  0  0
 59 61  1  0  0  0  0
 59 67  1  0  0  0  0
 60 75  1  0  0  0  0
 61 83  1  0  0  0  0
 63 65  1  0  0  0  0
 63 74  1  0  0  0  0
 64 76  1  0  0  0  0
 66 68  1  0  0  0  0
M  CHG  1  76   1
M  ISO  4  36 100  61 101  75 100  83 101
M  END
> <Batch ID>
0103

> <Smiles>
CCc1c(C(C)C)c(CC[100NH:0][100C:0](=O)N2CCCC(n3nc(-c4ccc(Oc5ccc(F)cc5F)cc4)c(C(N)=O)c3N)C2)cn1C[101CH2:1][101O:1]c1ccc2c(c1)CN(C(=O)C(NC(=O)C(C)NC)C(C)(C)C)C(C(=O)NC1CCCc3ccccc31)C2

> <Shape>
0.235

> <Color>
0.061

> <Negative vol penalty>
0.000

$$$$

  -OEChem-04052319413D

 82 90  0     1  0  0  0  0  0999 V2000
  -24.2265   -8.5209   21.4812 C   0  0  0  0  0  0  0  0  0  0  0  0
  -25.3133   -9.2541   21.0158 C   0  0  0  0  0  0  0  0  0  0  0  0
  -27.0748  -29.2774   20.6107 C   0  0  0  0  0  0  0  0  0  0  0  0
  -25.4237  -27.5961   21.1438 C   0  0  0  0  0  0  0  0  0  0  0  0
  -22.9921   -9.1437   21.6602 C   0  0  0  0  0  0  0  0  0  0  0  0
  -25.1660  -10.6106   20.7281 C   0  0  0  0  0  0  0  0  0  0  0  0
  -28.9821  -13.4058   22.5361 C   0  0  0  0  0  0  0  0  0  0  0  0
  -26.0784  -30.2535   20.6032 C   0  0  0  0  0  0  0  0  0  0  0  0
  -24.4273  -28.5722   21.1363 C   0  0  0  0  0  0  0  0  0  0  0  0
  -30.1777  -13.3909   21.8191 C   0  0  0  0  0  0  0  0  0  0  0  0
  -24.3308  -32.0465   22.8757 C   0  0  0  0  0  0  0  0  0  0  0  0
  -24.5954  -33.2478   23.5331 C   0  0  0  0  0  0  0  0  0  0  0  0
  -29.5942  -15.5049   20.8142 C   0  0  0  0  0  0  0  0  0  0  0  0
  -33.1545  -19.4227   16.0022 C   0  0  0  0  0  0  0  0  0  0  0  0
  -24.2892  -34.4498   21.4598 C   0  0  0  0  0  0  0  0  0  0  0  0
  -33.5439  -17.2840   15.4153 C   0  0  0  0  0  0  0  0  0  0  0  0
  -26.7474  -27.9486   20.8809 C   0  0  0  0  0  0  0  0  0  0  0  0
  -28.5526  -26.5253   21.9868 C   0  0  0  0  0  0  0  0  0  0  0  0
  -22.8320  -10.5107   21.3836 C   0  0  0  0  0  0  0  0  0  0  0  0
  -28.0771  -14.4668   22.3891 C   0  0  0  0  0  0  0  0  0  0  0  0
  -23.9279  -11.2520   20.9022 C   0  0  0  0  0  0  0  0  0  0  0  0
  -28.3890  -15.5321   21.5325 C   0  0  0  0  0  0  0  0  0  0  0  0
  -33.9458  -18.5807   15.1823 C   0  0  0  0  0  0  0  0  0  0  0  0
  -24.7547  -29.9009   20.8661 C   0  0  0  0  0  0  0  0  0  0  0  0
  -30.4826  -14.4392   20.9558 C   0  0  0  0  0  0  0  0  0  0  0  0
  -24.0455  -32.0467   21.5102 C   0  0  0  0  0  0  0  0  0  0  0  0
  -24.5746  -34.4495   22.8252 C   0  0  0  0  0  0  0  0  0  0  0  0
  -24.0247  -33.2484   20.8023 C   0  0  0  0  0  0  0  0  0  0  0  0
  -27.7761  -26.9397   20.8882 C   0  0  0  0  0  0  0  0  0  0  0  0
  -32.2934  -18.6148   16.7115 C   0  0  0  0  0  0  0  0  0  0  0  0
  -29.3773  -25.5525   21.4770 C   0  0  0  0  0  0  0  0  0  0  0  0
  -28.5303  -26.9790   23.3467 C   0  0  0  0  0  0  0  0  0  0  0  0
  -25.0782  -14.7322   21.3693 C   0  0  0  0  0  0  0  0  0  0  0  0
  -25.4238  -17.8010   22.3618 C   0  0  0  0  0  0  0  0  0  0  0  0
  -27.5207  -20.4015   23.0598 C   0  0  0  0  0  0  0  0  0  0  0  0
  -30.1161  -21.0338   18.4799 C   0  0  0  0  0  0  0  0  0  0  0  0
  -21.4663  -11.1294   21.5475 C   0  0  0  0  0  0  0  0  0  0  0  0
  -26.8039  -14.4810   23.1899 C   0  0  0  0  0  0  0  0  0  0  0  0
  -27.4606  -16.7046   21.3544 C   0  0  0  0  0  0  0  0  0  0  0  0
  -21.4884  -12.6555   21.5761 C   0  0  0  0  0  0  0  0  0  0  0  0
  -30.2846  -24.1770   16.6941 C   0  0  0  0  0  0  0  0  0  0  0  0
  -22.3614  -13.1979   20.4489 C   0  0  0  0  0  0  0  0  0  0  0  0
  -29.7064  -25.1453   17.7275 C   0  0  0  0  0  0  0  0  0  0  0  0
  -29.5643  -22.8324   16.7326 C   0  0  0  0  0  0  0  0  0  0  0  0
  -28.9759  -23.1435   19.1055 C   0  0  0  0  0  0  0  0  0  0  0  0
  -23.8140  -12.7310   20.6026 C   0  0  1  0  0  0  0  0  0  0  0  0
  -25.7202  -15.3604   22.5738 C   0  0  1  0  0  0  0  0  0  0  0  0
  -29.6768  -24.5139   19.1321 C   0  0  2  0  0  0  0  0  0  0  0  0
  -35.0048  -19.0120   14.2501 C   0  0  0  0  0  0  0  0  0  0  0  0
  -27.5074  -22.7947   23.8146 C   0  0  0  0  0  0  0  0  0  0  0  0
  -32.1789  -13.1720   18.2784 C   0  0  0  0  0  0  0  0  0  0  0  0
  -24.5177  -18.6706   19.5810 C   0  0  0  0  0  0  0  0  0  0  0  0
  -25.4205  -20.9526   20.0766 C   0  0  0  0  0  0  0  0  0  0  0  0
  -23.5646  -20.0203   21.4582 C   0  0  0  0  0  0  0  0  0  0  0  0
  -29.0973  -19.7672   25.4827 C   0  0  0  0  0  0  0  0  0  0  0  0
  -31.2590  -18.9725   17.7041 C   0  0  0  0  0  0  0  0  0  0  0  0
  -32.2629  -15.6913   18.2911 C   0  0  0  0  0  0  0  0  0  0  0  0
  -31.8245  -16.0996   16.8773 C   0  0  0  0  0  0  0  0  0  0  0  0
  -25.8981  -19.0841   21.7233 C   0  0  1  0  0  0  0  0  0  0  0  0
  -27.5994  -21.3405   24.2500 C   0  0  2  0  0  0  0  0  0  0  0  0
  -31.5502  -14.4450   18.8307 C   0  0  2  0  0  0  0  0  0  1  0  0
  -24.8671  -19.6590   20.7114 C   0  0  0  0  0  0  0  0  0  0  0  0
  -28.0804  -26.2840   19.7650 N   0  0  0  0  0  0  0  0  0  0  0  0
  -32.5392  -17.3168   16.3469 N   0  0  0  0  0  0  0  0  0  0  0  0
  -29.0574  -25.4477   20.1553 N   0  0  0  0  0  0  0  0  0  0  0  0
  -26.2252  -16.6694   22.1545 N   0  0  0  0  0  0  0  0  0  0  0  0
  -29.5883  -22.2768   18.0931 N   0  0  0  0  0  0  0  0  0  0  0  0
  -30.3377  -24.7851   22.0347 N   0  0  0  0  0  0  0  0  0  0  0  0
  -27.6210  -27.9852   23.7005 N   0  0  0  0  0  0  0  0  0  0  0  0
  -24.4894  -13.5075   21.6201 N   0  0  0  0  0  0  0  0  0  0  0  0
  -26.2272  -19.9884   22.8198 N   0  0  0  0  0  0  0  0  0  0  0  0
  -30.6715  -20.2710   17.4599 N   0  0  0  0  0  0  0  0  0  0  0  0
  -28.8858  -21.1481   24.9773 N   0  3  0  0  0  0  0  0  0  0  0  0
  -29.3053  -26.5177   24.2185 O   0  0  0  0  0  0  0  0  0  0  0  0
  -25.1130  -15.3160   20.2925 O   0  0  0  0  0  0  0  0  0  0  0  0
  -24.3844  -17.8043   23.0260 O   0  0  0  0  0  0  0  0  0  0  0  0
  -28.5073  -20.0708   22.4058 O   0  0  0  0  0  0  0  0  0  0  0  0
  -30.0988  -20.6351   19.6495 O   0  0  0  0  0  0  0  0  0  0  0  0
  -23.7823  -30.8532   20.8591 O   0  0  0  0  0  0  0  0  0  0  0  0
  -31.6485  -14.4268   20.2542 O   0  0  0  0  0  0  0  0  0  1  0  0
  -24.8272  -35.6033   23.4570 F   0  0  0  0  0  0  0  0  0  0  0  0
  -23.7501  -33.2551   19.4907 F   0  0  0  0  0  0  0  0  0  0  0  0
  1  2  1  0  0  0  0
  1  5  2  0  0  0  0
  2  6  2  0  0  0  0
  3  8  2  0  0  0  0
  3 17  1  0  0  0  0
  4  9  1  0  0  0  0
  4 17  2  0  0  0  0
  5 19  1  0  0  0  0
  6 21  1  0  0  0  0
  7 10  2  0  0  0  0
  7 20  1  0  0  0  0
  8 24  1  0  0  0  0
  9 24  2  0  0  0  0
 10 25  1  0  0  0  0
 11 12  2  0  0  0  0
 11 26  1  0  0  0  0
 12 27  1  0  0  0  0
 13 22  1  0  0  0  0
 13 25  2  0  0  0  0
 14 23  1  0  0  0  0
 14 30  2  0  0  0  0
 15 27  2  0  0  0  0
 15 28  1  0  0  0  0
 16 23  2  0  0  0  0
 16 64  1  0  0  0  0
 17 29  1  0  0  0  0
 18 29  1  0  0  0  0
 18 31  2  0  0  0  0
 18 32  1  0  0  0  0
 19 21  2  0  0  0  0
 19 37  1  0  0  0  0
 20 22  2  0  0  0  0
 20 38  1  0  0  0  0
 21 46  1  0  0  0  0
 22 39  1  0  0  0  0
 23 49  1  0  0  0  0
 24 79  1  0  0  0  0
 25 80  1  0  0  0  0
 26 28  2  0  0  0  0
 26 79  1  0  0  0  0
 27 81  1  0  0  0  0
 28 82  1  0  0  0  0
 29 63  2  0  0  0  0
 30 56  1  0  0  0  0
 30 64  1  0  0  0  0
 31 65  1  0  0  0  0
 31 68  1  0  0  0  0
 32 69  1  0  0  0  0
 32 74  2  0  0  0  0
 33 47  1  0  0  0  0
 33 70  1  0  0  0  0
 33 75  2  0  0  0  0
 34 59  1  0  0  0  0
 34 66  1  0  0  0  0
 34 76  2  0  0  0  0
 35 60  1  0  0  0  0
 35 71  1  0  0  0  0
 35 77  2  0  0  0  0
 36 67  1  0  0  0  0
 36 72  1  0  0  0  0
 36 78  2  0  0  0  0
 37 40  1  0  0  0  0
 38 47  1  0  0  0  0
 39 66  1  0  0  0  0
 40 42  1  0  0  0  0
 41 43  1  0  0  0  0
 41 44  1  0  0  0  0
 42 46  1  0  0  0  0
 43 48  1  0  0  0  0
 44 67  1  0  0  0  0
 45 48  1  0  0  0  0
 45 67  1  0  0  0  0
 46 70  1  0  0  0  0
 47 66  1  0  0  0  0
 48 65  1  0  0  0  0
 50 60  1  0  0  0  0
 51 61  1  0  0  0  0
 52 62  1  0  0  0  0
 53 62  1  0  0  0  0
 54 62  1  0  0  0  0
 55 73  1  0  0  0  0
 56 72  1  0  0  0  0
 57 58  1  0  0  0  0
 57 61  1  0  0  0  0
 58 64  1  0  0  0  0
 59 62  1  0  0  0  0
 59 71  1  0  0  0  0
 60 73  1  0  0  0  0
 61 80  1  0  0  0  0
 63 65  1  0  0  0  0
M  CHG  1  73   1
M  ISO  4  36 100  61 101  72 100  80 101
M  END
> <Batch ID>
0103

> <Smiles>
CNC(C)C(=O)NC(C(=O)N1Cc2cc([101O:1][101CH:1](C)CCn3cc(C)cc3C[100NH:0][100C:0](=O)N3CCCC(n4nc(-c5ccc(Oc6ccc(F)cc6F)cc5)c(C(N)=O)c4N)C3)ccc2CC1C(=O)NC1CCCc2ccccc21)C(C)(C)C

> <Shape>
0.213

> <Color>
0.073

> <Negative vol penalty>
0.000

$$$$

  -OEChem-04052319413D

 83 91  0     1  0  0  0  0  0999 V2000
  -15.0841  -21.7988   23.9070 C   0  0  0  0  0  0  0  0  0  0  0  0
  -16.4145  -22.1985   23.9828 C   0  0  0  0  0  0  0  0  0  0  0  0
  -23.0817   -9.8765   19.8931 C   0  0  0  0  0  0  0  0  0  0  0  0
  -23.8546   -9.8098   22.1812 C   0  0  0  0  0  0  0  0  0  0  0  0
  -14.7508  -20.6081   23.2628 C   0  0  0  0  0  0  0  0  0  0  0  0
  -17.4125  -21.4071   23.4153 C   0  0  0  0  0  0  0  0  0  0  0  0
  -23.7689  -21.9257   20.1529 C   0  0  0  0  0  0  0  0  0  0  0  0
  -22.3595   -8.7018   20.1028 C   0  0  0  0  0  0  0  0  0  0  0  0
  -23.1323   -8.6351   22.3909 C   0  0  0  0  0  0  0  0  0  0  0  0
  -25.0672  -21.4247   20.2378 C   0  0  0  0  0  0  0  0  0  0  0  0
  -19.4339   -7.7990   21.5378 C   0  0  0  0  0  0  0  0  0  0  0  0
  -18.1253   -7.7482   21.0578 C   0  0  0  0  0  0  0  0  0  0  0  0
  -24.3656  -19.4275   19.0809 C   0  0  0  0  0  0  0  0  0  0  0  0
  -29.1628  -18.7341   21.2472 C   0  0  0  0  0  0  0  0  0  0  0  0
  -31.3648  -18.5694   20.2939 C   0  0  0  0  0  0  0  0  0  0  0  0
  -18.7110   -5.8669   19.6597 C   0  0  0  0  0  0  0  0  0  0  0  0
  -23.8293  -10.4305   20.9323 C   0  0  0  0  0  0  0  0  0  0  0  0
  -24.1265  -12.9640   20.9067 C   0  0  0  0  0  0  0  0  0  0  0  0
  -15.7443  -19.8065   22.6787 C   0  0  0  0  0  0  0  0  0  0  0  0
  -22.7551  -21.1754   19.5400 C   0  0  0  0  0  0  0  0  0  0  0  0
  -17.0923  -20.2039   22.7639 C   0  0  0  0  0  0  0  0  0  0  0  0
  -23.0559  -19.9224   18.9872 C   0  0  0  0  0  0  0  0  0  0  0  0
  -30.4044  -18.1109   21.1888 C   0  0  0  0  0  0  0  0  0  0  0  0
  -22.3847   -8.0811   21.3517 C   0  0  0  0  0  0  0  0  0  0  0  0
  -25.3651  -20.1742   19.7043 C   0  0  0  0  0  0  0  0  0  0  0  0
  -20.3812   -6.8837   21.0787 C   0  0  0  0  0  0  0  0  0  0  0  0
  -17.7638   -6.7821   20.1188 C   0  0  0  0  0  0  0  0  0  0  0  0
  -20.0197   -5.9177   20.1397 C   0  0  0  0  0  0  0  0  0  0  0  0
  -24.5761  -11.6437   20.7162 C   0  0  0  0  0  0  0  0  0  0  0  0
  -28.9331  -19.8032   20.3962 C   0  0  0  0  0  0  0  0  0  0  0  0
  -31.0364  -19.6456   19.4855 C   0  0  0  0  0  0  0  0  0  0  0  0
  -25.2034  -13.7458   20.5666 C   0  0  0  0  0  0  0  0  0  0  0  0
  -22.8497  -13.4411   21.3514 C   0  0  0  0  0  0  0  0  0  0  0  0
  -20.0030  -19.9123   20.5064 C   0  0  0  0  0  0  0  0  0  0  0  0
  -19.6707  -19.2046   17.3583 C   0  0  0  0  0  0  0  0  0  0  0  0
  -21.1648  -18.6376   14.3428 C   0  0  0  0  0  0  0  0  0  0  0  0
  -30.6695  -14.8533   20.7657 C   0  0  0  0  0  0  0  0  0  0  0  0
  -15.3403  -18.5042   22.0342 C   0  0  0  0  0  0  0  0  0  0  0  0
  -21.3657  -21.7416   19.4328 C   0  0  0  0  0  0  0  0  0  0  0  0
  -22.0079  -19.0862   18.3010 C   0  0  0  0  0  0  0  0  0  0  0  0
  -16.4193  -17.9105   21.1322 C   0  0  0  0  0  0  0  0  0  0  0  0
  -29.5598  -12.5415   18.2957 C   0  0  0  0  0  0  0  0  0  0  0  0
  -17.7758  -17.9445   21.8291 C   0  0  0  0  0  0  0  0  0  0  0  0
  -28.1302  -12.2063   18.7245 C   0  0  0  0  0  0  0  0  0  0  0  0
  -30.4799  -12.7327   19.4995 C   0  0  0  0  0  0  0  0  0  0  0  0
  -28.5738  -13.3770   20.9226 C   0  0  0  0  0  0  0  0  0  0  0  0
  -18.2009  -19.3849   22.1389 C   0  0  1  0  0  0  0  0  0  0  0  0
  -20.2968  -20.6698   19.2425 C   0  0  1  0  0  0  0  0  0  0  0  0
  -27.5960  -13.2301   19.7441 C   0  0  2  0  0  0  0  0  0  0  0  0
  -20.6353  -18.0453   11.9624 C   0  0  0  0  0  0  0  0  0  0  0  0
  -32.4564  -19.0606   17.4887 C   0  0  0  0  0  0  0  0  0  0  0  0
  -33.3374  -20.6413   19.2383 C   0  0  0  0  0  0  0  0  0  0  0  0
  -31.5751  -21.3800   17.6477 C   0  0  0  0  0  0  0  0  0  0  0  0
  -19.1901  -16.3081   18.1885 C   0  0  0  0  0  0  0  0  0  0  0  0
  -19.6153  -15.6306   15.8161 C   0  0  0  0  0  0  0  0  0  0  0  0
  -17.6970  -17.1302   16.3584 C   0  0  0  0  0  0  0  0  0  0  0  0
  -22.3272  -21.1652   13.3333 C   0  0  0  0  0  0  0  0  0  0  0  0
  -30.7051  -16.9562   22.0831 C   0  0  0  0  0  0  0  0  0  0  0  0
  -27.6054  -20.5011   20.4325 C   0  0  0  0  0  0  0  0  0  1  0  0
  -20.0532  -18.0391   16.4783 C   0  0  1  0  0  0  0  0  0  0  0  0
  -20.8671  -19.1744   12.9544 C   0  0  2  0  0  0  0  0  0  0  0  0
  -32.0424  -20.1627   18.5121 C   0  0  0  0  0  0  0  0  0  0  0  0
  -19.1584  -16.7917   16.7249 C   0  0  0  0  0  0  0  0  0  0  0  0
  -25.8400  -11.5860   20.2881 N   0  0  0  0  0  0  0  0  0  0  0  0
  -29.8412  -20.2767   19.5137 N   0  0  0  0  0  0  0  0  0  0  0  0
  -26.1938  -12.8800   20.2068 N   0  0  0  0  0  0  0  0  0  0  0  0
  -20.6630  -19.6804   18.2270 N   0  0  0  0  0  0  0  0  0  0  0  0
  -29.9167  -13.7170   20.4267 N   0  0  0  0  0  0  0  0  0  0  0  0
  -25.3902  -15.0826   20.5433 N   0  0  0  0  0  0  0  0  0  0  0  0
  -21.8557  -12.5022   21.6590 N   0  0  0  0  0  0  0  0  0  0  0  0
  -18.6980  -20.0332   20.9444 N   0  0  0  0  0  0  0  0  0  0  0  0
  -20.0215  -18.5355   15.1068 N   0  0  0  0  0  0  0  0  0  0  0  0
  -30.0592  -15.7388   21.6455 N   0  0  0  0  0  0  0  0  0  0  0  0
  -22.0043  -20.0039   12.4649 N   0  3  0  0  0  0  0  0  0  0  0  0
  -22.5924  -14.6643   21.4567 O   0  0  0  0  0  0  0  0  0  0  0  0
  -20.8939  -19.2648   21.0437 O   0  0  0  0  0  0  0  0  0  0  0  0
  -18.5357  -19.6800   17.2727 O   0  0  0  0  0  0  0  0  0  0  0  0
  -22.2976  -18.3354   14.7114 O   0  0  0  0  0  0  0  0  0  0  0  0
  -31.7996  -15.0658   20.3133 O   0  0  0  0  0  0  0  0  0  0  0  0
  -21.6798   -6.9350   21.5568 O   0  0  0  0  0  0  0  0  0  0  0  0
  -26.6313  -19.6824   19.7864 O   0  0  0  0  0  0  0  0  0  1  0  0
  -16.5067   -6.7325   19.6591 F   0  0  0  0  0  0  0  0  0  0  0  0
  -20.9251   -5.0350   19.6958 F   0  0  0  0  0  0  0  0  0  0  0  0
  1  2  1  0  0  0  0
  1  5  2  0  0  0  0
  2  6  2  0  0  0  0
  3  8  2  0  0  0  0
  3 17  1  0  0  0  0
  4  9  1  0  0  0  0
  4 17  2  0  0  0  0
  5 19  1  0  0  0  0
  6 21  1  0  0  0  0
  7 10  2  0  0  0  0
  7 20  1  0  0  0  0
  8 24  1  0  0  0  0
  9 24  2  0  0  0  0
 10 25  1  0  0  0  0
 11 12  2  0  0  0  0
 11 26  1  0  0  0  0
 12 27  1  0  0  0  0
 13 22  1  0  0  0  0
 13 25  2  0  0  0  0
 14 23  2  0  0  0  0
 14 30  1  0  0  0  0
 15 23  1  0  0  0  0
 15 31  2  0  0  0  0
 16 27  2  0  0  0  0
 16 28  1  0  0  0  0
 17 29  1  0  0  0  0
 18 29  1  0  0  0  0
 18 32  2  0  0  0  0
 18 33  1  0  0  0  0
 19 21  2  0  0  0  0
 19 38  1  0  0  0  0
 20 22  2  0  0  0  0
 20 39  1  0  0  0  0
 21 47  1  0  0  0  0
 22 40  1  0  0  0  0
 23 58  1  0  0  0  0
 24 80  1  0  0  0  0
 25 81  1  0  0  0  0
 26 28  2  0  0  0  0
 26 80  1  0  0  0  0
 27 82  1  0  0  0  0
 28 83  1  0  0  0  0
 29 64  2  0  0  0  0
 30 59  1  0  0  0  0
 30 65  2  0  0  0  0
 31 62  1  0  0  0  0
 31 65  1  0  0  0  0
 32 66  1  0  0  0  0
 32 69  1  0  0  0  0
 33 70  1  0  0  0  0
 33 75  2  0  0  0  0
 34 48  1  0  0  0  0
 34 71  1  0  0  0  0
 34 76  2  0  0  0  0
 35 60  1  0  0  0  0
 35 67  1  0  0  0  0
 35 77  2  0  0  0  0
 36 61  1  0  0  0  0
 36 72  1  0  0  0  0
 36 78  2  0  0  0  0
 37 68  1  0  0  0  0
 37 73  1  0  0  0  0
 37 79  2  0  0  0  0
 38 41  1  0  0  0  0
 39 48  1  0  0  0  0
 40 67  1  0  0  0  0
 41 43  1  0  0  0  0
 42 44  1  0  0  0  0
 42 45  1  0  0  0  0
 43 47  1  0  0  0  0
 44 49  1  0  0  0  0
 45 68  1  0  0  0  0
 46 49  1  0  0  0  0
 46 68  1  0  0  0  0
 47 71  1  0  0  0  0
 48 67  1  0  0  0  0
 49 66  1  0  0  0  0
 50 61  1  0  0  0  0
 51 62  1  0  0  0  0
 52 62  1  0  0  0  0
 53 62  1  0  0  0  0
 54 63  1  0  0  0  0
 55 63  1  0  0  0  0
 56 63  1  0  0  0  0
 57 74  1  0  0  0  0
 58 73  1  0  0  0  0
 59 81  1  0  0  0  0
 60 63  1  0  0  0  0
 60 72  1  0  0  0  0
 61 74  1  0  0  0  0
 64 66  1  0  0  0  0
M  CHG  1  74   1
M  ISO  4  37 100  59 101  73 100  81 101
M  END
> <Batch ID>
0103

> <Smiles>
CNC(C)C(=O)NC(C(=O)N1Cc2cc([101O:1][101CH2:1]c3cc(C[100NH:0][100C:0](=O)N4CCCC(n5nc(-c6ccc(Oc7ccc(F)cc7F)cc6)c(C(N)=O)c5N)C4)cc(C(C)(C)C)n3)ccc2CC1C(=O)NC1CCCc2ccccc21)C(C)(C)C

> <Shape>
0.175

> <Color>
0.204

> <Negative vol penalty>
0.000

$$$$

  -OEChem-04052319413D

 83 91  0     1  0  0  0  0  0999 V2000
  -18.6290  -22.9362   16.0505 C   0  0  0  0  0  0  0  0  0  0  0  0
  -19.3781  -21.7688   16.1578 C   0  0  0  0  0  0  0  0  0  0  0  0
  -27.5564  -23.1119   19.4979 C   0  0  0  0  0  0  0  0  0  0  0  0
  -29.9024  -23.4586   19.0361 C   0  0  0  0  0  0  0  0  0  0  0  0
  -18.9609  -24.0494   16.8216 C   0  0  0  0  0  0  0  0  0  0  0  0
  -20.4603  -21.7143   17.0355 C   0  0  0  0  0  0  0  0  0  0  0  0
  -22.3402  -16.8627   20.2655 C   0  0  0  0  0  0  0  0  0  0  0  0
  -29.9618  -12.9086   20.2565 C   0  0  0  0  0  0  0  0  0  0  0  0
  -27.4233  -24.4593   19.8334 C   0  0  0  0  0  0  0  0  0  0  0  0
  -29.7693  -24.8059   19.3715 C   0  0  0  0  0  0  0  0  0  0  0  0
  -23.3523  -15.9281   20.0511 C   0  0  0  0  0  0  0  0  0  0  0  0
  -28.1106  -26.4463   22.4799 C   0  0  0  0  0  0  0  0  0  0  0  0
  -27.3929  -26.7581   23.6345 C   0  0  0  0  0  0  0  0  0  0  0  0
  -28.7268  -12.7430   20.8734 C   0  0  0  0  0  0  0  0  0  0  0  0
  -24.8283  -17.2114   21.4631 C   0  0  0  0  0  0  0  0  0  0  0  0
  -25.8278  -28.0414   22.3151 C   0  0  0  0  0  0  0  0  0  0  0  0
  -28.7959  -22.6115   19.0993 C   0  0  0  0  0  0  0  0  0  0  0  0
  -28.7696  -20.6397   17.4810 C   0  0  0  0  0  0  0  0  0  0  0  0
  -20.0418  -24.0054   17.7162 C   0  0  0  0  0  0  0  0  0  0  0  0
  -22.5684  -17.9863   21.0729 C   0  0  0  0  0  0  0  0  0  0  0  0
  -20.8078  -22.8285   17.8182 C   0  0  0  0  0  0  0  0  0  0  0  0
  -23.8167  -18.1575   21.6882 C   0  0  0  0  0  0  0  0  0  0  0  0
  -30.0221  -13.3723   18.9471 C   0  0  0  0  0  0  0  0  0  0  0  0
  -28.5298  -25.3063   19.7702 C   0  0  0  0  0  0  0  0  0  0  0  0
  -24.5975  -16.1038   20.6475 C   0  0  0  0  0  0  0  0  0  0  0  0
  -27.6870  -26.9322   21.2428 C   0  0  0  0  0  0  0  0  0  0  0  0
  -26.2515  -27.5556   23.5522 C   0  0  0  0  0  0  0  0  0  0  0  0
  -26.5456  -27.7297   21.1605 C   0  0  0  0  0  0  0  0  0  0  0  0
  -28.9341  -21.2197   18.7531 C   0  0  0  0  0  0  0  0  0  0  0  0
  -27.5905  -13.0528   20.1435 C   0  0  0  0  0  0  0  0  0  0  0  0
  -28.8278  -13.6537   18.3033 C   0  0  0  0  0  0  0  0  0  0  0  0
  -29.0074  -19.3017   17.6803 C   0  0  0  0  0  0  0  0  0  0  0  0
  -28.4321  -21.2554   16.2309 C   0  0  0  0  0  0  0  0  0  0  0  0
  -22.5471  -21.1295   20.6006 C   0  0  0  0  0  0  0  0  0  0  0  0
  -32.1182  -15.2429   19.9473 C   0  0  0  0  0  0  0  0  0  0  0  0
  -22.9742  -21.2228   23.8148 C   0  0  0  0  0  0  0  0  0  0  0  0
  -24.0622  -19.6472   26.6398 C   0  0  0  0  0  0  0  0  0  0  0  0
  -20.3915  -25.2494   18.4940 C   0  0  0  0  0  0  0  0  0  0  0  0
  -21.4579  -18.9713   21.3159 C   0  0  0  0  0  0  0  0  0  0  0  0
  -24.1062  -19.3360   22.5802 C   0  0  0  0  0  0  0  0  0  0  0  0
  -21.3229  -24.9878   19.6748 C   0  0  0  0  0  0  0  0  0  0  0  0
  -29.4854  -16.6328   21.9414 C   0  0  0  0  0  0  0  0  0  0  0  0
  -22.4809  -24.0893   19.2524 C   0  0  0  0  0  0  0  0  0  0  0  0
  -29.1147  -17.9175   21.2016 C   0  0  0  0  0  0  0  0  0  0  0  0
  -30.9804  -16.3451   21.8460 C   0  0  0  0  0  0  0  0  0  0  0  0
  -31.1311  -17.5749   19.7044 C   0  0  0  0  0  0  0  0  0  0  0  0
  -21.9737  -22.7224   18.7771 C   0  0  1  0  0  0  0  0  0  0  0  0
  -21.9619  -20.3468   21.7419 C   0  0  1  0  0  0  0  0  0  0  0  0
  -29.6247  -17.8863   19.7499 C   0  0  2  0  0  0  0  0  0  0  0  0
  -28.8316  -14.1577   16.8974 C   0  0  0  0  0  0  0  0  0  0  0  0
  -33.3101  -15.0801   17.8006 C   0  0  0  0  0  0  0  0  0  0  0  0
  -24.3174  -19.9903   29.1126 C   0  0  0  0  0  0  0  0  0  0  0  0
  -25.4005  -23.0042   23.3149 C   0  0  0  0  0  0  0  0  0  0  0  0
  -26.1429  -22.5320   25.6588 C   0  0  0  0  0  0  0  0  0  0  0  0
  -23.9768  -23.6995   25.2498 C   0  0  0  0  0  0  0  0  0  0  0  0
  -22.2580  -17.3839   27.2573 C   0  0  0  0  0  0  0  0  0  0  0  0
  -31.3422  -13.5505   18.2805 C   0  0  0  0  0  0  0  0  0  0  0  0
  -25.1891  -13.8434   20.2045 C   0  0  0  0  0  0  0  0  0  1  0  0
  -26.2301  -12.8863   20.7838 C   0  0  1  0  0  0  0  0  0  0  0  0
  -31.9487  -14.9556   18.4766 C   0  0  1  0  0  0  0  0  0  0  0  0
  -24.1715  -21.2320   24.7344 C   0  0  1  0  0  0  0  0  0  0  0  0
  -23.4194  -19.4657   28.0030 C   0  0  2  0  0  0  0  0  0  0  0  0
  -24.9184  -22.5956   24.7211 C   0  0  0  0  0  0  0  0  0  0  0  0
  -29.2518  -20.3236   19.6913 N   0  0  0  0  0  0  0  0  0  0  0  0
  -27.6093  -13.5055   18.8698 N   0  0  0  0  0  0  0  0  0  0  0  0
  -29.2886  -19.1669   19.0081 N   0  0  0  0  0  0  0  0  0  0  0  0
  -22.9901  -20.2748   22.7819 N   0  0  0  0  0  0  0  0  0  0  0  0
  -31.4300  -16.3461   20.4527 N   0  0  0  0  0  0  0  0  0  0  0  0
  -29.0012  -18.2392   16.8476 N   0  0  0  0  0  0  0  0  0  0  0  0
  -28.2213  -22.6407   16.2038 N   0  0  0  0  0  0  0  0  0  0  0  0
  -21.6244  -21.8914   19.9093 N   0  0  0  0  0  0  0  0  0  0  0  0
  -23.6798  -20.8328   26.0486 N   0  0  0  0  0  0  0  0  0  0  0  0
  -23.1486  -18.0229   28.2600 N   0  3  0  0  0  0  0  0  0  0  0  0
  -28.3046  -20.5941   15.1726 O   0  0  0  0  0  0  0  0  0  0  0  0
  -23.7471  -21.0495   20.3655 O   0  0  0  0  0  0  0  0  0  0  0  0
  -32.8387  -14.5060   20.6255 O   0  0  0  0  0  0  0  0  0  0  0  0
  -22.0554  -22.0223   24.0102 O   0  0  0  0  0  0  0  0  0  0  0  0
  -24.8299  -18.8217   26.1502 O   0  0  0  0  0  0  0  0  0  0  0  0
  -25.7969  -11.5410   20.5933 O   0  0  0  0  0  0  0  0  0  0  0  0
  -28.4003  -26.6211   20.0973 O   0  0  0  0  0  0  0  0  0  0  0  0
  -25.5873  -15.1934   20.4394 O   0  0  0  0  0  0  0  0  0  1  0  0
  -25.5615  -27.8536   24.6609 F   0  0  0  0  0  0  0  0  0  0  0  0
  -26.1331  -28.1984   19.9747 F   0  0  0  0  0  0  0  0  0  0  0  0
  1  2  1  0  0  0  0
  1  5  2  0  0  0  0
  2  6  2  0  0  0  0
  3  9  2  0  0  0  0
  3 17  1  0  0  0  0
  4 10  1  0  0  0  0
  4 17  2  0  0  0  0
  5 19  1  0  0  0  0
  6 21  1  0  0  0  0
  7 11  2  0  0  0  0
  7 20  1  0  0  0  0
  8 14  2  0  0  0  0
  8 23  1  0  0  0  0
  9 24  1  0  0  0  0
 10 24  2  0  0  0  0
 11 25  1  0  0  0  0
 12 13  2  0  0  0  0
 12 26  1  0  0  0  0
 13 27  1  0  0  0  0
 14 30  1  0  0  0  0
 15 22  1  0  0  0  0
 15 25  2  0  0  0  0
 16 27  2  0  0  0  0
 16 28  1  0  0  0  0
 17 29  1  0  0  0  0
 18 29  1  0  0  0  0
 18 32  2  0  0  0  0
 18 33  1  0  0  0  0
 19 21  2  0  0  0  0
 19 38  1  0  0  0  0
 20 22  2  0  0  0  0
 20 39  1  0  0  0  0
 21 47  1  0  0  0  0
 22 40  1  0  0  0  0
 23 31  2  0  0  0  0
 23 57  1  0  0  0  0
 24 80  1  0  0  0  0
 25 81  1  0  0  0  0
 26 28  2  0  0  0  0
 26 80  1  0  0  0  0
 27 82  1  0  0  0  0
 28 83  1  0  0  0  0
 29 64  2  0  0  0  0
 30 59  1  0  0  0  0
 30 65  2  0  0  0  0
 31 50  1  0  0  0  0
 31 65  1  0  0  0  0
 32 66  1  0  0  0  0
 32 69  1  0  0  0  0
 33 70  1  0  0  0  0
 33 74  2  0  0  0  0
 34 48  1  0  0  0  0
 34 71  1  0  0  0  0
 34 75  2  0  0  0  0
 35 60  1  0  0  0  0
 35 68  1  0  0  0  0
 35 76  2  0  0  0  0
 36 61  1  0  0  0  0
 36 67  1  0  0  0  0
 36 77  2  0  0  0  0
 37 62  1  0  0  0  0
 37 72  1  0  0  0  0
 37 78  2  0  0  0  0
 38 41  1  0  0  0  0
 39 48  1  0  0  0  0
 40 67  1  0  0  0  0
 41 43  1  0  0  0  0
 42 44  1  0  0  0  0
 42 45  1  0  0  0  0
 43 47  1  0  0  0  0
 44 49  1  0  0  0  0
 45 68  1  0  0  0  0
 46 49  1  0  0  0  0
 46 68  1  0  0  0  0
 47 71  1  0  0  0  0
 48 67  1  0  0  0  0
 49 66  1  0  0  0  0
 51 60  1  0  0  0  0
 52 62  1  0  0  0  0
 53 63  1  0  0  0  0
 54 63  1  0  0  0  0
 55 63  1  0  0  0  0
 56 73  1  0  0  0  0
 57 60  1  0  0  0  0
 58 59  1  0  0  0  0
 58 81  1  0  0  0  0
 59 79  1  0  0  0  0
 61 63  1  0  0  0  0
 61 72  1  0  0  0  0
 62 73  1  0  0  0  0
 64 66  1  0  0  0  0
M  CHG  1  73   1
M  ISO  4  35 100  58 101  60 100  81 101
M  END
> <Batch ID>
0103

> <Smiles>
CNC(C)C(=O)NC(C(=O)N1Cc2cc([101O:1][101CH2:1]C(O)c3ccc(C[100CH:0](C)[100C:0](=O)N4CCCC(n5nc(-c6ccc(Oc7ccc(F)cc7F)cc6)c(C(N)=O)c5N)C4)c(C)n3)ccc2CC1C(=O)NC1CCCc2ccccc21)C(C)(C)C

> <Shape>
0.167

> <Color>
0.093

> <Negative vol penalty>
0.000

$$$$

  -OEChem-04052319413D

 90 98  0     1  0  0  0  0  0999 V2000
  -33.9753  -28.9198   14.1417 C   0  0  0  0  0  0  0  0  0  0  0  0
  -34.1217  -27.6065   14.5769 C   0  0  0  0  0  0  0  0  0  0  0  0
  -23.9542   -9.5471   20.8711 C   0  0  0  0  0  0  0  0  0  0  0  0
  -24.5710  -10.3007   23.0821 C   0  0  0  0  0  0  0  0  0  0  0  0
  -33.2566  -29.8324   14.9127 C   0  0  0  0  0  0  0  0  0  0  0  0
  -33.5503  -27.2054   15.7839 C   0  0  0  0  0  0  0  0  0  0  0  0
  -30.5585  -21.5028   18.9218 C   0  0  0  0  0  0  0  0  0  0  0  0
  -23.5221   -8.3333   21.4053 C   0  0  0  0  0  0  0  0  0  0  0  0
  -24.1389   -9.0868   23.6164 C   0  0  0  0  0  0  0  0  0  0  0  0
  -30.6647  -20.7299   20.0773 C   0  0  0  0  0  0  0  0  0  0  0  0
  -20.8113   -7.1601   23.0509 C   0  0  0  0  0  0  0  0  0  0  0  0
  -19.5867   -6.6576   22.6112 C   0  0  0  0  0  0  0  0  0  0  0  0
  -29.3776  -22.3727   21.2872 C   0  0  0  0  0  0  0  0  0  0  0  0
  -20.6949   -4.6726   21.7933 C   0  0  0  0  0  0  0  0  0  0  0  0
  -24.4787  -10.5309   21.7095 C   0  0  0  0  0  0  0  0  0  0  0  0
  -24.1618  -12.9527   20.9734 C   0  0  0  0  0  0  0  0  0  0  0  0
  -32.6678  -29.4398   16.1251 C   0  0  0  0  0  0  0  0  0  0  0  0
  -29.8692  -22.7238   18.9431 C   0  0  0  0  0  0  0  0  0  0  0  0
  -32.8241  -28.1139   16.5725 C   0  0  0  0  0  0  0  0  0  0  0  0
  -29.2619  -23.1580   20.1300 C   0  0  0  0  0  0  0  0  0  0  0  0
  -23.6144   -8.1031   22.7780 C   0  0  0  0  0  0  0  0  0  0  0  0
  -30.0766  -21.1662   21.2609 C   0  0  0  0  0  0  0  0  0  0  0  0
  -21.9778   -6.4189   22.8618 C   0  0  0  0  0  0  0  0  0  0  0  0
  -19.5285   -5.4138   21.9824 C   0  0  0  0  0  0  0  0  0  0  0  0
  -21.9196   -5.1751   22.2330 C   0  0  0  0  0  0  0  0  0  0  0  0
  -24.9257  -11.7848   21.1582 C   0  0  0  0  0  0  0  0  0  0  0  0
  -25.0398  -13.8537   20.4223 C   0  0  0  0  0  0  0  0  0  0  0  0
  -22.7819  -13.2010   21.2732 C   0  0  0  0  0  0  0  0  0  0  0  0
  -30.6640  -25.7577   18.4259 C   0  0  0  0  0  0  0  0  0  0  0  0
  -27.4724  -26.2414   18.7450 C   0  0  0  0  0  0  0  0  0  0  0  0
  -24.4885  -25.1566   19.9967 C   0  0  0  0  0  0  0  0  0  0  0  0
  -30.0573  -16.2926   20.2747 C   0  0  0  0  0  0  0  0  0  0  0  0
  -31.9402  -30.4739   16.9472 C   0  0  0  0  0  0  0  0  0  0  0  0
  -29.7409  -23.5329   17.6816 C   0  0  0  0  0  0  0  0  0  0  0  0
  -28.4935  -24.4515   20.2005 C   0  0  0  0  0  0  0  0  0  0  0  0
  -31.0485  -29.8733   18.0310 C   0  0  0  0  0  0  0  0  0  0  0  0
  -22.2535  -23.9846   24.6415 C   0  0  0  0  0  0  0  0  0  0  0  0
  -23.0076  -23.9285   25.9632 C   0  0  0  0  0  0  0  0  0  0  0  0
  -29.6954  -13.1948   18.5574 C   0  0  0  0  0  0  0  0  0  0  0  0
  -31.7961  -28.7850   18.7949 C   0  0  0  0  0  0  0  0  0  0  0  0
  -23.0483  -23.3260   23.5191 C   0  0  0  0  0  0  0  0  0  0  0  0
  -23.3933  -22.4979   26.3238 C   0  0  0  0  0  0  0  0  0  0  0  0
  -28.3629  -12.6457   19.0703 C   0  0  0  0  0  0  0  0  0  0  0  0
  -30.4631  -13.9289   19.6545 C   0  0  0  0  0  0  0  0  0  0  0  0
  -28.3702  -14.4434   20.8499 C   0  0  0  0  0  0  0  0  0  0  0  0
  -32.1980  -27.6344   17.8641 C   0  0  1  0  0  0  0  0  0  0  0  0
  -29.4541  -25.0080   17.9444 C   0  0  1  0  0  0  0  0  0  0  0  0
  -23.4388  -21.8776   23.8606 C   0  0  2  0  0  0  0  0  0  0  0  0
  -24.2037  -21.8187   25.2062 C   0  0  2  0  0  0  0  0  0  0  0  0
  -27.5344  -13.7431   19.7649 C   0  0  2  0  0  0  0  0  0  0  0  0
  -24.2440  -21.2835   22.7014 C   0  0  0  0  0  0  0  0  0  0  0  0
  -22.0619  -25.7830   20.1258 C   0  0  0  0  0  0  0  0  0  0  0  0
  -24.5866  -20.3301   27.1674 C   0  0  0  0  0  0  0  0  0  0  0  0
  -23.4297  -19.4407   25.1425 C   0  0  0  0  0  0  0  0  0  0  0  0
  -28.1285  -28.3370   20.8635 C   0  0  0  0  0  0  0  0  0  0  0  0
  -25.7407  -28.2302   21.6087 C   0  0  0  0  0  0  0  0  0  0  0  0
  -26.2907  -28.9802   19.2940 C   0  0  0  0  0  0  0  0  0  0  0  0
  -31.7655  -18.6409   22.1067 C   0  0  0  0  0  0  0  0  0  0  0  0
  -23.6592  -22.7018   18.5667 C   0  0  0  0  0  0  0  0  0  0  0  0
  -25.9341  -19.9288   25.0933 C   0  0  0  0  0  0  0  0  0  0  0  0
  -29.5033  -18.6156   20.9499 C   0  0  0  0  0  0  0  0  0  0  0  0
  -27.6461  -18.0367   24.8648 C   0  0  0  0  0  0  0  0  0  0  0  0
  -29.7034  -18.3197   23.4769 C   0  0  0  0  0  0  0  0  0  0  0  0
  -26.5463  -26.5388   19.8996 C   0  0  1  0  0  0  0  0  0  0  0  0
  -23.1206  -25.0099   19.3550 C   0  0  2  0  0  0  0  0  0  0  0  0
  -26.1661  -18.4125   24.9706 C   0  0  2  0  0  0  0  0  0  0  0  0
  -24.5435  -20.3857   25.6260 C   0  0  0  0  0  0  0  0  0  0  0  0
  -26.6926  -27.9981   20.4159 C   0  0  0  0  0  0  0  0  0  0  0  0
  -30.2775  -19.0003   22.2225 C   0  0  1  0  0  0  0  0  0  1  0  0
  -26.1916  -11.9278   20.7569 N   0  0  0  0  0  0  0  0  0  0  0  0
  -26.2299  -13.1962   20.3144 N   0  0  0  0  0  0  0  0  0  0  0  0
  -28.4015  -25.2102   18.9422 N   0  0  0  0  0  0  0  0  0  0  0  0
  -29.6219  -14.9571   20.2717 N   0  0  0  0  0  0  0  0  0  0  0  0
  -24.9023  -15.1363   20.0243 N   0  0  0  0  0  0  0  0  0  0  0  0
  -22.0238  -12.1656   21.8368 N   0  0  0  0  0  0  0  0  0  0  0  0
  -31.0590  -26.7847   17.5900 N   0  0  0  0  0  0  0  0  0  0  0  0
  -25.2030  -26.1982   19.4436 N   0  0  0  0  0  0  0  0  0  0  0  0
  -29.1972  -17.2044   20.8743 N   0  0  0  0  0  0  0  0  0  0  0  0
  -22.7187  -23.5754   19.3145 N   0  3  0  0  0  0  0  0  0  0  0  0
  -28.2767  -18.6782   23.6798 N   0  3  0  0  0  0  0  0  0  0  0  0
  -22.2330  -14.3031   21.0329 O   0  0  0  0  0  0  0  0  0  0  0  0
  -31.1986  -25.4297   19.4786 O   0  0  0  0  0  0  0  0  0  0  0  0
  -27.3702  -26.8952   17.7039 O   0  0  0  0  0  0  0  0  0  0  0  0
  -24.8822  -24.4232   20.9009 O   0  0  0  0  0  0  0  0  0  0  0  0
  -31.1305  -16.6469   19.7750 O   0  0  0  0  0  0  0  0  0  0  0  0
  -25.4840  -17.9150   23.8213 O   0  0  0  0  0  0  0  0  0  0  0  0
  -23.1927   -6.9188   23.2996 O   0  0  0  0  0  0  0  0  0  0  0  0
  -30.1793  -20.4140   22.3903 O   0  0  0  0  0  0  0  0  0  1  0  0
  -18.3522   -4.9307   21.5616 F   0  0  0  0  0  0  0  0  0  0  0  0
  -23.0366   -4.4580   22.0496 F   0  0  0  0  0  0  0  0  0  0  0  0
  1  2  1  0  0  0  0
  1  5  2  0  0  0  0
  2  6  2  0  0  0  0
  3  8  2  0  0  0  0
  3 15  1  0  0  0  0
  4  9  1  0  0  0  0
  4 15  2  0  0  0  0
  5 17  1  0  0  0  0
  6 19  1  0  0  0  0
  7 10  2  0  0  0  0
  7 18  1  0  0  0  0
  8 21  1  0  0  0  0
  9 21  2  0  0  0  0
 10 22  1  0  0  0  0
 11 12  2  0  0  0  0
 11 23  1  0  0  0  0
 12 24  1  0  0  0  0
 13 20  1  0  0  0  0
 13 22  2  0  0  0  0
 14 24  2  0  0  0  0
 14 25  1  0  0  0  0
 15 26  1  0  0  0  0
 16 26  1  0  0  0  0
 16 27  2  0  0  0  0
 16 28  1  0  0  0  0
 17 19  2  0  0  0  0
 17 33  1  0  0  0  0
 18 20  2  0  0  0  0
 18 34  1  0  0  0  0
 19 46  1  0  0  0  0
 20 35  1  0  0  0  0
 21 87  1  0  0  0  0
 22 88  1  0  0  0  0
 23 25  2  0  0  0  0
 23 87  1  0  0  0  0
 24 89  1  0  0  0  0
 25 90  1  0  0  0  0
 26 70  2  0  0  0  0
 27 71  1  0  0  0  0
 27 74  1  0  0  0  0
 28 75  1  0  0  0  0
 28 81  2  0  0  0  0
 29 47  1  0  0  0  0
 29 76  1  0  0  0  0
 29 82  2  0  0  0  0
 30 64  1  0  0  0  0
 30 72  1  0  0  0  0
 30 83  2  0  0  0  0
 31 65  1  0  0  0  0
 31 77  1  0  0  0  0
 31 84  2  0  0  0  0
 32 73  1  0  0  0  0
 32 78  1  0  0  0  0
 32 85  2  0  0  0  0
 33 36  1  0  0  0  0
 34 47  1  0  0  0  0
 35 72  1  0  0  0  0
 36 40  1  0  0  0  0
 37 38  1  0  0  0  0
 37 41  1  0  0  0  0
 38 42  1  0  0  0  0
 39 43  1  0  0  0  0
 39 44  1  0  0  0  0
 40 46  1  0  0  0  0
 41 48  1  0  0  0  0
 42 49  1  0  0  0  0
 43 50  1  0  0  0  0
 44 73  1  0  0  0  0
 45 50  1  0  0  0  0
 45 73  1  0  0  0  0
 46 76  1  0  0  0  0
 47 72  1  0  0  0  0
 48 49  1  0  0  0  0
 48 51  1  0  0  0  0
 49 67  1  0  0  0  0
 50 71  1  0  0  0  0
 52 65  1  0  0  0  0
 53 67  1  0  0  0  0
 54 67  1  0  0  0  0
 55 68  1  0  0  0  0
 56 68  1  0  0  0  0
 57 68  1  0  0  0  0
 58 69  1  0  0  0  0
 59 79  1  0  0  0  0
 60 66  1  0  0  0  0
 60 67  1  0  0  0  0
 61 69  1  0  0  0  0
 61 78  1  0  0  0  0
 62 66  1  0  0  0  0
 62 80  1  0  0  0  0
 63 69  1  0  0  0  0
 63 80  1  0  0  0  0
 64 68  1  0  0  0  0
 64 77  1  0  0  0  0
 65 79  1  0  0  0  0
 66 86  1  0  0  0  0
 69 88  1  0  0  0  0
 70 71  1  0  0  0  0
M  CHG  2  79   1  80   1
M  ISO  4  32 100  69 101  78 100  88 101
M  END
> <Batch ID>
0103

> <Smiles>
CNC(C)C(=O)NC(C(=O)N1Cc2cc([101O:1][101C:1](C)(CNCC(O)CC(C)(C)C3CCCCC3C)C[100NH:0][100C:0](=O)N3CCCC(n4nc(-c5ccc(Oc6ccc(F)cc6F)cc5)c(C(N)=O)c4N)C3)ccc2CC1C(=O)NC1CCCc2ccccc21)C(C)(C)C

> <Shape>
0.251

> <Color>
0.117

> <Negative vol penalty>
0.000

$$$$

  -OEChem-04052319413D

 81 88  0     1  0  0  0  0  0999 V2000
  -17.1130  -26.8514   22.8258 C   0  0  0  0  0  0  0  0  0  0  0  0
  -18.3463  -26.3339   22.4430 C   0  0  0  0  0  0  0  0  0  0  0  0
  -27.3730  -13.3039   20.9500 C   0  0  0  0  0  0  0  0  0  0  0  0
  -27.5330  -13.2196   18.5408 C   0  0  0  0  0  0  0  0  0  0  0  0
  -16.8765  -28.2227   22.7394 C   0  0  0  0  0  0  0  0  0  0  0  0
  -19.3435  -27.1874   21.9724 C   0  0  0  0  0  0  0  0  0  0  0  0
  -25.3816  -26.6147   22.8206 C   0  0  0  0  0  0  0  0  0  0  0  0
  -26.6422  -12.1159   20.9431 C   0  0  0  0  0  0  0  0  0  0  0  0
  -26.8022  -12.0315   18.5339 C   0  0  0  0  0  0  0  0  0  0  0  0
  -26.3979  -26.1048   22.0139 C   0  0  0  0  0  0  0  0  0  0  0  0
  -23.4638  -11.1508   20.3181 C   0  0  0  0  0  0  0  0  0  0  0  0
  -22.3244  -11.0870   21.1200 C   0  0  0  0  0  0  0  0  0  0  0  0
  -26.9009  -28.3362   21.2476 C   0  0  0  0  0  0  0  0  0  0  0  0
  -23.2833   -9.2319   22.3350 C   0  0  0  0  0  0  0  0  0  0  0  0
  -27.8184  -13.8558   19.7489 C   0  0  0  0  0  0  0  0  0  0  0  0
  -29.9711  -15.2213   19.8431 C   0  0  0  0  0  0  0  0  0  0  0  0
  -17.8746  -29.0946   22.2766 C   0  0  0  0  0  0  0  0  0  0  0  0
  -25.1097  -27.9903   22.8387 C   0  0  0  0  0  0  0  0  0  0  0  0
  -19.1197  -28.5715   21.8785 C   0  0  0  0  0  0  0  0  0  0  0  0
  -25.8823  -28.8613   22.0574 C   0  0  0  0  0  0  0  0  0  0  0  0
  -26.3568  -11.4796   19.7351 C   0  0  0  0  0  0  0  0  0  0  0  0
  -27.1559  -26.9652   21.2250 C   0  0  0  0  0  0  0  0  0  0  0  0
  -24.5130  -10.2551   20.5245 C   0  0  0  0  0  0  0  0  0  0  0  0
  -22.2341  -10.1276   22.1285 C   0  0  0  0  0  0  0  0  0  0  0  0
  -24.4228   -9.2957   21.5330 C   0  0  0  0  0  0  0  0  0  0  0  0
  -28.5728  -15.0833   19.7553 C   0  0  0  0  0  0  0  0  0  0  0  0
  -30.1851  -16.5776   19.8090 C   0  0  0  0  0  0  0  0  0  0  0  0
  -30.9857  -14.2136   19.9462 C   0  0  0  0  0  0  0  0  0  0  0  0
  -22.6016  -29.7911   22.0836 C   0  0  0  0  0  0  0  0  0  0  0  0
  -24.4321  -32.1705   23.3123 C   0  0  0  0  0  0  0  0  0  0  0  0
  -27.5514  -33.3289   24.0706 C   0  0  0  0  0  0  0  0  0  0  0  0
  -27.2571  -21.0272   17.5208 C   0  0  0  0  0  0  0  0  0  0  0  0
  -17.5563  -30.5639   22.1562 C   0  0  0  0  0  0  0  0  0  0  0  0
  -24.0275  -28.5275   23.7347 C   0  0  0  0  0  0  0  0  0  0  0  0
  -25.6438  -30.3485   22.0563 C   0  0  0  0  0  0  0  0  0  0  0  0
  -18.7935  -31.4444   22.0006 C   0  0  0  0  0  0  0  0  0  0  0  0
  -28.1175  -20.7336   20.9334 C   0  0  0  0  0  0  0  0  0  0  0  0
  -19.7404  -30.8555   20.9598 C   0  0  0  0  0  0  0  0  0  0  0  0
  -28.4636  -19.2485   21.0315 C   0  0  0  0  0  0  0  0  0  0  0  0
  -26.9054  -20.9829   20.0340 C   0  0  0  0  0  0  0  0  0  0  0  0
  -27.3746  -18.9000   18.7833 C   0  0  0  0  0  0  0  0  0  0  0  0
  -20.2351  -29.4681   21.3863 C   0  0  1  0  0  0  0  0  0  0  0  0
  -23.4991  -29.8862   23.2848 C   0  0  1  0  0  0  0  0  0  0  0  0
  -28.6254  -18.6278   19.6331 C   0  0  2  0  0  0  0  0  0  0  0  0
  -28.7322  -35.3236   25.0319 C   0  0  0  0  0  0  0  0  0  0  0  0
  -23.9995  -33.6834   20.6982 C   0  0  0  0  0  0  0  0  0  0  0  0
  -25.9172  -35.1676   21.3207 C   0  0  0  0  0  0  0  0  0  0  0  0
  -23.8779  -35.0999   22.7557 C   0  0  0  0  0  0  0  0  0  0  0  0
  -29.4612  -23.2970   17.2037 C   0  0  0  0  0  0  0  0  0  0  0  0
  -25.4183  -22.6673   18.0987 C   0  0  0  0  0  0  0  0  0  0  0  0
  -28.6747  -31.7361   26.2977 C   0  0  0  0  0  0  0  0  0  0  0  0
  -29.1463  -23.9666   14.4581 C   0  0  0  0  0  0  0  0  0  0  0  0
  -27.5521  -25.7836   15.0558 C   0  0  0  0  0  0  0  0  0  0  0  0
  -28.9275  -26.1900   18.1823 C   0  0  0  0  0  0  0  0  0  0  0  0
  -27.8653  -25.1300   17.8748 C   0  0  0  0  0  0  0  0  0  0  0  0
  -27.0772  -23.1887   16.3487 C   0  0  0  0  0  0  0  0  0  0  0  0
  -28.4354  -27.1797   19.2319 C   0  0  0  0  0  0  0  0  0  1  0  0
  -25.4585  -33.1266   22.7542 C   0  0  1  0  0  0  0  0  0  0  0  0
  -28.1102  -33.9680   25.3290 C   0  0  2  0  0  0  0  0  0  0  0  0
  -24.8167  -34.2412   21.8805 C   0  0  0  0  0  0  0  0  0  0  0  0
  -28.2328  -24.1111   16.7704 C   0  0  2  0  0  0  0  0  0  0  0  0
  -27.9430  -16.2582   19.6719 N   0  0  0  0  0  0  0  0  0  0  0  0
  -28.9501  -17.1474   19.7072 N   0  0  0  0  0  0  0  0  0  0  0  0
  -24.5703  -30.8247   22.9443 N   0  0  0  0  0  0  0  0  0  0  0  0
  -27.0805  -20.3340   18.7274 N   0  0  0  0  0  0  0  0  0  0  0  0
  -31.3072  -17.3265   19.8566 N   0  0  0  0  0  0  0  0  0  0  0  0
  -30.5919  -12.8687   19.9679 N   0  0  0  0  0  0  0  0  0  0  0  0
  -21.2699  -29.5873   22.3910 N   0  0  0  0  0  0  0  0  0  0  0  0
  -26.2160  -33.6251   23.8970 N   0  0  0  0  0  0  0  0  0  0  0  0
  -26.6495  -22.2868   17.4089 N   0  0  0  0  0  0  0  0  0  0  0  0
  -29.1548  -33.0941   25.9340 N   0  3  0  0  0  0  0  0  0  0  0  0
  -28.6445  -24.8760   15.5420 N   0  3  0  0  0  0  0  0  0  0  0  0
  -32.2044  -14.4980   20.0335 O   0  0  0  0  0  0  0  0  0  0  0  0
  -23.0815  -29.8964   20.9609 O   0  0  0  0  0  0  0  0  0  0  0  0
  -23.5449  -32.6007   24.0535 O   0  0  0  0  0  0  0  0  0  0  0  0
  -28.2325  -32.6391   23.3150 O   0  0  0  0  0  0  0  0  0  0  0  0
  -27.9150  -20.5445   16.5901 O   0  0  0  0  0  0  0  0  0  0  0  0
  -25.6439  -10.3202   19.7280 O   0  0  0  0  0  0  0  0  0  0  0  0
  -28.1480  -26.4701   20.4361 O   0  0  0  0  0  0  0  0  0  1  0  0
  -21.1405  -10.0675   22.8996 F   0  0  0  0  0  0  0  0  0  0  0  0
  -25.4280   -8.4333   21.7368 F   0  0  0  0  0  0  0  0  0  0  0  0
  1  2  1  0  0  0  0
  1  5  2  0  0  0  0
  2  6  2  0  0  0  0
  3  8  2  0  0  0  0
  3 15  1  0  0  0  0
  4  9  1  0  0  0  0
  4 15  2  0  0  0  0
  5 17  1  0  0  0  0
  6 19  1  0  0  0  0
  7 10  2  0  0  0  0
  7 18  1  0  0  0  0
  8 21  1  0  0  0  0
  9 21  2  0  0  0  0
 10 22  1  0  0  0  0
 11 12  2  0  0  0  0
 11 23  1  0  0  0  0
 12 24  1  0  0  0  0
 13 20  1  0  0  0  0
 13 22  2  0  0  0  0
 14 24  2  0  0  0  0
 14 25  1  0  0  0  0
 15 26  1  0  0  0  0
 16 26  1  0  0  0  0
 16 27  2  0  0  0  0
 16 28  1  0  0  0  0
 17 19  2  0  0  0  0
 17 33  1  0  0  0  0
 18 20  2  0  0  0  0
 18 34  1  0  0  0  0
 19 42  1  0  0  0  0
 20 35  1  0  0  0  0
 21 78  1  0  0  0  0
 22 79  1  0  0  0  0
 23 25  2  0  0  0  0
 23 78  1  0  0  0  0
 24 80  1  0  0  0  0
 25 81  1  0  0  0  0
 26 62  2  0  0  0  0
 27 63  1  0  0  0  0
 27 66  1  0  0  0  0
 28 67  1  0  0  0  0
 28 73  2  0  0  0  0
 29 43  1  0  0  0  0
 29 68  1  0  0  0  0
 29 74  2  0  0  0  0
 30 58  1  0  0  0  0
 30 64  1  0  0  0  0
 30 75  2  0  0  0  0
 31 59  1  0  0  0  0
 31 69  1  0  0  0  0
 31 76  2  0  0  0  0
 32 65  1  0  0  0  0
 32 70  1  0  0  0  0
 32 77  2  0  0  0  0
 33 36  1  0  0  0  0
 34 43  1  0  0  0  0
 35 64  1  0  0  0  0
 36 38  1  0  0  0  0
 37 39  1  0  0  0  0
 37 40  1  0  0  0  0
 38 42  1  0  0  0  0
 39 44  1  0  0  0  0
 40 65  1  0  0  0  0
 41 44  1  0  0  0  0
 41 65  1  0  0  0  0
 42 68  1  0  0  0  0
 43 64  1  0  0  0  0
 44 63  1  0  0  0  0
 45 59  1  0  0  0  0
 46 60  1  0  0  0  0
 47 60  1  0  0  0  0
 48 60  1  0  0  0  0
 49 61  1  0  0  0  0
 50 70  1  0  0  0  0
 51 71  1  0  0  0  0
 52 72  1  0  0  0  0
 53 72  1  0  0  0  0
 54 55  1  0  0  0  0
 54 57  1  0  0  0  0
 55 61  1  0  0  0  0
 56 61  1  0  0  0  0
 56 70  1  0  0  0  0
 57 79  1  0  0  0  0
 58 60  1  0  0  0  0
 58 69  1  0  0  0  0
 59 71  1  0  0  0  0
 61 72  1  0  0  0  0
 62 63  1  0  0  0  0
M  CHG  2  71   1  72   1
M  ISO  4  32 100  57 101  70 100  79 101
M  END
> <Batch ID>
0103

> <Smiles>
CNC(C)C(=O)NC(C(=O)N1Cc2cc([101O:1][101CH2:1]CCC(C)(C[100N:0](C)[100C:0](=O)N3CCCC(n4nc(-c5ccc(Oc6ccc(F)cc6F)cc5)c(C(N)=O)c4N)C3)N(C)C)ccc2CC1C(=O)NC1CCCc2ccccc21)C(C)(C)C

> <Shape>
0.294

> <Color>
0.099

> <Negative vol penalty>
0.000

$$$$

  -OEChem-04052319413D

 86 94  0     1  0  0  0  0  0999 V2000
  -27.3813  -22.7144   15.9930 C   0  0  0  0  0  0  0  0  0  0  0  0
  -26.1372  -23.0835   16.4943 C   0  0  0  0  0  0  0  0  0  0  0  0
  -23.3863  -12.8350   19.3171 C   0  0  0  0  0  0  0  0  0  0  0  0
  -24.5140  -14.2759   20.8948 C   0  0  0  0  0  0  0  0  0  0  0  0
  -28.5097  -22.7864   16.8088 C   0  0  0  0  0  0  0  0  0  0  0  0
  -26.0205  -23.5238   17.8123 C   0  0  0  0  0  0  0  0  0  0  0  0
  -22.1826  -27.7953   19.9407 C   0  0  0  0  0  0  0  0  0  0  0  0
  -24.5088  -12.0084   19.2697 C   0  0  0  0  0  0  0  0  0  0  0  0
  -25.6365  -13.4492   20.8475 C   0  0  0  0  0  0  0  0  0  0  0  0
  -20.9500  -27.7108   20.5867 C   0  0  0  0  0  0  0  0  0  0  0  0
  -28.2548  -12.9197   18.7750 C   0  0  0  0  0  0  0  0  0  0  0  0
  -29.5042  -13.5292   18.6609 C   0  0  0  0  0  0  0  0  0  0  0  0
  -22.0610  -27.9062   22.7190 C   0  0  0  0  0  0  0  0  0  0  0  0
  -20.3758  -24.0932   20.2313 C   0  0  0  0  0  0  0  0  0  0  0  0
  -30.1839  -12.5275   20.7517 C   0  0  0  0  0  0  0  0  0  0  0  0
  -20.1640  -23.4304   22.3728 C   0  0  0  0  0  0  0  0  0  0  0  0
  -23.3889  -13.9688   20.1296 C   0  0  0  0  0  0  0  0  0  0  0  0
  -21.1341  -14.7202   21.0563 C   0  0  0  0  0  0  0  0  0  0  0  0
  -28.4083  -23.2369   18.1345 C   0  0  0  0  0  0  0  0  0  0  0  0
  -23.3666  -27.9252   20.6807 C   0  0  0  0  0  0  0  0  0  0  0  0
  -27.1484  -23.6006   18.6470 C   0  0  0  0  0  0  0  0  0  0  0  0
  -23.3071  -27.9947   22.0799 C   0  0  0  0  0  0  0  0  0  0  0  0
  -19.6295  -24.2718   21.4222 C   0  0  0  0  0  0  0  0  0  0  0  0
  -25.6339  -12.3154   20.0349 C   0  0  0  0  0  0  0  0  0  0  0  0
  -20.8893  -27.7633   21.9762 C   0  0  0  0  0  0  0  0  0  0  0  0
  -27.9699  -12.1140   19.8775 C   0  0  0  0  0  0  0  0  0  0  0  0
  -30.4688  -13.3331   19.6492 C   0  0  0  0  0  0  0  0  0  0  0  0
  -28.9345  -11.9179   20.8658 C   0  0  0  0  0  0  0  0  0  0  0  0
  -22.2299  -14.8234   20.1786 C   0  0  0  0  0  0  0  0  0  0  0  0
  -21.3436  -23.1478   20.4903 C   0  0  0  0  0  0  0  0  0  0  0  0
  -20.3091  -15.7586   20.6991 C   0  0  0  0  0  0  0  0  0  0  0  0
  -20.8844  -13.7708   22.1012 C   0  0  0  0  0  0  0  0  0  0  0  0
  -25.9928  -26.1702   21.0375 C   0  0  0  0  0  0  0  0  0  0  0  0
  -26.9987  -28.7288   22.7592 C   0  0  0  0  0  0  0  0  0  0  0  0
  -26.1825  -31.4788   24.6079 C   0  0  0  0  0  0  0  0  0  0  0  0
  -21.3029  -21.0192   18.0177 C   0  0  0  0  0  0  0  0  0  0  0  0
  -29.6485  -23.2527   18.9927 C   0  0  0  0  0  0  0  0  0  0  0  0
  -24.6859  -28.0420   19.9677 C   0  0  0  0  0  0  0  0  0  0  0  0
  -24.5473  -28.1540   22.9195 C   0  0  0  0  0  0  0  0  0  0  0  0
  -29.4995  -24.0857   20.2631 C   0  0  0  0  0  0  0  0  0  0  0  0
  -19.0908  -18.4483   16.9345 C   0  0  0  0  0  0  0  0  0  0  0  0
  -28.1813  -23.7647   20.9604 C   0  0  0  0  0  0  0  0  0  0  0  0
  -19.5456  -17.2184   17.7222 C   0  0  0  0  0  0  0  0  0  0  0  0
  -20.2717  -19.3280   16.5301 C   0  0  0  0  0  0  0  0  0  0  0  0
  -21.6069  -18.5024   18.4300 C   0  0  0  0  0  0  0  0  0  0  0  0
  -26.9853  -24.1068   20.0638 C   0  0  1  0  0  0  0  0  0  0  0  0
  -25.8743  -27.6554   20.8427 C   0  0  1  0  0  0  0  0  0  0  0  0
  -20.4460  -17.6136   18.9081 C   0  0  2  0  0  0  0  0  0  0  0  0
  -27.2204  -33.3521   25.9161 C   0  0  0  0  0  0  0  0  0  0  0  0
  -23.4611  -19.0618   22.5892 C   0  0  0  0  0  0  0  0  0  0  0  0
  -21.3417  -18.0657   23.4706 C   0  0  0  0  0  0  0  0  0  0  0  0
  -19.2559  -27.1595   24.9120 C   0  0  0  0  0  0  0  0  0  0  0  0
  -27.6000  -26.7973   25.0434 C   0  0  0  0  0  0  0  0  0  0  0  0
  -27.7134  -28.7662   26.5857 C   0  0  0  0  0  0  0  0  0  0  0  0
  -29.3284  -28.5708   24.6946 C   0  0  0  0  0  0  0  0  0  0  0  0
  -24.9880  -33.5300   22.8402 C   0  0  0  0  0  0  0  0  0  0  0  0
  -18.4650  -25.2100   21.6152 C   0  0  0  0  0  0  0  0  0  0  0  0
  -22.3862  -22.5909   19.6037 C   0  0  0  0  0  0  0  0  0  0  0  0
  -18.3253  -25.7365   23.0510 C   0  0  0  0  0  0  0  0  0  0  0  0
  -21.3068  -20.4255   22.6100 C   0  0  0  0  0  0  0  0  0  0  0  0
  -22.0229  -21.7709   22.4743 C   0  0  0  0  0  0  0  0  0  0  0  0
  -26.9140  -29.1422   24.2086 C   0  0  1  0  0  0  0  0  0  0  0  0
  -26.6877  -32.9096   24.5621 C   0  0  2  0  0  0  0  0  0  0  0  0
  -22.1524  -19.3556   23.3238 C   0  0  0  0  0  0  0  0  0  0  0  0
  -19.5062  -26.5959   23.5189 C   0  0  1  0  0  0  0  0  0  1  0  0
  -27.8656  -28.3142   25.1177 C   0  0  0  0  0  0  0  0  0  0  0  0
  -22.1144  -15.8464   19.3277 N   0  0  0  0  0  0  0  0  0  0  0  0
  -21.2052  -22.7518   21.7950 N   0  0  0  0  0  0  0  0  0  0  0  0
  -20.9362  -16.3955   19.6690 N   0  0  0  0  0  0  0  0  0  0  0  0
  -25.8139  -28.2575   22.1762 N   0  0  0  0  0  0  0  0  0  0  0  0
  -21.0845  -19.6684   17.7004 N   0  0  0  0  0  0  0  0  0  0  0  0
  -19.1155  -16.1797   21.1686 N   0  0  0  0  0  0  0  0  0  0  0  0
  -21.8360  -12.7687   22.3350 N   0  0  0  0  0  0  0  0  0  0  0  0
  -26.7428  -25.5336   20.0672 N   0  0  0  0  0  0  0  0  0  0  0  0
  -27.1604  -30.5798   24.2382 N   0  0  0  0  0  0  0  0  0  0  0  0
  -22.0789  -21.2541   19.1462 N   0  0  0  0  0  0  0  0  0  0  0  0
  -25.5888  -33.8344   24.1643 N   0  3  0  0  0  0  0  0  0  0  0  0
  -19.8403  -13.7999   22.7959 O   0  0  0  0  0  0  0  0  0  0  0  0
  -25.4455  -25.6413   21.9980 O   0  0  0  0  0  0  0  0  0  0  0  0
  -28.0747  -28.8274   22.1641 O   0  0  0  0  0  0  0  0  0  0  0  0
  -25.0362  -31.1875   24.9422 O   0  0  0  0  0  0  0  0  0  0  0  0
  -20.8362  -21.9471   17.3483 O   0  0  0  0  0  0  0  0  0  0  0  0
  -26.7293  -11.5089   19.9890 O   0  0  0  0  0  0  0  0  0  0  0  0
  -19.6876  -27.6803   22.6093 O   0  0  0  0  0  0  0  0  0  1  0  0
  -31.6690  -13.9173   19.5386 F   0  0  0  0  0  0  0  0  0  0  0  0
  -28.6671  -11.1441   21.9267 F   0  0  0  0  0  0  0  0  0  0  0  0
  1  2  1  0  0  0  0
  1  5  2  0  0  0  0
  2  6  2  0  0  0  0
  3  8  2  0  0  0  0
  3 17  1  0  0  0  0
  4  9  1  0  0  0  0
  4 17  2  0  0  0  0
  5 19  1  0  0  0  0
  6 21  1  0  0  0  0
  7 10  2  0  0  0  0
  7 20  1  0  0  0  0
  8 24  1  0  0  0  0
  9 24  2  0  0  0  0
 10 25  1  0  0  0  0
 11 12  2  0  0  0  0
 11 26  1  0  0  0  0
 12 27  1  0  0  0  0
 13 22  1  0  0  0  0
 13 25  2  0  0  0  0
 14 23  1  0  0  0  0
 14 30  2  0  0  0  0
 15 27  2  0  0  0  0
 15 28  1  0  0  0  0
 16 23  2  0  0  0  0
 16 68  1  0  0  0  0
 17 29  1  0  0  0  0
 18 29  1  0  0  0  0
 18 31  2  0  0  0  0
 18 32  1  0  0  0  0
 19 21  2  0  0  0  0
 19 37  1  0  0  0  0
 20 22  2  0  0  0  0
 20 38  1  0  0  0  0
 21 46  1  0  0  0  0
 22 39  1  0  0  0  0
 23 57  1  0  0  0  0
 24 83  1  0  0  0  0
 25 84  1  0  0  0  0
 26 28  2  0  0  0  0
 26 83  1  0  0  0  0
 27 85  1  0  0  0  0
 28 86  1  0  0  0  0
 29 67  2  0  0  0  0
 30 58  1  0  0  0  0
 30 68  1  0  0  0  0
 31 69  1  0  0  0  0
 31 72  1  0  0  0  0
 32 73  1  0  0  0  0
 32 78  2  0  0  0  0
 33 47  1  0  0  0  0
 33 74  1  0  0  0  0
 33 79  2  0  0  0  0
 34 62  1  0  0  0  0
 34 70  1  0  0  0  0
 34 80  2  0  0  0  0
 35 63  1  0  0  0  0
 35 75  1  0  0  0  0
 35 81  2  0  0  0  0
 36 71  1  0  0  0  0
 36 76  1  0  0  0  0
 36 82  2  0  0  0  0
 37 40  1  0  0  0  0
 38 47  1  0  0  0  0
 39 70  1  0  0  0  0
 40 42  1  0  0  0  0
 41 43  1  0  0  0  0
 41 44  1  0  0  0  0
 42 46  1  0  0  0  0
 43 48  1  0  0  0  0
 44 71  1  0  0  0  0
 45 48  1  0  0  0  0
 45 71  1  0  0  0  0
 46 74  1  0  0  0  0
 47 70  1  0  0  0  0
 48 69  1  0  0  0  0
 49 63  1  0  0  0  0
 50 64  1  0  0  0  0
 51 64  1  0  0  0  0
 52 65  1  0  0  0  0
 53 66  1  0  0  0  0
 54 66  1  0  0  0  0
 55 66  1  0  0  0  0
 56 77  1  0  0  0  0
 57 59  1  0  0  0  0
 58 76  1  0  0  0  0
 59 65  1  0  0  0  0
 60 61  1  0  0  0  0
 60 64  1  0  0  0  0
 61 68  1  0  0  0  0
 62 66  1  0  0  0  0
 62 75  1  0  0  0  0
 63 77  1  0  0  0  0
 65 84  1  0  0  0  0
 67 69  1  0  0  0  0
M  CHG  1  77   1
M  ISO  4  36 100  65 101  76 100  84 101
M  END
> <Batch ID>
0103

> <Smiles>
CNC(C)C(=O)NC(C(=O)N1Cc2cc([101O:1][101CH:1](C)CCc3cc(C[100NH:0][100C:0](=O)N4CCCC(n5nc(-c6ccc(Oc7ccc(F)cc7F)cc6)c(C(N)=O)c5N)C4)n(CCC(C)C)c3)ccc2CC1C(=O)NC1CCCc2ccccc21)C(C)(C)C

> <Shape>
0.218

> <Color>
0.068

> <Negative vol penalty>
0.000

$$$$

  -OEChem-04052319413D

 86 94  0     1  0  0  0  0  0999 V2000
  -24.7891  -28.8233   20.0785 C   0  0  0  0  0  0  0  0  0  0  0  0
  -24.6802  -27.7915   19.1517 C   0  0  0  0  0  0  0  0  0  0  0  0
  -20.9441  -23.5257   21.0208 C   0  0  0  0  0  0  0  0  0  0  0  0
  -18.7366  -22.5520   21.1466 C   0  0  0  0  0  0  0  0  0  0  0  0
  -25.9597  -28.9709   20.8214 C   0  0  0  0  0  0  0  0  0  0  0  0
  -25.7423  -26.9073   18.9665 C   0  0  0  0  0  0  0  0  0  0  0  0
  -25.3758  -20.9371   17.6515 C   0  0  0  0  0  0  0  0  0  0  0  0
  -20.5752  -24.4840   21.9648 C   0  0  0  0  0  0  0  0  0  0  0  0
  -18.3677  -23.5104   22.0906 C   0  0  0  0  0  0  0  0  0  0  0  0
  -25.4820  -20.2324   16.4533 C   0  0  0  0  0  0  0  0  0  0  0  0
  -18.8172  -27.3701   22.0275 C   0  0  0  0  0  0  0  0  0  0  0  0
  -19.1738  -28.6953   21.7780 C   0  0  0  0  0  0  0  0  0  0  0  0
  -27.8090  -19.8008   16.9203 C   0  0  0  0  0  0  0  0  0  0  0  0
  -20.4588  -28.7346   23.8237 C   0  0  0  0  0  0  0  0  0  0  0  0
  -25.3739  -16.4396   17.8457 C   0  0  0  0  0  0  0  0  0  0  0  0
  -25.5659  -14.4834   16.7728 C   0  0  0  0  0  0  0  0  0  0  0  0
  -20.0247  -22.5597   20.6117 C   0  0  0  0  0  0  0  0  0  0  0  0
  -20.8420  -21.7995   18.3178 C   0  0  0  0  0  0  0  0  0  0  0  0
  -27.0330  -28.0821   20.6521 C   0  0  0  0  0  0  0  0  0  0  0  0
  -26.4901  -21.0886   18.4893 C   0  0  0  0  0  0  0  0  0  0  0  0
  -26.9289  -27.0439   19.7068 C   0  0  0  0  0  0  0  0  0  0  0  0
  -27.7137  -20.5058   18.1299 C   0  0  0  0  0  0  0  0  0  0  0  0
  -25.7363  -15.4929   18.7783 C   0  0  0  0  0  0  0  0  0  0  0  0
  -25.8577  -14.2553   18.0996 C   0  0  0  0  0  0  0  0  0  0  0  0
  -19.2871  -24.4764   22.4997 C   0  0  0  0  0  0  0  0  0  0  0  0
  -26.6994  -19.6665   16.0861 C   0  0  0  0  0  0  0  0  0  0  0  0
  -19.2812  -26.7272   23.1751 C   0  0  0  0  0  0  0  0  0  0  0  0
  -19.9946  -29.3776   22.6760 C   0  0  0  0  0  0  0  0  0  0  0  0
  -20.1020  -27.4094   24.0732 C   0  0  0  0  0  0  0  0  0  0  0  0
  -20.4050  -21.5698   19.6362 C   0  0  0  0  0  0  0  0  0  0  0  0
  -21.0763  -20.5449   17.8103 C   0  0  0  0  0  0  0  0  0  0  0  0
  -21.0202  -23.0363   17.6148 C   0  0  0  0  0  0  0  0  0  0  0  0
  -28.1665  -23.5652   19.5664 C   0  0  0  0  0  0  0  0  0  0  0  0
  -29.6639  -21.2880   21.3256 C   0  0  0  0  0  0  0  0  0  0  0  0
  -30.5170  -18.0039   21.6907 C   0  0  0  0  0  0  0  0  0  0  0  0
  -22.4196  -15.2986   20.3644 C   0  0  0  0  0  0  0  0  0  0  0  0
  -28.2962  -28.3102   21.4440 C   0  0  0  0  0  0  0  0  0  0  0  0
  -26.3523  -21.8290   19.7914 C   0  0  0  0  0  0  0  0  0  0  0  0
  -28.9347  -20.6224   19.0039 C   0  0  0  0  0  0  0  0  0  0  0  0
  -29.2332  -27.1052   21.4564 C   0  0  0  0  0  0  0  0  0  0  0  0
  -19.6438  -16.0009   18.2481 C   0  0  0  0  0  0  0  0  0  0  0  0
  -29.3934  -26.5390   20.0490 C   0  0  0  0  0  0  0  0  0  0  0  0
  -19.5636  -17.5285   18.2449 C   0  0  0  0  0  0  0  0  0  0  0  0
  -20.0646  -15.4607   19.6131 C   0  0  0  0  0  0  0  0  0  0  0  0
  -21.2312  -17.5651   20.1466 C   0  0  0  0  0  0  0  0  0  0  0  0
  -28.0499  -26.0495   19.4951 C   0  0  1  0  0  0  0  0  0  0  0  0
  -27.6812  -22.3595   20.3205 C   0  0  1  0  0  0  0  0  0  0  0  0
  -20.8648  -18.1595   18.7759 C   0  0  2  0  0  0  0  0  0  0  0  0
  -28.7576  -13.1924   18.3581 C   0  0  0  0  0  0  0  0  0  0  0  0
  -25.0820  -11.9185   18.5776 C   0  0  0  0  0  0  0  0  0  0  0  0
  -31.4523  -15.9490   22.7861 C   0  0  0  0  0  0  0  0  0  0  0  0
  -28.5124  -17.4246   14.2590 C   0  0  0  0  0  0  0  0  0  0  0  0
  -32.3012  -22.3287   20.1980 C   0  0  0  0  0  0  0  0  0  0  0  0
  -33.3864  -20.2072   20.9660 C   0  0  0  0  0  0  0  0  0  0  0  0
  -32.3610  -21.7555   22.6315 C   0  0  0  0  0  0  0  0  0  0  0  0
  -27.9602  -17.4330   23.0675 C   0  0  0  0  0  0  0  0  0  0  0  0
  -25.9566  -15.7356   20.2179 C   0  0  0  0  0  0  0  0  0  0  0  0
  -27.5300  -12.3234   18.1127 C   0  0  0  0  0  0  0  0  0  0  0  0
  -26.0928  -16.7312   14.3969 C   0  0  0  0  0  0  0  0  0  0  0  0
  -24.9008  -16.4890   15.3340 C   0  0  0  0  0  0  0  0  0  0  0  0
  -24.7848  -15.2995   21.1160 C   0  0  0  0  0  0  0  0  0  0  0  0
  -26.2274  -12.9551   18.6930 C   0  0  1  0  0  0  0  0  0  0  0  0
  -30.8619  -20.3931   21.1188 C   0  0  1  0  0  0  0  0  0  0  0  0
  -30.4235  -17.0651   22.8800 C   0  0  2  0  0  0  0  0  0  0  0  0
  -27.1955  -17.6085   15.0024 C   0  0  2  0  0  0  0  0  0  1  0  0
  -32.2053  -21.1704   21.2110 C   0  0  0  0  0  0  0  0  0  0  0  0
  -20.3631  -20.2714   19.9467 N   0  0  0  0  0  0  0  0  0  0  0  0
  -25.2736  -15.8147   16.6302 N   0  0  0  0  0  0  0  0  0  0  0  0
  -20.7767  -19.6739   18.8162 N   0  0  0  0  0  0  0  0  0  0  0  0
  -28.7511  -21.3614   20.2639 N   0  0  0  0  0  0  0  0  0  0  0  0
  -21.3060  -16.0983   20.0586 N   0  0  0  0  0  0  0  0  0  0  0  0
  -21.5072  -20.1128   16.6061 N   0  0  0  0  0  0  0  0  0  0  0  0
  -22.2685  -23.6699   17.6834 N   0  0  0  0  0  0  0  0  0  0  0  0
  -27.7040  -24.7666   20.0686 N   0  0  0  0  0  0  0  0  0  0  0  0
  -30.7322  -19.3076   22.0848 N   0  0  0  0  0  0  0  0  0  0  0  0
  -23.5577  -15.9831   20.7729 N   0  0  0  0  0  0  0  0  0  0  0  0
  -29.0678  -16.4501   22.9492 N   0  3  0  0  0  0  0  0  0  0  0  0
  -20.0949  -23.5723   16.9591 O   0  0  0  0  0  0  0  0  0  0  0  0
  -28.9070  -23.4165   18.6014 O   0  0  0  0  0  0  0  0  0  0  0  0
  -29.5389  -21.8940   22.3928 O   0  0  0  0  0  0  0  0  0  0  0  0
  -30.4134  -17.6186   20.5282 O   0  0  0  0  0  0  0  0  0  0  0  0
  -22.4025  -14.0663   20.2745 O   0  0  0  0  0  0  0  0  0  0  0  0
  -18.9269  -25.4113   23.4210 O   0  0  0  0  0  0  0  0  0  0  0  0
  -26.8060  -18.9787   14.9168 O   0  0  0  0  0  0  0  0  0  1  0  0
  -20.3383  -30.6496   22.4355 F   0  0  0  0  0  0  0  0  0  0  0  0
  -20.5519  -26.7966   25.1768 F   0  0  0  0  0  0  0  0  0  0  0  0
  1  2  1  0  0  0  0
  1  5  2  0  0  0  0
  2  6  2  0  0  0  0
  3  8  2  0  0  0  0
  3 17  1  0  0  0  0
  4  9  1  0  0  0  0
  4 17  2  0  0  0  0
  5 19  1  0  0  0  0
  6 21  1  0  0  0  0
  7 10  2  0  0  0  0
  7 20  1  0  0  0  0
  8 25  1  0  0  0  0
  9 25  2  0  0  0  0
 10 26  1  0  0  0  0
 11 12  2  0  0  0  0
 11 27  1  0  0  0  0
 12 28  1  0  0  0  0
 13 22  1  0  0  0  0
 13 26  2  0  0  0  0
 14 28  2  0  0  0  0
 14 29  1  0  0  0  0
 15 23  2  0  0  0  0
 15 68  1  0  0  0  0
 16 24  2  0  0  0  0
 16 68  1  0  0  0  0
 17 30  1  0  0  0  0
 18 30  1  0  0  0  0
 18 31  2  0  0  0  0
 18 32  1  0  0  0  0
 19 21  2  0  0  0  0
 19 37  1  0  0  0  0
 20 22  2  0  0  0  0
 20 38  1  0  0  0  0
 21 46  1  0  0  0  0
 22 39  1  0  0  0  0
 23 24  1  0  0  0  0
 23 57  1  0  0  0  0
 24 62  1  0  0  0  0
 25 83  1  0  0  0  0
 26 84  1  0  0  0  0
 27 29  2  0  0  0  0
 27 83  1  0  0  0  0
 28 85  1  0  0  0  0
 29 86  1  0  0  0  0
 30 67  2  0  0  0  0
 31 69  1  0  0  0  0
 31 72  1  0  0  0  0
 32 73  1  0  0  0  0
 32 78  2  0  0  0  0
 33 47  1  0  0  0  0
 33 74  1  0  0  0  0
 33 79  2  0  0  0  0
 34 63  1  0  0  0  0
 34 70  1  0  0  0  0
 34 80  2  0  0  0  0
 35 64  1  0  0  0  0
 35 75  1  0  0  0  0
 35 81  2  0  0  0  0
 36 71  1  0  0  0  0
 36 76  1  0  0  0  0
 36 82  2  0  0  0  0
 37 40  1  0  0  0  0
 38 47  1  0  0  0  0
 39 70  1  0  0  0  0
 40 42  1  0  0  0  0
 41 43  1  0  0  0  0
 41 44  1  0  0  0  0
 42 46  1  0  0  0  0
 43 48  1  0  0  0  0
 44 71  1  0  0  0  0
 45 48  1  0  0  0  0
 45 71  1  0  0  0  0
 46 74  1  0  0  0  0
 47 70  1  0  0  0  0
 48 69  1  0  0  0  0
 49 58  1  0  0  0  0
 50 62  1  0  0  0  0
 51 64  1  0  0  0  0
 52 65  1  0  0  0  0
 53 66  1  0  0  0  0
 54 66  1  0  0  0  0
 55 66  1  0  0  0  0
 56 77  1  0  0  0  0
 57 61  1  0  0  0  0
 58 62  1  0  0  0  0
 59 60  1  0  0  0  0
 59 65  1  0  0  0  0
 60 68  1  0  0  0  0
 61 76  1  0  0  0  0
 63 66  1  0  0  0  0
 63 75  1  0  0  0  0
 64 77  1  0  0  0  0
 65 84  1  0  0  0  0
 67 69  1  0  0  0  0
M  CHG  1  77   1
M  ISO  4  36 100  65 101  76 100  84 101
M  END
> <Batch ID>
0103

> <Smiles>
CCC(C)c1cn(CC[101CH:1](C)[101O:1]c2ccc3c(c2)CN(C(=O)C(NC(=O)C(C)NC)C(C)(C)C)C(C(=O)NC2CCCc4ccccc42)C3)cc1CC[100NH:0][100C:0](=O)N1CCCC(n2nc(-c3ccc(Oc4ccc(F)cc4F)cc3)c(C(N)=O)c2N)C1

> <Shape>
0.189

> <Color>
0.071

> <Negative vol penalty>
0.000

$$$$

  -OEChem-04052319413D

 87 95  0     1  0  0  0  0  0999 V2000
  -22.3140  -28.0167   32.9976 C   0  0  0  0  0  0  0  0  0  0  0  0
  -23.0309  -27.2413   32.0919 C   0  0  0  0  0  0  0  0  0  0  0  0
  -23.0009   -9.8941   19.9815 C   0  0  0  0  0  0  0  0  0  0  0  0
  -23.7308   -9.9439   22.2840 C   0  0  0  0  0  0  0  0  0  0  0  0
  -27.1206  -21.0541   23.9727 C   0  0  0  0  0  0  0  0  0  0  0  0
  -22.9306  -28.4776   34.1600 C   0  0  0  0  0  0  0  0  0  0  0  0
  -24.3653  -26.9274   32.3476 C   0  0  0  0  0  0  0  0  0  0  0  0
  -25.4240  -22.0591   31.4402 C   0  0  0  0  0  0  0  0  0  0  0  0
  -22.2361   -8.7586   20.2485 C   0  0  0  0  0  0  0  0  0  0  0  0
  -22.9660   -8.8084   22.5510 C   0  0  0  0  0  0  0  0  0  0  0  0
  -25.5981  -21.6827   30.1091 C   0  0  0  0  0  0  0  0  0  0  0  0
  -23.2128   -5.4701   22.0758 C   0  0  0  0  0  0  0  0  0  0  0  0
  -23.8030   -4.4529   22.8258 C   0  0  0  0  0  0  0  0  0  0  0  0
  -26.7634  -21.4774   25.2480 C   0  0  0  0  0  0  0  0  0  0  0  0
  -27.9908  -21.7646   30.4051 C   0  0  0  0  0  0  0  0  0  0  0  0
  -22.0824   -4.6926   24.5048 C   0  0  0  0  0  0  0  0  0  0  0  0
  -23.7483  -10.4868   20.9993 C   0  0  0  0  0  0  0  0  0  0  0  0
  -26.9784  -19.7152   23.6254 C   0  0  0  0  0  0  0  0  0  0  0  0
  -24.1306  -13.0029   20.8246 C   0  0  0  0  0  0  0  0  0  0  0  0
  -24.2704  -28.1611   34.4348 C   0  0  0  0  0  0  0  0  0  0  0  0
  -26.5339  -22.3020   32.2621 C   0  0  0  0  0  0  0  0  0  0  0  0
  -25.0008  -27.3857   33.5142 C   0  0  0  0  0  0  0  0  0  0  0  0
  -27.8281  -22.1415   31.7470 C   0  0  0  0  0  0  0  0  0  0  0  0
  -22.2186   -8.2158   21.5332 C   0  0  0  0  0  0  0  0  0  0  0  0
  -26.8816  -21.5383   29.5905 C   0  0  0  0  0  0  0  0  0  0  0  0
  -22.0574   -6.0987   22.5403 C   0  0  0  0  0  0  0  0  0  0  0  0
  -23.2378   -4.0641   24.0403 C   0  0  0  0  0  0  0  0  0  0  0  0
  -21.4922   -5.7099   23.7548 C   0  0  0  0  0  0  0  0  0  0  0  0
  -24.5390  -11.6594   20.7240 C   0  0  0  0  0  0  0  0  0  0  0  0
  -26.2730  -20.5301   26.1322 C   0  0  0  0  0  0  0  0  0  0  0  0
  -26.4785  -18.8467   24.5823 C   0  0  0  0  0  0  0  0  0  0  0  0
  -25.2389  -13.7270   20.4585 C   0  0  0  0  0  0  0  0  0  0  0  0
  -27.3457  -19.2674   22.3009 C   0  0  0  0  0  0  0  0  0  0  0  0
  -22.8629  -13.5477   21.2142 C   0  0  0  0  0  0  0  0  0  0  0  0
  -27.6461  -24.8268   33.8409 C   0  0  0  0  0  0  0  0  0  0  0  0
  -29.7882  -22.6774   34.9872 C   0  0  0  0  0  0  0  0  0  0  0  0
  -31.4355  -19.7191   34.5607 C   0  0  0  0  0  0  0  0  0  0  0  0
  -30.7348  -14.6670   20.6962 C   0  0  0  0  0  0  0  0  0  0  0  0
  -24.9077  -28.7218   35.6815 C   0  0  0  0  0  0  0  0  0  0  0  0
  -26.3293  -22.6813   33.7032 C   0  0  0  0  0  0  0  0  0  0  0  0
  -29.0526  -22.3707   32.5934 C   0  0  0  0  0  0  0  0  0  0  0  0
  -26.2155  -28.0314   36.0602 C   0  0  0  0  0  0  0  0  0  0  0  0
  -29.5917  -12.2442   18.3511 C   0  0  0  0  0  0  0  0  0  0  0  0
  -27.1120  -27.8775   34.8357 C   0  0  0  0  0  0  0  0  0  0  0  0
  -28.1443  -11.9826   18.7715 C   0  0  0  0  0  0  0  0  0  0  0  0
  -30.4964  -12.4795   19.5586 C   0  0  0  0  0  0  0  0  0  0  0  0
  -28.5883  -13.2719   20.9021 C   0  0  0  0  0  0  0  0  0  0  0  0
  -26.4428  -27.0033   33.7683 C   0  0  1  0  0  0  0  0  0  0  0  0
  -27.5298  -23.4032   34.3073 C   0  0  1  0  0  0  0  0  0  0  0  0
  -27.6269  -13.0842   19.7159 C   0  0  2  0  0  0  0  0  0  0  0  0
  -24.8320  -16.9525   24.3489 C   0  0  0  0  0  0  0  0  0  0  0  0
  -27.1756  -16.4933   25.1562 C   0  0  0  0  0  0  0  0  0  0  0  0
  -33.1522  -18.2459   35.6469 C   0  0  0  0  0  0  0  0  0  0  0  0
  -31.9946  -24.5728   34.0654 C   0  0  0  0  0  0  0  0  0  0  0  0
  -33.6189  -22.6814   34.2941 C   0  0  0  0  0  0  0  0  0  0  0  0
  -32.3910  -23.5178   36.2979 C   0  0  0  0  0  0  0  0  0  0  0  0
  -29.5169  -17.4812   34.8246 C   0  0  0  0  0  0  0  0  0  0  0  0
  -25.8764  -20.9511   27.5167 C   0  0  0  0  0  0  0  0  0  1  0  0
  -30.5690  -17.9813   20.8941 C   0  0  0  0  0  0  0  0  0  0  0  0
  -30.8178  -16.8450   21.8831 C   0  0  0  0  0  0  0  0  0  0  0  0
  -29.1017  -18.3728   20.7698 C   0  0  0  0  0  0  0  0  0  0  0  0
  -26.3035  -17.3972   24.2660 C   0  0  0  0  0  0  0  0  0  0  0  0
  -31.1456  -22.1829   34.5489 C   0  0  1  0  0  0  0  0  0  0  0  0
  -31.6695  -18.5516   35.5023 C   0  0  2  0  0  0  0  0  0  0  0  0
  -32.2646  -23.2362   34.7848 C   0  0  0  0  0  0  0  0  0  0  0  0
  -25.8076  -11.5346   20.3250 N   0  0  0  0  0  0  0  0  0  0  0  0
  -26.1207  -19.2210   25.8311 N   0  0  0  0  0  0  0  0  0  0  0  0
  -26.2059  -12.8089   20.1716 N   0  0  0  0  0  0  0  0  0  0  0  0
  -28.8005  -22.7462   33.9945 N   0  0  0  0  0  0  0  0  0  0  0  0
  -29.9503  -13.5369   20.4128 N   0  0  0  0  0  0  0  0  0  0  0  0
  -25.4708  -15.0530   20.3570 N   0  0  0  0  0  0  0  0  0  0  0  0
  -26.4197  -19.2768   21.3214 N   0  0  0  0  0  0  0  0  0  0  0  0
  -21.8328  -12.6622   21.5592 N   0  0  0  0  0  0  0  0  0  0  0  0
  -26.5403  -25.6046   34.1266 N   0  0  0  0  0  0  0  0  0  0  0  0
  -31.3615  -20.9166   35.2403 N   0  0  0  0  0  0  0  0  0  0  0  0
  -30.1392  -15.6245   21.5081 N   0  0  0  0  0  0  0  0  0  0  0  0
  -28.6099  -18.8448   22.0667 N   0  3  0  0  0  0  0  0  0  0  0  0
  -30.9852  -17.3298   34.9925 N   0  3  0  0  0  0  0  0  0  0  0  0
  -22.6450  -14.7827   21.2395 O   0  0  0  0  0  0  0  0  0  0  0  0
  -28.6644  -25.1928   33.2657 O   0  0  0  0  0  0  0  0  0  0  0  0
  -29.6089  -22.9844   36.1684 O   0  0  0  0  0  0  0  0  0  0  0  0
  -31.3326  -19.5830   33.3436 O   0  0  0  0  0  0  0  0  0  0  0  0
  -31.8791  -14.8145   20.2538 O   0  0  0  0  0  0  0  0  0  0  0  0
  -21.4723   -7.1079   21.7942 O   0  0  0  0  0  0  0  0  0  0  0  0
  -27.0544  -21.1717   28.2914 O   0  0  0  0  0  0  0  0  0  1  0  0
  -23.8037   -3.0862   24.7597 F   0  0  0  0  0  0  0  0  0  0  0  0
  -20.3817   -6.3092   24.2057 F   0  0  0  0  0  0  0  0  0  0  0  0
  1  2  1  0  0  0  0
  1  6  2  0  0  0  0
  2  7  2  0  0  0  0
  3  9  2  0  0  0  0
  3 17  1  0  0  0  0
  4 10  1  0  0  0  0
  4 17  2  0  0  0  0
  5 14  2  0  0  0  0
  5 18  1  0  0  0  0
  6 20  1  0  0  0  0
  7 22  1  0  0  0  0
  8 11  2  0  0  0  0
  8 21  1  0  0  0  0
  9 24  1  0  0  0  0
 10 24  2  0  0  0  0
 11 25  1  0  0  0  0
 12 13  2  0  0  0  0
 12 26  1  0  0  0  0
 13 27  1  0  0  0  0
 14 30  1  0  0  0  0
 15 23  1  0  0  0  0
 15 25  2  0  0  0  0
 16 27  2  0  0  0  0
 16 28  1  0  0  0  0
 17 29  1  0  0  0  0
 18 31  2  0  0  0  0
 18 33  1  0  0  0  0
 19 29  1  0  0  0  0
 19 32  2  0  0  0  0
 19 34  1  0  0  0  0
 20 22  2  0  0  0  0
 20 39  1  0  0  0  0
 21 23  2  0  0  0  0
 21 40  1  0  0  0  0
 22 48  1  0  0  0  0
 23 41  1  0  0  0  0
 24 84  1  0  0  0  0
 25 85  1  0  0  0  0
 26 28  2  0  0  0  0
 26 84  1  0  0  0  0
 27 86  1  0  0  0  0
 28 87  1  0  0  0  0
 29 66  2  0  0  0  0
 30 58  1  0  0  0  0
 30 67  2  0  0  0  0
 31 62  1  0  0  0  0
 31 67  1  0  0  0  0
 32 68  1  0  0  0  0
 32 71  1  0  0  0  0
 33 72  1  0  0  0  0
 33 77  2  0  0  0  0
 34 73  1  0  0  0  0
 34 79  2  0  0  0  0
 35 49  1  0  0  0  0
 35 74  1  0  0  0  0
 35 80  2  0  0  0  0
 36 63  1  0  0  0  0
 36 69  1  0  0  0  0
 36 81  2  0  0  0  0
 37 64  1  0  0  0  0
 37 75  1  0  0  0  0
 37 82  2  0  0  0  0
 38 70  1  0  0  0  0
 38 76  1  0  0  0  0
 38 83  2  0  0  0  0
 39 42  1  0  0  0  0
 40 49  1  0  0  0  0
 41 69  1  0  0  0  0
 42 44  1  0  0  0  0
 43 45  1  0  0  0  0
 43 46  1  0  0  0  0
 44 48  1  0  0  0  0
 45 50  1  0  0  0  0
 46 70  1  0  0  0  0
 47 50  1  0  0  0  0
 47 70  1  0  0  0  0
 48 74  1  0  0  0  0
 49 69  1  0  0  0  0
 50 68  1  0  0  0  0
 51 62  1  0  0  0  0
 52 62  1  0  0  0  0
 53 64  1  0  0  0  0
 54 65  1  0  0  0  0
 55 65  1  0  0  0  0
 56 65  1  0  0  0  0
 57 78  1  0  0  0  0
 58 85  1  0  0  0  0
 59 60  1  0  0  0  0
 59 61  1  0  0  0  0
 60 76  1  0  0  0  0
 61 77  1  0  0  0  0
 63 65  1  0  0  0  0
 63 75  1  0  0  0  0
 64 78  1  0  0  0  0
 66 68  1  0  0  0  0
M  CHG  2  77   1  78   1
M  ISO  4  38 100  58 101  76 100  85 101
M  END
> <Batch ID>
0103

> <Smiles>
CNC(C)C(=O)NC(C(=O)N1Cc2cc([101O:1][101CH2:1]c3ccc(C(N)=NCCC[100NH:0][100C:0](=O)N4CCCC(n5nc(-c6ccc(Oc7ccc(F)cc7F)cc6)c(C(N)=O)c5N)C4)c(C(C)C)n3)ccc2CC1C(=O)NC1CCCc2ccccc21)C(C)(C)C

> <Shape>
0.179

> <Color>
0.185

> <Negative vol penalty>
0.000

$$$$

  -OEChem-04052319413D

 81 89  0     1  0  0  0  0  0999 V2000
  -27.5470  -23.5390   15.0339 C   0  0  0  0  0  0  0  0  0  0  0  0
  -26.4599  -23.8526   15.8433 C   0  0  0  0  0  0  0  0  0  0  0  0
  -20.4678  -21.8913   19.7766 C   0  0  0  0  0  0  0  0  0  0  0  0
  -27.6575  -14.5419   21.7665 C   0  0  0  0  0  0  0  0  0  0  0  0
  -26.5677  -15.1566   19.6998 C   0  0  0  0  0  0  0  0  0  0  0  0
  -28.8413  -23.6144   15.5468 C   0  0  0  0  0  0  0  0  0  0  0  0
  -26.6664  -24.2407   17.1666 C   0  0  0  0  0  0  0  0  0  0  0  0
  -23.8704  -28.2560   18.4723 C   0  0  0  0  0  0  0  0  0  0  0  0
  -19.6878  -22.9322   20.2803 C   0  0  0  0  0  0  0  0  0  0  0  0
  -21.8481  -22.0506   19.6535 C   0  0  0  0  0  0  0  0  0  0  0  0
  -27.1192  -13.2589   21.6688 C   0  0  0  0  0  0  0  0  0  0  0  0
  -26.0293  -13.8735   19.6021 C   0  0  0  0  0  0  0  0  0  0  0  0
  -22.5244  -28.0294   18.7564 C   0  0  0  0  0  0  0  0  0  0  0  0
  -25.7386   -9.9291   22.1490 C   0  0  0  0  0  0  0  0  0  0  0  0
  -25.1801   -9.3693   23.2980 C   0  0  0  0  0  0  0  0  0  0  0  0
  -23.0214  -28.0727   21.1165 C   0  0  0  0  0  0  0  0  0  0  0  0
  -21.6684  -24.2918   20.5376 C   0  0  0  0  0  0  0  0  0  0  0  0
  -23.5939  -11.1881   23.4132 C   0  0  0  0  0  0  0  0  0  0  0  0
  -27.3817  -15.4908   20.7820 C   0  0  0  0  0  0  0  0  0  0  0  0
  -29.1680  -17.2640   20.3664 C   0  0  0  0  0  0  0  0  0  0  0  0
  -29.0643  -24.0130   16.8742 C   0  0  0  0  0  0  0  0  0  0  0  0
  -24.8054  -28.3820   19.5098 C   0  0  0  0  0  0  0  0  0  0  0  0
  -27.9647  -24.3202   17.6982 C   0  0  0  0  0  0  0  0  0  0  0  0
  -24.3782  -28.3034   20.8431 C   0  0  0  0  0  0  0  0  0  0  0  0
  -20.2881  -24.1324   20.6608 C   0  0  0  0  0  0  0  0  0  0  0  0
  -22.4484  -23.2508   20.0339 C   0  0  0  0  0  0  0  0  0  0  0  0
  -26.3051  -12.9246   20.5866 C   0  0  0  0  0  0  0  0  0  0  0  0
  -22.1001  -27.9348   20.0786 C   0  0  0  0  0  0  0  0  0  0  0  0
  -25.2248  -11.1185   21.6321 C   0  0  0  0  0  0  0  0  0  0  0  0
  -24.1078   -9.9987   23.9302 C   0  0  0  0  0  0  0  0  0  0  0  0
  -24.1524  -11.7479   22.2642 C   0  0  0  0  0  0  0  0  0  0  0  0
  -27.9371  -16.8165   20.8827 C   0  0  0  0  0  0  0  0  0  0  0  0
  -29.2303  -18.5881   20.7264 C   0  0  0  0  0  0  0  0  0  0  0  0
  -30.1658  -16.5470   19.6275 C   0  0  0  0  0  0  0  0  0  0  0  0
  -27.3905  -26.7653   20.4083 C   0  0  0  0  0  0  0  0  0  0  0  0
  -27.6881  -29.1904   22.5420 C   0  0  0  0  0  0  0  0  0  0  0  0
  -26.1837  -31.6799   24.3269 C   0  0  0  0  0  0  0  0  0  0  0  0
  -25.0374  -22.6718   21.9892 C   0  0  0  0  0  0  0  0  0  0  0  0
  -30.4785  -24.0340   17.3980 C   0  0  0  0  0  0  0  0  0  0  0  0
  -26.2493  -28.6529   19.1873 C   0  0  0  0  0  0  0  0  0  0  0  0
  -25.3388  -28.4518   21.9936 C   0  0  0  0  0  0  0  0  0  0  0  0
  -30.6341  -24.8152   18.7003 C   0  0  0  0  0  0  0  0  0  0  0  0
  -27.7123  -21.6281   24.0946 C   0  0  0  0  0  0  0  0  0  0  0  0
  -29.5376  -24.4300   19.6882 C   0  0  0  0  0  0  0  0  0  0  0  0
  -28.1843  -20.3170   23.4636 C   0  0  0  0  0  0  0  0  0  0  0  0
  -26.1972  -21.7902   23.9927 C   0  0  0  0  0  0  0  0  0  0  0  0
  -26.1222  -20.3437   21.9987 C   0  0  0  0  0  0  0  0  0  0  0  0
  -28.1495  -24.7692   19.1315 C   0  0  1  0  0  0  0  0  0  0  0  0
  -27.1982  -28.2525   20.3127 C   0  0  1  0  0  0  0  0  0  0  0  0
  -27.6493  -20.1615   22.0273 C   0  0  2  0  0  0  0  0  0  0  0  0
  -26.6790  -33.4692   26.0153 C   0  0  0  0  0  0  0  0  0  0  0  0
  -27.8401  -27.0750   24.7356 C   0  0  0  0  0  0  0  0  0  0  0  0
  -27.3772  -28.8780   26.4098 C   0  0  0  0  0  0  0  0  0  0  0  0
  -29.4390  -28.9785   25.0093 C   0  0  0  0  0  0  0  0  0  0  0  0
  -25.3164  -33.8243   22.4807 C   0  0  0  0  0  0  0  0  0  0  0  0
  -19.4443  -25.2566   21.2066 C   0  0  0  0  0  0  0  0  0  0  0  0
  -23.9243  -23.4213   19.9016 C   0  0  0  0  0  0  0  0  0  0  0  0
  -18.9263  -26.2154   20.1324 C   0  0  0  0  0  0  0  0  0  0  0  0
  -20.0370  -26.9631   19.4039 C   0  0  0  0  0  0  0  0  0  1  0  0
  -27.1938  -29.4465   23.9452 C   0  0  1  0  0  0  0  0  0  0  0  0
  -26.5572  -33.1363   24.5364 C   0  0  2  0  0  0  0  0  0  0  0  0
  -27.9445  -28.5897   25.0035 C   0  0  0  0  0  0  0  0  0  0  0  0
  -27.2659  -17.7782   21.5220 N   0  0  0  0  0  0  0  0  0  0  0  0
  -28.0780  -18.8431   21.4100 N   0  0  0  0  0  0  0  0  0  0  0  0
  -26.7412  -28.7093   21.6267 N   0  0  0  0  0  0  0  0  0  0  0  0
  -25.7548  -21.6330   22.6051 N   0  0  0  0  0  0  0  0  0  0  0  0
  -30.1578  -19.5473   20.5218 N   0  0  0  0  0  0  0  0  0  0  0  0
  -29.9424  -15.1929   19.3435 N   0  0  0  0  0  0  0  0  0  0  0  0
  -27.8877  -26.1871   19.2560 N   0  0  0  0  0  0  0  0  0  0  0  0
  -27.2983  -30.8859   24.1585 N   0  0  0  0  0  0  0  0  0  0  0  0
  -24.6616  -22.4440   20.6710 N   0  0  0  0  0  0  0  0  0  0  0  0
  -25.5236  -34.0274   23.9377 N   0  3  0  0  0  0  0  0  0  0  0  0
  -31.2315  -17.0868   19.2451 O   0  0  0  0  0  0  0  0  0  0  0  0
  -27.1099  -26.1856   21.4509 O   0  0  0  0  0  0  0  0  0  0  0  0
  -28.8691  -29.4160   22.2662 O   0  0  0  0  0  0  0  0  0  0  0  0
  -25.0197  -31.2855   24.3176 O   0  0  0  0  0  0  0  0  0  0  0  0
  -24.7576  -23.7264   22.5692 O   0  0  0  0  0  0  0  0  0  0  0  0
  -25.7798  -11.6726   20.4908 O   0  0  0  0  0  0  0  0  0  0  0  0
  -20.7870  -27.7130   20.3586 O   0  0  0  0  0  0  0  0  0  1  0  0
  -23.5706   -9.4602   25.0327 F   0  0  0  0  0  0  0  0  0  0  0  0
  -23.6538  -12.8901   21.7716 F   0  0  0  0  0  0  0  0  0  0  0  0
  1  2  1  0  0  0  0
  1  6  2  0  0  0  0
  2  7  2  0  0  0  0
  3  9  2  0  0  0  0
  3 10  1  0  0  0  0
  4 11  2  0  0  0  0
  4 19  1  0  0  0  0
  5 12  1  0  0  0  0
  5 19  2  0  0  0  0
  6 21  1  0  0  0  0
  7 23  1  0  0  0  0
  8 13  2  0  0  0  0
  8 22  1  0  0  0  0
  9 25  1  0  0  0  0
 10 26  2  0  0  0  0
 11 27  1  0  0  0  0
 12 27  2  0  0  0  0
 13 28  1  0  0  0  0
 14 15  2  0  0  0  0
 14 29  1  0  0  0  0
 15 30  1  0  0  0  0
 16 24  1  0  0  0  0
 16 28  2  0  0  0  0
 17 25  2  0  0  0  0
 17 26  1  0  0  0  0
 18 30  2  0  0  0  0
 18 31  1  0  0  0  0
 19 32  1  0  0  0  0
 20 32  1  0  0  0  0
 20 33  2  0  0  0  0
 20 34  1  0  0  0  0
 21 23  2  0  0  0  0
 21 39  1  0  0  0  0
 22 24  2  0  0  0  0
 22 40  1  0  0  0  0
 23 48  1  0  0  0  0
 24 41  1  0  0  0  0
 25 56  1  0  0  0  0
 26 57  1  0  0  0  0
 27 78  1  0  0  0  0
 28 79  1  0  0  0  0
 29 31  2  0  0  0  0
 29 78  1  0  0  0  0
 30 80  1  0  0  0  0
 31 81  1  0  0  0  0
 32 63  2  0  0  0  0
 33 64  1  0  0  0  0
 33 67  1  0  0  0  0
 34 68  1  0  0  0  0
 34 73  2  0  0  0  0
 35 49  1  0  0  0  0
 35 69  1  0  0  0  0
 35 74  2  0  0  0  0
 36 60  1  0  0  0  0
 36 65  1  0  0  0  0
 36 75  2  0  0  0  0
 37 61  1  0  0  0  0
 37 70  1  0  0  0  0
 37 76  2  0  0  0  0
 38 66  1  0  0  0  0
 38 71  1  0  0  0  0
 38 77  2  0  0  0  0
 39 42  1  0  0  0  0
 40 49  1  0  0  0  0
 41 65  1  0  0  0  0
 42 44  1  0  0  0  0
 43 45  1  0  0  0  0
 43 46  1  0  0  0  0
 44 48  1  0  0  0  0
 45 50  1  0  0  0  0
 46 66  1  0  0  0  0
 47 50  1  0  0  0  0
 47 66  1  0  0  0  0
 48 69  1  0  0  0  0
 49 65  1  0  0  0  0
 50 64  1  0  0  0  0
 51 61  1  0  0  0  0
 52 62  1  0  0  0  0
 53 62  1  0  0  0  0
 54 62  1  0  0  0  0
 55 72  1  0  0  0  0
 56 58  1  0  0  0  0
 57 71  1  0  0  0  0
 58 59  1  0  0  0  0
 59 79  1  0  0  0  0
 60 62  1  0  0  0  0
 60 70  1  0  0  0  0
 61 72  1  0  0  0  0
 63 64  1  0  0  0  0
M  CHG  1  72   1
M  ISO  4  38 100  59 101  71 100  79 101
M  END
> <Batch ID>
0103

> <Smiles>
CNC(C)C(=O)NC(C(=O)N1Cc2cc([101O:1][101CH2:1]CCc3cccc(C[100NH:0][100C:0](=O)N4CCCC(n5nc(-c6ccc(Oc7ccc(F)cc7F)cc6)c(C(N)=O)c5N)C4)c3)ccc2CC1C(=O)NC1CCCc2ccccc21)C(C)(C)C

> <Shape>
0.221

> <Color>
0.060

> <Negative vol penalty>
0.000

$$$$

  -OEChem-04052319413D

 85 93  0     1  0  0  0  0  0999 V2000
  -27.1546  -29.3590   26.1278 C   0  0  0  0  0  0  0  0  0  0  0  0
  -27.4900  -28.0451   25.8172 C   0  0  0  0  0  0  0  0  0  0  0  0
  -19.6149  -22.7655   19.2154 C   0  0  0  0  0  0  0  0  0  0  0  0
  -20.8797  -22.8913   21.2700 C   0  0  0  0  0  0  0  0  0  0  0  0
  -26.4540  -30.1350   25.2053 C   0  0  0  0  0  0  0  0  0  0  0  0
  -27.1241  -27.5060   24.5844 C   0  0  0  0  0  0  0  0  0  0  0  0
  -30.2858  -23.4543   21.2537 C   0  0  0  0  0  0  0  0  0  0  0  0
  -18.7719  -23.7785   19.6723 C   0  0  0  0  0  0  0  0  0  0  0  0
  -20.0368  -23.9044   21.7269 C   0  0  0  0  0  0  0  0  0  0  0  0
  -30.1814  -22.0713   21.1124 C   0  0  0  0  0  0  0  0  0  0  0  0
  -19.6457  -27.2256   21.2402 C   0  0  0  0  0  0  0  0  0  0  0  0
  -20.2375  -28.3401   21.8345 C   0  0  0  0  0  0  0  0  0  0  0  0
  -28.8413  -22.3809   19.1306 C   0  0  0  0  0  0  0  0  0  0  0  0
  -19.0315  -27.8902   23.8791 C   0  0  0  0  0  0  0  0  0  0  0  0
  -28.0924  -16.6596   19.1892 C   0  0  0  0  0  0  0  0  0  0  0  0
  -20.6687  -22.3218   20.0143 C   0  0  0  0  0  0  0  0  0  0  0  0
  -22.7273  -21.4260   18.8029 C   0  0  0  0  0  0  0  0  0  0  0  0
  -26.0878  -29.6083   23.9567 C   0  0  0  0  0  0  0  0  0  0  0  0
  -29.6585  -24.3126   20.3391 C   0  0  0  0  0  0  0  0  0  0  0  0
  -26.4168  -28.2753   23.6449 C   0  0  0  0  0  0  0  0  0  0  0  0
  -28.9414  -23.7745   19.2610 C   0  0  0  0  0  0  0  0  0  0  0  0
  -27.8669  -15.8071   20.2473 C   0  0  0  0  0  0  0  0  0  0  0  0
  -28.9628  -15.9363   21.1358 C   0  0  0  0  0  0  0  0  0  0  0  0
  -18.9829  -24.3480   20.9280 C   0  0  0  0  0  0  0  0  0  0  0  0
  -29.4567  -21.5343   20.0524 C   0  0  0  0  0  0  0  0  0  0  0  0
  -18.7468  -26.4434   21.9652 C   0  0  0  0  0  0  0  0  0  0  0  0
  -19.9304  -28.6724   23.1540 C   0  0  0  0  0  0  0  0  0  0  0  0
  -18.4397  -26.7757   23.2847 C   0  0  0  0  0  0  0  0  0  0  0  0
  -21.5395  -21.2749   19.5432 C   0  0  0  0  0  0  0  0  0  0  0  0
  -29.8246  -16.8641   20.5935 C   0  0  0  0  0  0  0  0  0  0  0  0
  -23.1752  -20.1425   18.6068 C   0  0  0  0  0  0  0  0  0  0  0  0
  -23.3685  -22.6198   18.3346 C   0  0  0  0  0  0  0  0  0  0  0  0
  -27.3897  -26.5301   20.5367 C   0  0  0  0  0  0  0  0  0  0  0  0
  -28.1596  -27.0384   17.4269 C   0  0  0  0  0  0  0  0  0  0  0  0
  -29.4891  -25.8109   14.5334 C   0  0  0  0  0  0  0  0  0  0  0  0
  -24.2165  -15.0052   20.5221 C   0  0  0  0  0  0  0  0  0  0  0  0
  -25.2898  -30.4705   23.0109 C   0  0  0  0  0  0  0  0  0  0  0  0
  -29.8030  -25.8021   20.4903 C   0  0  0  0  0  0  0  0  0  0  0  0
  -28.2663  -24.6526   18.2404 C   0  0  0  0  0  0  0  0  0  0  0  0
  -25.2668  -29.9433   21.5785 C   0  0  0  0  0  0  0  0  0  0  0  0
  -20.9003  -15.6999   19.4281 C   0  0  0  0  0  0  0  0  0  0  0  0
  -24.9709  -28.4469   21.5650 C   0  0  0  0  0  0  0  0  0  0  0  0
  -20.8674  -17.2243   19.3056 C   0  0  0  0  0  0  0  0  0  0  0  0
  -21.7528  -15.2471   20.6114 C   0  0  0  0  0  0  0  0  0  0  0  0
  -23.0913  -17.3138   20.5078 C   0  0  0  0  0  0  0  0  0  0  0  0
  -26.0592  -27.6627   22.3081 C   0  0  1  0  0  0  0  0  0  0  0  0
  -28.6940  -26.5838   19.7928 C   0  0  1  0  0  0  0  0  0  0  0  0
  -22.2894  -17.8169   19.2952 C   0  0  2  0  0  0  0  0  0  0  0  0
  -28.2882  -15.7723   23.5450 C   0  0  0  0  0  0  0  0  0  0  0  0
  -32.5887  -15.6178   19.9569 C   0  0  0  0  0  0  0  0  0  0  0  0
  -30.9509  -18.1355   22.4389 C   0  0  0  0  0  0  0  0  0  0  0  0
  -29.9464  -26.4484   12.1497 C   0  0  0  0  0  0  0  0  0  0  0  0
  -25.2025  -26.6799   16.7662 C   0  0  0  0  0  0  0  0  0  0  0  0
  -25.8470  -26.3776   14.3659 C   0  0  0  0  0  0  0  0  0  0  0  0
  -26.3318  -28.5333   15.5236 C   0  0  0  0  0  0  0  0  0  0  0  0
  -32.4059  -25.4426   14.8728 C   0  0  0  0  0  0  0  0  0  0  0  0
  -29.1495  -15.2110   22.4094 C   0  0  0  0  0  0  0  0  0  0  0  0
  -26.6946  -14.9248   20.4138 C   0  0  0  0  0  0  0  0  0  0  0  0
  -32.2199  -16.2904   21.2736 C   0  0  0  0  0  0  0  0  0  0  0  0
  -29.8954  -18.3174   18.4805 C   0  0  0  0  0  0  0  0  0  0  0  0
  -29.2150  -19.6780   18.5856 C   0  0  0  0  0  0  0  0  0  1  0  0
  -31.1156  -17.3768   21.0994 C   0  0  1  0  0  0  0  0  0  0  0  0
  -27.6902  -26.4817   16.1045 C   0  0  1  0  0  0  0  0  0  0  0  0
  -30.5024  -26.3926   13.5641 C   0  0  2  0  0  0  0  0  0  0  0  0
  -26.2789  -27.0013   15.7102 C   0  0  0  0  0  0  0  0  0  0  0  0
  -21.2509  -19.9962   19.7997 N   0  0  0  0  0  0  0  0  0  0  0  0
  -29.2852  -17.2971   19.4105 N   0  0  0  0  0  0  0  0  0  0  0  0
  -22.2638  -19.3322   19.2173 N   0  0  0  0  0  0  0  0  0  0  0  0
  -28.4313  -26.1026   18.4350 N   0  0  0  0  0  0  0  0  0  0  0  0
  -23.0892  -15.8429   20.5411 N   0  0  0  0  0  0  0  0  0  0  0  0
  -24.2559  -19.6393   17.9732 N   0  0  0  0  0  0  0  0  0  0  0  0
  -22.7737  -23.8554   18.6242 N   0  0  0  0  0  0  0  0  0  0  0  0
  -27.2390  -27.5277   21.4809 N   0  0  0  0  0  0  0  0  0  0  0  0
  -28.7348  -26.7956   15.1356 N   0  0  0  0  0  0  0  0  0  0  0  0
  -25.4446  -15.6509   20.4480 N   0  0  0  0  0  0  0  0  0  0  0  0
  -31.7407  -25.5636   13.5500 N   0  3  0  0  0  0  0  0  0  0  0  0
  -24.4286  -22.5908   17.6646 O   0  0  0  0  0  0  0  0  0  0  0  0
  -26.5794  -25.6495   20.2727 O   0  0  0  0  0  0  0  0  0  0  0  0
  -28.2877  -28.2583   17.5583 O   0  0  0  0  0  0  0  0  0  0  0  0
  -29.3754  -24.6036   14.7332 O   0  0  0  0  0  0  0  0  0  0  0  0
  -24.1344  -13.7728   20.5625 O   0  0  0  0  0  0  0  0  0  0  0  0
  -18.1607  -25.3368   21.3740 O   0  0  0  0  0  0  0  0  0  0  0  0
  -29.3527  -20.1847   19.9125 O   0  0  0  0  0  0  0  0  0  1  0  0
  -20.4999  -29.7418   23.7251 F   0  0  0  0  0  0  0  0  0  0  0  0
  -17.5777  -26.0273   23.9867 F   0  0  0  0  0  0  0  0  0  0  0  0
  1  2  1  0  0  0  0
  1  5  2  0  0  0  0
  2  6  2  0  0  0  0
  3  8  2  0  0  0  0
  3 16  1  0  0  0  0
  4  9  1  0  0  0  0
  4 16  2  0  0  0  0
  5 18  1  0  0  0  0
  6 20  1  0  0  0  0
  7 10  2  0  0  0  0
  7 19  1  0  0  0  0
  8 24  1  0  0  0  0
  9 24  2  0  0  0  0
 10 25  1  0  0  0  0
 11 12  2  0  0  0  0
 11 26  1  0  0  0  0
 12 27  1  0  0  0  0
 13 21  1  0  0  0  0
 13 25  2  0  0  0  0
 14 27  2  0  0  0  0
 14 28  1  0  0  0  0
 15 22  2  0  0  0  0
 15 67  1  0  0  0  0
 16 29  1  0  0  0  0
 17 29  1  0  0  0  0
 17 31  2  0  0  0  0
 17 32  1  0  0  0  0
 18 20  2  0  0  0  0
 18 37  1  0  0  0  0
 19 21  2  0  0  0  0
 19 38  1  0  0  0  0
 20 46  1  0  0  0  0
 21 39  1  0  0  0  0
 22 23  1  0  0  0  0
 22 58  1  0  0  0  0
 23 30  2  0  0  0  0
 23 57  1  0  0  0  0
 24 82  1  0  0  0  0
 25 83  1  0  0  0  0
 26 28  2  0  0  0  0
 26 82  1  0  0  0  0
 27 84  1  0  0  0  0
 28 85  1  0  0  0  0
 29 66  2  0  0  0  0
 30 62  1  0  0  0  0
 30 67  1  0  0  0  0
 31 68  1  0  0  0  0
 31 71  1  0  0  0  0
 32 72  1  0  0  0  0
 32 77  2  0  0  0  0
 33 47  1  0  0  0  0
 33 73  1  0  0  0  0
 33 78  2  0  0  0  0
 34 63  1  0  0  0  0
 34 69  1  0  0  0  0
 34 79  2  0  0  0  0
 35 64  1  0  0  0  0
 35 74  1  0  0  0  0
 35 80  2  0  0  0  0
 36 70  1  0  0  0  0
 36 75  1  0  0  0  0
 36 81  2  0  0  0  0
 37 40  1  0  0  0  0
 38 47  1  0  0  0  0
 39 69  1  0  0  0  0
 40 42  1  0  0  0  0
 41 43  1  0  0  0  0
 41 44  1  0  0  0  0
 42 46  1  0  0  0  0
 43 48  1  0  0  0  0
 44 70  1  0  0  0  0
 45 48  1  0  0  0  0
 45 70  1  0  0  0  0
 46 73  1  0  0  0  0
 47 69  1  0  0  0  0
 48 68  1  0  0  0  0
 49 57  1  0  0  0  0
 50 59  1  0  0  0  0
 51 62  1  0  0  0  0
 52 64  1  0  0  0  0
 53 65  1  0  0  0  0
 54 65  1  0  0  0  0
 55 65  1  0  0  0  0
 56 76  1  0  0  0  0
 58 75  1  0  0  0  0
 59 62  1  0  0  0  0
 60 61  1  0  0  0  0
 60 67  1  0  0  0  0
 61 83  1  0  0  0  0
 63 65  1  0  0  0  0
 63 74  1  0  0  0  0
 64 76  1  0  0  0  0
 66 68  1  0  0  0  0
M  CHG  1  76   1
M  ISO  4  36 100  61 101  75 100  83 101
M  END
> <Batch ID>
0103

> <Smiles>
CCc1c(C[100NH:0][100C:0](=O)N2CCCC(n3nc(-c4ccc(Oc5ccc(F)cc5F)cc4)c(C(N)=O)c3N)C2)cn(C[101CH2:1][101O:1]c2ccc3c(c2)CN(C(=O)C(NC(=O)C(C)NC)C(C)(C)C)C(C(=O)NC2CCCc4ccccc42)C3)c1C(C)CC

> <Shape>
0.204

> <Color>
0.052

> <Negative vol penalty>
0.000

$$$$

  -OEChem-04052319413D

 88 96  0     1  0  0  0  0  0999 V2000
  -19.4036  -23.9345   23.1882 C   0  0  0  0  0  0  0  0  0  0  0  0
  -20.6992  -24.1226   22.7175 C   0  0  0  0  0  0  0  0  0  0  0  0
  -22.6706  -12.7969   22.7393 C   0  0  0  0  0  0  0  0  0  0  0  0
  -22.5290  -14.4453   20.9787 C   0  0  0  0  0  0  0  0  0  0  0  0
  -18.5297  -25.0176   23.2723 C   0  0  0  0  0  0  0  0  0  0  0  0
  -21.1212  -25.3937   22.3296 C   0  0  0  0  0  0  0  0  0  0  0  0
  -25.7301  -26.5324   24.0921 C   0  0  0  0  0  0  0  0  0  0  0  0
  -29.8289  -20.6579   20.9251 C   0  0  0  0  0  0  0  0  0  0  0  0
  -28.9035  -21.0065   18.7208 C   0  0  0  0  0  0  0  0  0  0  0  0
  -29.8487  -22.0367   21.1349 C   0  0  0  0  0  0  0  0  0  0  0  0
  -28.9232  -22.3853   18.9306 C   0  0  0  0  0  0  0  0  0  0  0  0
  -21.5634  -13.3698   23.3649 C   0  0  0  0  0  0  0  0  0  0  0  0
  -21.4216  -15.0182   21.6042 C   0  0  0  0  0  0  0  0  0  0  0  0
  -26.8216  -25.9751   23.4274 C   0  0  0  0  0  0  0  0  0  0  0  0
  -18.2025  -13.3426   22.9950 C   0  0  0  0  0  0  0  0  0  0  0  0
  -17.2095  -12.4849   23.4683 C   0  0  0  0  0  0  0  0  0  0  0  0
  -27.1613  -28.0551   22.2538 C   0  0  0  0  0  0  0  0  0  0  0  0
  -17.5576  -13.3185   25.7091 C   0  0  0  0  0  0  0  0  0  0  0  0
  -23.1535  -13.3347   21.5463 C   0  0  0  0  0  0  0  0  0  0  0  0
  -24.2938  -11.7160   19.9378 C   0  0  0  0  0  0  0  0  0  0  0  0
  -18.9443  -26.3044   22.8944 C   0  0  0  0  0  0  0  0  0  0  0  0
  -25.3387  -27.8541   23.8342 C   0  0  0  0  0  0  0  0  0  0  0  0
  -20.2516  -26.4948   22.4075 C   0  0  0  0  0  0  0  0  0  0  0  0
  -26.0661  -28.6277   22.9185 C   0  0  0  0  0  0  0  0  0  0  0  0
  -29.3563  -20.1427   19.7181 C   0  0  0  0  0  0  0  0  0  0  0  0
  -29.3958  -22.9004   20.1377 C   0  0  0  0  0  0  0  0  0  0  0  0
  -20.9388  -14.4804   22.7973 C   0  0  0  0  0  0  0  0  0  0  0  0
  -27.5356  -26.7355   22.5060 C   0  0  0  0  0  0  0  0  0  0  0  0
  -18.8731  -14.1881   23.8788 C   0  0  0  0  0  0  0  0  0  0  0  0
  -16.8870  -12.4729   24.8253 C   0  0  0  0  0  0  0  0  0  0  0  0
  -18.5506  -14.1761   25.2358 C   0  0  0  0  0  0  0  0  0  0  0  0
  -24.2976  -12.7436   20.8999 C   0  0  0  0  0  0  0  0  0  0  0  0
  -25.6204  -11.5165   19.6432 C   0  0  0  0  0  0  0  0  0  0  0  0
  -23.1898  -11.0052   19.3619 C   0  0  0  0  0  0  0  0  0  0  0  0
  -22.7188  -29.2322   22.6763 C   0  0  0  0  0  0  0  0  0  0  0  0
  -24.2789  -31.9648   23.4647 C   0  0  0  0  0  0  0  0  0  0  0  0
  -27.2488  -33.5355   24.0640 C   0  0  0  0  0  0  0  0  0  0  0  0
  -30.4520  -15.0341   20.0089 C   0  0  0  0  0  0  0  0  0  0  0  0
  -17.9490  -27.4358   22.9585 C   0  0  0  0  0  0  0  0  0  0  0  0
  -24.1754  -28.4491   24.5792 C   0  0  0  0  0  0  0  0  0  0  0  0
  -25.6990  -30.0578   22.6208 C   0  0  0  0  0  0  0  0  0  0  0  0
  -18.5923  -28.8180   22.8809 C   0  0  0  0  0  0  0  0  0  0  0  0
  -29.9809  -11.8738   21.5795 C   0  0  0  0  0  0  0  0  0  0  0  0
  -19.6205  -28.8659   21.7552 C   0  0  0  0  0  0  0  0  0  0  0  0
  -28.4706  -11.6456   21.4967 C   0  0  0  0  0  0  0  0  0  0  0  0
  -30.3174  -13.3445   21.8154 C   0  0  0  0  0  0  0  0  0  0  0  0
  -28.2027  -14.0526   20.7664 C   0  0  0  0  0  0  0  0  0  0  0  0
  -20.7543  -27.8630   22.0006 C   0  0  1  0  0  0  0  0  0  0  0  0
  -23.5508  -29.6402   23.8591 C   0  0  1  0  0  0  0  0  0  0  0  0
  -27.8157  -12.5929   20.4734 C   0  0  2  0  0  0  0  0  0  0  0  0
  -28.2076  -35.7798   24.6482 C   0  0  0  0  0  0  0  0  0  0  0  0
  -29.5415  -15.3237   16.2325 C   0  0  0  0  0  0  0  0  0  0  0  0
  -30.3973  -17.6195   15.7737 C   0  0  0  0  0  0  0  0  0  0  0  0
  -31.7626  -18.0165   19.8989 C   0  0  0  0  0  0  0  0  0  0  0  0
  -28.8823  -25.2415   19.1709 C   0  0  0  0  0  0  0  0  0  0  0  0
  -30.8741  -24.8775   20.6124 C   0  0  0  0  0  0  0  0  0  0  0  0
  -23.8315  -32.9001   20.5950 C   0  0  0  0  0  0  0  0  0  0  0  0
  -25.5832  -34.6500   20.9661 C   0  0  0  0  0  0  0  0  0  0  0  0
  -23.4963  -34.6674   22.3325 C   0  0  0  0  0  0  0  0  0  0  0  0
  -28.4075  -32.5128   26.5880 C   0  0  0  0  0  0  0  0  0  0  0  0
  -29.3349  -18.6687   19.4930 C   0  0  0  0  0  0  0  0  0  0  0  0
  -28.5704  -24.7869   21.6182 C   0  0  0  0  0  0  0  0  0  1  0  0
  -25.2415  -32.8882   22.7578 C   0  0  1  0  0  0  0  0  0  0  0  0
  -27.6937  -34.4541   25.1878 C   0  0  2  0  0  0  0  0  0  0  0  0
  -29.6885  -16.7410   16.8087 C   0  0  0  0  0  0  0  0  0  0  0  0
  -30.6324  -18.0942   18.8568 C   0  0  2  0  0  0  0  0  0  0  0  0
  -30.4260  -16.7079   18.1767 C   0  0  1  0  0  0  0  0  0  0  0  0
  -29.4163  -24.4228   20.3708 C   0  0  0  0  0  0  0  0  0  0  0  0
  -24.5441  -33.7489   21.6668 C   0  0  0  0  0  0  0  0  0  0  0  0
  -25.5290  -13.1674   21.1969 N   0  0  0  0  0  0  0  0  0  0  0  0
  -26.3113  -12.4021   20.4169 N   0  0  0  0  0  0  0  0  0  0  0  0
  -24.5500  -30.5924   23.3702 N   0  0  0  0  0  0  0  0  0  0  0  0
  -29.6670  -14.1890   20.8106 N   0  0  0  0  0  0  0  0  0  0  0  0
  -26.2517  -10.6717   18.8005 N   0  0  0  0  0  0  0  0  0  0  0  0
  -21.8926  -11.3360   19.7769 N   0  0  0  0  0  0  0  0  0  0  0  0
  -21.6790  -28.3772   22.9880 N   0  0  0  0  0  0  0  0  0  0  0  0
  -25.9016  -33.6659   23.8009 N   0  0  0  0  0  0  0  0  0  0  0  0
  -29.7570  -15.7959   19.0775 N   0  0  0  0  0  0  0  0  0  0  0  0
  -28.7829  -33.8148   25.9789 N   0  3  0  0  0  0  0  0  0  0  0  0
  -23.3499  -10.0923   18.5166 O   0  0  0  0  0  0  0  0  0  0  0  0
  -22.9985  -29.6626   21.5636 O   0  0  0  0  0  0  0  0  0  0  0  0
  -23.3257  -32.4438   24.0840 O   0  0  0  0  0  0  0  0  0  0  0  0
  -28.0201  -32.7807   23.4758 O   0  0  0  0  0  0  0  0  0  0  0  0
  -31.6816  -15.1007   20.1117 O   0  0  0  0  0  0  0  0  0  0  0  0
  -19.8582  -15.0396   23.4073 O   0  0  0  0  0  0  0  0  0  0  0  0
  -28.6010  -26.1938   21.8553 O   0  0  0  0  0  0  0  0  0  1  0  0
  -15.9324  -11.6503   25.2794 F   0  0  0  0  0  0  0  0  0  0  0  0
  -19.1906  -14.9870   26.0895 F   0  0  0  0  0  0  0  0  0  0  0  0
  1  2  1  0  0  0  0
  1  5  2  0  0  0  0
  2  6  2  0  0  0  0
  3 12  2  0  0  0  0
  3 19  1  0  0  0  0
  4 13  1  0  0  0  0
  4 19  2  0  0  0  0
  5 21  1  0  0  0  0
  6 23  1  0  0  0  0
  7 14  2  0  0  0  0
  7 22  1  0  0  0  0
  8 10  2  0  0  0  0
  8 25  1  0  0  0  0
  9 11  1  0  0  0  0
  9 25  2  0  0  0  0
 10 26  1  0  0  0  0
 11 26  2  0  0  0  0
 12 27  1  0  0  0  0
 13 27  2  0  0  0  0
 14 28  1  0  0  0  0
 15 16  2  0  0  0  0
 15 29  1  0  0  0  0
 16 30  1  0  0  0  0
 17 24  1  0  0  0  0
 17 28  2  0  0  0  0
 18 30  2  0  0  0  0
 18 31  1  0  0  0  0
 19 32  1  0  0  0  0
 20 32  1  0  0  0  0
 20 33  2  0  0  0  0
 20 34  1  0  0  0  0
 21 23  2  0  0  0  0
 21 39  1  0  0  0  0
 22 24  2  0  0  0  0
 22 40  1  0  0  0  0
 23 48  1  0  0  0  0
 24 41  1  0  0  0  0
 25 61  1  0  0  0  0
 26 68  1  0  0  0  0
 27 85  1  0  0  0  0
 28 86  1  0  0  0  0
 29 31  2  0  0  0  0
 29 85  1  0  0  0  0
 30 87  1  0  0  0  0
 31 88  1  0  0  0  0
 32 70  2  0  0  0  0
 33 71  1  0  0  0  0
 33 74  1  0  0  0  0
 34 75  1  0  0  0  0
 34 80  2  0  0  0  0
 35 49  1  0  0  0  0
 35 76  1  0  0  0  0
 35 81  2  0  0  0  0
 36 63  1  0  0  0  0
 36 72  1  0  0  0  0
 36 82  2  0  0  0  0
 37 64  1  0  0  0  0
 37 77  1  0  0  0  0
 37 83  2  0  0  0  0
 38 73  1  0  0  0  0
 38 78  1  0  0  0  0
 38 84  2  0  0  0  0
 39 42  1  0  0  0  0
 40 49  1  0  0  0  0
 41 72  1  0  0  0  0
 42 44  1  0  0  0  0
 43 45  1  0  0  0  0
 43 46  1  0  0  0  0
 44 48  1  0  0  0  0
 45 50  1  0  0  0  0
 46 73  1  0  0  0  0
 47 50  1  0  0  0  0
 47 73  1  0  0  0  0
 48 76  1  0  0  0  0
 49 72  1  0  0  0  0
 50 71  1  0  0  0  0
 51 64  1  0  0  0  0
 52 65  1  0  0  0  0
 53 65  1  0  0  0  0
 54 66  1  0  0  0  0
 55 68  1  0  0  0  0
 56 68  1  0  0  0  0
 57 69  1  0  0  0  0
 58 69  1  0  0  0  0
 59 69  1  0  0  0  0
 60 79  1  0  0  0  0
 61 66  1  0  0  0  0
 62 68  1  0  0  0  0
 62 86  1  0  0  0  0
 63 69  1  0  0  0  0
 63 77  1  0  0  0  0
 64 79  1  0  0  0  0
 65 67  1  0  0  0  0
 66 67  1  0  0  0  0
 67 78  1  0  0  0  0
 70 71  1  0  0  0  0
M  CHG  1  79   1
M  ISO  4  38 100  62 101  78 100  86 101
M  END
> <Batch ID>
0103

> <Smiles>
CNC(C)C(=O)NC(C(=O)N1Cc2cc([101O:1][101CH2:1]C(C)(C)c3ccc(CC(C)C([100NH:0][100C:0](=O)N4CCCC(n5nc(-c6ccc(Oc7ccc(F)cc7F)cc6)c(C(N)=O)c5N)C4)C(C)C)cc3)ccc2CC1C(=O)NC1CCCc2ccccc21)C(C)(C)C

> <Shape>
0.278

> <Color>
0.089

> <Negative vol penalty>
0.000

$$$$

  -OEChem-04052319413D

 84 91  0     1  0  0  0  0  0999 V2000
  -16.5333  -27.3439   23.1493 C   0  0  0  0  0  0  0  0  0  0  0  0
  -17.6476  -26.7089   23.6880 C   0  0  0  0  0  0  0  0  0  0  0  0
  -26.4992  -16.2262   19.1188 C   0  0  0  0  0  0  0  0  0  0  0  0
  -28.1711  -16.1602   20.8616 C   0  0  0  0  0  0  0  0  0  0  0  0
  -16.6990  -28.3926   22.2455 C   0  0  0  0  0  0  0  0  0  0  0  0
  -18.9285  -27.1214   23.3223 C   0  0  0  0  0  0  0  0  0  0  0  0
  -23.9208  -27.2083   26.8685 C   0  0  0  0  0  0  0  0  0  0  0  0
  -26.6017  -14.8433   18.9681 C   0  0  0  0  0  0  0  0  0  0  0  0
  -28.2737  -14.7773   20.7109 C   0  0  0  0  0  0  0  0  0  0  0  0
  -24.9914  -26.3254   27.0028 C   0  0  0  0  0  0  0  0  0  0  0  0
  -29.2376  -11.2772   20.5376 C   0  0  0  0  0  0  0  0  0  0  0  0
  -30.5167  -10.7220   20.5021 C   0  0  0  0  0  0  0  0  0  0  0  0
  -26.2814  -27.6654   25.4668 C   0  0  0  0  0  0  0  0  0  0  0  0
  -31.0386  -12.0494   18.5520 C   0  0  0  0  0  0  0  0  0  0  0  0
  -27.2839  -16.8847   20.0655 C   0  0  0  0  0  0  0  0  0  0  0  0
  -26.3110  -19.0131   21.0808 C   0  0  0  0  0  0  0  0  0  0  0  0
  -17.9825  -28.8245   21.8760 C   0  0  0  0  0  0  0  0  0  0  0  0
  -24.0187  -28.3223   26.0225 C   0  0  0  0  0  0  0  0  0  0  0  0
  -19.1115  -28.1759   22.4117 C   0  0  0  0  0  0  0  0  0  0  0  0
  -25.2115  -28.5623   25.3255 C   0  0  0  0  0  0  0  0  0  0  0  0
  -27.4889  -14.1189   19.7641 C   0  0  0  0  0  0  0  0  0  0  0  0
  -26.1709  -26.5522   26.2997 C   0  0  0  0  0  0  0  0  0  0  0  0
  -28.8590  -12.2185   19.5804 C   0  0  0  0  0  0  0  0  0  0  0  0
  -31.4172  -11.1081   19.5093 C   0  0  0  0  0  0  0  0  0  0  0  0
  -29.7595  -12.6046   18.5876 C   0  0  0  0  0  0  0  0  0  0  0  0
  -27.1789  -18.3132   20.2213 C   0  0  0  0  0  0  0  0  0  0  0  0
  -26.5989  -20.3371   20.8558 C   0  0  0  0  0  0  0  0  0  0  0  0
  -25.3320  -18.5113   22.0003 C   0  0  0  0  0  0  0  0  0  0  0  0
  -22.4841  -29.3021   23.4170 C   0  0  0  0  0  0  0  0  0  0  0  0
  -24.3026  -31.9580   23.8182 C   0  0  0  0  0  0  0  0  0  0  0  0
  -27.1378  -33.3618   25.0980 C   0  0  0  0  0  0  0  0  0  0  0  0
  -30.2895  -24.4571   20.1139 C   0  0  0  0  0  0  0  0  0  0  0  0
  -18.1114  -29.9311   20.8593 C   0  0  0  0  0  0  0  0  0  0  0  0
  -22.8643  -29.2798   25.9091 C   0  0  0  0  0  0  0  0  0  0  0  0
  -25.3746  -29.7548   24.4200 C   0  0  0  0  0  0  0  0  0  0  0  0
  -19.5040  -30.5545   20.8108 C   0  0  0  0  0  0  0  0  0  0  0  0
  -29.3921  -22.5332   17.2556 C   0  0  0  0  0  0  0  0  0  0  0  0
  -20.5747  -29.4682   20.7885 C   0  0  0  0  0  0  0  0  0  0  0  0
  -28.6707  -21.3192   17.8436 C   0  0  0  0  0  0  0  0  0  0  0  0
  -30.5526  -22.9832   18.1403 C   0  0  0  0  0  0  0  0  0  0  0  0
  -29.4743  -22.0217   20.1369 C   0  0  0  0  0  0  0  0  0  0  0  0
  -20.5173  -28.6109   22.0587 C   0  0  1  0  0  0  0  0  0  0  0  0
  -22.8923  -30.0999   24.6230 C   0  0  1  0  0  0  0  0  0  0  0  0
  -28.2613  -21.5653   19.3082 C   0  0  2  0  0  0  0  0  0  0  0  0
  -26.9287  -26.3384   22.8104 C   0  0  0  0  0  0  0  0  0  0  0  0
  -30.8570  -27.7193   24.4624 C   0  0  0  0  0  0  0  0  0  0  0  0
  -28.3680  -35.5450   25.2309 C   0  0  0  0  0  0  0  0  0  0  0  0
  -25.2202  -31.6141   20.9286 C   0  0  0  0  0  0  0  0  0  0  0  0
  -27.1041  -33.1905   21.4125 C   0  0  0  0  0  0  0  0  0  0  0  0
  -24.7438  -33.9762   21.5978 C   0  0  0  0  0  0  0  0  0  0  0  0
  -27.3472  -25.1407   24.0920 C   0  0  0  0  0  0  0  0  0  0  0  0
  -25.9850  -23.7785   25.6987 C   0  0  0  0  0  0  0  0  0  0  0  0
  -26.9585  -33.4160   28.0516 C   0  0  0  0  0  0  0  0  0  0  0  0
  -30.8483  -23.8982   26.6290 C   0  0  0  0  0  0  0  0  0  0  0  0
  -27.8381  -25.3751   23.5640 C   0  0  0  0  0  0  0  0  0  0  0  0
  -29.4562  -27.1401   24.3044 C   0  0  0  0  0  0  0  0  0  0  0  0
  -29.9424  -25.8132   22.1632 C   0  0  0  0  0  0  0  0  0  0  0  0
  -30.1879  -24.6686   24.3550 C   0  0  0  0  0  0  0  0  0  0  0  0
  -28.4751  -23.7221   25.8948 C   0  0  0  0  0  0  0  0  0  0  0  0
  -25.6666  -32.4010   23.3468 C   0  0  1  0  0  0  0  0  0  0  0  0
  -27.3589  -34.6285   25.9050 C   0  0  2  0  0  0  0  0  0  0  0  0
  -25.6802  -32.7718   21.8369 C   0  0  0  0  0  0  0  0  0  0  0  0
  -29.3583  -25.7444   23.6035 C   0  0  0  0  0  0  0  0  0  0  0  0
  -27.2702  -24.5931   25.5193 C   0  0  0  0  0  0  0  0  0  1  0  0
  -27.9596  -19.1254   19.5037 N   0  0  0  0  0  0  0  0  0  0  0  0
  -27.5832  -20.3493   19.9117 N   0  0  0  0  0  0  0  0  0  0  0  0
  -24.2154  -30.6586   24.3376 N   0  0  0  0  0  0  0  0  0  0  0  0
  -30.0972  -23.2009   19.5155 N   0  0  0  0  0  0  0  0  0  0  0  0
  -26.1035  -21.4804   21.3753 N   0  0  0  0  0  0  0  0  0  0  0  0
  -25.1650  -17.1238   22.1071 N   0  0  0  0  0  0  0  0  0  0  0  0
  -21.1246  -29.3121   23.1695 N   0  0  0  0  0  0  0  0  0  0  0  0
  -26.0718  -33.4872   24.2325 N   0  0  0  0  0  0  0  0  0  0  0  0
  -29.8228  -24.5805   21.4169 N   0  0  0  0  0  0  0  0  0  0  0  0
  -27.8641  -34.2937   27.2665 N   0  3  0  0  0  0  0  0  0  0  0  0
  -29.7442  -24.4854   25.7851 N   0  3  1  0  0  0  0  0  0  0  0  0
  -24.6149  -19.2712   22.6944 O   0  0  0  0  0  0  0  0  0  0  0  0
  -23.3393  -28.7216   22.7587 O   0  0  0  0  0  0  0  0  0  0  0  0
  -23.3512  -32.7388   23.7356 O   0  0  0  0  0  0  0  0  0  0  0  0
  -27.8428  -32.3625   25.2204 O   0  0  0  0  0  0  0  0  0  0  0  0
  -30.8318  -25.4005   19.5284 O   0  0  0  0  0  0  0  0  0  0  0  0
  -27.5890  -12.7694   19.6175 O   0  0  0  0  0  0  0  0  0  0  0  0
  -27.2172  -25.6917   26.4285 O   0  0  0  0  0  0  0  0  0  1  0  0
  -32.6460  -10.5759   19.4762 F   0  0  0  0  0  0  0  0  0  0  0  0
  -29.4019  -13.5093   17.6659 F   0  0  0  0  0  0  0  0  0  0  0  0
  1  2  1  0  0  0  0
  1  5  2  0  0  0  0
  2  6  2  0  0  0  0
  3  8  2  0  0  0  0
  3 15  1  0  0  0  0
  4  9  1  0  0  0  0
  4 15  2  0  0  0  0
  5 17  1  0  0  0  0
  6 19  1  0  0  0  0
  7 10  2  0  0  0  0
  7 18  1  0  0  0  0
  8 21  1  0  0  0  0
  9 21  2  0  0  0  0
 10 22  1  0  0  0  0
 11 12  2  0  0  0  0
 11 23  1  0  0  0  0
 12 24  1  0  0  0  0
 13 20  1  0  0  0  0
 13 22  2  0  0  0  0
 14 24  2  0  0  0  0
 14 25  1  0  0  0  0
 15 26  1  0  0  0  0
 16 26  1  0  0  0  0
 16 27  2  0  0  0  0
 16 28  1  0  0  0  0
 17 19  2  0  0  0  0
 17 33  1  0  0  0  0
 18 20  2  0  0  0  0
 18 34  1  0  0  0  0
 19 42  1  0  0  0  0
 20 35  1  0  0  0  0
 21 81  1  0  0  0  0
 22 82  1  0  0  0  0
 23 25  2  0  0  0  0
 23 81  1  0  0  0  0
 24 83  1  0  0  0  0
 25 84  1  0  0  0  0
 26 65  2  0  0  0  0
 27 66  1  0  0  0  0
 27 69  1  0  0  0  0
 28 70  1  0  0  0  0
 28 76  2  0  0  0  0
 29 43  1  0  0  0  0
 29 71  1  0  0  0  0
 29 77  2  0  0  0  0
 30 60  1  0  0  0  0
 30 67  1  0  0  0  0
 30 78  2  0  0  0  0
 31 61  1  0  0  0  0
 31 72  1  0  0  0  0
 31 79  2  0  0  0  0
 32 68  1  0  0  0  0
 32 73  1  0  0  0  0
 32 80  2  0  0  0  0
 33 36  1  0  0  0  0
 34 43  1  0  0  0  0
 35 67  1  0  0  0  0
 36 38  1  0  0  0  0
 37 39  1  0  0  0  0
 37 40  1  0  0  0  0
 38 42  1  0  0  0  0
 39 44  1  0  0  0  0
 40 68  1  0  0  0  0
 41 44  1  0  0  0  0
 41 68  1  0  0  0  0
 42 71  1  0  0  0  0
 43 67  1  0  0  0  0
 44 66  1  0  0  0  0
 45 55  1  0  0  0  0
 46 56  1  0  0  0  0
 47 61  1  0  0  0  0
 48 62  1  0  0  0  0
 49 62  1  0  0  0  0
 50 62  1  0  0  0  0
 51 64  1  0  0  0  0
 52 64  1  0  0  0  0
 53 74  1  0  0  0  0
 54 75  1  0  0  0  0
 55 63  1  0  0  0  0
 56 63  1  0  0  0  0
 57 63  1  0  0  0  0
 57 73  1  0  0  0  0
 58 63  1  0  0  0  0
 58 75  1  0  0  0  0
 59 64  1  0  0  0  0
 59 75  1  0  0  0  0
 60 62  1  0  0  0  0
 60 72  1  0  0  0  0
 61 74  1  0  0  0  0
 64 82  1  0  0  0  0
 65 66  1  0  0  0  0
M  CHG  2  74   1  75   1
M  ISO  4  32 100  64 101  73 100  82 101
M  END
> <Batch ID>
0103

> <Smiles>
CCC(CC)(C[100NH:0][100C:0](=O)N1CCCC(n2nc(-c3ccc(Oc4ccc(F)cc4F)cc3)c(C(N)=O)c2N)C1)CN(C)C[101C:1](C)(C)[101O:1]c1ccc2c(c1)CN(C(=O)C(NC(=O)C(C)NC)C(C)(C)C)C(C(=O)NC1CCCc3ccccc31)C2

> <Shape>
0.233

> <Color>
0.070

> <Negative vol penalty>
0.000

$$$$

  -OEChem-04052319413D

 85 93  0     1  0  0  0  0  0999 V2000
  -31.9526  -25.2590   18.2884 C   0  0  0  0  0  0  0  0  0  0  0  0
  -30.5948  -24.9772   18.3991 C   0  0  0  0  0  0  0  0  0  0  0  0
  -27.0937  -15.0023   19.6194 C   0  0  0  0  0  0  0  0  0  0  0  0
  -24.7730  -15.1370   20.2777 C   0  0  0  0  0  0  0  0  0  0  0  0
  -32.5812  -26.0451   19.2532 C   0  0  0  0  0  0  0  0  0  0  0  0
  -29.8649  -25.4806   19.4753 C   0  0  0  0  0  0  0  0  0  0  0  0
  -24.0190  -27.3051   19.4272 C   0  0  0  0  0  0  0  0  0  0  0  0
  -27.0810  -13.6277   19.8557 C   0  0  0  0  0  0  0  0  0  0  0  0
  -24.7602  -13.7624   20.5140 C   0  0  0  0  0  0  0  0  0  0  0  0
  -22.8362  -26.6741   19.8103 C   0  0  0  0  0  0  0  0  0  0  0  0
  -25.7900  -11.6414   22.9372 C   0  0  0  0  0  0  0  0  0  0  0  0
  -25.1894  -11.1915   24.1130 C   0  0  0  0  0  0  0  0  0  0  0  0
  -22.9654  -27.7529   21.9641 C   0  0  0  0  0  0  0  0  0  0  0  0
  -23.6160   -9.8974   22.8142 C   0  0  0  0  0  0  0  0  0  0  0  0
  -21.7431  -21.9932   24.2340 C   0  0  0  0  0  0  0  0  0  0  0  0
  -25.9397  -15.7570   19.8305 C   0  0  0  0  0  0  0  0  0  0  0  0
  -25.6482  -17.8356   18.3806 C   0  0  0  0  0  0  0  0  0  0  0  0
  -31.8565  -26.5663   20.3367 C   0  0  0  0  0  0  0  0  0  0  0  0
  -24.6908  -28.1577   20.3151 C   0  0  0  0  0  0  0  0  0  0  0  0
  -30.4846  -26.2733   20.4563 C   0  0  0  0  0  0  0  0  0  0  0  0
  -24.1552  -28.3955   21.5889 C   0  0  0  0  0  0  0  0  0  0  0  0
  -25.9142  -13.0077   20.3030 C   0  0  0  0  0  0  0  0  0  0  0  0
  -22.3108  -26.8957   21.0799 C   0  0  0  0  0  0  0  0  0  0  0  0
  -25.3035  -11.2194   21.6999 C   0  0  0  0  0  0  0  0  0  0  0  0
  -24.1025  -10.3195   24.0515 C   0  0  0  0  0  0  0  0  0  0  0  0
  -24.2166  -10.3474   21.6383 C   0  0  0  0  0  0  0  0  0  0  0  0
  -25.9524  -17.1771   19.5871 C   0  0  0  0  0  0  0  0  0  0  0  0
  -25.8063  -19.1693   18.6681 C   0  0  0  0  0  0  0  0  0  0  0  0
  -23.0314  -22.4444   24.2954 C   0  0  0  0  0  0  0  0  0  0  0  0
  -21.7683  -23.8204   25.4835 C   0  0  0  0  0  0  0  0  0  0  0  0
  -25.2576  -17.2904   17.1134 C   0  0  0  0  0  0  0  0  0  0  0  0
  -27.5551  -28.1550   21.6932 C   0  0  0  0  0  0  0  0  0  0  0  0
  -26.6238  -31.0809   22.7391 C   0  0  0  0  0  0  0  0  0  0  0  0
  -24.0644  -33.2119   23.4841 C   0  0  0  0  0  0  0  0  0  0  0  0
  -25.4844  -22.3192   23.7356 C   0  0  0  0  0  0  0  0  0  0  0  0
  -32.5896  -27.3718   21.3800 C   0  0  0  0  0  0  0  0  0  0  0  0
  -25.9513  -28.8516   19.8771 C   0  0  0  0  0  0  0  0  0  0  0  0
  -24.8270  -29.3176   22.5722 C   0  0  0  0  0  0  0  0  0  0  0  0
  -31.6644  -28.1774   22.2885 C   0  0  0  0  0  0  0  0  0  0  0  0
  -28.2698  -22.1176   21.5270 C   0  0  0  0  0  0  0  0  0  0  0  0
  -30.5056  -27.3118   22.7729 C   0  0  0  0  0  0  0  0  0  0  0  0
  -27.9610  -20.8913   20.6650 C   0  0  0  0  0  0  0  0  0  0  0  0
  -27.8160  -21.9235   22.9727 C   0  0  0  0  0  0  0  0  0  0  0  0
  -26.1037  -20.2965   22.2725 C   0  0  0  0  0  0  0  0  0  0  0  0
  -29.6536  -26.8216   21.5959 C   0  0  1  0  0  0  0  0  0  0  0  0
  -26.8249  -29.2974   21.0456 C   0  0  1  0  0  0  0  0  0  0  0  0
  -26.4839  -20.4700   20.7929 C   0  0  2  0  0  0  0  0  0  0  0  0
  -23.6147  -35.5223   24.3543 C   0  0  0  0  0  0  0  0  0  0  0  0
  -17.2203  -23.0677   24.2414 C   0  0  0  0  0  0  0  0  0  0  0  0
  -27.2817  -30.1414   25.5666 C   0  0  0  0  0  0  0  0  0  0  0  0
  -25.9516  -32.0730   26.4430 C   0  0  0  0  0  0  0  0  0  0  0  0
  -27.9838  -32.4870   25.0568 C   0  0  0  0  0  0  0  0  0  0  0  0
  -22.6953  -34.0121   20.9853 C   0  0  0  0  0  0  0  0  0  0  0  0
  -22.3953  -25.7666   26.6979 C   0  0  0  0  0  0  0  0  0  0  0  0
  -18.8800  -26.5713   22.1526 C   0  0  0  0  0  0  0  0  0  0  0  0
  -19.5415  -22.7594   25.1858 C   0  0  0  0  0  0  0  0  0  0  0  0
  -18.6141  -25.0840   22.3300 C   0  0  0  0  0  0  0  0  0  0  0  0
  -20.3310  -26.9681   22.3956 C   0  0  0  0  0  0  0  0  0  1  0  0
  -25.8900  -31.5989   23.9525 C   0  0  1  0  0  0  0  0  0  0  0  0
  -23.8238  -34.6648   23.1158 C   0  0  2  0  0  0  0  0  0  0  0  0
  -18.7133  -23.2107   23.9791 C   0  0  2  0  0  0  0  0  0  0  0  0
  -26.7649  -31.5561   25.2371 C   0  0  0  0  0  0  0  0  0  0  0  0
  -26.2792  -18.0228   20.5679 N   0  0  0  0  0  0  0  0  0  0  0  0
  -20.9834  -22.8632   24.9784 N   0  0  0  0  0  0  0  0  0  0  0  0
  -26.1814  -19.2264   19.9781 N   0  0  0  0  0  0  0  0  0  0  0  0
  -23.0175  -23.5761   25.0746 N   0  3  0  0  0  0  0  0  0  0  0  0
  -26.0604  -29.9677   22.0993 N   0  0  0  0  0  0  0  0  0  0  0  0
  -26.4061  -21.5297   23.0158 N   0  0  0  0  0  0  0  0  0  0  0  0
  -25.6598  -20.2871   17.9254 N   0  0  0  0  0  0  0  0  0  0  0  0
  -25.1430  -15.8989   16.9915 N   0  0  0  0  0  0  0  0  0  0  0  0
  -24.1674  -21.8646   23.6780 N   0  0  0  0  0  0  0  0  0  0  0  0
  -28.7846  -27.8793   21.1260 N   0  0  0  0  0  0  0  0  0  0  0  0
  -25.4092  -32.9306   23.6011 N   0  0  0  0  0  0  0  0  0  0  0  0
  -22.6166  -34.7868   22.2505 N   0  3  0  0  0  0  0  0  0  0  0  0
  -18.9922  -24.6454   23.6939 N   0  3  0  0  0  0  0  0  0  0  0  0
  -25.0332  -18.0148   16.1142 O   0  0  0  0  0  0  0  0  0  0  0  0
  -27.0417  -27.5681   22.6386 O   0  0  0  0  0  0  0  0  0  0  0  0
  -27.6548  -31.6476   22.3683 O   0  0  0  0  0  0  0  0  0  0  0  0
  -23.1506  -32.4079   23.6549 O   0  0  0  0  0  0  0  0  0  0  0  0
  -25.8330  -23.3397   24.3348 O   0  0  0  0  0  0  0  0  0  0  0  0
  -25.9014  -11.6663   20.5334 O   0  0  0  0  0  0  0  0  0  0  0  0
  -21.1569  -26.2806   21.4566 O   0  0  0  0  0  0  0  0  0  1  0  0
  -21.3711  -24.8826   26.2893 O   0  0  0  0  0  0  0  0  0  0  0  0
  -23.5268   -9.8863   25.1807 F   0  0  0  0  0  0  0  0  0  0  0  0
  -23.7456   -9.9375   20.4526 F   0  0  0  0  0  0  0  0  0  0  0  0
  1  2  1  0  0  0  0
  1  5  2  0  0  0  0
  2  6  2  0  0  0  0
  3  8  2  0  0  0  0
  3 16  1  0  0  0  0
  4  9  1  0  0  0  0
  4 16  2  0  0  0  0
  5 18  1  0  0  0  0
  6 20  1  0  0  0  0
  7 10  2  0  0  0  0
  7 19  1  0  0  0  0
  8 22  1  0  0  0  0
  9 22  2  0  0  0  0
 10 23  1  0  0  0  0
 11 12  2  0  0  0  0
 11 24  1  0  0  0  0
 12 25  1  0  0  0  0
 13 21  1  0  0  0  0
 13 23  2  0  0  0  0
 14 25  2  0  0  0  0
 14 26  1  0  0  0  0
 15 29  2  0  0  0  0
 15 64  1  0  0  0  0
 16 27  1  0  0  0  0
 17 27  1  0  0  0  0
 17 28  2  0  0  0  0
 17 31  1  0  0  0  0
 18 20  2  0  0  0  0
 18 36  1  0  0  0  0
 19 21  2  0  0  0  0
 19 37  1  0  0  0  0
 20 45  1  0  0  0  0
 21 38  1  0  0  0  0
 22 81  1  0  0  0  0
 23 82  1  0  0  0  0
 24 26  2  0  0  0  0
 24 81  1  0  0  0  0
 25 84  1  0  0  0  0
 26 85  1  0  0  0  0
 27 63  2  0  0  0  0
 28 65  1  0  0  0  0
 28 69  1  0  0  0  0
 29 66  1  0  0  0  0
 29 71  1  0  0  0  0
 30 64  1  0  0  0  0
 30 66  2  0  0  0  0
 30 83  1  0  0  0  0
 31 70  1  0  0  0  0
 31 76  2  0  0  0  0
 32 46  1  0  0  0  0
 32 72  1  0  0  0  0
 32 77  2  0  0  0  0
 33 59  1  0  0  0  0
 33 67  1  0  0  0  0
 33 78  2  0  0  0  0
 34 60  1  0  0  0  0
 34 73  1  0  0  0  0
 34 79  2  0  0  0  0
 35 68  1  0  0  0  0
 35 71  1  0  0  0  0
 35 80  2  0  0  0  0
 36 39  1  0  0  0  0
 37 46  1  0  0  0  0
 38 67  1  0  0  0  0
 39 41  1  0  0  0  0
 40 42  1  0  0  0  0
 40 43  1  0  0  0  0
 41 45  1  0  0  0  0
 42 47  1  0  0  0  0
 43 68  1  0  0  0  0
 44 47  1  0  0  0  0
 44 68  1  0  0  0  0
 45 72  1  0  0  0  0
 46 67  1  0  0  0  0
 47 65  1  0  0  0  0
 48 60  1  0  0  0  0
 49 61  1  0  0  0  0
 50 62  1  0  0  0  0
 51 62  1  0  0  0  0
 52 62  1  0  0  0  0
 53 74  1  0  0  0  0
 54 83  1  0  0  0  0
 55 57  1  0  0  0  0
 55 58  1  0  0  0  0
 56 61  1  0  0  0  0
 56 64  1  0  0  0  0
 57 75  1  0  0  0  0
 58 82  1  0  0  0  0
 59 62  1  0  0  0  0
 59 73  1  0  0  0  0
 60 74  1  0  0  0  0
 61 75  1  0  0  0  0
 63 65  1  0  0  0  0
M  CHG  3  66   1  74   1  75   1
M  ISO  4  35 100  58 101  71 100  82 101
M  END
> <Batch ID>
0103

> <Smiles>
CNC(C)C(=O)NC(C(=O)N1Cc2cc([101O:1][101CH2:1]CCNC(C)Cn3cc([100NH:0][100C:0](=O)N4CCCC(n5nc(-c6ccc(Oc7ccc(F)cc7F)cc6)c(C(N)=O)c5N)C4)nc3OC)ccc2CC1C(=O)NC1CCCc2ccccc21)C(C)(C)C

> <Shape>
0.240

> <Color>
0.057

> <Negative vol penalty>
0.000

$$$$

  -OEChem-04052319413D

 83 91  0     1  0  0  0  0  0999 V2000
  -23.2196  -23.1780   16.5152 C   0  0  0  0  0  0  0  0  0  0  0  0
  -24.3030  -22.7482   17.2746 C   0  0  0  0  0  0  0  0  0  0  0  0
  -23.2886   -9.7995   19.9123 C   0  0  0  0  0  0  0  0  0  0  0  0
  -23.7387   -9.9399   22.2818 C   0  0  0  0  0  0  0  0  0  0  0  0
  -21.9993  -23.4471   17.1335 C   0  0  0  0  0  0  0  0  0  0  0  0
  -24.1671  -22.5882   18.6531 C   0  0  0  0  0  0  0  0  0  0  0  0
  -26.8829  -18.3608   22.1543 C   0  0  0  0  0  0  0  0  0  0  0  0
  -22.5622   -8.6270   20.1197 C   0  0  0  0  0  0  0  0  0  0  0  0
  -23.0123   -8.7674   22.4893 C   0  0  0  0  0  0  0  0  0  0  0  0
  -28.0160  -18.4018   22.9657 C   0  0  0  0  0  0  0  0  0  0  0  0
  -19.7652   -7.8563   22.7057 C   0  0  0  0  0  0  0  0  0  0  0  0
  -18.8625   -7.8346   23.7689 C   0  0  0  0  0  0  0  0  0  0  0  0
  -26.6187  -18.8311   24.8847 C   0  0  0  0  0  0  0  0  0  0  0  0
  -30.2093  -14.1197   25.5522 C   0  0  0  0  0  0  0  0  0  0  0  0
  -20.0680   -5.9873   24.7545 C   0  0  0  0  0  0  0  0  0  0  0  0
  -31.8312  -15.5178   24.5172 C   0  0  0  0  0  0  0  0  0  0  0  0
  -23.8769  -10.4560   20.9933 C   0  0  0  0  0  0  0  0  0  0  0  0
  -24.1364  -12.9860   20.7950 C   0  0  0  0  0  0  0  0  0  0  0  0
  -21.8456  -23.2811   18.5190 C   0  0  0  0  0  0  0  0  0  0  0  0
  -25.6081  -18.5657   22.7012 C   0  0  0  0  0  0  0  0  0  0  0  0
  -22.9440  -22.8566   19.2908 C   0  0  0  0  0  0  0  0  0  0  0  0
  -25.4709  -18.7896   24.0786 C   0  0  0  0  0  0  0  0  0  0  0  0
  -31.2321  -14.2729   24.6228 C   0  0  0  0  0  0  0  0  0  0  0  0
  -29.8224  -15.2006   26.3365 C   0  0  0  0  0  0  0  0  0  0  0  0
  -22.4240   -8.1109   21.4082 C   0  0  0  0  0  0  0  0  0  0  0  0
  -27.8842  -18.6399   24.3307 C   0  0  0  0  0  0  0  0  0  0  0  0
  -20.8192   -6.9435   22.6669 C   0  0  0  0  0  0  0  0  0  0  0  0
  -19.0140   -6.9001   24.7933 C   0  0  0  0  0  0  0  0  0  0  0  0
  -20.9706   -6.0090   23.6913 C   0  0  0  0  0  0  0  0  0  0  0  0
  -24.6279  -11.6669   20.7796 C   0  0  0  0  0  0  0  0  0  0  0  0
  -30.4848  -16.4039   26.1544 C   0  0  0  0  0  0  0  0  0  0  0  0
  -25.2379  -13.7659   20.5404 C   0  0  0  0  0  0  0  0  0  0  0  0
  -22.8033  -13.4636   21.0195 C   0  0  0  0  0  0  0  0  0  0  0  0
  -23.3074  -20.7187   22.2825 C   0  0  0  0  0  0  0  0  0  0  0  0
  -21.6511  -18.7621   24.2702 C   0  0  0  0  0  0  0  0  0  0  0  0
  -21.7225  -16.3832   26.7161 C   0  0  0  0  0  0  0  0  0  0  0  0
  -31.1087  -12.9228   21.3614 C   0  0  0  0  0  0  0  0  0  0  0  0
  -20.5205  -23.6297   19.1493 C   0  0  0  0  0  0  0  0  0  0  0  0
  -24.3936  -18.4918   21.8168 C   0  0  0  0  0  0  0  0  0  0  0  0
  -24.1230  -18.9957   24.7181 C   0  0  0  0  0  0  0  0  0  0  0  0
  -20.3533  -23.0756   20.5618 C   0  0  0  0  0  0  0  0  0  0  0  0
  -29.4606  -13.6625   18.2933 C   0  0  0  0  0  0  0  0  0  0  0  0
  -21.6047  -23.3436   21.3920 C   0  0  0  0  0  0  0  0  0  0  0  0
  -27.9908  -13.3539   18.5840 C   0  0  0  0  0  0  0  0  0  0  0  0
  -30.3937  -12.6830   19.0018 C   0  0  0  0  0  0  0  0  0  0  0  0
  -28.7066  -12.2535   20.7463 C   0  0  0  0  0  0  0  0  0  0  0  0
  -22.8288  -22.6474   20.7852 C   0  0  1  0  0  0  0  0  0  0  0  0
  -23.1875  -19.2252   22.3955 C   0  0  1  0  0  0  0  0  0  0  0  0
  -27.7288  -13.2488   20.0984 C   0  0  2  0  0  0  0  0  0  0  0  0
  -29.0662  -14.0141   28.4279 C   0  0  0  0  0  0  0  0  0  0  0  0
  -27.3794  -14.6810   26.6772 C   0  0  0  0  0  0  0  0  0  0  0  0
  -20.8422  -14.6673   28.3217 C   0  0  0  0  0  0  0  0  0  0  0  0
  -21.1050  -21.2044   26.0157 C   0  0  0  0  0  0  0  0  0  0  0  0
  -20.4466  -19.6494   27.8642 C   0  0  0  0  0  0  0  0  0  0  0  0
  -19.1526  -19.6676   25.7316 C   0  0  0  0  0  0  0  0  0  0  0  0
  -21.9071  -14.2287   24.6955 C   0  0  0  0  0  0  0  0  0  0  0  0
  -31.6700  -13.1363   23.7695 C   0  0  0  0  0  0  0  0  0  0  0  0
  -30.1082  -17.6114   26.9780 C   0  0  0  0  0  0  0  0  0  0  0  0
  -28.8273  -18.2743   26.4831 C   0  0  0  0  0  0  0  0  0  1  0  0
  -28.7261  -15.0437   27.3329 C   0  0  0  0  0  0  0  0  0  0  0  0
  -21.4715  -18.6610   25.7657 C   0  0  1  0  0  0  0  0  0  0  0  0
  -20.9842  -15.0647   26.8607 C   0  0  2  0  0  0  0  0  0  0  0  0
  -20.5696  -19.7936   26.3322 C   0  0  0  0  0  0  0  0  0  0  0  0
  -31.4827  -16.5911   25.2617 N   0  0  0  0  0  0  0  0  0  0  0  0
  -25.9396  -11.6083   20.5344 N   0  0  0  0  0  0  0  0  0  0  0  0
  -26.2816  -12.9003   20.3933 N   0  0  0  0  0  0  0  0  0  0  0  0
  -22.9662  -18.9205   23.8105 N   0  0  0  0  0  0  0  0  0  0  0  0
  -30.0940  -12.6315   20.4348 N   0  0  0  0  0  0  0  0  0  0  0  0
  -25.4059  -15.1008   20.4301 N   0  0  0  0  0  0  0  0  0  0  0  0
  -21.7906  -12.5267   21.2666 N   0  0  0  0  0  0  0  0  0  0  0  0
  -22.8143  -21.2348   21.0993 N   0  0  0  0  0  0  0  0  0  0  0  0
  -20.9746  -17.3144   26.0270 N   0  0  0  0  0  0  0  0  0  0  0  0
  -30.7387  -12.8571   22.6991 N   0  0  0  0  0  0  0  0  0  0  0  0
  -21.7165  -13.9801   26.1477 N   0  3  0  0  0  0  0  0  0  0  0  0
  -22.5154  -14.6840   20.9852 O   0  0  0  0  0  0  0  0  0  0  0  0
  -23.8086  -21.3559   23.2014 O   0  0  0  0  0  0  0  0  0  0  0  0
  -20.6617  -18.6957   23.5364 O   0  0  0  0  0  0  0  0  0  0  0  0
  -22.8484  -16.5697   27.1723 O   0  0  0  0  0  0  0  0  0  0  0  0
  -32.2578  -13.2246   21.0216 O   0  0  0  0  0  0  0  0  0  0  0  0
  -21.7150   -6.9669   21.6111 O   0  0  0  0  0  0  0  0  0  0  0  0
  -28.9885  -18.6811   25.1248 O   0  0  0  0  0  0  0  0  0  1  0  0
  -18.1480   -6.8803   25.8150 F   0  0  0  0  0  0  0  0  0  0  0  0
  -21.9820   -5.1304   23.6601 F   0  0  0  0  0  0  0  0  0  0  0  0
  1  2  1  0  0  0  0
  1  5  2  0  0  0  0
  2  6  2  0  0  0  0
  3  8  2  0  0  0  0
  3 17  1  0  0  0  0
  4  9  1  0  0  0  0
  4 17  2  0  0  0  0
  5 19  1  0  0  0  0
  6 21  1  0  0  0  0
  7 10  2  0  0  0  0
  7 20  1  0  0  0  0
  8 25  1  0  0  0  0
  9 25  2  0  0  0  0
 10 26  1  0  0  0  0
 11 12  2  0  0  0  0
 11 27  1  0  0  0  0
 12 28  1  0  0  0  0
 13 22  1  0  0  0  0
 13 26  2  0  0  0  0
 14 23  2  0  0  0  0
 14 24  1  0  0  0  0
 15 28  2  0  0  0  0
 15 29  1  0  0  0  0
 16 23  1  0  0  0  0
 16 64  2  0  0  0  0
 17 30  1  0  0  0  0
 18 30  1  0  0  0  0
 18 32  2  0  0  0  0
 18 33  1  0  0  0  0
 19 21  2  0  0  0  0
 19 38  1  0  0  0  0
 20 22  2  0  0  0  0
 20 39  1  0  0  0  0
 21 47  1  0  0  0  0
 22 40  1  0  0  0  0
 23 57  1  0  0  0  0
 24 31  2  0  0  0  0
 24 60  1  0  0  0  0
 25 80  1  0  0  0  0
 26 81  1  0  0  0  0
 27 29  2  0  0  0  0
 27 80  1  0  0  0  0
 28 82  1  0  0  0  0
 29 83  1  0  0  0  0
 30 65  2  0  0  0  0
 31 58  1  0  0  0  0
 31 64  1  0  0  0  0
 32 66  1  0  0  0  0
 32 69  1  0  0  0  0
 33 70  1  0  0  0  0
 33 75  2  0  0  0  0
 34 48  1  0  0  0  0
 34 71  1  0  0  0  0
 34 76  2  0  0  0  0
 35 61  1  0  0  0  0
 35 67  1  0  0  0  0
 35 77  2  0  0  0  0
 36 62  1  0  0  0  0
 36 72  1  0  0  0  0
 36 78  2  0  0  0  0
 37 68  1  0  0  0  0
 37 73  1  0  0  0  0
 37 79  2  0  0  0  0
 38 41  1  0  0  0  0
 39 48  1  0  0  0  0
 40 67  1  0  0  0  0
 41 43  1  0  0  0  0
 42 44  1  0  0  0  0
 42 45  1  0  0  0  0
 43 47  1  0  0  0  0
 44 49  1  0  0  0  0
 45 68  1  0  0  0  0
 46 49  1  0  0  0  0
 46 68  1  0  0  0  0
 47 71  1  0  0  0  0
 48 67  1  0  0  0  0
 49 66  1  0  0  0  0
 50 60  1  0  0  0  0
 51 60  1  0  0  0  0
 52 62  1  0  0  0  0
 53 63  1  0  0  0  0
 54 63  1  0  0  0  0
 55 63  1  0  0  0  0
 56 74  1  0  0  0  0
 57 73  1  0  0  0  0
 58 59  1  0  0  0  0
 59 81  1  0  0  0  0
 61 63  1  0  0  0  0
 61 72  1  0  0  0  0
 62 74  1  0  0  0  0
 65 66  1  0  0  0  0
M  CHG  1  74   1
M  ISO  4  37 100  59 101  73 100  81 101
M  END
> <Batch ID>
0103

> <Smiles>
CNC(C)C(=O)NC(C(=O)N1Cc2cc([101O:1][101CH2:1]Cc3ncc(C[100NH:0][100C:0](=O)N4CCCC(n5nc(-c6ccc(Oc7ccc(F)cc7F)cc6)c(C(N)=O)c5N)C4)cc3C(C)C)ccc2CC1C(=O)NC1CCCc2ccccc21)C(C)(C)C

> <Shape>
0.137

> <Color>
0.174

> <Negative vol penalty>
0.000

$$$$

  -OEChem-04052319413D

 75 82  0     1  0  0  0  0  0999 V2000
  -23.0990  -23.2750   17.4378 C   0  0  0  0  0  0  0  0  0  0  0  0
  -24.2143  -22.6565   17.9935 C   0  0  0  0  0  0  0  0  0  0  0  0
  -25.5585  -27.7546   19.7774 C   0  0  0  0  0  0  0  0  0  0  0  0
  -27.6867  -28.2239   20.8203 C   0  0  0  0  0  0  0  0  0  0  0  0
  -21.8194  -22.8350   17.7738 C   0  0  0  0  0  0  0  0  0  0  0  0
  -24.0506  -21.5981   18.8866 C   0  0  0  0  0  0  0  0  0  0  0  0
  -27.1924  -17.7438   17.9281 C   0  0  0  0  0  0  0  0  0  0  0  0
  -25.1892  -29.0910   19.9298 C   0  0  0  0  0  0  0  0  0  0  0  0
  -27.3174  -29.5603   20.9726 C   0  0  0  0  0  0  0  0  0  0  0  0
  -28.5154  -17.8819   18.3455 C   0  0  0  0  0  0  0  0  0  0  0  0
  -26.7940  -33.0181   21.9622 C   0  0  0  0  0  0  0  0  0  0  0  0
  -27.0507  -33.6256   23.1912 C   0  0  0  0  0  0  0  0  0  0  0  0
  -28.0389  -16.5274   20.2840 C   0  0  0  0  0  0  0  0  0  0  0  0
  -25.6434  -31.9978   24.2898 C   0  0  0  0  0  0  0  0  0  0  0  0
  -26.8073  -27.3210   20.2227 C   0  0  0  0  0  0  0  0  0  0  0  0
  -27.8547  -25.3618   18.9689 C   0  0  0  0  0  0  0  0  0  0  0  0
  -21.6402  -21.7645   18.6640 C   0  0  0  0  0  0  0  0  0  0  0  0
  -26.2784  -17.0043   18.6925 C   0  0  0  0  0  0  0  0  0  0  0  0
  -22.7674  -21.1442   19.2359 C   0  0  0  0  0  0  0  0  0  0  0  0
  -26.7055  -16.3793   19.8728 C   0  0  0  0  0  0  0  0  0  0  0  0
  -26.0686  -29.9939   20.5274 C   0  0  0  0  0  0  0  0  0  0  0  0
  -28.9382  -17.2761   19.5251 C   0  0  0  0  0  0  0  0  0  0  0  0
  -25.9619  -31.9005   21.8969 C   0  0  0  0  0  0  0  0  0  0  0  0
  -26.4755  -33.1155   24.3550 C   0  0  0  0  0  0  0  0  0  0  0  0
  -25.3866  -31.3904   23.0607 C   0  0  0  0  0  0  0  0  0  0  0  0
  -27.1891  -25.9405   20.0661 C   0  0  0  0  0  0  0  0  0  0  0  0
  -27.9830  -24.0364   19.3052 C   0  0  0  0  0  0  0  0  0  0  0  0
  -28.3157  -25.9682   17.7542 C   0  0  0  0  0  0  0  0  0  0  0  0
  -23.5686  -17.6722   20.2138 C   0  0  0  0  0  0  0  0  0  0  0  0
  -23.4958  -14.4632   20.6818 C   0  0  0  0  0  0  0  0  0  0  0  0
  -25.2216  -11.5269   20.8974 C   0  0  0  0  0  0  0  0  0  0  0  0
  -29.2053  -20.0542   23.0193 C   0  0  0  0  0  0  0  0  0  0  0  0
  -20.2365  -21.3549   19.0336 C   0  0  0  0  0  0  0  0  0  0  0  0
  -24.8614  -16.8426   18.2147 C   0  0  0  0  0  0  0  0  0  0  0  0
  -25.7686  -15.5578   20.7188 C   0  0  0  0  0  0  0  0  0  0  0  0
  -20.1573  -19.9830   19.6984 C   0  0  0  0  0  0  0  0  0  0  0  0
  -25.9010  -21.3793   23.0725 C   0  0  0  0  0  0  0  0  0  0  0  0
  -21.2226  -19.8529   20.7824 C   0  0  0  0  0  0  0  0  0  0  0  0
  -25.9982  -22.6390   22.2101 C   0  0  0  0  0  0  0  0  0  0  0  0
  -27.1687  -21.1594   23.8952 C   0  0  0  0  0  0  0  0  0  0  0  0
  -28.5167  -22.4064   22.2516 C   0  0  0  0  0  0  0  0  0  0  0  0
  -22.6313  -19.9770   20.1893 C   0  0  1  0  0  0  0  0  0  0  0  0
  -23.8884  -16.4946   19.3370 C   0  0  1  0  0  0  0  0  0  0  0  0
  -27.2840  -22.6399   21.3615 C   0  0  2  0  0  0  0  0  0  0  0  0
  -24.8939   -9.0763   21.3271 C   0  0  0  0  0  0  0  0  0  0  0  0
  -32.6681  -20.2771   20.2981 C   0  0  0  0  0  0  0  0  0  0  0  0
  -23.1748  -15.0312   23.6625 C   0  0  0  0  0  0  0  0  0  0  0  0
  -23.8028  -12.6499   24.1129 C   0  0  0  0  0  0  0  0  0  0  0  0
  -21.7487  -13.1685   22.7960 C   0  0  0  0  0  0  0  0  0  0  0  0
  -26.2599  -10.8007   18.2228 C   0  0  0  0  0  0  0  0  0  0  0  0
  -31.2645  -19.0739   22.0406 C   0  0  0  0  0  0  0  0  0  0  0  0
  -30.9050  -18.6123   19.5702 C   0  0  0  0  0  0  0  0  0  1  0  0
  -24.0192  -13.5254   21.7428 C   0  0  1  0  0  0  0  0  0  0  0  0
  -24.9771  -10.1664   20.2700 C   0  0  2  0  0  0  0  0  0  0  0  0
  -31.9206  -18.9879   20.6558 C   0  0  1  0  0  0  0  0  0  0  0  0
  -23.2038  -13.6108   23.0638 C   0  0  0  0  0  0  0  0  0  0  0  0
  -26.9138  -25.0552   21.0276 N   0  0  0  0  0  0  0  0  0  0  0  0
  -27.4086  -23.9067   20.5355 N   0  0  0  0  0  0  0  0  0  0  0  0
  -24.3916  -15.4345   20.2128 N   0  0  0  0  0  0  0  0  0  0  0  0
  -28.3515  -21.1695   23.0310 N   0  0  0  0  0  0  0  0  0  0  0  0
  -28.5299  -22.9808   18.6657 N   0  0  0  0  0  0  0  0  0  0  0  0
  -28.1024  -27.3411   17.5699 N   0  0  0  0  0  0  0  0  0  0  0  0
  -23.0158  -18.7432   19.5378 N   0  0  0  0  0  0  0  0  0  0  0  0
  -24.0413  -12.1975   21.1389 N   0  0  0  0  0  0  0  0  0  0  0  0
  -30.2995  -20.1433   22.1675 N   0  0  0  0  0  0  0  0  0  0  0  0
  -26.0803   -9.8245   19.3281 N   0  3  0  0  0  0  0  0  0  0  0  0
  -28.8849  -25.3088   16.8516 O   0  0  0  0  0  0  0  0  0  0  0  0
  -23.8044  -17.6130   21.4148 O   0  0  0  0  0  0  0  0  0  0  0  0
  -22.3371  -14.3340   20.2788 O   0  0  0  0  0  0  0  0  0  0  0  0
  -26.3469  -11.9507   21.1515 O   0  0  0  0  0  0  0  0  0  0  0  0
  -29.0042  -19.0511   23.7123 O   0  0  0  0  0  0  0  0  0  0  0  0
  -25.7086  -31.2980   20.6760 O   0  0  0  0  0  0  0  0  0  0  0  0
  -30.2289  -17.4098   19.9351 O   0  0  0  0  0  0  0  0  0  1  0  0
  -26.7233  -33.6981   25.5354 F   0  0  0  0  0  0  0  0  0  0  0  0
  -24.5874  -30.3162   23.0044 F   0  0  0  0  0  0  0  0  0  0  0  0
  1  2  1  0  0  0  0
  1  5  2  0  0  0  0
  2  6  2  0  0  0  0
  3  8  2  0  0  0  0
  3 15  1  0  0  0  0
  4  9  1  0  0  0  0
  4 15  2  0  0  0  0
  5 17  1  0  0  0  0
  6 19  1  0  0  0  0
  7 10  2  0  0  0  0
  7 18  1  0  0  0  0
  8 21  1  0  0  0  0
  9 21  2  0  0  0  0
 10 22  1  0  0  0  0
 11 12  2  0  0  0  0
 11 23  1  0  0  0  0
 12 24  1  0  0  0  0
 13 20  1  0  0  0  0
 13 22  2  0  0  0  0
 14 24  2  0  0  0  0
 14 25  1  0  0  0  0
 15 26  1  0  0  0  0
 16 26  1  0  0  0  0
 16 27  2  0  0  0  0
 16 28  1  0  0  0  0
 17 19  2  0  0  0  0
 17 33  1  0  0  0  0
 18 20  2  0  0  0  0
 18 34  1  0  0  0  0
 19 42  1  0  0  0  0
 20 35  1  0  0  0  0
 21 72  1  0  0  0  0
 22 73  1  0  0  0  0
 23 25  2  0  0  0  0
 23 72  1  0  0  0  0
 24 74  1  0  0  0  0
 25 75  1  0  0  0  0
 26 57  2  0  0  0  0
 27 58  1  0  0  0  0
 27 61  1  0  0  0  0
 28 62  1  0  0  0  0
 28 67  2  0  0  0  0
 29 43  1  0  0  0  0
 29 63  1  0  0  0  0
 29 68  2  0  0  0  0
 30 53  1  0  0  0  0
 30 59  1  0  0  0  0
 30 69  2  0  0  0  0
 31 54  1  0  0  0  0
 31 64  1  0  0  0  0
 31 70  2  0  0  0  0
 32 60  1  0  0  0  0
 32 65  1  0  0  0  0
 32 71  2  0  0  0  0
 33 36  1  0  0  0  0
 34 43  1  0  0  0  0
 35 59  1  0  0  0  0
 36 38  1  0  0  0  0
 37 39  1  0  0  0  0
 37 40  1  0  0  0  0
 38 42  1  0  0  0  0
 39 44  1  0  0  0  0
 40 60  1  0  0  0  0
 41 44  1  0  0  0  0
 41 60  1  0  0  0  0
 42 63  1  0  0  0  0
 43 59  1  0  0  0  0
 44 58  1  0  0  0  0
 45 54  1  0  0  0  0
 46 55  1  0  0  0  0
 47 56  1  0  0  0  0
 48 56  1  0  0  0  0
 49 56  1  0  0  0  0
 50 66  1  0  0  0  0
 51 55  1  0  0  0  0
 51 65  1  0  0  0  0
 52 55  1  0  0  0  0
 52 73  1  0  0  0  0
 53 56  1  0  0  0  0
 53 64  1  0  0  0  0
 54 66  1  0  0  0  0
 57 58  1  0  0  0  0
M  CHG  1  66   1
M  ISO  4  32 100  52 101  65 100  73 101
M  END
> <Batch ID>
0103

> <Smiles>
CNC(C)C(=O)NC(C(=O)N1Cc2cc([101O:1][101CH2:1]C(C)C[100NH:0][100C:0](=O)N3CCCC(n4nc(-c5ccc(Oc6ccc(F)cc6F)cc5)c(C(N)=O)c4N)C3)ccc2CC1C(=O)NC1CCCc2ccccc21)C(C)(C)C

> <Shape>
0.192

> <Color>
0.075

> <Negative vol penalty>
0.000

$$$$

  -OEChem-04052319413D

 89 97  0     1  0  0  0  0  0999 V2000
  -31.7437  -22.6899   19.4296 C   0  0  0  0  0  0  0  0  0  0  0  0
  -30.3700  -22.9086   19.4524 C   0  0  0  0  0  0  0  0  0  0  0  0
  -23.8720   -9.8940   22.0989 C   0  0  0  0  0  0  0  0  0  0  0  0
  -22.2491  -10.3804   20.3765 C   0  0  0  0  0  0  0  0  0  0  0  0
  -32.5389  -23.1480   20.4792 C   0  0  0  0  0  0  0  0  0  0  0  0
  -29.7905  -23.5847   20.5254 C   0  0  0  0  0  0  0  0  0  0  0  0
  -26.4207  -27.0607   19.0401 C   0  0  0  0  0  0  0  0  0  0  0  0
  -23.5000   -8.5500   22.0699 C   0  0  0  0  0  0  0  0  0  0  0  0
  -21.8771   -9.0364   20.3475 C   0  0  0  0  0  0  0  0  0  0  0  0
  -25.1606  -26.6031   18.6572 C   0  0  0  0  0  0  0  0  0  0  0  0
  -20.9869   -6.6350   23.2706 C   0  0  0  0  0  0  0  0  0  0  0  0
  -20.7964   -5.9895   24.4923 C   0  0  0  0  0  0  0  0  0  0  0  0
  -24.2870  -27.2173   20.8203 C   0  0  0  0  0  0  0  0  0  0  0  0
  -23.7470  -22.1212   19.7854 C   0  0  0  0  0  0  0  0  0  0  0  0
  -22.3491  -20.2701   19.1099 C   0  0  0  0  0  0  0  0  0  0  0  0
  -22.5341   -4.4087   23.9281 C   0  0  0  0  0  0  0  0  0  0  0  0
  -23.2465  -10.8092   21.2523 C   0  0  0  0  0  0  0  0  0  0  0  0
  -24.6319  -12.8198   20.5135 C   0  0  0  0  0  0  0  0  0  0  0  0
  -31.9702  -23.8385   21.5610 C   0  0  0  0  0  0  0  0  0  0  0  0
  -26.6262  -27.5909   20.3219 C   0  0  0  0  0  0  0  0  0  0  0  0
  -30.5787  -24.0513   21.5912 C   0  0  0  0  0  0  0  0  0  0  0  0
  -25.5501  -27.6833   21.2161 C   0  0  0  0  0  0  0  0  0  0  0  0
  -22.9374  -21.5040   18.8319 C   0  0  0  0  0  0  0  0  0  0  0  0
  -23.9684  -21.5045   21.0169 C   0  0  0  0  0  0  0  0  0  0  0  0
  -22.5705  -19.6534   20.3413 C   0  0  0  0  0  0  0  0  0  0  0  0
  -23.3802  -20.2707   21.2948 C   0  0  0  0  0  0  0  0  0  0  0  0
  -22.5026   -8.1211   21.1941 C   0  0  0  0  0  0  0  0  0  0  0  0
  -24.0942  -26.6787   19.5484 C   0  0  0  0  0  0  0  0  0  0  0  0
  -21.9510   -6.1673   22.3776 C   0  0  0  0  0  0  0  0  0  0  0  0
  -21.5700   -4.8764   24.8211 C   0  0  0  0  0  0  0  0  0  0  0  0
  -22.7246   -5.0541   22.7063 C   0  0  0  0  0  0  0  0  0  0  0  0
  -23.6299  -12.1978   21.2822 C   0  0  0  0  0  0  0  0  0  0  0  0
  -24.6031  -14.1343   20.9107 C   0  0  0  0  0  0  0  0  0  0  0  0
  -25.5101  -12.2595   19.5284 C   0  0  0  0  0  0  0  0  0  0  0  0
  -28.4260  -26.7927   22.8174 C   0  0  0  0  0  0  0  0  0  0  0  0
  -27.3167  -29.5942   24.0189 C   0  0  0  0  0  0  0  0  0  0  0  0
  -24.8876  -31.9913   24.0089 C   0  0  0  0  0  0  0  0  0  0  0  0
  -20.3883  -17.9448   22.5838 C   0  0  0  0  0  0  0  0  0  0  0  0
  -32.8639  -24.2733   22.6954 C   0  0  0  0  0  0  0  0  0  0  0  0
  -27.9855  -28.1048   20.7101 C   0  0  0  0  0  0  0  0  0  0  0  0
  -25.7137  -28.2627   22.5966 C   0  0  0  0  0  0  0  0  0  0  0  0
  -32.2217  -25.3096   23.6140 C   0  0  0  0  0  0  0  0  0  0  0  0
  -22.9412  -16.5568   24.8768 C   0  0  0  0  0  0  0  0  0  0  0  0
  -30.7995  -24.8937   23.9760 C   0  0  0  0  0  0  0  0  0  0  0  0
  -23.4135  -15.3087   24.1332 C   0  0  0  0  0  0  0  0  0  0  0  0
  -21.4981  -16.9111   24.5310 C   0  0  0  0  0  0  0  0  0  0  0  0
  -21.7196  -15.8106   22.3278 C   0  0  0  0  0  0  0  0  0  0  0  0
  -29.9163  -24.8024   22.7258 C   0  0  1  0  0  0  0  0  0  0  0  0
  -28.1973  -28.1524   22.2202 C   0  0  1  0  0  0  0  0  0  0  0  0
  -23.1850  -15.4532   22.6185 C   0  0  2  0  0  0  0  0  0  0  0  0
  -23.6174  -19.6100   22.6154 C   0  0  0  0  0  0  0  0  0  0  0  0
  -24.2642  -23.5433   22.4693 C   0  0  0  0  0  0  0  0  0  0  0  0
  -26.2824  -22.3692   21.5188 C   0  0  0  0  0  0  0  0  0  0  0  0
  -21.7366  -17.4917   19.3449 C   0  0  0  0  0  0  0  0  0  0  0  0
  -24.2372  -34.1414   25.1275 C   0  0  0  0  0  0  0  0  0  0  0  0
  -20.3018  -25.1788   18.2425 C   0  0  0  0  0  0  0  0  0  0  0  0
  -26.4203  -28.0372   26.4851 C   0  0  0  0  0  0  0  0  0  0  0  0
  -24.9765  -29.9864   27.1050 C   0  0  0  0  0  0  0  0  0  0  0  0
  -27.4523  -30.2621   26.9742 C   0  0  0  0  0  0  0  0  0  0  0  0
  -19.7464  -19.4730   20.7584 C   0  0  0  0  0  0  0  0  0  0  0  0
  -24.9953  -33.4864   21.4570 C   0  0  0  0  0  0  0  0  0  0  0  0
  -22.6985  -22.1704   17.5002 C   0  0  0  0  0  0  0  0  0  0  0  0
  -21.4774  -23.1002   17.4779 C   0  0  0  0  0  0  0  0  0  0  0  0
  -22.8176  -25.1628   18.2336 C   0  0  0  0  0  0  0  0  0  1  0  0
  -24.8386  -22.1871   22.0212 C   0  0  0  0  0  0  0  0  0  0  0  0
  -21.9289  -18.3322   20.6143 C   0  0  2  0  0  0  0  0  0  0  0  0
  -26.1193  -30.0052   24.8413 C   0  0  1  0  0  0  0  0  0  0  0  0
  -24.9676  -33.5062   23.9545 C   0  0  2  0  0  0  0  0  0  0  0  0
  -21.5545  -24.3137   18.4307 C   0  0  1  0  0  0  0  0  0  0  0  0
  -26.2391  -29.5600   26.3261 C   0  0  0  0  0  0  0  0  0  0  0  0
  -23.0099  -13.0473   22.1057 N   0  0  0  0  0  0  0  0  0  0  0  0
  -23.6240  -14.2165   21.8567 N   0  0  0  0  0  0  0  0  0  0  0  0
  -27.0634  -28.7460   22.9316 N   0  0  0  0  0  0  0  0  0  0  0  0
  -21.2989  -16.9996   23.0840 N   0  0  0  0  0  0  0  0  0  0  0  0
  -25.3200  -15.2163   20.5397 N   0  0  0  0  0  0  0  0  0  0  0  0
  -25.4060  -10.8917   19.2412 N   0  0  0  0  0  0  0  0  0  0  0  0
  -29.5153  -26.1237   22.2926 N   0  0  0  0  0  0  0  0  0  0  0  0
  -25.9740  -31.4454   24.6592 N   0  0  0  0  0  0  0  0  0  0  0  0
  -20.6552  -18.4809   21.3150 N   0  0  0  0  0  0  0  0  0  0  0  0
  -24.3586  -34.0122   22.6920 N   0  3  0  0  0  0  0  0  0  0  0  0
  -26.3730  -12.9480   18.9326 O   0  0  0  0  0  0  0  0  0  0  0  0
  -27.6710  -26.3816   23.6907 O   0  0  0  0  0  0  0  0  0  0  0  0
  -28.4346  -30.0161   24.3255 O   0  0  0  0  0  0  0  0  0  0  0  0
  -23.9528  -31.3559   23.5262 O   0  0  0  0  0  0  0  0  0  0  0  0
  -19.3986  -18.2969   23.2384 O   0  0  0  0  0  0  0  0  0  0  0  0
  -22.1395   -6.8097   21.1653 O   0  0  0  0  0  0  0  0  0  0  0  0
  -22.8634  -26.2321   19.1775 O   0  0  0  0  0  0  0  0  0  1  0  0
  -21.3880   -4.2575   25.9950 F   0  0  0  0  0  0  0  0  0  0  0  0
  -23.6532   -4.6009   21.8530 F   0  0  0  0  0  0  0  0  0  0  0  0
  1  2  1  0  0  0  0
  1  5  2  0  0  0  0
  2  6  2  0  0  0  0
  3  8  2  0  0  0  0
  3 17  1  0  0  0  0
  4  9  1  0  0  0  0
  4 17  2  0  0  0  0
  5 19  1  0  0  0  0
  6 21  1  0  0  0  0
  7 10  2  0  0  0  0
  7 20  1  0  0  0  0
  8 27  1  0  0  0  0
  9 27  2  0  0  0  0
 10 28  1  0  0  0  0
 11 12  2  0  0  0  0
 11 29  1  0  0  0  0
 12 30  1  0  0  0  0
 13 22  1  0  0  0  0
 13 28  2  0  0  0  0
 14 23  1  0  0  0  0
 14 24  2  0  0  0  0
 15 23  2  0  0  0  0
 15 25  1  0  0  0  0
 16 30  2  0  0  0  0
 16 31  1  0  0  0  0
 17 32  1  0  0  0  0
 18 32  1  0  0  0  0
 18 33  2  0  0  0  0
 18 34  1  0  0  0  0
 19 21  2  0  0  0  0
 19 39  1  0  0  0  0
 20 22  2  0  0  0  0
 20 40  1  0  0  0  0
 21 48  1  0  0  0  0
 22 41  1  0  0  0  0
 23 62  1  0  0  0  0
 24 26  1  0  0  0  0
 24 65  1  0  0  0  0
 25 26  2  0  0  0  0
 25 66  1  0  0  0  0
 26 51  1  0  0  0  0
 27 86  1  0  0  0  0
 28 87  1  0  0  0  0
 29 31  2  0  0  0  0
 29 86  1  0  0  0  0
 30 88  1  0  0  0  0
 31 89  1  0  0  0  0
 32 71  2  0  0  0  0
 33 72  1  0  0  0  0
 33 75  1  0  0  0  0
 34 76  1  0  0  0  0
 34 81  2  0  0  0  0
 35 49  1  0  0  0  0
 35 77  1  0  0  0  0
 35 82  2  0  0  0  0
 36 67  1  0  0  0  0
 36 73  1  0  0  0  0
 36 83  2  0  0  0  0
 37 68  1  0  0  0  0
 37 78  1  0  0  0  0
 37 84  2  0  0  0  0
 38 74  1  0  0  0  0
 38 79  1  0  0  0  0
 38 85  2  0  0  0  0
 39 42  1  0  0  0  0
 40 49  1  0  0  0  0
 41 73  1  0  0  0  0
 42 44  1  0  0  0  0
 43 45  1  0  0  0  0
 43 46  1  0  0  0  0
 44 48  1  0  0  0  0
 45 50  1  0  0  0  0
 46 74  1  0  0  0  0
 47 50  1  0  0  0  0
 47 74  1  0  0  0  0
 48 77  1  0  0  0  0
 49 73  1  0  0  0  0
 50 72  1  0  0  0  0
 52 65  1  0  0  0  0
 53 65  1  0  0  0  0
 54 66  1  0  0  0  0
 55 68  1  0  0  0  0
 56 69  1  0  0  0  0
 57 70  1  0  0  0  0
 58 70  1  0  0  0  0
 59 70  1  0  0  0  0
 60 79  1  0  0  0  0
 61 80  1  0  0  0  0
 62 63  1  0  0  0  0
 63 69  1  0  0  0  0
 64 69  1  0  0  0  0
 64 87  1  0  0  0  0
 66 79  1  0  0  0  0
 67 70  1  0  0  0  0
 67 78  1  0  0  0  0
 68 80  1  0  0  0  0
 71 72  1  0  0  0  0
M  CHG  1  80   1
M  ISO  4  38 100  64 101  79 100  87 101
M  END
> <Batch ID>
0103

> <Smiles>
CNC(C)C(=O)NC(C(=O)N1Cc2cc([101O:1][101CH2:1]C(C)CCc3cc(C(C)C)c(C)c(C(C)[100N:0](C)[100C:0](=O)N4CCCC(n5nc(-c6ccc(Oc7ccc(F)cc7F)cc6)c(C(N)=O)c5N)C4)c3)ccc2CC1C(=O)NC1CCCc2ccccc21)C(C)(C)C

> <Shape>
0.216

> <Color>
0.104

> <Negative vol penalty>
0.000

$$$$

  -OEChem-04052319413D

 81 88  0     1  0  0  0  0  0999 V2000
  -28.0687  -29.3049   25.5251 C   0  0  0  0  0  0  0  0  0  0  0  0
  -27.8274  -27.9474   25.7111 C   0  0  0  0  0  0  0  0  0  0  0  0
  -21.6929  -24.1657   19.8743 C   0  0  0  0  0  0  0  0  0  0  0  0
  -22.7945  -23.1088   21.7469 C   0  0  0  0  0  0  0  0  0  0  0  0
  -28.0147  -29.8522   24.2440 C   0  0  0  0  0  0  0  0  0  0  0  0
  -27.5310  -27.1367   24.6160 C   0  0  0  0  0  0  0  0  0  0  0  0
  -28.4312  -20.4476   22.2157 C   0  0  0  0  0  0  0  0  0  0  0  0
  -21.5132  -25.3224   20.6328 C   0  0  0  0  0  0  0  0  0  0  0  0
  -22.6149  -24.2656   22.5054 C   0  0  0  0  0  0  0  0  0  0  0  0
  -27.6964  -19.3786   21.7047 C   0  0  0  0  0  0  0  0  0  0  0  0
  -19.4225  -26.4129   23.0544 C   0  0  0  0  0  0  0  0  0  0  0  0
  -18.1711  -27.0275   23.0112 C   0  0  0  0  0  0  0  0  0  0  0  0
  -27.7084  -20.4185   19.5281 C   0  0  0  0  0  0  0  0  0  0  0  0
  -19.1902  -29.0420   22.1509 C   0  0  0  0  0  0  0  0  0  0  0  0
  -22.3334  -23.0589   20.4314 C   0  0  0  0  0  0  0  0  0  0  0  0
  -23.2280  -21.7411   18.4387 C   0  0  0  0  0  0  0  0  0  0  0  0
  -27.7269  -29.0459   23.1314 C   0  0  0  0  0  0  0  0  0  0  0  0
  -28.8014  -21.5171   21.3878 C   0  0  0  0  0  0  0  0  0  0  0  0
  -27.4717  -27.6740   23.3189 C   0  0  0  0  0  0  0  0  0  0  0  0
  -28.4501  -21.4987   20.0304 C   0  0  0  0  0  0  0  0  0  0  0  0
  -21.9742  -25.3724   21.9483 C   0  0  0  0  0  0  0  0  0  0  0  0
  -27.3324  -19.3653   20.3614 C   0  0  0  0  0  0  0  0  0  0  0  0
  -20.5578  -27.1129   22.6459 C   0  0  0  0  0  0  0  0  0  0  0  0
  -18.0550  -28.3421   22.5594 C   0  0  0  0  0  0  0  0  0  0  0  0
  -20.4417  -28.4274   22.1942 C   0  0  0  0  0  0  0  0  0  0  0  0
  -22.5188  -21.8635   19.6485 C   0  0  0  0  0  0  0  0  0  0  0  0
  -23.1081  -20.4147   18.1031 C   0  0  0  0  0  0  0  0  0  0  0  0
  -23.9323  -22.7374   17.6855 C   0  0  0  0  0  0  0  0  0  0  0  0
  -28.1864  -24.6354   21.3418 C   0  0  0  0  0  0  0  0  0  0  0  0
  -30.3459  -24.6298   18.9213 C   0  0  0  0  0  0  0  0  0  0  0  0
  -31.9271  -22.8817   16.4533 C   0  0  0  0  0  0  0  0  0  0  0  0
  -22.9124  -15.1806   20.5690 C   0  0  0  0  0  0  0  0  0  0  0  0
  -27.6330  -29.6917   21.7717 C   0  0  0  0  0  0  0  0  0  0  0  0
  -29.6170  -22.6499   21.9482 C   0  0  0  0  0  0  0  0  0  0  0  0
  -28.8403  -22.6128   19.0951 C   0  0  0  0  0  0  0  0  0  0  0  0
  -27.6811  -28.6928   20.6184 C   0  0  0  0  0  0  0  0  0  0  0  0
  -19.9860  -16.7805   19.3227 C   0  0  0  0  0  0  0  0  0  0  0  0
  -26.7474  -27.5177   20.8906 C   0  0  0  0  0  0  0  0  0  0  0  0
  -20.4067  -18.2429   19.1672 C   0  0  0  0  0  0  0  0  0  0  0  0
  -20.6271  -16.1362   20.5499 C   0  0  0  0  0  0  0  0  0  0  0  0
  -22.5166  -17.7159   20.4594 C   0  0  0  0  0  0  0  0  0  0  0  0
  -27.1713  -26.7573   22.1530 C   0  0  1  0  0  0  0  0  0  0  0  0
  -29.4980  -23.9330   21.1315 C   0  0  1  0  0  0  0  0  0  0  0  0
  -21.9396  -18.3924   19.2041 C   0  0  2  0  0  0  0  0  0  0  0  0
  -33.5585  -22.4254   14.6020 C   0  0  0  0  0  0  0  0  0  0  0  0
  -26.7426  -16.1882   16.7660 C   0  0  0  0  0  0  0  0  0  0  0  0
  -28.8883  -15.7648   18.9476 C   0  0  0  0  0  0  0  0  0  0  0  0
  -28.2499  -26.0462   17.2152 C   0  0  0  0  0  0  0  0  0  0  0  0
  -29.5934  -25.4452   15.1898 C   0  0  0  0  0  0  0  0  0  0  0  0
  -30.5780  -26.9189   16.9453 C   0  0  0  0  0  0  0  0  0  0  0  0
  -26.3101  -15.2387   22.6708 C   0  0  0  0  0  0  0  0  0  0  0  0
  -27.6273  -13.6820   21.2156 C   0  0  0  0  0  0  0  0  0  0  0  0
  -34.0043  -21.9669   18.3526 C   0  0  0  0  0  0  0  0  0  0  0  0
  -25.2597  -14.3746   20.5663 C   0  0  0  0  0  0  0  0  0  0  0  0
  -26.8150  -17.9984   18.4853 C   0  0  0  0  0  0  0  0  0  1  0  0
  -30.2726  -24.4552   17.4236 C   0  0  1  0  0  0  0  0  0  0  0  0
  -33.3928  -22.7801   16.0715 C   0  0  2  0  0  0  0  0  0  0  0  0
  -26.5336  -16.5054   18.2503 C   0  0  2  0  0  0  0  0  0  0  0  0
  -27.3887  -15.6145   19.1820 C   0  0  2  0  0  0  0  0  0  0  0  0
  -29.6643  -25.6961   16.7113 C   0  0  0  0  0  0  0  0  0  0  0  0
  -26.5782  -14.7961   21.2305 C   0  0  0  0  0  0  0  0  0  0  0  0
  -21.9876  -20.7071   20.0541 N   0  0  0  0  0  0  0  0  0  0  0  0
  -22.3631  -19.8454   19.0936 N   0  0  0  0  0  0  0  0  0  0  0  0
  -29.6321  -23.7011   19.6919 N   0  0  0  0  0  0  0  0  0  0  0  0
  -22.0811  -16.3119   20.5232 N   0  0  0  0  0  0  0  0  0  0  0  0
  -23.5683  -19.6914   17.0602 N   0  0  0  0  0  0  0  0  0  0  0  0
  -25.2895  -22.9495   17.9633 N   0  0  0  0  0  0  0  0  0  0  0  0
  -28.3072  -25.9055   21.8724 N   0  0  0  0  0  0  0  0  0  0  0  0
  -31.6224  -24.1167   16.9855 N   0  0  0  0  0  0  0  0  0  0  0  0
  -24.2779  -15.4356   20.5330 N   0  0  0  0  0  0  0  0  0  0  0  0
  -34.0691  -21.7321   16.8871 N   0  3  0  0  0  0  0  0  0  0  0  0
  -23.3704  -23.4307   16.8040 O   0  0  0  0  0  0  0  0  0  0  0  0
  -27.1423  -24.0676   21.0434 O   0  0  0  0  0  0  0  0  0  0  0  0
  -31.0177  -25.5519   19.3904 O   0  0  0  0  0  0  0  0  0  0  0  0
  -31.1312  -21.9592   16.2919 O   0  0  0  0  0  0  0  0  0  0  0  0
  -22.4704  -14.0284   20.6316 O   0  0  0  0  0  0  0  0  0  0  0  0
  -21.7994  -26.5010   22.6887 O   0  0  0  0  0  0  0  0  0  0  0  0
  -26.6146  -18.3234   19.8603 O   0  0  0  0  0  0  0  0  0  1  0  0
  -27.1024  -15.9228   20.5443 O   0  0  0  0  0  0  0  0  0  0  0  0
  -16.8530  -28.9316   22.5165 F   0  0  0  0  0  0  0  0  0  0  0  0
  -21.5286  -29.1046   21.7993 F   0  0  0  0  0  0  0  0  0  0  0  0
  1  2  1  0  0  0  0
  1  5  2  0  0  0  0
  2  6  2  0  0  0  0
  3  8  2  0  0  0  0
  3 15  1  0  0  0  0
  4  9  1  0  0  0  0
  4 15  2  0  0  0  0
  5 17  1  0  0  0  0
  6 19  1  0  0  0  0
  7 10  2  0  0  0  0
  7 18  1  0  0  0  0
  8 21  1  0  0  0  0
  9 21  2  0  0  0  0
 10 22  1  0  0  0  0
 11 12  2  0  0  0  0
 11 23  1  0  0  0  0
 12 24  1  0  0  0  0
 13 20  1  0  0  0  0
 13 22  2  0  0  0  0
 14 24  2  0  0  0  0
 14 25  1  0  0  0  0
 15 26  1  0  0  0  0
 16 26  1  0  0  0  0
 16 27  2  0  0  0  0
 16 28  1  0  0  0  0
 17 19  2  0  0  0  0
 17 33  1  0  0  0  0
 18 20  2  0  0  0  0
 18 34  1  0  0  0  0
 19 42  1  0  0  0  0
 20 35  1  0  0  0  0
 21 77  1  0  0  0  0
 22 78  1  0  0  0  0
 23 25  2  0  0  0  0
 23 77  1  0  0  0  0
 24 80  1  0  0  0  0
 25 81  1  0  0  0  0
 26 62  2  0  0  0  0
 27 63  1  0  0  0  0
 27 66  1  0  0  0  0
 28 67  1  0  0  0  0
 28 72  2  0  0  0  0
 29 43  1  0  0  0  0
 29 68  1  0  0  0  0
 29 73  2  0  0  0  0
 30 56  1  0  0  0  0
 30 64  1  0  0  0  0
 30 74  2  0  0  0  0
 31 57  1  0  0  0  0
 31 69  1  0  0  0  0
 31 75  2  0  0  0  0
 32 65  1  0  0  0  0
 32 70  1  0  0  0  0
 32 76  2  0  0  0  0
 33 36  1  0  0  0  0
 34 43  1  0  0  0  0
 35 64  1  0  0  0  0
 36 38  1  0  0  0  0
 37 39  1  0  0  0  0
 37 40  1  0  0  0  0
 38 42  1  0  0  0  0
 39 44  1  0  0  0  0
 40 65  1  0  0  0  0
 41 44  1  0  0  0  0
 41 65  1  0  0  0  0
 42 68  1  0  0  0  0
 43 64  1  0  0  0  0
 44 63  1  0  0  0  0
 45 57  1  0  0  0  0
 46 58  1  0  0  0  0
 47 59  1  0  0  0  0
 48 60  1  0  0  0  0
 49 60  1  0  0  0  0
 50 60  1  0  0  0  0
 51 61  1  0  0  0  0
 52 61  1  0  0  0  0
 53 71  1  0  0  0  0
 54 61  1  0  0  0  0
 54 70  1  0  0  0  0
 55 58  1  0  0  0  0
 55 78  1  0  0  0  0
 56 60  1  0  0  0  0
 56 69  1  0  0  0  0
 57 71  1  0  0  0  0
 58 59  1  0  0  0  0
 59 79  1  0  0  0  0
 61 79  1  0  0  0  0
 62 63  1  0  0  0  0
M  CHG  1  71   1
M  ISO  4  32 100  55 101  70 100  78 101
M  END
> <Batch ID>
0103

> <Smiles>
CNC(C)C(=O)NC(C(=O)N1Cc2cc([101O:1][101CH2:1]C(C)C(C)OC(C)(C)C[100NH:0][100C:0](=O)N3CCCC(n4nc(-c5ccc(Oc6ccc(F)cc6F)cc5)c(C(N)=O)c4N)C3)ccc2CC1C(=O)NC1CCCc2ccccc21)C(C)(C)C

> <Shape>
0.189

> <Color>
0.055

> <Negative vol penalty>
0.000

$$$$

  -OEChem-04052319413D

 87 95  0     1  0  0  0  0  0999 V2000
  -23.8079  -23.7583   28.7204 C   0  0  0  0  0  0  0  0  0  0  0  0
  -25.1072  -23.4072   28.3683 C   0  0  0  0  0  0  0  0  0  0  0  0
  -23.0742   -9.8684   19.9408 C   0  0  0  0  0  0  0  0  0  0  0  0
  -23.8387   -9.8733   22.2327 C   0  0  0  0  0  0  0  0  0  0  0  0
  -22.8657  -24.0242   27.7277 C   0  0  0  0  0  0  0  0  0  0  0  0
  -25.4647  -23.3207   27.0233 C   0  0  0  0  0  0  0  0  0  0  0  0
  -31.0410  -24.3691   22.6503 C   0  0  0  0  0  0  0  0  0  0  0  0
  -22.3320   -8.7142   20.1908 C   0  0  0  0  0  0  0  0  0  0  0  0
  -23.0964   -8.7191   22.4827 C   0  0  0  0  0  0  0  0  0  0  0  0
  -31.7764  -23.7105   21.6658 C   0  0  0  0  0  0  0  0  0  0  0  0
  -19.8703   -7.9174   23.0907 C   0  0  0  0  0  0  0  0  0  0  0  0
  -19.1157   -7.8752   24.2631 C   0  0  0  0  0  0  0  0  0  0  0  0
  -30.0861  -24.2692   20.0380 C   0  0  0  0  0  0  0  0  0  0  0  0
  -20.3605   -5.9381   24.9946 C   0  0  0  0  0  0  0  0  0  0  0  0
  -31.5434  -18.4565   20.0293 C   0  0  0  0  0  0  0  0  0  0  0  0
  -23.8276  -10.4480   20.9618 C   0  0  0  0  0  0  0  0  0  0  0  0
  -24.1667  -12.9736   20.8442 C   0  0  0  0  0  0  0  0  0  0  0  0
  -23.2144  -23.9504   26.3699 C   0  0  0  0  0  0  0  0  0  0  0  0
  -29.8152  -24.9743   22.3378 C   0  0  0  0  0  0  0  0  0  0  0  0
  -24.5259  -23.5846   26.0115 C   0  0  0  0  0  0  0  0  0  0  0  0
  -29.3383  -24.9371   21.0197 C   0  0  0  0  0  0  0  0  0  0  0  0
  -30.6096  -17.9971   20.9317 C   0  0  0  0  0  0  0  0  0  0  0  0
  -29.4366  -18.7725   20.7584 C   0  0  0  0  0  0  0  0  0  0  0  0
  -22.3431   -8.1396   21.4618 C   0  0  0  0  0  0  0  0  0  0  0  0
  -31.2976  -23.6580   20.3601 C   0  0  0  0  0  0  0  0  0  0  0  0
  -20.8699   -6.9698   22.8703 C   0  0  0  0  0  0  0  0  0  0  0  0
  -19.3608   -6.8856   25.2151 C   0  0  0  0  0  0  0  0  0  0  0  0
  -21.1150   -5.9802   23.8222 C   0  0  0  0  0  0  0  0  0  0  0  0
  -24.5950  -11.6399   20.7040 C   0  0  0  0  0  0  0  0  0  0  0  0
  -29.6892  -19.6820   19.7552 C   0  0  0  0  0  0  0  0  0  0  0  0
  -25.2574  -13.7246   20.4797 C   0  0  0  0  0  0  0  0  0  0  0  0
  -22.8966  -13.4876   21.2663 C   0  0  0  0  0  0  0  0  0  0  0  0
  -26.8054  -24.5578   23.2711 C   0  0  0  0  0  0  0  0  0  0  0  0
  -26.2895  -27.2030   21.4658 C   0  0  0  0  0  0  0  0  0  0  0  0
  -27.3123  -29.2005   18.8947 C   0  0  0  0  0  0  0  0  0  0  0  0
  -30.7405  -14.7489   20.6583 C   0  0  0  0  0  0  0  0  0  0  0  0
  -22.1490  -24.2005   25.3321 C   0  0  0  0  0  0  0  0  0  0  0  0
  -29.0469  -25.7038   23.4055 C   0  0  0  0  0  0  0  0  0  0  0  0
  -28.0380  -25.5884   20.6282 C   0  0  0  0  0  0  0  0  0  0  0  0
  -22.7077  -24.4521   23.9340 C   0  0  0  0  0  0  0  0  0  0  0  0
  -29.6005  -12.3662   18.2709 C   0  0  0  0  0  0  0  0  0  0  0  0
  -23.7756  -23.4179   23.5918 C   0  0  0  0  0  0  0  0  0  0  0  0
  -28.1642  -12.0705   18.7063 C   0  0  0  0  0  0  0  0  0  0  0  0
  -30.5198  -12.5864   19.4702 C   0  0  0  0  0  0  0  0  0  0  0  0
  -28.6201  -13.3139   20.8615 C   0  0  0  0  0  0  0  0  0  0  0  0
  -24.9586  -23.5043   24.5636 C   0  0  1  0  0  0  0  0  0  0  0  0
  -27.5621  -25.8424   23.0841 C   0  0  1  0  0  0  0  0  0  0  0  0
  -27.6438  -13.1398   19.6856 C   0  0  2  0  0  0  0  0  0  0  0  0
  -28.8195  -20.7259   19.1729 C   0  0  0  0  0  0  0  0  0  0  0  0
  -26.6654  -31.2690   17.6297 C   0  0  0  0  0  0  0  0  0  0  0  0
  -27.1650  -19.7874   25.1242 C   0  0  0  0  0  0  0  0  0  0  0  0
  -25.7814  -19.8292   23.0400 C   0  0  0  0  0  0  0  0  0  0  0  0
  -33.6616  -21.5736   17.4647 C   0  0  0  0  0  0  0  0  0  0  0  0
  -24.1304  -25.6259   19.9959 C   0  0  0  0  0  0  0  0  0  0  0  0
  -24.1963  -27.3556   18.1871 C   0  0  0  0  0  0  0  0  0  0  0  0
  -23.5263  -27.9993   20.5022 C   0  0  0  0  0  0  0  0  0  0  0  0
  -29.8068  -30.5933   19.6670 C   0  0  0  0  0  0  0  0  0  0  0  0
  -28.1740  -18.6334   21.5131 C   0  0  0  0  0  0  0  0  0  0  0  0
  -30.8067  -16.8980   21.8977 C   0  0  0  0  0  0  0  0  0  0  0  0
  -28.2620  -19.2435   22.9302 C   0  0  0  0  0  0  0  0  0  0  0  0
  -31.6687  -20.2564   18.2278 C   0  0  0  0  0  0  0  0  0  0  0  0
  -32.8209  -21.9153   19.8140 C   0  0  0  0  0  0  0  0  0  1  0  0
  -25.9482  -27.4592   20.0178 C   0  0  1  0  0  0  0  0  0  0  0  0
  -27.4706  -30.7067   18.7909 C   0  0  2  0  0  0  0  0  0  0  0  0
  -26.9586  -19.1548   23.7457 C   0  0  0  0  0  0  0  0  0  0  0  0
  -32.9985  -20.9021   18.6730 C   0  0  2  0  0  0  0  0  0  0  0  0
  -24.4739  -27.0959   19.6832 C   0  0  0  0  0  0  0  0  0  0  0  0
  -25.8591  -11.5459   20.2830 N   0  0  0  0  0  0  0  0  0  0  0  0
  -30.9728  -19.4805   19.3193 N   0  0  0  0  0  0  0  0  0  0  0  0
  -26.2345  -12.8300   20.1555 N   0  0  0  0  0  0  0  0  0  0  0  0
  -27.3202  -26.2841   21.7091 N   0  0  0  0  0  0  0  0  0  0  0  0
  -29.9700  -13.6133   20.3585 N   0  0  0  0  0  0  0  0  0  0  0  0
  -25.4663  -15.0564   20.4079 N   0  0  0  0  0  0  0  0  0  0  0  0
  -21.8862  -12.5770   21.6045 N   0  0  0  0  0  0  0  0  0  0  0  0
  -25.8090  -24.6257   24.2262 N   0  0  0  0  0  0  0  0  0  0  0  0
  -26.2943  -28.8522   19.7571 N   0  0  0  0  0  0  0  0  0  0  0  0
  -30.1421  -15.6760   21.5027 N   0  0  0  0  0  0  0  0  0  0  0  0
  -28.9028  -31.0642   18.5863 N   0  3  0  0  0  0  0  0  0  0  0  0
  -22.6592  -14.7179   21.3256 O   0  0  0  0  0  0  0  0  0  0  0  0
  -27.1025  -23.5780   22.5977 O   0  0  0  0  0  0  0  0  0  0  0  0
  -25.6695  -27.8016   22.3483 O   0  0  0  0  0  0  0  0  0  0  0  0
  -28.0184  -28.4119   18.2702 O   0  0  0  0  0  0  0  0  0  0  0  0
  -31.8754  -14.9260   20.2026 O   0  0  0  0  0  0  0  0  0  0  0  0
  -21.6187   -7.0135   21.7062 O   0  0  0  0  0  0  0  0  0  0  0  0
  -32.0131  -23.0153   19.3973 O   0  0  0  0  0  0  0  0  0  1  0  0
  -18.6372   -6.8462   26.3415 F   0  0  0  0  0  0  0  0  0  0  0  0
  -22.0749   -5.0679   23.6166 F   0  0  0  0  0  0  0  0  0  0  0  0
  1  2  1  0  0  0  0
  1  5  2  0  0  0  0
  2  6  2  0  0  0  0
  3  8  2  0  0  0  0
  3 16  1  0  0  0  0
  4  9  1  0  0  0  0
  4 16  2  0  0  0  0
  5 18  1  0  0  0  0
  6 20  1  0  0  0  0
  7 10  2  0  0  0  0
  7 19  1  0  0  0  0
  8 24  1  0  0  0  0
  9 24  2  0  0  0  0
 10 25  1  0  0  0  0
 11 12  2  0  0  0  0
 11 26  1  0  0  0  0
 12 27  1  0  0  0  0
 13 21  1  0  0  0  0
 13 25  2  0  0  0  0
 14 27  2  0  0  0  0
 14 28  1  0  0  0  0
 15 22  2  0  0  0  0
 15 69  1  0  0  0  0
 16 29  1  0  0  0  0
 17 29  1  0  0  0  0
 17 31  2  0  0  0  0
 17 32  1  0  0  0  0
 18 20  2  0  0  0  0
 18 37  1  0  0  0  0
 19 21  2  0  0  0  0
 19 38  1  0  0  0  0
 20 46  1  0  0  0  0
 21 39  1  0  0  0  0
 22 23  1  0  0  0  0
 22 59  1  0  0  0  0
 23 30  2  0  0  0  0
 23 58  1  0  0  0  0
 24 84  1  0  0  0  0
 25 85  1  0  0  0  0
 26 28  2  0  0  0  0
 26 84  1  0  0  0  0
 27 86  1  0  0  0  0
 28 87  1  0  0  0  0
 29 68  2  0  0  0  0
 30 49  1  0  0  0  0
 30 69  1  0  0  0  0
 31 70  1  0  0  0  0
 31 73  1  0  0  0  0
 32 74  1  0  0  0  0
 32 79  2  0  0  0  0
 33 47  1  0  0  0  0
 33 75  1  0  0  0  0
 33 80  2  0  0  0  0
 34 63  1  0  0  0  0
 34 71  1  0  0  0  0
 34 81  2  0  0  0  0
 35 64  1  0  0  0  0
 35 76  1  0  0  0  0
 35 82  2  0  0  0  0
 36 72  1  0  0  0  0
 36 77  1  0  0  0  0
 36 83  2  0  0  0  0
 37 40  1  0  0  0  0
 38 47  1  0  0  0  0
 39 71  1  0  0  0  0
 40 42  1  0  0  0  0
 41 43  1  0  0  0  0
 41 44  1  0  0  0  0
 42 46  1  0  0  0  0
 43 48  1  0  0  0  0
 44 72  1  0  0  0  0
 45 48  1  0  0  0  0
 45 72  1  0  0  0  0
 46 75  1  0  0  0  0
 47 71  1  0  0  0  0
 48 70  1  0  0  0  0
 50 64  1  0  0  0  0
 51 65  1  0  0  0  0
 52 65  1  0  0  0  0
 53 66  1  0  0  0  0
 54 67  1  0  0  0  0
 55 67  1  0  0  0  0
 56 67  1  0  0  0  0
 57 78  1  0  0  0  0
 58 60  1  0  0  0  0
 59 77  1  0  0  0  0
 60 65  1  0  0  0  0
 61 66  1  0  0  0  0
 61 69  1  0  0  0  0
 62 66  1  0  0  0  0
 62 85  1  0  0  0  0
 63 67  1  0  0  0  0
 63 76  1  0  0  0  0
 64 78  1  0  0  0  0
 68 70  1  0  0  0  0
M  CHG  1  78   1
M  ISO  4  36 100  62 101  77 100  85 101
M  END
> <Batch ID>
0103

> <Smiles>
CNC(C)C(=O)NC(C(=O)N1Cc2cc([101O:1][101CH2:1]C(C)Cn3cc(C[100NH:0][100C:0](=O)N4CCCC(n5nc(-c6ccc(Oc7ccc(F)cc7F)cc6)c(C(N)=O)c5N)C4)c(CCC(C)C)c3C)ccc2CC1C(=O)NC1CCCc2ccccc21)C(C)(C)C

> <Shape>
0.245

> <Color>
0.192

> <Negative vol penalty>
0.000

$$$$

  -OEChem-04052319413D

 83 91  0     1  0  0  0  0  0999 V2000
  -31.5307  -25.8606   17.5247 C   0  0  0  0  0  0  0  0  0  0  0  0
  -30.1925  -25.5400   17.7288 C   0  0  0  0  0  0  0  0  0  0  0  0
  -27.1958  -14.5287   18.9960 C   0  0  0  0  0  0  0  0  0  0  0  0
  -25.1561  -15.1073   20.1545 C   0  0  0  0  0  0  0  0  0  0  0  0
  -32.2174  -26.6179   18.4729 C   0  0  0  0  0  0  0  0  0  0  0  0
  -29.5403  -25.9755   18.8819 C   0  0  0  0  0  0  0  0  0  0  0  0
  -23.6714  -27.6522   19.3815 C   0  0  0  0  0  0  0  0  0  0  0  0
  -27.0713  -13.2106   19.4349 C   0  0  0  0  0  0  0  0  0  0  0  0
  -25.0315  -13.7891   20.5933 C   0  0  0  0  0  0  0  0  0  0  0  0
  -22.5370  -26.9748   19.8266 C   0  0  0  0  0  0  0  0  0  0  0  0
  -24.0007  -10.8307   19.3263 C   0  0  0  0  0  0  0  0  0  0  0  0
  -22.7435  -10.2339   19.2320 C   0  0  0  0  0  0  0  0  0  0  0  0
  -22.8148  -27.9578   22.0119 C   0  0  0  0  0  0  0  0  0  0  0  0
  -23.1542  -23.3546   22.9415 C   0  0  0  0  0  0  0  0  0  0  0  0
  -22.7233   -9.8985   21.6245 C   0  0  0  0  0  0  0  0  0  0  0  0
  -21.5966  -21.9253   24.0314 C   0  0  0  0  0  0  0  0  0  0  0  0
  -26.2383  -15.4771   19.3558 C   0  0  0  0  0  0  0  0  0  0  0  0
  -25.8498  -17.3928   17.7168 C   0  0  0  0  0  0  0  0  0  0  0  0
  -31.5707  -27.0711   19.6335 C   0  0  0  0  0  0  0  0  0  0  0  0
  -24.3935  -28.4803   20.2528 C   0  0  0  0  0  0  0  0  0  0  0  0
  -30.2194  -26.7384   19.8471 C   0  0  0  0  0  0  0  0  0  0  0  0
  -23.9566  -28.6466   21.5747 C   0  0  0  0  0  0  0  0  0  0  0  0
  -21.8363  -22.9577   23.1389 C   0  0  0  0  0  0  0  0  0  0  0  0
  -24.1776  -22.7161   23.6330 C   0  0  0  0  0  0  0  0  0  0  0  0
  -25.9891  -12.8408   20.2336 C   0  0  0  0  0  0  0  0  0  0  0  0
  -22.1102  -27.1253   21.1428 C   0  0  0  0  0  0  0  0  0  0  0  0
  -24.6193  -10.9612   20.5697 C   0  0  0  0  0  0  0  0  0  0  0  0
  -22.1047   -9.7679   20.3811 C   0  0  0  0  0  0  0  0  0  0  0  0
  -23.9805  -10.4952   21.7188 C   0  0  0  0  0  0  0  0  0  0  0  0
  -26.3668  -16.8390   18.9033 C   0  0  0  0  0  0  0  0  0  0  0  0
  -23.8332  -21.6947   24.5036 C   0  0  0  0  0  0  0  0  0  0  0  0
  -26.2423  -18.7086   17.7525 C   0  0  0  0  0  0  0  0  0  0  0  0
  -25.0832  -16.7734   16.6754 C   0  0  0  0  0  0  0  0  0  0  0  0
  -27.3583  -28.4875   21.3988 C   0  0  0  0  0  0  0  0  0  0  0  0
  -26.4508  -31.3386   22.6518 C   0  0  0  0  0  0  0  0  0  0  0  0
  -23.9139  -33.3684   23.6962 C   0  0  0  0  0  0  0  0  0  0  0  0
  -27.6489  -22.4236   22.2326 C   0  0  0  0  0  0  0  0  0  0  0  0
  -32.3673  -27.8467   20.6525 C   0  0  0  0  0  0  0  0  0  0  0  0
  -25.5997  -29.2250   19.7498 C   0  0  0  0  0  0  0  0  0  0  0  0
  -24.6850  -29.5399   22.5443 C   0  0  0  0  0  0  0  0  0  0  0  0
  -31.5007  -28.5867   21.6683 C   0  0  0  0  0  0  0  0  0  0  0  0
  -29.7008  -21.5392   19.4605 C   0  0  0  0  0  0  0  0  0  0  0  0
  -30.4033  -27.6711   22.2012 C   0  0  0  0  0  0  0  0  0  0  0  0
  -29.0323  -20.2843   18.8963 C   0  0  0  0  0  0  0  0  0  0  0  0
  -29.6181  -21.5860   20.9846 C   0  0  0  0  0  0  0  0  0  0  0  0
  -27.5892  -20.1870   20.9715 C   0  0  0  0  0  0  0  0  0  0  0  0
  -29.4706  -27.2134   21.0734 C   0  0  1  0  0  0  0  0  0  0  0  0
  -26.5542  -29.6393   20.8655 C   0  0  1  0  0  0  0  0  0  0  0  0
  -27.5980  -20.1228   19.4346 C   0  0  2  0  0  0  0  0  0  0  0  0
  -24.8907  -20.9738   25.2738 C   0  0  0  0  0  0  0  0  0  0  0  0
  -23.4856  -35.6250   24.7071 C   0  0  0  0  0  0  0  0  0  0  0  0
  -18.6742  -25.0909   22.6635 C   0  0  0  0  0  0  0  0  0  0  0  0
  -27.3531  -30.2890   25.3710 C   0  0  0  0  0  0  0  0  0  0  0  0
  -26.0560  -32.1447   26.4398 C   0  0  0  0  0  0  0  0  0  0  0  0
  -27.9613  -32.6722   24.9186 C   0  0  0  0  0  0  0  0  0  0  0  0
  -22.3323  -34.2462   21.3537 C   0  0  0  0  0  0  0  0  0  0  0  0
  -20.7021  -23.6307   22.4046 C   0  0  0  0  0  0  0  0  0  0  0  0
  -25.5920  -23.1353   23.4249 C   0  0  0  0  0  0  0  0  0  0  0  0
  -20.9656  -26.1039   22.9601 C   0  0  0  0  0  0  0  0  0  1  0  0
  -25.8056  -31.7824   23.9424 C   0  0  1  0  0  0  0  0  0  0  0  0
  -23.6133  -34.8300   23.4170 C   0  0  2  0  0  0  0  0  0  0  0  0
  -20.1086  -24.8440   23.1481 C   0  0  1  0  0  0  0  0  0  0  0  0
  -26.7812  -31.7037   25.1505 C   0  0  0  0  0  0  0  0  0  0  0  0
  -22.5646  -21.2813   24.7213 N   0  0  0  0  0  0  0  0  0  0  0  0
  -27.0367  -17.7300   19.6390 N   0  0  0  0  0  0  0  0  0  0  0  0
  -26.9435  -18.8570   18.9129 N   0  0  0  0  0  0  0  0  0  0  0  0
  -25.8622  -30.2417   22.0067 N   0  0  0  0  0  0  0  0  0  0  0  0
  -28.2314  -21.4288   21.4300 N   0  0  0  0  0  0  0  0  0  0  0  0
  -26.0526  -19.7415   16.9042 N   0  0  0  0  0  0  0  0  0  0  0  0
  -24.7674  -15.4133   16.7971 N   0  0  0  0  0  0  0  0  0  0  0  0
  -28.5442  -28.2689   20.7240 N   0  0  0  0  0  0  0  0  0  0  0  0
  -25.2695  -33.1162   23.6932 N   0  0  0  0  0  0  0  0  0  0  0  0
  -26.3292  -22.1996   22.6053 N   0  0  0  0  0  0  0  0  0  0  0  0
  -22.3384  -34.9605   22.6563 N   0  3  0  0  0  0  0  0  0  0  0  0
  -24.7039  -17.4032   15.6591 O   0  0  0  0  0  0  0  0  0  0  0  0
  -26.9350  -27.8456   22.3530 O   0  0  0  0  0  0  0  0  0  0  0  0
  -27.4364  -31.9474   22.2278 O   0  0  0  0  0  0  0  0  0  0  0  0
  -23.0343  -32.5347   23.9004 O   0  0  0  0  0  0  0  0  0  0  0  0
  -28.2581  -23.4390   22.5860 O   0  0  0  0  0  0  0  0  0  0  0  0
  -25.8671  -11.5546   20.6618 O   0  0  0  0  0  0  0  0  0  0  0  0
  -21.0037  -26.4648   21.5800 O   0  0  0  0  0  0  0  0  0  1  0  0
  -20.8968   -9.1962   20.2906 F   0  0  0  0  0  0  0  0  0  0  0  0
  -24.5692  -10.6189   22.9163 F   0  0  0  0  0  0  0  0  0  0  0  0
  1  2  1  0  0  0  0
  1  5  2  0  0  0  0
  2  6  2  0  0  0  0
  3  8  2  0  0  0  0
  3 17  1  0  0  0  0
  4  9  1  0  0  0  0
  4 17  2  0  0  0  0
  5 19  1  0  0  0  0
  6 21  1  0  0  0  0
  7 10  2  0  0  0  0
  7 20  1  0  0  0  0
  8 25  1  0  0  0  0
  9 25  2  0  0  0  0
 10 26  1  0  0  0  0
 11 12  2  0  0  0  0
 11 27  1  0  0  0  0
 12 28  1  0  0  0  0
 13 22  1  0  0  0  0
 13 26  2  0  0  0  0
 14 23  2  0  0  0  0
 14 24  1  0  0  0  0
 15 28  2  0  0  0  0
 15 29  1  0  0  0  0
 16 23  1  0  0  0  0
 16 64  2  0  0  0  0
 17 30  1  0  0  0  0
 18 30  1  0  0  0  0
 18 32  2  0  0  0  0
 18 33  1  0  0  0  0
 19 21  2  0  0  0  0
 19 38  1  0  0  0  0
 20 22  2  0  0  0  0
 20 39  1  0  0  0  0
 21 47  1  0  0  0  0
 22 40  1  0  0  0  0
 23 57  1  0  0  0  0
 24 31  2  0  0  0  0
 24 58  1  0  0  0  0
 25 80  1  0  0  0  0
 26 81  1  0  0  0  0
 27 29  2  0  0  0  0
 27 80  1  0  0  0  0
 28 82  1  0  0  0  0
 29 83  1  0  0  0  0
 30 65  2  0  0  0  0
 31 50  1  0  0  0  0
 31 64  1  0  0  0  0
 32 66  1  0  0  0  0
 32 69  1  0  0  0  0
 33 70  1  0  0  0  0
 33 75  2  0  0  0  0
 34 48  1  0  0  0  0
 34 71  1  0  0  0  0
 34 76  2  0  0  0  0
 35 60  1  0  0  0  0
 35 67  1  0  0  0  0
 35 77  2  0  0  0  0
 36 61  1  0  0  0  0
 36 72  1  0  0  0  0
 36 78  2  0  0  0  0
 37 68  1  0  0  0  0
 37 73  1  0  0  0  0
 37 79  2  0  0  0  0
 38 41  1  0  0  0  0
 39 48  1  0  0  0  0
 40 67  1  0  0  0  0
 41 43  1  0  0  0  0
 42 44  1  0  0  0  0
 42 45  1  0  0  0  0
 43 47  1  0  0  0  0
 44 49  1  0  0  0  0
 45 68  1  0  0  0  0
 46 49  1  0  0  0  0
 46 68  1  0  0  0  0
 47 71  1  0  0  0  0
 48 67  1  0  0  0  0
 49 66  1  0  0  0  0
 51 61  1  0  0  0  0
 52 62  1  0  0  0  0
 53 63  1  0  0  0  0
 54 63  1  0  0  0  0
 55 63  1  0  0  0  0
 56 74  1  0  0  0  0
 57 62  1  0  0  0  0
 58 73  1  0  0  0  0
 59 62  1  0  0  0  0
 59 81  1  0  0  0  0
 60 63  1  0  0  0  0
 60 72  1  0  0  0  0
 61 74  1  0  0  0  0
 65 66  1  0  0  0  0
M  CHG  1  74   1
M  ISO  4  37 100  59 101  73 100  81 101
M  END
> <Batch ID>
0103

> <Smiles>
CNC(C)C(=O)NC(C(=O)N1Cc2cc([101O:1][101CH2:1]C(C)Cc3cnc(C)c(C[100NH:0][100C:0](=O)N4CCCC(n5nc(-c6ccc(Oc7ccc(F)cc7F)cc6)c(C(N)=O)c5N)C4)c3)ccc2CC1C(=O)NC1CCCc2ccccc21)C(C)(C)C

> <Shape>
0.284

> <Color>
0.065

> <Negative vol penalty>
0.000

$$$$

  -OEChem-04052319413D

 84 92  0     1  0  0  0  0  0999 V2000
  -28.3681  -26.8965   12.9786 C   0  0  0  0  0  0  0  0  0  0  0  0
  -27.4007  -26.4933   13.8936 C   0  0  0  0  0  0  0  0  0  0  0  0
  -27.2449  -16.3155   20.2265 C   0  0  0  0  0  0  0  0  0  0  0  0
  -26.8309  -16.2807   22.6065 C   0  0  0  0  0  0  0  0  0  0  0  0
  -29.6491  -27.2255   13.4198 C   0  0  0  0  0  0  0  0  0  0  0  0
  -27.7142  -26.4178   15.2502 C   0  0  0  0  0  0  0  0  0  0  0  0
  -24.1180  -28.4346   18.1903 C   0  0  0  0  0  0  0  0  0  0  0  0
  -28.4592  -15.6594   20.4281 C   0  0  0  0  0  0  0  0  0  0  0  0
  -28.0451  -15.6246   22.8082 C   0  0  0  0  0  0  0  0  0  0  0  0
  -22.9772  -27.6664   18.4186 C   0  0  0  0  0  0  0  0  0  0  0  0
  -29.5166  -12.5029   21.0209 C   0  0  0  0  0  0  0  0  0  0  0  0
  -29.8267  -11.4386   20.1743 C   0  0  0  0  0  0  0  0  0  0  0  0
  -23.8529  -27.0163   20.5703 C   0  0  0  0  0  0  0  0  0  0  0  0
  -19.2942  -28.1027   21.7811 C   0  0  0  0  0  0  0  0  0  0  0  0
  -31.8096  -12.6044   19.4352 C   0  0  0  0  0  0  0  0  0  0  0  0
  -26.4308  -16.6262   21.3157 C   0  0  0  0  0  0  0  0  0  0  0  0
  -23.9187  -16.7148   20.8808 C   0  0  0  0  0  0  0  0  0  0  0  0
  -29.9757  -27.1633   14.7837 C   0  0  0  0  0  0  0  0  0  0  0  0
  -25.1415  -28.4909   19.1473 C   0  0  0  0  0  0  0  0  0  0  0  0
  -29.0012  -26.7450   15.7099 C   0  0  0  0  0  0  0  0  0  0  0  0
  -25.0045  -27.7880   20.3528 C   0  0  0  0  0  0  0  0  0  0  0  0
  -19.3565  -26.7120   21.4773 C   0  0  0  0  0  0  0  0  0  0  0  0
  -28.8593  -15.3139   21.7190 C   0  0  0  0  0  0  0  0  0  0  0  0
  -22.8458  -26.9548   19.6075 C   0  0  0  0  0  0  0  0  0  0  0  0
  -30.3529  -13.6180   21.0745 C   0  0  0  0  0  0  0  0  0  0  0  0
  -30.9733  -11.4893   19.3815 C   0  0  0  0  0  0  0  0  0  0  0  0
  -31.4994  -13.6687   20.2817 C   0  0  0  0  0  0  0  0  0  0  0  0
  -25.1766  -17.3045   21.1080 C   0  0  0  0  0  0  0  0  0  0  0  0
  -19.3405  -28.3386   23.1375 C   0  0  0  0  0  0  0  0  0  0  0  0
  -19.4484  -25.9380   22.6132 C   0  0  0  0  0  0  0  0  0  0  0  0
  -23.0598  -17.7783   20.7477 C   0  0  0  0  0  0  0  0  0  0  0  0
  -23.5587  -15.3294   20.7975 C   0  0  0  0  0  0  0  0  0  0  0  0
  -28.2113  -27.6679   19.1994 C   0  0  0  0  0  0  0  0  0  0  0  0
  -28.1403  -29.0876   22.1152 C   0  0  0  0  0  0  0  0  0  0  0  0
  -26.3001  -30.0622   24.8190 C   0  0  0  0  0  0  0  0  0  0  0  0
  -21.1556  -22.6020   22.4951 C   0  0  0  0  0  0  0  0  0  0  0  0
  -31.3874  -27.4831   15.2074 C   0  0  0  0  0  0  0  0  0  0  0  0
  -26.3537  -29.3455   18.8973 C   0  0  0  0  0  0  0  0  0  0  0  0
  -26.0655  -27.8312   21.4210 C   0  0  0  0  0  0  0  0  0  0  0  0
  -31.5308  -27.7370   16.7058 C   0  0  0  0  0  0  0  0  0  0  0  0
  -23.9941  -22.7255   20.2534 C   0  0  0  0  0  0  0  0  0  0  0  0
  -30.7977  -26.6621   17.5020 C   0  0  0  0  0  0  0  0  0  0  0  0
  -24.4507  -21.2654   20.2601 C   0  0  0  0  0  0  0  0  0  0  0  0
  -23.5093  -23.1594   21.6335 C   0  0  0  0  0  0  0  0  0  0  0  0
  -22.8823  -20.8469   22.2107 C   0  0  0  0  0  0  0  0  0  0  0  0
  -29.2958  -26.6744   17.1926 C   0  0  1  0  0  0  0  0  0  0  0  0
  -27.5650  -28.9200   19.7214 C   0  0  1  0  0  0  0  0  0  0  0  0
  -23.3631  -20.3409   20.8386 C   0  0  2  0  0  0  0  0  0  0  0  0
  -16.7522  -29.7445   24.0964 C   0  0  0  0  0  0  0  0  0  0  0  0
  -18.0041  -26.5051   19.3655 C   0  0  0  0  0  0  0  0  0  0  0  0
  -20.5246  -30.5190   23.5040 C   0  0  0  0  0  0  0  0  0  0  0  0
  -26.5264  -31.1641   27.0622 C   0  0  0  0  0  0  0  0  0  0  0  0
  -29.3151  -26.5140   23.2582 C   0  0  0  0  0  0  0  0  0  0  0  0
  -28.6375  -27.2991   25.5370 C   0  0  0  0  0  0  0  0  0  0  0  0
  -30.2863  -28.6149   24.2056 C   0  0  0  0  0  0  0  0  0  0  0  0
  -24.5093  -32.2849   24.0372 C   0  0  0  0  0  0  0  0  0  0  0  0
  -19.5331  -24.4646   22.7295 C   0  0  0  0  0  0  0  0  0  0  0  0
  -18.0029  -30.4645   23.6070 C   0  0  0  0  0  0  0  0  0  0  0  0
  -20.5186  -26.6447   19.2278 C   0  0  0  0  0  0  0  0  0  1  0  0
  -19.3241  -26.1601   20.0607 C   0  0  1  0  0  0  0  0  0  0  0  0
  -19.3007  -29.6357   23.8474 C   0  0  1  0  0  0  0  0  0  0  0  0
  -27.8520  -28.6248   23.5229 C   0  0  1  0  0  0  0  0  0  0  0  0
  -26.2476  -31.3735   25.5820 C   0  0  2  0  0  0  0  0  0  0  0  0
  -29.0034  -27.7606   24.1102 C   0  0  0  0  0  0  0  0  0  0  0  0
  -25.1259  -18.6391   21.1192 N   0  0  0  0  0  0  0  0  0  0  0  0
  -23.8258  -18.8969   20.8972 N   0  0  0  0  0  0  0  0  0  0  0  0
  -27.2349  -28.6760   21.1270 N   0  0  0  0  0  0  0  0  0  0  0  0
  -22.4623  -22.2492   22.1187 N   0  0  0  0  0  0  0  0  0  0  0  0
  -21.7318  -17.8565   20.5186 N   0  0  0  0  0  0  0  0  0  0  0  0
  -24.5647  -14.3668   20.9577 N   0  0  0  0  0  0  0  0  0  0  0  0
  -28.6448  -27.7621   17.8907 N   0  0  0  0  0  0  0  0  0  0  0  0
  -27.5534  -29.8263   24.2946 N   0  0  0  0  0  0  0  0  0  0  0  0
  -20.8400  -23.9507   22.3850 N   0  0  0  0  0  0  0  0  0  0  0  0
  -24.9033  -32.0012   25.4412 N   0  3  0  0  0  0  0  0  0  0  0  0
  -22.3826  -14.9564   20.5709 O   0  0  0  0  0  0  0  0  0  0  0  0
  -28.3108  -26.6894   19.9304 O   0  0  0  0  0  0  0  0  0  0  0  0
  -29.1284  -29.7945   21.9015 O   0  0  0  0  0  0  0  0  0  0  0  0
  -25.3278  -29.3195   24.7033 O   0  0  0  0  0  0  0  0  0  0  0  0
  -20.3290  -21.7750   22.8949 O   0  0  0  0  0  0  0  0  0  0  0  0
  -30.0440  -14.6734   21.9161 O   0  0  0  0  0  0  0  0  0  0  0  0
  -21.7336  -26.2036   19.8325 O   0  0  0  0  0  0  0  0  0  1  0  0
  -31.2718  -10.4665   18.5697 F   0  0  0  0  0  0  0  0  0  0  0  0
  -32.3073  -14.7368   20.3299 F   0  0  0  0  0  0  0  0  0  0  0  0
  -19.4588  -26.8872   24.0384 S   0  0  0  0  0  0  0  0  0  0  0  0
  1  2  1  0  0  0  0
  1  5  2  0  0  0  0
  2  6  2  0  0  0  0
  3  8  2  0  0  0  0
  3 16  1  0  0  0  0
  4  9  1  0  0  0  0
  4 16  2  0  0  0  0
  5 18  1  0  0  0  0
  6 20  1  0  0  0  0
  7 10  2  0  0  0  0
  7 19  1  0  0  0  0
  8 23  1  0  0  0  0
  9 23  2  0  0  0  0
 10 24  1  0  0  0  0
 11 12  2  0  0  0  0
 11 25  1  0  0  0  0
 12 26  1  0  0  0  0
 13 21  1  0  0  0  0
 13 24  2  0  0  0  0
 14 22  1  0  0  0  0
 14 29  2  0  0  0  0
 15 26  2  0  0  0  0
 15 27  1  0  0  0  0
 16 28  1  0  0  0  0
 17 28  1  0  0  0  0
 17 31  2  0  0  0  0
 17 32  1  0  0  0  0
 18 20  2  0  0  0  0
 18 37  1  0  0  0  0
 19 21  2  0  0  0  0
 19 38  1  0  0  0  0
 20 46  1  0  0  0  0
 21 39  1  0  0  0  0
 22 30  2  0  0  0  0
 22 60  1  0  0  0  0
 23 80  1  0  0  0  0
 24 81  1  0  0  0  0
 25 27  2  0  0  0  0
 25 80  1  0  0  0  0
 26 82  1  0  0  0  0
 27 83  1  0  0  0  0
 28 65  2  0  0  0  0
 29 61  1  0  0  0  0
 29 84  1  0  0  0  0
 30 57  1  0  0  0  0
 30 84  1  0  0  0  0
 31 66  1  0  0  0  0
 31 69  1  0  0  0  0
 32 70  1  0  0  0  0
 32 75  2  0  0  0  0
 33 47  1  0  0  0  0
 33 71  1  0  0  0  0
 33 76  2  0  0  0  0
 34 62  1  0  0  0  0
 34 67  1  0  0  0  0
 34 77  2  0  0  0  0
 35 63  1  0  0  0  0
 35 72  1  0  0  0  0
 35 78  2  0  0  0  0
 36 68  1  0  0  0  0
 36 73  1  0  0  0  0
 36 79  2  0  0  0  0
 37 40  1  0  0  0  0
 38 47  1  0  0  0  0
 39 67  1  0  0  0  0
 40 42  1  0  0  0  0
 41 43  1  0  0  0  0
 41 44  1  0  0  0  0
 42 46  1  0  0  0  0
 43 48  1  0  0  0  0
 44 68  1  0  0  0  0
 45 48  1  0  0  0  0
 45 68  1  0  0  0  0
 46 71  1  0  0  0  0
 47 67  1  0  0  0  0
 48 66  1  0  0  0  0
 49 58  1  0  0  0  0
 50 60  1  0  0  0  0
 51 61  1  0  0  0  0
 52 63  1  0  0  0  0
 53 64  1  0  0  0  0
 54 64  1  0  0  0  0
 55 64  1  0  0  0  0
 56 74  1  0  0  0  0
 57 73  1  0  0  0  0
 58 61  1  0  0  0  0
 59 60  1  0  0  0  0
 59 81  1  0  0  0  0
 62 64  1  0  0  0  0
 62 72  1  0  0  0  0
 63 74  1  0  0  0  0
 65 66  1  0  0  0  0
M  CHG  1  74   1
M  ISO  4  36 100  59 101  73 100  81 101
M  END
> <Batch ID>
0103

> <Smiles>
CCC(C)c1cc(C(C)[101CH2:1][101O:1]c2ccc3c(c2)CN(C(=O)C(NC(=O)C(C)NC)C(C)(C)C)C(C(=O)NC2CCCc4ccccc42)C3)c(C[100NH:0][100C:0](=O)N2CCCC(n3nc(-c4ccc(Oc5ccc(F)cc5F)cc4)c(C(N)=O)c3N)C2)s1

> <Shape>
0.207

> <Color>
0.072

> <Negative vol penalty>
0.000

$$$$

  -OEChem-04052319413D

 83 91  0     1  0  0  0  0  0999 V2000
  -26.7626  -32.3235   25.7719 C   0  0  0  0  0  0  0  0  0  0  0  0
  -26.3446  -31.0100   25.5840 C   0  0  0  0  0  0  0  0  0  0  0  0
  -23.0710   -9.8293   20.0083 C   0  0  0  0  0  0  0  0  0  0  0  0
  -23.8012   -9.9343   22.3089 C   0  0  0  0  0  0  0  0  0  0  0  0
  -27.4454  -32.9888   24.7545 C   0  0  0  0  0  0  0  0  0  0  0  0
  -26.6081  -30.3614   24.3781 C   0  0  0  0  0  0  0  0  0  0  0  0
  -27.8775  -24.4218   23.5933 C   0  0  0  0  0  0  0  0  0  0  0  0
  -22.3174   -8.6922   20.2994 C   0  0  0  0  0  0  0  0  0  0  0  0
  -23.0476   -8.7972   22.6001 C   0  0  0  0  0  0  0  0  0  0  0  0
  -27.0900  -23.3369   23.2103 C   0  0  0  0  0  0  0  0  0  0  0  0
  -19.3462   -7.9760   21.7457 C   0  0  0  0  0  0  0  0  0  0  0  0
  -18.0454   -7.9149   21.2459 C   0  0  0  0  0  0  0  0  0  0  0  0
  -28.4022  -18.3502   19.3826 C   0  0  0  0  0  0  0  0  0  0  0  0
  -27.8327  -23.6100   20.9315 C   0  0  0  0  0  0  0  0  0  0  0  0
  -18.6111   -5.9121   20.0186 C   0  0  0  0  0  0  0  0  0  0  0  0
  -27.1172  -18.7468   19.6803 C   0  0  0  0  0  0  0  0  0  0  0  0
  -28.2912  -18.7974   21.5866 C   0  0  0  0  0  0  0  0  0  0  0  0
  -23.8129  -10.4504   21.0131 C   0  0  0  0  0  0  0  0  0  0  0  0
  -24.1706  -12.9659   20.7856 C   0  0  0  0  0  0  0  0  0  0  0  0
  -27.7260  -32.3448   23.5391 C   0  0  0  0  0  0  0  0  0  0  0  0
  -28.6414  -25.1169   22.6447 C   0  0  0  0  0  0  0  0  0  0  0  0
  -27.2941  -31.0191   23.3430 C   0  0  0  0  0  0  0  0  0  0  0  0
  -28.6311  -24.7017   21.3054 C   0  0  0  0  0  0  0  0  0  0  0  0
  -29.1450  -18.3823   20.5886 C   0  0  0  0  0  0  0  0  0  0  0  0
  -22.3057   -8.1762   21.5953 C   0  0  0  0  0  0  0  0  0  0  0  0
  -27.0653  -22.9327   21.8787 C   0  0  0  0  0  0  0  0  0  0  0  0
  -20.2795   -7.0052   21.3820 C   0  0  0  0  0  0  0  0  0  0  0  0
  -17.6779   -6.8829   20.3823 C   0  0  0  0  0  0  0  0  0  0  0  0
  -19.9119   -5.9733   20.5185 C   0  0  0  0  0  0  0  0  0  0  0  0
  -24.5920  -11.6247   20.7129 C   0  0  0  0  0  0  0  0  0  0  0  0
  -25.2716  -13.6929   20.4039 C   0  0  0  0  0  0  0  0  0  0  0  0
  -22.8978  -13.5063   21.1645 C   0  0  0  0  0  0  0  0  0  0  0  0
  -28.6886  -28.1022   21.5542 C   0  0  0  0  0  0  0  0  0  0  0  0
  -31.3221  -27.0677   19.9677 C   0  0  0  0  0  0  0  0  0  0  0  0
  -33.0711  -24.4472   18.6560 C   0  0  0  0  0  0  0  0  0  0  0  0
  -30.7582  -14.6913   20.6189 C   0  0  0  0  0  0  0  0  0  0  0  0
  -28.4253  -33.1205   22.4510 C   0  0  0  0  0  0  0  0  0  0  0  0
  -29.5064  -26.2683   23.0786 C   0  0  0  0  0  0  0  0  0  0  0  0
  -29.4488  -25.4017   20.2519 C   0  0  0  0  0  0  0  0  0  0  0  0
  -28.9941  -32.2379   21.3431 C   0  0  0  0  0  0  0  0  0  0  0  0
  -29.6380  -12.2089   18.3256 C   0  0  0  0  0  0  0  0  0  0  0  0
  -27.9624  -31.2050   20.9007 C   0  0  0  0  0  0  0  0  0  0  0  0
  -28.1934  -11.9421   18.7522 C   0  0  0  0  0  0  0  0  0  0  0  0
  -30.5407  -12.4782   19.5274 C   0  0  0  0  0  0  0  0  0  0  0  0
  -28.6254  -13.2799   20.8551 C   0  0  0  0  0  0  0  0  0  0  0  0
  -27.5830  -30.2735   22.0582 C   0  0  1  0  0  0  0  0  0  0  0  0
  -29.8454  -27.2238   21.9387 C   0  0  1  0  0  0  0  0  0  0  0  0
  -27.6656  -13.0581   19.6736 C   0  0  2  0  0  0  0  0  0  0  0  0
  -35.1698  -23.9182   17.3860 C   0  0  0  0  0  0  0  0  0  0  0  0
  -30.0238  -28.0883   17.4020 C   0  0  0  0  0  0  0  0  0  0  0  0
  -31.6686  -26.7156   16.1063 C   0  0  0  0  0  0  0  0  0  0  0  0
  -32.4740  -28.5537   17.5880 C   0  0  0  0  0  0  0  0  0  0  0  0
  -24.5593  -19.6479   20.8812 C   0  0  0  0  0  0  0  0  0  0  0  0
  -25.4500  -18.4481   22.8673 C   0  0  0  0  0  0  0  0  0  0  0  0
  -34.1170  -22.7665   20.8560 C   0  0  0  0  0  0  0  0  0  0  0  0
  -30.8203  -16.8944   21.7599 C   0  0  0  0  0  0  0  0  0  0  0  0
  -26.0805  -20.8510   22.4726 C   0  0  0  0  0  0  0  0  0  1  0  0
  -30.5705  -18.0364   20.7475 C   0  0  2  0  0  0  0  0  0  0  0  0
  -31.5786  -26.4285   18.6243 C   0  0  1  0  0  0  0  0  0  0  0  0
  -34.5352  -24.0601   18.7607 C   0  0  2  0  0  0  0  0  0  0  0  0
  -31.4192  -27.4343   17.4494 C   0  0  0  0  0  0  0  0  0  0  0  0
  -25.8077  -19.4897   21.7822 C   0  0  0  0  0  0  0  0  0  0  0  0
  -25.8616  -11.5039   20.3160 N   0  0  0  0  0  0  0  0  0  0  0  0
  -27.0612  -19.0158   21.0230 N   0  0  0  0  0  0  0  0  0  0  0  0
  -26.2474  -12.7785   20.1358 N   0  0  0  0  0  0  0  0  0  0  0  0
  -30.2736  -26.5259   20.7246 N   0  0  0  0  0  0  0  0  0  0  0  0
  -29.9846  -13.5479   20.3596 N   0  0  0  0  0  0  0  0  0  0  0  0
  -25.4905  -15.0187   20.2746 N   0  0  0  0  0  0  0  0  0  0  0  0
  -21.8765  -12.6182   21.5285 N   0  0  0  0  0  0  0  0  0  0  0  0
  -28.6165  -29.2826   22.2690 N   0  0  0  0  0  0  0  0  0  0  0  0
  -32.8990  -25.8142   18.7100 N   0  0  0  0  0  0  0  0  0  0  0  0
  -30.1535  -15.6597   21.4110 N   0  0  0  0  0  0  0  0  0  0  0  0
  -31.4315  -19.2048   21.1716 N   0  3  0  0  0  0  0  0  0  0  0  0
  -34.6779  -22.7629   19.4804 N   0  3  0  0  0  0  0  0  0  0  0  0
  -22.6678  -14.7394   21.1641 O   0  0  0  0  0  0  0  0  0  0  0  0
  -27.9192  -27.7368   20.6731 O   0  0  0  0  0  0  0  0  0  0  0  0
  -32.0306  -28.0082   20.3351 O   0  0  0  0  0  0  0  0  0  0  0  0
  -32.1704  -23.6198   18.5343 O   0  0  0  0  0  0  0  0  0  0  0  0
  -31.9009  -14.8407   20.1729 O   0  0  0  0  0  0  0  0  0  0  0  0
  -21.5703   -7.0668   21.8797 O   0  0  0  0  0  0  0  0  0  0  0  0
  -26.2970  -21.8745   21.5021 O   0  0  0  0  0  0  0  0  0  1  0  0
  -16.4283   -6.8235   19.9036 F   0  0  0  0  0  0  0  0  0  0  0  0
  -20.8038   -5.0371   20.1664 F   0  0  0  0  0  0  0  0  0  0  0  0
  1  2  1  0  0  0  0
  1  5  2  0  0  0  0
  2  6  2  0  0  0  0
  3  8  2  0  0  0  0
  3 18  1  0  0  0  0
  4  9  1  0  0  0  0
  4 18  2  0  0  0  0
  5 20  1  0  0  0  0
  6 22  1  0  0  0  0
  7 10  2  0  0  0  0
  7 21  1  0  0  0  0
  8 25  1  0  0  0  0
  9 25  2  0  0  0  0
 10 26  1  0  0  0  0
 11 12  2  0  0  0  0
 11 27  1  0  0  0  0
 12 28  1  0  0  0  0
 13 16  2  0  0  0  0
 13 24  1  0  0  0  0
 14 23  1  0  0  0  0
 14 26  2  0  0  0  0
 15 28  2  0  0  0  0
 15 29  1  0  0  0  0
 16 64  1  0  0  0  0
 17 24  2  0  0  0  0
 17 64  1  0  0  0  0
 18 30  1  0  0  0  0
 19 30  1  0  0  0  0
 19 31  2  0  0  0  0
 19 32  1  0  0  0  0
 20 22  2  0  0  0  0
 20 37  1  0  0  0  0
 21 23  2  0  0  0  0
 21 38  1  0  0  0  0
 22 46  1  0  0  0  0
 23 39  1  0  0  0  0
 24 58  1  0  0  0  0
 25 80  1  0  0  0  0
 26 81  1  0  0  0  0
 27 29  2  0  0  0  0
 27 80  1  0  0  0  0
 28 82  1  0  0  0  0
 29 83  1  0  0  0  0
 30 63  2  0  0  0  0
 31 65  1  0  0  0  0
 31 68  1  0  0  0  0
 32 69  1  0  0  0  0
 32 75  2  0  0  0  0
 33 47  1  0  0  0  0
 33 70  1  0  0  0  0
 33 76  2  0  0  0  0
 34 59  1  0  0  0  0
 34 66  1  0  0  0  0
 34 77  2  0  0  0  0
 35 60  1  0  0  0  0
 35 71  1  0  0  0  0
 35 78  2  0  0  0  0
 36 67  1  0  0  0  0
 36 72  1  0  0  0  0
 36 79  2  0  0  0  0
 37 40  1  0  0  0  0
 38 47  1  0  0  0  0
 39 66  1  0  0  0  0
 40 42  1  0  0  0  0
 41 43  1  0  0  0  0
 41 44  1  0  0  0  0
 42 46  1  0  0  0  0
 43 48  1  0  0  0  0
 44 67  1  0  0  0  0
 45 48  1  0  0  0  0
 45 67  1  0  0  0  0
 46 70  1  0  0  0  0
 47 66  1  0  0  0  0
 48 65  1  0  0  0  0
 49 60  1  0  0  0  0
 50 61  1  0  0  0  0
 51 61  1  0  0  0  0
 52 61  1  0  0  0  0
 53 62  1  0  0  0  0
 54 62  1  0  0  0  0
 55 74  1  0  0  0  0
 56 58  1  0  0  0  0
 56 72  1  0  0  0  0
 57 62  1  0  0  0  0
 57 81  1  0  0  0  0
 58 73  1  0  0  0  0
 59 61  1  0  0  0  0
 59 71  1  0  0  0  0
 60 74  1  0  0  0  0
 62 64  1  0  0  0  0
 63 65  1  0  0  0  0
M  CHG  2  73   1  74   1
M  ISO  4  36 100  57 101  72 100  81 101
M  END
> <Batch ID>
0103

> <Smiles>
CNC(C)C(=O)NC(C(=O)N1Cc2cc([101O:1][101CH2:1]C(C)(C)n3ccc(C(N)C[100NH:0][100C:0](=O)N4CCCC(n5nc(-c6ccc(Oc7ccc(F)cc7F)cc6)c(C(N)=O)c5N)C4)c3)ccc2CC1C(=O)NC1CCCc2ccccc21)C(C)(C)C

> <Shape>
0.287

> <Color>
0.190

> <Negative vol penalty>
0.000

$$$$

  -OEChem-04052319413D

 84 92  0     1  0  0  0  0  0999 V2000
  -18.5807  -26.9698   23.4388 C   0  0  0  0  0  0  0  0  0  0  0  0
  -19.4565  -26.0362   22.8941 C   0  0  0  0  0  0  0  0  0  0  0  0
  -23.8456   -9.5343   19.9528 C   0  0  0  0  0  0  0  0  0  0  0  0
  -23.1201  -10.2265   22.1509 C   0  0  0  0  0  0  0  0  0  0  0  0
  -18.7849  -28.3304   23.2126 C   0  0  0  0  0  0  0  0  0  0  0  0
  -20.5366  -26.4626   22.1220 C   0  0  0  0  0  0  0  0  0  0  0  0
  -24.8385  -24.0692   23.3094 C   0  0  0  0  0  0  0  0  0  0  0  0
  -30.4526  -19.3691   22.1394 C   0  0  0  0  0  0  0  0  0  0  0  0
  -23.1299   -8.3451   20.0911 C   0  0  0  0  0  0  0  0  0  0  0  0
  -22.4044   -9.0373   22.2892 C   0  0  0  0  0  0  0  0  0  0  0  0
  -25.0050  -22.7761   22.8153 C   0  0  0  0  0  0  0  0  0  0  0  0
  -23.0626   -5.8055   23.0327 C   0  0  0  0  0  0  0  0  0  0  0  0
  -23.1714   -5.1205   24.2429 C   0  0  0  0  0  0  0  0  0  0  0  0
  -30.7860  -20.0996   21.0043 C   0  0  0  0  0  0  0  0  0  0  0  0
  -26.4052  -23.6375   21.0500 C   0  0  0  0  0  0  0  0  0  0  0  0
  -20.7891   -5.3390   24.5807 C   0  0  0  0  0  0  0  0  0  0  0  0
  -23.8408  -10.4750   20.9828 C   0  0  0  0  0  0  0  0  0  0  0  0
  -24.1147  -12.9189   20.3046 C   0  0  0  0  0  0  0  0  0  0  0  0
  -19.8735  -28.7741   22.4454 C   0  0  0  0  0  0  0  0  0  0  0  0
  -25.4462  -25.1592   22.6700 C   0  0  0  0  0  0  0  0  0  0  0  0
  -20.7548  -27.8303   21.8843 C   0  0  0  0  0  0  0  0  0  0  0  0
  -26.2470  -24.9431   21.5394 C   0  0  0  0  0  0  0  0  0  0  0  0
  -29.1274  -19.0149   22.3670 C   0  0  0  0  0  0  0  0  0  0  0  0
  -22.4092   -8.0966   21.2592 C   0  0  0  0  0  0  0  0  0  0  0  0
  -25.7861  -22.5605   21.6838 C   0  0  0  0  0  0  0  0  0  0  0  0
  -21.8170   -6.2572   22.5965 C   0  0  0  0  0  0  0  0  0  0  0  0
  -22.0347   -4.8873   25.0169 C   0  0  0  0  0  0  0  0  0  0  0  0
  -20.6803   -6.0239   23.3705 C   0  0  0  0  0  0  0  0  0  0  0  0
  -24.5804  -11.7034   20.8408 C   0  0  0  0  0  0  0  0  0  0  0  0
  -29.7653  -20.4486   20.1346 C   0  0  0  0  0  0  0  0  0  0  0  0
  -28.1809  -19.4126   21.4364 C   0  0  0  0  0  0  0  0  0  0  0  0
  -25.1908  -13.7679   20.3933 C   0  0  0  0  0  0  0  0  0  0  0  0
  -22.8249  -13.2509   19.7738 C   0  0  0  0  0  0  0  0  0  0  0  0
  -24.3902  -27.7859   21.2247 C   0  0  0  0  0  0  0  0  0  0  0  0
  -27.5490  -28.5109   21.0882 C   0  0  0  0  0  0  0  0  0  0  0  0
  -30.7778  -27.4057   21.0861 C   0  0  0  0  0  0  0  0  0  0  0  0
  -29.4963  -15.8866   23.2425 C   0  0  0  0  0  0  0  0  0  0  0  0
  -20.0263  -30.2525   22.1890 C   0  0  0  0  0  0  0  0  0  0  0  0
  -25.2786  -26.5446   23.2312 C   0  0  0  0  0  0  0  0  0  0  0  0
  -26.9375  -26.0770   20.8282 C   0  0  0  0  0  0  0  0  0  0  0  0
  -21.4087  -30.6413   21.6713 C   0  0  0  0  0  0  0  0  0  0  0  0
  -30.0392  -12.8342   21.4919 C   0  0  0  0  0  0  0  0  0  0  0  0
  -21.8453  -29.6981   20.5547 C   0  0  0  0  0  0  0  0  0  0  0  0
  -28.6293  -12.3655   21.1280 C   0  0  0  0  0  0  0  0  0  0  0  0
  -30.0740  -13.5080   22.8619 C   0  0  0  0  0  0  0  0  0  0  0  0
  -27.7002  -14.1422   22.6703 C   0  0  0  0  0  0  0  0  0  0  0  0
  -21.9521  -28.2549   21.0619 C   0  0  1  0  0  0  0  0  0  0  0  0
  -25.5246  -27.6410   22.1993 C   0  0  1  0  0  0  0  0  0  0  0  0
  -27.6043  -13.5064   21.2729 C   0  0  2  0  0  0  0  0  0  0  0  0
  -30.5073  -19.1942   17.4103 C   0  0  0  0  0  0  0  0  0  0  0  0
  -30.6526  -22.6237   19.2560 C   0  0  0  0  0  0  0  0  0  0  0  0
  -33.1422  -28.2306   20.9235 C   0  0  0  0  0  0  0  0  0  0  0  0
  -27.1975  -28.9190   18.0848 C   0  0  0  0  0  0  0  0  0  0  0  0
  -29.6868  -28.7966   17.8474 C   0  0  0  0  0  0  0  0  0  0  0  0
  -28.6531  -30.6163   19.2049 C   0  0  0  0  0  0  0  0  0  0  0  0
  -31.4540  -26.3473   23.7659 C   0  0  0  0  0  0  0  0  0  0  0  0
  -28.7639  -18.2334   23.5819 C   0  0  0  0  0  0  0  0  0  0  0  0
  -26.7275  -19.0540   21.6293 C   0  0  0  0  0  0  0  0  0  0  0  0
  -31.0640  -20.5121   17.9351 C   0  0  0  0  0  0  0  0  0  0  0  0
  -25.9034  -20.2299   22.1425 C   0  0  0  0  0  0  0  0  0  1  0  0
  -30.0877  -21.2311   18.9055 C   0  0  1  0  0  0  0  0  0  0  0  0
  -28.6635  -28.2530   20.1031 C   0  0  1  0  0  0  0  0  0  0  0  0
  -32.0004  -27.8657   21.8594 C   0  0  2  0  0  0  0  0  0  0  0  0
  -28.5358  -29.1249   18.8221 C   0  0  0  0  0  0  0  0  0  0  0  0
  -25.8531  -11.7701   21.2404 N   0  0  0  0  0  0  0  0  0  0  0  0
  -28.4668  -20.1227   20.3221 N   0  0  0  0  0  0  0  0  0  0  0  0
  -26.1964  -13.0376   20.9550 N   0  0  0  0  0  0  0  0  0  0  0  0
  -26.7379  -27.4139   21.4116 N   0  0  0  0  0  0  0  0  0  0  0  0
  -29.0797  -14.5814   22.9330 N   0  0  0  0  0  0  0  0  0  0  0  0
  -25.3654  -15.0603   20.0447 N   0  0  0  0  0  0  0  0  0  0  0  0
  -21.8337  -12.2601   19.7579 N   0  0  0  0  0  0  0  0  0  0  0  0
  -23.1743  -28.0731   21.8152 N   0  0  0  0  0  0  0  0  0  0  0  0
  -29.9096  -28.4474   20.8365 N   0  0  0  0  0  0  0  0  0  0  0  0
  -28.4912  -16.8452   23.2833 N   0  0  0  0  0  0  0  0  0  0  0  0
  -32.4697  -26.7878   22.7753 N   0  3  0  0  0  0  0  0  0  0  0  0
  -22.5641  -14.3876   19.3118 O   0  0  0  0  0  0  0  0  0  0  0  0
  -24.6026  -27.6488   20.0256 O   0  0  0  0  0  0  0  0  0  0  0  0
  -27.4078  -29.6423   21.5590 O   0  0  0  0  0  0  0  0  0  0  0  0
  -30.6114  -26.2396   20.7350 O   0  0  0  0  0  0  0  0  0  0  0  0
  -30.6774  -16.1773   23.4608 O   0  0  0  0  0  0  0  0  0  0  0  0
  -21.7105   -6.9364   21.3944 O   0  0  0  0  0  0  0  0  0  0  0  0
  -25.9498  -21.2995   21.1990 O   0  0  0  0  0  0  0  0  0  1  0  0
  -22.1391   -4.2282   26.1783 F   0  0  0  0  0  0  0  0  0  0  0  0
  -19.4808   -6.4545   22.9561 F   0  0  0  0  0  0  0  0  0  0  0  0
  1  2  1  0  0  0  0
  1  5  2  0  0  0  0
  2  6  2  0  0  0  0
  3  9  2  0  0  0  0
  3 17  1  0  0  0  0
  4 10  1  0  0  0  0
  4 17  2  0  0  0  0
  5 19  1  0  0  0  0
  6 21  1  0  0  0  0
  7 11  2  0  0  0  0
  7 20  1  0  0  0  0
  8 14  2  0  0  0  0
  8 23  1  0  0  0  0
  9 24  1  0  0  0  0
 10 24  2  0  0  0  0
 11 25  1  0  0  0  0
 12 13  2  0  0  0  0
 12 26  1  0  0  0  0
 13 27  1  0  0  0  0
 14 30  1  0  0  0  0
 15 22  1  0  0  0  0
 15 25  2  0  0  0  0
 16 27  2  0  0  0  0
 16 28  1  0  0  0  0
 17 29  1  0  0  0  0
 18 29  1  0  0  0  0
 18 32  2  0  0  0  0
 18 33  1  0  0  0  0
 19 21  2  0  0  0  0
 19 38  1  0  0  0  0
 20 22  2  0  0  0  0
 20 39  1  0  0  0  0
 21 47  1  0  0  0  0
 22 40  1  0  0  0  0
 23 31  2  0  0  0  0
 23 57  1  0  0  0  0
 24 81  1  0  0  0  0
 25 82  1  0  0  0  0
 26 28  2  0  0  0  0
 26 81  1  0  0  0  0
 27 83  1  0  0  0  0
 28 84  1  0  0  0  0
 29 65  2  0  0  0  0
 30 61  1  0  0  0  0
 30 66  2  0  0  0  0
 31 58  1  0  0  0  0
 31 66  1  0  0  0  0
 32 67  1  0  0  0  0
 32 70  1  0  0  0  0
 33 71  1  0  0  0  0
 33 76  2  0  0  0  0
 34 48  1  0  0  0  0
 34 72  1  0  0  0  0
 34 77  2  0  0  0  0
 35 62  1  0  0  0  0
 35 68  1  0  0  0  0
 35 78  2  0  0  0  0
 36 63  1  0  0  0  0
 36 73  1  0  0  0  0
 36 79  2  0  0  0  0
 37 69  1  0  0  0  0
 37 74  1  0  0  0  0
 37 80  2  0  0  0  0
 38 41  1  0  0  0  0
 39 48  1  0  0  0  0
 40 68  1  0  0  0  0
 41 43  1  0  0  0  0
 42 44  1  0  0  0  0
 42 45  1  0  0  0  0
 43 47  1  0  0  0  0
 44 49  1  0  0  0  0
 45 69  1  0  0  0  0
 46 49  1  0  0  0  0
 46 69  1  0  0  0  0
 47 72  1  0  0  0  0
 48 68  1  0  0  0  0
 49 67  1  0  0  0  0
 50 59  1  0  0  0  0
 51 61  1  0  0  0  0
 52 63  1  0  0  0  0
 53 64  1  0  0  0  0
 54 64  1  0  0  0  0
 55 64  1  0  0  0  0
 56 75  1  0  0  0  0
 57 74  1  0  0  0  0
 58 60  1  0  0  0  0
 59 61  1  0  0  0  0
 60 82  1  0  0  0  0
 62 64  1  0  0  0  0
 62 73  1  0  0  0  0
 63 75  1  0  0  0  0
 65 67  1  0  0  0  0
M  CHG  1  75   1
M  ISO  4  37 100  60 101  74 100  82 101
M  END
> <Batch ID>
0103

> <Smiles>
CCC(C)c1ccc(C[100NH:0][100C:0](=O)N2CCCC(n3nc(-c4ccc(Oc5ccc(F)cc5F)cc4)c(C(N)=O)c3N)C2)c(C[101CH2:1][101O:1]c2ccc3c(c2)CN(C(=O)C(NC(=O)C(C)NC)C(C)(C)C)C(C(=O)NC2CCCc4ccccc42)C3)n1

> <Shape>
0.264

> <Color>
0.153

> <Negative vol penalty>
0.000

$$$$

  -OEChem-04052319413D

 87 95  0     1  0  0  0  0  0999 V2000
  -18.0969  -27.3826   23.1978 C   0  0  0  0  0  0  0  0  0  0  0  0
  -18.9535  -26.3687   22.7812 C   0  0  0  0  0  0  0  0  0  0  0  0
  -24.4590  -13.6586   24.0864 C   0  0  0  0  0  0  0  0  0  0  0  0
  -23.8289  -15.4494   22.5921 C   0  0  0  0  0  0  0  0  0  0  0  0
  -18.4455  -28.7167   22.9917 C   0  0  0  0  0  0  0  0  0  0  0  0
  -20.1588  -26.6883   22.1570 C   0  0  0  0  0  0  0  0  0  0  0  0
  -25.4619  -23.6608   22.6221 C   0  0  0  0  0  0  0  0  0  0  0  0
  -23.9662  -14.3880   25.1684 C   0  0  0  0  0  0  0  0  0  0  0  0
  -23.3361  -16.1789   23.6741 C   0  0  0  0  0  0  0  0  0  0  0  0
  -26.0803  -22.7202   21.7995 C   0  0  0  0  0  0  0  0  0  0  0  0
  -21.5846  -18.3596   25.9968 C   0  0  0  0  0  0  0  0  0  0  0  0
  -20.3439  -18.9798   25.8505 C   0  0  0  0  0  0  0  0  0  0  0  0
  -27.3816  -24.4766   20.7794 C   0  0  0  0  0  0  0  0  0  0  0  0
  -29.8118  -18.4145   18.8416 C   0  0  0  0  0  0  0  0  0  0  0  0
  -27.7203  -20.0157   17.9226 C   0  0  0  0  0  0  0  0  0  0  0  0
  -19.3159  -16.8296   25.4538 C   0  0  0  0  0  0  0  0  0  0  0  0
  -24.3904  -14.1893   22.7983 C   0  0  0  0  0  0  0  0  0  0  0  0
  -24.1925  -12.5198   20.8796 C   0  0  0  0  0  0  0  0  0  0  0  0
  -19.6600  -29.0531   22.3733 C   0  0  0  0  0  0  0  0  0  0  0  0
  -25.7915  -25.0201   22.5217 C   0  0  0  0  0  0  0  0  0  0  0  0
  -20.5233  -28.0282   21.9411 C   0  0  0  0  0  0  0  0  0  0  0  0
  -26.7679  -25.4322   21.6036 C   0  0  0  0  0  0  0  0  0  0  0  0
  -29.0872  -19.1984   19.7394 C   0  0  0  0  0  0  0  0  0  0  0  0
  -29.4908  -18.4312   17.4843 C   0  0  0  0  0  0  0  0  0  0  0  0
  -28.0415  -19.9990   19.2799 C   0  0  0  0  0  0  0  0  0  0  0  0
  -28.4450  -19.2318   17.0248 C   0  0  0  0  0  0  0  0  0  0  0  0
  -23.4047  -15.6481   24.9622 C   0  0  0  0  0  0  0  0  0  0  0  0
  -27.0382  -23.1284   20.8760 C   0  0  0  0  0  0  0  0  0  0  0  0
  -21.6911  -16.9744   25.8715 C   0  0  0  0  0  0  0  0  0  0  0  0
  -19.2095  -18.2148   25.5790 C   0  0  0  0  0  0  0  0  0  0  0  0
  -20.5567  -16.2095   25.6000 C   0  0  0  0  0  0  0  0  0  0  0  0
  -24.8999  -13.4366   21.6802 C   0  0  0  0  0  0  0  0  0  0  0  0
  -25.1160  -12.0808   19.9627 C   0  0  0  0  0  0  0  0  0  0  0  0
  -22.8230  -12.1025   20.9577 C   0  0  0  0  0  0  0  0  0  0  0  0
  -24.1965  -27.6655   21.7722 C   0  0  0  0  0  0  0  0  0  0  0  0
  -26.9723  -29.1132   22.6216 C   0  0  0  0  0  0  0  0  0  0  0  0
  -30.3522  -28.8825   23.0338 C   0  0  0  0  0  0  0  0  0  0  0  0
  -30.1290  -14.4934   17.7489 C   0  0  0  0  0  0  0  0  0  0  0  0
  -19.9719  -30.5084   22.1295 C   0  0  0  0  0  0  0  0  0  0  0  0
  -25.1347  -26.0189   23.4348 C   0  0  0  0  0  0  0  0  0  0  0  0
  -27.1721  -26.8770   21.4707 C   0  0  0  0  0  0  0  0  0  0  0  0
  -21.4388  -30.7697   21.7980 C   0  0  0  0  0  0  0  0  0  0  0  0
  -29.8172  -11.3699   19.4293 C   0  0  0  0  0  0  0  0  0  0  0  0
  -21.9364  -29.7730   20.7560 C   0  0  0  0  0  0  0  0  0  0  0  0
  -28.4578  -11.4627   20.1245 C   0  0  0  0  0  0  0  0  0  0  0  0
  -30.5409  -12.7147   19.4231 C   0  0  0  0  0  0  0  0  0  0  0  0
  -28.4005  -13.9284   19.5627 C   0  0  0  0  0  0  0  0  0  0  0  0
  -21.8508  -28.3354   21.2827 C   0  0  1  0  0  0  0  0  0  0  0  0
  -25.1755  -27.4434   22.8903 C   0  0  1  0  0  0  0  0  0  0  0  0
  -27.6086  -12.6098   19.5446 C   0  0  2  0  0  0  0  0  0  0  0  0
  -28.2672  -20.6653   14.9591 C   0  0  0  0  0  0  0  0  0  0  0  0
  -26.6522  -18.7628   15.3160 C   0  0  0  0  0  0  0  0  0  0  0  0
  -32.3524  -30.2422   23.7031 C   0  0  0  0  0  0  0  0  0  0  0  0
  -26.9312  -30.5056   19.9069 C   0  0  0  0  0  0  0  0  0  0  0  0
  -29.3476  -31.0708   20.2381 C   0  0  0  0  0  0  0  0  0  0  0  0
  -27.6326  -31.9615   21.8155 C   0  0  0  0  0  0  0  0  0  0  0  0
  -30.9419  -27.1016   25.3228 C   0  0  0  0  0  0  0  0  0  0  0  0
  -29.4486  -19.1636   21.1881 C   0  0  0  0  0  0  0  0  0  0  0  0
  -30.2811  -17.5843   16.5417 C   0  0  0  0  0  0  0  0  0  0  0  0
  -27.2476  -20.8500   20.2270 C   0  0  0  0  0  0  0  0  0  1  0  0
  -30.3040  -20.3551   21.6584 C   0  0  0  0  0  0  0  0  0  0  0  0
  -29.5661  -16.2916   16.1338 C   0  0  0  0  0  0  0  0  0  0  0  0
  -30.7243  -20.3141   23.1244 C   0  0  0  0  0  0  0  0  0  0  0  0
  -28.0836  -19.2667   15.5761 C   0  0  0  0  0  0  0  0  0  0  0  0
  -28.2372  -29.5080   21.8981 C   0  0  1  0  0  0  0  0  0  0  0  0
  -31.2581  -29.2992   24.1784 C   0  0  2  0  0  0  0  0  0  0  0  0
  -28.0283  -30.7344   20.9656 C   0  0  0  0  0  0  0  0  0  0  0  0
  -26.1745  -13.5726   21.3050 N   0  0  0  0  0  0  0  0  0  0  0  0
  -26.2754  -12.7354   20.2585 N   0  0  0  0  0  0  0  0  0  0  0  0
  -26.4968  -27.8163   22.3813 N   0  0  0  0  0  0  0  0  0  0  0  0
  -29.6819  -13.7590   18.8597 N   0  0  0  0  0  0  0  0  0  0  0  0
  -25.0414  -11.2024   18.9403 N   0  0  0  0  0  0  0  0  0  0  0  0
  -22.0129  -12.6530   21.9602 N   0  0  0  0  0  0  0  0  0  0  0  0
  -22.9425  -28.0649   22.1934 N   0  0  0  0  0  0  0  0  0  0  0  0
  -29.2515  -29.7062   22.9278 N   0  0  0  0  0  0  0  0  0  0  0  0
  -29.2509  -15.4596   17.2736 N   0  0  0  0  0  0  0  0  0  0  0  0
  -31.5753  -19.1315   23.3927 N   0  3  0  0  0  0  0  0  0  0  0  0
  -31.9020  -28.1030   24.7912 N   0  3  0  0  0  0  0  0  0  0  0  0
  -22.3366  -11.2540   20.1723 O   0  0  0  0  0  0  0  0  0  0  0  0
  -24.5530  -27.4892   20.6131 O   0  0  0  0  0  0  0  0  0  0  0  0
  -26.4303  -29.9232   23.3777 O   0  0  0  0  0  0  0  0  0  0  0  0
  -30.5985  -27.9247   22.3042 O   0  0  0  0  0  0  0  0  0  0  0  0
  -31.2271  -14.2985   17.2167 O   0  0  0  0  0  0  0  0  0  0  0  0
  -22.9235  -16.3601   26.0178 O   0  0  0  0  0  0  0  0  0  0  0  0
  -27.6428  -22.2124   20.0715 O   0  0  0  0  0  0  0  0  0  1  0  0
  -18.0178  -18.8104   25.4401 F   0  0  0  0  0  0  0  0  0  0  0  0
  -20.6526  -14.8782   25.4798 F   0  0  0  0  0  0  0  0  0  0  0  0
  1  2  1  0  0  0  0
  1  5  2  0  0  0  0
  2  6  2  0  0  0  0
  3  8  2  0  0  0  0
  3 17  1  0  0  0  0
  4  9  1  0  0  0  0
  4 17  2  0  0  0  0
  5 19  1  0  0  0  0
  6 21  1  0  0  0  0
  7 10  2  0  0  0  0
  7 20  1  0  0  0  0
  8 27  1  0  0  0  0
  9 27  2  0  0  0  0
 10 28  1  0  0  0  0
 11 12  2  0  0  0  0
 11 29  1  0  0  0  0
 12 30  1  0  0  0  0
 13 22  1  0  0  0  0
 13 28  2  0  0  0  0
 14 23  1  0  0  0  0
 14 24  2  0  0  0  0
 15 25  1  0  0  0  0
 15 26  2  0  0  0  0
 16 30  2  0  0  0  0
 16 31  1  0  0  0  0
 17 32  1  0  0  0  0
 18 32  1  0  0  0  0
 18 33  2  0  0  0  0
 18 34  1  0  0  0  0
 19 21  2  0  0  0  0
 19 39  1  0  0  0  0
 20 22  2  0  0  0  0
 20 40  1  0  0  0  0
 21 48  1  0  0  0  0
 22 41  1  0  0  0  0
 23 25  2  0  0  0  0
 23 58  1  0  0  0  0
 24 26  1  0  0  0  0
 24 59  1  0  0  0  0
 25 60  1  0  0  0  0
 26 64  1  0  0  0  0
 27 84  1  0  0  0  0
 28 85  1  0  0  0  0
 29 31  2  0  0  0  0
 29 84  1  0  0  0  0
 30 86  1  0  0  0  0
 31 87  1  0  0  0  0
 32 68  2  0  0  0  0
 33 69  1  0  0  0  0
 33 72  1  0  0  0  0
 34 73  1  0  0  0  0
 34 79  2  0  0  0  0
 35 49  1  0  0  0  0
 35 74  1  0  0  0  0
 35 80  2  0  0  0  0
 36 65  1  0  0  0  0
 36 70  1  0  0  0  0
 36 81  2  0  0  0  0
 37 66  1  0  0  0  0
 37 75  1  0  0  0  0
 37 82  2  0  0  0  0
 38 71  1  0  0  0  0
 38 76  1  0  0  0  0
 38 83  2  0  0  0  0
 39 42  1  0  0  0  0
 40 49  1  0  0  0  0
 41 70  1  0  0  0  0
 42 44  1  0  0  0  0
 43 45  1  0  0  0  0
 43 46  1  0  0  0  0
 44 48  1  0  0  0  0
 45 50  1  0  0  0  0
 46 71  1  0  0  0  0
 47 50  1  0  0  0  0
 47 71  1  0  0  0  0
 48 74  1  0  0  0  0
 49 70  1  0  0  0  0
 50 69  1  0  0  0  0
 51 64  1  0  0  0  0
 52 64  1  0  0  0  0
 53 66  1  0  0  0  0
 54 67  1  0  0  0  0
 55 67  1  0  0  0  0
 56 67  1  0  0  0  0
 57 78  1  0  0  0  0
 58 61  1  0  0  0  0
 59 62  1  0  0  0  0
 60 85  1  0  0  0  0
 61 63  1  0  0  0  0
 62 76  1  0  0  0  0
 63 77  1  0  0  0  0
 65 67  1  0  0  0  0
 65 75  1  0  0  0  0
 66 78  1  0  0  0  0
 68 69  1  0  0  0  0
M  CHG  2  77   1  78   1
M  ISO  4  38 100  60 101  76 100  85 101
M  END
> <Batch ID>
0103

> <Smiles>
CNC(C)C(=O)NC(C(=O)N1Cc2cc([101O:1][101CH2:1]c3cc(C(C)C)c(CC[100NH:0][100C:0](=O)N4CCCC(n5nc(-c6ccc(Oc7ccc(F)cc7F)cc6)c(C(N)=O)c5N)C4)cc3CCCN)ccc2CC1C(=O)NC1CCCc2ccccc21)C(C)(C)C

> <Shape>
0.206

> <Color>
0.075

> <Negative vol penalty>
0.000

$$$$

  -OEChem-04052319413D

 81 88  0     1  0  0  0  0  0999 V2000
  -25.1231  -36.3398   23.4105 C   0  0  0  0  0  0  0  0  0  0  0  0
  -25.9398  -35.7915   22.4267 C   0  0  0  0  0  0  0  0  0  0  0  0
  -24.5510  -11.7954   21.7091 C   0  0  0  0  0  0  0  0  0  0  0  0
  -24.9226  -11.7212   19.3230 C   0  0  0  0  0  0  0  0  0  0  0  0
  -24.8155  -35.6001   24.5516 C   0  0  0  0  0  0  0  0  0  0  0  0
  -26.4503  -34.5035   22.5840 C   0  0  0  0  0  0  0  0  0  0  0  0
  -28.2841  -28.7211   18.7739 C   0  0  0  0  0  0  0  0  0  0  0  0
  -23.8168  -10.6120   21.6316 C   0  0  0  0  0  0  0  0  0  0  0  0
  -24.1885  -10.5377   19.2455 C   0  0  0  0  0  0  0  0  0  0  0  0
  -29.3545  -27.8466   18.5912 C   0  0  0  0  0  0  0  0  0  0  0  0
  -22.1497   -7.4180   22.1155 C   0  0  0  0  0  0  0  0  0  0  0  0
  -22.4032   -6.4338   23.0709 C   0  0  0  0  0  0  0  0  0  0  0  0
  -28.6914  -26.6319   20.5671 C   0  0  0  0  0  0  0  0  0  0  0  0
  -24.7023   -6.3146   22.3381 C   0  0  0  0  0  0  0  0  0  0  0  0
  -25.1039  -12.3501   20.5548 C   0  0  0  0  0  0  0  0  0  0  0  0
  -27.2477  -13.7018   20.8457 C   0  0  0  0  0  0  0  0  0  0  0  0
  -25.3146  -34.2987   24.7184 C   0  0  0  0  0  0  0  0  0  0  0  0
  -27.4143  -28.5638   19.8625 C   0  0  0  0  0  0  0  0  0  0  0  0
  -26.1502  -33.7461   23.7290 C   0  0  0  0  0  0  0  0  0  0  0  0
  -27.6093  -27.5043   20.7599 C   0  0  0  0  0  0  0  0  0  0  0  0
  -23.6356   -9.9831   20.3998 C   0  0  0  0  0  0  0  0  0  0  0  0
  -29.5600  -26.8035   19.4895 C   0  0  0  0  0  0  0  0  0  0  0  0
  -23.1725   -7.8504   21.2713 C   0  0  0  0  0  0  0  0  0  0  0  0
  -23.6795   -5.8822   23.1822 C   0  0  0  0  0  0  0  0  0  0  0  0
  -24.4488   -7.2987   21.3826 C   0  0  0  0  0  0  0  0  0  0  0  0
  -25.8619  -13.5729   20.6341 C   0  0  0  0  0  0  0  0  0  0  0  0
  -27.4716  -15.0569   20.8376 C   0  0  0  0  0  0  0  0  0  0  0  0
  -28.2434  -12.6874   21.0328 C   0  0  0  0  0  0  0  0  0  0  0  0
  -26.6246  -30.3401   22.3774 C   0  0  0  0  0  0  0  0  0  0  0  0
  -24.4579  -27.9778   22.8748 C   0  0  0  0  0  0  0  0  0  0  0  0
  -23.5538  -24.7245   22.3797 C   0  0  0  0  0  0  0  0  0  0  0  0
  -26.6489  -20.1124   18.6218 C   0  0  0  0  0  0  0  0  0  0  0  0
  -24.9932  -33.5556   25.9909 C   0  0  0  0  0  0  0  0  0  0  0  0
  -26.2488  -29.4996   20.0305 C   0  0  0  0  0  0  0  0  0  0  0  0
  -26.6922  -27.2799   21.9334 C   0  0  0  0  0  0  0  0  0  0  0  0
  -25.2693  -32.0565   25.9071 C   0  0  0  0  0  0  0  0  0  0  0  0
  -24.2218  -18.9316   20.9438 C   0  0  0  0  0  0  0  0  0  0  0  0
  -26.6379  -31.7998   25.2845 C   0  0  0  0  0  0  0  0  0  0  0  0
  -24.5425  -17.4424   21.0826 C   0  0  0  0  0  0  0  0  0  0  0  0
  -24.4431  -19.4259   19.5159 C   0  0  0  0  0  0  0  0  0  0  0  0
  -26.0999  -17.6494   19.1000 C   0  0  0  0  0  0  0  0  0  0  0  0
  -26.7030  -32.3428   23.8519 C   0  0  1  0  0  0  0  0  0  0  0  0
  -25.7279  -29.5540   21.4633 C   0  0  1  0  0  0  0  0  0  0  0  0
  -25.9454  -17.1176   20.5351 C   0  0  2  0  0  0  0  0  0  0  0  0
  -21.7478  -23.0747   22.9400 C   0  0  0  0  0  0  0  0  0  0  0  0
  -25.5716  -27.7232   25.7041 C   0  0  0  0  0  0  0  0  0  0  0  0
  -24.4308  -25.5014   25.8784 C   0  0  0  0  0  0  0  0  0  0  0  0
  -23.0803  -27.5723   25.5461 C   0  0  0  0  0  0  0  0  0  0  0  0
  -30.8555  -19.2411   18.5292 C   0  0  0  0  0  0  0  0  0  0  0  0
  -29.8677  -20.9211   20.0674 C   0  0  0  0  0  0  0  0  0  0  0  0
  -31.6600  -21.5111   16.5794 C   0  0  0  0  0  0  0  0  0  0  0  0
  -22.8805  -24.3168   19.5267 C   0  0  0  0  0  0  0  0  0  0  0  0
  -31.6641  -24.3306   17.8300 C   0  0  0  0  0  0  0  0  0  0  0  0
  -30.6723  -23.2073   18.1874 C   0  0  0  0  0  0  0  0  0  0  0  0
  -28.9071  -20.6448   17.7408 C   0  0  0  0  0  0  0  0  0  0  0  0
  -31.0365  -25.7150   17.9760 C   0  0  0  0  0  0  0  0  0  1  0  0
  -24.4569  -26.6692   23.6275 C   0  0  1  0  0  0  0  0  0  0  0  0
  -22.2446  -24.0997   21.9324 C   0  0  2  0  0  0  0  0  0  0  0  0
  -24.4035  -26.8717   25.1681 C   0  0  0  0  0  0  0  0  0  0  0  0
  -30.2164  -20.6549   18.5797 C   0  0  0  0  0  0  0  0  0  0  0  0
  -31.2323  -21.7614   18.0388 C   0  0  1  0  0  0  0  0  0  0  0  0
  -25.2486  -14.7520   20.5014 N   0  0  0  0  0  0  0  0  0  0  0  0
  -26.2538  -15.6347   20.6300 N   0  0  0  0  0  0  0  0  0  0  0  0
  -25.5706  -28.2254   22.0584 N   0  0  0  0  0  0  0  0  0  0  0  0
  -25.7926  -19.0877   19.0574 N   0  0  0  0  0  0  0  0  0  0  0  0
  -28.5895  -15.7986   20.9879 N   0  0  0  0  0  0  0  0  0  0  0  0
  -27.8415  -11.3448   21.0128 N   0  0  0  0  0  0  0  0  0  0  0  0
  -26.0214  -31.4483   22.9410 N   0  0  0  0  0  0  0  0  0  0  0  0
  -23.3481  -25.8892   23.0885 N   0  0  0  0  0  0  0  0  0  0  0  0
  -27.9122  -19.7062   18.2099 N   0  0  0  0  0  0  0  0  0  0  0  0
  -22.4174  -23.4205   20.6172 N   0  3  0  0  0  0  0  0  0  0  0  0
  -29.4512  -12.9638   21.2289 O   0  0  0  0  0  0  0  0  0  0  0  0
  -27.7779  -29.9679   22.5592 O   0  0  0  0  0  0  0  0  0  0  0  0
  -23.5032  -28.7487   23.0009 O   0  0  0  0  0  0  0  0  0  0  0  0
  -24.6493  -24.2269   22.1288 O   0  0  0  0  0  0  0  0  0  0  0  0
  -26.3142  -21.3018   18.6064 O   0  0  0  0  0  0  0  0  0  0  0  0
  -32.4250  -21.7174   18.8413 O   0  0  0  0  0  0  0  0  0  0  0  0
  -22.9194   -8.8281   20.3238 O   0  0  0  0  0  0  0  0  0  0  0  0
  -30.6120  -25.9426   19.3126 O   0  0  0  0  0  0  0  0  0  1  0  0
  -23.9231   -4.9382   24.1007 F   0  0  0  0  0  0  0  0  0  0  0  0
  -25.4357   -7.7110   20.5752 F   0  0  0  0  0  0  0  0  0  0  0  0
  1  2  1  0  0  0  0
  1  5  2  0  0  0  0
  2  6  2  0  0  0  0
  3  8  2  0  0  0  0
  3 15  1  0  0  0  0
  4  9  1  0  0  0  0
  4 15  2  0  0  0  0
  5 17  1  0  0  0  0
  6 19  1  0  0  0  0
  7 10  2  0  0  0  0
  7 18  1  0  0  0  0
  8 21  1  0  0  0  0
  9 21  2  0  0  0  0
 10 22  1  0  0  0  0
 11 12  2  0  0  0  0
 11 23  1  0  0  0  0
 12 24  1  0  0  0  0
 13 20  1  0  0  0  0
 13 22  2  0  0  0  0
 14 24  2  0  0  0  0
 14 25  1  0  0  0  0
 15 26  1  0  0  0  0
 16 26  1  0  0  0  0
 16 27  2  0  0  0  0
 16 28  1  0  0  0  0
 17 19  2  0  0  0  0
 17 33  1  0  0  0  0
 18 20  2  0  0  0  0
 18 34  1  0  0  0  0
 19 42  1  0  0  0  0
 20 35  1  0  0  0  0
 21 78  1  0  0  0  0
 22 79  1  0  0  0  0
 23 25  2  0  0  0  0
 23 78  1  0  0  0  0
 24 80  1  0  0  0  0
 25 81  1  0  0  0  0
 26 62  2  0  0  0  0
 27 63  1  0  0  0  0
 27 66  1  0  0  0  0
 28 67  1  0  0  0  0
 28 72  2  0  0  0  0
 29 43  1  0  0  0  0
 29 68  1  0  0  0  0
 29 73  2  0  0  0  0
 30 57  1  0  0  0  0
 30 64  1  0  0  0  0
 30 74  2  0  0  0  0
 31 58  1  0  0  0  0
 31 69  1  0  0  0  0
 31 75  2  0  0  0  0
 32 65  1  0  0  0  0
 32 70  1  0  0  0  0
 32 76  2  0  0  0  0
 33 36  1  0  0  0  0
 34 43  1  0  0  0  0
 35 64  1  0  0  0  0
 36 38  1  0  0  0  0
 37 39  1  0  0  0  0
 37 40  1  0  0  0  0
 38 42  1  0  0  0  0
 39 44  1  0  0  0  0
 40 65  1  0  0  0  0
 41 44  1  0  0  0  0
 41 65  1  0  0  0  0
 42 68  1  0  0  0  0
 43 64  1  0  0  0  0
 44 63  1  0  0  0  0
 45 58  1  0  0  0  0
 46 59  1  0  0  0  0
 47 59  1  0  0  0  0
 48 59  1  0  0  0  0
 49 60  1  0  0  0  0
 50 60  1  0  0  0  0
 51 61  1  0  0  0  0
 52 71  1  0  0  0  0
 53 54  1  0  0  0  0
 53 56  1  0  0  0  0
 54 61  1  0  0  0  0
 55 60  1  0  0  0  0
 55 70  1  0  0  0  0
 56 79  1  0  0  0  0
 57 59  1  0  0  0  0
 57 69  1  0  0  0  0
 58 71  1  0  0  0  0
 60 61  1  0  0  0  0
 61 77  1  0  0  0  0
 62 63  1  0  0  0  0
M  CHG  1  71   1
M  ISO  4  32 100  56 101  70 100  79 101
M  END
> <Batch ID>
0103

> <Smiles>
CNC(C)C(=O)NC(C(=O)N1Cc2cc([101O:1][101CH2:1]CCC(C)(O)C(C)(C)C[100NH:0][100C:0](=O)N3CCCC(n4nc(-c5ccc(Oc6ccc(F)cc6F)cc5)c(C(N)=O)c4N)C3)ccc2CC1C(=O)NC1CCCc2ccccc21)C(C)(C)C

> <Shape>
0.267

> <Color>
0.052

> <Negative vol penalty>
0.000

$$$$

  -OEChem-04052319413D

 83 91  0     1  0  0  0  0  0999 V2000
  -16.8021  -29.8385   23.1799 C   0  0  0  0  0  0  0  0  0  0  0  0
  -17.9719  -30.3540   22.6310 C   0  0  0  0  0  0  0  0  0  0  0  0
  -27.1073  -17.9883   20.2605 C   0  0  0  0  0  0  0  0  0  0  0  0
  -29.3830  -17.1871   20.3884 C   0  0  0  0  0  0  0  0  0  0  0  0
  -16.8289  -28.6196   23.8563 C   0  0  0  0  0  0  0  0  0  0  0  0
  -19.1695  -29.6513   22.7591 C   0  0  0  0  0  0  0  0  0  0  0  0
  -25.2906  -28.3683   19.2659 C   0  0  0  0  0  0  0  0  0  0  0  0
  -26.6716  -16.7009   19.9470 C   0  0  0  0  0  0  0  0  0  0  0  0
  -28.9473  -15.8996   20.0748 C   0  0  0  0  0  0  0  0  0  0  0  0
  -26.6706  -28.4157   19.4580 C   0  0  0  0  0  0  0  0  0  0  0  0
  -24.9153  -13.5543   19.4675 C   0  0  0  0  0  0  0  0  0  0  0  0
  -23.7816  -13.0755   20.1240 C   0  0  0  0  0  0  0  0  0  0  0  0
  -26.5818  -26.2815   20.5788 C   0  0  0  0  0  0  0  0  0  0  0  0
  -24.9017  -13.3363   22.2487 C   0  0  0  0  0  0  0  0  0  0  0  0
  -31.3269  -27.4766   21.0055 C   0  0  0  0  0  0  0  0  0  0  0  0
  -28.4630  -18.2314   20.4812 C   0  0  0  0  0  0  0  0  0  0  0  0
  -29.0411  -20.1272   22.0872 C   0  0  0  0  0  0  0  0  0  0  0  0
  -18.0256  -27.8969   23.9843 C   0  0  0  0  0  0  0  0  0  0  0  0
  -24.5430  -27.2805   19.7392 C   0  0  0  0  0  0  0  0  0  0  0  0
  -19.2126  -28.4222   23.4389 C   0  0  0  0  0  0  0  0  0  0  0  0
  -25.1927  -26.2215   20.3892 C   0  0  0  0  0  0  0  0  0  0  0  0
  -32.6970  -27.6177   21.0253 C   0  0  0  0  0  0  0  0  0  0  0  0
  -33.0287  -28.6537   20.1177 C   0  0  0  0  0  0  0  0  0  0  0  0
  -27.5916  -15.6565   19.8541 C   0  0  0  0  0  0  0  0  0  0  0  0
  -27.3161  -27.3736   20.1171 C   0  0  0  0  0  0  0  0  0  0  0  0
  -26.0423  -13.9241   20.2016 C   0  0  0  0  0  0  0  0  0  0  0  0
  -23.7748  -12.9665   21.5146 C   0  0  0  0  0  0  0  0  0  0  0  0
  -26.0355  -13.8151   21.5922 C   0  0  0  0  0  0  0  0  0  0  0  0
  -28.9137  -19.5612   20.8046 C   0  0  0  0  0  0  0  0  0  0  0  0
  -31.8512  -29.1143   19.5711 C   0  0  0  0  0  0  0  0  0  0  0  0
  -29.5031  -21.3999   21.8566 C   0  0  0  0  0  0  0  0  0  0  0  0
  -28.7666  -19.5537   23.3723 C   0  0  0  0  0  0  0  0  0  0  0  0
  -22.1908  -26.9225   21.8471 C   0  0  0  0  0  0  0  0  0  0  0  0
  -22.1988  -23.8692   20.7520 C   0  0  0  0  0  0  0  0  0  0  0  0
  -23.8419  -20.8625   19.6216 C   0  0  0  0  0  0  0  0  0  0  0  0
  -32.9194  -24.9326   19.2120 C   0  0  0  0  0  0  0  0  0  0  0  0
  -18.0143  -26.6065   24.7651 C   0  0  0  0  0  0  0  0  0  0  0  0
  -23.0587  -27.2318   19.5003 C   0  0  0  0  0  0  0  0  0  0  0  0
  -24.4386  -25.0214   20.8985 C   0  0  0  0  0  0  0  0  0  0  0  0
  -19.2515  -25.7431   24.5324 C   0  0  0  0  0  0  0  0  0  0  0  0
  -29.9017  -24.0282   17.5531 C   0  0  0  0  0  0  0  0  0  0  0  0
  -20.5173  -26.5901   24.6167 C   0  0  0  0  0  0  0  0  0  0  0  0
  -29.3899  -22.8289   18.3529 C   0  0  0  0  0  0  0  0  0  0  0  0
  -31.4255  -24.0313   17.4535 C   0  0  0  0  0  0  0  0  0  0  0  0
  -31.6191  -22.7431   19.5455 C   0  0  0  0  0  0  0  0  0  0  0  0
  -20.5265  -27.6775   23.5355 C   0  0  1  0  0  0  0  0  0  0  0  0
  -22.3258  -26.3183   20.4780 C   0  0  1  0  0  0  0  0  0  0  0  0
  -30.0909  -22.7269   19.7209 C   0  0  2  0  0  0  0  0  0  0  0  0
  -31.6149  -30.1807   18.5749 C   0  0  0  0  0  0  0  0  0  0  0  0
  -34.5839  -30.6360   20.1905 C   0  0  0  0  0  0  0  0  0  0  0  0
  -34.7848  -28.9439   18.3327 C   0  0  0  0  0  0  0  0  0  0  0  0
  -22.8874  -18.6972   18.7862 C   0  0  0  0  0  0  0  0  0  0  0  0
  -22.4768  -22.9623   23.6521 C   0  0  0  0  0  0  0  0  0  0  0  0
  -23.1717  -20.7099   22.8081 C   0  0  0  0  0  0  0  0  0  0  0  0
  -20.8996  -21.5923   22.2772 C   0  0  0  0  0  0  0  0  0  0  0  0
  -25.3824  -21.0224   17.0997 C   0  0  0  0  0  0  0  0  0  0  0  0
  -33.6370  -26.8280   21.8456 C   0  0  0  0  0  0  0  0  0  0  0  0
  -34.3654  -25.7146   21.0712 C   0  0  0  0  0  0  0  0  0  0  0  0
  -29.3604  -28.5615   19.8054 C   0  0  0  0  0  0  0  0  0  1  0  0
  -34.3862  -29.1504   19.8119 C   0  0  0  0  0  0  0  0  0  0  0  0
  -22.9181  -22.5982   21.1344 C   0  0  1  0  0  0  0  0  0  0  0  0
  -23.4877  -20.0391   18.3965 C   0  0  2  0  0  0  0  0  0  0  0  0
  -22.3808  -21.9890   22.4602 C   0  0  0  0  0  0  0  0  0  0  0  0
  -29.2661  -20.4052   19.8312 N   0  0  0  0  0  0  0  0  0  0  0  0
  -30.8234  -28.3917   20.1183 N   0  0  0  0  0  0  0  0  0  0  0  0
  -29.6194  -21.5146   20.5025 N   0  0  0  0  0  0  0  0  0  0  0  0
  -22.9881  -25.0232   20.6463 N   0  0  0  0  0  0  0  0  0  0  0  0
  -32.0287  -23.9340   18.7849 N   0  0  0  0  0  0  0  0  0  0  0  0
  -29.8170  -22.4210   22.6819 N   0  0  0  0  0  0  0  0  0  0  0  0
  -28.2980  -18.2340   23.4287 N   0  0  0  0  0  0  0  0  0  0  0  0
  -20.8833  -27.1113   22.2523 N   0  0  0  0  0  0  0  0  0  0  0  0
  -22.8146  -21.7083   19.9829 N   0  0  0  0  0  0  0  0  0  0  0  0
  -33.4409  -24.7673   20.4893 N   0  0  0  0  0  0  0  0  0  0  0  0
  -24.7033  -19.7883   17.5717 N   0  3  0  0  0  0  0  0  0  0  0  0
  -28.9162  -20.1981   24.4381 O   0  0  0  0  0  0  0  0  0  0  0  0
  -23.1984  -27.1958   22.4889 O   0  0  0  0  0  0  0  0  0  0  0  0
  -20.9828  -23.8377   20.5475 O   0  0  0  0  0  0  0  0  0  0  0  0
  -24.9204  -20.7625   20.2024 O   0  0  0  0  0  0  0  0  0  0  0  0
  -33.2231  -25.9026   18.5093 O   0  0  0  0  0  0  0  0  0  0  0  0
  -27.1668  -14.4001   19.5484 O   0  0  0  0  0  0  0  0  0  0  0  0
  -28.6629  -27.4176   20.3066 O   0  0  0  0  0  0  0  0  0  1  0  0
  -22.6854  -12.5081   22.1450 F   0  0  0  0  0  0  0  0  0  0  0  0
  -27.1148  -14.1699   22.3029 F   0  0  0  0  0  0  0  0  0  0  0  0
  1  2  1  0  0  0  0
  1  5  2  0  0  0  0
  2  6  2  0  0  0  0
  3  8  2  0  0  0  0
  3 16  1  0  0  0  0
  4  9  1  0  0  0  0
  4 16  2  0  0  0  0
  5 18  1  0  0  0  0
  6 20  1  0  0  0  0
  7 10  2  0  0  0  0
  7 19  1  0  0  0  0
  8 24  1  0  0  0  0
  9 24  2  0  0  0  0
 10 25  1  0  0  0  0
 11 12  2  0  0  0  0
 11 26  1  0  0  0  0
 12 27  1  0  0  0  0
 13 21  1  0  0  0  0
 13 25  2  0  0  0  0
 14 27  2  0  0  0  0
 14 28  1  0  0  0  0
 15 22  2  0  0  0  0
 15 65  1  0  0  0  0
 16 29  1  0  0  0  0
 17 29  1  0  0  0  0
 17 31  2  0  0  0  0
 17 32  1  0  0  0  0
 18 20  2  0  0  0  0
 18 37  1  0  0  0  0
 19 21  2  0  0  0  0
 19 38  1  0  0  0  0
 20 46  1  0  0  0  0
 21 39  1  0  0  0  0
 22 23  1  0  0  0  0
 22 57  1  0  0  0  0
 23 30  2  0  0  0  0
 23 60  1  0  0  0  0
 24 80  1  0  0  0  0
 25 81  1  0  0  0  0
 26 28  2  0  0  0  0
 26 80  1  0  0  0  0
 27 82  1  0  0  0  0
 28 83  1  0  0  0  0
 29 64  2  0  0  0  0
 30 49  1  0  0  0  0
 30 65  1  0  0  0  0
 31 66  1  0  0  0  0
 31 69  1  0  0  0  0
 32 70  1  0  0  0  0
 32 75  2  0  0  0  0
 33 47  1  0  0  0  0
 33 71  1  0  0  0  0
 33 76  2  0  0  0  0
 34 61  1  0  0  0  0
 34 67  1  0  0  0  0
 34 77  2  0  0  0  0
 35 62  1  0  0  0  0
 35 72  1  0  0  0  0
 35 78  2  0  0  0  0
 36 68  1  0  0  0  0
 36 73  1  0  0  0  0
 36 79  2  0  0  0  0
 37 40  1  0  0  0  0
 38 47  1  0  0  0  0
 39 67  1  0  0  0  0
 40 42  1  0  0  0  0
 41 43  1  0  0  0  0
 41 44  1  0  0  0  0
 42 46  1  0  0  0  0
 43 48  1  0  0  0  0
 44 68  1  0  0  0  0
 45 48  1  0  0  0  0
 45 68  1  0  0  0  0
 46 71  1  0  0  0  0
 47 67  1  0  0  0  0
 48 66  1  0  0  0  0
 50 60  1  0  0  0  0
 51 60  1  0  0  0  0
 52 62  1  0  0  0  0
 53 63  1  0  0  0  0
 54 63  1  0  0  0  0
 55 63  1  0  0  0  0
 56 74  1  0  0  0  0
 57 58  1  0  0  0  0
 58 73  1  0  0  0  0
 59 65  1  0  0  0  0
 59 81  1  0  0  0  0
 61 63  1  0  0  0  0
 61 72  1  0  0  0  0
 62 74  1  0  0  0  0
 64 66  1  0  0  0  0
M  CHG  1  74   1
M  ISO  4  36 100  59 101  73 100  81 101
M  END
> <Batch ID>
0103

> <Smiles>
CNC(C)C(=O)NC(C(=O)N1Cc2cc([101O:1][101CH2:1]n3cc(CC[100NH:0][100C:0](=O)N4CCCC(n5nc(-c6ccc(Oc7ccc(F)cc7F)cc6)c(C(N)=O)c5N)C4)c(C(C)C)c3C)ccc2CC1C(=O)NC1CCCc2ccccc21)C(C)(C)C

> <Shape>
0.206

> <Color>
0.066

> <Negative vol penalty>
0.000

$$$$

  -OEChem-04052319413D

 84 92  0     1  0  0  0  0  0999 V2000
  -19.6264  -21.3769   27.6520 C   0  0  0  0  0  0  0  0  0  0  0  0
  -20.2498  -21.1726   26.4252 C   0  0  0  0  0  0  0  0  0  0  0  0
  -22.0252  -14.9869   21.0454 C   0  0  0  0  0  0  0  0  0  0  0  0
  -23.5375  -16.2406   22.4518 C   0  0  0  0  0  0  0  0  0  0  0  0
  -19.0986  -22.6290   27.9645 C   0  0  0  0  0  0  0  0  0  0  0  0
  -20.3448  -22.2201   25.5096 C   0  0  0  0  0  0  0  0  0  0  0  0
  -24.9468  -22.5669   23.4249 C   0  0  0  0  0  0  0  0  0  0  0  0
  -21.0579  -15.0272   22.0495 C   0  0  0  0  0  0  0  0  0  0  0  0
  -22.5702  -16.2809   23.4560 C   0  0  0  0  0  0  0  0  0  0  0  0
  -25.2562  -21.6618   22.4106 C   0  0  0  0  0  0  0  0  0  0  0  0
  -18.8111  -17.2472   23.2562 C   0  0  0  0  0  0  0  0  0  0  0  0
  -17.5037  -17.5609   22.8847 C   0  0  0  0  0  0  0  0  0  0  0  0
  -24.7867  -23.3588   20.7616 C   0  0  0  0  0  0  0  0  0  0  0  0
  -16.7508  -15.4275   23.7326 C   0  0  0  0  0  0  0  0  0  0  0  0
  -23.2651  -15.5936   21.2465 C   0  0  0  0  0  0  0  0  0  0  0  0
  -24.1572  -16.0660   18.9038 C   0  0  0  0  0  0  0  0  0  0  0  0
  -19.1957  -23.6950   27.0562 C   0  0  0  0  0  0  0  0  0  0  0  0
  -24.5439  -23.8737   23.1144 C   0  0  0  0  0  0  0  0  0  0  0  0
  -19.8166  -23.4873   25.8097 C   0  0  0  0  0  0  0  0  0  0  0  0
  -24.4753  -24.2793   21.7739 C   0  0  0  0  0  0  0  0  0  0  0  0
  -21.3304  -15.6742   23.2548 C   0  0  0  0  0  0  0  0  0  0  0  0
  -25.1734  -22.0568   21.0786 C   0  0  0  0  0  0  0  0  0  0  0  0
  -19.0883  -16.0236   23.8658 C   0  0  0  0  0  0  0  0  0  0  0  0
  -16.4736  -16.6511   23.1230 C   0  0  0  0  0  0  0  0  0  0  0  0
  -18.0582  -15.1138   24.1041 C   0  0  0  0  0  0  0  0  0  0  0  0
  -24.2649  -15.5518   20.2098 C   0  0  0  0  0  0  0  0  0  0  0  0
  -25.3658  -15.7752   18.3196 C   0  0  0  0  0  0  0  0  0  0  0  0
  -23.0627  -16.7459   18.2749 C   0  0  0  0  0  0  0  0  0  0  0  0
  -21.9097  -25.5845   23.6022 C   0  0  0  0  0  0  0  0  0  0  0  0
  -23.7026  -27.9805   22.3503 C   0  0  0  0  0  0  0  0  0  0  0  0
  -30.8138  -14.7797   20.6520 C   0  0  0  0  0  0  0  0  0  0  0  0
  -26.3360  -28.9066   20.3871 C   0  0  0  0  0  0  0  0  0  0  0  0
  -18.5683  -25.0176   27.4194 C   0  0  0  0  0  0  0  0  0  0  0  0
  -24.2395  -24.8459   24.2210 C   0  0  0  0  0  0  0  0  0  0  0  0
  -24.0675  -25.6769   21.3882 C   0  0  0  0  0  0  0  0  0  0  0  0
  -19.0419  -26.1766   26.5461 C   0  0  0  0  0  0  0  0  0  0  0  0
  -28.9498  -12.6214   18.4823 C   0  0  0  0  0  0  0  0  0  0  0  0
  -19.0150  -25.7809   25.0732 C   0  0  0  0  0  0  0  0  0  0  0  0
  -27.7082  -18.2302   19.3755 C   0  0  0  0  0  0  0  0  0  0  0  0
  -28.8665  -19.7985   20.9864 C   0  0  0  0  0  0  0  0  0  0  0  0
  -27.5223  -13.1573   18.5828 C   0  0  0  0  0  0  0  0  0  0  0  0
  -26.6077  -19.2656   19.1647 C   0  0  0  0  0  0  0  0  0  0  0  0
  -27.7623  -20.8294   20.7715 C   0  0  0  0  0  0  0  0  0  0  0  0
  -29.6876  -12.7450   19.8118 C   0  0  0  0  0  0  0  0  0  0  0  0
  -28.2787  -14.6690   20.4717 C   0  0  0  0  0  0  0  0  0  0  0  0
  -19.9612  -24.6054   24.8003 C   0  0  1  0  0  0  0  0  0  0  0  0
  -23.3440  -25.9977   23.7748 C   0  0  1  0  0  0  0  0  0  0  0  0
  -29.0393  -18.8908   19.7607 C   0  0  0  0  0  0  0  0  0  0  0  0
  -27.5081  -14.5911   19.1418 C   0  0  2  0  0  0  0  0  0  0  0  0
  -26.4412  -20.1684   20.3841 C   0  0  0  0  0  0  0  0  0  1  0  0
  -32.3366  -17.3673   23.0979 C   0  0  0  0  0  0  0  0  0  0  0  0
  -27.5312  -30.9374   19.5239 C   0  0  0  0  0  0  0  0  0  0  0  0
  -30.2483  -15.1050   23.0231 C   0  0  0  0  0  0  0  0  0  0  0  0
  -30.2942  -16.9673   18.7657 C   0  0  0  0  0  0  0  0  0  0  0  0
  -31.4390  -18.5933   20.2633 C   0  0  0  0  0  0  0  0  0  0  0  0
  -21.4460  -28.4564   20.3524 C   0  0  0  0  0  0  0  0  0  0  0  0
  -23.0476  -29.7930   18.9679 C   0  0  0  0  0  0  0  0  0  0  0  0
  -22.4757  -30.5388   21.2787 C   0  0  0  0  0  0  0  0  0  0  0  0
  -28.8665  -28.1206   21.7054 C   0  0  0  0  0  0  0  0  0  0  0  0
  -32.1798  -16.3060   22.0128 C   0  0  0  0  0  0  0  0  0  0  0  0
  -29.8201  -16.9957   21.3063 C   0  0  0  0  0  0  0  0  0  0  0  0
  -23.9547  -28.5131   20.9604 C   0  0  1  0  0  0  0  0  0  0  0  0
  -27.4716  -29.8864   20.6215 C   0  0  2  0  0  0  0  0  0  0  0  0
  -30.7260  -15.8112   21.7485 C   0  0  1  0  0  0  0  0  0  0  0  0
  -30.1110  -17.8335   20.0194 C   0  0  0  0  0  0  0  0  0  0  0  0
  -22.7368  -29.2983   20.3967 C   0  0  0  0  0  0  0  0  0  0  0  0
  -25.4483  -14.9776   20.4420 N   0  0  0  0  0  0  0  0  0  0  0  0
  -26.0953  -15.1293   19.2739 N   0  0  0  0  0  0  0  0  0  0  0  0
  -23.7737  -26.5889   22.5060 N   0  0  0  0  0  0  0  0  0  0  0  0
  -29.6321  -14.1167   20.3204 N   0  0  0  0  0  0  0  0  0  0  0  0
  -25.8650  -16.0115   17.0878 N   0  0  0  0  0  0  0  0  0  0  0  0
  -22.1049  -15.9826   17.5935 N   0  0  0  0  0  0  0  0  0  0  0  0
  -21.3330  -25.0633   24.7446 N   0  0  0  0  0  0  0  0  0  0  0  0
  -25.1845  -29.2939   21.0393 N   0  0  0  0  0  0  0  0  0  0  0  0
  -28.7768  -29.1680   20.6557 N   0  3  0  0  0  0  0  0  0  0  0  0
  -22.9466  -17.9946   18.3021 O   0  0  0  0  0  0  0  0  0  0  0  0
  -21.3661  -25.7293   22.5135 O   0  0  0  0  0  0  0  0  0  0  0  0
  -23.4588  -28.7706   23.2657 O   0  0  0  0  0  0  0  0  0  0  0  0
  -31.9005  -14.5730   20.1055 O   0  0  0  0  0  0  0  0  0  0  0  0
  -26.4572  -27.9005   19.6917 O   0  0  0  0  0  0  0  0  0  0  0  0
  -20.3867  -15.7139   24.2348 O   0  0  0  0  0  0  0  0  0  0  0  0
  -25.4761  -21.1695   20.0800 O   0  0  0  0  0  0  0  0  0  1  0  0
  -15.2180  -16.9532   22.7676 F   0  0  0  0  0  0  0  0  0  0  0  0
  -18.3183  -13.9372   24.6905 F   0  0  0  0  0  0  0  0  0  0  0  0
  1  2  1  0  0  0  0
  1  5  2  0  0  0  0
  2  6  2  0  0  0  0
  3  8  2  0  0  0  0
  3 15  1  0  0  0  0
  4  9  1  0  0  0  0
  4 15  2  0  0  0  0
  5 17  1  0  0  0  0
  6 19  1  0  0  0  0
  7 10  2  0  0  0  0
  7 18  1  0  0  0  0
  8 21  1  0  0  0  0
  9 21  2  0  0  0  0
 10 22  1  0  0  0  0
 11 12  2  0  0  0  0
 11 23  1  0  0  0  0
 12 24  1  0  0  0  0
 13 20  1  0  0  0  0
 13 22  2  0  0  0  0
 14 24  2  0  0  0  0
 14 25  1  0  0  0  0
 15 26  1  0  0  0  0
 16 26  1  0  0  0  0
 16 27  2  0  0  0  0
 16 28  1  0  0  0  0
 17 19  2  0  0  0  0
 17 33  1  0  0  0  0
 18 20  2  0  0  0  0
 18 34  1  0  0  0  0
 19 46  1  0  0  0  0
 20 35  1  0  0  0  0
 21 81  1  0  0  0  0
 22 82  1  0  0  0  0
 23 25  2  0  0  0  0
 23 81  1  0  0  0  0
 24 83  1  0  0  0  0
 25 84  1  0  0  0  0
 26 67  2  0  0  0  0
 27 68  1  0  0  0  0
 27 71  1  0  0  0  0
 28 72  1  0  0  0  0
 28 76  2  0  0  0  0
 29 47  1  0  0  0  0
 29 73  1  0  0  0  0
 29 77  2  0  0  0  0
 30 62  1  0  0  0  0
 30 69  1  0  0  0  0
 30 78  2  0  0  0  0
 31 64  1  0  0  0  0
 31 70  1  0  0  0  0
 31 79  2  0  0  0  0
 32 63  1  0  0  0  0
 32 74  1  0  0  0  0
 32 80  2  0  0  0  0
 33 36  1  0  0  0  0
 34 47  1  0  0  0  0
 35 69  1  0  0  0  0
 36 38  1  0  0  0  0
 37 41  1  0  0  0  0
 37 44  1  0  0  0  0
 38 46  1  0  0  0  0
 39 42  1  0  0  0  0
 39 48  1  0  0  0  0
 40 43  1  0  0  0  0
 40 48  1  0  0  0  0
 41 49  1  0  0  0  0
 42 50  1  0  0  0  0
 43 50  1  0  0  0  0
 44 70  1  0  0  0  0
 45 49  1  0  0  0  0
 45 70  1  0  0  0  0
 46 73  1  0  0  0  0
 47 69  1  0  0  0  0
 48 65  1  0  0  0  0
 49 68  1  0  0  0  0
 50 82  1  0  0  0  0
 51 60  1  0  0  0  0
 52 63  1  0  0  0  0
 53 64  1  0  0  0  0
 54 65  1  0  0  0  0
 55 65  1  0  0  0  0
 56 66  1  0  0  0  0
 57 66  1  0  0  0  0
 58 66  1  0  0  0  0
 59 75  1  0  0  0  0
 60 64  1  0  0  0  0
 61 64  1  0  0  0  0
 61 65  1  0  0  0  0
 62 66  1  0  0  0  0
 62 74  1  0  0  0  0
 63 75  1  0  0  0  0
 67 68  1  0  0  0  0
M  CHG  1  75   1
M  ISO  4  31 100  50 101  64 100  82 101
M  END
> <Batch ID>
0103

> <Smiles>
CC[100C:0](C)(CC(C)(C)C1CC[101CH:1]([101O:1]c2ccc3c(c2)CN(C(=O)C(NC(=O)C(C)NC)C(C)(C)C)C(C(=O)NC2CCCc4ccccc42)C3)CC1)[100C:0](=O)N1CCCC(n2nc(-c3ccc(Oc4ccc(F)cc4F)cc3)c(C(N)=O)c2N)C1

> <Shape>
0.179

> <Color>
0.061

> <Negative vol penalty>
0.000

$$$$

  -OEChem-04052319413D

 85 93  0     1  0  0  0  0  0999 V2000
  -26.3024  -29.5367   20.3250 C   0  0  0  0  0  0  0  0  0  0  0  0
  -26.9712  -28.8986   21.3647 C   0  0  0  0  0  0  0  0  0  0  0  0
  -23.5975   -9.5545   20.8614 C   0  0  0  0  0  0  0  0  0  0  0  0
  -24.2408  -10.2864   23.0722 C   0  0  0  0  0  0  0  0  0  0  0  0
  -25.9210  -28.8139   19.1954 C   0  0  0  0  0  0  0  0  0  0  0  0
  -27.2579  -27.5369   21.2759 C   0  0  0  0  0  0  0  0  0  0  0  0
  -32.2031  -24.6653   23.4678 C   0  0  0  0  0  0  0  0  0  0  0  0
  -33.9987  -19.4601   25.3371 C   0  0  0  0  0  0  0  0  0  0  0  0
  -34.7242  -18.4013   24.7908 C   0  0  0  0  0  0  0  0  0  0  0  0
  -23.0448   -8.3954   21.4059 C   0  0  0  0  0  0  0  0  0  0  0  0
  -23.6880   -9.1273   23.6168 C   0  0  0  0  0  0  0  0  0  0  0  0
  -32.4224  -23.9320   24.6331 C   0  0  0  0  0  0  0  0  0  0  0  0
  -20.6131   -7.9697   24.4076 C   0  0  0  0  0  0  0  0  0  0  0  0
  -19.8209   -8.1050   25.5476 C   0  0  0  0  0  0  0  0  0  0  0  0
  -31.9984  -21.8900   23.4207 C   0  0  0  0  0  0  0  0  0  0  0  0
  -31.9362  -18.3786   24.6941 C   0  0  0  0  0  0  0  0  0  0  0  0
  -21.3319   -6.6683   26.7682 C   0  0  0  0  0  0  0  0  0  0  0  0
  -24.1956  -10.5000   21.6946 C   0  0  0  0  0  0  0  0  0  0  0  0
  -24.1186  -12.9275   20.9143 C   0  0  0  0  0  0  0  0  0  0  0  0
  -26.2117  -27.4447   19.0885 C   0  0  0  0  0  0  0  0  0  0  0  0
  -31.8686  -24.0161   22.2707 C   0  0  0  0  0  0  0  0  0  0  0  0
  -26.8788  -26.7947   20.1444 C   0  0  0  0  0  0  0  0  0  0  0  0
  -31.7779  -22.6172   22.2410 C   0  0  0  0  0  0  0  0  0  0  0  0
  -32.6047  -19.4487   25.2888 C   0  0  0  0  0  0  0  0  0  0  0  0
  -34.0557  -17.3313   24.1962 C   0  0  0  0  0  0  0  0  0  0  0  0
  -32.6616  -17.3199   24.1478 C   0  0  0  0  0  0  0  0  0  0  0  0
  -23.0900   -8.1817   22.7836 C   0  0  0  0  0  0  0  0  0  0  0  0
  -32.3172  -22.5443   24.6104 C   0  0  0  0  0  0  0  0  0  0  0  0
  -21.7647   -7.1836   24.4478 C   0  0  0  0  0  0  0  0  0  0  0  0
  -20.1803   -7.4544   26.7279 C   0  0  0  0  0  0  0  0  0  0  0  0
  -22.1241   -6.5329   25.6281 C   0  0  0  0  0  0  0  0  0  0  0  0
  -24.7672  -11.6973   21.1326 C   0  0  0  0  0  0  0  0  0  0  0  0
  -25.0866  -13.7336   20.3667 C   0  0  0  0  0  0  0  0  0  0  0  0
  -22.7625  -13.3077   21.1825 C   0  0  0  0  0  0  0  0  0  0  0  0
  -29.3600  -24.0623   20.3192 C   0  0  0  0  0  0  0  0  0  0  0  0
  -31.2484  -22.1726   18.4793 C   0  0  0  0  0  0  0  0  0  0  0  0
  -33.8629  -19.9863   18.3003 C   0  0  0  0  0  0  0  0  0  0  0  0
  -30.7687  -14.7778   20.7377 C   0  0  0  0  0  0  0  0  0  0  0  0
  -25.7375  -26.6950   17.8688 C   0  0  0  0  0  0  0  0  0  0  0  0
  -31.6614  -24.8197   21.0162 C   0  0  0  0  0  0  0  0  0  0  0  0
  -31.4413  -21.8710   20.9768 C   0  0  0  0  0  0  0  0  0  0  0  0
  -26.4105  -25.3367   17.6889 C   0  0  0  0  0  0  0  0  0  0  0  0
  -29.3697  -12.9389   18.0288 C   0  0  0  0  0  0  0  0  0  0  0  0
  -26.4268  -24.5701   19.0075 C   0  0  0  0  0  0  0  0  0  0  0  0
  -27.9800  -12.5456   18.5327 C   0  0  0  0  0  0  0  0  0  0  0  0
  -30.4056  -12.9109   19.1505 C   0  0  0  0  0  0  0  0  0  0  0  0
  -28.6615  -13.3133   20.8446 C   0  0  0  0  0  0  0  0  0  0  0  0
  -27.2297  -25.3243   20.0743 C   0  0  1  0  0  0  0  0  0  0  0  0
  -30.8215  -24.0909   19.9717 C   0  0  1  0  0  0  0  0  0  0  0  0
  -27.5718  -13.3810   19.7611 C   0  0  2  0  0  0  0  0  0  0  0  0
  -31.5037  -20.3776   27.3547 C   0  0  0  0  0  0  0  0  0  0  0  0
  -35.1467  -18.5805   16.6655 C   0  0  0  0  0  0  0  0  0  0  0  0
  -36.3834  -16.4560   23.7945 C   0  0  0  0  0  0  0  0  0  0  0  0
  -34.5755  -16.0488   22.0910 C   0  0  0  0  0  0  0  0  0  0  0  0
  -34.5817  -14.8020   24.2420 C   0  0  0  0  0  0  0  0  0  0  0  0
  -28.9565  -20.1595   18.4142 C   0  0  0  0  0  0  0  0  0  0  0  0
  -30.5861  -18.4351   17.6147 C   0  0  0  0  0  0  0  0  0  0  0  0
  -30.1404  -20.4633   16.2324 C   0  0  0  0  0  0  0  0  0  0  0  0
  -36.3860  -21.4260   18.8663 C   0  0  0  0  0  0  0  0  0  0  0  0
  -31.9243  -16.1850   23.5159 C   0  0  0  0  0  0  0  0  0  0  0  0
  -30.9830  -16.6195   22.3873 C   0  0  0  0  0  0  0  0  0  0  0  0
  -31.8188  -20.5964   25.8804 C   0  0  1  0  0  0  0  0  0  1  0  0
  -31.4836  -20.6859   18.3627 C   0  0  1  0  0  0  0  0  0  0  0  0
  -35.0625  -19.9245   17.3721 C   0  0  2  0  0  0  0  0  0  0  0  0
  -34.8538  -16.2096   23.6170 C   0  0  0  0  0  0  0  0  0  0  0  0
  -30.2961  -19.9498   17.6804 C   0  0  0  0  0  0  0  0  0  0  0  0
  -26.0481  -11.7154   20.7545 N   0  0  0  0  0  0  0  0  0  0  0  0
  -26.2122  -12.9669   20.2929 N   0  0  0  0  0  0  0  0  0  0  0  0
  -31.2416  -22.7016   19.7778 N   0  0  0  0  0  0  0  0  0  0  0  0
  -29.9587  -13.7236   20.2844 N   0  0  0  0  0  0  0  0  0  0  0  0
  -25.0762  -15.0162   19.9459 N   0  0  0  0  0  0  0  0  0  0  0  0
  -21.9012  -12.3569   21.7470 N   0  0  0  0  0  0  0  0  0  0  0  0
  -28.6496  -25.1523   19.8536 N   0  0  0  0  0  0  0  0  0  0  0  0
  -32.7599  -20.5273   17.6741 N   0  0  0  0  0  0  0  0  0  0  0  0
  -30.2679  -15.5018   21.8127 N   0  0  0  0  0  0  0  0  0  0  0  0
  -36.3228  -20.1316   18.1400 N   0  3  0  0  0  0  0  0  0  0  0  0
  -22.3229  -14.4514   20.9139 O   0  0  0  0  0  0  0  0  0  0  0  0
  -28.9098  -23.1203   20.9607 O   0  0  0  0  0  0  0  0  0  0  0  0
  -31.0843  -22.8410   17.4557 O   0  0  0  0  0  0  0  0  0  0  0  0
  -33.8995  -19.5906   19.4634 O   0  0  0  0  0  0  0  0  0  0  0  0
  -31.8551  -15.0567   20.2191 O   0  0  0  0  0  0  0  0  0  0  0  0
  -22.5506   -7.0509   23.3153 O   0  0  0  0  0  0  0  0  0  0  0  0
  -32.5301  -21.8262   25.7465 O   0  0  0  0  0  0  0  0  0  1  0  0
  -19.4202   -7.5856   27.8230 F   0  0  0  0  0  0  0  0  0  0  0  0
  -23.2299   -5.7774   25.6731 F   0  0  0  0  0  0  0  0  0  0  0  0
  1  2  1  0  0  0  0
  1  5  2  0  0  0  0
  2  6  2  0  0  0  0
  3 10  2  0  0  0  0
  3 18  1  0  0  0  0
  4 11  1  0  0  0  0
  4 18  2  0  0  0  0
  5 20  1  0  0  0  0
  6 22  1  0  0  0  0
  7 12  2  0  0  0  0
  7 21  1  0  0  0  0
  8  9  2  0  0  0  0
  8 24  1  0  0  0  0
  9 25  1  0  0  0  0
 10 27  1  0  0  0  0
 11 27  2  0  0  0  0
 12 28  1  0  0  0  0
 13 14  2  0  0  0  0
 13 29  1  0  0  0  0
 14 30  1  0  0  0  0
 15 23  1  0  0  0  0
 15 28  2  0  0  0  0
 16 24  2  0  0  0  0
 16 26  1  0  0  0  0
 17 30  2  0  0  0  0
 17 31  1  0  0  0  0
 18 32  1  0  0  0  0
 19 32  1  0  0  0  0
 19 33  2  0  0  0  0
 19 34  1  0  0  0  0
 20 22  2  0  0  0  0
 20 39  1  0  0  0  0
 21 23  2  0  0  0  0
 21 40  1  0  0  0  0
 22 48  1  0  0  0  0
 23 41  1  0  0  0  0
 24 62  1  0  0  0  0
 25 26  2  0  0  0  0
 25 65  1  0  0  0  0
 26 60  1  0  0  0  0
 27 82  1  0  0  0  0
 28 83  1  0  0  0  0
 29 31  2  0  0  0  0
 29 82  1  0  0  0  0
 30 84  1  0  0  0  0
 31 85  1  0  0  0  0
 32 67  2  0  0  0  0
 33 68  1  0  0  0  0
 33 71  1  0  0  0  0
 34 72  1  0  0  0  0
 34 77  2  0  0  0  0
 35 49  1  0  0  0  0
 35 73  1  0  0  0  0
 35 78  2  0  0  0  0
 36 63  1  0  0  0  0
 36 69  1  0  0  0  0
 36 79  2  0  0  0  0
 37 64  1  0  0  0  0
 37 74  1  0  0  0  0
 37 80  2  0  0  0  0
 38 70  1  0  0  0  0
 38 75  1  0  0  0  0
 38 81  2  0  0  0  0
 39 42  1  0  0  0  0
 40 49  1  0  0  0  0
 41 69  1  0  0  0  0
 42 44  1  0  0  0  0
 43 45  1  0  0  0  0
 43 46  1  0  0  0  0
 44 48  1  0  0  0  0
 45 50  1  0  0  0  0
 46 70  1  0  0  0  0
 47 50  1  0  0  0  0
 47 70  1  0  0  0  0
 48 73  1  0  0  0  0
 49 69  1  0  0  0  0
 50 68  1  0  0  0  0
 51 62  1  0  0  0  0
 52 64  1  0  0  0  0
 53 65  1  0  0  0  0
 54 65  1  0  0  0  0
 55 65  1  0  0  0  0
 56 66  1  0  0  0  0
 57 66  1  0  0  0  0
 58 66  1  0  0  0  0
 59 76  1  0  0  0  0
 60 61  1  0  0  0  0
 61 75  1  0  0  0  0
 62 83  1  0  0  0  0
 63 66  1  0  0  0  0
 63 74  1  0  0  0  0
 64 76  1  0  0  0  0
 67 68  1  0  0  0  0
M  CHG  1  76   1
M  ISO  4  38 100  62 101  75 100  83 101
M  END
> <Batch ID>
0103

> <Smiles>
CNC(C)C(=O)NC(C(=O)N1Cc2cc([101O:1][101CH:1](C)c3ccc(C(C)(C)C)c(CC[100NH:0][100C:0](=O)N4CCCC(n5nc(-c6ccc(Oc7ccc(F)cc7F)cc6)c(C(N)=O)c5N)C4)c3)ccc2CC1C(=O)NC1CCCc2ccccc21)C(C)(C)C

> <Shape>
0.224

> <Color>
0.164

> <Negative vol penalty>
0.000

$$$$

  -OEChem-04052319413D

 84 92  0     1  0  0  0  0  0999 V2000
  -16.5787  -29.6523   23.8300 C   0  0  0  0  0  0  0  0  0  0  0  0
  -17.3574  -30.2398   22.8393 C   0  0  0  0  0  0  0  0  0  0  0  0
  -24.5126  -13.6471   19.8373 C   0  0  0  0  0  0  0  0  0  0  0  0
  -25.8244  -14.0130   21.8328 C   0  0  0  0  0  0  0  0  0  0  0  0
  -17.1470  -28.7227   24.6983 C   0  0  0  0  0  0  0  0  0  0  0  0
  -18.7016  -29.8890   22.7090 C   0  0  0  0  0  0  0  0  0  0  0  0
  -26.0727  -29.9833   19.7289 C   0  0  0  0  0  0  0  0  0  0  0  0
  -24.6234  -12.2684   20.0172 C   0  0  0  0  0  0  0  0  0  0  0  0
  -25.9352  -12.6342   22.0128 C   0  0  0  0  0  0  0  0  0  0  0  0
  -27.3955  -29.6545   20.0219 C   0  0  0  0  0  0  0  0  0  0  0  0
  -23.1901   -9.8840   21.9390 C   0  0  0  0  0  0  0  0  0  0  0  0
  -22.0369   -9.1151   21.7826 C   0  0  0  0  0  0  0  0  0  0  0  0
  -26.7216  -27.3861   20.4900 C   0  0  0  0  0  0  0  0  0  0  0  0
  -28.7817  -24.2262   21.5351 C   0  0  0  0  0  0  0  0  0  0  0  0
  -26.7990  -23.6545   22.7917 C   0  0  0  0  0  0  0  0  0  0  0  0
  -23.1000   -7.8839   19.9962 C   0  0  0  0  0  0  0  0  0  0  0  0
  -25.1132  -14.5194   20.7451 C   0  0  0  0  0  0  0  0  0  0  0  0
  -23.9943  -16.7895   21.0654 C   0  0  0  0  0  0  0  0  0  0  0  0
  -18.5021  -28.3702   24.5858 C   0  0  0  0  0  0  0  0  0  0  0  0
  -25.0610  -29.0170   19.8250 C   0  0  0  0  0  0  0  0  0  0  0  0
  -19.2876  -28.9350   23.5604 C   0  0  0  0  0  0  0  0  0  0  0  0
  -25.3871  -27.7045   20.1953 C   0  0  0  0  0  0  0  0  0  0  0  0
  -29.0541  -25.2573   22.4340 C   0  0  0  0  0  0  0  0  0  0  0  0
  -28.1990  -25.4871   23.5118 C   0  0  0  0  0  0  0  0  0  0  0  0
  -27.6540  -23.4248   21.7139 C   0  0  0  0  0  0  0  0  0  0  0  0
  -25.3347  -11.7619   21.1049 C   0  0  0  0  0  0  0  0  0  0  0  0
  -27.7197  -28.3565   20.4053 C   0  0  0  0  0  0  0  0  0  0  0  0
  -24.2983   -9.6529   21.1239 C   0  0  0  0  0  0  0  0  0  0  0  0
  -27.0714  -24.6856   23.6907 C   0  0  0  0  0  0  0  0  0  0  0  0
  -21.9918   -8.1151   20.8112 C   0  0  0  0  0  0  0  0  0  0  0  0
  -24.2532   -8.6529   20.1526 C   0  0  0  0  0  0  0  0  0  0  0  0
  -24.9996  -15.9438   20.5594 C   0  0  0  0  0  0  0  0  0  0  0  0
  -24.3371  -18.0398   20.6119 C   0  0  0  0  0  0  0  0  0  0  0  0
  -22.8528  -16.4732   21.8733 C   0  0  0  0  0  0  0  0  0  0  0  0
  -22.4306  -28.6902   21.5794 C   0  0  0  0  0  0  0  0  0  0  0  0
  -21.9505  -26.1084   19.6751 C   0  0  0  0  0  0  0  0  0  0  0  0
  -23.9559  -23.4472   18.2919 C   0  0  0  0  0  0  0  0  0  0  0  0
  -28.1235  -22.0145   19.6799 C   0  0  0  0  0  0  0  0  0  0  0  0
  -19.0639  -27.3527   25.5472 C   0  0  0  0  0  0  0  0  0  0  0  0
  -23.6430  -29.3811   19.4798 C   0  0  0  0  0  0  0  0  0  0  0  0
  -24.3412  -26.6253   20.2939 C   0  0  0  0  0  0  0  0  0  0  0  0
  -20.5874  -27.3775   25.6158 C   0  0  0  0  0  0  0  0  0  0  0  0
  -27.7962  -19.4746   17.2063 C   0  0  0  0  0  0  0  0  0  0  0  0
  -21.1715  -27.3445   24.2115 C   0  0  0  0  0  0  0  0  0  0  0  0
  -26.9567  -18.3992   17.8997 C   0  0  0  0  0  0  0  0  0  0  0  0
  -28.7690  -20.1463   18.1739 C   0  0  0  0  0  0  0  0  0  0  0  0
  -27.3181  -19.6065   20.0904 C   0  0  0  0  0  0  0  0  0  0  0  0
  -20.7595  -28.5917   23.4192 C   0  0  1  0  0  0  0  0  0  0  0  0
  -22.6157  -28.4449   20.1086 C   0  0  1  0  0  0  0  0  0  0  0  0
  -26.2778  -18.9466   19.1706 C   0  0  2  0  0  0  0  0  0  0  0  0
  -28.4874  -26.5897   24.4799 C   0  0  0  0  0  0  0  0  0  0  0  0
  -23.6440  -22.0830   16.2088 C   0  0  0  0  0  0  0  0  0  0  0  0
  -30.2480  -27.6531   18.6718 C   0  0  0  0  0  0  0  0  0  0  0  0
  -20.5537  -24.1280   21.5290 C   0  0  0  0  0  0  0  0  0  0  0  0
  -21.6112  -22.2697   20.2263 C   0  0  0  0  0  0  0  0  0  0  0  0
  -20.0271  -23.8346   19.1018 C   0  0  0  0  0  0  0  0  0  0  0  0
  -26.6470  -24.1567   17.2850 C   0  0  0  0  0  0  0  0  0  0  0  0
  -25.1400  -25.7956   24.5234 C   0  0  0  0  0  0  0  0  0  0  0  0
  -30.2792  -26.1096   22.2186 C   0  0  0  0  0  0  0  0  0  0  0  0
  -30.6656  -26.2764   20.7417 C   0  0  0  0  0  0  0  0  0  0  0  0
  -22.3352  -24.6498   19.7345 C   0  0  1  0  0  0  0  0  0  0  0  0
  -24.3546  -23.2714   16.8377 C   0  0  2  0  0  0  0  0  0  0  0  0
  -29.6152  -27.0119   19.9004 C   0  0  1  0  0  0  0  0  0  1  0  0
  -21.1478  -23.7407   20.1600 C   0  0  0  0  0  0  0  0  0  0  0  0
  -25.9124  -16.6013   19.8394 N   0  0  0  0  0  0  0  0  0  0  0  0
  -25.4820  -17.8734   19.8896 N   0  0  0  0  0  0  0  0  0  0  0  0
  -22.9681  -27.0322   19.9524 N   0  0  0  0  0  0  0  0  0  0  0  0
  -28.0544  -20.6440   19.3514 N   0  0  0  0  0  0  0  0  0  0  0  0
  -23.7678  -19.2543   20.7643 N   0  0  0  0  0  0  0  0  0  0  0  0
  -22.6502  -15.1386   22.2502 N   0  0  0  0  0  0  0  0  0  0  0  0
  -27.3776  -22.3769   20.8011 N   0  0  0  0  0  0  0  0  0  0  0  0
  -21.1542  -28.4251   22.0378 N   0  0  0  0  0  0  0  0  0  0  0  0
  -22.9001  -24.3232   18.4297 N   0  0  0  0  0  0  0  0  0  0  0  0
  -25.8246  -23.0528   16.7264 N   0  3  0  0  0  0  0  0  0  0  0  0
  -22.0277  -17.3456   22.2360 O   0  0  0  0  0  0  0  0  0  0  0  0
  -23.3762  -29.0889   22.2492 O   0  0  0  0  0  0  0  0  0  0  0  0
  -20.7916  -26.4169   19.3861 O   0  0  0  0  0  0  0  0  0  0  0  0
  -24.5219  -22.8627   19.2131 O   0  0  0  0  0  0  0  0  0  0  0  0
  -28.7729  -22.8130   18.9998 O   0  0  0  0  0  0  0  0  0  0  0  0
  -25.4428  -10.4166   21.2810 O   0  0  0  0  0  0  0  0  0  0  0  0
  -26.2248  -24.8950   24.7376 O   0  0  0  0  0  0  0  0  0  0  0  0
  -29.0099  -28.0330   20.6924 O   0  0  0  0  0  0  0  0  0  1  0  0
  -20.8849   -7.3758   20.6622 F   0  0  0  0  0  0  0  0  0  0  0  0
  -25.3151   -8.4254   19.3674 F   0  0  0  0  0  0  0  0  0  0  0  0
  1  2  1  0  0  0  0
  1  5  2  0  0  0  0
  2  6  2  0  0  0  0
  3  8  2  0  0  0  0
  3 17  1  0  0  0  0
  4  9  1  0  0  0  0
  4 17  2  0  0  0  0
  5 19  1  0  0  0  0
  6 21  1  0  0  0  0
  7 10  2  0  0  0  0
  7 20  1  0  0  0  0
  8 26  1  0  0  0  0
  9 26  2  0  0  0  0
 10 27  1  0  0  0  0
 11 12  2  0  0  0  0
 11 28  1  0  0  0  0
 12 30  1  0  0  0  0
 13 22  1  0  0  0  0
 13 27  2  0  0  0  0
 14 23  1  0  0  0  0
 14 25  2  0  0  0  0
 15 25  1  0  0  0  0
 15 29  2  0  0  0  0
 16 30  2  0  0  0  0
 16 31  1  0  0  0  0
 17 32  1  0  0  0  0
 18 32  1  0  0  0  0
 18 33  2  0  0  0  0
 18 34  1  0  0  0  0
 19 21  2  0  0  0  0
 19 39  1  0  0  0  0
 20 22  2  0  0  0  0
 20 40  1  0  0  0  0
 21 48  1  0  0  0  0
 22 41  1  0  0  0  0
 23 24  2  0  0  0  0
 23 59  1  0  0  0  0
 24 29  1  0  0  0  0
 24 51  1  0  0  0  0
 25 71  1  0  0  0  0
 26 80  1  0  0  0  0
 27 82  1  0  0  0  0
 28 31  2  0  0  0  0
 28 80  1  0  0  0  0
 29 81  1  0  0  0  0
 30 83  1  0  0  0  0
 31 84  1  0  0  0  0
 32 65  2  0  0  0  0
 33 66  1  0  0  0  0
 33 69  1  0  0  0  0
 34 70  1  0  0  0  0
 34 75  2  0  0  0  0
 35 49  1  0  0  0  0
 35 72  1  0  0  0  0
 35 76  2  0  0  0  0
 36 61  1  0  0  0  0
 36 67  1  0  0  0  0
 36 77  2  0  0  0  0
 37 62  1  0  0  0  0
 37 73  1  0  0  0  0
 37 78  2  0  0  0  0
 38 68  1  0  0  0  0
 38 71  1  0  0  0  0
 38 79  2  0  0  0  0
 39 42  1  0  0  0  0
 40 49  1  0  0  0  0
 41 67  1  0  0  0  0
 42 44  1  0  0  0  0
 43 45  1  0  0  0  0
 43 46  1  0  0  0  0
 44 48  1  0  0  0  0
 45 50  1  0  0  0  0
 46 68  1  0  0  0  0
 47 50  1  0  0  0  0
 47 68  1  0  0  0  0
 48 72  1  0  0  0  0
 49 67  1  0  0  0  0
 50 66  1  0  0  0  0
 52 62  1  0  0  0  0
 53 63  1  0  0  0  0
 54 64  1  0  0  0  0
 55 64  1  0  0  0  0
 56 64  1  0  0  0  0
 57 74  1  0  0  0  0
 58 81  1  0  0  0  0
 59 60  1  0  0  0  0
 60 63  1  0  0  0  0
 61 64  1  0  0  0  0
 61 73  1  0  0  0  0
 62 74  1  0  0  0  0
 63 82  1  0  0  0  0
 65 66  1  0  0  0  0
M  CHG  1  74   1
M  ISO  4  38 100  63 101  71 100  82 101
M  END
> <Batch ID>
0103

> <Smiles>
CNC(C)C(=O)NC(C(=O)N1Cc2cc([101O:1][101CH:1](C)CCc3cc([100NH:0][100C:0](=O)N4CCCC(n5nc(-c6ccc(Oc7ccc(F)cc7F)cc6)c(C(N)=O)c5N)C4)cc(OC)c3C)ccc2CC1C(=O)NC1CCCc2ccccc21)C(C)(C)C

> <Shape>
0.220

> <Color>
0.102

> <Negative vol penalty>
0.000

$$$$

  -OEChem-04052319413D

 87 95  0     1  0  0  0  0  0999 V2000
  -25.7053  -18.3265   26.3182 C   0  0  0  0  0  0  0  0  0  0  0  0
  -25.9433  -19.6958   26.2822 C   0  0  0  0  0  0  0  0  0  0  0  0
  -26.2207  -14.4937   22.7199 C   0  0  0  0  0  0  0  0  0  0  0  0
  -25.5947  -14.1624   20.4101 C   0  0  0  0  0  0  0  0  0  0  0  0
  -24.7544  -17.7656   25.4682 C   0  0  0  0  0  0  0  0  0  0  0  0
  -25.2221  -20.5063   25.4048 C   0  0  0  0  0  0  0  0  0  0  0  0
  -25.6970  -26.4641   24.2187 C   0  0  0  0  0  0  0  0  0  0  0  0
  -25.3152  -13.5059   23.1070 C   0  0  0  0  0  0  0  0  0  0  0  0
  -24.6891  -13.1746   20.7972 C   0  0  0  0  0  0  0  0  0  0  0  0
  -26.3785  -27.2833   23.3197 C   0  0  0  0  0  0  0  0  0  0  0  0
  -24.7919   -9.9202   21.7023 C   0  0  0  0  0  0  0  0  0  0  0  0
  -24.7713   -8.7369   20.9642 C   0  0  0  0  0  0  0  0  0  0  0  0
  -24.4275  -27.3406   21.9022 C   0  0  0  0  0  0  0  0  0  0  0  0
  -22.4542   -9.1276   20.4024 C   0  0  0  0  0  0  0  0  0  0  0  0
  -28.5521  -26.6225   18.7546 C   0  0  0  0  0  0  0  0  0  0  0  0
  -29.5429  -28.2253   19.9646 C   0  0  0  0  0  0  0  0  0  0  0  0
  -26.3604  -14.8220   21.3714 C   0  0  0  0  0  0  0  0  0  0  0  0
  -28.6496  -15.6681   20.6287 C   0  0  0  0  0  0  0  0  0  0  0  0
  -24.0305  -18.5687   24.5715 C   0  0  0  0  0  0  0  0  0  0  0  0
  -24.3770  -26.0675   23.9604 C   0  0  0  0  0  0  0  0  0  0  0  0
  -24.2412  -19.9625   24.5559 C   0  0  0  0  0  0  0  0  0  0  0  0
  -23.7306  -26.5184   22.8007 C   0  0  0  0  0  0  0  0  0  0  0  0
  -29.7708  -26.1316   19.1680 C   0  0  0  0  0  0  0  0  0  0  0  0
  -30.3978  -27.1457   19.9334 C   0  0  0  0  0  0  0  0  0  0  0  0
  -24.5494  -12.8463   22.1457 C   0  0  0  0  0  0  0  0  0  0  0  0
  -25.7448  -27.7193   22.1598 C   0  0  0  0  0  0  0  0  0  0  0  0
  -23.6436  -10.7073   21.7905 C   0  0  0  0  0  0  0  0  0  0  0  0
  -23.6025   -8.3405   20.3142 C   0  0  0  0  0  0  0  0  0  0  0  0
  -22.4748  -10.3109   21.1406 C   0  0  0  0  0  0  0  0  0  0  0  0
  -27.2953  -15.8427   20.9709 C   0  0  0  0  0  0  0  0  0  0  0  0
  -29.0931  -16.9323   20.3263 C   0  0  0  0  0  0  0  0  0  0  0  0
  -29.4364  -14.4702   20.5877 C   0  0  0  0  0  0  0  0  0  0  0  0
  -22.9227  -23.2794   23.4965 C   0  0  0  0  0  0  0  0  0  0  0  0
  -20.2472  -25.1134   23.5220 C   0  0  0  0  0  0  0  0  0  0  0  0
  -18.8376  -28.1878   23.0659 C   0  0  0  0  0  0  0  0  0  0  0  0
  -28.4338  -21.7150   17.7497 C   0  0  0  0  0  0  0  0  0  0  0  0
  -23.0076  -17.9104   23.6795 C   0  0  0  0  0  0  0  0  0  0  0  0
  -23.6466  -25.2054   24.9533 C   0  0  0  0  0  0  0  0  0  0  0  0
  -22.3076  -26.1375   22.4870 C   0  0  0  0  0  0  0  0  0  0  0  0
  -22.6169  -18.7743   22.4848 C   0  0  0  0  0  0  0  0  0  0  0  0
  -26.9115  -21.4432   21.0218 C   0  0  0  0  0  0  0  0  0  0  0  0
  -22.2715  -20.1806   22.9511 C   0  0  0  0  0  0  0  0  0  0  0  0
  -26.9903  -19.9358   21.2697 C   0  0  0  0  0  0  0  0  0  0  0  0
  -26.6105  -21.7477   19.5573 C   0  0  0  0  0  0  0  0  0  0  0  0
  -27.6482  -19.6313   18.8377 C   0  0  0  0  0  0  0  0  0  0  0  0
  -23.4906  -20.8595   23.5883 C   0  0  1  0  0  0  0  0  0  0  0  0
  -22.4779  -24.4429   24.3367 C   0  0  1  0  0  0  0  0  0  0  0  0
  -27.9725  -19.2583   20.2957 C   0  0  2  0  0  0  0  0  0  0  0  0
  -16.6235  -29.3676   23.1215 C   0  0  0  0  0  0  0  0  0  0  0  0
  -32.0721  -28.3957   21.3404 C   0  0  0  0  0  0  0  0  0  0  0  0
  -32.8655  -26.8232   19.5420 C   0  0  0  0  0  0  0  0  0  0  0  0
  -31.8985  -25.9352   21.6534 C   0  0  0  0  0  0  0  0  0  0  0  0
  -19.5180  -23.8665   20.8343 C   0  0  0  0  0  0  0  0  0  0  0  0
  -17.8663  -25.7185   20.5021 C   0  0  0  0  0  0  0  0  0  0  0  0
  -17.5979  -24.1383   22.4135 C   0  0  0  0  0  0  0  0  0  0  0  0
  -30.9549  -25.5594   16.5062 C   0  0  0  0  0  0  0  0  0  0  0  0
  -31.5124  -23.2488   17.2438 C   0  0  0  0  0  0  0  0  0  0  0  0
  -19.7296  -30.0058   25.2241 C   0  0  0  0  0  0  0  0  0  0  0  0
  -30.3129  -24.7923   18.8643 C   0  0  0  0  0  0  0  0  0  0  0  0
  -27.2325  -28.7965   19.0276 C   0  0  0  0  0  0  0  0  0  0  0  0
  -29.1170  -23.8806   16.7496 C   0  0  0  0  0  0  0  0  0  0  0  0
  -26.0461  -28.4102   19.9042 C   0  0  0  0  0  0  0  0  0  1  0  0
  -19.4509  -25.8572   22.4772 C   0  0  1  0  0  0  0  0  0  0  0  0
  -17.8637  -28.9853   23.9143 C   0  0  2  0  0  0  0  0  0  0  0  0
  -31.7217  -27.0713   20.5822 C   0  0  0  0  0  0  0  0  0  0  0  0
  -18.6357  -24.9009   21.5615 C   0  0  0  0  0  0  0  0  0  0  0  0
  -30.4547  -24.3712   17.3532 C   0  0  0  0  0  0  0  0  0  0  0  0
  -26.9041  -17.1175   20.8936 N   0  0  0  0  0  0  0  0  0  0  0  0
  -28.4240  -27.8958   19.2450 N   0  0  0  0  0  0  0  0  0  0  0  0
  -28.0194  -17.7553   20.4993 N   0  0  0  0  0  0  0  0  0  0  0  0
  -21.6379  -25.2879   23.4856 N   0  0  0  0  0  0  0  0  0  0  0  0
  -27.5923  -21.0889   18.6843 N   0  0  0  0  0  0  0  0  0  0  0  0
  -30.2929  -17.4092   19.9319 N   0  0  0  0  0  0  0  0  0  0  0  0
  -28.8238  -13.2565   20.9286 N   0  0  0  0  0  0  0  0  0  0  0  0
  -23.0726  -22.1007   24.2019 N   0  0  0  0  0  0  0  0  0  0  0  0
  -18.6381  -26.8300   23.1993 N   0  0  0  0  0  0  0  0  0  0  0  0
  -28.3139  -23.0965   17.6613 N   0  0  0  0  0  0  0  0  0  0  0  0
  -18.5094  -30.2344   24.4082 N   0  3  0  0  0  0  0  0  0  0  0  0
  -30.6510  -14.4781   20.2744 O   0  0  0  0  0  0  0  0  0  0  0  0
  -23.1141  -23.4388   22.2966 O   0  0  0  0  0  0  0  0  0  0  0  0
  -19.6565  -24.4093   24.3448 O   0  0  0  0  0  0  0  0  0  0  0  0
  -19.6877  -28.7165   22.3529 O   0  0  0  0  0  0  0  0  0  0  0  0
  -29.2369  -21.0894   17.0492 O   0  0  0  0  0  0  0  0  0  0  0  0
  -23.6659  -11.8822   22.5231 O   0  0  0  0  0  0  0  0  0  0  0  0
  -26.4080  -28.5184   21.2803 O   0  0  0  0  0  0  0  0  0  1  0  0
  -23.5833   -7.2049   19.6042 F   0  0  0  0  0  0  0  0  0  0  0  0
  -21.3689  -11.0635   21.2207 F   0  0  0  0  0  0  0  0  0  0  0  0
  1  2  1  0  0  0  0
  1  5  2  0  0  0  0
  2  6  2  0  0  0  0
  3  8  2  0  0  0  0
  3 17  1  0  0  0  0
  4  9  1  0  0  0  0
  4 17  2  0  0  0  0
  5 19  1  0  0  0  0
  6 21  1  0  0  0  0
  7 10  2  0  0  0  0
  7 20  1  0  0  0  0
  8 25  1  0  0  0  0
  9 25  2  0  0  0  0
 10 26  1  0  0  0  0
 11 12  2  0  0  0  0
 11 27  1  0  0  0  0
 12 28  1  0  0  0  0
 13 22  1  0  0  0  0
 13 26  2  0  0  0  0
 14 28  2  0  0  0  0
 14 29  1  0  0  0  0
 15 23  2  0  0  0  0
 15 69  1  0  0  0  0
 16 24  2  0  0  0  0
 16 69  1  0  0  0  0
 17 30  1  0  0  0  0
 18 30  1  0  0  0  0
 18 31  2  0  0  0  0
 18 32  1  0  0  0  0
 19 21  2  0  0  0  0
 19 37  1  0  0  0  0
 20 22  2  0  0  0  0
 20 38  1  0  0  0  0
 21 46  1  0  0  0  0
 22 39  1  0  0  0  0
 23 24  1  0  0  0  0
 23 59  1  0  0  0  0
 24 65  1  0  0  0  0
 25 84  1  0  0  0  0
 26 85  1  0  0  0  0
 27 29  2  0  0  0  0
 27 84  1  0  0  0  0
 28 86  1  0  0  0  0
 29 87  1  0  0  0  0
 30 68  2  0  0  0  0
 31 70  1  0  0  0  0
 31 73  1  0  0  0  0
 32 74  1  0  0  0  0
 32 79  2  0  0  0  0
 33 47  1  0  0  0  0
 33 75  1  0  0  0  0
 33 80  2  0  0  0  0
 34 63  1  0  0  0  0
 34 71  1  0  0  0  0
 34 81  2  0  0  0  0
 35 64  1  0  0  0  0
 35 76  1  0  0  0  0
 35 82  2  0  0  0  0
 36 72  1  0  0  0  0
 36 77  1  0  0  0  0
 36 83  2  0  0  0  0
 37 40  1  0  0  0  0
 38 47  1  0  0  0  0
 39 71  1  0  0  0  0
 40 42  1  0  0  0  0
 41 43  1  0  0  0  0
 41 44  1  0  0  0  0
 42 46  1  0  0  0  0
 43 48  1  0  0  0  0
 44 72  1  0  0  0  0
 45 48  1  0  0  0  0
 45 72  1  0  0  0  0
 46 75  1  0  0  0  0
 47 71  1  0  0  0  0
 48 70  1  0  0  0  0
 49 64  1  0  0  0  0
 50 65  1  0  0  0  0
 51 65  1  0  0  0  0
 52 65  1  0  0  0  0
 53 66  1  0  0  0  0
 54 66  1  0  0  0  0
 55 66  1  0  0  0  0
 56 67  1  0  0  0  0
 57 67  1  0  0  0  0
 58 78  1  0  0  0  0
 59 67  1  0  0  0  0
 60 62  1  0  0  0  0
 60 69  1  0  0  0  0
 61 67  1  0  0  0  0
 61 77  1  0  0  0  0
 62 85  1  0  0  0  0
 63 66  1  0  0  0  0
 63 76  1  0  0  0  0
 64 78  1  0  0  0  0
 68 70  1  0  0  0  0
M  CHG  1  78   1
M  ISO  4  36 100  62 101  77 100  85 101
M  END
> <Batch ID>
0103

> <Smiles>
CNC(C)C(=O)NC(C(=O)N1Cc2cc([101O:1][101CH2:1]Cn3cc(CC(C)(C)C[100NH:0][100C:0](=O)N4CCCC(n5nc(-c6ccc(Oc7ccc(F)cc7F)cc6)c(C(N)=O)c5N)C4)c(C(C)(C)C)c3)ccc2CC1C(=O)NC1CCCc2ccccc21)C(C)(C)C

> <Shape>
0.234

> <Color>
0.037

> <Negative vol penalty>
0.000

$$$$

  -OEChem-04052319413D

 84 92  0     1  0  0  0  0  0999 V2000
  -29.6058  -33.7415   23.6368 C   0  0  0  0  0  0  0  0  0  0  0  0
  -29.8934  -32.4241   23.2948 C   0  0  0  0  0  0  0  0  0  0  0  0
  -27.0800  -14.0127   22.2794 C   0  0  0  0  0  0  0  0  0  0  0  0
  -26.9735  -13.0431   20.0691 C   0  0  0  0  0  0  0  0  0  0  0  0
  -28.3186  -34.0897   24.0440 C   0  0  0  0  0  0  0  0  0  0  0  0
  -28.8942  -31.4537   23.3610 C   0  0  0  0  0  0  0  0  0  0  0  0
  -28.8471  -28.4334   19.2964 C   0  0  0  0  0  0  0  0  0  0  0  0
  -26.4424  -12.8883   22.8034 C   0  0  0  0  0  0  0  0  0  0  0  0
  -26.3359  -11.9186   20.5931 C   0  0  0  0  0  0  0  0  0  0  0  0
  -29.8105  -27.4272   19.2397 C   0  0  0  0  0  0  0  0  0  0  0  0
  -23.2256  -11.0642   21.6066 C   0  0  0  0  0  0  0  0  0  0  0  0
  -22.1140  -10.5720   20.9228 C   0  0  0  0  0  0  0  0  0  0  0  0
  -28.1717  -25.8242   19.9908 C   0  0  0  0  0  0  0  0  0  0  0  0
  -23.2426   -8.4589   20.6091 C   0  0  0  0  0  0  0  0  0  0  0  0
  -32.7722  -20.1173   17.8056 C   0  0  0  0  0  0  0  0  0  0  0  0
  -27.3455  -14.0901   20.9122 C   0  0  0  0  0  0  0  0  0  0  0  0
  -29.3890  -15.4495   20.2164 C   0  0  0  0  0  0  0  0  0  0  0  0
  -27.3007  -33.1250   24.1059 C   0  0  0  0  0  0  0  0  0  0  0  0
  -27.5394  -28.1442   19.7119 C   0  0  0  0  0  0  0  0  0  0  0  0
  -27.5925  -31.7891   23.7707 C   0  0  0  0  0  0  0  0  0  0  0  0
  -27.1929  -26.8281   20.0495 C   0  0  0  0  0  0  0  0  0  0  0  0
  -26.0703  -11.8412   21.9603 C   0  0  0  0  0  0  0  0  0  0  0  0
  -29.4736  -26.1229   19.5897 C   0  0  0  0  0  0  0  0  0  0  0  0
  -24.3458  -10.2538   21.7916 C   0  0  0  0  0  0  0  0  0  0  0  0
  -22.1225   -9.2693   20.4241 C   0  0  0  0  0  0  0  0  0  0  0  0
  -24.3543   -8.9512   21.2929 C   0  0  0  0  0  0  0  0  0  0  0  0
  -28.0037  -15.2517   20.3701 C   0  0  0  0  0  0  0  0  0  0  0  0
  -31.7317  -20.8929   17.3781 C   0  0  0  0  0  0  0  0  0  0  0  0
  -29.4975  -16.7011   19.6611 C   0  0  0  0  0  0  0  0  0  0  0  0
  -32.8297  -20.1788   15.5935 C   0  0  0  0  0  0  0  0  0  0  0  0
  -30.4801  -14.5797   20.5458 C   0  0  0  0  0  0  0  0  0  0  0  0
  -25.6932  -29.0810   22.1239 C   0  0  0  0  0  0  0  0  0  0  0  0
  -23.4387  -27.3528   20.5578 C   0  0  0  0  0  0  0  0  0  0  0  0
  -22.7208  -24.8332   18.3708 C   0  0  0  0  0  0  0  0  0  0  0  0
  -27.8473  -20.5473   15.9694 C   0  0  0  0  0  0  0  0  0  0  0  0
  -25.9364  -33.5398   24.5973 C   0  0  0  0  0  0  0  0  0  0  0  0
  -26.5050  -29.2358   19.7421 C   0  0  0  0  0  0  0  0  0  0  0  0
  -25.7978  -26.4615   20.4826 C   0  0  0  0  0  0  0  0  0  0  0  0
  -24.8407  -32.5251   24.2810 C   0  0  0  0  0  0  0  0  0  0  0  0
  -26.0341  -20.3327   19.0261 C   0  0  0  0  0  0  0  0  0  0  0  0
  -25.3018  -31.1143   24.6328 C   0  0  0  0  0  0  0  0  0  0  0  0
  -26.4944  -19.0056   19.6320 C   0  0  0  0  0  0  0  0  0  0  0  0
  -25.9261  -20.2512   17.5050 C   0  0  0  0  0  0  0  0  0  0  0  0
  -27.6038  -18.4475   17.4282 C   0  0  0  0  0  0  0  0  0  0  0  0
  -26.5292  -30.7128   23.8059 C   0  0  1  0  0  0  0  0  0  0  0  0
  -25.3364  -28.9260   20.6726 C   0  0  1  0  0  0  0  0  0  0  0  0
  -27.7815  -18.4968   18.9554 C   0  0  2  0  0  0  0  0  0  0  0  0
  -33.1810  -18.4483   13.7948 C   0  0  0  0  0  0  0  0  0  0  0  0
  -34.6620  -20.4861   13.8899 C   0  0  0  0  0  0  0  0  0  0  0  0
  -20.7865  -23.6297   17.3183 C   0  0  0  0  0  0  0  0  0  0  0  0
  -22.9554  -25.8506   23.1693 C   0  0  0  0  0  0  0  0  0  0  0  0
  -21.7557  -24.0905   21.8537 C   0  0  0  0  0  0  0  0  0  0  0  0
  -20.8804  -26.4260   21.8974 C   0  0  0  0  0  0  0  0  0  0  0  0
  -23.5568  -25.6312   15.6463 C   0  0  0  0  0  0  0  0  0  0  0  0
  -30.6723  -21.6257   18.1618 C   0  0  0  0  0  0  0  0  0  0  0  0
  -31.0623  -23.0575   18.5354 C   0  0  0  0  0  0  0  0  0  0  0  0
  -30.8755  -21.6212   15.1305 C   0  0  0  0  0  0  0  0  0  0  0  0
  -29.8346  -20.7056   14.4914 C   0  0  0  0  0  0  0  0  0  0  0  0
  -29.9527  -23.8180   19.2522 C   0  0  0  0  0  0  0  0  0  1  0  0
  -33.2511  -19.9382   14.1910 C   0  0  0  0  0  0  0  0  0  0  0  0
  -22.9820  -25.9142   20.5883 C   0  0  1  0  0  0  0  0  0  0  0  0
  -21.7825  -24.7706   17.1791 C   0  0  2  0  0  0  0  0  0  0  0  0
  -22.1702  -25.5773   21.8709 C   0  0  0  0  0  0  0  0  0  0  0  0
  -27.2838  -16.2941   19.9470 N   0  0  0  0  0  0  0  0  0  0  0  0
  -31.7918  -20.9140   16.0055 N   0  0  0  0  0  0  0  0  0  0  0  0
  -28.2204  -17.1591   19.5219 N   0  0  0  0  0  0  0  0  0  0  0  0
  -33.4343  -19.6886   16.6805 N   0  3  0  0  0  0  0  0  0  0  0  0
  -24.8234  -27.5651   20.5020 N   0  0  0  0  0  0  0  0  0  0  0  0
  -27.1799  -19.7637   16.9252 N   0  0  0  0  0  0  0  0  0  0  0  0
  -30.5598  -17.4436   19.2834 N   0  0  0  0  0  0  0  0  0  0  0  0
  -30.1911  -13.3293   21.1091 N   0  0  0  0  0  0  0  0  0  0  0  0
  -26.1355  -30.3456   22.4626 N   0  0  0  0  0  0  0  0  0  0  0  0
  -22.2535  -25.6907   19.3442 N   0  0  0  0  0  0  0  0  0  0  0  0
  -29.0317  -20.0145   15.4755 N   0  0  0  0  0  0  0  0  0  0  0  0
  -22.5556  -24.5687   15.9211 N   0  3  0  0  0  0  0  0  0  0  0  0
  -31.6766  -14.9084   20.3618 O   0  0  0  0  0  0  0  0  0  0  0  0
  -25.5745  -28.1246   22.8808 O   0  0  0  0  0  0  0  0  0  0  0  0
  -22.5974  -28.2549   20.5753 O   0  0  0  0  0  0  0  0  0  0  0  0
  -23.7621  -24.1833   18.4336 O   0  0  0  0  0  0  0  0  0  0  0  0
  -27.4220  -21.6433   15.5887 O   0  0  0  0  0  0  0  0  0  0  0  0
  -25.4483  -10.7437   22.4714 O   0  0  0  0  0  0  0  0  0  0  0  0
  -30.4121  -25.1390   19.5358 O   0  0  0  0  0  0  0  0  0  1  0  0
  -21.0543   -8.7963   19.7688 F   0  0  0  0  0  0  0  0  0  0  0  0
  -25.4270   -8.1675   21.4686 F   0  0  0  0  0  0  0  0  0  0  0  0
  1  2  1  0  0  0  0
  1  5  2  0  0  0  0
  2  6  2  0  0  0  0
  3  8  2  0  0  0  0
  3 16  1  0  0  0  0
  4  9  1  0  0  0  0
  4 16  2  0  0  0  0
  5 18  1  0  0  0  0
  6 20  1  0  0  0  0
  7 10  2  0  0  0  0
  7 19  1  0  0  0  0
  8 22  1  0  0  0  0
  9 22  2  0  0  0  0
 10 23  1  0  0  0  0
 11 12  2  0  0  0  0
 11 24  1  0  0  0  0
 12 25  1  0  0  0  0
 13 21  1  0  0  0  0
 13 23  2  0  0  0  0
 14 25  2  0  0  0  0
 14 26  1  0  0  0  0
 15 28  2  0  0  0  0
 15 67  1  0  0  0  0
 16 27  1  0  0  0  0
 17 27  1  0  0  0  0
 17 29  2  0  0  0  0
 17 31  1  0  0  0  0
 18 20  2  0  0  0  0
 18 36  1  0  0  0  0
 19 21  2  0  0  0  0
 19 37  1  0  0  0  0
 20 45  1  0  0  0  0
 21 38  1  0  0  0  0
 22 81  1  0  0  0  0
 23 82  1  0  0  0  0
 24 26  2  0  0  0  0
 24 81  1  0  0  0  0
 25 83  1  0  0  0  0
 26 84  1  0  0  0  0
 27 64  2  0  0  0  0
 28 55  1  0  0  0  0
 28 65  1  0  0  0  0
 29 66  1  0  0  0  0
 29 70  1  0  0  0  0
 30 60  1  0  0  0  0
 30 65  1  0  0  0  0
 30 67  2  0  0  0  0
 31 71  1  0  0  0  0
 31 76  2  0  0  0  0
 32 46  1  0  0  0  0
 32 72  1  0  0  0  0
 32 77  2  0  0  0  0
 33 61  1  0  0  0  0
 33 68  1  0  0  0  0
 33 78  2  0  0  0  0
 34 62  1  0  0  0  0
 34 73  1  0  0  0  0
 34 79  2  0  0  0  0
 35 69  1  0  0  0  0
 35 74  1  0  0  0  0
 35 80  2  0  0  0  0
 36 39  1  0  0  0  0
 37 46  1  0  0  0  0
 38 68  1  0  0  0  0
 39 41  1  0  0  0  0
 40 42  1  0  0  0  0
 40 43  1  0  0  0  0
 41 45  1  0  0  0  0
 42 47  1  0  0  0  0
 43 69  1  0  0  0  0
 44 47  1  0  0  0  0
 44 69  1  0  0  0  0
 45 72  1  0  0  0  0
 46 68  1  0  0  0  0
 47 66  1  0  0  0  0
 48 60  1  0  0  0  0
 49 60  1  0  0  0  0
 50 62  1  0  0  0  0
 51 63  1  0  0  0  0
 52 63  1  0  0  0  0
 53 63  1  0  0  0  0
 54 75  1  0  0  0  0
 55 56  1  0  0  0  0
 56 59  1  0  0  0  0
 57 58  1  0  0  0  0
 57 65  1  0  0  0  0
 58 74  1  0  0  0  0
 59 82  1  0  0  0  0
 61 63  1  0  0  0  0
 61 73  1  0  0  0  0
 62 75  1  0  0  0  0
 64 66  1  0  0  0  0
M  CHG  2  67   1  75   1
M  ISO  4  35 100  59 101  74 100  82 101
M  END
> <Batch ID>
0103

> <Smiles>
CNC(C)C(=O)NC(C(=O)N1Cc2cc([101O:1][101CH2:1]CCc3cnc(C(C)C)n3CC[100NH:0][100C:0](=O)N3CCCC(n4nc(-c5ccc(Oc6ccc(F)cc6F)cc5)c(C(N)=O)c4N)C3)ccc2CC1C(=O)NC1CCCc2ccccc21)C(C)(C)C

> <Shape>
0.231

> <Color>
0.074

> <Negative vol penalty>
0.000

$$$$

  -OEChem-04052319413D

 84 92  0     1  0  0  0  0  0999 V2000
  -28.5606  -11.2937   21.5434 C   0  0  0  0  0  0  0  0  0  0  0  0
  -28.8774  -12.5462   21.0272 C   0  0  0  0  0  0  0  0  0  0  0  0
  -19.5020  -28.6535   21.6216 C   0  0  0  0  0  0  0  0  0  0  0  0
  -20.5459  -27.3365   23.3573 C   0  0  0  0  0  0  0  0  0  0  0  0
  -27.2407  -10.8452   21.5207 C   0  0  0  0  0  0  0  0  0  0  0  0
  -27.8745  -13.3505   20.4871 C   0  0  0  0  0  0  0  0  0  0  0  0
  -28.2162  -18.1678   22.0106 C   0  0  0  0  0  0  0  0  0  0  0  0
  -18.2447  -28.3251   22.1286 C   0  0  0  0  0  0  0  0  0  0  0  0
  -19.2887  -27.0081   23.8643 C   0  0  0  0  0  0  0  0  0  0  0  0
  -29.1785  -18.9646   21.3918 C   0  0  0  0  0  0  0  0  0  0  0  0
  -16.2581  -29.2985   24.6857 C   0  0  0  0  0  0  0  0  0  0  0  0
  -15.3225  -30.3250   24.8139 C   0  0  0  0  0  0  0  0  0  0  0  0
  -27.4712  -19.9195   19.9801 C   0  0  0  0  0  0  0  0  0  0  0  0
  -31.4181  -24.9089   20.2648 C   0  0  0  0  0  0  0  0  0  0  0  0
  -13.8341  -29.1560   23.3121 C   0  0  0  0  0  0  0  0  0  0  0  0
  -30.9703  -23.5435   18.5313 C   0  0  0  0  0  0  0  0  0  0  0  0
  -20.6526  -28.1591   22.2359 C   0  0  0  0  0  0  0  0  0  0  0  0
  -22.7509  -29.6003   22.0686 C   0  0  0  0  0  0  0  0  0  0  0  0
  -26.2196  -11.6484   20.9889 C   0  0  0  0  0  0  0  0  0  0  0  0
  -26.8738  -18.2331   21.6108 C   0  0  0  0  0  0  0  0  0  0  0  0
  -26.5398  -12.9117   20.4562 C   0  0  0  0  0  0  0  0  0  0  0  0
  -26.4935  -19.1243   20.5973 C   0  0  0  0  0  0  0  0  0  0  0  0
  -30.8194  -24.8361   18.9829 C   0  0  0  0  0  0  0  0  0  0  0  0
  -18.1380  -27.5024   23.2500 C   0  0  0  0  0  0  0  0  0  0  0  0
  -28.8065  -19.8385   20.3744 C   0  0  0  0  0  0  0  0  0  0  0  0
  -15.9818  -28.2007   23.8707 C   0  0  0  0  0  0  0  0  0  0  0  0
  -14.1105  -30.2538   24.1271 C   0  0  0  0  0  0  0  0  0  0  0  0
  -14.7698  -28.1294   23.1839 C   0  0  0  0  0  0  0  0  0  0  0  0
  -21.9516  -28.4975   21.7123 C   0  0  0  0  0  0  0  0  0  0  0  0
  -31.9169  -23.6588   20.5575 C   0  0  0  0  0  0  0  0  0  0  0  0
  -23.8780  -29.4718   21.2944 C   0  0  0  0  0  0  0  0  0  0  0  0
  -22.4972  -30.6471   23.0150 C   0  0  0  0  0  0  0  0  0  0  0  0
  -24.8039  -16.1720   20.3571 C   0  0  0  0  0  0  0  0  0  0  0  0
  -22.7086  -18.6096   20.7936 C   0  0  0  0  0  0  0  0  0  0  0  0
  -22.2014  -21.9659   21.1464 C   0  0  0  0  0  0  0  0  0  0  0  0
  -27.9418  -26.4096   19.2803 C   0  0  0  0  0  0  0  0  0  0  0  0
  -24.8149  -11.1012   20.9433 C   0  0  0  0  0  0  0  0  0  0  0  0
  -25.8436  -17.3864   22.3066 C   0  0  0  0  0  0  0  0  0  0  0  0
  -25.0621  -19.2469   20.1450 C   0  0  0  0  0  0  0  0  0  0  0  0
  -23.7530  -12.1691   20.6940 C   0  0  0  0  0  0  0  0  0  0  0  0
  -24.8588  -26.4147   17.3850 C   0  0  0  0  0  0  0  0  0  0  0  0
  -24.1749  -13.0844   19.5490 C   0  0  0  0  0  0  0  0  0  0  0  0
  -23.8899  -27.0533   18.3818 C   0  0  0  0  0  0  0  0  0  0  0  0
  -25.8556  -25.5005   18.0912 C   0  0  0  0  0  0  0  0  0  0  0  0
  -25.6644  -26.7978   20.1779 C   0  0  0  0  0  0  0  0  0  0  0  0
  -25.4760  -13.8235   19.8844 C   0  0  1  0  0  0  0  0  0  0  0  0
  -24.5895  -17.1613   21.4676 C   0  0  1  0  0  0  0  0  0  0  0  0
  -24.6451  -27.7513   19.5284 C   0  0  2  0  0  0  0  0  0  0  0  0
  -20.3761  -23.6613   21.4487 C   0  0  0  0  0  0  0  0  0  0  0  0
  -34.6513  -24.7903   22.0467 C   0  0  0  0  0  0  0  0  0  0  0  0
  -34.8759  -22.3932   22.6888 C   0  0  0  0  0  0  0  0  0  0  0  0
  -21.9709  -18.3374   17.8454 C   0  0  0  0  0  0  0  0  0  0  0  0
  -20.9011  -20.5972   17.9763 C   0  0  0  0  0  0  0  0  0  0  0  0
  -20.0304  -18.7241   19.3749 C   0  0  0  0  0  0  0  0  0  0  0  0
  -23.2998  -22.8560   23.7464 C   0  0  0  0  0  0  0  0  0  0  0  0
  -30.1559  -25.9400   18.2634 C   0  0  0  0  0  0  0  0  0  0  0  0
  -32.0047  -21.3764   19.3897 C   0  0  0  0  0  0  0  0  0  0  0  0
  -31.0897  -20.4871   20.2245 C   0  0  0  0  0  0  0  0  0  1  0  0
  -32.6334  -23.1812   21.7582 C   0  0  1  0  0  0  0  0  0  0  0  0
  -22.2482  -19.7848   19.9654 C   0  0  1  0  0  0  0  0  0  0  0  0
  -21.3832  -22.7613   22.1476 C   0  0  2  0  0  0  0  0  0  0  0  0
  -34.1898  -23.3641   21.7163 C   0  0  0  0  0  0  0  0  0  0  0  0
  -21.3150  -19.3574   18.7975 C   0  0  0  0  0  0  0  0  0  0  0  0
  -22.5225  -27.7255   20.7838 N   0  0  0  0  0  0  0  0  0  0  0  0
  -31.6391  -22.8370   19.4966 N   0  0  0  0  0  0  0  0  0  0  0  0
  -23.6925  -28.3441   20.5501 N   0  0  0  0  0  0  0  0  0  0  0  0
  -24.0927  -18.3934   20.8518 N   0  0  0  0  0  0  0  0  0  0  0  0
  -26.5538  -26.2307   19.1587 N   0  0  0  0  0  0  0  0  0  0  0  0
  -24.9999  -30.2147   21.1843 N   0  0  0  0  0  0  0  0  0  0  0  0
  -21.2892  -30.6272   23.7254 N   0  0  0  0  0  0  0  0  0  0  0  0
  -25.2138  -14.9243   20.7866 N   0  0  0  0  0  0  0  0  0  0  0  0
  -21.6436  -20.7296   20.8982 N   0  0  0  0  0  0  0  0  0  0  0  0
  -28.7137  -25.8356   18.2777 N   0  0  0  0  0  0  0  0  0  0  0  0
  -32.1145  -23.8310   23.0227 N   0  3  0  0  0  0  0  0  0  0  0  0
  -22.2744  -23.6139   22.9841 N   0  3  0  0  0  0  0  0  0  0  0  0
  -23.3102  -31.5817   23.2124 O   0  0  0  0  0  0  0  0  0  0  0  0
  -24.6103  -16.5150   19.1967 O   0  0  0  0  0  0  0  0  0  0  0  0
  -21.8715  -17.9135   21.3735 O   0  0  0  0  0  0  0  0  0  0  0  0
  -23.2304  -22.3996   20.6328 O   0  0  0  0  0  0  0  0  0  0  0  0
  -28.4554  -27.0395   20.2113 O   0  0  0  0  0  0  0  0  0  0  0  0
  -16.9114  -27.1820   23.7451 O   0  0  0  0  0  0  0  0  0  0  0  0
  -29.7438  -20.6169   19.7682 O   0  0  0  0  0  0  0  0  0  1  0  0
  -13.2115  -31.2389   24.2515 F   0  0  0  0  0  0  0  0  0  0  0  0
  -14.4982  -27.0768   22.4004 F   0  0  0  0  0  0  0  0  0  0  0  0
  1  2  1  0  0  0  0
  1  5  2  0  0  0  0
  2  6  2  0  0  0  0
  3  8  2  0  0  0  0
  3 17  1  0  0  0  0
  4  9  1  0  0  0  0
  4 17  2  0  0  0  0
  5 19  1  0  0  0  0
  6 21  1  0  0  0  0
  7 10  2  0  0  0  0
  7 20  1  0  0  0  0
  8 24  1  0  0  0  0
  9 24  2  0  0  0  0
 10 25  1  0  0  0  0
 11 12  2  0  0  0  0
 11 26  1  0  0  0  0
 12 27  1  0  0  0  0
 13 22  1  0  0  0  0
 13 25  2  0  0  0  0
 14 23  1  0  0  0  0
 14 30  2  0  0  0  0
 15 27  2  0  0  0  0
 15 28  1  0  0  0  0
 16 23  2  0  0  0  0
 16 65  1  0  0  0  0
 17 29  1  0  0  0  0
 18 29  1  0  0  0  0
 18 31  2  0  0  0  0
 18 32  1  0  0  0  0
 19 21  2  0  0  0  0
 19 37  1  0  0  0  0
 20 22  2  0  0  0  0
 20 38  1  0  0  0  0
 21 46  1  0  0  0  0
 22 39  1  0  0  0  0
 23 56  1  0  0  0  0
 24 81  1  0  0  0  0
 25 82  1  0  0  0  0
 26 28  2  0  0  0  0
 26 81  1  0  0  0  0
 27 83  1  0  0  0  0
 28 84  1  0  0  0  0
 29 64  2  0  0  0  0
 30 59  1  0  0  0  0
 30 65  1  0  0  0  0
 31 66  1  0  0  0  0
 31 69  1  0  0  0  0
 32 70  1  0  0  0  0
 32 76  2  0  0  0  0
 33 47  1  0  0  0  0
 33 71  1  0  0  0  0
 33 77  2  0  0  0  0
 34 60  1  0  0  0  0
 34 67  1  0  0  0  0
 34 78  2  0  0  0  0
 35 61  1  0  0  0  0
 35 72  1  0  0  0  0
 35 79  2  0  0  0  0
 36 68  1  0  0  0  0
 36 73  1  0  0  0  0
 36 80  2  0  0  0  0
 37 40  1  0  0  0  0
 38 47  1  0  0  0  0
 39 67  1  0  0  0  0
 40 42  1  0  0  0  0
 41 43  1  0  0  0  0
 41 44  1  0  0  0  0
 42 46  1  0  0  0  0
 43 48  1  0  0  0  0
 44 68  1  0  0  0  0
 45 48  1  0  0  0  0
 45 68  1  0  0  0  0
 46 71  1  0  0  0  0
 47 67  1  0  0  0  0
 48 66  1  0  0  0  0
 49 61  1  0  0  0  0
 50 62  1  0  0  0  0
 51 62  1  0  0  0  0
 52 63  1  0  0  0  0
 53 63  1  0  0  0  0
 54 63  1  0  0  0  0
 55 75  1  0  0  0  0
 56 73  1  0  0  0  0
 57 58  1  0  0  0  0
 57 65  1  0  0  0  0
 58 82  1  0  0  0  0
 59 62  1  0  0  0  0
 59 74  1  0  0  0  0
 60 63  1  0  0  0  0
 60 72  1  0  0  0  0
 61 75  1  0  0  0  0
 64 66  1  0  0  0  0
M  CHG  2  74   1  75   1
M  ISO  4  36 100  58 101  73 100  82 101
M  END
> <Batch ID>
0103

> <Smiles>
CNC(C)C(=O)NC(C(=O)N1Cc2cc([101O:1][101CH2:1]Cn3cc(C[100NH:0][100C:0](=O)N4CCCC(n5nc(-c6ccc(Oc7ccc(F)cc7F)cc6)c(C(N)=O)c5N)C4)cc3C(N)C(C)C)ccc2CC1C(=O)NC1CCCc2ccccc21)C(C)(C)C

> <Shape>
0.230

> <Color>
0.094

> <Negative vol penalty>
0.000

$$$$

  -OEChem-04052319413D

 87 95  0     1  0  0  0  0  0999 V2000
  -27.8272  -10.3776   20.5105 C   0  0  0  0  0  0  0  0  0  0  0  0
  -28.5075  -11.5811   20.3552 C   0  0  0  0  0  0  0  0  0  0  0  0
  -21.1266  -28.2341   21.9887 C   0  0  0  0  0  0  0  0  0  0  0  0
  -22.9606  -27.1946   23.1690 C   0  0  0  0  0  0  0  0  0  0  0  0
  -26.4332  -10.3585   20.4905 C   0  0  0  0  0  0  0  0  0  0  0  0
  -27.7941  -12.7662   20.1787 C   0  0  0  0  0  0  0  0  0  0  0  0
  -29.3288  -18.3278   22.2328 C   0  0  0  0  0  0  0  0  0  0  0  0
  -20.2337  -27.3555   22.6022 C   0  0  0  0  0  0  0  0  0  0  0  0
  -22.0677  -26.3159   23.7825 C   0  0  0  0  0  0  0  0  0  0  0  0
  -29.9467  -19.4167   21.6195 C   0  0  0  0  0  0  0  0  0  0  0  0
  -19.2441  -24.1455   22.2268 C   0  0  0  0  0  0  0  0  0  0  0  0
  -18.2707  -23.5479   21.4261 C   0  0  0  0  0  0  0  0  0  0  0  0
  -27.7827  -20.3811   21.1653 C   0  0  0  0  0  0  0  0  0  0  0  0
  -31.7473  -28.1984   19.6647 C   0  0  0  0  0  0  0  0  0  0  0  0
  -16.5403  -24.5514   22.7811 C   0  0  0  0  0  0  0  0  0  0  0  0
  -31.1966  -26.6464   21.8404 C   0  0  0  0  0  0  0  0  0  0  0  0
  -22.4900  -28.1536   22.2721 C   0  0  0  0  0  0  0  0  0  0  0  0
  -23.8246  -30.3216   22.1096 C   0  0  0  0  0  0  0  0  0  0  0  0
  -25.7022  -11.5453   20.3234 C   0  0  0  0  0  0  0  0  0  0  0  0
  -27.9306  -18.2519   22.3075 C   0  0  0  0  0  0  0  0  0  0  0  0
  -26.3891  -12.7628   20.1551 C   0  0  0  0  0  0  0  0  0  0  0  0
  -27.1496  -19.2914   21.7824 C   0  0  0  0  0  0  0  0  0  0  0  0
  -30.8021  -27.1842   19.5575 C   0  0  0  0  0  0  0  0  0  0  0  0
  -30.5157  -26.3889   20.6614 C   0  0  0  0  0  0  0  0  0  0  0  0
  -20.7042  -26.3964   23.4991 C   0  0  0  0  0  0  0  0  0  0  0  0
  -29.1736  -20.4422   21.0830 C   0  0  0  0  0  0  0  0  0  0  0  0
  -18.8656  -24.9459   23.3047 C   0  0  0  0  0  0  0  0  0  0  0  0
  -16.9188  -23.7509   21.7033 C   0  0  0  0  0  0  0  0  0  0  0  0
  -17.5137  -25.1489   23.5818 C   0  0  0  0  0  0  0  0  0  0  0  0
  -23.4129  -29.0606   21.6382 C   0  0  0  0  0  0  0  0  0  0  0  0
  -32.3729  -28.3750   20.8883 C   0  0  0  0  0  0  0  0  0  0  0  0
  -24.6992  -30.7768   21.1533 C   0  0  0  0  0  0  0  0  0  0  0  0
  -23.4501  -31.0190   23.3049 C   0  0  0  0  0  0  0  0  0  0  0  0
  -25.7301  -16.2475   21.1921 C   0  0  0  0  0  0  0  0  0  0  0  0
  -23.7256  -18.0725   22.9736 C   0  0  0  0  0  0  0  0  0  0  0  0
  -23.0997  -21.0763   24.4675 C   0  0  0  0  0  0  0  0  0  0  0  0
  -28.1499  -27.9944   17.1281 C   0  0  0  0  0  0  0  0  0  0  0  0
  -24.1973  -11.4683   20.2611 C   0  0  0  0  0  0  0  0  0  0  0  0
  -27.2801  -17.0835   22.9961 C   0  0  0  0  0  0  0  0  0  0  0  0
  -25.6454  -19.2675   21.8547 C   0  0  0  0  0  0  0  0  0  0  0  0
  -23.5102  -12.8190   20.4443 C   0  0  0  0  0  0  0  0  0  0  0  0
  -25.6420  -30.4359   16.4751 C   0  0  0  0  0  0  0  0  0  0  0  0
  -24.1835  -13.8818   19.5817 C   0  0  0  0  0  0  0  0  0  0  0  0
  -24.8235  -30.4741   17.7668 C   0  0  0  0  0  0  0  0  0  0  0  0
  -26.1188  -29.0219   16.1506 C   0  0  0  0  0  0  0  0  0  0  0  0
  -26.0351  -28.3892   18.5310 C   0  0  0  0  0  0  0  0  0  0  0  0
  -25.6503  -14.0726   19.9861 C   0  0  1  0  0  0  0  0  0  0  0  0
  -25.8354  -16.8613   22.5595 C   0  0  1  0  0  0  0  0  0  0  0  0
  -25.5793  -29.8033   18.9296 C   0  0  2  0  0  0  0  0  0  0  0  0
  -31.6790  -31.2656   21.6512 C   0  0  0  0  0  0  0  0  0  0  0  0
  -21.3614  -22.2799   25.8193 C   0  0  0  0  0  0  0  0  0  0  0  0
  -35.4223  -28.1111   20.2074 C   0  0  0  0  0  0  0  0  0  0  0  0
  -34.9883  -28.1810   22.6735 C   0  0  0  0  0  0  0  0  0  0  0  0
  -22.0327  -18.4429   20.4622 C   0  0  0  0  0  0  0  0  0  0  0  0
  -20.8940  -20.3621   21.5972 C   0  0  0  0  0  0  0  0  0  0  0  0
  -20.7213  -18.0666   22.5582 C   0  0  0  0  0  0  0  0  0  0  0  0
  -24.9576  -21.4471   26.7412 C   0  0  0  0  0  0  0  0  0  0  0  0
  -29.5008  -25.2755   20.6009 C   0  0  0  0  0  0  0  0  0  0  0  0
  -30.1098  -26.9682   18.2526 C   0  0  0  0  0  0  0  0  0  0  0  0
  -32.9884  -30.5855   22.0374 C   0  0  0  0  0  0  0  0  0  0  0  0
  -30.1221  -23.8794   20.5191 C   0  0  0  0  0  0  0  0  0  0  0  0
  -29.0909  -22.7572   20.5447 C   0  0  0  0  0  0  0  0  0  1  0  0
  -33.3929  -29.4536   21.0398 C   0  0  1  0  0  0  0  0  0  0  0  0
  -22.9110  -19.3192   22.7265 C   0  0  1  0  0  0  0  0  0  0  0  0
  -22.6189  -21.4258   25.8644 C   0  0  2  0  0  0  0  0  0  0  0  0
  -34.8507  -28.9500   21.3568 C   0  0  0  0  0  0  0  0  0  0  0  0
  -21.6680  -19.0475   21.8328 C   0  0  0  0  0  0  0  0  0  0  0  0
  -32.1211  -27.6224   21.9828 N   0  0  0  0  0  0  0  0  0  0  0  0
  -23.9793  -28.7356   20.4730 N   0  0  0  0  0  0  0  0  0  0  0  0
  -24.7557  -29.7990   20.2041 N   0  0  0  0  0  0  0  0  0  0  0  0
  -25.0561  -18.1008   22.5323 N   0  0  0  0  0  0  0  0  0  0  0  0
  -26.8292  -28.4432   17.2936 N   0  0  0  0  0  0  0  0  0  0  0  0
  -25.4176  -31.9141   21.0401 N   0  0  0  0  0  0  0  0  0  0  0  0
  -22.5404  -30.4073   24.1782 N   0  0  0  0  0  0  0  0  0  0  0  0
  -25.7427  -14.8657   21.1931 N   0  0  0  0  0  0  0  0  0  0  0  0
  -22.5936  -19.8667   24.0410 N   0  0  0  0  0  0  0  0  0  0  0  0
  -28.7521  -27.4655   18.2631 N   0  0  0  0  0  0  0  0  0  0  0  0
  -23.6725  -22.1792   26.6014 N   0  3  0  0  0  0  0  0  0  0  0  0
  -23.8959  -32.1583   23.5821 O   0  0  0  0  0  0  0  0  0  0  0  0
  -25.6425  -16.9738   20.2089 O   0  0  0  0  0  0  0  0  0  0  0  0
  -23.2028  -17.1116   23.5437 O   0  0  0  0  0  0  0  0  0  0  0  0
  -23.8462  -21.8053   23.8182 O   0  0  0  0  0  0  0  0  0  0  0  0
  -28.7498  -28.0651   16.0501 O   0  0  0  0  0  0  0  0  0  0  0  0
  -19.8332  -25.5390   24.0981 O   0  0  0  0  0  0  0  0  0  0  0  0
  -29.7741  -21.5059   20.4832 O   0  0  0  0  0  0  0  0  0  1  0  0
  -15.9842  -23.1783   20.9334 F   0  0  0  0  0  0  0  0  0  0  0  0
  -17.1440  -25.9177   24.6152 F   0  0  0  0  0  0  0  0  0  0  0  0
  1  2  1  0  0  0  0
  1  5  2  0  0  0  0
  2  6  2  0  0  0  0
  3  8  2  0  0  0  0
  3 17  1  0  0  0  0
  4  9  1  0  0  0  0
  4 17  2  0  0  0  0
  5 19  1  0  0  0  0
  6 21  1  0  0  0  0
  7 10  2  0  0  0  0
  7 20  1  0  0  0  0
  8 25  1  0  0  0  0
  9 25  2  0  0  0  0
 10 26  1  0  0  0  0
 11 12  2  0  0  0  0
 11 27  1  0  0  0  0
 12 28  1  0  0  0  0
 13 22  1  0  0  0  0
 13 26  2  0  0  0  0
 14 23  2  0  0  0  0
 14 31  1  0  0  0  0
 15 28  2  0  0  0  0
 15 29  1  0  0  0  0
 16 24  2  0  0  0  0
 16 68  1  0  0  0  0
 17 30  1  0  0  0  0
 18 30  1  0  0  0  0
 18 32  2  0  0  0  0
 18 33  1  0  0  0  0
 19 21  2  0  0  0  0
 19 38  1  0  0  0  0
 20 22  2  0  0  0  0
 20 39  1  0  0  0  0
 21 47  1  0  0  0  0
 22 40  1  0  0  0  0
 23 24  1  0  0  0  0
 23 59  1  0  0  0  0
 24 58  1  0  0  0  0
 25 84  1  0  0  0  0
 26 85  1  0  0  0  0
 27 29  2  0  0  0  0
 27 84  1  0  0  0  0
 28 86  1  0  0  0  0
 29 87  1  0  0  0  0
 30 69  2  0  0  0  0
 31 63  1  0  0  0  0
 31 68  2  0  0  0  0
 32 70  1  0  0  0  0
 32 73  1  0  0  0  0
 33 74  1  0  0  0  0
 33 79  2  0  0  0  0
 34 48  1  0  0  0  0
 34 75  1  0  0  0  0
 34 80  2  0  0  0  0
 35 64  1  0  0  0  0
 35 71  1  0  0  0  0
 35 81  2  0  0  0  0
 36 65  1  0  0  0  0
 36 76  1  0  0  0  0
 36 82  2  0  0  0  0
 37 72  1  0  0  0  0
 37 77  1  0  0  0  0
 37 83  2  0  0  0  0
 38 41  1  0  0  0  0
 39 48  1  0  0  0  0
 40 71  1  0  0  0  0
 41 43  1  0  0  0  0
 42 44  1  0  0  0  0
 42 45  1  0  0  0  0
 43 47  1  0  0  0  0
 44 49  1  0  0  0  0
 45 72  1  0  0  0  0
 46 49  1  0  0  0  0
 46 72  1  0  0  0  0
 47 75  1  0  0  0  0
 48 71  1  0  0  0  0
 49 70  1  0  0  0  0
 50 60  1  0  0  0  0
 51 65  1  0  0  0  0
 52 66  1  0  0  0  0
 53 66  1  0  0  0  0
 54 67  1  0  0  0  0
 55 67  1  0  0  0  0
 56 67  1  0  0  0  0
 57 78  1  0  0  0  0
 58 61  1  0  0  0  0
 59 77  1  0  0  0  0
 60 63  1  0  0  0  0
 61 62  1  0  0  0  0
 62 85  1  0  0  0  0
 63 66  1  0  0  0  0
 64 67  1  0  0  0  0
 64 76  1  0  0  0  0
 65 78  1  0  0  0  0
 69 70  1  0  0  0  0
M  CHG  1  78   1
M  ISO  4  37 100  62 101  77 100  85 101
M  END
> <Batch ID>
0103

> <Smiles>
CCC(c1cc(C[100NH:0][100C:0](=O)N2CCCC(n3nc(-c4ccc(Oc5ccc(F)cc5F)cc4)c(C(N)=O)c3N)C2)c(CC[101CH2:1][101O:1]c2ccc3c(c2)CN(C(=O)C(NC(=O)C(C)NC)C(C)(C)C)C(C(=O)NC2CCCc4ccccc42)C3)cn1)C(C)C

> <Shape>
0.196

> <Color>
0.052

> <Negative vol penalty>
0.000

$$$$

  -OEChem-04052319413D

 82 90  0     1  0  0  0  0  0999 V2000
  -20.9764  -20.1081   22.4936 C   0  0  0  0  0  0  0  0  0  0  0  0
  -22.2851  -20.2651   22.0485 C   0  0  0  0  0  0  0  0  0  0  0  0
  -27.7813  -12.2420   22.7522 C   0  0  0  0  0  0  0  0  0  0  0  0
  -27.4074  -11.6480   20.4404 C   0  0  0  0  0  0  0  0  0  0  0  0
  -20.0751  -21.1670   22.3920 C   0  0  0  0  0  0  0  0  0  0  0  0
  -22.6929  -21.4807   21.5005 C   0  0  0  0  0  0  0  0  0  0  0  0
  -28.2192  -24.0730   21.9958 C   0  0  0  0  0  0  0  0  0  0  0  0
  -26.8695  -11.2646   23.1508 C   0  0  0  0  0  0  0  0  0  0  0  0
  -26.4957  -10.6705   20.8390 C   0  0  0  0  0  0  0  0  0  0  0  0
  -29.3197  -24.1063   21.1406 C   0  0  0  0  0  0  0  0  0  0  0  0
  -23.2759  -10.5356   21.8616 C   0  0  0  0  0  0  0  0  0  0  0  0
  -22.0694  -10.4528   21.1666 C   0  0  0  0  0  0  0  0  0  0  0  0
  -28.5922  -26.2462   20.2974 C   0  0  0  0  0  0  0  0  0  0  0  0
  -22.5912   -8.1808   20.5318 C   0  0  0  0  0  0  0  0  0  0  0  0
  -30.0340  -23.4212   16.1386 C   0  0  0  0  0  0  0  0  0  0  0  0
  -28.0502  -12.4338   21.3970 C   0  0  0  0  0  0  0  0  0  0  0  0
  -30.3784  -13.2885   20.7999 C   0  0  0  0  0  0  0  0  0  0  0  0
  -20.4747  -22.3993   21.8513 C   0  0  0  0  0  0  0  0  0  0  0  0
  -27.2895  -25.1228   22.0005 C   0  0  0  0  0  0  0  0  0  0  0  0
  -21.7957  -22.5566   21.3903 C   0  0  0  0  0  0  0  0  0  0  0  0
  -27.4822  -26.2250   21.1555 C   0  0  0  0  0  0  0  0  0  0  0  0
  -30.1056  -22.0459   16.1143 C   0  0  0  0  0  0  0  0  0  0  0  0
  -31.2334  -21.6673   16.8836 C   0  0  0  0  0  0  0  0  0  0  0  0
  -26.2267  -10.4788   22.1942 C   0  0  0  0  0  0  0  0  0  0  0  0
  -29.5049  -25.1916   20.2891 C   0  0  0  0  0  0  0  0  0  0  0  0
  -24.1401   -9.4411   21.8917 C   0  0  0  0  0  0  0  0  0  0  0  0
  -21.7270   -9.2753   20.5017 C   0  0  0  0  0  0  0  0  0  0  0  0
  -23.7977   -8.2637   21.2269 C   0  0  0  0  0  0  0  0  0  0  0  0
  -28.9915  -13.4437   20.9845 C   0  0  0  0  0  0  0  0  0  0  0  0
  -31.8167  -22.8228   17.3547 C   0  0  0  0  0  0  0  0  0  0  0  0
  -30.8140  -14.5311   20.4093 C   0  0  0  0  0  0  0  0  0  0  0  0
  -31.1996  -12.1250   20.9665 C   0  0  0  0  0  0  0  0  0  0  0  0
  -24.1864  -25.3738   21.3591 C   0  0  0  0  0  0  0  0  0  0  0  0
  -24.6094  -28.4085   22.4237 C   0  0  0  0  0  0  0  0  0  0  0  0
  -26.7414  -31.0173   22.9677 C   0  0  0  0  0  0  0  0  0  0  0  0
  -28.0622  -18.9860   17.6823 C   0  0  0  0  0  0  0  0  0  0  0  0
  -19.4518  -23.4997   21.7185 C   0  0  0  0  0  0  0  0  0  0  0  0
  -26.1221  -25.0843   22.9482 C   0  0  0  0  0  0  0  0  0  0  0  0
  -26.5239  -27.3869   21.1367 C   0  0  0  0  0  0  0  0  0  0  0  0
  -20.0656  -24.8750   21.4698 C   0  0  0  0  0  0  0  0  0  0  0  0
  -29.7708  -19.1797   20.8668 C   0  0  0  0  0  0  0  0  0  0  0  0
  -21.1367  -24.7937   20.3868 C   0  0  0  0  0  0  0  0  0  0  0  0
  -29.8938  -17.7004   21.2364 C   0  0  0  0  0  0  0  0  0  0  0  0
  -28.4414  -19.4681   20.1756 C   0  0  0  0  0  0  0  0  0  0  0  0
  -28.3034  -17.1554   19.3355 C   0  0  0  0  0  0  0  0  0  0  0  0
  -22.2826  -23.8678   20.8126 C   0  0  1  0  0  0  0  0  0  0  0  0
  -24.9608  -25.9672   22.5018 C   0  0  1  0  0  0  0  0  0  0  0  0
  -29.6357  -16.7949   20.0175 C   0  0  2  0  0  0  0  0  0  0  0  0
  -31.7003  -20.2883   17.1355 C   0  0  0  0  0  0  0  0  0  0  0  0
  -33.0128  -23.0104   18.2029 C   0  0  0  0  0  0  0  0  0  0  0  0
  -26.7884  -33.3796   23.8129 C   0  0  0  0  0  0  0  0  0  0  0  0
  -23.3637  -29.3665   19.8083 C   0  0  0  0  0  0  0  0  0  0  0  0
  -24.2902  -31.6437   20.2821 C   0  0  0  0  0  0  0  0  0  0  0  0
  -22.6264  -30.6274   21.8383 C   0  0  0  0  0  0  0  0  0  0  0  0
  -28.6066  -30.3196   25.1570 C   0  0  0  0  0  0  0  0  0  0  0  0
  -29.1726  -21.1426   15.4115 C   0  0  0  0  0  0  0  0  0  0  0  0
  -31.3584  -25.3404   17.1704 C   0  0  0  0  0  0  0  0  0  0  0  0
  -27.8379  -20.9216   16.1459 C   0  0  0  0  0  0  0  0  0  0  0  0
  -30.4169  -25.9238   18.2184 C   0  0  0  0  0  0  0  0  0  1  0  0
  -24.9868  -29.7230   21.7843 C   0  0  1  0  0  0  0  0  0  0  0  0
  -26.9509  -31.9118   24.1761 C   0  0  2  0  0  0  0  0  0  0  0  0
  -23.8340  -30.3175   20.9270 C   0  0  0  0  0  0  0  0  0  0  0  0
  -28.5737  -14.6870   20.7321 N   0  0  0  0  0  0  0  0  0  0  0  0
  -31.0790  -23.8827   16.8958 N   0  0  0  0  0  0  0  0  0  0  0  0
  -29.7048  -15.3243   20.3850 N   0  0  0  0  0  0  0  0  0  0  0  0
  -25.3946  -27.2998   22.0772 N   0  0  0  0  0  0  0  0  0  0  0  0
  -28.2658  -18.5858   19.0134 N   0  0  0  0  0  0  0  0  0  0  0  0
  -32.0339  -15.0117   20.0878 N   0  0  0  0  0  0  0  0  0  0  0  0
  -30.5904  -10.9299   21.3729 N   0  0  0  0  0  0  0  0  0  0  0  0
  -23.1549  -24.5417   21.7504 N   0  0  0  0  0  0  0  0  0  0  0  0
  -25.4340  -30.5908   22.8684 N   0  0  0  0  0  0  0  0  0  0  0  0
  -28.0328  -20.3578   17.4632 N   0  0  0  0  0  0  0  0  0  0  0  0
  -28.3180  -31.7147   24.7358 N   0  3  0  0  0  0  0  0  0  0  0  0
  -32.4393  -12.1486   20.7770 O   0  0  0  0  0  0  0  0  0  0  0  0
  -24.5005  -25.6514   20.2076 O   0  0  0  0  0  0  0  0  0  0  0  0
  -23.6577  -28.3685   23.2075 O   0  0  0  0  0  0  0  0  0  0  0  0
  -27.6463  -30.7289   22.1875 O   0  0  0  0  0  0  0  0  0  0  0  0
  -27.9224  -18.1801   16.7560 O   0  0  0  0  0  0  0  0  0  0  0  0
  -25.3372   -9.5247   22.5829 O   0  0  0  0  0  0  0  0  0  0  0  0
  -30.5778  -25.2263   19.4528 O   0  0  0  0  0  0  0  0  0  1  0  0
  -20.5677   -9.1954   19.8356 F   0  0  0  0  0  0  0  0  0  0  0  0
  -24.6234   -7.2085   21.2532 F   0  0  0  0  0  0  0  0  0  0  0  0
  1  2  1  0  0  0  0
  1  5  2  0  0  0  0
  2  6  2  0  0  0  0
  3  8  2  0  0  0  0
  3 16  1  0  0  0  0
  4  9  1  0  0  0  0
  4 16  2  0  0  0  0
  5 18  1  0  0  0  0
  6 20  1  0  0  0  0
  7 10  2  0  0  0  0
  7 19  1  0  0  0  0
  8 24  1  0  0  0  0
  9 24  2  0  0  0  0
 10 25  1  0  0  0  0
 11 12  2  0  0  0  0
 11 26  1  0  0  0  0
 12 27  1  0  0  0  0
 13 21  1  0  0  0  0
 13 25  2  0  0  0  0
 14 27  2  0  0  0  0
 14 28  1  0  0  0  0
 15 22  2  0  0  0  0
 15 64  1  0  0  0  0
 16 29  1  0  0  0  0
 17 29  1  0  0  0  0
 17 31  2  0  0  0  0
 17 32  1  0  0  0  0
 18 20  2  0  0  0  0
 18 37  1  0  0  0  0
 19 21  2  0  0  0  0
 19 38  1  0  0  0  0
 20 46  1  0  0  0  0
 21 39  1  0  0  0  0
 22 23  1  0  0  0  0
 22 56  1  0  0  0  0
 23 30  2  0  0  0  0
 23 49  1  0  0  0  0
 24 79  1  0  0  0  0
 25 80  1  0  0  0  0
 26 28  2  0  0  0  0
 26 79  1  0  0  0  0
 27 81  1  0  0  0  0
 28 82  1  0  0  0  0
 29 63  2  0  0  0  0
 30 50  1  0  0  0  0
 30 64  1  0  0  0  0
 31 65  1  0  0  0  0
 31 68  1  0  0  0  0
 32 69  1  0  0  0  0
 32 74  2  0  0  0  0
 33 47  1  0  0  0  0
 33 70  1  0  0  0  0
 33 75  2  0  0  0  0
 34 60  1  0  0  0  0
 34 66  1  0  0  0  0
 34 76  2  0  0  0  0
 35 61  1  0  0  0  0
 35 71  1  0  0  0  0
 35 77  2  0  0  0  0
 36 67  1  0  0  0  0
 36 72  1  0  0  0  0
 36 78  2  0  0  0  0
 37 40  1  0  0  0  0
 38 47  1  0  0  0  0
 39 66  1  0  0  0  0
 40 42  1  0  0  0  0
 41 43  1  0  0  0  0
 41 44  1  0  0  0  0
 42 46  1  0  0  0  0
 43 48  1  0  0  0  0
 44 67  1  0  0  0  0
 45 48  1  0  0  0  0
 45 67  1  0  0  0  0
 46 70  1  0  0  0  0
 47 66  1  0  0  0  0
 48 65  1  0  0  0  0
 51 61  1  0  0  0  0
 52 62  1  0  0  0  0
 53 62  1  0  0  0  0
 54 62  1  0  0  0  0
 55 73  1  0  0  0  0
 56 58  1  0  0  0  0
 57 59  1  0  0  0  0
 57 64  1  0  0  0  0
 58 72  1  0  0  0  0
 59 80  1  0  0  0  0
 60 62  1  0  0  0  0
 60 71  1  0  0  0  0
 61 73  1  0  0  0  0
 63 65  1  0  0  0  0
M  CHG  1  73   1
M  ISO  4  36 100  59 101  72 100  80 101
M  END
> <Batch ID>
0103

> <Smiles>
CNC(C)C(=O)NC(C(=O)N1Cc2cc([101O:1][101CH2:1]Cn3cc(CC[100NH:0][100C:0](=O)N4CCCC(n5nc(-c6ccc(Oc7ccc(F)cc7F)cc6)c(C(N)=O)c5N)C4)c(C)c3C)ccc2CC1C(=O)NC1CCCc2ccccc21)C(C)(C)C

> <Shape>
0.248

> <Color>
0.070

> <Negative vol penalty>
0.000

$$$$

  -OEChem-04052319413D

 84 92  0     1  0  0  0  0  0999 V2000
  -17.1677  -13.8331   22.4932 C   0  0  0  0  0  0  0  0  0  0  0  0
  -18.0917  -14.8683   22.3927 C   0  0  0  0  0  0  0  0  0  0  0  0
  -25.7466  -31.1934   21.4288 C   0  0  0  0  0  0  0  0  0  0  0  0
  -28.1442  -31.4343   21.6034 C   0  0  0  0  0  0  0  0  0  0  0  0
  -17.5928  -12.5523   22.8433 C   0  0  0  0  0  0  0  0  0  0  0  0
  -19.4414  -14.6233   22.6434 C   0  0  0  0  0  0  0  0  0  0  0  0
  -22.4758  -16.7534   19.1938 C   0  0  0  0  0  0  0  0  0  0  0  0
  -25.5849  -32.5242   21.8139 C   0  0  0  0  0  0  0  0  0  0  0  0
  -27.9825  -32.7651   21.9884 C   0  0  0  0  0  0  0  0  0  0  0  0
  -22.7101  -18.1228   19.3108 C   0  0  0  0  0  0  0  0  0  0  0  0
  -25.6464  -34.3119   24.6818 C   0  0  0  0  0  0  0  0  0  0  0  0
  -24.6689  -34.5956   25.6354 C   0  0  0  0  0  0  0  0  0  0  0  0
  -24.8352  -17.6639   20.3559 C   0  0  0  0  0  0  0  0  0  0  0  0
  -26.7754  -20.6611   19.4497 C   0  0  0  0  0  0  0  0  0  0  0  0
  -27.3453  -20.0750   21.7116 C   0  0  0  0  0  0  0  0  0  0  0  0
  -23.5472  -36.0394   24.0561 C   0  0  0  0  0  0  0  0  0  0  0  0
  -27.0263  -30.6484   21.3235 C   0  0  0  0  0  0  0  0  0  0  0  0
  -27.3393  -28.7789   19.6164 C   0  0  0  0  0  0  0  0  0  0  0  0
  -18.9497  -12.2894   23.0890 C   0  0  0  0  0  0  0  0  0  0  0  0
  -23.4162  -15.8274   19.6677 C   0  0  0  0  0  0  0  0  0  0  0  0
  -19.8848  -13.3380   22.9984 C   0  0  0  0  0  0  0  0  0  0  0  0
  -24.6117  -16.2833   20.2415 C   0  0  0  0  0  0  0  0  0  0  0  0
  -26.3831  -20.3596   20.7491 C   0  0  0  0  0  0  0  0  0  0  0  0
  -26.7028  -33.3101   22.0937 C   0  0  0  0  0  0  0  0  0  0  0  0
  -23.8886  -18.5782   19.8945 C   0  0  0  0  0  0  0  0  0  0  0  0
  -25.5744  -34.8921   23.4153 C   0  0  0  0  0  0  0  0  0  0  0  0
  -23.6192  -35.4593   25.3226 C   0  0  0  0  0  0  0  0  0  0  0  0
  -24.5248  -35.7558   23.1024 C   0  0  0  0  0  0  0  0  0  0  0  0
  -27.1941  -29.2736   20.9263 C   0  0  0  0  0  0  0  0  0  0  0  0
  -28.1317  -20.6648   19.1661 C   0  0  0  0  0  0  0  0  0  0  0  0
  -28.6760  -20.1047   21.3267 C   0  0  0  0  0  0  0  0  0  0  0  0
  -27.4652  -27.4203   19.7744 C   0  0  0  0  0  0  0  0  0  0  0  0
  -27.3589  -29.4843   18.3683 C   0  0  0  0  0  0  0  0  0  0  0  0
  -23.4025  -13.5530   21.8882 C   0  0  0  0  0  0  0  0  0  0  0  0
  -26.3430  -12.9016   20.6833 C   0  0  0  0  0  0  0  0  0  0  0  0
  -29.0937  -14.0122   18.9961 C   0  0  0  0  0  0  0  0  0  0  0  0
  -29.8097  -23.1562   22.3302 C   0  0  0  0  0  0  0  0  0  0  0  0
  -19.3550  -10.8992   23.5106 C   0  0  0  0  0  0  0  0  0  0  0  0
  -23.1605  -14.3536   19.5099 C   0  0  0  0  0  0  0  0  0  0  0  0
  -25.6624  -15.3302   20.7476 C   0  0  0  0  0  0  0  0  0  0  0  0
  -20.8549  -10.6403   23.3941 C   0  0  0  0  0  0  0  0  0  0  0  0
  -26.7292  -24.4809   23.8090 C   0  0  0  0  0  0  0  0  0  0  0  0
  -21.6448  -11.8008   23.9911 C   0  0  0  0  0  0  0  0  0  0  0  0
  -26.6142  -25.8293   23.1020 C   0  0  0  0  0  0  0  0  0  0  0  0
  -28.1847  -24.1002   24.0747 C   0  0  0  0  0  0  0  0  0  0  0  0
  -28.9259  -25.4649   22.1468 C   0  0  0  0  0  0  0  0  0  0  0  0
  -21.3609  -13.1063   23.2385 C   0  0  1  0  0  0  0  0  0  0  0  0
  -23.9567  -13.5004   20.4925 C   0  0  1  0  0  0  0  0  0  0  0  0
  -27.4736  -25.8542   21.8274 C   0  0  2  0  0  0  0  0  0  0  0  0
  -28.8334  -22.4790   17.5842 C   0  0  0  0  0  0  0  0  0  0  0  0
  -24.4208  -21.7097   21.5674 C   0  0  0  0  0  0  0  0  0  0  0  0
  -30.6211  -18.6120   21.9443 C   0  0  0  0  0  0  0  0  0  0  0  0
  -31.3514  -13.2614   18.1981 C   0  0  0  0  0  0  0  0  0  0  0  0
  -27.4218  -13.1297   23.5284 C   0  0  0  0  0  0  0  0  0  0  0  0
  -29.7247  -13.3219   22.5653 C   0  0  0  0  0  0  0  0  0  0  0  0
  -28.3885  -11.2485   22.1938 C   0  0  0  0  0  0  0  0  0  0  0  0
  -28.3804  -14.4908   16.1639 C   0  0  0  0  0  0  0  0  0  0  0  0
  -28.5896  -20.9856   17.7826 C   0  0  0  0  0  0  0  0  0  0  0  0
  -24.9164  -20.3423   21.1142 C   0  0  1  0  0  0  0  0  0  1  0  0
  -29.7353  -19.8025   22.3334 C   0  0  1  0  0  0  0  0  0  0  0  0
  -27.7472  -13.3707   20.9784 C   0  0  1  0  0  0  0  0  0  0  0  0
  -29.8798  -13.4114   17.8448 C   0  0  2  0  0  0  0  0  0  0  0  0
  -28.3001  -12.7859   22.3088 C   0  0  0  0  0  0  0  0  0  0  0  0
  -27.2244  -28.3078   21.8485 N   0  0  0  0  0  0  0  0  0  0  0  0
  -29.0955  -20.3934   20.0744 N   0  0  0  0  0  0  0  0  0  0  0  0
  -27.3902  -27.1927   21.1171 N   0  0  0  0  0  0  0  0  0  0  0  0
  -25.3632  -13.8989   20.5763 N   0  0  0  0  0  0  0  0  0  0  0  0
  -28.9876  -24.1755   22.8450 N   0  0  0  0  0  0  0  0  0  0  0  0
  -27.6315  -26.4101   18.8944 N   0  0  0  0  0  0  0  0  0  0  0  0
  -27.2168  -30.8785   18.3866 N   0  0  0  0  0  0  0  0  0  0  0  0
  -22.0885  -13.1372   21.9878 N   0  0  0  0  0  0  0  0  0  0  0  0
  -28.5443  -13.0381   19.8026 N   0  0  0  0  0  0  0  0  0  0  0  0
  -29.8412  -21.9845   23.0721 N   0  0  0  0  0  0  0  0  0  0  0  0
  -29.7725  -14.2772   16.6366 N   0  3  0  0  0  0  0  0  0  0  0  0
  -30.6327  -20.9502   22.6051 N   0  3  0  0  0  0  0  0  0  0  0  0
  -27.4819  -28.8941   17.2683 O   0  0  0  0  0  0  0  0  0  0  0  0
  -24.1148  -13.9406   22.8069 O   0  0  0  0  0  0  0  0  0  0  0  0
  -26.1248  -11.6954   20.5455 O   0  0  0  0  0  0  0  0  0  0  0  0
  -28.9817  -15.2244   19.1653 O   0  0  0  0  0  0  0  0  0  0  0  0
  -30.4598  -23.2871   21.2872 O   0  0  0  0  0  0  0  0  0  0  0  0
  -26.5453  -34.6088   22.4693 O   0  0  0  0  0  0  0  0  0  0  0  0
  -24.1195  -19.9143   20.0105 O   0  0  0  0  0  0  0  0  0  1  0  0
  -22.6797  -35.7304   26.2380 F   0  0  0  0  0  0  0  0  0  0  0  0
  -24.4496  -36.3152   21.8870 F   0  0  0  0  0  0  0  0  0  0  0  0
  1  2  1  0  0  0  0
  1  5  2  0  0  0  0
  2  6  2  0  0  0  0
  3  8  2  0  0  0  0
  3 17  1  0  0  0  0
  4  9  1  0  0  0  0
  4 17  2  0  0  0  0
  5 19  1  0  0  0  0
  6 21  1  0  0  0  0
  7 10  2  0  0  0  0
  7 20  1  0  0  0  0
  8 24  1  0  0  0  0
  9 24  2  0  0  0  0
 10 25  1  0  0  0  0
 11 12  2  0  0  0  0
 11 26  1  0  0  0  0
 12 27  1  0  0  0  0
 13 22  1  0  0  0  0
 13 25  2  0  0  0  0
 14 23  2  0  0  0  0
 14 30  1  0  0  0  0
 15 23  1  0  0  0  0
 15 31  2  0  0  0  0
 16 27  2  0  0  0  0
 16 28  1  0  0  0  0
 17 29  1  0  0  0  0
 18 29  1  0  0  0  0
 18 32  2  0  0  0  0
 18 33  1  0  0  0  0
 19 21  2  0  0  0  0
 19 38  1  0  0  0  0
 20 22  2  0  0  0  0
 20 39  1  0  0  0  0
 21 47  1  0  0  0  0
 22 40  1  0  0  0  0
 23 59  1  0  0  0  0
 24 81  1  0  0  0  0
 25 82  1  0  0  0  0
 26 28  2  0  0  0  0
 26 81  1  0  0  0  0
 27 83  1  0  0  0  0
 28 84  1  0  0  0  0
 29 64  2  0  0  0  0
 30 58  1  0  0  0  0
 30 65  2  0  0  0  0
 31 60  1  0  0  0  0
 31 65  1  0  0  0  0
 32 66  1  0  0  0  0
 32 69  1  0  0  0  0
 33 70  1  0  0  0  0
 33 76  2  0  0  0  0
 34 48  1  0  0  0  0
 34 71  1  0  0  0  0
 34 77  2  0  0  0  0
 35 61  1  0  0  0  0
 35 67  1  0  0  0  0
 35 78  2  0  0  0  0
 36 62  1  0  0  0  0
 36 72  1  0  0  0  0
 36 79  2  0  0  0  0
 37 68  1  0  0  0  0
 37 73  1  0  0  0  0
 37 80  2  0  0  0  0
 38 41  1  0  0  0  0
 39 48  1  0  0  0  0
 40 67  1  0  0  0  0
 41 43  1  0  0  0  0
 42 44  1  0  0  0  0
 42 45  1  0  0  0  0
 43 47  1  0  0  0  0
 44 49  1  0  0  0  0
 45 68  1  0  0  0  0
 46 49  1  0  0  0  0
 46 68  1  0  0  0  0
 47 71  1  0  0  0  0
 48 67  1  0  0  0  0
 49 66  1  0  0  0  0
 50 58  1  0  0  0  0
 51 59  1  0  0  0  0
 52 60  1  0  0  0  0
 53 62  1  0  0  0  0
 54 63  1  0  0  0  0
 55 63  1  0  0  0  0
 56 63  1  0  0  0  0
 57 74  1  0  0  0  0
 59 82  1  0  0  0  0
 60 75  1  0  0  0  0
 61 63  1  0  0  0  0
 61 72  1  0  0  0  0
 62 74  1  0  0  0  0
 64 66  1  0  0  0  0
 73 75  1  0  0  0  0
M  CHG  2  74   1  75   1
M  ISO  4  37 100  59 101  73 100  82 101
M  END
> <Batch ID>
0103

> <Smiles>
CCc1cc([101CH:1](C)[101O:1]c2ccc3c(c2)CN(C(=O)C(NC(=O)C(C)NC)C(C)(C)C)C(C(=O)NC2CCCc4ccccc42)C3)cc(C(C)N[100NH:0][100C:0](=O)N2CCCC(n3nc(-c4ccc(Oc5ccc(F)cc5F)cc4)c(C(N)=O)c3N)C2)n1

> <Shape>
0.210

> <Color>
0.074

> <Negative vol penalty>
0.000

$$$$

  -OEChem-04052319413D

 88 96  0     1  0  0  0  0  0999 V2000
  -33.7707  -14.1420   16.7824 C   0  0  0  0  0  0  0  0  0  0  0  0
  -33.2382  -14.8376   17.8632 C   0  0  0  0  0  0  0  0  0  0  0  0
  -23.1500   -9.8710   19.9552 C   0  0  0  0  0  0  0  0  0  0  0  0
  -23.8188   -9.9592   22.2751 C   0  0  0  0  0  0  0  0  0  0  0  0
  -34.3449  -14.8396   15.7205 C   0  0  0  0  0  0  0  0  0  0  0  0
  -33.2805  -16.2312   17.8831 C   0  0  0  0  0  0  0  0  0  0  0  0
  -28.8922  -18.2871   19.3531 C   0  0  0  0  0  0  0  0  0  0  0  0
  -22.4339   -8.7006   20.2061 C   0  0  0  0  0  0  0  0  0  0  0  0
  -23.1028   -8.7888   22.5260 C   0  0  0  0  0  0  0  0  0  0  0  0
  -28.6132  -18.2832   20.7191 C   0  0  0  0  0  0  0  0  0  0  0  0
  -23.5208   -5.4654   22.0661 C   0  0  0  0  0  0  0  0  0  0  0  0
  -24.1401   -4.4788   22.8334 C   0  0  0  0  0  0  0  0  0  0  0  0
  -33.7481  -18.7332   24.4544 C   0  0  0  0  0  0  0  0  0  0  0  0
  -32.6100  -19.0474   25.2375 C   0  0  0  0  0  0  0  0  0  0  0  0
  -29.3153  -20.5866   20.8629 C   0  0  0  0  0  0  0  0  0  0  0  0
  -22.3685   -4.6383   24.4684 C   0  0  0  0  0  0  0  0  0  0  0  0
  -23.8425  -10.5003   20.9897 C   0  0  0  0  0  0  0  0  0  0  0  0
  -24.1082  -13.0316   20.8177 C   0  0  0  0  0  0  0  0  0  0  0  0
  -34.3855  -16.2428   15.7229 C   0  0  0  0  0  0  0  0  0  0  0  0
  -29.3960  -19.4394   18.7328 C   0  0  0  0  0  0  0  0  0  0  0  0
  -33.8569  -16.9482   16.8208 C   0  0  0  0  0  0  0  0  0  0  0  0
  -29.5974  -20.6033   19.4884 C   0  0  0  0  0  0  0  0  0  0  0  0
  -22.4103   -8.1595   21.4915 C   0  0  0  0  0  0  0  0  0  0  0  0
  -28.8274  -19.4322   21.4747 C   0  0  0  0  0  0  0  0  0  0  0  0
  -22.3255   -6.0386   22.5000 C   0  0  0  0  0  0  0  0  0  0  0  0
  -23.5639   -4.0652   24.0345 C   0  0  0  0  0  0  0  0  0  0  0  0
  -21.7493   -5.6250   23.7011 C   0  0  0  0  0  0  0  0  0  0  0  0
  -24.5828  -11.7091   20.7310 C   0  0  0  0  0  0  0  0  0  0  0  0
  -33.3404  -17.8641   23.4666 C   0  0  0  0  0  0  0  0  0  0  0  0
  -31.5416  -18.3606   24.7044 C   0  0  0  0  0  0  0  0  0  0  0  0
  -25.1894  -13.8074   20.4774 C   0  0  0  0  0  0  0  0  0  0  0  0
  -22.8065  -13.5156   21.1742 C   0  0  0  0  0  0  0  0  0  0  0  0
  -32.0787  -20.1660   17.1905 C   0  0  0  0  0  0  0  0  0  0  0  0
  -30.5393  -22.9661   16.6321 C   0  0  0  0  0  0  0  0  0  0  0  0
  -28.1341  -25.1907   17.5878 C   0  0  0  0  0  0  0  0  0  0  0  0
  -30.9461  -13.9576   21.0703 C   0  0  0  0  0  0  0  0  0  0  0  0
  -35.0588  -16.9515   14.5744 C   0  0  0  0  0  0  0  0  0  0  0  0
  -29.6666  -19.4354   17.2532 C   0  0  0  0  0  0  0  0  0  0  0  0
  -30.1176  -21.8725   18.8663 C   0  0  0  0  0  0  0  0  0  0  0  0
  -34.7276  -18.4397   14.4988 C   0  0  0  0  0  0  0  0  0  0  0  0
  -29.3974  -13.0259   18.0027 C   0  0  0  0  0  0  0  0  0  0  0  0
  -34.8507  -19.0847   15.8756 C   0  0  0  0  0  0  0  0  0  0  0  0
  -27.9539  -12.7143   18.4016 C   0  0  0  0  0  0  0  0  0  0  0  0
  -30.3873  -12.5911   19.0811 C   0  0  0  0  0  0  0  0  0  0  0  0
  -28.6625  -12.8075   20.8281 C   0  0  0  0  0  0  0  0  0  0  0  0
  -33.8616  -18.4608   16.8675 C   0  0  1  0  0  0  0  0  0  0  0  0
  -30.6623  -20.5091   16.8250 C   0  0  1  0  0  0  0  0  0  0  0  0
  -27.6233  -13.2786   19.7964 C   0  0  2  0  0  0  0  0  0  0  0  0
  -35.2353  -16.2965   22.9135 C   0  0  0  0  0  0  0  0  0  0  0  0
  -34.7333  -18.2501   21.4014 C   0  0  0  0  0  0  0  0  0  0  0  0
  -27.1360  -27.4048   16.9563 C   0  0  0  0  0  0  0  0  0  0  0  0
  -29.7327  -15.8464   28.1821 C   0  0  0  0  0  0  0  0  0  0  0  0
  -28.7772  -15.6052   25.8838 C   0  0  0  0  0  0  0  0  0  0  0  0
  -32.9753  -24.3920   17.7910 C   0  0  0  0  0  0  0  0  0  0  0  0
  -31.5740  -26.4546   18.0158 C   0  0  0  0  0  0  0  0  0  0  0  0
  -31.9992  -25.4775   15.7604 C   0  0  0  0  0  0  0  0  0  0  0  0
  -25.4626  -23.9935   17.1536 C   0  0  0  0  0  0  0  0  0  0  0  0
  -29.4252  -19.7276   25.0501 C   0  0  0  0  0  0  0  0  0  0  0  0
  -29.9244  -17.7777   26.5848 C   0  0  0  0  0  0  0  0  0  0  0  0
  -31.1846  -16.7874   22.7913 C   0  0  0  0  0  0  0  0  0  0  0  0
  -31.3523  -15.3050   23.1144 C   0  0  0  0  0  0  0  0  0  0  0  0
  -29.3438  -20.2903   23.6318 C   0  0  0  0  0  0  0  0  0  1  0  0
  -34.1201  -17.2274   22.3850 C   0  0  0  0  0  0  0  0  0  0  0  0
  -30.0866  -18.3286   25.1451 C   0  0  2  0  0  0  0  0  0  0  0  0
  -30.4333  -24.2896   17.3506 C   0  0  1  0  0  0  0  0  0  0  0  0
  -27.0435  -25.8948   16.8009 C   0  0  2  0  0  0  0  0  0  0  0  0
  -29.8969  -16.2387   26.7105 C   0  0  0  0  0  0  0  0  0  0  0  0
  -31.7375  -25.1291   17.2418 C   0  0  0  0  0  0  0  0  0  0  0  0
  -25.8654  -11.6445   20.3641 N   0  0  0  0  0  0  0  0  0  0  0  0
  -31.9974  -17.6444   23.6286 N   0  0  0  0  0  0  0  0  0  0  0  0
  -26.2061  -12.9362   20.2172 N   0  0  0  0  0  0  0  0  0  0  0  0
  -30.3731  -21.8166   17.4175 N   0  0  0  0  0  0  0  0  0  0  0  0
  -30.0181  -13.1614   20.3789 N   0  0  0  0  0  0  0  0  0  0  0  0
  -25.3600  -15.1428   20.3782 N   0  0  0  0  0  0  0  0  0  0  0  0
  -21.8116  -12.5823   21.4957 N   0  0  0  0  0  0  0  0  0  0  0  0
  -32.5286  -18.9786   16.6454 N   0  0  0  0  0  0  0  0  0  0  0  0
  -29.2497  -24.9521   16.8133 N   0  0  0  0  0  0  0  0  0  0  0  0
  -30.5136  -14.4640   22.2898 N   0  0  0  0  0  0  0  0  0  0  0  0
  -25.6994  -25.4554   17.2713 N   0  3  0  0  0  0  0  0  0  0  0  0
  -22.5292  -14.7389   21.1906 O   0  0  0  0  0  0  0  0  0  0  0  0
  -32.7168  -20.9233   17.9124 O   0  0  0  0  0  0  0  0  0  0  0  0
  -30.7543  -22.9529   15.4175 O   0  0  0  0  0  0  0  0  0  0  0  0
  -28.0103  -24.8863   18.7721 O   0  0  0  0  0  0  0  0  0  0  0  0
  -32.0744  -14.2036   20.6306 O   0  0  0  0  0  0  0  0  0  0  0  0
  -21.7115   -7.0175   21.7368 O   0  0  0  0  0  0  0  0  0  0  0  0
  -28.5566  -19.4309   22.8083 O   0  0  0  0  0  0  0  0  0  1  0  0
  -24.1578   -3.1166   24.7704 F   0  0  0  0  0  0  0  0  0  0  0  0
  -20.6004   -6.1712   24.1225 F   0  0  0  0  0  0  0  0  0  0  0  0
  1  2  1  0  0  0  0
  1  5  2  0  0  0  0
  2  6  2  0  0  0  0
  3  8  2  0  0  0  0
  3 17  1  0  0  0  0
  4  9  1  0  0  0  0
  4 17  2  0  0  0  0
  5 19  1  0  0  0  0
  6 21  1  0  0  0  0
  7 10  2  0  0  0  0
  7 20  1  0  0  0  0
  8 23  1  0  0  0  0
  9 23  2  0  0  0  0
 10 24  1  0  0  0  0
 11 12  2  0  0  0  0
 11 25  1  0  0  0  0
 12 26  1  0  0  0  0
 13 14  1  0  0  0  0
 13 29  2  0  0  0  0
 14 30  2  0  0  0  0
 15 22  1  0  0  0  0
 15 24  2  0  0  0  0
 16 26  2  0  0  0  0
 16 27  1  0  0  0  0
 17 28  1  0  0  0  0
 18 28  1  0  0  0  0
 18 31  2  0  0  0  0
 18 32  1  0  0  0  0
 19 21  2  0  0  0  0
 19 37  1  0  0  0  0
 20 22  2  0  0  0  0
 20 38  1  0  0  0  0
 21 46  1  0  0  0  0
 22 39  1  0  0  0  0
 23 85  1  0  0  0  0
 24 86  1  0  0  0  0
 25 27  2  0  0  0  0
 25 85  1  0  0  0  0
 26 87  1  0  0  0  0
 27 88  1  0  0  0  0
 28 69  2  0  0  0  0
 29 63  1  0  0  0  0
 29 70  1  0  0  0  0
 30 64  1  0  0  0  0
 30 70  1  0  0  0  0
 31 71  1  0  0  0  0
 31 74  1  0  0  0  0
 32 75  1  0  0  0  0
 32 80  2  0  0  0  0
 33 47  1  0  0  0  0
 33 76  1  0  0  0  0
 33 81  2  0  0  0  0
 34 65  1  0  0  0  0
 34 72  1  0  0  0  0
 34 82  2  0  0  0  0
 35 66  1  0  0  0  0
 35 77  1  0  0  0  0
 35 83  2  0  0  0  0
 36 73  1  0  0  0  0
 36 78  1  0  0  0  0
 36 84  2  0  0  0  0
 37 40  1  0  0  0  0
 38 47  1  0  0  0  0
 39 72  1  0  0  0  0
 40 42  1  0  0  0  0
 41 43  1  0  0  0  0
 41 44  1  0  0  0  0
 42 46  1  0  0  0  0
 43 48  1  0  0  0  0
 44 73  1  0  0  0  0
 45 48  1  0  0  0  0
 45 73  1  0  0  0  0
 46 76  1  0  0  0  0
 47 72  1  0  0  0  0
 48 71  1  0  0  0  0
 49 63  1  0  0  0  0
 50 63  1  0  0  0  0
 51 66  1  0  0  0  0
 52 67  1  0  0  0  0
 53 67  1  0  0  0  0
 54 68  1  0  0  0  0
 55 68  1  0  0  0  0
 56 68  1  0  0  0  0
 57 79  1  0  0  0  0
 58 62  1  0  0  0  0
 58 64  1  0  0  0  0
 59 64  1  0  0  0  0
 59 67  1  0  0  0  0
 60 61  1  0  0  0  0
 60 70  1  0  0  0  0
 61 78  1  0  0  0  0
 62 86  1  0  0  0  0
 65 68  1  0  0  0  0
 65 77  1  0  0  0  0
 66 79  1  0  0  0  0
 69 71  1  0  0  0  0
M  CHG  1  79   1
M  ISO  4  36 100  62 101  78 100  86 101
M  END
> <Batch ID>
0103

> <Smiles>
CNC(C)C(=O)NC(C(=O)N1Cc2cc([101O:1][101CH2:1]CC(CC(C)C)c3ccc(C(C)C)n3CC[100NH:0][100C:0](=O)N3CCCC(n4nc(-c5ccc(Oc6ccc(F)cc6F)cc5)c(C(N)=O)c4N)C3)ccc2CC1C(=O)NC1CCCc2ccccc21)C(C)(C)C

> <Shape>
0.232

> <Color>
0.184

> <Negative vol penalty>
0.000

$$$$

  -OEChem-04052319413D

 88 96  0     1  0  0  0  0  0999 V2000
  -22.4596  -31.4331   26.1336 C   0  0  0  0  0  0  0  0  0  0  0  0
  -22.3866  -30.1281   25.6571 C   0  0  0  0  0  0  0  0  0  0  0  0
  -24.5247   -9.7258   21.4764 C   0  0  0  0  0  0  0  0  0  0  0  0
  -24.8633  -10.8320   23.5974 C   0  0  0  0  0  0  0  0  0  0  0  0
  -23.6991  -31.9950   26.4368 C   0  0  0  0  0  0  0  0  0  0  0  0
  -23.5532  -29.3845   25.4825 C   0  0  0  0  0  0  0  0  0  0  0  0
  -24.2364  -23.3563   26.3189 C   0  0  0  0  0  0  0  0  0  0  0  0
  -24.2286   -8.5372   22.1436 C   0  0  0  0  0  0  0  0  0  0  0  0
  -24.5672   -9.6434   24.2646 C   0  0  0  0  0  0  0  0  0  0  0  0
  -24.2392  -22.2806   25.4319 C   0  0  0  0  0  0  0  0  0  0  0  0
  -23.0312   -5.3041   23.2963 C   0  0  0  0  0  0  0  0  0  0  0  0
  -21.9276   -4.5721   22.8583 C   0  0  0  0  0  0  0  0  0  0  0  0
  -26.6490  -22.3589   25.3540 C   0  0  0  0  0  0  0  0  0  0  0  0
  -27.2701  -21.4195   21.0049 C   0  0  0  0  0  0  0  0  0  0  0  0
  -20.4895   -6.4533   23.3382 C   0  0  0  0  0  0  0  0  0  0  0  0
  -24.8421  -10.8732   22.2033 C   0  0  0  0  0  0  0  0  0  0  0  0
  -24.2442  -13.1103   21.1329 C   0  0  0  0  0  0  0  0  0  0  0  0
  -24.8808  -31.2546   26.2749 C   0  0  0  0  0  0  0  0  0  0  0  0
  -25.4414  -23.9493   26.7222 C   0  0  0  0  0  0  0  0  0  0  0  0
  -24.8098  -29.9374   25.7825 C   0  0  0  0  0  0  0  0  0  0  0  0
  -26.6589  -23.4403   26.2481 C   0  0  0  0  0  0  0  0  0  0  0  0
  -28.3429  -22.1318   20.4803 C   0  0  0  0  0  0  0  0  0  0  0  0
  -27.3351  -20.0328   21.0827 C   0  0  0  0  0  0  0  0  0  0  0  0
  -24.2498   -8.4960   23.5377 C   0  0  0  0  0  0  0  0  0  0  0  0
  -25.4454  -21.7836   24.9471 C   0  0  0  0  0  0  0  0  0  0  0  0
  -22.8640   -6.6107   23.7553 C   0  0  0  0  0  0  0  0  0  0  0  0
  -20.6568   -5.1467   22.8792 C   0  0  0  0  0  0  0  0  0  0  0  0
  -21.5931   -7.1852   23.7762 C   0  0  0  0  0  0  0  0  0  0  0  0
  -25.1485  -12.1012   21.5147 C   0  0  0  0  0  0  0  0  0  0  0  0
  -29.4487  -21.4160   20.0506 C   0  0  0  0  0  0  0  0  0  0  0  0
  -28.4859  -19.4109   20.6258 C   0  0  0  0  0  0  0  0  0  0  0  0
  -25.0257  -14.0562   20.5158 C   0  0  0  0  0  0  0  0  0  0  0  0
  -22.8247  -13.1859   21.3196 C   0  0  0  0  0  0  0  0  0  0  0  0
  -26.7223  -26.8445   26.4374 C   0  0  0  0  0  0  0  0  0  0  0  0
  -29.0197  -25.5903   28.3535 C   0  0  0  0  0  0  0  0  0  0  0  0
  -30.6299  -22.8121   29.5092 C   0  0  0  0  0  0  0  0  0  0  0  0
  -29.6247  -17.1877   20.2991 C   0  0  0  0  0  0  0  0  0  0  0  0
  -26.2011  -31.9207   26.5711 C   0  0  0  0  0  0  0  0  0  0  0  0
  -25.4227  -25.0918   27.7004 C   0  0  0  0  0  0  0  0  0  0  0  0
  -27.9809  -24.0285   26.6662 C   0  0  0  0  0  0  0  0  0  0  0  0
  -27.3607  -30.9381   26.7133 C   0  0  0  0  0  0  0  0  0  0  0  0
  -29.8589  -13.8719   19.0231 C   0  0  0  0  0  0  0  0  0  0  0  0
  -27.3403  -29.9203   25.5774 C   0  0  0  0  0  0  0  0  0  0  0  0
  -28.5800  -13.1987   19.5262 C   0  0  0  0  0  0  0  0  0  0  0  0
  -30.4273  -14.8491   20.0506 C   0  0  0  0  0  0  0  0  0  0  0  0
  -28.1983  -15.1817   21.0457 C   0  0  0  0  0  0  0  0  0  0  0  0
  -26.0510  -29.0905   25.6033 C   0  0  1  0  0  0  0  0  0  0  0  0
  -26.6838  -25.9484   27.6429 C   0  0  1  0  0  0  0  0  0  0  0  0
  -27.5529  -14.2369   20.0188 C   0  0  2  0  0  0  0  0  0  0  0  0
  -31.6870  -22.4886   20.5327 C   0  0  0  0  0  0  0  0  0  0  0  0
  -32.4902  -22.1067   31.0386 C   0  0  0  0  0  0  0  0  0  0  0  0
  -26.2547  -23.6752   18.8470 C   0  0  0  0  0  0  0  0  0  0  0  0
  -27.7224  -25.6914   19.0575 C   0  0  0  0  0  0  0  0  0  0  0  0
  -26.7130  -19.2896   25.5231 C   0  0  0  0  0  0  0  0  0  0  0  0
  -31.0653  -26.4782   26.2709 C   0  0  0  0  0  0  0  0  0  0  0  0
  -32.7266  -24.9490   27.3526 C   0  0  0  0  0  0  0  0  0  0  0  0
  -31.7618  -26.8531   28.6434 C   0  0  0  0  0  0  0  0  0  0  0  0
  -28.7874  -21.2508   31.2198 C   0  0  0  0  0  0  0  0  0  0  0  0
  -28.2801  -23.6177   20.3950 C   0  0  0  0  0  0  0  0  0  0  0  0
  -26.1691  -19.2635   21.6503 C   0  0  0  0  0  0  0  0  0  0  0  0
  -26.4011  -18.7530   23.0799 C   0  0  0  0  0  0  0  0  0  0  0  0
  -30.6311  -22.1284   19.4805 C   0  0  1  0  0  0  0  0  0  0  0  0
  -30.3135  -24.8467   28.1254 C   0  0  1  0  0  0  0  0  0  0  0  0
  -30.9980  -22.3728   30.9149 C   0  0  2  0  0  0  0  0  0  0  0  0
  -27.6891  -24.1610   19.0699 C   0  0  0  0  0  0  0  0  0  0  0  0
  -26.5830  -19.8663   24.1190 C   0  0  1  0  0  0  0  0  0  1  0  0
  -31.4420  -25.7717   27.5885 C   0  0  0  0  0  0  0  0  0  0  0  0
  -26.4082  -12.3799   21.1688 N   0  0  0  0  0  0  0  0  0  0  0  0
  -29.5482  -20.0691   20.1101 N   0  0  0  0  0  0  0  0  0  0  0  0
  -26.3010  -13.5748   20.5632 N   0  0  0  0  0  0  0  0  0  0  0  0
  -27.9099  -25.1482   27.6194 N   0  0  0  0  0  0  0  0  0  0  0  0
  -29.3994  -15.8051   20.4679 N   0  0  0  0  0  0  0  0  0  0  0  0
  -24.7397  -15.2444   19.9425 N   0  0  0  0  0  0  0  0  0  0  0  0
  -22.1795  -12.1275   21.9738 N   0  0  0  0  0  0  0  0  0  0  0  0
  -28.5637  -17.9981   20.7017 N   0  0  0  0  0  0  0  0  0  0  0  0
  -26.1242  -28.0749   26.6317 N   0  0  0  0  0  0  0  0  0  0  0  0
  -30.6320  -24.1855   29.3862 N   0  0  0  0  0  0  0  0  0  0  0  0
  -31.3248  -21.3554   18.3950 N   0  3  0  0  0  0  0  0  0  0  0  0
  -30.2666  -21.1256   31.2760 N   0  3  0  0  0  0  0  0  0  0  0  0
  -22.1460  -14.1554   20.9037 O   0  0  0  0  0  0  0  0  0  0  0  0
  -27.2565  -26.4494   25.4077 O   0  0  0  0  0  0  0  0  0  0  0  0
  -28.9929  -26.5243   29.1588 O   0  0  0  0  0  0  0  0  0  0  0  0
  -30.3703  -22.0164   28.6091 O   0  0  0  0  0  0  0  0  0  0  0  0
  -30.6701  -17.6194   19.8064 O   0  0  0  0  0  0  0  0  0  0  0  0
  -23.9607   -7.3364   24.1891 O   0  0  0  0  0  0  0  0  0  0  0  0
  -25.4509  -20.7342   24.0807 O   0  0  0  0  0  0  0  0  0  1  0  0
  -19.5973   -4.4442   22.4572 F   0  0  0  0  0  0  0  0  0  0  0  0
  -21.4264   -8.4404   24.2149 F   0  0  0  0  0  0  0  0  0  0  0  0
  1  2  1  0  0  0  0
  1  5  2  0  0  0  0
  2  6  2  0  0  0  0
  3  8  2  0  0  0  0
  3 16  1  0  0  0  0
  4  9  1  0  0  0  0
  4 16  2  0  0  0  0
  5 18  1  0  0  0  0
  6 20  1  0  0  0  0
  7 10  2  0  0  0  0
  7 19  1  0  0  0  0
  8 24  1  0  0  0  0
  9 24  2  0  0  0  0
 10 25  1  0  0  0  0
 11 12  2  0  0  0  0
 11 26  1  0  0  0  0
 12 27  1  0  0  0  0
 13 21  1  0  0  0  0
 13 25  2  0  0  0  0
 14 22  2  0  0  0  0
 14 23  1  0  0  0  0
 15 27  2  0  0  0  0
 15 28  1  0  0  0  0
 16 29  1  0  0  0  0
 17 29  1  0  0  0  0
 17 32  2  0  0  0  0
 17 33  1  0  0  0  0
 18 20  2  0  0  0  0
 18 38  1  0  0  0  0
 19 21  2  0  0  0  0
 19 39  1  0  0  0  0
 20 47  1  0  0  0  0
 21 40  1  0  0  0  0
 22 30  1  0  0  0  0
 22 59  1  0  0  0  0
 23 31  2  0  0  0  0
 23 60  1  0  0  0  0
 24 85  1  0  0  0  0
 25 86  1  0  0  0  0
 26 28  2  0  0  0  0
 26 85  1  0  0  0  0
 27 87  1  0  0  0  0
 28 88  1  0  0  0  0
 29 68  2  0  0  0  0
 30 62  1  0  0  0  0
 30 69  2  0  0  0  0
 31 69  1  0  0  0  0
 31 75  1  0  0  0  0
 32 70  1  0  0  0  0
 32 73  1  0  0  0  0
 33 74  1  0  0  0  0
 33 80  2  0  0  0  0
 34 48  1  0  0  0  0
 34 76  1  0  0  0  0
 34 81  2  0  0  0  0
 35 63  1  0  0  0  0
 35 71  1  0  0  0  0
 35 82  2  0  0  0  0
 36 64  1  0  0  0  0
 36 77  1  0  0  0  0
 36 83  2  0  0  0  0
 37 72  1  0  0  0  0
 37 75  1  0  0  0  0
 37 84  2  0  0  0  0
 38 41  1  0  0  0  0
 39 48  1  0  0  0  0
 40 71  1  0  0  0  0
 41 43  1  0  0  0  0
 42 44  1  0  0  0  0
 42 45  1  0  0  0  0
 43 47  1  0  0  0  0
 44 49  1  0  0  0  0
 45 72  1  0  0  0  0
 46 49  1  0  0  0  0
 46 72  1  0  0  0  0
 47 76  1  0  0  0  0
 48 71  1  0  0  0  0
 49 70  1  0  0  0  0
 50 62  1  0  0  0  0
 51 64  1  0  0  0  0
 52 65  1  0  0  0  0
 53 65  1  0  0  0  0
 54 66  1  0  0  0  0
 55 67  1  0  0  0  0
 56 67  1  0  0  0  0
 57 67  1  0  0  0  0
 58 79  1  0  0  0  0
 59 65  1  0  0  0  0
 60 61  1  0  0  0  0
 61 66  1  0  0  0  0
 62 78  1  0  0  0  0
 63 67  1  0  0  0  0
 63 77  1  0  0  0  0
 64 79  1  0  0  0  0
 66 86  1  0  0  0  0
 68 70  1  0  0  0  0
M  CHG  2  78   1  79   1
M  ISO  4  37 100  66 101  75 100  86 101
M  END
> <Batch ID>
0103

> <Smiles>
CNC(C)C(=O)NC(C(=O)N1Cc2cc([101O:1][101CH:1](C)CCc3cc(CC(C)C)c(C(C)N)nc3[100NH:0][100C:0](=O)N3CCCC(n4nc(-c5ccc(Oc6ccc(F)cc6F)cc5)c(C(N)=O)c4N)C3)ccc2CC1C(=O)NC1CCCc2ccccc21)C(C)(C)C

> <Shape>
0.209

> <Color>
0.111

> <Negative vol penalty>
0.000

$$$$

  -OEChem-04052319413D

 80 87  0     1  0  0  0  0  0999 V2000
  -17.2916  -29.8712   25.0714 C   0  0  0  0  0  0  0  0  0  0  0  0
  -18.5971  -29.9164   25.5499 C   0  0  0  0  0  0  0  0  0  0  0  0
  -31.3386  -13.9483   20.9233 C   0  0  0  0  0  0  0  0  0  0  0  0
  -32.7418  -14.7282   19.1178 C   0  0  0  0  0  0  0  0  0  0  0  0
  -17.0211  -29.2703   23.8426 C   0  0  0  0  0  0  0  0  0  0  0  0
  -19.6329  -29.3598   24.8003 C   0  0  0  0  0  0  0  0  0  0  0  0
  -26.5844  -30.2813   23.3360 C   0  0  0  0  0  0  0  0  0  0  0  0
  -31.5331  -12.6317   20.5058 C   0  0  0  0  0  0  0  0  0  0  0  0
  -32.9364  -13.4115   18.7003 C   0  0  0  0  0  0  0  0  0  0  0  0
  -27.7862  -29.5747   23.3281 C   0  0  0  0  0  0  0  0  0  0  0  0
  -34.8227  -10.7621   19.6183 C   0  0  0  0  0  0  0  0  0  0  0  0
  -36.1216  -10.3729   19.2911 C   0  0  0  0  0  0  0  0  0  0  0  0
  -27.2116  -28.6332   21.1828 C   0  0  0  0  0  0  0  0  0  0  0  0
  -35.3972   -9.8417   17.0482 C   0  0  0  0  0  0  0  0  0  0  0  0
  -31.9429  -14.9965   20.2293 C   0  0  0  0  0  0  0  0  0  0  0  0
  -32.5230  -17.0817   21.5796 C   0  0  0  0  0  0  0  0  0  0  0  0
  -18.0554  -28.7147   23.0732 C   0  0  0  0  0  0  0  0  0  0  0  0
  -25.6806  -30.1604   22.2707 C   0  0  0  0  0  0  0  0  0  0  0  0
  -19.3758  -28.7498   23.5607 C   0  0  0  0  0  0  0  0  0  0  0  0
  -26.0001  -29.3412   21.1784 C   0  0  0  0  0  0  0  0  0  0  0  0
  -32.3320  -12.3633   19.3944 C   0  0  0  0  0  0  0  0  0  0  0  0
  -28.0987  -28.7483   22.2527 C   0  0  0  0  0  0  0  0  0  0  0  0
  -33.8111  -10.6911   18.6606 C   0  0  0  0  0  0  0  0  0  0  0  0
  -36.4088   -9.9127   18.0060 C   0  0  0  0  0  0  0  0  0  0  0  0
  -34.0983  -10.2309   17.3755 C   0  0  0  0  0  0  0  0  0  0  0  0
  -31.7418  -16.3568   20.6597 C   0  0  0  0  0  0  0  0  0  0  0  0
  -31.9218  -18.3149   21.6439 C   0  0  0  0  0  0  0  0  0  0  0  0
  -33.6880  -16.6764   22.3106 C   0  0  0  0  0  0  0  0  0  0  0  0
  -22.6909  -29.1230   21.9720 C   0  0  0  0  0  0  0  0  0  0  0  0
  -29.5962  -22.6865   19.0420 C   0  0  0  0  0  0  0  0  0  0  0  0
  -23.0274  -30.2166   18.9367 C   0  0  0  0  0  0  0  0  0  0  0  0
  -25.1178  -31.0165   16.3604 C   0  0  0  0  0  0  0  0  0  0  0  0
  -17.7077  -28.0339   21.7730 C   0  0  0  0  0  0  0  0  0  0  0  0
  -24.4004  -30.9499   22.2820 C   0  0  0  0  0  0  0  0  0  0  0  0
  -25.0731  -29.1927   20.0006 C   0  0  0  0  0  0  0  0  0  0  0  0
  -18.9134  -27.7999   20.8665 C   0  0  0  0  0  0  0  0  0  0  0  0
  -27.4758  -19.9167   19.8618 C   0  0  0  0  0  0  0  0  0  0  0  0
  -20.0748  -27.2143   21.6635 C   0  0  0  0  0  0  0  0  0  0  0  0
  -28.4608  -18.7950   20.1886 C   0  0  0  0  0  0  0  0  0  0  0  0
  -28.0041  -20.8173   18.7497 C   0  0  0  0  0  0  0  0  0  0  0  0
  -30.3415  -20.2741   19.3520 C   0  0  0  0  0  0  0  0  0  0  0  0
  -20.5297  -28.1790   22.7653 C   0  0  1  0  0  0  0  0  0  0  0  0
  -23.3221  -30.3527   21.3830 C   0  0  1  0  0  0  0  0  0  0  0  0
  -29.8601  -19.3591   20.4918 C   0  0  2  0  0  0  0  0  0  0  0  0
  -31.8335  -23.0494   18.1034 C   0  0  0  0  0  0  0  0  0  0  0  0
  -25.0976  -31.8477   13.9927 C   0  0  0  0  0  0  0  0  0  0  0  0
  -32.2333  -25.3127   19.8867 C   0  0  0  0  0  0  0  0  0  0  0  0
  -22.1460  -27.4573   17.9780 C   0  0  0  0  0  0  0  0  0  0  0  0
  -23.0442  -28.0340   15.7133 C   0  0  0  0  0  0  0  0  0  0  0  0
  -21.1761  -29.3684   16.6892 C   0  0  0  0  0  0  0  0  0  0  0  0
  -31.4899  -23.6569   22.4298 C   0  0  0  0  0  0  0  0  0  0  0  0
  -26.6729  -33.4317   17.0726 C   0  0  0  0  0  0  0  0  0  0  0  0
  -30.3160  -25.8930   22.2059 C   0  0  0  0  0  0  0  0  0  0  0  0
  -29.2811  -26.8077   21.5512 C   0  0  0  0  0  0  0  0  0  1  0  0
  -29.0927  -23.7161   21.7304 C   0  0  0  0  0  0  0  0  0  0  0  0
  -30.9991  -23.1226   19.3820 C   0  0  1  0  0  0  0  0  0  0  0  0
  -23.5072  -29.6240   17.6339 C   0  0  1  0  0  0  0  0  0  0  0  0
  -25.1858  -32.2369   15.4602 C   0  0  2  0  0  0  0  0  0  0  0  0
  -30.9316  -24.5139   20.0893 C   0  0  1  0  0  0  0  0  0  0  0  0
  -22.4852  -28.6220   17.0265 C   0  0  0  0  0  0  0  0  0  0  0  0
  -30.4508  -24.4639   21.6067 C   0  0  2  0  0  0  0  0  0  0  0  0
  -30.7221  -17.0701   20.1746 N   0  0  0  0  0  0  0  0  0  0  0  0
  -30.8582  -18.2560   20.7921 N   0  0  0  0  0  0  0  0  0  0  0  0
  -23.8307  -29.9802   20.0613 N   0  0  0  0  0  0  0  0  0  0  0  0
  -29.3443  -21.3147   19.0654 N   0  0  0  0  0  0  0  0  0  0  0  0
  -32.2043  -19.4331   22.3455 N   0  0  0  0  0  0  0  0  0  0  0  0
  -34.1731  -15.3745   22.1262 N   0  0  0  0  0  0  0  0  0  0  0  0
  -21.3341  -29.2435   22.2046 N   0  0  0  0  0  0  0  0  0  0  0  0
  -23.8265  -30.7519   16.7654 N   0  0  0  0  0  0  0  0  0  0  0  0
  -26.4657  -32.9691   15.6762 N   0  3  0  0  0  0  0  0  0  0  0  0
  -34.2715  -17.4407   23.1161 O   0  0  0  0  0  0  0  0  0  0  0  0
  -23.3832  -28.1373   22.1975 O   0  0  0  0  0  0  0  0  0  0  0  0
  -28.7500  -23.5413   18.7671 O   0  0  0  0  0  0  0  0  0  0  0  0
  -21.9821  -30.8714   18.9546 O   0  0  0  0  0  0  0  0  0  0  0  0
  -26.1102  -30.3610   16.6701 O   0  0  0  0  0  0  0  0  0  0  0  0
  -28.6649  -23.6505   23.0860 O   0  0  0  0  0  0  0  0  0  0  0  0
  -32.5223  -11.0787   18.9868 O   0  0  0  0  0  0  0  0  0  0  0  0
  -29.2783  -28.0527   22.2426 O   0  0  0  0  0  0  0  0  0  1  0  0
  -37.6564   -9.5404   17.6914 F   0  0  0  0  0  0  0  0  0  0  0  0
  -33.1309  -10.1616   16.4509 F   0  0  0  0  0  0  0  0  0  0  0  0
  1  2  1  0  0  0  0
  1  5  2  0  0  0  0
  2  6  2  0  0  0  0
  3  8  2  0  0  0  0
  3 15  1  0  0  0  0
  4  9  1  0  0  0  0
  4 15  2  0  0  0  0
  5 17  1  0  0  0  0
  6 19  1  0  0  0  0
  7 10  2  0  0  0  0
  7 18  1  0  0  0  0
  8 21  1  0  0  0  0
  9 21  2  0  0  0  0
 10 22  1  0  0  0  0
 11 12  2  0  0  0  0
 11 23  1  0  0  0  0
 12 24  1  0  0  0  0
 13 20  1  0  0  0  0
 13 22  2  0  0  0  0
 14 24  2  0  0  0  0
 14 25  1  0  0  0  0
 15 26  1  0  0  0  0
 16 26  1  0  0  0  0
 16 27  2  0  0  0  0
 16 28  1  0  0  0  0
 17 19  2  0  0  0  0
 17 33  1  0  0  0  0
 18 20  2  0  0  0  0
 18 34  1  0  0  0  0
 19 42  1  0  0  0  0
 20 35  1  0  0  0  0
 21 77  1  0  0  0  0
 22 78  1  0  0  0  0
 23 25  2  0  0  0  0
 23 77  1  0  0  0  0
 24 79  1  0  0  0  0
 25 80  1  0  0  0  0
 26 62  2  0  0  0  0
 27 63  1  0  0  0  0
 27 66  1  0  0  0  0
 28 67  1  0  0  0  0
 28 71  2  0  0  0  0
 29 43  1  0  0  0  0
 29 68  1  0  0  0  0
 29 72  2  0  0  0  0
 30 56  1  0  0  0  0
 30 65  1  0  0  0  0
 30 73  2  0  0  0  0
 31 57  1  0  0  0  0
 31 64  1  0  0  0  0
 31 74  2  0  0  0  0
 32 58  1  0  0  0  0
 32 69  1  0  0  0  0
 32 75  2  0  0  0  0
 33 36  1  0  0  0  0
 34 43  1  0  0  0  0
 35 64  1  0  0  0  0
 36 38  1  0  0  0  0
 37 39  1  0  0  0  0
 37 40  1  0  0  0  0
 38 42  1  0  0  0  0
 39 44  1  0  0  0  0
 40 65  1  0  0  0  0
 41 44  1  0  0  0  0
 41 65  1  0  0  0  0
 42 68  1  0  0  0  0
 43 64  1  0  0  0  0
 44 63  1  0  0  0  0
 45 56  1  0  0  0  0
 46 58  1  0  0  0  0
 47 59  1  0  0  0  0
 48 60  1  0  0  0  0
 49 60  1  0  0  0  0
 50 60  1  0  0  0  0
 51 61  1  0  0  0  0
 52 70  1  0  0  0  0
 53 54  1  0  0  0  0
 53 61  1  0  0  0  0
 54 78  1  0  0  0  0
 55 61  1  0  0  0  0
 55 76  1  0  0  0  0
 56 59  1  0  0  0  0
 57 60  1  0  0  0  0
 57 69  1  0  0  0  0
 58 70  1  0  0  0  0
 59 61  1  0  0  0  0
 62 63  1  0  0  0  0
M  CHG  1  70   1
M  ISO  4  30 100  54 101  56 100  78 101
M  END
> <Batch ID>
0103

> <Smiles>
CNC(C)C(=O)NC(C(=O)N1Cc2cc([101O:1][101CH2:1]CC(C)(CO)C(C)[100CH:0](C)[100C:0](=O)N3CCCC(n4nc(-c5ccc(Oc6ccc(F)cc6F)cc5)c(C(N)=O)c4N)C3)ccc2CC1C(=O)NC1CCCc2ccccc21)C(C)(C)C

> <Shape>
0.221

> <Color>
0.083

> <Negative vol penalty>
0.000

$$$$

  -OEChem-04052319413D

 87 94  0     1  0  0  0  0  0999 V2000
  -27.1664  -22.1002   12.0220 C   0  0  0  0  0  0  0  0  0  0  0  0
  -27.0316  -22.8520   13.1848 C   0  0  0  0  0  0  0  0  0  0  0  0
  -23.4541  -17.6422   19.9117 C   0  0  0  0  0  0  0  0  0  0  0  0
  -21.6963  -17.5188   21.5646 C   0  0  0  0  0  0  0  0  0  0  0  0
  -27.1709  -20.7077   12.0902 C   0  0  0  0  0  0  0  0  0  0  0  0
  -26.9001  -22.2116   14.4164 C   0  0  0  0  0  0  0  0  0  0  0  0
  -29.7957  -24.2971   18.0096 C   0  0  0  0  0  0  0  0  0  0  0  0
  -23.4876  -16.2495   19.8433 C   0  0  0  0  0  0  0  0  0  0  0  0
  -21.7298  -16.1260   21.4962 C   0  0  0  0  0  0  0  0  0  0  0  0
  -29.3407  -25.4825   18.5856 C   0  0  0  0  0  0  0  0  0  0  0  0
  -24.2843  -12.7182   19.4984 C   0  0  0  0  0  0  0  0  0  0  0  0
  -25.5331  -12.0970   19.5035 C   0  0  0  0  0  0  0  0  0  0  0  0
  -28.5240  -24.2392   20.4846 C   0  0  0  0  0  0  0  0  0  0  0  0
  -26.0099  -13.0729   21.6616 C   0  0  0  0  0  0  0  0  0  0  0  0
  -22.5585  -18.2769   20.7724 C   0  0  0  0  0  0  0  0  0  0  0  0
  -21.7341  -20.5864   20.0695 C   0  0  0  0  0  0  0  0  0  0  0  0
  -27.0490  -20.0499   13.3244 C   0  0  0  0  0  0  0  0  0  0  0  0
  -29.6081  -23.0705   18.6629 C   0  0  0  0  0  0  0  0  0  0  0  0
  -26.9016  -20.8089   14.5011 C   0  0  0  0  0  0  0  0  0  0  0  0
  -28.9797  -23.0400   19.9160 C   0  0  0  0  0  0  0  0  0  0  0  0
  -22.6254  -15.4913   20.6355 C   0  0  0  0  0  0  0  0  0  0  0  0
  -28.7022  -25.4533   19.8219 C   0  0  0  0  0  0  0  0  0  0  0  0
  -23.8982  -13.5168   20.5749 C   0  0  0  0  0  0  0  0  0  0  0  0
  -26.3959  -12.2743   20.5851 C   0  0  0  0  0  0  0  0  0  0  0  0
  -24.7610  -13.6941   21.6565 C   0  0  0  0  0  0  0  0  0  0  0  0
  -22.5238  -19.7156   20.8440 C   0  0  0  0  0  0  0  0  0  0  0  0
  -22.0663  -21.8414   20.5179 C   0  0  0  0  0  0  0  0  0  0  0  0
  -20.7850  -20.2876   19.0372 C   0  0  0  0  0  0  0  0  0  0  0  0
  -28.0442  -20.3865   17.9895 C   0  0  0  0  0  0  0  0  0  0  0  0
  -29.4793  -19.3300   20.6999 C   0  0  0  0  0  0  0  0  0  0  0  0
  -30.9231  -20.0874   23.6980 C   0  0  0  0  0  0  0  0  0  0  0  0
  -23.1156  -25.4007   24.6863 C   0  0  0  0  0  0  0  0  0  0  0  0
  -27.0117  -18.5423   13.3429 C   0  0  0  0  0  0  0  0  0  0  0  0
  -30.1285  -21.8039   18.0406 C   0  0  0  0  0  0  0  0  0  0  0  0
  -28.7719  -21.7515   20.6678 C   0  0  0  0  0  0  0  0  0  0  0  0
  -27.2438  -17.9442   14.7281 C   0  0  0  0  0  0  0  0  0  0  0  0
  -25.8112  -23.3676   23.5565 C   0  0  0  0  0  0  0  0  0  0  0  0
  -26.3983  -18.6687   15.7708 C   0  0  0  0  0  0  0  0  0  0  0  0
  -25.1305  -22.3050   22.6918 C   0  0  0  0  0  0  0  0  0  0  0  0
  -24.9563  -23.7448   24.7643 C   0  0  0  0  0  0  0  0  0  0  0  0
  -22.8965  -23.0942   23.5779 C   0  0  0  0  0  0  0  0  0  0  0  0
  -26.7814  -20.1509   15.8586 C   0  0  1  0  0  0  0  0  0  0  0  0
  -29.4256  -20.5521   18.5568 C   0  0  1  0  0  0  0  0  0  0  0  0
  -23.6955  -22.7219   22.3172 C   0  0  2  0  0  0  0  0  0  0  0  0
  -31.9663  -19.0102   25.7101 C   0  0  0  0  0  0  0  0  0  0  0  0
  -26.7955  -30.9318   26.1853 C   0  0  0  0  0  0  0  0  0  0  0  0
  -27.5148  -31.6781   23.9095 C   0  0  0  0  0  0  0  0  0  0  0  0
  -26.7108  -18.5356   21.7070 C   0  0  0  0  0  0  0  0  0  0  0  0
  -27.6739  -18.3675   24.0118 C   0  0  0  0  0  0  0  0  0  0  0  0
  -28.5156  -16.8756   22.1984 C   0  0  0  0  0  0  0  0  0  0  0  0
  -20.1366  -29.0654   23.6722 C   0  0  0  0  0  0  0  0  0  0  0  0
  -19.7670  -26.9392   22.4235 C   0  0  0  0  0  0  0  0  0  0  0  0
  -23.7383  -29.4334   20.7163 C   0  0  0  0  0  0  0  0  0  0  0  0
  -33.5114  -21.4426   23.2258 C   0  0  0  0  0  0  0  0  0  0  0  0
  -26.3468  -27.8403   21.1736 C   0  0  0  0  0  0  0  0  0  0  0  0
  -25.5784  -30.0311   24.1781 C   0  0  0  0  0  0  0  0  0  0  0  0
  -25.0903  -27.7929   22.0491 C   0  0  0  0  0  0  0  0  0  0  0  0
  -25.0650  -30.2635   22.7474 C   0  0  0  0  0  0  0  0  0  0  0  0
  -21.1902  -26.9568   24.5106 C   0  0  0  0  0  0  0  0  0  0  0  0
  -22.0104  -28.0262   22.3127 C   0  0  0  0  0  0  0  0  0  0  0  0
  -27.1106  -26.5220   21.2292 C   0  0  0  0  0  0  0  0  0  1  0  0
  -29.1241  -19.3293   22.1672 C   0  0  1  0  0  0  0  0  0  0  0  0
  -32.2169  -19.6198   24.3397 C   0  0  2  0  0  0  0  0  0  0  0  0
  -26.3210  -31.2497   24.7646 C   0  0  0  0  0  0  0  0  0  0  0  0
  -28.0081  -18.3012   22.5063 C   0  0  0  0  0  0  0  0  0  0  0  0
  -20.8031  -27.7443   23.2363 C   0  0  0  0  0  0  0  0  0  0  0  0
  -24.2578  -29.0994   22.1224 C   0  0  1  0  0  0  0  0  0  0  0  0
  -23.2994  -20.3626   21.7179 N   0  0  0  0  0  0  0  0  0  0  0  0
  -22.9988  -21.6534   21.4953 N   0  0  0  0  0  0  0  0  0  0  0  0
  -29.2928  -20.5391   20.0150 N   0  0  0  0  0  0  0  0  0  0  0  0
  -23.6085  -24.1317   24.3404 N   0  0  0  0  0  0  0  0  0  0  0  0
  -21.6490  -23.0765   20.1673 N   0  0  0  0  0  0  0  0  0  0  0  0
  -20.5641  -18.9451   18.7009 N   0  0  0  0  0  0  0  0  0  0  0  0
  -28.0076  -20.3124   16.6101 N   0  0  0  0  0  0  0  0  0  0  0  0
  -30.3734  -19.1151   22.8895 N   0  0  0  0  0  0  0  0  0  0  0  0
  -21.8319  -25.6896   24.2396 N   0  0  0  0  0  0  0  0  0  0  0  0
  -33.1588  -20.7637   24.4993 N   0  3  0  0  0  0  0  0  0  0  0  0
  -23.0533  -28.8406   22.9789 N   0  3  0  0  0  0  0  0  0  0  0  0
  -20.1637  -21.1854   18.4196 O   0  0  0  0  0  0  0  0  0  0  0  0
  -27.0828  -20.3286   18.7472 O   0  0  0  0  0  0  0  0  0  0  0  0
  -29.9132  -18.2978   20.1823 O   0  0  0  0  0  0  0  0  0  0  0  0
  -30.4456  -21.2022   23.8973 O   0  0  0  0  0  0  0  0  0  0  0  0
  -23.7728  -26.2178   25.3400 O   0  0  0  0  0  0  0  0  0  0  0  0
  -22.6577  -14.1323   20.5688 O   0  0  0  0  0  0  0  0  0  0  0  0
  -28.2534  -26.6173   20.3902 O   0  0  0  0  0  0  0  0  0  1  0  0
  -27.5945  -11.6764   20.5905 F   0  0  0  0  0  0  0  0  0  0  0  0
  -24.3952  -14.4593   22.6941 F   0  0  0  0  0  0  0  0  0  0  0  0
  1  2  1  0  0  0  0
  1  5  2  0  0  0  0
  2  6  2  0  0  0  0
  3  8  2  0  0  0  0
  3 15  1  0  0  0  0
  4  9  1  0  0  0  0
  4 15  2  0  0  0  0
  5 17  1  0  0  0  0
  6 19  1  0  0  0  0
  7 10  2  0  0  0  0
  7 18  1  0  0  0  0
  8 21  1  0  0  0  0
  9 21  2  0  0  0  0
 10 22  1  0  0  0  0
 11 12  2  0  0  0  0
 11 23  1  0  0  0  0
 12 24  1  0  0  0  0
 13 20  1  0  0  0  0
 13 22  2  0  0  0  0
 14 24  2  0  0  0  0
 14 25  1  0  0  0  0
 15 26  1  0  0  0  0
 16 26  1  0  0  0  0
 16 27  2  0  0  0  0
 16 28  1  0  0  0  0
 17 19  2  0  0  0  0
 17 33  1  0  0  0  0
 18 20  2  0  0  0  0
 18 34  1  0  0  0  0
 19 42  1  0  0  0  0
 20 35  1  0  0  0  0
 21 84  1  0  0  0  0
 22 85  1  0  0  0  0
 23 25  2  0  0  0  0
 23 84  1  0  0  0  0
 24 86  1  0  0  0  0
 25 87  1  0  0  0  0
 26 68  2  0  0  0  0
 27 69  1  0  0  0  0
 27 72  1  0  0  0  0
 28 73  1  0  0  0  0
 28 79  2  0  0  0  0
 29 43  1  0  0  0  0
 29 74  1  0  0  0  0
 29 80  2  0  0  0  0
 30 62  1  0  0  0  0
 30 70  1  0  0  0  0
 30 81  2  0  0  0  0
 31 63  1  0  0  0  0
 31 75  1  0  0  0  0
 31 82  2  0  0  0  0
 32 71  1  0  0  0  0
 32 76  1  0  0  0  0
 32 83  2  0  0  0  0
 33 36  1  0  0  0  0
 34 43  1  0  0  0  0
 35 70  1  0  0  0  0
 36 38  1  0  0  0  0
 37 39  1  0  0  0  0
 37 40  1  0  0  0  0
 38 42  1  0  0  0  0
 39 44  1  0  0  0  0
 40 71  1  0  0  0  0
 41 44  1  0  0  0  0
 41 71  1  0  0  0  0
 42 74  1  0  0  0  0
 43 70  1  0  0  0  0
 44 69  1  0  0  0  0
 45 63  1  0  0  0  0
 46 64  1  0  0  0  0
 47 64  1  0  0  0  0
 48 65  1  0  0  0  0
 49 65  1  0  0  0  0
 50 65  1  0  0  0  0
 51 66  1  0  0  0  0
 52 66  1  0  0  0  0
 53 67  1  0  0  0  0
 54 77  1  0  0  0  0
 55 57  1  0  0  0  0
 55 61  1  0  0  0  0
 56 58  1  0  0  0  0
 56 64  1  0  0  0  0
 57 67  1  0  0  0  0
 58 67  1  0  0  0  0
 59 66  1  0  0  0  0
 59 76  1  0  0  0  0
 60 66  1  0  0  0  0
 60 78  1  0  0  0  0
 61 85  1  0  0  0  0
 62 65  1  0  0  0  0
 62 75  1  0  0  0  0
 63 77  1  0  0  0  0
 67 78  1  0  0  0  0
 68 69  1  0  0  0  0
M  CHG  2  77   1  78   1
M  ISO  4  32 100  61 101  76 100  85 101
M  END
> <Batch ID>
0103

> <Smiles>
CNC(C)C(=O)NC(C(=O)N1Cc2cc([101O:1][101CH2:1]CCC(C)(CCC(C)C)NCC(C)(C)C[100NH:0][100C:0](=O)N3CCCC(n4nc(-c5ccc(Oc6ccc(F)cc6F)cc5)c(C(N)=O)c4N)C3)ccc2CC1C(=O)NC1CCCc2ccccc21)C(C)(C)C

> <Shape>
0.192

> <Color>
0.073

> <Negative vol penalty>
0.000

$$$$
