
  -OEChem-04052319433D

 84 92  0     1  0  0  0  0  0999 V2000
  -24.9233  -23.5434   20.2316 C   0  0  0  0  0  0  0  0  0  0  0  0
  -24.9221  -24.3972   21.3300 C   0  0  0  0  0  0  0  0  0  0  0  0
  -26.4803  -13.3247   20.5589 C   0  0  0  0  0  0  0  0  0  0  0  0
  -24.0755  -13.5106   20.6987 C   0  0  0  0  0  0  0  0  0  0  0  0
  -25.8982  -23.6808   19.2444 C   0  0  0  0  0  0  0  0  0  0  0  0
  -25.8967  -25.3881   21.4424 C   0  0  0  0  0  0  0  0  0  0  0  0
  -22.9204  -28.6709   19.2355 C   0  0  0  0  0  0  0  0  0  0  0  0
  -26.3996  -11.9879   20.9487 C   0  0  0  0  0  0  0  0  0  0  0  0
  -23.9948  -12.1737   21.0884 C   0  0  0  0  0  0  0  0  0  0  0  0
  -21.6661  -28.2105   19.6338 C   0  0  0  0  0  0  0  0  0  0  0  0
  -24.1219   -9.1377   19.6096 C   0  0  0  0  0  0  0  0  0  0  0  0
  -23.1480   -8.3449   19.0026 C   0  0  0  0  0  0  0  0  0  0  0  0
  -22.0881  -29.0127   21.8693 C   0  0  0  0  0  0  0  0  0  0  0  0
  -22.1514   -7.9164   21.1614 C   0  0  0  0  0  0  0  0  0  0  0  0
  -21.5063  -23.7005   22.5615 C   0  0  0  0  0  0  0  0  0  0  0  0
  -25.3183  -14.0861   20.4339 C   0  0  0  0  0  0  0  0  0  0  0  0
  -25.3637  -15.9741   18.7190 C   0  0  0  0  0  0  0  0  0  0  0  0
  -26.8794  -24.6801   19.3399 C   0  0  0  0  0  0  0  0  0  0  0  0
  -23.7738  -29.2971   20.1553 C   0  0  0  0  0  0  0  0  0  0  0  0
  -26.8865  -25.5381   20.4562 C   0  0  0  0  0  0  0  0  0  0  0  0
  -23.3517  -29.4825   21.4795 C   0  0  0  0  0  0  0  0  0  0  0  0
  -21.2998  -22.3396   22.5087 C   0  0  0  0  0  0  0  0  0  0  0  0
  -20.6269  -22.0607   21.2936 C   0  0  0  0  0  0  0  0  0  0  0  0
  -25.1569  -11.4124   21.2135 C   0  0  0  0  0  0  0  0  0  0  0  0
  -21.2510  -28.3787   20.9515 C   0  0  0  0  0  0  0  0  0  0  0  0
  -24.1107   -9.3198   20.9926 C   0  0  0  0  0  0  0  0  0  0  0  0
  -22.1627   -7.7342   19.7785 C   0  0  0  0  0  0  0  0  0  0  0  0
  -23.1254   -8.7092   21.7684 C   0  0  0  0  0  0  0  0  0  0  0  0
  -25.4010  -15.4672   20.0318 C   0  0  0  0  0  0  0  0  0  0  0  0
  -20.4429  -23.2595   20.6407 C   0  0  0  0  0  0  0  0  0  0  0  0
  -25.4769  -17.3343   18.8728 C   0  0  0  0  0  0  0  0  0  0  0  0
  -25.2378  -15.2778   17.4720 C   0  0  0  0  0  0  0  0  0  0  0  0
  -26.6584  -28.6630   21.3303 C   0  0  0  0  0  0  0  0  0  0  0  0
  -26.3049  -31.5735   22.7183 C   0  0  0  0  0  0  0  0  0  0  0  0
  -24.1968  -34.0119   23.8394 C   0  0  0  0  0  0  0  0  0  0  0  0
  -24.1675  -21.0511   23.3808 C   0  0  0  0  0  0  0  0  0  0  0  0
  -27.9411  -24.7595   18.2716 C   0  0  0  0  0  0  0  0  0  0  0  0
  -25.1128  -29.8120   19.7034 C   0  0  0  0  0  0  0  0  0  0  0  0
  -24.2220  -30.1665   22.5009 C   0  0  0  0  0  0  0  0  0  0  0  0
  -28.7143  -26.0757   18.2780 C   0  0  0  0  0  0  0  0  0  0  0  0
  -27.3317  -20.6297   21.8038 C   0  0  0  0  0  0  0  0  0  0  0  0
  -29.1350  -26.4409   19.6980 C   0  0  0  0  0  0  0  0  0  0  0  0
  -27.1924  -19.3045   21.0524 C   0  0  0  0  0  0  0  0  0  0  0  0
  -26.5916  -20.6017   23.1393 C   0  0  0  0  0  0  0  0  0  0  0  0
  -25.0323  -18.8872   22.3010 C   0  0  0  0  0  0  0  0  0  0  0  0
  -27.9122  -26.6413   20.6014 C   0  0  1  0  0  0  0  0  0  0  0  0
  -26.1076  -29.9753   20.8485 C   0  0  1  0  0  0  0  0  0  0  0  0
  -25.7154  -18.8862   20.9226 C   0  0  2  0  0  0  0  0  0  0  0  0
  -19.8007  -23.5522   19.3408 C   0  0  0  0  0  0  0  0  0  0  0  0
  -24.2009  -36.2572   24.9601 C   0  0  0  0  0  0  0  0  0  0  0  0
  -26.9281  -30.2365   25.3893 C   0  0  0  0  0  0  0  0  0  0  0  0
  -26.0006  -32.2582   26.5384 C   0  0  0  0  0  0  0  0  0  0  0  0
  -28.0026  -32.4715   25.0656 C   0  0  0  0  0  0  0  0  0  0  0  0
  -18.5531  -26.0537   21.5006 C   0  0  0  0  0  0  0  0  0  0  0  0
  -22.8663  -35.2967   21.5290 C   0  0  0  0  0  0  0  0  0  0  0  0
  -21.7106  -21.3640   23.5387 C   0  0  0  0  0  0  0  0  0  0  0  0
  -21.0034  -25.7249   21.0912 C   0  0  0  0  0  0  0  0  0  0  0  0
  -20.2170  -26.6247   23.3480 C   0  0  0  0  0  0  0  0  0  0  0  0
  -25.7339  -32.0733   24.0233 C   0  0  1  0  0  0  0  0  0  0  0  0
  -24.1955  -35.5157   23.6323 C   0  0  2  0  0  0  0  0  0  0  0  0
  -26.6504  -31.7452   25.2356 C   0  0  0  0  0  0  0  0  0  0  0  0
  -19.9533  -26.5918   21.8340 C   0  0  2  0  0  0  0  0  0  1  0  0
  -25.5282  -16.4272   20.9518 N   0  0  0  0  0  0  0  0  0  0  0  0
  -20.9816  -24.2493   21.4206 N   0  0  0  0  0  0  0  0  0  0  0  0
  -25.5718  -17.5509   20.2160 N   0  0  0  0  0  0  0  0  0  0  0  0
  -25.5250  -30.6469   22.0120 N   0  0  0  0  0  0  0  0  0  0  0  0
  -25.1964  -20.1992   22.9463 N   0  0  0  0  0  0  0  0  0  0  0  0
  -20.2353  -20.8461   20.8509 N   0  0  0  0  0  0  0  0  0  0  0  0
  -25.5036  -18.3541   17.9887 N   0  0  0  0  0  0  0  0  0  0  0  0
  -25.1318  -13.8804   17.4948 N   0  0  0  0  0  0  0  0  0  0  0  0
  -27.3065  -27.9320   20.3531 N   0  0  0  0  0  0  0  0  0  0  0  0
  -25.4760  -33.4972   23.8373 N   0  0  0  0  0  0  0  0  0  0  0  0
  -22.8742  -20.5967   23.1538 N   0  0  0  0  0  0  0  0  0  0  0  0
  -19.2251  -27.4797   24.0506 N   0  3  0  0  0  0  0  0  0  0  0  0
  -22.9867  -35.9321   22.8664 N   0  3  0  0  0  0  0  0  0  0  0  0
  -25.2363  -15.8756   16.3693 O   0  0  0  0  0  0  0  0  0  0  0  0
  -26.5078  -28.3384   22.5024 O   0  0  0  0  0  0  0  0  0  0  0  0
  -27.3993  -31.9952   22.3361 O   0  0  0  0  0  0  0  0  0  0  0  0
  -23.1663  -33.3596   23.9917 O   0  0  0  0  0  0  0  0  0  0  0  0
  -24.3854  -22.1386   23.9255 O   0  0  0  0  0  0  0  0  0  0  0  0
  -25.0778  -10.1079   21.5936 O   0  0  0  0  0  0  0  0  0  0  0  0
  -20.0275  -27.9296   21.3431 O   0  0  0  0  0  0  0  0  0  1  0  0
  -21.2266   -6.9742   19.1952 F   0  0  0  0  0  0  0  0  0  0  0  0
  -23.1087   -8.8814   23.0973 F   0  0  0  0  0  0  0  0  0  0  0  0
  1  2  1  0  0  0  0
  1  5  2  0  0  0  0
  2  6  2  0  0  0  0
  3  8  2  0  0  0  0
  3 16  1  0  0  0  0
  4  9  1  0  0  0  0
  4 16  2  0  0  0  0
  5 18  1  0  0  0  0
  6 20  1  0  0  0  0
  7 10  2  0  0  0  0
  7 19  1  0  0  0  0
  8 24  1  0  0  0  0
  9 24  2  0  0  0  0
 10 25  1  0  0  0  0
 11 12  2  0  0  0  0
 11 26  1  0  0  0  0
 12 27  1  0  0  0  0
 13 21  1  0  0  0  0
 13 25  2  0  0  0  0
 14 27  2  0  0  0  0
 14 28  1  0  0  0  0
 15 22  2  0  0  0  0
 15 64  1  0  0  0  0
 16 29  1  0  0  0  0
 17 29  1  0  0  0  0
 17 31  2  0  0  0  0
 17 32  1  0  0  0  0
 18 20  2  0  0  0  0
 18 37  1  0  0  0  0
 19 21  2  0  0  0  0
 19 38  1  0  0  0  0
 20 46  1  0  0  0  0
 21 39  1  0  0  0  0
 22 23  1  0  0  0  0
 22 56  1  0  0  0  0
 23 30  2  0  0  0  0
 23 68  1  0  0  0  0
 24 81  1  0  0  0  0
 25 82  1  0  0  0  0
 26 28  2  0  0  0  0
 26 81  1  0  0  0  0
 27 83  1  0  0  0  0
 28 84  1  0  0  0  0
 29 63  2  0  0  0  0
 30 49  1  0  0  0  0
 30 64  1  0  0  0  0
 31 65  1  0  0  0  0
 31 69  1  0  0  0  0
 32 70  1  0  0  0  0
 32 76  2  0  0  0  0
 33 47  1  0  0  0  0
 33 71  1  0  0  0  0
 33 77  2  0  0  0  0
 34 59  1  0  0  0  0
 34 66  1  0  0  0  0
 34 78  2  0  0  0  0
 35 60  1  0  0  0  0
 35 72  1  0  0  0  0
 35 79  2  0  0  0  0
 36 67  1  0  0  0  0
 36 73  1  0  0  0  0
 36 80  2  0  0  0  0
 37 40  1  0  0  0  0
 38 47  1  0  0  0  0
 39 66  1  0  0  0  0
 40 42  1  0  0  0  0
 41 43  1  0  0  0  0
 41 44  1  0  0  0  0
 42 46  1  0  0  0  0
 43 48  1  0  0  0  0
 44 67  1  0  0  0  0
 45 48  1  0  0  0  0
 45 67  1  0  0  0  0
 46 71  1  0  0  0  0
 47 66  1  0  0  0  0
 48 65  1  0  0  0  0
 50 60  1  0  0  0  0
 51 61  1  0  0  0  0
 52 61  1  0  0  0  0
 53 61  1  0  0  0  0
 54 62  1  0  0  0  0
 55 75  1  0  0  0  0
 56 73  1  0  0  0  0
 57 62  1  0  0  0  0
 57 64  1  0  0  0  0
 58 62  1  0  0  0  0
 58 74  1  0  0  0  0
 59 61  1  0  0  0  0
 59 72  1  0  0  0  0
 60 75  1  0  0  0  0
 62 82  1  0  0  0  0
 63 65  1  0  0  0  0
M  CHG  2  74   1  75   1
M  ISO  4  36 100  62 101  73 100  82 101
M  END
> <Batch ID>
0104

> <Smiles>
CNC(C)C(=O)NC(C(=O)N1Cc2cc([101O:1][101C:1](C)(CN)Cn3cc(C[100NH:0][100C:0](=O)N4CCCC(n5nc(-c6ccc(Oc7ccc(F)cc7F)cc6)c(C(N)=O)c5N)C4)c(N)c3C)ccc2CC1C(=O)NC1CCCc2ccccc21)C(C)(C)C

> <Shape>
0.267

> <Color>
0.077

> <Negative vol penalty>
0.000

$$$$

  -OEChem-04052319433D

 85 93  0     1  0  0  0  0  0999 V2000
  -26.0478  -19.4063   25.5472 C   0  0  0  0  0  0  0  0  0  0  0  0
  -26.5059  -20.7069   25.3699 C   0  0  0  0  0  0  0  0  0  0  0  0
  -26.4738  -12.2426   21.4388 C   0  0  0  0  0  0  0  0  0  0  0  0
  -25.3127  -13.2320   19.5653 C   0  0  0  0  0  0  0  0  0  0  0  0
  -24.8449  -19.0099   24.9667 C   0  0  0  0  0  0  0  0  0  0  0  0
  -25.7556  -21.6149   24.6220 C   0  0  0  0  0  0  0  0  0  0  0  0
  -27.3034  -26.2844   24.5687 C   0  0  0  0  0  0  0  0  0  0  0  0
  -25.4332  -11.3279   21.6006 C   0  0  0  0  0  0  0  0  0  0  0  0
  -24.2721  -12.3173   19.7271 C   0  0  0  0  0  0  0  0  0  0  0  0
  -28.4452  -26.6922   23.8803 C   0  0  0  0  0  0  0  0  0  0  0  0
  -24.3932   -8.4558   20.1506 C   0  0  0  0  0  0  0  0  0  0  0  0
  -24.7319   -7.1189   20.3589 C   0  0  0  0  0  0  0  0  0  0  0  0
  -27.0568  -27.6234   22.1413 C   0  0  0  0  0  0  0  0  0  0  0  0
  -23.5902   -7.1613   22.4877 C   0  0  0  0  0  0  0  0  0  0  0  0
  -30.6182  -24.5178   18.5365 C   0  0  0  0  0  0  0  0  0  0  0  0
  -26.4135  -13.1947   20.4211 C   0  0  0  0  0  0  0  0  0  0  0  0
  -28.6393  -13.9865   19.4587 C   0  0  0  0  0  0  0  0  0  0  0  0
  -24.0862  -19.9105   24.2010 C   0  0  0  0  0  0  0  0  0  0  0  0
  -26.0278  -26.5339   24.0423 C   0  0  0  0  0  0  0  0  0  0  0  0
  -24.5271  -21.2408   24.0480 C   0  0  0  0  0  0  0  0  0  0  0  0
  -25.9003  -27.2201   22.8262 C   0  0  0  0  0  0  0  0  0  0  0  0
  -24.3324  -11.3652   20.7448 C   0  0  0  0  0  0  0  0  0  0  0  0
  -28.3220  -27.3592   22.6650 C   0  0  0  0  0  0  0  0  0  0  0  0
  -23.6531   -9.1456   21.1109 C   0  0  0  0  0  0  0  0  0  0  0  0
  -24.3304   -6.4716   21.5274 C   0  0  0  0  0  0  0  0  0  0  0  0
  -23.2516   -8.4983   22.2794 C   0  0  0  0  0  0  0  0  0  0  0  0
  -27.4878  -14.1402   20.2538 C   0  0  0  0  0  0  0  0  0  0  0  0
  -30.4053  -25.0423   19.7951 C   0  0  0  0  0  0  0  0  0  0  0  0
  -29.7768  -23.4878   18.1688 C   0  0  0  0  0  0  0  0  0  0  0  0
  -29.3400  -15.1539   19.6399 C   0  0  0  0  0  0  0  0  0  0  0  0
  -28.6921  -23.5944   20.1636 C   0  0  0  0  0  0  0  0  0  0  0  0
  -29.0398  -12.8869   18.6303 C   0  0  0  0  0  0  0  0  0  0  0  0
  -23.5995  -24.7172   23.0903 C   0  0  0  0  0  0  0  0  0  0  0  0
  -22.0922  -27.5729   22.7818 C   0  0  0  0  0  0  0  0  0  0  0  0
  -22.3414  -30.9471   22.3353 C   0  0  0  0  0  0  0  0  0  0  0  0
  -27.5955  -20.6026   21.0970 C   0  0  0  0  0  0  0  0  0  0  0  0
  -22.7877  -19.4308   23.6018 C   0  0  0  0  0  0  0  0  0  0  0  0
  -24.8055  -26.1112   24.8102 C   0  0  0  0  0  0  0  0  0  0  0  0
  -24.5533  -27.5302   22.2281 C   0  0  0  0  0  0  0  0  0  0  0  0
  -22.2905  -20.3225   22.4687 C   0  0  0  0  0  0  0  0  0  0  0  0
  -30.0658  -18.6254   22.8537 C   0  0  0  0  0  0  0  0  0  0  0  0
  -22.3114  -21.7793   22.9064 C   0  0  0  0  0  0  0  0  0  0  0  0
  -29.7855  -17.2270   22.3005 C   0  0  0  0  0  0  0  0  0  0  0  0
  -28.7733  -19.4137   23.0443 C   0  0  0  0  0  0  0  0  0  0  0  0
  -27.6528  -18.1304   21.2636 C   0  0  0  0  0  0  0  0  0  0  0  0
  -23.7430  -22.2370   23.2131 C   0  0  1  0  0  0  0  0  0  0  0  0
  -23.5684  -25.9629   23.9299 C   0  0  1  0  0  0  0  0  0  0  0  0
  -28.9215  -17.2910   21.0271 C   0  0  2  0  0  0  0  0  0  0  0  0
  -28.6770  -23.0356   15.9463 C   0  0  0  0  0  0  0  0  0  0  0  0
  -30.2992  -21.3655   16.9129 C   0  0  0  0  0  0  0  0  0  0  0  0
  -20.9350  -33.0103   22.0855 C   0  0  0  0  0  0  0  0  0  0  0  0
  -31.7255  -28.6412   20.4223 C   0  0  0  0  0  0  0  0  0  0  0  0
  -21.4336  -26.7736   19.9117 C   0  0  0  0  0  0  0  0  0  0  0  0
  -20.8969  -29.1732   19.4404 C   0  0  0  0  0  0  0  0  0  0  0  0
  -19.5694  -27.9091   21.1323 C   0  0  0  0  0  0  0  0  0  0  0  0
  -23.5048  -32.1747   24.7639 C   0  0  0  0  0  0  0  0  0  0  0  0
  -31.2757  -26.1733   20.2866 C   0  0  0  0  0  0  0  0  0  0  0  0
  -27.6198  -23.0836   21.0653 C   0  0  0  0  0  0  0  0  0  0  0  0
  -29.3464  -27.8146   20.5676 C   0  0  0  0  0  0  0  0  0  1  0  0
  -29.9296  -22.8581   16.8247 C   0  0  0  0  0  0  0  0  0  0  0  0
  -21.9432  -28.5891   21.6754 C   0  0  1  0  0  0  0  0  0  0  0  0
  -21.6834  -32.1099   23.0560 C   0  0  2  0  0  0  0  0  0  0  0  0
  -30.7303  -27.5749   19.9473 C   0  0  1  0  0  0  0  0  0  0  0  0
  -20.9863  -28.1039   20.5500 C   0  0  0  0  0  0  0  0  0  0  0  0
  -27.4550  -15.3127   20.8926 N   0  0  0  0  0  0  0  0  0  0  0  0
  -29.4478  -24.6031   20.6380 N   0  0  0  0  0  0  0  0  0  0  0  0
  -28.7995  -22.9992   18.9604 N   0  0  0  0  0  0  0  0  0  0  0  0
  -28.5947  -15.9063   20.4993 N   0  0  0  0  0  0  0  0  0  0  0  0
  -23.3882  -27.0909   23.0137 N   0  0  0  0  0  0  0  0  0  0  0  0
  -28.0068  -19.4525   21.7909 N   0  0  0  0  0  0  0  0  0  0  0  0
  -30.5147  -15.5998   19.1464 N   0  0  0  0  0  0  0  0  0  0  0  0
  -28.2025  -11.7653   18.5579 N   0  0  0  0  0  0  0  0  0  0  0  0
  -23.6993  -23.5486   23.8210 N   0  0  0  0  0  0  0  0  0  0  0  0
  -21.5296  -29.8327   22.3163 N   0  0  0  0  0  0  0  0  0  0  0  0
  -27.9653  -21.8148   21.6668 N   0  0  0  0  0  0  0  0  0  0  0  0
  -22.7090  -32.9291   23.7616 N   0  3  0  0  0  0  0  0  0  0  0  0
  -30.1165  -12.8918   17.9867 O   0  0  0  0  0  0  0  0  0  0  0  0
  -23.5360  -24.8092   21.8700 O   0  0  0  0  0  0  0  0  0  0  0  0
  -21.0965  -27.2251   23.4216 O   0  0  0  0  0  0  0  0  0  0  0  0
  -23.4618  -31.0213   21.8356 O   0  0  0  0  0  0  0  0  0  0  0  0
  -26.9506  -20.5530   20.0441 O   0  0  0  0  0  0  0  0  0  0  0  0
  -23.3170  -10.4727   20.9023 O   0  0  0  0  0  0  0  0  0  0  0  0
  -29.4349  -27.7578   21.9908 O   0  0  0  0  0  0  0  0  0  1  0  0
  -24.6543   -5.1872   21.7266 F   0  0  0  0  0  0  0  0  0  0  0  0
  -22.5393   -9.1554   23.2051 F   0  0  0  0  0  0  0  0  0  0  0  0
  1  2  1  0  0  0  0
  1  5  2  0  0  0  0
  2  6  2  0  0  0  0
  3  8  2  0  0  0  0
  3 16  1  0  0  0  0
  4  9  1  0  0  0  0
  4 16  2  0  0  0  0
  5 18  1  0  0  0  0
  6 20  1  0  0  0  0
  7 10  2  0  0  0  0
  7 19  1  0  0  0  0
  8 22  1  0  0  0  0
  9 22  2  0  0  0  0
 10 23  1  0  0  0  0
 11 12  2  0  0  0  0
 11 24  1  0  0  0  0
 12 25  1  0  0  0  0
 13 21  1  0  0  0  0
 13 23  2  0  0  0  0
 14 25  2  0  0  0  0
 14 26  1  0  0  0  0
 15 28  1  0  0  0  0
 15 29  2  0  0  0  0
 16 27  1  0  0  0  0
 17 27  1  0  0  0  0
 17 30  2  0  0  0  0
 17 32  1  0  0  0  0
 18 20  2  0  0  0  0
 18 37  1  0  0  0  0
 19 21  2  0  0  0  0
 19 38  1  0  0  0  0
 20 46  1  0  0  0  0
 21 39  1  0  0  0  0
 22 82  1  0  0  0  0
 23 83  1  0  0  0  0
 24 26  2  0  0  0  0
 24 82  1  0  0  0  0
 25 84  1  0  0  0  0
 26 85  1  0  0  0  0
 27 65  2  0  0  0  0
 28 57  1  0  0  0  0
 28 66  2  0  0  0  0
 29 60  1  0  0  0  0
 29 67  1  0  0  0  0
 30 68  1  0  0  0  0
 30 71  1  0  0  0  0
 31 58  1  0  0  0  0
 31 66  1  0  0  0  0
 31 67  2  0  0  0  0
 32 72  1  0  0  0  0
 32 77  2  0  0  0  0
 33 47  1  0  0  0  0
 33 73  1  0  0  0  0
 33 78  2  0  0  0  0
 34 61  1  0  0  0  0
 34 69  1  0  0  0  0
 34 79  2  0  0  0  0
 35 62  1  0  0  0  0
 35 74  1  0  0  0  0
 35 80  2  0  0  0  0
 36 70  1  0  0  0  0
 36 75  1  0  0  0  0
 36 81  2  0  0  0  0
 37 40  1  0  0  0  0
 38 47  1  0  0  0  0
 39 69  1  0  0  0  0
 40 42  1  0  0  0  0
 41 43  1  0  0  0  0
 41 44  1  0  0  0  0
 42 46  1  0  0  0  0
 43 48  1  0  0  0  0
 44 70  1  0  0  0  0
 45 48  1  0  0  0  0
 45 70  1  0  0  0  0
 46 73  1  0  0  0  0
 47 69  1  0  0  0  0
 48 68  1  0  0  0  0
 49 60  1  0  0  0  0
 50 60  1  0  0  0  0
 51 62  1  0  0  0  0
 52 63  1  0  0  0  0
 53 64  1  0  0  0  0
 54 64  1  0  0  0  0
 55 64  1  0  0  0  0
 56 76  1  0  0  0  0
 57 63  1  0  0  0  0
 58 75  1  0  0  0  0
 59 63  1  0  0  0  0
 59 83  1  0  0  0  0
 61 64  1  0  0  0  0
 61 74  1  0  0  0  0
 62 76  1  0  0  0  0
 65 68  1  0  0  0  0
M  CHG  1  76   1
M  ISO  4  36 100  59 101  75 100  83 101
M  END
> <Batch ID>
0104

> <Smiles>
CNC(C)C(=O)NC(C(=O)N1Cc2cc([101O:1][101CH2:1]C(C)Cc3cc(C(C)C)nc(C[100NH:0][100C:0](=O)N4CCCC(n5nc(-c6ccc(Oc7ccc(F)cc7F)cc6)c(C(N)=O)c5N)C4)n3)ccc2CC1C(=O)NC1CCCc2ccccc21)C(C)(C)C

> <Shape>
0.241

> <Color>
0.050

> <Negative vol penalty>
0.000

$$$$

  -OEChem-04052319433D

 87 95  0     1  0  0  0  0  0999 V2000
  -23.4166  -35.8176   16.0902 C   0  0  0  0  0  0  0  0  0  0  0  0
  -24.1300  -34.6235   16.0684 C   0  0  0  0  0  0  0  0  0  0  0  0
  -24.5661   -9.2796   21.1859 C   0  0  0  0  0  0  0  0  0  0  0  0
  -22.6473  -10.5609   20.4692 C   0  0  0  0  0  0  0  0  0  0  0  0
  -23.3054  -36.5403   17.2774 C   0  0  0  0  0  0  0  0  0  0  0  0
  -24.7336  -34.1518   17.2336 C   0  0  0  0  0  0  0  0  0  0  0  0
  -25.3965  -28.3044   18.9290 C   0  0  0  0  0  0  0  0  0  0  0  0
  -23.7310   -8.2105   21.5104 C   0  0  0  0  0  0  0  0  0  0  0  0
  -21.8122   -9.4918   20.7937 C   0  0  0  0  0  0  0  0  0  0  0  0
  -26.4677  -27.4168   18.8369 C   0  0  0  0  0  0  0  0  0  0  0  0
  -21.6522   -7.3508   24.0332 C   0  0  0  0  0  0  0  0  0  0  0  0
  -21.8670   -6.7085   25.2526 C   0  0  0  0  0  0  0  0  0  0  0  0
  -27.1008  -27.9554   21.1015 C   0  0  0  0  0  0  0  0  0  0  0  0
  -22.2808   -4.6333   24.0867 C   0  0  0  0  0  0  0  0  0  0  0  0
  -26.6665  -23.2541   23.8335 C   0  0  0  0  0  0  0  0  0  0  0  0
  -24.0242  -10.4548   20.6654 C   0  0  0  0  0  0  0  0  0  0  0  0
  -25.5120  -11.8052   19.0936 C   0  0  0  0  0  0  0  0  0  0  0  0
  -23.8998  -36.0723   18.4599 C   0  0  0  0  0  0  0  0  0  0  0  0
  -25.1755  -29.0336   20.1062 C   0  0  0  0  0  0  0  0  0  0  0  0
  -24.6314  -34.8696   18.4373 C   0  0  0  0  0  0  0  0  0  0  0  0
  -26.0246  -28.8498   21.2068 C   0  0  0  0  0  0  0  0  0  0  0  0
  -22.3541   -8.3166   21.3143 C   0  0  0  0  0  0  0  0  0  0  0  0
  -27.3217  -27.2443   19.9223 C   0  0  0  0  0  0  0  0  0  0  0  0
  -21.7516   -6.6343   22.8405 C   0  0  0  0  0  0  0  0  0  0  0  0
  -22.1813   -5.3498   25.2793 C   0  0  0  0  0  0  0  0  0  0  0  0
  -22.0660   -5.2756   22.8672 C   0  0  0  0  0  0  0  0  0  0  0  0
  -24.8863  -11.5597   20.3305 C   0  0  0  0  0  0  0  0  0  0  0  0
  -25.3341  -22.9129   23.5333 C   0  0  0  0  0  0  0  0  0  0  0  0
  -27.4205  -22.4232   23.0414 C   0  0  0  0  0  0  0  0  0  0  0  0
  -26.2149  -12.9688   19.2894 C   0  0  0  0  0  0  0  0  0  0  0  0
  -25.4623  -11.0490   17.8764 C   0  0  0  0  0  0  0  0  0  0  0  0
  -25.1310  -32.1220   20.8569 C   0  0  0  0  0  0  0  0  0  0  0  0
  -24.1343  -31.0083   23.7358 C   0  0  0  0  0  0  0  0  0  0  0  0
  -24.0200  -28.4228   25.9604 C   0  0  0  0  0  0  0  0  0  0  0  0
  -26.2718  -18.1720   21.1248 C   0  0  0  0  0  0  0  0  0  0  0  0
  -23.7922  -36.9121   19.7080 C   0  0  0  0  0  0  0  0  0  0  0  0
  -23.9998  -29.9672   20.1987 C   0  0  0  0  0  0  0  0  0  0  0  0
  -25.8186  -29.5935   22.5002 C   0  0  0  0  0  0  0  0  0  0  0  0
  -24.1452  -36.1535   20.9848 C   0  0  0  0  0  0  0  0  0  0  0  0
  -27.2781  -15.5216   23.5012 C   0  0  0  0  0  0  0  0  0  0  0  0
  -25.4342  -35.3603   20.7954 C   0  0  0  0  0  0  0  0  0  0  0  0
  -26.7348  -14.2800   22.8009 C   0  0  0  0  0  0  0  0  0  0  0  0
  -26.4023  -16.7495   23.2557 C   0  0  0  0  0  0  0  0  0  0  0  0
  -25.6217  -15.7844   21.1076 C   0  0  0  0  0  0  0  0  0  0  0  0
  -25.2793  -34.3126   19.6864 C   0  0  1  0  0  0  0  0  0  0  0  0
  -24.1722  -31.0409   21.2687 C   0  0  1  0  0  0  0  0  0  0  0  0
  -26.5197  -14.5539   21.3050 C   0  0  2  0  0  0  0  0  0  0  0  0
  -23.2508  -22.4685   24.8810 C   0  0  0  0  0  0  0  0  0  0  0  0
  -23.2210  -24.1986   23.0476 C   0  0  0  0  0  0  0  0  0  0  0  0
  -23.3650  -27.1537   28.0239 C   0  0  0  0  0  0  0  0  0  0  0  0
  -29.6525  -23.2958   23.8280 C   0  0  0  0  0  0  0  0  0  0  0  0
  -29.4867  -20.8856   23.2864 C   0  0  0  0  0  0  0  0  0  0  0  0
  -26.4054  -32.6064   24.9999 C   0  0  0  0  0  0  0  0  0  0  0  0
  -26.1058  -31.2514   27.0838 C   0  0  0  0  0  0  0  0  0  0  0  0
  -24.2446  -32.6916   26.2563 C   0  0  0  0  0  0  0  0  0  0  0  0
  -21.5914  -27.3377   24.6629 C   0  0  0  0  0  0  0  0  0  0  0  0
  -29.0720  -24.1080   19.4748 C   0  0  0  0  0  0  0  0  0  0  0  0
  -29.4059  -22.5967   21.4352 C   0  0  0  0  0  0  0  0  0  0  0  0
  -28.2077  -25.2498   18.9774 C   0  0  0  0  0  0  0  0  0  1  0  0
  -26.8472  -20.5960   21.3320 C   0  0  0  0  0  0  0  0  0  0  0  0
  -24.1081  -23.4963   24.1037 C   0  0  0  0  0  0  0  0  0  0  0  0
  -24.8189  -30.5695   25.0077 C   0  0  1  0  0  0  0  0  0  0  0  0
  -22.8708  -27.8251   26.7520 C   0  0  2  0  0  0  0  0  0  0  0  0
  -28.9488  -22.2828   22.8865 C   0  0  0  0  0  0  0  0  0  0  0  0
  -25.3990  -31.7670   25.8120 C   0  0  0  0  0  0  0  0  0  0  0  0
  -25.1671  -12.4923   21.2445 N   0  0  0  0  0  0  0  0  0  0  0  0
  -25.2436  -21.9411   22.6215 N   0  0  0  0  0  0  0  0  0  0  0  0
  -26.5286  -21.6646   22.3418 N   0  0  0  0  0  0  0  0  0  0  0  0
  -25.9771  -13.3351   20.5814 N   0  0  0  0  0  0  0  0  0  0  0  0
  -24.6590  -30.4997   22.5392 N   0  0  0  0  0  0  0  0  0  0  0  0
  -26.1434  -16.9561   21.8219 N   0  0  0  0  0  0  0  0  0  0  0  0
  -27.0072  -13.7042   18.4806 N   0  0  0  0  0  0  0  0  0  0  0  0
  -24.6921   -9.8784   17.8481 N   0  0  0  0  0  0  0  0  0  0  0  0
  -24.5404  -33.1672   20.1727 N   0  0  0  0  0  0  0  0  0  0  0  0
  -23.8427  -29.7728   25.7429 N   0  0  0  0  0  0  0  0  0  0  0  0
  -26.6732  -19.2631   21.8876 N   0  0  0  0  0  0  0  0  0  0  0  0
  -22.1512  -26.8088   25.9333 N   0  3  0  0  0  0  0  0  0  0  0  0
  -28.6463  -23.7327   20.8467 N   0  3  0  0  0  0  0  0  0  0  0  0
  -26.0956  -11.3922   16.8495 O   0  0  0  0  0  0  0  0  0  0  0  0
  -26.3186  -32.0164   21.1402 O   0  0  0  0  0  0  0  0  0  0  0  0
  -23.1650  -31.7684   23.8021 O   0  0  0  0  0  0  0  0  0  0  0  0
  -24.9808  -27.7593   25.5769 O   0  0  0  0  0  0  0  0  0  0  0  0
  -26.0375  -18.2760   19.9160 O   0  0  0  0  0  0  0  0  0  0  0  0
  -21.5389   -7.2735   21.6306 O   0  0  0  0  0  0  0  0  0  0  0  0
  -28.3684  -26.3790   19.8349 O   0  0  0  0  0  0  0  0  0  1  0  0
  -22.3891   -4.7335   26.4503 F   0  0  0  0  0  0  0  0  0  0  0  0
  -22.1640   -4.5822   21.7246 F   0  0  0  0  0  0  0  0  0  0  0  0
  1  2  1  0  0  0  0
  1  5  2  0  0  0  0
  2  6  2  0  0  0  0
  3  8  2  0  0  0  0
  3 16  1  0  0  0  0
  4  9  1  0  0  0  0
  4 16  2  0  0  0  0
  5 18  1  0  0  0  0
  6 20  1  0  0  0  0
  7 10  2  0  0  0  0
  7 19  1  0  0  0  0
  8 22  1  0  0  0  0
  9 22  2  0  0  0  0
 10 23  1  0  0  0  0
 11 12  2  0  0  0  0
 11 24  1  0  0  0  0
 12 25  1  0  0  0  0
 13 21  1  0  0  0  0
 13 23  2  0  0  0  0
 14 25  2  0  0  0  0
 14 26  1  0  0  0  0
 15 28  1  0  0  0  0
 15 29  2  0  0  0  0
 16 27  1  0  0  0  0
 17 27  1  0  0  0  0
 17 30  2  0  0  0  0
 17 31  1  0  0  0  0
 18 20  2  0  0  0  0
 18 36  1  0  0  0  0
 19 21  2  0  0  0  0
 19 37  1  0  0  0  0
 20 45  1  0  0  0  0
 21 38  1  0  0  0  0
 22 84  1  0  0  0  0
 23 85  1  0  0  0  0
 24 26  2  0  0  0  0
 24 84  1  0  0  0  0
 25 86  1  0  0  0  0
 26 87  1  0  0  0  0
 27 66  2  0  0  0  0
 28 61  1  0  0  0  0
 28 67  2  0  0  0  0
 29 64  1  0  0  0  0
 29 68  1  0  0  0  0
 30 69  1  0  0  0  0
 30 72  1  0  0  0  0
 31 73  1  0  0  0  0
 31 79  2  0  0  0  0
 32 46  1  0  0  0  0
 32 74  1  0  0  0  0
 32 80  2  0  0  0  0
 33 62  1  0  0  0  0
 33 70  1  0  0  0  0
 33 81  2  0  0  0  0
 34 63  1  0  0  0  0
 34 75  1  0  0  0  0
 34 82  2  0  0  0  0
 35 71  1  0  0  0  0
 35 76  1  0  0  0  0
 35 83  2  0  0  0  0
 36 39  1  0  0  0  0
 37 46  1  0  0  0  0
 38 70  1  0  0  0  0
 39 41  1  0  0  0  0
 40 42  1  0  0  0  0
 40 43  1  0  0  0  0
 41 45  1  0  0  0  0
 42 47  1  0  0  0  0
 43 71  1  0  0  0  0
 44 47  1  0  0  0  0
 44 71  1  0  0  0  0
 45 74  1  0  0  0  0
 46 70  1  0  0  0  0
 47 69  1  0  0  0  0
 48 61  1  0  0  0  0
 49 61  1  0  0  0  0
 50 63  1  0  0  0  0
 51 64  1  0  0  0  0
 52 64  1  0  0  0  0
 53 65  1  0  0  0  0
 54 65  1  0  0  0  0
 55 65  1  0  0  0  0
 56 77  1  0  0  0  0
 57 59  1  0  0  0  0
 57 78  1  0  0  0  0
 58 64  1  0  0  0  0
 58 78  1  0  0  0  0
 59 85  1  0  0  0  0
 60 68  1  0  0  0  0
 60 76  1  0  0  0  0
 62 65  1  0  0  0  0
 62 75  1  0  0  0  0
 63 77  1  0  0  0  0
 66 69  1  0  0  0  0
 67 68  1  0  0  0  0
M  CHG  2  77   1  78   1
M  ISO  4  35 100  59 101  76 100  85 101
M  END
> <Batch ID>
0104

> <Smiles>
CNC(C)C(=O)NC(C(=O)N1Cc2cc([101O:1][101CH2:1]CNCC(C)(C)c3cc(C(C)C)nn3C[100NH:0][100C:0](=O)N3CCCC(n4nc(-c5ccc(Oc6ccc(F)cc6F)cc5)c(C(N)=O)c4N)C3)ccc2CC1C(=O)NC1CCCc2ccccc21)C(C)(C)C

> <Shape>
0.240

> <Color>
0.123

> <Negative vol penalty>
0.000

$$$$

  -OEChem-04052319433D

 76 83  0     1  0  0  0  0  0999 V2000
  -17.5579  -25.5630   25.7551 C   0  0  0  0  0  0  0  0  0  0  0  0
  -18.4515  -24.5444   25.4400 C   0  0  0  0  0  0  0  0  0  0  0  0
  -26.8057  -12.3939   20.7645 C   0  0  0  0  0  0  0  0  0  0  0  0
  -25.5377  -14.4158   20.3885 C   0  0  0  0  0  0  0  0  0  0  0  0
  -17.4919  -26.7031   24.9553 C   0  0  0  0  0  0  0  0  0  0  0  0
  -19.2790  -24.6649   24.3241 C   0  0  0  0  0  0  0  0  0  0  0  0
  -25.0120  -22.5889   23.7508 C   0  0  0  0  0  0  0  0  0  0  0  0
  -25.6753  -11.7867   21.3113 C   0  0  0  0  0  0  0  0  0  0  0  0
  -24.4073  -13.8085   20.9353 C   0  0  0  0  0  0  0  0  0  0  0  0
  -25.5395  -21.4417   23.1596 C   0  0  0  0  0  0  0  0  0  0  0  0
  -23.0288   -9.5832   22.4756 C   0  0  0  0  0  0  0  0  0  0  0  0
  -22.7351   -8.2797   22.0752 C   0  0  0  0  0  0  0  0  0  0  0  0
  -25.9841  -22.6917   21.1449 C   0  0  0  0  0  0  0  0  0  0  0  0
  -22.5446   -9.0262   19.7853 C   0  0  0  0  0  0  0  0  0  0  0  0
  -26.7369  -13.7085   20.3032 C   0  0  0  0  0  0  0  0  0  0  0  0
  -28.3017  -14.3347   18.3882 C   0  0  0  0  0  0  0  0  0  0  0  0
  -18.3258  -26.8418   23.8345 C   0  0  0  0  0  0  0  0  0  0  0  0
  -24.9566  -23.7955   23.0385 C   0  0  0  0  0  0  0  0  0  0  0  0
  -19.2232  -25.8073   23.5078 C   0  0  0  0  0  0  0  0  0  0  0  0
  -25.4578  -23.8534   21.7303 C   0  0  0  0  0  0  0  0  0  0  0  0
  -24.4761  -12.4939   21.3967 C   0  0  0  0  0  0  0  0  0  0  0  0
  -26.0230  -21.4923   21.8555 C   0  0  0  0  0  0  0  0  0  0  0  0
  -23.0803  -10.6082   21.5309 C   0  0  0  0  0  0  0  0  0  0  0  0
  -22.4930   -8.0012   20.7301 C   0  0  0  0  0  0  0  0  0  0  0  0
  -22.8382  -10.3296   20.1858 C   0  0  0  0  0  0  0  0  0  0  0  0
  -27.9044  -14.3366   19.7387 C   0  0  0  0  0  0  0  0  0  0  0  0
  -29.4661  -15.0630   18.3717 C   0  0  0  0  0  0  0  0  0  0  0  0
  -27.6741  -13.7290   17.2502 C   0  0  0  0  0  0  0  0  0  0  0  0
  -22.6215  -25.7175   22.0601 C   0  0  0  0  0  0  0  0  0  0  0  0
  -25.0915  -27.6174   21.1590 C   0  0  0  0  0  0  0  0  0  0  0  0
  -28.3761  -27.8713   20.2681 C   0  0  0  0  0  0  0  0  0  0  0  0
  -31.4191  -19.2127   22.4342 C   0  0  0  0  0  0  0  0  0  0  0  0
  -18.1850  -28.0716   22.9728 C   0  0  0  0  0  0  0  0  0  0  0  0
  -24.4091  -25.0306   23.6998 C   0  0  0  0  0  0  0  0  0  0  0  0
  -25.4398  -25.1291   20.9298 C   0  0  0  0  0  0  0  0  0  0  0  0
  -19.3603  -28.2874   22.0228 C   0  0  0  0  0  0  0  0  0  0  0  0
  -33.1959  -16.2455   21.1149 C   0  0  0  0  0  0  0  0  0  0  0  0
  -19.7201  -26.9853   21.3143 C   0  0  0  0  0  0  0  0  0  0  0  0
  -32.0551  -15.3921   20.5633 C   0  0  0  0  0  0  0  0  0  0  0  0
  -32.7351  -17.1312   22.2685 C   0  0  0  0  0  0  0  0  0  0  0  0
  -30.4250  -17.1373   21.3865 C   0  0  0  0  0  0  0  0  0  0  0  0
  -20.1546  -25.9121   22.3197 C   0  0  1  0  0  0  0  0  0  0  0  0
  -23.9307  -26.0806   22.7018 C   0  0  1  0  0  0  0  0  0  0  0  0
  -30.8452  -16.2672   20.1924 C   0  0  2  0  0  0  0  0  0  0  0  0
  -30.0986  -29.5495   19.5510 C   0  0  0  0  0  0  0  0  0  0  0  0
  -27.6440  -17.9006   20.1744 C   0  0  0  0  0  0  0  0  0  0  0  0
  -23.8488  -27.6989   18.3734 C   0  0  0  0  0  0  0  0  0  0  0  0
  -26.0342  -28.5525   17.4995 C   0  0  0  0  0  0  0  0  0  0  0  0
  -24.7562  -29.8871   19.1754 C   0  0  0  0  0  0  0  0  0  0  0  0
  -30.1008  -21.2921   22.5675 C   0  0  0  0  0  0  0  0  0  0  0  0
  -30.0776  -27.3037   22.6222 C   0  0  0  0  0  0  0  0  0  0  0  0
  -29.3988  -19.5649   20.9520 C   0  0  0  0  0  0  0  0  0  0  0  0
  -27.1591  -19.4223   22.1388 C   0  0  0  0  0  0  0  0  0  1  0  0
  -25.9237  -27.7677   19.9084 C   0  0  1  0  0  0  0  0  0  0  0  0
  -29.4741  -28.8140   20.7265 C   0  0  2  0  0  0  0  0  0  0  0  0
  -28.2391  -18.6510   21.3708 C   0  0  1  0  0  0  0  0  0  0  0  0
  -25.1394  -28.4519   18.7533 C   0  0  0  0  0  0  0  0  0  0  0  0
  -28.7481  -15.0122   20.5234 N   0  0  0  0  0  0  0  0  0  0  0  0
  -29.6871  -15.4417   19.6632 N   0  0  0  0  0  0  0  0  0  0  0  0
  -24.8888  -26.3082   21.6181 N   0  0  0  0  0  0  0  0  0  0  0  0
  -31.5580  -17.9199   21.9029 N   0  0  0  0  0  0  0  0  0  0  0  0
  -30.3123  -15.4098   17.3787 N   0  0  0  0  0  0  0  0  0  0  0  0
  -26.4826  -13.0170   17.4445 N   0  0  0  0  0  0  0  0  0  0  0  0
  -21.5122  -26.1521   22.7600 N   0  0  0  0  0  0  0  0  0  0  0  0
  -27.1364  -28.4737   20.3076 N   0  0  0  0  0  0  0  0  0  0  0  0
  -30.2834  -19.9426   22.0521 N   0  0  0  0  0  0  0  0  0  0  0  0
  -30.5471  -28.0561   21.4304 N   0  3  0  0  0  0  0  0  0  0  0  0
  -28.1644  -13.8027   16.0979 O   0  0  0  0  0  0  0  0  0  0  0  0
  -22.6181  -25.0907   21.0070 O   0  0  0  0  0  0  0  0  0  0  0  0
  -24.6438  -28.6250   21.7122 O   0  0  0  0  0  0  0  0  0  0  0  0
  -28.5966  -26.7173   19.9073 O   0  0  0  0  0  0  0  0  0  0  0  0
  -32.2671  -19.6909   23.1985 O   0  0  0  0  0  0  0  0  0  0  0  0
  -23.3728  -11.9016   21.9300 O   0  0  0  0  0  0  0  0  0  0  0  0
  -26.5377  -20.3738   21.2758 O   0  0  0  0  0  0  0  0  0  1  0  0
  -22.2125   -6.7492   20.3454 F   0  0  0  0  0  0  0  0  0  0  0  0
  -22.8875  -11.3100   19.2734 F   0  0  0  0  0  0  0  0  0  0  0  0
  1  2  1  0  0  0  0
  1  5  2  0  0  0  0
  2  6  2  0  0  0  0
  3  8  2  0  0  0  0
  3 15  1  0  0  0  0
  4  9  1  0  0  0  0
  4 15  2  0  0  0  0
  5 17  1  0  0  0  0
  6 19  1  0  0  0  0
  7 10  2  0  0  0  0
  7 18  1  0  0  0  0
  8 21  1  0  0  0  0
  9 21  2  0  0  0  0
 10 22  1  0  0  0  0
 11 12  2  0  0  0  0
 11 23  1  0  0  0  0
 12 24  1  0  0  0  0
 13 20  1  0  0  0  0
 13 22  2  0  0  0  0
 14 24  2  0  0  0  0
 14 25  1  0  0  0  0
 15 26  1  0  0  0  0
 16 26  1  0  0  0  0
 16 27  2  0  0  0  0
 16 28  1  0  0  0  0
 17 19  2  0  0  0  0
 17 33  1  0  0  0  0
 18 20  2  0  0  0  0
 18 34  1  0  0  0  0
 19 42  1  0  0  0  0
 20 35  1  0  0  0  0
 21 73  1  0  0  0  0
 22 74  1  0  0  0  0
 23 25  2  0  0  0  0
 23 73  1  0  0  0  0
 24 75  1  0  0  0  0
 25 76  1  0  0  0  0
 26 58  2  0  0  0  0
 27 59  1  0  0  0  0
 27 62  1  0  0  0  0
 28 63  1  0  0  0  0
 28 68  2  0  0  0  0
 29 43  1  0  0  0  0
 29 64  1  0  0  0  0
 29 69  2  0  0  0  0
 30 54  1  0  0  0  0
 30 60  1  0  0  0  0
 30 70  2  0  0  0  0
 31 55  1  0  0  0  0
 31 65  1  0  0  0  0
 31 71  2  0  0  0  0
 32 61  1  0  0  0  0
 32 66  1  0  0  0  0
 32 72  2  0  0  0  0
 33 36  1  0  0  0  0
 34 43  1  0  0  0  0
 35 60  1  0  0  0  0
 36 38  1  0  0  0  0
 37 39  1  0  0  0  0
 37 40  1  0  0  0  0
 38 42  1  0  0  0  0
 39 44  1  0  0  0  0
 40 61  1  0  0  0  0
 41 44  1  0  0  0  0
 41 61  1  0  0  0  0
 42 64  1  0  0  0  0
 43 60  1  0  0  0  0
 44 59  1  0  0  0  0
 45 55  1  0  0  0  0
 46 56  1  0  0  0  0
 47 57  1  0  0  0  0
 48 57  1  0  0  0  0
 49 57  1  0  0  0  0
 50 66  1  0  0  0  0
 51 67  1  0  0  0  0
 52 56  1  0  0  0  0
 52 66  1  0  0  0  0
 53 56  1  0  0  0  0
 53 74  1  0  0  0  0
 54 57  1  0  0  0  0
 54 65  1  0  0  0  0
 55 67  1  0  0  0  0
 58 59  1  0  0  0  0
M  CHG  1  67   1
M  ISO  4  32 100  53 101  66 100  74 101
M  END
> <Batch ID>
0104

> <Smiles>
CNC(C)C(=O)NC(C(=O)N1Cc2cc([101O:1][101CH2:1]C(C)C[100N:0](C)[100C:0](=O)N3CCCC(n4nc(-c5ccc(Oc6ccc(F)cc6F)cc5)c(C(N)=O)c4N)C3)ccc2CC1C(=O)NC1CCCc2ccccc21)C(C)(C)C

> <Shape>
0.225

> <Color>
0.063

> <Negative vol penalty>
0.000

$$$$

  -OEChem-04052319433D

 77 84  0     1  0  0  0  0  0999 V2000
  -27.8763  -18.4899   14.9946 C   0  0  0  0  0  0  0  0  0  0  0  0
  -28.4992  -17.8119   16.0375 C   0  0  0  0  0  0  0  0  0  0  0  0
  -27.7460  -24.0291   21.4787 C   0  0  0  0  0  0  0  0  0  0  0  0
  -28.4159  -23.4860   19.2218 C   0  0  0  0  0  0  0  0  0  0  0  0
  -26.4890  -18.6281   14.9846 C   0  0  0  0  0  0  0  0  0  0  0  0
  -27.7350  -17.2726   17.0718 C   0  0  0  0  0  0  0  0  0  0  0  0
  -29.1654  -12.5717   18.2967 C   0  0  0  0  0  0  0  0  0  0  0  0
  -27.8202  -25.3882   21.1736 C   0  0  0  0  0  0  0  0  0  0  0  0
  -28.4900  -24.8451   18.9168 C   0  0  0  0  0  0  0  0  0  0  0  0
  -30.3095  -12.4387   19.0823 C   0  0  0  0  0  0  0  0  0  0  0  0
  -27.4835  -28.9964   20.8864 C   0  0  0  0  0  0  0  0  0  0  0  0
  -26.4390  -29.8153   21.3153 C   0  0  0  0  0  0  0  0  0  0  0  0
  -28.9260  -12.1294   21.0341 C   0  0  0  0  0  0  0  0  0  0  0  0
  -24.8802  -28.5108   20.0092 C   0  0  0  0  0  0  0  0  0  0  0  0
  -28.0439  -23.0780   20.5028 C   0  0  0  0  0  0  0  0  0  0  0  0
  -26.8467  -20.8329   20.6868 C   0  0  0  0  0  0  0  0  0  0  0  0
  -25.7066  -18.0818   16.0143 C   0  0  0  0  0  0  0  0  0  0  0  0
  -27.8910  -12.4954   18.8767 C   0  0  0  0  0  0  0  0  0  0  0  0
  -26.3360  -17.4048   17.0763 C   0  0  0  0  0  0  0  0  0  0  0  0
  -27.7673  -12.2592   20.2533 C   0  0  0  0  0  0  0  0  0  0  0  0
  -28.1922  -25.7962   19.8927 C   0  0  0  0  0  0  0  0  0  0  0  0
  -30.1900  -12.2203   20.4517 C   0  0  0  0  0  0  0  0  0  0  0  0
  -27.2264  -27.9348   20.0189 C   0  0  0  0  0  0  0  0  0  0  0  0
  -25.1373  -29.5725   20.8767 C   0  0  0  0  0  0  0  0  0  0  0  0
  -25.9248  -27.6920   19.5803 C   0  0  0  0  0  0  0  0  0  0  0  0
  -27.9681  -21.6740   20.8175 C   0  0  0  0  0  0  0  0  0  0  0  0
  -27.2879  -19.6039   21.1127 C   0  0  0  0  0  0  0  0  0  0  0  0
  -25.5246  -21.1355   20.2221 C   0  0  0  0  0  0  0  0  0  0  0  0
  -25.4315  -14.4892   19.1582 C   0  0  0  0  0  0  0  0  0  0  0  0
  -23.9646  -11.8833   20.4150 C   0  0  0  0  0  0  0  0  0  0  0  0
  -24.2608   -8.8635   21.9770 C   0  0  0  0  0  0  0  0  0  0  0  0
  -32.6684  -17.1759   21.2173 C   0  0  0  0  0  0  0  0  0  0  0  0
  -24.2143  -18.2977   15.9846 C   0  0  0  0  0  0  0  0  0  0  0  0
  -26.6665  -12.6143   18.0112 C   0  0  0  0  0  0  0  0  0  0  0  0
  -26.4219  -12.1490   20.9213 C   0  0  0  0  0  0  0  0  0  0  0  0
  -23.4462  -17.3727   16.9252 C   0  0  0  0  0  0  0  0  0  0  0  0
  -30.4693  -17.5831   24.0627 C   0  0  0  0  0  0  0  0  0  0  0  0
  -24.1112  -17.3350   18.2975 C   0  0  0  0  0  0  0  0  0  0  0  0
  -29.4669  -18.6076   23.5282 C   0  0  0  0  0  0  0  0  0  0  0  0
  -31.8797  -17.8747   23.5588 C   0  0  0  0  0  0  0  0  0  0  0  0
  -30.9988  -18.9790   21.5394 C   0  0  0  0  0  0  0  0  0  0  0  0
  -25.5394  -16.7844   18.2035 C   0  0  1  0  0  0  0  0  0  0  0  0
  -25.4230  -13.0326   18.7897 C   0  0  1  0  0  0  0  0  0  0  0  0
  -29.5501  -18.7258   21.9948 C   0  0  2  0  0  0  0  0  0  0  0  0
  -22.8834   -6.9849   22.9103 C   0  0  0  0  0  0  0  0  0  0  0  0
  -23.2797  -13.5962   22.8455 C   0  0  0  0  0  0  0  0  0  0  0  0
  -22.7757  -11.4896   24.1010 C   0  0  0  0  0  0  0  0  0  0  0  0
  -21.4386  -12.0860   22.0813 C   0  0  0  0  0  0  0  0  0  0  0  0
  -35.5117  -13.1561   20.8036 C   0  0  0  0  0  0  0  0  0  0  0  0
  -35.3418  -14.1959   23.0633 C   0  0  0  0  0  0  0  0  0  0  0  0
  -25.4544   -6.9047   20.1068 C   0  0  0  0  0  0  0  0  0  0  0  0
  -33.2850  -13.2139   22.0201 C   0  0  0  0  0  0  0  0  0  0  0  0
  -34.3459  -15.3550   21.0520 C   0  0  0  0  0  0  0  0  0  0  0  0
  -32.4717  -12.7950   20.7974 C   0  0  0  0  0  0  0  0  0  1  0  0
  -23.8248  -11.2993   21.8001 C   0  0  1  0  0  0  0  0  0  0  0  0
  -23.6236   -7.5154   21.6923 C   0  0  2  0  0  0  0  0  0  0  0  0
  -22.8552  -12.1217   22.6950 C   0  0  0  0  0  0  0  0  0  0  0  0
  -34.5983  -13.9869   21.7265 C   0  0  0  0  0  0  0  0  0  0  0  0
  -29.0409  -21.0334   21.2895 N   0  0  0  0  0  0  0  0  0  0  0  0
  -28.5956  -19.7768   21.4593 N   0  0  0  0  0  0  0  0  0  0  0  0
  -25.2546  -12.2785   20.0335 N   0  0  0  0  0  0  0  0  0  0  0  0
  -31.8933  -17.9561   22.0914 N   0  0  0  0  0  0  0  0  0  0  0  0
  -26.6809  -18.4029   21.2208 N   0  0  0  0  0  0  0  0  0  0  0  0
  -25.2410  -22.4487   19.8227 N   0  0  0  0  0  0  0  0  0  0  0  0
  -25.5179  -15.3430   18.0751 N   0  0  0  0  0  0  0  0  0  0  0  0
  -23.4328   -9.9059   21.6178 N   0  0  0  0  0  0  0  0  0  0  0  0
  -33.4940  -16.2351   21.8206 N   0  0  0  0  0  0  0  0  0  0  0  0
  -24.6646   -6.5217   21.3053 N   0  3  0  0  0  0  0  0  0  0  0  0
  -24.6168  -20.2709   20.1782 O   0  0  0  0  0  0  0  0  0  0  0  0
  -25.3631  -14.8145   20.3377 O   0  0  0  0  0  0  0  0  0  0  0  0
  -22.9672  -11.9786   19.6954 O   0  0  0  0  0  0  0  0  0  0  0  0
  -25.3797   -8.9801   22.4721 O   0  0  0  0  0  0  0  0  0  0  0  0
  -32.6239  -17.3043   19.9891 O   0  0  0  0  0  0  0  0  0  0  0  0
  -28.2644  -27.1222   19.5946 O   0  0  0  0  0  0  0  0  0  0  0  0
  -31.3050  -12.0907   21.2209 O   0  0  0  0  0  0  0  0  0  1  0  0
  -24.1341  -30.3580   21.2899 F   0  0  0  0  0  0  0  0  0  0  0  0
  -25.6714  -26.6729   18.7478 F   0  0  0  0  0  0  0  0  0  0  0  0
  1  2  1  0  0  0  0
  1  5  2  0  0  0  0
  2  6  2  0  0  0  0
  3  8  2  0  0  0  0
  3 15  1  0  0  0  0
  4  9  1  0  0  0  0
  4 15  2  0  0  0  0
  5 17  1  0  0  0  0
  6 19  1  0  0  0  0
  7 10  2  0  0  0  0
  7 18  1  0  0  0  0
  8 21  1  0  0  0  0
  9 21  2  0  0  0  0
 10 22  1  0  0  0  0
 11 12  2  0  0  0  0
 11 23  1  0  0  0  0
 12 24  1  0  0  0  0
 13 20  1  0  0  0  0
 13 22  2  0  0  0  0
 14 24  2  0  0  0  0
 14 25  1  0  0  0  0
 15 26  1  0  0  0  0
 16 26  1  0  0  0  0
 16 27  2  0  0  0  0
 16 28  1  0  0  0  0
 17 19  2  0  0  0  0
 17 33  1  0  0  0  0
 18 20  2  0  0  0  0
 18 34  1  0  0  0  0
 19 42  1  0  0  0  0
 20 35  1  0  0  0  0
 21 74  1  0  0  0  0
 22 75  1  0  0  0  0
 23 25  2  0  0  0  0
 23 74  1  0  0  0  0
 24 76  1  0  0  0  0
 25 77  1  0  0  0  0
 26 59  2  0  0  0  0
 27 60  1  0  0  0  0
 27 63  1  0  0  0  0
 28 64  1  0  0  0  0
 28 69  2  0  0  0  0
 29 43  1  0  0  0  0
 29 65  1  0  0  0  0
 29 70  2  0  0  0  0
 30 55  1  0  0  0  0
 30 61  1  0  0  0  0
 30 71  2  0  0  0  0
 31 56  1  0  0  0  0
 31 66  1  0  0  0  0
 31 72  2  0  0  0  0
 32 62  1  0  0  0  0
 32 67  1  0  0  0  0
 32 73  2  0  0  0  0
 33 36  1  0  0  0  0
 34 43  1  0  0  0  0
 35 61  1  0  0  0  0
 36 38  1  0  0  0  0
 37 39  1  0  0  0  0
 37 40  1  0  0  0  0
 38 42  1  0  0  0  0
 39 44  1  0  0  0  0
 40 62  1  0  0  0  0
 41 44  1  0  0  0  0
 41 62  1  0  0  0  0
 42 65  1  0  0  0  0
 43 61  1  0  0  0  0
 44 60  1  0  0  0  0
 45 56  1  0  0  0  0
 46 57  1  0  0  0  0
 47 57  1  0  0  0  0
 48 57  1  0  0  0  0
 49 58  1  0  0  0  0
 50 58  1  0  0  0  0
 51 68  1  0  0  0  0
 52 54  1  0  0  0  0
 52 58  1  0  0  0  0
 53 58  1  0  0  0  0
 53 67  1  0  0  0  0
 54 75  1  0  0  0  0
 55 57  1  0  0  0  0
 55 66  1  0  0  0  0
 56 68  1  0  0  0  0
 59 60  1  0  0  0  0
M  CHG  1  68   1
M  ISO  4  32 100  54 101  67 100  75 101
M  END
> <Batch ID>
0104

> <Smiles>
CNC(C)C(=O)NC(C(=O)N1Cc2cc([101O:1][101CH2:1]CC(C)(C)C[100NH:0][100C:0](=O)N3CCCC(n4nc(-c5ccc(Oc6ccc(F)cc6F)cc5)c(C(N)=O)c4N)C3)ccc2CC1C(=O)NC1CCCc2ccccc21)C(C)(C)C

> <Shape>
0.229

> <Color>
0.065

> <Negative vol penalty>
0.000

$$$$

  -OEChem-04052319433D

 84 92  0     1  0  0  0  0  0999 V2000
  -20.0906   -9.5224   29.0812 C   0  0  0  0  0  0  0  0  0  0  0  0
  -20.8920  -10.5195   28.5344 C   0  0  0  0  0  0  0  0  0  0  0  0
  -23.1976   -9.8533   19.9565 C   0  0  0  0  0  0  0  0  0  0  0  0
  -23.9047   -9.9366   22.2652 C   0  0  0  0  0  0  0  0  0  0  0  0
  -20.5166   -8.8303   30.2141 C   0  0  0  0  0  0  0  0  0  0  0  0
  -22.1194  -10.8259   29.1209 C   0  0  0  0  0  0  0  0  0  0  0  0
  -25.8260  -11.3476   25.7100 C   0  0  0  0  0  0  0  0  0  0  0  0
  -22.5043   -8.6702   20.2115 C   0  0  0  0  0  0  0  0  0  0  0  0
  -23.2113   -8.7535   22.5203 C   0  0  0  0  0  0  0  0  0  0  0  0
  -25.8740  -12.5466   25.0003 C   0  0  0  0  0  0  0  0  0  0  0  0
  -20.8443   -5.4349   20.1721 C   0  0  0  0  0  0  0  0  0  0  0  0
  -20.9777   -4.3926   19.2548 C   0  0  0  0  0  0  0  0  0  0  0  0
  -27.6167  -13.3387   26.4682 C   0  0  0  0  0  0  0  0  0  0  0  0
  -29.3217  -16.6514   26.4848 C   0  0  0  0  0  0  0  0  0  0  0  0
  -23.3596   -4.3435   19.6570 C   0  0  0  0  0  0  0  0  0  0  0  0
  -23.8979  -10.4865   20.9833 C   0  0  0  0  0  0  0  0  0  0  0  0
  -24.1214  -13.0227   20.8242 C   0  0  0  0  0  0  0  0  0  0  0  0
  -21.7542   -9.1217   30.8090 C   0  0  0  0  0  0  0  0  0  0  0  0
  -26.6668  -11.1390   26.8127 C   0  0  0  0  0  0  0  0  0  0  0  0
  -22.5617  -10.1379   30.2636 C   0  0  0  0  0  0  0  0  0  0  0  0
  -27.5792  -12.1351   27.1886 C   0  0  0  0  0  0  0  0  0  0  0  0
  -30.7010  -16.8175   26.4273 C   0  0  0  0  0  0  0  0  0  0  0  0
  -31.3980  -16.4110   25.2949 C   0  0  0  0  0  0  0  0  0  0  0  0
  -22.5110   -8.1203   21.4934 C   0  0  0  0  0  0  0  0  0  0  0  0
  -26.7674  -13.5436   25.3811 C   0  0  0  0  0  0  0  0  0  0  0  0
  -21.9685   -5.9316   20.8317 C   0  0  0  0  0  0  0  0  0  0  0  0
  -22.2353   -3.8469   18.9973 C   0  0  0  0  0  0  0  0  0  0  0  0
  -23.2261   -5.3859   20.5742 C   0  0  0  0  0  0  0  0  0  0  0  0
  -24.6149  -11.7083   20.7203 C   0  0  0  0  0  0  0  0  0  0  0  0
  -28.6914  -16.0781   25.3922 C   0  0  0  0  0  0  0  0  0  0  0  0
  -30.6748  -15.8483   24.2556 C   0  0  0  0  0  0  0  0  0  0  0  0
  -25.1844  -13.8174   20.4708 C   0  0  0  0  0  0  0  0  0  0  0  0
  -22.8187  -13.4839   21.2061 C   0  0  0  0  0  0  0  0  0  0  0  0
  -26.2098  -10.6090   29.9134 C   0  0  0  0  0  0  0  0  0  0  0  0
  -29.4273  -10.1965   29.9190 C   0  0  0  0  0  0  0  0  0  0  0  0
  -32.4333  -10.8400   28.4369 C   0  0  0  0  0  0  0  0  0  0  0  0
  -30.9475  -14.0536   20.9666 C   0  0  0  0  0  0  0  0  0  0  0  0
  -22.1508   -8.3792   32.0605 C   0  0  0  0  0  0  0  0  0  0  0  0
  -26.6214   -9.8295   27.5514 C   0  0  0  0  0  0  0  0  0  0  0  0
  -28.5174  -11.9527   28.3526 C   0  0  0  0  0  0  0  0  0  0  0  0
  -23.6334   -8.5073   32.4007 C   0  0  0  0  0  0  0  0  0  0  0  0
  -29.3610  -13.1181   17.9195 C   0  0  0  0  0  0  0  0  0  0  0  0
  -24.0834   -9.9604   32.2882 C   0  0  0  0  0  0  0  0  0  0  0  0
  -27.9296  -12.7814   18.3408 C   0  0  0  0  0  0  0  0  0  0  0  0
  -30.3759  -12.6917   18.9779 C   0  0  0  0  0  0  0  0  0  0  0  0
  -28.6781  -12.8696   20.7554 C   0  0  0  0  0  0  0  0  0  0  0  0
  -23.9109  -10.4821   30.8565 C   0  0  1  0  0  0  0  0  0  0  0  0
  -27.1637   -9.9269   28.9740 C   0  0  1  0  0  0  0  0  0  0  0  0
  -27.6142  -13.3313   19.7449 C   0  0  2  0  0  0  0  0  0  0  0  0
  -32.8775  -16.5789   25.2041 C   0  0  0  0  0  0  0  0  0  0  0  0
  -31.2673  -16.5878   28.8727 C   0  0  0  0  0  0  0  0  0  0  0  0
  -30.9500  -18.8753   27.8618 C   0  0  0  0  0  0  0  0  0  0  0  0
  -26.4474  -17.0775   24.8366 C   0  0  0  0  0  0  0  0  0  0  0  0
  -34.8904  -10.3988   28.6929 C   0  0  0  0  0  0  0  0  0  0  0  0
  -29.5629  -12.2651   32.1579 C   0  0  0  0  0  0  0  0  0  0  0  0
  -32.0177  -12.4805   31.7156 C   0  0  0  0  0  0  0  0  0  0  0  0
  -31.0740  -10.2960   32.4639 C   0  0  0  0  0  0  0  0  0  0  0  0
  -32.5685   -9.4280   25.8394 C   0  0  0  0  0  0  0  0  0  0  0  0
  -31.3677  -15.3938   23.0127 C   0  0  0  0  0  0  0  0  0  0  0  0
  -31.4074  -17.4300   27.5913 C   0  0  0  0  0  0  0  0  0  0  0  0
  -27.1927  -15.8831   25.4185 C   0  0  1  0  0  0  0  0  0  1  0  0
  -30.6207  -11.1009   30.1105 C   0  0  1  0  0  0  0  0  0  0  0  0
  -33.5882   -9.9281   28.0640 C   0  0  2  0  0  0  0  0  0  0  0  0
  -30.7999  -11.5401   31.5912 C   0  0  0  0  0  0  0  0  0  0  0  0
  -25.8919  -11.6662   20.3312 N   0  0  0  0  0  0  0  0  0  0  0  0
  -29.3347  -15.6708   24.2751 N   0  0  0  0  0  0  0  0  0  0  0  0
  -26.2099  -12.9641   20.1874 N   0  0  0  0  0  0  0  0  0  0  0  0
  -28.4307  -10.6574   29.0471 N   0  0  0  0  0  0  0  0  0  0  0  0
  -30.0202  -13.2476   20.2857 N   0  0  0  0  0  0  0  0  0  0  0  0
  -25.3326  -15.1560   20.3779 N   0  0  0  0  0  0  0  0  0  0  0  0
  -21.8440  -12.5331   21.5381 N   0  0  0  0  0  0  0  0  0  0  0  0
  -24.9766   -9.9929   30.0085 N   0  0  0  0  0  0  0  0  0  0  0  0
  -31.7664  -10.3879   29.5559 N   0  0  0  0  0  0  0  0  0  0  0  0
  -30.5281  -14.5452   22.1967 N   0  0  0  0  0  0  0  0  0  0  0  0
  -33.7656   -9.8954   26.5847 N   0  3  0  0  0  0  0  0  0  0  0  0
  -22.5228  -14.7026   21.2357 O   0  0  0  0  0  0  0  0  0  0  0  0
  -26.5667  -11.6188   30.5090 O   0  0  0  0  0  0  0  0  0  0  0  0
  -29.3843   -9.1175   30.5153 O   0  0  0  0  0  0  0  0  0  0  0  0
  -32.1533  -11.8540   27.8014 O   0  0  0  0  0  0  0  0  0  0  0  0
  -32.0642  -14.3201   20.5094 O   0  0  0  0  0  0  0  0  0  0  0  0
  -21.8343   -6.9659   21.7427 O   0  0  0  0  0  0  0  0  0  0  0  0
  -26.8159  -14.7151   24.6904 O   0  0  0  0  0  0  0  0  0  1  0  0
  -22.3631   -2.8449   18.1176 F   0  0  0  0  0  0  0  0  0  0  0  0
  -24.3096   -5.8581   21.2058 F   0  0  0  0  0  0  0  0  0  0  0  0
  1  2  1  0  0  0  0
  1  5  2  0  0  0  0
  2  6  2  0  0  0  0
  3  8  2  0  0  0  0
  3 16  1  0  0  0  0
  4  9  1  0  0  0  0
  4 16  2  0  0  0  0
  5 18  1  0  0  0  0
  6 20  1  0  0  0  0
  7 10  2  0  0  0  0
  7 19  1  0  0  0  0
  8 24  1  0  0  0  0
  9 24  2  0  0  0  0
 10 25  1  0  0  0  0
 11 12  2  0  0  0  0
 11 26  1  0  0  0  0
 12 27  1  0  0  0  0
 13 21  1  0  0  0  0
 13 25  2  0  0  0  0
 14 22  2  0  0  0  0
 14 30  1  0  0  0  0
 15 27  2  0  0  0  0
 15 28  1  0  0  0  0
 16 29  1  0  0  0  0
 17 29  1  0  0  0  0
 17 32  2  0  0  0  0
 17 33  1  0  0  0  0
 18 20  2  0  0  0  0
 18 38  1  0  0  0  0
 19 21  2  0  0  0  0
 19 39  1  0  0  0  0
 20 47  1  0  0  0  0
 21 40  1  0  0  0  0
 22 23  1  0  0  0  0
 22 60  1  0  0  0  0
 23 31  2  0  0  0  0
 23 50  1  0  0  0  0
 24 81  1  0  0  0  0
 25 82  1  0  0  0  0
 26 28  2  0  0  0  0
 26 81  1  0  0  0  0
 27 83  1  0  0  0  0
 28 84  1  0  0  0  0
 29 65  2  0  0  0  0
 30 61  1  0  0  0  0
 30 66  2  0  0  0  0
 31 59  1  0  0  0  0
 31 66  1  0  0  0  0
 32 67  1  0  0  0  0
 32 70  1  0  0  0  0
 33 71  1  0  0  0  0
 33 76  2  0  0  0  0
 34 48  1  0  0  0  0
 34 72  1  0  0  0  0
 34 77  2  0  0  0  0
 35 62  1  0  0  0  0
 35 68  1  0  0  0  0
 35 78  2  0  0  0  0
 36 63  1  0  0  0  0
 36 73  1  0  0  0  0
 36 79  2  0  0  0  0
 37 69  1  0  0  0  0
 37 74  1  0  0  0  0
 37 80  2  0  0  0  0
 38 41  1  0  0  0  0
 39 48  1  0  0  0  0
 40 68  1  0  0  0  0
 41 43  1  0  0  0  0
 42 44  1  0  0  0  0
 42 45  1  0  0  0  0
 43 47  1  0  0  0  0
 44 49  1  0  0  0  0
 45 69  1  0  0  0  0
 46 49  1  0  0  0  0
 46 69  1  0  0  0  0
 47 72  1  0  0  0  0
 48 68  1  0  0  0  0
 49 67  1  0  0  0  0
 51 60  1  0  0  0  0
 52 60  1  0  0  0  0
 53 61  1  0  0  0  0
 54 63  1  0  0  0  0
 55 64  1  0  0  0  0
 56 64  1  0  0  0  0
 57 64  1  0  0  0  0
 58 75  1  0  0  0  0
 59 74  1  0  0  0  0
 61 82  1  0  0  0  0
 62 64  1  0  0  0  0
 62 73  1  0  0  0  0
 63 75  1  0  0  0  0
 65 67  1  0  0  0  0
M  CHG  1  75   1
M  ISO  4  37 100  61 101  74 100  82 101
M  END
> <Batch ID>
0104

> <Smiles>
CNC(C)C(=O)NC(C(=O)N1Cc2cc([101O:1][101CH:1](C)c3cc(C(C)C)c(C)c(C[100NH:0][100C:0](=O)N4CCCC(n5nc(-c6ccc(Oc7ccc(F)cc7F)cc6)c(C(N)=O)c5N)C4)n3)ccc2CC1C(=O)NC1CCCc2ccccc21)C(C)(C)C

> <Shape>
0.137

> <Color>
0.184

> <Negative vol penalty>
0.000

$$$$

  -OEChem-04052319433D

 82 89  0     1  0  0  0  0  0999 V2000
  -19.2548  -27.5662   23.0879 C   0  0  0  0  0  0  0  0  0  0  0  0
  -20.1831  -26.7181   23.6834 C   0  0  0  0  0  0  0  0  0  0  0  0
  -23.1271   -9.7515   19.9681 C   0  0  0  0  0  0  0  0  0  0  0  0
  -23.8618   -9.8412   22.2679 C   0  0  0  0  0  0  0  0  0  0  0  0
  -19.3352  -27.8373   21.7227 C   0  0  0  0  0  0  0  0  0  0  0  0
  -21.1917  -26.1397   22.9136 C   0  0  0  0  0  0  0  0  0  0  0  0
  -26.9243  -24.9079   24.6815 C   0  0  0  0  0  0  0  0  0  0  0  0
  -22.4275   -8.5753   20.2374 C   0  0  0  0  0  0  0  0  0  0  0  0
  -23.1621   -8.6650   22.5373 C   0  0  0  0  0  0  0  0  0  0  0  0
  -27.5388  -23.7366   25.1222 C   0  0  0  0  0  0  0  0  0  0  0  0
  -19.9623   -7.7517   23.1269 C   0  0  0  0  0  0  0  0  0  0  0  0
  -19.1952   -7.7079   24.2910 C   0  0  0  0  0  0  0  0  0  0  0  0
  -28.3328  -23.3178   22.8832 C   0  0  0  0  0  0  0  0  0  0  0  0
  -20.5054   -5.8392   25.0840 C   0  0  0  0  0  0  0  0  0  0  0  0
  -23.8444  -10.3845   20.9833 C   0  0  0  0  0  0  0  0  0  0  0  0
  -24.0860  -12.9180   20.8083 C   0  0  0  0  0  0  0  0  0  0  0  0
  -20.3511  -27.2695   20.9376 C   0  0  0  0  0  0  0  0  0  0  0  0
  -27.0004  -25.2879   23.3338 C   0  0  0  0  0  0  0  0  0  0  0  0
  -21.2849  -26.4024   21.5363 C   0  0  0  0  0  0  0  0  0  0  0  0
  -27.7206  -24.4957   22.4284 C   0  0  0  0  0  0  0  0  0  0  0  0
  -22.4449   -8.0321   21.5220 C   0  0  0  0  0  0  0  0  0  0  0  0
  -28.2407  -22.9398   24.2225 C   0  0  0  0  0  0  0  0  0  0  0  0
  -21.0009   -6.8392   22.9413 C   0  0  0  0  0  0  0  0  0  0  0  0
  -19.4668   -6.7517   25.2696 C   0  0  0  0  0  0  0  0  0  0  0  0
  -21.2725   -5.8830   23.9198 C   0  0  0  0  0  0  0  0  0  0  0  0
  -24.5678  -11.5992   20.7056 C   0  0  0  0  0  0  0  0  0  0  0  0
  -25.1511  -13.7024   20.4383 C   0  0  0  0  0  0  0  0  0  0  0  0
  -22.7916  -13.3916   21.2029 C   0  0  0  0  0  0  0  0  0  0  0  0
  -24.8818  -25.7414   21.0080 C   0  0  0  0  0  0  0  0  0  0  0  0
  -27.4822  -26.7841   19.3731 C   0  0  0  0  0  0  0  0  0  0  0  0
  -28.8190  -19.4807   24.2849 C   0  0  0  0  0  0  0  0  0  0  0  0
  -30.8729  -26.7381   18.9885 C   0  0  0  0  0  0  0  0  0  0  0  0
  -30.5873  -14.9456   20.6560 C   0  0  0  0  0  0  0  0  0  0  0  0
  -20.3692  -27.5546   19.4567 C   0  0  0  0  0  0  0  0  0  0  0  0
  -26.3547  -26.5682   22.8796 C   0  0  0  0  0  0  0  0  0  0  0  0
  -27.8492  -24.8699   20.9752 C   0  0  0  0  0  0  0  0  0  0  0  0
  -21.6923  -27.1982   18.7839 C   0  0  0  0  0  0  0  0  0  0  0  0
  -29.5715  -12.4636   18.3142 C   0  0  0  0  0  0  0  0  0  0  0  0
  -22.1609  -25.8157   19.2266 C   0  0  0  0  0  0  0  0  0  0  0  0
  -28.1424  -12.1221   18.7399 C   0  0  0  0  0  0  0  0  0  0  0  0
  -30.4662  -12.7484   19.5184 C   0  0  0  0  0  0  0  0  0  0  0  0
  -28.5222  -13.4335   20.8693 C   0  0  0  0  0  0  0  0  0  0  0  0
  -22.4084  -25.7754   20.7395 C   0  0  1  0  0  0  0  0  0  0  0  0
  -26.0626  -26.5917   21.3824 C   0  0  1  0  0  0  0  0  0  0  0  0
  -27.5683  -13.1931   19.6867 C   0  0  2  0  0  0  0  0  0  0  0  0
  -26.7150  -18.2174   23.9437 C   0  0  0  0  0  0  0  0  0  0  0  0
  -32.7039  -27.6600   17.5412 C   0  0  0  0  0  0  0  0  0  0  0  0
  -26.7402  -24.8015   17.1757 C   0  0  0  0  0  0  0  0  0  0  0  0
  -29.0490  -25.0740   16.2466 C   0  0  0  0  0  0  0  0  0  0  0  0
  -27.5091  -27.0337   16.3507 C   0  0  0  0  0  0  0  0  0  0  0  0
  -29.6055  -18.3659   19.8546 C   0  0  0  0  0  0  0  0  0  0  0  0
  -30.5891  -19.6231   21.7530 C   0  0  0  0  0  0  0  0  0  0  0  0
  -30.5435  -20.0488   26.0061 C   0  0  0  0  0  0  0  0  0  0  0  0
  -32.1384  -28.1280   21.2745 C   0  0  0  0  0  0  0  0  0  0  0  0
  -28.3291  -18.4397   22.0111 C   0  0  0  0  0  0  0  0  0  0  0  0
  -30.5539  -17.1246   21.8435 C   0  0  0  0  0  0  0  0  0  0  0  0
  -28.5189  -26.1360   18.4876 C   0  0  1  0  0  0  0  0  0  0  0  0
  -28.1936  -18.3309   23.5472 C   0  0  1  0  0  0  0  0  0  0  0  0
  -31.8811  -27.8580   18.8047 C   0  0  2  0  0  0  0  0  0  0  0  0
  -27.9504  -25.7530   17.0921 C   0  0  0  0  0  0  0  0  0  0  0  0
  -29.7604  -18.3739   21.3943 C   0  0  0  0  0  0  0  0  0  0  0  0
  -25.8399  -11.5449   20.3019 N   0  0  0  0  0  0  0  0  0  0  0  0
  -26.1664  -12.8394   20.1475 N   0  0  0  0  0  0  0  0  0  0  0  0
  -27.1950  -26.1277   20.5783 N   0  0  0  0  0  0  0  0  0  0  0  0
  -29.8656  -13.7737   20.3750 N   0  0  0  0  0  0  0  0  0  0  0  0
  -25.3087  -15.0393   20.3366 N   0  0  0  0  0  0  0  0  0  0  0  0
  -21.8134  -12.4502   21.5513 N   0  0  0  0  0  0  0  0  0  0  0  0
  -23.6709  -26.4050   21.0620 N   0  0  0  0  0  0  0  0  0  0  0  0
  -28.3369  -20.6884   23.9842 N   0  0  0  0  0  0  0  0  0  1  0  0
  -29.6488  -27.0577   18.4401 N   0  0  0  0  0  0  0  0  0  0  0  0
  -29.9425  -15.8684   21.4706 N   0  0  0  0  0  0  0  0  0  0  0  0
  -29.7752  -19.1358   25.1579 N   0  3  0  0  0  0  0  0  0  0  0  0
  -32.8114  -27.9134   19.9676 N   0  3  0  0  0  0  0  0  0  0  0  0
  -22.5056  -14.6126   21.2294 O   0  0  0  0  0  0  0  0  0  0  0  0
  -25.0564  -24.5704   20.6921 O   0  0  0  0  0  0  0  0  0  0  0  0
  -26.9520  -27.8378   19.0122 O   0  0  0  0  0  0  0  0  0  0  0  0
  -31.1451  -25.6836   19.5582 O   0  0  0  0  0  0  0  0  0  0  0  0
  -31.7201  -15.1563   20.2095 O   0  0  0  0  0  0  0  0  0  0  0  0
  -21.7621   -6.8845   21.7853 O   0  0  0  0  0  0  0  0  0  0  0  0
  -28.8461  -21.7856   24.6537 O   0  0  0  0  0  0  0  0  0  1  0  0
  -18.7310   -6.7108   26.3882 F   0  0  0  0  0  0  0  0  0  0  0  0
  -22.2697   -5.0046   23.7477 F   0  0  0  0  0  0  0  0  0  0  0  0
  1  2  1  0  0  0  0
  1  5  2  0  0  0  0
  2  6  2  0  0  0  0
  3  8  2  0  0  0  0
  3 15  1  0  0  0  0
  4  9  1  0  0  0  0
  4 15  2  0  0  0  0
  5 17  1  0  0  0  0
  6 19  1  0  0  0  0
  7 10  2  0  0  0  0
  7 18  1  0  0  0  0
  8 21  1  0  0  0  0
  9 21  2  0  0  0  0
 10 22  1  0  0  0  0
 11 12  2  0  0  0  0
 11 23  1  0  0  0  0
 12 24  1  0  0  0  0
 13 20  1  0  0  0  0
 13 22  2  0  0  0  0
 14 24  2  0  0  0  0
 14 25  1  0  0  0  0
 15 26  1  0  0  0  0
 16 26  1  0  0  0  0
 16 27  2  0  0  0  0
 16 28  1  0  0  0  0
 17 19  2  0  0  0  0
 17 34  1  0  0  0  0
 18 20  2  0  0  0  0
 18 35  1  0  0  0  0
 19 43  1  0  0  0  0
 20 36  1  0  0  0  0
 21 79  1  0  0  0  0
 22 80  1  0  0  0  0
 23 25  2  0  0  0  0
 23 79  1  0  0  0  0
 24 81  1  0  0  0  0
 25 82  1  0  0  0  0
 26 62  2  0  0  0  0
 27 63  1  0  0  0  0
 27 66  1  0  0  0  0
 28 67  1  0  0  0  0
 28 74  2  0  0  0  0
 29 44  1  0  0  0  0
 29 68  1  0  0  0  0
 29 75  2  0  0  0  0
 30 57  1  0  0  0  0
 30 64  1  0  0  0  0
 30 76  2  0  0  0  0
 31 58  1  0  0  0  0
 31 69  1  0  0  0  0
 31 72  2  0  0  0  0
 32 59  1  0  0  0  0
 32 70  1  0  0  0  0
 32 77  2  0  0  0  0
 33 65  1  0  0  0  0
 33 71  1  0  0  0  0
 33 78  2  0  0  0  0
 34 37  1  0  0  0  0
 35 44  1  0  0  0  0
 36 64  1  0  0  0  0
 37 39  1  0  0  0  0
 38 40  1  0  0  0  0
 38 41  1  0  0  0  0
 39 43  1  0  0  0  0
 40 45  1  0  0  0  0
 41 65  1  0  0  0  0
 42 45  1  0  0  0  0
 42 65  1  0  0  0  0
 43 68  1  0  0  0  0
 44 64  1  0  0  0  0
 45 63  1  0  0  0  0
 46 58  1  0  0  0  0
 47 59  1  0  0  0  0
 48 60  1  0  0  0  0
 49 60  1  0  0  0  0
 50 60  1  0  0  0  0
 51 61  1  0  0  0  0
 52 61  1  0  0  0  0
 53 72  1  0  0  0  0
 54 73  1  0  0  0  0
 55 58  1  0  0  0  0
 55 61  1  0  0  0  0
 56 61  1  0  0  0  0
 56 71  1  0  0  0  0
 57 60  1  0  0  0  0
 57 70  1  0  0  0  0
 59 73  1  0  0  0  0
 62 63  1  0  0  0  0
 69 80  1  0  0  0  0
M  CHG  2  72   1  73   1
M  ISO  4  33 100  69 101  71 100  80 101
M  END
> <Batch ID>
0104

> <Smiles>
CNC(C(C)CC(C)(C)C[100NH:0][100C:0](=O)N1CCCC(n2nc(-c3ccc(Oc4ccc(F)cc4F)cc3)c(C(N)=O)c2N)C1)=[101N:1][101O:1]c1ccc2c(c1)CN(C(=O)C(NC(=O)C(C)NC)C(C)(C)C)C(C(=O)NC1CCCc3ccccc31)C2

> <Shape>
0.275

> <Color>
0.208

> <Negative vol penalty>
0.000

$$$$

  -OEChem-04052319433D

 85 93  0     1  0  0  0  0  0999 V2000
  -22.6188   -8.3540   29.2162 C   0  0  0  0  0  0  0  0  0  0  0  0
  -22.7926   -9.2195   28.1411 C   0  0  0  0  0  0  0  0  0  0  0  0
  -23.2480  -10.1739   22.1417 C   0  0  0  0  0  0  0  0  0  0  0  0
  -23.5053   -9.5988   19.8093 C   0  0  0  0  0  0  0  0  0  0  0  0
  -22.5508   -8.8604   30.5135 C   0  0  0  0  0  0  0  0  0  0  0  0
  -22.8974  -10.5923   28.3624 C   0  0  0  0  0  0  0  0  0  0  0  0
  -26.3311  -14.5757   25.2244 C   0  0  0  0  0  0  0  0  0  0  0  0
  -22.4804   -9.0263   22.3401 C   0  0  0  0  0  0  0  0  0  0  0  0
  -22.7377   -8.4512   20.0076 C   0  0  0  0  0  0  0  0  0  0  0  0
  -26.0310  -15.4630   24.1918 C   0  0  0  0  0  0  0  0  0  0  0  0
  -23.0141   -5.7130   22.7518 C   0  0  0  0  0  0  0  0  0  0  0  0
  -23.2890   -4.9356   23.8769 C   0  0  0  0  0  0  0  0  0  0  0  0
  -25.7661  -17.2389   25.8027 C   0  0  0  0  0  0  0  0  0  0  0  0
  -27.1436  -18.4237   20.3127 C   0  0  0  0  0  0  0  0  0  0  0  0
  -21.0318   -5.2802   24.6665 C   0  0  0  0  0  0  0  0  0  0  0  0
  -23.7605  -10.4602   20.8763 C   0  0  0  0  0  0  0  0  0  0  0  0
  -24.1559  -12.9804   20.8784 C   0  0  0  0  0  0  0  0  0  0  0  0
  -22.6645  -10.2392   30.7517 C   0  0  0  0  0  0  0  0  0  0  0  0
  -26.3403  -15.0116   26.5572 C   0  0  0  0  0  0  0  0  0  0  0  0
  -22.8295  -11.1178   29.6639 C   0  0  0  0  0  0  0  0  0  0  0  0
  -26.0691  -16.3558   26.8503 C   0  0  0  0  0  0  0  0  0  0  0  0
  -27.2132  -19.0523   21.5804 C   0  0  0  0  0  0  0  0  0  0  0  0
  -22.2253   -8.1649   21.2730 C   0  0  0  0  0  0  0  0  0  0  0  0
  -25.7456  -16.7942   24.4811 C   0  0  0  0  0  0  0  0  0  0  0  0
  -21.7481   -6.2740   22.5841 C   0  0  0  0  0  0  0  0  0  0  0  0
  -22.2979   -4.7192   24.8342 C   0  0  0  0  0  0  0  0  0  0  0  0
  -20.7569   -6.0576   23.5415 C   0  0  0  0  0  0  0  0  0  0  0  0
  -24.5530  -11.6459   20.6707 C   0  0  0  0  0  0  0  0  0  0  0  0
  -28.3985  -17.9322   20.0278 C   0  0  0  0  0  0  0  0  0  0  0  0
  -28.5086  -18.9260   22.0316 C   0  0  0  0  0  0  0  0  0  0  0  0
  -25.2610  -13.7237   20.5425 C   0  0  0  0  0  0  0  0  0  0  0  0
  -22.9005  -13.5016   21.3344 C   0  0  0  0  0  0  0  0  0  0  0  0
  -24.6881  -14.2729   29.1703 C   0  0  0  0  0  0  0  0  0  0  0  0
  -26.8073  -16.2683   30.6020 C   0  0  0  0  0  0  0  0  0  0  0  0
  -28.9881  -18.8763   30.3034 C   0  0  0  0  0  0  0  0  0  0  0  0
  -30.7670  -14.6153   20.7294 C   0  0  0  0  0  0  0  0  0  0  0  0
  -22.5376  -10.7442   32.1672 C   0  0  0  0  0  0  0  0  0  0  0  0
  -26.6922  -14.0482   27.6574 C   0  0  0  0  0  0  0  0  0  0  0  0
  -26.0858  -16.8785   28.2627 C   0  0  0  0  0  0  0  0  0  0  0  0
  -23.0329  -12.1765   32.3495 C   0  0  0  0  0  0  0  0  0  0  0  0
  -29.5580  -12.3773   18.2382 C   0  0  0  0  0  0  0  0  0  0  0  0
  -22.4869  -13.0750   31.2443 C   0  0  0  0  0  0  0  0  0  0  0  0
  -28.1182  -12.0930   18.6695 C   0  0  0  0  0  0  0  0  0  0  0  0
  -30.4897  -12.5185   19.4398 C   0  0  0  0  0  0  0  0  0  0  0  0
  -28.6159  -13.2199   20.8788 C   0  0  0  0  0  0  0  0  0  0  0  0
  -22.9721  -12.6108   29.8658 C   0  0  1  0  0  0  0  0  0  0  0  0
  -26.1686  -14.4830   29.0227 C   0  0  1  0  0  0  0  0  0  0  0  0
  -27.6284  -13.1249   19.7032 C   0  0  2  0  0  0  0  0  0  0  0  0
  -28.8788  -17.1931   18.8422 C   0  0  0  0  0  0  0  0  0  0  0  0
  -29.1299  -19.3968   23.2879 C   0  0  0  0  0  0  0  0  0  0  0  0
  -26.7033  -22.1088   21.4100 C   0  0  0  0  0  0  0  0  0  0  0  0
  -30.5437  -20.3080   31.6554 C   0  0  0  0  0  0  0  0  0  0  0  0
  -24.7120  -19.7131   21.5282 C   0  0  0  0  0  0  0  0  0  0  0  0
  -24.4179  -17.7904   31.7350 C   0  0  0  0  0  0  0  0  0  0  0  0
  -25.9626  -19.6918   32.2514 C   0  0  0  0  0  0  0  0  0  0  0  0
  -26.3096  -17.4743   33.3399 C   0  0  0  0  0  0  0  0  0  0  0  0
  -31.3393  -18.0133   28.7266 C   0  0  0  0  0  0  0  0  0  0  0  0
  -26.4022  -21.2368   22.6258 C   0  0  0  0  0  0  0  0  0  0  0  0
  -30.6245  -17.9035   21.1703 C   0  0  0  0  0  0  0  0  0  0  0  0
  -30.8898  -16.6998   22.0707 C   0  0  0  0  0  0  0  0  0  0  0  0
  -25.8044  -19.0305   23.6741 C   0  0  0  0  0  0  0  0  0  1  0  0
  -26.8561  -17.7500   30.8869 C   0  0  1  0  0  0  0  0  0  0  0  0
  -30.4121  -19.0600   30.7963 C   0  0  2  0  0  0  0  0  0  0  0  0
  -26.0479  -19.7472   22.3136 C   0  0  2  0  0  0  0  0  0  0  0  0
  -25.8842  -18.1666   32.0268 C   0  0  0  0  0  0  0  0  0  0  0  0
  -25.8119  -11.5441   20.2363 N   0  0  0  0  0  0  0  0  0  0  0  0
  -29.2201  -18.2437   21.0796 N   0  0  0  0  0  0  0  0  0  0  0  0
  -26.2155  -12.8242   20.1682 N   0  0  0  0  0  0  0  0  0  0  0  0
  -26.4294  -15.8962   29.3041 N   0  0  0  0  0  0  0  0  0  0  0  0
  -29.9690  -13.5131   20.3808 N   0  0  0  0  0  0  0  0  0  0  0  0
  -25.4996  -15.0523   20.5336 N   0  0  0  0  0  0  0  0  0  0  0  0
  -22.7122  -13.6812   22.7115 N   0  0  0  0  0  0  0  0  0  0  0  0
  -24.3421  -13.0229   29.6470 N   0  0  0  0  0  0  0  0  0  0  0  0
  -28.2554  -18.0695   31.1482 N   0  0  0  0  0  0  0  0  0  0  0  0
  -30.1952  -15.5136   21.6220 N   0  0  0  0  0  0  0  0  0  0  0  0
  -31.3477  -19.1827   29.6428 N   0  3  0  0  0  0  0  0  0  0  0  0
  -21.9672  -13.7838   20.5451 O   0  0  0  0  0  0  0  0  0  0  0  0
  -23.9169  -15.1783   28.8751 O   0  0  0  0  0  0  0  0  0  0  0  0
  -27.1008  -15.4706   31.4960 O   0  0  0  0  0  0  0  0  0  0  0  0
  -28.5668  -19.3993   29.2742 O   0  0  0  0  0  0  0  0  0  0  0  0
  -31.9026  -14.7890   20.2743 O   0  0  0  0  0  0  0  0  0  0  0  0
  -21.4765   -7.0449   21.4663 O   0  0  0  0  0  0  0  0  0  0  0  0
  -25.4516  -17.6622   23.4751 O   0  0  0  0  0  0  0  0  0  1  0  0
  -22.5616   -3.9714   25.9138 F   0  0  0  0  0  0  0  0  0  0  0  0
  -19.5384   -6.5930   23.3853 F   0  0  0  0  0  0  0  0  0  0  0  0
  1  2  1  0  0  0  0
  1  5  2  0  0  0  0
  2  6  2  0  0  0  0
  3  8  2  0  0  0  0
  3 16  1  0  0  0  0
  4  9  1  0  0  0  0
  4 16  2  0  0  0  0
  5 18  1  0  0  0  0
  6 20  1  0  0  0  0
  7 10  2  0  0  0  0
  7 19  1  0  0  0  0
  8 23  1  0  0  0  0
  9 23  2  0  0  0  0
 10 24  1  0  0  0  0
 11 12  2  0  0  0  0
 11 25  1  0  0  0  0
 12 26  1  0  0  0  0
 13 21  1  0  0  0  0
 13 24  2  0  0  0  0
 14 22  1  0  0  0  0
 14 29  2  0  0  0  0
 15 26  2  0  0  0  0
 15 27  1  0  0  0  0
 16 28  1  0  0  0  0
 17 28  1  0  0  0  0
 17 31  2  0  0  0  0
 17 32  1  0  0  0  0
 18 20  2  0  0  0  0
 18 37  1  0  0  0  0
 19 21  2  0  0  0  0
 19 38  1  0  0  0  0
 20 46  1  0  0  0  0
 21 39  1  0  0  0  0
 22 30  2  0  0  0  0
 22 64  1  0  0  0  0
 23 82  1  0  0  0  0
 24 83  1  0  0  0  0
 25 27  2  0  0  0  0
 25 82  1  0  0  0  0
 26 84  1  0  0  0  0
 27 85  1  0  0  0  0
 28 66  2  0  0  0  0
 29 49  1  0  0  0  0
 29 67  1  0  0  0  0
 30 50  1  0  0  0  0
 30 67  1  0  0  0  0
 31 68  1  0  0  0  0
 31 71  1  0  0  0  0
 32 72  1  0  0  0  0
 32 77  2  0  0  0  0
 33 47  1  0  0  0  0
 33 73  1  0  0  0  0
 33 78  2  0  0  0  0
 34 62  1  0  0  0  0
 34 69  1  0  0  0  0
 34 79  2  0  0  0  0
 35 63  1  0  0  0  0
 35 74  1  0  0  0  0
 35 80  2  0  0  0  0
 36 70  1  0  0  0  0
 36 75  1  0  0  0  0
 36 81  2  0  0  0  0
 37 40  1  0  0  0  0
 38 47  1  0  0  0  0
 39 69  1  0  0  0  0
 40 42  1  0  0  0  0
 41 43  1  0  0  0  0
 41 44  1  0  0  0  0
 42 46  1  0  0  0  0
 43 48  1  0  0  0  0
 44 70  1  0  0  0  0
 45 48  1  0  0  0  0
 45 70  1  0  0  0  0
 46 73  1  0  0  0  0
 47 69  1  0  0  0  0
 48 68  1  0  0  0  0
 51 58  1  0  0  0  0
 52 63  1  0  0  0  0
 53 64  1  0  0  0  0
 54 65  1  0  0  0  0
 55 65  1  0  0  0  0
 56 65  1  0  0  0  0
 57 76  1  0  0  0  0
 58 64  1  0  0  0  0
 59 60  1  0  0  0  0
 59 67  1  0  0  0  0
 60 75  1  0  0  0  0
 61 64  1  0  0  0  0
 61 83  1  0  0  0  0
 62 65  1  0  0  0  0
 62 74  1  0  0  0  0
 63 76  1  0  0  0  0
 66 68  1  0  0  0  0
M  CHG  1  76   1
M  ISO  4  36 100  61 101  75 100  83 101
M  END
> <Batch ID>
0104

> <Smiles>
CCC(C)(c1cc(C)n(CC[100NH:0][100C:0](=O)N2CCCC(n3nc(-c4ccc(Oc5ccc(F)cc5F)cc4)c(C(N)=O)c3N)C2)c1C)[101CH2:1][101O:1]c1ccc2c(c1)CN(C(=O)C(NC(=O)C(C)NC)C(C)(C)C)C(C(=O)NC1CCCc3ccccc31)C2

> <Shape>
0.193

> <Color>
0.191

> <Negative vol penalty>
0.000

$$$$

  -OEChem-04052319433D

 82 89  0     1  0  0  0  0  0999 V2000
  -35.0782  -20.1762   32.1805 C   0  0  0  0  0  0  0  0  0  0  0  0
  -34.9881  -20.2466   30.7940 C   0  0  0  0  0  0  0  0  0  0  0  0
  -23.2831   -9.7960   19.9116 C   0  0  0  0  0  0  0  0  0  0  0  0
  -23.7189   -9.9405   22.2836 C   0  0  0  0  0  0  0  0  0  0  0  0
  -34.7090  -19.0064   32.8433 C   0  0  0  0  0  0  0  0  0  0  0  0
  -34.5298  -19.1469   30.0694 C   0  0  0  0  0  0  0  0  0  0  0  0
  -31.1833  -19.2520   24.9415 C   0  0  0  0  0  0  0  0  0  0  0  0
  -22.5511   -8.6267   20.1173 C   0  0  0  0  0  0  0  0  0  0  0  0
  -22.9868   -8.7712   22.4893 C   0  0  0  0  0  0  0  0  0  0  0  0
  -31.5248  -19.1253   23.5958 C   0  0  0  0  0  0  0  0  0  0  0  0
  -20.8690   -5.4057   19.9757 C   0  0  0  0  0  0  0  0  0  0  0  0
  -21.0956   -4.3361   19.1096 C   0  0  0  0  0  0  0  0  0  0  0  0
  -30.9821  -16.7765   23.6855 C   0  0  0  0  0  0  0  0  0  0  0  0
  -23.4140   -4.2787   19.7869 C   0  0  0  0  0  0  0  0  0  0  0  0
  -23.8672  -10.4529   20.9947 C   0  0  0  0  0  0  0  0  0  0  0  0
  -24.1373  -12.9814   20.7919 C   0  0  0  0  0  0  0  0  0  0  0  0
  -34.2369  -17.8951   32.1273 C   0  0  0  0  0  0  0  0  0  0  0  0
  -30.7482  -18.1378   25.6735 C   0  0  0  0  0  0  0  0  0  0  0  0
  -34.1553  -17.9607   30.7232 C   0  0  0  0  0  0  0  0  0  0  0  0
  -30.6332  -16.8923   25.0397 C   0  0  0  0  0  0  0  0  0  0  0  0
  -22.4028   -8.1143   21.4062 C   0  0  0  0  0  0  0  0  0  0  0  0
  -31.4271  -17.8868   22.9683 C   0  0  0  0  0  0  0  0  0  0  0  0
  -21.9150   -5.9119   20.7474 C   0  0  0  0  0  0  0  0  0  0  0  0
  -22.3680   -3.7725   19.0152 C   0  0  0  0  0  0  0  0  0  0  0  0
  -23.1875   -5.3484   20.6530 C   0  0  0  0  0  0  0  0  0  0  0  0
  -24.6240  -11.6605   20.7828 C   0  0  0  0  0  0  0  0  0  0  0  0
  -25.2434  -13.7566   20.5423 C   0  0  0  0  0  0  0  0  0  0  0  0
  -22.8046  -13.4645   21.0069 C   0  0  0  0  0  0  0  0  0  0  0  0
  -31.8242  -16.5663   28.2183 C   0  0  0  0  0  0  0  0  0  0  0  0
  -29.0285  -14.9491   27.9168 C   0  0  0  0  0  0  0  0  0  0  0  0
  -26.4666  -13.9429   25.8990 C   0  0  0  0  0  0  0  0  0  0  0  0
  -30.9929  -12.8364   21.5180 C   0  0  0  0  0  0  0  0  0  0  0  0
  -33.8944  -16.6362   32.8839 C   0  0  0  0  0  0  0  0  0  0  0  0
  -30.3580  -18.2967   27.1174 C   0  0  0  0  0  0  0  0  0  0  0  0
  -30.1521  -15.6695   25.7758 C   0  0  0  0  0  0  0  0  0  0  0  0
  -33.0643  -15.6448   32.0725 C   0  0  0  0  0  0  0  0  0  0  0  0
  -29.4833  -13.6284   18.3256 C   0  0  0  0  0  0  0  0  0  0  0  0
  -33.6532  -15.4725   30.6760 C   0  0  0  0  0  0  0  0  0  0  0  0
  -28.0083  -13.3344   18.6053 C   0  0  0  0  0  0  0  0  0  0  0  0
  -30.3905  -12.6247   19.0310 C   0  0  0  0  0  0  0  0  0  0  0  0
  -28.7031  -12.2352   20.7845 C   0  0  0  0  0  0  0  0  0  0  0  0
  -33.6395  -16.7974   29.9042 C   0  0  1  0  0  0  0  0  0  0  0  0
  -30.4177  -16.9885   27.8999 C   0  0  1  0  0  0  0  0  0  0  0  0
  -27.7350  -13.2290   20.1174 C   0  0  2  0  0  0  0  0  0  0  0  0
  -24.3473  -12.5994   25.9281 C   0  0  0  0  0  0  0  0  0  0  0  0
  -32.6063  -17.5391   18.8820 C   0  0  0  0  0  0  0  0  0  0  0  0
  -30.6641  -12.3733   27.9074 C   0  0  0  0  0  0  0  0  0  0  0  0
  -28.6574  -11.1846   26.9972 C   0  0  0  0  0  0  0  0  0  0  0  0
  -28.5531  -12.2637   29.2438 C   0  0  0  0  0  0  0  0  0  0  0  0
  -34.7955  -11.4236   21.4614 C   0  0  0  0  0  0  0  0  0  0  0  0
  -34.9342  -12.3692   23.7752 C   0  0  0  0  0  0  0  0  0  0  0  0
  -24.8306  -16.2913   25.1459 C   0  0  0  0  0  0  0  0  0  0  0  0
  -34.3804  -16.7720   20.5355 C   0  0  0  0  0  0  0  0  0  0  0  0
  -34.2985  -14.4845   21.5350 C   0  0  0  0  0  0  0  0  0  0  0  0
  -32.7643  -18.6408   21.1519 C   0  0  0  0  0  0  0  0  0  1  0  0
  -28.5831  -13.7134   27.1727 C   0  0  1  0  0  0  0  0  0  0  0  0
  -24.9609  -13.9817   26.0878 C   0  0  2  0  0  0  0  0  0  0  0  0
  -33.5417  -17.9493   20.0250 C   0  0  2  0  0  0  0  0  0  0  0  0
  -33.3271  -13.4442   22.1002 C   0  0  2  0  0  0  0  0  0  0  0  0
  -29.1254  -12.4062   27.8166 C   0  0  0  0  0  0  0  0  0  0  0  0
  -34.0134  -12.1325   22.5715 C   0  0  0  0  0  0  0  0  0  0  0  0
  -25.9370  -11.5963   20.5460 N   0  0  0  0  0  0  0  0  0  0  0  0
  -26.2847  -12.8867   20.4039 N   0  0  0  0  0  0  0  0  0  0  0  0
  -29.7885  -15.8746   27.1876 N   0  0  0  0  0  0  0  0  0  0  0  0
  -30.0919  -12.5864   20.4696 N   0  0  0  0  0  0  0  0  0  0  0  0
  -25.4170  -15.0906   20.4299 N   0  0  0  0  0  0  0  0  0  0  0  0
  -21.7870  -12.5320   21.2499 N   0  0  0  0  0  0  0  0  0  0  0  0
  -32.3100  -17.0785   29.4062 N   0  0  0  0  0  0  0  0  0  0  0  0
  -27.1278  -13.7839   27.0985 N   0  0  0  0  0  0  0  0  0  0  0  0
  -32.2899  -13.1554   21.1349 N   0  0  0  0  0  0  0  0  0  0  0  0
  -24.3365  -14.8916   25.0862 N   0  3  0  0  0  0  0  0  0  0  0  0
  -33.5370  -15.6754   21.0674 N   0  3  0  0  0  0  0  0  0  0  0  0
  -22.5216  -14.6859   20.9678 O   0  0  0  0  0  0  0  0  0  0  0  0
  -32.4236  -15.8292   27.4444 O   0  0  0  0  0  0  0  0  0  0  0  0
  -28.7076  -15.0915   29.0993 O   0  0  0  0  0  0  0  0  0  0  0  0
  -27.0025  -14.0399   24.7973 O   0  0  0  0  0  0  0  0  0  0  0  0
  -30.6644  -12.7846   22.7082 O   0  0  0  0  0  0  0  0  0  0  0  0
  -32.9917  -11.2228   23.0069 O   0  0  0  0  0  0  0  0  0  0  0  0
  -21.6883   -6.9734   21.6073 O   0  0  0  0  0  0  0  0  0  0  0  0
  -31.7604  -17.7602   21.6551 O   0  0  0  0  0  0  0  0  0  1  0  0
  -22.5851   -2.7444   18.1846 F   0  0  0  0  0  0  0  0  0  0  0  0
  -24.1960   -5.8296   21.3927 F   0  0  0  0  0  0  0  0  0  0  0  0
  1  2  1  0  0  0  0
  1  5  2  0  0  0  0
  2  6  2  0  0  0  0
  3  8  2  0  0  0  0
  3 15  1  0  0  0  0
  4  9  1  0  0  0  0
  4 15  2  0  0  0  0
  5 17  1  0  0  0  0
  6 19  1  0  0  0  0
  7 10  2  0  0  0  0
  7 18  1  0  0  0  0
  8 21  1  0  0  0  0
  9 21  2  0  0  0  0
 10 22  1  0  0  0  0
 11 12  2  0  0  0  0
 11 23  1  0  0  0  0
 12 24  1  0  0  0  0
 13 20  1  0  0  0  0
 13 22  2  0  0  0  0
 14 24  2  0  0  0  0
 14 25  1  0  0  0  0
 15 26  1  0  0  0  0
 16 26  1  0  0  0  0
 16 27  2  0  0  0  0
 16 28  1  0  0  0  0
 17 19  2  0  0  0  0
 17 33  1  0  0  0  0
 18 20  2  0  0  0  0
 18 34  1  0  0  0  0
 19 42  1  0  0  0  0
 20 35  1  0  0  0  0
 21 79  1  0  0  0  0
 22 80  1  0  0  0  0
 23 25  2  0  0  0  0
 23 79  1  0  0  0  0
 24 81  1  0  0  0  0
 25 82  1  0  0  0  0
 26 62  2  0  0  0  0
 27 63  1  0  0  0  0
 27 66  1  0  0  0  0
 28 67  1  0  0  0  0
 28 73  2  0  0  0  0
 29 43  1  0  0  0  0
 29 68  1  0  0  0  0
 29 74  2  0  0  0  0
 30 56  1  0  0  0  0
 30 64  1  0  0  0  0
 30 75  2  0  0  0  0
 31 57  1  0  0  0  0
 31 69  1  0  0  0  0
 31 76  2  0  0  0  0
 32 65  1  0  0  0  0
 32 70  1  0  0  0  0
 32 77  2  0  0  0  0
 33 36  1  0  0  0  0
 34 43  1  0  0  0  0
 35 64  1  0  0  0  0
 36 38  1  0  0  0  0
 37 39  1  0  0  0  0
 37 40  1  0  0  0  0
 38 42  1  0  0  0  0
 39 44  1  0  0  0  0
 40 65  1  0  0  0  0
 41 44  1  0  0  0  0
 41 65  1  0  0  0  0
 42 68  1  0  0  0  0
 43 64  1  0  0  0  0
 44 63  1  0  0  0  0
 45 57  1  0  0  0  0
 46 58  1  0  0  0  0
 47 60  1  0  0  0  0
 48 60  1  0  0  0  0
 49 60  1  0  0  0  0
 50 61  1  0  0  0  0
 51 61  1  0  0  0  0
 52 71  1  0  0  0  0
 53 58  1  0  0  0  0
 53 72  1  0  0  0  0
 54 59  1  0  0  0  0
 54 72  1  0  0  0  0
 55 58  1  0  0  0  0
 55 80  1  0  0  0  0
 56 60  1  0  0  0  0
 56 69  1  0  0  0  0
 57 71  1  0  0  0  0
 59 61  1  0  0  0  0
 59 70  1  0  0  0  0
 61 78  1  0  0  0  0
 62 63  1  0  0  0  0
M  CHG  2  71   1  72   1
M  ISO  4  32 100  55 101  70 100  80 101
M  END
> <Batch ID>
0104

> <Smiles>
CNC(C)C(=O)NC(C(=O)N1Cc2cc([101O:1][101CH2:1]C(C)CNCC([100NH:0][100C:0](=O)N3CCCC(n4nc(-c5ccc(Oc6ccc(F)cc6F)cc5)c(C(N)=O)c4N)C3)C(C)(C)O)ccc2CC1C(=O)NC1CCCc2ccccc21)C(C)(C)C

> <Shape>
0.133

> <Color>
0.163

> <Negative vol penalty>
0.000

$$$$

  -OEChem-04052319433D

 87 95  0     1  0  0  0  0  0999 V2000
  -19.8141   -8.0095   20.7703 C   0  0  0  0  0  0  0  0  0  0  0  0
  -19.5377   -9.2061   21.4240 C   0  0  0  0  0  0  0  0  0  0  0  0
  -28.8125  -23.9412   21.6382 C   0  0  0  0  0  0  0  0  0  0  0  0
  -28.8483  -24.2569   19.2432 C   0  0  0  0  0  0  0  0  0  0  0  0
  -21.1335   -7.6619   20.4834 C   0  0  0  0  0  0  0  0  0  0  0  0
  -20.5808  -10.0551   21.7922 C   0  0  0  0  0  0  0  0  0  0  0  0
  -22.1042  -17.0103   22.5808 C   0  0  0  0  0  0  0  0  0  0  0  0
  -28.8394  -22.5585   21.4564 C   0  0  0  0  0  0  0  0  0  0  0  0
  -28.8753  -22.8742   19.0614 C   0  0  0  0  0  0  0  0  0  0  0  0
  -22.6254  -17.8989   23.5202 C   0  0  0  0  0  0  0  0  0  0  0  0
  -31.1357  -20.1864   20.7262 C   0  0  0  0  0  0  0  0  0  0  0  0
  -32.0098  -19.4450   21.5210 C   0  0  0  0  0  0  0  0  0  0  0  0
  -25.4916  -29.0496   26.2420 C   0  0  0  0  0  0  0  0  0  0  0  0
  -24.8599  -17.2321   22.9023 C   0  0  0  0  0  0  0  0  0  0  0  0
  -30.1405  -18.2095   22.4244 C   0  0  0  0  0  0  0  0  0  0  0  0
  -24.5090  -28.1072   26.0324 C   0  0  0  0  0  0  0  0  0  0  0  0
  -28.8169  -24.7904   20.5316 C   0  0  0  0  0  0  0  0  0  0  0  0
  -29.8935  -27.0812   20.8488 C   0  0  0  0  0  0  0  0  0  0  0  0
  -22.1925   -8.5116   20.8397 C   0  0  0  0  0  0  0  0  0  0  0  0
  -22.9581  -16.2166   21.8015 C   0  0  0  0  0  0  0  0  0  0  0  0
  -21.9157   -9.7179   21.5110 C   0  0  0  0  0  0  0  0  0  0  0  0
  -24.3471  -16.3360   21.9520 C   0  0  0  0  0  0  0  0  0  0  0  0
  -25.4508  -29.9530   25.1513 C   0  0  0  0  0  0  0  0  0  0  0  0
  -28.8708  -22.0250   20.1680 C   0  0  0  0  0  0  0  0  0  0  0  0
  -24.0034  -18.0079   23.6831 C   0  0  0  0  0  0  0  0  0  0  0  0
  -29.7639  -19.9394   20.7805 C   0  0  0  0  0  0  0  0  0  0  0  0
  -31.5123  -18.4565   22.3701 C   0  0  0  0  0  0  0  0  0  0  0  0
  -29.2663  -18.9509   21.6296 C   0  0  0  0  0  0  0  0  0  0  0  0
  -28.7885  -26.2188   20.7188 C   0  0  0  0  0  0  0  0  0  0  0  0
  -24.4448  -29.5350   24.3083 C   0  0  0  0  0  0  0  0  0  0  0  0
  -29.3393  -28.3283   21.0040 C   0  0  0  0  0  0  0  0  0  0  0  0
  -31.2956  -26.7819   20.8307 C   0  0  0  0  0  0  0  0  0  0  0  0
  -24.0157  -30.1453   23.0433 C   0  0  0  0  0  0  0  0  0  0  0  0
  -23.4231  -13.0910   21.4579 C   0  0  0  0  0  0  0  0  0  0  0  0
  -25.4177  -14.0435   19.0838 C   0  0  0  0  0  0  0  0  0  0  0  0
  -27.3845  -16.5000   17.7633 C   0  0  0  0  0  0  0  0  0  0  0  0
  -23.6056   -8.0709   20.5507 C   0  0  0  0  0  0  0  0  0  0  0  0
  -22.3808  -15.2822   20.7738 C   0  0  0  0  0  0  0  0  0  0  0  0
  -25.3072  -15.5212   21.1257 C   0  0  0  0  0  0  0  0  0  0  0  0
  -24.6269   -9.2020   20.6404 C   0  0  0  0  0  0  0  0  0  0  0  0
  -25.4544  -30.8789   19.8599 C   0  0  0  0  0  0  0  0  0  0  0  0
  -24.4049  -10.0224   21.9071 C   0  0  0  0  0  0  0  0  0  0  0  0
  -26.5646  -29.8358   19.7207 C   0  0  0  0  0  0  0  0  0  0  0  0
  -24.2373  -30.3129   20.5871 C   0  0  0  0  0  0  0  0  0  0  0  0
  -25.6478  -28.6617   21.7656 C   0  0  0  0  0  0  0  0  0  0  0  0
  -23.0181  -10.6770   21.9045 C   0  0  1  0  0  0  0  0  0  0  0  0
  -23.3303  -14.1496   20.3957 C   0  0  1  0  0  0  0  0  0  0  0  0
  -26.9130  -29.2068   21.0828 C   0  0  1  0  0  0  0  0  0  0  0  0
  -27.8237  -30.7405   24.8307 C   0  0  0  0  0  0  0  0  0  0  0  0
  -26.1764  -32.1796   26.0839 C   0  0  0  0  0  0  0  0  0  0  0  0
  -28.9200  -16.9709   15.8351 C   0  0  0  0  0  0  0  0  0  0  0  0
  -27.3889  -21.2168   25.1415 C   0  0  0  0  0  0  0  0  0  0  0  0
  -27.5960  -12.3709   20.4131 C   0  0  0  0  0  0  0  0  0  0  0  0
  -29.2858  -13.6074   19.0405 C   0  0  0  0  0  0  0  0  0  0  0  0
  -27.5427  -12.2208   17.9173 C   0  0  0  0  0  0  0  0  0  0  0  0
  -25.6732  -18.7096   16.7896 C   0  0  0  0  0  0  0  0  0  0  0  0
  -23.8519  -25.3408   24.5747 C   0  0  0  0  0  0  0  0  0  0  0  0
  -23.1734  -26.3090   23.6005 C   0  0  0  0  0  0  0  0  0  0  0  0
  -24.2656  -24.0464   23.8716 C   0  0  0  0  0  0  0  0  0  0  0  0
  -22.7392  -27.6210   24.2635 C   0  0  0  0  0  0  0  0  0  0  0  0
  -24.9069  -23.0742   24.8507 C   0  0  0  0  0  0  0  0  0  0  0  0
  -25.7941  -19.4389   24.3164 C   0  0  0  0  0  0  0  0  0  1  0  0
  -26.3320  -31.1236   24.9655 C   0  0  0  0  0  0  0  0  0  0  0  0
  -26.8800  -14.4083   18.9980 C   0  0  1  0  0  0  0  0  0  0  0  0
  -27.4932  -17.0552   16.3546 C   0  0  2  0  0  0  0  0  0  0  0  0
  -25.9350  -20.8018   24.9849 C   0  0  2  0  0  0  0  0  0  0  0  0
  -27.8083  -13.1659   19.1093 C   0  0  0  0  0  0  0  0  0  0  0  0
  -27.6206  -26.8634   20.7858 N   0  0  0  0  0  0  0  0  0  0  0  0
  -23.8792  -28.4122   24.8539 N   0  0  0  0  0  0  0  0  0  0  0  0
  -27.9887  -28.1442   20.9596 N   0  0  0  0  0  0  0  0  0  0  0  0
  -24.6285  -29.7161   21.8636 N   0  0  0  0  0  0  0  0  0  0  0  0
  -24.6939  -14.6172   20.1387 N   0  0  0  0  0  0  0  0  0  0  0  0
  -29.8805  -29.5535   21.1728 N   0  0  0  0  0  0  0  0  0  0  0  0
  -31.6919  -25.4482   20.6616 N   0  0  0  0  0  0  0  0  0  0  0  0
  -23.0097  -11.8395   21.0426 N   0  0  0  0  0  0  0  0  0  0  0  0
  -27.0402  -15.1649   17.7609 N   0  0  0  0  0  0  0  0  0  0  0  0
  -27.0663  -18.4828   16.3261 N   0  3  0  0  0  0  0  0  0  0  0  0
  -25.2499  -21.8188   24.1355 N   0  3  0  0  0  0  0  0  0  0  0  0
  -32.1707  -27.6685   20.9771 O   0  0  0  0  0  0  0  0  0  0  0  0
  -23.1442  -31.0096   23.1249 O   0  0  0  0  0  0  0  0  0  0  0  0
  -23.8402  -13.3872   22.5714 O   0  0  0  0  0  0  0  0  0  0  0  0
  -24.9336  -13.2833   18.2415 O   0  0  0  0  0  0  0  0  0  0  0  0
  -27.5887  -17.1816   18.7655 O   0  0  0  0  0  0  0  0  0  0  0  0
  -28.8974  -20.6758   19.9903 O   0  0  0  0  0  0  0  0  0  0  0  0
  -24.5147  -18.8740   24.5997 O   0  0  0  0  0  0  0  0  0  1  0  0
  -32.3520  -17.7435   23.1321 F   0  0  0  0  0  0  0  0  0  0  0  0
  -27.9496  -18.7083   21.6853 F   0  0  0  0  0  0  0  0  0  0  0  0
  1  2  1  0  0  0  0
  1  5  2  0  0  0  0
  2  6  2  0  0  0  0
  3  8  2  0  0  0  0
  3 17  1  0  0  0  0
  4  9  1  0  0  0  0
  4 17  2  0  0  0  0
  5 19  1  0  0  0  0
  6 21  1  0  0  0  0
  7 10  2  0  0  0  0
  7 20  1  0  0  0  0
  8 24  1  0  0  0  0
  9 24  2  0  0  0  0
 10 25  1  0  0  0  0
 11 12  2  0  0  0  0
 11 26  1  0  0  0  0
 12 27  1  0  0  0  0
 13 16  2  0  0  0  0
 13 23  1  0  0  0  0
 14 22  1  0  0  0  0
 14 25  2  0  0  0  0
 15 27  2  0  0  0  0
 15 28  1  0  0  0  0
 16 69  1  0  0  0  0
 17 29  1  0  0  0  0
 18 29  1  0  0  0  0
 18 31  2  0  0  0  0
 18 32  1  0  0  0  0
 19 21  2  0  0  0  0
 19 37  1  0  0  0  0
 20 22  2  0  0  0  0
 20 38  1  0  0  0  0
 21 46  1  0  0  0  0
 22 39  1  0  0  0  0
 23 30  2  0  0  0  0
 23 63  1  0  0  0  0
 24 84  1  0  0  0  0
 25 85  1  0  0  0  0
 26 28  2  0  0  0  0
 26 84  1  0  0  0  0
 27 86  1  0  0  0  0
 28 87  1  0  0  0  0
 29 68  2  0  0  0  0
 30 33  1  0  0  0  0
 30 69  1  0  0  0  0
 31 70  1  0  0  0  0
 31 73  1  0  0  0  0
 32 74  1  0  0  0  0
 32 79  2  0  0  0  0
 33 71  1  0  0  0  0
 33 80  2  0  0  0  0
 34 47  1  0  0  0  0
 34 75  1  0  0  0  0
 34 81  2  0  0  0  0
 35 64  1  0  0  0  0
 35 72  1  0  0  0  0
 35 82  2  0  0  0  0
 36 65  1  0  0  0  0
 36 76  1  0  0  0  0
 36 83  2  0  0  0  0
 37 40  1  0  0  0  0
 38 47  1  0  0  0  0
 39 72  1  0  0  0  0
 40 42  1  0  0  0  0
 41 43  1  0  0  0  0
 41 44  1  0  0  0  0
 42 46  1  0  0  0  0
 43 48  1  0  0  0  0
 44 71  1  0  0  0  0
 45 48  1  0  0  0  0
 45 71  1  0  0  0  0
 46 75  1  0  0  0  0
 47 72  1  0  0  0  0
 48 70  1  0  0  0  0
 49 63  1  0  0  0  0
 50 63  1  0  0  0  0
 51 65  1  0  0  0  0
 52 66  1  0  0  0  0
 53 67  1  0  0  0  0
 54 67  1  0  0  0  0
 55 67  1  0  0  0  0
 56 77  1  0  0  0  0
 57 58  1  0  0  0  0
 57 59  1  0  0  0  0
 58 60  1  0  0  0  0
 59 61  1  0  0  0  0
 60 69  1  0  0  0  0
 61 78  1  0  0  0  0
 62 66  1  0  0  0  0
 62 85  1  0  0  0  0
 64 67  1  0  0  0  0
 64 76  1  0  0  0  0
 65 77  1  0  0  0  0
 66 78  1  0  0  0  0
 68 70  1  0  0  0  0
M  CHG  2  77   1  78   1
M  ISO  4  30 100  33 100  62 101  85 101
M  END
> <Batch ID>
0104

> <Smiles>
CNC(C)C(=O)NC(C(=O)N1Cc2cc([101O:1][101CH2:1]C(C)NCCCCCn3ccc(C(C)C)[100c:0]3[100C:0](=O)N3CCCC(n4nc(-c5ccc(Oc6ccc(F)cc6F)cc5)c(C(N)=O)c4N)C3)ccc2CC1C(=O)NC1CCCc2ccccc21)C(C)(C)C

> <Shape>
0.261

> <Color>
0.071

> <Negative vol penalty>
0.000

$$$$

  -OEChem-04052319433D

 78 85  0     1  0  0  0  0  0999 V2000
  -28.2867  -24.6743   16.6321 C   0  0  0  0  0  0  0  0  0  0  0  0
  -27.0865  -24.8503   17.3132 C   0  0  0  0  0  0  0  0  0  0  0  0
  -25.0792  -14.4588   18.3112 C   0  0  0  0  0  0  0  0  0  0  0  0
  -23.4284  -14.5428   20.0732 C   0  0  0  0  0  0  0  0  0  0  0  0
  -29.4710  -25.1797   17.1667 C   0  0  0  0  0  0  0  0  0  0  0  0
  -27.0701  -25.5310   18.5301 C   0  0  0  0  0  0  0  0  0  0  0  0
  -23.2725  -28.8668   18.8392 C   0  0  0  0  0  0  0  0  0  0  0  0
  -25.5961  -13.2813   18.8515 C   0  0  0  0  0  0  0  0  0  0  0  0
  -23.9452  -13.3652   20.6136 C   0  0  0  0  0  0  0  0  0  0  0  0
  -22.0022  -28.3618   19.1128 C   0  0  0  0  0  0  0  0  0  0  0  0
  -23.7617  -10.0492   19.9885 C   0  0  0  0  0  0  0  0  0  0  0  0
  -22.8543   -9.0659   20.3826 C   0  0  0  0  0  0  0  0  0  0  0  0
  -22.2554  -28.9951   21.4267 C   0  0  0  0  0  0  0  0  0  0  0  0
  -23.6901   -9.2016   22.6454 C   0  0  0  0  0  0  0  0  0  0  0  0
  -23.9954  -15.0896   18.9221 C   0  0  0  0  0  0  0  0  0  0  0  0
  -22.4403  -16.4242   17.4028 C   0  0  0  0  0  0  0  0  0  0  0  0
  -29.4677  -25.8753   18.3861 C   0  0  0  0  0  0  0  0  0  0  0  0
  -24.0496  -29.4308   19.8612 C   0  0  0  0  0  0  0  0  0  0  0  0
  -28.2557  -26.0451   19.0823 C   0  0  0  0  0  0  0  0  0  0  0  0
  -23.5343  -29.5089   21.1629 C   0  0  0  0  0  0  0  0  0  0  0  0
  -25.0291  -12.7345   20.0027 C   0  0  0  0  0  0  0  0  0  0  0  0
  -21.4946  -28.4233   20.4073 C   0  0  0  0  0  0  0  0  0  0  0  0
  -24.6333  -10.6087   20.9228 C   0  0  0  0  0  0  0  0  0  0  0  0
  -22.8185   -8.6421   21.7110 C   0  0  0  0  0  0  0  0  0  0  0  0
  -24.5975  -10.1849   22.2512 C   0  0  0  0  0  0  0  0  0  0  0  0
  -23.4613  -16.3062   18.3647 C   0  0  0  0  0  0  0  0  0  0  0  0
  -22.3035  -17.7773   17.2113 C   0  0  0  0  0  0  0  0  0  0  0  0
  -21.6831  -15.4019   16.7415 C   0  0  0  0  0  0  0  0  0  0  0  0
  -26.8573  -28.7437   21.1834 C   0  0  0  0  0  0  0  0  0  0  0  0
  -26.3584  -31.5344   22.7599 C   0  0  0  0  0  0  0  0  0  0  0  0
  -24.1357  -33.8535   23.9126 C   0  0  0  0  0  0  0  0  0  0  0  0
  -22.5306  -22.7539   20.1603 C   0  0  0  0  0  0  0  0  0  0  0  0
  -30.7800  -26.3623   18.9476 C   0  0  0  0  0  0  0  0  0  0  0  0
  -25.4073  -29.9953   19.5443 C   0  0  0  0  0  0  0  0  0  0  0  0
  -24.3203  -30.1229   22.2915 C   0  0  0  0  0  0  0  0  0  0  0  0
  -30.6207  -27.3977   20.0580 C   0  0  0  0  0  0  0  0  0  0  0  0
  -25.1781  -21.7183   18.0167 C   0  0  0  0  0  0  0  0  0  0  0  0
  -29.5654  -26.9454   21.0622 C   0  0  0  0  0  0  0  0  0  0  0  0
  -24.9103  -20.2281   17.7985 C   0  0  0  0  0  0  0  0  0  0  0  0
  -24.8224  -22.1536   19.4366 C   0  0  0  0  0  0  0  0  0  0  0  0
  -23.1842  -20.3241   19.6452 C   0  0  0  0  0  0  0  0  0  0  0  0
  -28.1935  -26.7994   20.3927 C   0  0  1  0  0  0  0  0  0  0  0  0
  -26.3180  -30.0823   20.7651 C   0  0  1  0  0  0  0  0  0  0  0  0
  -23.4750  -19.8499   18.2110 C   0  0  2  0  0  0  0  0  0  0  0  0
  -24.0234  -36.0059   25.1978 C   0  0  0  0  0  0  0  0  0  0  0  0
  -26.8198  -30.0038   25.3589 C   0  0  0  0  0  0  0  0  0  0  0  0
  -25.7802  -31.9198   26.5903 C   0  0  0  0  0  0  0  0  0  0  0  0
  -27.8747  -32.2700   25.2814 C   0  0  0  0  0  0  0  0  0  0  0  0
  -17.5422  -25.1283   18.6696 C   0  0  0  0  0  0  0  0  0  0  0  0
  -17.2603  -23.9926   20.8782 C   0  0  0  0  0  0  0  0  0  0  0  0
  -22.9448  -35.2956   21.6189 C   0  0  0  0  0  0  0  0  0  0  0  0
  -19.4203  -23.7303   19.6537 C   0  0  0  0  0  0  0  0  0  0  0  0
  -18.8306  -25.9829   20.6878 C   0  0  0  0  0  0  0  0  0  0  0  0
  -20.1919  -23.1996   20.8610 C   0  0  0  0  0  0  0  0  0  0  0  0
  -19.8011  -26.8401   19.8764 C   0  0  0  0  0  0  0  0  0  1  0  0
  -25.6903  -31.9255   24.0560 C   0  0  1  0  0  0  0  0  0  0  0  0
  -24.1223  -35.3687   23.8205 C   0  0  2  0  0  0  0  0  0  0  0  0
  -26.5270  -31.5164   25.3010 C   0  0  0  0  0  0  0  0  0  0  0  0
  -18.2664  -24.7285   19.9684 C   0  0  0  0  0  0  0  0  0  0  0  0
  -23.9395  -17.4901   18.7569 N   0  0  0  0  0  0  0  0  0  0  0  0
  -23.2157  -18.3648   18.0378 N   0  0  0  0  0  0  0  0  0  0  0  0
  -25.6452  -30.6553   21.9326 N   0  0  0  0  0  0  0  0  0  0  0  0
  -23.4481  -21.7667   19.7646 N   0  0  0  0  0  0  0  0  0  0  0  0
  -21.4933  -18.5101   16.4183 N   0  0  0  0  0  0  0  0  0  0  0  0
  -21.9515  -14.0627   17.0557 N   0  0  0  0  0  0  0  0  0  0  0  0
  -27.5838  -28.0979   20.2013 N   0  0  0  0  0  0  0  0  0  0  0  0
  -25.4209  -33.3561   23.9609 N   0  0  0  0  0  0  0  0  0  0  0  0
  -21.2480  -22.3029   20.4469 N   0  0  0  0  0  0  0  0  0  0  0  0
  -22.9620  -35.8278   23.0058 N   0  3  0  0  0  0  0  0  0  0  0  0
  -20.8061  -15.6676   15.8848 O   0  0  0  0  0  0  0  0  0  0  0  0
  -26.6322  -28.3281   22.3141 O   0  0  0  0  0  0  0  0  0  0  0  0
  -27.4689  -31.9976   22.4882 O   0  0  0  0  0  0  0  0  0  0  0  0
  -23.1089  -33.1788   23.9427 O   0  0  0  0  0  0  0  0  0  0  0  0
  -22.8307  -23.9495   20.2463 O   0  0  0  0  0  0  0  0  0  0  0  0
  -25.5331  -11.5854   20.5300 O   0  0  0  0  0  0  0  0  0  0  0  0
  -20.2551  -27.9305   20.6772 O   0  0  0  0  0  0  0  0  0  1  0  0
  -21.9460   -7.6989   22.0897 F   0  0  0  0  0  0  0  0  0  0  0  0
  -25.4316  -10.7196   23.1535 F   0  0  0  0  0  0  0  0  0  0  0  0
  1  2  1  0  0  0  0
  1  5  2  0  0  0  0
  2  6  2  0  0  0  0
  3  8  2  0  0  0  0
  3 15  1  0  0  0  0
  4  9  1  0  0  0  0
  4 15  2  0  0  0  0
  5 17  1  0  0  0  0
  6 19  1  0  0  0  0
  7 10  2  0  0  0  0
  7 18  1  0  0  0  0
  8 21  1  0  0  0  0
  9 21  2  0  0  0  0
 10 22  1  0  0  0  0
 11 12  2  0  0  0  0
 11 23  1  0  0  0  0
 12 24  1  0  0  0  0
 13 20  1  0  0  0  0
 13 22  2  0  0  0  0
 14 24  2  0  0  0  0
 14 25  1  0  0  0  0
 15 26  1  0  0  0  0
 16 26  1  0  0  0  0
 16 27  2  0  0  0  0
 16 28  1  0  0  0  0
 17 19  2  0  0  0  0
 17 33  1  0  0  0  0
 18 20  2  0  0  0  0
 18 34  1  0  0  0  0
 19 42  1  0  0  0  0
 20 35  1  0  0  0  0
 21 75  1  0  0  0  0
 22 76  1  0  0  0  0
 23 25  2  0  0  0  0
 23 75  1  0  0  0  0
 24 77  1  0  0  0  0
 25 78  1  0  0  0  0
 26 60  2  0  0  0  0
 27 61  1  0  0  0  0
 27 64  1  0  0  0  0
 28 65  1  0  0  0  0
 28 70  2  0  0  0  0
 29 43  1  0  0  0  0
 29 66  1  0  0  0  0
 29 71  2  0  0  0  0
 30 56  1  0  0  0  0
 30 62  1  0  0  0  0
 30 72  2  0  0  0  0
 31 57  1  0  0  0  0
 31 67  1  0  0  0  0
 31 73  2  0  0  0  0
 32 63  1  0  0  0  0
 32 68  1  0  0  0  0
 32 74  2  0  0  0  0
 33 36  1  0  0  0  0
 34 43  1  0  0  0  0
 35 62  1  0  0  0  0
 36 38  1  0  0  0  0
 37 39  1  0  0  0  0
 37 40  1  0  0  0  0
 38 42  1  0  0  0  0
 39 44  1  0  0  0  0
 40 63  1  0  0  0  0
 41 44  1  0  0  0  0
 41 63  1  0  0  0  0
 42 66  1  0  0  0  0
 43 62  1  0  0  0  0
 44 61  1  0  0  0  0
 45 57  1  0  0  0  0
 46 58  1  0  0  0  0
 47 58  1  0  0  0  0
 48 58  1  0  0  0  0
 49 59  1  0  0  0  0
 50 59  1  0  0  0  0
 51 69  1  0  0  0  0
 52 54  1  0  0  0  0
 52 59  1  0  0  0  0
 53 55  1  0  0  0  0
 53 59  1  0  0  0  0
 54 68  1  0  0  0  0
 55 76  1  0  0  0  0
 56 58  1  0  0  0  0
 56 67  1  0  0  0  0
 57 69  1  0  0  0  0
 60 61  1  0  0  0  0
M  CHG  1  69   1
M  ISO  4  32 100  55 101  68 100  76 101
M  END
> <Batch ID>
0104

> <Smiles>
CNC(C)C(=O)NC(C(=O)N1Cc2cc([101O:1][101CH2:1]CC(C)(C)CC[100NH:0][100C:0](=O)N3CCCC(n4nc(-c5ccc(Oc6ccc(F)cc6F)cc5)c(C(N)=O)c4N)C3)ccc2CC1C(=O)NC1CCCc2ccccc21)C(C)(C)C

> <Shape>
0.248

> <Color>
0.087

> <Negative vol penalty>
0.000

$$$$

  -OEChem-04052319433D

 89 97  0     1  0  0  0  0  0999 V2000
  -22.1307  -11.2180   18.8095 C   0  0  0  0  0  0  0  0  0  0  0  0
  -21.8763  -12.5857   18.8135 C   0  0  0  0  0  0  0  0  0  0  0  0
  -31.5208  -27.0380   18.0672 C   0  0  0  0  0  0  0  0  0  0  0  0
  -31.9089  -26.5344   20.3980 C   0  0  0  0  0  0  0  0  0  0  0  0
  -23.2355  -10.7135   19.4941 C   0  0  0  0  0  0  0  0  0  0  0  0
  -22.7261  -13.4497   19.5033 C   0  0  0  0  0  0  0  0  0  0  0  0
  -24.2528  -19.1623   17.9091 C   0  0  0  0  0  0  0  0  0  0  0  0
  -20.8992  -24.0705   23.7899 C   0  0  0  0  0  0  0  0  0  0  0  0
  -20.5980  -25.0021   24.7833 C   0  0  0  0  0  0  0  0  0  0  0  0
  -32.8695  -27.3578   17.9116 C   0  0  0  0  0  0  0  0  0  0  0  0
  -33.2577  -26.8541   20.2425 C   0  0  0  0  0  0  0  0  0  0  0  0
  -23.7805  -20.4084   18.3189 C   0  0  0  0  0  0  0  0  0  0  0  0
  -36.0367  -25.3861   19.0006 C   0  0  0  0  0  0  0  0  0  0  0  0
  -36.9753  -24.5207   19.5625 C   0  0  0  0  0  0  0  0  0  0  0  0
  -25.5877  -20.5635   19.9093 C   0  0  0  0  0  0  0  0  0  0  0  0
  -23.1266  -24.9878   23.6049 C   0  0  0  0  0  0  0  0  0  0  0  0
  -37.8147  -26.3227   20.9356 C   0  0  0  0  0  0  0  0  0  0  0  0
  -31.0404  -26.6264   19.3104 C   0  0  0  0  0  0  0  0  0  0  0  0
  -29.0468  -25.0349   19.2993 C   0  0  0  0  0  0  0  0  0  0  0  0
  -24.1048  -11.5728   20.1845 C   0  0  0  0  0  0  0  0  0  0  0  0
  -25.3916  -18.6016   18.5049 C   0  0  0  0  0  0  0  0  0  0  0  0
  -23.8429  -12.9561   20.1989 C   0  0  0  0  0  0  0  0  0  0  0  0
  -26.0738  -19.3113   19.5035 C   0  0  0  0  0  0  0  0  0  0  0  0
  -22.1636  -24.0633   23.2007 C   0  0  0  0  0  0  0  0  0  0  0  0
  -21.5610  -25.9266   25.1875 C   0  0  0  0  0  0  0  0  0  0  0  0
  -22.8253  -25.9195   24.5984 C   0  0  0  0  0  0  0  0  0  0  0  0
  -33.7380  -27.2658   18.9993 C   0  0  0  0  0  0  0  0  0  0  0  0
  -24.4463  -21.1080   19.3211 C   0  0  0  0  0  0  0  0  0  0  0  0
  -35.9871  -26.7198   19.4061 C   0  0  0  0  0  0  0  0  0  0  0  0
  -37.8642  -24.9890   20.5300 C   0  0  0  0  0  0  0  0  0  0  0  0
  -36.8761  -27.1881   20.3736 C   0  0  0  0  0  0  0  0  0  0  0  0
  -29.6471  -26.2965   19.4718 C   0  0  0  0  0  0  0  0  0  0  0  0
  -27.7167  -25.2480   19.5677 C   0  0  0  0  0  0  0  0  0  0  0  0
  -29.6384  -23.7823   18.9297 C   0  0  0  0  0  0  0  0  0  0  0  0
  -25.9755  -15.9736   20.1949 C   0  0  0  0  0  0  0  0  0  0  0  0
  -29.0558  -16.9537   19.9246 C   0  0  0  0  0  0  0  0  0  0  0  0
  -31.2456  -19.5246   19.4323 C   0  0  0  0  0  0  0  0  0  0  0  0
  -24.3044  -28.3622   23.0566 C   0  0  0  0  0  0  0  0  0  0  0  0
  -25.2595  -10.9760   20.9494 C   0  0  0  0  0  0  0  0  0  0  0  0
  -25.9037  -17.2684   18.0330 C   0  0  0  0  0  0  0  0  0  0  0  0
  -27.3127  -18.7623   20.1608 C   0  0  0  0  0  0  0  0  0  0  0  0
  -26.3222  -11.9984   21.3439 C   0  0  0  0  0  0  0  0  0  0  0  0
  -24.7672  -29.2152   19.6310 C   0  0  0  0  0  0  0  0  0  0  0  0
  -25.6707  -13.2435   21.9374 C   0  0  0  0  0  0  0  0  0  0  0  0
  -26.0170  -28.4323   19.2247 C   0  0  0  0  0  0  0  0  0  0  0  0
  -24.8638  -29.7271   21.0665 C   0  0  0  0  0  0  0  0  0  0  0  0
  -26.4168  -27.9102   21.6673 C   0  0  0  0  0  0  0  0  0  0  0  0
  -24.7556  -13.9280   20.9149 C   0  0  1  0  0  0  0  0  0  0  0  0
  -26.7751  -16.5628   19.0675 C   0  0  1  0  0  0  0  0  0  0  0  0
  -26.3423  -27.3260   20.2462 C   0  0  2  0  0  0  0  0  0  0  0  0
  -33.4486  -20.6688   19.0651 C   0  0  0  0  0  0  0  0  0  0  0  0
  -25.5376  -25.1171   25.8273 C   0  0  0  0  0  0  0  0  0  0  0  0
  -25.8269  -27.4838   26.5584 C   0  0  0  0  0  0  0  0  0  0  0  0
  -29.2557  -16.7509   22.9625 C   0  0  0  0  0  0  0  0  0  0  0  0
  -31.3405  -18.1324   22.8479 C   0  0  0  0  0  0  0  0  0  0  0  0
  -31.2588  -15.9056   21.7265 C   0  0  0  0  0  0  0  0  0  0  0  0
  -21.0934  -30.8040   28.4052 C   0  0  0  0  0  0  0  0  0  0  0  0
  -31.0568  -19.1996   16.4967 C   0  0  0  0  0  0  0  0  0  0  0  0
  -22.4888  -23.0564   22.1265 C   0  0  0  0  0  0  0  0  0  0  0  0
  -21.2150  -26.9152   26.2522 C   0  0  0  0  0  0  0  0  0  0  0  0
  -22.1708  -23.5419   20.7106 C   0  0  0  0  0  0  0  0  0  0  0  0
  -20.3941  -28.1209   25.7573 C   0  0  0  0  0  0  0  0  0  0  0  0
  -20.0710  -29.1668   26.8200 C   0  0  0  0  0  0  0  0  0  0  0  0
  -22.5818  -22.5524   19.6265 C   0  0  0  0  0  0  0  0  0  1  0  0
  -23.8722  -26.9000   25.0148 C   0  0  1  0  0  0  0  0  0  0  0  0
  -29.9703  -17.8412   20.7340 C   0  0  1  0  0  0  0  0  0  0  0  0
  -32.4497  -19.6610   18.5180 C   0  0  2  0  0  0  0  0  0  0  0  0
  -24.7945  -26.4138   26.1795 C   0  0  0  0  0  0  0  0  0  0  0  0
  -30.4319  -17.1673   22.0569 C   0  0  0  0  0  0  0  0  0  0  0  0
  -28.7704  -27.2411   19.8224 N   0  0  0  0  0  0  0  0  0  0  0  0
  -27.6056  -26.5728   19.8724 N   0  0  0  0  0  0  0  0  0  0  0  0
  -27.7705  -17.4522   19.6692 N   0  0  0  0  0  0  0  0  0  0  0  0
  -25.1727  -28.6286   21.9851 N   0  0  0  0  0  0  0  0  0  0  0  0
  -26.6431  -24.4296   19.5704 N   0  0  0  0  0  0  0  0  0  0  0  0
  -31.0187  -23.7402   18.6900 N   0  0  0  0  0  0  0  0  0  0  0  0
  -25.5393  -14.6834   19.9611 N   0  0  0  0  0  0  0  0  0  0  0  0
  -31.0623  -18.2216   19.8444 N   0  0  0  0  0  0  0  0  0  0  0  0
  -24.6677  -27.3000   23.8755 N   0  0  0  0  0  0  0  0  0  0  0  0
  -21.3132  -29.7716   27.3546 N   0  3  0  0  0  0  0  0  0  0  0  0
  -32.0228  -20.1107   17.1628 N   0  3  0  0  0  0  0  0  0  0  0  0
  -28.9605  -22.7349   18.7994 O   0  0  0  0  0  0  0  0  0  0  0  0
  -25.7708  -16.6396   21.2030 O   0  0  0  0  0  0  0  0  0  0  0  0
  -29.4692  -15.8614   19.5274 O   0  0  0  0  0  0  0  0  0  0  0  0
  -30.5405  -20.4791   19.7520 O   0  0  0  0  0  0  0  0  0  0  0  0
  -23.2785  -29.0188   23.2648 O   0  0  0  0  0  0  0  0  0  0  0  0
  -35.0542  -27.5776   18.8478 O   0  0  0  0  0  0  0  0  0  0  0  0
  -23.9871  -22.3242   19.7235 O   0  0  0  0  0  0  0  0  0  1  0  0
  -38.7645  -24.1575   21.0706 F   0  0  0  0  0  0  0  0  0  0  0  0
  -36.8325  -28.4681   20.7681 F   0  0  0  0  0  0  0  0  0  0  0  0
  1  2  1  0  0  0  0
  1  5  2  0  0  0  0
  2  6  2  0  0  0  0
  3 10  2  0  0  0  0
  3 18  1  0  0  0  0
  4 11  1  0  0  0  0
  4 18  2  0  0  0  0
  5 20  1  0  0  0  0
  6 22  1  0  0  0  0
  7 12  2  0  0  0  0
  7 21  1  0  0  0  0
  8  9  2  0  0  0  0
  8 24  1  0  0  0  0
  9 25  1  0  0  0  0
 10 27  1  0  0  0  0
 11 27  2  0  0  0  0
 12 28  1  0  0  0  0
 13 14  2  0  0  0  0
 13 29  1  0  0  0  0
 14 30  1  0  0  0  0
 15 23  1  0  0  0  0
 15 28  2  0  0  0  0
 16 24  2  0  0  0  0
 16 26  1  0  0  0  0
 17 30  2  0  0  0  0
 17 31  1  0  0  0  0
 18 32  1  0  0  0  0
 19 32  1  0  0  0  0
 19 33  2  0  0  0  0
 19 34  1  0  0  0  0
 20 22  2  0  0  0  0
 20 39  1  0  0  0  0
 21 23  2  0  0  0  0
 21 40  1  0  0  0  0
 22 48  1  0  0  0  0
 23 41  1  0  0  0  0
 24 59  1  0  0  0  0
 25 26  2  0  0  0  0
 25 60  1  0  0  0  0
 26 65  1  0  0  0  0
 27 86  1  0  0  0  0
 28 87  1  0  0  0  0
 29 31  2  0  0  0  0
 29 86  1  0  0  0  0
 30 88  1  0  0  0  0
 31 89  1  0  0  0  0
 32 70  2  0  0  0  0
 33 71  1  0  0  0  0
 33 74  1  0  0  0  0
 34 75  1  0  0  0  0
 34 81  2  0  0  0  0
 35 49  1  0  0  0  0
 35 76  1  0  0  0  0
 35 82  2  0  0  0  0
 36 66  1  0  0  0  0
 36 72  1  0  0  0  0
 36 83  2  0  0  0  0
 37 67  1  0  0  0  0
 37 77  1  0  0  0  0
 37 84  2  0  0  0  0
 38 73  1  0  0  0  0
 38 78  1  0  0  0  0
 38 85  2  0  0  0  0
 39 42  1  0  0  0  0
 40 49  1  0  0  0  0
 41 72  1  0  0  0  0
 42 44  1  0  0  0  0
 43 45  1  0  0  0  0
 43 46  1  0  0  0  0
 44 48  1  0  0  0  0
 45 50  1  0  0  0  0
 46 73  1  0  0  0  0
 47 50  1  0  0  0  0
 47 73  1  0  0  0  0
 48 76  1  0  0  0  0
 49 72  1  0  0  0  0
 50 71  1  0  0  0  0
 51 67  1  0  0  0  0
 52 68  1  0  0  0  0
 53 68  1  0  0  0  0
 54 69  1  0  0  0  0
 55 69  1  0  0  0  0
 56 69  1  0  0  0  0
 57 79  1  0  0  0  0
 58 80  1  0  0  0  0
 59 61  1  0  0  0  0
 60 62  1  0  0  0  0
 61 64  1  0  0  0  0
 62 63  1  0  0  0  0
 63 79  1  0  0  0  0
 64 87  1  0  0  0  0
 65 68  1  0  0  0  0
 65 78  1  0  0  0  0
 66 69  1  0  0  0  0
 66 77  1  0  0  0  0
 67 80  1  0  0  0  0
 70 71  1  0  0  0  0
M  CHG  2  79   1  80   1
M  ISO  4  38 100  64 101  78 100  87 101
M  END
> <Batch ID>
0104

> <Smiles>
CNCCCc1ccc(CC[101CH2:1][101O:1]c2ccc3c(c2)CN(C(=O)C(NC(=O)C(C)NC)C(C)(C)C)C(C(=O)NC2CCCc4ccccc42)C3)cc1C([100NH:0][100C:0](=O)N1CCCC(n2nc(-c3ccc(Oc4ccc(F)cc4F)cc3)c(C(N)=O)c2N)C1)C(C)C

> <Shape>
0.177

> <Color>
0.094

> <Negative vol penalty>
0.000

$$$$

  -OEChem-04052319433D

 77 84  0     1  0  0  0  0  0999 V2000
  -24.7940  -36.4584   21.9656 C   0  0  0  0  0  0  0  0  0  0  0  0
  -25.5937  -35.7789   21.0523 C   0  0  0  0  0  0  0  0  0  0  0  0
  -26.4253  -12.9835   21.7235 C   0  0  0  0  0  0  0  0  0  0  0  0
  -25.6787  -13.4556   19.4747 C   0  0  0  0  0  0  0  0  0  0  0  0
  -24.5563  -35.9104   23.2254 C   0  0  0  0  0  0  0  0  0  0  0  0
  -26.1571  -34.5512   21.3987 C   0  0  0  0  0  0  0  0  0  0  0  0
  -28.0626  -28.2729   18.5233 C   0  0  0  0  0  0  0  0  0  0  0  0
  -25.6277  -11.8395   21.7482 C   0  0  0  0  0  0  0  0  0  0  0  0
  -24.8812  -12.3115   19.4994 C   0  0  0  0  0  0  0  0  0  0  0  0
  -29.1572  -27.4132   18.4425 C   0  0  0  0  0  0  0  0  0  0  0  0
  -23.5111   -8.9892   22.5349 C   0  0  0  0  0  0  0  0  0  0  0  0
  -22.7467   -8.7542   23.6777 C   0  0  0  0  0  0  0  0  0  0  0  0
  -28.6131  -26.5256   20.6185 C   0  0  0  0  0  0  0  0  0  0  0  0
  -21.5966  -10.8519   23.3398 C   0  0  0  0  0  0  0  0  0  0  0  0
  -26.4508  -13.7916   20.5868 C   0  0  0  0  0  0  0  0  0  0  0  0
  -28.6129  -15.0683   20.1361 C   0  0  0  0  0  0  0  0  0  0  0  0
  -25.1092  -34.6708   23.5840 C   0  0  0  0  0  0  0  0  0  0  0  0
  -27.2400  -28.2731   19.6590 C   0  0  0  0  0  0  0  0  0  0  0  0
  -25.9277  -33.9867   22.6650 C   0  0  0  0  0  0  0  0  0  0  0  0
  -27.5071  -27.3844   20.7102 C   0  0  0  0  0  0  0  0  0  0  0  0
  -24.8557  -11.5035   20.6361 C   0  0  0  0  0  0  0  0  0  0  0  0
  -29.4343  -26.5414   19.4914 C   0  0  0  0  0  0  0  0  0  0  0  0
  -23.3183  -10.1556   21.7945 C   0  0  0  0  0  0  0  0  0  0  0  0
  -21.7894   -9.6855   24.0802 C   0  0  0  0  0  0  0  0  0  0  0  0
  -22.3611  -11.0869   22.1970 C   0  0  0  0  0  0  0  0  0  0  0  0
  -27.2741  -14.9739   20.5609 C   0  0  0  0  0  0  0  0  0  0  0  0
  -28.9345  -16.3927   20.3064 C   0  0  0  0  0  0  0  0  0  0  0  0
  -29.4875  -14.0500   19.6324 C   0  0  0  0  0  0  0  0  0  0  0  0
  -26.4781  -30.4190   21.8766 C   0  0  0  0  0  0  0  0  0  0  0  0
  -24.4204  -28.1079   22.8497 C   0  0  0  0  0  0  0  0  0  0  0  0
  -23.6201  -24.7915   22.9385 C   0  0  0  0  0  0  0  0  0  0  0  0
  -27.6802  -21.8082   19.8112 C   0  0  0  0  0  0  0  0  0  0  0  0
  -24.8627  -34.1409   24.9743 C   0  0  0  0  0  0  0  0  0  0  0  0
  -26.0475  -29.1878   19.7192 C   0  0  0  0  0  0  0  0  0  0  0  0
  -26.6429  -27.3312   21.9425 C   0  0  0  0  0  0  0  0  0  0  0  0
  -25.1910  -32.6581   25.1281 C   0  0  0  0  0  0  0  0  0  0  0  0
  -26.4539  -20.1034   22.6864 C   0  0  0  0  0  0  0  0  0  0  0  0
  -26.5444  -32.3429   24.4989 C   0  0  0  0  0  0  0  0  0  0  0  0
  -26.6626  -18.6253   22.3520 C   0  0  0  0  0  0  0  0  0  0  0  0
  -26.0563  -20.9105   21.4525 C   0  0  0  0  0  0  0  0  0  0  0  0
  -27.1772  -19.2944   19.9674 C   0  0  0  0  0  0  0  0  0  0  0  0
  -26.5364  -32.6410   22.9947 C   0  0  1  0  0  0  0  0  0  0  0  0
  -25.5781  -29.4645   21.1441 C   0  0  1  0  0  0  0  0  0  0  0  0
  -27.6340  -18.4498   21.1692 C   0  0  2  0  0  0  0  0  0  0  0  0
  -21.8985  -23.2040   23.8403 C   0  0  0  0  0  0  0  0  0  0  0  0
  -25.6463  -28.3629   25.6321 C   0  0  0  0  0  0  0  0  0  0  0  0
  -24.5960  -26.1675   26.2200 C   0  0  0  0  0  0  0  0  0  0  0  0
  -23.1582  -28.1118   25.6074 C   0  0  0  0  0  0  0  0  0  0  0  0
  -31.9939  -23.4669   16.7578 C   0  0  0  0  0  0  0  0  0  0  0  0
  -32.8606  -23.9982   19.0397 C   0  0  0  0  0  0  0  0  0  0  0  0
  -22.8577  -23.8933   20.2236 C   0  0  0  0  0  0  0  0  0  0  0  0
  -30.6743  -22.8028   18.8311 C   0  0  0  0  0  0  0  0  0  0  0  0
  -29.3422  -22.5534   18.1255 C   0  0  0  0  0  0  0  0  0  0  0  0
  -30.8918  -25.2622   18.1148 C   0  0  0  0  0  0  0  0  0  1  0  0
  -24.4958  -26.9437   23.8078 C   0  0  1  0  0  0  0  0  0  0  0  0
  -22.3194  -24.0613   22.6568 C   0  0  2  0  0  0  0  0  0  0  0  0
  -24.4917  -27.3986   25.2946 C   0  0  0  0  0  0  0  0  0  0  0  0
  -31.5826  -23.8830   18.1813 C   0  0  0  0  0  0  0  0  0  0  0  0
  -26.7792  -16.1449   20.9705 N   0  0  0  0  0  0  0  0  0  0  0  0
  -27.8126  -16.9878   20.8038 N   0  0  0  0  0  0  0  0  0  0  0  0
  -25.4923  -28.2495   21.9570 N   0  0  0  0  0  0  0  0  0  0  0  0
  -27.0189  -20.7011   20.3683 N   0  0  0  0  0  0  0  0  0  0  0  0
  -30.0647  -17.0947   20.0777 N   0  0  0  0  0  0  0  0  0  0  0  0
  -28.9962  -12.7420   19.5218 N   0  0  0  0  0  0  0  0  0  0  0  0
  -25.8554  -31.5868   22.2742 N   0  0  0  0  0  0  0  0  0  0  0  0
  -23.3975  -26.0513   23.4530 N   0  0  0  0  0  0  0  0  0  0  0  0
  -28.5808  -21.5210   18.7928 N   0  0  0  0  0  0  0  0  0  0  0  0
  -22.4687  -23.1778   21.4660 N   0  3  0  0  0  0  0  0  0  0  0  0
  -30.6748  -14.2895   19.3060 O   0  0  0  0  0  0  0  0  0  0  0  0
  -27.6504  -30.1177   22.0683 O   0  0  0  0  0  0  0  0  0  0  0  0
  -23.4431  -28.8595   22.8870 O   0  0  0  0  0  0  0  0  0  0  0  0
  -24.7233  -24.2927   22.7271 O   0  0  0  0  0  0  0  0  0  0  0  0
  -27.4865  -22.9661   20.1968 O   0  0  0  0  0  0  0  0  0  0  0  0
  -24.0775  -10.3870   20.6597 O   0  0  0  0  0  0  0  0  0  0  0  0
  -30.5025  -25.7017   19.4154 O   0  0  0  0  0  0  0  0  0  1  0  0
  -21.0544   -9.4589   25.1768 F   0  0  0  0  0  0  0  0  0  0  0  0
  -22.1705  -12.2087   21.4892 F   0  0  0  0  0  0  0  0  0  0  0  0
  1  2  1  0  0  0  0
  1  5  2  0  0  0  0
  2  6  2  0  0  0  0
  3  8  2  0  0  0  0
  3 15  1  0  0  0  0
  4  9  1  0  0  0  0
  4 15  2  0  0  0  0
  5 17  1  0  0  0  0
  6 19  1  0  0  0  0
  7 10  2  0  0  0  0
  7 18  1  0  0  0  0
  8 21  1  0  0  0  0
  9 21  2  0  0  0  0
 10 22  1  0  0  0  0
 11 12  2  0  0  0  0
 11 23  1  0  0  0  0
 12 24  1  0  0  0  0
 13 20  1  0  0  0  0
 13 22  2  0  0  0  0
 14 24  2  0  0  0  0
 14 25  1  0  0  0  0
 15 26  1  0  0  0  0
 16 26  1  0  0  0  0
 16 27  2  0  0  0  0
 16 28  1  0  0  0  0
 17 19  2  0  0  0  0
 17 33  1  0  0  0  0
 18 20  2  0  0  0  0
 18 34  1  0  0  0  0
 19 42  1  0  0  0  0
 20 35  1  0  0  0  0
 21 74  1  0  0  0  0
 22 75  1  0  0  0  0
 23 25  2  0  0  0  0
 23 74  1  0  0  0  0
 24 76  1  0  0  0  0
 25 77  1  0  0  0  0
 26 59  2  0  0  0  0
 27 60  1  0  0  0  0
 27 63  1  0  0  0  0
 28 64  1  0  0  0  0
 28 69  2  0  0  0  0
 29 43  1  0  0  0  0
 29 65  1  0  0  0  0
 29 70  2  0  0  0  0
 30 55  1  0  0  0  0
 30 61  1  0  0  0  0
 30 71  2  0  0  0  0
 31 56  1  0  0  0  0
 31 66  1  0  0  0  0
 31 72  2  0  0  0  0
 32 62  1  0  0  0  0
 32 67  1  0  0  0  0
 32 73  2  0  0  0  0
 33 36  1  0  0  0  0
 34 43  1  0  0  0  0
 35 61  1  0  0  0  0
 36 38  1  0  0  0  0
 37 39  1  0  0  0  0
 37 40  1  0  0  0  0
 38 42  1  0  0  0  0
 39 44  1  0  0  0  0
 40 62  1  0  0  0  0
 41 44  1  0  0  0  0
 41 62  1  0  0  0  0
 42 65  1  0  0  0  0
 43 61  1  0  0  0  0
 44 60  1  0  0  0  0
 45 56  1  0  0  0  0
 46 57  1  0  0  0  0
 47 57  1  0  0  0  0
 48 57  1  0  0  0  0
 49 58  1  0  0  0  0
 50 58  1  0  0  0  0
 51 68  1  0  0  0  0
 52 53  1  0  0  0  0
 52 58  1  0  0  0  0
 53 67  1  0  0  0  0
 54 58  1  0  0  0  0
 54 75  1  0  0  0  0
 55 57  1  0  0  0  0
 55 66  1  0  0  0  0
 56 68  1  0  0  0  0
 59 60  1  0  0  0  0
M  CHG  1  68   1
M  ISO  4  32 100  54 101  67 100  75 101
M  END
> <Batch ID>
0104

> <Smiles>
CNC(C)C(=O)NC(C(=O)N1Cc2cc([101O:1][101CH2:1]C(C)(C)CC[100NH:0][100C:0](=O)N3CCCC(n4nc(-c5ccc(Oc6ccc(F)cc6F)cc5)c(C(N)=O)c4N)C3)ccc2CC1C(=O)NC1CCCc2ccccc21)C(C)(C)C

> <Shape>
0.260

> <Color>
0.077

> <Negative vol penalty>
0.000

$$$$

  -OEChem-04052319433D

 88 96  0     1  0  0  0  0  0999 V2000
  -26.9742  -33.2968   27.7239 C   0  0  0  0  0  0  0  0  0  0  0  0
  -26.4080  -32.0288   27.8075 C   0  0  0  0  0  0  0  0  0  0  0  0
  -23.2049   -9.7391   20.2514 C   0  0  0  0  0  0  0  0  0  0  0  0
  -24.0419  -10.0402   22.4977 C   0  0  0  0  0  0  0  0  0  0  0  0
  -27.4176  -33.7813   26.4941 C   0  0  0  0  0  0  0  0  0  0  0  0
  -26.2838  -31.2450   26.6608 C   0  0  0  0  0  0  0  0  0  0  0  0
  -26.4191  -24.4067   24.5312 C   0  0  0  0  0  0  0  0  0  0  0  0
  -22.5535   -8.5720   20.6505 C   0  0  0  0  0  0  0  0  0  0  0  0
  -23.3904   -8.8731   22.8969 C   0  0  0  0  0  0  0  0  0  0  0  0
  -25.6595  -23.4889   23.8069 C   0  0  0  0  0  0  0  0  0  0  0  0
  -20.2497   -7.9306   23.7141 C   0  0  0  0  0  0  0  0  0  0  0  0
  -19.5387   -7.9650   24.9136 C   0  0  0  0  0  0  0  0  0  0  0  0
  -26.5326  -24.3984   21.7503 C   0  0  0  0  0  0  0  0  0  0  0  0
  -20.9388   -6.2037   25.7938 C   0  0  0  0  0  0  0  0  0  0  0  0
  -23.9491  -10.4731   21.1750 C   0  0  0  0  0  0  0  0  0  0  0  0
  -24.1074  -12.9884   20.7799 C   0  0  0  0  0  0  0  0  0  0  0  0
  -27.3076  -32.9993   25.3335 C   0  0  0  0  0  0  0  0  0  0  0  0
  -27.2341  -25.3359   23.8689 C   0  0  0  0  0  0  0  0  0  0  0  0
  -26.7248  -31.7201   25.4141 C   0  0  0  0  0  0  0  0  0  0  0  0
  -27.3035  -25.3252   22.4685 C   0  0  0  0  0  0  0  0  0  0  0  0
  -26.2624  -19.8323   19.3611 C   0  0  0  0  0  0  0  0  0  0  0  0
  -25.8100  -19.7384   20.7003 C   0  0  0  0  0  0  0  0  0  0  0  0
  -22.6463   -8.1391   21.9733 C   0  0  0  0  0  0  0  0  0  0  0  0
  -25.7139  -23.4865   22.4162 C   0  0  0  0  0  0  0  0  0  0  0  0
  -21.3052   -7.0328   23.5543 C   0  0  0  0  0  0  0  0  0  0  0  0
  -19.8832   -7.1015   25.9535 C   0  0  0  0  0  0  0  0  0  0  0  0
  -21.6497   -6.1693   24.5942 C   0  0  0  0  0  0  0  0  0  0  0  0
  -24.6227  -11.6784   20.7632 C   0  0  0  0  0  0  0  0  0  0  0  0
  -27.5011  -19.2326   19.3024 C   0  0  0  0  0  0  0  0  0  0  0  0
  -26.7860  -19.0844   21.4194 C   0  0  0  0  0  0  0  0  0  0  0  0
  -25.1305  -13.7661   20.2953 C   0  0  0  0  0  0  0  0  0  0  0  0
  -22.8190  -13.4600   21.1962 C   0  0  0  0  0  0  0  0  0  0  0  0
  -27.3329  -28.5081   23.6918 C   0  0  0  0  0  0  0  0  0  0  0  0
  -30.0584  -27.9412   22.0267 C   0  0  0  0  0  0  0  0  0  0  0  0
  -31.8912  -25.7882   20.1156 C   0  0  0  0  0  0  0  0  0  0  0  0
  -30.6903  -14.9122   20.5998 C   0  0  0  0  0  0  0  0  0  0  0  0
  -27.7577  -33.5846   24.0184 C   0  0  0  0  0  0  0  0  0  0  0  0
  -28.0678  -26.3018   24.6655 C   0  0  0  0  0  0  0  0  0  0  0  0
  -28.1784  -26.2887   21.7104 C   0  0  0  0  0  0  0  0  0  0  0  0
  -27.9321  -32.5431   22.9161 C   0  0  0  0  0  0  0  0  0  0  0  0
  -29.4805  -12.5001   18.0660 C   0  0  0  0  0  0  0  0  0  0  0  0
  -26.7337  -31.6001   22.8781 C   0  0  0  0  0  0  0  0  0  0  0  0
  -28.0942  -12.1318   18.5919 C   0  0  0  0  0  0  0  0  0  0  0  0
  -30.4268  -12.9010   19.1937 C   0  0  0  0  0  0  0  0  0  0  0  0
  -28.5159  -13.6218   20.5875 C   0  0  0  0  0  0  0  0  0  0  0  0
  -26.5955  -30.8301   24.1970 C   0  0  1  0  0  0  0  0  0  0  0  0
  -28.4689  -27.5411   23.8714 C   0  0  1  0  0  0  0  0  0  0  0  0
  -27.5245  -13.2578   19.4722 C   0  0  2  0  0  0  0  0  0  0  0  0
  -25.5405  -20.4563   18.2331 C   0  0  0  0  0  0  0  0  0  0  0  0
  -26.8336  -18.7236   22.8526 C   0  0  0  0  0  0  0  0  0  0  0  0
  -23.6222  -19.1233   21.7805 C   0  0  0  0  0  0  0  0  0  0  0  0
  -34.0625  -25.6210   18.8686 C   0  0  0  0  0  0  0  0  0  0  0  0
  -27.8260  -19.6543   16.8403 C   0  0  0  0  0  0  0  0  0  0  0  0
  -28.7028  -17.5361   17.8796 C   0  0  0  0  0  0  0  0  0  0  0  0
  -29.8358  -19.7083   18.3031 C   0  0  0  0  0  0  0  0  0  0  0  0
  -28.9079  -29.6758   19.7957 C   0  0  0  0  0  0  0  0  0  0  0  0
  -30.6307  -28.7141   18.2545 C   0  0  0  0  0  0  0  0  0  0  0  0
  -31.3411  -30.0357   20.2474 C   0  0  0  0  0  0  0  0  0  0  0  0
  -30.8607  -16.4999   22.4785 C   0  0  0  0  0  0  0  0  0  0  0  0
  -32.8139  -23.5306   21.7921 C   0  0  0  0  0  0  0  0  0  0  0  0
  -29.0299  -18.0936   20.9240 C   0  0  0  0  0  0  0  0  0  0  0  0
  -28.8466  -16.5840   21.0565 C   0  0  0  0  0  0  0  0  0  0  0  0
  -24.7045  -21.3351   22.3263 C   0  0  0  0  0  0  0  0  0  1  0  0
  -24.4922  -20.2648   21.2470 C   0  0  1  0  0  0  0  0  0  0  0  0
  -30.3953  -27.7137   20.5729 C   0  0  1  0  0  0  0  0  0  0  0  0
  -33.3483  -25.3684   20.1873 C   0  0  2  0  0  0  0  0  0  0  0  0
  -28.4177  -19.0497   18.1568 C   0  0  0  0  0  0  0  0  0  0  0  0
  -30.3007  -29.0178   19.7315 C   0  0  0  0  0  0  0  0  0  0  0  0
  -25.8759  -11.6232   20.3043 N   0  0  0  0  0  0  0  0  0  0  0  0
  -27.8093  -18.7819   20.5595 N   0  0  0  0  0  0  0  0  0  0  0  0
  -26.1564  -12.9081   20.0280 N   0  0  0  0  0  0  0  0  0  0  0  0
  -28.9698  -27.2177   22.5339 N   0  0  0  0  0  0  0  0  0  0  0  0
  -29.8428  -13.9419   20.0402 N   0  0  0  0  0  0  0  0  0  0  0  0
  -25.2437  -15.0933   20.0760 N   0  0  0  0  0  0  0  0  0  0  0  0
  -21.8862  -12.5264   21.6681 N   0  0  0  0  0  0  0  0  0  0  0  0
  -27.5570  -29.7500   24.2547 N   0  0  0  0  0  0  0  0  0  0  0  0
  -31.7109  -27.0836   20.5524 N   0  0  0  0  0  0  0  0  0  0  0  0
  -30.0926  -15.9005   21.3965 N   0  0  0  0  0  0  0  0  0  0  0  0
  -33.4539  -23.9169   20.5084 N   0  3  0  0  0  0  0  0  0  0  0  0
  -22.4985  -14.6713   21.1357 O   0  0  0  0  0  0  0  0  0  0  0  0
  -26.3282  -28.1542   23.0861 O   0  0  0  0  0  0  0  0  0  0  0  0
  -30.7407  -28.7263   22.6899 O   0  0  0  0  0  0  0  0  0  0  0  0
  -31.0025  -25.0430   19.7091 O   0  0  0  0  0  0  0  0  0  0  0  0
  -31.9102  -14.9016   20.3909 O   0  0  0  0  0  0  0  0  0  0  0  0
  -22.0106   -7.0004   22.3631 O   0  0  0  0  0  0  0  0  0  0  0  0
  -24.9731  -22.5922   21.7069 O   0  0  0  0  0  0  0  0  0  1  0  0
  -19.2014   -7.1357   27.1059 F   0  0  0  0  0  0  0  0  0  0  0  0
  -22.6635   -5.3054   24.4471 F   0  0  0  0  0  0  0  0  0  0  0  0
  1  2  1  0  0  0  0
  1  5  2  0  0  0  0
  2  6  2  0  0  0  0
  3  8  2  0  0  0  0
  3 15  1  0  0  0  0
  4  9  1  0  0  0  0
  4 15  2  0  0  0  0
  5 17  1  0  0  0  0
  6 19  1  0  0  0  0
  7 10  2  0  0  0  0
  7 18  1  0  0  0  0
  8 23  1  0  0  0  0
  9 23  2  0  0  0  0
 10 24  1  0  0  0  0
 11 12  2  0  0  0  0
 11 25  1  0  0  0  0
 12 26  1  0  0  0  0
 13 20  1  0  0  0  0
 13 24  2  0  0  0  0
 14 26  2  0  0  0  0
 14 27  1  0  0  0  0
 15 28  1  0  0  0  0
 16 28  1  0  0  0  0
 16 31  2  0  0  0  0
 16 32  1  0  0  0  0
 17 19  2  0  0  0  0
 17 37  1  0  0  0  0
 18 20  2  0  0  0  0
 18 38  1  0  0  0  0
 19 46  1  0  0  0  0
 20 39  1  0  0  0  0
 21 22  1  0  0  0  0
 21 29  2  0  0  0  0
 21 49  1  0  0  0  0
 22 30  2  0  0  0  0
 22 64  1  0  0  0  0
 23 85  1  0  0  0  0
 24 86  1  0  0  0  0
 25 27  2  0  0  0  0
 25 85  1  0  0  0  0
 26 87  1  0  0  0  0
 27 88  1  0  0  0  0
 28 69  2  0  0  0  0
 29 67  1  0  0  0  0
 29 70  1  0  0  0  0
 30 50  1  0  0  0  0
 30 70  1  0  0  0  0
 31 71  1  0  0  0  0
 31 74  1  0  0  0  0
 32 75  1  0  0  0  0
 32 80  2  0  0  0  0
 33 47  1  0  0  0  0
 33 76  1  0  0  0  0
 33 81  2  0  0  0  0
 34 65  1  0  0  0  0
 34 72  1  0  0  0  0
 34 82  2  0  0  0  0
 35 66  1  0  0  0  0
 35 77  1  0  0  0  0
 35 83  2  0  0  0  0
 36 73  1  0  0  0  0
 36 78  1  0  0  0  0
 36 84  2  0  0  0  0
 37 40  1  0  0  0  0
 38 47  1  0  0  0  0
 39 72  1  0  0  0  0
 40 42  1  0  0  0  0
 41 43  1  0  0  0  0
 41 44  1  0  0  0  0
 42 46  1  0  0  0  0
 43 48  1  0  0  0  0
 44 73  1  0  0  0  0
 45 48  1  0  0  0  0
 45 73  1  0  0  0  0
 46 76  1  0  0  0  0
 47 72  1  0  0  0  0
 48 71  1  0  0  0  0
 51 64  1  0  0  0  0
 52 66  1  0  0  0  0
 53 67  1  0  0  0  0
 54 67  1  0  0  0  0
 55 67  1  0  0  0  0
 56 68  1  0  0  0  0
 57 68  1  0  0  0  0
 58 68  1  0  0  0  0
 59 78  1  0  0  0  0
 60 79  1  0  0  0  0
 61 62  1  0  0  0  0
 61 70  1  0  0  0  0
 62 78  1  0  0  0  0
 63 64  1  0  0  0  0
 63 86  1  0  0  0  0
 65 68  1  0  0  0  0
 65 77  1  0  0  0  0
 66 79  1  0  0  0  0
 69 71  1  0  0  0  0
M  CHG  1  79   1
M  ISO  4  36 100  63 101  78 100  86 101
M  END
> <Batch ID>
0104

> <Smiles>
CNC(C)C(=O)NC(C(=O)N1Cc2cc([101O:1][101CH2:1]C(C)c3c(C)c(C(C)(C)C)n(CC[100N:0](C)[100C:0](=O)N4CCCC(n5nc(-c6ccc(Oc7ccc(F)cc7F)cc6)c(C(N)=O)c5N)C4)c3C)ccc2CC1C(=O)NC1CCCc2ccccc21)C(C)(C)C

> <Shape>
0.295

> <Color>
0.193

> <Negative vol penalty>
0.000

$$$$

  -OEChem-04052319433D

 84 92  0     1  0  0  0  0  0999 V2000
  -26.1423  -18.0187   28.7415 C   0  0  0  0  0  0  0  0  0  0  0  0
  -25.1983  -19.0392   28.7332 C   0  0  0  0  0  0  0  0  0  0  0  0
  -29.6140  -17.3306   19.9891 C   0  0  0  0  0  0  0  0  0  0  0  0
  -27.3418  -17.9683   20.5065 C   0  0  0  0  0  0  0  0  0  0  0  0
  -27.0677  -17.9218   27.7044 C   0  0  0  0  0  0  0  0  0  0  0  0
  -25.1716  -19.9562   27.6818 C   0  0  0  0  0  0  0  0  0  0  0  0
  -22.2110  -26.0457   25.3234 C   0  0  0  0  0  0  0  0  0  0  0  0
  -29.3537  -16.0368   20.4406 C   0  0  0  0  0  0  0  0  0  0  0  0
  -27.0815  -16.6745   20.9579 C   0  0  0  0  0  0  0  0  0  0  0  0
  -22.4732  -27.3489   24.9030 C   0  0  0  0  0  0  0  0  0  0  0  0
  -25.7147  -13.4431   21.9110 C   0  0  0  0  0  0  0  0  0  0  0  0
  -24.5240  -12.8409   21.5045 C   0  0  0  0  0  0  0  0  0  0  0  0
  -23.1799  -26.5077   22.7555 C   0  0  0  0  0  0  0  0  0  0  0  0
  -28.0427  -29.7498   23.0579 C   0  0  0  0  0  0  0  0  0  0  0  0
  -25.2060  -13.0507   19.1963 C   0  0  0  0  0  0  0  0  0  0  0  0
  -26.7495  -29.4298   21.0877 C   0  0  0  0  0  0  0  0  0  0  0  0
  -28.6081  -18.2964   20.0221 C   0  0  0  0  0  0  0  0  0  0  0  0
  -28.7164  -20.1257   18.2474 C   0  0  0  0  0  0  0  0  0  0  0  0
  -27.0596  -18.8459   26.6466 C   0  0  0  0  0  0  0  0  0  0  0  0
  -22.4421  -24.9610   24.4652 C   0  0  0  0  0  0  0  0  0  0  0  0
  -26.0819  -19.8610   26.6137 C   0  0  0  0  0  0  0  0  0  0  0  0
  -22.9174  -25.1919   23.1664 C   0  0  0  0  0  0  0  0  0  0  0  0
  -27.9689  -29.3226   21.7368 C   0  0  0  0  0  0  0  0  0  0  0  0
  -26.9109  -30.2639   23.6808 C   0  0  0  0  0  0  0  0  0  0  0  0
  -28.0874  -15.7087   20.9250 C   0  0  0  0  0  0  0  0  0  0  0  0
  -22.9604  -27.5799   23.6199 C   0  0  0  0  0  0  0  0  0  0  0  0
  -26.6510  -13.8492   20.9601 C   0  0  0  0  0  0  0  0  0  0  0  0
  -24.2697  -12.6447   20.1472 C   0  0  0  0  0  0  0  0  0  0  0  0
  -26.3966  -13.6529   19.6028 C   0  0  0  0  0  0  0  0  0  0  0  0
  -28.8765  -19.6333   19.5565 C   0  0  0  0  0  0  0  0  0  0  0  0
  -25.7388  -30.3292   22.9446 C   0  0  0  0  0  0  0  0  0  0  0  0
  -29.1027  -21.4414   18.3258 C   0  0  0  0  0  0  0  0  0  0  0  0
  -28.2593  -19.4538   17.0661 C   0  0  0  0  0  0  0  0  0  0  0  0
  -24.3363  -22.4094   24.5349 C   0  0  0  0  0  0  0  0  0  0  0  0
  -22.7036  -21.6076   21.8491 C   0  0  0  0  0  0  0  0  0  0  0  0
  -20.8461  -22.6286   19.1743 C   0  0  0  0  0  0  0  0  0  0  0  0
  -28.9336  -26.3077   20.8233 C   0  0  0  0  0  0  0  0  0  0  0  0
  -28.0791  -18.6897   25.5459 C   0  0  0  0  0  0  0  0  0  0  0  0
  -22.1289  -23.5634   24.9245 C   0  0  0  0  0  0  0  0  0  0  0  0
  -23.1630  -24.0635   22.1995 C   0  0  0  0  0  0  0  0  0  0  0  0
  -28.2561  -19.9567   24.7153 C   0  0  0  0  0  0  0  0  0  0  0  0
  -31.4234  -23.9782   22.0366 C   0  0  0  0  0  0  0  0  0  0  0  0
  -26.8981  -20.4869   24.2802 C   0  0  0  0  0  0  0  0  0  0  0  0
  -30.9625  -22.6734   21.3844 C   0  0  0  0  0  0  0  0  0  0  0  0
  -30.2338  -24.8292   22.4714 C   0  0  0  0  0  0  0  0  0  0  0  0
  -28.8035  -23.8345   20.7282 C   0  0  0  0  0  0  0  0  0  0  0  0
  -26.0533  -20.8880   25.4962 C   0  0  1  0  0  0  0  0  0  0  0  0
  -22.8878  -22.4941   24.1447 C   0  0  1  0  0  0  0  0  0  0  0  0
  -29.9598  -22.9396   20.2461 C   0  0  2  0  0  0  0  0  0  0  0  0
  -27.9624  -31.8956   25.2887 C   0  0  0  0  0  0  0  0  0  0  0  0
  -27.3399  -29.5807   26.0689 C   0  0  0  0  0  0  0  0  0  0  0  0
  -19.6853  -21.7483   17.1310 C   0  0  0  0  0  0  0  0  0  0  0  0
  -25.3990  -21.3037   20.4518 C   0  0  0  0  0  0  0  0  0  0  0  0
  -24.1913  -21.3691   18.2596 C   0  0  0  0  0  0  0  0  0  0  0  0
  -23.7245  -19.5349   19.8845 C   0  0  0  0  0  0  0  0  0  0  0  0
  -18.2090  -23.5841   20.1188 C   0  0  0  0  0  0  0  0  0  0  0  0
  -29.1614  -28.7689   21.0418 C   0  0  0  0  0  0  0  0  0  0  0  0
  -23.6109  -29.7910   24.2064 C   0  0  0  0  0  0  0  0  0  1  0  0
  -26.9826  -30.7217   25.0966 C   0  0  0  0  0  0  0  0  0  0  0  0
  -24.4775  -30.8793   23.5688 C   0  0  2  0  0  0  0  0  0  0  0  0
  -22.8807  -21.8676   20.3726 C   0  0  1  0  0  0  0  0  0  0  0  0
  -19.5388  -22.1130   18.6001 C   0  0  2  0  0  0  0  0  0  0  0  0
  -24.0462  -21.0401   19.7607 C   0  0  0  0  0  0  0  0  0  0  0  0
  -25.6285  -29.9239   21.6596 N   0  0  0  0  0  0  0  0  0  0  0  0
  -29.3294  -20.5606   20.4044 N   0  0  0  0  0  0  0  0  0  0  0  0
  -29.4572  -21.6489   19.6263 N   0  0  0  0  0  0  0  0  0  0  0  0
  -22.8476  -22.7145   22.6976 N   0  0  0  0  0  0  0  0  0  0  0  0
  -29.3279  -25.0613   21.3376 N   0  0  0  0  0  0  0  0  0  0  0  0
  -29.1703  -22.4294   17.4084 N   0  0  0  0  0  0  0  0  0  0  0  0
  -27.9025  -18.1018   17.1622 N   0  0  0  0  0  0  0  0  0  0  0  0
  -24.7073  -21.1856   25.0584 N   0  0  0  0  0  0  0  0  0  0  0  0
  -21.5824  -21.6180   19.7555 N   0  0  0  0  0  0  0  0  0  0  0  0
  -29.4695  -27.4197   21.4612 N   0  0  0  0  0  0  0  0  0  0  0  0
  -23.6355  -31.6279   22.5811 N   0  3  0  0  0  0  0  0  0  0  0  0
  -18.4746  -23.1489   18.7234 N   0  3  0  0  0  0  0  0  0  0  0  0
  -28.1855  -20.0308   15.9547 O   0  0  0  0  0  0  0  0  0  0  0  0
  -25.0638  -23.3819   24.3716 O   0  0  0  0  0  0  0  0  0  0  0  0
  -22.4399  -20.4660   22.2347 O   0  0  0  0  0  0  0  0  0  0  0  0
  -21.1822  -23.8090   19.1101 O   0  0  0  0  0  0  0  0  0  0  0  0
  -28.1647  -26.4213   19.8626 O   0  0  0  0  0  0  0  0  0  0  0  0
  -27.8330  -14.4462   21.3653 O   0  0  0  0  0  0  0  0  0  0  0  0
  -23.2177  -28.8509   23.2074 O   0  0  0  0  0  0  0  0  0  1  0  0
  -23.1269  -12.0650   19.7570 F   0  0  0  0  0  0  0  0  0  0  0  0
  -27.2929  -14.0399   18.6847 F   0  0  0  0  0  0  0  0  0  0  0  0
  1  2  1  0  0  0  0
  1  5  2  0  0  0  0
  2  6  2  0  0  0  0
  3  8  2  0  0  0  0
  3 17  1  0  0  0  0
  4  9  1  0  0  0  0
  4 17  2  0  0  0  0
  5 19  1  0  0  0  0
  6 21  1  0  0  0  0
  7 10  2  0  0  0  0
  7 20  1  0  0  0  0
  8 25  1  0  0  0  0
  9 25  2  0  0  0  0
 10 26  1  0  0  0  0
 11 12  2  0  0  0  0
 11 27  1  0  0  0  0
 12 28  1  0  0  0  0
 13 22  1  0  0  0  0
 13 26  2  0  0  0  0
 14 23  2  0  0  0  0
 14 24  1  0  0  0  0
 15 28  2  0  0  0  0
 15 29  1  0  0  0  0
 16 23  1  0  0  0  0
 16 64  2  0  0  0  0
 17 30  1  0  0  0  0
 18 30  1  0  0  0  0
 18 32  2  0  0  0  0
 18 33  1  0  0  0  0
 19 21  2  0  0  0  0
 19 38  1  0  0  0  0
 20 22  2  0  0  0  0
 20 39  1  0  0  0  0
 21 47  1  0  0  0  0
 22 40  1  0  0  0  0
 23 57  1  0  0  0  0
 24 31  2  0  0  0  0
 24 59  1  0  0  0  0
 25 81  1  0  0  0  0
 26 82  1  0  0  0  0
 27 29  2  0  0  0  0
 27 81  1  0  0  0  0
 28 83  1  0  0  0  0
 29 84  1  0  0  0  0
 30 65  2  0  0  0  0
 31 60  1  0  0  0  0
 31 64  1  0  0  0  0
 32 66  1  0  0  0  0
 32 69  1  0  0  0  0
 33 70  1  0  0  0  0
 33 76  2  0  0  0  0
 34 48  1  0  0  0  0
 34 71  1  0  0  0  0
 34 77  2  0  0  0  0
 35 61  1  0  0  0  0
 35 67  1  0  0  0  0
 35 78  2  0  0  0  0
 36 62  1  0  0  0  0
 36 72  1  0  0  0  0
 36 79  2  0  0  0  0
 37 68  1  0  0  0  0
 37 73  1  0  0  0  0
 37 80  2  0  0  0  0
 38 41  1  0  0  0  0
 39 48  1  0  0  0  0
 40 67  1  0  0  0  0
 41 43  1  0  0  0  0
 42 44  1  0  0  0  0
 42 45  1  0  0  0  0
 43 47  1  0  0  0  0
 44 49  1  0  0  0  0
 45 68  1  0  0  0  0
 46 49  1  0  0  0  0
 46 68  1  0  0  0  0
 47 71  1  0  0  0  0
 48 67  1  0  0  0  0
 49 66  1  0  0  0  0
 50 59  1  0  0  0  0
 51 59  1  0  0  0  0
 52 62  1  0  0  0  0
 53 63  1  0  0  0  0
 54 63  1  0  0  0  0
 55 63  1  0  0  0  0
 56 75  1  0  0  0  0
 57 73  1  0  0  0  0
 58 60  1  0  0  0  0
 58 82  1  0  0  0  0
 60 74  1  0  0  0  0
 61 63  1  0  0  0  0
 61 72  1  0  0  0  0
 62 75  1  0  0  0  0
 65 66  1  0  0  0  0
M  CHG  2  74   1  75   1
M  ISO  4  37 100  58 101  73 100  82 101
M  END
> <Batch ID>
0104

> <Smiles>
CNC(C)C(=O)NC(C(=O)N1Cc2cc([101O:1][101CH2:1]C(N)c3ncc(C[100NH:0][100C:0](=O)N4CCCC(n5nc(-c6ccc(Oc7ccc(F)cc7F)cc6)c(C(N)=O)c5N)C4)cc3C(C)C)ccc2CC1C(=O)NC1CCCc2ccccc21)C(C)(C)C

> <Shape>
0.185

> <Color>
0.067

> <Negative vol penalty>
0.000

$$$$

  -OEChem-04052319433D

 83 91  0     1  0  0  0  0  0999 V2000
  -27.1971  -30.3064   28.5658 C   0  0  0  0  0  0  0  0  0  0  0  0
  -27.5091  -29.6704   27.3685 C   0  0  0  0  0  0  0  0  0  0  0  0
  -26.4418  -13.1662   20.9441 C   0  0  0  0  0  0  0  0  0  0  0  0
  -24.0450  -13.2106   20.6427 C   0  0  0  0  0  0  0  0  0  0  0  0
  -25.8697  -30.6064   28.8691 C   0  0  0  0  0  0  0  0  0  0  0  0
  -26.4938  -29.3331   26.4742 C   0  0  0  0  0  0  0  0  0  0  0  0
  -27.6565  -30.4987   21.6852 C   0  0  0  0  0  0  0  0  0  0  0  0
  -26.4463  -11.7919   20.7059 C   0  0  0  0  0  0  0  0  0  0  0  0
  -24.0495  -11.8362   20.4045 C   0  0  0  0  0  0  0  0  0  0  0  0
  -28.5241  -29.6388   21.0133 C   0  0  0  0  0  0  0  0  0  0  0  0
  -24.2187   -8.9927   22.2256 C   0  0  0  0  0  0  0  0  0  0  0  0
  -23.2454   -8.2216   22.8609 C   0  0  0  0  0  0  0  0  0  0  0  0
  -26.6407  -28.6064   19.9151 C   0  0  0  0  0  0  0  0  0  0  0  0
  -22.4085   -7.5060   20.7104 C   0  0  0  0  0  0  0  0  0  0  0  0
  -25.2411  -13.8756   20.9125 C   0  0  0  0  0  0  0  0  0  0  0  0
  -25.6664  -15.9573   22.3244 C   0  0  0  0  0  0  0  0  0  0  0  0
  -24.8385  -30.2812   27.9738 C   0  0  0  0  0  0  0  0  0  0  0  0
  -26.2713  -30.4115   21.4851 C   0  0  0  0  0  0  0  0  0  0  0  0
  -25.1512  -29.6278   26.7664 C   0  0  0  0  0  0  0  0  0  0  0  0
  -25.7578  -29.4680   20.5838 C   0  0  0  0  0  0  0  0  0  0  0  0
  -25.2502  -11.1269   20.4360 C   0  0  0  0  0  0  0  0  0  0  0  0
  -28.0160  -28.6905   20.1303 C   0  0  0  0  0  0  0  0  0  0  0  0
  -24.2869   -9.0205   20.8326 C   0  0  0  0  0  0  0  0  0  0  0  0
  -22.3403   -7.4782   22.1034 C   0  0  0  0  0  0  0  0  0  0  0  0
  -23.3818   -8.2771   20.0751 C   0  0  0  0  0  0  0  0  0  0  0  0
  -25.2357  -15.2952   21.1591 C   0  0  0  0  0  0  0  0  0  0  0  0
  -25.4571  -17.2888   22.0601 C   0  0  0  0  0  0  0  0  0  0  0  0
  -26.2075  -15.4171   23.5373 C   0  0  0  0  0  0  0  0  0  0  0  0
  -23.7730  -29.7644   23.3408 C   0  0  0  0  0  0  0  0  0  0  0  0
  -22.0888  -30.5441   20.6804 C   0  0  0  0  0  0  0  0  0  0  0  0
  -22.3436  -29.9425   17.1321 C   0  0  0  0  0  0  0  0  0  0  0  0
  -25.6496  -21.6790   18.7589 C   0  0  0  0  0  0  0  0  0  0  0  0
  -23.4140  -30.5831   28.3666 C   0  0  0  0  0  0  0  0  0  0  0  0
  -25.3507  -31.3642   22.1973 C   0  0  0  0  0  0  0  0  0  0  0  0
  -24.2801  -29.3472   20.3184 C   0  0  0  0  0  0  0  0  0  0  0  0
  -22.4350  -30.5289   27.1966 C   0  0  0  0  0  0  0  0  0  0  0  0
  -22.9425  -19.5575   18.3150 C   0  0  0  0  0  0  0  0  0  0  0  0
  -22.6700  -29.2742   26.3616 C   0  0  0  0  0  0  0  0  0  0  0  0
  -28.7521  -24.8377   20.8630 C   0  0  0  0  0  0  0  0  0  0  0  0
  -29.9065  -23.8417   18.8474 C   0  0  0  0  0  0  0  0  0  0  0  0
  -23.3228  -18.3061   19.1051 C   0  0  0  0  0  0  0  0  0  0  0  0
  -27.5324  -23.9207   20.7150 C   0  0  0  0  0  0  0  0  0  0  0  0
  -29.0193  -22.6246   19.1332 C   0  0  0  0  0  0  0  0  0  0  0  0
  -24.1469  -20.1153   17.5659 C   0  0  0  0  0  0  0  0  0  0  0  0
  -25.7055  -19.1885   19.2490 C   0  0  0  0  0  0  0  0  0  0  0  0
  -24.0803  -29.2682   25.7595 C   0  0  1  0  0  0  0  0  0  0  0  0
  -23.9206  -30.8442   22.3064 C   0  0  1  0  0  0  0  0  0  0  0  0
  -29.4159  -25.1369   19.5172 C   0  0  0  0  0  0  0  0  0  0  0  0
  -24.5218  -18.5812   20.0295 C   0  0  2  0  0  0  0  0  0  0  0  0
  -27.5864  -23.0299   19.4669 C   0  0  0  0  0  0  0  0  0  0  0  0
  -21.5054  -31.2859   15.1852 C   0  0  0  0  0  0  0  0  0  0  0  0
  -19.6503  -28.7173   20.8418 C   0  0  0  0  0  0  0  0  0  0  0  0
  -19.5788  -28.7074   18.3392 C   0  0  0  0  0  0  0  0  0  0  0  0
  -19.2768  -30.8472   19.5854 C   0  0  0  0  0  0  0  0  0  0  0  0
  -27.2592  -20.8194   20.5126 C   0  0  0  0  0  0  0  0  0  0  0  0
  -25.0399  -30.0846   15.9203 C   0  0  0  0  0  0  0  0  0  0  0  0
  -30.4337  -27.1567   17.4074 C   0  0  0  0  0  0  0  0  0  0  0  0
  -32.6500  -26.7689   18.4743 C   0  0  0  0  0  0  0  0  0  0  0  0
  -30.0763  -27.5026   20.1355 C   0  0  0  0  0  0  0  0  0  1  0  0
  -21.5689  -29.7850   19.4836 C   0  0  1  0  0  0  0  0  0  0  0  0
  -22.7038  -30.9571   16.0619 C   0  0  2  0  0  0  0  0  0  0  0  0
  -30.5626  -26.1334   19.6741 C   0  0  2  0  0  0  0  0  0  0  0  0
  -20.0421  -29.5059   19.5764 C   0  0  0  0  0  0  0  0  0  0  0  0
  -24.7865  -16.1367   20.2241 N   0  0  0  0  0  0  0  0  0  0  0  0
  -24.9338  -17.3412   20.8017 N   0  0  0  0  0  0  0  0  0  0  0  0
  -23.4203  -30.2970   21.0437 N   0  0  0  0  0  0  0  0  0  0  0  0
  -25.2683  -20.3595   18.4734 N   0  0  0  0  0  0  0  0  0  0  0  0
  -25.6714  -18.4081   22.7837 N   0  0  0  0  0  0  0  0  0  0  0  0
  -26.3555  -14.0273   23.6421 N   0  0  0  0  0  0  0  0  0  0  0  0
  -24.1447  -30.1508   24.6144 N   0  0  0  0  0  0  0  0  0  0  0  0
  -21.9655  -30.5538   18.3088 N   0  0  0  0  0  0  0  0  0  0  0  0
  -26.7362  -21.8590   19.6281 N   0  0  0  0  0  0  0  0  0  0  0  0
  -23.7916  -30.4279   15.1916 N   0  3  0  0  0  0  0  0  0  0  0  0
  -31.2279  -26.2894   18.3482 N   0  3  0  0  0  0  0  0  0  0  0  0
  -26.5342  -16.1440   24.5059 O   0  0  0  0  0  0  0  0  0  0  0  0
  -23.3517  -28.6628   23.0084 O   0  0  0  0  0  0  0  0  0  0  0  0
  -21.3433  -31.3327   21.2669 O   0  0  0  0  0  0  0  0  0  0  0  0
  -22.3892  -28.7291   16.9420 O   0  0  0  0  0  0  0  0  0  0  0  0
  -25.0574  -22.6442   18.2591 O   0  0  0  0  0  0  0  0  0  0  0  0
  -25.2543   -9.7859   20.2033 O   0  0  0  0  0  0  0  0  0  0  0  0
  -28.8606  -27.8495   19.4736 O   0  0  0  0  0  0  0  0  0  1  0  0
  -21.4066   -6.7366   22.7137 F   0  0  0  0  0  0  0  0  0  0  0  0
  -23.4431   -8.2989   18.7366 F   0  0  0  0  0  0  0  0  0  0  0  0
  1  2  1  0  0  0  0
  1  5  2  0  0  0  0
  2  6  2  0  0  0  0
  3  8  2  0  0  0  0
  3 15  1  0  0  0  0
  4  9  1  0  0  0  0
  4 15  2  0  0  0  0
  5 17  1  0  0  0  0
  6 19  1  0  0  0  0
  7 10  2  0  0  0  0
  7 18  1  0  0  0  0
  8 21  1  0  0  0  0
  9 21  2  0  0  0  0
 10 22  1  0  0  0  0
 11 12  2  0  0  0  0
 11 23  1  0  0  0  0
 12 24  1  0  0  0  0
 13 20  1  0  0  0  0
 13 22  2  0  0  0  0
 14 24  2  0  0  0  0
 14 25  1  0  0  0  0
 15 26  1  0  0  0  0
 16 26  1  0  0  0  0
 16 27  2  0  0  0  0
 16 28  1  0  0  0  0
 17 19  2  0  0  0  0
 17 33  1  0  0  0  0
 18 20  2  0  0  0  0
 18 34  1  0  0  0  0
 19 46  1  0  0  0  0
 20 35  1  0  0  0  0
 21 80  1  0  0  0  0
 22 81  1  0  0  0  0
 23 25  2  0  0  0  0
 23 80  1  0  0  0  0
 24 82  1  0  0  0  0
 25 83  1  0  0  0  0
 26 64  2  0  0  0  0
 27 65  1  0  0  0  0
 27 68  1  0  0  0  0
 28 69  1  0  0  0  0
 28 75  2  0  0  0  0
 29 47  1  0  0  0  0
 29 70  1  0  0  0  0
 29 76  2  0  0  0  0
 30 60  1  0  0  0  0
 30 66  1  0  0  0  0
 30 77  2  0  0  0  0
 31 61  1  0  0  0  0
 31 71  1  0  0  0  0
 31 78  2  0  0  0  0
 32 67  1  0  0  0  0
 32 72  1  0  0  0  0
 32 79  2  0  0  0  0
 33 36  1  0  0  0  0
 34 47  1  0  0  0  0
 35 66  1  0  0  0  0
 36 38  1  0  0  0  0
 37 41  1  0  0  0  0
 37 44  1  0  0  0  0
 38 46  1  0  0  0  0
 39 42  1  0  0  0  0
 39 48  1  0  0  0  0
 40 43  1  0  0  0  0
 40 48  1  0  0  0  0
 41 49  1  0  0  0  0
 42 50  1  0  0  0  0
 43 50  1  0  0  0  0
 44 67  1  0  0  0  0
 45 49  1  0  0  0  0
 45 67  1  0  0  0  0
 46 70  1  0  0  0  0
 47 66  1  0  0  0  0
 48 62  1  0  0  0  0
 49 65  1  0  0  0  0
 50 72  1  0  0  0  0
 51 61  1  0  0  0  0
 52 63  1  0  0  0  0
 53 63  1  0  0  0  0
 54 63  1  0  0  0  0
 55 72  1  0  0  0  0
 56 73  1  0  0  0  0
 57 74  1  0  0  0  0
 58 74  1  0  0  0  0
 59 62  1  0  0  0  0
 59 81  1  0  0  0  0
 60 63  1  0  0  0  0
 60 71  1  0  0  0  0
 61 73  1  0  0  0  0
 62 74  1  0  0  0  0
 64 65  1  0  0  0  0
M  CHG  2  73   1  74   1
M  ISO  4  32 100  59 101  72 100  81 101
M  END
> <Batch ID>
0104

> <Smiles>
CNC(C)C(=O)NC(C(=O)N1Cc2cc([101O:1][101CH2:1]C(C3CCC([100N:0](C)[100C:0](=O)N4CCCC(n5nc(-c6ccc(Oc7ccc(F)cc7F)cc6)c(C(N)=O)c5N)C4)CC3)N(C)C)ccc2CC1C(=O)NC1CCCc2ccccc21)C(C)(C)C

> <Shape>
0.221

> <Color>
0.070

> <Negative vol penalty>
0.000

$$$$

  -OEChem-04052319433D

 89 97  0     1  0  0  0  0  0999 V2000
  -22.0391  -27.0159   23.3645 C   0  0  0  0  0  0  0  0  0  0  0  0
  -22.2765  -25.7437   23.8751 C   0  0  0  0  0  0  0  0  0  0  0  0
  -29.6256  -23.3901   21.1777 C   0  0  0  0  0  0  0  0  0  0  0  0
  -27.6370  -22.9870   19.8661 C   0  0  0  0  0  0  0  0  0  0  0  0
  -21.4811  -27.1635   22.0954 C   0  0  0  0  0  0  0  0  0  0  0  0
  -21.9549  -24.6183   23.1171 C   0  0  0  0  0  0  0  0  0  0  0  0
  -24.1460  -17.9124   21.8736 C   0  0  0  0  0  0  0  0  0  0  0  0
  -29.5109  -24.7582   20.9312 C   0  0  0  0  0  0  0  0  0  0  0  0
  -27.5223  -24.3552   19.6196 C   0  0  0  0  0  0  0  0  0  0  0  0
  -23.6579  -16.6066   21.8503 C   0  0  0  0  0  0  0  0  0  0  0  0
  -26.4246  -27.0969   21.2623 C   0  0  0  0  0  0  0  0  0  0  0  0
  -25.1612  -27.6735   21.3920 C   0  0  0  0  0  0  0  0  0  0  0  0
  -22.7717  -16.9838   19.6386 C   0  0  0  0  0  0  0  0  0  0  0  0
  -26.0571  -11.0859   22.5077 C   0  0  0  0  0  0  0  0  0  0  0  0
  -25.2343  -28.3548   19.0752 C   0  0  0  0  0  0  0  0  0  0  0  0
  -28.6887  -22.5045   20.6451 C   0  0  0  0  0  0  0  0  0  0  0  0
  -28.2463  -20.3699   21.9701 C   0  0  0  0  0  0  0  0  0  0  0  0
  -21.1615  -26.0395   21.3175 C   0  0  0  0  0  0  0  0  0  0  0  0
  -23.9408  -18.7685   20.7821 C   0  0  0  0  0  0  0  0  0  0  0  0
  -21.3909  -24.7510   21.8369 C   0  0  0  0  0  0  0  0  0  0  0  0
  -23.2605  -18.2992   19.6495 C   0  0  0  0  0  0  0  0  0  0  0  0
  -27.4341  -11.2696   22.4498 C   0  0  0  0  0  0  0  0  0  0  0  0
  -27.9969  -11.9277   21.3619 C   0  0  0  0  0  0  0  0  0  0  0  0
  -28.4593  -25.2407   20.1522 C   0  0  0  0  0  0  0  0  0  0  0  0
  -22.9681  -16.1431   20.7339 C   0  0  0  0  0  0  0  0  0  0  0  0
  -27.0929  -27.1493   20.0390 C   0  0  0  0  0  0  0  0  0  0  0  0
  -24.5660  -28.3025   20.2984 C   0  0  0  0  0  0  0  0  0  0  0  0
  -26.4977  -27.7782   18.9455 C   0  0  0  0  0  0  0  0  0  0  0  0
  -28.8069  -21.0911   20.8989 C   0  0  0  0  0  0  0  0  0  0  0  0
  -25.2928  -11.5751   21.4606 C   0  0  0  0  0  0  0  0  0  0  0  0
  -27.1458  -12.3791   20.3660 C   0  0  0  0  0  0  0  0  0  0  0  0
  -28.6476  -19.0735   21.7585 C   0  0  0  0  0  0  0  0  0  0  0  0
  -27.4353  -20.8307   23.0589 C   0  0  0  0  0  0  0  0  0  0  0  0
  -22.4280  -21.5307   20.3513 C   0  0  0  0  0  0  0  0  0  0  0  0
  -23.7559  -21.3505   17.3973 C   0  0  0  0  0  0  0  0  0  0  0  0
  -25.0660  -19.3978   14.9240 C   0  0  0  0  0  0  0  0  0  0  0  0
  -29.6182  -15.3438   17.4386 C   0  0  0  0  0  0  0  0  0  0  0  0
  -20.5163  -26.2485   19.9705 C   0  0  0  0  0  0  0  0  0  0  0  0
  -24.4970  -20.1658   20.8121 C   0  0  0  0  0  0  0  0  0  0  0  0
  -23.0314  -19.1720   18.4437 C   0  0  0  0  0  0  0  0  0  0  0  0
  -20.5511  -25.0094   19.0796 C   0  0  0  0  0  0  0  0  0  0  0  0
  -32.2846  -16.9275   19.1876 C   0  0  0  0  0  0  0  0  0  0  0  0
  -20.1231  -23.7744   19.8659 C   0  0  0  0  0  0  0  0  0  0  0  0
  -31.6075  -18.0956   19.9068 C   0  0  0  0  0  0  0  0  0  0  0  0
  -31.6707  -16.6798   17.8115 C   0  0  0  0  0  0  0  0  0  0  0  0
  -29.5298  -17.6676   18.5289 C   0  0  0  0  0  0  0  0  0  0  0  0
  -21.0786  -23.5062   21.0349 C   0  0  1  0  0  0  0  0  0  0  0  0
  -23.7829  -21.1137   19.8534 C   0  0  1  0  0  0  0  0  0  0  0  0
  -30.0775  -17.9201   19.9440 C   0  0  2  0  0  0  0  0  0  0  0  0
  -28.2848  -10.7532   23.5625 C   0  0  0  0  0  0  0  0  0  0  0  0
  -29.4784  -14.4053   22.4644 C   0  0  0  0  0  0  0  0  0  0  0  0
  -30.0711  -11.4006   20.0542 C   0  0  0  0  0  0  0  0  0  0  0  0
  -23.3971  -10.0368   20.8863 C   0  0  0  0  0  0  0  0  0  0  0  0
  -26.0320  -19.5318   12.6118 C   0  0  0  0  0  0  0  0  0  0  0  0
  -20.9538  -21.7309   16.2513 C   0  0  0  0  0  0  0  0  0  0  0  0
  -21.8202  -20.9178   14.0476 C   0  0  0  0  0  0  0  0  0  0  0  0
  -22.7494  -22.9999   15.0597 C   0  0  0  0  0  0  0  0  0  0  0  0
  -27.6611  -18.2914   15.8185 C   0  0  0  0  0  0  0  0  0  0  0  0
  -29.8933  -13.6340   21.2173 C   0  0  0  0  0  0  0  0  0  0  0  0
  -23.0248  -12.5305   20.7815 C   0  0  0  0  0  0  0  0  0  0  0  0
  -27.4786  -14.1211   17.1449 C   0  0  0  0  0  0  0  0  0  0  0  0
  -23.2148  -13.8888   21.4501 C   0  0  0  0  0  0  0  0  0  1  0  0
  -26.7301  -13.4684   18.2932 C   0  0  0  0  0  0  0  0  0  0  0  0
  -29.4703  -12.1402   21.2682 C   0  0  1  0  0  0  0  0  0  0  0  0
  -23.7852  -11.3923   21.4893 C   0  0  2  0  0  0  0  0  0  0  0  0
  -23.3392  -20.7596   16.0721 C   0  0  1  0  0  0  0  0  0  0  0  0
  -26.3354  -19.5301   14.1020 C   0  0  2  0  0  0  0  0  0  0  0  0
  -22.2181  -21.5859   15.3810 C   0  0  0  0  0  0  0  0  0  0  0  0
  -29.5109  -20.3171   20.0686 N   0  0  0  0  0  0  0  0  0  0  0  0
  -25.8036  -12.2193   20.3874 N   0  0  0  0  0  0  0  0  0  0  0  0
  -29.3954  -19.0962   20.6181 N   0  0  0  0  0  0  0  0  0  0  0  0
  -23.5888  -20.5323   18.5236 N   0  0  0  0  0  0  0  0  0  0  0  0
  -30.2183  -16.5203   17.9169 N   0  0  0  0  0  0  0  0  0  0  0  0
  -28.4304  -17.9278   22.4387 N   0  0  0  0  0  0  0  0  0  0  0  0
  -27.1166  -22.1940   23.1245 N   0  0  0  0  0  0  0  0  0  0  0  0
  -22.2990  -22.8907   20.5592 N   0  0  0  0  0  0  0  0  0  0  0  0
  -24.5587  -20.6289   15.2819 N   0  0  0  0  0  0  0  0  0  0  0  0
  -28.2381  -15.2709   17.5829 N   0  0  0  0  0  0  0  0  0  0  0  0
  -27.2606  -18.3984   14.3920 N   0  3  0  0  0  0  0  0  0  0  0  0
  -27.0195  -20.0592   23.9564 O   0  0  0  0  0  0  0  0  0  0  0  0
  -21.5630  -20.6816   20.5320 O   0  0  0  0  0  0  0  0  0  0  0  0
  -24.2194  -22.4931   17.4309 O   0  0  0  0  0  0  0  0  0  0  0  0
  -24.5718  -18.3110   15.2159 O   0  0  0  0  0  0  0  0  0  0  0  0
  -30.2651  -14.4241   16.9262 O   0  0  0  0  0  0  0  0  0  0  0  0
  -28.3469  -26.5757   19.9116 O   0  0  0  0  0  0  0  0  0  0  0  0
  -22.4900  -14.8692   20.7088 O   0  0  0  0  0  0  0  0  0  1  0  0
  -27.6607  -13.0325   19.2768 O   0  0  0  0  0  0  0  0  0  0  0  0
  -23.3520  -28.8548   20.4227 F   0  0  0  0  0  0  0  0  0  0  0  0
  -27.1344  -27.8307   17.7675 F   0  0  0  0  0  0  0  0  0  0  0  0
  1  2  1  0  0  0  0
  1  5  2  0  0  0  0
  2  6  2  0  0  0  0
  3  8  2  0  0  0  0
  3 16  1  0  0  0  0
  4  9  1  0  0  0  0
  4 16  2  0  0  0  0
  5 18  1  0  0  0  0
  6 20  1  0  0  0  0
  7 10  2  0  0  0  0
  7 19  1  0  0  0  0
  8 24  1  0  0  0  0
  9 24  2  0  0  0  0
 10 25  1  0  0  0  0
 11 12  2  0  0  0  0
 11 26  1  0  0  0  0
 12 27  1  0  0  0  0
 13 21  1  0  0  0  0
 13 25  2  0  0  0  0
 14 22  2  0  0  0  0
 14 30  1  0  0  0  0
 15 27  2  0  0  0  0
 15 28  1  0  0  0  0
 16 29  1  0  0  0  0
 17 29  1  0  0  0  0
 17 32  2  0  0  0  0
 17 33  1  0  0  0  0
 18 20  2  0  0  0  0
 18 38  1  0  0  0  0
 19 21  2  0  0  0  0
 19 39  1  0  0  0  0
 20 47  1  0  0  0  0
 21 40  1  0  0  0  0
 22 23  1  0  0  0  0
 22 50  1  0  0  0  0
 23 31  2  0  0  0  0
 23 64  1  0  0  0  0
 24 85  1  0  0  0  0
 25 86  1  0  0  0  0
 26 28  2  0  0  0  0
 26 85  1  0  0  0  0
 27 88  1  0  0  0  0
 28 89  1  0  0  0  0
 29 69  2  0  0  0  0
 30 65  1  0  0  0  0
 30 70  2  0  0  0  0
 31 70  1  0  0  0  0
 31 87  1  0  0  0  0
 32 71  1  0  0  0  0
 32 74  1  0  0  0  0
 33 75  1  0  0  0  0
 33 80  2  0  0  0  0
 34 48  1  0  0  0  0
 34 76  1  0  0  0  0
 34 81  2  0  0  0  0
 35 66  1  0  0  0  0
 35 72  1  0  0  0  0
 35 82  2  0  0  0  0
 36 67  1  0  0  0  0
 36 77  1  0  0  0  0
 36 83  2  0  0  0  0
 37 73  1  0  0  0  0
 37 78  1  0  0  0  0
 37 84  2  0  0  0  0
 38 41  1  0  0  0  0
 39 48  1  0  0  0  0
 40 72  1  0  0  0  0
 41 43  1  0  0  0  0
 42 44  1  0  0  0  0
 42 45  1  0  0  0  0
 43 47  1  0  0  0  0
 44 49  1  0  0  0  0
 45 73  1  0  0  0  0
 46 49  1  0  0  0  0
 46 73  1  0  0  0  0
 47 76  1  0  0  0  0
 48 72  1  0  0  0  0
 49 71  1  0  0  0  0
 51 59  1  0  0  0  0
 52 64  1  0  0  0  0
 53 65  1  0  0  0  0
 54 67  1  0  0  0  0
 55 68  1  0  0  0  0
 56 68  1  0  0  0  0
 57 68  1  0  0  0  0
 58 79  1  0  0  0  0
 59 64  1  0  0  0  0
 60 62  1  0  0  0  0
 60 65  1  0  0  0  0
 61 63  1  0  0  0  0
 61 78  1  0  0  0  0
 62 86  1  0  0  0  0
 63 87  1  0  0  0  0
 66 68  1  0  0  0  0
 66 77  1  0  0  0  0
 67 79  1  0  0  0  0
 69 71  1  0  0  0  0
M  CHG  1  79   1
M  ISO  4  37 100  62 101  78 100  86 101
M  END
> <Batch ID>
0104

> <Smiles>
CCC(C)c1c(C)cc(C(C)C[101CH2:1][101O:1]c2ccc3c(c2)CN(C(=O)C(NC(=O)C(C)NC)C(C)(C)C)C(C(=O)NC2CCCc4ccccc42)C3)nc1OCC[100NH:0][100C:0](=O)N1CCCC(n2nc(-c3ccc(Oc4ccc(F)cc4F)cc3)c(C(N)=O)c2N)C1

> <Shape>
0.192

> <Color>
0.078

> <Negative vol penalty>
0.000

$$$$

  -OEChem-04052319433D

 80 87  0     1  0  0  0  0  0999 V2000
  -29.3410  -23.2036   17.4354 C   0  0  0  0  0  0  0  0  0  0  0  0
  -28.1089  -23.3847   18.0553 C   0  0  0  0  0  0  0  0  0  0  0  0
  -29.2656  -16.7160   17.2449 C   0  0  0  0  0  0  0  0  0  0  0  0
  -28.4023  -18.4104   15.7547 C   0  0  0  0  0  0  0  0  0  0  0  0
  -30.4720  -23.8498   17.9326 C   0  0  0  0  0  0  0  0  0  0  0  0
  -28.0072  -24.2113   19.1737 C   0  0  0  0  0  0  0  0  0  0  0  0
  -24.0012  -27.3010   18.9479 C   0  0  0  0  0  0  0  0  0  0  0  0
  -30.0746  -16.2263   16.2195 C   0  0  0  0  0  0  0  0  0  0  0  0
  -29.2113  -17.9207   14.7293 C   0  0  0  0  0  0  0  0  0  0  0  0
  -22.7557  -26.7518   19.2495 C   0  0  0  0  0  0  0  0  0  0  0  0
  -30.7818  -16.8928   11.6169 C   0  0  0  0  0  0  0  0  0  0  0  0
  -30.2070  -16.7377   10.3555 C   0  0  0  0  0  0  0  0  0  0  0  0
  -22.8870  -27.6881   21.4688 C   0  0  0  0  0  0  0  0  0  0  0  0
  -28.5995  -15.1883   11.2786 C   0  0  0  0  0  0  0  0  0  0  0  0
  -28.4295  -17.8080   17.0124 C   0  0  0  0  0  0  0  0  0  0  0  0
  -27.9211  -19.3086   19.0118 C   0  0  0  0  0  0  0  0  0  0  0  0
  -30.3823  -24.6924   19.0518 C   0  0  0  0  0  0  0  0  0  0  0  0
  -24.7050  -28.0399   19.9097 C   0  0  0  0  0  0  0  0  0  0  0  0
  -29.1382  -24.8683   19.6872 C   0  0  0  0  0  0  0  0  0  0  0  0
  -24.1401  -28.2478   21.1761 C   0  0  0  0  0  0  0  0  0  0  0  0
  -30.0475  -16.8286   14.9617 C   0  0  0  0  0  0  0  0  0  0  0  0
  -22.1997  -26.9428   20.5111 C   0  0  0  0  0  0  0  0  0  0  0  0
  -30.2655  -16.1956   12.7092 C   0  0  0  0  0  0  0  0  0  0  0  0
  -29.1158  -15.8855   10.1864 C   0  0  0  0  0  0  0  0  0  0  0  0
  -29.1743  -15.3433   12.5400 C   0  0  0  0  0  0  0  0  0  0  0  0
  -27.5932  -18.3139   18.0711 C   0  0  0  0  0  0  0  0  0  0  0  0
  -26.7980  -19.4253   19.7937 C   0  0  0  0  0  0  0  0  0  0  0  0
  -29.1326  -20.0600   19.1650 C   0  0  0  0  0  0  0  0  0  0  0  0
  -27.5014  -27.7127   21.3852 C   0  0  0  0  0  0  0  0  0  0  0  0
  -26.7745  -30.6414   22.5756 C   0  0  0  0  0  0  0  0  0  0  0  0
  -24.3727  -32.9356   23.3596 C   0  0  0  0  0  0  0  0  0  0  0  0
  -21.0301  -17.8743   18.4284 C   0  0  0  0  0  0  0  0  0  0  0  0
  -31.6411  -25.3322   19.5816 C   0  0  0  0  0  0  0  0  0  0  0  0
  -26.0354  -28.6483   19.5599 C   0  0  0  0  0  0  0  0  0  0  0  0
  -24.8459  -29.0503   22.2373 C   0  0  0  0  0  0  0  0  0  0  0  0
  -31.3786  -26.4869   20.5449 C   0  0  0  0  0  0  0  0  0  0  0  0
  -23.0494  -16.9225   21.3810 C   0  0  0  0  0  0  0  0  0  0  0  0
  -30.3185  -26.0966   21.5698 C   0  0  0  0  0  0  0  0  0  0  0  0
  -24.4771  -17.1930   20.9094 C   0  0  0  0  0  0  0  0  0  0  0  0
  -22.1244  -16.5747   20.2187 C   0  0  0  0  0  0  0  0  0  0  0  0
  -23.5482  -17.8578   18.6565 C   0  0  0  0  0  0  0  0  0  0  0  0
  -28.9829  -25.7767   20.8876 C   0  0  1  0  0  0  0  0  0  0  0  0
  -26.8952  -28.9490   20.7837 C   0  0  1  0  0  0  0  0  0  0  0  0
  -24.4955  -18.2568   19.7979 C   0  0  2  0  0  0  0  0  0  0  0  0
  -24.0815  -35.2212   24.3538 C   0  0  0  0  0  0  0  0  0  0  0  0
  -18.2896  -22.3258   21.3708 C   0  0  0  0  0  0  0  0  0  0  0  0
  -27.2378  -29.4859   25.3613 C   0  0  0  0  0  0  0  0  0  0  0  0
  -26.0382  -31.4694   26.3075 C   0  0  0  0  0  0  0  0  0  0  0  0
  -28.1519  -31.7889   25.0219 C   0  0  0  0  0  0  0  0  0  0  0  0
  -20.1433  -19.4014   16.7077 C   0  0  0  0  0  0  0  0  0  0  0  0
  -23.1766  -33.9940   20.8680 C   0  0  0  0  0  0  0  0  0  0  0  0
  -21.1948  -21.8776   21.4580 C   0  0  0  0  0  0  0  0  0  0  0  0
  -19.7226  -24.3826   21.0603 C   0  0  0  0  0  0  0  0  0  0  0  0
  -21.2262  -20.3829   18.6950 C   0  0  0  0  0  0  0  0  0  0  0  0
  -20.0373  -20.9075   19.4782 C   0  0  0  0  0  0  0  0  0  0  0  0
  -20.6277  -25.1968   20.1423 C   0  0  0  0  0  0  0  0  0  1  0  0
  -26.0379  -31.1483   23.7919 C   0  0  1  0  0  0  0  0  0  0  0  0
  -24.2685  -34.4227   23.0731 C   0  0  2  0  0  0  0  0  0  0  0  0
  -19.2512  -23.0623   20.4477 C   0  0  1  0  0  0  0  0  0  0  0  0
  -26.8538  -30.9563   25.1015 C   0  0  0  0  0  0  0  0  0  0  0  0
  -26.3585  -17.8328   18.2386 N   0  0  0  0  0  0  0  0  0  0  0  0
  -25.9007  -18.5281   19.2936 N   0  0  0  0  0  0  0  0  0  0  0  0
  -26.1470  -29.6195   21.8491 N   0  0  0  0  0  0  0  0  0  0  0  0
  -22.1938  -17.5801   19.1578 N   0  0  0  0  0  0  0  0  0  0  0  0
  -26.5003  -20.2067   20.8535 N   0  0  0  0  0  0  0  0  0  0  0  0
  -30.1879  -19.8146   18.2759 N   0  0  0  0  0  0  0  0  0  0  0  0
  -28.3009  -26.9973   20.5143 N   0  0  0  0  0  0  0  0  0  0  0  0
  -25.6837  -32.5344   23.5064 N   0  0  0  0  0  0  0  0  0  0  0  0
  -20.8993  -19.1801   17.9322 N   0  0  0  0  0  0  0  0  0  0  0  0
  -23.1115  -34.6974   22.1749 N   0  3  0  0  0  0  0  0  0  0  0  0
  -20.4206  -22.1737   20.1996 N   0  3  1  0  0  0  0  0  0  0  0  0
  -29.2809  -20.9117   20.0739 O   0  0  0  0  0  0  0  0  0  0  0  0
  -27.2626  -27.4297   22.5533 O   0  0  0  0  0  0  0  0  0  0  0  0
  -27.8631  -31.1389   22.2769 O   0  0  0  0  0  0  0  0  0  0  0  0
  -23.3893  -32.2038   23.4482 O   0  0  0  0  0  0  0  0  0  0  0  0
  -20.1533  -17.0212   18.2402 O   0  0  0  0  0  0  0  0  0  0  0  0
  -30.8369  -16.3512   13.9610 O   0  0  0  0  0  0  0  0  0  0  0  0
  -20.9845  -26.4073   20.8083 O   0  0  0  0  0  0  0  0  0  1  0  0
  -28.5629  -15.7378    8.9753 F   0  0  0  0  0  0  0  0  0  0  0  0
  -28.6732  -14.6718   13.5858 F   0  0  0  0  0  0  0  0  0  0  0  0
  1  2  1  0  0  0  0
  1  5  2  0  0  0  0
  2  6  2  0  0  0  0
  3  8  2  0  0  0  0
  3 15  1  0  0  0  0
  4  9  1  0  0  0  0
  4 15  2  0  0  0  0
  5 17  1  0  0  0  0
  6 19  1  0  0  0  0
  7 10  2  0  0  0  0
  7 18  1  0  0  0  0
  8 21  1  0  0  0  0
  9 21  2  0  0  0  0
 10 22  1  0  0  0  0
 11 12  2  0  0  0  0
 11 23  1  0  0  0  0
 12 24  1  0  0  0  0
 13 20  1  0  0  0  0
 13 22  2  0  0  0  0
 14 24  2  0  0  0  0
 14 25  1  0  0  0  0
 15 26  1  0  0  0  0
 16 26  1  0  0  0  0
 16 27  2  0  0  0  0
 16 28  1  0  0  0  0
 17 19  2  0  0  0  0
 17 33  1  0  0  0  0
 18 20  2  0  0  0  0
 18 34  1  0  0  0  0
 19 42  1  0  0  0  0
 20 35  1  0  0  0  0
 21 77  1  0  0  0  0
 22 78  1  0  0  0  0
 23 25  2  0  0  0  0
 23 77  1  0  0  0  0
 24 79  1  0  0  0  0
 25 80  1  0  0  0  0
 26 61  2  0  0  0  0
 27 62  1  0  0  0  0
 27 65  1  0  0  0  0
 28 66  1  0  0  0  0
 28 72  2  0  0  0  0
 29 43  1  0  0  0  0
 29 67  1  0  0  0  0
 29 73  2  0  0  0  0
 30 57  1  0  0  0  0
 30 63  1  0  0  0  0
 30 74  2  0  0  0  0
 31 58  1  0  0  0  0
 31 68  1  0  0  0  0
 31 75  2  0  0  0  0
 32 64  1  0  0  0  0
 32 69  1  0  0  0  0
 32 76  2  0  0  0  0
 33 36  1  0  0  0  0
 34 43  1  0  0  0  0
 35 63  1  0  0  0  0
 36 38  1  0  0  0  0
 37 39  1  0  0  0  0
 37 40  1  0  0  0  0
 38 42  1  0  0  0  0
 39 44  1  0  0  0  0
 40 64  1  0  0  0  0
 41 44  1  0  0  0  0
 41 64  1  0  0  0  0
 42 67  1  0  0  0  0
 43 63  1  0  0  0  0
 44 62  1  0  0  0  0
 45 58  1  0  0  0  0
 46 59  1  0  0  0  0
 47 60  1  0  0  0  0
 48 60  1  0  0  0  0
 49 60  1  0  0  0  0
 50 69  1  0  0  0  0
 51 70  1  0  0  0  0
 52 71  1  0  0  0  0
 53 56  1  0  0  0  0
 53 59  1  0  0  0  0
 54 55  1  0  0  0  0
 54 69  1  0  0  0  0
 55 71  1  0  0  0  0
 56 78  1  0  0  0  0
 57 60  1  0  0  0  0
 57 68  1  0  0  0  0
 58 70  1  0  0  0  0
 59 71  1  0  0  0  0
 61 62  1  0  0  0  0
M  CHG  2  70   1  71   1
M  ISO  4  32 100  56 101  69 100  78 101
M  END
> <Batch ID>
0104

> <Smiles>
CNC(C)C(=O)NC(C(=O)N1Cc2cc([101O:1][101CH2:1]CC(C)N(C)CC[100N:0](C)[100C:0](=O)N3CCCC(n4nc(-c5ccc(Oc6ccc(F)cc6F)cc5)c(C(N)=O)c4N)C3)ccc2CC1C(=O)NC1CCCc2ccccc21)C(C)(C)C

> <Shape>
0.186

> <Color>
0.054

> <Negative vol penalty>
0.000

$$$$

  -OEChem-04052319433D

 87 95  0     1  0  0  0  0  0999 V2000
  -19.8878  -23.6269   22.1591 C   0  0  0  0  0  0  0  0  0  0  0  0
  -21.0780  -24.0270   21.5600 C   0  0  0  0  0  0  0  0  0  0  0  0
  -26.3416  -13.5573   21.9226 C   0  0  0  0  0  0  0  0  0  0  0  0
  -25.4372  -14.0172   19.7300 C   0  0  0  0  0  0  0  0  0  0  0  0
  -18.9677  -24.5834   22.5861 C   0  0  0  0  0  0  0  0  0  0  0  0
  -21.3482  -25.3839   21.3865 C   0  0  0  0  0  0  0  0  0  0  0  0
  -26.0904  -26.6013   22.6806 C   0  0  0  0  0  0  0  0  0  0  0  0
  -26.7934  -24.4900   16.2378 C   0  0  0  0  0  0  0  0  0  0  0  0
  -25.5527  -12.4101   22.0074 C   0  0  0  0  0  0  0  0  0  0  0  0
  -24.6483  -12.8700   19.8148 C   0  0  0  0  0  0  0  0  0  0  0  0
  -27.0986  -26.2914   21.7690 C   0  0  0  0  0  0  0  0  0  0  0  0
  -22.1293  -10.2586   19.6033 C   0  0  0  0  0  0  0  0  0  0  0  0
  -20.7945  -10.3592   19.2112 C   0  0  0  0  0  0  0  0  0  0  0  0
  -27.4865  -25.6706   16.4812 C   0  0  0  0  0  0  0  0  0  0  0  0
  -27.1105  -28.5820   21.0126 C   0  0  0  0  0  0  0  0  0  0  0  0
  -20.4224  -12.0378   20.9086 C   0  0  0  0  0  0  0  0  0  0  0  0
  -26.2838  -14.3609   20.7839 C   0  0  0  0  0  0  0  0  0  0  0  0
  -28.4033  -15.6447   20.1780 C   0  0  0  0  0  0  0  0  0  0  0  0
  -19.2311  -25.9530   22.4265 C   0  0  0  0  0  0  0  0  0  0  0  0
  -25.5761  -27.9037   22.7576 C   0  0  0  0  0  0  0  0  0  0  0  0
  -20.4301  -26.3597   21.8106 C   0  0  0  0  0  0  0  0  0  0  0  0
  -26.0975  -28.9065   21.9278 C   0  0  0  0  0  0  0  0  0  0  0  0
  -27.1238  -23.3384   16.9434 C   0  0  0  0  0  0  0  0  0  0  0  0
  -24.7061  -12.0665   20.9535 C   0  0  0  0  0  0  0  0  0  0  0  0
  -27.6068  -27.2811   20.9328 C   0  0  0  0  0  0  0  0  0  0  0  0
  -22.6107  -11.0475   20.6482 C   0  0  0  0  0  0  0  0  0  0  0  0
  -19.9410  -11.2488   19.8639 C   0  0  0  0  0  0  0  0  0  0  0  0
  -21.7572  -11.9371   21.3008 C   0  0  0  0  0  0  0  0  0  0  0  0
  -27.0980  -15.5464   20.6960 C   0  0  0  0  0  0  0  0  0  0  0  0
  -28.4933  -25.6472   17.4327 C   0  0  0  0  0  0  0  0  0  0  0  0
  -28.1470  -23.4193   17.8741 C   0  0  0  0  0  0  0  0  0  0  0  0
  -28.7303  -16.9710   20.3204 C   0  0  0  0  0  0  0  0  0  0  0  0
  -29.2450  -14.6279   19.6181 C   0  0  0  0  0  0  0  0  0  0  0  0
  -22.7209  -29.2193   22.2876 C   0  0  0  0  0  0  0  0  0  0  0  0
  -24.1998  -31.8859   23.3941 C   0  0  0  0  0  0  0  0  0  0  0  0
  -27.1156  -33.5913   23.8807 C   0  0  0  0  0  0  0  0  0  0  0  0
  -25.4456  -21.9640   20.6840 C   0  0  0  0  0  0  0  0  0  0  0  0
  -18.1851  -26.9489   22.8611 C   0  0  0  0  0  0  0  0  0  0  0  0
  -24.5072  -28.2279   23.7649 C   0  0  0  0  0  0  0  0  0  0  0  0
  -25.5938  -30.3247   21.9852 C   0  0  0  0  0  0  0  0  0  0  0  0
  -18.7146  -28.3757   22.9799 C   0  0  0  0  0  0  0  0  0  0  0  0
  -27.8120  -20.7800   23.0662 C   0  0  0  0  0  0  0  0  0  0  0  0
  -19.5479  -28.7396   21.7552 C   0  0  0  0  0  0  0  0  0  0  0  0
  -28.0152  -19.3133   22.6822 C   0  0  0  0  0  0  0  0  0  0  0  0
  -26.3647  -21.2218   22.8614 C   0  0  0  0  0  0  0  0  0  0  0  0
  -26.0282  -19.5023   21.1282 C   0  0  0  0  0  0  0  0  0  0  0  0
  -20.7704  -27.8228   21.6274 C   0  0  1  0  0  0  0  0  0  0  0  0
  -23.6993  -29.4695   23.4002 C   0  0  1  0  0  0  0  0  0  0  0  0
  -27.4845  -19.0262   21.2647 C   0  0  2  0  0  0  0  0  0  0  0  0
  -28.5429  -22.2149   18.6638 C   0  0  0  0  0  0  0  0  0  0  0  0
  -28.0024  -35.7624   24.7735 C   0  0  0  0  0  0  0  0  0  0  0  0
  -23.2461  -33.3106   20.8701 C   0  0  0  0  0  0  0  0  0  0  0  0
  -24.9137  -35.1170   21.3435 C   0  0  0  0  0  0  0  0  0  0  0  0
  -23.0708  -34.6677   22.9635 C   0  0  0  0  0  0  0  0  0  0  0  0
  -28.7218  -32.2171   25.9521 C   0  0  0  0  0  0  0  0  0  0  0  0
  -26.1163  -19.8574   13.5196 C   0  0  0  0  0  0  0  0  0  0  0  0
  -26.2102  -19.2426   15.9308 C   0  0  0  0  0  0  0  0  0  0  0  0
  -29.2652  -26.9112   17.7238 C   0  0  0  0  0  0  0  0  0  0  0  0
  -24.8587  -22.1672   17.0005 C   0  0  0  0  0  0  0  0  0  0  0  0
  -24.5465  -22.5552   18.4477 C   0  0  0  0  0  0  0  0  0  0  0  0
  -26.6213  -21.5962   15.2294 C   0  0  0  0  0  0  0  0  0  0  0  0
  -28.6252  -27.7390   18.8329 C   0  0  0  0  0  0  0  0  0  1  0  0
  -26.3858  -22.0703   16.6861 C   0  0  1  0  0  0  0  0  0  0  0  0
  -24.9758  -33.0174   22.7644 C   0  0  1  0  0  0  0  0  0  0  0  0
  -27.6692  -34.3140   25.0955 C   0  0  2  0  0  0  0  0  0  0  0  0
  -24.0599  -34.0011   21.9827 C   0  0  0  0  0  0  0  0  0  0  0  0
  -26.6280  -16.7171   21.1349 N   0  0  0  0  0  0  0  0  0  0  0  0
  -28.8427  -24.5480   18.1380 N   0  0  0  0  0  0  0  0  0  0  0  0
  -27.6435  -17.5635   20.8931 N   0  0  0  0  0  0  0  0  0  0  0  0
  -24.5436  -30.5906   22.9823 N   0  0  0  0  0  0  0  0  0  0  0  0
  -25.9234  -20.9228   21.4969 N   0  0  0  0  0  0  0  0  0  0  0  0
  -29.8387  -17.6767   20.0105 N   0  0  0  0  0  0  0  0  0  0  0  0
  -28.7529  -13.3175   19.5470 N   0  0  0  0  0  0  0  0  0  0  0  0
  -21.8023  -28.2235   22.5596 N   0  0  0  0  0  0  0  0  0  0  0  0
  -25.7381  -33.6389   23.8418 N   0  0  0  0  0  0  0  0  0  0  0  0
  -25.0538  -21.5955   19.4029 N   0  0  0  0  0  0  0  0  0  0  0  0
  -28.9092  -33.6423   25.5773 N   0  3  0  0  0  0  0  0  0  0  0  0
  -25.8999  -20.3331   14.9351 N   0  3  0  0  0  0  0  0  0  0  0  0
  -30.4054  -14.8709   19.2084 O   0  0  0  0  0  0  0  0  0  0  0  0
  -22.7932  -29.8817   21.2592 O   0  0  0  0  0  0  0  0  0  0  0  0
  -23.3259  -32.1416   24.2263 O   0  0  0  0  0  0  0  0  0  0  0  0
  -27.8335  -33.0428   23.0475 O   0  0  0  0  0  0  0  0  0  0  0  0
  -25.3787  -23.1361   21.0695 O   0  0  0  0  0  0  0  0  0  0  0  0
  -23.9363  -10.9470   21.0358 O   0  0  0  0  0  0  0  0  0  0  0  0
  -28.5906  -26.9812   20.0416 O   0  0  0  0  0  0  0  0  0  1  0  0
  -18.6596  -11.3464   19.4862 F   0  0  0  0  0  0  0  0  0  0  0  0
  -22.2142  -12.6984   22.3044 F   0  0  0  0  0  0  0  0  0  0  0  0
  1  2  1  0  0  0  0
  1  5  2  0  0  0  0
  2  6  2  0  0  0  0
  3  9  2  0  0  0  0
  3 17  1  0  0  0  0
  4 10  1  0  0  0  0
  4 17  2  0  0  0  0
  5 19  1  0  0  0  0
  6 21  1  0  0  0  0
  7 11  2  0  0  0  0
  7 20  1  0  0  0  0
  8 14  2  0  0  0  0
  8 23  1  0  0  0  0
  9 24  1  0  0  0  0
 10 24  2  0  0  0  0
 11 25  1  0  0  0  0
 12 13  2  0  0  0  0
 12 26  1  0  0  0  0
 13 27  1  0  0  0  0
 14 30  1  0  0  0  0
 15 22  1  0  0  0  0
 15 25  2  0  0  0  0
 16 27  2  0  0  0  0
 16 28  1  0  0  0  0
 17 29  1  0  0  0  0
 18 29  1  0  0  0  0
 18 32  2  0  0  0  0
 18 33  1  0  0  0  0
 19 21  2  0  0  0  0
 19 38  1  0  0  0  0
 20 22  2  0  0  0  0
 20 39  1  0  0  0  0
 21 47  1  0  0  0  0
 22 40  1  0  0  0  0
 23 31  2  0  0  0  0
 23 63  1  0  0  0  0
 24 84  1  0  0  0  0
 25 85  1  0  0  0  0
 26 28  2  0  0  0  0
 26 84  1  0  0  0  0
 27 86  1  0  0  0  0
 28 87  1  0  0  0  0
 29 67  2  0  0  0  0
 30 58  1  0  0  0  0
 30 68  2  0  0  0  0
 31 50  1  0  0  0  0
 31 68  1  0  0  0  0
 32 69  1  0  0  0  0
 32 72  1  0  0  0  0
 33 73  1  0  0  0  0
 33 79  2  0  0  0  0
 34 48  1  0  0  0  0
 34 74  1  0  0  0  0
 34 80  2  0  0  0  0
 35 64  1  0  0  0  0
 35 70  1  0  0  0  0
 35 81  2  0  0  0  0
 36 65  1  0  0  0  0
 36 75  1  0  0  0  0
 36 82  2  0  0  0  0
 37 71  1  0  0  0  0
 37 76  1  0  0  0  0
 37 83  2  0  0  0  0
 38 41  1  0  0  0  0
 39 48  1  0  0  0  0
 40 70  1  0  0  0  0
 41 43  1  0  0  0  0
 42 44  1  0  0  0  0
 42 45  1  0  0  0  0
 43 47  1  0  0  0  0
 44 49  1  0  0  0  0
 45 71  1  0  0  0  0
 46 49  1  0  0  0  0
 46 71  1  0  0  0  0
 47 74  1  0  0  0  0
 48 70  1  0  0  0  0
 49 69  1  0  0  0  0
 51 65  1  0  0  0  0
 52 66  1  0  0  0  0
 53 66  1  0  0  0  0
 54 66  1  0  0  0  0
 55 77  1  0  0  0  0
 56 78  1  0  0  0  0
 57 78  1  0  0  0  0
 58 62  1  0  0  0  0
 59 60  1  0  0  0  0
 59 63  1  0  0  0  0
 60 76  1  0  0  0  0
 61 63  1  0  0  0  0
 61 78  1  0  0  0  0
 62 85  1  0  0  0  0
 64 66  1  0  0  0  0
 64 75  1  0  0  0  0
 65 77  1  0  0  0  0
 67 69  1  0  0  0  0
M  CHG  2  77   1  78   1
M  ISO  4  37 100  62 101  76 100  85 101
M  END
> <Batch ID>
0104

> <Smiles>
CNC(C)C(=O)NC(C(=O)N1Cc2cc([101O:1][101CH2:1]Cc3ccc(C(CC[100NH:0][100C:0](=O)N4CCCC(n5nc(-c6ccc(Oc7ccc(F)cc7F)cc6)c(C(N)=O)c5N)C4)CN(C)C)c(C)n3)ccc2CC1C(=O)NC1CCCc2ccccc21)C(C)(C)C

> <Shape>
0.252

> <Color>
0.100

> <Negative vol penalty>
0.000

$$$$

  -OEChem-04052319433D

 86 94  0     1  0  0  0  0  0999 V2000
  -23.4977  -31.8931   26.5848 C   0  0  0  0  0  0  0  0  0  0  0  0
  -24.0434  -30.6142   26.6304 C   0  0  0  0  0  0  0  0  0  0  0  0
  -23.2250   -9.8277   19.9809 C   0  0  0  0  0  0  0  0  0  0  0  0
  -23.9200   -9.9592   22.2910 C   0  0  0  0  0  0  0  0  0  0  0  0
  -22.9606  -32.3785   25.3932 C   0  0  0  0  0  0  0  0  0  0  0  0
  -24.0513  -29.8195   25.4846 C   0  0  0  0  0  0  0  0  0  0  0  0
  -27.9579  -24.7883   22.2070 C   0  0  0  0  0  0  0  0  0  0  0  0
  -22.5426   -8.6421   20.2536 C   0  0  0  0  0  0  0  0  0  0  0  0
  -23.2375   -8.7736   22.5638 C   0  0  0  0  0  0  0  0  0  0  0  0
  -27.8292  -23.5148   21.6546 C   0  0  0  0  0  0  0  0  0  0  0  0
  -20.0457   -7.8085   23.1129 C   0  0  0  0  0  0  0  0  0  0  0  0
  -19.2605   -7.7649   24.2649 C   0  0  0  0  0  0  0  0  0  0  0  0
  -26.9451  -24.4880   19.6321 C   0  0  0  0  0  0  0  0  0  0  0  0
  -20.5914   -5.9307   25.1025 C   0  0  0  0  0  0  0  0  0  0  0  0
  -23.9137  -10.4862   20.9996 C   0  0  0  0  0  0  0  0  0  0  0  0
  -24.1118  -13.0214   20.7966 C   0  0  0  0  0  0  0  0  0  0  0  0
  -22.9707  -31.5930   24.2298 C   0  0  0  0  0  0  0  0  0  0  0  0
  -27.5703  -25.9225   21.4790 C   0  0  0  0  0  0  0  0  0  0  0  0
  -23.5127  -30.2943   24.2767 C   0  0  0  0  0  0  0  0  0  0  0  0
  -27.0723  -25.7750   20.1766 C   0  0  0  0  0  0  0  0  0  0  0  0
  -22.5489   -8.1151   21.5451 C   0  0  0  0  0  0  0  0  0  0  0  0
  -27.3200  -23.3642   20.3681 C   0  0  0  0  0  0  0  0  0  0  0  0
  -21.1038   -6.9132   22.9556 C   0  0  0  0  0  0  0  0  0  0  0  0
  -19.5334   -6.8260   25.2597 C   0  0  0  0  0  0  0  0  0  0  0  0
  -21.3766   -5.9743   23.9504 C   0  0  0  0  0  0  0  0  0  0  0  0
  -24.6193  -11.7106   20.7183 C   0  0  0  0  0  0  0  0  0  0  0  0
  -25.1682  -13.8208   20.4341 C   0  0  0  0  0  0  0  0  0  0  0  0
  -22.8025  -13.4757   21.1641 C   0  0  0  0  0  0  0  0  0  0  0  0
  -25.4020  -28.2120   21.8794 C   0  0  0  0  0  0  0  0  0  0  0  0
  -26.8230  -29.4780   19.2525 C   0  0  0  0  0  0  0  0  0  0  0  0
  -28.6752  -28.9693   16.4316 C   0  0  0  0  0  0  0  0  0  0  0  0
  -30.9261  -14.1257   20.9525 C   0  0  0  0  0  0  0  0  0  0  0  0
  -22.3359  -32.1429   22.9771 C   0  0  0  0  0  0  0  0  0  0  0  0
  -27.7404  -27.2912   22.0791 C   0  0  0  0  0  0  0  0  0  0  0  0
  -26.6609  -26.9620   19.3458 C   0  0  0  0  0  0  0  0  0  0  0  0
  -22.7215  -31.3789   21.7130 C   0  0  0  0  0  0  0  0  0  0  0  0
  -24.7820  -18.9406   17.5757 C   0  0  0  0  0  0  0  0  0  0  0  0
  -23.9829  -19.5306   18.7334 C   0  0  0  0  0  0  0  0  0  0  0  0
  -26.1113  -18.3608   18.0494 C   0  0  0  0  0  0  0  0  0  0  0  0
  -29.3642  -13.1199   17.9152 C   0  0  0  0  0  0  0  0  0  0  0  0
  -22.6070  -29.8752   21.9422 C   0  0  0  0  0  0  0  0  0  0  0  0
  -24.7971  -20.5611   19.5123 C   0  0  0  0  0  0  0  0  0  0  0  0
  -26.9291  -19.3888   18.8280 C   0  0  0  0  0  0  0  0  0  0  0  0
  -27.9342  -12.7758   18.3356 C   0  0  0  0  0  0  0  0  0  0  0  0
  -30.3782  -12.7229   18.9857 C   0  0  0  0  0  0  0  0  0  0  0  0
  -28.6701  -12.9146   20.7518 C   0  0  0  0  0  0  0  0  0  0  0  0
  -23.5622  -29.4115   23.0486 C   0  0  1  0  0  0  0  0  0  0  0  0
  -26.8338  -28.3398   21.4420 C   0  0  1  0  0  0  0  0  0  0  0  0
  -26.1312  -19.9790   19.9988 C   0  0  0  0  0  0  0  0  0  0  0  0
  -27.6064  -13.3472   19.7283 C   0  0  2  0  0  0  0  0  0  0  0  0
  -29.6447  -30.1898   14.4649 C   0  0  0  0  0  0  0  0  0  0  0  0
  -26.1553  -21.5912   21.9173 C   0  0  0  0  0  0  0  0  0  0  0  0
  -24.0563  -29.6079   17.9724 C   0  0  0  0  0  0  0  0  0  0  0  0
  -25.1740  -29.9156   15.7533 C   0  0  0  0  0  0  0  0  0  0  0  0
  -25.4940  -31.6111   17.5549 C   0  0  0  0  0  0  0  0  0  0  0  0
  -31.4399  -28.2367   17.1923 C   0  0  0  0  0  0  0  0  0  0  0  0
  -30.0551  -19.7403   23.7344 C   0  0  0  0  0  0  0  0  0  0  0  0
  -31.1133  -16.9786   22.6402 C   0  0  0  0  0  0  0  0  0  0  0  0
  -28.3094  -20.5038   21.2163 C   0  0  0  0  0  0  0  0  0  0  0  0
  -31.3225  -15.5061   22.9765 C   0  0  0  0  0  0  0  0  0  0  0  0
  -29.6792  -17.4290   22.8875 C   0  0  0  0  0  0  0  0  0  0  0  0
  -28.2037  -19.2871   22.1316 C   0  0  0  0  0  0  0  0  0  0  0  0
  -26.6172  -29.3556   17.7620 C   0  0  1  0  0  0  0  0  0  0  0  0
  -29.8909  -29.6926   15.8808 C   0  0  2  0  0  0  0  0  0  0  0  0
  -26.9499  -21.0427   20.7278 C   0  0  1  0  0  0  0  0  0  1  0  0
  -25.3412  -30.0998   17.2768 C   0  0  0  0  0  0  0  0  0  0  0  0
  -25.8986  -11.6749   20.3360 N   0  0  0  0  0  0  0  0  0  0  0  0
  -26.2038  -12.9732   20.1707 N   0  0  0  0  0  0  0  0  0  0  0  0
  -26.8404  -28.2789   19.9790 N   0  0  0  0  0  0  0  0  0  0  0  0
  -30.0105  -13.2981   20.2818 N   0  0  0  0  0  0  0  0  0  0  0  0
  -25.3031  -15.1590   20.3181 N   0  0  0  0  0  0  0  0  0  0  0  0
  -21.8361  -12.5208   21.5084 N   0  0  0  0  0  0  0  0  0  0  0  0
  -24.9154  -29.3218   22.5433 N   0  0  0  0  0  0  0  0  0  0  0  0
  -27.8525  -29.8195   17.1399 N   0  0  0  0  0  0  0  0  0  0  0  0
  -30.4957  -14.6345   22.1718 N   0  0  0  0  0  0  0  0  0  0  0  0
  -31.0704  -28.7818   15.8607 N   0  3  0  0  0  0  0  0  0  0  0  0
  -29.5657  -18.9017   22.5798 N   0  3  1  0  0  0  0  0  0  0  0  0
  -22.4939  -14.6916   21.1707 O   0  0  0  0  0  0  0  0  0  0  0  0
  -24.7840  -27.1832   21.6314 O   0  0  0  0  0  0  0  0  0  0  0  0
  -26.9702  -30.5959   19.7528 O   0  0  0  0  0  0  0  0  0  0  0  0
  -28.4735  -27.7709   16.2485 O   0  0  0  0  0  0  0  0  0  0  0  0
  -32.0421  -14.3956   20.4960 O   0  0  0  0  0  0  0  0  0  0  0  0
  -21.8829   -6.9584   21.8117 O   0  0  0  0  0  0  0  0  0  0  0  0
  -27.1928  -22.1222   19.8267 O   0  0  0  0  0  0  0  0  0  1  0  0
  -18.7802   -6.7852   26.3666 F   0  0  0  0  0  0  0  0  0  0  0  0
  -22.3925   -5.1124   23.8055 F   0  0  0  0  0  0  0  0  0  0  0  0
  1  2  1  0  0  0  0
  1  5  2  0  0  0  0
  2  6  2  0  0  0  0
  3  8  2  0  0  0  0
  3 15  1  0  0  0  0
  4  9  1  0  0  0  0
  4 15  2  0  0  0  0
  5 17  1  0  0  0  0
  6 19  1  0  0  0  0
  7 10  2  0  0  0  0
  7 18  1  0  0  0  0
  8 21  1  0  0  0  0
  9 21  2  0  0  0  0
 10 22  1  0  0  0  0
 11 12  2  0  0  0  0
 11 23  1  0  0  0  0
 12 24  1  0  0  0  0
 13 20  1  0  0  0  0
 13 22  2  0  0  0  0
 14 24  2  0  0  0  0
 14 25  1  0  0  0  0
 15 26  1  0  0  0  0
 16 26  1  0  0  0  0
 16 27  2  0  0  0  0
 16 28  1  0  0  0  0
 17 19  2  0  0  0  0
 17 33  1  0  0  0  0
 18 20  2  0  0  0  0
 18 34  1  0  0  0  0
 19 47  1  0  0  0  0
 20 35  1  0  0  0  0
 21 83  1  0  0  0  0
 22 84  1  0  0  0  0
 23 25  2  0  0  0  0
 23 83  1  0  0  0  0
 24 85  1  0  0  0  0
 25 86  1  0  0  0  0
 26 67  2  0  0  0  0
 27 68  1  0  0  0  0
 27 71  1  0  0  0  0
 28 72  1  0  0  0  0
 28 78  2  0  0  0  0
 29 48  1  0  0  0  0
 29 73  1  0  0  0  0
 29 79  2  0  0  0  0
 30 63  1  0  0  0  0
 30 69  1  0  0  0  0
 30 80  2  0  0  0  0
 31 64  1  0  0  0  0
 31 74  1  0  0  0  0
 31 81  2  0  0  0  0
 32 70  1  0  0  0  0
 32 75  1  0  0  0  0
 32 82  2  0  0  0  0
 33 36  1  0  0  0  0
 34 48  1  0  0  0  0
 35 69  1  0  0  0  0
 36 41  1  0  0  0  0
 37 38  1  0  0  0  0
 37 39  1  0  0  0  0
 38 42  1  0  0  0  0
 39 43  1  0  0  0  0
 40 44  1  0  0  0  0
 40 45  1  0  0  0  0
 41 47  1  0  0  0  0
 42 49  1  0  0  0  0
 43 49  1  0  0  0  0
 44 50  1  0  0  0  0
 45 70  1  0  0  0  0
 46 50  1  0  0  0  0
 46 70  1  0  0  0  0
 47 73  1  0  0  0  0
 48 69  1  0  0  0  0
 49 65  1  0  0  0  0
 50 68  1  0  0  0  0
 51 64  1  0  0  0  0
 52 65  1  0  0  0  0
 53 66  1  0  0  0  0
 54 66  1  0  0  0  0
 55 66  1  0  0  0  0
 56 76  1  0  0  0  0
 57 77  1  0  0  0  0
 58 60  1  0  0  0  0
 58 61  1  0  0  0  0
 59 62  1  0  0  0  0
 59 65  1  0  0  0  0
 60 75  1  0  0  0  0
 61 77  1  0  0  0  0
 62 77  1  0  0  0  0
 63 66  1  0  0  0  0
 63 74  1  0  0  0  0
 64 76  1  0  0  0  0
 65 84  1  0  0  0  0
 67 68  1  0  0  0  0
M  CHG  2  76   1  77   1
M  ISO  4  32 100  65 101  75 100  84 101
M  END
> <Batch ID>
0104

> <Smiles>
CNC(C)C(=O)NC(C(=O)N1Cc2cc([101O:1][101C:1](C)(CCN(C)CCC[100NH:0][100C:0](=O)N3CCCC(n4nc(-c5ccc(Oc6ccc(F)cc6F)cc5)c(C(N)=O)c4N)C3)C3CCCCC3)ccc2CC1C(=O)NC1CCCc2ccccc21)C(C)(C)C

> <Shape>
0.270

> <Color>
0.186

> <Negative vol penalty>
0.000

$$$$

  -OEChem-04052319433D

 82 90  0     1  0  0  0  0  0999 V2000
  -27.1771  -36.5307   19.1108 C   0  0  0  0  0  0  0  0  0  0  0  0
  -27.6418  -35.2479   19.3829 C   0  0  0  0  0  0  0  0  0  0  0  0
  -26.3314  -12.3206   20.7930 C   0  0  0  0  0  0  0  0  0  0  0  0
  -24.5663  -13.9199   20.3883 C   0  0  0  0  0  0  0  0  0  0  0  0
  -26.1023  -37.0490   19.8320 C   0  0  0  0  0  0  0  0  0  0  0  0
  -27.0327  -34.4832   20.3772 C   0  0  0  0  0  0  0  0  0  0  0  0
  -26.2128  -29.7024   18.9222 C   0  0  0  0  0  0  0  0  0  0  0  0
  -25.3947  -11.4107   21.2831 C   0  0  0  0  0  0  0  0  0  0  0  0
  -23.6295  -13.0100   20.8784 C   0  0  0  0  0  0  0  0  0  0  0  0
  -27.3054  -28.8365   18.9356 C   0  0  0  0  0  0  0  0  0  0  0  0
  -23.1180   -9.2546   20.0180 C   0  0  0  0  0  0  0  0  0  0  0  0
  -23.2117   -7.9317   19.5860 C   0  0  0  0  0  0  0  0  0  0  0  0
  -26.5561  -27.9333   21.0432 C   0  0  0  0  0  0  0  0  0  0  0  0
  -23.5161   -7.2071   21.8706 C   0  0  0  0  0  0  0  0  0  0  0  0
  -28.6960  -23.7583   20.6544 C   0  0  0  0  0  0  0  0  0  0  0  0
  -27.8108  -23.6372   18.6010 C   0  0  0  0  0  0  0  0  0  0  0  0
  -25.9172  -13.5752   20.3457 C   0  0  0  0  0  0  0  0  0  0  0  0
  -27.3172  -14.6566   18.5076 C   0  0  0  0  0  0  0  0  0  0  0  0
  -25.4736  -36.2866   20.8290 C   0  0  0  0  0  0  0  0  0  0  0  0
  -25.2881  -29.6978   19.9763 C   0  0  0  0  0  0  0  0  0  0  0  0
  -25.9494  -34.9923   21.1133 C   0  0  0  0  0  0  0  0  0  0  0  0
  -25.4512  -28.7983   21.0396 C   0  0  0  0  0  0  0  0  0  0  0  0
  -27.6971  -22.8106   20.6923 C   0  0  0  0  0  0  0  0  0  0  0  0
  -27.1370  -22.7341   19.3933 C   0  0  0  0  0  0  0  0  0  0  0  0
  -24.0437  -11.7554   21.3258 C   0  0  0  0  0  0  0  0  0  0  0  0
  -27.4788  -27.9538   19.9976 C   0  0  0  0  0  0  0  0  0  0  0  0
  -23.2234   -9.5538   21.3763 C   0  0  0  0  0  0  0  0  0  0  0  0
  -23.4108   -6.9079   20.5123 C   0  0  0  0  0  0  0  0  0  0  0  0
  -23.4224   -8.5301   22.3026 C   0  0  0  0  0  0  0  0  0  0  0  0
  -26.8845  -14.5158   19.8398 C   0  0  0  0  0  0  0  0  0  0  0  0
  -28.2329  -15.6794   18.5503 C   0  0  0  0  0  0  0  0  0  0  0  0
  -26.9263  -13.9280   17.3363 C   0  0  0  0  0  0  0  0  0  0  0  0
  -24.3349  -31.8291   22.1334 C   0  0  0  0  0  0  0  0  0  0  0  0
  -22.1828  -29.5227   22.8892 C   0  0  0  0  0  0  0  0  0  0  0  0
  -21.3593  -26.2108   22.8723 C   0  0  0  0  0  0  0  0  0  0  0  0
  -29.0229  -20.2916   22.2859 C   0  0  0  0  0  0  0  0  0  0  0  0
  -24.3456  -36.9073   21.6145 C   0  0  0  0  0  0  0  0  0  0  0  0
  -24.1002  -30.6195   19.9339 C   0  0  0  0  0  0  0  0  0  0  0  0
  -24.4757  -28.7398   22.1856 C   0  0  0  0  0  0  0  0  0  0  0  0
  -23.5156  -35.8914   22.3950 C   0  0  0  0  0  0  0  0  0  0  0  0
  -31.3913  -17.7575   21.4824 C   0  0  0  0  0  0  0  0  0  0  0  0
  -24.4246  -34.9205   23.1420 C   0  0  0  0  0  0  0  0  0  0  0  0
  -30.5438  -16.6520   20.8501 C   0  0  0  0  0  0  0  0  0  0  0  0
  -30.6506  -18.4547   22.6214 C   0  0  0  0  0  0  0  0  0  0  0  0
  -28.4698  -17.8698   21.6338 C   0  0  0  0  0  0  0  0  0  0  0  0
  -25.2991  -34.1226   22.1672 C   0  0  1  0  0  0  0  0  0  0  0  0
  -23.5017  -30.8868   21.3115 C   0  0  1  0  0  0  0  0  0  0  0  0
  -29.1530  -17.1749   20.4435 C   0  0  2  0  0  0  0  0  0  0  0  0
  -24.8178  -22.6115   18.3936 C   0  0  0  0  0  0  0  0  0  0  0  0
  -19.5525  -24.6265   23.5952 C   0  0  0  0  0  0  0  0  0  0  0  0
  -23.1457  -29.7455   25.7759 C   0  0  0  0  0  0  0  0  0  0  0  0
  -22.0331  -27.5519   26.2430 C   0  0  0  0  0  0  0  0  0  0  0  0
  -20.6693  -29.5106   25.5174 C   0  0  0  0  0  0  0  0  0  0  0  0
  -20.8481  -25.3413   20.0900 C   0  0  0  0  0  0  0  0  0  0  0  0
  -27.2942  -22.0243   21.8752 C   0  0  0  0  0  0  0  0  0  0  0  0
  -29.7184  -25.3145   18.9009 C   0  0  0  0  0  0  0  0  0  0  0  0
  -29.0511  -26.6773   18.7508 C   0  0  0  0  0  0  0  0  0  1  0  0
  -26.0350  -21.8540   18.9571 C   0  0  1  0  0  0  0  0  0  0  0  0
  -22.1621  -28.3497   23.8393 C   0  0  1  0  0  0  0  0  0  0  0  0
  -20.0865  -25.4914   22.4640 C   0  0  2  0  0  0  0  0  0  0  0  0
  -22.0222  -28.7916   25.3234 C   0  0  0  0  0  0  0  0  0  0  0  0
  -27.4767  -15.3799   20.6684 N   0  0  0  0  0  0  0  0  0  0  0  0
  -28.7564  -24.2538   19.3781 N   0  0  0  0  0  0  0  0  0  0  0  0
  -28.2910  -16.0734   19.8548 N   0  0  0  0  0  0  0  0  0  0  0  0
  -23.3339  -29.6653   22.1014 N   0  0  0  0  0  0  0  0  0  0  0  0
  -29.3401  -18.9282   22.1696 N   0  0  0  0  0  0  0  0  0  0  0  0
  -28.9861  -16.2710   17.5990 N   0  0  0  0  0  0  0  0  0  0  0  0
  -25.9734  -12.9090   17.4702 N   0  0  0  0  0  0  0  0  0  0  0  0
  -24.5295  -33.0653   21.5473 N   0  0  0  0  0  0  0  0  0  0  0  0
  -21.0968  -27.4675   23.3755 N   0  0  0  0  0  0  0  0  0  0  0  0
  -27.7629  -20.6572   21.8282 N   0  0  0  0  0  0  0  0  0  0  0  0
  -26.4370  -20.8418   17.9122 N   0  3  0  0  0  0  0  0  0  0  0  0
  -20.3411  -24.6174   21.2841 N   0  3  0  0  0  0  0  0  0  0  0  0
  -27.4199  -14.1624   16.2071 O   0  0  0  0  0  0  0  0  0  0  0  0
  -24.7678  -31.4624   23.2195 O   0  0  0  0  0  0  0  0  0  0  0  0
  -21.2104  -30.2802   22.8424 O   0  0  0  0  0  0  0  0  0  0  0  0
  -22.4746  -25.7069   22.7598 O   0  0  0  0  0  0  0  0  0  0  0  0
  -29.8066  -21.1225   22.7573 O   0  0  0  0  0  0  0  0  0  0  0  0
  -23.1294  -10.8677   21.8038 O   0  0  0  0  0  0  0  0  0  0  0  0
  -28.5448  -27.1080   20.0135 O   0  0  0  0  0  0  0  0  0  1  0  0
  -23.4992   -5.6374   20.0974 F   0  0  0  0  0  0  0  0  0  0  0  0
  -23.5233   -8.8113   23.6090 F   0  0  0  0  0  0  0  0  0  0  0  0
  1  2  1  0  0  0  0
  1  5  2  0  0  0  0
  2  6  2  0  0  0  0
  3  8  2  0  0  0  0
  3 17  1  0  0  0  0
  4  9  1  0  0  0  0
  4 17  2  0  0  0  0
  5 19  1  0  0  0  0
  6 21  1  0  0  0  0
  7 10  2  0  0  0  0
  7 20  1  0  0  0  0
  8 25  1  0  0  0  0
  9 25  2  0  0  0  0
 10 26  1  0  0  0  0
 11 12  2  0  0  0  0
 11 27  1  0  0  0  0
 12 28  1  0  0  0  0
 13 22  1  0  0  0  0
 13 26  2  0  0  0  0
 14 28  2  0  0  0  0
 14 29  1  0  0  0  0
 15 23  2  0  0  0  0
 15 63  1  0  0  0  0
 16 24  2  0  0  0  0
 16 63  1  0  0  0  0
 17 30  1  0  0  0  0
 18 30  1  0  0  0  0
 18 31  2  0  0  0  0
 18 32  1  0  0  0  0
 19 21  2  0  0  0  0
 19 37  1  0  0  0  0
 20 22  2  0  0  0  0
 20 38  1  0  0  0  0
 21 46  1  0  0  0  0
 22 39  1  0  0  0  0
 23 24  1  0  0  0  0
 23 55  1  0  0  0  0
 24 58  1  0  0  0  0
 25 79  1  0  0  0  0
 26 80  1  0  0  0  0
 27 29  2  0  0  0  0
 27 79  1  0  0  0  0
 28 81  1  0  0  0  0
 29 82  1  0  0  0  0
 30 62  2  0  0  0  0
 31 64  1  0  0  0  0
 31 67  1  0  0  0  0
 32 68  1  0  0  0  0
 32 74  2  0  0  0  0
 33 47  1  0  0  0  0
 33 69  1  0  0  0  0
 33 75  2  0  0  0  0
 34 59  1  0  0  0  0
 34 65  1  0  0  0  0
 34 76  2  0  0  0  0
 35 60  1  0  0  0  0
 35 70  1  0  0  0  0
 35 77  2  0  0  0  0
 36 66  1  0  0  0  0
 36 71  1  0  0  0  0
 36 78  2  0  0  0  0
 37 40  1  0  0  0  0
 38 47  1  0  0  0  0
 39 65  1  0  0  0  0
 40 42  1  0  0  0  0
 41 43  1  0  0  0  0
 41 44  1  0  0  0  0
 42 46  1  0  0  0  0
 43 48  1  0  0  0  0
 44 66  1  0  0  0  0
 45 48  1  0  0  0  0
 45 66  1  0  0  0  0
 46 69  1  0  0  0  0
 47 65  1  0  0  0  0
 48 64  1  0  0  0  0
 49 58  1  0  0  0  0
 50 60  1  0  0  0  0
 51 61  1  0  0  0  0
 52 61  1  0  0  0  0
 53 61  1  0  0  0  0
 54 73  1  0  0  0  0
 55 71  1  0  0  0  0
 56 57  1  0  0  0  0
 56 63  1  0  0  0  0
 57 80  1  0  0  0  0
 58 72  1  0  0  0  0
 59 61  1  0  0  0  0
 59 70  1  0  0  0  0
 60 73  1  0  0  0  0
 62 64  1  0  0  0  0
M  CHG  2  72   1  73   1
M  ISO  4  36 100  57 101  71 100  80 101
M  END
> <Batch ID>
0104

> <Smiles>
CNC(C)C(=O)NC(C(=O)N1Cc2cc([101O:1][101CH2:1]Cn3cc(C[100NH:0][100C:0](=O)N4CCCC(n5nc(-c6ccc(Oc7ccc(F)cc7F)cc6)c(C(N)=O)c5N)C4)c(C(C)N)c3)ccc2CC1C(=O)NC1CCCc2ccccc21)C(C)(C)C

> <Shape>
0.268

> <Color>
0.069

> <Negative vol penalty>
0.000

$$$$

  -OEChem-04052319433D

 88 96  0     1  0  0  0  0  0999 V2000
  -27.5625  -21.3107   11.7277 C   0  0  0  0  0  0  0  0  0  0  0  0
  -28.7378  -20.6384   12.0472 C   0  0  0  0  0  0  0  0  0  0  0  0
  -23.2248   -9.8186   19.9675 C   0  0  0  0  0  0  0  0  0  0  0  0
  -23.7109   -9.9867   22.3281 C   0  0  0  0  0  0  0  0  0  0  0  0
  -27.0675  -22.2928   12.5847 C   0  0  0  0  0  0  0  0  0  0  0  0
  -29.4195  -20.9486   13.2234 C   0  0  0  0  0  0  0  0  0  0  0  0
  -32.5481  -17.0806   16.7950 C   0  0  0  0  0  0  0  0  0  0  0  0
  -22.4552   -8.6802   20.2070 C   0  0  0  0  0  0  0  0  0  0  0  0
  -22.9412   -8.8483   22.5676 C   0  0  0  0  0  0  0  0  0  0  0  0
  -33.9079  -16.7904   16.8979 C   0  0  0  0  0  0  0  0  0  0  0  0
  -19.6636   -8.0719   22.8416 C   0  0  0  0  0  0  0  0  0  0  0  0
  -18.7747   -8.1067   23.9159 C   0  0  0  0  0  0  0  0  0  0  0  0
  -34.0953  -18.3476   18.7307 C   0  0  0  0  0  0  0  0  0  0  0  0
  -36.6571  -12.9604   20.1282 C   0  0  0  0  0  0  0  0  0  0  0  0
  -19.9187   -6.2321   24.9232 C   0  0  0  0  0  0  0  0  0  0  0  0
  -23.8527  -10.4718   21.0280 C   0  0  0  0  0  0  0  0  0  0  0  0
  -24.2097  -12.9852   20.7765 C   0  0  0  0  0  0  0  0  0  0  0  0
  -27.7383  -22.6084   13.7768 C   0  0  0  0  0  0  0  0  0  0  0  0
  -31.9530  -18.0162   17.6535 C   0  0  0  0  0  0  0  0  0  0  0  0
  -28.9337  -21.9368   14.0965 C   0  0  0  0  0  0  0  0  0  0  0  0
  -32.7273  -18.6460   18.6383 C   0  0  0  0  0  0  0  0  0  0  0  0
  -36.5342  -14.3569   20.3330 C   0  0  0  0  0  0  0  0  0  0  0  0
  -22.3134   -8.1951   21.5070 C   0  0  0  0  0  0  0  0  0  0  0  0
  -34.6823  -17.4261   17.8640 C   0  0  0  0  0  0  0  0  0  0  0  0
  -20.6800   -7.1171   22.8080 C   0  0  0  0  0  0  0  0  0  0  0  0
  -18.9022   -7.1868   24.9567 C   0  0  0  0  0  0  0  0  0  0  0  0
  -20.8076   -6.1973   23.8488 C   0  0  0  0  0  0  0  0  0  0  0  0
  -24.6483  -11.6475   20.7812 C   0  0  0  0  0  0  0  0  0  0  0  0
  -35.5429  -12.3646   20.6767 C   0  0  0  0  0  0  0  0  0  0  0  0
  -35.3487  -14.5719   21.0005 C   0  0  0  0  0  0  0  0  0  0  0  0
  -25.3379  -13.7154   20.4931 C   0  0  0  0  0  0  0  0  0  0  0  0
  -22.8996  -13.5198   21.0078 C   0  0  0  0  0  0  0  0  0  0  0  0
  -30.4759  -20.8027   17.2569 C   0  0  0  0  0  0  0  0  0  0  0  0
  -29.9212  -20.5188   20.4403 C   0  0  0  0  0  0  0  0  0  0  0  0
  -30.8550  -19.1755   23.4354 C   0  0  0  0  0  0  0  0  0  0  0  0
  -31.0682  -12.6053   21.3758 C   0  0  0  0  0  0  0  0  0  0  0  0
  -27.1901  -23.7106   14.6482 C   0  0  0  0  0  0  0  0  0  0  0  0
  -30.4794  -18.2983   17.5470 C   0  0  0  0  0  0  0  0  0  0  0  0
  -32.1322  -19.6431   19.5975 C   0  0  0  0  0  0  0  0  0  0  0  0
  -27.7715  -23.7173   16.0597 C   0  0  0  0  0  0  0  0  0  0  0  0
  -29.5285  -13.3962   18.2007 C   0  0  0  0  0  0  0  0  0  0  0  0
  -29.2885  -23.5639   16.0129 C   0  0  0  0  0  0  0  0  0  0  0  0
  -28.0491  -13.1617   18.5126 C   0  0  0  0  0  0  0  0  0  0  0  0
  -30.4104  -12.3708   18.9065 C   0  0  0  0  0  0  0  0  0  0  0  0
  -28.7440  -12.0735   20.6979 C   0  0  0  0  0  0  0  0  0  0  0  0
  -29.6885  -22.2278   15.3755 C   0  0  1  0  0  0  0  0  0  0  0  0
  -30.0855  -19.6490   18.1369 C   0  0  1  0  0  0  0  0  0  0  0  0
  -27.8002  -13.0908   20.0312 C   0  0  2  0  0  0  0  0  0  0  0  0
  -34.7305  -15.8333   21.4619 C   0  0  0  0  0  0  0  0  0  0  0  0
  -36.1716  -10.0846   21.5485 C   0  0  0  0  0  0  0  0  0  0  0  0
  -34.9688  -10.3036   19.3438 C   0  0  0  0  0  0  0  0  0  0  0  0
  -30.2311  -19.1565   25.8660 C   0  0  0  0  0  0  0  0  0  0  0  0
  -40.3778  -15.1411   22.6013 C   0  0  0  0  0  0  0  0  0  0  0  0
  -38.4345  -16.7147   22.5719 C   0  0  0  0  0  0  0  0  0  0  0  0
  -31.1482  -23.2924   20.7744 C   0  0  0  0  0  0  0  0  0  0  0  0
  -31.3701  -22.8229   23.2236 C   0  0  0  0  0  0  0  0  0  0  0  0
  -29.1117  -22.8781   22.1656 C   0  0  0  0  0  0  0  0  0  0  0  0
  -30.3505  -16.2594   23.4025 C   0  0  0  0  0  0  0  0  0  0  0  0
  -37.6955  -15.4486   18.3515 C   0  0  0  0  0  0  0  0  0  0  0  0
  -38.9198  -15.2230   20.5553 C   0  0  0  0  0  0  0  0  0  0  0  0
  -36.4267  -15.8327   17.5917 C   0  0  0  0  0  0  0  0  0  1  0  0
  -33.4411  -13.1355   21.8994 C   0  0  0  0  0  0  0  0  0  0  0  0
  -37.5319  -15.4166   19.8929 C   0  0  2  0  0  0  0  0  0  0  0  0
  -35.1671  -10.9372   20.7398 C   0  0  0  0  0  0  0  0  0  0  0  0
  -30.6540  -20.9310   21.6941 C   0  0  1  0  0  0  0  0  0  0  0  0
  -30.0547  -18.4744   24.5182 C   0  0  2  0  0  0  0  0  0  0  0  0
  -38.9486  -15.3562   22.0937 C   0  0  0  0  0  0  0  0  0  0  0  0
  -30.5829  -22.4638   21.9453 C   0  0  0  0  0  0  0  0  0  0  0  0
  -25.9533  -11.5318   20.5212 N   0  0  0  0  0  0  0  0  0  0  0  0
  -34.7547  -13.3538   21.2044 N   0  0  0  0  0  0  0  0  0  0  0  0
  -26.3444  -12.8062   20.3504 N   0  0  0  0  0  0  0  0  0  0  0  0
  -30.6883  -19.8900   19.4494 N   0  0  0  0  0  0  0  0  0  0  0  0
  -30.1376  -12.3690   20.3505 N   0  0  0  0  0  0  0  0  0  0  0  0
  -25.5572  -15.0402   20.3543 N   0  0  0  0  0  0  0  0  0  0  0  0
  -21.8539  -12.6290   21.2857 N   0  0  0  0  0  0  0  0  0  0  0  0
  -29.5186  -21.1457   16.3213 N   0  0  0  0  0  0  0  0  0  0  0  0
  -30.1008  -20.1222   22.7749 N   0  0  0  0  0  0  0  0  0  0  0  0
  -32.3675  -12.8678   20.9570 N   0  0  0  0  0  0  0  0  0  0  0  0
  -30.4916  -17.0556   24.6488 N   0  3  0  0  0  0  0  0  0  0  0  0
  -22.6599  -14.7499   20.9528 O   0  0  0  0  0  0  0  0  0  0  0  0
  -31.5643  -21.3427   17.4161 O   0  0  0  0  0  0  0  0  0  0  0  0
  -28.7113  -20.7399   20.3467 O   0  0  0  0  0  0  0  0  0  0  0  0
  -32.0325  -18.9124   23.2015 O   0  0  0  0  0  0  0  0  0  0  0  0
  -30.7640  -12.5874   22.5731 O   0  0  0  0  0  0  0  0  0  0  0  0
  -21.5623   -7.0844   21.7411 O   0  0  0  0  0  0  0  0  0  0  0  0
  -36.0099  -17.1451   17.9662 O   0  0  0  0  0  0  0  0  0  1  0  0
  -18.0495   -7.2213   25.9891 F   0  0  0  0  0  0  0  0  0  0  0  0
  -21.7828   -5.2785   23.8227 F   0  0  0  0  0  0  0  0  0  0  0  0
  1  2  1  0  0  0  0
  1  5  2  0  0  0  0
  2  6  2  0  0  0  0
  3  8  2  0  0  0  0
  3 16  1  0  0  0  0
  4  9  1  0  0  0  0
  4 16  2  0  0  0  0
  5 18  1  0  0  0  0
  6 20  1  0  0  0  0
  7 10  2  0  0  0  0
  7 19  1  0  0  0  0
  8 23  1  0  0  0  0
  9 23  2  0  0  0  0
 10 24  1  0  0  0  0
 11 12  2  0  0  0  0
 11 25  1  0  0  0  0
 12 26  1  0  0  0  0
 13 21  1  0  0  0  0
 13 24  2  0  0  0  0
 14 22  1  0  0  0  0
 14 29  2  0  0  0  0
 15 26  2  0  0  0  0
 15 27  1  0  0  0  0
 16 28  1  0  0  0  0
 17 28  1  0  0  0  0
 17 31  2  0  0  0  0
 17 32  1  0  0  0  0
 18 20  2  0  0  0  0
 18 37  1  0  0  0  0
 19 21  2  0  0  0  0
 19 38  1  0  0  0  0
 20 46  1  0  0  0  0
 21 39  1  0  0  0  0
 22 30  2  0  0  0  0
 22 63  1  0  0  0  0
 23 85  1  0  0  0  0
 24 86  1  0  0  0  0
 25 27  2  0  0  0  0
 25 85  1  0  0  0  0
 26 87  1  0  0  0  0
 27 88  1  0  0  0  0
 28 69  2  0  0  0  0
 29 64  1  0  0  0  0
 29 70  1  0  0  0  0
 30 49  1  0  0  0  0
 30 70  1  0  0  0  0
 31 71  1  0  0  0  0
 31 74  1  0  0  0  0
 32 75  1  0  0  0  0
 32 80  2  0  0  0  0
 33 47  1  0  0  0  0
 33 76  1  0  0  0  0
 33 81  2  0  0  0  0
 34 65  1  0  0  0  0
 34 72  1  0  0  0  0
 34 82  2  0  0  0  0
 35 66  1  0  0  0  0
 35 77  1  0  0  0  0
 35 83  2  0  0  0  0
 36 73  1  0  0  0  0
 36 78  1  0  0  0  0
 36 84  2  0  0  0  0
 37 40  1  0  0  0  0
 38 47  1  0  0  0  0
 39 72  1  0  0  0  0
 40 42  1  0  0  0  0
 41 43  1  0  0  0  0
 41 44  1  0  0  0  0
 42 46  1  0  0  0  0
 43 48  1  0  0  0  0
 44 73  1  0  0  0  0
 45 48  1  0  0  0  0
 45 73  1  0  0  0  0
 46 76  1  0  0  0  0
 47 72  1  0  0  0  0
 48 71  1  0  0  0  0
 50 64  1  0  0  0  0
 51 64  1  0  0  0  0
 52 66  1  0  0  0  0
 53 67  1  0  0  0  0
 54 67  1  0  0  0  0
 55 68  1  0  0  0  0
 56 68  1  0  0  0  0
 57 68  1  0  0  0  0
 58 79  1  0  0  0  0
 59 61  1  0  0  0  0
 59 63  1  0  0  0  0
 60 63  1  0  0  0  0
 60 67  1  0  0  0  0
 61 86  1  0  0  0  0
 62 70  1  0  0  0  0
 62 78  1  0  0  0  0
 65 68  1  0  0  0  0
 65 77  1  0  0  0  0
 66 79  1  0  0  0  0
 69 71  1  0  0  0  0
M  CHG  1  79   1
M  ISO  4  36 100  61 101  78 100  86 101
M  END
> <Batch ID>
0104

> <Smiles>
CNC(C)C(=O)NC(C(=O)N1Cc2cc([101O:1][101CH2:1]CC(CC(C)C)c3cc(C(C)C)n(C[100NH:0][100C:0](=O)N4CCCC(n5nc(-c6ccc(Oc7ccc(F)cc7F)cc6)c(C(N)=O)c5N)C4)c3C)ccc2CC1C(=O)NC1CCCc2ccccc21)C(C)(C)C

> <Shape>
0.170

> <Color>
0.177

> <Negative vol penalty>
0.000

$$$$

  -OEChem-04052319433D

 84 92  0     1  0  0  0  0  0999 V2000
  -25.3408  -18.0646   22.7532 C   0  0  0  0  0  0  0  0  0  0  0  0
  -26.5823  -17.5382   23.0953 C   0  0  0  0  0  0  0  0  0  0  0  0
  -23.0867   -9.8690   19.9420 C   0  0  0  0  0  0  0  0  0  0  0  0
  -23.7025   -9.9585   22.2765 C   0  0  0  0  0  0  0  0  0  0  0  0
  -25.0595  -19.4062   23.0083 C   0  0  0  0  0  0  0  0  0  0  0  0
  -27.5437  -18.3534   23.6917 C   0  0  0  0  0  0  0  0  0  0  0  0
  -29.8255  -16.1128   27.6183 C   0  0  0  0  0  0  0  0  0  0  0  0
  -22.3291   -8.7235   20.1857 C   0  0  0  0  0  0  0  0  0  0  0  0
  -22.9449   -8.8130   22.5202 C   0  0  0  0  0  0  0  0  0  0  0  0
  -30.8131  -15.1723   27.3288 C   0  0  0  0  0  0  0  0  0  0  0  0
  -23.2709   -5.4742   22.0995 C   0  0  0  0  0  0  0  0  0  0  0  0
  -23.8409   -4.4763   22.8900 C   0  0  0  0  0  0  0  0  0  0  0  0
  -32.5108  -16.8300   27.7633 C   0  0  0  0  0  0  0  0  0  0  0  0
  -22.0366   -4.7056   24.4803 C   0  0  0  0  0  0  0  0  0  0  0  0
  -33.7910  -14.8994   22.8580 C   0  0  0  0  0  0  0  0  0  0  0  0
  -34.2765  -16.5772   24.2595 C   0  0  0  0  0  0  0  0  0  0  0  0
  -23.7735  -10.4865   20.9873 C   0  0  0  0  0  0  0  0  0  0  0  0
  -24.1213  -13.0067   20.7998 C   0  0  0  0  0  0  0  0  0  0  0  0
  -26.0145  -20.2358   23.6169 C   0  0  0  0  0  0  0  0  0  0  0  0
  -30.1736  -17.4243   27.9724 C   0  0  0  0  0  0  0  0  0  0  0  0
  -27.2754  -19.7076   23.9539 C   0  0  0  0  0  0  0  0  0  0  0  0
  -31.5259  -17.7846   28.0593 C   0  0  0  0  0  0  0  0  0  0  0  0
  -33.3319  -16.0630   22.2813 C   0  0  0  0  0  0  0  0  0  0  0  0
  -33.6389  -17.1244   23.1680 C   0  0  0  0  0  0  0  0  0  0  0  0
  -22.2582   -8.1955   21.4748 C   0  0  0  0  0  0  0  0  0  0  0  0
  -32.1559  -15.5315   27.3985 C   0  0  0  0  0  0  0  0  0  0  0  0
  -22.0838   -6.0878   22.4994 C   0  0  0  0  0  0  0  0  0  0  0  0
  -23.2238   -4.0920   24.0804 C   0  0  0  0  0  0  0  0  0  0  0  0
  -21.4667   -5.7035   23.6898 C   0  0  0  0  0  0  0  0  0  0  0  0
  -24.5567  -11.6695   20.7361 C   0  0  0  0  0  0  0  0  0  0  0  0
  -25.2337  -13.7457   20.4789 C   0  0  0  0  0  0  0  0  0  0  0  0
  -22.8271  -13.5337   21.1206 C   0  0  0  0  0  0  0  0  0  0  0  0
  -29.6511  -20.2993   26.7214 C   0  0  0  0  0  0  0  0  0  0  0  0
  -31.0730  -21.3173   29.4534 C   0  0  0  0  0  0  0  0  0  0  0  0
  -33.1780  -20.6357   32.0517 C   0  0  0  0  0  0  0  0  0  0  0  0
  -30.5659  -14.8204   21.0786 C   0  0  0  0  0  0  0  0  0  0  0  0
  -25.6815  -21.6913   23.8296 C   0  0  0  0  0  0  0  0  0  0  0  0
  -29.0969  -18.4198   28.3076 C   0  0  0  0  0  0  0  0  0  0  0  0
  -31.9525  -19.1740   28.4544 C   0  0  0  0  0  0  0  0  0  0  0  0
  -26.6207  -22.3946   24.8062 C   0  0  0  0  0  0  0  0  0  0  0  0
  -29.7117  -12.3164   18.6092 C   0  0  0  0  0  0  0  0  0  0  0  0
  -28.0736  -22.0584   24.4855 C   0  0  0  0  0  0  0  0  0  0  0  0
  -28.2477  -12.0365   18.9537 C   0  0  0  0  0  0  0  0  0  0  0  0
  -30.5398  -12.5561   19.8682 C   0  0  0  0  0  0  0  0  0  0  0  0
  -28.5602  -13.3646   21.0934 C   0  0  0  0  0  0  0  0  0  0  0  0
  -28.3354  -20.5539   24.6249 C   0  0  1  0  0  0  0  0  0  0  0  0
  -29.5540  -19.8675   28.1572 C   0  0  1  0  0  0  0  0  0  0  0  0
  -27.6656  -13.1362   19.8615 C   0  0  2  0  0  0  0  0  0  0  0  0
  -34.1725  -21.6775   34.1067 C   0  0  0  0  0  0  0  0  0  0  0  0
  -34.8233  -12.1124   26.3308 C   0  0  0  0  0  0  0  0  0  0  0  0
  -32.9960  -22.9189   27.7078 C   0  0  0  0  0  0  0  0  0  0  0  0
  -34.4985  -23.1507   29.6970 C   0  0  0  0  0  0  0  0  0  0  0  0
  -32.1995  -24.1172   29.7534 C   0  0  0  0  0  0  0  0  0  0  0  0
  -32.5126  -19.2013   23.9285 C   0  0  0  0  0  0  0  0  0  0  0  0
  -33.9049  -19.2122   21.8524 C   0  0  0  0  0  0  0  0  0  0  0  0
  -31.9317  -18.6161   33.8200 C   0  0  0  0  0  0  0  0  0  0  0  0
  -32.6469  -16.1680   20.9770 C   0  0  0  0  0  0  0  0  0  0  0  0
  -34.9934  -14.2421   25.0175 C   0  0  0  0  0  0  0  0  0  0  0  0
  -32.7935  -13.5950   26.1741 C   0  0  0  0  0  0  0  0  0  1  0  0
  -32.4929  -21.6090   29.8751 C   0  0  1  0  0  0  0  0  0  0  0  0
  -33.0306  -20.8426   33.5484 C   0  0  2  0  0  0  0  0  0  0  0  0
  -34.0506  -13.0967   25.4450 C   0  0  2  0  0  0  0  0  0  0  0  0
  -33.0390  -22.9232   29.2490 C   0  0  0  0  0  0  0  0  0  0  0  0
  -25.8452  -11.5622   20.4008 N   0  0  0  0  0  0  0  0  0  0  0  0
  -34.3637  -15.2241   24.0601 N   0  0  0  0  0  0  0  0  0  0  0  0
  -26.2289  -12.8414   20.2510 N   0  0  0  0  0  0  0  0  0  0  0  0
  -30.8626  -20.1133   28.7665 N   0  0  0  0  0  0  0  0  0  0  0  0
  -29.9423  -13.6268   20.6786 N   0  0  0  0  0  0  0  0  0  0  0  0
  -25.4478  -15.0743   20.3722 N   0  0  0  0  0  0  0  0  0  0  0  0
  -21.7964  -12.6344   21.4262 N   0  0  0  0  0  0  0  0  0  0  0  0
  -28.4656  -20.1907   26.0198 N   0  0  0  0  0  0  0  0  0  0  0  0
  -32.4964  -21.5956   31.3339 N   0  0  0  0  0  0  0  0  0  0  0  0
  -31.8769  -14.9886   20.6499 N   0  0  0  0  0  0  0  0  0  0  0  0
  -33.3645  -18.4342   22.9909 N   0  0  0  0  0  0  0  0  0  0  0  0
  -33.0195  -19.5300   34.2541 N   0  3  0  0  0  0  0  0  0  0  0  0
  -22.5873  -14.7650   21.1197 O   0  0  0  0  0  0  0  0  0  0  0  0
  -30.7220  -20.7026   26.2828 O   0  0  0  0  0  0  0  0  0  0  0  0
  -30.1822  -22.1245   29.7298 O   0  0  0  0  0  0  0  0  0  0  0  0
  -33.8353  -19.7168   31.5678 O   0  0  0  0  0  0  0  0  0  0  0  0
  -29.9945  -15.6762   21.7630 O   0  0  0  0  0  0  0  0  0  0  0  0
  -21.5188   -7.0778   21.7131 O   0  0  0  0  0  0  0  0  0  0  0  0
  -33.1218  -14.6156   27.1159 O   0  0  0  0  0  0  0  0  0  1  0  0
  -23.7704   -3.1326   24.8387 F   0  0  0  0  0  0  0  0  0  0  0  0
  -20.3255   -6.2886   24.0786 F   0  0  0  0  0  0  0  0  0  0  0  0
  1  2  1  0  0  0  0
  1  5  2  0  0  0  0
  2  6  2  0  0  0  0
  3  8  2  0  0  0  0
  3 17  1  0  0  0  0
  4  9  1  0  0  0  0
  4 17  2  0  0  0  0
  5 19  1  0  0  0  0
  6 21  1  0  0  0  0
  7 10  2  0  0  0  0
  7 20  1  0  0  0  0
  8 25  1  0  0  0  0
  9 25  2  0  0  0  0
 10 26  1  0  0  0  0
 11 12  2  0  0  0  0
 11 27  1  0  0  0  0
 12 28  1  0  0  0  0
 13 22  1  0  0  0  0
 13 26  2  0  0  0  0
 14 28  2  0  0  0  0
 14 29  1  0  0  0  0
 15 23  2  0  0  0  0
 15 65  1  0  0  0  0
 16 24  2  0  0  0  0
 16 65  1  0  0  0  0
 17 30  1  0  0  0  0
 18 30  1  0  0  0  0
 18 31  2  0  0  0  0
 18 32  1  0  0  0  0
 19 21  2  0  0  0  0
 19 37  1  0  0  0  0
 20 22  2  0  0  0  0
 20 38  1  0  0  0  0
 21 46  1  0  0  0  0
 22 39  1  0  0  0  0
 23 24  1  0  0  0  0
 23 57  1  0  0  0  0
 24 74  1  0  0  0  0
 25 81  1  0  0  0  0
 26 82  1  0  0  0  0
 27 29  2  0  0  0  0
 27 81  1  0  0  0  0
 28 83  1  0  0  0  0
 29 84  1  0  0  0  0
 30 64  2  0  0  0  0
 31 66  1  0  0  0  0
 31 69  1  0  0  0  0
 32 70  1  0  0  0  0
 32 76  2  0  0  0  0
 33 47  1  0  0  0  0
 33 71  1  0  0  0  0
 33 77  2  0  0  0  0
 34 60  1  0  0  0  0
 34 67  1  0  0  0  0
 34 78  2  0  0  0  0
 35 61  1  0  0  0  0
 35 72  1  0  0  0  0
 35 79  2  0  0  0  0
 36 68  1  0  0  0  0
 36 73  1  0  0  0  0
 36 80  2  0  0  0  0
 37 40  1  0  0  0  0
 38 47  1  0  0  0  0
 39 67  1  0  0  0  0
 40 42  1  0  0  0  0
 41 43  1  0  0  0  0
 41 44  1  0  0  0  0
 42 46  1  0  0  0  0
 43 48  1  0  0  0  0
 44 68  1  0  0  0  0
 45 48  1  0  0  0  0
 45 68  1  0  0  0  0
 46 71  1  0  0  0  0
 47 67  1  0  0  0  0
 48 66  1  0  0  0  0
 49 61  1  0  0  0  0
 50 62  1  0  0  0  0
 51 63  1  0  0  0  0
 52 63  1  0  0  0  0
 53 63  1  0  0  0  0
 54 74  1  0  0  0  0
 55 74  1  0  0  0  0
 56 75  1  0  0  0  0
 57 73  1  0  0  0  0
 58 62  1  0  0  0  0
 58 65  1  0  0  0  0
 59 62  1  0  0  0  0
 59 82  1  0  0  0  0
 60 63  1  0  0  0  0
 60 72  1  0  0  0  0
 61 75  1  0  0  0  0
 64 66  1  0  0  0  0
M  CHG  1  75   1
M  ISO  4  36 100  59 101  73 100  82 101
M  END
> <Batch ID>
0104

> <Smiles>
CNC(C)C(=O)NC(C(=O)N1Cc2cc([101O:1][101CH2:1]C(C)Cn3cc(C[100NH:0][100C:0](=O)N4CCCC(n5nc(-c6ccc(Oc7ccc(F)cc7F)cc6)c(C(N)=O)c5N)C4)c(N(C)C)c3)ccc2CC1C(=O)NC1CCCc2ccccc21)C(C)(C)C

> <Shape>
0.159

> <Color>
0.180

> <Negative vol penalty>
0.000

$$$$

  -OEChem-04052319433D

 85 93  0     1  0  0  0  0  0999 V2000
  -31.8394  -34.1233   20.0907 C   0  0  0  0  0  0  0  0  0  0  0  0
  -31.7411  -32.7856   19.7212 C   0  0  0  0  0  0  0  0  0  0  0  0
  -23.0426   -9.9716   19.9793 C   0  0  0  0  0  0  0  0  0  0  0  0
  -24.2991   -9.4576   21.9777 C   0  0  0  0  0  0  0  0  0  0  0  0
  -31.0681  -34.6128   21.1440 C   0  0  0  0  0  0  0  0  0  0  0  0
  -30.8722  -31.9364   20.4056 C   0  0  0  0  0  0  0  0  0  0  0  0
  -27.6701  -27.2745   18.0565 C   0  0  0  0  0  0  0  0  0  0  0  0
  -22.4179   -8.7266   20.0518 C   0  0  0  0  0  0  0  0  0  0  0  0
  -23.6744   -8.2126   22.0503 C   0  0  0  0  0  0  0  0  0  0  0  0
  -27.8950  -25.8987   18.0348 C   0  0  0  0  0  0  0  0  0  0  0  0
  -20.6973   -6.9768   23.0655 C   0  0  0  0  0  0  0  0  0  0  0  0
  -20.2259   -6.5616   24.3108 C   0  0  0  0  0  0  0  0  0  0  0  0
  -26.4914  -25.6446   19.9802 C   0  0  0  0  0  0  0  0  0  0  0  0
  -21.6729   -4.6293   24.2143 C   0  0  0  0  0  0  0  0  0  0  0  0
  -23.9833  -10.3371   20.9422 C   0  0  0  0  0  0  0  0  0  0  0  0
  -24.1945  -12.8279   21.4511 C   0  0  0  0  0  0  0  0  0  0  0  0
  -30.1822  -33.7714   21.8353 C   0  0  0  0  0  0  0  0  0  0  0  0
  -26.8615  -27.8479   19.0484 C   0  0  0  0  0  0  0  0  0  0  0  0
  -30.0894  -32.4149   21.4700 C   0  0  0  0  0  0  0  0  0  0  0  0
  -26.2557  -27.0276   20.0107 C   0  0  0  0  0  0  0  0  0  0  0  0
  -22.7337   -7.8471   21.0873 C   0  0  0  0  0  0  0  0  0  0  0  0
  -27.3080  -25.0839   18.9984 C   0  0  0  0  0  0  0  0  0  0  0  0
  -21.6565   -6.2183   22.3945 C   0  0  0  0  0  0  0  0  0  0  0  0
  -20.7137   -5.3879   24.8853 C   0  0  0  0  0  0  0  0  0  0  0  0
  -22.1443   -5.0445   22.9689 C   0  0  0  0  0  0  0  0  0  0  0  0
  -24.6293  -11.6228   20.8675 C   0  0  0  0  0  0  0  0  0  0  0  0
  -25.1479  -13.7481   21.0894 C   0  0  0  0  0  0  0  0  0  0  0  0
  -23.0328  -13.0919   22.2489 C   0  0  0  0  0  0  0  0  0  0  0  0
  -27.3254  -29.9645   21.3740 C   0  0  0  0  0  0  0  0  0  0  0  0
  -24.1144  -29.6838   21.7393 C   0  0  0  0  0  0  0  0  0  0  0  0
  -21.3023  -27.8006   21.3008 C   0  0  0  0  0  0  0  0  0  0  0  0
  -30.3971  -15.1992   20.5538 C   0  0  0  0  0  0  0  0  0  0  0  0
  -29.4039  -34.3349   22.9978 C   0  0  0  0  0  0  0  0  0  0  0  0
  -26.6072  -29.3304   19.0421 C   0  0  0  0  0  0  0  0  0  0  0  0
  -25.3630  -27.5914   21.0848 C   0  0  0  0  0  0  0  0  0  0  0  0
  -28.2313  -33.4575   23.4283 C   0  0  0  0  0  0  0  0  0  0  0  0
  -34.1197  -17.3871   21.8216 C   0  0  0  0  0  0  0  0  0  0  0  0
  -34.5748  -17.6482   20.3857 C   0  0  0  0  0  0  0  0  0  0  0  0
  -28.9388  -13.4277   17.7551 C   0  0  0  0  0  0  0  0  0  0  0  0
  -28.6652  -31.9987   23.5302 C   0  0  0  0  0  0  0  0  0  0  0  0
  -27.6432  -12.8979   18.3722 C   0  0  0  0  0  0  0  0  0  0  0  0
  -32.8937  -16.4815   21.7206 C   0  0  0  0  0  0  0  0  0  0  0  0
  -33.6009  -16.8887   19.4867 C   0  0  0  0  0  0  0  0  0  0  0  0
  -30.0862  -13.3884   18.7601 C   0  0  0  0  0  0  0  0  0  0  0  0
  -28.5199  -13.5840   20.6527 C   0  0  0  0  0  0  0  0  0  0  0  0
  -29.1400  -31.4683   22.1720 C   0  0  1  0  0  0  0  0  0  0  0  0
  -26.1816  -29.8694   20.4043 C   0  0  1  0  0  0  0  0  0  0  0  0
  -27.3162  -13.6187   19.6935 C   0  0  2  0  0  0  0  0  0  0  0  0
  -32.3239  -16.7439   20.3221 C   0  0  0  0  0  0  0  0  0  0  0  0
  -18.8308  -27.8204   21.7349 C   0  0  0  0  0  0  0  0  0  0  0  0
  -30.7748  -17.6786   17.8700 C   0  0  0  0  0  0  0  0  0  0  0  0
  -32.2801  -21.5741   19.6541 C   0  0  0  0  0  0  0  0  0  0  0  0
  -24.6290  -29.0689   24.6832 C   0  0  0  0  0  0  0  0  0  0  0  0
  -22.2923  -28.1828   24.8346 C   0  0  0  0  0  0  0  0  0  0  0  0
  -22.6810  -30.5784   24.2578 C   0  0  0  0  0  0  0  0  0  0  0  0
  -20.6765  -27.6297   18.4133 C   0  0  0  0  0  0  0  0  0  0  0  0
  -31.4733  -18.0189   20.2851 C   0  0  0  0  0  0  0  0  0  0  0  0
  -28.4264  -21.8478   20.1940 C   0  0  0  0  0  0  0  0  0  0  0  0
  -29.8768  -22.2392   19.8819 C   0  0  0  0  0  0  0  0  0  0  0  0
  -30.4683  -19.9581   18.8864 C   0  0  0  0  0  0  0  0  0  0  0  0
  -27.5004  -23.0592   20.2310 C   0  0  0  0  0  0  0  0  0  1  0  0
  -23.2044  -28.7912   22.5479 C   0  0  1  0  0  0  0  0  0  0  0  0
  -19.9346  -28.1479   20.7413 C   0  0  2  0  0  0  0  0  0  0  0  0
  -31.3280  -18.6745   18.8973 C   0  0  2  0  0  0  0  0  0  0  0  0
  -30.8624  -21.0477   19.9087 C   0  0  1  0  0  0  0  0  0  0  0  0
  -23.2200  -29.1446   24.0619 C   0  0  0  0  0  0  0  0  0  0  0  0
  -25.7700  -11.7618   20.1866 N   0  0  0  0  0  0  0  0  0  0  0  0
  -26.0600  -13.0650   20.3400 N   0  0  0  0  0  0  0  0  0  0  0  0
  -25.1499  -29.0475   21.0402 N   0  0  0  0  0  0  0  0  0  0  0  0
  -29.7176  -14.1078   19.9876 N   0  0  0  0  0  0  0  0  0  0  0  0
  -25.2865  -15.0669   21.3423 N   0  0  0  0  0  0  0  0  0  0  0  0
  -22.1577  -12.0327   22.5258 N   0  0  0  0  0  0  0  0  0  0  0  0
  -28.0073  -31.1653   21.3237 N   0  0  0  0  0  0  0  0  0  0  0  0
  -21.8874  -28.8809   21.9269 N   0  0  0  0  0  0  0  0  0  0  0  0
  -31.5252  -15.6295   19.8660 N   0  0  0  0  0  0  0  0  0  0  0  0
  -19.6792  -27.3851   19.4868 N   0  3  0  0  0  0  0  0  0  0  0  0
  -22.7697  -14.2367   22.6890 O   0  0  0  0  0  0  0  0  0  0  0  0
  -27.5702  -29.0191   22.1142 O   0  0  0  0  0  0  0  0  0  0  0  0
  -23.9096  -30.9002   21.7225 O   0  0  0  0  0  0  0  0  0  0  0  0
  -21.8002  -26.6818   21.1965 O   0  0  0  0  0  0  0  0  0  0  0  0
  -30.0231  -15.7531   21.5932 O   0  0  0  0  0  0  0  0  0  0  0  0
  -22.1241   -6.6322   21.1585 O   0  0  0  0  0  0  0  0  0  0  0  0
  -27.5281  -23.7307   18.9798 O   0  0  0  0  0  0  0  0  0  1  0  0
  -20.2620   -4.9901   26.0819 F   0  0  0  0  0  0  0  0  0  0  0  0
  -23.0667   -4.3122   22.3297 F   0  0  0  0  0  0  0  0  0  0  0  0
  1  2  1  0  0  0  0
  1  5  2  0  0  0  0
  2  6  2  0  0  0  0
  3  8  2  0  0  0  0
  3 15  1  0  0  0  0
  4  9  1  0  0  0  0
  4 15  2  0  0  0  0
  5 17  1  0  0  0  0
  6 19  1  0  0  0  0
  7 10  2  0  0  0  0
  7 18  1  0  0  0  0
  8 21  1  0  0  0  0
  9 21  2  0  0  0  0
 10 22  1  0  0  0  0
 11 12  2  0  0  0  0
 11 23  1  0  0  0  0
 12 24  1  0  0  0  0
 13 20  1  0  0  0  0
 13 22  2  0  0  0  0
 14 24  2  0  0  0  0
 14 25  1  0  0  0  0
 15 26  1  0  0  0  0
 16 26  1  0  0  0  0
 16 27  2  0  0  0  0
 16 28  1  0  0  0  0
 17 19  2  0  0  0  0
 17 33  1  0  0  0  0
 18 20  2  0  0  0  0
 18 34  1  0  0  0  0
 19 46  1  0  0  0  0
 20 35  1  0  0  0  0
 21 82  1  0  0  0  0
 22 83  1  0  0  0  0
 23 25  2  0  0  0  0
 23 82  1  0  0  0  0
 24 84  1  0  0  0  0
 25 85  1  0  0  0  0
 26 67  2  0  0  0  0
 27 68  1  0  0  0  0
 27 71  1  0  0  0  0
 28 72  1  0  0  0  0
 28 77  2  0  0  0  0
 29 47  1  0  0  0  0
 29 73  1  0  0  0  0
 29 78  2  0  0  0  0
 30 62  1  0  0  0  0
 30 69  1  0  0  0  0
 30 79  2  0  0  0  0
 31 63  1  0  0  0  0
 31 74  1  0  0  0  0
 31 80  2  0  0  0  0
 32 70  1  0  0  0  0
 32 75  1  0  0  0  0
 32 81  2  0  0  0  0
 33 36  1  0  0  0  0
 34 47  1  0  0  0  0
 35 69  1  0  0  0  0
 36 40  1  0  0  0  0
 37 38  1  0  0  0  0
 37 42  1  0  0  0  0
 38 43  1  0  0  0  0
 39 41  1  0  0  0  0
 39 44  1  0  0  0  0
 40 46  1  0  0  0  0
 41 48  1  0  0  0  0
 42 49  1  0  0  0  0
 43 49  1  0  0  0  0
 44 70  1  0  0  0  0
 45 48  1  0  0  0  0
 45 70  1  0  0  0  0
 46 73  1  0  0  0  0
 47 69  1  0  0  0  0
 48 68  1  0  0  0  0
 49 57  1  0  0  0  0
 49 75  1  0  0  0  0
 50 63  1  0  0  0  0
 51 64  1  0  0  0  0
 52 65  1  0  0  0  0
 53 66  1  0  0  0  0
 54 66  1  0  0  0  0
 55 66  1  0  0  0  0
 56 76  1  0  0  0  0
 57 64  1  0  0  0  0
 58 59  1  0  0  0  0
 58 61  1  0  0  0  0
 59 65  1  0  0  0  0
 60 64  1  0  0  0  0
 60 65  1  0  0  0  0
 61 83  1  0  0  0  0
 62 66  1  0  0  0  0
 62 74  1  0  0  0  0
 63 76  1  0  0  0  0
 67 68  1  0  0  0  0
M  CHG  1  76   1
M  ISO  4  32 100  61 101  75 100  83 101
M  END
> <Batch ID>
0104

> <Smiles>
CNC(C)C(=O)NC(C(=O)N1Cc2cc([101O:1][101CH2:1]CCC(C)CC(C)CC3([100NH:0][100C:0](=O)N4CCCC(n5nc(-c6ccc(Oc7ccc(F)cc7F)cc6)c(C(N)=O)c5N)C4)CCCC3)ccc2CC1C(=O)NC1CCCc2ccccc21)C(C)(C)C

> <Shape>
0.307

> <Color>
0.142

> <Negative vol penalty>
0.000

$$$$

  -OEChem-04052319433D

 83 91  0     1  0  0  0  0  0999 V2000
  -22.2945  -24.1483   19.9889 C   0  0  0  0  0  0  0  0  0  0  0  0
  -23.0978  -23.4186   20.8594 C   0  0  0  0  0  0  0  0  0  0  0  0
  -26.3565  -28.4326   18.9300 C   0  0  0  0  0  0  0  0  0  0  0  0
  -26.2501  -27.6591   21.2163 C   0  0  0  0  0  0  0  0  0  0  0  0
  -21.0098  -23.6993   19.6858 C   0  0  0  0  0  0  0  0  0  0  0  0
  -22.6163  -22.2400   21.4281 C   0  0  0  0  0  0  0  0  0  0  0  0
  -26.0173  -18.4901   21.2988 C   0  0  0  0  0  0  0  0  0  0  0  0
  -25.3210  -29.3314   19.1859 C   0  0  0  0  0  0  0  0  0  0  0  0
  -25.2146  -28.5579   21.4723 C   0  0  0  0  0  0  0  0  0  0  0  0
  -27.0377  -18.5230   22.2483 C   0  0  0  0  0  0  0  0  0  0  0  0
  -21.8863  -28.7498   20.9098 C   0  0  0  0  0  0  0  0  0  0  0  0
  -20.7821  -28.2808   21.6213 C   0  0  0  0  0  0  0  0  0  0  0  0
  -25.8463  -16.8991   23.5761 C   0  0  0  0  0  0  0  0  0  0  0  0
  -30.7577  -15.7924   20.7606 C   0  0  0  0  0  0  0  0  0  0  0  0
  -21.1936  -29.9246   23.3434 C   0  0  0  0  0  0  0  0  0  0  0  0
  -30.6483  -17.6849   21.9757 C   0  0  0  0  0  0  0  0  0  0  0  0
  -26.8211  -27.5964   19.9452 C   0  0  0  0  0  0  0  0  0  0  0  0
  -29.2717  -26.8982   19.8240 C   0  0  0  0  0  0  0  0  0  0  0  0
  -20.5159  -22.5095   20.2435 C   0  0  0  0  0  0  0  0  0  0  0  0
  -24.8966  -17.6683   21.4865 C   0  0  0  0  0  0  0  0  0  0  0  0
  -21.3233  -21.7754   21.1332 C   0  0  0  0  0  0  0  0  0  0  0  0
  -24.8143  -16.8557   22.6263 C   0  0  0  0  0  0  0  0  0  0  0  0
  -30.8706  -17.2035   20.7044 C   0  0  0  0  0  0  0  0  0  0  0  0
  -24.7501  -29.3941   20.4570 C   0  0  0  0  0  0  0  0  0  0  0  0
  -26.9509  -17.7296   23.3885 C   0  0  0  0  0  0  0  0  0  0  0  0
  -22.6443  -29.8062   21.4151 C   0  0  0  0  0  0  0  0  0  0  0  0
  -20.4357  -28.8682   22.8381 C   0  0  0  0  0  0  0  0  0  0  0  0
  -22.2979  -30.3936   22.6319 C   0  0  0  0  0  0  0  0  0  0  0  0
  -27.8903  -26.6673   19.6814 C   0  0  0  0  0  0  0  0  0  0  0  0
  -30.4696  -15.4544   22.0645 C   0  0  0  0  0  0  0  0  0  0  0  0
  -29.8581  -25.7135   19.4513 C   0  0  0  0  0  0  0  0  0  0  0  0
  -29.9629  -28.0782   20.2549 C   0  0  0  0  0  0  0  0  0  0  0  0
  -21.7752  -18.1718   21.8135 C   0  0  0  0  0  0  0  0  0  0  0  0
  -21.6374  -14.9325   21.7114 C   0  0  0  0  0  0  0  0  0  0  0  0
  -23.2266  -11.9489   22.1792 C   0  0  0  0  0  0  0  0  0  0  0  0
  -30.1316  -20.2539   19.7075 C   0  0  0  0  0  0  0  0  0  0  0  0
  -19.1034  -22.0891   19.9230 C   0  0  0  0  0  0  0  0  0  0  0  0
  -23.8172  -17.6242   20.4400 C   0  0  0  0  0  0  0  0  0  0  0  0
  -23.6418  -15.9409   22.8650 C   0  0  0  0  0  0  0  0  0  0  0  0
  -18.8064  -20.6337   20.2751 C   0  0  0  0  0  0  0  0  0  0  0  0
  -27.8910  -21.6233   17.2170 C   0  0  0  0  0  0  0  0  0  0  0  0
  -19.3242  -20.3060   21.6720 C   0  0  0  0  0  0  0  0  0  0  0  0
  -27.8076  -23.0867   17.6547 C   0  0  0  0  0  0  0  0  0  0  0  0
  -27.9521  -20.6886   18.4215 C   0  0  0  0  0  0  0  0  0  0  0  0
  -28.9781  -22.4450   19.8130 C   0  0  0  0  0  0  0  0  0  0  0  0
  -20.8459  -20.4790   21.7509 C   0  0  1  0  0  0  0  0  0  0  0  0
  -22.4780  -17.1353   20.9831 C   0  0  1  0  0  0  0  0  0  0  0  0
  -28.9364  -23.4419   18.6406 C   0  0  2  0  0  0  0  0  0  0  0  0
  -31.4928  -13.2098   22.5825 C   0  0  0  0  0  0  0  0  0  0  0  0
  -29.0279  -13.3867   22.0842 C   0  0  0  0  0  0  0  0  0  0  0  0
  -22.8442   -9.4720   22.0518 C   0  0  0  0  0  0  0  0  0  0  0  0
  -28.4105  -16.1714   26.0478 C   0  0  0  0  0  0  0  0  0  0  0  0
  -20.0764  -15.0412   24.3309 C   0  0  0  0  0  0  0  0  0  0  0  0
  -20.5499  -12.6014   24.6333 C   0  0  0  0  0  0  0  0  0  0  0  0
  -19.2172  -13.3778   22.6727 C   0  0  0  0  0  0  0  0  0  0  0  0
  -25.3164  -11.6156   20.1102 C   0  0  0  0  0  0  0  0  0  0  0  0
  -31.1713  -18.0099   19.5062 C   0  0  0  0  0  0  0  0  0  0  0  0
  -30.1135  -16.7123   24.2728 C   0  0  0  0  0  0  0  0  0  0  0  0
  -30.2511  -14.1260   22.6733 C   0  0  0  0  0  0  0  0  0  0  0  0
  -21.7045  -13.8267   22.7369 C   0  0  1  0  0  0  0  0  0  0  0  0
  -23.3201  -10.7097   21.3072 C   0  0  2  0  0  0  0  0  0  0  0  0
  -28.6235  -16.5332   24.5832 C   0  0  2  0  0  0  0  0  0  1  0  0
  -20.4083  -13.7303   23.5902 C   0  0  0  0  0  0  0  0  0  0  0  0
  -27.6155  -25.4330   19.2515 N   0  0  0  0  0  0  0  0  0  0  0  0
  -30.4053  -16.6127   22.7941 N   0  0  0  0  0  0  0  0  0  0  0  0
  -28.8323  -24.8776   19.1207 N   0  0  0  0  0  0  0  0  0  0  0  0
  -22.6090  -15.9380   21.8158 N   0  0  0  0  0  0  0  0  0  0  0  0
  -29.0589  -21.0695   19.3104 N   0  0  0  0  0  0  0  0  0  0  0  0
  -31.1460  -25.3156   19.3774 N   0  0  0  0  0  0  0  0  0  0  0  0
  -29.2070  -29.2066   20.6007 N   0  0  0  0  0  0  0  0  0  0  0  0
  -21.5152  -19.3503   21.1406 N   0  0  0  0  0  0  0  0  0  0  0  0
  -22.0286  -12.6083   22.0029 N   0  0  0  0  0  0  0  0  0  0  0  0
  -30.1302  -18.9633   19.1928 N   0  0  0  0  0  0  0  0  0  0  0  0
  -24.7285  -10.4856   20.8748 N   0  3  0  0  0  0  0  0  0  0  0  0
  -31.2145  -28.1356   20.3153 O   0  0  0  0  0  0  0  0  0  0  0  0
  -21.4887  -17.9203   22.9782 O   0  0  0  0  0  0  0  0  0  0  0  0
  -20.7598  -14.9014   20.8451 O   0  0  0  0  0  0  0  0  0  0  0  0
  -24.1249  -12.2949   22.9433 O   0  0  0  0  0  0  0  0  0  0  0  0
  -31.0279  -20.6486   20.4611 O   0  0  0  0  0  0  0  0  0  0  0  0
  -23.7398  -30.2712   20.7071 O   0  0  0  0  0  0  0  0  0  0  0  0
  -27.9452  -17.7602   24.3171 O   0  0  0  0  0  0  0  0  0  1  0  0
  -19.3744  -28.4187   23.5206 F   0  0  0  0  0  0  0  0  0  0  0  0
  -23.0215  -31.4096   23.1218 F   0  0  0  0  0  0  0  0  0  0  0  0
  1  2  1  0  0  0  0
  1  5  2  0  0  0  0
  2  6  2  0  0  0  0
  3  8  2  0  0  0  0
  3 17  1  0  0  0  0
  4  9  1  0  0  0  0
  4 17  2  0  0  0  0
  5 19  1  0  0  0  0
  6 21  1  0  0  0  0
  7 10  2  0  0  0  0
  7 20  1  0  0  0  0
  8 24  1  0  0  0  0
  9 24  2  0  0  0  0
 10 25  1  0  0  0  0
 11 12  2  0  0  0  0
 11 26  1  0  0  0  0
 12 27  1  0  0  0  0
 13 22  1  0  0  0  0
 13 25  2  0  0  0  0
 14 23  1  0  0  0  0
 14 30  2  0  0  0  0
 15 27  2  0  0  0  0
 15 28  1  0  0  0  0
 16 23  2  0  0  0  0
 16 65  1  0  0  0  0
 17 29  1  0  0  0  0
 18 29  1  0  0  0  0
 18 31  2  0  0  0  0
 18 32  1  0  0  0  0
 19 21  2  0  0  0  0
 19 37  1  0  0  0  0
 20 22  2  0  0  0  0
 20 38  1  0  0  0  0
 21 46  1  0  0  0  0
 22 39  1  0  0  0  0
 23 57  1  0  0  0  0
 24 80  1  0  0  0  0
 25 81  1  0  0  0  0
 26 28  2  0  0  0  0
 26 80  1  0  0  0  0
 27 82  1  0  0  0  0
 28 83  1  0  0  0  0
 29 64  2  0  0  0  0
 30 59  1  0  0  0  0
 30 65  1  0  0  0  0
 31 66  1  0  0  0  0
 31 69  1  0  0  0  0
 32 70  1  0  0  0  0
 32 75  2  0  0  0  0
 33 47  1  0  0  0  0
 33 71  1  0  0  0  0
 33 76  2  0  0  0  0
 34 60  1  0  0  0  0
 34 67  1  0  0  0  0
 34 77  2  0  0  0  0
 35 61  1  0  0  0  0
 35 72  1  0  0  0  0
 35 78  2  0  0  0  0
 36 68  1  0  0  0  0
 36 73  1  0  0  0  0
 36 79  2  0  0  0  0
 37 40  1  0  0  0  0
 38 47  1  0  0  0  0
 39 67  1  0  0  0  0
 40 42  1  0  0  0  0
 41 43  1  0  0  0  0
 41 44  1  0  0  0  0
 42 46  1  0  0  0  0
 43 48  1  0  0  0  0
 44 68  1  0  0  0  0
 45 48  1  0  0  0  0
 45 68  1  0  0  0  0
 46 71  1  0  0  0  0
 47 67  1  0  0  0  0
 48 66  1  0  0  0  0
 49 59  1  0  0  0  0
 50 59  1  0  0  0  0
 51 61  1  0  0  0  0
 52 62  1  0  0  0  0
 53 63  1  0  0  0  0
 54 63  1  0  0  0  0
 55 63  1  0  0  0  0
 56 74  1  0  0  0  0
 57 73  1  0  0  0  0
 58 62  1  0  0  0  0
 58 65  1  0  0  0  0
 60 63  1  0  0  0  0
 60 72  1  0  0  0  0
 61 74  1  0  0  0  0
 62 81  1  0  0  0  0
 64 66  1  0  0  0  0
M  CHG  1  74   1
M  ISO  4  36 100  62 101  73 100  81 101
M  END
> <Batch ID>
0104

> <Smiles>
CNC(C)C(=O)NC(C(=O)N1Cc2cc([101O:1][101CH:1](C)Cn3cc(C[100NH:0][100C:0](=O)N4CCCC(n5nc(-c6ccc(Oc7ccc(F)cc7F)cc6)c(C(N)=O)c5N)C4)cc3C(C)C)ccc2CC1C(=O)NC1CCCc2ccccc21)C(C)(C)C

> <Shape>
0.225

> <Color>
0.055

> <Negative vol penalty>
0.000

$$$$

  -OEChem-04052319433D

 90 98  0     1  0  0  0  0  0999 V2000
  -20.6133  -25.3112   25.3219 C   0  0  0  0  0  0  0  0  0  0  0  0
  -21.6675  -25.2773   24.4147 C   0  0  0  0  0  0  0  0  0  0  0  0
  -27.5759  -12.1218   20.0166 C   0  0  0  0  0  0  0  0  0  0  0  0
  -29.2411  -13.8530   19.7574 C   0  0  0  0  0  0  0  0  0  0  0  0
  -19.5337  -26.1658   25.1026 C   0  0  0  0  0  0  0  0  0  0  0  0
  -21.6422  -26.0972   23.2871 C   0  0  0  0  0  0  0  0  0  0  0  0
  -26.0789  -28.3918   22.4535 C   0  0  0  0  0  0  0  0  0  0  0  0
  -28.5301  -11.1561   19.6964 C   0  0  0  0  0  0  0  0  0  0  0  0
  -30.1953  -12.8873   19.4373 C   0  0  0  0  0  0  0  0  0  0  0  0
  -27.0895  -27.6303   21.8682 C   0  0  0  0  0  0  0  0  0  0  0  0
  -31.0782   -9.5623   21.2457 C   0  0  0  0  0  0  0  0  0  0  0  0
  -31.1296   -8.4147   22.0367 C   0  0  0  0  0  0  0  0  0  0  0  0
  -26.5927  -28.6268   19.7283 C   0  0  0  0  0  0  0  0  0  0  0  0
  -30.6671   -7.0549   20.0939 C   0  0  0  0  0  0  0  0  0  0  0  0
  -27.5961  -21.5745   18.0704 C   0  0  0  0  0  0  0  0  0  0  0  0
  -29.2775  -22.1140   16.6933 C   0  0  0  0  0  0  0  0  0  0  0  0
  -27.9314  -13.4703   20.0470 C   0  0  0  0  0  0  0  0  0  0  0  0
  -26.6321  -14.9623   21.6574 C   0  0  0  0  0  0  0  0  0  0  0  0
  -19.4997  -27.0037   23.9768 C   0  0  0  0  0  0  0  0  0  0  0  0
  -25.3091  -29.2699   21.6773 C   0  0  0  0  0  0  0  0  0  0  0  0
  -20.5605  -26.9629   23.0519 C   0  0  0  0  0  0  0  0  0  0  0  0
  -25.5746  -29.4002   20.3066 C   0  0  0  0  0  0  0  0  0  0  0  0
  -27.1244  -21.4612   16.7812 C   0  0  0  0  0  0  0  0  0  0  0  0
  -28.1881  -21.8027   15.9100 C   0  0  0  0  0  0  0  0  0  0  0  0
  -29.8398  -11.5388   19.4068 C   0  0  0  0  0  0  0  0  0  0  0  0
  -27.3446  -27.7456   20.5049 C   0  0  0  0  0  0  0  0  0  0  0  0
  -30.8211   -9.4564   19.8787 C   0  0  0  0  0  0  0  0  0  0  0  0
  -30.9241   -7.1609   21.4608 C   0  0  0  0  0  0  0  0  0  0  0  0
  -30.6156   -8.2027   19.3029 C   0  0  0  0  0  0  0  0  0  0  0  0
  -26.9461  -14.4684   20.3771 C   0  0  0  0  0  0  0  0  0  0  0  0
  -25.6394  -15.8852   21.4356 C   0  0  0  0  0  0  0  0  0  0  0  0
  -27.1883  -14.6178   22.9332 C   0  0  0  0  0  0  0  0  0  0  0  0
  -22.2254  -29.4971   20.9404 C   0  0  0  0  0  0  0  0  0  0  0  0
  -23.1640  -32.2695   19.5420 C   0  0  0  0  0  0  0  0  0  0  0  0
  -25.6800  -34.1010   18.1411 C   0  0  0  0  0  0  0  0  0  0  0  0
  -24.1401  -19.1970   16.6779 C   0  0  0  0  0  0  0  0  0  0  0  0
  -18.2892  -27.8763   23.7576 C   0  0  0  0  0  0  0  0  0  0  0  0
  -24.2404  -30.1041   22.3287 C   0  0  0  0  0  0  0  0  0  0  0  0
  -24.7901  -30.3435   19.4330 C   0  0  0  0  0  0  0  0  0  0  0  0
  -18.5153  -28.9854   22.7334 C   0  0  0  0  0  0  0  0  0  0  0  0
  -22.0641  -16.8864   18.4180 C   0  0  0  0  0  0  0  0  0  0  0  0
  -19.2014  -28.4311   21.4889 C   0  0  0  0  0  0  0  0  0  0  0  0
  -23.0515  -16.0493   19.2329 C   0  0  0  0  0  0  0  0  0  0  0  0
  -22.6364  -17.2646   17.0537 C   0  0  0  0  0  0  0  0  0  0  0  0
  -24.9402  -17.0912   17.9116 C   0  0  0  0  0  0  0  0  0  0  0  0
  -20.5811  -27.8552   21.8298 C   0  0  1  0  0  0  0  0  0  0  0  0
  -23.1772  -30.5864   21.3467 C   0  0  1  0  0  0  0  0  0  0  0  0
  -24.4296  -16.7327   19.3177 C   0  0  2  0  0  0  0  0  0  0  0  0
  -26.1338  -36.3169   17.0543 C   0  0  0  0  0  0  0  0  0  0  0  0
  -30.7515  -18.4326   19.9817 C   0  0  0  0  0  0  0  0  0  0  0  0
  -31.9433  -20.1106   18.5598 C   0  0  0  0  0  0  0  0  0  0  0  0
  -30.4463  -25.2239   18.8509 C   0  0  0  0  0  0  0  0  0  0  0  0
  -29.5244  -22.2549   13.8230 C   0  0  0  0  0  0  0  0  0  0  0  0
  -27.0748  -22.8296   13.8968 C   0  0  0  0  0  0  0  0  0  0  0  0
  -27.8070  -20.4591   13.7362 C   0  0  0  0  0  0  0  0  0  0  0  0
  -21.8276  -31.2847   16.9819 C   0  0  0  0  0  0  0  0  0  0  0  0
  -23.1023  -33.0356   15.7257 C   0  0  0  0  0  0  0  0  0  0  0  0
  -21.4642  -33.7078   17.4829 C   0  0  0  0  0  0  0  0  0  0  0  0
  -27.6240  -34.8625   20.2386 C   0  0  0  0  0  0  0  0  0  0  0  0
  -25.7593  -21.0559   16.3914 C   0  0  0  0  0  0  0  0  0  0  0  0
  -30.0110  -20.8801   19.9699 C   0  0  0  0  0  0  0  0  0  0  0  0
  -29.2877  -23.3432   20.1286 C   0  0  0  0  0  0  0  0  0  0  0  0
  -28.6112  -25.7327   20.5148 C   0  0  0  0  0  0  0  0  0  1  0  0
  -23.6602  -32.6608   18.1710 C   0  0  1  0  0  0  0  0  0  0  0  0
  -26.1229  -35.5364   18.3595 C   0  0  2  0  0  0  0  0  0  0  0  0
  -30.5893  -19.7063   19.1519 C   0  0  0  0  0  0  0  0  0  0  0  0
  -29.1321  -24.7335   19.4685 C   0  0  1  0  0  0  0  0  0  0  0  0
  -29.8121  -22.2154   19.2063 C   0  0  2  0  0  0  0  0  0  0  0  0
  -28.1486  -21.8248   14.4345 C   0  0  0  0  0  0  0  0  0  0  0  0
  -22.5272  -32.6529   17.1062 C   0  0  0  0  0  0  0  0  0  0  0  0
  -26.2121  -15.0308   19.4132 N   0  0  0  0  0  0  0  0  0  0  0  0
  -28.9062  -21.9716   18.0047 N   0  0  0  0  0  0  0  0  0  0  0  0
  -25.4270  -15.8876   20.0883 N   0  0  0  0  0  0  0  0  0  0  0  0
  -23.7515  -31.1328   20.1154 N   0  0  0  0  0  0  0  0  0  0  0  0
  -23.9429  -17.9098   17.2044 N   0  0  0  0  0  0  0  0  0  0  0  0
  -24.9360  -16.6866   22.2634 N   0  0  0  0  0  0  0  0  0  0  0  0
  -28.2009  -13.6499   22.9813 N   0  0  0  0  0  0  0  0  0  0  0  0
  -21.5463  -28.9206   21.9967 N   0  0  0  0  0  0  0  0  0  0  0  0
  -24.3223  -33.9511   18.3295 N   0  0  0  0  0  0  0  0  0  0  0  0
  -25.4055  -19.7381   16.8700 N   0  0  0  0  0  0  0  0  0  0  0  0
  -27.4950  -35.5725   18.9401 N   0  3  0  0  0  0  0  0  0  0  0  0
  -26.7874  -15.1404   24.0008 O   0  0  0  0  0  0  0  0  0  0  0  0
  -22.1142  -29.2026   19.7561 O   0  0  0  0  0  0  0  0  0  0  0  0
  -22.2926  -32.9514   20.0872 O   0  0  0  0  0  0  0  0  0  0  0  0
  -26.4597  -33.2032   17.8306 O   0  0  0  0  0  0  0  0  0  0  0  0
  -23.2526  -19.8202   16.0856 O   0  0  0  0  0  0  0  0  0  0  0  0
  -30.7712  -10.5967   19.0946 O   0  0  0  0  0  0  0  0  0  0  0  0
  -28.3370  -26.9977   19.9268 O   0  0  0  0  0  0  0  0  0  1  0  0
  -30.9750   -6.0588   22.2203 F   0  0  0  0  0  0  0  0  0  0  0  0
  -30.3695   -8.0944   17.9901 F   0  0  0  0  0  0  0  0  0  0  0  0
  1  2  1  0  0  0  0
  1  5  2  0  0  0  0
  2  6  2  0  0  0  0
  3  8  2  0  0  0  0
  3 17  1  0  0  0  0
  4  9  1  0  0  0  0
  4 17  2  0  0  0  0
  5 19  1  0  0  0  0
  6 21  1  0  0  0  0
  7 10  2  0  0  0  0
  7 20  1  0  0  0  0
  8 25  1  0  0  0  0
  9 25  2  0  0  0  0
 10 26  1  0  0  0  0
 11 12  2  0  0  0  0
 11 27  1  0  0  0  0
 12 28  1  0  0  0  0
 13 22  1  0  0  0  0
 13 26  2  0  0  0  0
 14 28  2  0  0  0  0
 14 29  1  0  0  0  0
 15 23  2  0  0  0  0
 15 72  1  0  0  0  0
 16 24  2  0  0  0  0
 16 72  1  0  0  0  0
 17 30  1  0  0  0  0
 18 30  1  0  0  0  0
 18 31  2  0  0  0  0
 18 32  1  0  0  0  0
 19 21  2  0  0  0  0
 19 37  1  0  0  0  0
 20 22  2  0  0  0  0
 20 38  1  0  0  0  0
 21 46  1  0  0  0  0
 22 39  1  0  0  0  0
 23 24  1  0  0  0  0
 23 60  1  0  0  0  0
 24 69  1  0  0  0  0
 25 87  1  0  0  0  0
 26 88  1  0  0  0  0
 27 29  2  0  0  0  0
 27 87  1  0  0  0  0
 28 89  1  0  0  0  0
 29 90  1  0  0  0  0
 30 71  2  0  0  0  0
 31 73  1  0  0  0  0
 31 76  1  0  0  0  0
 32 77  1  0  0  0  0
 32 82  2  0  0  0  0
 33 47  1  0  0  0  0
 33 78  1  0  0  0  0
 33 83  2  0  0  0  0
 34 64  1  0  0  0  0
 34 74  1  0  0  0  0
 34 84  2  0  0  0  0
 35 65  1  0  0  0  0
 35 79  1  0  0  0  0
 35 85  2  0  0  0  0
 36 75  1  0  0  0  0
 36 80  1  0  0  0  0
 36 86  2  0  0  0  0
 37 40  1  0  0  0  0
 38 47  1  0  0  0  0
 39 74  1  0  0  0  0
 40 42  1  0  0  0  0
 41 43  1  0  0  0  0
 41 44  1  0  0  0  0
 42 46  1  0  0  0  0
 43 48  1  0  0  0  0
 44 75  1  0  0  0  0
 45 48  1  0  0  0  0
 45 75  1  0  0  0  0
 46 78  1  0  0  0  0
 47 74  1  0  0  0  0
 48 73  1  0  0  0  0
 49 65  1  0  0  0  0
 50 66  1  0  0  0  0
 51 66  1  0  0  0  0
 52 67  1  0  0  0  0
 53 69  1  0  0  0  0
 54 69  1  0  0  0  0
 55 69  1  0  0  0  0
 56 70  1  0  0  0  0
 57 70  1  0  0  0  0
 58 70  1  0  0  0  0
 59 81  1  0  0  0  0
 60 80  1  0  0  0  0
 61 66  1  0  0  0  0
 61 68  1  0  0  0  0
 62 67  1  0  0  0  0
 62 68  1  0  0  0  0
 63 67  1  0  0  0  0
 63 88  1  0  0  0  0
 64 70  1  0  0  0  0
 64 79  1  0  0  0  0
 65 81  1  0  0  0  0
 68 72  1  0  0  0  0
 71 73  1  0  0  0  0
M  CHG  1  81   1
M  ISO  4  36 100  63 101  80 100  88 101
M  END
> <Batch ID>
0104

> <Smiles>
CNC(C)C(=O)NC(C(=O)N1Cc2cc([101O:1][101CH2:1]C(C)CC(CC(C)C)n3cc(C[100NH:0][100C:0](=O)N4CCCC(n5nc(-c6ccc(Oc7ccc(F)cc7F)cc6)c(C(N)=O)c5N)C4)c(C(C)(C)C)c3)ccc2CC1C(=O)NC1CCCc2ccccc21)C(C)(C)C

> <Shape>
0.200

> <Color>
0.094

> <Negative vol penalty>
0.000

$$$$

  -OEChem-04052319433D

 87 95  0     1  0  0  0  0  0999 V2000
  -29.7160  -24.5679   14.1272 C   0  0  0  0  0  0  0  0  0  0  0  0
  -28.6729  -24.3335   15.0175 C   0  0  0  0  0  0  0  0  0  0  0  0
  -29.6982  -18.2514   21.4799 C   0  0  0  0  0  0  0  0  0  0  0  0
  -28.2184  -17.6742   19.6595 C   0  0  0  0  0  0  0  0  0  0  0  0
  -30.8047  -25.3453   14.5200 C   0  0  0  0  0  0  0  0  0  0  0  0
  -28.7186  -24.8754   16.3015 C   0  0  0  0  0  0  0  0  0  0  0  0
  -24.3103  -26.9407   17.6964 C   0  0  0  0  0  0  0  0  0  0  0  0
  -30.4195  -17.0769   21.2661 C   0  0  0  0  0  0  0  0  0  0  0  0
  -28.9397  -16.4996   19.4456 C   0  0  0  0  0  0  0  0  0  0  0  0
  -23.3013  -26.0707   18.1073 C   0  0  0  0  0  0  0  0  0  0  0  0
  -30.1724  -13.1740   18.6517 C   0  0  0  0  0  0  0  0  0  0  0  0
  -29.4506  -11.9975   18.4507 C   0  0  0  0  0  0  0  0  0  0  0  0
  -23.8324  -26.5521   20.4107 C   0  0  0  0  0  0  0  0  0  0  0  0
  -20.6450  -22.2998   20.0892 C   0  0  0  0  0  0  0  0  0  0  0  0
  -18.9475  -23.9083   19.4829 C   0  0  0  0  0  0  0  0  0  0  0  0
  -28.4384  -12.2461   20.6303 C   0  0  0  0  0  0  0  0  0  0  0  0
  -28.5976  -18.5501   20.6766 C   0  0  0  0  0  0  0  0  0  0  0  0
  -28.0826  -21.0216   20.3105 C   0  0  0  0  0  0  0  0  0  0  0  0
  -30.8592  -25.9050   15.8062 C   0  0  0  0  0  0  0  0  0  0  0  0
  -25.0965  -27.6157   18.6413 C   0  0  0  0  0  0  0  0  0  0  0  0
  -29.8098  -25.6598   16.7123 C   0  0  0  0  0  0  0  0  0  0  0  0
  -24.8491  -27.4321   20.0092 C   0  0  0  0  0  0  0  0  0  0  0  0
  -20.2828  -23.5054   19.4884 C   0  0  0  0  0  0  0  0  0  0  0  0
  -19.6718  -21.4970   20.6843 C   0  0  0  0  0  0  0  0  0  0  0  0
  -17.9742  -23.1056   20.0780 C   0  0  0  0  0  0  0  0  0  0  0  0
  -18.3364  -21.9000   20.6787 C   0  0  0  0  0  0  0  0  0  0  0  0
  -30.0402  -16.2010   20.2489 C   0  0  0  0  0  0  0  0  0  0  0  0
  -23.0641  -25.8741   19.4646 C   0  0  0  0  0  0  0  0  0  0  0  0
  -30.0272  -13.8865   19.8420 C   0  0  0  0  0  0  0  0  0  0  0  0
  -28.5836  -11.5335   19.4399 C   0  0  0  0  0  0  0  0  0  0  0  0
  -29.1602  -13.4226   20.8313 C   0  0  0  0  0  0  0  0  0  0  0  0
  -27.8518  -19.7630   20.8974 C   0  0  0  0  0  0  0  0  0  0  0  0
  -27.1101  -21.8323   20.8429 C   0  0  0  0  0  0  0  0  0  0  0  0
  -29.0863  -21.4221   19.3682 C   0  0  0  0  0  0  0  0  0  0  0  0
  -28.1908  -27.6552   19.3675 C   0  0  0  0  0  0  0  0  0  0  0  0
  -27.2909  -30.0412   21.3724 C   0  0  0  0  0  0  0  0  0  0  0  0
  -24.8068  -31.5177   23.1878 C   0  0  0  0  0  0  0  0  0  0  0  0
  -21.6919  -20.7310   23.1412 C   0  0  0  0  0  0  0  0  0  0  0  0
  -32.0790  -26.6993   16.2012 C   0  0  0  0  0  0  0  0  0  0  0  0
  -26.1633  -28.5712   18.1817 C   0  0  0  0  0  0  0  0  0  0  0  0
  -25.6516  -28.1484   21.0633 C   0  0  0  0  0  0  0  0  0  0  0  0
  -31.8742  -27.5475   17.4537 C   0  0  0  0  0  0  0  0  0  0  0  0
  -24.4104  -22.3672   24.7565 C   0  0  0  0  0  0  0  0  0  0  0  0
  -31.1995  -26.7279   18.5491 C   0  0  0  0  0  0  0  0  0  0  0  0
  -25.6215  -21.9989   23.8977 C   0  0  0  0  0  0  0  0  0  0  0  0
  -23.4156  -21.2128   24.8540 C   0  0  0  0  0  0  0  0  0  0  0  0
  -24.1844  -20.2970   22.6990 C   0  0  0  0  0  0  0  0  0  0  0  0
  -29.8112  -26.2510   18.1054 C   0  0  1  0  0  0  0  0  0  0  0  0
  -27.2423  -28.8127   19.2328 C   0  0  1  0  0  0  0  0  0  0  0  0
  -25.1891  -21.4488   22.5252 C   0  0  2  0  0  0  0  0  0  0  0  0
  -16.1802  -24.3429   21.3368 C   0  0  0  0  0  0  0  0  0  0  0  0
  -24.3835  -33.4305   24.7561 C   0  0  0  0  0  0  0  0  0  0  0  0
  -17.6916  -19.0360   19.7922 C   0  0  0  0  0  0  0  0  0  0  0  0
  -15.5625  -19.2145   21.0955 C   0  0  0  0  0  0  0  0  0  0  0  0
  -28.6516  -28.4939   23.6229 C   0  0  0  0  0  0  0  0  0  0  0  0
  -27.4062  -29.9191   25.2617 C   0  0  0  0  0  0  0  0  0  0  0  0
  -29.0273  -30.9657   23.6808 C   0  0  0  0  0  0  0  0  0  0  0  0
  -22.8426  -32.7453   21.3455 C   0  0  0  0  0  0  0  0  0  0  0  0
  -17.2932  -21.0393   21.3173 C   0  0  0  0  0  0  0  0  0  0  0  0
  -20.0861  -20.2111   21.3219 C   0  0  0  0  0  0  0  0  0  0  0  0
  -21.3296  -24.3685   18.8477 C   0  0  0  0  0  0  0  0  0  1  0  0
  -16.1827  -24.4103   18.8211 C   0  0  0  0  0  0  0  0  0  0  0  0
  -16.5511  -23.5598   20.0586 C   0  0  1  0  0  0  0  0  0  0  0  0
  -26.8149  -30.1128   22.8033 C   0  0  1  0  0  0  0  0  0  0  0  0
  -24.3721  -32.9673   23.3076 C   0  0  2  0  0  0  0  0  0  0  0  0
  -16.6520  -20.0030   20.3645 C   0  0  0  0  0  0  0  0  0  0  0  0
  -27.9610  -29.8578   23.8226 C   0  0  0  0  0  0  0  0  0  0  0  0
  -26.8142  -19.7687   21.7384 N   0  0  0  0  0  0  0  0  0  0  0  0
  -26.3844  -21.0409   21.6839 N   0  0  0  0  0  0  0  0  0  0  0  0
  -26.6877  -29.0675   20.5639 N   0  0  0  0  0  0  0  0  0  0  0  0
  -23.0450  -20.7385   23.5184 N   0  0  0  0  0  0  0  0  0  0  0  0
  -26.8135  -23.1377   20.6691 N   0  0  0  0  0  0  0  0  0  0  0  0
  -30.0071  -20.4630   18.9247 N   0  0  0  0  0  0  0  0  0  0  0  0
  -28.8522  -27.3308   18.1985 N   0  0  0  0  0  0  0  0  0  0  0  0
  -26.1608  -31.4084   22.9515 N   0  0  0  0  0  0  0  0  0  0  0  0
  -21.4282  -20.2723   21.8564 N   0  0  0  0  0  0  0  0  0  0  0  0
  -14.7122  -24.3846   18.6117 N   0  3  0  0  0  0  0  0  0  0  0  0
  -22.9932  -33.1408   22.7696 N   0  3  0  0  0  0  0  0  0  0  0  0
  -29.1744  -22.5996   18.9448 O   0  0  0  0  0  0  0  0  0  0  0  0
  -28.3145  -27.0985   20.4522 O   0  0  0  0  0  0  0  0  0  0  0  0
  -28.1607  -30.8252   20.9845 O   0  0  0  0  0  0  0  0  0  0  0  0
  -24.0241  -30.5765   23.2969 O   0  0  0  0  0  0  0  0  0  0  0  0
  -20.7866  -21.1104   23.8918 O   0  0  0  0  0  0  0  0  0  0  0  0
  -30.7439  -15.0548   20.0398 O   0  0  0  0  0  0  0  0  0  0  0  0
  -22.0803  -25.0250   19.8684 O   0  0  0  0  0  0  0  0  0  1  0  0
  -27.8894  -10.4045   19.2461 F   0  0  0  0  0  0  0  0  0  0  0  0
  -29.0156  -14.1035   21.9764 F   0  0  0  0  0  0  0  0  0  0  0  0
  1  2  1  0  0  0  0
  1  5  2  0  0  0  0
  2  6  2  0  0  0  0
  3  8  2  0  0  0  0
  3 17  1  0  0  0  0
  4  9  1  0  0  0  0
  4 17  2  0  0  0  0
  5 19  1  0  0  0  0
  6 21  1  0  0  0  0
  7 10  2  0  0  0  0
  7 20  1  0  0  0  0
  8 27  1  0  0  0  0
  9 27  2  0  0  0  0
 10 28  1  0  0  0  0
 11 12  2  0  0  0  0
 11 29  1  0  0  0  0
 12 30  1  0  0  0  0
 13 22  1  0  0  0  0
 13 28  2  0  0  0  0
 14 23  1  0  0  0  0
 14 24  2  0  0  0  0
 15 23  2  0  0  0  0
 15 25  1  0  0  0  0
 16 30  2  0  0  0  0
 16 31  1  0  0  0  0
 17 32  1  0  0  0  0
 18 32  1  0  0  0  0
 18 33  2  0  0  0  0
 18 34  1  0  0  0  0
 19 21  2  0  0  0  0
 19 39  1  0  0  0  0
 20 22  2  0  0  0  0
 20 40  1  0  0  0  0
 21 48  1  0  0  0  0
 22 41  1  0  0  0  0
 23 61  1  0  0  0  0
 24 26  1  0  0  0  0
 24 60  1  0  0  0  0
 25 26  2  0  0  0  0
 25 63  1  0  0  0  0
 26 59  1  0  0  0  0
 27 84  1  0  0  0  0
 28 85  1  0  0  0  0
 29 31  2  0  0  0  0
 29 84  1  0  0  0  0
 30 86  1  0  0  0  0
 31 87  1  0  0  0  0
 32 68  2  0  0  0  0
 33 69  1  0  0  0  0
 33 72  1  0  0  0  0
 34 73  1  0  0  0  0
 34 79  2  0  0  0  0
 35 49  1  0  0  0  0
 35 74  1  0  0  0  0
 35 80  2  0  0  0  0
 36 64  1  0  0  0  0
 36 70  1  0  0  0  0
 36 81  2  0  0  0  0
 37 65  1  0  0  0  0
 37 75  1  0  0  0  0
 37 82  2  0  0  0  0
 38 71  1  0  0  0  0
 38 76  1  0  0  0  0
 38 83  2  0  0  0  0
 39 42  1  0  0  0  0
 40 49  1  0  0  0  0
 41 70  1  0  0  0  0
 42 44  1  0  0  0  0
 43 45  1  0  0  0  0
 43 46  1  0  0  0  0
 44 48  1  0  0  0  0
 45 50  1  0  0  0  0
 46 71  1  0  0  0  0
 47 50  1  0  0  0  0
 47 71  1  0  0  0  0
 48 74  1  0  0  0  0
 49 70  1  0  0  0  0
 50 69  1  0  0  0  0
 51 63  1  0  0  0  0
 52 65  1  0  0  0  0
 53 66  1  0  0  0  0
 54 66  1  0  0  0  0
 55 67  1  0  0  0  0
 56 67  1  0  0  0  0
 57 67  1  0  0  0  0
 58 78  1  0  0  0  0
 59 66  1  0  0  0  0
 60 76  1  0  0  0  0
 61 85  1  0  0  0  0
 62 63  1  0  0  0  0
 62 77  1  0  0  0  0
 64 67  1  0  0  0  0
 64 75  1  0  0  0  0
 65 78  1  0  0  0  0
 68 69  1  0  0  0  0
M  CHG  2  77   1  78   1
M  ISO  4  38 100  61 101  76 100  85 101
M  END
> <Batch ID>
0104

> <Smiles>
CNC(C)C(=O)NC(C(=O)N1Cc2cc([101O:1][101CH2:1]c3cc(C[100NH:0][100C:0](=O)N4CCCC(n5nc(-c6ccc(Oc7ccc(F)cc7F)cc6)c(C(N)=O)c5N)C4)c(CC(C)C)c(C(C)CN)c3)ccc2CC1C(=O)NC1CCCc2ccccc21)C(C)(C)C

> <Shape>
0.212

> <Color>
0.066

> <Negative vol penalty>
0.000

$$$$

  -OEChem-04052319433D

 88 96  0     1  0  0  0  0  0999 V2000
  -29.9489  -26.6303   15.8434 C   0  0  0  0  0  0  0  0  0  0  0  0
  -28.9631  -26.1495   16.6992 C   0  0  0  0  0  0  0  0  0  0  0  0
  -24.6751   -8.6933   21.4305 C   0  0  0  0  0  0  0  0  0  0  0  0
  -23.1497  -10.5105   20.9742 C   0  0  0  0  0  0  0  0  0  0  0  0
  -30.7582  -27.6935   16.2416 C   0  0  0  0  0  0  0  0  0  0  0  0
  -28.7867  -26.7311   17.9542 C   0  0  0  0  0  0  0  0  0  0  0  0
  -23.9099  -27.5435   19.0507 C   0  0  0  0  0  0  0  0  0  0  0  0
  -25.8278  -18.0040   19.2914 C   0  0  0  0  0  0  0  0  0  0  0  0
  -23.7933   -8.1937   22.3888 C   0  0  0  0  0  0  0  0  0  0  0  0
  -22.2678  -10.0108   21.9325 C   0  0  0  0  0  0  0  0  0  0  0  0
  -23.1582  -26.4439   19.4626 C   0  0  0  0  0  0  0  0  0  0  0  0
  -25.3386  -19.2842   19.5508 C   0  0  0  0  0  0  0  0  0  0  0  0
  -20.9287   -6.3981   22.4422 C   0  0  0  0  0  0  0  0  0  0  0  0
  -20.6764   -5.0263   22.4384 C   0  0  0  0  0  0  0  0  0  0  0  0
  -23.4079  -27.1408   21.7585 C   0  0  0  0  0  0  0  0  0  0  0  0
  -27.9684  -18.6342   20.2175 C   0  0  0  0  0  0  0  0  0  0  0  0
  -21.5260   -4.8637   24.6942 C   0  0  0  0  0  0  0  0  0  0  0  0
  -24.3533   -9.8518   20.7233 C   0  0  0  0  0  0  0  0  0  0  0  0
  -25.2980  -10.0530   18.3622 C   0  0  0  0  0  0  0  0  0  0  0  0
  -30.5852  -28.2947   17.4983 C   0  0  0  0  0  0  0  0  0  0  0  0
  -24.4263  -28.4455   19.9921 C   0  0  0  0  0  0  0  0  0  0  0  0
  -29.5952  -27.8025   18.3701 C   0  0  0  0  0  0  0  0  0  0  0  0
  -24.1637  -28.2524   21.3558 C   0  0  0  0  0  0  0  0  0  0  0  0
  -27.4792  -19.9145   20.4769 C   0  0  0  0  0  0  0  0  0  0  0  0
  -27.1427  -17.6789   19.6248 C   0  0  0  0  0  0  0  0  0  0  0  0
  -22.5896   -8.8524   22.6398 C   0  0  0  0  0  0  0  0  0  0  0  0
  -22.9095  -26.2408   20.8168 C   0  0  0  0  0  0  0  0  0  0  0  0
  -26.1643  -20.2395   20.1436 C   0  0  0  0  0  0  0  0  0  0  0  0
  -21.4796   -7.0028   23.5721 C   0  0  0  0  0  0  0  0  0  0  0  0
  -20.9750   -4.2591   23.5644 C   0  0  0  0  0  0  0  0  0  0  0  0
  -21.7782   -6.2356   24.6981 C   0  0  0  0  0  0  0  0  0  0  0  0
  -25.2641  -10.3687   19.7337 C   0  0  0  0  0  0  0  0  0  0  0  0
  -26.3366  -10.8007   17.8633 C   0  0  0  0  0  0  0  0  0  0  0  0
  -24.4651   -9.1635   17.6067 C   0  0  0  0  0  0  0  0  0  0  0  0
  -27.3451  -29.3695   20.8469 C   0  0  0  0  0  0  0  0  0  0  0  0
  -25.7137  -31.4864   22.6853 C   0  0  0  0  0  0  0  0  0  0  0  0
  -22.8225  -32.2834   24.3139 C   0  0  0  0  0  0  0  0  0  0  0  0
  -28.9184  -15.8919   19.6292 C   0  0  0  0  0  0  0  0  0  0  0  0
  -31.5154  -29.4107   17.9034 C   0  0  0  0  0  0  0  0  0  0  0  0
  -25.2128  -29.6413   19.5296 C   0  0  0  0  0  0  0  0  0  0  0  0
  -24.6784  -29.2028   22.4048 C   0  0  0  0  0  0  0  0  0  0  0  0
  -31.0160  -30.2156   19.1004 C   0  0  0  0  0  0  0  0  0  0  0  0
  -30.5155  -12.7438   19.1651 C   0  0  0  0  0  0  0  0  0  0  0  0
  -30.5334  -29.2831   20.2069 C   0  0  0  0  0  0  0  0  0  0  0  0
  -29.3528  -11.7494   19.1273 C   0  0  0  0  0  0  0  0  0  0  0  0
  -30.2643  -13.8725   20.1634 C   0  0  0  0  0  0  0  0  0  0  0  0
  -27.8264  -13.5860   19.9545 C   0  0  0  0  0  0  0  0  0  0  0  0
  -29.3568  -28.4232   19.7295 C   0  0  1  0  0  0  0  0  0  0  0  0
  -26.1236  -30.2124   20.6120 C   0  0  1  0  0  0  0  0  0  0  0  0
  -28.0048  -12.4663   18.9161 C   0  0  2  0  0  0  0  0  0  0  0  0
  -21.8030  -34.0616   25.7616 C   0  0  0  0  0  0  0  0  0  0  0  0
  -21.2330  -24.7331   23.3848 C   0  0  0  0  0  0  0  0  0  0  0  0
  -27.3209  -30.4639   25.0689 C   0  0  0  0  0  0  0  0  0  0  0  0
  -25.6425  -31.5487   26.5770 C   0  0  0  0  0  0  0  0  0  0  0  0
  -26.9979  -32.9432   25.0148 C   0  0  0  0  0  0  0  0  0  0  0  0
  -31.3880  -24.9277   20.2473 C   0  0  0  0  0  0  0  0  0  0  0  0
  -20.7015  -32.8469   22.3284 C   0  0  0  0  0  0  0  0  0  0  0  0
  -28.3769  -20.9246   21.1120 C   0  0  0  0  0  0  0  0  0  0  0  0
  -28.9924  -21.9366   20.1273 C   0  0  0  0  0  0  0  0  0  0  0  0
  -24.1394  -23.0343   21.4395 C   0  0  0  0  0  0  0  0  0  0  0  0
  -22.9170  -23.1694   22.3498 C   0  0  0  0  0  0  0  0  0  0  0  0
  -29.9503  -22.9479   20.7497 C   0  0  0  0  0  0  0  0  0  0  0  0
  -24.5430  -21.5766   21.2567 C   0  0  0  0  0  0  0  0  0  0  0  0
  -25.1579  -31.4773   24.0889 C   0  0  1  0  0  0  0  0  0  0  0  0
  -21.9997  -33.5589   24.3399 C   0  0  2  0  0  0  0  0  0  0  0  0
  -22.4736  -24.6267   22.5081 C   0  0  1  0  0  0  0  0  0  1  0  0
  -26.2716  -31.5891   25.1680 C   0  0  0  0  0  0  0  0  0  0  0  0
  -26.2064  -11.2483   20.0837 N   0  0  0  0  0  0  0  0  0  0  0  0
  -26.8422  -11.4916   18.9250 N   0  0  0  0  0  0  0  0  0  0  0  0
  -25.4475  -30.3535   21.9032 N   0  0  0  0  0  0  0  0  0  0  0  0
  -28.9716  -14.5081   19.8994 N   0  0  0  0  0  0  0  0  0  0  0  0
  -26.8575  -10.9279   16.6244 N   0  0  0  0  0  0  0  0  0  0  0  0
  -23.4447   -8.4739   18.2757 N   0  0  0  0  0  0  0  0  0  0  0  0
  -27.6392  -16.3783   19.3611 N   0  0  0  0  0  0  0  0  0  0  0  0
  -28.1340  -29.1973   19.7255 N   0  0  0  0  0  0  0  0  0  0  0  0
  -24.1653  -32.5452   24.1417 N   0  0  0  0  0  0  0  0  0  0  0  0
  -30.4397  -23.9032   19.7286 N   0  3  0  0  0  0  0  0  0  0  0  0
  -20.6584  -33.3224   23.7351 N   0  3  0  0  0  0  0  0  0  0  0  0
  -24.6316   -8.9731   16.3781 O   0  0  0  0  0  0  0  0  0  0  0  0
  -27.5570  -28.9106   21.9632 O   0  0  0  0  0  0  0  0  0  0  0  0
  -26.3542  -32.4656   22.2948 O   0  0  0  0  0  0  0  0  0  0  0  0
  -22.3243  -31.1667   24.4381 O   0  0  0  0  0  0  0  0  0  0  0  0
  -29.9362  -16.5887   19.6084 O   0  0  0  0  0  0  0  0  0  0  0  0
  -21.7288   -8.3650   23.5746 O   0  0  0  0  0  0  0  0  0  0  0  0
  -25.6675  -21.4925   20.3915 O   0  0  0  0  0  0  0  0  0  0  0  0
  -22.1766  -25.1680   21.2216 O   0  0  0  0  0  0  0  0  0  1  0  0
  -20.7313   -2.9420   23.5611 F   0  0  0  0  0  0  0  0  0  0  0  0
  -22.3066   -6.8111   25.7869 F   0  0  0  0  0  0  0  0  0  0  0  0
  1  2  1  0  0  0  0
  1  5  2  0  0  0  0
  2  6  2  0  0  0  0
  3  9  2  0  0  0  0
  3 18  1  0  0  0  0
  4 10  1  0  0  0  0
  4 18  2  0  0  0  0
  5 20  1  0  0  0  0
  6 22  1  0  0  0  0
  7 11  2  0  0  0  0
  7 21  1  0  0  0  0
  8 12  2  0  0  0  0
  8 25  1  0  0  0  0
  9 26  1  0  0  0  0
 10 26  2  0  0  0  0
 11 27  1  0  0  0  0
 12 28  1  0  0  0  0
 13 14  2  0  0  0  0
 13 29  1  0  0  0  0
 14 30  1  0  0  0  0
 15 23  1  0  0  0  0
 15 27  2  0  0  0  0
 16 24  1  0  0  0  0
 16 25  2  0  0  0  0
 17 30  2  0  0  0  0
 17 31  1  0  0  0  0
 18 32  1  0  0  0  0
 19 32  1  0  0  0  0
 19 33  2  0  0  0  0
 19 34  1  0  0  0  0
 20 22  2  0  0  0  0
 20 39  1  0  0  0  0
 21 23  2  0  0  0  0
 21 40  1  0  0  0  0
 22 48  1  0  0  0  0
 23 41  1  0  0  0  0
 24 28  2  0  0  0  0
 24 58  1  0  0  0  0
 25 74  1  0  0  0  0
 26 84  1  0  0  0  0
 27 86  1  0  0  0  0
 28 85  1  0  0  0  0
 29 31  2  0  0  0  0
 29 84  1  0  0  0  0
 30 87  1  0  0  0  0
 31 88  1  0  0  0  0
 32 68  2  0  0  0  0
 33 69  1  0  0  0  0
 33 72  1  0  0  0  0
 34 73  1  0  0  0  0
 34 79  2  0  0  0  0
 35 49  1  0  0  0  0
 35 75  1  0  0  0  0
 35 80  2  0  0  0  0
 36 64  1  0  0  0  0
 36 70  1  0  0  0  0
 36 81  2  0  0  0  0
 37 65  1  0  0  0  0
 37 76  1  0  0  0  0
 37 82  2  0  0  0  0
 38 71  1  0  0  0  0
 38 74  1  0  0  0  0
 38 83  2  0  0  0  0
 39 42  1  0  0  0  0
 40 49  1  0  0  0  0
 41 70  1  0  0  0  0
 42 44  1  0  0  0  0
 43 45  1  0  0  0  0
 43 46  1  0  0  0  0
 44 48  1  0  0  0  0
 45 50  1  0  0  0  0
 46 71  1  0  0  0  0
 47 50  1  0  0  0  0
 47 71  1  0  0  0  0
 48 75  1  0  0  0  0
 49 70  1  0  0  0  0
 50 69  1  0  0  0  0
 51 65  1  0  0  0  0
 52 66  1  0  0  0  0
 53 67  1  0  0  0  0
 54 67  1  0  0  0  0
 55 67  1  0  0  0  0
 56 77  1  0  0  0  0
 57 78  1  0  0  0  0
 58 59  1  0  0  0  0
 59 62  1  0  0  0  0
 60 61  1  0  0  0  0
 60 63  1  0  0  0  0
 61 66  1  0  0  0  0
 62 77  1  0  0  0  0
 63 85  1  0  0  0  0
 64 67  1  0  0  0  0
 64 76  1  0  0  0  0
 65 78  1  0  0  0  0
 66 86  1  0  0  0  0
 68 69  1  0  0  0  0
M  CHG  2  77   1  78   1
M  ISO  4  38 100  66 101  74 100  86 101
M  END
> <Batch ID>
0104

> <Smiles>
CNCCCc1cc([100NH:0][100C:0](=O)N2CCCC(n3nc(-c4ccc(Oc5ccc(F)cc5F)cc4)c(C(N)=O)c3N)C2)ccc1OCCC[101CH:1](C)[101O:1]c1ccc2c(c1)CN(C(=O)C(NC(=O)C(C)NC)C(C)(C)C)C(C(=O)NC1CCCc3ccccc31)C2

> <Shape>
0.283

> <Color>
0.089

> <Negative vol penalty>
0.000

$$$$

  -OEChem-04052319433D

 83 91  0     1  0  0  0  0  0999 V2000
  -27.5589  -17.7293   18.6043 C   0  0  0  0  0  0  0  0  0  0  0  0
  -26.8822  -18.9017   18.2874 C   0  0  0  0  0  0  0  0  0  0  0  0
  -23.3558  -17.4673   20.0500 C   0  0  0  0  0  0  0  0  0  0  0  0
  -21.4836  -17.3352   21.5714 C   0  0  0  0  0  0  0  0  0  0  0  0
  -28.5053  -17.7299   19.6269 C   0  0  0  0  0  0  0  0  0  0  0  0
  -27.1601  -20.0778   18.9849 C   0  0  0  0  0  0  0  0  0  0  0  0
  -24.5875  -25.5905   18.6388 C   0  0  0  0  0  0  0  0  0  0  0  0
  -23.3790  -16.0757   19.9577 C   0  0  0  0  0  0  0  0  0  0  0  0
  -21.5068  -15.9436   21.4791 C   0  0  0  0  0  0  0  0  0  0  0  0
  -23.5506  -26.2832   19.2622 C   0  0  0  0  0  0  0  0  0  0  0  0
  -24.1598  -12.5418   19.6033 C   0  0  0  0  0  0  0  0  0  0  0  0
  -25.3983  -11.9054   19.6851 C   0  0  0  0  0  0  0  0  0  0  0  0
  -25.1438  -27.3188   20.7482 C   0  0  0  0  0  0  0  0  0  0  0  0
  -25.7308  -12.8361   21.8897 C   0  0  0  0  0  0  0  0  0  0  0  0
  -19.5577  -28.4259   21.7066 C   0  0  0  0  0  0  0  0  0  0  0  0
  -22.4082  -18.0971   20.8569 C   0  0  0  0  0  0  0  0  0  0  0  0
  -21.6610  -20.4289   20.1412 C   0  0  0  0  0  0  0  0  0  0  0  0
  -28.7854  -18.9042   20.3450 C   0  0  0  0  0  0  0  0  0  0  0  0
  -25.9114  -25.7488   19.0732 C   0  0  0  0  0  0  0  0  0  0  0  0
  -28.1291  -20.1044   20.0042 C   0  0  0  0  0  0  0  0  0  0  0  0
  -26.1961  -26.6290   20.1269 C   0  0  0  0  0  0  0  0  0  0  0  0
  -18.5133  -27.5522   21.9148 C   0  0  0  0  0  0  0  0  0  0  0  0
  -18.8352  -26.7716   23.0524 C   0  0  0  0  0  0  0  0  0  0  0  0
  -22.4545  -15.3139   20.6722 C   0  0  0  0  0  0  0  0  0  0  0  0
  -23.8283  -27.1453   20.3190 C   0  0  0  0  0  0  0  0  0  0  0  0
  -23.7068  -13.3254   20.6647 C   0  0  0  0  0  0  0  0  0  0  0  0
  -26.1838  -12.0526   20.8283 C   0  0  0  0  0  0  0  0  0  0  0  0
  -24.4923  -13.4726   21.8079 C   0  0  0  0  0  0  0  0  0  0  0  0
  -22.3841  -19.5345   20.9531 C   0  0  0  0  0  0  0  0  0  0  0  0
  -20.0664  -27.1921   23.5049 C   0  0  0  0  0  0  0  0  0  0  0  0
  -21.9741  -21.6714   20.6357 C   0  0  0  0  0  0  0  0  0  0  0  0
  -20.7846  -20.1604   19.0387 C   0  0  0  0  0  0  0  0  0  0  0  0
  -28.1152  -23.8157   20.3022 C   0  0  0  0  0  0  0  0  0  0  0  0
  -30.0136  -26.4291   20.0044 C   0  0  0  0  0  0  0  0  0  0  0  0
  -30.2529  -29.8263   19.7844 C   0  0  0  0  0  0  0  0  0  0  0  0
  -22.7627  -25.1413   24.9349 C   0  0  0  0  0  0  0  0  0  0  0  0
  -29.8247  -18.8501   21.4368 C   0  0  0  0  0  0  0  0  0  0  0  0
  -27.0218  -25.0148   18.3728 C   0  0  0  0  0  0  0  0  0  0  0  0
  -27.6028  -26.8495   20.6180 C   0  0  0  0  0  0  0  0  0  0  0  0
  -29.7301  -20.0238   22.4062 C   0  0  0  0  0  0  0  0  0  0  0  0
  -25.5097  -23.0964   23.9607 C   0  0  0  0  0  0  0  0  0  0  0  0
  -29.6594  -21.3322   21.6331 C   0  0  0  0  0  0  0  0  0  0  0  0
  -24.8807  -22.0581   23.0300 C   0  0  0  0  0  0  0  0  0  0  0  0
  -24.5752  -23.4620   25.1118 C   0  0  0  0  0  0  0  0  0  0  0  0
  -22.5981  -22.8582   23.7701 C   0  0  0  0  0  0  0  0  0  0  0  0
  -28.3928  -21.3885   20.7696 C   0  0  1  0  0  0  0  0  0  0  0  0
  -28.2719  -24.8601   19.2334 C   0  0  1  0  0  0  0  0  0  0  0  0
  -23.4807  -22.4991   22.5625 C   0  0  2  0  0  0  0  0  0  0  0  0
  -18.0052  -25.7030   23.6461 C   0  0  0  0  0  0  0  0  0  0  0  0
  -17.5728  -27.0537   19.6300 C   0  0  0  0  0  0  0  0  0  0  0  0
  -16.4468  -28.7527   21.1134 C   0  0  0  0  0  0  0  0  0  0  0  0
  -31.9399  -31.6736   19.5875 C   0  0  0  0  0  0  0  0  0  0  0  0
  -30.7080  -26.1065   22.9580 C   0  0  0  0  0  0  0  0  0  0  0  0
  -31.5926  -28.4485   22.9341 C   0  0  0  0  0  0  0  0  0  0  0  0
  -32.6427  -26.7058   21.4909 C   0  0  0  0  0  0  0  0  0  0  0  0
  -29.1413  -30.7221   17.1920 C   0  0  0  0  0  0  0  0  0  0  0  0
  -20.8718  -26.7237   24.6526 C   0  0  0  0  0  0  0  0  0  0  0  0
  -21.7981  -28.9510   22.8051 C   0  0  0  0  0  0  0  0  0  0  0  0
  -22.9887  -28.1365   22.3111 C   0  0  0  0  0  0  0  0  0  1  0  0
  -17.2886  -27.4559   21.0956 C   0  0  0  0  0  0  0  0  0  0  0  0
  -30.3589  -27.6055   20.8851 C   0  0  1  0  0  0  0  0  0  0  0  0
  -31.0248  -30.7222   18.8325 C   0  0  2  0  0  0  0  0  0  0  0  0
  -31.2987  -27.2111   22.0593 C   0  0  0  0  0  0  0  0  0  0  0  0
  -23.1026  -20.1561   21.8920 N   0  0  0  0  0  0  0  0  0  0  0  0
  -20.4959  -28.1982   22.6794 N   0  0  0  0  0  0  0  0  0  0  0  0
  -22.8326  -21.4543   21.6731 N   0  0  0  0  0  0  0  0  0  0  0  0
  -28.6533  -26.1043   19.9049 N   0  0  0  0  0  0  0  0  0  0  0  0
  -23.2652  -23.8729   24.6008 N   0  0  0  0  0  0  0  0  0  0  0  0
  -21.5962  -22.9176   20.2800 N   0  0  0  0  0  0  0  0  0  0  0  0
  -20.5736  -18.8270   18.6622 N   0  0  0  0  0  0  0  0  0  0  0  0
  -28.4658  -22.5413   19.8992 N   0  0  0  0  0  0  0  0  0  0  0  0
  -30.9043  -28.6305   20.0017 N   0  0  0  0  0  0  0  0  0  0  0  0
  -21.5174  -25.4540   24.4038 N   0  0  0  0  0  0  0  0  0  0  0  0
  -30.0850  -31.5310   18.0057 N   0  3  0  0  0  0  0  0  0  0  0  0
  -20.2186  -21.0768   18.3958 O   0  0  0  0  0  0  0  0  0  0  0  0
  -27.7078  -24.1421   21.4109 O   0  0  0  0  0  0  0  0  0  0  0  0
  -30.9168  -25.8251   19.4205 O   0  0  0  0  0  0  0  0  0  0  0  0
  -29.1813  -30.1559   20.2880 O   0  0  0  0  0  0  0  0  0  0  0  0
  -23.3807  -25.9384   25.6489 O   0  0  0  0  0  0  0  0  0  0  0  0
  -22.4766  -13.9559   20.5822 O   0  0  0  0  0  0  0  0  0  0  0  0
  -22.8179  -27.8221   20.9297 O   0  0  0  0  0  0  0  0  0  1  0  0
  -27.3724  -11.4402   20.9074 F   0  0  0  0  0  0  0  0  0  0  0  0
  -24.0619  -14.2231   22.8312 F   0  0  0  0  0  0  0  0  0  0  0  0
  1  2  1  0  0  0  0
  1  5  2  0  0  0  0
  2  6  2  0  0  0  0
  3  8  2  0  0  0  0
  3 16  1  0  0  0  0
  4  9  1  0  0  0  0
  4 16  2  0  0  0  0
  5 18  1  0  0  0  0
  6 20  1  0  0  0  0
  7 10  2  0  0  0  0
  7 19  1  0  0  0  0
  8 24  1  0  0  0  0
  9 24  2  0  0  0  0
 10 25  1  0  0  0  0
 11 12  2  0  0  0  0
 11 26  1  0  0  0  0
 12 27  1  0  0  0  0
 13 21  1  0  0  0  0
 13 25  2  0  0  0  0
 14 27  2  0  0  0  0
 14 28  1  0  0  0  0
 15 22  2  0  0  0  0
 15 65  1  0  0  0  0
 16 29  1  0  0  0  0
 17 29  1  0  0  0  0
 17 31  2  0  0  0  0
 17 32  1  0  0  0  0
 18 20  2  0  0  0  0
 18 37  1  0  0  0  0
 19 21  2  0  0  0  0
 19 38  1  0  0  0  0
 20 46  1  0  0  0  0
 21 39  1  0  0  0  0
 22 23  1  0  0  0  0
 22 60  1  0  0  0  0
 23 30  2  0  0  0  0
 23 49  1  0  0  0  0
 24 80  1  0  0  0  0
 25 81  1  0  0  0  0
 26 28  2  0  0  0  0
 26 80  1  0  0  0  0
 27 82  1  0  0  0  0
 28 83  1  0  0  0  0
 29 64  2  0  0  0  0
 30 57  1  0  0  0  0
 30 65  1  0  0  0  0
 31 66  1  0  0  0  0
 31 69  1  0  0  0  0
 32 70  1  0  0  0  0
 32 75  2  0  0  0  0
 33 47  1  0  0  0  0
 33 71  1  0  0  0  0
 33 76  2  0  0  0  0
 34 61  1  0  0  0  0
 34 67  1  0  0  0  0
 34 77  2  0  0  0  0
 35 62  1  0  0  0  0
 35 72  1  0  0  0  0
 35 78  2  0  0  0  0
 36 68  1  0  0  0  0
 36 73  1  0  0  0  0
 36 79  2  0  0  0  0
 37 40  1  0  0  0  0
 38 47  1  0  0  0  0
 39 67  1  0  0  0  0
 40 42  1  0  0  0  0
 41 43  1  0  0  0  0
 41 44  1  0  0  0  0
 42 46  1  0  0  0  0
 43 48  1  0  0  0  0
 44 68  1  0  0  0  0
 45 48  1  0  0  0  0
 45 68  1  0  0  0  0
 46 71  1  0  0  0  0
 47 67  1  0  0  0  0
 48 66  1  0  0  0  0
 50 60  1  0  0  0  0
 51 60  1  0  0  0  0
 52 62  1  0  0  0  0
 53 63  1  0  0  0  0
 54 63  1  0  0  0  0
 55 63  1  0  0  0  0
 56 74  1  0  0  0  0
 57 73  1  0  0  0  0
 58 59  1  0  0  0  0
 58 65  1  0  0  0  0
 59 81  1  0  0  0  0
 61 63  1  0  0  0  0
 61 72  1  0  0  0  0
 62 74  1  0  0  0  0
 64 66  1  0  0  0  0
M  CHG  1  74   1
M  ISO  4  36 100  59 101  73 100  81 101
M  END
> <Batch ID>
0104

> <Smiles>
CNC(C)C(=O)NC(C(=O)N1Cc2cc([101O:1][101CH2:1]Cn3cc(C(C)C)c(C)c3C[100NH:0][100C:0](=O)N3CCCC(n4nc(-c5ccc(Oc6ccc(F)cc6F)cc5)c(C(N)=O)c4N)C3)ccc2CC1C(=O)NC1CCCc2ccccc21)C(C)(C)C

> <Shape>
0.196

> <Color>
0.065

> <Negative vol penalty>
0.000

$$$$

  -OEChem-04052319433D

 88 96  0     1  0  0  0  0  0999 V2000
  -19.2920  -21.3411   19.6738 C   0  0  0  0  0  0  0  0  0  0  0  0
  -20.3289  -21.9150   18.9453 C   0  0  0  0  0  0  0  0  0  0  0  0
  -25.9909  -13.5929   21.8053 C   0  0  0  0  0  0  0  0  0  0  0  0
  -24.6988  -14.8204   20.1740 C   0  0  0  0  0  0  0  0  0  0  0  0
  -18.5562  -22.1180   20.5676 C   0  0  0  0  0  0  0  0  0  0  0  0
  -20.6299  -23.2667   19.1093 C   0  0  0  0  0  0  0  0  0  0  0  0
  -25.6065  -24.1142   19.5089 C   0  0  0  0  0  0  0  0  0  0  0  0
  -25.0004  -12.6119   21.8517 C   0  0  0  0  0  0  0  0  0  0  0  0
  -23.7083  -13.8394   20.2204 C   0  0  0  0  0  0  0  0  0  0  0  0
  -26.3517  -24.0986   18.3307 C   0  0  0  0  0  0  0  0  0  0  0  0
  -22.9790   -9.6034   22.1311 C   0  0  0  0  0  0  0  0  0  0  0  0
  -23.3855   -8.2694   22.1003 C   0  0  0  0  0  0  0  0  0  0  0  0
  -26.3195  -26.5103   18.2857 C   0  0  0  0  0  0  0  0  0  0  0  0
  -30.1723  -22.7819   18.3551 C   0  0  0  0  0  0  0  0  0  0  0  0
  -24.4259   -8.6360   19.9509 C   0  0  0  0  0  0  0  0  0  0  0  0
  -25.8401  -14.6972   20.9665 C   0  0  0  0  0  0  0  0  0  0  0  0
  -27.9803  -15.7516   20.0634 C   0  0  0  0  0  0  0  0  0  0  0  0
  -18.8546  -23.4776   20.7498 C   0  0  0  0  0  0  0  0  0  0  0  0
  -25.2023  -25.3297   20.0795 C   0  0  0  0  0  0  0  0  0  0  0  0
  -19.8965  -24.0629   20.0054 C   0  0  0  0  0  0  0  0  0  0  0  0
  -25.5715  -26.5386   19.4726 C   0  0  0  0  0  0  0  0  0  0  0  0
  -30.9199  -23.6932   17.6176 C   0  0  0  0  0  0  0  0  0  0  0  0
  -31.2961  -24.9021   18.1924 C   0  0  0  0  0  0  0  0  0  0  0  0
  -23.8591  -12.7351   21.0593 C   0  0  0  0  0  0  0  0  0  0  0  0
  -26.7059  -25.2967   17.7173 C   0  0  0  0  0  0  0  0  0  0  0  0
  -23.2960  -10.4537   21.0717 C   0  0  0  0  0  0  0  0  0  0  0  0
  -24.1089   -7.7857   21.0102 C   0  0  0  0  0  0  0  0  0  0  0  0
  -24.0195   -9.9700   19.9816 C   0  0  0  0  0  0  0  0  0  0  0  0
  -26.8627  -15.7111   20.9185 C   0  0  0  0  0  0  0  0  0  0  0  0
  -30.9025  -25.1499   19.4976 C   0  0  0  0  0  0  0  0  0  0  0  0
  -29.8293  -23.1245   19.6531 C   0  0  0  0  0  0  0  0  0  0  0  0
  -28.6370  -16.9066   20.4112 C   0  0  0  0  0  0  0  0  0  0  0  0
  -28.3882  -14.8277   19.0457 C   0  0  0  0  0  0  0  0  0  0  0  0
  -22.3991  -26.6872   20.7144 C   0  0  0  0  0  0  0  0  0  0  0  0
  -24.2510  -28.9316   22.1481 C   0  0  0  0  0  0  0  0  0  0  0  0
  -27.2944  -30.4580   22.3826 C   0  0  0  0  0  0  0  0  0  0  0  0
  -28.6135  -22.3215   21.7081 C   0  0  0  0  0  0  0  0  0  0  0  0
  -18.0007  -24.2882   21.6924 C   0  0  0  0  0  0  0  0  0  0  0  0
  -24.4216  -25.3300   21.3652 C   0  0  0  0  0  0  0  0  0  0  0  0
  -25.1797  -27.8708   20.0558 C   0  0  0  0  0  0  0  0  0  0  0  0
  -18.6262  -25.6243   22.0845 C   0  0  0  0  0  0  0  0  0  0  0  0
  -27.9677  -20.0193   24.3463 C   0  0  0  0  0  0  0  0  0  0  0  0
  -19.1673  -26.3425   20.8523 C   0  0  0  0  0  0  0  0  0  0  0  0
  -27.7146  -18.6965   23.6194 C   0  0  0  0  0  0  0  0  0  0  0  0
  -27.4035  -21.2091   23.5719 C   0  0  0  0  0  0  0  0  0  0  0  0
  -27.5851  -19.9786   21.4453 C   0  0  0  0  0  0  0  0  0  0  0  0
  -20.2693  -25.5198   20.1739 C   0  0  1  0  0  0  0  0  0  0  0  0
  -23.6250  -26.6132   21.5802 C   0  0  1  0  0  0  0  0  0  0  0  0
  -28.1925  -18.7577   22.1553 C   0  0  2  0  0  0  0  0  0  0  0  0
  -32.0990  -25.8988   17.4261 C   0  0  0  0  0  0  0  0  0  0  0  0
  -32.2312  -22.1184   16.1567 C   0  0  0  0  0  0  0  0  0  0  0  0
  -32.1721  -26.2108   21.3993 C   0  0  0  0  0  0  0  0  0  0  0  0
  -30.0457  -27.2707   20.5568 C   0  0  0  0  0  0  0  0  0  0  0  0
  -29.0720  -31.9808   23.2873 C   0  0  0  0  0  0  0  0  0  0  0  0
  -22.8149  -31.0209   20.4503 C   0  0  0  0  0  0  0  0  0  0  0  0
  -24.6503  -32.6311   21.0042 C   0  0  0  0  0  0  0  0  0  0  0  0
  -23.2177  -31.7020   22.8227 C   0  0  0  0  0  0  0  0  0  0  0  0
  -28.2396  -28.4080   24.2965 C   0  0  0  0  0  0  0  0  0  0  0  0
  -30.3743  -25.0744   13.7505 C   0  0  0  0  0  0  0  0  0  0  0  0
  -28.0964  -24.3531   14.4516 C   0  0  0  0  0  0  0  0  0  0  0  0
  -30.0996  -23.1235   15.2737 C   0  0  0  0  0  0  0  0  0  0  0  0
  -27.2588  -24.1636   15.7008 C   0  0  0  0  0  0  0  0  0  1  0  0
  -31.3125  -23.3455   16.1866 C   0  0  1  0  0  0  0  0  0  0  0  0
  -31.2764  -26.4322   20.1670 C   0  0  0  0  0  0  0  0  0  0  0  0
  -24.9219  -30.2082   21.7019 C   0  0  1  0  0  0  0  0  0  0  0  0
  -28.1600  -30.8000   23.5818 C   0  0  2  0  0  0  0  0  0  0  0  0
  -23.9071  -31.3656   21.4825 C   0  0  0  0  0  0  0  0  0  0  0  0
  -26.8094  -16.7572   21.7472 N   0  0  0  0  0  0  0  0  0  0  0  0
  -30.1762  -24.2891   20.2454 N   0  0  0  0  0  0  0  0  0  0  0  0
  -27.9017  -17.4659   21.4146 N   0  0  0  0  0  0  0  0  0  0  0  0
  -24.4114  -27.8186   21.3106 N   0  0  0  0  0  0  0  0  0  0  0  0
  -27.9027  -21.2041   22.1951 N   0  0  0  0  0  0  0  0  0  0  0  0
  -29.7660  -17.4883   19.9536 N   0  0  0  0  0  0  0  0  0  0  0  0
  -27.5983  -13.6925   18.8183 N   0  0  0  0  0  0  0  0  0  0  0  0
  -29.0672  -22.1892   20.3962 N   0  0  0  0  0  0  0  0  0  0  0  0
  -21.5135  -25.6433   20.9027 N   0  0  0  0  0  0  0  0  0  0  0  0
  -25.9517  -30.4966   22.6942 N   0  0  0  0  0  0  0  0  0  0  0  0
  -29.0079  -29.6336   23.9581 N   0  3  0  0  0  0  0  0  0  0  0  0
  -29.5285  -24.4480   14.8314 N   0  3  1  0  0  0  0  0  0  0  0  0
  -29.4314  -14.9952   18.3696 O   0  0  0  0  0  0  0  0  0  0  0  0
  -22.2658  -27.6229   19.9345 O   0  0  0  0  0  0  0  0  0  0  0  0
  -23.6143  -28.9203   23.2046 O   0  0  0  0  0  0  0  0  0  0  0  0
  -27.7623  -30.1875   21.2788 O   0  0  0  0  0  0  0  0  0  0  0  0
  -28.8289  -23.3109   22.4128 O   0  0  0  0  0  0  0  0  0  0  0  0
  -22.8924  -11.7780   21.1041 O   0  0  0  0  0  0  0  0  0  0  0  0
  -27.4326  -25.2844   16.5669 O   0  0  0  0  0  0  0  0  0  1  0  0
  -24.5005   -6.5051   20.9815 F   0  0  0  0  0  0  0  0  0  0  0  0
  -24.3280  -10.7824   18.9615 F   0  0  0  0  0  0  0  0  0  0  0  0
  1  2  1  0  0  0  0
  1  5  2  0  0  0  0
  2  6  2  0  0  0  0
  3  8  2  0  0  0  0
  3 16  1  0  0  0  0
  4  9  1  0  0  0  0
  4 16  2  0  0  0  0
  5 18  1  0  0  0  0
  6 20  1  0  0  0  0
  7 10  2  0  0  0  0
  7 19  1  0  0  0  0
  8 24  1  0  0  0  0
  9 24  2  0  0  0  0
 10 25  1  0  0  0  0
 11 12  2  0  0  0  0
 11 26  1  0  0  0  0
 12 27  1  0  0  0  0
 13 21  1  0  0  0  0
 13 25  2  0  0  0  0
 14 22  1  0  0  0  0
 14 31  2  0  0  0  0
 15 27  2  0  0  0  0
 15 28  1  0  0  0  0
 16 29  1  0  0  0  0
 17 29  1  0  0  0  0
 17 32  2  0  0  0  0
 17 33  1  0  0  0  0
 18 20  2  0  0  0  0
 18 38  1  0  0  0  0
 19 21  2  0  0  0  0
 19 39  1  0  0  0  0
 20 47  1  0  0  0  0
 21 40  1  0  0  0  0
 22 23  2  0  0  0  0
 22 63  1  0  0  0  0
 23 30  1  0  0  0  0
 23 50  1  0  0  0  0
 24 85  1  0  0  0  0
 25 86  1  0  0  0  0
 26 28  2  0  0  0  0
 26 85  1  0  0  0  0
 27 87  1  0  0  0  0
 28 88  1  0  0  0  0
 29 68  2  0  0  0  0
 30 64  1  0  0  0  0
 30 69  2  0  0  0  0
 31 69  1  0  0  0  0
 31 75  1  0  0  0  0
 32 70  1  0  0  0  0
 32 73  1  0  0  0  0
 33 74  1  0  0  0  0
 33 80  2  0  0  0  0
 34 48  1  0  0  0  0
 34 76  1  0  0  0  0
 34 81  2  0  0  0  0
 35 65  1  0  0  0  0
 35 71  1  0  0  0  0
 35 82  2  0  0  0  0
 36 66  1  0  0  0  0
 36 77  1  0  0  0  0
 36 83  2  0  0  0  0
 37 72  1  0  0  0  0
 37 75  1  0  0  0  0
 37 84  2  0  0  0  0
 38 41  1  0  0  0  0
 39 48  1  0  0  0  0
 40 71  1  0  0  0  0
 41 43  1  0  0  0  0
 42 44  1  0  0  0  0
 42 45  1  0  0  0  0
 43 47  1  0  0  0  0
 44 49  1  0  0  0  0
 45 72  1  0  0  0  0
 46 49  1  0  0  0  0
 46 72  1  0  0  0  0
 47 76  1  0  0  0  0
 48 71  1  0  0  0  0
 49 70  1  0  0  0  0
 51 63  1  0  0  0  0
 52 64  1  0  0  0  0
 53 64  1  0  0  0  0
 54 66  1  0  0  0  0
 55 67  1  0  0  0  0
 56 67  1  0  0  0  0
 57 67  1  0  0  0  0
 58 78  1  0  0  0  0
 59 79  1  0  0  0  0
 60 62  1  0  0  0  0
 60 79  1  0  0  0  0
 61 63  1  0  0  0  0
 61 79  1  0  0  0  0
 62 86  1  0  0  0  0
 65 67  1  0  0  0  0
 65 77  1  0  0  0  0
 66 78  1  0  0  0  0
 68 70  1  0  0  0  0
M  CHG  2  78   1  79   1
M  ISO  4  37 100  62 101  75 100  86 101
M  END
> <Batch ID>
0104

> <Smiles>
CNC(C)C(=O)NC(C(=O)N1Cc2cc([101O:1][101CH2:1]CN(C)CC(C)c3cc([100NH:0][100C:0](=O)N4CCCC(n5nc(-c6ccc(Oc7ccc(F)cc7F)cc6)c(C(N)=O)c5N)C4)nc(C(C)C)c3C)ccc2CC1C(=O)NC1CCCc2ccccc21)C(C)(C)C

> <Shape>
0.252

> <Color>
0.049

> <Negative vol penalty>
0.000

$$$$

  -OEChem-04052319433D

 86 94  0     1  0  0  0  0  0999 V2000
  -17.5668  -25.7627   21.7731 C   0  0  0  0  0  0  0  0  0  0  0  0
  -18.9280  -25.4759   21.7877 C   0  0  0  0  0  0  0  0  0  0  0  0
  -22.4913  -13.7211   19.9692 C   0  0  0  0  0  0  0  0  0  0  0  0
  -23.6217  -13.1342   22.0222 C   0  0  0  0  0  0  0  0  0  0  0  0
  -17.1326  -27.0655   21.5323 C   0  0  0  0  0  0  0  0  0  0  0  0
  -19.8559  -26.4918   21.5604 C   0  0  0  0  0  0  0  0  0  0  0  0
  -23.7261  -26.3535   24.8234 C   0  0  0  0  0  0  0  0  0  0  0  0
  -21.8676  -12.4736   19.9559 C   0  0  0  0  0  0  0  0  0  0  0  0
  -22.9979  -11.8867   22.0089 C   0  0  0  0  0  0  0  0  0  0  0  0
  -24.7202  -25.4037   24.5922 C   0  0  0  0  0  0  0  0  0  0  0  0
  -23.3835   -8.9253   20.4239 C   0  0  0  0  0  0  0  0  0  0  0  0
  -24.1685   -7.8054   20.6978 C   0  0  0  0  0  0  0  0  0  0  0  0
  -26.1061  -27.1063   23.5924 C   0  0  0  0  0  0  0  0  0  0  0  0
  -28.0485  -22.2769   22.5486 C   0  0  0  0  0  0  0  0  0  0  0  0
  -22.7686   -7.2890   22.5981 C   0  0  0  0  0  0  0  0  0  0  0  0
  -23.3684  -14.0515   21.0023 C   0  0  0  0  0  0  0  0  0  0  0  0
  -23.5387  -16.5217   21.6158 C   0  0  0  0  0  0  0  0  0  0  0  0
  -18.0558  -28.0997   21.3115 C   0  0  0  0  0  0  0  0  0  0  0  0
  -23.9104  -27.6869   24.4302 C   0  0  0  0  0  0  0  0  0  0  0  0
  -19.4336  -27.8094   21.3151 C   0  0  0  0  0  0  0  0  0  0  0  0
  -25.1138  -28.0716   23.8220 C   0  0  0  0  0  0  0  0  0  0  0  0
  -29.1616  -21.4825   22.2970 C   0  0  0  0  0  0  0  0  0  0  0  0
  -29.9886  -21.1014   23.3478 C   0  0  0  0  0  0  0  0  0  0  0  0
  -22.1209  -11.5564   20.9757 C   0  0  0  0  0  0  0  0  0  0  0  0
  -25.9092  -25.7794   23.9741 C   0  0  0  0  0  0  0  0  0  0  0  0
  -22.2911   -9.2272   21.2370 C   0  0  0  0  0  0  0  0  0  0  0  0
  -23.8611   -6.9872   21.7849 C   0  0  0  0  0  0  0  0  0  0  0  0
  -21.9837   -8.4090   22.3241 C   0  0  0  0  0  0  0  0  0  0  0  0
  -24.0135  -15.3398   21.0163 C   0  0  0  0  0  0  0  0  0  0  0  0
  -27.8081  -22.6605   23.8581 C   0  0  0  0  0  0  0  0  0  0  0  0
  -29.6615  -21.5378   24.6215 C   0  0  0  0  0  0  0  0  0  0  0  0
  -24.5096  -17.4559   21.3493 C   0  0  0  0  0  0  0  0  0  0  0  0
  -22.3282  -16.7544   22.3482 C   0  0  0  0  0  0  0  0  0  0  0  0
  -22.4435  -29.6527   22.4085 C   0  0  0  0  0  0  0  0  0  0  0  0
  -24.4806  -31.8404   23.6680 C   0  0  0  0  0  0  0  0  0  0  0  0
  -27.4327  -32.4708   25.2600 C   0  0  0  0  0  0  0  0  0  0  0  0
  -30.3665  -17.0298   20.1802 C   0  0  0  0  0  0  0  0  0  0  0  0
  -17.5374  -29.4833   21.0087 C   0  0  0  0  0  0  0  0  0  0  0  0
  -22.8393  -28.7048   24.7109 C   0  0  0  0  0  0  0  0  0  0  0  0
  -25.3692  -29.4945   23.3992 C   0  0  0  0  0  0  0  0  0  0  0  0
  -18.5958  -30.5744   21.1486 C   0  0  0  0  0  0  0  0  0  0  0  0
  -27.8786  -18.5412   18.1301 C   0  0  0  0  0  0  0  0  0  0  0  0
  -19.8894  -30.1551   20.4575 C   0  0  0  0  0  0  0  0  0  0  0  0
  -26.5631  -17.9987   18.6914 C   0  0  0  0  0  0  0  0  0  0  0  0
  -28.9869  -17.4915   18.1752 C   0  0  0  0  0  0  0  0  0  0  0  0
  -27.8950  -16.3412   20.0616 C   0  0  0  0  0  0  0  0  0  0  0  0
  -20.4715  -28.8890   21.0975 C   0  0  1  0  0  0  0  0  0  0  0  0
  -22.9260  -29.9288   23.8044 C   0  0  1  0  0  0  0  0  0  0  0  0
  -26.7619  -17.3812   20.0887 C   0  0  2  0  0  0  0  0  0  0  0  0
  -29.4471  -21.0562   20.8949 C   0  0  0  0  0  0  0  0  0  0  0  0
  -30.5109  -21.1596   25.7907 C   0  0  0  0  0  0  0  0  0  0  0  0
  -28.8420  -34.3600   26.1215 C   0  0  0  0  0  0  0  0  0  0  0  0
  -25.3445  -32.4935   20.8154 C   0  0  0  0  0  0  0  0  0  0  0  0
  -27.3571  -33.6429   21.7623 C   0  0  0  0  0  0  0  0  0  0  0  0
  -25.0721  -34.4841   22.3045 C   0  0  0  0  0  0  0  0  0  0  0  0
  -32.7195  -15.7374   21.5290 C   0  0  0  0  0  0  0  0  0  0  0  0
  -31.3177  -15.8107   23.5968 C   0  0  0  0  0  0  0  0  0  0  0  0
  -27.2807  -31.4697   28.0410 C   0  0  0  0  0  0  0  0  0  0  0  0
  -31.1882  -20.2476   23.1083 C   0  0  0  0  0  0  0  0  0  0  0  0
  -26.6153  -23.5167   24.1673 C   0  0  0  0  0  0  0  0  0  1  0  0
  -32.0328  -17.9631   22.5550 C   0  0  0  0  0  0  0  0  0  0  0  0
  -25.8733  -32.3196   23.3366 C   0  0  1  0  0  0  0  0  0  0  0  0
  -27.7648  -33.3408   26.4588 C   0  0  2  0  0  0  0  0  0  0  0  0
  -25.9065  -33.2077   22.0608 C   0  0  0  0  0  0  0  0  0  0  0  0
  -31.6137  -16.5111   22.2622 C   0  0  0  0  0  0  0  0  0  0  0  0
  -25.1942  -15.5053   20.4142 N   0  0  0  0  0  0  0  0  0  0  0  0
  -28.5887  -22.3101   24.9048 N   0  0  0  0  0  0  0  0  0  0  0  0
  -25.4694  -16.8023   20.6339 N   0  0  0  0  0  0  0  0  0  0  0  0
  -24.2890  -30.4516   23.6895 N   0  0  0  0  0  0  0  0  0  0  0  0
  -29.1252  -16.9468   19.5280 N   0  0  0  0  0  0  0  0  0  0  0  0
  -24.6275  -18.7645   21.6594 N   0  0  0  0  0  0  0  0  0  0  0  0
  -21.4411  -15.6846   22.5299 N   0  0  0  0  0  0  0  0  0  0  0  0
  -21.1357  -29.2114   22.3422 N   0  0  0  0  0  0  0  0  0  0  0  0
  -26.3744  -32.9796   24.5373 N   0  0  0  0  0  0  0  0  0  0  0  0
  -30.4095  -16.4950   21.4620 N   0  0  0  0  0  0  0  0  0  0  0  0
  -28.2505  -32.5007   27.5899 N   0  3  0  0  0  0  0  0  0  0  0  0
  -30.8550  -18.8193   22.8523 N   0  3  0  0  0  0  0  0  0  0  0  0
  -22.0340  -17.8816   22.8132 O   0  0  0  0  0  0  0  0  0  0  0  0
  -23.2012  -29.8284   21.4615 O   0  0  0  0  0  0  0  0  0  0  0  0
  -23.5971  -32.6676   23.9063 O   0  0  0  0  0  0  0  0  0  0  0  0
  -28.0526  -31.4446   24.9896 O   0  0  0  0  0  0  0  0  0  0  0  0
  -31.3612  -17.5473   19.6609 O   0  0  0  0  0  0  0  0  0  0  0  0
  -21.5123  -10.3390   20.9632 O   0  0  0  0  0  0  0  0  0  0  0  0
  -26.8809  -24.8542   23.7467 O   0  0  0  0  0  0  0  0  0  1  0  0
  -24.6141   -5.9109   22.0470 F   0  0  0  0  0  0  0  0  0  0  0  0
  -20.9347   -8.6933   23.1082 F   0  0  0  0  0  0  0  0  0  0  0  0
  1  2  1  0  0  0  0
  1  5  2  0  0  0  0
  2  6  2  0  0  0  0
  3  8  2  0  0  0  0
  3 16  1  0  0  0  0
  4  9  1  0  0  0  0
  4 16  2  0  0  0  0
  5 18  1  0  0  0  0
  6 20  1  0  0  0  0
  7 10  2  0  0  0  0
  7 19  1  0  0  0  0
  8 24  1  0  0  0  0
  9 24  2  0  0  0  0
 10 25  1  0  0  0  0
 11 12  2  0  0  0  0
 11 26  1  0  0  0  0
 12 27  1  0  0  0  0
 13 21  1  0  0  0  0
 13 25  2  0  0  0  0
 14 22  2  0  0  0  0
 14 30  1  0  0  0  0
 15 27  2  0  0  0  0
 15 28  1  0  0  0  0
 16 29  1  0  0  0  0
 17 29  1  0  0  0  0
 17 32  2  0  0  0  0
 17 33  1  0  0  0  0
 18 20  2  0  0  0  0
 18 38  1  0  0  0  0
 19 21  2  0  0  0  0
 19 39  1  0  0  0  0
 20 47  1  0  0  0  0
 21 40  1  0  0  0  0
 22 23  1  0  0  0  0
 22 50  1  0  0  0  0
 23 31  2  0  0  0  0
 23 59  1  0  0  0  0
 24 83  1  0  0  0  0
 25 84  1  0  0  0  0
 26 28  2  0  0  0  0
 26 83  1  0  0  0  0
 27 85  1  0  0  0  0
 28 86  1  0  0  0  0
 29 66  2  0  0  0  0
 30 60  1  0  0  0  0
 30 67  2  0  0  0  0
 31 51  1  0  0  0  0
 31 67  1  0  0  0  0
 32 68  1  0  0  0  0
 32 71  1  0  0  0  0
 33 72  1  0  0  0  0
 33 78  2  0  0  0  0
 34 48  1  0  0  0  0
 34 73  1  0  0  0  0
 34 79  2  0  0  0  0
 35 62  1  0  0  0  0
 35 69  1  0  0  0  0
 35 80  2  0  0  0  0
 36 63  1  0  0  0  0
 36 74  1  0  0  0  0
 36 81  2  0  0  0  0
 37 70  1  0  0  0  0
 37 75  1  0  0  0  0
 37 82  2  0  0  0  0
 38 41  1  0  0  0  0
 39 48  1  0  0  0  0
 40 69  1  0  0  0  0
 41 43  1  0  0  0  0
 42 44  1  0  0  0  0
 42 45  1  0  0  0  0
 43 47  1  0  0  0  0
 44 49  1  0  0  0  0
 45 70  1  0  0  0  0
 46 49  1  0  0  0  0
 46 70  1  0  0  0  0
 47 73  1  0  0  0  0
 48 69  1  0  0  0  0
 49 68  1  0  0  0  0
 52 63  1  0  0  0  0
 53 64  1  0  0  0  0
 54 64  1  0  0  0  0
 55 64  1  0  0  0  0
 56 65  1  0  0  0  0
 57 65  1  0  0  0  0
 58 76  1  0  0  0  0
 59 77  1  0  0  0  0
 60 84  1  0  0  0  0
 61 65  1  0  0  0  0
 61 77  1  0  0  0  0
 62 64  1  0  0  0  0
 62 74  1  0  0  0  0
 63 76  1  0  0  0  0
 65 75  1  0  0  0  0
 66 68  1  0  0  0  0
M  CHG  2  76   1  77   1
M  ISO  4  37 100  60 101  75 100  84 101
M  END
> <Batch ID>
0104

> <Smiles>
CNC(C)C(=O)NC(C(=O)N1Cc2cc([101O:1][101CH2:1]c3cc(C)c(CNCC(C)(C)[100NH:0][100C:0](=O)N4CCCC(n5nc(-c6ccc(Oc7ccc(F)cc7F)cc6)c(C(N)=O)c5N)C4)c(C)n3)ccc2CC1C(=O)NC1CCCc2ccccc21)C(C)(C)C

> <Shape>
0.244

> <Color>
0.062

> <Negative vol penalty>
0.000

$$$$

  -OEChem-04052319433D

 83 91  0     1  0  0  0  0  0999 V2000
  -16.8251  -30.0621   23.2459 C   0  0  0  0  0  0  0  0  0  0  0  0
  -18.0150  -30.5668   22.7312 C   0  0  0  0  0  0  0  0  0  0  0  0
  -27.2486  -17.6282   19.9149 C   0  0  0  0  0  0  0  0  0  0  0  0
  -29.0962  -17.3542   21.4473 C   0  0  0  0  0  0  0  0  0  0  0  0
  -16.8043  -28.8031   23.8444 C   0  0  0  0  0  0  0  0  0  0  0  0
  -19.1851  -29.8131   22.8158 C   0  0  0  0  0  0  0  0  0  0  0  0
  -25.2646  -28.5230   19.2533 C   0  0  0  0  0  0  0  0  0  0  0  0
  -27.1082  -16.2426   19.8364 C   0  0  0  0  0  0  0  0  0  0  0  0
  -28.9559  -15.9686   21.3688 C   0  0  0  0  0  0  0  0  0  0  0  0
  -26.6449  -28.5065   19.4490 C   0  0  0  0  0  0  0  0  0  0  0  0
  -25.7733  -13.7640   21.7092 C   0  0  0  0  0  0  0  0  0  0  0  0
  -24.4846  -13.2371   21.7943 C   0  0  0  0  0  0  0  0  0  0  0  0
  -26.4730  -26.3111   20.4337 C   0  0  0  0  0  0  0  0  0  0  0  0
  -31.4205  -28.3688   21.3417 C   0  0  0  0  0  0  0  0  0  0  0  0
  -24.7403  -12.2575   19.6006 C   0  0  0  0  0  0  0  0  0  0  0  0
  -28.2426  -18.1840   20.7204 C   0  0  0  0  0  0  0  0  0  0  0  0
  -27.7602  -20.4833   21.7144 C   0  0  0  0  0  0  0  0  0  0  0  0
  -17.9727  -28.0294   23.9277 C   0  0  0  0  0  0  0  0  0  0  0  0
  -24.4755  -27.4364   19.6569 C   0  0  0  0  0  0  0  0  0  0  0  0
  -19.1802  -28.5430   23.4172 C   0  0  0  0  0  0  0  0  0  0  0  0
  -25.0832  -26.3151   20.2396 C   0  0  0  0  0  0  0  0  0  0  0  0
  -30.7882  -28.3068   20.0754 C   0  0  0  0  0  0  0  0  0  0  0  0
  -27.9618  -15.4129   20.5633 C   0  0  0  0  0  0  0  0  0  0  0  0
  -27.2489  -27.4017   20.0419 C   0  0  0  0  0  0  0  0  0  0  0  0
  -26.5455  -13.5377   20.5698 C   0  0  0  0  0  0  0  0  0  0  0  0
  -23.9681  -12.4838   20.7400 C   0  0  0  0  0  0  0  0  0  0  0  0
  -26.0290  -12.7844   19.5155 C   0  0  0  0  0  0  0  0  0  0  0  0
  -28.3884  -19.6151   20.8015 C   0  0  0  0  0  0  0  0  0  0  0  0
  -32.7581  -28.1043   21.1470 C   0  0  0  0  0  0  0  0  0  0  0  0
  -31.7588  -28.0061   19.1454 C   0  0  0  0  0  0  0  0  0  0  0  0
  -28.2256  -21.7309   21.3777 C   0  0  0  0  0  0  0  0  0  0  0  0
  -26.8385  -20.1883   22.7723 C   0  0  0  0  0  0  0  0  0  0  0  0
  -22.1052  -27.0355   21.7365 C   0  0  0  0  0  0  0  0  0  0  0  0
  -22.0024  -24.0586   20.4522 C   0  0  0  0  0  0  0  0  0  0  0  0
  -23.6332  -21.5603   18.7951 C   0  0  0  0  0  0  0  0  0  0  0  0
  -33.0179  -24.2493   19.6160 C   0  0  0  0  0  0  0  0  0  0  0  0
  -17.9109  -26.6941   24.6260 C   0  0  0  0  0  0  0  0  0  0  0  0
  -22.9912  -27.4584   19.4144 C   0  0  0  0  0  0  0  0  0  0  0  0
  -24.2832  -25.1146   20.6722 C   0  0  0  0  0  0  0  0  0  0  0  0
  -19.1156  -25.8011   24.3405 C   0  0  0  0  0  0  0  0  0  0  0  0
  -30.2612  -23.7169   17.3323 C   0  0  0  0  0  0  0  0  0  0  0  0
  -20.4119  -26.5932   24.4787 C   0  0  0  0  0  0  0  0  0  0  0  0
  -29.4317  -22.6810   18.0931 C   0  0  0  0  0  0  0  0  0  0  0  0
  -31.7559  -23.4733   17.5188 C   0  0  0  0  0  0  0  0  0  0  0  0
  -31.3731  -22.3974   19.7027 C   0  0  0  0  0  0  0  0  0  0  0  0
  -20.4650  -27.7451   23.4678 C   0  0  1  0  0  0  0  0  0  0  0  0
  -22.2217  -26.5136   20.3324 C   0  0  1  0  0  0  0  0  0  0  0  0
  -29.8529  -22.6028   19.5726 C   0  0  2  0  0  0  0  0  0  0  0  0
  -31.6521  -27.8236   17.6820 C   0  0  0  0  0  0  0  0  0  0  0  0
  -33.6718  -26.9317   23.1826 C   0  0  0  0  0  0  0  0  0  0  0  0
  -34.1089  -29.3910   22.8423 C   0  0  0  0  0  0  0  0  0  0  0  0
  -23.3000  -19.2318   17.9207 C   0  0  0  0  0  0  0  0  0  0  0  0
  -22.2375  -22.9620   23.2898 C   0  0  0  0  0  0  0  0  0  0  0  0
  -22.8503  -20.7425   22.3067 C   0  0  0  0  0  0  0  0  0  0  0  0
  -20.6144  -21.7410   21.8307 C   0  0  0  0  0  0  0  0  0  0  0  0
  -24.1523  -22.4082   16.0075 C   0  0  0  0  0  0  0  0  0  0  0  0
  -29.3292  -28.5298   19.8055 C   0  0  0  0  0  0  0  0  0  1  0  0
  -34.2236  -27.5734   19.1895 C   0  0  0  0  0  0  0  0  0  0  0  0
  -34.6355  -26.1153   19.3744 C   0  0  0  0  0  0  0  0  0  0  0  0
  -33.8631  -28.0434   22.1257 C   0  0  0  0  0  0  0  0  0  0  0  0
  -22.6725  -22.7401   20.7546 C   0  0  1  0  0  0  0  0  0  0  0  0
  -23.2326  -20.7165   17.5984 C   0  0  2  0  0  0  0  0  0  0  0  0
  -22.1088  -22.0697   22.0392 C   0  0  0  0  0  0  0  0  0  0  0  0
  -29.1915  -20.2569   19.9487 N   0  0  0  0  0  0  0  0  0  0  0  0
  -32.9522  -27.8851   19.8081 N   0  0  0  0  0  0  0  0  0  0  0  0
  -29.0710  -21.5416   20.3244 N   0  0  0  0  0  0  0  0  0  0  0  0
  -22.8346  -25.1866   20.4196 N   0  0  0  0  0  0  0  0  0  0  0  0
  -32.0936  -23.4285   18.9485 N   0  0  0  0  0  0  0  0  0  0  0  0
  -27.9899  -22.9604   21.8828 N   0  0  0  0  0  0  0  0  0  0  0  0
  -26.4663  -18.8533   22.9813 N   0  0  0  0  0  0  0  0  0  0  0  0
  -20.8044  -27.2474   22.1519 N   0  0  0  0  0  0  0  0  0  0  0  0
  -22.5394  -21.9286   19.5495 N   0  0  0  0  0  0  0  0  0  0  0  0
  -33.6625  -25.1954   18.8285 N   0  0  0  0  0  0  0  0  0  0  0  0
  -24.1376  -20.9889   16.4462 N   0  3  0  0  0  0  0  0  0  0  0  0
  -26.3465  -21.0839   23.4999 O   0  0  0  0  0  0  0  0  0  0  0  0
  -23.1202  -27.2301   22.3949 O   0  0  0  0  0  0  0  0  0  0  0  0
  -20.7867  -24.0856   20.2452 O   0  0  0  0  0  0  0  0  0  0  0  0
  -24.8002  -21.8594   19.0384 O   0  0  0  0  0  0  0  0  0  0  0  0
  -33.2479  -24.1501   20.8261 O   0  0  0  0  0  0  0  0  0  0  0  0
  -27.8250  -14.0608   20.4871 O   0  0  0  0  0  0  0  0  0  0  0  0
  -28.5959  -27.3833   20.2347 O   0  0  0  0  0  0  0  0  0  1  0  0
  -22.7311  -11.9766   20.8225 F   0  0  0  0  0  0  0  0  0  0  0  0
  -26.7666  -12.5626   18.4189 F   0  0  0  0  0  0  0  0  0  0  0  0
  1  2  1  0  0  0  0
  1  5  2  0  0  0  0
  2  6  2  0  0  0  0
  3  8  2  0  0  0  0
  3 16  1  0  0  0  0
  4  9  1  0  0  0  0
  4 16  2  0  0  0  0
  5 18  1  0  0  0  0
  6 20  1  0  0  0  0
  7 10  2  0  0  0  0
  7 19  1  0  0  0  0
  8 23  1  0  0  0  0
  9 23  2  0  0  0  0
 10 24  1  0  0  0  0
 11 12  2  0  0  0  0
 11 25  1  0  0  0  0
 12 26  1  0  0  0  0
 13 21  1  0  0  0  0
 13 24  2  0  0  0  0
 14 22  1  0  0  0  0
 14 29  2  0  0  0  0
 15 26  2  0  0  0  0
 15 27  1  0  0  0  0
 16 28  1  0  0  0  0
 17 28  1  0  0  0  0
 17 31  2  0  0  0  0
 17 32  1  0  0  0  0
 18 20  2  0  0  0  0
 18 37  1  0  0  0  0
 19 21  2  0  0  0  0
 19 38  1  0  0  0  0
 20 46  1  0  0  0  0
 21 39  1  0  0  0  0
 22 30  2  0  0  0  0
 22 57  1  0  0  0  0
 23 80  1  0  0  0  0
 24 81  1  0  0  0  0
 25 27  2  0  0  0  0
 25 80  1  0  0  0  0
 26 82  1  0  0  0  0
 27 83  1  0  0  0  0
 28 64  2  0  0  0  0
 29 60  1  0  0  0  0
 29 65  1  0  0  0  0
 30 49  1  0  0  0  0
 30 65  1  0  0  0  0
 31 66  1  0  0  0  0
 31 69  1  0  0  0  0
 32 70  1  0  0  0  0
 32 75  2  0  0  0  0
 33 47  1  0  0  0  0
 33 71  1  0  0  0  0
 33 76  2  0  0  0  0
 34 61  1  0  0  0  0
 34 67  1  0  0  0  0
 34 77  2  0  0  0  0
 35 62  1  0  0  0  0
 35 72  1  0  0  0  0
 35 78  2  0  0  0  0
 36 68  1  0  0  0  0
 36 73  1  0  0  0  0
 36 79  2  0  0  0  0
 37 40  1  0  0  0  0
 38 47  1  0  0  0  0
 39 67  1  0  0  0  0
 40 42  1  0  0  0  0
 41 43  1  0  0  0  0
 41 44  1  0  0  0  0
 42 46  1  0  0  0  0
 43 48  1  0  0  0  0
 44 68  1  0  0  0  0
 45 48  1  0  0  0  0
 45 68  1  0  0  0  0
 46 71  1  0  0  0  0
 47 67  1  0  0  0  0
 48 66  1  0  0  0  0
 50 60  1  0  0  0  0
 51 60  1  0  0  0  0
 52 62  1  0  0  0  0
 53 63  1  0  0  0  0
 54 63  1  0  0  0  0
 55 63  1  0  0  0  0
 56 74  1  0  0  0  0
 57 81  1  0  0  0  0
 58 59  1  0  0  0  0
 58 65  1  0  0  0  0
 59 73  1  0  0  0  0
 61 63  1  0  0  0  0
 61 72  1  0  0  0  0
 62 74  1  0  0  0  0
 64 66  1  0  0  0  0
M  CHG  1  74   1
M  ISO  4  36 100  57 101  73 100  81 101
M  END
> <Batch ID>
0104

> <Smiles>
CNC(C)C(=O)NC(C(=O)N1Cc2cc([101O:1][101CH2:1]c3cc(C(C)C)n(CC[100NH:0][100C:0](=O)N4CCCC(n5nc(-c6ccc(Oc7ccc(F)cc7F)cc6)c(C(N)=O)c5N)C4)c3C)ccc2CC1C(=O)NC1CCCc2ccccc21)C(C)(C)C

> <Shape>
0.217

> <Color>
0.078

> <Negative vol penalty>
0.000

$$$$

  -OEChem-04052319433D

 84 92  0     1  0  0  0  0  0999 V2000
  -17.5285  -25.4050   25.0573 C   0  0  0  0  0  0  0  0  0  0  0  0
  -18.4844  -24.7199   24.3141 C   0  0  0  0  0  0  0  0  0  0  0  0
  -23.3278  -12.4418   23.3487 C   0  0  0  0  0  0  0  0  0  0  0  0
  -24.0794  -10.2648   22.6188 C   0  0  0  0  0  0  0  0  0  0  0  0
  -17.3162  -26.7647   24.8335 C   0  0  0  0  0  0  0  0  0  0  0  0
  -19.2277  -25.3939   23.3458 C   0  0  0  0  0  0  0  0  0  0  0  0
  -24.1570  -24.2487   23.5352 C   0  0  0  0  0  0  0  0  0  0  0  0
  -22.6715  -11.8528   24.4294 C   0  0  0  0  0  0  0  0  0  0  0  0
  -23.4231   -9.6758   23.6995 C   0  0  0  0  0  0  0  0  0  0  0  0
  -24.5498  -23.0319   22.9794 C   0  0  0  0  0  0  0  0  0  0  0  0
  -23.9644   -9.2480   27.0078 C   0  0  0  0  0  0  0  0  0  0  0  0
  -24.6541   -8.2746   27.7306 C   0  0  0  0  0  0  0  0  0  0  0  0
  -25.2722  -24.1825   20.9861 C   0  0  0  0  0  0  0  0  0  0  0  0
  -28.5986  -17.2560   19.3924 C   0  0  0  0  0  0  0  0  0  0  0  0
  -22.9392   -6.6601   27.1924 C   0  0  0  0  0  0  0  0  0  0  0  0
  -24.0318  -11.6477   22.4433 C   0  0  0  0  0  0  0  0  0  0  0  0
  -24.1323  -13.0233   20.2973 C   0  0  0  0  0  0  0  0  0  0  0  0
  -18.0640  -27.4579   23.8687 C   0  0  0  0  0  0  0  0  0  0  0  0
  -24.3091  -25.4423   22.8150 C   0  0  0  0  0  0  0  0  0  0  0  0
  -19.0242  -26.7639   23.1080 C   0  0  0  0  0  0  0  0  0  0  0  0
  -24.8829  -25.4134   21.5360 C   0  0  0  0  0  0  0  0  0  0  0  0
  -29.6709  -16.5130   19.8735 C   0  0  0  0  0  0  0  0  0  0  0  0
  -29.5143  -15.7359   21.0158 C   0  0  0  0  0  0  0  0  0  0  0  0
  -22.7191  -10.4698   24.6049 C   0  0  0  0  0  0  0  0  0  0  0  0
  -25.1048  -22.9983   21.7035 C   0  0  0  0  0  0  0  0  0  0  0  0
  -22.7621   -8.9275   26.3773 C   0  0  0  0  0  0  0  0  0  0  0  0
  -24.1415   -6.9807   27.8229 C   0  0  0  0  0  0  0  0  0  0  0  0
  -22.2495   -7.6335   26.4696 C   0  0  0  0  0  0  0  0  0  0  0  0
  -24.7095  -12.2555   21.3264 C   0  0  0  0  0  0  0  0  0  0  0  0
  -27.4002  -17.1883   20.0846 C   0  0  0  0  0  0  0  0  0  0  0  0
  -28.2750  -15.7364   21.6354 C   0  0  0  0  0  0  0  0  0  0  0  0
  -25.1894  -13.3649   19.4896 C   0  0  0  0  0  0  0  0  0  0  0  0
  -22.7630  -13.3946   20.0900 C   0  0  0  0  0  0  0  0  0  0  0  0
  -22.3215  -27.6585   21.7007 C   0  0  0  0  0  0  0  0  0  0  0  0
  -31.0781  -13.8575   20.5816 C   0  0  0  0  0  0  0  0  0  0  0  0
  -25.0776  -29.1843   20.9271 C   0  0  0  0  0  0  0  0  0  0  0  0
  -28.4084  -28.9669   20.2165 C   0  0  0  0  0  0  0  0  0  0  0  0
  -17.7659  -28.9169   23.6296 C   0  0  0  0  0  0  0  0  0  0  0  0
  -23.9050  -26.7497   23.4393 C   0  0  0  0  0  0  0  0  0  0  0  0
  -25.0864  -26.6691   20.7296 C   0  0  0  0  0  0  0  0  0  0  0  0
  -18.8573  -29.6410   22.8455 C   0  0  0  0  0  0  0  0  0  0  0  0
  -29.4908  -11.8302   18.0894 C   0  0  0  0  0  0  0  0  0  0  0  0
  -19.2820  -28.8156   21.6350 C   0  0  0  0  0  0  0  0  0  0  0  0
  -28.0385  -11.7557   18.5589 C   0  0  0  0  0  0  0  0  0  0  0  0
  -30.4582  -11.8559   19.2687 C   0  0  0  0  0  0  0  0  0  0  0  0
  -28.7359  -12.8750   20.7236 C   0  0  0  0  0  0  0  0  0  0  0  0
  -19.8679  -27.4656   22.0659 C   0  0  1  0  0  0  0  0  0  0  0  0
  -23.6323  -27.8436   22.4115 C   0  0  1  0  0  0  0  0  0  0  0  0
  -27.7242  -12.8780   19.5639 C   0  0  2  0  0  0  0  0  0  0  0  0
  -30.9754  -16.5688   19.1495 C   0  0  0  0  0  0  0  0  0  0  0  0
  -28.0453  -14.9201   22.8653 C   0  0  0  0  0  0  0  0  0  0  0  0
  -31.8661  -15.7727   21.9432 C   0  0  0  0  0  0  0  0  0  0  0  0
  -30.7398  -29.7524   19.7215 C   0  0  0  0  0  0  0  0  0  0  0  0
  -24.0096  -29.4035   18.0773 C   0  0  0  0  0  0  0  0  0  0  0  0
  -26.3366  -29.9332   17.3204 C   0  0  0  0  0  0  0  0  0  0  0  0
  -25.1698  -31.4536   18.9171 C   0  0  0  0  0  0  0  0  0  0  0  0
  -29.0910  -29.1220   23.0920 C   0  0  0  0  0  0  0  0  0  0  0  0
  -26.2211  -17.9756   19.5938 C   0  0  0  0  0  0  0  0  0  0  0  0
  -25.2075  -20.2459   19.3553 C   0  0  0  0  0  0  0  0  0  0  0  0
  -25.4196  -21.6975   19.7377 C   0  0  0  0  0  0  0  0  0  1  0  0
  -30.6462  -14.9266   21.5535 C   0  0  1  0  0  0  0  0  0  0  0  0
  -25.9885  -29.2016   19.7234 C   0  0  1  0  0  0  0  0  0  0  0  0
  -29.6013  -29.7530   20.7298 C   0  0  2  0  0  0  0  0  0  0  0  0
  -25.3706  -29.9739   18.5237 C   0  0  0  0  0  0  0  0  0  0  0  0
  -26.0307  -12.1171   21.1875 N   0  0  0  0  0  0  0  0  0  0  0  0
  -27.2101  -16.4450   21.1977 N   0  0  0  0  0  0  0  0  0  0  0  0
  -26.2925  -12.8025   20.0616 N   0  0  0  0  0  0  0  0  0  0  0  0
  -24.6696  -27.9220   21.3808 N   0  0  0  0  0  0  0  0  0  0  0  0
  -30.1125  -12.9212   20.2115 N   0  0  0  0  0  0  0  0  0  0  0  0
  -25.2736  -14.0883   18.3530 N   0  0  0  0  0  0  0  0  0  0  0  0
  -21.9481  -12.5449   19.3296 N   0  0  0  0  0  0  0  0  0  0  0  0
  -21.2248  -27.6321   22.5409 N   0  0  0  0  0  0  0  0  0  0  0  0
  -27.2648  -29.7366   20.1850 N   0  0  0  0  0  0  0  0  0  0  0  0
  -30.1013  -29.1628   22.0036 N   0  3  0  0  0  0  0  0  0  0  0  0
  -26.3315  -19.4312   19.8816 N   0  3  0  0  0  0  0  0  0  0  0  0
  -22.2809  -14.4568   20.5513 O   0  0  0  0  0  0  0  0  0  0  0  0
  -22.3062  -27.5494   20.4803 O   0  0  0  0  0  0  0  0  0  0  0  0
  -32.2386  -13.8580   20.1626 O   0  0  0  0  0  0  0  0  0  0  0  0
  -24.7462  -30.2513   21.4501 O   0  0  0  0  0  0  0  0  0  0  0  0
  -28.4844  -27.7890   19.8739 O   0  0  0  0  0  0  0  0  0  0  0  0
  -22.0790   -9.8948   25.6594 O   0  0  0  0  0  0  0  0  0  0  0  0
  -25.4884  -21.8119   21.1584 O   0  0  0  0  0  0  0  0  0  1  0  0
  -24.8046   -6.0456   28.5157 F   0  0  0  0  0  0  0  0  0  0  0  0
  -21.0956   -7.3193   25.8651 F   0  0  0  0  0  0  0  0  0  0  0  0
  1  2  1  0  0  0  0
  1  5  2  0  0  0  0
  2  6  2  0  0  0  0
  3  8  2  0  0  0  0
  3 16  1  0  0  0  0
  4  9  1  0  0  0  0
  4 16  2  0  0  0  0
  5 18  1  0  0  0  0
  6 20  1  0  0  0  0
  7 10  2  0  0  0  0
  7 19  1  0  0  0  0
  8 24  1  0  0  0  0
  9 24  2  0  0  0  0
 10 25  1  0  0  0  0
 11 12  2  0  0  0  0
 11 26  1  0  0  0  0
 12 27  1  0  0  0  0
 13 21  1  0  0  0  0
 13 25  2  0  0  0  0
 14 22  2  0  0  0  0
 14 30  1  0  0  0  0
 15 27  2  0  0  0  0
 15 28  1  0  0  0  0
 16 29  1  0  0  0  0
 17 29  1  0  0  0  0
 17 32  2  0  0  0  0
 17 33  1  0  0  0  0
 18 20  2  0  0  0  0
 18 38  1  0  0  0  0
 19 21  2  0  0  0  0
 19 39  1  0  0  0  0
 20 47  1  0  0  0  0
 21 40  1  0  0  0  0
 22 23  1  0  0  0  0
 22 50  1  0  0  0  0
 23 31  2  0  0  0  0
 23 61  1  0  0  0  0
 24 81  1  0  0  0  0
 25 82  1  0  0  0  0
 26 28  2  0  0  0  0
 26 81  1  0  0  0  0
 27 83  1  0  0  0  0
 28 84  1  0  0  0  0
 29 65  2  0  0  0  0
 30 58  1  0  0  0  0
 30 66  2  0  0  0  0
 31 51  1  0  0  0  0
 31 66  1  0  0  0  0
 32 67  1  0  0  0  0
 32 70  1  0  0  0  0
 33 71  1  0  0  0  0
 33 76  2  0  0  0  0
 34 48  1  0  0  0  0
 34 72  1  0  0  0  0
 34 77  2  0  0  0  0
 35 61  1  0  0  0  0
 35 69  1  0  0  0  0
 35 78  2  0  0  0  0
 36 62  1  0  0  0  0
 36 68  1  0  0  0  0
 36 79  2  0  0  0  0
 37 63  1  0  0  0  0
 37 73  1  0  0  0  0
 37 80  2  0  0  0  0
 38 41  1  0  0  0  0
 39 48  1  0  0  0  0
 40 68  1  0  0  0  0
 41 43  1  0  0  0  0
 42 44  1  0  0  0  0
 42 45  1  0  0  0  0
 43 47  1  0  0  0  0
 44 49  1  0  0  0  0
 45 69  1  0  0  0  0
 46 49  1  0  0  0  0
 46 69  1  0  0  0  0
 47 72  1  0  0  0  0
 48 68  1  0  0  0  0
 49 67  1  0  0  0  0
 52 61  1  0  0  0  0
 53 63  1  0  0  0  0
 54 64  1  0  0  0  0
 55 64  1  0  0  0  0
 56 64  1  0  0  0  0
 57 74  1  0  0  0  0
 58 75  1  0  0  0  0
 59 60  1  0  0  0  0
 59 75  1  0  0  0  0
 60 82  1  0  0  0  0
 62 64  1  0  0  0  0
 62 73  1  0  0  0  0
 63 74  1  0  0  0  0
 65 67  1  0  0  0  0
M  CHG  2  74   1  75   1
M  ISO  4  35 100  60 101  61 100  82 101
M  END
> <Batch ID>
0104

> <Smiles>
CNC(C)C(=O)NC(C(=O)N1Cc2cc([101O:1][101CH2:1]CNCc3cc(C)c([100CH:0](C)[100C:0](=O)N4CCCC(n5nc(-c6ccc(Oc7ccc(F)cc7F)cc6)c(C(N)=O)c5N)C4)c(C)n3)ccc2CC1C(=O)NC1CCCc2ccccc21)C(C)(C)C

> <Shape>
0.222

> <Color>
0.089

> <Negative vol penalty>
0.000

$$$$

  -OEChem-04052319433D

 83 91  0     1  0  0  0  0  0999 V2000
  -19.4370  -14.9132   23.7728 C   0  0  0  0  0  0  0  0  0  0  0  0
  -20.7658  -15.2746   23.9707 C   0  0  0  0  0  0  0  0  0  0  0  0
  -23.1538   -9.8656   19.9626 C   0  0  0  0  0  0  0  0  0  0  0  0
  -23.8253   -9.9654   22.2812 C   0  0  0  0  0  0  0  0  0  0  0  0
  -18.6270  -14.6131   24.8672 C   0  0  0  0  0  0  0  0  0  0  0  0
  -21.2850  -15.3373   25.2633 C   0  0  0  0  0  0  0  0  0  0  0  0
  -25.8492  -13.1742   25.6304 C   0  0  0  0  0  0  0  0  0  0  0  0
  -22.4404   -8.6949   20.2195 C   0  0  0  0  0  0  0  0  0  0  0  0
  -23.1119   -8.7947   22.5382 C   0  0  0  0  0  0  0  0  0  0  0  0
  -26.9402  -13.9066   25.1644 C   0  0  0  0  0  0  0  0  0  0  0  0
  -23.5359   -5.4702   22.0926 C   0  0  0  0  0  0  0  0  0  0  0  0
  -24.1580   -4.4882   22.8634 C   0  0  0  0  0  0  0  0  0  0  0  0
  -27.4702  -14.5466   27.4290 C   0  0  0  0  0  0  0  0  0  0  0  0
  -22.3881   -4.6515   24.4998 C   0  0  0  0  0  0  0  0  0  0  0  0
  -27.8864  -17.8561   22.3532 C   0  0  0  0  0  0  0  0  0  0  0  0
  -23.8464  -10.5009   20.9934 C   0  0  0  0  0  0  0  0  0  0  0  0
  -24.1069  -13.0319   20.8099 C   0  0  0  0  0  0  0  0  0  0  0  0
  -19.1392  -14.6627   26.1733 C   0  0  0  0  0  0  0  0  0  0  0  0
  -25.5536  -13.1314   27.0005 C   0  0  0  0  0  0  0  0  0  0  0  0
  -20.4807  -15.0389   26.3763 C   0  0  0  0  0  0  0  0  0  0  0  0
  -26.3764  -13.8109   27.9101 C   0  0  0  0  0  0  0  0  0  0  0  0
  -27.9242  -17.9697   23.7559 C   0  0  0  0  0  0  0  0  0  0  0  0
  -22.4194   -8.1594   21.5074 C   0  0  0  0  0  0  0  0  0  0  0  0
  -27.7492  -14.5953   26.0634 C   0  0  0  0  0  0  0  0  0  0  0  0
  -22.3399   -6.0429   22.5254 C   0  0  0  0  0  0  0  0  0  0  0  0
  -23.5841   -4.0788   24.0670 C   0  0  0  0  0  0  0  0  0  0  0  0
  -21.7660   -5.6336   23.7290 C   0  0  0  0  0  0  0  0  0  0  0  0
  -24.5840  -11.7099   20.7285 C   0  0  0  0  0  0  0  0  0  0  0  0
  -29.1968  -17.5821   24.0975 C   0  0  0  0  0  0  0  0  0  0  0  0
  -25.1861  -13.8082   20.4648 C   0  0  0  0  0  0  0  0  0  0  0  0
  -22.8047  -13.5149   21.1658 C   0  0  0  0  0  0  0  0  0  0  0  0
  -23.0906  -14.0388   28.7932 C   0  0  0  0  0  0  0  0  0  0  0  0
  -24.7671  -12.5714   31.1509 C   0  0  0  0  0  0  0  0  0  0  0  0
  -27.7888  -11.5029   32.3233 C   0  0  0  0  0  0  0  0  0  0  0  0
  -30.9433  -13.9724   21.0501 C   0  0  0  0  0  0  0  0  0  0  0  0
  -18.2124  -14.3757   27.3279 C   0  0  0  0  0  0  0  0  0  0  0  0
  -24.3888  -12.3150   27.4896 C   0  0  0  0  0  0  0  0  0  0  0  0
  -26.1138  -13.7803   29.3929 C   0  0  0  0  0  0  0  0  0  0  0  0
  -18.9415  -14.1021   28.6408 C   0  0  0  0  0  0  0  0  0  0  0  0
  -29.3927  -13.0241   17.9886 C   0  0  0  0  0  0  0  0  0  0  0  0
  -20.0319  -15.1433   28.8730 C   0  0  0  0  0  0  0  0  0  0  0  0
  -27.9503  -12.7114   18.3906 C   0  0  0  0  0  0  0  0  0  0  0  0
  -30.3848  -12.5959   19.0677 C   0  0  0  0  0  0  0  0  0  0  0  0
  -28.6616  -12.8167   20.8158 C   0  0  0  0  0  0  0  0  0  0  0  0
  -21.0873  -15.0940   27.7616 C   0  0  1  0  0  0  0  0  0  0  0  0
  -23.8787  -12.7610   28.8565 C   0  0  1  0  0  0  0  0  0  0  0  0
  -27.6203  -13.2813   19.7833 C   0  0  2  0  0  0  0  0  0  0  0  0
  -26.6351  -19.9268   24.6471 C   0  0  0  0  0  0  0  0  0  0  0  0
  -29.9768  -18.8455   26.1290 C   0  0  0  0  0  0  0  0  0  0  0  0
  -28.8478  -10.3722   34.2974 C   0  0  0  0  0  0  0  0  0  0  0  0
  -24.5377  -15.1583   32.7525 C   0  0  0  0  0  0  0  0  0  0  0  0
  -26.3689  -14.3185   34.2390 C   0  0  0  0  0  0  0  0  0  0  0  0
  -24.2140  -13.0705   34.0908 C   0  0  0  0  0  0  0  0  0  0  0  0
  -28.7411   -9.2438   30.6654 C   0  0  0  0  0  0  0  0  0  0  0  0
  -26.8397  -18.4067   24.6507 C   0  0  0  0  0  0  0  0  0  0  0  0
  -31.1783  -16.8103   22.7583 C   0  0  0  0  0  0  0  0  0  0  0  0
  -31.3493  -15.3296   23.0878 C   0  0  0  0  0  0  0  0  0  0  0  0
  -29.1932  -16.4601   26.3683 C   0  0  0  0  0  0  0  0  0  1  0  0
  -29.8849  -17.4764   25.4495 C   0  0  1  0  0  0  0  0  0  0  0  0
  -25.8218  -13.0036   32.1408 C   0  0  1  0  0  0  0  0  0  0  0  0
  -28.2253  -10.1787   32.9235 C   0  0  2  0  0  0  0  0  0  0  0  0
  -25.2397  -13.8901   33.2777 C   0  0  0  0  0  0  0  0  0  0  0  0
  -29.0431  -17.4299   21.8390 N   0  0  0  0  0  0  0  0  0  0  0  0
  -25.8663  -11.6463   20.3603 N   0  0  0  0  0  0  0  0  0  0  0  0
  -29.8197  -17.2723   22.9244 N   0  0  0  0  0  0  0  0  0  0  0  0
  -26.2042  -12.9380   20.2074 N   0  0  0  0  0  0  0  0  0  0  0  0
  -24.9594  -12.9733   29.8214 N   0  0  0  0  0  0  0  0  0  0  0  0
  -30.0160  -13.1713   20.3634 N   0  0  0  0  0  0  0  0  0  0  0  0
  -25.3540  -15.1436   20.3595 N   0  0  0  0  0  0  0  0  0  0  0  0
  -21.8120  -12.5811   21.4927 N   0  0  0  0  0  0  0  0  0  0  0  0
  -21.9851  -13.9776   27.9664 N   0  0  0  0  0  0  0  0  0  0  0  0
  -26.4687  -11.7820   32.6073 N   0  0  0  0  0  0  0  0  0  0  0  0
  -30.5112  -14.4833   22.2679 N   0  0  0  0  0  0  0  0  0  0  0  0
  -29.2280   -9.5160   32.0423 N   0  3  0  0  0  0  0  0  0  0  0  0
  -22.5250  -14.7377   21.1772 O   0  0  0  0  0  0  0  0  0  0  0  0
  -23.4574  -15.0079   29.4474 O   0  0  0  0  0  0  0  0  0  0  0  0
  -23.8117  -11.8959   31.5414 O   0  0  0  0  0  0  0  0  0  0  0  0
  -28.5445  -12.2200   31.6711 O   0  0  0  0  0  0  0  0  0  0  0  0
  -32.0706  -14.2187   20.6080 O   0  0  0  0  0  0  0  0  0  0  0  0
  -21.7232   -7.0172   21.7585 O   0  0  0  0  0  0  0  0  0  0  0  0
  -28.8143  -15.3114   25.6112 O   0  0  0  0  0  0  0  0  0  1  0  0
  -24.1808   -3.1346   24.8064 F   0  0  0  0  0  0  0  0  0  0  0  0
  -20.6165   -6.1793   24.1493 F   0  0  0  0  0  0  0  0  0  0  0  0
  1  2  1  0  0  0  0
  1  5  2  0  0  0  0
  2  6  2  0  0  0  0
  3  8  2  0  0  0  0
  3 16  1  0  0  0  0
  4  9  1  0  0  0  0
  4 16  2  0  0  0  0
  5 18  1  0  0  0  0
  6 20  1  0  0  0  0
  7 10  2  0  0  0  0
  7 19  1  0  0  0  0
  8 23  1  0  0  0  0
  9 23  2  0  0  0  0
 10 24  1  0  0  0  0
 11 12  2  0  0  0  0
 11 25  1  0  0  0  0
 12 26  1  0  0  0  0
 13 21  1  0  0  0  0
 13 24  2  0  0  0  0
 14 26  2  0  0  0  0
 14 27  1  0  0  0  0
 15 22  1  0  0  0  0
 15 63  2  0  0  0  0
 16 28  1  0  0  0  0
 17 28  1  0  0  0  0
 17 30  2  0  0  0  0
 17 31  1  0  0  0  0
 18 20  2  0  0  0  0
 18 36  1  0  0  0  0
 19 21  2  0  0  0  0
 19 37  1  0  0  0  0
 20 45  1  0  0  0  0
 21 38  1  0  0  0  0
 22 29  2  0  0  0  0
 22 55  1  0  0  0  0
 23 80  1  0  0  0  0
 24 81  1  0  0  0  0
 25 27  2  0  0  0  0
 25 80  1  0  0  0  0
 26 82  1  0  0  0  0
 27 83  1  0  0  0  0
 28 64  2  0  0  0  0
 29 59  1  0  0  0  0
 29 65  1  0  0  0  0
 30 66  1  0  0  0  0
 30 69  1  0  0  0  0
 31 70  1  0  0  0  0
 31 75  2  0  0  0  0
 32 46  1  0  0  0  0
 32 71  1  0  0  0  0
 32 76  2  0  0  0  0
 33 60  1  0  0  0  0
 33 67  1  0  0  0  0
 33 77  2  0  0  0  0
 34 61  1  0  0  0  0
 34 72  1  0  0  0  0
 34 78  2  0  0  0  0
 35 68  1  0  0  0  0
 35 73  1  0  0  0  0
 35 79  2  0  0  0  0
 36 39  1  0  0  0  0
 37 46  1  0  0  0  0
 38 67  1  0  0  0  0
 39 41  1  0  0  0  0
 40 42  1  0  0  0  0
 40 43  1  0  0  0  0
 41 45  1  0  0  0  0
 42 47  1  0  0  0  0
 43 68  1  0  0  0  0
 44 47  1  0  0  0  0
 44 68  1  0  0  0  0
 45 71  1  0  0  0  0
 46 67  1  0  0  0  0
 47 66  1  0  0  0  0
 48 55  1  0  0  0  0
 49 59  1  0  0  0  0
 50 61  1  0  0  0  0
 51 62  1  0  0  0  0
 52 62  1  0  0  0  0
 53 62  1  0  0  0  0
 54 74  1  0  0  0  0
 56 57  1  0  0  0  0
 56 65  1  0  0  0  0
 57 73  1  0  0  0  0
 58 59  1  0  0  0  0
 58 81  1  0  0  0  0
 60 62  1  0  0  0  0
 60 72  1  0  0  0  0
 61 74  1  0  0  0  0
 63 65  1  0  0  0  0
 64 66  1  0  0  0  0
M  CHG  1  74   1
M  ISO  4  35 100  58 101  73 100  81 101
M  END
> <Batch ID>
0104

> <Smiles>
CCc1cnn(CC[100NH:0][100C:0](=O)N2CCCC(n3nc(-c4ccc(Oc5ccc(F)cc5F)cc4)c(C(N)=O)c3N)C2)c1C(C)[101CH2:1][101O:1]c1ccc2c(c1)CN(C(=O)C(NC(=O)C(C)NC)C(C)(C)C)C(C(=O)NC1CCCc3ccccc31)C2

> <Shape>
0.170

> <Color>
0.184

> <Negative vol penalty>
0.000

$$$$

  -OEChem-04052319433D

 80 87  0     1  0  0  0  0  0999 V2000
  -17.3768  -23.8906   27.1710 C   0  0  0  0  0  0  0  0  0  0  0  0
  -18.5109  -23.1452   26.8652 C   0  0  0  0  0  0  0  0  0  0  0  0
  -23.9798  -10.5147   23.2711 C   0  0  0  0  0  0  0  0  0  0  0  0
  -24.1840  -12.6860   24.3107 C   0  0  0  0  0  0  0  0  0  0  0  0
  -17.0306  -24.9866   26.3818 C   0  0  0  0  0  0  0  0  0  0  0  0
  -19.2989  -23.4947   25.7692 C   0  0  0  0  0  0  0  0  0  0  0  0
  -25.3846  -22.9935   25.3013 C   0  0  0  0  0  0  0  0  0  0  0  0
  -23.4836   -9.9900   24.4644 C   0  0  0  0  0  0  0  0  0  0  0  0
  -23.6877  -12.1613   25.5041 C   0  0  0  0  0  0  0  0  0  0  0  0
  -26.2040  -22.0328   24.7100 C   0  0  0  0  0  0  0  0  0  0  0  0
  -20.6780  -11.3296   26.7964 C   0  0  0  0  0  0  0  0  0  0  0  0
  -19.7077  -12.0683   27.4735 C   0  0  0  0  0  0  0  0  0  0  0  0
  -26.3447  -23.3871   22.7187 C   0  0  0  0  0  0  0  0  0  0  0  0
  -21.1628  -12.2169   29.3964 C   0  0  0  0  0  0  0  0  0  0  0  0
  -24.3300  -11.8628   23.1943 C   0  0  0  0  0  0  0  0  0  0  0  0
  -24.1016  -12.9782   20.9114 C   0  0  0  0  0  0  0  0  0  0  0  0
  -17.8202  -25.3555   25.2812 C   0  0  0  0  0  0  0  0  0  0  0  0
  -25.0297  -24.1550   24.6004 C   0  0  0  0  0  0  0  0  0  0  0  0
  -18.9623  -24.5958   24.9637 C   0  0  0  0  0  0  0  0  0  0  0  0
  -25.5228  -24.3621   23.3043 C   0  0  0  0  0  0  0  0  0  0  0  0
  -23.3376  -10.8133   25.5809 C   0  0  0  0  0  0  0  0  0  0  0  0
  -26.6818  -22.2281   23.4175 C   0  0  0  0  0  0  0  0  0  0  0  0
  -21.8906  -11.0345   27.4193 C   0  0  0  0  0  0  0  0  0  0  0  0
  -19.9501  -12.5120   28.7735 C   0  0  0  0  0  0  0  0  0  0  0  0
  -22.1330  -11.4781   28.7193 C   0  0  0  0  0  0  0  0  0  0  0  0
  -24.8432  -12.4053   21.9620 C   0  0  0  0  0  0  0  0  0  0  0  0
  -25.0457  -13.3362   19.9803 C   0  0  0  0  0  0  0  0  0  0  0  0
  -22.6861  -13.1697   20.7884 C   0  0  0  0  0  0  0  0  0  0  0  0
  -22.2928  -25.4174   23.5906 C   0  0  0  0  0  0  0  0  0  0  0  0
  -24.1981  -27.9092   22.7640 C   0  0  0  0  0  0  0  0  0  0  0  0
  -27.3188  -29.0242   21.9487 C   0  0  0  0  0  0  0  0  0  0  0  0
  -30.8724  -14.6555   20.3804 C   0  0  0  0  0  0  0  0  0  0  0  0
  -17.3796  -26.5195   24.4294 C   0  0  0  0  0  0  0  0  0  0  0  0
  -24.1668  -25.1942   25.2622 C   0  0  0  0  0  0  0  0  0  0  0  0
  -25.1876  -25.6016   22.5169 C   0  0  0  0  0  0  0  0  0  0  0  0
  -18.4754  -27.0490   23.5079 C   0  0  0  0  0  0  0  0  0  0  0  0
  -29.3861  -12.1083   18.3855 C   0  0  0  0  0  0  0  0  0  0  0  0
  -19.1755  -25.8970   22.7941 C   0  0  0  0  0  0  0  0  0  0  0  0
  -27.9864  -11.9473   18.9811 C   0  0  0  0  0  0  0  0  0  0  0  0
  -30.4284  -12.3974   19.4635 C   0  0  0  0  0  0  0  0  0  0  0  0
  -28.7129  -13.3804   20.9348 C   0  0  0  0  0  0  0  0  0  0  0  0
  -19.8562  -24.9584   23.7976 C   0  0  1  0  0  0  0  0  0  0  0  0
  -23.4498  -26.0989   24.2648 C   0  0  1  0  0  0  0  0  0  0  0  0
  -27.6186  -13.1430   19.8801 C   0  0  2  0  0  0  0  0  0  0  0  0
  -28.5570  -31.1042   21.2872 C   0  0  0  0  0  0  0  0  0  0  0  0
  -23.0293  -27.7080   19.9527 C   0  0  0  0  0  0  0  0  0  0  0  0
  -24.9323  -29.1152   19.1362 C   0  0  0  0  0  0  0  0  0  0  0  0
  -23.3194  -30.0441   20.7971 C   0  0  0  0  0  0  0  0  0  0  0  0
  -27.4794  -17.5196   22.4848 C   0  0  0  0  0  0  0  0  0  0  0  0
  -29.0653  -28.8824   24.3337 C   0  0  0  0  0  0  0  0  0  0  0  0
  -28.9106  -18.9913   19.1351 C   0  0  0  0  0  0  0  0  0  0  0  0
  -31.1672  -16.9150   21.3637 C   0  0  0  0  0  0  0  0  0  0  0  0
  -30.8476  -17.9674   20.3185 C   0  0  0  0  0  0  0  0  0  0  0  0
  -29.1105  -19.1998   21.6086 C   0  0  0  0  0  0  0  0  0  0  0  0
  -27.2872  -19.9354   23.2367 C   0  0  0  0  0  0  0  0  0  1  0  0
  -24.9854  -28.2908   21.5338 C   0  0  1  0  0  0  0  0  0  0  0  0
  -28.1242  -30.2131   22.4410 C   0  0  2  0  0  0  0  0  0  0  0  0
  -24.0715  -28.7652   20.3688 C   0  0  0  0  0  0  0  0  0  0  0  0
  -27.6764  -18.9859   22.0992 C   0  0  2  0  0  0  0  0  0  0  0  0
  -26.1570  -12.3975   21.7214 N   0  0  0  0  0  0  0  0  0  0  0  0
  -26.2484  -12.9699   20.5089 N   0  0  0  0  0  0  0  0  0  0  0  0
  -24.3354  -26.5854   23.2050 N   0  0  0  0  0  0  0  0  0  0  0  0
  -30.0203  -13.5433   20.2799 N   0  0  0  0  0  0  0  0  0  0  0  0
  -24.9560  -13.9254   18.7690 N   0  0  0  0  0  0  0  0  0  0  0  0
  -21.8605  -12.7440   21.8379 N   0  0  0  0  0  0  0  0  0  0  0  0
  -21.0957  -25.5369   24.2703 N   0  0  0  0  0  0  0  0  0  0  0  0
  -25.9643  -29.2820   21.9669 N   0  0  0  0  0  0  0  0  0  0  0  0
  -30.4068  -15.7007   21.1688 N   0  0  0  0  0  0  0  0  0  0  0  0
  -29.3443  -29.7499   23.1604 N   0  3  0  0  0  0  0  0  0  0  0  0
  -29.3941  -18.3610   20.4182 N   0  3  1  0  0  0  0  0  0  0  0  0
  -22.1672  -13.6877   19.7705 O   0  0  0  0  0  0  0  0  0  0  0  0
  -22.4726  -24.8281   22.5313 O   0  0  0  0  0  0  0  0  0  0  0  0
  -23.4929  -28.7565   23.3176 O   0  0  0  0  0  0  0  0  0  0  0  0
  -27.8393  -27.9733   21.5809 O   0  0  0  0  0  0  0  0  0  0  0  0
  -31.9646  -14.7149   19.8056 O   0  0  0  0  0  0  0  0  0  0  0  0
  -22.8532  -10.3016   26.7455 O   0  0  0  0  0  0  0  0  0  0  0  0
  -27.4811  -21.2917   22.8378 O   0  0  0  0  0  0  0  0  0  1  0  0
  -19.0189  -13.2227   29.4230 F   0  0  0  0  0  0  0  0  0  0  0  0
  -23.2966  -11.1987   29.3225 F   0  0  0  0  0  0  0  0  0  0  0  0
  -26.8378  -19.2363   21.0469 F   0  0  0  0  0  0  0  0  0  0  0  0
  1  2  1  0  0  0  0
  1  5  2  0  0  0  0
  2  6  2  0  0  0  0
  3  8  2  0  0  0  0
  3 15  1  0  0  0  0
  4  9  1  0  0  0  0
  4 15  2  0  0  0  0
  5 17  1  0  0  0  0
  6 19  1  0  0  0  0
  7 10  2  0  0  0  0
  7 18  1  0  0  0  0
  8 21  1  0  0  0  0
  9 21  2  0  0  0  0
 10 22  1  0  0  0  0
 11 12  2  0  0  0  0
 11 23  1  0  0  0  0
 12 24  1  0  0  0  0
 13 20  1  0  0  0  0
 13 22  2  0  0  0  0
 14 24  2  0  0  0  0
 14 25  1  0  0  0  0
 15 26  1  0  0  0  0
 16 26  1  0  0  0  0
 16 27  2  0  0  0  0
 16 28  1  0  0  0  0
 17 19  2  0  0  0  0
 17 33  1  0  0  0  0
 18 20  2  0  0  0  0
 18 34  1  0  0  0  0
 19 42  1  0  0  0  0
 20 35  1  0  0  0  0
 21 76  1  0  0  0  0
 22 77  1  0  0  0  0
 23 25  2  0  0  0  0
 23 76  1  0  0  0  0
 24 78  1  0  0  0  0
 25 79  1  0  0  0  0
 26 60  2  0  0  0  0
 27 61  1  0  0  0  0
 27 64  1  0  0  0  0
 28 65  1  0  0  0  0
 28 71  2  0  0  0  0
 29 43  1  0  0  0  0
 29 66  1  0  0  0  0
 29 72  2  0  0  0  0
 30 56  1  0  0  0  0
 30 62  1  0  0  0  0
 30 73  2  0  0  0  0
 31 57  1  0  0  0  0
 31 67  1  0  0  0  0
 31 74  2  0  0  0  0
 32 63  1  0  0  0  0
 32 68  1  0  0  0  0
 32 75  2  0  0  0  0
 33 36  1  0  0  0  0
 34 43  1  0  0  0  0
 35 62  1  0  0  0  0
 36 38  1  0  0  0  0
 37 39  1  0  0  0  0
 37 40  1  0  0  0  0
 38 42  1  0  0  0  0
 39 44  1  0  0  0  0
 40 63  1  0  0  0  0
 41 44  1  0  0  0  0
 41 63  1  0  0  0  0
 42 66  1  0  0  0  0
 43 62  1  0  0  0  0
 44 61  1  0  0  0  0
 45 57  1  0  0  0  0
 46 58  1  0  0  0  0
 47 58  1  0  0  0  0
 48 58  1  0  0  0  0
 49 59  1  0  0  0  0
 50 69  1  0  0  0  0
 51 70  1  0  0  0  0
 52 53  1  0  0  0  0
 52 68  1  0  0  0  0
 53 70  1  0  0  0  0
 54 59  1  0  0  0  0
 54 70  1  0  0  0  0
 55 59  1  0  0  0  0
 55 77  1  0  0  0  0
 56 58  1  0  0  0  0
 56 67  1  0  0  0  0
 57 69  1  0  0  0  0
 59 80  1  0  0  0  0
 60 61  1  0  0  0  0
M  CHG  2  69   1  70   1
M  ISO  4  32 100  55 101  68 100  77 101
M  END
> <Batch ID>
0104

> <Smiles>
CNC(C)C(=O)NC(C(=O)N1Cc2cc([101O:1][101CH2:1]C(C)(F)CN(C)CC[100NH:0][100C:0](=O)N3CCCC(n4nc(-c5ccc(Oc6ccc(F)cc6F)cc5)c(C(N)=O)c4N)C3)ccc2CC1C(=O)NC1CCCc2ccccc21)C(C)(C)C

> <Shape>
0.187

> <Color>
0.102

> <Negative vol penalty>
0.000

$$$$

  -OEChem-04052319433D

 86 94  0     1  0  0  0  0  0999 V2000
  -28.9355  -11.2659   19.7667 C   0  0  0  0  0  0  0  0  0  0  0  0
  -29.2902  -12.5972   19.9595 C   0  0  0  0  0  0  0  0  0  0  0  0
  -19.3606  -28.0158   24.1563 C   0  0  0  0  0  0  0  0  0  0  0  0
  -19.4691  -27.5430   21.7895 C   0  0  0  0  0  0  0  0  0  0  0  0
  -27.6000  -10.8793   19.8717 C   0  0  0  0  0  0  0  0  0  0  0  0
  -28.3095  -13.5429   20.2564 C   0  0  0  0  0  0  0  0  0  0  0  0
  -29.6846  -16.6562   24.0063 C   0  0  0  0  0  0  0  0  0  0  0  0
  -17.9673  -27.9869   24.0982 C   0  0  0  0  0  0  0  0  0  0  0  0
  -18.0758  -27.5141   21.7314 C   0  0  0  0  0  0  0  0  0  0  0  0
  -30.5699  -17.6849   23.6874 C   0  0  0  0  0  0  0  0  0  0  0  0
  -15.5398  -29.7476   21.6254 C   0  0  0  0  0  0  0  0  0  0  0  0
  -14.9210  -30.4210   20.5722 C   0  0  0  0  0  0  0  0  0  0  0  0
  -28.7226  -19.2324   23.5777 C   0  0  0  0  0  0  0  0  0  0  0  0
  -13.9240  -28.3482   19.8327 C   0  0  0  0  0  0  0  0  0  0  0  0
  -20.1116  -27.7939   23.0019 C   0  0  0  0  0  0  0  0  0  0  0  0
  -22.3873  -26.9992   23.8368 C   0  0  0  0  0  0  0  0  0  0  0  0
  -26.6037  -11.8191   20.1795 C   0  0  0  0  0  0  0  0  0  0  0  0
  -28.3081  -16.9060   24.1027 C   0  0  0  0  0  0  0  0  0  0  0  0
  -26.9593  -13.1688   20.3643 C   0  0  0  0  0  0  0  0  0  0  0  0
  -27.8223  -18.2056   23.9004 C   0  0  0  0  0  0  0  0  0  0  0  0
  -17.3249  -27.7360   22.8858 C   0  0  0  0  0  0  0  0  0  0  0  0
  -30.0887  -18.9727   23.4702 C   0  0  0  0  0  0  0  0  0  0  0  0
  -15.3508  -28.3745   21.7822 C   0  0  0  0  0  0  0  0  0  0  0  0
  -14.1131  -29.7213   19.6759 C   0  0  0  0  0  0  0  0  0  0  0  0
  -14.5429  -27.6748   20.8859 C   0  0  0  0  0  0  0  0  0  0  0  0
  -21.5509  -27.8242   23.0611 C   0  0  0  0  0  0  0  0  0  0  0  0
  -23.6594  -27.4234   23.5394 C   0  0  0  0  0  0  0  0  0  0  0  0
  -22.0451  -25.9438   24.7449 C   0  0  0  0  0  0  0  0  0  0  0  0
  -25.7273  -15.8713   22.5624 C   0  0  0  0  0  0  0  0  0  0  0  0
  -24.1648  -17.5845   24.8308 C   0  0  0  0  0  0  0  0  0  0  0  0
  -24.5610  -20.7821   26.4543 C   0  0  0  0  0  0  0  0  0  0  0  0
  -27.2753  -28.8307   19.3846 C   0  0  0  0  0  0  0  0  0  0  0  0
  -25.1674  -11.3622   20.2359 C   0  0  0  0  0  0  0  0  0  0  0  0
  -27.3693  -15.7909   24.4738 C   0  0  0  0  0  0  0  0  0  0  0  0
  -26.3558  -18.5303   24.0119 C   0  0  0  0  0  0  0  0  0  0  0  0
  -24.2377  -12.3591   20.9231 C   0  0  0  0  0  0  0  0  0  0  0  0
  -25.2906  -31.4884   21.0275 C   0  0  0  0  0  0  0  0  0  0  0  0
  -24.4933  -13.7713   20.4062 C   0  0  0  0  0  0  0  0  0  0  0  0
  -24.1718  -30.6985   21.7043 C   0  0  0  0  0  0  0  0  0  0  0  0
  -28.4521  -25.3873   18.8340 C   0  0  0  0  0  0  0  0  0  0  0  0
  -29.4126  -24.7269   17.8418 C   0  0  0  0  0  0  0  0  0  0  0  0
  -30.0217  -27.2114   19.7844 C   0  0  0  0  0  0  0  0  0  0  0  0
  -25.8128  -30.7787   19.7820 C   0  0  0  0  0  0  0  0  0  0  0  0
  -25.1316  -28.5874   20.7030 C   0  0  0  0  0  0  0  0  0  0  0  0
  -31.2883  -26.5780   19.2247 C   0  0  0  0  0  0  0  0  0  0  0  0
  -25.9275  -14.2197   20.7123 C   0  0  1  0  0  0  0  0  0  0  0  0
  -25.9302  -16.0523   24.0401 C   0  0  1  0  0  0  0  0  0  0  0  0
  -24.6149  -29.2526   21.9876 C   0  0  2  0  0  0  0  0  0  0  0  0
  -28.7335  -26.8835   19.0232 C   0  0  2  0  0  0  0  0  0  0  0  0
  -30.7367  -24.2183   18.4189 C   0  0  2  0  0  0  0  0  0  0  0  0
  -23.8202  -21.5640   28.7209 C   0  0  0  0  0  0  0  0  0  0  0  0
  -30.5563  -21.7686   17.9035 C   0  0  0  0  0  0  0  0  0  0  0  0
  -33.8897  -20.4615   20.8328 C   0  0  0  0  0  0  0  0  0  0  0  0
  -21.7013  -18.6110   23.3519 C   0  0  0  0  0  0  0  0  0  0  0  0
  -21.7345  -20.6257   24.8379 C   0  0  0  0  0  0  0  0  0  0  0  0
  -21.4047  -18.3574   25.8221 C   0  0  0  0  0  0  0  0  0  0  0  0
  -27.0905  -26.7776   20.8520 C   0  0  0  0  0  0  0  0  0  0  0  0
  -27.3072  -21.5965   27.1990 C   0  0  0  0  0  0  0  0  0  0  0  0
  -31.6853  -22.5196   20.0584 C   0  0  0  0  0  0  0  0  0  0  0  0
  -32.1335  -19.6221   22.4441 C   0  0  0  0  0  0  0  0  0  1  0  0
  -23.6869  -19.0113   24.9528 C   0  0  1  0  0  0  0  0  0  0  0  0
  -24.9771  -21.0250   27.8939 C   0  0  2  0  0  0  0  0  0  0  0  0
  -30.6031  -22.8185   19.0148 C   0  0  1  0  0  0  0  0  0  0  0  0
  -32.6232  -20.7963   21.6041 C   0  0  2  0  0  0  0  0  0  0  0  0
  -22.1546  -19.1446   24.7255 C   0  0  0  0  0  0  0  0  0  0  0  0
  -22.2341  -28.7059   22.3263 N   0  0  0  0  0  0  0  0  0  0  0  0
  -23.5132  -28.4374   22.6390 N   0  0  0  0  0  0  0  0  0  0  0  0
  -25.4770  -17.4049   24.3708 N   0  0  0  0  0  0  0  0  0  0  0  0
  -26.1862  -29.3935   20.0701 N   0  0  0  0  0  0  0  0  0  0  0  0
  -24.8775  -27.0243   23.9628 N   0  0  0  0  0  0  0  0  0  0  0  0
  -20.6904  -25.6377   24.9334 N   0  0  0  0  0  0  0  0  0  0  0  0
  -26.0497  -14.6094   22.1007 N   0  0  0  0  0  0  0  0  0  0  0  0
  -24.1409  -19.4839   26.2562 N   0  0  0  0  0  0  0  0  0  0  0  0
  -27.6104  -27.5042   19.6957 N   0  0  0  0  0  0  0  0  0  0  0  0
  -31.2838  -25.1095   19.4896 N   0  3  0  0  0  0  0  0  0  0  0  0
  -26.0944  -22.0096   27.9511 N   0  3  0  0  0  0  0  0  0  0  0  0
  -31.5596  -21.1507   20.6203 N   0  3  0  0  0  0  0  0  0  0  0  0
  -22.9140  -25.3025   25.3830 O   0  0  0  0  0  0  0  0  0  0  0  0
  -25.3079  -16.8067   21.8911 O   0  0  0  0  0  0  0  0  0  0  0  0
  -23.4043  -16.6636   25.1392 O   0  0  0  0  0  0  0  0  0  0  0  0
  -24.6010  -21.6576   25.5926 O   0  0  0  0  0  0  0  0  0  0  0  0
  -27.9178  -29.4801   18.5496 O   0  0  0  0  0  0  0  0  0  0  0  0
  -15.9653  -27.7075   22.8288 O   0  0  0  0  0  0  0  0  0  0  0  0
  -30.9505  -19.9785   23.1582 O   0  0  0  0  0  0  0  0  0  1  0  0
  -13.5176  -30.3684   18.6655 F   0  0  0  0  0  0  0  0  0  0  0  0
  -14.3566  -26.3558   21.0321 F   0  0  0  0  0  0  0  0  0  0  0  0
  1  2  1  0  0  0  0
  1  5  2  0  0  0  0
  2  6  2  0  0  0  0
  3  8  2  0  0  0  0
  3 15  1  0  0  0  0
  4  9  1  0  0  0  0
  4 15  2  0  0  0  0
  5 17  1  0  0  0  0
  6 19  1  0  0  0  0
  7 10  2  0  0  0  0
  7 18  1  0  0  0  0
  8 21  1  0  0  0  0
  9 21  2  0  0  0  0
 10 22  1  0  0  0  0
 11 12  2  0  0  0  0
 11 23  1  0  0  0  0
 12 24  1  0  0  0  0
 13 20  1  0  0  0  0
 13 22  2  0  0  0  0
 14 24  2  0  0  0  0
 14 25  1  0  0  0  0
 15 26  1  0  0  0  0
 16 26  1  0  0  0  0
 16 27  2  0  0  0  0
 16 28  1  0  0  0  0
 17 19  2  0  0  0  0
 17 33  1  0  0  0  0
 18 20  2  0  0  0  0
 18 34  1  0  0  0  0
 19 46  1  0  0  0  0
 20 35  1  0  0  0  0
 21 83  1  0  0  0  0
 22 84  1  0  0  0  0
 23 25  2  0  0  0  0
 23 83  1  0  0  0  0
 24 85  1  0  0  0  0
 25 86  1  0  0  0  0
 26 66  2  0  0  0  0
 27 67  1  0  0  0  0
 27 70  1  0  0  0  0
 28 71  1  0  0  0  0
 28 78  2  0  0  0  0
 29 47  1  0  0  0  0
 29 72  1  0  0  0  0
 29 79  2  0  0  0  0
 30 61  1  0  0  0  0
 30 68  1  0  0  0  0
 30 80  2  0  0  0  0
 31 62  1  0  0  0  0
 31 73  1  0  0  0  0
 31 81  2  0  0  0  0
 32 69  1  0  0  0  0
 32 74  1  0  0  0  0
 32 82  2  0  0  0  0
 33 36  1  0  0  0  0
 34 47  1  0  0  0  0
 35 68  1  0  0  0  0
 36 38  1  0  0  0  0
 37 39  1  0  0  0  0
 37 43  1  0  0  0  0
 38 46  1  0  0  0  0
 39 48  1  0  0  0  0
 40 41  1  0  0  0  0
 40 49  1  0  0  0  0
 41 50  1  0  0  0  0
 42 45  1  0  0  0  0
 42 49  1  0  0  0  0
 43 69  1  0  0  0  0
 44 48  1  0  0  0  0
 44 69  1  0  0  0  0
 45 75  1  0  0  0  0
 46 72  1  0  0  0  0
 47 68  1  0  0  0  0
 48 67  1  0  0  0  0
 49 74  1  0  0  0  0
 50 63  1  0  0  0  0
 50 75  1  0  0  0  0
 51 62  1  0  0  0  0
 52 63  1  0  0  0  0
 53 64  1  0  0  0  0
 54 65  1  0  0  0  0
 55 65  1  0  0  0  0
 56 65  1  0  0  0  0
 57 74  1  0  0  0  0
 58 76  1  0  0  0  0
 59 63  1  0  0  0  0
 59 77  1  0  0  0  0
 60 64  1  0  0  0  0
 60 84  1  0  0  0  0
 61 65  1  0  0  0  0
 61 73  1  0  0  0  0
 62 76  1  0  0  0  0
 64 77  1  0  0  0  0
 66 67  1  0  0  0  0
M  CHG  3  75   1  76   1  77   1
M  ISO  4  32 100  60 101  74 100  84 101
M  END
> <Batch ID>
0104

> <Smiles>
CNC(C)C(=O)NC(C(=O)N1Cc2cc([101O:1][101CH2:1]C(C)NCC(C)C3CCC([100N:0](C)[100C:0](=O)N4CCCC(n5nc(-c6ccc(Oc7ccc(F)cc7F)cc6)c(C(N)=O)c5N)C4)CCN3)ccc2CC1C(=O)NC1CCCc2ccccc21)C(C)(C)C

> <Shape>
0.206

> <Color>
0.046

> <Negative vol penalty>
0.000

$$$$

  -OEChem-04052319433D

 75 82  0     1  0  0  0  0  0999 V2000
  -23.0990  -23.2750   17.4378 C   0  0  0  0  0  0  0  0  0  0  0  0
  -24.2143  -22.6565   17.9935 C   0  0  0  0  0  0  0  0  0  0  0  0
  -25.5585  -27.7546   19.7774 C   0  0  0  0  0  0  0  0  0  0  0  0
  -27.6867  -28.2239   20.8203 C   0  0  0  0  0  0  0  0  0  0  0  0
  -21.8194  -22.8350   17.7738 C   0  0  0  0  0  0  0  0  0  0  0  0
  -24.0506  -21.5981   18.8866 C   0  0  0  0  0  0  0  0  0  0  0  0
  -27.1924  -17.7438   17.9281 C   0  0  0  0  0  0  0  0  0  0  0  0
  -25.1892  -29.0910   19.9298 C   0  0  0  0  0  0  0  0  0  0  0  0
  -27.3174  -29.5603   20.9726 C   0  0  0  0  0  0  0  0  0  0  0  0
  -28.5154  -17.8819   18.3455 C   0  0  0  0  0  0  0  0  0  0  0  0
  -26.7940  -33.0181   21.9622 C   0  0  0  0  0  0  0  0  0  0  0  0
  -27.0507  -33.6256   23.1912 C   0  0  0  0  0  0  0  0  0  0  0  0
  -28.0389  -16.5274   20.2840 C   0  0  0  0  0  0  0  0  0  0  0  0
  -25.6434  -31.9978   24.2898 C   0  0  0  0  0  0  0  0  0  0  0  0
  -26.8073  -27.3210   20.2227 C   0  0  0  0  0  0  0  0  0  0  0  0
  -27.8547  -25.3618   18.9689 C   0  0  0  0  0  0  0  0  0  0  0  0
  -21.6402  -21.7645   18.6640 C   0  0  0  0  0  0  0  0  0  0  0  0
  -26.2784  -17.0043   18.6925 C   0  0  0  0  0  0  0  0  0  0  0  0
  -22.7674  -21.1442   19.2359 C   0  0  0  0  0  0  0  0  0  0  0  0
  -26.7055  -16.3793   19.8728 C   0  0  0  0  0  0  0  0  0  0  0  0
  -26.0686  -29.9939   20.5274 C   0  0  0  0  0  0  0  0  0  0  0  0
  -28.9382  -17.2761   19.5251 C   0  0  0  0  0  0  0  0  0  0  0  0
  -25.9619  -31.9005   21.8969 C   0  0  0  0  0  0  0  0  0  0  0  0
  -26.4755  -33.1155   24.3550 C   0  0  0  0  0  0  0  0  0  0  0  0
  -25.3866  -31.3904   23.0607 C   0  0  0  0  0  0  0  0  0  0  0  0
  -27.1891  -25.9405   20.0661 C   0  0  0  0  0  0  0  0  0  0  0  0
  -27.9830  -24.0364   19.3052 C   0  0  0  0  0  0  0  0  0  0  0  0
  -28.3157  -25.9682   17.7542 C   0  0  0  0  0  0  0  0  0  0  0  0
  -23.5686  -17.6722   20.2138 C   0  0  0  0  0  0  0  0  0  0  0  0
  -23.4958  -14.4632   20.6818 C   0  0  0  0  0  0  0  0  0  0  0  0
  -25.2216  -11.5269   20.8974 C   0  0  0  0  0  0  0  0  0  0  0  0
  -29.2053  -20.0542   23.0193 C   0  0  0  0  0  0  0  0  0  0  0  0
  -20.2365  -21.3549   19.0336 C   0  0  0  0  0  0  0  0  0  0  0  0
  -24.8614  -16.8426   18.2147 C   0  0  0  0  0  0  0  0  0  0  0  0
  -25.7686  -15.5578   20.7188 C   0  0  0  0  0  0  0  0  0  0  0  0
  -20.1573  -19.9830   19.6984 C   0  0  0  0  0  0  0  0  0  0  0  0
  -25.9010  -21.3793   23.0725 C   0  0  0  0  0  0  0  0  0  0  0  0
  -21.2226  -19.8529   20.7824 C   0  0  0  0  0  0  0  0  0  0  0  0
  -25.9982  -22.6390   22.2101 C   0  0  0  0  0  0  0  0  0  0  0  0
  -27.1687  -21.1594   23.8952 C   0  0  0  0  0  0  0  0  0  0  0  0
  -28.5167  -22.4064   22.2516 C   0  0  0  0  0  0  0  0  0  0  0  0
  -22.6313  -19.9770   20.1893 C   0  0  1  0  0  0  0  0  0  0  0  0
  -23.8884  -16.4946   19.3370 C   0  0  1  0  0  0  0  0  0  0  0  0
  -27.2840  -22.6399   21.3615 C   0  0  2  0  0  0  0  0  0  0  0  0
  -24.8939   -9.0763   21.3271 C   0  0  0  0  0  0  0  0  0  0  0  0
  -32.6681  -20.2771   20.2981 C   0  0  0  0  0  0  0  0  0  0  0  0
  -23.1748  -15.0312   23.6625 C   0  0  0  0  0  0  0  0  0  0  0  0
  -23.8028  -12.6499   24.1129 C   0  0  0  0  0  0  0  0  0  0  0  0
  -21.7487  -13.1685   22.7960 C   0  0  0  0  0  0  0  0  0  0  0  0
  -26.2599  -10.8007   18.2228 C   0  0  0  0  0  0  0  0  0  0  0  0
  -31.2645  -19.0739   22.0406 C   0  0  0  0  0  0  0  0  0  0  0  0
  -30.9050  -18.6123   19.5702 C   0  0  0  0  0  0  0  0  0  1  0  0
  -24.0192  -13.5254   21.7428 C   0  0  1  0  0  0  0  0  0  0  0  0
  -24.9771  -10.1664   20.2700 C   0  0  2  0  0  0  0  0  0  0  0  0
  -31.9206  -18.9879   20.6558 C   0  0  1  0  0  0  0  0  0  0  0  0
  -23.2038  -13.6108   23.0638 C   0  0  0  0  0  0  0  0  0  0  0  0
  -26.9138  -25.0552   21.0276 N   0  0  0  0  0  0  0  0  0  0  0  0
  -27.4086  -23.9067   20.5355 N   0  0  0  0  0  0  0  0  0  0  0  0
  -24.3916  -15.4345   20.2128 N   0  0  0  0  0  0  0  0  0  0  0  0
  -28.3515  -21.1695   23.0310 N   0  0  0  0  0  0  0  0  0  0  0  0
  -28.5299  -22.9808   18.6657 N   0  0  0  0  0  0  0  0  0  0  0  0
  -28.1024  -27.3411   17.5699 N   0  0  0  0  0  0  0  0  0  0  0  0
  -23.0158  -18.7432   19.5378 N   0  0  0  0  0  0  0  0  0  0  0  0
  -24.0413  -12.1975   21.1389 N   0  0  0  0  0  0  0  0  0  0  0  0
  -30.2995  -20.1433   22.1675 N   0  0  0  0  0  0  0  0  0  0  0  0
  -26.0803   -9.8245   19.3281 N   0  3  0  0  0  0  0  0  0  0  0  0
  -28.8849  -25.3088   16.8516 O   0  0  0  0  0  0  0  0  0  0  0  0
  -23.8044  -17.6130   21.4148 O   0  0  0  0  0  0  0  0  0  0  0  0
  -22.3371  -14.3340   20.2788 O   0  0  0  0  0  0  0  0  0  0  0  0
  -26.3469  -11.9507   21.1515 O   0  0  0  0  0  0  0  0  0  0  0  0
  -29.0042  -19.0511   23.7123 O   0  0  0  0  0  0  0  0  0  0  0  0
  -25.7086  -31.2980   20.6760 O   0  0  0  0  0  0  0  0  0  0  0  0
  -30.2289  -17.4098   19.9351 O   0  0  0  0  0  0  0  0  0  1  0  0
  -26.7233  -33.6981   25.5354 F   0  0  0  0  0  0  0  0  0  0  0  0
  -24.5874  -30.3162   23.0044 F   0  0  0  0  0  0  0  0  0  0  0  0
  1  2  1  0  0  0  0
  1  5  2  0  0  0  0
  2  6  2  0  0  0  0
  3  8  2  0  0  0  0
  3 15  1  0  0  0  0
  4  9  1  0  0  0  0
  4 15  2  0  0  0  0
  5 17  1  0  0  0  0
  6 19  1  0  0  0  0
  7 10  2  0  0  0  0
  7 18  1  0  0  0  0
  8 21  1  0  0  0  0
  9 21  2  0  0  0  0
 10 22  1  0  0  0  0
 11 12  2  0  0  0  0
 11 23  1  0  0  0  0
 12 24  1  0  0  0  0
 13 20  1  0  0  0  0
 13 22  2  0  0  0  0
 14 24  2  0  0  0  0
 14 25  1  0  0  0  0
 15 26  1  0  0  0  0
 16 26  1  0  0  0  0
 16 27  2  0  0  0  0
 16 28  1  0  0  0  0
 17 19  2  0  0  0  0
 17 33  1  0  0  0  0
 18 20  2  0  0  0  0
 18 34  1  0  0  0  0
 19 42  1  0  0  0  0
 20 35  1  0  0  0  0
 21 72  1  0  0  0  0
 22 73  1  0  0  0  0
 23 25  2  0  0  0  0
 23 72  1  0  0  0  0
 24 74  1  0  0  0  0
 25 75  1  0  0  0  0
 26 57  2  0  0  0  0
 27 58  1  0  0  0  0
 27 61  1  0  0  0  0
 28 62  1  0  0  0  0
 28 67  2  0  0  0  0
 29 43  1  0  0  0  0
 29 63  1  0  0  0  0
 29 68  2  0  0  0  0
 30 53  1  0  0  0  0
 30 59  1  0  0  0  0
 30 69  2  0  0  0  0
 31 54  1  0  0  0  0
 31 64  1  0  0  0  0
 31 70  2  0  0  0  0
 32 60  1  0  0  0  0
 32 65  1  0  0  0  0
 32 71  2  0  0  0  0
 33 36  1  0  0  0  0
 34 43  1  0  0  0  0
 35 59  1  0  0  0  0
 36 38  1  0  0  0  0
 37 39  1  0  0  0  0
 37 40  1  0  0  0  0
 38 42  1  0  0  0  0
 39 44  1  0  0  0  0
 40 60  1  0  0  0  0
 41 44  1  0  0  0  0
 41 60  1  0  0  0  0
 42 63  1  0  0  0  0
 43 59  1  0  0  0  0
 44 58  1  0  0  0  0
 45 54  1  0  0  0  0
 46 55  1  0  0  0  0
 47 56  1  0  0  0  0
 48 56  1  0  0  0  0
 49 56  1  0  0  0  0
 50 66  1  0  0  0  0
 51 55  1  0  0  0  0
 51 65  1  0  0  0  0
 52 55  1  0  0  0  0
 52 73  1  0  0  0  0
 53 56  1  0  0  0  0
 53 64  1  0  0  0  0
 54 66  1  0  0  0  0
 57 58  1  0  0  0  0
M  CHG  1  66   1
M  ISO  4  32 100  52 101  65 100  73 101
M  END
> <Batch ID>
0104

> <Smiles>
CNC(C)C(=O)NC(C(=O)N1Cc2cc([101O:1][101CH2:1]C(C)C[100NH:0][100C:0](=O)N3CCCC(n4nc(-c5ccc(Oc6ccc(F)cc6F)cc5)c(C(N)=O)c4N)C3)ccc2CC1C(=O)NC1CCCc2ccccc21)C(C)(C)C

> <Shape>
0.192

> <Color>
0.075

> <Negative vol penalty>
0.000

$$$$

  -OEChem-04052319433D

 81 89  0     1  0  0  0  0  0999 V2000
  -27.5945  -34.6031   27.4945 C   0  0  0  0  0  0  0  0  0  0  0  0
  -28.0070  -33.3426   27.9147 C   0  0  0  0  0  0  0  0  0  0  0  0
  -22.7321  -10.0821   20.1362 C   0  0  0  0  0  0  0  0  0  0  0  0
  -24.2322   -9.5305   21.9479 C   0  0  0  0  0  0  0  0  0  0  0  0
  -26.2880  -34.7945   27.0470 C   0  0  0  0  0  0  0  0  0  0  0  0
  -27.1127  -32.2730   27.8886 C   0  0  0  0  0  0  0  0  0  0  0  0
  -27.7199  -25.3312   24.3574 C   0  0  0  0  0  0  0  0  0  0  0  0
  -21.9974   -8.9243   20.3920 C   0  0  0  0  0  0  0  0  0  0  0  0
  -23.4975   -8.3727   22.2038 C   0  0  0  0  0  0  0  0  0  0  0  0
  -27.6432  -24.1323   23.6482 C   0  0  0  0  0  0  0  0  0  0  0  0
  -20.6082   -7.5492   23.7511 C   0  0  0  0  0  0  0  0  0  0  0  0
  -20.3021   -7.2583   25.0805 C   0  0  0  0  0  0  0  0  0  0  0  0
  -25.2285  -24.2623   23.6687 C   0  0  0  0  0  0  0  0  0  0  0  0
  -21.4990   -5.1675   24.8984 C   0  0  0  0  0  0  0  0  0  0  0  0
  -23.8495  -10.3852   20.9141 C   0  0  0  0  0  0  0  0  0  0  0  0
  -24.1451  -12.9091   20.6908 C   0  0  0  0  0  0  0  0  0  0  0  0
  -25.3801  -33.7245   27.0063 C   0  0  0  0  0  0  0  0  0  0  0  0
  -26.5501  -26.0089   24.7119 C   0  0  0  0  0  0  0  0  0  0  0  0
  -25.7924  -32.4505   27.4414 C   0  0  0  0  0  0  0  0  0  0  0  0
  -25.2995  -25.4700   24.3682 C   0  0  0  0  0  0  0  0  0  0  0  0
  -22.3801   -8.0697   21.4258 C   0  0  0  0  0  0  0  0  0  0  0  0
  -26.4006  -23.5991   23.3050 C   0  0  0  0  0  0  0  0  0  0  0  0
  -21.3596   -6.6493   22.9953 C   0  0  0  0  0  0  0  0  0  0  0  0
  -20.7475   -6.0674   25.6541 C   0  0  0  0  0  0  0  0  0  0  0  0
  -21.8050   -5.4584   23.5690 C   0  0  0  0  0  0  0  0  0  0  0  0
  -24.6092  -11.5807   20.6500 C   0  0  0  0  0  0  0  0  0  0  0  0
  -25.2437  -13.6667   20.3658 C   0  0  0  0  0  0  0  0  0  0  0  0
  -22.8379  -13.4132   20.9953 C   0  0  0  0  0  0  0  0  0  0  0  0
  -25.0141  -28.9980   26.3798 C   0  0  0  0  0  0  0  0  0  0  0  0
  -23.3898  -28.4664   23.8323 C   0  0  0  0  0  0  0  0  0  0  0  0
  -30.6936  -14.7677   20.9789 C   0  0  0  0  0  0  0  0  0  0  0  0
  -21.4649  -28.7087   21.0264 C   0  0  0  0  0  0  0  0  0  0  0  0
  -23.9644  -33.9903   26.5592 C   0  0  0  0  0  0  0  0  0  0  0  0
  -26.5835  -27.2716   25.5294 C   0  0  0  0  0  0  0  0  0  0  0  0
  -24.0668  -26.2159   24.8007 C   0  0  0  0  0  0  0  0  0  0  0  0
  -23.1880  -32.7233   26.2095 C   0  0  0  0  0  0  0  0  0  0  0  0
  -29.7541  -12.3243   18.5320 C   0  0  0  0  0  0  0  0  0  0  0  0
  -23.3839  -31.6625   27.2880 C   0  0  0  0  0  0  0  0  0  0  0  0
  -27.2829  -17.6655   23.1291 C   0  0  0  0  0  0  0  0  0  0  0  0
  -28.8391  -18.9230   21.5885 C   0  0  0  0  0  0  0  0  0  0  0  0
  -28.3367  -16.5731   23.3020 C   0  0  0  0  0  0  0  0  0  0  0  0
  -29.8928  -17.8305   21.7612 C   0  0  0  0  0  0  0  0  0  0  0  0
  -28.3035  -12.0001   18.8871 C   0  0  0  0  0  0  0  0  0  0  0  0
  -30.5844  -12.6079   19.7799 C   0  0  0  0  0  0  0  0  0  0  0  0
  -28.5731  -13.3628   21.0073 C   0  0  0  0  0  0  0  0  0  0  0  0
  -24.8590  -31.2600   27.4045 C   0  0  1  0  0  0  0  0  0  0  0  0
  -25.4689  -28.2640   25.1527 C   0  0  1  0  0  0  0  0  0  0  0  0
  -27.9212  -19.0240   22.8133 C   0  0  0  0  0  0  0  0  0  0  0  0
  -29.2544  -16.4720   22.0771 C   0  0  0  0  0  0  0  0  0  0  0  0
  -27.6922  -13.1000   19.7731 C   0  0  2  0  0  0  0  0  0  0  0  0
  -19.2434  -29.5612   20.2293 C   0  0  0  0  0  0  0  0  0  0  0  0
  -31.5586  -15.9912   22.9746 C   0  0  0  0  0  0  0  0  0  0  0  0
  -22.0097  -26.0805   25.1388 C   0  0  0  0  0  0  0  0  0  0  0  0
  -20.0826  -26.4318   23.5795 C   0  0  0  0  0  0  0  0  0  0  0  0
  -20.7030  -28.2116   25.2136 C   0  0  0  0  0  0  0  0  0  0  0  0
  -22.7370  -30.5832   19.1219 C   0  0  0  0  0  0  0  0  0  0  0  0
  -26.8466  -20.0876   22.5959 C   0  0  0  0  0  0  0  0  0  0  0  0
  -27.3886  -21.4922   22.8126 C   0  0  0  0  0  0  0  0  0  1  0  0
  -22.1918  -27.7915   23.2138 C   0  0  1  0  0  0  0  0  0  0  0  0
  -20.7186  -29.8806   20.4147 C   0  0  2  0  0  0  0  0  0  0  0  0
  -30.3290  -15.4083   22.2944 C   0  0  2  0  0  0  0  0  0  0  0  0
  -21.2730  -27.1248   24.2763 C   0  0  0  0  0  0  0  0  0  0  0  0
  -25.9018  -11.4958   20.3246 N   0  0  0  0  0  0  0  0  0  0  0  0
  -26.2594  -12.7805   20.1579 N   0  0  0  0  0  0  0  0  0  0  0  0
  -24.2517  -27.6595   24.5851 N   0  0  0  0  0  0  0  0  0  0  0  0
  -29.9589  -13.6420   20.6060 N   0  0  0  0  0  0  0  0  0  0  0  0
  -25.4303  -14.9978   20.2404 N   0  0  0  0  0  0  0  0  0  0  0  0
  -22.5332  -13.7179   22.3289 N   0  0  0  0  0  0  0  0  0  0  0  0
  -25.2245  -30.3628   26.3294 N   0  0  0  0  0  0  0  0  0  0  0  0
  -21.5275  -28.8043   22.4005 N   0  0  0  0  0  0  0  0  0  0  0  0
  -21.2958  -30.2248   19.0845 N   0  3  0  0  0  0  0  0  0  0  0  0
  -21.9604  -13.5728   20.1132 O   0  0  0  0  0  0  0  0  0  0  0  0
  -24.5078  -28.3733   27.3046 O   0  0  0  0  0  0  0  0  0  0  0  0
  -23.5564  -29.6770   23.6591 O   0  0  0  0  0  0  0  0  0  0  0  0
  -31.6026  -15.2564   20.3028 O   0  0  0  0  0  0  0  0  0  0  0  0
  -21.9413  -27.7977   20.3529 O   0  0  0  0  0  0  0  0  0  0  0  0
  -29.7762  -14.3721   23.0915 O   0  0  0  0  0  0  0  0  0  0  0  0
  -21.6633   -6.9400   21.6759 O   0  0  0  0  0  0  0  0  0  0  0  0
  -26.3330  -22.4306   22.6087 O   0  0  0  0  0  0  0  0  0  1  0  0
  -20.4549   -5.7888   26.9312 F   0  0  0  0  0  0  0  0  0  0  0  0
  -22.5282   -4.5905   22.8482 F   0  0  0  0  0  0  0  0  0  0  0  0
  1  2  1  0  0  0  0
  1  5  2  0  0  0  0
  2  6  2  0  0  0  0
  3  8  2  0  0  0  0
  3 15  1  0  0  0  0
  4  9  1  0  0  0  0
  4 15  2  0  0  0  0
  5 17  1  0  0  0  0
  6 19  1  0  0  0  0
  7 10  2  0  0  0  0
  7 18  1  0  0  0  0
  8 21  1  0  0  0  0
  9 21  2  0  0  0  0
 10 22  1  0  0  0  0
 11 12  2  0  0  0  0
 11 23  1  0  0  0  0
 12 24  1  0  0  0  0
 13 20  1  0  0  0  0
 13 22  2  0  0  0  0
 14 24  2  0  0  0  0
 14 25  1  0  0  0  0
 15 26  1  0  0  0  0
 16 26  1  0  0  0  0
 16 27  2  0  0  0  0
 16 28  1  0  0  0  0
 17 19  2  0  0  0  0
 17 33  1  0  0  0  0
 18 20  2  0  0  0  0
 18 34  1  0  0  0  0
 19 46  1  0  0  0  0
 20 35  1  0  0  0  0
 21 78  1  0  0  0  0
 22 79  1  0  0  0  0
 23 25  2  0  0  0  0
 23 78  1  0  0  0  0
 24 80  1  0  0  0  0
 25 81  1  0  0  0  0
 26 63  2  0  0  0  0
 27 64  1  0  0  0  0
 27 67  1  0  0  0  0
 28 68  1  0  0  0  0
 28 72  2  0  0  0  0
 29 47  1  0  0  0  0
 29 69  1  0  0  0  0
 29 73  2  0  0  0  0
 30 59  1  0  0  0  0
 30 65  1  0  0  0  0
 30 74  2  0  0  0  0
 31 61  1  0  0  0  0
 31 66  1  0  0  0  0
 31 75  2  0  0  0  0
 32 60  1  0  0  0  0
 32 70  1  0  0  0  0
 32 76  2  0  0  0  0
 33 36  1  0  0  0  0
 34 47  1  0  0  0  0
 35 65  1  0  0  0  0
 36 38  1  0  0  0  0
 37 43  1  0  0  0  0
 37 44  1  0  0  0  0
 38 46  1  0  0  0  0
 39 41  1  0  0  0  0
 39 48  1  0  0  0  0
 40 42  1  0  0  0  0
 40 48  1  0  0  0  0
 41 49  1  0  0  0  0
 42 49  1  0  0  0  0
 43 50  1  0  0  0  0
 44 66  1  0  0  0  0
 45 50  1  0  0  0  0
 45 66  1  0  0  0  0
 46 69  1  0  0  0  0
 47 65  1  0  0  0  0
 48 57  1  0  0  0  0
 49 61  1  0  0  0  0
 50 64  1  0  0  0  0
 51 60  1  0  0  0  0
 52 61  1  0  0  0  0
 53 62  1  0  0  0  0
 54 62  1  0  0  0  0
 55 62  1  0  0  0  0
 56 71  1  0  0  0  0
 57 58  1  0  0  0  0
 58 79  1  0  0  0  0
 59 62  1  0  0  0  0
 59 70  1  0  0  0  0
 60 71  1  0  0  0  0
 61 77  1  0  0  0  0
 63 64  1  0  0  0  0
M  CHG  1  71   1
M  ISO  4  31 100  58 101  61 100  79 101
M  END
> <Batch ID>
0104

> <Smiles>
CNC(C)C(=O)NC(C(=O)N1Cc2cc([101O:1][101CH2:1]CC3CCC([100C:0](C)(O)[100C:0](=O)N4CCCC(n5nc(-c6ccc(Oc7ccc(F)cc7F)cc6)c(C(N)=O)c5N)C4)CC3)ccc2CC1C(=O)NC1CCCc2ccccc21)C(C)(C)C

> <Shape>
0.268

> <Color>
0.197

> <Negative vol penalty>
0.000

$$$$

  -OEChem-04052319433D

 88 96  0     1  0  0  0  0  0999 V2000
  -29.2552  -27.3341   26.7194 C   0  0  0  0  0  0  0  0  0  0  0  0
  -28.9222  -27.5534   25.3866 C   0  0  0  0  0  0  0  0  0  0  0  0
  -25.8177  -14.4748   21.6159 C   0  0  0  0  0  0  0  0  0  0  0  0
  -24.8537  -15.4608   19.6321 C   0  0  0  0  0  0  0  0  0  0  0  0
  -28.3978  -26.6019   27.5396 C   0  0  0  0  0  0  0  0  0  0  0  0
  -27.7320  -27.0396   24.8729 C   0  0  0  0  0  0  0  0  0  0  0  0
  -25.2291  -30.4039   22.0336 C   0  0  0  0  0  0  0  0  0  0  0  0
  -27.2446  -26.9855   18.7111 C   0  0  0  0  0  0  0  0  0  0  0  0
  -27.9579  -26.1784   19.5973 C   0  0  0  0  0  0  0  0  0  0  0  0
  -24.7621  -13.5652   21.6768 C   0  0  0  0  0  0  0  0  0  0  0  0
  -23.7980  -14.5511   19.6929 C   0  0  0  0  0  0  0  0  0  0  0  0
  -25.6920  -30.6106   20.7348 C   0  0  0  0  0  0  0  0  0  0  0  0
  -23.8588  -10.6911   20.1417 C   0  0  0  0  0  0  0  0  0  0  0  0
  -24.1690   -9.3536   20.3880 C   0  0  0  0  0  0  0  0  0  0  0  0
  -23.9562  -29.1627   19.8922 C   0  0  0  0  0  0  0  0  0  0  0  0
  -22.8209   -9.4101   22.3921 C   0  0  0  0  0  0  0  0  0  0  0  0
  -25.8635  -15.4227   20.5936 C   0  0  0  0  0  0  0  0  0  0  0  0
  -28.1778  -16.2011   19.8548 C   0  0  0  0  0  0  0  0  0  0  0  0
  -27.1919  -26.0871   27.0382 C   0  0  0  0  0  0  0  0  0  0  0  0
  -24.1311  -29.5650   22.2728 C   0  0  0  0  0  0  0  0  0  0  0  0
  -26.8583  -26.2987   25.6868 C   0  0  0  0  0  0  0  0  0  0  0  0
  -23.4798  -28.9490   21.1946 C   0  0  0  0  0  0  0  0  0  0  0  0
  -27.8921  -27.5655   17.6202 C   0  0  0  0  0  0  0  0  0  0  0  0
  -29.3189  -25.9514   19.3927 C   0  0  0  0  0  0  0  0  0  0  0  0
  -29.2531  -27.3385   17.4156 C   0  0  0  0  0  0  0  0  0  0  0  0
  -29.9665  -26.5314   18.3018 C   0  0  0  0  0  0  0  0  0  0  0  0
  -23.7522  -13.6032   20.7153 C   0  0  0  0  0  0  0  0  0  0  0  0
  -25.0573  -29.9877   19.6641 C   0  0  0  0  0  0  0  0  0  0  0  0
  -23.0298  -11.3881   21.0206 C   0  0  0  0  0  0  0  0  0  0  0  0
  -23.6500   -8.7131   21.5131 C   0  0  0  0  0  0  0  0  0  0  0  0
  -22.5108  -10.7475   22.1458 C   0  0  0  0  0  0  0  0  0  0  0  0
  -26.9534  -16.3630   20.5305 C   0  0  0  0  0  0  0  0  0  0  0  0
  -28.8621  -17.3664   20.1004 C   0  0  0  0  0  0  0  0  0  0  0  0
  -28.6539  -15.0963   19.0749 C   0  0  0  0  0  0  0  0  0  0  0  0
  -23.6828  -26.8615   23.8833 C   0  0  0  0  0  0  0  0  0  0  0  0
  -20.5726  -27.3803   23.1223 C   0  0  0  0  0  0  0  0  0  0  0  0
  -18.3067  -28.8452   21.0326 C   0  0  0  0  0  0  0  0  0  0  0  0
  -29.0204  -22.8316   20.3304 C   0  0  0  0  0  0  0  0  0  0  0  0
  -26.3199  -25.2616   27.9507 C   0  0  0  0  0  0  0  0  0  0  0  0
  -23.6275  -29.3735   23.6771 C   0  0  0  0  0  0  0  0  0  0  0  0
  -22.2844  -28.0551   21.3961 C   0  0  0  0  0  0  0  0  0  0  0  0
  -24.8989  -25.0705   27.4267 C   0  0  0  0  0  0  0  0  0  0  0  0
  -27.8894  -21.1417   23.3241 C   0  0  0  0  0  0  0  0  0  0  0  0
  -24.9217  -24.6786   25.9527 C   0  0  0  0  0  0  0  0  0  0  0  0
  -27.6458  -19.7252   22.8002 C   0  0  0  0  0  0  0  0  0  0  0  0
  -27.4901  -22.1899   22.2897 C   0  0  0  0  0  0  0  0  0  0  0  0
  -27.9120  -20.6176   20.4395 C   0  0  0  0  0  0  0  0  0  0  0  0
  -25.5643  -25.7786   25.0992 C   0  0  1  0  0  0  0  0  0  0  0  0
  -22.8200  -28.0912   23.8526 C   0  0  1  0  0  0  0  0  0  0  0  0
  -28.3170  -19.5113   21.4305 C   0  0  2  0  0  0  0  0  0  0  0  0
  -29.9447  -27.9607   16.2442 C   0  0  0  0  0  0  0  0  0  0  0  0
  -15.8368  -29.0575   20.6424 C   0  0  0  0  0  0  0  0  0  0  0  0
  -20.5159  -24.5590   21.9617 C   0  0  0  0  0  0  0  0  0  0  0  0
  -18.3981  -25.1659   20.7722 C   0  0  0  0  0  0  0  0  0  0  0  0
  -18.4776  -25.1919   23.2653 C   0  0  0  0  0  0  0  0  0  0  0  0
  -35.9924  -27.6817   19.8353 C   0  0  0  0  0  0  0  0  0  0  0  0
  -18.3825  -31.7802   21.4059 C   0  0  0  0  0  0  0  0  0  0  0  0
  -27.0974  -28.4333   16.6774 C   0  0  0  0  0  0  0  0  0  0  0  0
  -30.0598  -25.0846   20.3578 C   0  0  0  0  0  0  0  0  0  0  0  0
  -27.3397  -29.9322   16.8677 C   0  0  0  0  0  0  0  0  0  0  0  0
  -32.3323  -26.6848   19.2756 C   0  0  0  0  0  0  0  0  0  0  0  0
  -33.7905  -26.9525   18.9087 C   0  0  0  0  0  0  0  0  0  0  0  0
  -26.9016  -30.4460   18.2342 C   0  0  0  0  0  0  0  0  0  1  0  0
  -31.4266  -26.2880   18.0848 C   0  0  1  0  0  0  0  0  0  0  0  0
  -19.6767  -27.0007   21.9680 C   0  0  1  0  0  0  0  0  0  0  0  0
  -17.0594  -29.6637   21.3137 C   0  0  2  0  0  0  0  0  0  0  0  0
  -19.2908  -25.4946   21.9878 C   0  0  0  0  0  0  0  0  0  0  0  0
  -26.8624  -17.5384   21.1583 N   0  0  0  0  0  0  0  0  0  0  0  0
  -28.0383  -18.1257   20.8782 N   0  0  0  0  0  0  0  0  0  0  0  0
  -21.8336  -27.8942   22.7884 N   0  0  0  0  0  0  0  0  0  0  0  0
  -28.1777  -21.9403   21.0150 N   0  0  0  0  0  0  0  0  0  0  0  0
  -30.0822  -17.8053   19.7248 N   0  0  0  0  0  0  0  0  0  0  0  0
  -27.8229  -13.9778   18.9238 N   0  0  0  0  0  0  0  0  0  0  0  0
  -24.6312  -26.8646   24.8883 N   0  0  0  0  0  0  0  0  0  0  0  0
  -18.5372  -27.9102   22.0194 N   0  0  0  0  0  0  0  0  0  0  0  0
  -29.2146  -24.0655   20.9391 N   0  0  0  0  0  0  0  0  0  0  0  0
  -31.7251  -24.8438   17.7738 N   0  3  0  0  0  0  0  0  0  0  0  0
  -34.5730  -27.3248   20.1104 N   0  3  0  0  0  0  0  0  0  0  0  0
  -17.2295  -31.0563   20.8112 N   0  3  0  0  0  0  0  0  0  0  0  0
  -29.7894  -15.0939   18.5418 O   0  0  0  0  0  0  0  0  0  0  0  0
  -23.5007  -25.9748   23.0573 O   0  0  0  0  0  0  0  0  0  0  0  0
  -20.1656  -27.2333   24.2774 O   0  0  0  0  0  0  0  0  0  0  0  0
  -19.0045  -29.0157   20.0353 O   0  0  0  0  0  0  0  0  0  0  0  0
  -29.5644  -22.5469   19.2579 O   0  0  0  0  0  0  0  0  0  0  0  0
  -22.7221  -12.7156   20.7743 O   0  0  0  0  0  0  0  0  0  0  0  0
  -25.5075  -30.1872   18.3955 O   0  0  0  0  0  0  0  0  0  1  0  0
  -23.9467   -7.4283   21.7487 F   0  0  0  0  0  0  0  0  0  0  0  0
  -21.7128  -11.4116   22.9932 F   0  0  0  0  0  0  0  0  0  0  0  0
  1  2  1  0  0  0  0
  1  5  2  0  0  0  0
  2  6  2  0  0  0  0
  3 10  2  0  0  0  0
  3 17  1  0  0  0  0
  4 11  1  0  0  0  0
  4 17  2  0  0  0  0
  5 19  1  0  0  0  0
  6 21  1  0  0  0  0
  7 12  2  0  0  0  0
  7 20  1  0  0  0  0
  8  9  1  0  0  0  0
  8 23  2  0  0  0  0
  9 24  2  0  0  0  0
 10 27  1  0  0  0  0
 11 27  2  0  0  0  0
 12 28  1  0  0  0  0
 13 14  2  0  0  0  0
 13 29  1  0  0  0  0
 14 30  1  0  0  0  0
 15 22  1  0  0  0  0
 15 28  2  0  0  0  0
 16 30  2  0  0  0  0
 16 31  1  0  0  0  0
 17 32  1  0  0  0  0
 18 32  1  0  0  0  0
 18 33  2  0  0  0  0
 18 34  1  0  0  0  0
 19 21  2  0  0  0  0
 19 39  1  0  0  0  0
 20 22  2  0  0  0  0
 20 40  1  0  0  0  0
 21 48  1  0  0  0  0
 22 41  1  0  0  0  0
 23 25  1  0  0  0  0
 23 58  1  0  0  0  0
 24 26  1  0  0  0  0
 24 59  1  0  0  0  0
 25 26  2  0  0  0  0
 25 51  1  0  0  0  0
 26 64  1  0  0  0  0
 27 85  1  0  0  0  0
 28 86  1  0  0  0  0
 29 31  2  0  0  0  0
 29 85  1  0  0  0  0
 30 87  1  0  0  0  0
 31 88  1  0  0  0  0
 32 68  2  0  0  0  0
 33 69  1  0  0  0  0
 33 72  1  0  0  0  0
 34 73  1  0  0  0  0
 34 80  2  0  0  0  0
 35 49  1  0  0  0  0
 35 74  1  0  0  0  0
 35 81  2  0  0  0  0
 36 65  1  0  0  0  0
 36 70  1  0  0  0  0
 36 82  2  0  0  0  0
 37 66  1  0  0  0  0
 37 75  1  0  0  0  0
 37 83  2  0  0  0  0
 38 71  1  0  0  0  0
 38 76  1  0  0  0  0
 38 84  2  0  0  0  0
 39 42  1  0  0  0  0
 40 49  1  0  0  0  0
 41 70  1  0  0  0  0
 42 44  1  0  0  0  0
 43 45  1  0  0  0  0
 43 46  1  0  0  0  0
 44 48  1  0  0  0  0
 45 50  1  0  0  0  0
 46 71  1  0  0  0  0
 47 50  1  0  0  0  0
 47 71  1  0  0  0  0
 48 74  1  0  0  0  0
 49 70  1  0  0  0  0
 50 69  1  0  0  0  0
 52 66  1  0  0  0  0
 53 67  1  0  0  0  0
 54 67  1  0  0  0  0
 55 67  1  0  0  0  0
 56 78  1  0  0  0  0
 57 79  1  0  0  0  0
 58 60  1  0  0  0  0
 59 76  1  0  0  0  0
 60 63  1  0  0  0  0
 61 62  1  0  0  0  0
 61 64  1  0  0  0  0
 62 78  1  0  0  0  0
 63 86  1  0  0  0  0
 64 77  1  0  0  0  0
 65 67  1  0  0  0  0
 65 75  1  0  0  0  0
 66 79  1  0  0  0  0
 68 69  1  0  0  0  0
M  CHG  3  77   1  78   1  79   1
M  ISO  4  38 100  63 101  76 100  86 101
M  END
> <Batch ID>
0104

> <Smiles>
CNCCC(N)c1c(C[100NH:0][100C:0](=O)N2CCCC(n3nc(-c4ccc(Oc5ccc(F)cc5F)cc4)c(C(N)=O)c3N)C2)ccc(CC[101CH2:1][101O:1]c2ccc3c(c2)CN(C(=O)C(NC(=O)C(C)NC)C(C)(C)C)C(C(=O)NC2CCCc4ccccc42)C3)c1C

> <Shape>
0.250

> <Color>
0.051

> <Negative vol penalty>
0.000

$$$$

  -OEChem-04052319433D

 77 85  0     1  0  0  0  0  0999 V2000
  -25.2083  -20.1917   31.7237 C   0  0  0  0  0  0  0  0  0  0  0  0
  -25.7542  -19.8145   30.5010 C   0  0  0  0  0  0  0  0  0  0  0  0
  -23.1378   -9.8649   21.3923 C   0  0  0  0  0  0  0  0  0  0  0  0
  -23.9047  -10.7011   23.5253 C   0  0  0  0  0  0  0  0  0  0  0  0
  -23.8480  -20.0053   31.9657 C   0  0  0  0  0  0  0  0  0  0  0  0
  -24.9402  -19.2495   29.5199 C   0  0  0  0  0  0  0  0  0  0  0  0
  -25.8012  -21.1946   24.9242 C   0  0  0  0  0  0  0  0  0  0  0  0
  -22.4243   -8.8586   22.0433 C   0  0  0  0  0  0  0  0  0  0  0  0
  -23.1911   -9.6949   24.1763 C   0  0  0  0  0  0  0  0  0  0  0  0
  -26.9281  -20.7394   24.2411 C   0  0  0  0  0  0  0  0  0  0  0  0
  -20.6905   -5.8511   23.1263 C   0  0  0  0  0  0  0  0  0  0  0  0
  -20.7769   -4.5569   22.6134 C   0  0  0  0  0  0  0  0  0  0  0  0
  -25.5359  -19.2549   22.9460 C   0  0  0  0  0  0  0  0  0  0  0  0
  -23.1664   -4.5750   22.9702 C   0  0  0  0  0  0  0  0  0  0  0  0
  -23.8781  -10.7861   22.1332 C   0  0  0  0  0  0  0  0  0  0  0  0
  -24.1553  -13.1120   21.1227 C   0  0  0  0  0  0  0  0  0  0  0  0
  -23.0150  -19.4467   30.9836 C   0  0  0  0  0  0  0  0  0  0  0  0
  -24.5325  -20.6746   24.6304 C   0  0  0  0  0  0  0  0  0  0  0  0
  -23.5676  -19.0542   29.7495 C   0  0  0  0  0  0  0  0  0  0  0  0
  -24.3942  -19.7070   23.6250 C   0  0  0  0  0  0  0  0  0  0  0  0
  -22.4509   -8.7736   23.4353 C   0  0  0  0  0  0  0  0  0  0  0  0
  -26.7960  -19.7673   23.2538 C   0  0  0  0  0  0  0  0  0  0  0  0
  -21.8421   -6.5074   23.5612 C   0  0  0  0  0  0  0  0  0  0  0  0
  -22.0149   -3.9189   22.5353 C   0  0  0  0  0  0  0  0  0  0  0  0
  -23.0800   -5.8693   23.4831 C   0  0  0  0  0  0  0  0  0  0  0  0
  -24.6158  -11.8255   21.4613 C   0  0  0  0  0  0  0  0  0  0  0  0
  -25.2269  -13.7086   20.5045 C   0  0  0  0  0  0  0  0  0  0  0  0
  -22.8735  -13.7139   21.3470 C   0  0  0  0  0  0  0  0  0  0  0  0
  -22.3359  -19.0609   26.2659 C   0  0  0  0  0  0  0  0  0  0  0  0
  -20.5756  -19.4958   23.5761 C   0  0  0  0  0  0  0  0  0  0  0  0
  -20.5181  -20.0765   20.2136 C   0  0  0  0  0  0  0  0  0  0  0  0
  -30.5603  -14.8660   20.0735 C   0  0  0  0  0  0  0  0  0  0  0  0
  -21.5596  -19.2212   31.3086 C   0  0  0  0  0  0  0  0  0  0  0  0
  -23.3234  -21.1955   25.3578 C   0  0  0  0  0  0  0  0  0  0  0  0
  -23.0518  -19.1313   23.2577 C   0  0  0  0  0  0  0  0  0  0  0  0
  -20.6940  -18.9609   30.0785 C   0  0  0  0  0  0  0  0  0  0  0  0
  -29.5960  -11.7729   18.8665 C   0  0  0  0  0  0  0  0  0  0  0  0
  -21.3625  -17.9419   29.1611 C   0  0  0  0  0  0  0  0  0  0  0  0
  -28.1731  -11.6033   19.3988 C   0  0  0  0  0  0  0  0  0  0  0  0
  -30.2702  -18.3678   21.2480 C   0  0  0  0  0  0  0  0  0  0  0  0
  -29.3605  -16.8313   23.0257 C   0  0  0  0  0  0  0  0  0  0  0  0
  -30.5032  -12.3947   19.9221 C   0  0  0  0  0  0  0  0  0  0  0  0
  -31.0741  -17.2024   20.6783 C   0  0  0  0  0  0  0  0  0  0  0  0
  -30.1853  -15.6970   22.4264 C   0  0  0  0  0  0  0  0  0  0  0  0
  -28.5902  -13.5525   20.9784 C   0  0  0  0  0  0  0  0  0  0  0  0
  -22.7123  -18.4609   28.6510 C   0  0  1  0  0  0  0  0  0  0  0  0
  -22.1472  -20.2242   25.3337 C   0  0  1  0  0  0  0  0  0  0  0  0
  -30.0070  -18.1955   22.7495 C   0  0  0  0  0  0  0  0  0  0  0  0
  -27.6259  -12.9333   19.9467 C   0  0  2  0  0  0  0  0  0  0  0  0
  -18.9319  -20.3424   18.2873 C   0  0  0  0  0  0  0  0  0  0  0  0
  -20.1268  -16.4781   23.5323 C   0  0  0  0  0  0  0  0  0  0  0  0
  -19.3829  -16.6934   21.1514 C   0  0  0  0  0  0  0  0  0  0  0  0
  -18.1089  -17.8412   22.9631 C   0  0  0  0  0  0  0  0  0  0  0  0
  -21.4474  -22.8350   19.6786 C   0  0  0  0  0  0  0  0  0  0  0  0
  -29.1332  -19.3285   23.2823 C   0  0  0  0  0  0  0  0  0  1  0  0
  -20.3792  -18.7280   22.2912 C   0  0  1  0  0  0  0  0  0  0  0  0
  -19.7194  -21.0574   19.3743 C   0  0  2  0  0  0  0  0  0  0  0  0
  -19.5251  -17.4444   22.4925 C   0  0  0  0  0  0  0  0  0  0  0  0
  -25.8814  -11.6163   21.0889 N   0  0  0  0  0  0  0  0  0  0  0  0
  -26.2252  -12.7793   20.5098 N   0  0  0  0  0  0  0  0  0  0  0  0
  -21.9004  -19.6683   24.0017 N   0  0  0  0  0  0  0  0  0  0  0  0
  -29.9469  -13.6527   20.4201 N   0  0  0  0  0  0  0  0  0  0  0  0
  -30.4547  -15.9173   20.9992 N   0  0  0  0  0  0  0  0  0  0  0  0
  -25.4032  -14.9322   19.9622 N   0  0  0  0  0  0  0  0  0  0  0  0
  -21.8861  -12.9606   21.9965 N   0  0  0  0  0  0  0  0  0  0  0  0
  -22.5150  -19.4224   27.5875 N   0  0  0  0  0  0  0  0  0  0  0  0
  -19.8193  -19.6739   21.3320 N   0  0  0  0  0  0  0  0  0  0  0  0
  -20.6284  -22.0435   18.7247 N   0  3  0  0  0  0  0  0  0  0  0  0
  -22.6062  -14.8793   20.9677 O   0  0  0  0  0  0  0  0  0  0  0  0
  -22.3187  -17.9199   25.8193 O   0  0  0  0  0  0  0  0  0  0  0  0
  -19.5904  -19.9327   24.1762 O   0  0  0  0  0  0  0  0  0  0  0  0
  -21.6475  -19.7020   19.9058 O   0  0  0  0  0  0  0  0  0  0  0  0
  -31.1622  -15.0058   19.0015 O   0  0  0  0  0  0  0  0  0  0  0  0
  -21.7545   -7.7919   24.0709 O   0  0  0  0  0  0  0  0  0  0  0  0
  -27.9044  -19.3167   22.5798 O   0  0  0  0  0  0  0  0  0  1  0  0
  -22.0975   -2.6755   22.0441 F   0  0  0  0  0  0  0  0  0  0  0  0
  -24.1896   -6.4942   23.9004 F   0  0  0  0  0  0  0  0  0  0  0  0
  1  2  1  0  0  0  0
  1  5  2  0  0  0  0
  2  6  2  0  0  0  0
  3  8  2  0  0  0  0
  3 15  1  0  0  0  0
  4  9  1  0  0  0  0
  4 15  2  0  0  0  0
  5 17  1  0  0  0  0
  6 19  1  0  0  0  0
  7 10  2  0  0  0  0
  7 18  1  0  0  0  0
  8 21  1  0  0  0  0
  9 21  2  0  0  0  0
 10 22  1  0  0  0  0
 11 12  2  0  0  0  0
 11 23  1  0  0  0  0
 12 24  1  0  0  0  0
 13 20  1  0  0  0  0
 13 22  2  0  0  0  0
 14 24  2  0  0  0  0
 14 25  1  0  0  0  0
 15 26  1  0  0  0  0
 16 26  1  0  0  0  0
 16 27  2  0  0  0  0
 16 28  1  0  0  0  0
 17 19  2  0  0  0  0
 17 33  1  0  0  0  0
 18 20  2  0  0  0  0
 18 34  1  0  0  0  0
 19 46  1  0  0  0  0
 20 35  1  0  0  0  0
 21 74  1  0  0  0  0
 22 75  1  0  0  0  0
 23 25  2  0  0  0  0
 23 74  1  0  0  0  0
 24 76  1  0  0  0  0
 25 77  1  0  0  0  0
 26 59  2  0  0  0  0
 27 60  1  0  0  0  0
 27 64  1  0  0  0  0
 28 65  1  0  0  0  0
 28 69  2  0  0  0  0
 29 47  1  0  0  0  0
 29 66  1  0  0  0  0
 29 70  2  0  0  0  0
 30 56  1  0  0  0  0
 30 61  1  0  0  0  0
 30 71  2  0  0  0  0
 31 57  1  0  0  0  0
 31 67  1  0  0  0  0
 31 72  2  0  0  0  0
 32 62  1  0  0  0  0
 32 63  1  0  0  0  0
 32 73  2  0  0  0  0
 33 36  1  0  0  0  0
 34 47  1  0  0  0  0
 35 61  1  0  0  0  0
 36 38  1  0  0  0  0
 37 39  1  0  0  0  0
 37 42  1  0  0  0  0
 38 46  1  0  0  0  0
 39 49  1  0  0  0  0
 40 43  1  0  0  0  0
 40 48  1  0  0  0  0
 41 44  1  0  0  0  0
 41 48  1  0  0  0  0
 42 62  1  0  0  0  0
 43 63  1  0  0  0  0
 44 63  1  0  0  0  0
 45 49  1  0  0  0  0
 45 62  1  0  0  0  0
 46 66  1  0  0  0  0
 47 61  1  0  0  0  0
 48 55  1  0  0  0  0
 49 60  1  0  0  0  0
 50 57  1  0  0  0  0
 51 58  1  0  0  0  0
 52 58  1  0  0  0  0
 53 58  1  0  0  0  0
 54 68  1  0  0  0  0
 55 75  1  0  0  0  0
 56 58  1  0  0  0  0
 56 67  1  0  0  0  0
 57 68  1  0  0  0  0
 59 60  1  0  0  0  0
M  CHG  1  68   1
M  ISO  4  32 100  55 101  63 100  75 101
M  END
> <Batch ID>
0104

> <Smiles>
CNC(C)C(=O)NC(C(=O)N1Cc2cc([101O:1][101CH2:1]C3CC[100N:0]([100C:0](=O)N4CCCC(n5nc(-c6ccc(Oc7ccc(F)cc7F)cc6)c(C(N)=O)c5N)C4)CC3)ccc2CC1C(=O)NC1CCCc2ccccc21)C(C)(C)C

> <Shape>
0.164

> <Color>
0.146

> <Negative vol penalty>
0.000

$$$$

  -OEChem-04052319433D

 84 92  0     1  0  0  0  0  0999 V2000
  -16.7885  -28.7668   24.0297 C   0  0  0  0  0  0  0  0  0  0  0  0
  -17.9072  -29.4062   23.5051 C   0  0  0  0  0  0  0  0  0  0  0  0
  -26.6112  -12.6059   21.7337 C   0  0  0  0  0  0  0  0  0  0  0  0
  -26.1509  -13.9198   19.7592 C   0  0  0  0  0  0  0  0  0  0  0  0
  -16.8806  -27.4434   24.4587 C   0  0  0  0  0  0  0  0  0  0  0  0
  -19.1190  -28.7228   23.4102 C   0  0  0  0  0  0  0  0  0  0  0  0
  -24.9705  -28.2776   19.3019 C   0  0  0  0  0  0  0  0  0  0  0  0
  -25.3062  -12.1138   21.7106 C   0  0  0  0  0  0  0  0  0  0  0  0
  -24.8459  -13.4277   19.7360 C   0  0  0  0  0  0  0  0  0  0  0  0
  -26.3605  -28.3233   19.3988 C   0  0  0  0  0  0  0  0  0  0  0  0
  -23.5571   -9.7715   20.0116 C   0  0  0  0  0  0  0  0  0  0  0  0
  -23.3768   -8.4026   20.2094 C   0  0  0  0  0  0  0  0  0  0  0  0
  -26.3816  -26.0146   20.0978 C   0  0  0  0  0  0  0  0  0  0  0  0
  -29.7816  -21.4970   18.5465 C   0  0  0  0  0  0  0  0  0  0  0  0
  -22.0243   -8.8622   22.1578 C   0  0  0  0  0  0  0  0  0  0  0  0
  -30.8969  -22.5558   20.1912 C   0  0  0  0  0  0  0  0  0  0  0  0
  -27.0335  -13.5089   20.7581 C   0  0  0  0  0  0  0  0  0  0  0  0
  -29.5105  -13.4639   20.1496 C   0  0  0  0  0  0  0  0  0  0  0  0
  -18.0917  -26.7404   24.3601 C   0  0  0  0  0  0  0  0  0  0  0  0
  -24.2735  -27.1013   19.6132 C   0  0  0  0  0  0  0  0  0  0  0  0
  -19.2277  -27.3891   23.8395 C   0  0  0  0  0  0  0  0  0  0  0  0
  -24.9829  -25.9558   20.0016 C   0  0  0  0  0  0  0  0  0  0  0  0
  -30.2965  -21.3614   19.8593 C   0  0  0  0  0  0  0  0  0  0  0  0
  -24.4236  -12.5247   20.7117 C   0  0  0  0  0  0  0  0  0  0  0  0
  -27.0661  -27.1925   19.7996 C   0  0  0  0  0  0  0  0  0  0  0  0
  -22.9710  -10.6858   20.8869 C   0  0  0  0  0  0  0  0  0  0  0  0
  -22.6104   -7.9479   21.2825 C   0  0  0  0  0  0  0  0  0  0  0  0
  -22.2045  -10.2312   21.9600 C   0  0  0  0  0  0  0  0  0  0  0  0
  -28.3812  -14.0180   20.7818 C   0  0  0  0  0  0  0  0  0  0  0  0
  -30.0833  -22.7702   18.1159 C   0  0  0  0  0  0  0  0  0  0  0  0
  -30.5383  -14.3148   20.4752 C   0  0  0  0  0  0  0  0  0  0  0  0
  -29.6205  -12.2855   19.3404 C   0  0  0  0  0  0  0  0  0  0  0  0
  -22.0930  -26.2928   21.7801 C   0  0  0  0  0  0  0  0  0  0  0  0
  -22.0522  -23.5015   20.1281 C   0  0  0  0  0  0  0  0  0  0  0  0
  -23.6836  -21.3400   18.0512 C   0  0  0  0  0  0  0  0  0  0  0  0
  -30.7307  -20.0914   21.9913 C   0  0  0  0  0  0  0  0  0  0  0  0
  -18.1546  -25.3262   24.8806 C   0  0  0  0  0  0  0  0  0  0  0  0
  -22.7760  -27.0605   19.4779 C   0  0  0  0  0  0  0  0  0  0  0  0
  -24.2834  -24.6624   20.3274 C   0  0  0  0  0  0  0  0  0  0  0  0
  -19.3802  -24.5539   24.3991 C   0  0  0  0  0  0  0  0  0  0  0  0
  -31.9464  -17.3461   23.9050 C   0  0  0  0  0  0  0  0  0  0  0  0
  -20.6390  -25.4021   24.5504 C   0  0  0  0  0  0  0  0  0  0  0  0
  -31.2776  -16.1301   23.2598 C   0  0  0  0  0  0  0  0  0  0  0  0
  -31.0180  -18.5591   23.9263 C   0  0  0  0  0  0  0  0  0  0  0  0
  -29.7709  -17.7052   21.9809 C   0  0  0  0  0  0  0  0  0  0  0  0
  -20.5535  -26.6735   23.6974 C   0  0  1  0  0  0  0  0  0  0  0  0
  -22.1302  -25.9608   20.3151 C   0  0  1  0  0  0  0  0  0  0  0  0
  -30.6901  -16.4771   21.8778 C   0  0  2  0  0  0  0  0  0  0  0  0
  -29.7812  -23.4323   16.8304 C   0  0  0  0  0  0  0  0  0  0  0  0
  -23.4100  -19.1244   16.9051 C   0  0  0  0  0  0  0  0  0  0  0  0
  -22.5605  -22.0721   22.7754 C   0  0  0  0  0  0  0  0  0  0  0  0
  -23.2147  -20.0375   21.4713 C   0  0  0  0  0  0  0  0  0  0  0  0
  -20.8989  -20.9457   21.2839 C   0  0  0  0  0  0  0  0  0  0  0  0
  -31.3829  -27.1324   20.0502 C   0  0  0  0  0  0  0  0  0  0  0  0
  -30.0758  -25.3931   21.2511 C   0  0  0  0  0  0  0  0  0  0  0  0
  -23.9434  -22.5642   15.3692 C   0  0  0  0  0  0  0  0  0  0  0  0
  -31.2871  -24.8219   19.0841 C   0  0  0  0  0  0  0  0  0  0  0  0
  -29.4156  -27.0110   17.7308 C   0  0  0  0  0  0  0  0  0  0  0  0
  -22.8129  -22.2000   20.2091 C   0  0  1  0  0  0  0  0  0  0  0  0
  -23.2389  -20.6307   16.7849 C   0  0  2  0  0  0  0  0  0  0  0  0
  -29.1603  -26.3274   19.0773 C   0  0  1  0  0  0  0  0  0  1  0  0
  -22.3851  -21.3386   21.4307 C   0  0  0  0  0  0  0  0  0  0  0  0
  -30.4590  -25.9078   19.8428 C   0  0  0  0  0  0  0  0  0  0  0  0
  -28.6647  -15.1344   21.4580 N   0  0  0  0  0  0  0  0  0  0  0  0
  -30.7615  -23.4046   19.1237 N   0  0  0  0  0  0  0  0  0  0  0  0
  -29.9839  -15.2887   21.2526 N   0  0  0  0  0  0  0  0  0  0  0  0
  -22.8180  -24.6746   20.1861 N   0  0  0  0  0  0  0  0  0  0  0  0
  -30.5032  -18.8307   22.5824 N   0  0  0  0  0  0  0  0  0  0  0  0
  -31.8532  -14.3175   20.1695 N   0  0  0  0  0  0  0  0  0  0  0  0
  -28.4661  -11.5263   19.1052 N   0  0  0  0  0  0  0  0  0  0  0  0
  -30.2230  -20.2225   20.6991 N   0  0  0  0  0  0  0  0  0  0  0  0
  -20.8180  -26.3684   22.3076 N   0  0  0  0  0  0  0  0  0  0  0  0
  -22.6322  -21.5406   18.9203 N   0  0  0  0  0  0  0  0  0  0  0  0
  -28.1668  -26.9908   16.9210 N   0  3  0  0  0  0  0  0  0  0  0  0
  -24.0380  -21.1028   15.6188 N   0  3  0  0  0  0  0  0  0  0  0  0
  -30.7134  -11.9076   18.8542 O   0  0  0  0  0  0  0  0  0  0  0  0
  -23.1432  -26.4660   22.3872 O   0  0  0  0  0  0  0  0  0  0  0  0
  -20.8246  -23.4781   20.0101 O   0  0  0  0  0  0  0  0  0  0  0  0
  -24.8481  -21.6787   18.2511 O   0  0  0  0  0  0  0  0  0  0  0  0
  -31.3553  -20.9796   22.5769 O   0  0  0  0  0  0  0  0  0  0  0  0
  -23.1502  -12.0446   20.6887 O   0  0  0  0  0  0  0  0  0  0  0  0
  -28.4229  -27.2345   19.8956 O   0  0  0  0  0  0  0  0  0  1  0  0
  -22.4362   -6.6334   21.4715 F   0  0  0  0  0  0  0  0  0  0  0  0
  -21.6380  -11.1048   22.8036 F   0  0  0  0  0  0  0  0  0  0  0  0
  1  2  1  0  0  0  0
  1  5  2  0  0  0  0
  2  6  2  0  0  0  0
  3  8  2  0  0  0  0
  3 17  1  0  0  0  0
  4  9  1  0  0  0  0
  4 17  2  0  0  0  0
  5 19  1  0  0  0  0
  6 21  1  0  0  0  0
  7 10  2  0  0  0  0
  7 20  1  0  0  0  0
  8 24  1  0  0  0  0
  9 24  2  0  0  0  0
 10 25  1  0  0  0  0
 11 12  2  0  0  0  0
 11 26  1  0  0  0  0
 12 27  1  0  0  0  0
 13 22  1  0  0  0  0
 13 25  2  0  0  0  0
 14 23  1  0  0  0  0
 14 30  2  0  0  0  0
 15 27  2  0  0  0  0
 15 28  1  0  0  0  0
 16 23  2  0  0  0  0
 16 65  1  0  0  0  0
 17 29  1  0  0  0  0
 18 29  1  0  0  0  0
 18 31  2  0  0  0  0
 18 32  1  0  0  0  0
 19 21  2  0  0  0  0
 19 37  1  0  0  0  0
 20 22  2  0  0  0  0
 20 38  1  0  0  0  0
 21 46  1  0  0  0  0
 22 39  1  0  0  0  0
 23 71  1  0  0  0  0
 24 81  1  0  0  0  0
 25 82  1  0  0  0  0
 26 28  2  0  0  0  0
 26 81  1  0  0  0  0
 27 83  1  0  0  0  0
 28 84  1  0  0  0  0
 29 64  2  0  0  0  0
 30 49  1  0  0  0  0
 30 65  1  0  0  0  0
 31 66  1  0  0  0  0
 31 69  1  0  0  0  0
 32 70  1  0  0  0  0
 32 76  2  0  0  0  0
 33 47  1  0  0  0  0
 33 72  1  0  0  0  0
 33 77  2  0  0  0  0
 34 59  1  0  0  0  0
 34 67  1  0  0  0  0
 34 78  2  0  0  0  0
 35 60  1  0  0  0  0
 35 73  1  0  0  0  0
 35 79  2  0  0  0  0
 36 68  1  0  0  0  0
 36 71  1  0  0  0  0
 36 80  2  0  0  0  0
 37 40  1  0  0  0  0
 38 47  1  0  0  0  0
 39 67  1  0  0  0  0
 40 42  1  0  0  0  0
 41 43  1  0  0  0  0
 41 44  1  0  0  0  0
 42 46  1  0  0  0  0
 43 48  1  0  0  0  0
 44 68  1  0  0  0  0
 45 48  1  0  0  0  0
 45 68  1  0  0  0  0
 46 72  1  0  0  0  0
 47 67  1  0  0  0  0
 48 66  1  0  0  0  0
 50 60  1  0  0  0  0
 51 62  1  0  0  0  0
 52 62  1  0  0  0  0
 53 62  1  0  0  0  0
 54 63  1  0  0  0  0
 55 63  1  0  0  0  0
 56 75  1  0  0  0  0
 57 63  1  0  0  0  0
 57 65  1  0  0  0  0
 58 61  1  0  0  0  0
 58 74  1  0  0  0  0
 59 62  1  0  0  0  0
 59 73  1  0  0  0  0
 60 75  1  0  0  0  0
 61 63  1  0  0  0  0
 61 82  1  0  0  0  0
 64 66  1  0  0  0  0
M  CHG  2  74   1  75   1
M  ISO  4  36 100  61 101  71 100  82 101
M  END
> <Batch ID>
0104

> <Smiles>
CNC(C)C(=O)NC(C(=O)N1Cc2cc([101O:1][101CH:1](CN)C(C)(C)Cn3cc([100NH:0][100C:0](=O)N4CCCC(n5nc(-c6ccc(Oc7ccc(F)cc7F)cc6)c(C(N)=O)c5N)C4)cc3C)ccc2CC1C(=O)NC1CCCc2ccccc21)C(C)(C)C

> <Shape>
0.273

> <Color>
0.067

> <Negative vol penalty>
0.000

$$$$

  -OEChem-04052319433D

 80 87  0     1  0  0  0  0  0999 V2000
  -27.8546  -34.8555   23.6635 C   0  0  0  0  0  0  0  0  0  0  0  0
  -28.0851  -33.5162   23.3660 C   0  0  0  0  0  0  0  0  0  0  0  0
  -26.2510  -15.4290   21.1544 C   0  0  0  0  0  0  0  0  0  0  0  0
  -27.1968  -15.1136   18.9537 C   0  0  0  0  0  0  0  0  0  0  0  0
  -26.6075  -35.2579   24.1397 C   0  0  0  0  0  0  0  0  0  0  0  0
  -27.0690  -32.5783   23.5455 C   0  0  0  0  0  0  0  0  0  0  0  0
  -26.6673  -29.3776   19.6418 C   0  0  0  0  0  0  0  0  0  0  0  0
  -26.0527  -14.0529   21.2665 C   0  0  0  0  0  0  0  0  0  0  0  0
  -26.9986  -13.7374   19.0658 C   0  0  0  0  0  0  0  0  0  0  0  0
  -27.5992  -28.3432   19.5680 C   0  0  0  0  0  0  0  0  0  0  0  0
  -27.9126  -11.3171   21.9661 C   0  0  0  0  0  0  0  0  0  0  0  0
  -28.2745  -10.7057   23.1664 C   0  0  0  0  0  0  0  0  0  0  0  0
  -25.9765  -26.8229   20.5035 C   0  0  0  0  0  0  0  0  0  0  0  0
  -25.9935   -9.9745   23.4817 C   0  0  0  0  0  0  0  0  0  0  0  0
  -26.8230  -15.9594   19.9980 C   0  0  0  0  0  0  0  0  0  0  0  0
  -28.1683  -18.1101   20.2670 C   0  0  0  0  0  0  0  0  0  0  0  0
  -25.5725  -34.3260   24.3160 C   0  0  0  0  0  0  0  0  0  0  0  0
  -25.3845  -29.1446   20.1579 C   0  0  0  0  0  0  0  0  0  0  0  0
  -25.8073  -32.9684   24.0258 C   0  0  0  0  0  0  0  0  0  0  0  0
  -25.0294  -27.8555   20.5803 C   0  0  0  0  0  0  0  0  0  0  0  0
  -26.4265  -13.2071   20.2222 C   0  0  0  0  0  0  0  0  0  0  0  0
  -27.2548  -27.0663   20.0016 C   0  0  0  0  0  0  0  0  0  0  0  0
  -26.5910  -11.2573   21.5236 C   0  0  0  0  0  0  0  0  0  0  0  0
  -27.3150  -10.0343   23.9242 C   0  0  0  0  0  0  0  0  0  0  0  0
  -25.6315  -10.5860   22.2814 C   0  0  0  0  0  0  0  0  0  0  0  0
  -27.0275  -17.3809   19.8814 C   0  0  0  0  0  0  0  0  0  0  0  0
  -27.8670  -19.4121   19.9499 C   0  0  0  0  0  0  0  0  0  0  0  0
  -29.3911  -17.6515   20.8587 C   0  0  0  0  0  0  0  0  0  0  0  0
  -23.7324  -30.2422   22.6417 C   0  0  0  0  0  0  0  0  0  0  0  0
  -21.3332  -28.5082   21.3154 C   0  0  0  0  0  0  0  0  0  0  0  0
  -20.4042  -25.9122   19.3043 C   0  0  0  0  0  0  0  0  0  0  0  0
  -25.0765  -22.5015   15.9271 C   0  0  0  0  0  0  0  0  0  0  0  0
  -24.2560  -34.8010   24.8781 C   0  0  0  0  0  0  0  0  0  0  0  0
  -24.3821  -30.2650   20.2059 C   0  0  0  0  0  0  0  0  0  0  0  0
  -23.6587  -27.5485   21.1236 C   0  0  0  0  0  0  0  0  0  0  0  0
  -23.1162  -33.8040   24.6852 C   0  0  0  0  0  0  0  0  0  0  0  0
  -23.6850  -21.9258   19.1534 C   0  0  0  0  0  0  0  0  0  0  0  0
  -23.5652  -32.3984   25.0718 C   0  0  0  0  0  0  0  0  0  0  0  0
  -24.5111  -20.7629   19.7058 C   0  0  0  0  0  0  0  0  0  0  0  0
  -23.4480  -21.7862   17.6512 C   0  0  0  0  0  0  0  0  0  0  0  0
  -25.4959  -20.4386   17.3985 C   0  0  0  0  0  0  0  0  0  0  0  0
  -24.7225  -31.9252   24.1839 C   0  0  1  0  0  0  0  0  0  0  0  0
  -23.2729  -30.0310   21.2268 C   0  0  1  0  0  0  0  0  0  0  0  0
  -25.8086  -20.5639   18.8995 C   0  0  2  0  0  0  0  0  0  0  0  0
  -18.3728  -24.7166   18.4432 C   0  0  0  0  0  0  0  0  0  0  0  0
  -30.1892  -23.9599   19.6553 C   0  0  0  0  0  0  0  0  0  0  0  0
  -20.9935  -27.1412   24.0221 C   0  0  0  0  0  0  0  0  0  0  0  0
  -19.6627  -25.3571   22.8758 C   0  0  0  0  0  0  0  0  0  0  0  0
  -18.8508  -27.7158   22.8673 C   0  0  0  0  0  0  0  0  0  0  0  0
  -21.0705  -26.5609   16.4946 C   0  0  0  0  0  0  0  0  0  0  0  0
  -30.5578  -25.4791   14.8730 C   0  0  0  0  0  0  0  0  0  0  0  0
  -27.6542  -24.2531   14.7827 C   0  0  0  0  0  0  0  0  0  0  0  0
  -26.8081  -23.1004   14.2531 C   0  0  0  0  0  0  0  0  0  0  0  0
  -28.8798  -23.7666   15.5455 C   0  0  0  0  0  0  0  0  0  0  0  0
  -30.4514  -24.7007   17.2362 C   0  0  0  0  0  0  0  0  0  0  0  0
  -29.1304  -26.1224   18.8848 C   0  0  0  0  0  0  0  0  0  1  0  0
  -20.8440  -27.0859   21.4452 C   0  0  1  0  0  0  0  0  0  0  0  0
  -19.3848  -25.8215   18.1830 C   0  0  2  0  0  0  0  0  0  0  0  0
  -29.5515  -24.7050   18.4773 C   0  0  2  0  0  0  0  0  0  0  0  0
  -20.1143  -26.8309   22.7942 C   0  0  0  0  0  0  0  0  0  0  0  0
  -26.0726  -18.1554   19.3595 N   0  0  0  0  0  0  0  0  0  0  0  0
  -26.6127  -19.3847   19.4149 N   0  0  0  0  0  0  0  0  0  0  0  0
  -22.7157  -28.6787   21.1562 N   0  0  0  0  0  0  0  0  0  0  0  0
  -24.7180  -21.6020   16.9447 N   0  0  0  0  0  0  0  0  0  0  0  0
  -28.5552  -20.5662   20.0795 N   0  0  0  0  0  0  0  0  0  0  0  0
  -29.5354  -16.2817   21.1179 N   0  0  0  0  0  0  0  0  0  0  0  0
  -24.2283  -31.5081   22.8892 N   0  0  0  0  0  0  0  0  0  0  0  0
  -20.0264  -26.8262   20.2651 N   0  0  0  0  0  0  0  0  0  0  0  0
  -26.2991  -22.2587   15.3129 N   0  0  0  0  0  0  0  0  0  0  0  0
  -20.0644  -25.5406   16.8867 N   0  3  0  0  0  0  0  0  0  0  0  0
  -29.6879  -24.9609   15.9926 N   0  3  1  0  0  0  0  0  0  0  0  0
  -30.3215  -18.4354   21.1642 O   0  0  0  0  0  0  0  0  0  0  0  0
  -23.6423  -29.3252   23.4495 O   0  0  0  0  0  0  0  0  0  0  0  0
  -20.5179  -29.4333   21.3468 O   0  0  0  0  0  0  0  0  0  0  0  0
  -21.4308  -25.2369   19.3274 O   0  0  0  0  0  0  0  0  0  0  0  0
  -24.3627  -23.4537   15.5945 O   0  0  0  0  0  0  0  0  0  0  0  0
  -26.2335  -11.8642   20.3313 O   0  0  0  0  0  0  0  0  0  0  0  0
  -28.1626  -26.0550   19.9314 O   0  0  0  0  0  0  0  0  0  1  0  0
  -27.6630   -9.4459   25.0760 F   0  0  0  0  0  0  0  0  0  0  0  0
  -24.3607  -10.5241   21.8608 F   0  0  0  0  0  0  0  0  0  0  0  0
  1  2  1  0  0  0  0
  1  5  2  0  0  0  0
  2  6  2  0  0  0  0
  3  8  2  0  0  0  0
  3 15  1  0  0  0  0
  4  9  1  0  0  0  0
  4 15  2  0  0  0  0
  5 17  1  0  0  0  0
  6 19  1  0  0  0  0
  7 10  2  0  0  0  0
  7 18  1  0  0  0  0
  8 21  1  0  0  0  0
  9 21  2  0  0  0  0
 10 22  1  0  0  0  0
 11 12  2  0  0  0  0
 11 23  1  0  0  0  0
 12 24  1  0  0  0  0
 13 20  1  0  0  0  0
 13 22  2  0  0  0  0
 14 24  2  0  0  0  0
 14 25  1  0  0  0  0
 15 26  1  0  0  0  0
 16 26  1  0  0  0  0
 16 27  2  0  0  0  0
 16 28  1  0  0  0  0
 17 19  2  0  0  0  0
 17 33  1  0  0  0  0
 18 20  2  0  0  0  0
 18 34  1  0  0  0  0
 19 42  1  0  0  0  0
 20 35  1  0  0  0  0
 21 77  1  0  0  0  0
 22 78  1  0  0  0  0
 23 25  2  0  0  0  0
 23 77  1  0  0  0  0
 24 79  1  0  0  0  0
 25 80  1  0  0  0  0
 26 61  2  0  0  0  0
 27 62  1  0  0  0  0
 27 65  1  0  0  0  0
 28 66  1  0  0  0  0
 28 72  2  0  0  0  0
 29 43  1  0  0  0  0
 29 67  1  0  0  0  0
 29 73  2  0  0  0  0
 30 57  1  0  0  0  0
 30 63  1  0  0  0  0
 30 74  2  0  0  0  0
 31 58  1  0  0  0  0
 31 68  1  0  0  0  0
 31 75  2  0  0  0  0
 32 64  1  0  0  0  0
 32 69  1  0  0  0  0
 32 76  2  0  0  0  0
 33 36  1  0  0  0  0
 34 43  1  0  0  0  0
 35 63  1  0  0  0  0
 36 38  1  0  0  0  0
 37 39  1  0  0  0  0
 37 40  1  0  0  0  0
 38 42  1  0  0  0  0
 39 44  1  0  0  0  0
 40 64  1  0  0  0  0
 41 44  1  0  0  0  0
 41 64  1  0  0  0  0
 42 67  1  0  0  0  0
 43 63  1  0  0  0  0
 44 62  1  0  0  0  0
 45 58  1  0  0  0  0
 46 59  1  0  0  0  0
 47 60  1  0  0  0  0
 48 60  1  0  0  0  0
 49 60  1  0  0  0  0
 50 70  1  0  0  0  0
 51 71  1  0  0  0  0
 52 53  1  0  0  0  0
 52 54  1  0  0  0  0
 53 69  1  0  0  0  0
 54 71  1  0  0  0  0
 55 59  1  0  0  0  0
 55 71  1  0  0  0  0
 56 59  1  0  0  0  0
 56 78  1  0  0  0  0
 57 60  1  0  0  0  0
 57 68  1  0  0  0  0
 58 70  1  0  0  0  0
 61 62  1  0  0  0  0
M  CHG  2  70   1  71   1
M  ISO  4  32 100  56 101  69 100  78 101
M  END
> <Batch ID>
0104

> <Smiles>
CNC(C)C(=O)NC(C(=O)N1Cc2cc([101O:1][101CH2:1]C(C)CN(C)CCC[100NH:0][100C:0](=O)N3CCCC(n4nc(-c5ccc(Oc6ccc(F)cc6F)cc5)c(C(N)=O)c4N)C3)ccc2CC1C(=O)NC1CCCc2ccccc21)C(C)(C)C

> <Shape>
0.264

> <Color>
0.074

> <Negative vol penalty>
0.000

$$$$

  -OEChem-04052319433D

 77 85  0     1  0  0  0  0  0999 V2000
  -25.5318  -30.7932   28.0607 C   0  0  0  0  0  0  0  0  0  0  0  0
  -25.3487  -29.4204   27.9293 C   0  0  0  0  0  0  0  0  0  0  0  0
  -22.6376  -10.2137   20.2313 C   0  0  0  0  0  0  0  0  0  0  0  0
  -24.2448   -9.5173   21.8953 C   0  0  0  0  0  0  0  0  0  0  0  0
  -25.7423  -31.5788   26.9283 C   0  0  0  0  0  0  0  0  0  0  0  0
  -25.3751  -28.8325   26.6651 C   0  0  0  0  0  0  0  0  0  0  0  0
  -30.1238  -23.6520   25.0829 C   0  0  0  0  0  0  0  0  0  0  0  0
  -21.8911   -9.0598   20.4692 C   0  0  0  0  0  0  0  0  0  0  0  0
  -23.4982   -8.3633   22.1333 C   0  0  0  0  0  0  0  0  0  0  0  0
  -30.8609  -22.5100   24.7688 C   0  0  0  0  0  0  0  0  0  0  0  0
  -23.0345   -5.3504   20.6710 C   0  0  0  0  0  0  0  0  0  0  0  0
  -23.7231   -4.1412   20.7660 C   0  0  0  0  0  0  0  0  0  0  0  0
  -29.9672  -22.5381   22.5220 C   0  0  0  0  0  0  0  0  0  0  0  0
  -22.8965   -3.8472   23.0171 C   0  0  0  0  0  0  0  0  0  0  0  0
  -23.8145  -10.4425   20.9443 C   0  0  0  0  0  0  0  0  0  0  0  0
  -24.1629  -12.9679   20.8515 C   0  0  0  0  0  0  0  0  0  0  0  0
  -25.7809  -30.9989   25.6504 C   0  0  0  0  0  0  0  0  0  0  0  0
  -29.3165  -24.2510   24.1120 C   0  0  0  0  0  0  0  0  0  0  0  0
  -25.5850  -29.6112   25.5144 C   0  0  0  0  0  0  0  0  0  0  0  0
  -29.2362  -23.6893   22.8271 C   0  0  0  0  0  0  0  0  0  0  0  0
  -22.3214   -8.1345   21.4203 C   0  0  0  0  0  0  0  0  0  0  0  0
  -30.7826  -21.9543   23.4916 C   0  0  0  0  0  0  0  0  0  0  0  0
  -22.2768   -5.8081   21.7491 C   0  0  0  0  0  0  0  0  0  0  0  0
  -23.6541   -3.3895   21.9390 C   0  0  0  0  0  0  0  0  0  0  0  0
  -22.2078   -5.0565   22.9221 C   0  0  0  0  0  0  0  0  0  0  0  0
  -24.5864  -11.6341   20.6985 C   0  0  0  0  0  0  0  0  0  0  0  0
  -25.2565  -13.7184   20.4949 C   0  0  0  0  0  0  0  0  0  0  0  0
  -22.8944  -13.4824   21.2780 C   0  0  0  0  0  0  0  0  0  0  0  0
  -26.9542  -27.0346   23.2475 C   0  0  0  0  0  0  0  0  0  0  0  0
  -28.7887  -26.6369   20.8212 C   0  0  0  0  0  0  0  0  0  0  0  0
  -30.6881  -27.0179   18.0133 C   0  0  0  0  0  0  0  0  0  0  0  0
  -30.7432  -14.7207   20.6863 C   0  0  0  0  0  0  0  0  0  0  0  0
  -25.9644  -31.8954   24.4516 C   0  0  0  0  0  0  0  0  0  0  0  0
  -28.4576  -25.4463   24.4239 C   0  0  0  0  0  0  0  0  0  0  0  0
  -28.3279  -24.3476   21.8248 C   0  0  0  0  0  0  0  0  0  0  0  0
  -26.3516  -31.1424   23.1814 C   0  0  0  0  0  0  0  0  0  0  0  0
  -29.5958  -12.3656   18.2752 C   0  0  0  0  0  0  0  0  0  0  0  0
  -25.4643  -29.9155   22.9967 C   0  0  0  0  0  0  0  0  0  0  0  0
  -28.1582  -12.0710   18.7070 C   0  0  0  0  0  0  0  0  0  0  0  0
  -30.3911  -17.2576   23.3611 C   0  0  0  0  0  0  0  0  0  0  0  0
  -30.5468  -17.9767   20.9392 C   0  0  0  0  0  0  0  0  0  0  0  0
  -31.0508  -18.5662   23.7878 C   0  0  0  0  0  0  0  0  0  0  0  0
  -31.2050  -19.2835   21.3735 C   0  0  0  0  0  0  0  0  0  0  0  0
  -30.5153  -12.5708   19.4770 C   0  0  0  0  0  0  0  0  0  0  0  0
  -28.6175  -13.2917   20.8744 C   0  0  0  0  0  0  0  0  0  0  0  0
  -25.6316  -28.9331   24.1623 C   0  0  1  0  0  0  0  0  0  0  0  0
  -28.3222  -26.4181   23.2380 C   0  0  1  0  0  0  0  0  0  0  0  0
  -27.6412  -13.1326   19.6964 C   0  0  2  0  0  0  0  0  0  0  0  0
  -30.8152  -16.8549   21.9458 C   0  0  0  0  0  0  0  0  0  0  0  0
  -30.7828  -19.6863   22.7853 C   0  0  0  0  0  0  0  0  0  1  0  0
  -30.5602  -27.8375   15.6449 C   0  0  0  0  0  0  0  0  0  0  0  0
  -27.2900  -24.1012   20.0286 C   0  0  0  0  0  0  0  0  0  0  0  0
  -28.0199  -24.4933   17.6660 C   0  0  0  0  0  0  0  0  0  0  0  0
  -26.5661  -26.1641   18.8140 C   0  0  0  0  0  0  0  0  0  0  0  0
  -32.7492  -29.0864   18.4952 C   0  0  0  0  0  0  0  0  0  0  0  0
  -28.9946  -25.9635   19.4880 C   0  0  1  0  0  0  0  0  0  0  0  0
  -30.8872  -28.2021   17.0846 C   0  0  2  0  0  0  0  0  0  0  0  0
  -27.7368  -25.1783   19.0200 C   0  0  0  0  0  0  0  0  0  0  0  0
  -25.8504  -11.5395   20.2773 N   0  0  0  0  0  0  0  0  0  0  0  0
  -26.2305  -12.8234   20.1625 N   0  0  0  0  0  0  0  0  0  0  0  0
  -28.4677  -25.8100   21.9046 N   0  0  0  0  0  0  0  0  0  0  0  0
  -29.9687  -13.5910   20.3751 N   0  0  0  0  0  0  0  0  0  0  0  0
  -25.4704  -15.0500   20.4362 N   0  0  0  0  0  0  0  0  0  0  0  0
  -22.6920  -13.7115   22.6457 N   0  0  0  0  0  0  0  0  0  0  0  0
  -26.8581  -28.1791   24.0157 N   0  0  0  0  0  0  0  0  0  0  0  0
  -29.4244  -27.0083   18.5649 N   0  0  0  0  0  0  0  0  0  0  0  0
  -30.1478  -15.6418   21.5394 N   0  0  0  0  0  0  0  0  0  0  0  0
  -32.3001  -28.6727   17.1409 N   0  3  0  0  0  0  0  0  0  0  0  0
  -21.9622  -13.7162   20.4718 O   0  0  0  0  0  0  0  0  0  0  0  0
  -26.0516  -26.5120   22.6041 O   0  0  0  0  0  0  0  0  0  0  0  0
  -28.9031  -27.8632   20.9015 O   0  0  0  0  0  0  0  0  0  0  0  0
  -31.5645  -26.1827   18.2250 O   0  0  0  0  0  0  0  0  0  0  0  0
  -31.8790  -14.8982   20.2329 O   0  0  0  0  0  0  0  0  0  0  0  0
  -21.5931   -7.0085   21.6529 O   0  0  0  0  0  0  0  0  0  0  0  0
  -31.5083  -20.8420   23.1903 O   0  0  0  0  0  0  0  0  0  1  0  0
  -24.3143   -2.2276   22.0296 F   0  0  0  0  0  0  0  0  0  0  0  0
  -21.4806   -5.4905   23.9607 F   0  0  0  0  0  0  0  0  0  0  0  0
  1  2  1  0  0  0  0
  1  5  2  0  0  0  0
  2  6  2  0  0  0  0
  3  8  2  0  0  0  0
  3 15  1  0  0  0  0
  4  9  1  0  0  0  0
  4 15  2  0  0  0  0
  5 17  1  0  0  0  0
  6 19  1  0  0  0  0
  7 10  2  0  0  0  0
  7 18  1  0  0  0  0
  8 21  1  0  0  0  0
  9 21  2  0  0  0  0
 10 22  1  0  0  0  0
 11 12  2  0  0  0  0
 11 23  1  0  0  0  0
 12 24  1  0  0  0  0
 13 20  1  0  0  0  0
 13 22  2  0  0  0  0
 14 24  2  0  0  0  0
 14 25  1  0  0  0  0
 15 26  1  0  0  0  0
 16 26  1  0  0  0  0
 16 27  2  0  0  0  0
 16 28  1  0  0  0  0
 17 19  2  0  0  0  0
 17 33  1  0  0  0  0
 18 20  2  0  0  0  0
 18 34  1  0  0  0  0
 19 46  1  0  0  0  0
 20 35  1  0  0  0  0
 21 74  1  0  0  0  0
 22 75  1  0  0  0  0
 23 25  2  0  0  0  0
 23 74  1  0  0  0  0
 24 76  1  0  0  0  0
 25 77  1  0  0  0  0
 26 59  2  0  0  0  0
 27 60  1  0  0  0  0
 27 63  1  0  0  0  0
 28 64  1  0  0  0  0
 28 69  2  0  0  0  0
 29 47  1  0  0  0  0
 29 65  1  0  0  0  0
 29 70  2  0  0  0  0
 30 56  1  0  0  0  0
 30 61  1  0  0  0  0
 30 71  2  0  0  0  0
 31 57  1  0  0  0  0
 31 66  1  0  0  0  0
 31 72  2  0  0  0  0
 32 62  1  0  0  0  0
 32 67  1  0  0  0  0
 32 73  2  0  0  0  0
 33 36  1  0  0  0  0
 34 47  1  0  0  0  0
 35 61  1  0  0  0  0
 36 38  1  0  0  0  0
 37 39  1  0  0  0  0
 37 44  1  0  0  0  0
 38 46  1  0  0  0  0
 39 48  1  0  0  0  0
 40 42  1  0  0  0  0
 40 49  1  0  0  0  0
 41 43  1  0  0  0  0
 41 49  1  0  0  0  0
 42 50  1  0  0  0  0
 43 50  1  0  0  0  0
 44 62  1  0  0  0  0
 45 48  1  0  0  0  0
 45 62  1  0  0  0  0
 46 65  1  0  0  0  0
 47 61  1  0  0  0  0
 48 60  1  0  0  0  0
 49 67  1  0  0  0  0
 50 75  1  0  0  0  0
 51 57  1  0  0  0  0
 52 58  1  0  0  0  0
 53 58  1  0  0  0  0
 54 58  1  0  0  0  0
 55 68  1  0  0  0  0
 56 58  1  0  0  0  0
 56 66  1  0  0  0  0
 57 68  1  0  0  0  0
 59 60  1  0  0  0  0
M  CHG  1  68   1
M  ISO  4  32 100  50 101  67 100  75 101
M  END
> <Batch ID>
0104

> <Smiles>
CNC(C)C(=O)NC(C(=O)N1Cc2cc([101O:1][101CH:1]3CCC([100NH:0][100C:0](=O)N4CCCC(n5nc(-c6ccc(Oc7ccc(F)cc7F)cc6)c(C(N)=O)c5N)C4)CC3)ccc2CC1C(=O)NC1CCCc2ccccc21)C(C)(C)C

> <Shape>
0.284

> <Color>
0.184

> <Negative vol penalty>
0.000

$$$$

  -OEChem-04052319433D

 83 91  0     1  0  0  0  0  0999 V2000
  -21.2576  -21.6338   18.0569 C   0  0  0  0  0  0  0  0  0  0  0  0
  -22.5346  -22.0564   18.4121 C   0  0  0  0  0  0  0  0  0  0  0  0
  -26.9727  -13.1793   21.0696 C   0  0  0  0  0  0  0  0  0  0  0  0
  -26.8403  -13.5516   18.6861 C   0  0  0  0  0  0  0  0  0  0  0  0
  -20.3843  -22.5155   17.4214 C   0  0  0  0  0  0  0  0  0  0  0  0
  -22.9394  -23.3609   18.1310 C   0  0  0  0  0  0  0  0  0  0  0  0
  -25.3289  -25.5363   22.0300 C   0  0  0  0  0  0  0  0  0  0  0  0
  -26.2942  -11.9700   20.9184 C   0  0  0  0  0  0  0  0  0  0  0  0
  -26.1618  -12.3422   18.5349 C   0  0  0  0  0  0  0  0  0  0  0  0
  -26.6591  -25.1769   22.2423 C   0  0  0  0  0  0  0  0  0  0  0  0
  -23.1040  -10.9419   20.4824 C   0  0  0  0  0  0  0  0  0  0  0  0
  -22.0745  -10.6606   21.3805 C   0  0  0  0  0  0  0  0  0  0  0  0
  -27.3750  -27.2053   21.1503 C   0  0  0  0  0  0  0  0  0  0  0  0
  -30.5915  -22.5656   16.9485 C   0  0  0  0  0  0  0  0  0  0  0  0
  -23.2475   -8.6760   22.1035 C   0  0  0  0  0  0  0  0  0  0  0  0
  -29.5675  -24.3885   17.7842 C   0  0  0  0  0  0  0  0  0  0  0  0
  -27.2457  -13.9701   19.9535 C   0  0  0  0  0  0  0  0  0  0  0  0
  -29.3379  -15.4254   20.0637 C   0  0  0  0  0  0  0  0  0  0  0  0
  -20.7752  -23.8343   17.1411 C   0  0  0  0  0  0  0  0  0  0  0  0
  -25.0113  -26.7296   21.3655 C   0  0  0  0  0  0  0  0  0  0  0  0
  -22.0709  -24.2607   17.4900 C   0  0  0  0  0  0  0  0  0  0  0  0
  -26.0399  -27.5788   20.9332 C   0  0  0  0  0  0  0  0  0  0  0  0
  -29.3319  -23.1620   17.2033 C   0  0  0  0  0  0  0  0  0  0  0  0
  -25.8888  -11.5514   19.6511 C   0  0  0  0  0  0  0  0  0  0  0  0
  -27.6825  -26.0100   21.7998 C   0  0  0  0  0  0  0  0  0  0  0  0
  -24.2052  -10.0903   20.3947 C   0  0  0  0  0  0  0  0  0  0  0  0
  -22.1462   -9.5277   22.1910 C   0  0  0  0  0  0  0  0  0  0  0  0
  -24.2770   -8.9574   21.2053 C   0  0  0  0  0  0  0  0  0  0  0  0
  -27.9460  -15.2197   20.1091 C   0  0  0  0  0  0  0  0  0  0  0  0
  -31.5585  -23.4458   17.3815 C   0  0  0  0  0  0  0  0  0  0  0  0
  -29.4922  -16.7753   20.2651 C   0  0  0  0  0  0  0  0  0  0  0  0
  -30.3967  -14.4809   19.8578 C   0  0  0  0  0  0  0  0  0  0  0  0
  -23.4901  -27.4609   18.6720 C   0  0  0  0  0  0  0  0  0  0  0  0
  -23.8834  -30.5008   19.7335 C   0  0  0  0  0  0  0  0  0  0  0  0
  -25.6433  -32.6865   21.6757 C   0  0  0  0  0  0  0  0  0  0  0  0
  -26.9241  -21.8059   18.9954 C   0  0  0  0  0  0  0  0  0  0  0  0
  -19.8130  -24.7369   16.4102 C   0  0  0  0  0  0  0  0  0  0  0  0
  -23.5711  -27.1159   21.1681 C   0  0  0  0  0  0  0  0  0  0  0  0
  -25.7518  -28.8806   20.2327 C   0  0  0  0  0  0  0  0  0  0  0  0
  -20.1878  -26.2148   16.4848 C   0  0  0  0  0  0  0  0  0  0  0  0
  -26.6971  -20.3460   22.2348 C   0  0  0  0  0  0  0  0  0  0  0  0
  -21.6723  -26.4046   16.1897 C   0  0  0  0  0  0  0  0  0  0  0  0
  -27.1254  -18.8944   22.0127 C   0  0  0  0  0  0  0  0  0  0  0  0
  -25.8954  -20.8852   21.0522 C   0  0  0  0  0  0  0  0  0  0  0  0
  -26.9835  -19.2921   19.5186 C   0  0  0  0  0  0  0  0  0  0  0  0
  -22.5381  -25.6753   17.2242 C   0  0  1  0  0  0  0  0  0  0  0  0
  -23.3691  -28.1049   20.0242 C   0  0  1  0  0  0  0  0  0  0  0  0
  -27.8426  -18.7221   20.6602 C   0  0  2  0  0  0  0  0  0  0  0  0
  -33.0309  -23.3252   17.3543 C   0  0  0  0  0  0  0  0  0  0  0  0
  -25.7523  -35.1126   22.3081 C   0  0  0  0  0  0  0  0  0  0  0  0
  -31.8205  -25.0362   22.3151 C   0  0  0  0  0  0  0  0  0  0  0  0
  -25.1619  -31.1434   17.0386 C   0  0  0  0  0  0  0  0  0  0  0  0
  -26.0843  -33.2376   18.0542 C   0  0  0  0  0  0  0  0  0  0  0  0
  -23.6162  -32.9072   17.9070 C   0  0  0  0  0  0  0  0  0  0  0  0
  -25.1433  -32.0845   24.5299 C   0  0  0  0  0  0  0  0  0  0  0  0
  -28.0109  -22.5784   16.9022 C   0  0  0  0  0  0  0  0  0  0  0  0
  -32.1610  -25.5491   19.8845 C   0  0  0  0  0  0  0  0  0  0  0  0
  -31.5990  -25.7660   18.4726 C   0  0  0  0  0  0  0  0  0  0  0  0
  -29.9354  -26.1148   21.0453 C   0  0  0  0  0  0  0  0  0  1  0  0
  -24.9499  -31.5579   19.5781 C   0  0  1  0  0  0  0  0  0  0  0  0
  -25.1902  -33.7452   22.6648 C   0  0  2  0  0  0  0  0  0  0  0  0
  -31.1219  -25.1458   20.9537 C   0  0  2  0  0  0  0  0  0  0  0  0
  -24.9588  -32.1861   18.1559 C   0  0  0  0  0  0  0  0  0  0  0  0
  -27.2646  -16.3484   20.3227 N   0  0  0  0  0  0  0  0  0  0  0  0
  -30.9245  -24.5503   17.8879 N   0  0  0  0  0  0  0  0  0  0  0  0
  -28.2324  -17.2764   20.4135 N   0  0  0  0  0  0  0  0  0  0  0  0
  -24.3279  -29.2112   20.0576 N   0  0  0  0  0  0  0  0  0  0  0  0
  -26.6317  -20.6927   19.8005 N   0  0  0  0  0  0  0  0  0  0  0  0
  -30.5812  -17.5706   20.3281 N   0  0  0  0  0  0  0  0  0  0  0  0
  -30.0622  -13.1333   19.6666 N   0  0  0  0  0  0  0  0  0  0  0  0
  -22.5951  -26.4301   18.4577 N   0  0  0  0  0  0  0  0  0  0  0  0
  -24.7323  -32.5185   20.6543 N   0  0  0  0  0  0  0  0  0  0  0  0
  -27.6306  -21.5363   17.8297 N   0  0  0  0  0  0  0  0  0  0  0  0
  -25.6423  -33.3956   24.0411 N   0  3  0  0  0  0  0  0  0  0  0  0
  -31.6047  -14.8192   19.8601 O   0  0  0  0  0  0  0  0  0  0  0  0
  -24.3320  -27.8700   17.8812 O   0  0  0  0  0  0  0  0  0  0  0  0
  -22.6990  -30.8096   19.5802 O   0  0  0  0  0  0  0  0  0  0  0  0
  -26.7014  -32.0728   21.7950 O   0  0  0  0  0  0  0  0  0  0  0  0
  -26.5856  -22.9557   19.2960 O   0  0  0  0  0  0  0  0  0  0  0  0
  -25.2269  -10.3714   19.5032 O   0  0  0  0  0  0  0  0  0  0  0  0
  -28.9818  -25.6613   22.0051 O   0  0  0  0  0  0  0  0  0  1  0  0
  -21.1583   -9.2585   23.0545 F   0  0  0  0  0  0  0  0  0  0  0  0
  -25.3330   -8.1361   21.1265 F   0  0  0  0  0  0  0  0  0  0  0  0
  1  2  1  0  0  0  0
  1  5  2  0  0  0  0
  2  6  2  0  0  0  0
  3  8  2  0  0  0  0
  3 17  1  0  0  0  0
  4  9  1  0  0  0  0
  4 17  2  0  0  0  0
  5 19  1  0  0  0  0
  6 21  1  0  0  0  0
  7 10  2  0  0  0  0
  7 20  1  0  0  0  0
  8 24  1  0  0  0  0
  9 24  2  0  0  0  0
 10 25  1  0  0  0  0
 11 12  2  0  0  0  0
 11 26  1  0  0  0  0
 12 27  1  0  0  0  0
 13 22  1  0  0  0  0
 13 25  2  0  0  0  0
 14 23  1  0  0  0  0
 14 30  2  0  0  0  0
 15 27  2  0  0  0  0
 15 28  1  0  0  0  0
 16 23  2  0  0  0  0
 16 65  1  0  0  0  0
 17 29  1  0  0  0  0
 18 29  1  0  0  0  0
 18 31  2  0  0  0  0
 18 32  1  0  0  0  0
 19 21  2  0  0  0  0
 19 37  1  0  0  0  0
 20 22  2  0  0  0  0
 20 38  1  0  0  0  0
 21 46  1  0  0  0  0
 22 39  1  0  0  0  0
 23 56  1  0  0  0  0
 24 80  1  0  0  0  0
 25 81  1  0  0  0  0
 26 28  2  0  0  0  0
 26 80  1  0  0  0  0
 27 82  1  0  0  0  0
 28 83  1  0  0  0  0
 29 64  2  0  0  0  0
 30 49  1  0  0  0  0
 30 65  1  0  0  0  0
 31 66  1  0  0  0  0
 31 69  1  0  0  0  0
 32 70  1  0  0  0  0
 32 75  2  0  0  0  0
 33 47  1  0  0  0  0
 33 71  1  0  0  0  0
 33 76  2  0  0  0  0
 34 60  1  0  0  0  0
 34 67  1  0  0  0  0
 34 77  2  0  0  0  0
 35 61  1  0  0  0  0
 35 72  1  0  0  0  0
 35 78  2  0  0  0  0
 36 68  1  0  0  0  0
 36 73  1  0  0  0  0
 36 79  2  0  0  0  0
 37 40  1  0  0  0  0
 38 47  1  0  0  0  0
 39 67  1  0  0  0  0
 40 42  1  0  0  0  0
 41 43  1  0  0  0  0
 41 44  1  0  0  0  0
 42 46  1  0  0  0  0
 43 48  1  0  0  0  0
 44 68  1  0  0  0  0
 45 48  1  0  0  0  0
 45 68  1  0  0  0  0
 46 71  1  0  0  0  0
 47 67  1  0  0  0  0
 48 66  1  0  0  0  0
 50 61  1  0  0  0  0
 51 62  1  0  0  0  0
 52 63  1  0  0  0  0
 53 63  1  0  0  0  0
 54 63  1  0  0  0  0
 55 74  1  0  0  0  0
 56 73  1  0  0  0  0
 57 58  1  0  0  0  0
 57 62  1  0  0  0  0
 58 65  1  0  0  0  0
 59 62  1  0  0  0  0
 59 81  1  0  0  0  0
 60 63  1  0  0  0  0
 60 72  1  0  0  0  0
 61 74  1  0  0  0  0
 64 66  1  0  0  0  0
M  CHG  1  74   1
M  ISO  4  36 100  59 101  73 100  81 101
M  END
> <Batch ID>
0104

> <Smiles>
CNC(C)C(=O)NC(C(=O)N1Cc2cc([101O:1][101CH2:1]C(C)CCn3cc(C[100NH:0][100C:0](=O)N4CCCC(n5nc(-c6ccc(Oc7ccc(F)cc7F)cc6)c(C(N)=O)c5N)C4)cc3C)ccc2CC1C(=O)NC1CCCc2ccccc21)C(C)(C)C

> <Shape>
0.225

> <Color>
0.067

> <Negative vol penalty>
0.000

$$$$

  -OEChem-04052319433D

 83 90  0     1  0  0  0  0  0999 V2000
  -35.1046  -18.4855   23.3544 C   0  0  0  0  0  0  0  0  0  0  0  0
  -34.2490  -19.5729   23.4990 C   0  0  0  0  0  0  0  0  0  0  0  0
  -31.3258  -25.0728   18.1971 C   0  0  0  0  0  0  0  0  0  0  0  0
  -32.2272  -27.1643   19.0034 C   0  0  0  0  0  0  0  0  0  0  0  0
  -34.8921  -17.5643   22.3296 C   0  0  0  0  0  0  0  0  0  0  0  0
  -33.1810  -19.7403   22.6182 C   0  0  0  0  0  0  0  0  0  0  0  0
  -26.4667  -22.2273   22.3938 C   0  0  0  0  0  0  0  0  0  0  0  0
  -32.3963  -24.9530   17.3110 C   0  0  0  0  0  0  0  0  0  0  0  0
  -33.2978  -27.0445   18.1173 C   0  0  0  0  0  0  0  0  0  0  0  0
  -25.6673  -23.1055   21.6634 C   0  0  0  0  0  0  0  0  0  0  0  0
  -35.6441  -24.0212   17.4396 C   0  0  0  0  0  0  0  0  0  0  0  0
  -36.2724  -22.7794   17.3461 C   0  0  0  0  0  0  0  0  0  0  0  0
  -25.3510  -21.4076   19.9793 C   0  0  0  0  0  0  0  0  0  0  0  0
  -35.7124  -22.6728   14.9983 C   0  0  0  0  0  0  0  0  0  0  0  0
  -31.2412  -26.1785   19.0433 C   0  0  0  0  0  0  0  0  0  0  0  0
  -30.0674  -25.8231   21.2801 C   0  0  0  0  0  0  0  0  0  0  0  0
  -33.8153  -17.7152   21.4417 C   0  0  0  0  0  0  0  0  0  0  0  0
  -26.7236  -20.9341   21.9162 C   0  0  0  0  0  0  0  0  0  0  0  0
  -32.9547  -18.8210   21.5798 C   0  0  0  0  0  0  0  0  0  0  0  0
  -26.1519  -20.5140   20.7068 C   0  0  0  0  0  0  0  0  0  0  0  0
  -33.3823  -25.9388   17.2711 C   0  0  0  0  0  0  0  0  0  0  0  0
  -25.1117  -22.6967   20.4546 C   0  0  0  0  0  0  0  0  0  0  0  0
  -35.0499  -24.5888   16.3124 C   0  0  0  0  0  0  0  0  0  0  0  0
  -36.3065  -22.1052   16.1255 C   0  0  0  0  0  0  0  0  0  0  0  0
  -35.0841  -23.9146   15.0918 C   0  0  0  0  0  0  0  0  0  0  0  0
  -30.1353  -26.3031   19.9585 C   0  0  0  0  0  0  0  0  0  0  0  0
  -28.8189  -26.1940   21.7164 C   0  0  0  0  0  0  0  0  0  0  0  0
  -31.0454  -25.1062   22.0451 C   0  0  0  0  0  0  0  0  0  0  0  0
  -29.3342  -19.3388   21.0537 C   0  0  0  0  0  0  0  0  0  0  0  0
  -27.2621  -16.8553   20.8065 C   0  0  0  0  0  0  0  0  0  0  0  0
  -24.0492  -15.7967   20.3558 C   0  0  0  0  0  0  0  0  0  0  0  0
  -24.8210  -29.7520   22.2802 C   0  0  0  0  0  0  0  0  0  0  0  0
  -33.6538  -16.7194   20.3206 C   0  0  0  0  0  0  0  0  0  0  0  0
  -27.5662  -19.9897   22.7290 C   0  0  0  0  0  0  0  0  0  0  0  0
  -26.3805  -19.1292   20.1603 C   0  0  0  0  0  0  0  0  0  0  0  0
  -32.2786  -16.7644   19.6593 C   0  0  0  0  0  0  0  0  0  0  0  0
  -24.8489  -28.0318   19.1960 C   0  0  0  0  0  0  0  0  0  0  0  0
  -31.8740  -18.2056   19.3664 C   0  0  0  0  0  0  0  0  0  0  0  0
  -26.2353  -27.3900   19.2200 C   0  0  0  0  0  0  0  0  0  0  0  0
  -24.8641  -29.4538   19.7601 C   0  0  0  0  0  0  0  0  0  0  0  0
  -26.8497  -28.9132   21.1342 C   0  0  0  0  0  0  0  0  0  0  0  0
  -31.7706  -19.0233   20.6595 C   0  0  1  0  0  0  0  0  0  0  0  0
  -28.1815  -18.8697   21.8957 C   0  0  1  0  0  0  0  0  0  0  0  0
  -26.8508  -27.4625   20.6282 C   0  0  2  0  0  0  0  0  0  0  0  0
  -22.6723  -13.7076   20.1624 C   0  0  0  0  0  0  0  0  0  0  0  0
  -21.8182  -25.3725   24.0940 C   0  0  0  0  0  0  0  0  0  0  0  0
  -21.6590  -24.4566   20.4494 C   0  0  0  0  0  0  0  0  0  0  0  0
  -28.2876  -16.4457   17.9621 C   0  0  0  0  0  0  0  0  0  0  0  0
  -26.2740  -15.0267   17.5149 C   0  0  0  0  0  0  0  0  0  0  0  0
  -27.9236  -14.3354   19.2538 C   0  0  0  0  0  0  0  0  0  0  0  0
  -23.5536  -31.6728   21.2271 C   0  0  0  0  0  0  0  0  0  0  0  0
  -22.4423  -16.4960   22.7407 C   0  0  0  0  0  0  0  0  0  0  0  0
  -20.1668  -28.5419   21.5258 C   0  0  0  0  0  0  0  0  0  0  0  0
  -22.7585  -26.2587   21.8930 C   0  0  0  0  0  0  0  0  0  0  0  0
  -22.7682  -30.6342   23.3224 C   0  0  0  0  0  0  0  0  0  0  0  0
  -21.3657  -30.2348   22.9033 C   0  0  0  0  0  0  0  0  0  0  0  0
  -21.5203  -27.8191   23.4873 C   0  0  0  0  0  0  0  0  0  0  0  0
  -24.1239  -24.8536   20.2868 C   0  0  0  0  0  0  0  0  0  1  0  0
  -26.3916  -16.2947   19.7079 C   0  0  1  0  0  0  0  0  0  0  0  0
  -23.2113  -14.7745   21.1026 C   0  0  2  0  0  0  0  0  0  0  0  0
  -21.6424  -26.3812   22.9551 C   0  0  2  0  0  0  0  0  0  0  0  0
  -22.9086  -24.8697   21.2285 C   0  0  2  0  0  0  0  0  0  0  0  0
  -27.2163  -15.5524   18.6187 C   0  0  0  0  0  0  0  0  0  0  0  0
  -29.0188  -26.9309   19.5798 N   0  0  0  0  0  0  0  0  0  0  0  0
  -28.2375  -26.8478   20.6701 N   0  0  0  0  0  0  0  0  0  0  0  0
  -27.2167  -18.2448   20.9886 N   0  0  0  0  0  0  0  0  0  0  0  0
  -25.5020  -29.4854   21.0833 N   0  0  0  0  0  0  0  0  0  0  0  0
  -28.1727  -26.0213   22.8890 N   0  0  0  0  0  0  0  0  0  0  0  0
  -32.2756  -24.8068   21.4440 N   0  0  0  0  0  0  0  0  0  0  0  0
  -30.5349  -18.7225   21.3502 N   0  0  0  0  0  0  0  0  0  0  0  0
  -25.3876  -15.4654   20.3658 N   0  0  0  0  0  0  0  0  0  0  0  0
  -23.7067  -30.6016   22.2095 N   0  0  0  0  0  0  0  0  0  0  0  0
  -22.0568  -15.4394   21.7703 N   0  3  0  0  0  0  0  0  0  0  0  0
  -21.3693  -28.8122   22.3977 N   0  3  1  0  0  0  0  0  0  0  0  0
  -30.8284  -24.7275   23.2211 O   0  0  0  0  0  0  0  0  0  0  0  0
  -29.1477  -20.1954   20.1975 O   0  0  0  0  0  0  0  0  0  0  0  0
  -27.9515  -16.0879   21.4829 O   0  0  0  0  0  0  0  0  0  0  0  0
  -23.5644  -16.7878   19.8144 O   0  0  0  0  0  0  0  0  0  0  0  0
  -25.1920  -29.2645   23.3557 O   0  0  0  0  0  0  0  0  0  0  0  0
  -34.4272  -25.8221   16.4067 O   0  0  0  0  0  0  0  0  0  0  0  0
  -24.3316  -23.5522   19.7394 O   0  0  0  0  0  0  0  0  0  1  0  0
  -36.9113  -20.9134   16.0355 F   0  0  0  0  0  0  0  0  0  0  0  0
  -34.5160  -24.4554   14.0052 F   0  0  0  0  0  0  0  0  0  0  0  0
  1  2  1  0  0  0  0
  1  5  2  0  0  0  0
  2  6  2  0  0  0  0
  3  8  2  0  0  0  0
  3 15  1  0  0  0  0
  4  9  1  0  0  0  0
  4 15  2  0  0  0  0
  5 17  1  0  0  0  0
  6 19  1  0  0  0  0
  7 10  2  0  0  0  0
  7 18  1  0  0  0  0
  8 21  1  0  0  0  0
  9 21  2  0  0  0  0
 10 22  1  0  0  0  0
 11 12  2  0  0  0  0
 11 23  1  0  0  0  0
 12 24  1  0  0  0  0
 13 20  1  0  0  0  0
 13 22  2  0  0  0  0
 14 24  2  0  0  0  0
 14 25  1  0  0  0  0
 15 26  1  0  0  0  0
 16 26  1  0  0  0  0
 16 27  2  0  0  0  0
 16 28  1  0  0  0  0
 17 19  2  0  0  0  0
 17 33  1  0  0  0  0
 18 20  2  0  0  0  0
 18 34  1  0  0  0  0
 19 42  1  0  0  0  0
 20 35  1  0  0  0  0
 21 80  1  0  0  0  0
 22 81  1  0  0  0  0
 23 25  2  0  0  0  0
 23 80  1  0  0  0  0
 24 82  1  0  0  0  0
 25 83  1  0  0  0  0
 26 64  2  0  0  0  0
 27 65  1  0  0  0  0
 27 68  1  0  0  0  0
 28 69  1  0  0  0  0
 28 75  2  0  0  0  0
 29 43  1  0  0  0  0
 29 70  1  0  0  0  0
 29 76  2  0  0  0  0
 30 59  1  0  0  0  0
 30 66  1  0  0  0  0
 30 77  2  0  0  0  0
 31 60  1  0  0  0  0
 31 71  1  0  0  0  0
 31 78  2  0  0  0  0
 32 67  1  0  0  0  0
 32 72  1  0  0  0  0
 32 79  2  0  0  0  0
 33 36  1  0  0  0  0
 34 43  1  0  0  0  0
 35 66  1  0  0  0  0
 36 38  1  0  0  0  0
 37 39  1  0  0  0  0
 37 40  1  0  0  0  0
 38 42  1  0  0  0  0
 39 44  1  0  0  0  0
 40 67  1  0  0  0  0
 41 44  1  0  0  0  0
 41 67  1  0  0  0  0
 42 70  1  0  0  0  0
 43 66  1  0  0  0  0
 44 65  1  0  0  0  0
 45 60  1  0  0  0  0
 46 61  1  0  0  0  0
 47 62  1  0  0  0  0
 48 63  1  0  0  0  0
 49 63  1  0  0  0  0
 50 63  1  0  0  0  0
 51 72  1  0  0  0  0
 52 73  1  0  0  0  0
 53 74  1  0  0  0  0
 54 61  1  0  0  0  0
 54 62  1  0  0  0  0
 55 56  1  0  0  0  0
 55 72  1  0  0  0  0
 56 74  1  0  0  0  0
 57 61  1  0  0  0  0
 57 74  1  0  0  0  0
 58 62  1  0  0  0  0
 58 81  1  0  0  0  0
 59 63  1  0  0  0  0
 59 71  1  0  0  0  0
 60 73  1  0  0  0  0
 64 65  1  0  0  0  0
M  CHG  2  73   1  74   1
M  ISO  4  32 100  58 101  72 100  81 101
M  END
> <Batch ID>
0104

> <Smiles>
CNC(C)C(=O)NC(C(=O)N1Cc2cc([101O:1][101CH2:1]C(C)CC(C)CN(C)CC[100N:0](C)[100C:0](=O)N3CCCC(n4nc(-c5ccc(Oc6ccc(F)cc6F)cc5)c(C(N)=O)c4N)C3)ccc2CC1C(=O)NC1CCCc2ccccc21)C(C)(C)C

> <Shape>
0.178

> <Color>
0.078

> <Negative vol penalty>
0.000

$$$$

  -OEChem-04052319433D

 82 89  0     1  0  0  0  0  0999 V2000
  -23.4732  -25.2159   24.4203 C   0  0  0  0  0  0  0  0  0  0  0  0
  -24.3421  -24.1301   24.3782 C   0  0  0  0  0  0  0  0  0  0  0  0
  -23.1887   -9.8192   19.9325 C   0  0  0  0  0  0  0  0  0  0  0  0
  -23.5679  -10.0003   22.3117 C   0  0  0  0  0  0  0  0  0  0  0  0
  -22.4904  -25.3591   23.4418 C   0  0  0  0  0  0  0  0  0  0  0  0
  -24.2278  -23.1863   23.3580 C   0  0  0  0  0  0  0  0  0  0  0  0
  -28.7110  -21.9181   21.3737 C   0  0  0  0  0  0  0  0  0  0  0  0
  -22.4220   -8.6730   20.1419 C   0  0  0  0  0  0  0  0  0  0  0  0
  -22.8012   -8.8541   22.5211 C   0  0  0  0  0  0  0  0  0  0  0  0
  -29.4996  -21.0269   22.1001 C   0  0  0  0  0  0  0  0  0  0  0  0
  -23.2007   -5.5071   22.2581 C   0  0  0  0  0  0  0  0  0  0  0  0
  -23.6990   -4.5459   23.1375 C   0  0  0  0  0  0  0  0  0  0  0  0
  -28.7729  -19.2264   20.6686 C   0  0  0  0  0  0  0  0  0  0  0  0
  -21.7430   -4.8072   24.5314 C   0  0  0  0  0  0  0  0  0  0  0  0
  -23.7617  -10.4829   21.0174 C   0  0  0  0  0  0  0  0  0  0  0  0
  -24.1014  -12.9993   20.7726 C   0  0  0  0  0  0  0  0  0  0  0  0
  -22.3703  -24.4217   22.4037 C   0  0  0  0  0  0  0  0  0  0  0  0
  -27.9377  -21.4674   20.2943 C   0  0  0  0  0  0  0  0  0  0  0  0
  -23.2416  -23.3164   22.3655 C   0  0  0  0  0  0  0  0  0  0  0  0
  -27.9773  -20.1144   19.9285 C   0  0  0  0  0  0  0  0  0  0  0  0
  -22.2282   -8.1904   21.4362 C   0  0  0  0  0  0  0  0  0  0  0  0
  -29.5284  -19.6804   21.7494 C   0  0  0  0  0  0  0  0  0  0  0  0
  -21.9736   -6.1185   22.5154 C   0  0  0  0  0  0  0  0  0  0  0  0
  -22.9702   -4.1959   24.2741 C   0  0  0  0  0  0  0  0  0  0  0  0
  -21.2448   -5.7685   23.6520 C   0  0  0  0  0  0  0  0  0  0  0  0
  -24.5543  -11.6667   20.8017 C   0  0  0  0  0  0  0  0  0  0  0  0
  -25.2328  -13.7414   20.5367 C   0  0  0  0  0  0  0  0  0  0  0  0
  -22.7764  -13.5198   20.9437 C   0  0  0  0  0  0  0  0  0  0  0  0
  -24.8279  -21.3899   19.6406 C   0  0  0  0  0  0  0  0  0  0  0  0
  -25.8583  -20.3333   16.7520 C   0  0  0  0  0  0  0  0  0  0  0  0
  -28.3084  -18.8085   14.9302 C   0  0  0  0  0  0  0  0  0  0  0  0
  -31.0475  -12.7494   21.5643 C   0  0  0  0  0  0  0  0  0  0  0  0
  -21.2619  -24.5934   21.3953 C   0  0  0  0  0  0  0  0  0  0  0  0
  -27.1130  -22.4463   19.5042 C   0  0  0  0  0  0  0  0  0  0  0  0
  -27.1812  -19.5837   18.7653 C   0  0  0  0  0  0  0  0  0  0  0  0
  -21.4481  -23.7506   20.1362 C   0  0  0  0  0  0  0  0  0  0  0  0
  -29.5194  -13.4663   18.4294 C   0  0  0  0  0  0  0  0  0  0  0  0
  -21.8326  -22.3207   20.5030 C   0  0  0  0  0  0  0  0  0  0  0  0
  -28.0327  -13.2066   18.6793 C   0  0  0  0  0  0  0  0  0  0  0  0
  -30.4005  -12.4768   19.1887 C   0  0  0  0  0  0  0  0  0  0  0  0
  -28.6474  -12.1354   20.8868 C   0  0  0  0  0  0  0  0  0  0  0  0
  -23.1652  -22.2849   21.2609 C   0  0  1  0  0  0  0  0  0  0  0  0
  -25.9670  -21.7855   18.7442 C   0  0  1  0  0  0  0  0  0  0  0  0
  -27.7201  -13.1433   20.1864 C   0  0  2  0  0  0  0  0  0  0  0  0
  -28.8478  -18.0510   12.5994 C   0  0  0  0  0  0  0  0  0  0  0  0
  -33.1910  -18.2850   22.3784 C   0  0  0  0  0  0  0  0  0  0  0  0
  -23.9856  -17.9491   17.0960 C   0  0  0  0  0  0  0  0  0  0  0  0
  -25.2380  -16.7899   15.2641 C   0  0  0  0  0  0  0  0  0  0  0  0
  -24.0272  -18.9190   14.7912 C   0  0  0  0  0  0  0  0  0  0  0  0
  -29.0341  -17.0278   26.7094 C   0  0  0  0  0  0  0  0  0  0  0  0
  -28.2334  -16.3602   24.5448 C   0  0  0  0  0  0  0  0  0  0  0  0
  -30.6663  -20.5902   14.7725 C   0  0  0  0  0  0  0  0  0  0  0  0
  -32.1578  -14.3981   23.9159 C   0  0  0  0  0  0  0  0  0  0  0  0
  -31.5386  -13.0012   23.9839 C   0  0  0  0  0  0  0  0  0  0  0  0
  -30.3830  -15.6116   25.3140 C   0  0  0  0  0  0  0  0  0  0  0  0
  -30.8183  -17.6823   21.7524 C   0  0  0  0  0  0  0  0  0  1  0  0
  -26.1566  -18.9802   16.1528 C   0  0  1  0  0  0  0  0  0  0  0  0
  -28.9624  -19.1802   13.6117 C   0  0  2  0  0  0  0  0  0  0  0  0
  -32.1182  -17.2082   22.3923 C   0  0  2  0  0  0  0  0  0  0  0  0
  -31.1378  -15.5486   23.9808 C   0  0  1  0  0  0  0  0  0  0  0  0
  -24.8654  -18.1689   15.8492 C   0  0  0  0  0  0  0  0  0  0  0  0
  -25.8707  -11.5650   20.6001 N   0  0  0  0  0  0  0  0  0  0  0  0
  -26.2547  -12.8431   20.4421 N   0  0  0  0  0  0  0  0  0  0  0  0
  -26.3855  -20.5789   18.0278 N   0  0  0  0  0  0  0  0  0  0  0  0
  -30.0545  -12.4663   20.6121 N   0  0  0  0  0  0  0  0  0  0  0  0
  -25.4432  -15.0681   20.4029 N   0  0  0  0  0  0  0  0  0  0  0  0
  -21.7295  -12.6181   21.1784 N   0  0  0  0  0  0  0  0  0  0  0  0
  -24.2730  -22.4426   20.3430 N   0  0  0  0  0  0  0  0  0  0  0  0
  -26.9957  -19.2269   14.9851 N   0  0  0  0  0  0  0  0  0  0  0  0
  -30.6337  -12.7247   22.8905 N   0  0  0  0  0  0  0  0  0  0  0  0
  -29.4166  -16.7048   25.3341 N   0  0  0  0  0  0  0  0  0  0  0  0
  -30.4072  -19.4824   13.8171 N   0  3  0  0  0  0  0  0  0  0  0  0
  -31.8419  -16.8452   23.8124 N   0  3  0  0  0  0  0  0  0  0  0  0
  -22.5257  -14.7469   20.8737 O   0  0  0  0  0  0  0  0  0  0  0  0
  -24.4774  -20.2167   19.6902 O   0  0  0  0  0  0  0  0  0  0  0  0
  -25.1885  -21.1452   16.1087 O   0  0  0  0  0  0  0  0  0  0  0  0
  -28.9016  -18.2040   15.8209 O   0  0  0  0  0  0  0  0  0  0  0  0
  -32.2151  -13.0104   21.2551 O   0  0  0  0  0  0  0  0  0  0  0  0
  -21.4799   -7.0720   21.6409 O   0  0  0  0  0  0  0  0  0  0  0  0
  -30.2968  -18.8082   22.4571 O   0  0  0  0  0  0  0  0  0  1  0  0
  -23.4480   -3.2717   25.1177 F   0  0  0  0  0  0  0  0  0  0  0  0
  -20.0647   -6.3515   23.9038 F   0  0  0  0  0  0  0  0  0  0  0  0
  1  2  1  0  0  0  0
  1  5  2  0  0  0  0
  2  6  2  0  0  0  0
  3  8  2  0  0  0  0
  3 15  1  0  0  0  0
  4  9  1  0  0  0  0
  4 15  2  0  0  0  0
  5 17  1  0  0  0  0
  6 19  1  0  0  0  0
  7 10  2  0  0  0  0
  7 18  1  0  0  0  0
  8 21  1  0  0  0  0
  9 21  2  0  0  0  0
 10 22  1  0  0  0  0
 11 12  2  0  0  0  0
 11 23  1  0  0  0  0
 12 24  1  0  0  0  0
 13 20  1  0  0  0  0
 13 22  2  0  0  0  0
 14 24  2  0  0  0  0
 14 25  1  0  0  0  0
 15 26  1  0  0  0  0
 16 26  1  0  0  0  0
 16 27  2  0  0  0  0
 16 28  1  0  0  0  0
 17 19  2  0  0  0  0
 17 33  1  0  0  0  0
 18 20  2  0  0  0  0
 18 34  1  0  0  0  0
 19 42  1  0  0  0  0
 20 35  1  0  0  0  0
 21 79  1  0  0  0  0
 22 80  1  0  0  0  0
 23 25  2  0  0  0  0
 23 79  1  0  0  0  0
 24 81  1  0  0  0  0
 25 82  1  0  0  0  0
 26 62  2  0  0  0  0
 27 63  1  0  0  0  0
 27 66  1  0  0  0  0
 28 67  1  0  0  0  0
 28 74  2  0  0  0  0
 29 43  1  0  0  0  0
 29 68  1  0  0  0  0
 29 75  2  0  0  0  0
 30 57  1  0  0  0  0
 30 64  1  0  0  0  0
 30 76  2  0  0  0  0
 31 58  1  0  0  0  0
 31 69  1  0  0  0  0
 31 77  2  0  0  0  0
 32 65  1  0  0  0  0
 32 70  1  0  0  0  0
 32 78  2  0  0  0  0
 33 36  1  0  0  0  0
 34 43  1  0  0  0  0
 35 64  1  0  0  0  0
 36 38  1  0  0  0  0
 37 39  1  0  0  0  0
 37 40  1  0  0  0  0
 38 42  1  0  0  0  0
 39 44  1  0  0  0  0
 40 65  1  0  0  0  0
 41 44  1  0  0  0  0
 41 65  1  0  0  0  0
 42 68  1  0  0  0  0
 43 64  1  0  0  0  0
 44 63  1  0  0  0  0
 45 58  1  0  0  0  0
 46 59  1  0  0  0  0
 47 61  1  0  0  0  0
 48 61  1  0  0  0  0
 49 61  1  0  0  0  0
 50 71  1  0  0  0  0
 51 71  1  0  0  0  0
 52 72  1  0  0  0  0
 53 54  1  0  0  0  0
 53 60  1  0  0  0  0
 54 70  1  0  0  0  0
 55 60  1  0  0  0  0
 55 71  1  0  0  0  0
 56 59  1  0  0  0  0
 56 80  1  0  0  0  0
 57 61  1  0  0  0  0
 57 69  1  0  0  0  0
 58 72  1  0  0  0  0
 59 73  1  0  0  0  0
 60 73  1  0  0  0  0
 62 63  1  0  0  0  0
M  CHG  2  72   1  73   1
M  ISO  4  32 100  56 101  70 100  80 101
M  END
> <Batch ID>
0104

> <Smiles>
CNC(C)C(=O)NC(C(=O)N1Cc2cc([101O:1][101CH2:1]C(C)NC(CC[100NH:0][100C:0](=O)N3CCCC(n4nc(-c5ccc(Oc6ccc(F)cc6F)cc5)c(C(N)=O)c4N)C3)CN(C)C)ccc2CC1C(=O)NC1CCCc2ccccc21)C(C)(C)C

> <Shape>
0.201

> <Color>
0.182

> <Negative vol penalty>
0.000

$$$$

  -OEChem-04052319433D

 81 89  0     1  0  0  0  0  0999 V2000
  -30.5652  -21.6286   17.6521 C   0  0  0  0  0  0  0  0  0  0  0  0
  -30.2075  -22.8110   17.0143 C   0  0  0  0  0  0  0  0  0  0  0  0
  -23.6758  -17.7973   21.4537 C   0  0  0  0  0  0  0  0  0  0  0  0
  -21.4777  -17.7737   20.4513 C   0  0  0  0  0  0  0  0  0  0  0  0
  -29.8611  -21.2081   18.7784 C   0  0  0  0  0  0  0  0  0  0  0  0
  -29.1533  -23.5794   17.5095 C   0  0  0  0  0  0  0  0  0  0  0  0
  -23.9010  -29.6178   19.8230 C   0  0  0  0  0  0  0  0  0  0  0  0
  -23.6729  -16.4031   21.4930 C   0  0  0  0  0  0  0  0  0  0  0  0
  -21.4748  -16.3794   20.4905 C   0  0  0  0  0  0  0  0  0  0  0  0
  -23.0859  -29.8367   20.9327 C   0  0  0  0  0  0  0  0  0  0  0  0
  -24.1906  -13.8493   19.3382 C   0  0  0  0  0  0  0  0  0  0  0  0
  -25.3455  -13.1867   18.9226 C   0  0  0  0  0  0  0  0  0  0  0  0
  -24.8211  -28.9742   22.3696 C   0  0  0  0  0  0  0  0  0  0  0  0
  -25.5522  -12.1765   21.1075 C   0  0  0  0  0  0  0  0  0  0  0  0
  -22.5781  -18.4827   20.9329 C   0  0  0  0  0  0  0  0  0  0  0  0
  -23.0474  -20.7435   19.8483 C   0  0  0  0  0  0  0  0  0  0  0  0
  -28.7899  -21.9659   19.2796 C   0  0  0  0  0  0  0  0  0  0  0  0
  -25.1802  -29.0644   19.9774 C   0  0  0  0  0  0  0  0  0  0  0  0
  -28.4458  -23.1841   18.6591 C   0  0  0  0  0  0  0  0  0  0  0  0
  -25.6514  -28.7517   21.2605 C   0  0  0  0  0  0  0  0  0  0  0  0
  -22.5724  -15.6941   21.0114 C   0  0  0  0  0  0  0  0  0  0  0  0
  -23.5448  -29.5122   22.2060 C   0  0  0  0  0  0  0  0  0  0  0  0
  -23.7165  -13.6756   20.6385 C   0  0  0  0  0  0  0  0  0  0  0  0
  -26.0263  -12.3503   19.8072 C   0  0  0  0  0  0  0  0  0  0  0  0
  -24.3973  -12.8392   21.5231 C   0  0  0  0  0  0  0  0  0  0  0  0
  -22.5803  -19.9230   20.8925 C   0  0  0  0  0  0  0  0  0  0  0  0
  -22.8294  -22.0241   20.2942 C   0  0  0  0  0  0  0  0  0  0  0  0
  -23.6266  -20.3804   18.5880 C   0  0  0  0  0  0  0  0  0  0  0  0
  -26.6109  -26.4082   18.9767 C   0  0  0  0  0  0  0  0  0  0  0  0
  -29.2278  -27.7769   20.3186 C   0  0  0  0  0  0  0  0  0  0  0  0
  -29.9847  -29.6244   23.3239 C   0  0  0  0  0  0  0  0  0  0  0  0
  -19.5678  -25.7711   22.5897 C   0  0  0  0  0  0  0  0  0  0  0  0
  -28.0673  -21.4681   20.5065 C   0  0  0  0  0  0  0  0  0  0  0  0
  -26.0573  -28.8594   18.7729 C   0  0  0  0  0  0  0  0  0  0  0  0
  -27.0246  -28.1742   21.4820 C   0  0  0  0  0  0  0  0  0  0  0  0
  -26.6964  -22.1108   20.6907 C   0  0  0  0  0  0  0  0  0  0  0  0
  -21.5148  -23.7416   24.8673 C   0  0  0  0  0  0  0  0  0  0  0  0
  -26.8102  -23.6228   20.5657 C   0  0  0  0  0  0  0  0  0  0  0  0
  -22.0056  -22.6288   23.9395 C   0  0  0  0  0  0  0  0  0  0  0  0
  -17.2409  -28.0242   22.9245 C   0  0  0  0  0  0  0  0  0  0  0  0
  -20.0894  -24.1616   24.5210 C   0  0  0  0  0  0  0  0  0  0  0  0
  -20.3873  -23.4692   22.1746 C   0  0  0  0  0  0  0  0  0  0  0  0
  -16.7074  -29.4021   22.5622 C   0  0  0  0  0  0  0  0  0  0  0  0
  -18.5791  -30.4761   23.8357 C   0  0  0  0  0  0  0  0  0  0  0  0
  -27.2831  -24.0206   19.1618 C   0  0  1  0  0  0  0  0  0  0  0  0
  -27.1445  -27.8127   18.9966 C   0  0  1  0  0  0  0  0  0  0  0  0
  -19.1397  -29.1003   24.2136 C   0  0  1  0  0  0  0  0  0  0  0  0
  -21.8308  -23.0158   22.4590 C   0  0  2  0  0  0  0  0  0  0  0  0
  -18.7533  -28.0445   23.1599 C   0  0  1  0  0  0  0  0  0  0  0  0
  -31.7799  -31.3143   23.7916 C   0  0  0  0  0  0  0  0  0  0  0  0
  -20.9967  -30.1679   25.5215 C   0  0  0  0  0  0  0  0  0  0  0  0
  -30.8062  -25.3828   21.3613 C   0  0  0  0  0  0  0  0  0  0  0  0
  -31.6897  -26.8494   23.1881 C   0  0  0  0  0  0  0  0  0  0  0  0
  -32.1958  -27.3864   20.8052 C   0  0  0  0  0  0  0  0  0  0  0  0
  -16.4723  -31.7358   23.4011 C   0  0  0  0  0  0  0  0  0  0  0  0
  -28.0127  -31.6462   24.2085 C   0  0  0  0  0  0  0  0  0  0  0  0
  -21.3409  -29.6364   23.0910 C   0  0  0  0  0  0  0  0  0  1  0  0
  -29.8576  -27.7614   21.6906 C   0  0  1  0  0  0  0  0  0  0  0  0
  -30.3201  -31.1016   23.4223 C   0  0  2  0  0  0  0  0  0  0  0  0
  -20.6564  -29.2009   24.3895 C   0  0  2  0  0  0  0  0  0  0  0  0
  -31.1093  -26.8416   21.7577 C   0  0  0  0  0  0  0  0  0  0  0  0
  -22.1017  -20.6236   21.9241 N   0  0  0  0  0  0  0  0  0  0  0  0
  -22.2671  -21.8978   21.5304 N   0  0  0  0  0  0  0  0  0  0  0  0
  -27.8423  -27.9864   20.2722 N   0  0  0  0  0  0  0  0  0  0  0  0
  -19.9952  -24.5352   23.1027 N   0  0  0  0  0  0  0  0  0  0  0  0
  -23.0658  -23.2347   19.7456 N   0  0  0  0  0  0  0  0  0  0  0  0
  -23.7781  -19.0194   18.2896 N   0  0  0  0  0  0  0  0  0  0  0  0
  -27.5784  -25.4364   19.1467 N   0  0  0  0  0  0  0  0  0  0  0  0
  -30.1206  -29.1545   22.0347 N   0  0  0  0  0  0  0  0  0  0  0  0
  -19.2076  -26.7239   23.5347 N   0  0  0  0  0  0  0  0  0  0  0  0
  -17.0850  -30.3834   23.6426 N   0  3  1  0  0  0  0  0  0  0  0  0
  -29.4729  -31.7573   24.4583 N   0  3  0  0  0  0  0  0  0  0  0  0
  -24.0138  -21.2377   17.7581 O   0  0  0  0  0  0  0  0  0  0  0  0
  -25.4101  -26.2203   18.8203 O   0  0  0  0  0  0  0  0  0  0  0  0
  -29.9401  -27.6164   19.3244 O   0  0  0  0  0  0  0  0  0  0  0  0
  -29.6403  -28.9534   24.2943 O   0  0  0  0  0  0  0  0  0  0  0  0
  -19.5160  -26.0100   21.3783 O   0  0  0  0  0  0  0  0  0  0  0  0
  -22.5693  -14.3335   21.0494 O   0  0  0  0  0  0  0  0  0  0  0  0
  -22.7511  -29.7242   23.2909 O   0  0  0  0  0  0  0  0  0  1  0  0
  -27.1345  -11.7128   19.4074 F   0  0  0  0  0  0  0  0  0  0  0  0
  -23.9460  -12.6674   22.7732 F   0  0  0  0  0  0  0  0  0  0  0  0
  1  2  1  0  0  0  0
  1  5  2  0  0  0  0
  2  6  2  0  0  0  0
  3  8  2  0  0  0  0
  3 15  1  0  0  0  0
  4  9  1  0  0  0  0
  4 15  2  0  0  0  0
  5 17  1  0  0  0  0
  6 19  1  0  0  0  0
  7 10  2  0  0  0  0
  7 18  1  0  0  0  0
  8 21  1  0  0  0  0
  9 21  2  0  0  0  0
 10 22  1  0  0  0  0
 11 12  2  0  0  0  0
 11 23  1  0  0  0  0
 12 24  1  0  0  0  0
 13 20  1  0  0  0  0
 13 22  2  0  0  0  0
 14 24  2  0  0  0  0
 14 25  1  0  0  0  0
 15 26  1  0  0  0  0
 16 26  1  0  0  0  0
 16 27  2  0  0  0  0
 16 28  1  0  0  0  0
 17 19  2  0  0  0  0
 17 33  1  0  0  0  0
 18 20  2  0  0  0  0
 18 34  1  0  0  0  0
 19 45  1  0  0  0  0
 20 35  1  0  0  0  0
 21 78  1  0  0  0  0
 22 79  1  0  0  0  0
 23 25  2  0  0  0  0
 23 78  1  0  0  0  0
 24 80  1  0  0  0  0
 25 81  1  0  0  0  0
 26 62  2  0  0  0  0
 27 63  1  0  0  0  0
 27 66  1  0  0  0  0
 28 67  1  0  0  0  0
 28 73  2  0  0  0  0
 29 46  1  0  0  0  0
 29 68  1  0  0  0  0
 29 74  2  0  0  0  0
 30 58  1  0  0  0  0
 30 64  1  0  0  0  0
 30 75  2  0  0  0  0
 31 59  1  0  0  0  0
 31 69  1  0  0  0  0
 31 76  2  0  0  0  0
 32 65  1  0  0  0  0
 32 70  1  0  0  0  0
 32 77  2  0  0  0  0
 33 36  1  0  0  0  0
 34 46  1  0  0  0  0
 35 64  1  0  0  0  0
 36 38  1  0  0  0  0
 37 39  1  0  0  0  0
 37 41  1  0  0  0  0
 38 45  1  0  0  0  0
 39 48  1  0  0  0  0
 40 43  1  0  0  0  0
 40 49  1  0  0  0  0
 41 65  1  0  0  0  0
 42 48  1  0  0  0  0
 42 65  1  0  0  0  0
 43 71  1  0  0  0  0
 44 47  1  0  0  0  0
 44 71  1  0  0  0  0
 45 68  1  0  0  0  0
 46 64  1  0  0  0  0
 47 49  1  0  0  0  0
 47 60  1  0  0  0  0
 48 63  1  0  0  0  0
 49 70  1  0  0  0  0
 50 59  1  0  0  0  0
 51 60  1  0  0  0  0
 52 61  1  0  0  0  0
 53 61  1  0  0  0  0
 54 61  1  0  0  0  0
 55 71  1  0  0  0  0
 56 72  1  0  0  0  0
 57 60  1  0  0  0  0
 57 79  1  0  0  0  0
 58 61  1  0  0  0  0
 58 69  1  0  0  0  0
 59 72  1  0  0  0  0
 62 63  1  0  0  0  0
M  CHG  2  71   1  72   1
M  ISO  4  32 100  57 101  70 100  79 101
M  END
> <Batch ID>
0104

> <Smiles>
CNC(C)C(=O)NC(C(=O)N1Cc2cc([101O:1][101CH2:1]C(C)C3CN(C)CCC3[100NH:0][100C:0](=O)N3CCCC(n4nc(-c5ccc(Oc6ccc(F)cc6F)cc5)c(C(N)=O)c4N)C3)ccc2CC1C(=O)NC1CCCc2ccccc21)C(C)(C)C

> <Shape>
0.231

> <Color>
0.074

> <Negative vol penalty>
0.000

$$$$

  -OEChem-04052319433D

 84 92  0     1  0  0  0  0  0999 V2000
  -25.2913  -32.8519   23.1696 C   0  0  0  0  0  0  0  0  0  0  0  0
  -25.0472  -31.4886   23.3014 C   0  0  0  0  0  0  0  0  0  0  0  0
  -22.9881   -9.9171   19.9730 C   0  0  0  0  0  0  0  0  0  0  0  0
  -23.7350   -9.9298   22.2707 C   0  0  0  0  0  0  0  0  0  0  0  0
  -25.8399  -33.3496   21.9884 C   0  0  0  0  0  0  0  0  0  0  0  0
  -25.3507  -30.6224   22.2516 C   0  0  0  0  0  0  0  0  0  0  0  0
  -27.3784  -24.8612   22.7015 C   0  0  0  0  0  0  0  0  0  0  0  0
  -22.2182   -8.7827   20.2295 C   0  0  0  0  0  0  0  0  0  0  0  0
  -22.9650   -8.7954   22.5272 C   0  0  0  0  0  0  0  0  0  0  0  0
  -26.7304  -23.6295   22.6179 C   0  0  0  0  0  0  0  0  0  0  0  0
  -23.1874   -5.4627   22.0030 C   0  0  0  0  0  0  0  0  0  0  0  0
  -23.7766   -4.4313   22.7343 C   0  0  0  0  0  0  0  0  0  0  0  0
  -27.3443  -23.4713   20.2904 C   0  0  0  0  0  0  0  0  0  0  0  0
  -22.0697   -4.6578   24.4290 C   0  0  0  0  0  0  0  0  0  0  0  0
  -28.3644  -18.7265   21.8467 C   0  0  0  0  0  0  0  0  0  0  0  0
  -23.7466  -10.4907   20.9936 C   0  0  0  0  0  0  0  0  0  0  0  0
  -24.1434  -13.0066   20.8517 C   0  0  0  0  0  0  0  0  0  0  0  0
  -26.1592  -32.4878   20.9272 C   0  0  0  0  0  0  0  0  0  0  0  0
  -28.0058  -25.4131   21.5754 C   0  0  0  0  0  0  0  0  0  0  0  0
  -25.9028  -31.1093   21.0546 C   0  0  0  0  0  0  0  0  0  0  0  0
  -28.0017  -24.7089   20.3629 C   0  0  0  0  0  0  0  0  0  0  0  0
  -29.1808  -18.3288   20.8110 C   0  0  0  0  0  0  0  0  0  0  0  0
  -28.4056  -18.3592   19.6256 C   0  0  0  0  0  0  0  0  0  0  0  0
  -22.2066   -8.2218   21.5066 C   0  0  0  0  0  0  0  0  0  0  0  0
  -26.7108  -22.9357   21.4116 C   0  0  0  0  0  0  0  0  0  0  0  0
  -22.0394   -6.0917   22.4848 C   0  0  0  0  0  0  0  0  0  0  0  0
  -23.2177   -4.0289   23.9473 C   0  0  0  0  0  0  0  0  0  0  0  0
  -21.4805   -5.6892   23.6978 C   0  0  0  0  0  0  0  0  0  0  0  0
  -24.5426  -11.6622   20.7291 C   0  0  0  0  0  0  0  0  0  0  0  0
  -27.1391  -18.7748   19.9729 C   0  0  0  0  0  0  0  0  0  0  0  0
  -25.2535  -13.7290   20.4878 C   0  0  0  0  0  0  0  0  0  0  0  0
  -22.8820  -13.5536   21.2582 C   0  0  0  0  0  0  0  0  0  0  0  0
  -27.6098  -28.0585   19.8581 C   0  0  0  0  0  0  0  0  0  0  0  0
  -30.2978  -27.0250   18.3650 C   0  0  0  0  0  0  0  0  0  0  0  0
  -32.3337  -24.4119   17.5447 C   0  0  0  0  0  0  0  0  0  0  0  0
  -30.7568  -14.6317   20.6987 C   0  0  0  0  0  0  0  0  0  0  0  0
  -26.7067  -33.0784   19.6520 C   0  0  0  0  0  0  0  0  0  0  0  0
  -28.7234  -26.7302   21.6888 C   0  0  0  0  0  0  0  0  0  0  0  0
  -28.6778  -25.2485   19.1301 C   0  0  0  0  0  0  0  0  0  0  0  0
  -27.3475  -32.0456   18.7285 C   0  0  0  0  0  0  0  0  0  0  0  0
  -29.5817  -12.2494   18.3280 C   0  0  0  0  0  0  0  0  0  0  0  0
  -26.4486  -30.8208   18.5920 C   0  0  0  0  0  0  0  0  0  0  0  0
  -28.1358  -11.9908   18.7552 C   0  0  0  0  0  0  0  0  0  0  0  0
  -30.4965  -12.4620   19.5321 C   0  0  0  0  0  0  0  0  0  0  0  0
  -28.6031  -13.2470   20.9005 C   0  0  0  0  0  0  0  0  0  0  0  0
  -26.2415  -30.1346   19.9476 C   0  0  1  0  0  0  0  0  0  0  0  0
  -28.8879  -27.4384   20.3477 C   0  0  1  0  0  0  0  0  0  0  0  0
  -27.6321  -13.0821   19.7189 C   0  0  2  0  0  0  0  0  0  0  0  0
  -25.9395  -18.9817   19.1342 C   0  0  0  0  0  0  0  0  0  0  0  0
  -28.7945  -19.1987   17.2809 C   0  0  0  0  0  0  0  0  0  0  0  0
  -28.1135  -16.8021   17.6649 C   0  0  0  0  0  0  0  0  0  0  0  0
  -34.4359  -23.8726   16.2847 C   0  0  0  0  0  0  0  0  0  0  0  0
  -28.7793  -27.2736   15.7302 C   0  0  0  0  0  0  0  0  0  0  0  0
  -30.5446  -25.8573   14.6596 C   0  0  0  0  0  0  0  0  0  0  0  0
  -31.1497  -28.0667   15.6471 C   0  0  0  0  0  0  0  0  0  0  0  0
  -33.6777  -23.4119   19.9845 C   0  0  0  0  0  0  0  0  0  0  0  0
  -30.6014  -17.9433   20.9273 C   0  0  0  0  0  0  0  0  0  0  0  0
  -25.9399  -19.4619   22.1344 C   0  0  0  0  0  0  0  0  0  0  0  0
  -30.8619  -16.7921   21.9156 C   0  0  0  0  0  0  0  0  0  0  0  0
  -26.0382  -20.9365   22.5100 C   0  0  0  0  0  0  0  0  0  1  0  0
  -28.8677  -18.0100   18.2663 C   0  0  0  0  0  0  0  0  0  0  0  0
  -30.5879  -26.1362   17.1798 C   0  0  1  0  0  0  0  0  0  0  0  0
  -33.8395  -24.2415   17.6341 C   0  0  2  0  0  0  0  0  0  0  0  0
  -30.2509  -26.8239   15.8267 C   0  0  0  0  0  0  0  0  0  0  0  0
  -25.8075  -11.5352   20.3192 N   0  0  0  0  0  0  0  0  0  0  0  0
  -27.1257  -18.9954   21.3254 N   0  0  0  0  0  0  0  0  0  0  0  0
  -26.2127  -12.8091   20.1810 N   0  0  0  0  0  0  0  0  0  0  0  0
  -29.3607  -26.5430   19.2899 N   0  0  0  0  0  0  0  0  0  0  0  0
  -29.9632  -13.5105   20.4051 N   0  0  0  0  0  0  0  0  0  0  0  0
  -25.4930  -15.0548   20.4034 N   0  0  0  0  0  0  0  0  0  0  0  0
  -21.8488  -12.6697   21.5981 N   0  0  0  0  0  0  0  0  0  0  0  0
  -27.4061  -29.3515   20.3009 N   0  0  0  0  0  0  0  0  0  0  0  0
  -31.9813  -25.7241   17.3100 N   0  0  0  0  0  0  0  0  0  0  0  0
  -30.1730  -15.5812   21.5284 N   0  0  0  0  0  0  0  0  0  0  0  0
  -34.1823  -23.1675   18.6088 N   0  3  0  0  0  0  0  0  0  0  0  0
  -22.6720  -14.7895   21.3025 O   0  0  0  0  0  0  0  0  0  0  0  0
  -26.8644  -27.4122   19.1312 O   0  0  0  0  0  0  0  0  0  0  0  0
  -30.8864  -28.1040   18.4702 O   0  0  0  0  0  0  0  0  0  0  0  0
  -31.5488  -23.4740   17.6668 O   0  0  0  0  0  0  0  0  0  0  0  0
  -31.8988  -14.7783   20.2502 O   0  0  0  0  0  0  0  0  0  0  0  0
  -21.4552   -7.1150   21.7573 O   0  0  0  0  0  0  0  0  0  0  0  0
  -26.0785  -21.7337   21.3271 O   0  0  0  0  0  0  0  0  0  1  0  0
  -23.7827   -3.0374   24.6486 F   0  0  0  0  0  0  0  0  0  0  0  0
  -20.3770   -6.2890   24.1652 F   0  0  0  0  0  0  0  0  0  0  0  0
  1  2  1  0  0  0  0
  1  5  2  0  0  0  0
  2  6  2  0  0  0  0
  3  8  2  0  0  0  0
  3 16  1  0  0  0  0
  4  9  1  0  0  0  0
  4 16  2  0  0  0  0
  5 18  1  0  0  0  0
  6 20  1  0  0  0  0
  7 10  2  0  0  0  0
  7 19  1  0  0  0  0
  8 24  1  0  0  0  0
  9 24  2  0  0  0  0
 10 25  1  0  0  0  0
 11 12  2  0  0  0  0
 11 26  1  0  0  0  0
 12 27  1  0  0  0  0
 13 21  1  0  0  0  0
 13 25  2  0  0  0  0
 14 27  2  0  0  0  0
 14 28  1  0  0  0  0
 15 22  2  0  0  0  0
 15 66  1  0  0  0  0
 16 29  1  0  0  0  0
 17 29  1  0  0  0  0
 17 31  2  0  0  0  0
 17 32  1  0  0  0  0
 18 20  2  0  0  0  0
 18 37  1  0  0  0  0
 19 21  2  0  0  0  0
 19 38  1  0  0  0  0
 20 46  1  0  0  0  0
 21 39  1  0  0  0  0
 22 23  1  0  0  0  0
 22 57  1  0  0  0  0
 23 30  2  0  0  0  0
 23 61  1  0  0  0  0
 24 81  1  0  0  0  0
 25 82  1  0  0  0  0
 26 28  2  0  0  0  0
 26 81  1  0  0  0  0
 27 83  1  0  0  0  0
 28 84  1  0  0  0  0
 29 65  2  0  0  0  0
 30 49  1  0  0  0  0
 30 66  1  0  0  0  0
 31 67  1  0  0  0  0
 31 70  1  0  0  0  0
 32 71  1  0  0  0  0
 32 76  2  0  0  0  0
 33 47  1  0  0  0  0
 33 72  1  0  0  0  0
 33 77  2  0  0  0  0
 34 62  1  0  0  0  0
 34 68  1  0  0  0  0
 34 78  2  0  0  0  0
 35 63  1  0  0  0  0
 35 73  1  0  0  0  0
 35 79  2  0  0  0  0
 36 69  1  0  0  0  0
 36 74  1  0  0  0  0
 36 80  2  0  0  0  0
 37 40  1  0  0  0  0
 38 47  1  0  0  0  0
 39 68  1  0  0  0  0
 40 42  1  0  0  0  0
 41 43  1  0  0  0  0
 41 44  1  0  0  0  0
 42 46  1  0  0  0  0
 43 48  1  0  0  0  0
 44 69  1  0  0  0  0
 45 48  1  0  0  0  0
 45 69  1  0  0  0  0
 46 72  1  0  0  0  0
 47 68  1  0  0  0  0
 48 67  1  0  0  0  0
 50 61  1  0  0  0  0
 51 61  1  0  0  0  0
 52 63  1  0  0  0  0
 53 64  1  0  0  0  0
 54 64  1  0  0  0  0
 55 64  1  0  0  0  0
 56 75  1  0  0  0  0
 57 59  1  0  0  0  0
 58 60  1  0  0  0  0
 58 66  1  0  0  0  0
 59 74  1  0  0  0  0
 60 82  1  0  0  0  0
 62 64  1  0  0  0  0
 62 73  1  0  0  0  0
 63 75  1  0  0  0  0
 65 67  1  0  0  0  0
M  CHG  1  75   1
M  ISO  4  36 100  60 101  74 100  82 101
M  END
> <Batch ID>
0104

> <Smiles>
CNC(C)C(=O)NC(C(=O)N1Cc2cc([101O:1][101CH2:1]Cn3cc(CC[100NH:0][100C:0](=O)N4CCCC(n5nc(-c6ccc(Oc7ccc(F)cc7F)cc6)c(C(N)=O)c5N)C4)c(C(C)C)c3C)ccc2CC1C(=O)NC1CCCc2ccccc21)C(C)(C)C

> <Shape>
0.325

> <Color>
0.202

> <Negative vol penalty>
0.000

$$$$

  -OEChem-04052319433D

 84 92  0     1  0  0  0  0  0999 V2000
  -20.4055  -20.8051   21.5142 C   0  0  0  0  0  0  0  0  0  0  0  0
  -21.5423  -21.5873   21.6837 C   0  0  0  0  0  0  0  0  0  0  0  0
  -26.7360  -18.2465   19.4509 C   0  0  0  0  0  0  0  0  0  0  0  0
  -27.0076  -18.9171   21.7560 C   0  0  0  0  0  0  0  0  0  0  0  0
  -19.2607  -21.3599   20.9461 C   0  0  0  0  0  0  0  0  0  0  0  0
  -21.5308  -22.9276   21.2962 C   0  0  0  0  0  0  0  0  0  0  0  0
  -25.4731  -25.6270   22.4691 C   0  0  0  0  0  0  0  0  0  0  0  0
  -25.9779  -17.1493   19.8593 C   0  0  0  0  0  0  0  0  0  0  0  0
  -26.2494  -17.8199   22.1645 C   0  0  0  0  0  0  0  0  0  0  0  0
  -26.7058  -25.4755   21.8357 C   0  0  0  0  0  0  0  0  0  0  0  0
  -24.2726  -13.9706   20.3193 C   0  0  0  0  0  0  0  0  0  0  0  0
  -24.5463  -12.7360   19.7308 C   0  0  0  0  0  0  0  0  0  0  0  0
  -26.2917  -27.4825   20.5630 C   0  0  0  0  0  0  0  0  0  0  0  0
  -32.3898  -26.2237   17.5548 C   0  0  0  0  0  0  0  0  0  0  0  0
  -26.8113  -12.8405   20.5652 C   0  0  0  0  0  0  0  0  0  0  0  0
  -27.2509  -19.1304   20.3992 C   0  0  0  0  0  0  0  0  0  0  0  0
  -27.5638  -21.5515   19.6589 C   0  0  0  0  0  0  0  0  0  0  0  0
  -19.2401  -22.7044   20.5402 C   0  0  0  0  0  0  0  0  0  0  0  0
  -24.6342  -26.7031   22.1457 C   0  0  0  0  0  0  0  0  0  0  0  0
  -20.3774  -23.5124   20.7428 C   0  0  0  0  0  0  0  0  0  0  0  0
  -25.0499  -27.6467   21.1956 C   0  0  0  0  0  0  0  0  0  0  0  0
  -32.3780  -26.7566   18.8390 C   0  0  0  0  0  0  0  0  0  0  0  0
  -31.1682  -27.1000   19.4321 C   0  0  0  0  0  0  0  0  0  0  0  0
  -25.7345  -16.9360   21.2161 C   0  0  0  0  0  0  0  0  0  0  0  0
  -27.1140  -26.4017   20.8804 C   0  0  0  0  0  0  0  0  0  0  0  0
  -25.2682  -14.6402   21.0307 C   0  0  0  0  0  0  0  0  0  0  0  0
  -25.8157  -12.1709   19.8537 C   0  0  0  0  0  0  0  0  0  0  0  0
  -26.5375  -14.0751   21.1537 C   0  0  0  0  0  0  0  0  0  0  0  0
  -28.0346  -20.2637   19.9779 C   0  0  0  0  0  0  0  0  0  0  0  0
  -31.1744  -26.0551   16.9114 C   0  0  0  0  0  0  0  0  0  0  0  0
  -30.0074  -26.8925   18.7045 C   0  0  0  0  0  0  0  0  0  0  0  0
  -28.6934  -22.2563   19.3217 C   0  0  0  0  0  0  0  0  0  0  0  0
  -26.2251  -22.0648   19.6668 C   0  0  0  0  0  0  0  0  0  0  0  0
  -21.7172  -26.9821   20.9141 C   0  0  0  0  0  0  0  0  0  0  0  0
  -22.1629  -30.1269   21.5727 C   0  0  0  0  0  0  0  0  0  0  0  0
  -24.3474  -32.6945   22.1036 C   0  0  0  0  0  0  0  0  0  0  0  0
  -34.0015  -23.6903   20.2775 C   0  0  0  0  0  0  0  0  0  0  0  0
  -17.9717  -23.2557   19.9380 C   0  0  0  0  0  0  0  0  0  0  0  0
  -23.3192  -26.8671   22.8573 C   0  0  0  0  0  0  0  0  0  0  0  0
  -24.1952  -28.8309   20.8273 C   0  0  0  0  0  0  0  0  0  0  0  0
  -18.1965  -24.5466   19.1573 C   0  0  0  0  0  0  0  0  0  0  0  0
  -33.4232  -20.6813   18.4642 C   0  0  0  0  0  0  0  0  0  0  0  0
  -19.0041  -25.5267   19.9950 C   0  0  0  0  0  0  0  0  0  0  0  0
  -31.9330  -20.4077   18.6753 C   0  0  0  0  0  0  0  0  0  0  0  0
  -34.0694  -21.2795   19.7118 C   0  0  0  0  0  0  0  0  0  0  0  0
  -31.9100  -22.2097   20.4504 C   0  0  0  0  0  0  0  0  0  0  0  0
  -20.3981  -24.9645   20.3007 C   0  0  1  0  0  0  0  0  0  0  0  0
  -22.3200  -27.7166   22.0780 C   0  0  1  0  0  0  0  0  0  0  0  0
  -31.2023  -21.6579   19.2009 C   0  0  2  0  0  0  0  0  0  0  0  0
  -31.1246  -27.6715   20.8093 C   0  0  0  0  0  0  0  0  0  0  0  0
  -31.1486  -25.4846   15.5327 C   0  0  0  0  0  0  0  0  0  0  0  0
  -24.4143  -35.1573   22.5804 C   0  0  0  0  0  0  0  0  0  0  0  0
  -33.9967  -28.4294   19.9696 C   0  0  0  0  0  0  0  0  0  0  0  0
  -34.8689  -26.5210   18.6456 C   0  0  0  0  0  0  0  0  0  0  0  0
  -21.4657  -30.7073   18.6595 C   0  0  0  0  0  0  0  0  0  0  0  0
  -22.4550  -32.9887   18.9499 C   0  0  0  0  0  0  0  0  0  0  0  0
  -20.4764  -32.3071   20.3076 C   0  0  0  0  0  0  0  0  0  0  0  0
  -25.7461  -32.2760   24.6780 C   0  0  0  0  0  0  0  0  0  0  0  0
  -28.6716  -27.2419   19.2916 C   0  0  0  0  0  0  0  0  0  1  0  0
  -33.7721  -26.0906   20.8651 C   0  0  0  0  0  0  0  0  0  0  0  0
  -22.7391  -31.3047   20.8246 C   0  0  1  0  0  0  0  0  0  0  0  0
  -24.4055  -33.7609   23.1825 C   0  0  2  0  0  0  0  0  0  0  0  0
  -33.6731  -26.9521   19.5556 C   0  0  0  0  0  0  0  0  0  0  0  0
  -21.7995  -31.8037   19.6907 C   0  0  0  0  0  0  0  0  0  0  0  0
  -29.3600  -20.1540   19.8542 N   0  0  0  0  0  0  0  0  0  0  0  0
  -29.9792  -26.3770   17.4551 N   0  0  0  0  0  0  0  0  0  0  0  0
  -29.7317  -21.3818   19.4537 N   0  0  0  0  0  0  0  0  0  0  0  0
  -22.9154  -28.9441   21.5462 N   0  0  0  0  0  0  0  0  0  0  0  0
  -33.3296  -22.4626   20.1578 N   0  0  0  0  0  0  0  0  0  0  0  0
  -28.8899  -23.5326   18.9280 N   0  0  0  0  0  0  0  0  0  0  0  0
  -25.1823  -21.2055   20.0389 N   0  0  0  0  0  0  0  0  0  0  0  0
  -21.0523  -25.8223   21.2640 N   0  0  0  0  0  0  0  0  0  0  0  0
  -23.0504  -32.3145   21.8304 N   0  0  0  0  0  0  0  0  0  0  0  0
  -33.2250  -24.7623   20.7002 N   0  0  0  0  0  0  0  0  0  0  0  0
  -25.6359  -33.5969   24.0072 N   0  3  0  0  0  0  0  0  0  0  0  0
  -25.9596  -23.2457   19.3374 O   0  0  0  0  0  0  0  0  0  0  0  0
  -21.8445  -27.4348   19.7825 O   0  0  0  0  0  0  0  0  0  0  0  0
  -21.0883  -30.2537   22.1650 O   0  0  0  0  0  0  0  0  0  0  0  0
  -25.3519  -32.2463   21.5553 O   0  0  0  0  0  0  0  0  0  0  0  0
  -35.2031  -23.8225   20.0212 O   0  0  0  0  0  0  0  0  0  0  0  0
  -24.9946  -15.8655   21.6151 O   0  0  0  0  0  0  0  0  0  0  0  0
  -28.3165  -26.2559   20.2602 O   0  0  0  0  0  0  0  0  0  1  0  0
  -26.0780  -10.9846   19.2899 F   0  0  0  0  0  0  0  0  0  0  0  0
  -27.4977  -14.7131   21.8370 F   0  0  0  0  0  0  0  0  0  0  0  0
  1  2  1  0  0  0  0
  1  5  2  0  0  0  0
  2  6  2  0  0  0  0
  3  8  2  0  0  0  0
  3 16  1  0  0  0  0
  4  9  1  0  0  0  0
  4 16  2  0  0  0  0
  5 18  1  0  0  0  0
  6 20  1  0  0  0  0
  7 10  2  0  0  0  0
  7 19  1  0  0  0  0
  8 24  1  0  0  0  0
  9 24  2  0  0  0  0
 10 25  1  0  0  0  0
 11 12  2  0  0  0  0
 11 26  1  0  0  0  0
 12 27  1  0  0  0  0
 13 21  1  0  0  0  0
 13 25  2  0  0  0  0
 14 22  2  0  0  0  0
 14 30  1  0  0  0  0
 15 27  2  0  0  0  0
 15 28  1  0  0  0  0
 16 29  1  0  0  0  0
 17 29  1  0  0  0  0
 17 32  2  0  0  0  0
 17 33  1  0  0  0  0
 18 20  2  0  0  0  0
 18 38  1  0  0  0  0
 19 21  2  0  0  0  0
 19 39  1  0  0  0  0
 20 47  1  0  0  0  0
 21 40  1  0  0  0  0
 22 23  1  0  0  0  0
 22 63  1  0  0  0  0
 23 31  2  0  0  0  0
 23 50  1  0  0  0  0
 24 81  1  0  0  0  0
 25 82  1  0  0  0  0
 26 28  2  0  0  0  0
 26 81  1  0  0  0  0
 27 83  1  0  0  0  0
 28 84  1  0  0  0  0
 29 65  2  0  0  0  0
 30 51  1  0  0  0  0
 30 66  2  0  0  0  0
 31 59  1  0  0  0  0
 31 66  1  0  0  0  0
 32 67  1  0  0  0  0
 32 70  1  0  0  0  0
 33 71  1  0  0  0  0
 33 76  2  0  0  0  0
 34 48  1  0  0  0  0
 34 72  1  0  0  0  0
 34 77  2  0  0  0  0
 35 61  1  0  0  0  0
 35 68  1  0  0  0  0
 35 78  2  0  0  0  0
 36 62  1  0  0  0  0
 36 73  1  0  0  0  0
 36 79  2  0  0  0  0
 37 69  1  0  0  0  0
 37 74  1  0  0  0  0
 37 80  2  0  0  0  0
 38 41  1  0  0  0  0
 39 48  1  0  0  0  0
 40 68  1  0  0  0  0
 41 43  1  0  0  0  0
 42 44  1  0  0  0  0
 42 45  1  0  0  0  0
 43 47  1  0  0  0  0
 44 49  1  0  0  0  0
 45 69  1  0  0  0  0
 46 49  1  0  0  0  0
 46 69  1  0  0  0  0
 47 72  1  0  0  0  0
 48 68  1  0  0  0  0
 49 67  1  0  0  0  0
 52 62  1  0  0  0  0
 53 63  1  0  0  0  0
 54 63  1  0  0  0  0
 55 64  1  0  0  0  0
 56 64  1  0  0  0  0
 57 64  1  0  0  0  0
 58 75  1  0  0  0  0
 59 82  1  0  0  0  0
 60 63  1  0  0  0  0
 60 74  1  0  0  0  0
 61 64  1  0  0  0  0
 61 73  1  0  0  0  0
 62 75  1  0  0  0  0
 65 67  1  0  0  0  0
M  CHG  1  75   1
M  ISO  4  37 100  59 101  74 100  82 101
M  END
> <Batch ID>
0104

> <Smiles>
CNC(C)C(=O)NC(C(=O)N1Cc2cc([101O:1][101CH2:1]c3nc(C)cc(C(C)(C)C[100NH:0][100C:0](=O)N4CCCC(n5nc(-c6ccc(Oc7ccc(F)cc7F)cc6)c(C(N)=O)c5N)C4)c3C)ccc2CC1C(=O)NC1CCCc2ccccc21)C(C)(C)C

> <Shape>
0.196

> <Color>
0.075

> <Negative vol penalty>
0.000

$$$$

  -OEChem-04052319433D

 85 94  0     1  0  0  0  0  0999 V2000
  -16.6977  -26.9646   22.1633 C   0  0  0  0  0  0  0  0  0  0  0  0
  -17.9539  -26.4656   21.8344 C   0  0  0  0  0  0  0  0  0  0  0  0
  -24.5058  -10.2223   22.8049 C   0  0  0  0  0  0  0  0  0  0  0  0
  -24.5098  -11.8799   24.5626 C   0  0  0  0  0  0  0  0  0  0  0  0
  -16.5821  -28.2169   22.7652 C   0  0  0  0  0  0  0  0  0  0  0  0
  -19.0953  -27.2191   22.1060 C   0  0  0  0  0  0  0  0  0  0  0  0
  -22.8016  -24.4553   24.1722 C   0  0  0  0  0  0  0  0  0  0  0  0
  -24.0793   -9.2566   23.7165 C   0  0  0  0  0  0  0  0  0  0  0  0
  -24.0832  -10.9142   25.4742 C   0  0  0  0  0  0  0  0  0  0  0  0
  -23.5476  -23.6479   23.3147 C   0  0  0  0  0  0  0  0  0  0  0  0
  -21.1835   -8.3407   25.2026 C   0  0  0  0  0  0  0  0  0  0  0  0
  -20.1509   -7.4893   24.8095 C   0  0  0  0  0  0  0  0  0  0  0  0
  -25.3007  -25.3048   23.2894 C   0  0  0  0  0  0  0  0  0  0  0  0
  -21.6064   -5.5847   25.1114 C   0  0  0  0  0  0  0  0  0  0  0  0
  -27.0828  -20.7188   21.1453 C   0  0  0  0  0  0  0  0  0  0  0  0
  -24.7211  -11.5340   23.2279 C   0  0  0  0  0  0  0  0  0  0  0  0
  -24.3544  -13.3716   21.4970 C   0  0  0  0  0  0  0  0  0  0  0  0
  -17.7232  -28.9821   23.0532 C   0  0  0  0  0  0  0  0  0  0  0  0
  -23.2957  -25.7004   24.5868 C   0  0  0  0  0  0  0  0  0  0  0  0
  -18.9948  -28.4835   22.7111 C   0  0  0  0  0  0  0  0  0  0  0  0
  -24.5601  -26.1250   24.1543 C   0  0  0  0  0  0  0  0  0  0  0  0
  -27.7074  -20.2041   20.0307 C   0  0  0  0  0  0  0  0  0  0  0  0
  -26.9045  -20.5267   18.9090 C   0  0  0  0  0  0  0  0  0  0  0  0
  -23.8679   -9.6025   25.0512 C   0  0  0  0  0  0  0  0  0  0  0  0
  -24.7960  -24.0739   22.8708 C   0  0  0  0  0  0  0  0  0  0  0  0
  -22.4276   -7.8141   25.5501 C   0  0  0  0  0  0  0  0  0  0  0  0
  -20.3623   -6.1113   24.7639 C   0  0  0  0  0  0  0  0  0  0  0  0
  -22.6390   -6.4361   25.5045 C   0  0  0  0  0  0  0  0  0  0  0  0
  -25.1623  -12.5319   22.2868 C   0  0  0  0  0  0  0  0  0  0  0  0
  -25.8137  -21.2289   19.3722 C   0  0  0  0  0  0  0  0  0  0  0  0
  -25.2464  -14.1311   20.7800 C   0  0  0  0  0  0  0  0  0  0  0  0
  -22.9253  -13.4576   21.4185 C   0  0  0  0  0  0  0  0  0  0  0  0
  -22.3443  -28.7150   24.2538 C   0  0  0  0  0  0  0  0  0  0  0  0
  -24.8273  -29.3103   26.2545 C   0  0  0  0  0  0  0  0  0  0  0  0
  -27.8331  -28.3056   27.5204 C   0  0  0  0  0  0  0  0  0  0  0  0
  -29.8989  -17.2000   20.4959 C   0  0  0  0  0  0  0  0  0  0  0  0
  -17.5451  -30.3506   23.6615 C   0  0  0  0  0  0  0  0  0  0  0  0
  -22.4903  -26.5477   25.5334 C   0  0  0  0  0  0  0  0  0  0  0  0
  -25.1444  -27.4442   24.5864 C   0  0  0  0  0  0  0  0  0  0  0  0
  -18.8283  -30.9241   24.2572 C   0  0  0  0  0  0  0  0  0  0  0  0
  -30.2511  -13.6686   20.2099 C   0  0  0  0  0  0  0  0  0  0  0  0
  -19.9930  -30.7453   23.2885 C   0  0  0  0  0  0  0  0  0  0  0  0
  -24.9995  -22.7112   17.3693 C   0  0  0  0  0  0  0  0  0  0  0  0
  -24.3485  -23.2612   18.5997 C   0  0  0  0  0  0  0  0  0  0  0  0
  -28.8947  -13.1277   20.6654 C   0  0  0  0  0  0  0  0  0  0  0  0
  -30.6649  -14.9012   21.0108 C   0  0  0  0  0  0  0  0  0  0  0  0
  -28.3101  -15.4455   21.4928 C   0  0  0  0  0  0  0  0  0  0  0  0
  -20.2580  -29.2603   23.0125 C   0  0  1  0  0  0  0  0  0  0  0  0
  -24.6696  -21.7834   18.5198 C   0  0  0  0  0  0  0  0  0  0  0  0
  -22.8676  -28.0250   25.4817 C   0  0  1  0  0  0  0  0  0  0  0  0
  -27.8243  -14.2355   20.6766 C   0  0  2  0  0  0  0  0  0  0  0  0
  -28.4852  -20.8341   16.9749 C   0  0  0  0  0  0  0  0  0  0  0  0
  -29.6388  -29.0196   29.1100 C   0  0  0  0  0  0  0  0  0  0  0  0
  -25.8410  -31.3214   24.1959 C   0  0  0  0  0  0  0  0  0  0  0  0
  -28.0596  -31.2848   25.3555 C   0  0  0  0  0  0  0  0  0  0  0  0
  -26.0309  -32.0758   26.5727 C   0  0  0  0  0  0  0  0  0  0  0  0
  -27.4306  -25.9235   29.2299 C   0  0  0  0  0  0  0  0  0  0  0  0
  -28.9804  -19.4562   20.0212 C   0  0  0  0  0  0  0  0  0  0  0  0
  -27.2686  -18.6458   17.2294 C   0  0  0  0  0  0  0  0  0  0  0  0
  -24.9564  -22.0349   21.6442 C   0  0  0  0  0  0  0  0  0  1  0  0
  -27.1864  -20.1720   17.5019 C   0  0  1  0  0  0  0  0  0  0  0  0
  -26.2958  -29.6111   26.0758 C   0  0  1  0  0  0  0  0  0  0  0  0
  -28.3507  -28.2281   28.9453 C   0  0  2  0  0  0  0  0  0  0  0  0
  -26.5452  -31.0492   25.5401 C   0  0  0  0  0  0  0  0  0  0  0  0
  -26.4672  -12.7380   22.0902 N   0  0  0  0  0  0  0  0  0  0  0  0
  -25.9328  -21.3399   20.7329 N   0  0  0  0  0  0  0  0  0  0  0  0
  -26.4861  -13.7159   21.1686 N   0  0  0  0  0  0  0  0  0  0  0  0
  -24.3159  -28.2396   25.5075 N   0  0  0  0  0  0  0  0  0  0  0  0
  -29.6071  -15.9142   20.9800 N   0  0  0  0  0  0  0  0  0  0  0  0
  -25.0834  -15.1067   19.8613 N   0  0  0  0  0  0  0  0  0  0  0  0
  -22.1594  -12.6040   22.2242 N   0  0  0  0  0  0  0  0  0  0  0  0
  -20.9700  -28.6596   24.1200 N   0  0  0  0  0  0  0  0  0  0  0  0
  -26.9285  -29.3340   27.3608 N   0  0  0  0  0  0  0  0  0  0  0  0
  -28.8381  -18.0976   20.4952 N   0  0  0  0  0  0  0  0  0  0  0  0
  -25.9885  -18.0006   17.6194 N   0  3  0  0  0  0  0  0  0  0  0  0
  -28.6180  -26.8115   29.3230 N   0  3  0  0  0  0  0  0  0  0  0  0
  -22.3448  -14.2560   20.6445 O   0  0  0  0  0  0  0  0  0  0  0  0
  -23.1290  -29.2588   23.4856 O   0  0  0  0  0  0  0  0  0  0  0  0
  -24.1601  -29.9954   27.0337 O   0  0  0  0  0  0  0  0  0  0  0  0
  -28.1977  -27.5336   26.6363 O   0  0  0  0  0  0  0  0  0  0  0  0
  -31.0202  -17.5227   20.0891 O   0  0  0  0  0  0  0  0  0  0  0  0
  -23.4515   -8.6605   25.9409 O   0  0  0  0  0  0  0  0  0  0  0  0
  -25.5260  -23.2881   22.0332 O   0  0  0  0  0  0  0  0  0  1  0  0
  -19.3702   -5.2938   24.3878 F   0  0  0  0  0  0  0  0  0  0  0  0
  -23.8316   -5.9242   25.8383 F   0  0  0  0  0  0  0  0  0  0  0  0
  1  2  1  0  0  0  0
  1  5  2  0  0  0  0
  2  6  2  0  0  0  0
  3  8  2  0  0  0  0
  3 16  1  0  0  0  0
  4  9  1  0  0  0  0
  4 16  2  0  0  0  0
  5 18  1  0  0  0  0
  6 20  1  0  0  0  0
  7 10  2  0  0  0  0
  7 19  1  0  0  0  0
  8 24  1  0  0  0  0
  9 24  2  0  0  0  0
 10 25  1  0  0  0  0
 11 12  2  0  0  0  0
 11 26  1  0  0  0  0
 12 27  1  0  0  0  0
 13 21  1  0  0  0  0
 13 25  2  0  0  0  0
 14 27  2  0  0  0  0
 14 28  1  0  0  0  0
 15 22  2  0  0  0  0
 15 66  1  0  0  0  0
 16 29  1  0  0  0  0
 17 29  1  0  0  0  0
 17 31  2  0  0  0  0
 17 32  1  0  0  0  0
 18 20  2  0  0  0  0
 18 37  1  0  0  0  0
 19 21  2  0  0  0  0
 19 38  1  0  0  0  0
 20 48  1  0  0  0  0
 21 39  1  0  0  0  0
 22 23  1  0  0  0  0
 22 58  1  0  0  0  0
 23 30  2  0  0  0  0
 23 61  1  0  0  0  0
 24 82  1  0  0  0  0
 25 83  1  0  0  0  0
 26 28  2  0  0  0  0
 26 82  1  0  0  0  0
 27 84  1  0  0  0  0
 28 85  1  0  0  0  0
 29 65  2  0  0  0  0
 30 49  1  0  0  0  0
 30 66  1  0  0  0  0
 31 67  1  0  0  0  0
 31 70  1  0  0  0  0
 32 71  1  0  0  0  0
 32 77  2  0  0  0  0
 33 50  1  0  0  0  0
 33 72  1  0  0  0  0
 33 78  2  0  0  0  0
 34 62  1  0  0  0  0
 34 68  1  0  0  0  0
 34 79  2  0  0  0  0
 35 63  1  0  0  0  0
 35 73  1  0  0  0  0
 35 80  2  0  0  0  0
 36 69  1  0  0  0  0
 36 74  1  0  0  0  0
 36 81  2  0  0  0  0
 37 40  1  0  0  0  0
 38 50  1  0  0  0  0
 39 68  1  0  0  0  0
 40 42  1  0  0  0  0
 41 45  1  0  0  0  0
 41 46  1  0  0  0  0
 42 48  1  0  0  0  0
 43 44  1  0  0  0  0
 43 49  1  0  0  0  0
 44 49  1  0  0  0  0
 45 51  1  0  0  0  0
 46 69  1  0  0  0  0
 47 51  1  0  0  0  0
 47 69  1  0  0  0  0
 48 72  1  0  0  0  0
 50 68  1  0  0  0  0
 51 67  1  0  0  0  0
 52 61  1  0  0  0  0
 53 63  1  0  0  0  0
 54 64  1  0  0  0  0
 55 64  1  0  0  0  0
 56 64  1  0  0  0  0
 57 76  1  0  0  0  0
 58 74  1  0  0  0  0
 59 61  1  0  0  0  0
 59 75  1  0  0  0  0
 60 66  1  0  0  0  0
 60 83  1  0  0  0  0
 62 64  1  0  0  0  0
 62 73  1  0  0  0  0
 63 76  1  0  0  0  0
 65 67  1  0  0  0  0
M  CHG  2  75   1  76   1
M  ISO  4  36 100  60 101  74 100  83 101
M  END
> <Batch ID>
0104

> <Smiles>
CNC(C)C(=O)NC(C(=O)N1Cc2cc([101O:1][101CH2:1]n3cc(C[100NH:0][100C:0](=O)N4CCCC(n5nc(-c6ccc(Oc7ccc(F)cc7F)cc6)c(C(N)=O)c5N)C4)c(C(C)CN)c3C3CC3)ccc2CC1C(=O)NC1CCCc2ccccc21)C(C)(C)C

> <Shape>
0.231

> <Color>
0.122

> <Negative vol penalty>
0.000

$$$$

  -OEChem-04052319433D

 88 96  0     1  0  0  0  0  0999 V2000
  -26.9442  -33.3898   21.5329 C   0  0  0  0  0  0  0  0  0  0  0  0
  -28.1230  -32.6936   21.2856 C   0  0  0  0  0  0  0  0  0  0  0  0
  -23.0768   -9.8674   19.9409 C   0  0  0  0  0  0  0  0  0  0  0  0
  -23.8360   -9.8751   22.2345 C   0  0  0  0  0  0  0  0  0  0  0  0
  -26.0588  -32.9347   22.5090 C   0  0  0  0  0  0  0  0  0  0  0  0
  -28.4176  -31.5424   22.0152 C   0  0  0  0  0  0  0  0  0  0  0  0
  -31.6692  -25.1936   21.3547 C   0  0  0  0  0  0  0  0  0  0  0  0
  -22.3331   -8.7142   20.1909 C   0  0  0  0  0  0  0  0  0  0  0  0
  -23.0922   -8.7219   22.4845 C   0  0  0  0  0  0  0  0  0  0  0  0
  -32.6379  -24.4094   21.9796 C   0  0  0  0  0  0  0  0  0  0  0  0
  -21.1075   -5.9847   23.8211 C   0  0  0  0  0  0  0  0  0  0  0  0
  -20.3508   -5.9412   24.9921 C   0  0  0  0  0  0  0  0  0  0  0  0
  -30.9963  -23.6725   23.5862 C   0  0  0  0  0  0  0  0  0  0  0  0
  -19.1061   -7.8780   24.2597 C   0  0  0  0  0  0  0  0  0  0  0  0
  -30.8035  -18.9377   22.9409 C   0  0  0  0  0  0  0  0  0  0  0  0
  -31.8299  -17.4415   21.6285 C   0  0  0  0  0  0  0  0  0  0  0  0
  -23.8283  -10.4479   20.9627 C   0  0  0  0  0  0  0  0  0  0  0  0
  -24.1696  -12.9731   20.8421 C   0  0  0  0  0  0  0  0  0  0  0  0
  -26.3381  -31.7719   23.2442 C   0  0  0  0  0  0  0  0  0  0  0  0
  -30.3572  -25.2317   21.8482 C   0  0  0  0  0  0  0  0  0  0  0  0
  -27.5357  -31.0721   23.0031 C   0  0  0  0  0  0  0  0  0  0  0  0
  -30.0122  -24.4560   22.9642 C   0  0  0  0  0  0  0  0  0  0  0  0
  -29.9345  -17.8844   22.7603 C   0  0  0  0  0  0  0  0  0  0  0  0
  -30.5837  -16.9378   21.9299 C   0  0  0  0  0  0  0  0  0  0  0  0
  -22.3408   -8.1414   21.4627 C   0  0  0  0  0  0  0  0  0  0  0  0
  -32.3022  -23.6510   23.0972 C   0  0  0  0  0  0  0  0  0  0  0  0
  -20.8635   -6.9748   22.8694 C   0  0  0  0  0  0  0  0  0  0  0  0
  -19.3501   -6.8878   25.2114 C   0  0  0  0  0  0  0  0  0  0  0  0
  -19.8628   -7.9215   23.0887 C   0  0  0  0  0  0  0  0  0  0  0  0
  -24.5972  -11.6389   20.7049 C   0  0  0  0  0  0  0  0  0  0  0  0
  -25.2617  -13.7227   20.4790 C   0  0  0  0  0  0  0  0  0  0  0  0
  -22.8989  -13.4887   21.2605 C   0  0  0  0  0  0  0  0  0  0  0  0
  -28.4734  -27.4982   23.0390 C   0  0  0  0  0  0  0  0  0  0  0  0
  -26.2488  -25.1383   22.9752 C   0  0  0  0  0  0  0  0  0  0  0  0
  -25.5730  -21.7931   22.9741 C   0  0  0  0  0  0  0  0  0  0  0  0
  -30.7275  -14.7698   20.6552 C   0  0  0  0  0  0  0  0  0  0  0  0
  -25.3732  -31.3453   24.3220 C   0  0  0  0  0  0  0  0  0  0  0  0
  -29.3175  -26.0619   21.1467 C   0  0  0  0  0  0  0  0  0  0  0  0
  -28.6128  -24.4462   23.5211 C   0  0  0  0  0  0  0  0  0  0  0  0
  -25.5808  -29.9075   24.7910 C   0  0  0  0  0  0  0  0  0  0  0  0
  -29.6146  -12.3549   18.2873 C   0  0  0  0  0  0  0  0  0  0  0  0
  -27.0607  -29.6365   25.0425 C   0  0  0  0  0  0  0  0  0  0  0  0
  -28.1748  -12.0631   18.7165 C   0  0  0  0  0  0  0  0  0  0  0  0
  -30.5292  -12.5843   19.4892 C   0  0  0  0  0  0  0  0  0  0  0  0
  -28.6216  -13.3087   20.8696 C   0  0  0  0  0  0  0  0  0  0  0  0
  -27.8788  -29.8052   23.7565 C   0  0  1  0  0  0  0  0  0  0  0  0
  -28.1375  -26.4242   22.0433 C   0  0  1  0  0  0  0  0  0  0  0  0
  -27.6492  -13.1348   19.6915 C   0  0  2  0  0  0  0  0  0  0  0  0
  -23.6591  -20.1701   22.9557 C   0  0  0  0  0  0  0  0  0  0  0  0
  -26.1185  -16.1743   24.1736 C   0  0  0  0  0  0  0  0  0  0  0  0
  -27.1408  -15.7821   26.4233 C   0  0  0  0  0  0  0  0  0  0  0  0
  -34.2672  -18.6393   24.2625 C   0  0  0  0  0  0  0  0  0  0  0  0
  -25.7363  -25.7130   25.9276 C   0  0  0  0  0  0  0  0  0  0  0  0
  -24.5631  -23.5066   26.0818 C   0  0  0  0  0  0  0  0  0  0  0  0
  -23.6765  -25.2861   24.5751 C   0  0  0  0  0  0  0  0  0  0  0  0
  -35.3900  -21.3807   24.9052 C   0  0  0  0  0  0  0  0  0  0  0  0
  -36.0714  -20.6325   22.6197 C   0  0  0  0  0  0  0  0  0  0  0  0
  -26.4431  -20.6174   20.4012 C   0  0  0  0  0  0  0  0  0  0  0  0
  -28.5772  -17.7760   23.3320 C   0  0  0  0  0  0  0  0  0  0  0  0
  -28.5196  -16.8162   24.5422 C   0  0  0  0  0  0  0  0  0  0  0  0
  -33.1692  -19.5533   22.1793 C   0  0  0  0  0  0  0  0  0  0  0  0
  -34.2926  -22.3659   22.8902 C   0  0  0  0  0  0  0  0  0  1  0  0
  -25.7984  -24.0673   23.9392 C   0  0  1  0  0  0  0  0  0  0  0  0
  -24.6516  -20.9519   22.1092 C   0  0  2  0  0  0  0  0  0  0  0  0
  -27.1308  -16.6955   25.1967 C   0  0  0  0  0  0  0  0  0  0  0  0
  -33.7664  -19.9199   23.5656 C   0  0  2  0  0  0  0  0  0  0  0  0
  -24.9705  -24.6447   25.1218 C   0  0  0  0  0  0  0  0  0  0  0  0
  -34.8672  -21.0523   23.4856 C   0  0  0  0  0  0  0  0  0  0  0  0
  -25.8622  -11.5432   20.2870 N   0  0  0  0  0  0  0  0  0  0  0  0
  -31.9526  -18.6574   22.2486 N   0  0  0  0  0  0  0  0  0  0  0  0
  -26.2389  -12.8268   20.1585 N   0  0  0  0  0  0  0  0  0  0  0  0
  -27.6333  -25.2792   22.8041 N   0  0  0  0  0  0  0  0  0  0  0  0
  -29.9697  -13.6153   20.3660 N   0  0  0  0  0  0  0  0  0  0  0  0
  -25.4718  -15.0542   20.4057 N   0  0  0  0  0  0  0  0  0  0  0  0
  -21.8870  -12.5794   21.5977 N   0  0  0  0  0  0  0  0  0  0  0  0
  -30.0796  -15.6949   21.4730 N   0  0  0  0  0  0  0  0  0  0  0  0
  -27.7203  -28.6486   22.9012 N   0  0  0  0  0  0  0  0  0  0  0  0
  -25.0883  -23.0730   23.1420 N   0  0  0  0  0  0  0  0  0  0  0  0
  -25.4430  -19.9837   21.2986 N   0  3  0  0  0  0  0  0  0  0  0  0
  -22.6623  -14.7193   21.3174 O   0  0  0  0  0  0  0  0  0  0  0  0
  -29.3499  -27.2975   23.8715 O   0  0  0  0  0  0  0  0  0  0  0  0
  -25.4033  -25.8197   22.3900 O   0  0  0  0  0  0  0  0  0  0  0  0
  -26.6163  -21.3572   23.4558 O   0  0  0  0  0  0  0  0  0  0  0  0
  -31.8567  -14.9386   20.1879 O   0  0  0  0  0  0  0  0  0  0  0  0
  -21.6150   -7.0162   21.7071 O   0  0  0  0  0  0  0  0  0  0  0  0
  -33.2459  -22.8852   23.7095 O   0  0  0  0  0  0  0  0  0  1  0  0
  -18.6225   -6.8450   26.3352 F   0  0  0  0  0  0  0  0  0  0  0  0
  -19.6229   -8.8744   22.1775 F   0  0  0  0  0  0  0  0  0  0  0  0
  1  2  1  0  0  0  0
  1  5  2  0  0  0  0
  2  6  2  0  0  0  0
  3  8  2  0  0  0  0
  3 17  1  0  0  0  0
  4  9  1  0  0  0  0
  4 17  2  0  0  0  0
  5 19  1  0  0  0  0
  6 21  1  0  0  0  0
  7 10  2  0  0  0  0
  7 20  1  0  0  0  0
  8 25  1  0  0  0  0
  9 25  2  0  0  0  0
 10 26  1  0  0  0  0
 11 12  2  0  0  0  0
 11 27  1  0  0  0  0
 12 28  1  0  0  0  0
 13 22  1  0  0  0  0
 13 26  2  0  0  0  0
 14 28  2  0  0  0  0
 14 29  1  0  0  0  0
 15 23  2  0  0  0  0
 15 70  1  0  0  0  0
 16 24  2  0  0  0  0
 16 70  1  0  0  0  0
 17 30  1  0  0  0  0
 18 30  1  0  0  0  0
 18 31  2  0  0  0  0
 18 32  1  0  0  0  0
 19 21  2  0  0  0  0
 19 37  1  0  0  0  0
 20 22  2  0  0  0  0
 20 38  1  0  0  0  0
 21 46  1  0  0  0  0
 22 39  1  0  0  0  0
 23 24  1  0  0  0  0
 23 59  1  0  0  0  0
 24 76  1  0  0  0  0
 25 85  1  0  0  0  0
 26 86  1  0  0  0  0
 27 29  2  0  0  0  0
 27 85  1  0  0  0  0
 28 87  1  0  0  0  0
 29 88  1  0  0  0  0
 30 69  2  0  0  0  0
 31 71  1  0  0  0  0
 31 74  1  0  0  0  0
 32 75  1  0  0  0  0
 32 80  2  0  0  0  0
 33 47  1  0  0  0  0
 33 77  1  0  0  0  0
 33 81  2  0  0  0  0
 34 63  1  0  0  0  0
 34 72  1  0  0  0  0
 34 82  2  0  0  0  0
 35 64  1  0  0  0  0
 35 78  1  0  0  0  0
 35 83  2  0  0  0  0
 36 73  1  0  0  0  0
 36 76  1  0  0  0  0
 36 84  2  0  0  0  0
 37 40  1  0  0  0  0
 38 47  1  0  0  0  0
 39 72  1  0  0  0  0
 40 42  1  0  0  0  0
 41 43  1  0  0  0  0
 41 44  1  0  0  0  0
 42 46  1  0  0  0  0
 43 48  1  0  0  0  0
 44 73  1  0  0  0  0
 45 48  1  0  0  0  0
 45 73  1  0  0  0  0
 46 77  1  0  0  0  0
 47 72  1  0  0  0  0
 48 71  1  0  0  0  0
 49 64  1  0  0  0  0
 50 65  1  0  0  0  0
 51 65  1  0  0  0  0
 52 66  1  0  0  0  0
 53 67  1  0  0  0  0
 54 67  1  0  0  0  0
 55 67  1  0  0  0  0
 56 68  1  0  0  0  0
 57 68  1  0  0  0  0
 58 79  1  0  0  0  0
 59 60  1  0  0  0  0
 60 65  1  0  0  0  0
 61 66  1  0  0  0  0
 61 70  1  0  0  0  0
 62 68  1  0  0  0  0
 62 86  1  0  0  0  0
 63 67  1  0  0  0  0
 63 78  1  0  0  0  0
 64 79  1  0  0  0  0
 66 68  1  0  0  0  0
 69 71  1  0  0  0  0
M  CHG  1  79   1
M  ISO  4  36 100  62 101  76 100  86 101
M  END
> <Batch ID>
0104

> <Smiles>
CNC(C)C(=O)NC(C(=O)N1Cc2cc([101O:1][101CH2:1]C(C)(C)C(C)Cn3cc(CCC(C)C)c([100NH:0][100C:0](=O)N4CCCC(n5nc(-c6ccc(Oc7ccc(F)cc7F)cc6)c(C(N)=O)c5N)C4)c3)ccc2CC1C(=O)NC1CCCc2ccccc21)C(C)(C)C

> <Shape>
0.225

> <Color>
0.188

> <Negative vol penalty>
0.000

$$$$

  -OEChem-04052319433D

 89 97  0     1  0  0  0  0  0999 V2000
  -30.3374  -33.3680   15.0462 C   0  0  0  0  0  0  0  0  0  0  0  0
  -30.6709  -32.0193   15.1189 C   0  0  0  0  0  0  0  0  0  0  0  0
  -23.2454   -9.6673   19.9708 C   0  0  0  0  0  0  0  0  0  0  0  0
  -23.7432   -9.9624   22.3165 C   0  0  0  0  0  0  0  0  0  0  0  0
  -30.0204  -34.0701   16.2082 C   0  0  0  0  0  0  0  0  0  0  0  0
  -30.6888  -31.3723   16.3540 C   0  0  0  0  0  0  0  0  0  0  0  0
  -26.8642  -24.9799   18.7073 C   0  0  0  0  0  0  0  0  0  0  0  0
  -22.5483   -8.4958   20.2661 C   0  0  0  0  0  0  0  0  0  0  0  0
  -23.0461   -8.7908   22.6118 C   0  0  0  0  0  0  0  0  0  0  0  0
  -26.1218  -23.9515   19.2881 C   0  0  0  0  0  0  0  0  0  0  0  0
  -23.5945   -5.4584   22.4540 C   0  0  0  0  0  0  0  0  0  0  0  0
  -24.1861   -4.5581   23.3399 C   0  0  0  0  0  0  0  0  0  0  0  0
  -26.3712  -24.9840   21.4606 C   0  0  0  0  0  0  0  0  0  0  0  0
  -26.7823  -18.3115   19.3185 C   0  0  0  0  0  0  0  0  0  0  0  0
  -22.2978   -4.7837   24.8301 C   0  0  0  0  0  0  0  0  0  0  0  0
  -27.6459  -18.8856   21.3171 C   0  0  0  0  0  0  0  0  0  0  0  0
  -23.8429  -10.4006   20.9960 C   0  0  0  0  0  0  0  0  0  0  0  0
  -24.0451  -12.9181   20.6374 C   0  0  0  0  0  0  0  0  0  0  0  0
  -30.0250  -33.4290   17.4571 C   0  0  0  0  0  0  0  0  0  0  0  0
  -27.3505  -26.0236   19.4995 C   0  0  0  0  0  0  0  0  0  0  0  0
  -30.3729  -32.0668   17.5340 C   0  0  0  0  0  0  0  0  0  0  0  0
  -27.1048  -26.0234   20.8824 C   0  0  0  0  0  0  0  0  0  0  0  0
  -26.4648  -18.7847   20.6155 C   0  0  0  0  0  0  0  0  0  0  0  0
  -22.4486   -8.0576   21.5866 C   0  0  0  0  0  0  0  0  0  0  0  0
  -25.8761  -23.9535   20.6613 C   0  0  0  0  0  0  0  0  0  0  0  0
  -22.3546   -6.0215   22.7561 C   0  0  0  0  0  0  0  0  0  0  0  0
  -23.5378   -4.2207   24.5280 C   0  0  0  0  0  0  0  0  0  0  0  0
  -21.7063   -5.6841   23.9441 C   0  0  0  0  0  0  0  0  0  0  0  0
  -24.5637  -11.6105   20.6916 C   0  0  0  0  0  0  0  0  0  0  0  0
  -28.1477  -18.1373   19.2670 C   0  0  0  0  0  0  0  0  0  0  0  0
  -25.1244  -13.7023   20.3105 C   0  0  0  0  0  0  0  0  0  0  0  0
  -22.7074  -13.3825   20.8624 C   0  0  0  0  0  0  0  0  0  0  0  0
  -29.2623  -29.2483   19.6495 C   0  0  0  0  0  0  0  0  0  0  0  0
  -26.8589  -29.5490   21.5319 C   0  0  0  0  0  0  0  0  0  0  0  0
  -23.8688  -29.6287   23.1722 C   0  0  0  0  0  0  0  0  0  0  0  0
  -30.4825  -15.1220   20.9585 C   0  0  0  0  0  0  0  0  0  0  0  0
  -29.7213  -34.2411   18.6911 C   0  0  0  0  0  0  0  0  0  0  0  0
  -28.2070  -27.1198   18.9264 C   0  0  0  0  0  0  0  0  0  0  0  0
  -27.6770  -27.1484   21.7009 C   0  0  0  0  0  0  0  0  0  0  0  0
  -29.3990  -33.3898   19.9165 C   0  0  0  0  0  0  0  0  0  0  0  0
  -29.7619  -12.4316   18.7406 C   0  0  0  0  0  0  0  0  0  0  0  0
  -30.4150  -32.2617   20.0650 C   0  0  0  0  0  0  0  0  0  0  0  0
  -28.3052  -12.0823   19.0504 C   0  0  0  0  0  0  0  0  0  0  0  0
  -30.5247  -12.8384   19.9994 C   0  0  0  0  0  0  0  0  0  0  0  0
  -28.4402  -13.5703   21.0915 C   0  0  0  0  0  0  0  0  0  0  0  0
  -30.3792  -31.3238   18.8523 C   0  0  1  0  0  0  0  0  0  0  0  0
  -27.9721  -28.4838   19.5999 C   0  0  1  0  0  0  0  0  0  0  0  0
  -27.6155  -13.2077   19.8447 C   0  0  2  0  0  0  0  0  0  0  0  0
  -28.9519  -18.5934   16.9220 C   0  0  0  0  0  0  0  0  0  0  0  0
  -28.6795  -16.2182   17.7215 C   0  0  0  0  0  0  0  0  0  0  0  0
  -22.4479  -31.1194   24.6061 C   0  0  0  0  0  0  0  0  0  0  0  0
  -32.1592  -19.7831   21.5104 C   0  0  0  0  0  0  0  0  0  0  0  0
  -30.4560  -20.8440   20.0359 C   0  0  0  0  0  0  0  0  0  0  0  0
  -23.9314  -18.9053   20.1082 C   0  0  0  0  0  0  0  0  0  0  0  0
  -24.7464  -18.1848   22.3356 C   0  0  0  0  0  0  0  0  0  0  0  0
  -28.6811  -28.9893   23.9131 C   0  0  0  0  0  0  0  0  0  0  0  0
  -26.7937  -29.6461   25.4213 C   0  0  0  0  0  0  0  0  0  0  0  0
  -27.7544  -31.3107   23.8311 C   0  0  0  0  0  0  0  0  0  0  0  0
  -21.6648  -29.6223   21.1971 C   0  0  0  0  0  0  0  0  0  0  0  0
  -24.9898  -20.5949   21.6565 C   0  0  0  0  0  0  0  0  0  0  0  0
  -30.2820  -17.3869   21.9532 C   0  0  0  0  0  0  0  0  0  0  0  0
  -25.2171  -21.6690   20.5937 C   0  0  0  0  0  0  0  0  0  1  0  0
  -29.0021  -17.6658   18.1575 C   0  0  0  0  0  0  0  0  0  0  0  0
  -26.3300  -29.4224   22.9382 C   0  0  1  0  0  0  0  0  0  0  0  0
  -22.7562  -30.6612   23.1892 C   0  0  2  0  0  0  0  0  0  0  0  0
  -30.6590  -19.8565   21.1958 C   0  0  0  0  0  0  0  0  0  0  0  0
  -30.0594  -18.4543   20.8602 C   0  0  2  0  0  0  0  0  0  0  0  0
  -25.0596  -19.1245   21.1445 C   0  0  0  0  0  0  0  0  0  0  0  0
  -27.3865  -29.8213   24.0069 C   0  0  0  0  0  0  0  0  0  0  0  0
  -25.8707  -11.5625   20.4207 N   0  0  0  0  0  0  0  0  0  0  0  0
  -28.6622  -18.4891   20.4875 N   0  0  0  0  0  0  0  0  0  0  0  0
  -26.1825  -12.8498   20.1931 N   0  0  0  0  0  0  0  0  0  0  0  0
  -27.4983  -28.4259   20.9931 N   0  0  0  0  0  0  0  0  0  0  0  0
  -29.8186  -13.9103   20.7054 N   0  0  0  0  0  0  0  0  0  0  0  0
  -25.2620  -15.0309   20.1150 N   0  0  0  0  0  0  0  0  0  0  0  0
  -21.7201  -12.4430   21.1893 N   0  0  0  0  0  0  0  0  0  0  0  0
  -29.2427  -30.4319   18.9366 N   0  0  0  0  0  0  0  0  0  0  0  0
  -25.1042  -30.2121   22.9859 N   0  0  0  0  0  0  0  0  0  0  0  0
  -29.7390  -16.0871   21.6268 N   0  0  0  0  0  0  0  0  0  0  0  0
  -21.5121  -30.0919   22.5982 N   0  3  0  0  0  0  0  0  0  0  0  0
  -22.3934  -14.5926   20.7600 O   0  0  0  0  0  0  0  0  0  0  0  0
  -30.2065  -28.7992   20.2885 O   0  0  0  0  0  0  0  0  0  0  0  0
  -26.7154  -30.6153   20.9273 O   0  0  0  0  0  0  0  0  0  0  0  0
  -23.6631  -28.4253   23.3141 O   0  0  0  0  0  0  0  0  0  0  0  0
  -31.6495  -15.3305   20.6096 O   0  0  0  0  0  0  0  0  0  0  0  0
  -21.7682   -6.9146   21.8751 O   0  0  0  0  0  0  0  0  0  0  0  0
  -25.1468  -22.9488   21.2211 O   0  0  0  0  0  0  0  0  0  1  0  0
  -24.1053   -3.3549   25.3780 F   0  0  0  0  0  0  0  0  0  0  0  0
  -20.5144   -6.2209   24.2393 F   0  0  0  0  0  0  0  0  0  0  0  0
  1  2  1  0  0  0  0
  1  5  2  0  0  0  0
  2  6  2  0  0  0  0
  3  8  2  0  0  0  0
  3 17  1  0  0  0  0
  4  9  1  0  0  0  0
  4 17  2  0  0  0  0
  5 19  1  0  0  0  0
  6 21  1  0  0  0  0
  7 10  2  0  0  0  0
  7 20  1  0  0  0  0
  8 24  1  0  0  0  0
  9 24  2  0  0  0  0
 10 25  1  0  0  0  0
 11 12  2  0  0  0  0
 11 26  1  0  0  0  0
 12 27  1  0  0  0  0
 13 22  1  0  0  0  0
 13 25  2  0  0  0  0
 14 23  1  0  0  0  0
 14 30  2  0  0  0  0
 15 27  2  0  0  0  0
 15 28  1  0  0  0  0
 16 23  2  0  0  0  0
 16 71  1  0  0  0  0
 17 29  1  0  0  0  0
 18 29  1  0  0  0  0
 18 31  2  0  0  0  0
 18 32  1  0  0  0  0
 19 21  2  0  0  0  0
 19 37  1  0  0  0  0
 20 22  2  0  0  0  0
 20 38  1  0  0  0  0
 21 46  1  0  0  0  0
 22 39  1  0  0  0  0
 23 68  1  0  0  0  0
 24 86  1  0  0  0  0
 25 87  1  0  0  0  0
 26 28  2  0  0  0  0
 26 86  1  0  0  0  0
 27 88  1  0  0  0  0
 28 89  1  0  0  0  0
 29 70  2  0  0  0  0
 30 63  1  0  0  0  0
 30 71  1  0  0  0  0
 31 72  1  0  0  0  0
 31 75  1  0  0  0  0
 32 76  1  0  0  0  0
 32 81  2  0  0  0  0
 33 47  1  0  0  0  0
 33 77  1  0  0  0  0
 33 82  2  0  0  0  0
 34 64  1  0  0  0  0
 34 73  1  0  0  0  0
 34 83  2  0  0  0  0
 35 65  1  0  0  0  0
 35 78  1  0  0  0  0
 35 84  2  0  0  0  0
 36 74  1  0  0  0  0
 36 79  1  0  0  0  0
 36 85  2  0  0  0  0
 37 40  1  0  0  0  0
 38 47  1  0  0  0  0
 39 73  1  0  0  0  0
 40 42  1  0  0  0  0
 41 43  1  0  0  0  0
 41 44  1  0  0  0  0
 42 46  1  0  0  0  0
 43 48  1  0  0  0  0
 44 74  1  0  0  0  0
 45 48  1  0  0  0  0
 45 74  1  0  0  0  0
 46 77  1  0  0  0  0
 47 73  1  0  0  0  0
 48 72  1  0  0  0  0
 49 63  1  0  0  0  0
 50 63  1  0  0  0  0
 51 65  1  0  0  0  0
 52 66  1  0  0  0  0
 53 66  1  0  0  0  0
 54 68  1  0  0  0  0
 55 68  1  0  0  0  0
 56 69  1  0  0  0  0
 57 69  1  0  0  0  0
 58 69  1  0  0  0  0
 59 80  1  0  0  0  0
 60 62  1  0  0  0  0
 60 68  1  0  0  0  0
 61 67  1  0  0  0  0
 61 79  1  0  0  0  0
 62 87  1  0  0  0  0
 64 69  1  0  0  0  0
 64 78  1  0  0  0  0
 65 80  1  0  0  0  0
 66 67  1  0  0  0  0
 67 71  1  0  0  0  0
 70 72  1  0  0  0  0
M  CHG  1  80   1
M  ISO  4  36 100  62 101  79 100  87 101
M  END
> <Batch ID>
0104

> <Smiles>
CNC(C)C(=O)NC(C(=O)N1Cc2cc([101O:1][101CH2:1]CC(C)(C)c3cc(C(C)C)n(C(C[100NH:0][100C:0](=O)N4CCCC(n5nc(-c6ccc(Oc7ccc(F)cc7F)cc6)c(C(N)=O)c5N)C4)C(C)C)c3)ccc2CC1C(=O)NC1CCCc2ccccc21)C(C)(C)C

> <Shape>
0.300

> <Color>
0.206

> <Negative vol penalty>
0.000

$$$$

  -OEChem-04052319433D

 86 94  0     1  0  0  0  0  0999 V2000
  -30.6826  -21.2924   16.6251 C   0  0  0  0  0  0  0  0  0  0  0  0
  -30.4474  -21.5825   17.9652 C   0  0  0  0  0  0  0  0  0  0  0  0
  -25.9399  -13.7389   20.0320 C   0  0  0  0  0  0  0  0  0  0  0  0
  -24.8719  -15.8584   20.4843 C   0  0  0  0  0  0  0  0  0  0  0  0
  -30.6236  -22.3086   15.6723 C   0  0  0  0  0  0  0  0  0  0  0  0
  -30.1541  -22.8892   18.3535 C   0  0  0  0  0  0  0  0  0  0  0  0
  -26.2925  -23.1245   21.6212 C   0  0  0  0  0  0  0  0  0  0  0  0
  -24.6937  -13.1641   19.7828 C   0  0  0  0  0  0  0  0  0  0  0  0
  -23.6257  -15.2836   20.2350 C   0  0  0  0  0  0  0  0  0  0  0  0
  -26.5616  -22.7979   22.9495 C   0  0  0  0  0  0  0  0  0  0  0  0
  -22.0928  -11.9779   21.5863 C   0  0  0  0  0  0  0  0  0  0  0  0
  -21.8307  -10.7301   22.1518 C   0  0  0  0  0  0  0  0  0  0  0  0
  -26.6835  -25.1444   23.4956 C   0  0  0  0  0  0  0  0  0  0  0  0
  -21.5014   -9.7997   19.9466 C   0  0  0  0  0  0  0  0  0  0  0  0
  -26.0290  -15.0860   20.3828 C   0  0  0  0  0  0  0  0  0  0  0  0
  -28.1652  -16.3071   19.7094 C   0  0  0  0  0  0  0  0  0  0  0  0
  -30.3199  -23.6267   16.0479 C   0  0  0  0  0  0  0  0  0  0  0  0
  -26.2275  -24.4658   21.2171 C   0  0  0  0  0  0  0  0  0  0  0  0
  -30.0923  -23.9243   17.4051 C   0  0  0  0  0  0  0  0  0  0  0  0
  -26.4108  -25.4855   22.1620 C   0  0  0  0  0  0  0  0  0  0  0  0
  -23.5366  -13.9364   19.8843 C   0  0  0  0  0  0  0  0  0  0  0  0
  -26.7601  -23.8078   23.8864 C   0  0  0  0  0  0  0  0  0  0  0  0
  -22.0591  -12.1367   20.2009 C   0  0  0  0  0  0  0  0  0  0  0  0
  -21.5350   -9.6410   21.3320 C   0  0  0  0  0  0  0  0  0  0  0  0
  -21.7635  -11.0476   19.3810 C   0  0  0  0  0  0  0  0  0  0  0  0
  -27.3161  -15.6802   20.6410 C   0  0  0  0  0  0  0  0  0  0  0  0
  -29.2548  -16.6995   20.4478 C   0  0  0  0  0  0  0  0  0  0  0  0
  -27.9851  -16.5160   18.3024 C   0  0  0  0  0  0  0  0  0  0  0  0
  -27.8626  -26.2764   19.1795 C   0  0  0  0  0  0  0  0  0  0  0  0
  -25.5960  -28.4755   19.9205 C   0  0  0  0  0  0  0  0  0  0  0  0
  -23.2696  -29.6001   22.1498 C   0  0  0  0  0  0  0  0  0  0  0  0
  -30.1350  -18.0277   26.0934 C   0  0  0  0  0  0  0  0  0  0  0  0
  -30.3139  -24.7003   14.9885 C   0  0  0  0  0  0  0  0  0  0  0  0
  -25.9097  -24.8017   19.7858 C   0  0  0  0  0  0  0  0  0  0  0  0
  -26.3314  -26.9411   21.7834 C   0  0  0  0  0  0  0  0  0  0  0  0
  -29.6279  -25.9898   15.4321 C   0  0  0  0  0  0  0  0  0  0  0  0
  -31.7684  -15.5342   24.3418 C   0  0  0  0  0  0  0  0  0  0  0  0
  -30.1027  -26.3956   16.8238 C   0  0  0  0  0  0  0  0  0  0  0  0
  -30.9044  -15.3404   23.0958 C   0  0  0  0  0  0  0  0  0  0  0  0
  -28.0552  -21.0307   26.7123 C   0  0  0  0  0  0  0  0  0  0  0  0
  -26.5544  -19.1206   26.0428 C   0  0  0  0  0  0  0  0  0  0  0  0
  -30.9029  -15.7296   25.5814 C   0  0  0  0  0  0  0  0  0  0  0  0
  -29.1201  -20.0219   27.1335 C   0  0  0  0  0  0  0  0  0  0  0  0
  -27.6446  -18.1484   26.4815 C   0  0  0  0  0  0  0  0  0  0  0  0
  -29.0660  -16.6842   24.2285 C   0  0  0  0  0  0  0  0  0  0  0  0
  -29.7467  -25.3249   17.8622 C   0  0  1  0  0  0  0  0  0  0  0  0
  -26.3758  -26.1971   19.3819 C   0  0  1  0  0  0  0  0  0  0  0  0
  -26.6424  -20.4421   26.8182 C   0  0  0  0  0  0  0  0  0  0  0  0
  -29.8921  -16.4893   22.9412 C   0  0  2  0  0  0  0  0  0  0  0  0
  -21.6012  -31.4426   22.4948 C   0  0  0  0  0  0  0  0  0  0  0  0
  -26.2988  -26.7073   30.0612 C   0  0  0  0  0  0  0  0  0  0  0  0
  -28.1519  -25.1070   29.5475 C   0  0  0  0  0  0  0  0  0  0  0  0
  -27.8639  -30.3970   20.6093 C   0  0  0  0  0  0  0  0  0  0  0  0
  -26.1966  -31.8217   21.8170 C   0  0  0  0  0  0  0  0  0  0  0  0
  -25.9594  -31.4347   19.3641 C   0  0  0  0  0  0  0  0  0  0  0  0
  -23.7898  -23.0881   26.8665 C   0  0  0  0  0  0  0  0  0  0  0  0
  -24.9000  -21.7986   28.6821 C   0  0  0  0  0  0  0  0  0  0  0  0
  -21.0102  -27.6916   22.2565 C   0  0  0  0  0  0  0  0  0  0  0  0
  -25.5993  -21.4373   26.3156 C   0  0  0  0  0  0  0  0  0  0  0  0
  -25.8123  -24.7363   28.5766 C   0  0  0  0  0  0  0  0  0  0  0  0
  -26.5862  -24.4130   26.1798 C   0  0  0  0  0  0  0  0  0  1  0  0
  -25.4519  -29.5500   20.9711 C   0  0  1  0  0  0  0  0  0  0  0  0
  -21.8265  -30.0343   21.9669 C   0  0  2  0  0  0  0  0  0  0  0  0
  -26.8849  -25.7662   29.0024 C   0  0  0  0  0  0  0  0  0  0  0  0
  -26.2293  -23.6912   27.5008 C   0  0  2  0  0  0  0  0  0  0  0  0
  -26.3715  -30.7735   20.6975 C   0  0  0  0  0  0  0  0  0  0  0  0
  -25.1518  -22.5289   27.3417 C   0  0  0  0  0  0  0  0  0  0  0  0
  -27.8227  -15.6724   21.8768 N   0  0  0  0  0  0  0  0  0  0  0  0
  -29.0021  -16.2991   21.7269 N   0  0  0  0  0  0  0  0  0  0  0  0
  -26.0244  -27.2186   20.3705 N   0  0  0  0  0  0  0  0  0  0  0  0
  -29.9527  -16.8257   25.3931 N   0  0  0  0  0  0  0  0  0  0  0  0
  -28.9784  -18.7599   26.4088 N   0  0  0  0  0  0  0  0  0  0  0  0
  -30.3949  -17.3445   20.1213 N   0  0  0  0  0  0  0  0  0  0  0  0
  -26.8072  -16.0496   17.7031 N   0  0  0  0  0  0  0  0  0  0  0  0
  -28.3463  -25.4109   18.2171 N   0  0  0  0  0  0  0  0  0  0  0  0
  -24.0305  -29.8727   21.0327 N   0  0  0  0  0  0  0  0  0  0  0  0
  -20.9112  -29.1084   22.6920 N   0  3  0  0  0  0  0  0  0  0  0  0
  -28.8506  -17.0846   17.5945 O   0  0  0  0  0  0  0  0  0  0  0  0
  -28.5218  -27.0656   19.8461 O   0  0  0  0  0  0  0  0  0  0  0  0
  -25.3312  -28.7397   18.7451 O   0  0  0  0  0  0  0  0  0  0  0  0
  -23.6816  -29.0754   23.1820 O   0  0  0  0  0  0  0  0  0  0  0  0
  -31.2612  -18.4271   26.4146 O   0  0  0  0  0  0  0  0  0  0  0  0
  -22.3203  -13.3760   19.6409 O   0  0  0  0  0  0  0  0  0  0  0  0
  -27.0255  -23.4895   25.1930 O   0  0  0  0  0  0  0  0  0  1  0  0
  -21.2848   -8.4424   21.8751 F   0  0  0  0  0  0  0  0  0  0  0  0
  -21.7309  -11.1937   18.0493 F   0  0  0  0  0  0  0  0  0  0  0  0
  1  2  1  0  0  0  0
  1  5  2  0  0  0  0
  2  6  2  0  0  0  0
  3  8  2  0  0  0  0
  3 15  1  0  0  0  0
  4  9  1  0  0  0  0
  4 15  2  0  0  0  0
  5 17  1  0  0  0  0
  6 19  1  0  0  0  0
  7 10  2  0  0  0  0
  7 18  1  0  0  0  0
  8 21  1  0  0  0  0
  9 21  2  0  0  0  0
 10 22  1  0  0  0  0
 11 12  2  0  0  0  0
 11 23  1  0  0  0  0
 12 24  1  0  0  0  0
 13 20  1  0  0  0  0
 13 22  2  0  0  0  0
 14 24  2  0  0  0  0
 14 25  1  0  0  0  0
 15 26  1  0  0  0  0
 16 26  1  0  0  0  0
 16 27  2  0  0  0  0
 16 28  1  0  0  0  0
 17 19  2  0  0  0  0
 17 33  1  0  0  0  0
 18 20  2  0  0  0  0
 18 34  1  0  0  0  0
 19 46  1  0  0  0  0
 20 35  1  0  0  0  0
 21 83  1  0  0  0  0
 22 84  1  0  0  0  0
 23 25  2  0  0  0  0
 23 83  1  0  0  0  0
 24 85  1  0  0  0  0
 25 86  1  0  0  0  0
 26 68  2  0  0  0  0
 27 69  1  0  0  0  0
 27 73  1  0  0  0  0
 28 74  1  0  0  0  0
 28 78  2  0  0  0  0
 29 47  1  0  0  0  0
 29 75  1  0  0  0  0
 29 79  2  0  0  0  0
 30 62  1  0  0  0  0
 30 70  1  0  0  0  0
 30 80  2  0  0  0  0
 31 63  1  0  0  0  0
 31 76  1  0  0  0  0
 31 81  2  0  0  0  0
 32 71  1  0  0  0  0
 32 72  1  0  0  0  0
 32 82  2  0  0  0  0
 33 36  1  0  0  0  0
 34 47  1  0  0  0  0
 35 70  1  0  0  0  0
 36 38  1  0  0  0  0
 37 39  1  0  0  0  0
 37 42  1  0  0  0  0
 38 46  1  0  0  0  0
 39 49  1  0  0  0  0
 40 43  1  0  0  0  0
 40 48  1  0  0  0  0
 41 44  1  0  0  0  0
 41 48  1  0  0  0  0
 42 71  1  0  0  0  0
 43 72  1  0  0  0  0
 44 72  1  0  0  0  0
 45 49  1  0  0  0  0
 45 71  1  0  0  0  0
 46 75  1  0  0  0  0
 47 70  1  0  0  0  0
 48 59  1  0  0  0  0
 49 69  1  0  0  0  0
 50 63  1  0  0  0  0
 51 64  1  0  0  0  0
 52 64  1  0  0  0  0
 53 66  1  0  0  0  0
 54 66  1  0  0  0  0
 55 66  1  0  0  0  0
 56 67  1  0  0  0  0
 57 67  1  0  0  0  0
 58 77  1  0  0  0  0
 59 67  1  0  0  0  0
 60 64  1  0  0  0  0
 60 65  1  0  0  0  0
 61 65  1  0  0  0  0
 61 84  1  0  0  0  0
 62 66  1  0  0  0  0
 62 76  1  0  0  0  0
 63 77  1  0  0  0  0
 65 67  1  0  0  0  0
 68 69  1  0  0  0  0
M  CHG  1  77   1
M  ISO  4  32 100  61 101  72 100  84 101
M  END
> <Batch ID>
0104

> <Smiles>
CNC(C)C(=O)NC(C(=O)N1Cc2cc([101O:1][101CH2:1]C(CC(C)C)C(C)(C)CC3CC[100N:0]([100C:0](=O)N4CCCC(n5nc(-c6ccc(Oc7ccc(F)cc7F)cc6)c(C(N)=O)c5N)C4)CC3)ccc2CC1C(=O)NC1CCCc2ccccc21)C(C)(C)C

> <Shape>
0.201

> <Color>
0.064

> <Negative vol penalty>
0.000

$$$$

  -OEChem-04052319433D

 92100  0     1  0  0  0  0  0999 V2000
  -16.9539  -28.8139   24.3903 C   0  0  0  0  0  0  0  0  0  0  0  0
  -17.6043  -27.8228   23.6622 C   0  0  0  0  0  0  0  0  0  0  0  0
  -25.7069  -14.9868   20.5429 C   0  0  0  0  0  0  0  0  0  0  0  0
  -26.0009  -15.1072   18.1478 C   0  0  0  0  0  0  0  0  0  0  0  0
  -17.3333  -30.1475   24.2438 C   0  0  0  0  0  0  0  0  0  0  0  0
  -18.6339  -28.1650   22.7862 C   0  0  0  0  0  0  0  0  0  0  0  0
  -22.6348  -25.0873   23.1941 C   0  0  0  0  0  0  0  0  0  0  0  0
  -24.6800  -14.0587   20.3701 C   0  0  0  0  0  0  0  0  0  0  0  0
  -24.9741  -14.1791   17.9751 C   0  0  0  0  0  0  0  0  0  0  0  0
  -22.5411  -23.8371   22.5842 C   0  0  0  0  0  0  0  0  0  0  0  0
  -21.4090  -14.0932   19.5197 C   0  0  0  0  0  0  0  0  0  0  0  0
  -20.2440  -14.2702   20.2661 C   0  0  0  0  0  0  0  0  0  0  0  0
  -23.8293  -24.6581   20.7172 C   0  0  0  0  0  0  0  0  0  0  0  0
  -24.2514  -22.4138   14.9941 C   0  0  0  0  0  0  0  0  0  0  0  0
  -24.7787  -24.0302   16.7104 C   0  0  0  0  0  0  0  0  0  0  0  0
  -20.5716  -12.1067   21.2904 C   0  0  0  0  0  0  0  0  0  0  0  0
  -26.3673  -15.5111   19.4317 C   0  0  0  0  0  0  0  0  0  0  0  0
  -28.8007  -16.2007   19.7643 C   0  0  0  0  0  0  0  0  0  0  0  0
  -18.3745  -30.5051   23.3728 C   0  0  0  0  0  0  0  0  0  0  0  0
  -23.3183  -26.1372   22.5640 C   0  0  0  0  0  0  0  0  0  0  0  0
  -19.0267  -29.5048   22.6269 C   0  0  0  0  0  0  0  0  0  0  0  0
  -23.9324  -25.9200   21.3223 C   0  0  0  0  0  0  0  0  0  0  0  0
  -23.9683  -23.0034   16.2261 C   0  0  0  0  0  0  0  0  0  0  0  0
  -25.3449  -22.8508   14.2465 C   0  0  0  0  0  0  0  0  0  0  0  0
  -25.8722  -24.4674   15.9628 C   0  0  0  0  0  0  0  0  0  0  0  0
  -26.1553  -23.8776   14.7309 C   0  0  0  0  0  0  0  0  0  0  0  0
  -24.3137  -13.6548   19.0862 C   0  0  0  0  0  0  0  0  0  0  0  0
  -23.1360  -23.6232   21.3442 C   0  0  0  0  0  0  0  0  0  0  0  0
  -22.1552  -12.9229   19.6585 C   0  0  0  0  0  0  0  0  0  0  0  0
  -19.8254  -13.2770   21.1515 C   0  0  0  0  0  0  0  0  0  0  0  0
  -21.7365  -11.9297   20.5439 C   0  0  0  0  0  0  0  0  0  0  0  0
  -27.4277  -16.4703   19.6095 C   0  0  0  0  0  0  0  0  0  0  0  0
  -29.3808  -17.4386   19.8970 C   0  0  0  0  0  0  0  0  0  0  0  0
  -29.4901  -14.9437   19.7862 C   0  0  0  0  0  0  0  0  0  0  0  0
  -22.5048  -29.0127   21.4806 C   0  0  0  0  0  0  0  0  0  0  0  0
  -25.6963  -29.2958   20.9745 C   0  0  0  0  0  0  0  0  0  0  0  0
  -28.6949  -27.7525   20.4512 C   0  0  0  0  0  0  0  0  0  0  0  0
  -27.7263  -22.7809   18.0057 C   0  0  0  0  0  0  0  0  0  0  0  0
  -18.7176  -31.9650   23.2124 C   0  0  0  0  0  0  0  0  0  0  0  0
  -23.4330  -27.4723   23.2473 C   0  0  0  0  0  0  0  0  0  0  0  0
  -24.6950  -27.0083   20.6135 C   0  0  0  0  0  0  0  0  0  0  0  0
  -20.0692  -32.2031   22.5440 C   0  0  0  0  0  0  0  0  0  0  0  0
  -28.4367  -21.8712   21.4357 C   0  0  0  0  0  0  0  0  0  0  0  0
  -20.2174  -31.3194   21.3096 C   0  0  0  0  0  0  0  0  0  0  0  0
  -28.3870  -20.3440   21.3619 C   0  0  0  0  0  0  0  0  0  0  0  0
  -27.3798  -22.5029   20.5346 C   0  0  0  0  0  0  0  0  0  0  0  0
  -27.4006  -20.5490   19.0327 C   0  0  0  0  0  0  0  0  0  0  0  0
  -20.1649  -29.8336   21.6853 C   0  0  1  0  0  0  0  0  0  0  0  0
  -23.7146  -28.6169   22.2789 C   0  0  1  0  0  0  0  0  0  0  0  0
  -28.4601  -19.8509   19.9046 C   0  0  2  0  0  0  0  0  0  0  0  0
  -26.9082  -24.9364   12.5708 C   0  0  0  0  0  0  0  0  0  0  0  0
  -28.3741  -23.2378   13.7202 C   0  0  0  0  0  0  0  0  0  0  0  0
  -31.1193  -28.2482   20.0344 C   0  0  0  0  0  0  0  0  0  0  0  0
  -26.3087  -18.4697   11.9821 C   0  0  0  0  0  0  0  0  0  0  0  0
  -24.9728  -20.1733   10.7277 C   0  0  0  0  0  0  0  0  0  0  0  0
  -25.0461  -30.0351   18.0865 C   0  0  0  0  0  0  0  0  0  0  0  0
  -27.4400  -29.5870   17.5062 C   0  0  0  0  0  0  0  0  0  0  0  0
  -26.8688  -31.3955   19.1266 C   0  0  0  0  0  0  0  0  0  0  0  0
  -29.5252  -26.3575   22.9258 C   0  0  0  0  0  0  0  0  0  0  0  0
  -22.7846  -22.5296   17.0360 C   0  0  0  0  0  0  0  0  0  0  0  0
  -25.6257  -22.2035   12.9298 C   0  0  0  0  0  0  0  0  0  0  0  0
  -26.7244  -25.5687   16.5037 C   0  0  0  0  0  0  0  0  0  0  0  0
  -25.8439  -20.6863   13.0701 C   0  0  0  0  0  0  0  0  0  0  0  0
  -28.0382  -25.0784   17.1216 C   0  0  0  0  0  0  0  0  0  0  0  0
  -22.0365  -21.1638   19.0701 C   0  0  0  0  0  0  0  0  0  0  0  0
  -27.3274  -24.3464   13.9288 C   0  0  0  0  0  0  0  0  0  0  0  0
  -26.6297  -28.9791   19.8310 C   0  0  1  0  0  0  0  0  0  0  0  0
  -30.0585  -27.9596   21.0852 C   0  0  2  0  0  0  0  0  0  0  0  0
  -26.1057  -19.9665   11.7340 C   0  0  0  0  0  0  0  0  0  0  0  0
  -23.1202  -21.3867   18.0089 C   0  0  1  0  0  0  0  0  0  0  0  0
  -26.4802  -29.9790   18.6498 C   0  0  0  0  0  0  0  0  0  0  0  0
  -27.1520  -17.7768   19.6409 N   0  0  0  0  0  0  0  0  0  0  0  0
  -28.3598  -18.3393   19.8170 N   0  0  0  0  0  0  0  0  0  0  0  0
  -24.7737  -28.2979   21.3194 N   0  0  0  0  0  0  0  0  0  0  0  0
  -27.5160  -22.0058   19.1582 N   0  0  0  0  0  0  0  0  0  0  0  0
  -30.6597  -17.8336   20.0731 N   0  0  0  0  0  0  0  0  0  0  0  0
  -28.7414  -13.7684   19.6359 N   0  0  0  0  0  0  0  0  0  0  0  0
  -21.4282  -29.4102   22.2503 N   0  0  0  0  0  0  0  0  0  0  0  0
  -27.9711  -28.9251   20.4020 N   0  0  0  0  0  0  0  0  0  0  0  0
  -27.8171  -24.1523   18.2100 N   0  0  0  0  0  0  0  0  0  0  0  0
  -21.8531  -22.3447   19.9016 N   0  0  0  0  0  0  0  0  0  1  0  0
  -23.2499  -20.1136   17.2330 N   0  3  0  0  0  0  0  0  0  0  0  0
  -30.4671  -26.7436   21.8438 N   0  3  0  0  0  0  0  0  0  0  0  0
  -30.7310  -14.8643   19.9510 O   0  0  0  0  0  0  0  0  0  0  0  0
  -22.5455  -28.9626   20.2569 O   0  0  0  0  0  0  0  0  0  0  0  0
  -25.7874  -30.3854   21.5455 O   0  0  0  0  0  0  0  0  0  0  0  0
  -28.3116  -26.6605   20.0374 O   0  0  0  0  0  0  0  0  0  0  0  0
  -27.8309  -22.2868   16.8778 O   0  0  0  0  0  0  0  0  0  0  0  0
  -23.3119  -12.7490   18.9173 O   0  0  0  0  0  0  0  0  0  0  0  0
  -23.0456  -22.4040   20.7464 O   0  0  0  0  0  0  0  0  0  1  0  0
  -18.7075  -13.4478   21.8694 F   0  0  0  0  0  0  0  0  0  0  0  0
  -22.4499  -10.8038   20.6824 F   0  0  0  0  0  0  0  0  0  0  0  0
  1  2  1  0  0  0  0
  1  5  2  0  0  0  0
  2  6  2  0  0  0  0
  3  8  2  0  0  0  0
  3 17  1  0  0  0  0
  4  9  1  0  0  0  0
  4 17  2  0  0  0  0
  5 19  1  0  0  0  0
  6 21  1  0  0  0  0
  7 10  2  0  0  0  0
  7 20  1  0  0  0  0
  8 27  1  0  0  0  0
  9 27  2  0  0  0  0
 10 28  1  0  0  0  0
 11 12  2  0  0  0  0
 11 29  1  0  0  0  0
 12 30  1  0  0  0  0
 13 22  1  0  0  0  0
 13 28  2  0  0  0  0
 14 23  2  0  0  0  0
 14 24  1  0  0  0  0
 15 23  1  0  0  0  0
 15 25  2  0  0  0  0
 16 30  2  0  0  0  0
 16 31  1  0  0  0  0
 17 32  1  0  0  0  0
 18 32  1  0  0  0  0
 18 33  2  0  0  0  0
 18 34  1  0  0  0  0
 19 21  2  0  0  0  0
 19 39  1  0  0  0  0
 20 22  2  0  0  0  0
 20 40  1  0  0  0  0
 21 48  1  0  0  0  0
 22 41  1  0  0  0  0
 23 60  1  0  0  0  0
 24 26  2  0  0  0  0
 24 61  1  0  0  0  0
 25 26  1  0  0  0  0
 25 62  1  0  0  0  0
 26 66  1  0  0  0  0
 27 89  1  0  0  0  0
 28 90  1  0  0  0  0
 29 31  2  0  0  0  0
 29 89  1  0  0  0  0
 30 91  1  0  0  0  0
 31 92  1  0  0  0  0
 32 72  2  0  0  0  0
 33 73  1  0  0  0  0
 33 76  1  0  0  0  0
 34 77  1  0  0  0  0
 34 84  2  0  0  0  0
 35 49  1  0  0  0  0
 35 78  1  0  0  0  0
 35 85  2  0  0  0  0
 36 67  1  0  0  0  0
 36 74  1  0  0  0  0
 36 86  2  0  0  0  0
 37 68  1  0  0  0  0
 37 79  1  0  0  0  0
 37 87  2  0  0  0  0
 38 75  1  0  0  0  0
 38 80  1  0  0  0  0
 38 88  2  0  0  0  0
 39 42  1  0  0  0  0
 40 49  1  0  0  0  0
 41 74  1  0  0  0  0
 42 44  1  0  0  0  0
 43 45  1  0  0  0  0
 43 46  1  0  0  0  0
 44 48  1  0  0  0  0
 45 50  1  0  0  0  0
 46 75  1  0  0  0  0
 47 50  1  0  0  0  0
 47 75  1  0  0  0  0
 48 78  1  0  0  0  0
 49 74  1  0  0  0  0
 50 73  1  0  0  0  0
 51 66  1  0  0  0  0
 52 66  1  0  0  0  0
 53 68  1  0  0  0  0
 54 69  1  0  0  0  0
 55 69  1  0  0  0  0
 56 71  1  0  0  0  0
 57 71  1  0  0  0  0
 58 71  1  0  0  0  0
 59 83  1  0  0  0  0
 60 70  1  0  0  0  0
 61 63  1  0  0  0  0
 62 64  1  0  0  0  0
 63 69  1  0  0  0  0
 64 80  1  0  0  0  0
 65 70  1  0  0  0  0
 65 81  1  0  0  0  0
 67 71  1  0  0  0  0
 67 79  1  0  0  0  0
 68 83  1  0  0  0  0
 70 82  1  0  0  0  0
 72 73  1  0  0  0  0
 81 90  1  0  0  0  0
M  CHG  2  82   1  83   1
M  ISO  4  38 100  80 100  81 101  90 101
M  END
> <Batch ID>
0104

> <Smiles>
CNC(C)C(=O)NC(C(=O)N1Cc2cc([101O:1][101NH:1]CC(N)Cc3cc(CC[100NH:0][100C:0](=O)N4CCCC(n5nc(-c6ccc(Oc7ccc(F)cc7F)cc6)c(C(N)=O)c5N)C4)c(C(C)C)c(CCC(C)C)c3)ccc2CC1C(=O)NC1CCCc2ccccc21)C(C)(C)C

> <Shape>
0.206

> <Color>
0.077

> <Negative vol penalty>
0.000

$$$$

  -OEChem-04052319433D

 82 90  0     1  0  0  0  0  0999 V2000
  -23.3016   -9.1199   21.7842 C   0  0  0  0  0  0  0  0  0  0  0  0
  -24.5555   -9.7002   21.6218 C   0  0  0  0  0  0  0  0  0  0  0  0
  -20.7104  -28.0251   22.0450 C   0  0  0  0  0  0  0  0  0  0  0  0
  -22.2577  -27.0557   23.6271 C   0  0  0  0  0  0  0  0  0  0  0  0
  -22.1515   -9.8635   21.5231 C   0  0  0  0  0  0  0  0  0  0  0  0
  -24.6600  -11.0243   21.1970 C   0  0  0  0  0  0  0  0  0  0  0  0
  -28.7870  -16.8276   21.9746 C   0  0  0  0  0  0  0  0  0  0  0  0
  -19.6890  -27.2214   22.5514 C   0  0  0  0  0  0  0  0  0  0  0  0
  -21.2363  -26.2520   24.1335 C   0  0  0  0  0  0  0  0  0  0  0  0
  -29.4748  -17.7703   21.2116 C   0  0  0  0  0  0  0  0  0  0  0  0
  -18.6706  -24.0115   22.2625 C   0  0  0  0  0  0  0  0  0  0  0  0
  -17.8400  -23.3662   21.3463 C   0  0  0  0  0  0  0  0  0  0  0  0
  -27.4180  -18.9826   20.8665 C   0  0  0  0  0  0  0  0  0  0  0  0
  -30.9047  -24.1504   18.5930 C   0  0  0  0  0  0  0  0  0  0  0  0
  -15.9273  -24.5184   22.2686 C   0  0  0  0  0  0  0  0  0  0  0  0
  -30.7500  -23.1824   16.5660 C   0  0  0  0  0  0  0  0  0  0  0  0
  -21.9947  -27.9422   22.5828 C   0  0  0  0  0  0  0  0  0  0  0  0
  -23.4135  -30.0605   22.4945 C   0  0  0  0  0  0  0  0  0  0  0  0
  -22.2417  -11.2003   21.1042 C   0  0  0  0  0  0  0  0  0  0  0  0
  -27.4053  -16.9497   22.1806 C   0  0  0  0  0  0  0  0  0  0  0  0
  -23.5100  -11.7860   20.9287 C   0  0  0  0  0  0  0  0  0  0  0  0
  -26.7155  -18.0416   21.6347 C   0  0  0  0  0  0  0  0  0  0  0  0
  -30.9096  -22.9110   17.9069 C   0  0  0  0  0  0  0  0  0  0  0  0
  -19.9519  -26.3349   23.5957 C   0  0  0  0  0  0  0  0  0  0  0  0
  -28.7898  -18.8464   20.6550 C   0  0  0  0  0  0  0  0  0  0  0  0
  -18.1295  -24.9102   23.1818 C   0  0  0  0  0  0  0  0  0  0  0  0
  -16.4684  -23.6197   21.3493 C   0  0  0  0  0  0  0  0  0  0  0  0
  -16.7578  -25.1637   23.1849 C   0  0  0  0  0  0  0  0  0  0  0  0
  -23.0504  -28.7717   22.0597 C   0  0  0  0  0  0  0  0  0  0  0  0
  -30.7419  -25.1417   17.6505 C   0  0  0  0  0  0  0  0  0  0  0  0
  -24.4646  -30.4129   21.6838 C   0  0  0  0  0  0  0  0  0  0  0  0
  -22.8509  -30.8668   23.5381 C   0  0  0  0  0  0  0  0  0  0  0  0
  -24.8645  -15.1834   21.4540 C   0  0  0  0  0  0  0  0  0  0  0  0
  -23.3008  -17.3995   23.2334 C   0  0  0  0  0  0  0  0  0  0  0  0
  -23.2199  -20.5688   24.4968 C   0  0  0  0  0  0  0  0  0  0  0  0
  -28.4428  -27.1687   18.7676 C   0  0  0  0  0  0  0  0  0  0  0  0
  -20.9714  -11.9494   20.7885 C   0  0  0  0  0  0  0  0  0  0  0  0
  -26.6828  -15.9389   23.0284 C   0  0  0  0  0  0  0  0  0  0  0  0
  -25.2357  -18.2293   21.8430 C   0  0  0  0  0  0  0  0  0  0  0  0
  -21.1614  -13.4616   20.7026 C   0  0  0  0  0  0  0  0  0  0  0  0
  -26.2405  -29.6413   17.3068 C   0  0  0  0  0  0  0  0  0  0  0  0
  -22.3888  -13.7985   19.8618 C   0  0  0  0  0  0  0  0  0  0  0  0
  -25.2022  -29.8171   18.4163 C   0  0  0  0  0  0  0  0  0  0  0  0
  -26.6880  -28.1869   17.1938 C   0  0  0  0  0  0  0  0  0  0  0  0
  -26.1788  -27.7789   19.5704 C   0  0  0  0  0  0  0  0  0  0  0  0
  -23.6639  -13.2272   20.4934 C   0  0  1  0  0  0  0  0  0  0  0  0
  -25.1849  -15.8826   22.7448 C   0  0  1  0  0  0  0  0  0  0  0  0
  -25.7028  -29.2319   19.7501 C   0  0  2  0  0  0  0  0  0  0  0  0
  -21.7958  -22.1011   25.8829 C   0  0  0  0  0  0  0  0  0  0  0  0
  -32.6647  -21.7193   20.2697 C   0  0  0  0  0  0  0  0  0  0  0  0
  -21.4253  -17.7993   20.8601 C   0  0  0  0  0  0  0  0  0  0  0  0
  -20.6629  -19.9394   21.9124 C   0  0  0  0  0  0  0  0  0  0  0  0
  -20.2943  -17.7717   23.0905 C   0  0  0  0  0  0  0  0  0  0  0  0
  -30.4713  -25.2211   15.1575 C   0  0  0  0  0  0  0  0  0  0  0  0
  -25.3295  -20.8597   26.5519 C   0  0  0  0  0  0  0  0  0  0  0  0
  -30.6664  -26.6073   17.8202 C   0  0  0  0  0  0  0  0  0  0  0  0
  -30.8284  -19.9974   20.2364 C   0  0  0  0  0  0  0  0  0  1  0  0
  -22.6325  -18.7226   22.9473 C   0  0  1  0  0  0  0  0  0  0  0  0
  -22.9312  -21.0894   25.8932 C   0  0  2  0  0  0  0  0  0  0  0  0
  -31.2164  -21.4344   19.8947 C   0  0  2  0  0  0  0  0  0  0  0  0
  -21.2813  -18.5539   22.1968 C   0  0  0  0  0  0  0  0  0  0  0  0
  -23.8091  -28.3351   21.0509 N   0  0  0  0  0  0  0  0  0  0  0  0
  -30.6487  -24.5416   16.4219 N   0  0  0  0  0  0  0  0  0  0  0  0
  -24.6594  -29.3553   20.8450 N   0  0  0  0  0  0  0  0  0  0  0  0
  -24.5727  -17.2109   22.6742 N   0  0  0  0  0  0  0  0  0  0  0  0
  -27.1703  -27.6965   18.4927 N   0  0  0  0  0  0  0  0  0  0  0  0
  -25.2320  -31.5214   21.6136 N   0  0  0  0  0  0  0  0  0  0  0  0
  -21.7749  -30.3519   24.2739 N   0  0  0  0  0  0  0  0  0  0  0  0
  -31.0489  -21.6569   18.4724 N   0  0  0  0  0  0  0  0  0  0  0  0
  -24.0893  -14.0496   21.6057 N   0  0  0  0  0  0  0  0  0  0  0  0
  -22.5222  -19.4099   24.2294 N   0  0  0  0  0  0  0  0  0  0  0  0
  -29.3201  -27.1191   17.6912 N   0  0  0  0  0  0  0  0  0  0  0  0
  -24.1417  -21.7473   26.4613 N   0  3  0  0  0  0  0  0  0  0  0  0
  -23.2789  -32.0167   23.7992 O   0  0  0  0  0  0  0  0  0  0  0  0
  -25.2879  -15.6397   20.3984 O   0  0  0  0  0  0  0  0  0  0  0  0
  -22.7190  -16.5669   23.9333 O   0  0  0  0  0  0  0  0  0  0  0  0
  -23.9847  -21.1356   23.7195 O   0  0  0  0  0  0  0  0  0  0  0  0
  -28.7747  -26.7754   19.8911 O   0  0  0  0  0  0  0  0  0  0  0  0
  -18.9554  -25.5507   24.0902 O   0  0  0  0  0  0  0  0  0  0  0  0
  -29.4585  -19.7676   19.9093 O   0  0  0  0  0  0  0  0  0  1  0  0
  -15.6712  -23.0011   20.4685 F   0  0  0  0  0  0  0  0  0  0  0  0
  -16.2324  -26.0270   24.0649 F   0  0  0  0  0  0  0  0  0  0  0  0
  1  2  1  0  0  0  0
  1  5  2  0  0  0  0
  2  6  2  0  0  0  0
  3  8  2  0  0  0  0
  3 17  1  0  0  0  0
  4  9  1  0  0  0  0
  4 17  2  0  0  0  0
  5 19  1  0  0  0  0
  6 21  1  0  0  0  0
  7 10  2  0  0  0  0
  7 20  1  0  0  0  0
  8 24  1  0  0  0  0
  9 24  2  0  0  0  0
 10 25  1  0  0  0  0
 11 12  2  0  0  0  0
 11 26  1  0  0  0  0
 12 27  1  0  0  0  0
 13 22  1  0  0  0  0
 13 25  2  0  0  0  0
 14 23  1  0  0  0  0
 14 30  2  0  0  0  0
 15 27  2  0  0  0  0
 15 28  1  0  0  0  0
 16 23  2  0  0  0  0
 16 63  1  0  0  0  0
 17 29  1  0  0  0  0
 18 29  1  0  0  0  0
 18 31  2  0  0  0  0
 18 32  1  0  0  0  0
 19 21  2  0  0  0  0
 19 37  1  0  0  0  0
 20 22  2  0  0  0  0
 20 38  1  0  0  0  0
 21 46  1  0  0  0  0
 22 39  1  0  0  0  0
 23 69  1  0  0  0  0
 24 79  1  0  0  0  0
 25 80  1  0  0  0  0
 26 28  2  0  0  0  0
 26 79  1  0  0  0  0
 27 81  1  0  0  0  0
 28 82  1  0  0  0  0
 29 62  2  0  0  0  0
 30 56  1  0  0  0  0
 30 63  1  0  0  0  0
 31 64  1  0  0  0  0
 31 67  1  0  0  0  0
 32 68  1  0  0  0  0
 32 74  2  0  0  0  0
 33 47  1  0  0  0  0
 33 70  1  0  0  0  0
 33 75  2  0  0  0  0
 34 58  1  0  0  0  0
 34 65  1  0  0  0  0
 34 76  2  0  0  0  0
 35 59  1  0  0  0  0
 35 71  1  0  0  0  0
 35 77  2  0  0  0  0
 36 66  1  0  0  0  0
 36 72  1  0  0  0  0
 36 78  2  0  0  0  0
 37 40  1  0  0  0  0
 38 47  1  0  0  0  0
 39 65  1  0  0  0  0
 40 42  1  0  0  0  0
 41 43  1  0  0  0  0
 41 44  1  0  0  0  0
 42 46  1  0  0  0  0
 43 48  1  0  0  0  0
 44 66  1  0  0  0  0
 45 48  1  0  0  0  0
 45 66  1  0  0  0  0
 46 70  1  0  0  0  0
 47 65  1  0  0  0  0
 48 64  1  0  0  0  0
 49 59  1  0  0  0  0
 50 60  1  0  0  0  0
 51 61  1  0  0  0  0
 52 61  1  0  0  0  0
 53 61  1  0  0  0  0
 54 63  1  0  0  0  0
 55 73  1  0  0  0  0
 56 72  1  0  0  0  0
 57 60  1  0  0  0  0
 57 80  1  0  0  0  0
 58 61  1  0  0  0  0
 58 71  1  0  0  0  0
 59 73  1  0  0  0  0
 60 69  1  0  0  0  0
 62 64  1  0  0  0  0
M  CHG  1  73   1
M  ISO  4  36 100  57 101  72 100  80 101
M  END
> <Batch ID>
0104

> <Smiles>
CNC(C)C(=O)NC(C(=O)N1Cc2cc([101O:1][101CH2:1]C(C)Nc3cc(C[100NH:0][100C:0](=O)N4CCCC(n5nc(-c6ccc(Oc7ccc(F)cc7F)cc6)c(C(N)=O)c5N)C4)n(C)c3)ccc2CC1C(=O)NC1CCCc2ccccc21)C(C)(C)C

> <Shape>
0.214

> <Color>
0.073

> <Negative vol penalty>
0.000

$$$$

  -OEChem-04052319433D

 85 93  0     1  0  0  0  0  0999 V2000
  -17.3513  -23.8260   30.1008 C   0  0  0  0  0  0  0  0  0  0  0  0
  -18.6464  -23.3210   30.0459 C   0  0  0  0  0  0  0  0  0  0  0  0
  -23.1907   -9.8188   19.9309 C   0  0  0  0  0  0  0  0  0  0  0  0
  -23.5665   -9.9999   22.3106 C   0  0  0  0  0  0  0  0  0  0  0  0
  -16.2647  -22.9803   29.8819 C   0  0  0  0  0  0  0  0  0  0  0  0
  -18.8556  -21.9696   29.7731 C   0  0  0  0  0  0  0  0  0  0  0  0
  -23.5060  -17.5808   26.5437 C   0  0  0  0  0  0  0  0  0  0  0  0
  -22.4242   -8.6722   20.1392 C   0  0  0  0  0  0  0  0  0  0  0  0
  -22.7999   -8.8533   22.5189 C   0  0  0  0  0  0  0  0  0  0  0  0
  -24.2515  -16.4294   26.7929 C   0  0  0  0  0  0  0  0  0  0  0  0
  -23.2013   -5.5066   22.2563 C   0  0  0  0  0  0  0  0  0  0  0  0
  -23.6987   -4.5455   23.1363 C   0  0  0  0  0  0  0  0  0  0  0  0
  -22.3015  -15.0790   26.3532 C   0  0  0  0  0  0  0  0  0  0  0  0
  -21.7407   -4.8060   24.5276 C   0  0  0  0  0  0  0  0  0  0  0  0
  -23.7619  -10.4826   21.0166 C   0  0  0  0  0  0  0  0  0  0  0  0
  -24.1009  -12.9992   20.7724 C   0  0  0  0  0  0  0  0  0  0  0  0
  -16.4610  -21.6198   29.5968 C   0  0  0  0  0  0  0  0  0  0  0  0
  -22.1476  -17.4904   26.2074 C   0  0  0  0  0  0  0  0  0  0  0  0
  -17.7706  -21.1046   29.5516 C   0  0  0  0  0  0  0  0  0  0  0  0
  -21.5416  -16.2306   26.0977 C   0  0  0  0  0  0  0  0  0  0  0  0
  -22.2288   -8.1895   21.4332 C   0  0  0  0  0  0  0  0  0  0  0  0
  -23.6486  -15.1783   26.7005 C   0  0  0  0  0  0  0  0  0  0  0  0
  -21.9735   -6.1174   22.5119 C   0  0  0  0  0  0  0  0  0  0  0  0
  -22.9684   -4.1952   24.2719 C   0  0  0  0  0  0  0  0  0  0  0  0
  -21.2433   -5.7671   23.6475 C   0  0  0  0  0  0  0  0  0  0  0  0
  -24.5543  -11.6668   20.8020 C   0  0  0  0  0  0  0  0  0  0  0  0
  -25.2323  -13.7418   20.5380 C   0  0  0  0  0  0  0  0  0  0  0  0
  -22.7755  -13.5192   20.9417 C   0  0  0  0  0  0  0  0  0  0  0  0
  -19.4382  -18.5035   27.5252 C   0  0  0  0  0  0  0  0  0  0  0  0
  -18.1337  -17.3641   24.7826 C   0  0  0  0  0  0  0  0  0  0  0  0
  -18.3745  -15.2359   22.1256 C   0  0  0  0  0  0  0  0  0  0  0  0
  -31.0460  -12.7521   21.5736 C   0  0  0  0  0  0  0  0  0  0  0  0
  -15.2536  -20.7348   29.4141 C   0  0  0  0  0  0  0  0  0  0  0  0
  -21.3640  -18.7406   25.9155 C   0  0  0  0  0  0  0  0  0  0  0  0
  -20.0915  -16.0784   25.7202 C   0  0  0  0  0  0  0  0  0  0  0  0
  -15.5751  -19.3931   28.7607 C   0  0  0  0  0  0  0  0  0  0  0  0
  -29.5219  -13.4685   18.4366 C   0  0  0  0  0  0  0  0  0  0  0  0
  -16.8014  -18.7622   29.4126 C   0  0  0  0  0  0  0  0  0  0  0  0
  -28.0350  -13.2082   18.6845 C   0  0  0  0  0  0  0  0  0  0  0  0
  -28.0521  -13.8026   27.6781 C   0  0  0  0  0  0  0  0  0  0  0  0
  -27.6021  -12.9682   25.3281 C   0  0  0  0  0  0  0  0  0  0  0  0
  -26.5492  -13.8760   27.9363 C   0  0  0  0  0  0  0  0  0  0  0  0
  -26.1002  -13.0440   25.5919 C   0  0  0  0  0  0  0  0  0  0  0  0
  -30.4024  -12.4793   19.1971 C   0  0  0  0  0  0  0  0  0  0  0  0
  -28.6471  -12.1371   20.8928 C   0  0  0  0  0  0  0  0  0  0  0  0
  -18.0391  -19.6496   29.2340 C   0  0  1  0  0  0  0  0  0  0  0  0
  -19.8591  -18.5555   26.0837 C   0  0  1  0  0  0  0  0  0  0  0  0
  -27.7204  -13.1447   20.1912 C   0  0  2  0  0  0  0  0  0  0  0  0
  -28.3709  -12.7403   26.6280 C   0  0  0  0  0  0  0  0  0  0  0  0
  -25.7647  -14.1009   26.6446 C   0  0  0  0  0  0  0  0  0  1  0  0
  -17.7742  -14.1690   19.9349 C   0  0  0  0  0  0  0  0  0  0  0  0
  -31.8449  -10.5650   27.6344 C   0  0  0  0  0  0  0  0  0  0  0  0
  -30.3120   -9.0047   26.4156 C   0  0  0  0  0  0  0  0  0  0  0  0
  -32.2153  -10.5983   24.2484 C   0  0  0  0  0  0  0  0  0  0  0  0
  -16.2297  -15.7268   26.5158 C   0  0  0  0  0  0  0  0  0  0  0  0
  -15.6938  -14.3439   24.4987 C   0  0  0  0  0  0  0  0  0  0  0  0
  -15.1694  -16.7827   24.5120 C   0  0  0  0  0  0  0  0  0  0  0  0
  -19.9326  -17.2323   20.5939 C   0  0  0  0  0  0  0  0  0  0  0  0
  -31.5337  -13.0040   23.9939 C   0  0  0  0  0  0  0  0  0  0  0  0
  -17.5777  -16.0337   24.3353 C   0  0  1  0  0  0  0  0  0  0  0  0
  -18.1762  -15.4569   20.6368 C   0  0  2  0  0  0  0  0  0  0  0  0
  -30.5069  -10.4476   26.8912 C   0  0  0  0  0  0  0  0  0  0  0  0
  -31.6750  -11.8314   24.9877 C   0  0  1  0  0  0  0  0  0  0  0  0
  -30.3664  -11.5099   25.7661 C   0  0  2  0  0  0  0  0  0  0  0  0
  -16.1945  -15.7244   24.9745 C   0  0  0  0  0  0  0  0  0  0  0  0
  -25.8710  -11.5656   20.6023 N   0  0  0  0  0  0  0  0  0  0  0  0
  -26.2547  -12.8439   20.4448 N   0  0  0  0  0  0  0  0  0  0  0  0
  -19.3660  -17.3307   25.4505 N   0  0  0  0  0  0  0  0  0  0  0  0
  -30.0544  -12.4687   20.6200 N   0  0  0  0  0  0  0  0  0  0  0  0
  -25.4424  -15.0686   20.4046 N   0  0  0  0  0  0  0  0  0  0  0  0
  -21.7286  -12.6170   21.1749 N   0  0  0  0  0  0  0  0  0  0  0  0
  -18.5699  -19.5130   27.8946 N   0  0  0  0  0  0  0  0  0  0  0  0
  -17.5683  -16.0648   22.8767 N   0  0  0  0  0  0  0  0  0  0  0  0
  -30.6304  -12.7271   22.8992 N   0  0  0  0  0  0  0  0  0  0  0  0
  -29.8287  -12.7733   26.3370 N   0  3  0  0  0  0  0  0  0  0  0  0
  -19.4347  -15.9577   20.0153 N   0  3  0  0  0  0  0  0  0  0  0  0
  -22.5244  -14.7462   20.8714 O   0  0  0  0  0  0  0  0  0  0  0  0
  -19.8682  -17.6126   28.2484 O   0  0  0  0  0  0  0  0  0  0  0  0
  -17.5015  -18.3955   24.5417 O   0  0  0  0  0  0  0  0  0  0  0  0
  -19.1628  -14.4080   22.5769 O   0  0  0  0  0  0  0  0  0  0  0  0
  -32.2139  -13.0136   21.2660 O   0  0  0  0  0  0  0  0  0  0  0  0
  -21.4807   -7.0708   21.6368 O   0  0  0  0  0  0  0  0  0  0  0  0
  -24.3738  -14.0528   26.9439 O   0  0  0  0  0  0  0  0  0  1  0  0
  -23.4455   -3.2711   25.1161 F   0  0  0  0  0  0  0  0  0  0  0  0
  -20.0627   -6.3496   23.8978 F   0  0  0  0  0  0  0  0  0  0  0  0
  1  2  1  0  0  0  0
  1  5  2  0  0  0  0
  2  6  2  0  0  0  0
  3  8  2  0  0  0  0
  3 15  1  0  0  0  0
  4  9  1  0  0  0  0
  4 15  2  0  0  0  0
  5 17  1  0  0  0  0
  6 19  1  0  0  0  0
  7 10  2  0  0  0  0
  7 18  1  0  0  0  0
  8 21  1  0  0  0  0
  9 21  2  0  0  0  0
 10 22  1  0  0  0  0
 11 12  2  0  0  0  0
 11 23  1  0  0  0  0
 12 24  1  0  0  0  0
 13 20  1  0  0  0  0
 13 22  2  0  0  0  0
 14 24  2  0  0  0  0
 14 25  1  0  0  0  0
 15 26  1  0  0  0  0
 16 26  1  0  0  0  0
 16 27  2  0  0  0  0
 16 28  1  0  0  0  0
 17 19  2  0  0  0  0
 17 33  1  0  0  0  0
 18 20  2  0  0  0  0
 18 34  1  0  0  0  0
 19 46  1  0  0  0  0
 20 35  1  0  0  0  0
 21 82  1  0  0  0  0
 22 83  1  0  0  0  0
 23 25  2  0  0  0  0
 23 82  1  0  0  0  0
 24 84  1  0  0  0  0
 25 85  1  0  0  0  0
 26 66  2  0  0  0  0
 27 67  1  0  0  0  0
 27 70  1  0  0  0  0
 28 71  1  0  0  0  0
 28 77  2  0  0  0  0
 29 47  1  0  0  0  0
 29 72  1  0  0  0  0
 29 78  2  0  0  0  0
 30 60  1  0  0  0  0
 30 68  1  0  0  0  0
 30 79  2  0  0  0  0
 31 61  1  0  0  0  0
 31 73  1  0  0  0  0
 31 80  2  0  0  0  0
 32 69  1  0  0  0  0
 32 74  1  0  0  0  0
 32 81  2  0  0  0  0
 33 36  1  0  0  0  0
 34 47  1  0  0  0  0
 35 68  1  0  0  0  0
 36 38  1  0  0  0  0
 37 39  1  0  0  0  0
 37 44  1  0  0  0  0
 38 46  1  0  0  0  0
 39 48  1  0  0  0  0
 40 42  1  0  0  0  0
 40 49  1  0  0  0  0
 41 43  1  0  0  0  0
 41 49  1  0  0  0  0
 42 50  1  0  0  0  0
 43 50  1  0  0  0  0
 44 69  1  0  0  0  0
 45 48  1  0  0  0  0
 45 69  1  0  0  0  0
 46 72  1  0  0  0  0
 47 68  1  0  0  0  0
 48 67  1  0  0  0  0
 49 75  1  0  0  0  0
 50 83  1  0  0  0  0
 51 61  1  0  0  0  0
 52 62  1  0  0  0  0
 53 62  1  0  0  0  0
 54 63  1  0  0  0  0
 55 65  1  0  0  0  0
 56 65  1  0  0  0  0
 57 65  1  0  0  0  0
 58 76  1  0  0  0  0
 59 63  1  0  0  0  0
 59 74  1  0  0  0  0
 60 65  1  0  0  0  0
 60 73  1  0  0  0  0
 61 76  1  0  0  0  0
 62 64  1  0  0  0  0
 63 64  1  0  0  0  0
 64 75  1  0  0  0  0
 66 67  1  0  0  0  0
M  CHG  2  75   1  76   1
M  ISO  4  32 100  50 101  74 100  83 101
M  END
> <Batch ID>
0104

> <Smiles>
CNC(C)C(=O)NC(C(=O)N1Cc2cc([101O:1][101CH:1]3CCC(NC(C(C)C)C(C)C[100NH:0][100C:0](=O)N4CCCC(n5nc(-c6ccc(Oc7ccc(F)cc7F)cc6)c(C(N)=O)c5N)C4)CC3)ccc2CC1C(=O)NC1CCCc2ccccc21)C(C)(C)C

> <Shape>
0.140

> <Color>
0.175

> <Negative vol penalty>
0.000

$$$$

  -OEChem-04052319433D

 80 87  0     1  0  0  0  0  0999 V2000
  -20.3615  -20.5944   22.5813 C   0  0  0  0  0  0  0  0  0  0  0  0
  -21.6958  -20.6575   22.1925 C   0  0  0  0  0  0  0  0  0  0  0  0
  -27.3038  -13.7191   22.4518 C   0  0  0  0  0  0  0  0  0  0  0  0
  -26.9420  -13.0166   20.1686 C   0  0  0  0  0  0  0  0  0  0  0  0
  -19.5332  -21.7026   22.4089 C   0  0  0  0  0  0  0  0  0  0  0  0
  -22.2023  -21.8287   21.6300 C   0  0  0  0  0  0  0  0  0  0  0  0
  -27.8520  -24.0934   22.3060 C   0  0  0  0  0  0  0  0  0  0  0  0
  -26.7059  -12.5444   22.9080 C   0  0  0  0  0  0  0  0  0  0  0  0
  -26.3441  -11.8419   20.6248 C   0  0  0  0  0  0  0  0  0  0  0  0
  -28.9891  -24.0333   21.5015 C   0  0  0  0  0  0  0  0  0  0  0  0
  -23.3460  -10.8915   21.8655 C   0  0  0  0  0  0  0  0  0  0  0  0
  -22.1584  -10.4892   21.2546 C   0  0  0  0  0  0  0  0  0  0  0  0
  -28.4341  -26.1867   20.5666 C   0  0  0  0  0  0  0  0  0  0  0  0
  -23.2078   -8.4215   20.5760 C   0  0  0  0  0  0  0  0  0  0  0  0
  -27.4218  -13.9553   21.0821 C   0  0  0  0  0  0  0  0  0  0  0  0
  -29.4029  -15.3757   20.3302 C   0  0  0  0  0  0  0  0  0  0  0  0
  -20.0322  -22.8911   21.8530 C   0  0  0  0  0  0  0  0  0  0  0  0
  -26.9902  -25.1975   22.2388 C   0  0  0  0  0  0  0  0  0  0  0  0
  -21.3795  -22.9534   21.4489 C   0  0  0  0  0  0  0  0  0  0  0  0
  -27.2881  -26.2595   21.3732 C   0  0  0  0  0  0  0  0  0  0  0  0
  -26.2260  -11.6058   21.9945 C   0  0  0  0  0  0  0  0  0  0  0  0
  -29.2788  -25.0787   20.6296 C   0  0  0  0  0  0  0  0  0  0  0  0
  -24.4646  -10.0588   21.8316 C   0  0  0  0  0  0  0  0  0  0  0  0
  -22.0892   -9.2543   20.6099 C   0  0  0  0  0  0  0  0  0  0  0  0
  -24.3955   -8.8238   21.1869 C   0  0  0  0  0  0  0  0  0  0  0  0
  -28.0388  -15.1688   20.6102 C   0  0  0  0  0  0  0  0  0  0  0  0
  -29.4738  -16.6833   19.9158 C   0  0  0  0  0  0  0  0  0  0  0  0
  -30.5071  -14.4672   20.4352 C   0  0  0  0  0  0  0  0  0  0  0  0
  -23.9400  -25.6173   21.4489 C   0  0  0  0  0  0  0  0  0  0  0  0
  -24.5039  -28.6519   22.4469 C   0  0  0  0  0  0  0  0  0  0  0  0
  -26.7681  -31.1413   23.0152 C   0  0  0  0  0  0  0  0  0  0  0  0
  -27.5980  -20.8099   16.8499 C   0  0  0  0  0  0  0  0  0  0  0  0
  -19.0867  -24.0472   21.6429 C   0  0  0  0  0  0  0  0  0  0  0  0
  -25.7820  -25.2593   23.1326 C   0  0  0  0  0  0  0  0  0  0  0  0
  -26.4059  -27.4765   21.2780 C   0  0  0  0  0  0  0  0  0  0  0  0
  -19.7953  -25.3743   21.3844 C   0  0  0  0  0  0  0  0  0  0  0  0
  -26.0288  -20.3840   20.0831 C   0  0  0  0  0  0  0  0  0  0  0  0
  -20.9060  -25.1947   20.3543 C   0  0  0  0  0  0  0  0  0  0  0  0
  -26.5308  -18.9957   20.4843 C   0  0  0  0  0  0  0  0  0  0  0  0
  -25.7402  -20.4563   18.5866 C   0  0  0  0  0  0  0  0  0  0  0  0
  -27.3936  -18.6900   18.1175 C   0  0  0  0  0  0  0  0  0  0  0  0
  -21.9721  -24.2142   20.8579 C   0  0  1  0  0  0  0  0  0  0  0  0
  -24.6987  -26.1972   22.6090 C   0  0  1  0  0  0  0  0  0  0  0  0
  -27.7249  -18.5589   19.6152 C   0  0  2  0  0  0  0  0  0  0  0  0
  -26.9248  -33.5211   23.7956 C   0  0  0  0  0  0  0  0  0  0  0  0
  -32.2306  -23.4754   19.9907 C   0  0  0  0  0  0  0  0  0  0  0  0
  -23.4367  -29.6034   19.7514 C   0  0  0  0  0  0  0  0  0  0  0  0
  -24.4813  -31.8333   20.2036 C   0  0  0  0  0  0  0  0  0  0  0  0
  -22.6906  -30.9685   21.7096 C   0  0  0  0  0  0  0  0  0  0  0  0
  -26.8630  -24.2934   15.6553 C   0  0  0  0  0  0  0  0  0  0  0  0
  -28.4879  -30.3986   25.3064 C   0  0  0  0  0  0  0  0  0  0  0  0
  -30.7329  -23.6206   17.9219 C   0  0  0  0  0  0  0  0  0  0  0  0
  -27.5667  -22.3689   14.2469 C   0  0  0  0  0  0  0  0  0  0  0  0
  -29.1508  -23.2497   16.0251 C   0  0  0  0  0  0  0  0  0  0  0  0
  -24.9901  -29.9207   21.7891 C   0  0  1  0  0  0  0  0  0  0  0  0
  -26.9794  -32.0580   24.2066 C   0  0  2  0  0  0  0  0  0  0  0  0
  -30.8332  -23.7278   19.4401 C   0  0  2  0  0  0  0  0  0  1  0  0
  -23.9155  -30.5578   20.8636 C   0  0  0  0  0  0  0  0  0  0  0  0
  -27.6755  -22.9849   15.6582 C   0  0  1  0  0  0  0  0  0  0  0  0
  -27.2968  -16.2578   20.3923 N   0  0  0  0  0  0  0  0  0  0  0  0
  -28.1977  -17.1615   19.9710 N   0  0  0  0  0  0  0  0  0  0  0  0
  -25.2329  -27.4873   22.1678 N   0  0  0  0  0  0  0  0  0  0  0  0
  -26.9225  -20.0459   17.8160 N   0  0  0  0  0  0  0  0  0  0  0  0
  -30.5027  -17.4591   19.5133 N   0  0  0  0  0  0  0  0  0  0  0  0
  -30.2577  -13.1608   20.8775 N   0  0  0  0  0  0  0  0  0  0  0  0
  -22.8425  -24.8620   21.8155 N   0  0  0  0  0  0  0  0  0  0  0  0
  -25.4422  -30.7924   22.8680 N   0  0  0  0  0  0  0  0  0  0  0  0
  -27.0842  -22.0800   16.6187 N   0  0  0  0  0  0  0  0  0  0  0  0
  -28.1414  -23.2629   13.2100 N   0  3  0  0  0  0  0  0  0  0  0  0
  -28.3055  -31.7951   24.8337 N   0  3  0  0  0  0  0  0  0  0  0  0
  -29.3267  -23.4175   17.4932 N   0  3  0  0  0  0  0  0  0  0  0  0
  -31.6826  -14.8086   20.1612 O   0  0  0  0  0  0  0  0  0  0  0  0
  -24.3212  -25.8400   20.3057 O   0  0  0  0  0  0  0  0  0  0  0  0
  -23.5179  -28.6939   23.1870 O   0  0  0  0  0  0  0  0  0  0  0  0
  -27.6867  -30.7745   22.2858 O   0  0  0  0  0  0  0  0  0  0  0  0
  -28.5897  -20.3929   16.2418 O   0  0  0  0  0  0  0  0  0  0  0  0
  -25.6428  -10.4592   22.4393 O   0  0  0  0  0  0  0  0  0  0  0  0
  -30.3877  -25.0223   19.8427 O   0  0  0  0  0  0  0  0  0  1  0  0
  -20.9482   -8.8674   20.0246 F   0  0  0  0  0  0  0  0  0  0  0  0
  -25.4664   -8.0190   21.1521 F   0  0  0  0  0  0  0  0  0  0  0  0
  1  2  1  0  0  0  0
  1  5  2  0  0  0  0
  2  6  2  0  0  0  0
  3  8  2  0  0  0  0
  3 15  1  0  0  0  0
  4  9  1  0  0  0  0
  4 15  2  0  0  0  0
  5 17  1  0  0  0  0
  6 19  1  0  0  0  0
  7 10  2  0  0  0  0
  7 18  1  0  0  0  0
  8 21  1  0  0  0  0
  9 21  2  0  0  0  0
 10 22  1  0  0  0  0
 11 12  2  0  0  0  0
 11 23  1  0  0  0  0
 12 24  1  0  0  0  0
 13 20  1  0  0  0  0
 13 22  2  0  0  0  0
 14 24  2  0  0  0  0
 14 25  1  0  0  0  0
 15 26  1  0  0  0  0
 16 26  1  0  0  0  0
 16 27  2  0  0  0  0
 16 28  1  0  0  0  0
 17 19  2  0  0  0  0
 17 33  1  0  0  0  0
 18 20  2  0  0  0  0
 18 34  1  0  0  0  0
 19 42  1  0  0  0  0
 20 35  1  0  0  0  0
 21 77  1  0  0  0  0
 22 78  1  0  0  0  0
 23 25  2  0  0  0  0
 23 77  1  0  0  0  0
 24 79  1  0  0  0  0
 25 80  1  0  0  0  0
 26 60  2  0  0  0  0
 27 61  1  0  0  0  0
 27 64  1  0  0  0  0
 28 65  1  0  0  0  0
 28 72  2  0  0  0  0
 29 43  1  0  0  0  0
 29 66  1  0  0  0  0
 29 73  2  0  0  0  0
 30 55  1  0  0  0  0
 30 62  1  0  0  0  0
 30 74  2  0  0  0  0
 31 56  1  0  0  0  0
 31 67  1  0  0  0  0
 31 75  2  0  0  0  0
 32 63  1  0  0  0  0
 32 68  1  0  0  0  0
 32 76  2  0  0  0  0
 33 36  1  0  0  0  0
 34 43  1  0  0  0  0
 35 62  1  0  0  0  0
 36 38  1  0  0  0  0
 37 39  1  0  0  0  0
 37 40  1  0  0  0  0
 38 42  1  0  0  0  0
 39 44  1  0  0  0  0
 40 63  1  0  0  0  0
 41 44  1  0  0  0  0
 41 63  1  0  0  0  0
 42 66  1  0  0  0  0
 43 62  1  0  0  0  0
 44 61  1  0  0  0  0
 45 56  1  0  0  0  0
 46 57  1  0  0  0  0
 47 58  1  0  0  0  0
 48 58  1  0  0  0  0
 49 58  1  0  0  0  0
 50 59  1  0  0  0  0
 51 70  1  0  0  0  0
 52 57  1  0  0  0  0
 52 71  1  0  0  0  0
 53 59  1  0  0  0  0
 53 69  1  0  0  0  0
 54 59  1  0  0  0  0
 54 71  1  0  0  0  0
 55 58  1  0  0  0  0
 55 67  1  0  0  0  0
 56 70  1  0  0  0  0
 57 78  1  0  0  0  0
 59 68  1  0  0  0  0
 60 61  1  0  0  0  0
M  CHG  3  69   1  70   1  71   1
M  ISO  4  32 100  57 101  68 100  78 101
M  END
> <Batch ID>
0104

> <Smiles>
CNC(C)C(=O)NC(C(=O)N1Cc2cc([101O:1][101CH:1](C)CNCC(C)(CN)[100NH:0][100C:0](=O)N3CCCC(n4nc(-c5ccc(Oc6ccc(F)cc6F)cc5)c(C(N)=O)c4N)C3)ccc2CC1C(=O)NC1CCCc2ccccc21)C(C)(C)C

> <Shape>
0.226

> <Color>
0.080

> <Negative vol penalty>
0.000

$$$$

  -OEChem-04052319433D

 81 89  0     1  0  0  0  0  0999 V2000
  -27.8323  -24.3564   16.9544 C   0  0  0  0  0  0  0  0  0  0  0  0
  -26.6521  -24.6229   17.6411 C   0  0  0  0  0  0  0  0  0  0  0  0
  -26.1533  -13.8874   19.2894 C   0  0  0  0  0  0  0  0  0  0  0  0
  -24.1671  -14.1347   20.6425 C   0  0  0  0  0  0  0  0  0  0  0  0
  -29.0477  -24.8254   17.4511 C   0  0  0  0  0  0  0  0  0  0  0  0
  -26.6868  -25.3578   18.8257 C   0  0  0  0  0  0  0  0  0  0  0  0
  -23.0641  -28.8904   19.0273 C   0  0  0  0  0  0  0  0  0  0  0  0
  -26.3109  -12.5836   19.7591 C   0  0  0  0  0  0  0  0  0  0  0  0
  -24.3247  -12.8308   21.1121 C   0  0  0  0  0  0  0  0  0  0  0  0
  -21.7742  -28.4627   19.3390 C   0  0  0  0  0  0  0  0  0  0  0  0
  -23.7214   -9.6958   20.0036 C   0  0  0  0  0  0  0  0  0  0  0  0
  -22.5885   -8.8834   20.0484 C   0  0  0  0  0  0  0  0  0  0  0  0
  -22.0915  -29.1861   21.6183 C   0  0  0  0  0  0  0  0  0  0  0  0
  -20.9868  -22.5545   21.5783 C   0  0  0  0  0  0  0  0  0  0  0  0
  -22.8645   -8.6300   22.4352 C   0  0  0  0  0  0  0  0  0  0  0  0
  -21.5680  -25.1273   22.2774 C   0  0  0  0  0  0  0  0  0  0  0  0
  -25.0814  -14.6631   19.7311 C   0  0  0  0  0  0  0  0  0  0  0  0
  -24.1961  -16.4238   18.1114 C   0  0  0  0  0  0  0  0  0  0  0  0
  -29.0962  -25.5746   18.6373 C   0  0  0  0  0  0  0  0  0  0  0  0
  -23.8826  -29.4603   20.0131 C   0  0  0  0  0  0  0  0  0  0  0  0
  -27.9042  -25.8361   19.3395 C   0  0  0  0  0  0  0  0  0  0  0  0
  -23.3904  -29.6227   21.3160 C   0  0  0  0  0  0  0  0  0  0  0  0
  -19.9490  -23.4578   21.7789 C   0  0  0  0  0  0  0  0  0  0  0  0
  -20.2366  -24.7707   22.1353 C   0  0  0  0  0  0  0  0  0  0  0  0
  -25.3966  -12.0552   20.6704 C   0  0  0  0  0  0  0  0  0  0  0  0
  -21.2888  -28.6078   20.6353 C   0  0  0  0  0  0  0  0  0  0  0  0
  -24.4259   -9.9754   21.1747 C   0  0  0  0  0  0  0  0  0  0  0  0
  -22.1600   -8.3505   21.2641 C   0  0  0  0  0  0  0  0  0  0  0  0
  -23.9974   -9.4425   22.3904 C   0  0  0  0  0  0  0  0  0  0  0  0
  -24.9183  -16.0103   19.2468 C   0  0  0  0  0  0  0  0  0  0  0  0
  -22.2846  -23.0104   21.7451 C   0  0  0  0  0  0  0  0  0  0  0  0
  -24.3479  -17.7887   18.0863 C   0  0  0  0  0  0  0  0  0  0  0  0
  -23.4543  -15.6440   17.1641 C   0  0  0  0  0  0  0  0  0  0  0  0
  -26.6714  -28.6935   21.3316 C   0  0  0  0  0  0  0  0  0  0  0  0
  -26.3339  -31.5739   22.7846 C   0  0  0  0  0  0  0  0  0  0  0  0
  -24.2456  -34.0512   23.8565 C   0  0  0  0  0  0  0  0  0  0  0  0
  -24.7051  -22.3184   21.6520 C   0  0  0  0  0  0  0  0  0  0  0  0
  -30.4389  -26.0199   19.1601 C   0  0  0  0  0  0  0  0  0  0  0  0
  -25.2619  -29.9411   19.6544 C   0  0  0  0  0  0  0  0  0  0  0  0
  -24.2219  -30.2468   22.4057 C   0  0  0  0  0  0  0  0  0  0  0  0
  -30.3470  -27.1110   20.2238 C   0  0  0  0  0  0  0  0  0  0  0  0
  -27.5865  -20.9716   20.0518 C   0  0  0  0  0  0  0  0  0  0  0  0
  -29.2850  -26.7580   21.2603 C   0  0  0  0  0  0  0  0  0  0  0  0
  -27.1232  -19.5952   19.5693 C   0  0  0  0  0  0  0  0  0  0  0  0
  -26.9735  -21.3349   21.4031 C   0  0  0  0  0  0  0  0  0  0  0  0
  -25.0466  -19.8577   20.9856 C   0  0  0  0  0  0  0  0  0  0  0  0
  -27.8981  -26.6509   20.6147 C   0  0  1  0  0  0  0  0  0  0  0  0
  -26.1932  -30.0372   20.8590 C   0  0  1  0  0  0  0  0  0  0  0  0
  -25.5868  -19.4757   19.5978 C   0  0  2  0  0  0  0  0  0  0  0  0
  -18.5391  -22.9989   21.6063 C   0  0  0  0  0  0  0  0  0  0  0  0
  -24.2584  -36.2624   25.0431 C   0  0  0  0  0  0  0  0  0  0  0  0
  -26.7559  -30.1410   25.4451 C   0  0  0  0  0  0  0  0  0  0  0  0
  -25.8302  -32.1603   26.6000 C   0  0  0  0  0  0  0  0  0  0  0  0
  -27.9206  -32.3456   25.2514 C   0  0  0  0  0  0  0  0  0  0  0  0
  -23.0951  -35.4464   21.5137 C   0  0  0  0  0  0  0  0  0  0  0  0
  -19.1506  -25.7911   22.3651 C   0  0  0  0  0  0  0  0  0  0  0  0
  -18.5256  -26.3266   21.0751 C   0  0  0  0  0  0  0  0  0  0  0  0
  -19.5116  -27.0893   20.1978 C   0  0  0  0  0  0  0  0  0  1  0  0
  -25.7046  -32.0561   24.0693 C   0  0  1  0  0  0  0  0  0  0  0  0
  -24.3060  -35.5595   23.6954 C   0  0  2  0  0  0  0  0  0  0  0  0
  -26.5376  -31.6622   25.3216 C   0  0  0  0  0  0  0  0  0  0  0  0
  -22.6030  -24.2779   22.0908 N   0  0  0  0  0  0  0  0  0  0  0  0
  -25.4868  -17.0298   19.8959 N   0  0  0  0  0  0  0  0  0  0  0  0
  -25.1219  -18.0976   19.1659 N   0  0  0  0  0  0  0  0  0  0  0  0
  -25.5663  -30.6954   22.0070 N   0  0  0  0  0  0  0  0  0  0  0  0
  -25.5158  -21.2028   21.3535 N   0  0  0  0  0  0  0  0  0  0  0  0
  -23.8935  -18.7427   17.2461 N   0  0  0  0  0  0  0  0  0  0  0  0
  -23.4010  -14.2544   17.3386 N   0  0  0  0  0  0  0  0  0  0  0  0
  -23.3353  -22.0821   21.5401 N   0  0  0  0  0  0  0  0  0  0  0  0
  -27.3509  -27.9684   20.3714 N   0  0  0  0  0  0  0  0  0  0  0  0
  -25.5051  -33.4927   23.9121 N   0  0  0  0  0  0  0  0  0  0  0  0
  -23.1583  -36.0391   22.8745 N   0  3  0  0  0  0  0  0  0  0  0  0
  -22.8700  -16.1624   16.1826 O   0  0  0  0  0  0  0  0  0  0  0  0
  -26.4421  -28.3412   22.4827 O   0  0  0  0  0  0  0  0  0  0  0  0
  -27.4620  -31.9681   22.4787 O   0  0  0  0  0  0  0  0  0  0  0  0
  -23.1871  -33.4310   23.9298 O   0  0  0  0  0  0  0  0  0  0  0  0
  -25.1909  -23.4109   21.9561 O   0  0  0  0  0  0  0  0  0  0  0  0
  -25.5500  -10.7828   21.1287 O   0  0  0  0  0  0  0  0  0  0  0  0
  -20.0305  -28.1905   20.9424 O   0  0  0  0  0  0  0  0  0  1  0  0
  -21.0712   -7.5715   21.3072 F   0  0  0  0  0  0  0  0  0  0  0  0
  -24.6694   -9.7085   23.5189 F   0  0  0  0  0  0  0  0  0  0  0  0
  1  2  1  0  0  0  0
  1  5  2  0  0  0  0
  2  6  2  0  0  0  0
  3  8  2  0  0  0  0
  3 17  1  0  0  0  0
  4  9  1  0  0  0  0
  4 17  2  0  0  0  0
  5 19  1  0  0  0  0
  6 21  1  0  0  0  0
  7 10  2  0  0  0  0
  7 20  1  0  0  0  0
  8 25  1  0  0  0  0
  9 25  2  0  0  0  0
 10 26  1  0  0  0  0
 11 12  2  0  0  0  0
 11 27  1  0  0  0  0
 12 28  1  0  0  0  0
 13 22  1  0  0  0  0
 13 26  2  0  0  0  0
 14 23  1  0  0  0  0
 14 31  2  0  0  0  0
 15 28  2  0  0  0  0
 15 29  1  0  0  0  0
 16 24  1  0  0  0  0
 16 62  2  0  0  0  0
 17 30  1  0  0  0  0
 18 30  1  0  0  0  0
 18 32  2  0  0  0  0
 18 33  1  0  0  0  0
 19 21  2  0  0  0  0
 19 38  1  0  0  0  0
 20 22  2  0  0  0  0
 20 39  1  0  0  0  0
 21 47  1  0  0  0  0
 22 40  1  0  0  0  0
 23 24  2  0  0  0  0
 23 50  1  0  0  0  0
 24 56  1  0  0  0  0
 25 78  1  0  0  0  0
 26 79  1  0  0  0  0
 27 29  2  0  0  0  0
 27 78  1  0  0  0  0
 28 80  1  0  0  0  0
 29 81  1  0  0  0  0
 30 63  2  0  0  0  0
 31 62  1  0  0  0  0
 31 69  1  0  0  0  0
 32 64  1  0  0  0  0
 32 67  1  0  0  0  0
 33 68  1  0  0  0  0
 33 73  2  0  0  0  0
 34 48  1  0  0  0  0
 34 70  1  0  0  0  0
 34 74  2  0  0  0  0
 35 59  1  0  0  0  0
 35 65  1  0  0  0  0
 35 75  2  0  0  0  0
 36 60  1  0  0  0  0
 36 71  1  0  0  0  0
 36 76  2  0  0  0  0
 37 66  1  0  0  0  0
 37 69  1  0  0  0  0
 37 77  2  0  0  0  0
 38 41  1  0  0  0  0
 39 48  1  0  0  0  0
 40 65  1  0  0  0  0
 41 43  1  0  0  0  0
 42 44  1  0  0  0  0
 42 45  1  0  0  0  0
 43 47  1  0  0  0  0
 44 49  1  0  0  0  0
 45 66  1  0  0  0  0
 46 49  1  0  0  0  0
 46 66  1  0  0  0  0
 47 70  1  0  0  0  0
 48 65  1  0  0  0  0
 49 64  1  0  0  0  0
 51 60  1  0  0  0  0
 52 61  1  0  0  0  0
 53 61  1  0  0  0  0
 54 61  1  0  0  0  0
 55 72  1  0  0  0  0
 56 57  1  0  0  0  0
 57 58  1  0  0  0  0
 58 79  1  0  0  0  0
 59 61  1  0  0  0  0
 59 71  1  0  0  0  0
 60 72  1  0  0  0  0
 63 64  1  0  0  0  0
M  CHG  1  72   1
M  ISO  4  37 100  58 101  69 100  79 101
M  END
> <Batch ID>
0104

> <Smiles>
CNC(C)C(=O)NC(C(=O)N1Cc2cc([101O:1][101CH2:1]CCc3cnc([100NH:0][100C:0](=O)N4CCCC(n5nc(-c6ccc(Oc7ccc(F)cc7F)cc6)c(C(N)=O)c5N)C4)cc3C)ccc2CC1C(=O)NC1CCCc2ccccc21)C(C)(C)C

> <Shape>
0.295

> <Color>
0.091

> <Negative vol penalty>
0.000

$$$$

  -OEChem-04052319433D

 83 91  0     1  0  0  0  0  0999 V2000
  -26.9349  -24.7192   32.6353 C   0  0  0  0  0  0  0  0  0  0  0  0
  -27.7594  -24.2266   31.6288 C   0  0  0  0  0  0  0  0  0  0  0  0
  -23.1899   -9.8182   19.9308 C   0  0  0  0  0  0  0  0  0  0  0  0
  -23.5607  -10.0001   22.3112 C   0  0  0  0  0  0  0  0  0  0  0  0
  -26.1601  -23.8413   33.3922 C   0  0  0  0  0  0  0  0  0  0  0  0
  -27.8104  -22.8557   31.3793 C   0  0  0  0  0  0  0  0  0  0  0  0
  -28.5454  -20.1272   25.9460 C   0  0  0  0  0  0  0  0  0  0  0  0
  -22.4217   -8.6726   20.1379 C   0  0  0  0  0  0  0  0  0  0  0  0
  -22.7925   -8.8544   22.5184 C   0  0  0  0  0  0  0  0  0  0  0  0
  -29.6627  -19.5854   25.3120 C   0  0  0  0  0  0  0  0  0  0  0  0
  -23.1908   -5.5071   22.2582 C   0  0  0  0  0  0  0  0  0  0  0  0
  -23.6853   -4.5459   23.1397 C   0  0  0  0  0  0  0  0  0  0  0  0
  -29.0550  -17.3969   26.1246 C   0  0  0  0  0  0  0  0  0  0  0  0
  -21.7245   -4.8091   24.5266 C   0  0  0  0  0  0  0  0  0  0  0  0
  -33.2574  -15.3229   23.8146 C   0  0  0  0  0  0  0  0  0  0  0  0
  -23.7595  -10.4820   21.0174 C   0  0  0  0  0  0  0  0  0  0  0  0
  -24.1017  -12.9981   20.7728 C   0  0  0  0  0  0  0  0  0  0  0  0
  -26.1943  -22.4598   33.1454 C   0  0  0  0  0  0  0  0  0  0  0  0
  -27.6791  -19.3083   26.6844 C   0  0  0  0  0  0  0  0  0  0  0  0
  -27.0363  -21.9583   32.1345 C   0  0  0  0  0  0  0  0  0  0  0  0
  -27.9260  -17.9303   26.7649 C   0  0  0  0  0  0  0  0  0  0  0  0
  -33.4240  -14.6957   22.5996 C   0  0  0  0  0  0  0  0  0  0  0  0
  -33.7794  -15.6902   21.6554 C   0  0  0  0  0  0  0  0  0  0  0  0
  -22.2230   -8.1907   21.4317 C   0  0  0  0  0  0  0  0  0  0  0  0
  -29.9192  -18.2205   25.4036 C   0  0  0  0  0  0  0  0  0  0  0  0
  -21.9632   -6.1194   22.5108 C   0  0  0  0  0  0  0  0  0  0  0  0
  -22.9522   -4.1969   24.2739 C   0  0  0  0  0  0  0  0  0  0  0  0
  -21.2301   -5.7703   23.6450 C   0  0  0  0  0  0  0  0  0  0  0  0
  -24.5536  -11.6652   20.8040 C   0  0  0  0  0  0  0  0  0  0  0  0
  -33.8195  -16.8949   22.3221 C   0  0  0  0  0  0  0  0  0  0  0  0
  -25.2345  -13.7393   20.5406 C   0  0  0  0  0  0  0  0  0  0  0  0
  -22.7765  -13.5195   20.9389 C   0  0  0  0  0  0  0  0  0  0  0  0
  -26.7795  -19.1648   29.7297 C   0  0  0  0  0  0  0  0  0  0  0  0
  -24.7413  -16.9005   28.6157 C   0  0  0  0  0  0  0  0  0  0  0  0
  -24.0179  -14.5796   26.2205 C   0  0  0  0  0  0  0  0  0  0  0  0
  -30.9273  -12.6920   21.7026 C   0  0  0  0  0  0  0  0  0  0  0  0
  -25.3746  -21.5454   34.0211 C   0  0  0  0  0  0  0  0  0  0  0  0
  -26.4636  -19.9039   27.3402 C   0  0  0  0  0  0  0  0  0  0  0  0
  -27.0156  -17.0048   27.5285 C   0  0  0  0  0  0  0  0  0  0  0  0
  -25.2030  -20.1424   33.4446 C   0  0  0  0  0  0  0  0  0  0  0  0
  -29.5317  -13.4570   18.4522 C   0  0  0  0  0  0  0  0  0  0  0  0
  -26.5395  -19.6038   32.9440 C   0  0  0  0  0  0  0  0  0  0  0  0
  -28.0421  -13.2067   18.6943 C   0  0  0  0  0  0  0  0  0  0  0  0
  -30.3915  -12.4449   19.2037 C   0  0  0  0  0  0  0  0  0  0  0  0
  -28.6446  -12.1349   20.9142 C   0  0  0  0  0  0  0  0  0  0  0  0
  -27.1002  -20.4800   31.8173 C   0  0  1  0  0  0  0  0  0  0  0  0
  -25.9321  -19.0584   28.4935 C   0  0  1  0  0  0  0  0  0  0  0  0
  -27.7226  -13.1394   20.1994 C   0  0  2  0  0  0  0  0  0  0  0  0
  -34.1342  -18.2507   21.8242 C   0  0  0  0  0  0  0  0  0  0  0  0
  -33.1848  -15.7280   17.8409 C   0  0  0  0  0  0  0  0  0  0  0  0
  -22.6858  -12.8543   24.9769 C   0  0  0  0  0  0  0  0  0  0  0  0
  -25.8506  -15.0282   30.7544 C   0  0  0  0  0  0  0  0  0  0  0  0
  -24.8309  -13.1120   29.5067 C   0  0  0  0  0  0  0  0  0  0  0  0
  -23.3721  -14.9053   30.4440 C   0  0  0  0  0  0  0  0  0  0  0  0
  -22.7037  -16.6344   24.5443 C   0  0  0  0  0  0  0  0  0  0  0  0
  -34.0566  -15.4774   20.2197 C   0  0  0  0  0  0  0  0  0  0  0  0
  -33.2589  -13.2514   22.3410 C   0  0  0  0  0  0  0  0  0  0  0  0
  -32.8832  -15.9127   19.3197 C   0  0  0  0  0  0  0  0  0  0  0  0
  -33.4235  -17.6984   24.7262 C   0  0  0  0  0  0  0  0  0  0  0  0
  -32.1506  -18.5338   24.6430 C   0  0  0  0  0  0  0  0  0  1  0  0
  -24.8068  -15.4047   28.4231 C   0  0  1  0  0  0  0  0  0  0  0  0
  -22.7471  -14.3023   25.4378 C   0  0  2  0  0  0  0  0  0  0  0  0
  -24.7335  -14.6300   29.7692 C   0  0  0  0  0  0  0  0  0  0  0  0
  -25.8707  -11.5625   20.6072 N   0  0  0  0  0  0  0  0  0  0  0  0
  -33.5007  -16.6594   23.6340 N   0  0  0  0  0  0  0  0  0  0  0  0
  -26.2561  -12.8403   20.4500 N   0  0  0  0  0  0  0  0  0  0  0  0
  -25.8436  -17.6359   28.1575 N   0  0  0  0  0  0  0  0  0  0  0  0
  -30.0507  -12.4438   20.6333 N   0  0  0  0  0  0  0  0  0  0  0  0
  -25.4463  -15.0658   20.4070 N   0  0  0  0  0  0  0  0  0  0  0  0
  -21.7281  -12.6186   21.1703 N   0  0  0  0  0  0  0  0  0  0  0  0
  -26.4187  -20.1992   30.5719 N   0  0  0  0  0  0  0  0  0  0  0  0
  -23.7451  -15.0675   27.4810 N   0  0  0  0  0  0  0  0  0  0  0  0
  -32.2427  -12.9697   21.3515 N   0  0  0  0  0  0  0  0  0  0  0  0
  -22.6765  -15.1813   24.2364 N   0  3  0  0  0  0  0  0  0  0  0  0
  -22.5269  -14.7468   20.8675 O   0  0  0  0  0  0  0  0  0  0  0  0
  -27.6922  -18.3665   29.9071 O   0  0  0  0  0  0  0  0  0  0  0  0
  -23.7455  -17.3988   29.1464 O   0  0  0  0  0  0  0  0  0  0  0  0
  -25.1401  -14.3796   25.7612 O   0  0  0  0  0  0  0  0  0  0  0  0
  -30.5634  -12.6730   22.8834 O   0  0  0  0  0  0  0  0  0  0  0  0
  -21.4732   -7.0729   21.6342 O   0  0  0  0  0  0  0  0  0  0  0  0
  -31.0094  -17.6892   24.7863 O   0  0  0  0  0  0  0  0  0  1  0  0
  -23.4264   -3.2727   25.1196 F   0  0  0  0  0  0  0  0  0  0  0  0
  -20.0495   -6.3542   23.8924 F   0  0  0  0  0  0  0  0  0  0  0  0
  1  2  1  0  0  0  0
  1  5  2  0  0  0  0
  2  6  2  0  0  0  0
  3  8  2  0  0  0  0
  3 16  1  0  0  0  0
  4  9  1  0  0  0  0
  4 16  2  0  0  0  0
  5 18  1  0  0  0  0
  6 20  1  0  0  0  0
  7 10  2  0  0  0  0
  7 19  1  0  0  0  0
  8 24  1  0  0  0  0
  9 24  2  0  0  0  0
 10 25  1  0  0  0  0
 11 12  2  0  0  0  0
 11 26  1  0  0  0  0
 12 27  1  0  0  0  0
 13 21  1  0  0  0  0
 13 25  2  0  0  0  0
 14 27  2  0  0  0  0
 14 28  1  0  0  0  0
 15 22  2  0  0  0  0
 15 65  1  0  0  0  0
 16 29  1  0  0  0  0
 17 29  1  0  0  0  0
 17 31  2  0  0  0  0
 17 32  1  0  0  0  0
 18 20  2  0  0  0  0
 18 37  1  0  0  0  0
 19 21  2  0  0  0  0
 19 38  1  0  0  0  0
 20 46  1  0  0  0  0
 21 39  1  0  0  0  0
 22 23  1  0  0  0  0
 22 57  1  0  0  0  0
 23 30  2  0  0  0  0
 23 56  1  0  0  0  0
 24 80  1  0  0  0  0
 25 81  1  0  0  0  0
 26 28  2  0  0  0  0
 26 80  1  0  0  0  0
 27 82  1  0  0  0  0
 28 83  1  0  0  0  0
 29 64  2  0  0  0  0
 30 49  1  0  0  0  0
 30 65  1  0  0  0  0
 31 66  1  0  0  0  0
 31 69  1  0  0  0  0
 32 70  1  0  0  0  0
 32 75  2  0  0  0  0
 33 47  1  0  0  0  0
 33 71  1  0  0  0  0
 33 76  2  0  0  0  0
 34 61  1  0  0  0  0
 34 67  1  0  0  0  0
 34 77  2  0  0  0  0
 35 62  1  0  0  0  0
 35 72  1  0  0  0  0
 35 78  2  0  0  0  0
 36 68  1  0  0  0  0
 36 73  1  0  0  0  0
 36 79  2  0  0  0  0
 37 40  1  0  0  0  0
 38 47  1  0  0  0  0
 39 67  1  0  0  0  0
 40 42  1  0  0  0  0
 41 43  1  0  0  0  0
 41 44  1  0  0  0  0
 42 46  1  0  0  0  0
 43 48  1  0  0  0  0
 44 68  1  0  0  0  0
 45 48  1  0  0  0  0
 45 68  1  0  0  0  0
 46 71  1  0  0  0  0
 47 67  1  0  0  0  0
 48 66  1  0  0  0  0
 50 58  1  0  0  0  0
 51 62  1  0  0  0  0
 52 63  1  0  0  0  0
 53 63  1  0  0  0  0
 54 63  1  0  0  0  0
 55 74  1  0  0  0  0
 56 58  1  0  0  0  0
 57 73  1  0  0  0  0
 59 60  1  0  0  0  0
 59 65  1  0  0  0  0
 60 81  1  0  0  0  0
 61 63  1  0  0  0  0
 61 72  1  0  0  0  0
 62 74  1  0  0  0  0
 64 66  1  0  0  0  0
M  CHG  1  74   1
M  ISO  4  36 100  60 101  73 100  81 101
M  END
> <Batch ID>
0104

> <Smiles>
CCCc1c(C[100NH:0][100C:0](=O)N2CCCC(n3nc(-c4ccc(Oc5ccc(F)cc5F)cc4)c(C(N)=O)c3N)C2)cn(C[101CH2:1][101O:1]c2ccc3c(c2)CN(C(=O)C(NC(=O)C(C)NC)C(C)(C)C)C(C(=O)NC2CCCc4ccccc42)C3)c1C

> <Shape>
0.144

> <Color>
0.186

> <Negative vol penalty>
0.000

$$$$

  -OEChem-04052319433D

 86 94  0     1  0  0  0  0  0999 V2000
  -31.4058  -32.7789   13.6372 C   0  0  0  0  0  0  0  0  0  0  0  0
  -31.4381  -31.6109   14.3923 C   0  0  0  0  0  0  0  0  0  0  0  0
  -26.5707  -11.3935   21.1279 C   0  0  0  0  0  0  0  0  0  0  0  0
  -25.7001  -13.0788   19.6316 C   0  0  0  0  0  0  0  0  0  0  0  0
  -30.9577  -33.9673   14.2123 C   0  0  0  0  0  0  0  0  0  0  0  0
  -31.0234  -31.6310   15.7235 C   0  0  0  0  0  0  0  0  0  0  0  0
  -28.1385  -27.1553   18.7486 C   0  0  0  0  0  0  0  0  0  0  0  0
  -25.2697  -11.0240   21.4689 C   0  0  0  0  0  0  0  0  0  0  0  0
  -24.3990  -12.7093   19.9726 C   0  0  0  0  0  0  0  0  0  0  0  0
  -28.5934  -26.1709   19.6248 C   0  0  0  0  0  0  0  0  0  0  0  0
  -22.7702   -9.1840   20.1273 C   0  0  0  0  0  0  0  0  0  0  0  0
  -22.4741   -7.8217   20.1730 C   0  0  0  0  0  0  0  0  0  0  0  0
  -27.9994  -27.5713   21.4970 C   0  0  0  0  0  0  0  0  0  0  0  0
  -21.8781   -8.0294   22.5051 C   0  0  0  0  0  0  0  0  0  0  0  0
  -26.7860  -12.4209   20.2093 C   0  0  0  0  0  0  0  0  0  0  0  0
  -28.9158  -12.2820   18.8122 C   0  0  0  0  0  0  0  0  0  0  0  0
  -30.5282  -33.9999   15.5484 C   0  0  0  0  0  0  0  0  0  0  0  0
  -27.6198  -28.3616   19.2407 C   0  0  0  0  0  0  0  0  0  0  0  0
  -30.5704  -32.8213   16.3174 C   0  0  0  0  0  0  0  0  0  0  0  0
  -27.5362  -28.5684   20.6250 C   0  0  0  0  0  0  0  0  0  0  0  0
  -24.1838  -11.6819   20.8912 C   0  0  0  0  0  0  0  0  0  0  0  0
  -28.5265  -26.3799   20.9992 C   0  0  0  0  0  0  0  0  0  0  0  0
  -22.6204   -9.9690   21.2706 C   0  0  0  0  0  0  0  0  0  0  0  0
  -22.0280   -7.2444   21.3618 C   0  0  0  0  0  0  0  0  0  0  0  0
  -22.1743   -9.3917   22.4595 C   0  0  0  0  0  0  0  0  0  0  0  0
  -28.1298  -12.8034   19.8572 C   0  0  0  0  0  0  0  0  0  0  0  0
  -30.1010  -12.9710   18.8973 C   0  0  0  0  0  0  0  0  0  0  0  0
  -28.6027  -11.2657   17.8505 C   0  0  0  0  0  0  0  0  0  0  0  0
  -28.4395  -31.4227   18.9925 C   0  0  0  0  0  0  0  0  0  0  0  0
  -25.6497  -31.8951   20.5789 C   0  0  0  0  0  0  0  0  0  0  0  0
  -23.2541  -30.6441   22.6629 C   0  0  0  0  0  0  0  0  0  0  0  0
  -28.7853  -17.2553   19.2551 C   0  0  0  0  0  0  0  0  0  0  0  0
  -30.0967  -35.3183   16.1402 C   0  0  0  0  0  0  0  0  0  0  0  0
  -27.1086  -29.4026   18.2828 C   0  0  0  0  0  0  0  0  0  0  0  0
  -26.9692  -29.8377   21.2044 C   0  0  0  0  0  0  0  0  0  0  0  0
  -29.3213  -35.1746   17.4472 C   0  0  0  0  0  0  0  0  0  0  0  0
  -29.8963  -16.1245   22.4132 C   0  0  0  0  0  0  0  0  0  0  0  0
  -30.0261  -34.1960   18.3813 C   0  0  0  0  0  0  0  0  0  0  0  0
  -29.2837  -21.6892   22.1637 C   0  0  0  0  0  0  0  0  0  0  0  0
  -27.2342  -22.2509   20.7926 C   0  0  0  0  0  0  0  0  0  0  0  0
  -30.9757  -15.1254   21.9864 C   0  0  0  0  0  0  0  0  0  0  0  0
  -29.4534  -23.1658   22.5080 C   0  0  0  0  0  0  0  0  0  0  0  0
  -27.4099  -23.7261   21.1403 C   0  0  0  0  0  0  0  0  0  0  0  0
  -29.8789  -17.3803   21.5448 C   0  0  0  0  0  0  0  0  0  0  0  0
  -30.9635  -16.1607   19.6956 C   0  0  0  0  0  0  0  0  0  0  0  0
  -30.1053  -32.7975   17.7573 C   0  0  1  0  0  0  0  0  0  0  0  0
  -27.0746  -30.8037   18.8853 C   0  0  1  0  0  0  0  0  0  0  0  0
  -27.8157  -21.3397   21.8824 C   0  0  0  0  0  0  0  0  0  0  0  0
  -30.9876  -14.8267   20.4705 C   0  0  2  0  0  0  0  0  0  0  0  0
  -28.8710  -24.0686   21.4238 C   0  0  0  0  0  0  0  0  0  1  0  0
  -21.1146  -31.2790   23.8104 C   0  0  0  0  0  0  0  0  0  0  0  0
  -25.1508  -19.7813   17.3434 C   0  0  0  0  0  0  0  0  0  0  0  0
  -27.6241  -19.7295   16.9490 C   0  0  0  0  0  0  0  0  0  0  0  0
  -27.7302  -19.3191   24.0159 C   0  0  0  0  0  0  0  0  0  0  0  0
  -27.6013  -17.4602   22.3431 C   0  0  0  0  0  0  0  0  0  0  0  0
  -27.2296  -33.5267   22.6165 C   0  0  0  0  0  0  0  0  0  0  0  0
  -25.2870  -33.3221   24.1826 C   0  0  0  0  0  0  0  0  0  0  0  0
  -25.0086  -34.4968   21.9997 C   0  0  0  0  0  0  0  0  0  0  0  0
  -21.7358  -28.5297   21.2547 C   0  0  0  0  0  0  0  0  0  0  0  0
  -28.4302  -19.5854   20.1728 C   0  0  0  0  0  0  0  0  0  0  0  0
  -26.6624  -18.4493   18.8805 C   0  0  0  0  0  0  0  0  0  0  0  0
  -25.2469  -31.9800   22.0313 C   0  0  1  0  0  0  0  0  0  0  0  0
  -21.7387  -30.6505   22.5742 C   0  0  2  0  0  0  0  0  0  0  0  0
  -27.6773  -19.8706   21.4875 C   0  0  1  0  0  0  0  0  0  0  0  0
  -26.5253  -19.7047   18.0120 C   0  0  0  0  0  0  0  0  0  0  0  0
  -28.1220  -18.8780   22.6029 C   0  0  0  0  0  0  0  0  0  0  0  0
  -25.7056  -33.3082   22.6969 C   0  0  0  0  0  0  0  0  0  0  0  0
  -28.7623  -13.7505   20.5550 N   0  0  0  0  0  0  0  0  0  0  0  0
  -29.9584  -13.8295   19.9474 N   0  0  0  0  0  0  0  0  0  0  0  0
  -26.4882  -30.8279   20.2269 N   0  0  0  0  0  0  0  0  0  0  0  0
  -29.8645  -17.0281   20.1213 N   0  0  0  0  0  0  0  0  0  0  0  0
  -31.2407  -12.9201   18.1756 N   0  0  0  0  0  0  0  0  0  0  0  0
  -27.3397  -10.6606   17.9050 N   0  0  0  0  0  0  0  0  0  0  0  0
  -28.8300  -32.1223   17.8667 N   0  0  0  0  0  0  0  0  0  0  0  0
  -23.8052  -31.7597   22.0686 N   0  0  0  0  0  0  0  0  0  0  0  0
  -27.9652  -18.3608   19.5245 N   0  0  0  0  0  0  0  0  0  0  0  0
  -21.2217  -29.2590   22.4425 N   0  3  0  0  0  0  0  0  0  0  0  0
  -29.4247  -10.8934   16.9791 O   0  0  0  0  0  0  0  0  0  0  0  0
  -29.0896  -31.2777   20.0211 O   0  0  0  0  0  0  0  0  0  0  0  0
  -25.2300  -32.7404   19.7845 O   0  0  0  0  0  0  0  0  0  0  0  0
  -23.8857  -29.7418   23.2083 O   0  0  0  0  0  0  0  0  0  0  0  0
  -28.5666  -16.5157   18.2869 O   0  0  0  0  0  0  0  0  0  0  0  0
  -22.9141  -11.3214   21.2235 O   0  0  0  0  0  0  0  0  0  0  0  0
  -28.9704  -25.4210   21.8566 O   0  0  0  0  0  0  0  0  0  1  0  0
  -21.7422   -5.9365   21.4051 F   0  0  0  0  0  0  0  0  0  0  0  0
  -22.0273  -10.1410   23.5607 F   0  0  0  0  0  0  0  0  0  0  0  0
  1  2  1  0  0  0  0
  1  5  2  0  0  0  0
  2  6  2  0  0  0  0
  3  8  2  0  0  0  0
  3 15  1  0  0  0  0
  4  9  1  0  0  0  0
  4 15  2  0  0  0  0
  5 17  1  0  0  0  0
  6 19  1  0  0  0  0
  7 10  2  0  0  0  0
  7 18  1  0  0  0  0
  8 21  1  0  0  0  0
  9 21  2  0  0  0  0
 10 22  1  0  0  0  0
 11 12  2  0  0  0  0
 11 23  1  0  0  0  0
 12 24  1  0  0  0  0
 13 20  1  0  0  0  0
 13 22  2  0  0  0  0
 14 24  2  0  0  0  0
 14 25  1  0  0  0  0
 15 26  1  0  0  0  0
 16 26  1  0  0  0  0
 16 27  2  0  0  0  0
 16 28  1  0  0  0  0
 17 19  2  0  0  0  0
 17 33  1  0  0  0  0
 18 20  2  0  0  0  0
 18 34  1  0  0  0  0
 19 46  1  0  0  0  0
 20 35  1  0  0  0  0
 21 83  1  0  0  0  0
 22 84  1  0  0  0  0
 23 25  2  0  0  0  0
 23 83  1  0  0  0  0
 24 85  1  0  0  0  0
 25 86  1  0  0  0  0
 26 68  2  0  0  0  0
 27 69  1  0  0  0  0
 27 72  1  0  0  0  0
 28 73  1  0  0  0  0
 28 78  2  0  0  0  0
 29 47  1  0  0  0  0
 29 74  1  0  0  0  0
 29 79  2  0  0  0  0
 30 62  1  0  0  0  0
 30 70  1  0  0  0  0
 30 80  2  0  0  0  0
 31 63  1  0  0  0  0
 31 75  1  0  0  0  0
 31 81  2  0  0  0  0
 32 71  1  0  0  0  0
 32 76  1  0  0  0  0
 32 82  2  0  0  0  0
 33 36  1  0  0  0  0
 34 47  1  0  0  0  0
 35 70  1  0  0  0  0
 36 38  1  0  0  0  0
 37 41  1  0  0  0  0
 37 44  1  0  0  0  0
 38 46  1  0  0  0  0
 39 42  1  0  0  0  0
 39 48  1  0  0  0  0
 40 43  1  0  0  0  0
 40 48  1  0  0  0  0
 41 49  1  0  0  0  0
 42 50  1  0  0  0  0
 43 50  1  0  0  0  0
 44 71  1  0  0  0  0
 45 49  1  0  0  0  0
 45 71  1  0  0  0  0
 46 74  1  0  0  0  0
 47 70  1  0  0  0  0
 48 64  1  0  0  0  0
 49 69  1  0  0  0  0
 50 84  1  0  0  0  0
 51 63  1  0  0  0  0
 52 65  1  0  0  0  0
 53 65  1  0  0  0  0
 54 66  1  0  0  0  0
 55 66  1  0  0  0  0
 56 67  1  0  0  0  0
 57 67  1  0  0  0  0
 58 67  1  0  0  0  0
 59 77  1  0  0  0  0
 60 64  1  0  0  0  0
 60 76  1  0  0  0  0
 61 65  1  0  0  0  0
 61 76  1  0  0  0  0
 62 67  1  0  0  0  0
 62 75  1  0  0  0  0
 63 77  1  0  0  0  0
 64 66  1  0  0  0  0
 68 69  1  0  0  0  0
M  CHG  1  77   1
M  ISO  4  32 100  50 101  76 100  84 101
M  END
> <Batch ID>
0104

> <Smiles>
CNC(C)C(=O)NC(C(=O)N1Cc2cc([101O:1][101CH:1]3CCC(C(C[100N:0](CC(C)C)[100C:0](=O)N4CCCC(n5nc(-c6ccc(Oc7ccc(F)cc7F)cc6)c(C(N)=O)c5N)C4)C(C)C)CC3)ccc2CC1C(=O)NC1CCCc2ccccc21)C(C)(C)C

> <Shape>
0.287

> <Color>
0.062

> <Negative vol penalty>
0.000

$$$$

  -OEChem-04052319433D

 83 91  0     1  0  0  0  0  0999 V2000
  -18.3119  -26.8862   23.3704 C   0  0  0  0  0  0  0  0  0  0  0  0
  -19.4125  -26.2877   22.7654 C   0  0  0  0  0  0  0  0  0  0  0  0
  -24.0433   -9.8095   22.3484 C   0  0  0  0  0  0  0  0  0  0  0  0
  -24.5316  -11.5245   23.9785 C   0  0  0  0  0  0  0  0  0  0  0  0
  -18.1451  -28.2686   23.2999 C   0  0  0  0  0  0  0  0  0  0  0  0
  -20.3465  -27.0714   22.0886 C   0  0  0  0  0  0  0  0  0  0  0  0
  -25.1203  -25.7892   23.1892 C   0  0  0  0  0  0  0  0  0  0  0  0
  -23.6418   -8.9510   23.3718 C   0  0  0  0  0  0  0  0  0  0  0  0
  -24.1301  -10.6661   25.0019 C   0  0  0  0  0  0  0  0  0  0  0  0
  -25.6339  -24.6523   22.5668 C   0  0  0  0  0  0  0  0  0  0  0  0
  -20.9164   -8.5040   25.3226 C   0  0  0  0  0  0  0  0  0  0  0  0
  -19.7347   -7.7859   25.1401 C   0  0  0  0  0  0  0  0  0  0  0  0
  -26.7701  -26.0510   20.9631 C   0  0  0  0  0  0  0  0  0  0  0  0
  -26.5034  -20.3535   19.9650 C   0  0  0  0  0  0  0  0  0  0  0  0
  -28.6634  -21.2812   20.5222 C   0  0  0  0  0  0  0  0  0  0  0  0
  -20.9619   -5.7147   25.3439 C   0  0  0  0  0  0  0  0  0  0  0  0
  -24.4883  -11.0962   22.6517 C   0  0  0  0  0  0  0  0  0  0  0  0
  -24.0985  -12.8911   20.8813 C   0  0  0  0  0  0  0  0  0  0  0  0
  -19.0826  -29.0706   22.6302 C   0  0  0  0  0  0  0  0  0  0  0  0
  -25.4194  -27.0673   22.6959 C   0  0  0  0  0  0  0  0  0  0  0  0
  -20.1914  -28.4657   22.0080 C   0  0  0  0  0  0  0  0  0  0  0  0
  -26.2612  -27.2026   21.5827 C   0  0  0  0  0  0  0  0  0  0  0  0
  -27.2719  -21.3228   20.6096 C   0  0  0  0  0  0  0  0  0  0  0  0
  -27.1264  -19.3425   19.2332 C   0  0  0  0  0  0  0  0  0  0  0  0
  -29.2864  -20.2703   19.7903 C   0  0  0  0  0  0  0  0  0  0  0  0
  -28.5179  -19.3010   19.1458 C   0  0  0  0  0  0  0  0  0  0  0  0
  -23.6851   -9.3793   24.6986 C   0  0  0  0  0  0  0  0  0  0  0  0
  -26.4566  -24.7830   21.4518 C   0  0  0  0  0  0  0  0  0  0  0  0
  -22.1210   -7.8276   25.5157 C   0  0  0  0  0  0  0  0  0  0  0  0
  -19.7574   -6.3912   25.1507 C   0  0  0  0  0  0  0  0  0  0  0  0
  -22.1437   -6.4329   25.5264 C   0  0  0  0  0  0  0  0  0  0  0  0
  -24.9037  -11.9833   21.5950 C   0  0  0  0  0  0  0  0  0  0  0  0
  -24.9594  -13.4900   19.9945 C   0  0  0  0  0  0  0  0  0  0  0  0
  -22.6975  -13.1682   21.0087 C   0  0  0  0  0  0  0  0  0  0  0  0
  -23.7117  -29.4657   21.4979 C   0  0  0  0  0  0  0  0  0  0  0  0
  -26.5604  -31.0156   21.5703 C   0  0  0  0  0  0  0  0  0  0  0  0
  -29.9673  -30.8168   21.5830 C   0  0  0  0  0  0  0  0  0  0  0  0
  -29.8682  -15.8790   18.8361 C   0  0  0  0  0  0  0  0  0  0  0  0
  -18.8349  -30.5556   22.5401 C   0  0  0  0  0  0  0  0  0  0  0  0
  -24.8792  -28.2847   23.3948 C   0  0  0  0  0  0  0  0  0  0  0  0
  -26.6290  -28.5529   21.0261 C   0  0  0  0  0  0  0  0  0  0  0  0
  -20.0674  -31.3546   22.1245 C   0  0  0  0  0  0  0  0  0  0  0  0
  -29.7147  -12.3237   18.7244 C   0  0  0  0  0  0  0  0  0  0  0  0
  -20.7538  -30.6956   20.9323 C   0  0  0  0  0  0  0  0  0  0  0  0
  -28.3866  -11.9932   19.4076 C   0  0  0  0  0  0  0  0  0  0  0  0
  -30.4022  -13.5212   19.3765 C   0  0  0  0  0  0  0  0  0  0  0  0
  -28.2398  -14.4025   20.1645 C   0  0  0  0  0  0  0  0  0  0  0  0
  -21.2393  -29.2846   21.2859 C   0  0  1  0  0  0  0  0  0  0  0  0
  -24.8325  -29.5175   22.4974 C   0  0  1  0  0  0  0  0  0  0  0  0
  -27.4823  -13.2365   19.5064 C   0  0  2  0  0  0  0  0  0  0  0  0
  -26.2805  -18.3172   18.5514 C   0  0  0  0  0  0  0  0  0  0  0  0
  -28.7839  -18.2249   16.8802 C   0  0  0  0  0  0  0  0  0  0  0  0
  -32.0243  -32.2540   21.6073 C   0  0  0  0  0  0  0  0  0  0  0  0
  -26.1451  -31.6558   18.6160 C   0  0  0  0  0  0  0  0  0  0  0  0
  -28.5781  -32.2280   18.4697 C   0  0  0  0  0  0  0  0  0  0  0  0
  -27.0782  -33.5397   19.9706 C   0  0  0  0  0  0  0  0  0  0  0  0
  -30.8738  -29.6775   24.1596 C   0  0  0  0  0  0  0  0  0  0  0  0
  -26.6018  -22.4098   21.3974 C   0  0  0  0  0  0  0  0  0  1  0  0
  -30.7782  -20.2481   19.7122 C   0  0  0  0  0  0  0  0  0  0  0  0
  -29.1856  -18.2172   18.3607 C   0  0  2  0  0  0  0  0  0  0  0  0
  -27.7139  -31.1777   20.6101 C   0  0  1  0  0  0  0  0  0  0  0  0
  -31.0126  -31.4940   22.4509 C   0  0  2  0  0  0  0  0  0  0  0  0
  -27.3705  -32.1246   19.4257 C   0  0  0  0  0  0  0  0  0  0  0  0
  -26.1782  -12.0004   21.1959 N   0  0  0  0  0  0  0  0  0  0  0  0
  -26.1804  -12.9263   20.2217 N   0  0  0  0  0  0  0  0  0  0  0  0
  -26.0708  -29.7129   21.7406 N   0  0  0  0  0  0  0  0  0  0  0  0
  -29.4916  -14.6670   19.4380 N   0  0  0  0  0  0  0  0  0  0  0  0
  -24.7836  -14.4386   19.0502 N   0  0  0  0  0  0  0  0  0  0  0  0
  -21.9616  -12.4626   21.9705 N   0  0  0  0  0  0  0  0  0  0  0  0
  -22.4570  -29.3497   22.0651 N   0  0  0  0  0  0  0  0  0  0  0  0
  -28.8537  -31.6115   21.4108 N   0  0  0  0  0  0  0  0  0  0  0  0
  -28.9445  -16.9123   18.9351 N   0  0  0  0  0  0  0  0  0  0  0  0
  -31.7445  -30.4825   23.2646 N   0  3  0  0  0  0  0  0  0  0  0  0
  -22.1122  -14.0046   20.2798 O   0  0  0  0  0  0  0  0  0  0  0  0
  -23.9663  -29.5279   20.3009 O   0  0  0  0  0  0  0  0  0  0  0  0
  -26.1150  -32.0072   22.1533 O   0  0  0  0  0  0  0  0  0  0  0  0
  -30.1246  -29.6966   21.1025 O   0  0  0  0  0  0  0  0  0  0  0  0
  -30.9454  -16.0276   18.2492 O   0  0  0  0  0  0  0  0  0  0  0  0
  -31.2775  -19.2168   20.5534 O   0  0  0  0  0  0  0  0  0  0  0  0
  -23.2932   -8.5420   25.6975 O   0  0  0  0  0  0  0  0  0  0  0  0
  -26.9587  -23.6749   20.8419 O   0  0  0  0  0  0  0  0  0  1  0  0
  -18.6223   -5.7017   24.9770 F   0  0  0  0  0  0  0  0  0  0  0  0
  -23.2976   -5.7775   25.7126 F   0  0  0  0  0  0  0  0  0  0  0  0
  1  2  1  0  0  0  0
  1  5  2  0  0  0  0
  2  6  2  0  0  0  0
  3  8  2  0  0  0  0
  3 17  1  0  0  0  0
  4  9  1  0  0  0  0
  4 17  2  0  0  0  0
  5 19  1  0  0  0  0
  6 21  1  0  0  0  0
  7 10  2  0  0  0  0
  7 20  1  0  0  0  0
  8 27  1  0  0  0  0
  9 27  2  0  0  0  0
 10 28  1  0  0  0  0
 11 12  2  0  0  0  0
 11 29  1  0  0  0  0
 12 30  1  0  0  0  0
 13 22  1  0  0  0  0
 13 28  2  0  0  0  0
 14 23  1  0  0  0  0
 14 24  2  0  0  0  0
 15 23  2  0  0  0  0
 15 25  1  0  0  0  0
 16 30  2  0  0  0  0
 16 31  1  0  0  0  0
 17 32  1  0  0  0  0
 18 32  1  0  0  0  0
 18 33  2  0  0  0  0
 18 34  1  0  0  0  0
 19 21  2  0  0  0  0
 19 39  1  0  0  0  0
 20 22  2  0  0  0  0
 20 40  1  0  0  0  0
 21 48  1  0  0  0  0
 22 41  1  0  0  0  0
 23 58  1  0  0  0  0
 24 26  1  0  0  0  0
 24 51  1  0  0  0  0
 25 26  2  0  0  0  0
 25 59  1  0  0  0  0
 26 60  1  0  0  0  0
 27 80  1  0  0  0  0
 28 81  1  0  0  0  0
 29 31  2  0  0  0  0
 29 80  1  0  0  0  0
 30 82  1  0  0  0  0
 31 83  1  0  0  0  0
 32 64  2  0  0  0  0
 33 65  1  0  0  0  0
 33 68  1  0  0  0  0
 34 69  1  0  0  0  0
 34 74  2  0  0  0  0
 35 49  1  0  0  0  0
 35 70  1  0  0  0  0
 35 75  2  0  0  0  0
 36 61  1  0  0  0  0
 36 66  1  0  0  0  0
 36 76  2  0  0  0  0
 37 62  1  0  0  0  0
 37 71  1  0  0  0  0
 37 77  2  0  0  0  0
 38 67  1  0  0  0  0
 38 72  1  0  0  0  0
 38 78  2  0  0  0  0
 39 42  1  0  0  0  0
 40 49  1  0  0  0  0
 41 66  1  0  0  0  0
 42 44  1  0  0  0  0
 43 45  1  0  0  0  0
 43 46  1  0  0  0  0
 44 48  1  0  0  0  0
 45 50  1  0  0  0  0
 46 67  1  0  0  0  0
 47 50  1  0  0  0  0
 47 67  1  0  0  0  0
 48 70  1  0  0  0  0
 49 66  1  0  0  0  0
 50 65  1  0  0  0  0
 52 60  1  0  0  0  0
 53 62  1  0  0  0  0
 54 63  1  0  0  0  0
 55 63  1  0  0  0  0
 56 63  1  0  0  0  0
 57 73  1  0  0  0  0
 58 81  1  0  0  0  0
 59 79  1  0  0  0  0
 60 72  1  0  0  0  0
 61 63  1  0  0  0  0
 61 71  1  0  0  0  0
 62 73  1  0  0  0  0
 64 65  1  0  0  0  0
M  CHG  1  73   1
M  ISO  4  38 100  58 101  72 100  81 101
M  END
> <Batch ID>
0104

> <Smiles>
CNC(C)C(=O)NC(C(=O)N1Cc2cc([101O:1][101CH2:1]c3cc(C)c(C(C)[100NH:0][100C:0](=O)N4CCCC(n5nc(-c6ccc(Oc7ccc(F)cc7F)cc6)c(C(N)=O)c5N)C4)c(CO)c3)ccc2CC1C(=O)NC1CCCc2ccccc21)C(C)(C)C

> <Shape>
0.258

> <Color>
0.102

> <Negative vol penalty>
0.000

$$$$

  -OEChem-04052319433D

 83 91  0     1  0  0  0  0  0999 V2000
  -17.0368  -29.6829   24.0803 C   0  0  0  0  0  0  0  0  0  0  0  0
  -17.7276  -28.5538   24.5084 C   0  0  0  0  0  0  0  0  0  0  0  0
  -23.1891   -9.8195   21.1882 C   0  0  0  0  0  0  0  0  0  0  0  0
  -23.9056  -10.5914   23.3626 C   0  0  0  0  0  0  0  0  0  0  0  0
  -17.4256  -30.3349   22.9108 C   0  0  0  0  0  0  0  0  0  0  0  0
  -18.8071  -28.0753   23.7666 C   0  0  0  0  0  0  0  0  0  0  0  0
  -25.1225  -24.7933   24.5791 C   0  0  0  0  0  0  0  0  0  0  0  0
  -22.5028   -8.7642   21.7890 C   0  0  0  0  0  0  0  0  0  0  0  0
  -23.2191   -9.5362   23.9634 C   0  0  0  0  0  0  0  0  0  0  0  0
  -25.8316  -23.6899   24.1064 C   0  0  0  0  0  0  0  0  0  0  0  0
  -20.8588   -5.6593   22.7272 C   0  0  0  0  0  0  0  0  0  0  0  0
  -20.9936   -4.3909   22.1626 C   0  0  0  0  0  0  0  0  0  0  0  0
  -26.4631  -24.9438   22.1448 C   0  0  0  0  0  0  0  0  0  0  0  0
  -28.3521  -18.8045   20.8973 C   0  0  0  0  0  0  0  0  0  0  0  0
  -23.3773   -4.4726   22.5479 C   0  0  0  0  0  0  0  0  0  0  0  0
  -30.0070  -19.2965   22.5331 C   0  0  0  0  0  0  0  0  0  0  0  0
  -23.8906  -10.7330   21.9750 C   0  0  0  0  0  0  0  0  0  0  0  0
  -24.1008  -13.1066   21.0641 C   0  0  0  0  0  0  0  0  0  0  0  0
  -18.5164  -29.8698   22.1594 C   0  0  0  0  0  0  0  0  0  0  0  0
  -25.0693  -25.9787   23.8318 C   0  0  0  0  0  0  0  0  0  0  0  0
  -19.2100  -28.7209   22.5852 C   0  0  0  0  0  0  0  0  0  0  0  0
  -25.7548  -26.0617   22.6114 C   0  0  0  0  0  0  0  0  0  0  0  0
  -29.6115  -18.5554   21.4312 C   0  0  0  0  0  0  0  0  0  0  0  0
  -27.5381  -19.7734   21.4734 C   0  0  0  0  0  0  0  0  0  0  0  0
  -22.5177   -8.6226   23.1766 C   0  0  0  0  0  0  0  0  0  0  0  0
  -26.4997  -23.7641   22.8877 C   0  0  0  0  0  0  0  0  0  0  0  0
  -21.9833   -6.3343   23.2021 C   0  0  0  0  0  0  0  0  0  0  0  0
  -22.2527   -3.7976   22.0730 C   0  0  0  0  0  0  0  0  0  0  0  0
  -23.2425   -5.7410   23.1125 C   0  0  0  0  0  0  0  0  0  0  0  0
  -24.6003  -11.8230   21.3550 C   0  0  0  0  0  0  0  0  0  0  0  0
  -28.0263  -20.4599   22.5735 C   0  0  0  0  0  0  0  0  0  0  0  0
  -25.1583  -13.7631   20.4836 C   0  0  0  0  0  0  0  0  0  0  0  0
  -22.7974  -13.6563   21.2979 C   0  0  0  0  0  0  0  0  0  0  0  0
  -22.7486  -27.6644   22.4619 C   0  0  0  0  0  0  0  0  0  0  0  0
  -25.1496  -29.7673   21.8830 C   0  0  0  0  0  0  0  0  0  0  0  0
  -28.4958  -30.3057   21.4831 C   0  0  0  0  0  0  0  0  0  0  0  0
  -30.5763  -15.0943   20.3442 C   0  0  0  0  0  0  0  0  0  0  0  0
  -18.8699  -30.5800   20.8768 C   0  0  0  0  0  0  0  0  0  0  0  0
  -24.3222  -27.1688   24.3683 C   0  0  0  0  0  0  0  0  0  0  0  0
  -25.7456  -27.3179   21.7805 C   0  0  0  0  0  0  0  0  0  0  0  0
  -20.2585  -30.2288   20.3488 C   0  0  0  0  0  0  0  0  0  0  0  0
  -29.6099  -12.0194   18.8316 C   0  0  0  0  0  0  0  0  0  0  0  0
  -20.4777  -28.7197   20.3855 C   0  0  0  0  0  0  0  0  0  0  0  0
  -28.1823  -11.7973   19.3342 C   0  0  0  0  0  0  0  0  0  0  0  0
  -30.4920  -12.6583   19.9020 C   0  0  0  0  0  0  0  0  0  0  0  0
  -28.5293  -13.6818   20.9856 C   0  0  0  0  0  0  0  0  0  0  0  0
  -20.4016  -28.1859   21.8210 C   0  0  1  0  0  0  0  0  0  0  0  0
  -23.9092  -28.1552   23.2802 C   0  0  1  0  0  0  0  0  0  0  0  0
  -27.5874  -13.0907   19.9226 C   0  0  2  0  0  0  0  0  0  0  0  0
  -30.1526  -32.1225   20.9815 C   0  0  0  0  0  0  0  0  0  0  0  0
  -24.9830  -18.3050   22.3251 C   0  0  0  0  0  0  0  0  0  0  0  0
  -23.8971  -19.1950   20.2533 C   0  0  0  0  0  0  0  0  0  0  0  0
  -24.3383  -29.6919   18.9426 C   0  0  0  0  0  0  0  0  0  0  0  0
  -26.5469  -30.7275   18.3787 C   0  0  0  0  0  0  0  0  0  0  0  0
  -24.9189  -31.9659   19.8066 C   0  0  0  0  0  0  0  0  0  0  0  0
  -29.8666  -29.9321   24.0793 C   0  0  0  0  0  0  0  0  0  0  0  0
  -26.1883  -20.0466   20.9053 C   0  0  0  0  0  0  0  0  0  0  0  0
  -30.5059  -17.5252   20.8389 C   0  0  0  0  0  0  0  0  0  0  0  0
  -27.1918  -21.5158   23.2369 C   0  0  0  0  0  0  0  0  0  1  0  0
  -26.1442  -29.9734   20.7662 C   0  0  1  0  0  0  0  0  0  0  0  0
  -29.4252  -31.3515   22.0720 C   0  0  2  0  0  0  0  0  0  0  0  0
  -25.2312  -18.8283   20.9081 C   0  0  0  0  0  0  0  0  0  0  0  0
  -25.4858  -30.5652   19.4880 C   0  0  0  0  0  0  0  0  0  0  0  0
  -29.2441  -20.2458   23.1201 N   0  0  0  0  0  0  0  0  0  0  0  0
  -25.8759  -11.6710   20.9892 N   0  0  0  0  0  0  0  0  0  0  0  0
  -26.1868  -12.8676   20.4625 N   0  0  0  0  0  0  0  0  0  0  0  0
  -24.9959  -28.4524   22.3447 N   0  0  0  0  0  0  0  0  0  0  0  0
  -29.8718  -13.8812   20.4176 N   0  0  0  0  0  0  0  0  0  0  0  0
  -25.2994  -15.0133   19.9940 N   0  0  0  0  0  0  0  0  0  0  0  0
  -21.8289  -12.8448   21.9043 N   0  0  0  0  0  0  0  0  0  0  0  0
  -21.6293  -28.4716   22.5322 N   0  0  0  0  0  0  0  0  0  0  0  0
  -27.2163  -30.7931   21.3204 N   0  0  0  0  0  0  0  0  0  0  0  0
  -29.9136  -16.2062   20.8496 N   0  0  0  0  0  0  0  0  0  0  0  0
  -30.4423  -30.7056   22.9492 N   0  3  0  0  0  0  0  0  0  0  0  0
  -22.4955  -14.8271   20.9636 O   0  0  0  0  0  0  0  0  0  0  0  0
  -22.8608  -26.6306   21.8135 O   0  0  0  0  0  0  0  0  0  0  0  0
  -24.5371  -30.7383   22.3341 O   0  0  0  0  0  0  0  0  0  0  0  0
  -28.8685  -29.1711   21.1927 O   0  0  0  0  0  0  0  0  0  0  0  0
  -31.7095  -15.1810   19.8592 O   0  0  0  0  0  0  0  0  0  0  0  0
  -21.8478   -7.5931   23.7631 O   0  0  0  0  0  0  0  0  0  0  0  0
  -27.1921  -22.6884   22.4237 O   0  0  0  0  0  0  0  0  0  1  0  0
  -22.3818   -2.5790   21.5322 F   0  0  0  0  0  0  0  0  0  0  0  0
  -24.3263   -6.3841   23.5681 F   0  0  0  0  0  0  0  0  0  0  0  0
  1  2  1  0  0  0  0
  1  5  2  0  0  0  0
  2  6  2  0  0  0  0
  3  8  2  0  0  0  0
  3 17  1  0  0  0  0
  4  9  1  0  0  0  0
  4 17  2  0  0  0  0
  5 19  1  0  0  0  0
  6 21  1  0  0  0  0
  7 10  2  0  0  0  0
  7 20  1  0  0  0  0
  8 25  1  0  0  0  0
  9 25  2  0  0  0  0
 10 26  1  0  0  0  0
 11 12  2  0  0  0  0
 11 27  1  0  0  0  0
 12 28  1  0  0  0  0
 13 22  1  0  0  0  0
 13 26  2  0  0  0  0
 14 23  2  0  0  0  0
 14 24  1  0  0  0  0
 15 28  2  0  0  0  0
 15 29  1  0  0  0  0
 16 23  1  0  0  0  0
 16 64  2  0  0  0  0
 17 30  1  0  0  0  0
 18 30  1  0  0  0  0
 18 32  2  0  0  0  0
 18 33  1  0  0  0  0
 19 21  2  0  0  0  0
 19 38  1  0  0  0  0
 20 22  2  0  0  0  0
 20 39  1  0  0  0  0
 21 47  1  0  0  0  0
 22 40  1  0  0  0  0
 23 58  1  0  0  0  0
 24 31  2  0  0  0  0
 24 57  1  0  0  0  0
 25 80  1  0  0  0  0
 26 81  1  0  0  0  0
 27 29  2  0  0  0  0
 27 80  1  0  0  0  0
 28 82  1  0  0  0  0
 29 83  1  0  0  0  0
 30 65  2  0  0  0  0
 31 59  1  0  0  0  0
 31 64  1  0  0  0  0
 32 66  1  0  0  0  0
 32 69  1  0  0  0  0
 33 70  1  0  0  0  0
 33 75  2  0  0  0  0
 34 48  1  0  0  0  0
 34 71  1  0  0  0  0
 34 76  2  0  0  0  0
 35 60  1  0  0  0  0
 35 67  1  0  0  0  0
 35 77  2  0  0  0  0
 36 61  1  0  0  0  0
 36 72  1  0  0  0  0
 36 78  2  0  0  0  0
 37 68  1  0  0  0  0
 37 73  1  0  0  0  0
 37 79  2  0  0  0  0
 38 41  1  0  0  0  0
 39 48  1  0  0  0  0
 40 67  1  0  0  0  0
 41 43  1  0  0  0  0
 42 44  1  0  0  0  0
 42 45  1  0  0  0  0
 43 47  1  0  0  0  0
 44 49  1  0  0  0  0
 45 68  1  0  0  0  0
 46 49  1  0  0  0  0
 46 68  1  0  0  0  0
 47 71  1  0  0  0  0
 48 67  1  0  0  0  0
 49 66  1  0  0  0  0
 50 61  1  0  0  0  0
 51 62  1  0  0  0  0
 52 62  1  0  0  0  0
 53 63  1  0  0  0  0
 54 63  1  0  0  0  0
 55 63  1  0  0  0  0
 56 74  1  0  0  0  0
 57 62  1  0  0  0  0
 58 73  1  0  0  0  0
 59 81  1  0  0  0  0
 60 63  1  0  0  0  0
 60 72  1  0  0  0  0
 61 74  1  0  0  0  0
 65 66  1  0  0  0  0
M  CHG  1  74   1
M  ISO  4  37 100  59 101  73 100  81 101
M  END
> <Batch ID>
0104

> <Smiles>
CNC(C)C(=O)NC(C(=O)N1Cc2cc([101O:1][101CH2:1]c3ncc(C[100NH:0][100C:0](=O)N4CCCC(n5nc(-c6ccc(Oc7ccc(F)cc7F)cc6)c(C(N)=O)c5N)C4)cc3CC(C)C)ccc2CC1C(=O)NC1CCCc2ccccc21)C(C)(C)C

> <Shape>
0.276

> <Color>
0.181

> <Negative vol penalty>
0.000

$$$$

  -OEChem-04052319433D

 87 95  0     1  0  0  0  0  0999 V2000
  -17.8416  -32.6943   23.1772 C   0  0  0  0  0  0  0  0  0  0  0  0
  -19.0962  -32.9074   22.6152 C   0  0  0  0  0  0  0  0  0  0  0  0
  -26.6308  -12.5035   21.7954 C   0  0  0  0  0  0  0  0  0  0  0  0
  -25.7997  -14.0618   20.1468 C   0  0  0  0  0  0  0  0  0  0  0  0
  -17.6016  -31.5444   23.9282 C   0  0  0  0  0  0  0  0  0  0  0  0
  -20.1121  -31.9712   22.8048 C   0  0  0  0  0  0  0  0  0  0  0  0
  -25.8121  -29.1697   19.4915 C   0  0  0  0  0  0  0  0  0  0  0  0
  -25.3719  -11.9072   21.8665 C   0  0  0  0  0  0  0  0  0  0  0  0
  -24.5407  -13.4655   20.2179 C   0  0  0  0  0  0  0  0  0  0  0  0
  -27.1691  -28.9286   19.7013 C   0  0  0  0  0  0  0  0  0  0  0  0
  -22.4714   -9.7438   22.2163 C   0  0  0  0  0  0  0  0  0  0  0  0
  -22.4127   -8.3502   22.2100 C   0  0  0  0  0  0  0  0  0  0  0  0
  -26.6166  -26.9407   20.9511 C   0  0  0  0  0  0  0  0  0  0  0  0
  -30.1748  -25.1826   18.1690 C   0  0  0  0  0  0  0  0  0  0  0  0
  -23.4911   -8.3145   20.0483 C   0  0  0  0  0  0  0  0  0  0  0  0
  -26.8447  -13.5809   20.9356 C   0  0  0  0  0  0  0  0  0  0  0  0
  -29.2028  -13.8508   20.0007 C   0  0  0  0  0  0  0  0  0  0  0  0
  -18.6122  -30.5889   24.1191 C   0  0  0  0  0  0  0  0  0  0  0  0
  -24.8451  -28.3026   20.0201 C   0  0  0  0  0  0  0  0  0  0  0  0
  -19.8858  -30.8081   23.5603 C   0  0  0  0  0  0  0  0  0  0  0  0
  -25.2480  -27.1716   20.7444 C   0  0  0  0  0  0  0  0  0  0  0  0
  -30.7454  -25.6929   19.3610 C   0  0  0  0  0  0  0  0  0  0  0  0
  -24.3268  -12.3881   21.0777 C   0  0  0  0  0  0  0  0  0  0  0  0
  -27.5715  -27.8156   20.4337 C   0  0  0  0  0  0  0  0  0  0  0  0
  -23.0400  -10.4228   21.1385 C   0  0  0  0  0  0  0  0  0  0  0  0
  -22.9225   -7.6356   21.1260 C   0  0  0  0  0  0  0  0  0  0  0  0
  -23.5498   -9.7081   20.0546 C   0  0  0  0  0  0  0  0  0  0  0  0
  -28.1448  -14.1976   20.8622 C   0  0  0  0  0  0  0  0  0  0  0  0
  -30.0552  -23.8189   18.3211 C   0  0  0  0  0  0  0  0  0  0  0  0
  -30.9574  -24.6254   20.2053 C   0  0  0  0  0  0  0  0  0  0  0  0
  -30.2091  -14.7287   20.3220 C   0  0  0  0  0  0  0  0  0  0  0  0
  -29.2700  -12.8267   18.9995 C   0  0  0  0  0  0  0  0  0  0  0  0
  -22.4686  -28.5992   22.1101 C   0  0  0  0  0  0  0  0  0  0  0  0
  -21.8136  -25.5532   21.2071 C   0  0  0  0  0  0  0  0  0  0  0  0
  -22.9450  -22.6145   19.8916 C   0  0  0  0  0  0  0  0  0  0  0  0
  -30.2255  -20.1938   22.7681 C   0  0  0  0  0  0  0  0  0  0  0  0
  -18.3195  -29.3844   24.9782 C   0  0  0  0  0  0  0  0  0  0  0  0
  -23.3861  -28.5620   19.7622 C   0  0  0  0  0  0  0  0  0  0  0  0
  -24.2501  -26.1988   21.3158 C   0  0  0  0  0  0  0  0  0  0  0  0
  -19.3395  -28.2599   24.8185 C   0  0  0  0  0  0  0  0  0  0  0  0
  -31.9082  -17.3002   23.9814 C   0  0  0  0  0  0  0  0  0  0  0  0
  -20.7591  -28.8157   24.8693 C   0  0  0  0  0  0  0  0  0  0  0  0
  -31.2299  -16.1456   23.2418 C   0  0  0  0  0  0  0  0  0  0  0  0
  -30.9146  -18.4043   24.3362 C   0  0  0  0  0  0  0  0  0  0  0  0
  -29.4507  -17.7646   22.4596 C   0  0  0  0  0  0  0  0  0  0  0  0
  -21.0061  -29.8037   23.7229 C   0  0  1  0  0  0  0  0  0  0  0  0
  -22.4707  -27.8938   20.7835 C   0  0  1  0  0  0  0  0  0  0  0  0
  -30.4230  -16.6522   22.0313 C   0  0  2  0  0  0  0  0  0  0  0  0
  -32.1067  -27.6923   18.6674 C   0  0  0  0  0  0  0  0  0  0  0  0
  -30.3368  -22.7106   16.0747 C   0  0  0  0  0  0  0  0  0  0  0  0
  -28.0318  -23.0208   17.0472 C   0  0  0  0  0  0  0  0  0  0  0  0
  -30.6872  -25.3841   22.5938 C   0  0  0  0  0  0  0  0  0  0  0  0
  -32.9929  -25.0737   21.6230 C   0  0  0  0  0  0  0  0  0  0  0  0
  -22.1857  -20.2940   19.3120 C   0  0  0  0  0  0  0  0  0  0  0  0
  -21.8837  -24.7950   24.1618 C   0  0  0  0  0  0  0  0  0  0  0  0
  -22.0730  -22.3962   23.4701 C   0  0  0  0  0  0  0  0  0  0  0  0
  -20.0481  -23.7149   22.8509 C   0  0  0  0  0  0  0  0  0  0  0  0
  -23.5723  -23.0001   17.0251 C   0  0  0  0  0  0  0  0  0  0  0  0
  -30.5854  -22.1521   20.1105 C   0  0  0  0  0  0  0  0  0  0  0  0
  -29.4628  -21.8717   21.1061 C   0  0  0  0  0  0  0  0  0  0  0  0
  -29.8009  -28.0272   19.6330 C   0  0  0  0  0  0  0  0  0  1  0  0
  -31.0618  -27.1523   19.6479 C   0  0  1  0  0  0  0  0  0  0  0  0
  -29.5245  -22.8052   17.3865 C   0  0  0  0  0  0  0  0  0  0  0  0
  -31.5268  -24.5880   21.5693 C   0  0  0  0  0  0  0  0  0  0  0  0
  -22.2386  -24.1835   21.6786 C   0  0  1  0  0  0  0  0  0  0  0  0
  -22.3831  -21.7144   18.8059 C   0  0  2  0  0  0  0  0  0  0  0  0
  -21.5798  -23.7916   23.0314 C   0  0  0  0  0  0  0  0  0  0  0  0
  -28.4506  -15.2163   21.6702 N   0  0  0  0  0  0  0  0  0  0  0  0
  -30.5344  -23.4913   19.5626 N   0  0  0  0  0  0  0  0  0  0  0  0
  -29.7121  -15.5171   21.3178 N   0  0  0  0  0  0  0  0  0  0  0  0
  -22.8351  -26.4993   21.0420 N   0  0  0  0  0  0  0  0  0  0  0  0
  -30.1834  -18.8412   23.1445 N   0  0  0  0  0  0  0  0  0  0  0  0
  -31.4617  -14.8955   19.8470 N   0  0  0  0  0  0  0  0  0  0  0  0
  -28.1460  -12.0138   18.7988 N   0  0  0  0  0  0  0  0  0  0  0  0
  -21.2329  -29.0928   22.4829 N   0  0  0  0  0  0  0  0  0  0  0  0
  -21.9455  -23.2656   20.5832 N   0  0  0  0  0  0  0  0  0  0  0  0
  -29.5103  -20.5221   21.6229 N   0  0  0  0  0  0  0  0  0  0  0  0
  -23.3074  -21.6729   17.6377 N   0  3  0  0  0  0  0  0  0  0  0  0
  -30.3019  -12.6274   18.3148 O   0  0  0  0  0  0  0  0  0  0  0  0
  -23.5106  -28.6878   22.7490 O   0  0  0  0  0  0  0  0  0  0  0  0
  -20.6201  -25.7735   20.9865 O   0  0  0  0  0  0  0  0  0  0  0  0
  -24.1499  -22.7258   20.1071 O   0  0  0  0  0  0  0  0  0  0  0  0
  -30.8584  -21.0448   23.4023 O   0  0  0  0  0  0  0  0  0  0  0  0
  -23.0983  -11.8063   21.1466 O   0  0  0  0  0  0  0  0  0  0  0  0
  -28.8954  -27.5783   20.6405 O   0  0  0  0  0  0  0  0  0  1  0  0
  -22.8674   -6.2972   21.1208 F   0  0  0  0  0  0  0  0  0  0  0  0
  -24.0982  -10.3548   19.0169 F   0  0  0  0  0  0  0  0  0  0  0  0
  1  2  1  0  0  0  0
  1  5  2  0  0  0  0
  2  6  2  0  0  0  0
  3  8  2  0  0  0  0
  3 16  1  0  0  0  0
  4  9  1  0  0  0  0
  4 16  2  0  0  0  0
  5 18  1  0  0  0  0
  6 20  1  0  0  0  0
  7 10  2  0  0  0  0
  7 19  1  0  0  0  0
  8 23  1  0  0  0  0
  9 23  2  0  0  0  0
 10 24  1  0  0  0  0
 11 12  2  0  0  0  0
 11 25  1  0  0  0  0
 12 26  1  0  0  0  0
 13 21  1  0  0  0  0
 13 24  2  0  0  0  0
 14 22  1  0  0  0  0
 14 29  2  0  0  0  0
 15 26  2  0  0  0  0
 15 27  1  0  0  0  0
 16 28  1  0  0  0  0
 17 28  1  0  0  0  0
 17 31  2  0  0  0  0
 17 32  1  0  0  0  0
 18 20  2  0  0  0  0
 18 37  1  0  0  0  0
 19 21  2  0  0  0  0
 19 38  1  0  0  0  0
 20 46  1  0  0  0  0
 21 39  1  0  0  0  0
 22 30  2  0  0  0  0
 22 62  1  0  0  0  0
 23 84  1  0  0  0  0
 24 85  1  0  0  0  0
 25 27  2  0  0  0  0
 25 84  1  0  0  0  0
 26 86  1  0  0  0  0
 27 87  1  0  0  0  0
 28 68  2  0  0  0  0
 29 63  1  0  0  0  0
 29 69  1  0  0  0  0
 30 64  1  0  0  0  0
 30 69  1  0  0  0  0
 31 70  1  0  0  0  0
 31 73  1  0  0  0  0
 32 74  1  0  0  0  0
 32 79  2  0  0  0  0
 33 47  1  0  0  0  0
 33 75  1  0  0  0  0
 33 80  2  0  0  0  0
 34 65  1  0  0  0  0
 34 71  1  0  0  0  0
 34 81  2  0  0  0  0
 35 66  1  0  0  0  0
 35 76  1  0  0  0  0
 35 82  2  0  0  0  0
 36 72  1  0  0  0  0
 36 77  1  0  0  0  0
 36 83  2  0  0  0  0
 37 40  1  0  0  0  0
 38 47  1  0  0  0  0
 39 71  1  0  0  0  0
 40 42  1  0  0  0  0
 41 43  1  0  0  0  0
 41 44  1  0  0  0  0
 42 46  1  0  0  0  0
 43 48  1  0  0  0  0
 44 72  1  0  0  0  0
 45 48  1  0  0  0  0
 45 72  1  0  0  0  0
 46 75  1  0  0  0  0
 47 71  1  0  0  0  0
 48 70  1  0  0  0  0
 49 62  1  0  0  0  0
 50 63  1  0  0  0  0
 51 63  1  0  0  0  0
 52 64  1  0  0  0  0
 53 64  1  0  0  0  0
 54 66  1  0  0  0  0
 55 67  1  0  0  0  0
 56 67  1  0  0  0  0
 57 67  1  0  0  0  0
 58 78  1  0  0  0  0
 59 60  1  0  0  0  0
 59 69  1  0  0  0  0
 60 77  1  0  0  0  0
 61 62  1  0  0  0  0
 61 85  1  0  0  0  0
 65 67  1  0  0  0  0
 65 76  1  0  0  0  0
 66 78  1  0  0  0  0
 68 70  1  0  0  0  0
M  CHG  1  78   1
M  ISO  4  36 100  61 101  77 100  85 101
M  END
> <Batch ID>
0104

> <Smiles>
CNC(C)C(=O)NC(C(=O)N1Cc2cc([101O:1][101CH2:1]C(C)c3cc(C(C)C)n(CC[100NH:0][100C:0](=O)N4CCCC(n5nc(-c6ccc(Oc7ccc(F)cc7F)cc6)c(C(N)=O)c5N)C4)c3C(C)C)ccc2CC1C(=O)NC1CCCc2ccccc21)C(C)(C)C

> <Shape>
0.296

> <Color>
0.102

> <Negative vol penalty>
0.000

$$$$

  -OEChem-04052319433D

 84 91  0     1  0  0  0  0  0999 V2000
  -33.3767  -33.0237   26.7425 C   0  0  0  0  0  0  0  0  0  0  0  0
  -33.2854  -31.6581   26.9918 C   0  0  0  0  0  0  0  0  0  0  0  0
  -23.0759   -9.8887   19.9065 C   0  0  0  0  0  0  0  0  0  0  0  0
  -23.8547   -9.8406   22.1930 C   0  0  0  0  0  0  0  0  0  0  0  0
  -32.5938  -33.6029   25.7447 C   0  0  0  0  0  0  0  0  0  0  0  0
  -32.4103  -30.8710   26.2442 C   0  0  0  0  0  0  0  0  0  0  0  0
  -33.2601  -25.0629   24.4978 C   0  0  0  0  0  0  0  0  0  0  0  0
  -22.3378   -8.7272   20.1335 C   0  0  0  0  0  0  0  0  0  0  0  0
  -23.1166   -8.6790   22.4200 C   0  0  0  0  0  0  0  0  0  0  0  0
  -32.8097  -23.8511   25.0197 C   0  0  0  0  0  0  0  0  0  0  0  0
  -19.8961   -7.8554   23.0288 C   0  0  0  0  0  0  0  0  0  0  0  0
  -19.1491   -7.7834   24.2045 C   0  0  0  0  0  0  0  0  0  0  0  0
  -30.9772  -23.8636   23.4509 C   0  0  0  0  0  0  0  0  0  0  0  0
  -20.4027   -5.8323   24.8817 C   0  0  0  0  0  0  0  0  0  0  0  0
  -23.8344  -10.4455   20.9363 C   0  0  0  0  0  0  0  0  0  0  0  0
  -24.1672  -12.9740   20.8771 C   0  0  0  0  0  0  0  0  0  0  0  0
  -31.7157  -32.8208   24.9780 C   0  0  0  0  0  0  0  0  0  0  0  0
  -32.5651  -25.6907   23.4542 C   0  0  0  0  0  0  0  0  0  0  0  0
  -31.6139  -31.4404   25.2362 C   0  0  0  0  0  0  0  0  0  0  0  0
  -31.4223  -25.0821   22.9159 C   0  0  0  0  0  0  0  0  0  0  0  0
  -22.3581   -8.1223   21.3902 C   0  0  0  0  0  0  0  0  0  0  0  0
  -31.6664  -23.2527   24.4982 C   0  0  0  0  0  0  0  0  0  0  0  0
  -20.8965   -6.9157   22.7795 C   0  0  0  0  0  0  0  0  0  0  0  0
  -19.4024   -6.7719   25.1309 C   0  0  0  0  0  0  0  0  0  0  0  0
  -21.1498   -5.9042   23.7059 C   0  0  0  0  0  0  0  0  0  0  0  0
  -24.5975  -11.6450   20.7023 C   0  0  0  0  0  0  0  0  0  0  0  0
  -25.2539  -13.7361   20.5239 C   0  0  0  0  0  0  0  0  0  0  0  0
  -22.8986  -13.4748   21.3193 C   0  0  0  0  0  0  0  0  0  0  0  0
  -31.0527  -28.4661   23.1169 C   0  0  0  0  0  0  0  0  0  0  0  0
  -30.8055  -27.5112   20.0267 C   0  0  0  0  0  0  0  0  0  0  0  0
  -30.7581  -24.9393   17.7840 C   0  0  0  0  0  0  0  0  0  0  0  0
  -30.7357  -14.7687   20.6927 C   0  0  0  0  0  0  0  0  0  0  0  0
  -30.8549  -33.4997   23.9422 C   0  0  0  0  0  0  0  0  0  0  0  0
  -33.0791  -26.9844   22.8844 C   0  0  0  0  0  0  0  0  0  0  0  0
  -30.6517  -25.7051   21.7817 C   0  0  0  0  0  0  0  0  0  0  0  0
  -30.2273  -32.5318   22.9424 C   0  0  0  0  0  0  0  0  0  0  0  0
  -29.5860  -12.4411   18.2561 C   0  0  0  0  0  0  0  0  0  0  0  0
  -29.6206  -31.3346   23.6673 C   0  0  0  0  0  0  0  0  0  0  0  0
  -28.1531  -12.1317   18.6933 C   0  0  0  0  0  0  0  0  0  0  0  0
  -30.5123  -12.6348   19.4546 C   0  0  0  0  0  0  0  0  0  0  0  0
  -28.6198  -13.3243   20.8747 C   0  0  0  0  0  0  0  0  0  0  0  0
  -30.6944  -30.5491   24.4298 C   0  0  1  0  0  0  0  0  0  0  0  0
  -32.0014  -27.7914   22.1670 C   0  0  1  0  0  0  0  0  0  0  0  0
  -27.6365  -13.1760   19.7011 C   0  0  2  0  0  0  0  0  0  0  0  0
  -33.3995  -20.7151   21.1958 C   0  0  0  0  0  0  0  0  0  0  0  0
  -30.5024  -24.4677   15.3326 C   0  0  0  0  0  0  0  0  0  0  0  0
  -32.5307  -18.8023   26.3046 C   0  0  0  0  0  0  0  0  0  0  0  0
  -27.7996  -27.9845   20.2518 C   0  0  0  0  0  0  0  0  0  0  0  0
  -27.5006  -26.6289   18.1682 C   0  0  0  0  0  0  0  0  0  0  0  0
  -28.8173  -28.7465   18.0982 C   0  0  0  0  0  0  0  0  0  0  0  0
  -33.4561  -23.7345   17.6159 C   0  0  0  0  0  0  0  0  0  0  0  0
  -30.6183  -20.1419   19.1029 C   0  0  0  0  0  0  0  0  0  0  0  0
  -29.0446  -20.6429   20.9666 C   0  0  0  0  0  0  0  0  0  0  0  0
  -32.6577  -19.3911   21.0376 C   0  0  0  0  0  0  0  0  0  0  0  0
  -31.9911  -19.2444   23.8907 C   0  0  0  0  0  0  0  0  0  0  0  0
  -30.9466  -19.7926   22.9038 C   0  0  0  0  0  0  0  0  0  0  0  0
  -30.4942  -18.0463   21.0359 C   0  0  0  0  0  0  0  0  0  0  0  0
  -30.8050  -16.8876   21.9828 C   0  0  0  0  0  0  0  0  0  0  0  0
  -32.2072  -21.1848   25.5411 C   0  0  0  0  0  0  0  0  0  1  0  0
  -29.8013  -26.7121   19.2317 C   0  0  1  0  0  0  0  0  0  0  0  0
  -31.4811  -24.7403   16.4641 C   0  0  2  0  0  0  0  0  0  0  0  0
  -31.7750  -19.7265   25.3404 C   0  0  2  0  0  0  0  0  0  0  0  0
  -28.4929  -27.5070   18.9601 C   0  0  0  0  0  0  0  0  0  0  0  0
  -31.1527  -19.3969   21.4184 C   0  0  2  0  0  0  0  0  0  0  0  0
  -25.8592  -11.5641   20.2714 N   0  0  0  0  0  0  0  0  0  0  0  0
  -26.2309  -12.8517   20.1723 N   0  0  0  0  0  0  0  0  0  0  0  0
  -31.1905  -26.9732   21.2629 N   0  0  0  0  0  0  0  0  0  0  0  0
  -29.9659  -13.6388   20.3707 N   0  0  0  0  0  0  0  0  0  0  0  0
  -25.4594  -15.0697   20.4827 N   0  0  0  0  0  0  0  0  0  0  0  0
  -21.8924  -12.5540   21.6419 N   0  0  0  0  0  0  0  0  0  0  0  0
  -31.4591  -29.7240   23.5193 N   0  0  0  0  0  0  0  0  0  0  0  0
  -30.4936  -26.2707   18.0258 N   0  0  0  0  0  0  0  0  0  0  0  0
  -30.1406  -15.6740   21.5628 N   0  0  0  0  0  0  0  0  0  0  0  0
  -32.4233  -23.5894   16.5580 N   0  3  0  0  0  0  0  0  0  0  0  0
  -30.4755  -20.4410   20.5655 N   0  3  0  0  0  0  0  0  0  0  0  0
  -22.6589  -14.7028   21.4096 O   0  0  0  0  0  0  0  0  0  0  0  0
  -30.0271  -27.8888   23.4584 O   0  0  0  0  0  0  0  0  0  0  0  0
  -31.2379  -28.5700   19.5646 O   0  0  0  0  0  0  0  0  0  0  0  0
  -30.4548  -24.0065   18.5246 O   0  0  0  0  0  0  0  0  0  0  0  0
  -31.8673  -14.9593   20.2343 O   0  0  0  0  0  0  0  0  0  0  0  0
  -21.6378   -6.9889   21.6121 O   0  0  0  0  0  0  0  0  0  0  0  0
  -31.2213  -22.0622   25.0095 O   0  0  0  0  0  0  0  0  0  1  0  0
  -18.6859   -6.7039   26.2607 F   0  0  0  0  0  0  0  0  0  0  0  0
  -22.1103   -4.9994   23.4725 F   0  0  0  0  0  0  0  0  0  0  0  0
  1  2  1  0  0  0  0
  1  5  2  0  0  0  0
  2  6  2  0  0  0  0
  3  8  2  0  0  0  0
  3 15  1  0  0  0  0
  4  9  1  0  0  0  0
  4 15  2  0  0  0  0
  5 17  1  0  0  0  0
  6 19  1  0  0  0  0
  7 10  2  0  0  0  0
  7 18  1  0  0  0  0
  8 21  1  0  0  0  0
  9 21  2  0  0  0  0
 10 22  1  0  0  0  0
 11 12  2  0  0  0  0
 11 23  1  0  0  0  0
 12 24  1  0  0  0  0
 13 20  1  0  0  0  0
 13 22  2  0  0  0  0
 14 24  2  0  0  0  0
 14 25  1  0  0  0  0
 15 26  1  0  0  0  0
 16 26  1  0  0  0  0
 16 27  2  0  0  0  0
 16 28  1  0  0  0  0
 17 19  2  0  0  0  0
 17 33  1  0  0  0  0
 18 20  2  0  0  0  0
 18 34  1  0  0  0  0
 19 42  1  0  0  0  0
 20 35  1  0  0  0  0
 21 81  1  0  0  0  0
 22 82  1  0  0  0  0
 23 25  2  0  0  0  0
 23 81  1  0  0  0  0
 24 83  1  0  0  0  0
 25 84  1  0  0  0  0
 26 65  2  0  0  0  0
 27 66  1  0  0  0  0
 27 69  1  0  0  0  0
 28 70  1  0  0  0  0
 28 76  2  0  0  0  0
 29 43  1  0  0  0  0
 29 71  1  0  0  0  0
 29 77  2  0  0  0  0
 30 60  1  0  0  0  0
 30 67  1  0  0  0  0
 30 78  2  0  0  0  0
 31 61  1  0  0  0  0
 31 72  1  0  0  0  0
 31 79  2  0  0  0  0
 32 68  1  0  0  0  0
 32 73  1  0  0  0  0
 32 80  2  0  0  0  0
 33 36  1  0  0  0  0
 34 43  1  0  0  0  0
 35 67  1  0  0  0  0
 36 38  1  0  0  0  0
 37 39  1  0  0  0  0
 37 40  1  0  0  0  0
 38 42  1  0  0  0  0
 39 44  1  0  0  0  0
 40 68  1  0  0  0  0
 41 44  1  0  0  0  0
 41 68  1  0  0  0  0
 42 71  1  0  0  0  0
 43 67  1  0  0  0  0
 44 66  1  0  0  0  0
 45 54  1  0  0  0  0
 46 61  1  0  0  0  0
 47 62  1  0  0  0  0
 48 63  1  0  0  0  0
 49 63  1  0  0  0  0
 50 63  1  0  0  0  0
 51 74  1  0  0  0  0
 52 75  1  0  0  0  0
 53 75  1  0  0  0  0
 54 64  1  0  0  0  0
 55 56  1  0  0  0  0
 55 62  1  0  0  0  0
 56 64  1  0  0  0  0
 57 58  1  0  0  0  0
 57 64  1  0  0  0  0
 58 73  1  0  0  0  0
 59 62  1  0  0  0  0
 59 82  1  0  0  0  0
 60 63  1  0  0  0  0
 60 72  1  0  0  0  0
 61 74  1  0  0  0  0
 64 75  1  0  0  0  0
 65 66  1  0  0  0  0
M  CHG  2  74   1  75   1
M  ISO  4  32 100  59 101  73 100  82 101
M  END
> <Batch ID>
0104

> <Smiles>
CCC(CC[100NH:0][100C:0](=O)N1CCCC(n2nc(-c3ccc(Oc4ccc(F)cc4F)cc3)c(C(N)=O)c2N)C1)(CCC(C)[101CH2:1][101O:1]c1ccc2c(c1)CN(C(=O)C(NC(=O)C(C)NC)C(C)(C)C)C(C(=O)NC1CCCc3ccccc31)C2)N(C)C

> <Shape>
0.245

> <Color>
0.189

> <Negative vol penalty>
0.000

$$$$

  -OEChem-04052319433D

 82 90  0     1  0  0  0  0  0999 V2000
  -23.4991  -18.1439   20.5860 C   0  0  0  0  0  0  0  0  0  0  0  0
  -24.2652  -19.2427   20.2103 C   0  0  0  0  0  0  0  0  0  0  0  0
  -26.5273  -12.8346   21.5620 C   0  0  0  0  0  0  0  0  0  0  0  0
  -26.1344  -13.7283   19.3520 C   0  0  0  0  0  0  0  0  0  0  0  0
  -22.1175  -18.2727   20.7226 C   0  0  0  0  0  0  0  0  0  0  0  0
  -23.6500  -20.4708   19.9699 C   0  0  0  0  0  0  0  0  0  0  0  0
  -26.1359  -24.3378   22.0940 C   0  0  0  0  0  0  0  0  0  0  0  0
  -25.2609  -12.2501   21.5508 C   0  0  0  0  0  0  0  0  0  0  0  0
  -24.8680  -13.1437   19.3408 C   0  0  0  0  0  0  0  0  0  0  0  0
  -27.2818  -24.7925   21.4430 C   0  0  0  0  0  0  0  0  0  0  0  0
  -23.7928   -9.5127   20.2151 C   0  0  0  0  0  0  0  0  0  0  0  0
  -23.6840   -8.1932   20.6539 C   0  0  0  0  0  0  0  0  0  0  0  0
  -26.0133  -26.6118   20.4940 C   0  0  0  0  0  0  0  0  0  0  0  0
  -29.9777  -23.1646   16.2820 C   0  0  0  0  0  0  0  0  0  0  0  0
  -29.3343  -20.9815   17.0594 C   0  0  0  0  0  0  0  0  0  0  0  0
  -22.1639   -8.8974   22.3947 C   0  0  0  0  0  0  0  0  0  0  0  0
  -26.9640  -13.5738   20.4626 C   0  0  0  0  0  0  0  0  0  0  0  0
  -29.4774  -13.6048   20.0273 C   0  0  0  0  0  0  0  0  0  0  0  0
  -21.4862  -19.5054   20.4931 C   0  0  0  0  0  0  0  0  0  0  0  0
  -24.9156  -25.0114   21.9409 C   0  0  0  0  0  0  0  0  0  0  0  0
  -22.2585  -20.6159   20.1023 C   0  0  0  0  0  0  0  0  0  0  0  0
  -24.8540  -26.1650   21.1462 C   0  0  0  0  0  0  0  0  0  0  0  0
  -29.4206  -21.9153   16.0328 C   0  0  0  0  0  0  0  0  0  0  0  0
  -24.4313  -12.4046   20.4402 C   0  0  0  0  0  0  0  0  0  0  0  0
  -27.2200  -25.9280   20.6405 C   0  0  0  0  0  0  0  0  0  0  0  0
  -23.0872  -10.5246   20.8661 C   0  0  0  0  0  0  0  0  0  0  0  0
  -22.8696   -7.8855   21.7437 C   0  0  0  0  0  0  0  0  0  0  0  0
  -22.2727  -10.2169   21.9559 C   0  0  0  0  0  0  0  0  0  0  0  0
  -28.2719  -14.1784   20.4738 C   0  0  0  0  0  0  0  0  0  0  0  0
  -30.4304  -23.4287   17.5646 C   0  0  0  0  0  0  0  0  0  0  0  0
  -29.8160  -21.3432   18.3072 C   0  0  0  0  0  0  0  0  0  0  0  0
  -30.4231  -14.5756   20.2508 C   0  0  0  0  0  0  0  0  0  0  0  0
  -29.7208  -12.3103   19.4611 C   0  0  0  0  0  0  0  0  0  0  0  0
  -22.0613  -24.2444   20.7712 C   0  0  0  0  0  0  0  0  0  0  0  0
  -21.2428  -27.1718   21.9040 C   0  0  0  0  0  0  0  0  0  0  0  0
  -22.2363  -30.3058   22.8192 C   0  0  0  0  0  0  0  0  0  0  0  0
  -30.1412  -20.5296   20.6691 C   0  0  0  0  0  0  0  0  0  0  0  0
  -19.9844  -19.5842   20.6074 C   0  0  0  0  0  0  0  0  0  0  0  0
  -23.6946  -24.5235   22.6713 C   0  0  0  0  0  0  0  0  0  0  0  0
  -23.5728  -26.9359   20.9654 C   0  0  0  0  0  0  0  0  0  0  0  0
  -19.4547  -21.0130   20.6986 C   0  0  0  0  0  0  0  0  0  0  0  0
  -31.3799  -18.2781   23.1335 C   0  0  0  0  0  0  0  0  0  0  0  0
  -20.1141  -21.8952   19.6434 C   0  0  0  0  0  0  0  0  0  0  0  0
  -30.8382  -16.9182   22.6871 C   0  0  0  0  0  0  0  0  0  0  0  0
  -30.3787  -19.4015   22.8704 C   0  0  0  0  0  0  0  0  0  0  0  0
  -29.3356  -18.1162   21.0458 C   0  0  0  0  0  0  0  0  0  0  0  0
  -21.6308  -21.9708   19.8568 C   0  0  1  0  0  0  0  0  0  0  0  0
  -22.3900  -24.9908   22.0332 C   0  0  1  0  0  0  0  0  0  0  0  0
  -30.3347  -16.9625   21.2311 C   0  0  2  0  0  0  0  0  0  0  0  0
  -28.9178  -21.5783   14.6703 C   0  0  0  0  0  0  0  0  0  0  0  0
  -21.3352  -32.4886   23.6682 C   0  0  0  0  0  0  0  0  0  0  0  0
  -30.7362  -27.1726   18.5540 C   0  0  0  0  0  0  0  0  0  0  0  0
  -20.1858  -27.8172   19.1154 C   0  0  0  0  0  0  0  0  0  0  0  0
  -20.1881  -30.2388   19.7510 C   0  0  0  0  0  0  0  0  0  0  0  0
  -18.7434  -28.6271   20.9910 C   0  0  0  0  0  0  0  0  0  0  0  0
  -23.8467  -30.1399   25.2967 C   0  0  0  0  0  0  0  0  0  0  0  0
  -31.0418  -24.7742   17.8717 C   0  0  0  0  0  0  0  0  0  0  0  0
  -29.3069  -25.3952   19.6322 C   0  0  0  0  0  0  0  0  0  1  0  0
  -21.2463  -28.5739   21.3445 C   0  0  1  0  0  0  0  0  0  0  0  0
  -21.9286  -31.1411   24.0489 C   0  0  2  0  0  0  0  0  0  0  0  0
  -30.0235  -25.8302   18.3459 C   0  0  1  0  0  0  0  0  0  0  0  0
  -20.1147  -28.7988   20.3021 C   0  0  0  0  0  0  0  0  0  0  0  0
  -28.4340  -15.4175   20.9455 N   0  0  0  0  0  0  0  0  0  0  0  0
  -30.3636  -22.5471   18.5873 N   0  0  0  0  0  0  0  0  0  0  0  0
  -29.7526  -15.6304   20.7967 N   0  0  0  0  0  0  0  0  0  0  0  0
  -22.4048  -26.4155   21.6951 N   0  0  0  0  0  0  0  0  0  0  0  0
  -29.9494  -19.3842   21.4703 N   0  0  0  0  0  0  0  0  0  0  0  0
  -31.7544  -14.6212   20.0318 N   0  0  0  0  0  0  0  0  0  0  0  0
  -28.6367  -11.4364   19.3012 N   0  0  0  0  0  0  0  0  0  0  0  0
  -29.7239  -20.3845   19.3464 N   0  0  0  0  0  0  0  0  0  0  0  0
  -21.9441  -22.8780   20.9400 N   0  0  0  0  0  0  0  0  0  0  0  0
  -21.1879  -29.4718   22.4929 N   0  0  0  0  0  0  0  0  0  0  0  0
  -23.1707  -31.3803   24.8367 N   0  3  0  0  0  0  0  0  0  0  0  0
  -30.8683  -11.9333   19.1225 O   0  0  0  0  0  0  0  0  0  0  0  0
  -21.9226  -24.8627   19.7223 O   0  0  0  0  0  0  0  0  0  0  0  0
  -20.2486  -26.7651   22.5104 O   0  0  0  0  0  0  0  0  0  0  0  0
  -23.2988  -30.3879   22.2071 O   0  0  0  0  0  0  0  0  0  0  0  0
  -30.6638  -21.5540   21.1157 O   0  0  0  0  0  0  0  0  0  0  0  0
  -23.1956  -11.8341   20.4288 O   0  0  0  0  0  0  0  0  0  0  0  0
  -28.3368  -26.3737   20.0034 O   0  0  0  0  0  0  0  0  0  1  0  0
  -22.7640   -6.6180   22.1640 F   0  0  0  0  0  0  0  0  0  0  0  0
  -21.5915  -11.1846   22.5847 F   0  0  0  0  0  0  0  0  0  0  0  0
  1  2  1  0  0  0  0
  1  5  2  0  0  0  0
  2  6  2  0  0  0  0
  3  8  2  0  0  0  0
  3 17  1  0  0  0  0
  4  9  1  0  0  0  0
  4 17  2  0  0  0  0
  5 19  1  0  0  0  0
  6 21  1  0  0  0  0
  7 10  2  0  0  0  0
  7 20  1  0  0  0  0
  8 24  1  0  0  0  0
  9 24  2  0  0  0  0
 10 25  1  0  0  0  0
 11 12  2  0  0  0  0
 11 26  1  0  0  0  0
 12 27  1  0  0  0  0
 13 22  1  0  0  0  0
 13 25  2  0  0  0  0
 14 23  2  0  0  0  0
 14 30  1  0  0  0  0
 15 23  1  0  0  0  0
 15 31  2  0  0  0  0
 16 27  2  0  0  0  0
 16 28  1  0  0  0  0
 17 29  1  0  0  0  0
 18 29  1  0  0  0  0
 18 32  2  0  0  0  0
 18 33  1  0  0  0  0
 19 21  2  0  0  0  0
 19 38  1  0  0  0  0
 20 22  2  0  0  0  0
 20 39  1  0  0  0  0
 21 47  1  0  0  0  0
 22 40  1  0  0  0  0
 23 50  1  0  0  0  0
 24 79  1  0  0  0  0
 25 80  1  0  0  0  0
 26 28  2  0  0  0  0
 26 79  1  0  0  0  0
 27 81  1  0  0  0  0
 28 82  1  0  0  0  0
 29 63  2  0  0  0  0
 30 57  1  0  0  0  0
 30 64  2  0  0  0  0
 31 64  1  0  0  0  0
 31 70  1  0  0  0  0
 32 65  1  0  0  0  0
 32 68  1  0  0  0  0
 33 69  1  0  0  0  0
 33 74  2  0  0  0  0
 34 48  1  0  0  0  0
 34 71  1  0  0  0  0
 34 75  2  0  0  0  0
 35 59  1  0  0  0  0
 35 66  1  0  0  0  0
 35 76  2  0  0  0  0
 36 60  1  0  0  0  0
 36 72  1  0  0  0  0
 36 77  2  0  0  0  0
 37 67  1  0  0  0  0
 37 70  1  0  0  0  0
 37 78  2  0  0  0  0
 38 41  1  0  0  0  0
 39 48  1  0  0  0  0
 40 66  1  0  0  0  0
 41 43  1  0  0  0  0
 42 44  1  0  0  0  0
 42 45  1  0  0  0  0
 43 47  1  0  0  0  0
 44 49  1  0  0  0  0
 45 67  1  0  0  0  0
 46 49  1  0  0  0  0
 46 67  1  0  0  0  0
 47 71  1  0  0  0  0
 48 66  1  0  0  0  0
 49 65  1  0  0  0  0
 51 60  1  0  0  0  0
 52 61  1  0  0  0  0
 53 62  1  0  0  0  0
 54 62  1  0  0  0  0
 55 62  1  0  0  0  0
 56 73  1  0  0  0  0
 57 61  1  0  0  0  0
 58 61  1  0  0  0  0
 58 80  1  0  0  0  0
 59 62  1  0  0  0  0
 59 72  1  0  0  0  0
 60 73  1  0  0  0  0
 63 65  1  0  0  0  0
M  CHG  1  73   1
M  ISO  4  37 100  58 101  70 100  80 101
M  END
> <Batch ID>
0104

> <Smiles>
CNC(C)C(=O)NC(C(=O)N1Cc2cc([101O:1][101CH2:1]C(C)Cc3cc(C)cc([100NH:0][100C:0](=O)N4CCCC(n5nc(-c6ccc(Oc7ccc(F)cc7F)cc6)c(C(N)=O)c5N)C4)n3)ccc2CC1C(=O)NC1CCCc2ccccc21)C(C)(C)C

> <Shape>
0.252

> <Color>
0.090

> <Negative vol penalty>
0.000

$$$$

  -OEChem-04052319433D

 75 82  0     1  0  0  0  0  0999 V2000
  -16.8744  -27.0380   20.8115 C   0  0  0  0  0  0  0  0  0  0  0  0
  -18.1289  -27.0378   20.2100 C   0  0  0  0  0  0  0  0  0  0  0  0
  -25.6535  -15.9242   21.7397 C   0  0  0  0  0  0  0  0  0  0  0  0
  -25.0784  -16.6956   19.5236 C   0  0  0  0  0  0  0  0  0  0  0  0
  -16.6682  -27.7528   21.9907 C   0  0  0  0  0  0  0  0  0  0  0  0
  -19.1776  -27.7533   20.7868 C   0  0  0  0  0  0  0  0  0  0  0  0
  -23.4994  -25.1161   20.8973 C   0  0  0  0  0  0  0  0  0  0  0  0
  -24.3938  -15.3380   21.8626 C   0  0  0  0  0  0  0  0  0  0  0  0
  -23.8187  -16.1092   19.6464 C   0  0  0  0  0  0  0  0  0  0  0  0
  -24.2225  -25.0286   19.7085 C   0  0  0  0  0  0  0  0  0  0  0  0
  -21.4600  -13.3287   22.6182 C   0  0  0  0  0  0  0  0  0  0  0  0
  -21.3942  -12.0363   23.1386 C   0  0  0  0  0  0  0  0  0  0  0  0
  -25.6981  -26.7719   20.4848 C   0  0  0  0  0  0  0  0  0  0  0  0
  -22.7729  -11.2352   21.3235 C   0  0  0  0  0  0  0  0  0  0  0  0
  -25.9958  -16.6031   20.5702 C   0  0  0  0  0  0  0  0  0  0  0  0
  -28.4657  -16.6142   19.9322 C   0  0  0  0  0  0  0  0  0  0  0  0
  -17.7174  -28.4696   22.5874 C   0  0  0  0  0  0  0  0  0  0  0  0
  -23.8642  -26.0412   21.8859 C   0  0  0  0  0  0  0  0  0  0  0  0
  -18.9848  -28.4794   21.9743 C   0  0  0  0  0  0  0  0  0  0  0  0
  -24.9795  -26.8673   21.6864 C   0  0  0  0  0  0  0  0  0  0  0  0
  -23.4764  -15.4304   20.8159 C   0  0  0  0  0  0  0  0  0  0  0  0
  -25.3203  -25.8586   19.5009 C   0  0  0  0  0  0  0  0  0  0  0  0
  -22.1822  -13.5744   21.4503 C   0  0  0  0  0  0  0  0  0  0  0  0
  -22.0506  -10.9895   22.4913 C   0  0  0  0  0  0  0  0  0  0  0  0
  -22.8386  -12.5277   20.8030 C   0  0  0  0  0  0  0  0  0  0  0  0
  -27.2966  -17.2094   20.4430 C   0  0  0  0  0  0  0  0  0  0  0  0
  -29.4204  -17.5971   20.0257 C   0  0  0  0  0  0  0  0  0  0  0  0
  -28.6702  -15.2911   19.4192 C   0  0  0  0  0  0  0  0  0  0  0  0
  -22.4529  -28.5428   23.2475 C   0  0  0  0  0  0  0  0  0  0  0  0
  -25.0861  -28.5041   25.1415 C   0  0  0  0  0  0  0  0  0  0  0  0
  -28.3551  -27.6088   25.5404 C   0  0  0  0  0  0  0  0  0  0  0  0
  -29.1175  -23.5753   20.1680 C   0  0  0  0  0  0  0  0  0  0  0  0
  -17.4342  -29.2658   23.8366 C   0  0  0  0  0  0  0  0  0  0  0  0
  -23.0900  -26.1046   23.1739 C   0  0  0  0  0  0  0  0  0  0  0  0
  -25.4247  -27.8632   22.7249 C   0  0  0  0  0  0  0  0  0  0  0  0
  -18.6940  -29.6926   24.5855 C   0  0  0  0  0  0  0  0  0  0  0  0
  -30.5897  -21.4475   22.6137 C   0  0  0  0  0  0  0  0  0  0  0  0
  -19.7211  -30.2700   23.6167 C   0  0  0  0  0  0  0  0  0  0  0  0
  -30.0182  -20.0664   22.2887 C   0  0  0  0  0  0  0  0  0  0  0  0
  -29.5622  -22.5528   22.3800 C   0  0  0  0  0  0  0  0  0  0  0  0
  -28.3803  -21.1760   20.7123 C   0  0  0  0  0  0  0  0  0  0  0  0
  -20.1538  -29.2232   22.5830 C   0  0  1  0  0  0  0  0  0  0  0  0
  -23.2405  -27.4398   23.8964 C   0  0  1  0  0  0  0  0  0  0  0  0
  -29.3974  -20.0340   20.8791 C   0  0  2  0  0  0  0  0  0  0  0  0
  -30.2491  -27.7464   27.1809 C   0  0  0  0  0  0  0  0  0  0  0  0
  -29.9168  -24.3775   17.1147 C   0  0  0  0  0  0  0  0  0  0  0  0
  -25.4953  -31.4402   24.4191 C   0  0  0  0  0  0  0  0  0  0  0  0
  -27.8394  -31.2528   25.2783 C   0  0  0  0  0  0  0  0  0  0  0  0
  -25.9142  -30.8890   26.8222 C   0  0  0  0  0  0  0  0  0  0  0  0
  -28.5476  -24.6624   25.7422 C   0  0  0  0  0  0  0  0  0  0  0  0
  -27.4039  -24.3707   16.9650 C   0  0  0  0  0  0  0  0  0  0  0  0
  -26.0726  -24.5029   17.6975 C   0  0  0  0  0  0  0  0  0  1  0  0
  -26.4554  -29.1369   25.0817 C   0  0  1  0  0  0  0  0  0  0  0  0
  -29.0775  -26.9154   26.6814 C   0  0  2  0  0  0  0  0  0  0  0  0
  -28.6128  -24.4555   17.9031 C   0  0  1  0  0  0  0  0  0  0  0  0
  -26.4168  -30.6624   25.3798 C   0  0  0  0  0  0  0  0  0  0  0  0
  -27.4889  -18.4726   20.8322 N   0  0  0  0  0  0  0  0  0  0  0  0
  -28.7899  -18.6791   20.5660 N   0  0  0  0  0  0  0  0  0  0  0  0
  -24.6316  -27.8918   23.9649 N   0  0  0  0  0  0  0  0  0  0  0  0
  -29.0132  -22.4670   21.0246 N   0  0  0  0  0  0  0  0  0  0  0  0
  -30.7295  -17.6328   19.6977 N   0  0  0  0  0  0  0  0  0  0  0  0
  -27.5820  -14.4082   19.3951 N   0  0  0  0  0  0  0  0  0  0  0  0
  -21.0960  -28.2939   23.1686 N   0  0  0  0  0  0  0  0  0  0  0  0
  -27.2991  -28.3713   25.9929 N   0  0  0  0  0  0  0  0  0  0  0  0
  -28.5769  -23.4077   18.8990 N   0  0  0  0  0  0  0  0  0  0  0  0
  -29.5964  -25.5909   26.2370 N   0  3  0  0  0  0  0  0  0  0  0  0
  -29.7889  -14.8980   19.0099 O   0  0  0  0  0  0  0  0  0  0  0  0
  -23.0332  -29.5460   22.8494 O   0  0  0  0  0  0  0  0  0  0  0  0
  -24.4465  -28.5451   26.1954 O   0  0  0  0  0  0  0  0  0  0  0  0
  -28.6959  -27.4892   24.3657 O   0  0  0  0  0  0  0  0  0  0  0  0
  -29.6575  -24.6338   20.5071 O   0  0  0  0  0  0  0  0  0  0  0  0
  -22.2472  -14.8583   20.9354 O   0  0  0  0  0  0  0  0  0  0  0  0
  -26.0274  -25.7757   18.3412 O   0  0  0  0  0  0  0  0  0  1  0  0
  -21.9886   -9.7487   22.9920 F   0  0  0  0  0  0  0  0  0  0  0  0
  -23.5350  -12.7578   19.6814 F   0  0  0  0  0  0  0  0  0  0  0  0
  1  2  1  0  0  0  0
  1  5  2  0  0  0  0
  2  6  2  0  0  0  0
  3  8  2  0  0  0  0
  3 15  1  0  0  0  0
  4  9  1  0  0  0  0
  4 15  2  0  0  0  0
  5 17  1  0  0  0  0
  6 19  1  0  0  0  0
  7 10  2  0  0  0  0
  7 18  1  0  0  0  0
  8 21  1  0  0  0  0
  9 21  2  0  0  0  0
 10 22  1  0  0  0  0
 11 12  2  0  0  0  0
 11 23  1  0  0  0  0
 12 24  1  0  0  0  0
 13 20  1  0  0  0  0
 13 22  2  0  0  0  0
 14 24  2  0  0  0  0
 14 25  1  0  0  0  0
 15 26  1  0  0  0  0
 16 26  1  0  0  0  0
 16 27  2  0  0  0  0
 16 28  1  0  0  0  0
 17 19  2  0  0  0  0
 17 33  1  0  0  0  0
 18 20  2  0  0  0  0
 18 34  1  0  0  0  0
 19 42  1  0  0  0  0
 20 35  1  0  0  0  0
 21 72  1  0  0  0  0
 22 73  1  0  0  0  0
 23 25  2  0  0  0  0
 23 72  1  0  0  0  0
 24 74  1  0  0  0  0
 25 75  1  0  0  0  0
 26 57  2  0  0  0  0
 27 58  1  0  0  0  0
 27 61  1  0  0  0  0
 28 62  1  0  0  0  0
 28 67  2  0  0  0  0
 29 43  1  0  0  0  0
 29 63  1  0  0  0  0
 29 68  2  0  0  0  0
 30 53  1  0  0  0  0
 30 59  1  0  0  0  0
 30 69  2  0  0  0  0
 31 54  1  0  0  0  0
 31 64  1  0  0  0  0
 31 70  2  0  0  0  0
 32 60  1  0  0  0  0
 32 65  1  0  0  0  0
 32 71  2  0  0  0  0
 33 36  1  0  0  0  0
 34 43  1  0  0  0  0
 35 59  1  0  0  0  0
 36 38  1  0  0  0  0
 37 39  1  0  0  0  0
 37 40  1  0  0  0  0
 38 42  1  0  0  0  0
 39 44  1  0  0  0  0
 40 60  1  0  0  0  0
 41 44  1  0  0  0  0
 41 60  1  0  0  0  0
 42 63  1  0  0  0  0
 43 59  1  0  0  0  0
 44 58  1  0  0  0  0
 45 54  1  0  0  0  0
 46 55  1  0  0  0  0
 47 56  1  0  0  0  0
 48 56  1  0  0  0  0
 49 56  1  0  0  0  0
 50 66  1  0  0  0  0
 51 52  1  0  0  0  0
 51 55  1  0  0  0  0
 52 73  1  0  0  0  0
 53 56  1  0  0  0  0
 53 64  1  0  0  0  0
 54 66  1  0  0  0  0
 55 65  1  0  0  0  0
 57 58  1  0  0  0  0
M  CHG  1  66   1
M  ISO  4  32 100  52 101  65 100  73 101
M  END
> <Batch ID>
0104

> <Smiles>
CNC(C)C(=O)NC(C(=O)N1Cc2cc([101O:1][101CH2:1]CC(C)[100NH:0][100C:0](=O)N3CCCC(n4nc(-c5ccc(Oc6ccc(F)cc6F)cc5)c(C(N)=O)c4N)C3)ccc2CC1C(=O)NC1CCCc2ccccc21)C(C)(C)C

> <Shape>
0.243

> <Color>
0.072

> <Negative vol penalty>
0.000

$$$$

  -OEChem-04052319433D

 84 92  0     1  0  0  0  0  0999 V2000
  -23.3177  -35.3852   25.5452 C   0  0  0  0  0  0  0  0  0  0  0  0
  -24.3113  -34.6378   24.9209 C   0  0  0  0  0  0  0  0  0  0  0  0
  -26.4712  -15.1984   21.2047 C   0  0  0  0  0  0  0  0  0  0  0  0
  -27.1158  -14.7248   18.9249 C   0  0  0  0  0  0  0  0  0  0  0  0
  -22.1448  -34.7643   25.9726 C   0  0  0  0  0  0  0  0  0  0  0  0
  -24.1329  -33.2689   24.7246 C   0  0  0  0  0  0  0  0  0  0  0  0
  -26.1159  -29.9406   19.9816 C   0  0  0  0  0  0  0  0  0  0  0  0
  -26.0783  -13.8702   21.3695 C   0  0  0  0  0  0  0  0  0  0  0  0
  -26.7229  -13.3966   19.0897 C   0  0  0  0  0  0  0  0  0  0  0  0
  -27.2302  -29.1199   19.8122 C   0  0  0  0  0  0  0  0  0  0  0  0
  -23.4302  -11.9365   20.5492 C   0  0  0  0  0  0  0  0  0  0  0  0
  -22.2091  -11.6961   21.1789 C   0  0  0  0  0  0  0  0  0  0  0  0
  -25.8887  -27.1939   20.3690 C   0  0  0  0  0  0  0  0  0  0  0  0
  -27.4633  -23.1001   16.2840 C   0  0  0  0  0  0  0  0  0  0  0  0
  -23.3462  -10.4488   22.9076 C   0  0  0  0  0  0  0  0  0  0  0  0
  -29.3783  -21.9783   15.9039 C   0  0  0  0  0  0  0  0  0  0  0  0
  -26.9899  -15.6257   19.9823 C   0  0  0  0  0  0  0  0  0  0  0  0
  -28.6691  -17.5447   20.0576 C   0  0  0  0  0  0  0  0  0  0  0  0
  -21.9478  -33.3888   25.7727 C   0  0  0  0  0  0  0  0  0  0  0  0
  -24.8802  -29.3945   20.3572 C   0  0  0  0  0  0  0  0  0  0  0  0
  -22.9568  -32.6288   25.1509 C   0  0  0  0  0  0  0  0  0  0  0  0
  -24.7597  -28.0095   20.5400 C   0  0  0  0  0  0  0  0  0  0  0  0
  -26.2041  -12.9693   20.3120 C   0  0  0  0  0  0  0  0  0  0  0  0
  -27.1174  -27.7467   20.0087 C   0  0  0  0  0  0  0  0  0  0  0  0
  -24.6094  -11.4330   21.0986 C   0  0  0  0  0  0  0  0  0  0  0  0
  -28.8675  -23.1251   16.4706 C   0  0  0  0  0  0  0  0  0  0  0  0
  -22.1671  -10.9523   22.3582 C   0  0  0  0  0  0  0  0  0  0  0  0
  -24.5674  -10.6892   22.2778 C   0  0  0  0  0  0  0  0  0  0  0  0
  -27.3955  -16.9977   19.8113 C   0  0  0  0  0  0  0  0  0  0  0  0
  -27.1588  -21.9386   15.6090 C   0  0  0  0  0  0  0  0  0  0  0  0
  -28.5379  -18.8753   19.7432 C   0  0  0  0  0  0  0  0  0  0  0  0
  -29.8638  -16.9071   20.5283 C   0  0  0  0  0  0  0  0  0  0  0  0
  -22.9445  -29.7332   22.8556 C   0  0  0  0  0  0  0  0  0  0  0  0
  -24.7369  -21.7840   16.1095 C   0  0  0  0  0  0  0  0  0  0  0  0
  -20.9789  -27.8472   21.0944 C   0  0  0  0  0  0  0  0  0  0  0  0
  -20.6487  -25.5098   18.6299 C   0  0  0  0  0  0  0  0  0  0  0  0
  -20.6835  -32.7532   26.2943 C   0  0  0  0  0  0  0  0  0  0  0  0
  -23.6814  -30.2901   20.5098 C   0  0  0  0  0  0  0  0  0  0  0  0
  -23.4506  -27.3712   20.9240 C   0  0  0  0  0  0  0  0  0  0  0  0
  -20.4130  -31.3682   25.7123 C   0  0  0  0  0  0  0  0  0  0  0  0
  -25.3119  -22.3950   19.5932 C   0  0  0  0  0  0  0  0  0  0  0  0
  -21.6789  -30.5177   25.7478 C   0  0  0  0  0  0  0  0  0  0  0  0
  -26.0015  -21.1184   20.0725 C   0  0  0  0  0  0  0  0  0  0  0  0
  -24.2717  -22.0977   18.5177 C   0  0  0  0  0  0  0  0  0  0  0  0
  -25.4985  -20.0646   17.8227 C   0  0  0  0  0  0  0  0  0  0  0  0
  -22.7897  -31.1461   24.8978 C   0  0  1  0  0  0  0  0  0  0  0  0
  -22.5946  -29.6880   21.3951 C   0  0  1  0  0  0  0  0  0  0  0  0
  -26.5788  -20.3237   18.8878 C   0  0  2  0  0  0  0  0  0  0  0  0
  -25.4540  -21.8696   13.7432 C   0  0  0  0  0  0  0  0  0  0  0  0
  -18.9212  -24.1321   17.4402 C   0  0  0  0  0  0  0  0  0  0  0  0
  -29.0107  -18.9049   15.6244 C   0  0  0  0  0  0  0  0  0  0  0  0
  -29.2820  -20.1154   13.4182 C   0  0  0  0  0  0  0  0  0  0  0  0
  -20.7906  -25.9981   23.5142 C   0  0  0  0  0  0  0  0  0  0  0  0
  -19.8747  -24.2260   22.0013 C   0  0  0  0  0  0  0  0  0  0  0  0
  -18.6291  -26.3650   22.3110 C   0  0  0  0  0  0  0  0  0  0  0  0
  -21.2985  -26.7400   16.0177 C   0  0  0  0  0  0  0  0  0  0  0  0
  -29.8877  -26.1493   18.3102 C   0  0  0  0  0  0  0  0  0  0  0  0
  -29.1845  -27.3631   18.8971 C   0  0  0  0  0  0  0  0  0  1  0  0
  -28.9148  -25.2074   17.6185 C   0  0  0  0  0  0  0  0  0  0  0  0
  -25.8509  -21.4176   15.1615 C   0  0  1  0  0  0  0  0  0  0  0  0
  -20.7648  -26.3591   20.9579 C   0  0  1  0  0  0  0  0  0  0  0  0
  -19.7142  -25.4297   17.4362 C   0  0  2  0  0  0  0  0  0  0  0  0
  -28.4600  -19.9949   14.7028 C   0  0  0  0  0  0  0  0  0  0  0  0
  -20.0401  -25.7490   22.1908 C   0  0  0  0  0  0  0  0  0  0  0  0
  -26.5197  -17.9066   19.3744 N   0  0  0  0  0  0  0  0  0  0  0  0
  -28.3305  -21.2645   15.3835 N   0  0  0  0  0  0  0  0  0  0  0  0
  -27.2440  -19.0381   19.3437 N   0  0  0  0  0  0  0  0  0  0  0  0
  -22.3090  -28.2897   21.0675 N   0  0  0  0  0  0  0  0  0  0  0  0
  -24.8537  -21.3224   17.4207 N   0  0  0  0  0  0  0  0  0  0  0  0
  -29.4042  -19.9102   19.7724 N   0  0  0  0  0  0  0  0  0  0  0  0
  -29.8242  -15.5333   20.8032 N   0  0  0  0  0  0  0  0  0  0  0  0
  -22.5535  -30.8957   23.4921 N   0  0  0  0  0  0  0  0  0  0  0  0
  -20.0629  -26.1619   19.6942 N   0  0  0  0  0  0  0  0  0  0  0  0
  -20.4896  -25.5027   16.1656 N   0  3  0  0  0  0  0  0  0  0  0  0
  -30.9305  -17.5401   20.7157 O   0  0  0  0  0  0  0  0  0  0  0  0
  -23.5248  -28.7830   23.3676 O   0  0  0  0  0  0  0  0  0  0  0  0
  -23.7933  -22.4628   15.6958 O   0  0  0  0  0  0  0  0  0  0  0  0
  -20.0015  -28.5904   21.2133 O   0  0  0  0  0  0  0  0  0  0  0  0
  -21.7833  -25.0375   18.6205 O   0  0  0  0  0  0  0  0  0  0  0  0
  -25.8210  -11.6732   20.4725 O   0  0  0  0  0  0  0  0  0  0  0  0
  -28.2035  -26.9435   19.8447 O   0  0  0  0  0  0  0  0  0  1  0  0
  -29.6172  -24.0897   17.0920 O   0  0  0  0  0  0  0  0  0  0  0  0
  -20.9945  -10.7228   22.9637 F   0  0  0  0  0  0  0  0  0  0  0  0
  -25.6970  -10.2039   22.8110 F   0  0  0  0  0  0  0  0  0  0  0  0
  1  2  1  0  0  0  0
  1  5  2  0  0  0  0
  2  6  2  0  0  0  0
  3  8  2  0  0  0  0
  3 17  1  0  0  0  0
  4  9  1  0  0  0  0
  4 17  2  0  0  0  0
  5 19  1  0  0  0  0
  6 21  1  0  0  0  0
  7 10  2  0  0  0  0
  7 20  1  0  0  0  0
  8 23  1  0  0  0  0
  9 23  2  0  0  0  0
 10 24  1  0  0  0  0
 11 12  2  0  0  0  0
 11 25  1  0  0  0  0
 12 27  1  0  0  0  0
 13 22  1  0  0  0  0
 13 24  2  0  0  0  0
 14 26  1  0  0  0  0
 14 30  2  0  0  0  0
 15 27  2  0  0  0  0
 15 28  1  0  0  0  0
 16 26  2  0  0  0  0
 16 66  1  0  0  0  0
 17 29  1  0  0  0  0
 18 29  1  0  0  0  0
 18 31  2  0  0  0  0
 18 32  1  0  0  0  0
 19 21  2  0  0  0  0
 19 37  1  0  0  0  0
 20 22  2  0  0  0  0
 20 38  1  0  0  0  0
 21 46  1  0  0  0  0
 22 39  1  0  0  0  0
 23 80  1  0  0  0  0
 24 81  1  0  0  0  0
 25 28  2  0  0  0  0
 25 80  1  0  0  0  0
 26 82  1  0  0  0  0
 27 83  1  0  0  0  0
 28 84  1  0  0  0  0
 29 65  2  0  0  0  0
 30 60  1  0  0  0  0
 30 66  1  0  0  0  0
 31 67  1  0  0  0  0
 31 70  1  0  0  0  0
 32 71  1  0  0  0  0
 32 75  2  0  0  0  0
 33 47  1  0  0  0  0
 33 72  1  0  0  0  0
 33 76  2  0  0  0  0
 34 60  1  0  0  0  0
 34 69  1  0  0  0  0
 34 77  2  0  0  0  0
 35 61  1  0  0  0  0
 35 68  1  0  0  0  0
 35 78  2  0  0  0  0
 36 62  1  0  0  0  0
 36 73  1  0  0  0  0
 36 79  2  0  0  0  0
 37 40  1  0  0  0  0
 38 47  1  0  0  0  0
 39 68  1  0  0  0  0
 40 42  1  0  0  0  0
 41 43  1  0  0  0  0
 41 44  1  0  0  0  0
 42 46  1  0  0  0  0
 43 48  1  0  0  0  0
 44 69  1  0  0  0  0
 45 48  1  0  0  0  0
 45 69  1  0  0  0  0
 46 72  1  0  0  0  0
 47 68  1  0  0  0  0
 48 67  1  0  0  0  0
 49 60  1  0  0  0  0
 50 62  1  0  0  0  0
 51 63  1  0  0  0  0
 52 63  1  0  0  0  0
 53 64  1  0  0  0  0
 54 64  1  0  0  0  0
 55 64  1  0  0  0  0
 56 74  1  0  0  0  0
 57 58  1  0  0  0  0
 57 59  1  0  0  0  0
 58 81  1  0  0  0  0
 59 82  1  0  0  0  0
 61 64  1  0  0  0  0
 61 73  1  0  0  0  0
 62 74  1  0  0  0  0
 63 66  1  0  0  0  0
 65 67  1  0  0  0  0
M  CHG  1  74   1
M  ISO  4  34 100  58 101  60 100  81 101
M  END
> <Batch ID>
0104

> <Smiles>
CNC(C)C(=O)NC(C(=O)N1Cc2cc([101O:1][101CH2:1]CCOc3cc([100CH:0](C)[100C:0](=O)N4CCCC(n5nc(-c6ccc(Oc7ccc(F)cc7F)cc6)c(C(N)=O)c5N)C4)n(C(C)C)c3)ccc2CC1C(=O)NC1CCCc2ccccc21)C(C)(C)C

> <Shape>
0.230

> <Color>
0.098

> <Negative vol penalty>
0.000

$$$$

  -OEChem-04052319433D

 83 90  0     1  0  0  0  0  0999 V2000
  -19.6471  -27.8009   21.1035 C   0  0  0  0  0  0  0  0  0  0  0  0
  -20.6054  -26.8996   20.6512 C   0  0  0  0  0  0  0  0  0  0  0  0
  -23.0639   -9.8960   19.9207 C   0  0  0  0  0  0  0  0  0  0  0  0
  -23.8793   -9.8251   22.1938 C   0  0  0  0  0  0  0  0  0  0  0  0
  -19.3050  -27.8332   22.4548 C   0  0  0  0  0  0  0  0  0  0  0  0
  -21.2230  -26.0306   21.5500 C   0  0  0  0  0  0  0  0  0  0  0  0
  -23.0460  -20.2873   20.4565 C   0  0  0  0  0  0  0  0  0  0  0  0
  -22.3362   -8.7274   20.1452 C   0  0  0  0  0  0  0  0  0  0  0  0
  -23.1515   -8.6565   22.4184 C   0  0  0  0  0  0  0  0  0  0  0  0
  -24.2897  -19.7420   20.1407 C   0  0  0  0  0  0  0  0  0  0  0  0
  -19.9459   -7.8065   23.0680 C   0  0  0  0  0  0  0  0  0  0  0  0
  -19.2180   -7.7160   24.2544 C   0  0  0  0  0  0  0  0  0  0  0  0
  -24.6444  -19.2182   22.4686 C   0  0  0  0  0  0  0  0  0  0  0  0
  -20.4935   -5.7644   24.8881 C   0  0  0  0  0  0  0  0  0  0  0  0
  -23.8355  -10.4448   20.9450 C   0  0  0  0  0  0  0  0  0  0  0  0
  -24.1528  -12.9758   20.9111 C   0  0  0  0  0  0  0  0  0  0  0  0
  -19.9116  -26.9576   23.3690 C   0  0  0  0  0  0  0  0  0  0  0  0
  -22.5962  -20.3120   21.7845 C   0  0  0  0  0  0  0  0  0  0  0  0
  -20.8896  -26.0521   22.9150 C   0  0  0  0  0  0  0  0  0  0  0  0
  -23.3936  -19.7621   22.7983 C   0  0  0  0  0  0  0  0  0  0  0  0
  -22.3800   -8.1077   21.3941 C   0  0  0  0  0  0  0  0  0  0  0  0
  -25.0904  -19.2100   21.1472 C   0  0  0  0  0  0  0  0  0  0  0  0
  -20.9475   -6.8759   22.7916 C   0  0  0  0  0  0  0  0  0  0  0  0
  -19.4918   -6.6950   25.1645 C   0  0  0  0  0  0  0  0  0  0  0  0
  -21.2213   -5.8548   23.7016 C   0  0  0  0  0  0  0  0  0  0  0  0
  -24.5879  -11.6516   20.7135 C   0  0  0  0  0  0  0  0  0  0  0  0
  -25.2293  -13.7485   20.5499 C   0  0  0  0  0  0  0  0  0  0  0  0
  -22.8885  -13.4637   21.3793 C   0  0  0  0  0  0  0  0  0  0  0  0
  -21.8268  -22.6024   23.8499 C   0  0  0  0  0  0  0  0  0  0  0  0
  -20.9191  -20.0942   25.6957 C   0  0  0  0  0  0  0  0  0  0  0  0
  -21.2354  -16.7778   26.4361 C   0  0  0  0  0  0  0  0  0  0  0  0
  -30.7072  -14.8115   20.6445 C   0  0  0  0  0  0  0  0  0  0  0  0
  -19.5434  -27.0619   24.8279 C   0  0  0  0  0  0  0  0  0  0  0  0
  -21.2406  -20.8796   22.1050 C   0  0  0  0  0  0  0  0  0  0  0  0
  -22.9479  -19.7459   24.2369 C   0  0  0  0  0  0  0  0  0  0  0  0
  -19.9731  -25.8513   25.6526 C   0  0  0  0  0  0  0  0  0  0  0  0
  -29.5322  -12.5065   18.1984 C   0  0  0  0  0  0  0  0  0  0  0  0
  -21.4142  -25.4698   25.3298 C   0  0  0  0  0  0  0  0  0  0  0  0
  -28.1083  -12.1834   18.6545 C   0  0  0  0  0  0  0  0  0  0  0  0
  -30.4764  -12.6913   19.3844 C   0  0  0  0  0  0  0  0  0  0  0  0
  -28.6027  -13.3525   20.8425 C   0  0  0  0  0  0  0  0  0  0  0  0
  -21.5638  -25.0766   23.8552 C   0  0  1  0  0  0  0  0  0  0  0  0
  -21.1049  -21.3169   23.5603 C   0  0  1  0  0  0  0  0  0  0  0  0
  -27.6017  -13.2125   19.6829 C   0  0  2  0  0  0  0  0  0  0  0  0
  -20.3924  -15.0240   28.0208 C   0  0  0  0  0  0  0  0  0  0  0  0
  -30.8151  -18.0073   19.5742 C   0  0  0  0  0  0  0  0  0  0  0  0
  -32.1656  -20.0479   18.9529 C   0  0  0  0  0  0  0  0  0  0  0  0
  -22.6990  -21.2317   27.8976 C   0  0  0  0  0  0  0  0  0  0  0  0
  -22.5733  -19.0124   29.0495 C   0  0  0  0  0  0  0  0  0  0  0  0
  -20.4973  -20.3475   28.6884 C   0  0  0  0  0  0  0  0  0  0  0  0
  -29.2763  -17.7857   23.7292 C   0  0  0  0  0  0  0  0  0  0  0  0
  -29.6880  -20.7115   22.0240 C   0  0  0  0  0  0  0  0  0  0  0  0
  -31.3311  -19.7937   23.6623 C   0  0  0  0  0  0  0  0  0  0  0  0
  -20.0953  -15.1672   24.2303 C   0  0  0  0  0  0  0  0  0  0  0  0
  -28.6149  -18.1369   21.3199 C   0  0  0  0  0  0  0  0  0  0  0  0
  -30.7847  -16.9152   21.9588 C   0  0  0  0  0  0  0  0  0  0  0  0
  -27.3178  -18.7566   21.8463 C   0  0  0  0  0  0  0  0  0  1  0  0
  -21.6017  -19.2154   26.7159 C   0  0  1  0  0  0  0  0  0  0  0  0
  -20.1979  -15.6944   26.6696 C   0  0  2  0  0  0  0  0  0  0  0  0
  -31.1330  -19.4578   19.8998 C   0  0  0  0  0  0  0  0  0  0  0  0
  -21.8523  -19.9536   28.0611 C   0  0  0  0  0  0  0  0  0  0  0  0
  -29.8308  -18.0988   22.3114 C   0  0  2  0  0  0  0  0  0  0  0  0
  -30.5950  -19.5060   22.3384 C   0  0  0  0  0  0  0  0  0  0  0  0
  -25.8430  -11.5833   20.2617 N   0  0  0  0  0  0  0  0  0  0  0  0
  -26.2057  -12.8742   20.1723 N   0  0  0  0  0  0  0  0  0  0  0  0
  -21.6173  -20.3182   24.5007 N   0  0  0  0  0  0  0  0  0  0  0  0
  -29.9388  -13.6810   20.3211 N   0  0  0  0  0  0  0  0  0  0  0  0
  -25.4265  -15.0837   20.5216 N   0  0  0  0  0  0  0  0  0  0  0  0
  -21.8929  -12.5332   21.7066 N   0  0  0  0  0  0  0  0  0  0  0  0
  -21.0654  -23.7356   23.6366 N   0  0  0  0  0  0  0  0  0  0  0  0
  -20.7798  -18.0160   26.8366 N   0  0  0  0  0  0  0  0  0  0  0  0
  -30.1208  -15.7027   21.5348 N   0  0  0  0  0  0  0  0  0  0  0  0
  -20.2908  -14.6511   25.6096 N   0  3  0  0  0  0  0  0  0  0  0  0
  -31.6678  -19.5227   21.2757 N   0  3  0  0  0  0  0  0  0  0  0  0
  -22.6432  -14.6891   21.4882 O   0  0  0  0  0  0  0  0  0  0  0  0
  -22.9882  -22.5687   24.2394 O   0  0  0  0  0  0  0  0  0  0  0  0
  -19.8044  -20.5587   25.9469 O   0  0  0  0  0  0  0  0  0  0  0  0
  -22.3408  -16.5479   25.9506 O   0  0  0  0  0  0  0  0  0  0  0  0
  -31.8302  -15.0143   20.1706 O   0  0  0  0  0  0  0  0  0  0  0  0
  -21.6698   -6.9675   21.6136 O   0  0  0  0  0  0  0  0  0  0  0  0
  -26.3122  -18.6745   20.8399 O   0  0  0  0  0  0  0  0  0  1  0  0
  -18.7938   -6.6092   26.3045 F   0  0  0  0  0  0  0  0  0  0  0  0
  -22.1832   -4.9586   23.4421 F   0  0  0  0  0  0  0  0  0  0  0  0
  1  2  1  0  0  0  0
  1  5  2  0  0  0  0
  2  6  2  0  0  0  0
  3  8  2  0  0  0  0
  3 15  1  0  0  0  0
  4  9  1  0  0  0  0
  4 15  2  0  0  0  0
  5 17  1  0  0  0  0
  6 19  1  0  0  0  0
  7 10  2  0  0  0  0
  7 18  1  0  0  0  0
  8 21  1  0  0  0  0
  9 21  2  0  0  0  0
 10 22  1  0  0  0  0
 11 12  2  0  0  0  0
 11 23  1  0  0  0  0
 12 24  1  0  0  0  0
 13 20  1  0  0  0  0
 13 22  2  0  0  0  0
 14 24  2  0  0  0  0
 14 25  1  0  0  0  0
 15 26  1  0  0  0  0
 16 26  1  0  0  0  0
 16 27  2  0  0  0  0
 16 28  1  0  0  0  0
 17 19  2  0  0  0  0
 17 33  1  0  0  0  0
 18 20  2  0  0  0  0
 18 34  1  0  0  0  0
 19 42  1  0  0  0  0
 20 35  1  0  0  0  0
 21 80  1  0  0  0  0
 22 81  1  0  0  0  0
 23 25  2  0  0  0  0
 23 80  1  0  0  0  0
 24 82  1  0  0  0  0
 25 83  1  0  0  0  0
 26 64  2  0  0  0  0
 27 65  1  0  0  0  0
 27 68  1  0  0  0  0
 28 69  1  0  0  0  0
 28 75  2  0  0  0  0
 29 43  1  0  0  0  0
 29 70  1  0  0  0  0
 29 76  2  0  0  0  0
 30 58  1  0  0  0  0
 30 66  1  0  0  0  0
 30 77  2  0  0  0  0
 31 59  1  0  0  0  0
 31 71  1  0  0  0  0
 31 78  2  0  0  0  0
 32 67  1  0  0  0  0
 32 72  1  0  0  0  0
 32 79  2  0  0  0  0
 33 36  1  0  0  0  0
 34 43  1  0  0  0  0
 35 66  1  0  0  0  0
 36 38  1  0  0  0  0
 37 39  1  0  0  0  0
 37 40  1  0  0  0  0
 38 42  1  0  0  0  0
 39 44  1  0  0  0  0
 40 67  1  0  0  0  0
 41 44  1  0  0  0  0
 41 67  1  0  0  0  0
 42 70  1  0  0  0  0
 43 66  1  0  0  0  0
 44 65  1  0  0  0  0
 45 59  1  0  0  0  0
 46 60  1  0  0  0  0
 47 60  1  0  0  0  0
 48 61  1  0  0  0  0
 49 61  1  0  0  0  0
 50 61  1  0  0  0  0
 51 62  1  0  0  0  0
 52 63  1  0  0  0  0
 53 63  1  0  0  0  0
 54 73  1  0  0  0  0
 55 57  1  0  0  0  0
 55 62  1  0  0  0  0
 56 62  1  0  0  0  0
 56 72  1  0  0  0  0
 57 81  1  0  0  0  0
 58 61  1  0  0  0  0
 58 71  1  0  0  0  0
 59 73  1  0  0  0  0
 60 74  1  0  0  0  0
 62 63  1  0  0  0  0
 63 74  1  0  0  0  0
 64 65  1  0  0  0  0
M  CHG  2  73   1  74   1
M  ISO  4  32 100  57 101  72 100  81 101
M  END
> <Batch ID>
0104

> <Smiles>
CNC(C)C(=O)NC(C(=O)N1Cc2cc([101O:1][101CH2:1]CC(C)(C[100NH:0][100C:0](=O)N3CCCC(n4nc(-c5ccc(Oc6ccc(F)cc6F)cc5)c(C(N)=O)c4N)C3)C(C)(C)NC(C)C)ccc2CC1C(=O)NC1CCCc2ccccc21)C(C)(C)C

> <Shape>
0.226

> <Color>
0.186

> <Negative vol penalty>
0.000

$$$$

  -OEChem-04052319433D

 76 83  0     1  0  0  0  0  0999 V2000
  -25.4160  -19.7204   25.4397 C   0  0  0  0  0  0  0  0  0  0  0  0
  -26.2804  -20.6612   24.8916 C   0  0  0  0  0  0  0  0  0  0  0  0
  -27.0998  -14.4956   21.6874 C   0  0  0  0  0  0  0  0  0  0  0  0
  -27.4992  -14.3354   19.3100 C   0  0  0  0  0  0  0  0  0  0  0  0
  -24.0392  -19.8751   25.2921 C   0  0  0  0  0  0  0  0  0  0  0  0
  -25.7682  -21.7632   24.2060 C   0  0  0  0  0  0  0  0  0  0  0  0
  -28.9802  -25.2199   22.8139 C   0  0  0  0  0  0  0  0  0  0  0  0
  -26.5133  -13.2301   21.6742 C   0  0  0  0  0  0  0  0  0  0  0  0
  -26.9128  -13.0698   19.2968 C   0  0  0  0  0  0  0  0  0  0  0  0
  -29.8941  -25.0265   21.7789 C   0  0  0  0  0  0  0  0  0  0  0  0
  -23.5407  -11.8717   20.8124 C   0  0  0  0  0  0  0  0  0  0  0  0
  -22.3442  -11.7054   21.5097 C   0  0  0  0  0  0  0  0  0  0  0  0
  -28.5235  -26.3774   20.3243 C   0  0  0  0  0  0  0  0  0  0  0  0
  -23.3872  -10.0265   22.8991 C   0  0  0  0  0  0  0  0  0  0  0  0
  -27.5927  -15.0483   20.5053 C   0  0  0  0  0  0  0  0  0  0  0  0
  -29.5564  -16.6616   20.7256 C   0  0  0  0  0  0  0  0  0  0  0  0
  -23.5111  -20.9732   24.5935 C   0  0  0  0  0  0  0  0  0  0  0  0
  -27.8236  -25.9857   22.6083 C   0  0  0  0  0  0  0  0  0  0  0  0
  -24.3810  -21.9497   24.0669 C   0  0  0  0  0  0  0  0  0  0  0  0
  -27.5978  -26.5811   21.3591 C   0  0  0  0  0  0  0  0  0  0  0  0
  -26.4199  -12.5172   20.4789 C   0  0  0  0  0  0  0  0  0  0  0  0
  -29.6644  -25.6029   20.5331 C   0  0  0  0  0  0  0  0  0  0  0  0
  -24.6605  -11.1153   21.1584 C   0  0  0  0  0  0  0  0  0  0  0  0
  -22.2674  -10.7828   22.5530 C   0  0  0  0  0  0  0  0  0  0  0  0
  -24.5838  -10.1928   22.2017 C   0  0  0  0  0  0  0  0  0  0  0  0
  -28.1980  -16.3557   20.5182 C   0  0  0  0  0  0  0  0  0  0  0  0
  -29.6166  -18.0312   20.6426 C   0  0  0  0  0  0  0  0  0  0  0  0
  -30.6648  -15.7859   20.9713 C   0  0  0  0  0  0  0  0  0  0  0  0
  -24.7003  -25.4061   22.7200 C   0  0  0  0  0  0  0  0  0  0  0  0
  -24.4844  -28.6103   22.2633 C   0  0  0  0  0  0  0  0  0  0  0  0
  -25.9315  -31.4756   21.1046 C   0  0  0  0  0  0  0  0  0  0  0  0
  -28.2144  -22.8218   18.1466 C   0  0  0  0  0  0  0  0  0  0  0  0
  -22.0127  -21.0957   24.4704 C   0  0  0  0  0  0  0  0  0  0  0  0
  -26.8610  -26.2069   23.7427 C   0  0  0  0  0  0  0  0  0  0  0  0
  -26.3817  -27.4288   21.0929 C   0  0  0  0  0  0  0  0  0  0  0  0
  -21.5833  -22.0458   23.3572 C   0  0  0  0  0  0  0  0  0  0  0  0
  -25.9253  -21.4877   20.5249 C   0  0  0  0  0  0  0  0  0  0  0  0
  -22.3407  -23.3600   23.4746 C   0  0  0  0  0  0  0  0  0  0  0  0
  -26.4208  -20.0576   20.7473 C   0  0  0  0  0  0  0  0  0  0  0  0
  -26.0987  -21.9256   19.0723 C   0  0  0  0  0  0  0  0  0  0  0  0
  -27.9600  -20.3408   18.7600 C   0  0  0  0  0  0  0  0  0  0  0  0
  -23.8476  -23.1402   23.2907 C   0  0  1  0  0  0  0  0  0  0  0  0
  -25.4586  -26.5798   23.2722 C   0  0  1  0  0  0  0  0  0  0  0  0
  -27.8574  -19.8740   20.2221 C   0  0  2  0  0  0  0  0  0  0  0  0
  -25.4964  -33.9322   20.8341 C   0  0  0  0  0  0  0  0  0  0  0  0
  -22.6568  -28.0230   19.8917 C   0  0  0  0  0  0  0  0  0  0  0  0
  -23.0275  -30.3735   19.1132 C   0  0  0  0  0  0  0  0  0  0  0  0
  -21.9335  -29.9484   21.3143 C   0  0  0  0  0  0  0  0  0  0  0  0
  -32.5579  -24.8808   17.4539 C   0  0  0  0  0  0  0  0  0  0  0  0
  -32.4956  -22.4743   18.1632 C   0  0  0  0  0  0  0  0  0  0  0  0
  -28.2198  -32.1901   22.8402 C   0  0  0  0  0  0  0  0  0  0  0  0
  -30.4005  -23.5722   17.2427 C   0  0  0  0  0  0  0  0  0  0  0  0
  -31.2888  -24.1917   19.5203 C   0  0  0  0  0  0  0  0  0  1  0  0
  -24.4112  -29.5158   21.0577 C   0  0  1  0  0  0  0  0  0  0  0  0
  -26.0830  -32.8512   21.7286 C   0  0  2  0  0  0  0  0  0  0  0  0
  -23.0293  -29.4476   20.3483 C   0  0  0  0  0  0  0  0  0  0  0  0
  -31.6832  -23.7797   18.0831 C   0  0  0  0  0  0  0  0  0  0  0  0
  -27.4492  -17.4436   20.3185 N   0  0  0  0  0  0  0  0  0  0  0  0
  -28.3402  -18.4464   20.4002 N   0  0  0  0  0  0  0  0  0  0  0  0
  -25.4668  -27.6104   22.2320 N   0  0  0  0  0  0  0  0  0  0  0  0
  -27.4831  -21.7272   18.6366 N   0  0  0  0  0  0  0  0  0  0  0  0
  -30.6362  -18.9089   20.7540 N   0  0  0  0  0  0  0  0  0  0  0  0
  -30.4268  -14.4058   21.0251 N   0  0  0  0  0  0  0  0  0  0  0  0
  -24.5462  -24.3644   23.6149 N   0  0  0  0  0  0  0  0  0  0  0  0
  -24.7779  -30.8483   21.5250 N   0  0  0  0  0  0  0  0  0  0  0  0
  -29.5210  -22.5482   17.7610 N   0  0  0  0  0  0  0  0  0  0  0  0
  -27.5228  -33.1605   21.9573 N   0  3  0  0  0  0  0  0  0  0  0  0
  -31.8289  -16.2157   21.1546 O   0  0  0  0  0  0  0  0  0  0  0  0
  -24.2844  -25.4433   21.5679 O   0  0  0  0  0  0  0  0  0  0  0  0
  -23.7036  -28.7882   23.2016 O   0  0  0  0  0  0  0  0  0  0  0  0
  -26.7525  -31.0062   20.3197 O   0  0  0  0  0  0  0  0  0  0  0  0
  -27.7399  -23.9597   18.0641 O   0  0  0  0  0  0  0  0  0  0  0  0
  -25.8479  -11.2822   20.4657 O   0  0  0  0  0  0  0  0  0  0  0  0
  -30.5545  -25.4153   19.5210 O   0  0  0  0  0  0  0  0  0  1  0  0
  -21.1187  -10.6243   23.2236 F   0  0  0  0  0  0  0  0  0  0  0  0
  -25.6565   -9.4641   22.5395 F   0  0  0  0  0  0  0  0  0  0  0  0
  1  2  1  0  0  0  0
  1  5  2  0  0  0  0
  2  6  2  0  0  0  0
  3  8  2  0  0  0  0
  3 15  1  0  0  0  0
  4  9  1  0  0  0  0
  4 15  2  0  0  0  0
  5 17  1  0  0  0  0
  6 19  1  0  0  0  0
  7 10  2  0  0  0  0
  7 18  1  0  0  0  0
  8 21  1  0  0  0  0
  9 21  2  0  0  0  0
 10 22  1  0  0  0  0
 11 12  2  0  0  0  0
 11 23  1  0  0  0  0
 12 24  1  0  0  0  0
 13 20  1  0  0  0  0
 13 22  2  0  0  0  0
 14 24  2  0  0  0  0
 14 25  1  0  0  0  0
 15 26  1  0  0  0  0
 16 26  1  0  0  0  0
 16 27  2  0  0  0  0
 16 28  1  0  0  0  0
 17 19  2  0  0  0  0
 17 33  1  0  0  0  0
 18 20  2  0  0  0  0
 18 34  1  0  0  0  0
 19 42  1  0  0  0  0
 20 35  1  0  0  0  0
 21 73  1  0  0  0  0
 22 74  1  0  0  0  0
 23 25  2  0  0  0  0
 23 73  1  0  0  0  0
 24 75  1  0  0  0  0
 25 76  1  0  0  0  0
 26 58  2  0  0  0  0
 27 59  1  0  0  0  0
 27 62  1  0  0  0  0
 28 63  1  0  0  0  0
 28 68  2  0  0  0  0
 29 43  1  0  0  0  0
 29 64  1  0  0  0  0
 29 69  2  0  0  0  0
 30 54  1  0  0  0  0
 30 60  1  0  0  0  0
 30 70  2  0  0  0  0
 31 55  1  0  0  0  0
 31 65  1  0  0  0  0
 31 71  2  0  0  0  0
 32 61  1  0  0  0  0
 32 66  1  0  0  0  0
 32 72  2  0  0  0  0
 33 36  1  0  0  0  0
 34 43  1  0  0  0  0
 35 60  1  0  0  0  0
 36 38  1  0  0  0  0
 37 39  1  0  0  0  0
 37 40  1  0  0  0  0
 38 42  1  0  0  0  0
 39 44  1  0  0  0  0
 40 61  1  0  0  0  0
 41 44  1  0  0  0  0
 41 61  1  0  0  0  0
 42 64  1  0  0  0  0
 43 60  1  0  0  0  0
 44 59  1  0  0  0  0
 45 55  1  0  0  0  0
 46 56  1  0  0  0  0
 47 56  1  0  0  0  0
 48 56  1  0  0  0  0
 49 57  1  0  0  0  0
 50 57  1  0  0  0  0
 51 67  1  0  0  0  0
 52 57  1  0  0  0  0
 52 66  1  0  0  0  0
 53 57  1  0  0  0  0
 53 74  1  0  0  0  0
 54 56  1  0  0  0  0
 54 65  1  0  0  0  0
 55 67  1  0  0  0  0
 58 59  1  0  0  0  0
M  CHG  1  67   1
M  ISO  4  32 100  53 101  66 100  74 101
M  END
> <Batch ID>
0104

> <Smiles>
CNC(C)C(=O)NC(C(=O)N1Cc2cc([101O:1][101CH2:1]C(C)(C)C[100NH:0][100C:0](=O)N3CCCC(n4nc(-c5ccc(Oc6ccc(F)cc6F)cc5)c(C(N)=O)c4N)C3)ccc2CC1C(=O)NC1CCCc2ccccc21)C(C)(C)C

> <Shape>
0.221

> <Color>
0.058

> <Negative vol penalty>
0.000

$$$$

  -OEChem-04052319433D

 82 90  0     1  0  0  0  0  0999 V2000
  -17.0016  -27.9654   24.3042 C   0  0  0  0  0  0  0  0  0  0  0  0
  -17.7188  -27.0795   23.5066 C   0  0  0  0  0  0  0  0  0  0  0  0
  -26.5436  -12.9418   21.1459 C   0  0  0  0  0  0  0  0  0  0  0  0
  -25.0972  -14.7324   20.4120 C   0  0  0  0  0  0  0  0  0  0  0  0
  -17.2999  -29.3270   24.2739 C   0  0  0  0  0  0  0  0  0  0  0  0
  -18.7339  -27.5549   22.6772 C   0  0  0  0  0  0  0  0  0  0  0  0
  -22.9119  -24.7010   22.8890 C   0  0  0  0  0  0  0  0  0  0  0  0
  -25.4298  -12.2129   21.5628 C   0  0  0  0  0  0  0  0  0  0  0  0
  -23.9834  -14.0035   20.8289 C   0  0  0  0  0  0  0  0  0  0  0  0
  -22.9011  -23.5026   22.1767 C   0  0  0  0  0  0  0  0  0  0  0  0
  -22.9446   -9.7273   22.4906 C   0  0  0  0  0  0  0  0  0  0  0  0
  -22.8955   -8.3728   22.1610 C   0  0  0  0  0  0  0  0  0  0  0  0
  -24.1547  -24.5524   20.4031 C   0  0  0  0  0  0  0  0  0  0  0  0
  -26.6334  -20.4037   20.7872 C   0  0  0  0  0  0  0  0  0  0  0  0
  -22.9834   -8.9406   19.8143 C   0  0  0  0  0  0  0  0  0  0  0  0
  -26.1225  -20.3545   18.5949 C   0  0  0  0  0  0  0  0  0  0  0  0
  -26.3773  -14.2015   20.5706 C   0  0  0  0  0  0  0  0  0  0  0  0
  -28.1362  -14.9269   18.8711 C   0  0  0  0  0  0  0  0  0  0  0  0
  -18.3257  -29.8181   23.4509 C   0  0  0  0  0  0  0  0  0  0  0  0
  -23.5358  -25.8391   22.3579 C   0  0  0  0  0  0  0  0  0  0  0  0
  -19.0453  -28.9245   22.6348 C   0  0  0  0  0  0  0  0  0  0  0  0
  -24.1742  -25.7634   21.1117 C   0  0  0  0  0  0  0  0  0  0  0  0
  -25.5831  -20.2175   19.8549 C   0  0  0  0  0  0  0  0  0  0  0  0
  -24.1497  -12.7438   21.4043 C   0  0  0  0  0  0  0  0  0  0  0  0
  -23.5201  -23.4289   20.9323 C   0  0  0  0  0  0  0  0  0  0  0  0
  -23.0131  -10.6884   21.4820 C   0  0  0  0  0  0  0  0  0  0  0  0
  -22.9149   -7.9794   20.8229 C   0  0  0  0  0  0  0  0  0  0  0  0
  -23.0325  -10.2951   20.1439 C   0  0  0  0  0  0  0  0  0  0  0  0
  -27.5275  -14.9552   20.1402 C   0  0  0  0  0  0  0  0  0  0  0  0
  -27.7827  -20.6491   20.0686 C   0  0  0  0  0  0  0  0  0  0  0  0
  -29.1808  -15.8130   18.9715 C   0  0  0  0  0  0  0  0  0  0  0  0
  -27.7883  -14.1676   17.7057 C   0  0  0  0  0  0  0  0  0  0  0  0
  -22.5580  -28.7404   21.5035 C   0  0  0  0  0  0  0  0  0  0  0  0
  -25.7310  -29.2567   21.0699 C   0  0  0  0  0  0  0  0  0  0  0  0
  -28.8235  -27.9461   20.4655 C   0  0  0  0  0  0  0  0  0  0  0  0
  -29.8784  -20.4448   22.9210 C   0  0  0  0  0  0  0  0  0  0  0  0
  -18.5801  -31.3043   23.4166 C   0  0  0  0  0  0  0  0  0  0  0  0
  -23.5618  -27.1170   23.1507 C   0  0  0  0  0  0  0  0  0  0  0  0
  -24.8754  -26.9510   20.5065 C   0  0  0  0  0  0  0  0  0  0  0  0
  -19.9209  -31.6784   22.7902 C   0  0  0  0  0  0  0  0  0  0  0  0
  -32.2237  -17.6888   22.1427 C   0  0  0  0  0  0  0  0  0  0  0  0
  -20.1351  -30.9110   21.4895 C   0  0  0  0  0  0  0  0  0  0  0  0
  -31.3113  -16.6473   21.4971 C   0  0  0  0  0  0  0  0  0  0  0  0
  -31.4678  -18.5686   23.1338 C   0  0  0  0  0  0  0  0  0  0  0  0
  -29.3522  -18.1868   21.9121 C   0  0  0  0  0  0  0  0  0  0  0  0
  -20.1702  -29.3987   21.7405 C   0  0  1  0  0  0  0  0  0  0  0  0
  -23.7820  -28.3533   22.2843 C   0  0  1  0  0  0  0  0  0  0  0  0
  -30.0728  -17.3141   20.8736 C   0  0  2  0  0  0  0  0  0  0  0  0
  -23.9911  -18.5832   20.9162 C   0  0  0  0  0  0  0  0  0  0  0  0
  -31.2169  -28.6203   20.1270 C   0  0  0  0  0  0  0  0  0  0  0  0
  -25.0648  -30.1934   18.2434 C   0  0  0  0  0  0  0  0  0  0  0  0
  -27.4872  -29.9404   17.6636 C   0  0  0  0  0  0  0  0  0  0  0  0
  -26.7903  -31.5699   19.4191 C   0  0  0  0  0  0  0  0  0  0  0  0
  -28.3768  -20.8251   17.6376 C   0  0  0  0  0  0  0  0  0  0  0  0
  -28.8006  -22.5798   22.3214 C   0  0  0  0  0  0  0  0  0  0  0  0
  -29.7137  -26.4026   22.8286 C   0  0  0  0  0  0  0  0  0  0  0  0
  -29.1582  -20.9107   20.5405 C   0  0  0  0  0  0  0  0  0  0  0  0
  -23.4796  -21.0518   20.9925 C   0  0  0  0  0  0  0  0  0  1  0  0
  -24.1283  -19.9206   20.1831 C   0  0  1  0  0  0  0  0  0  0  0  0
  -26.6931  -29.0933   19.9181 C   0  0  1  0  0  0  0  0  0  0  0  0
  -30.1657  -28.1816   21.1346 C   0  0  2  0  0  0  0  0  0  0  0  0
  -26.4941  -30.1772   18.8213 C   0  0  0  0  0  0  0  0  0  0  0  0
  -28.1350  -15.7928   20.9849 N   0  0  0  0  0  0  0  0  0  0  0  0
  -27.4601  -20.6170   18.7370 N   0  0  0  0  0  0  0  0  0  0  0  0
  -29.1363  -16.2990   20.2451 N   0  0  0  0  0  0  0  0  0  0  0  0
  -24.8680  -28.1798   21.3175 N   0  0  0  0  0  0  0  0  0  0  0  0
  -30.2720  -19.1551   22.5278 N   0  0  0  0  0  0  0  0  0  0  0  0
  -30.1239  -16.2160   18.0938 N   0  0  0  0  0  0  0  0  0  0  0  0
  -26.6861  -13.3047   17.7750 N   0  0  0  0  0  0  0  0  0  0  0  0
  -21.4516  -29.0067   22.2873 N   0  0  0  0  0  0  0  0  0  0  0  0
  -28.0297  -29.0729   20.5025 N   0  0  0  0  0  0  0  0  0  0  0  0
  -29.2181  -21.2313   21.9649 N   0  0  0  0  0  0  0  0  0  0  0  0
  -30.6407  -26.9336   21.7963 N   0  3  0  0  0  0  0  0  0  0  0  0
  -28.4456  -14.2396   16.6398 O   0  0  0  0  0  0  0  0  0  0  0  0
  -22.6137  -28.7949   20.2805 O   0  0  0  0  0  0  0  0  0  0  0  0
  -25.7494  -30.2985   21.7301 O   0  0  0  0  0  0  0  0  0  0  0  0
  -28.5120  -26.8713   19.9574 O   0  0  0  0  0  0  0  0  0  0  0  0
  -30.1128  -20.8725   24.0586 O   0  0  0  0  0  0  0  0  0  0  0  0
  -23.0626  -12.0327   21.8108 O   0  0  0  0  0  0  0  0  0  0  0  0
  -23.5105  -22.2605   20.2346 O   0  0  0  0  0  0  0  0  0  1  0  0
  -22.8692   -6.6787   20.5067 F   0  0  0  0  0  0  0  0  0  0  0  0
  -23.0993  -11.2138   19.1706 F   0  0  0  0  0  0  0  0  0  0  0  0
  1  2  1  0  0  0  0
  1  5  2  0  0  0  0
  2  6  2  0  0  0  0
  3  8  2  0  0  0  0
  3 17  1  0  0  0  0
  4  9  1  0  0  0  0
  4 17  2  0  0  0  0
  5 19  1  0  0  0  0
  6 21  1  0  0  0  0
  7 10  2  0  0  0  0
  7 20  1  0  0  0  0
  8 24  1  0  0  0  0
  9 24  2  0  0  0  0
 10 25  1  0  0  0  0
 11 12  2  0  0  0  0
 11 26  1  0  0  0  0
 12 27  1  0  0  0  0
 13 22  1  0  0  0  0
 13 25  2  0  0  0  0
 14 23  1  0  0  0  0
 14 30  2  0  0  0  0
 15 27  2  0  0  0  0
 15 28  1  0  0  0  0
 16 23  2  0  0  0  0
 16 64  1  0  0  0  0
 17 29  1  0  0  0  0
 18 29  1  0  0  0  0
 18 31  2  0  0  0  0
 18 32  1  0  0  0  0
 19 21  2  0  0  0  0
 19 37  1  0  0  0  0
 20 22  2  0  0  0  0
 20 38  1  0  0  0  0
 21 46  1  0  0  0  0
 22 39  1  0  0  0  0
 23 59  1  0  0  0  0
 24 79  1  0  0  0  0
 25 80  1  0  0  0  0
 26 28  2  0  0  0  0
 26 79  1  0  0  0  0
 27 81  1  0  0  0  0
 28 82  1  0  0  0  0
 29 63  2  0  0  0  0
 30 57  1  0  0  0  0
 30 64  1  0  0  0  0
 31 65  1  0  0  0  0
 31 68  1  0  0  0  0
 32 69  1  0  0  0  0
 32 74  2  0  0  0  0
 33 47  1  0  0  0  0
 33 70  1  0  0  0  0
 33 75  2  0  0  0  0
 34 60  1  0  0  0  0
 34 66  1  0  0  0  0
 34 76  2  0  0  0  0
 35 61  1  0  0  0  0
 35 71  1  0  0  0  0
 35 77  2  0  0  0  0
 36 67  1  0  0  0  0
 36 72  1  0  0  0  0
 36 78  2  0  0  0  0
 37 40  1  0  0  0  0
 38 47  1  0  0  0  0
 39 66  1  0  0  0  0
 40 42  1  0  0  0  0
 41 43  1  0  0  0  0
 41 44  1  0  0  0  0
 42 46  1  0  0  0  0
 43 48  1  0  0  0  0
 44 67  1  0  0  0  0
 45 48  1  0  0  0  0
 45 67  1  0  0  0  0
 46 70  1  0  0  0  0
 47 66  1  0  0  0  0
 48 65  1  0  0  0  0
 49 59  1  0  0  0  0
 50 61  1  0  0  0  0
 51 62  1  0  0  0  0
 52 62  1  0  0  0  0
 53 62  1  0  0  0  0
 54 64  1  0  0  0  0
 55 72  1  0  0  0  0
 56 73  1  0  0  0  0
 57 72  1  0  0  0  0
 58 59  1  0  0  0  0
 58 80  1  0  0  0  0
 60 62  1  0  0  0  0
 60 71  1  0  0  0  0
 61 73  1  0  0  0  0
 63 65  1  0  0  0  0
M  CHG  1  73   1
M  ISO  4  36 100  58 101  72 100  80 101
M  END
> <Batch ID>
0104

> <Smiles>
CNC(C)C(=O)NC(C(=O)N1Cc2cc([101O:1][101CH2:1]C(C)c3cc(C[100N:0](C)[100C:0](=O)N4CCCC(n5nc(-c6ccc(Oc7ccc(F)cc7F)cc6)c(C(N)=O)c5N)C4)n(C)c3)ccc2CC1C(=O)NC1CCCc2ccccc21)C(C)(C)C

> <Shape>
0.260

> <Color>
0.073

> <Negative vol penalty>
0.000

$$$$

  -OEChem-04052319433D

 92101  0     1  0  0  0  0  0999 V2000
  -17.9282  -27.8499   22.1158 C   0  0  0  0  0  0  0  0  0  0  0  0
  -18.7196  -26.8508   21.5583 C   0  0  0  0  0  0  0  0  0  0  0  0
  -21.7819  -17.8589   20.9443 C   0  0  0  0  0  0  0  0  0  0  0  0
  -22.7630  -17.2876   18.8117 C   0  0  0  0  0  0  0  0  0  0  0  0
  -18.4697  -28.7209   23.0602 C   0  0  0  0  0  0  0  0  0  0  0  0
  -20.0535  -26.7228   21.9441 C   0  0  0  0  0  0  0  0  0  0  0  0
  -23.2469  -21.5252   22.4855 C   0  0  0  0  0  0  0  0  0  0  0  0
  -29.1311  -28.7825   16.0967 C   0  0  0  0  0  0  0  0  0  0  0  0
  -28.1129  -27.8537   16.3113 C   0  0  0  0  0  0  0  0  0  0  0  0
  -21.9257  -16.5368   21.3647 C   0  0  0  0  0  0  0  0  0  0  0  0
  -22.9069  -15.9654   19.2322 C   0  0  0  0  0  0  0  0  0  0  0  0
  -24.1494  -20.8861   21.6365 C   0  0  0  0  0  0  0  0  0  0  0  0
  -25.0182  -14.1898   21.1841 C   0  0  0  0  0  0  0  0  0  0  0  0
  -26.2336  -13.5571   20.9235 C   0  0  0  0  0  0  0  0  0  0  0  0
  -25.9820  -21.9214   22.8149 C   0  0  0  0  0  0  0  0  0  0  0  0
  -30.6612  -27.3948   17.3497 C   0  0  0  0  0  0  0  0  0  0  0  0
  -25.0823  -11.8848   19.6138 C   0  0  0  0  0  0  0  0  0  0  0  0
  -22.2005  -18.2344   19.6678 C   0  0  0  0  0  0  0  0  0  0  0  0
  -20.8537  -20.3307   19.1208 C   0  0  0  0  0  0  0  0  0  0  0  0
  -19.8082  -28.5975   23.4649 C   0  0  0  0  0  0  0  0  0  0  0  0
  -23.7056  -22.3773   23.5004 C   0  0  0  0  0  0  0  0  0  0  0  0
  -20.6138  -27.5939   22.8938 C   0  0  0  0  0  0  0  0  0  0  0  0
  -25.0834  -22.5682   23.6771 C   0  0  0  0  0  0  0  0  0  0  0  0
  -30.4053  -28.5531   16.6159 C   0  0  0  0  0  0  0  0  0  0  0  0
  -28.3688  -26.6954   17.0451 C   0  0  0  0  0  0  0  0  0  0  0  0
  -29.6430  -26.4659   17.5643 C   0  0  0  0  0  0  0  0  0  0  0  0
  -22.4882  -15.5900   20.5087 C   0  0  0  0  0  0  0  0  0  0  0  0
  -25.5170  -21.0864   21.7993 C   0  0  0  0  0  0  0  0  0  0  0  0
  -23.8347  -13.6700   20.6597 C   0  0  0  0  0  0  0  0  0  0  0  0
  -26.2657  -12.4046   20.1383 C   0  0  0  0  0  0  0  0  0  0  0  0
  -23.8668  -12.5176   19.8745 C   0  0  0  0  0  0  0  0  0  0  0  0
  -22.0517  -19.5999   19.2327 C   0  0  0  0  0  0  0  0  0  0  0  0
  -21.2466  -21.5671   18.6700 C   0  0  0  0  0  0  0  0  0  0  0  0
  -19.5062  -19.9278   19.3994 C   0  0  0  0  0  0  0  0  0  0  0  0
  -23.3526  -25.4651   24.1669 C   0  0  0  0  0  0  0  0  0  0  0  0
  -24.9504  -24.6639   26.8738 C   0  0  0  0  0  0  0  0  0  0  0  0
  -27.0963  -22.5263   28.4462 C   0  0  0  0  0  0  0  0  0  0  0  0
  -26.1416  -24.6320   19.1726 C   0  0  0  0  0  0  0  0  0  0  0  0
  -20.3623  -29.5923   24.4540 C   0  0  0  0  0  0  0  0  0  0  0  0
  -22.7203  -23.0383   24.4248 C   0  0  0  0  0  0  0  0  0  0  0  0
  -25.6279  -23.4570   24.7643 C   0  0  0  0  0  0  0  0  0  0  0  0
  -21.6807  -29.1532   25.0859 C   0  0  0  0  0  0  0  0  0  0  0  0
  -25.5788  -28.9885   21.2025 C   0  0  0  0  0  0  0  0  0  0  0  0
  -27.0394  -28.5463   21.1999 C   0  0  0  0  0  0  0  0  0  0  0  0
  -24.9704  -28.9270   19.8045 C   0  0  0  0  0  0  0  0  0  0  0  0
  -24.6514  -23.7195   16.1036 C   0  0  0  0  0  0  0  0  0  0  0  0
  -22.6383  -28.6353   24.0175 C   0  0  0  0  0  0  0  0  0  0  0  0
  -23.6952  -22.6137   16.5485 C   0  0  0  0  0  0  0  0  0  0  0  0
  -27.2079  -27.1619   20.5766 C   0  0  0  0  0  0  0  0  0  0  0  0
  -25.1354  -27.5437   19.1778 C   0  0  0  0  0  0  0  0  0  0  0  0
  -25.9919  -23.6495   16.8373 C   0  0  0  0  0  0  0  0  0  0  0  0
  -24.9100  -22.5242   18.7571 C   0  0  0  0  0  0  0  0  0  0  0  0
  -22.0582  -27.4075   23.3050 C   0  0  1  0  0  0  0  0  0  0  0  0
  -23.2784  -24.2883   25.0981 C   0  0  1  0  0  0  0  0  0  0  0  0
  -23.5341  -22.6084   18.0785 C   0  0  2  0  0  0  0  0  0  0  0  0
  -26.6014  -27.1038   19.1720 C   0  0  0  0  0  0  0  0  0  0  0  0
  -31.4936  -29.5466   16.3867 C   0  0  0  0  0  0  0  0  0  0  0  0
  -28.2441  -22.1519   30.6461 C   0  0  0  0  0  0  0  0  0  0  0  0
  -26.9198  -26.9022   26.2245 C   0  0  0  0  0  0  0  0  0  0  0  0
  -28.5105  -25.8849   27.8685 C   0  0  0  0  0  0  0  0  0  0  0  0
  -26.2943  -26.7311   28.6398 C   0  0  0  0  0  0  0  0  0  0  0  0
  -25.7708  -19.9073   28.8239 C   0  0  0  0  0  0  0  0  0  0  0  0
  -29.9431  -25.2213   18.3609 C   0  0  0  0  0  0  0  0  0  0  0  0
  -27.2625  -25.7159   17.2629 C   0  0  0  0  0  0  0  0  0  0  0  0
  -30.6591  -24.1274   17.5577 C   0  0  0  0  0  0  0  0  0  0  0  0
  -28.4627  -20.2849   19.7605 C   0  0  0  0  0  0  0  0  0  0  0  0
  -30.9297  -22.8305   18.3144 C   0  0  0  0  0  0  0  0  0  0  0  0
  -29.8179  -20.8884   19.4237 C   0  0  0  0  0  0  0  0  0  0  0  0
  -27.6327  -21.1356   20.7141 C   0  0  0  0  0  0  0  0  0  1  0  0
  -26.4033  -24.6029   27.2793 C   0  0  1  0  0  0  0  0  0  0  0  0
  -27.0224  -21.8375   29.7969 C   0  0  2  0  0  0  0  0  0  0  0  0
  -27.0220  -26.0150   27.4812 C   0  0  0  0  0  0  0  0  0  0  0  0
  -23.1252  -20.3127   18.8812 N   0  0  0  0  0  0  0  0  0  0  0  0
  -22.6031  -21.5042   18.5439 N   0  0  0  0  0  0  0  0  0  0  0  0
  -24.6242  -24.0861   25.6386 N   0  0  0  0  0  0  0  0  0  0  0  0
  -25.7909  -23.5983   18.2918 N   0  0  0  0  0  0  0  0  0  0  0  0
  -20.5605  -22.6912   18.3730 N   0  0  0  0  0  0  0  0  0  0  0  0
  -19.2799  -18.6219   19.8552 N   0  0  0  0  0  0  0  0  0  0  0  0
  -22.2014  -26.2286   24.1322 N   0  0  0  0  0  0  0  0  0  0  0  0
  -26.4617  -23.7503   28.4616 N   0  0  0  0  0  0  0  0  0  0  0  0
  -26.7286  -25.7784   18.6161 N   0  0  0  0  0  0  0  0  0  0  0  0
  -26.9399  -20.3599   29.6211 N   0  3  0  0  0  0  0  0  0  0  0  0
  -29.6530  -22.1900   18.7351 N   0  3  0  0  0  0  0  0  0  0  0  0
  -18.5299  -20.6977   19.2330 O   0  0  0  0  0  0  0  0  0  0  0  0
  -24.3789  -25.6665   23.5282 O   0  0  0  0  0  0  0  0  0  0  0  0
  -24.1338  -25.1980   27.6285 O   0  0  0  0  0  0  0  0  0  0  0  0
  -27.6639  -22.0300   27.4756 O   0  0  0  0  0  0  0  0  0  0  0  0
  -25.9487  -24.5342   20.3913 O   0  0  0  0  0  0  0  0  0  0  0  0
  -22.6289  -14.2998   20.9187 O   0  0  0  0  0  0  0  0  0  0  0  0
  -26.4000  -20.4642   20.9715 O   0  0  0  0  0  0  0  0  0  1  0  0
  -27.4331  -11.7980   19.8868 F   0  0  0  0  0  0  0  0  0  0  0  0
  -22.7333  -12.0142   19.3669 F   0  0  0  0  0  0  0  0  0  0  0  0
  1  2  1  0  0  0  0
  1  5  2  0  0  0  0
  2  6  2  0  0  0  0
  3 10  2  0  0  0  0
  3 18  1  0  0  0  0
  4 11  1  0  0  0  0
  4 18  2  0  0  0  0
  5 20  1  0  0  0  0
  6 22  1  0  0  0  0
  7 12  2  0  0  0  0
  7 21  1  0  0  0  0
  8  9  2  0  0  0  0
  8 24  1  0  0  0  0
  9 25  1  0  0  0  0
 10 27  1  0  0  0  0
 11 27  2  0  0  0  0
 12 28  1  0  0  0  0
 13 14  2  0  0  0  0
 13 29  1  0  0  0  0
 14 30  1  0  0  0  0
 15 23  1  0  0  0  0
 15 28  2  0  0  0  0
 16 24  2  0  0  0  0
 16 26  1  0  0  0  0
 17 30  2  0  0  0  0
 17 31  1  0  0  0  0
 18 32  1  0  0  0  0
 19 32  1  0  0  0  0
 19 33  2  0  0  0  0
 19 34  1  0  0  0  0
 20 22  2  0  0  0  0
 20 39  1  0  0  0  0
 21 23  2  0  0  0  0
 21 40  1  0  0  0  0
 22 53  1  0  0  0  0
 23 41  1  0  0  0  0
 24 57  1  0  0  0  0
 25 26  2  0  0  0  0
 25 64  1  0  0  0  0
 26 63  1  0  0  0  0
 27 89  1  0  0  0  0
 28 90  1  0  0  0  0
 29 31  2  0  0  0  0
 29 89  1  0  0  0  0
 30 91  1  0  0  0  0
 31 92  1  0  0  0  0
 32 73  2  0  0  0  0
 33 74  1  0  0  0  0
 33 77  1  0  0  0  0
 34 78  1  0  0  0  0
 34 84  2  0  0  0  0
 35 54  1  0  0  0  0
 35 79  1  0  0  0  0
 35 85  2  0  0  0  0
 36 70  1  0  0  0  0
 36 75  1  0  0  0  0
 36 86  2  0  0  0  0
 37 71  1  0  0  0  0
 37 80  1  0  0  0  0
 37 87  2  0  0  0  0
 38 76  1  0  0  0  0
 38 81  1  0  0  0  0
 38 88  2  0  0  0  0
 39 42  1  0  0  0  0
 40 54  1  0  0  0  0
 41 75  1  0  0  0  0
 42 47  1  0  0  0  0
 43 44  1  0  0  0  0
 43 45  1  0  0  0  0
 44 49  1  0  0  0  0
 45 50  1  0  0  0  0
 46 48  1  0  0  0  0
 46 51  1  0  0  0  0
 47 53  1  0  0  0  0
 48 55  1  0  0  0  0
 49 56  1  0  0  0  0
 50 56  1  0  0  0  0
 51 76  1  0  0  0  0
 52 55  1  0  0  0  0
 52 76  1  0  0  0  0
 53 79  1  0  0  0  0
 54 75  1  0  0  0  0
 55 74  1  0  0  0  0
 56 81  1  0  0  0  0
 58 71  1  0  0  0  0
 59 72  1  0  0  0  0
 60 72  1  0  0  0  0
 61 72  1  0  0  0  0
 62 82  1  0  0  0  0
 63 65  1  0  0  0  0
 64 81  1  0  0  0  0
 65 67  1  0  0  0  0
 66 68  1  0  0  0  0
 66 69  1  0  0  0  0
 67 83  1  0  0  0  0
 68 83  1  0  0  0  0
 69 90  1  0  0  0  0
 70 72  1  0  0  0  0
 70 80  1  0  0  0  0
 71 82  1  0  0  0  0
 73 74  1  0  0  0  0
M  CHG  2  82   1  83   1
M  ISO  4  38 100  69 101  81 100  90 101
M  END
> <Batch ID>
0104

> <Smiles>
CNC(C)C(=O)NC(C(=O)N1Cc2cc([101O:1][101CH2:1]CCNCCCc3cc(C)ccc3C[100N:0](C3CCCCC3)[100C:0](=O)N3CCCC(n4nc(-c5ccc(Oc6ccc(F)cc6F)cc5)c(C(N)=O)c4N)C3)ccc2CC1C(=O)NC1CCCc2ccccc21)C(C)(C)C

> <Shape>
0.163

> <Color>
0.067

> <Negative vol penalty>
0.000

$$$$

  -OEChem-04052319433D

 80 88  0     1  0  0  0  0  0999 V2000
  -29.0165  -36.5254   21.5792 C   0  0  0  0  0  0  0  0  0  0  0  0
  -29.2939  -35.1650   21.4915 C   0  0  0  0  0  0  0  0  0  0  0  0
  -30.9994  -25.6959   23.7722 C   0  0  0  0  0  0  0  0  0  0  0  0
  -26.5445  -12.7197   21.6094 C   0  0  0  0  0  0  0  0  0  0  0  0
  -25.8408  -13.9326   19.6419 C   0  0  0  0  0  0  0  0  0  0  0  0
  -27.8114  -36.9557   22.1329 C   0  0  0  0  0  0  0  0  0  0  0  0
  -28.3667  -34.2340   21.9585 C   0  0  0  0  0  0  0  0  0  0  0  0
  -27.2095  -28.6961   19.6137 C   0  0  0  0  0  0  0  0  0  0  0  0
  -25.3007  -12.0911   21.6668 C   0  0  0  0  0  0  0  0  0  0  0  0
  -24.5970  -13.3039   19.6993 C   0  0  0  0  0  0  0  0  0  0  0  0
  -27.6387  -27.4183   19.9699 C   0  0  0  0  0  0  0  0  0  0  0  0
  -23.7256   -9.5383   20.1062 C   0  0  0  0  0  0  0  0  0  0  0  0
  -23.7045   -8.1627   20.3364 C   0  0  0  0  0  0  0  0  0  0  0  0
  -29.6095  -25.5016   23.9658 C   0  0  0  0  0  0  0  0  0  0  0  0
  -25.6158  -27.1008   21.2451 C   0  0  0  0  0  0  0  0  0  0  0  0
  -22.4162   -8.5192   22.3489 C   0  0  0  0  0  0  0  0  0  0  0  0
  -31.4142  -24.7846   22.8262 C   0  0  0  0  0  0  0  0  0  0  0  0
  -26.8146  -13.6405   20.5970 C   0  0  0  0  0  0  0  0  0  0  0  0
  -29.2460  -13.8461   19.8530 C   0  0  0  0  0  0  0  0  0  0  0  0
  -26.8649  -36.0292   22.5981 C   0  0  0  0  0  0  0  0  0  0  0  0
  -25.9831  -29.1908   20.0803 C   0  0  0  0  0  0  0  0  0  0  0  0
  -27.1484  -34.6523   22.5202 C   0  0  0  0  0  0  0  0  0  0  0  0
  -25.1721  -28.3842   20.8913 C   0  0  0  0  0  0  0  0  0  0  0  0
  -24.3269  -12.3831   20.7117 C   0  0  0  0  0  0  0  0  0  0  0  0
  -26.8432  -26.6215   20.7880 C   0  0  0  0  0  0  0  0  0  0  0  0
  -23.0920  -10.4043   20.9975 C   0  0  0  0  0  0  0  0  0  0  0  0
  -23.0498   -7.6531   21.4577 C   0  0  0  0  0  0  0  0  0  0  0  0
  -22.4373   -9.8947   22.1188 C   0  0  0  0  0  0  0  0  0  0  0  0
  -28.0990  -14.2907   20.5376 C   0  0  0  0  0  0  0  0  0  0  0  0
  -29.2172  -24.4774   23.1325 C   0  0  0  0  0  0  0  0  0  0  0  0
  -30.1922  -14.8088   20.1070 C   0  0  0  0  0  0  0  0  0  0  0  0
  -29.4389  -12.6683   19.0585 C   0  0  0  0  0  0  0  0  0  0  0  0
  -25.1000  -31.6394   21.9046 C   0  0  0  0  0  0  0  0  0  0  0  0
  -22.1153  -30.6754   21.0771 C   0  0  0  0  0  0  0  0  0  0  0  0
  -20.0754  -28.1541   20.0149 C   0  0  0  0  0  0  0  0  0  0  0  0
  -29.7153  -20.5416   21.4316 C   0  0  0  0  0  0  0  0  0  0  0  0
  -25.5966  -36.5434   23.2320 C   0  0  0  0  0  0  0  0  0  0  0  0
  -25.5222  -30.5611   19.6652 C   0  0  0  0  0  0  0  0  0  0  0  0
  -23.8378  -28.8608   21.4020 C   0  0  0  0  0  0  0  0  0  0  0  0
  -24.5067  -35.4823   23.3611 C   0  0  0  0  0  0  0  0  0  0  0  0
  -31.4478  -18.0503   23.3985 C   0  0  0  0  0  0  0  0  0  0  0  0
  -25.0853  -34.1886   23.9253 C   0  0  0  0  0  0  0  0  0  0  0  0
  -30.8858  -16.7539   22.8116 C   0  0  0  0  0  0  0  0  0  0  0  0
  -30.3753  -19.1328   23.4723 C   0  0  0  0  0  0  0  0  0  0  0  0
  -29.1448  -18.1343   21.5846 C   0  0  0  0  0  0  0  0  0  0  0  0
  -26.1574  -33.6111   22.9932 C   0  0  1  0  0  0  0  0  0  0  0  0
  -24.4912  -31.1587   20.6178 C   0  0  1  0  0  0  0  0  0  0  0  0
  -30.1851  -17.0059   21.4632 C   0  0  2  0  0  0  0  0  0  0  0  0
  -27.3389  -23.2053   24.2211 C   0  0  0  0  0  0  0  0  0  0  0  0
  -17.6772  -27.6593   19.4660 C   0  0  0  0  0  0  0  0  0  0  0  0
  -21.4557  -30.5811   24.0547 C   0  0  0  0  0  0  0  0  0  0  0  0
  -19.4394  -29.2073   23.4934 C   0  0  0  0  0  0  0  0  0  0  0  0
  -19.6459  -31.5329   22.6149 C   0  0  0  0  0  0  0  0  0  0  0  0
  -20.7367  -27.4721   17.2120 C   0  0  0  0  0  0  0  0  0  0  0  0
  -26.8249  -24.8745   22.4015 C   0  0  0  0  0  0  0  0  0  1  0  0
  -30.3526  -22.9457   21.4259 C   0  0  0  0  0  0  0  0  0  0  0  0
  -27.8441  -23.8561   22.9304 C   0  0  1  0  0  0  0  0  0  0  0  0
  -21.1068  -29.7090   21.6498 C   0  0  1  0  0  0  0  0  0  0  0  0
  -19.0258  -28.1013   18.9195 C   0  0  2  0  0  0  0  0  0  0  0  0
  -20.4379  -30.2490   22.9453 C   0  0  0  0  0  0  0  0  0  0  0  0
  -28.2964  -15.4458   21.1784 N   0  0  0  0  0  0  0  0  0  0  0  0
  -30.3226  -24.0490   22.4448 N   0  0  0  0  0  0  0  0  0  0  0  0
  -29.5784  -15.7352   20.8977 N   0  0  0  0  0  0  0  0  0  0  0  0
  -23.4339  -30.2102   20.9737 N   0  0  0  0  0  0  0  0  0  0  0  0
  -29.7628  -19.3368   22.1522 N   0  0  0  0  0  0  0  0  0  0  0  0
  -31.4810  -14.9447   19.7290 N   0  0  0  0  0  0  0  0  0  0  0  0
  -28.3620  -11.7853   18.9003 N   0  0  0  0  0  0  0  0  0  0  0  0
  -25.5413  -32.9482   21.8639 N   0  0  0  0  0  0  0  0  0  0  0  0
  -20.1690  -29.4117   20.5725 N   0  0  0  0  0  0  0  0  0  0  0  0
  -30.3170  -21.6327   22.0480 N   0  0  0  0  0  0  0  0  0  0  0  0
  -19.4373  -27.1447   17.8534 N   0  3  0  0  0  0  0  0  0  0  0  0
  -30.5386  -12.3983   18.5188 O   0  0  0  0  0  0  0  0  0  0  0  0
  -25.1633  -30.8795   22.8640 O   0  0  0  0  0  0  0  0  0  0  0  0
  -21.7454  -31.7991   20.7276 O   0  0  0  0  0  0  0  0  0  0  0  0
  -20.7427  -27.1764   20.3457 O   0  0  0  0  0  0  0  0  0  0  0  0
  -29.1806  -20.6374   20.3219 O   0  0  0  0  0  0  0  0  0  0  0  0
  -23.1132  -11.7697   20.7672 O   0  0  0  0  0  0  0  0  0  0  0  0
  -27.2601  -25.3742   21.1377 O   0  0  0  0  0  0  0  0  0  1  0  0
  -23.0283   -6.3320   21.6777 F   0  0  0  0  0  0  0  0  0  0  0  0
  -21.8259  -10.7217   22.9779 F   0  0  0  0  0  0  0  0  0  0  0  0
  1  2  1  0  0  0  0
  1  6  2  0  0  0  0
  2  7  2  0  0  0  0
  3 14  1  0  0  0  0
  3 17  2  0  0  0  0
  4  9  2  0  0  0  0
  4 18  1  0  0  0  0
  5 10  1  0  0  0  0
  5 18  2  0  0  0  0
  6 20  1  0  0  0  0
  7 22  1  0  0  0  0
  8 11  2  0  0  0  0
  8 21  1  0  0  0  0
  9 24  1  0  0  0  0
 10 24  2  0  0  0  0
 11 25  1  0  0  0  0
 12 13  2  0  0  0  0
 12 26  1  0  0  0  0
 13 27  1  0  0  0  0
 14 30  2  0  0  0  0
 15 23  1  0  0  0  0
 15 25  2  0  0  0  0
 16 27  2  0  0  0  0
 16 28  1  0  0  0  0
 17 62  1  0  0  0  0
 18 29  1  0  0  0  0
 19 29  1  0  0  0  0
 19 31  2  0  0  0  0
 19 32  1  0  0  0  0
 20 22  2  0  0  0  0
 20 37  1  0  0  0  0
 21 23  2  0  0  0  0
 21 38  1  0  0  0  0
 22 46  1  0  0  0  0
 23 39  1  0  0  0  0
 24 77  1  0  0  0  0
 25 78  1  0  0  0  0
 26 28  2  0  0  0  0
 26 77  1  0  0  0  0
 27 79  1  0  0  0  0
 28 80  1  0  0  0  0
 29 61  2  0  0  0  0
 30 57  1  0  0  0  0
 30 62  1  0  0  0  0
 31 63  1  0  0  0  0
 31 66  1  0  0  0  0
 32 67  1  0  0  0  0
 32 72  2  0  0  0  0
 33 47  1  0  0  0  0
 33 68  1  0  0  0  0
 33 73  2  0  0  0  0
 34 58  1  0  0  0  0
 34 64  1  0  0  0  0
 34 74  2  0  0  0  0
 35 59  1  0  0  0  0
 35 69  1  0  0  0  0
 35 75  2  0  0  0  0
 36 65  1  0  0  0  0
 36 70  1  0  0  0  0
 36 76  2  0  0  0  0
 37 40  1  0  0  0  0
 38 47  1  0  0  0  0
 39 64  1  0  0  0  0
 40 42  1  0  0  0  0
 41 43  1  0  0  0  0
 41 44  1  0  0  0  0
 42 46  1  0  0  0  0
 43 48  1  0  0  0  0
 44 65  1  0  0  0  0
 45 48  1  0  0  0  0
 45 65  1  0  0  0  0
 46 68  1  0  0  0  0
 47 64  1  0  0  0  0
 48 63  1  0  0  0  0
 49 57  1  0  0  0  0
 50 59  1  0  0  0  0
 51 60  1  0  0  0  0
 52 60  1  0  0  0  0
 53 60  1  0  0  0  0
 54 71  1  0  0  0  0
 55 57  1  0  0  0  0
 55 78  1  0  0  0  0
 56 62  1  0  0  0  0
 56 70  1  0  0  0  0
 58 60  1  0  0  0  0
 58 69  1  0  0  0  0
 59 71  1  0  0  0  0
 61 63  1  0  0  0  0
M  CHG  1  71   1
M  ISO  4  36 100  55 101  70 100  78 101
M  END
> <Batch ID>
0104

> <Smiles>
CNC(C)C(=O)NC(C(=O)N1Cc2cc([101O:1][101CH2:1]C(C)c3cccn3C[100NH:0][100C:0](=O)N3CCCC(n4nc(-c5ccc(Oc6ccc(F)cc6F)cc5)c(C(N)=O)c4N)C3)ccc2CC1C(=O)NC1CCCc2ccccc21)C(C)(C)C

> <Shape>
0.290

> <Color>
0.096

> <Negative vol penalty>
0.000

$$$$

  -OEChem-04052319433D

 85 93  0     1  0  0  0  0  0999 V2000
  -17.2132  -27.4489   19.7715 C   0  0  0  0  0  0  0  0  0  0  0  0
  -18.4329  -27.9087   19.2852 C   0  0  0  0  0  0  0  0  0  0  0  0
  -25.6919  -14.7642   19.7035 C   0  0  0  0  0  0  0  0  0  0  0  0
  -27.3644  -14.4983   21.4266 C   0  0  0  0  0  0  0  0  0  0  0  0
  -17.0282  -27.2852   21.1437 C   0  0  0  0  0  0  0  0  0  0  0  0
  -19.4679  -28.2062   20.1710 C   0  0  0  0  0  0  0  0  0  0  0  0
  -25.4668  -27.4222   19.2199 C   0  0  0  0  0  0  0  0  0  0  0  0
  -29.8097  -25.2051   21.6284 C   0  0  0  0  0  0  0  0  0  0  0  0
  -25.4254  -13.3959   19.7511 C   0  0  0  0  0  0  0  0  0  0  0  0
  -27.0979  -13.1300   21.4742 C   0  0  0  0  0  0  0  0  0  0  0  0
  -26.4767  -28.2994   18.8268 C   0  0  0  0  0  0  0  0  0  0  0  0
  -23.6993  -11.2615   21.7254 C   0  0  0  0  0  0  0  0  0  0  0  0
  -22.3631  -10.8615   21.7383 C   0  0  0  0  0  0  0  0  0  0  0  0
  -29.9569  -26.5862   21.6918 C   0  0  0  0  0  0  0  0  0  0  0  0
  -27.0728  -28.6399   21.1393 C   0  0  0  0  0  0  0  0  0  0  0  0
  -22.7120   -9.6305   19.6889 C   0  0  0  0  0  0  0  0  0  0  0  0
  -26.6615  -15.3154   20.5412 C   0  0  0  0  0  0  0  0  0  0  0  0
  -26.3197  -17.7424   21.2486 C   0  0  0  0  0  0  0  0  0  0  0  0
  -18.0647  -27.5716   22.0461 C   0  0  0  0  0  0  0  0  0  0  0  0
  -25.2449  -27.1553   20.5785 C   0  0  0  0  0  0  0  0  0  0  0  0
  -19.2962  -28.0474   21.5567 C   0  0  0  0  0  0  0  0  0  0  0  0
  -26.0611  -27.7570   21.5469 C   0  0  0  0  0  0  0  0  0  0  0  0
  -30.2349  -24.5175   20.4971 C   0  0  0  0  0  0  0  0  0  0  0  0
  -26.1283  -12.5788   20.6364 C   0  0  0  0  0  0  0  0  0  0  0  0
  -27.2780  -28.9106   19.7867 C   0  0  0  0  0  0  0  0  0  0  0  0
  -24.5418  -10.8462   20.6943 C   0  0  0  0  0  0  0  0  0  0  0  0
  -21.8694  -10.0459   20.7200 C   0  0  0  0  0  0  0  0  0  0  0  0
  -24.0482  -10.0306   19.6760 C   0  0  0  0  0  0  0  0  0  0  0  0
  -26.9377  -16.7287   20.4921 C   0  0  0  0  0  0  0  0  0  0  0  0
  -30.5308  -27.2278   20.6061 C   0  0  0  0  0  0  0  0  0  0  0  0
  -30.7961  -25.2517   19.4648 C   0  0  0  0  0  0  0  0  0  0  0  0
  -26.9312  -18.9007   20.8350 C   0  0  0  0  0  0  0  0  0  0  0  0
  -25.2855  -17.6458   22.2369 C   0  0  0  0  0  0  0  0  0  0  0  0
  -22.8164  -27.5910   22.5826 C   0  0  0  0  0  0  0  0  0  0  0  0
  -24.7125  -25.9312   24.6252 C   0  0  0  0  0  0  0  0  0  0  0  0
  -27.8593  -24.9455   25.5042 C   0  0  0  0  0  0  0  0  0  0  0  0
  -31.8953  -21.4298   19.7044 C   0  0  0  0  0  0  0  0  0  0  0  0
  -17.8021  -27.4241   23.5239 C   0  0  0  0  0  0  0  0  0  0  0  0
  -24.1688  -26.1861   20.9848 C   0  0  0  0  0  0  0  0  0  0  0  0
  -25.8769  -27.4882   23.0174 C   0  0  0  0  0  0  0  0  0  0  0  0
  -19.0728  -27.4047   24.3695 C   0  0  0  0  0  0  0  0  0  0  0  0
  -30.0299  -19.8033   16.9519 C   0  0  0  0  0  0  0  0  0  0  0  0
  -20.0142  -28.5271   23.9441 C   0  0  0  0  0  0  0  0  0  0  0  0
  -29.0599  -18.8908   17.7006 C   0  0  0  0  0  0  0  0  0  0  0  0
  -31.3093  -20.0452   17.7471 C   0  0  0  0  0  0  0  0  0  0  0  0
  -30.1048  -19.6523   19.8705 C   0  0  0  0  0  0  0  0  0  0  0  0
  -20.4512  -28.3571   22.4841 C   0  0  1  0  0  0  0  0  0  0  0  0
  -23.6975  -26.3845   22.4221 C   0  0  1  0  0  0  0  0  0  0  0  0
  -28.7857  -19.4258   19.1168 C   0  0  2  0  0  0  0  0  0  0  0  0
  -31.1203  -25.4401   16.9857 C   0  0  0  0  0  0  0  0  0  0  0  0
  -29.6477  -23.7213   26.7692 C   0  0  0  0  0  0  0  0  0  0  0  0
  -29.2676  -30.0067   17.2388 C   0  0  0  0  0  0  0  0  0  0  0  0
  -24.3770  -28.2283   26.6053 C   0  0  0  0  0  0  0  0  0  0  0  0
  -26.3373  -27.3274   27.8756 C   0  0  0  0  0  0  0  0  0  0  0  0
  -24.2742  -25.9476   27.6262 C   0  0  0  0  0  0  0  0  0  0  0  0
  -32.1704  -22.8316   21.7141 C   0  0  0  0  0  0  0  0  0  0  0  0
  -27.6903  -22.6020   23.7046 C   0  0  0  0  0  0  0  0  0  0  0  0
  -30.0786  -23.0380   20.4228 C   0  0  0  0  0  0  0  0  0  0  0  0
  -30.7075  -28.7249   20.6415 C   0  0  0  0  0  0  0  0  0  0  0  0
  -31.2734  -24.5660   18.2267 C   0  0  0  0  0  0  0  0  0  0  0  0
  -30.6439  -29.3888   19.2582 C   0  0  0  0  0  0  0  0  0  0  0  0
  -25.7817  -26.2957   25.6267 C   0  0  1  0  0  0  0  0  0  0  0  0
  -28.4208  -23.5864   25.8809 C   0  0  2  0  0  0  0  0  0  0  0  0
  -29.2867  -29.2457   18.5584 C   0  0  1  0  0  0  0  0  0  1  0  0
  -25.1950  -26.9565   26.9059 C   0  0  0  0  0  0  0  0  0  0  0  0
  -27.8701  -17.2014   19.6607 N   0  0  0  0  0  0  0  0  0  0  0  0
  -30.9557  -26.5939   19.4902 N   0  0  0  0  0  0  0  0  0  0  0  0
  -27.8425  -18.5249   19.8923 N   0  0  0  0  0  0  0  0  0  0  0  0
  -24.8074  -26.5379   23.3648 N   0  0  0  0  0  0  0  0  0  0  0  0
  -31.0186  -20.5119   19.1032 N   0  0  0  0  0  0  0  0  0  0  0  0
  -26.7728  -20.1937   21.1892 N   0  0  0  0  0  0  0  0  0  0  0  0
  -24.7690  -16.3790   22.5418 N   0  0  0  0  0  0  0  0  0  0  0  0
  -21.4734  -27.3382   22.3778 N   0  0  0  0  0  0  0  0  0  0  0  0
  -26.5385  -25.0741   25.8785 N   0  0  0  0  0  0  0  0  0  0  0  0
  -31.3428  -22.3334   20.6248 N   0  0  0  0  0  0  0  0  0  0  0  0
  -28.8074  -22.8284   24.6574 N   0  3  0  0  0  0  0  0  0  0  0  0
  -24.8214  -18.6547   22.8202 O   0  0  0  0  0  0  0  0  0  0  0  0
  -23.3177  -28.6711   22.8723 O   0  0  0  0  0  0  0  0  0  0  0  0
  -23.8297  -25.1320   24.9470 O   0  0  0  0  0  0  0  0  0  0  0  0
  -28.5268  -25.8083   24.9380 O   0  0  0  0  0  0  0  0  0  0  0  0
  -33.1014  -21.4473   19.4269 O   0  0  0  0  0  0  0  0  0  0  0  0
  -25.8683  -11.2436   20.6833 O   0  0  0  0  0  0  0  0  0  0  0  0
  -28.2640  -29.7677   19.4057 O   0  0  0  0  0  0  0  0  0  1  0  0
  -20.5867   -9.6606   20.7333 F   0  0  0  0  0  0  0  0  0  0  0  0
  -24.8531   -9.6274   18.6833 F   0  0  0  0  0  0  0  0  0  0  0  0
  1  2  1  0  0  0  0
  1  5  2  0  0  0  0
  2  6  2  0  0  0  0
  3  9  2  0  0  0  0
  3 17  1  0  0  0  0
  4 10  1  0  0  0  0
  4 17  2  0  0  0  0
  5 19  1  0  0  0  0
  6 21  1  0  0  0  0
  7 11  2  0  0  0  0
  7 20  1  0  0  0  0
  8 14  2  0  0  0  0
  8 23  1  0  0  0  0
  9 24  1  0  0  0  0
 10 24  2  0  0  0  0
 11 25  1  0  0  0  0
 12 13  2  0  0  0  0
 12 26  1  0  0  0  0
 13 27  1  0  0  0  0
 14 30  1  0  0  0  0
 15 22  1  0  0  0  0
 15 25  2  0  0  0  0
 16 27  2  0  0  0  0
 16 28  1  0  0  0  0
 17 29  1  0  0  0  0
 18 29  1  0  0  0  0
 18 32  2  0  0  0  0
 18 33  1  0  0  0  0
 19 21  2  0  0  0  0
 19 38  1  0  0  0  0
 20 22  2  0  0  0  0
 20 39  1  0  0  0  0
 21 47  1  0  0  0  0
 22 40  1  0  0  0  0
 23 31  2  0  0  0  0
 23 58  1  0  0  0  0
 24 82  1  0  0  0  0
 25 83  1  0  0  0  0
 26 28  2  0  0  0  0
 26 82  1  0  0  0  0
 27 84  1  0  0  0  0
 28 85  1  0  0  0  0
 29 66  2  0  0  0  0
 30 59  1  0  0  0  0
 30 67  2  0  0  0  0
 31 60  1  0  0  0  0
 31 67  1  0  0  0  0
 32 68  1  0  0  0  0
 32 71  1  0  0  0  0
 33 72  1  0  0  0  0
 33 77  2  0  0  0  0
 34 48  1  0  0  0  0
 34 73  1  0  0  0  0
 34 78  2  0  0  0  0
 35 62  1  0  0  0  0
 35 69  1  0  0  0  0
 35 79  2  0  0  0  0
 36 63  1  0  0  0  0
 36 74  1  0  0  0  0
 36 80  2  0  0  0  0
 37 70  1  0  0  0  0
 37 75  1  0  0  0  0
 37 81  2  0  0  0  0
 38 41  1  0  0  0  0
 39 48  1  0  0  0  0
 40 69  1  0  0  0  0
 41 43  1  0  0  0  0
 42 44  1  0  0  0  0
 42 45  1  0  0  0  0
 43 47  1  0  0  0  0
 44 49  1  0  0  0  0
 45 70  1  0  0  0  0
 46 49  1  0  0  0  0
 46 70  1  0  0  0  0
 47 73  1  0  0  0  0
 48 69  1  0  0  0  0
 49 68  1  0  0  0  0
 50 60  1  0  0  0  0
 51 63  1  0  0  0  0
 52 64  1  0  0  0  0
 53 65  1  0  0  0  0
 54 65  1  0  0  0  0
 55 65  1  0  0  0  0
 56 75  1  0  0  0  0
 57 76  1  0  0  0  0
 58 75  1  0  0  0  0
 59 61  1  0  0  0  0
 61 64  1  0  0  0  0
 62 65  1  0  0  0  0
 62 74  1  0  0  0  0
 63 76  1  0  0  0  0
 64 83  1  0  0  0  0
 66 68  1  0  0  0  0
M  CHG  1  76   1
M  ISO  4  37 100  64 101  75 100  83 101
M  END
> <Batch ID>
0104

> <Smiles>
CCc1nc(CC[101CH:1](C)[101O:1]c2ccc3c(c2)CN(C(=O)C(NC(=O)C(C)NC)C(C)(C)C)C(C(=O)NC2CCCc4ccccc42)C3)ccc1C[100N:0](C)[100C:0](=O)N1CCCC(n2nc(-c3ccc(Oc4ccc(F)cc4F)cc3)c(C(N)=O)c2N)C1

> <Shape>
0.216

> <Color>
0.073

> <Negative vol penalty>
0.000

$$$$

  -OEChem-04052319433D

 80 87  0     1  0  0  0  0  0999 V2000
  -21.8867  -31.6764   18.5138 C   0  0  0  0  0  0  0  0  0  0  0  0
  -22.0912  -30.3381   18.1936 C   0  0  0  0  0  0  0  0  0  0  0  0
  -23.0046   -9.9041   19.9198 C   0  0  0  0  0  0  0  0  0  0  0  0
  -23.8400   -9.7730   22.1830 C   0  0  0  0  0  0  0  0  0  0  0  0
  -22.7076  -32.3008   19.4520 C   0  0  0  0  0  0  0  0  0  0  0  0
  -23.1175  -29.6237   18.8107 C   0  0  0  0  0  0  0  0  0  0  0  0
  -23.0620  -23.7001   20.3645 C   0  0  0  0  0  0  0  0  0  0  0  0
  -22.2549   -8.7467   20.1294 C   0  0  0  0  0  0  0  0  0  0  0  0
  -23.0903   -8.6155   22.3926 C   0  0  0  0  0  0  0  0  0  0  0  0
  -23.5768  -22.5628   19.7439 C   0  0  0  0  0  0  0  0  0  0  0  0
  -23.3207   -5.3275   21.6396 C   0  0  0  0  0  0  0  0  0  0  0  0
  -23.9467   -4.2567   22.2775 C   0  0  0  0  0  0  0  0  0  0  0  0
  -25.5549  -22.7168   21.1159 C   0  0  0  0  0  0  0  0  0  0  0  0
  -22.3050   -4.3514   24.0476 C   0  0  0  0  0  0  0  0  0  0  0  0
  -23.7972  -10.4173   20.9466 C   0  0  0  0  0  0  0  0  0  0  0  0
  -24.1666  -12.9413   20.9574 C   0  0  0  0  0  0  0  0  0  0  0  0
  -23.7383  -31.5911   20.0880 C   0  0  0  0  0  0  0  0  0  0  0  0
  -23.7958  -24.3619   21.3595 C   0  0  0  0  0  0  0  0  0  0  0  0
  -23.9538  -30.2396   19.7573 C   0  0  0  0  0  0  0  0  0  0  0  0
  -25.0460  -23.8609   21.7494 C   0  0  0  0  0  0  0  0  0  0  0  0
  -22.2978   -8.1024   21.3658 C   0  0  0  0  0  0  0  0  0  0  0  0
  -24.8246  -22.0726   20.1175 C   0  0  0  0  0  0  0  0  0  0  0  0
  -22.1869   -5.9105   22.2057 C   0  0  0  0  0  0  0  0  0  0  0  0
  -23.4388   -3.7686   23.4815 C   0  0  0  0  0  0  0  0  0  0  0  0
  -21.6791   -5.4224   23.4097 C   0  0  0  0  0  0  0  0  0  0  0  0
  -24.5722  -11.6125   20.7305 C   0  0  0  0  0  0  0  0  0  0  0  0
  -25.2555  -13.6985   20.6003 C   0  0  0  0  0  0  0  0  0  0  0  0
  -22.9173  -13.4461   21.4474 C   0  0  0  0  0  0  0  0  0  0  0  0
  -25.0412  -27.2700   21.6683 C   0  0  0  0  0  0  0  0  0  0  0  0
  -25.7133  -26.2391   24.6696 C   0  0  0  0  0  0  0  0  0  0  0  0
  -26.2643  -23.6098   26.7744 C   0  0  0  0  0  0  0  0  0  0  0  0
  -30.7548  -14.6465   20.6605 C   0  0  0  0  0  0  0  0  0  0  0  0
  -24.6299  -32.3216   21.0607 C   0  0  0  0  0  0  0  0  0  0  0  0
  -23.2147  -25.5720   22.0380 C   0  0  0  0  0  0  0  0  0  0  0  0
  -25.8647  -24.5228   22.8265 C   0  0  0  0  0  0  0  0  0  0  0  0
  -25.4569  -31.3921   21.9452 C   0  0  0  0  0  0  0  0  0  0  0  0
  -29.5090  -12.4134   18.1830 C   0  0  0  0  0  0  0  0  0  0  0  0
  -26.1031  -30.2932   21.1076 C   0  0  0  0  0  0  0  0  0  0  0  0
  -28.0830  -12.1110   18.6470 C   0  0  0  0  0  0  0  0  0  0  0  0
  -30.4680  -12.5560   19.3628 C   0  0  0  0  0  0  0  0  0  0  0  0
  -28.6226  -13.2276   20.8518 C   0  0  0  0  0  0  0  0  0  0  0  0
  -25.0409  -29.4243   20.4234 C   0  0  1  0  0  0  0  0  0  0  0  0
  -24.2738  -26.4643   22.6780 C   0  0  1  0  0  0  0  0  0  0  0  0
  -27.6078  -13.1305   19.6997 C   0  0  2  0  0  0  0  0  0  0  0  0
  -26.8270  -23.0826   29.1625 C   0  0  0  0  0  0  0  0  0  0  0  0
  -27.1239  -20.8141   17.9326 C   0  0  0  0  0  0  0  0  0  0  0  0
  -28.6132  -27.0400   24.1606 C   0  0  0  0  0  0  0  0  0  0  0  0
  -29.2706  -25.6520   26.1378 C   0  0  0  0  0  0  0  0  0  0  0  0
  -27.7576  -27.6122   26.4398 C   0  0  0  0  0  0  0  0  0  0  0  0
  -23.7382  -22.1172   27.1615 C   0  0  0  0  0  0  0  0  0  0  0  0
  -28.7084  -19.4458   20.2439 C   0  0  0  0  0  0  0  0  0  0  0  0
  -27.1902  -19.6323   20.1947 C   0  0  0  0  0  0  0  0  0  0  0  0
  -29.0873  -18.2373   21.1108 C   0  0  0  0  0  0  0  0  0  0  0  0
  -30.8887  -16.7227   22.0136 C   0  0  0  0  0  0  0  0  0  0  0  0
  -26.8735  -25.5250   25.3200 C   0  0  1  0  0  0  0  0  0  0  0  0
  -25.7104  -23.2881   28.1507 C   0  0  2  0  0  0  0  0  0  0  0  0
  -26.7499  -20.8702   19.4078 C   0  0  2  0  0  0  0  0  0  1  0  0
  -28.1144  -26.4457   25.4929 C   0  0  0  0  0  0  0  0  0  0  0  0
  -30.5931  -17.9364   21.1311 C   0  0  1  0  0  0  0  0  0  0  0  0
  -25.8212  -11.5270   20.2650 N   0  0  0  0  0  0  0  0  0  0  0  0
  -26.2098  -12.8117   20.1965 N   0  0  0  0  0  0  0  0  0  0  0  0
  -25.2563  -25.7067   23.4557 N   0  0  0  0  0  0  0  0  0  0  0  0
  -29.9601  -13.5385   20.3234 N   0  0  0  0  0  0  0  0  0  0  0  0
  -25.4801  -15.0296   20.5953 N   0  0  0  0  0  0  0  0  0  0  0  0
  -21.9057  -12.5302   21.7669 N   0  0  0  0  0  0  0  0  0  0  0  0
  -24.4668  -28.4904   21.3681 N   0  0  0  0  0  0  0  0  0  0  0  0
  -26.3629  -24.9697   26.5687 N   0  0  0  0  0  0  0  0  0  0  0  0
  -30.1956  -15.5324   21.5732 N   0  0  0  0  0  0  0  0  0  0  0  0
  -24.8873  -22.0467   28.1005 N   0  3  0  0  0  0  0  0  0  0  0  0
  -22.6986  -14.6740   21.5818 O   0  0  0  0  0  0  0  0  0  0  0  0
  -26.0787  -26.8185   21.1975 O   0  0  0  0  0  0  0  0  0  0  0  0
  -25.2258  -27.2284   25.2219 O   0  0  0  0  0  0  0  0  0  0  0  0
  -26.5815  -22.7416   25.9644 O   0  0  0  0  0  0  0  0  0  0  0  0
  -31.8773  -14.8352   20.1794 O   0  0  0  0  0  0  0  0  0  0  0  0
  -21.5662   -6.9731   21.5708 O   0  0  0  0  0  0  0  0  0  0  0  0
  -25.3298  -20.9630   19.5130 O   0  0  0  0  0  0  0  0  0  1  0  0
  -24.0391   -2.7392   24.0932 F   0  0  0  0  0  0  0  0  0  0  0  0
  -20.5895   -5.9775   23.9577 F   0  0  0  0  0  0  0  0  0  0  0  0
  -30.9830  -17.6390   19.8583 F   0  0  0  0  0  0  0  0  0  0  0  0
  -31.5247  -19.3555   21.6943 Cl  0  0  0  0  0  0  0  0  0  0  0  0
  1  2  1  0  0  0  0
  1  5  2  0  0  0  0
  2  6  2  0  0  0  0
  3  8  2  0  0  0  0
  3 15  1  0  0  0  0
  4  9  1  0  0  0  0
  4 15  2  0  0  0  0
  5 17  1  0  0  0  0
  6 19  1  0  0  0  0
  7 10  2  0  0  0  0
  7 18  1  0  0  0  0
  8 21  1  0  0  0  0
  9 21  2  0  0  0  0
 10 22  1  0  0  0  0
 11 12  2  0  0  0  0
 11 23  1  0  0  0  0
 12 24  1  0  0  0  0
 13 20  1  0  0  0  0
 13 22  2  0  0  0  0
 14 24  2  0  0  0  0
 14 25  1  0  0  0  0
 15 26  1  0  0  0  0
 16 26  1  0  0  0  0
 16 27  2  0  0  0  0
 16 28  1  0  0  0  0
 17 19  2  0  0  0  0
 17 33  1  0  0  0  0
 18 20  2  0  0  0  0
 18 34  1  0  0  0  0
 19 42  1  0  0  0  0
 20 35  1  0  0  0  0
 21 75  1  0  0  0  0
 22 76  1  0  0  0  0
 23 25  2  0  0  0  0
 23 75  1  0  0  0  0
 24 77  1  0  0  0  0
 25 78  1  0  0  0  0
 26 60  2  0  0  0  0
 27 61  1  0  0  0  0
 27 64  1  0  0  0  0
 28 65  1  0  0  0  0
 28 70  2  0  0  0  0
 29 43  1  0  0  0  0
 29 66  1  0  0  0  0
 29 71  2  0  0  0  0
 30 55  1  0  0  0  0
 30 62  1  0  0  0  0
 30 72  2  0  0  0  0
 31 56  1  0  0  0  0
 31 67  1  0  0  0  0
 31 73  2  0  0  0  0
 32 63  1  0  0  0  0
 32 68  1  0  0  0  0
 32 74  2  0  0  0  0
 33 36  1  0  0  0  0
 34 43  1  0  0  0  0
 35 62  1  0  0  0  0
 36 38  1  0  0  0  0
 37 39  1  0  0  0  0
 37 40  1  0  0  0  0
 38 42  1  0  0  0  0
 39 44  1  0  0  0  0
 40 63  1  0  0  0  0
 41 44  1  0  0  0  0
 41 63  1  0  0  0  0
 42 66  1  0  0  0  0
 43 62  1  0  0  0  0
 44 61  1  0  0  0  0
 45 56  1  0  0  0  0
 46 57  1  0  0  0  0
 47 58  1  0  0  0  0
 48 58  1  0  0  0  0
 49 58  1  0  0  0  0
 50 69  1  0  0  0  0
 51 52  1  0  0  0  0
 51 53  1  0  0  0  0
 52 57  1  0  0  0  0
 53 59  1  0  0  0  0
 54 59  1  0  0  0  0
 54 68  1  0  0  0  0
 55 58  1  0  0  0  0
 55 67  1  0  0  0  0
 56 69  1  0  0  0  0
 57 76  1  0  0  0  0
 59 79  1  0  0  0  0
 59 80  1  0  0  0  0
 60 61  1  0  0  0  0
M  CHG  1  69   1
M  ISO  4  32 100  57 101  68 100  76 101
M  END
> <Batch ID>
0104

> <Smiles>
CNC(C)C(=O)NC(C(=O)N1Cc2cc([101O:1][101CH:1](C)CCCC(F)(Cl)C[100NH:0][100C:0](=O)N3CCCC(n4nc(-c5ccc(Oc6ccc(F)cc6F)cc5)c(C(N)=O)c4N)C3)ccc2CC1C(=O)NC1CCCc2ccccc21)C(C)(C)C

> <Shape>
0.256

> <Color>
0.218

> <Negative vol penalty>
0.000

$$$$

  -OEChem-04052319433D

 89 97  0     1  0  0  0  0  0999 V2000
  -23.8948  -26.2495   16.9327 C   0  0  0  0  0  0  0  0  0  0  0  0
  -23.8815  -25.0915   17.7036 C   0  0  0  0  0  0  0  0  0  0  0  0
  -23.0707   -9.8775   19.9359 C   0  0  0  0  0  0  0  0  0  0  0  0
  -23.8407   -9.8695   22.2259 C   0  0  0  0  0  0  0  0  0  0  0  0
  -24.9315  -27.1705   17.0781 C   0  0  0  0  0  0  0  0  0  0  0  0
  -24.9055  -24.8533   18.6196 C   0  0  0  0  0  0  0  0  0  0  0  0
  -24.4115  -22.0689   24.0519 C   0  0  0  0  0  0  0  0  0  0  0  0
  -22.3282   -8.7225   20.1816 C   0  0  0  0  0  0  0  0  0  0  0  0
  -23.0982   -8.7145   22.4716 C   0  0  0  0  0  0  0  0  0  0  0  0
  -24.6745  -20.7633   24.4640 C   0  0  0  0  0  0  0  0  0  0  0  0
  -19.9443   -5.9807   20.3025 C   0  0  0  0  0  0  0  0  0  0  0  0
  -18.6365   -5.9355   19.8196 C   0  0  0  0  0  0  0  0  0  0  0  0
  -26.8611  -21.4483   25.2182 C   0  0  0  0  0  0  0  0  0  0  0  0
  -26.4110  -18.9973   20.7968 C   0  0  0  0  0  0  0  0  0  0  0  0
  -18.0767   -7.8695   21.1551 C   0  0  0  0  0  0  0  0  0  0  0  0
  -23.8270  -10.4510   20.9581 C   0  0  0  0  0  0  0  0  0  0  0  0
  -24.1677  -12.9770   20.8532 C   0  0  0  0  0  0  0  0  0  0  0  0
  -25.9636  -26.9480   18.0033 C   0  0  0  0  0  0  0  0  0  0  0  0
  -25.3771  -23.0734   24.2101 C   0  0  0  0  0  0  0  0  0  0  0  0
  -25.9577  -25.7715   18.7766 C   0  0  0  0  0  0  0  0  0  0  0  0
  -26.6069  -22.7664   24.8096 C   0  0  0  0  0  0  0  0  0  0  0  0
  -27.2599  -19.5565   19.8482 C   0  0  0  0  0  0  0  0  0  0  0  0
  -28.6182  -19.2605   19.8784 C   0  0  0  0  0  0  0  0  0  0  0  0
  -22.3420   -8.1410   21.4494 C   0  0  0  0  0  0  0  0  0  0  0  0
  -25.9006  -20.4522   25.0447 C   0  0  0  0  0  0  0  0  0  0  0  0
  -20.3184   -6.9702   21.2117 C   0  0  0  0  0  0  0  0  0  0  0  0
  -17.7027   -6.8799   20.2459 C   0  0  0  0  0  0  0  0  0  0  0  0
  -19.3846   -7.9146   21.6380 C   0  0  0  0  0  0  0  0  0  0  0  0
  -24.5946  -11.6437   20.7048 C   0  0  0  0  0  0  0  0  0  0  0  0
  -26.9654  -18.1549   21.7470 C   0  0  0  0  0  0  0  0  0  0  0  0
  -29.0738  -18.4065   20.8698 C   0  0  0  0  0  0  0  0  0  0  0  0
  -25.2580  -13.7291   20.4901 C   0  0  0  0  0  0  0  0  0  0  0  0
  -22.8989  -13.4896   21.2812 C   0  0  0  0  0  0  0  0  0  0  0  0
  -26.9935  -24.9630   22.2300 C   0  0  0  0  0  0  0  0  0  0  0  0
  -28.0386  -26.3085   24.9904 C   0  0  0  0  0  0  0  0  0  0  0  0
  -28.6229  -25.9752   28.3362 C   0  0  0  0  0  0  0  0  0  0  0  0
  -30.7423  -14.7484   20.6609 C   0  0  0  0  0  0  0  0  0  0  0  0
  -27.0879  -27.9495   18.0913 C   0  0  0  0  0  0  0  0  0  0  0  0
  -25.0678  -24.4826   23.7847 C   0  0  0  0  0  0  0  0  0  0  0  0
  -27.6695  -23.8128   25.0205 C   0  0  0  0  0  0  0  0  0  0  0  0
  -27.9368  -27.8030   19.3515 C   0  0  0  0  0  0  0  0  0  0  0  0
  -29.5947  -12.3794   18.2635 C   0  0  0  0  0  0  0  0  0  0  0  0
  -28.2961  -26.3392   19.5859 C   0  0  0  0  0  0  0  0  0  0  0  0
  -28.1593  -12.0824   18.7008 C   0  0  0  0  0  0  0  0  0  0  0  0
  -30.5171  -12.5926   19.4617 C   0  0  0  0  0  0  0  0  0  0  0  0
  -28.6213  -13.3139   20.8615 C   0  0  0  0  0  0  0  0  0  0  0  0
  -27.0375  -25.4894   19.7986 C   0  0  1  0  0  0  0  0  0  0  0  0
  -26.3186  -25.3166   23.5251 C   0  0  1  0  0  0  0  0  0  0  0  0
  -27.6420  -13.1468   19.6871 C   0  0  2  0  0  0  0  0  0  0  0  0
  -26.6908  -20.4703   18.8137 C   0  0  0  0  0  0  0  0  0  0  0  0
  -29.5166  -27.2337   30.3148 C   0  0  0  0  0  0  0  0  0  0  0  0
  -29.9648  -21.9038   20.2728 C   0  0  0  0  0  0  0  0  0  0  0  0
  -28.2884  -18.1775   25.9254 C   0  0  0  0  0  0  0  0  0  0  0  0
  -30.8841  -25.8745   23.9781 C   0  0  0  0  0  0  0  0  0  0  0  0
  -31.6983  -26.2480   26.3160 C   0  0  0  0  0  0  0  0  0  0  0  0
  -30.5024  -28.0732   25.1072 C   0  0  0  0  0  0  0  0  0  0  0  0
  -26.0402  -25.7870   29.7691 C   0  0  0  0  0  0  0  0  0  0  0  0
  -29.5523  -19.8438   18.8722 C   0  0  0  0  0  0  0  0  0  0  0  0
  -26.0750  -17.5291   22.7906 C   0  0  0  0  0  0  0  0  0  0  0  0
  -30.5222  -18.0501   20.9525 C   0  0  0  0  0  0  0  0  0  0  0  0
  -26.7830  -17.2562   24.1257 C   0  0  0  0  0  0  0  0  0  0  0  0
  -30.8131  -16.8908   21.9116 C   0  0  0  0  0  0  0  0  0  0  0  0
  -30.5332  -21.9898   17.8020 C   0  0  0  0  0  0  0  0  0  0  0  0
  -29.1993  -26.0669   25.9250 C   0  0  1  0  0  0  0  0  0  0  0  0
  -28.2767  -26.8693   29.5132 C   0  0  2  0  0  0  0  0  0  0  0  0
  -29.6064  -21.3921   18.8721 C   0  0  2  0  0  0  0  0  0  0  0  0
  -27.2727  -18.5202   24.8429 C   0  0  1  0  0  0  0  0  0  1  0  0
  -30.5519  -26.5453   25.3260 C   0  0  0  0  0  0  0  0  0  0  0  0
  -25.8577  -11.5510   20.2803 N   0  0  0  0  0  0  0  0  0  0  0  0
  -28.2796  -17.8440   21.8082 N   0  0  0  0  0  0  0  0  0  0  0  0
  -26.2337  -12.8355   20.1588 N   0  0  0  0  0  0  0  0  0  0  0  0
  -27.3219  -25.1746   24.5821 N   0  0  0  0  0  0  0  0  0  0  0  0
  -29.9702  -13.6151   20.3569 N   0  0  0  0  0  0  0  0  0  0  0  0
  -25.4678  -15.0611   20.4249 N   0  0  0  0  0  0  0  0  0  0  0  0
  -21.8887  -12.5780   21.6169 N   0  0  0  0  0  0  0  0  0  0  0  0
  -26.5254  -25.6716   21.1399 N   0  0  0  0  0  0  0  0  0  0  0  0
  -28.8460  -26.7057   27.1882 N   0  0  0  0  0  0  0  0  0  0  0  0
  -30.1466  -15.6715   21.5117 N   0  0  0  0  0  0  0  0  0  0  0  0
  -31.9581  -21.6693   18.0527 N   0  3  0  0  0  0  0  0  0  0  0  0
  -27.3155  -26.1815   30.4210 N   0  3  0  0  0  0  0  0  0  0  0  0
  -22.6626  -14.7198   21.3477 O   0  0  0  0  0  0  0  0  0  0  0  0
  -27.8747  -24.1115   22.2208 O   0  0  0  0  0  0  0  0  0  0  0  0
  -27.7730  -27.4614   24.6414 O   0  0  0  0  0  0  0  0  0  0  0  0
  -28.6925  -24.7515   28.4271 O   0  0  0  0  0  0  0  0  0  0  0  0
  -31.8762  -14.9272   20.2034 O   0  0  0  0  0  0  0  0  0  0  0  0
  -21.6174   -7.0141   21.6895 O   0  0  0  0  0  0  0  0  0  0  0  0
  -26.1601  -19.1784   25.4472 O   0  0  0  0  0  0  0  0  0  1  0  0
  -16.4472   -6.8374   19.7810 F   0  0  0  0  0  0  0  0  0  0  0  0
  -19.7383   -8.8683   22.5104 F   0  0  0  0  0  0  0  0  0  0  0  0
  1  2  1  0  0  0  0
  1  5  2  0  0  0  0
  2  6  2  0  0  0  0
  3  8  2  0  0  0  0
  3 16  1  0  0  0  0
  4  9  1  0  0  0  0
  4 16  2  0  0  0  0
  5 18  1  0  0  0  0
  6 20  1  0  0  0  0
  7 10  2  0  0  0  0
  7 19  1  0  0  0  0
  8 24  1  0  0  0  0
  9 24  2  0  0  0  0
 10 25  1  0  0  0  0
 11 12  2  0  0  0  0
 11 26  1  0  0  0  0
 12 27  1  0  0  0  0
 13 21  1  0  0  0  0
 13 25  2  0  0  0  0
 14 22  2  0  0  0  0
 14 30  1  0  0  0  0
 15 27  2  0  0  0  0
 15 28  1  0  0  0  0
 16 29  1  0  0  0  0
 17 29  1  0  0  0  0
 17 32  2  0  0  0  0
 17 33  1  0  0  0  0
 18 20  2  0  0  0  0
 18 38  1  0  0  0  0
 19 21  2  0  0  0  0
 19 39  1  0  0  0  0
 20 47  1  0  0  0  0
 21 40  1  0  0  0  0
 22 23  1  0  0  0  0
 22 50  1  0  0  0  0
 23 31  2  0  0  0  0
 23 58  1  0  0  0  0
 24 86  1  0  0  0  0
 25 87  1  0  0  0  0
 26 28  2  0  0  0  0
 26 86  1  0  0  0  0
 27 88  1  0  0  0  0
 28 89  1  0  0  0  0
 29 69  2  0  0  0  0
 30 59  1  0  0  0  0
 30 70  2  0  0  0  0
 31 60  1  0  0  0  0
 31 70  1  0  0  0  0
 32 71  1  0  0  0  0
 32 74  1  0  0  0  0
 33 75  1  0  0  0  0
 33 81  2  0  0  0  0
 34 48  1  0  0  0  0
 34 76  1  0  0  0  0
 34 82  2  0  0  0  0
 35 64  1  0  0  0  0
 35 72  1  0  0  0  0
 35 83  2  0  0  0  0
 36 65  1  0  0  0  0
 36 77  1  0  0  0  0
 36 84  2  0  0  0  0
 37 73  1  0  0  0  0
 37 78  1  0  0  0  0
 37 85  2  0  0  0  0
 38 41  1  0  0  0  0
 39 48  1  0  0  0  0
 40 72  1  0  0  0  0
 41 43  1  0  0  0  0
 42 44  1  0  0  0  0
 42 45  1  0  0  0  0
 43 47  1  0  0  0  0
 44 49  1  0  0  0  0
 45 73  1  0  0  0  0
 46 49  1  0  0  0  0
 46 73  1  0  0  0  0
 47 76  1  0  0  0  0
 48 72  1  0  0  0  0
 49 71  1  0  0  0  0
 51 65  1  0  0  0  0
 52 66  1  0  0  0  0
 53 67  1  0  0  0  0
 54 68  1  0  0  0  0
 55 68  1  0  0  0  0
 56 68  1  0  0  0  0
 57 80  1  0  0  0  0
 58 66  1  0  0  0  0
 59 61  1  0  0  0  0
 60 62  1  0  0  0  0
 61 67  1  0  0  0  0
 62 78  1  0  0  0  0
 63 66  1  0  0  0  0
 63 79  1  0  0  0  0
 64 68  1  0  0  0  0
 64 77  1  0  0  0  0
 65 80  1  0  0  0  0
 67 87  1  0  0  0  0
 69 71  1  0  0  0  0
M  CHG  2  79   1  80   1
M  ISO  4  37 100  67 101  78 100  87 101
M  END
> <Batch ID>
0104

> <Smiles>
CNC(C)C(=O)NC(C(=O)N1Cc2cc([101O:1][101CH:1](C)CCc3cc(C)c(CC(C)CN)c(CC[100NH:0][100C:0](=O)N4CCCC(n5nc(-c6ccc(Oc7ccc(F)cc7F)cc6)c(C(N)=O)c5N)C4)n3)ccc2CC1C(=O)NC1CCCc2ccccc21)C(C)(C)C

> <Shape>
0.212

> <Color>
0.184

> <Negative vol penalty>
0.000

$$$$

  -OEChem-04052319433D

 84 92  0     1  0  0  0  0  0999 V2000
  -19.7228  -21.8340   24.4360 C   0  0  0  0  0  0  0  0  0  0  0  0
  -21.0769  -21.5466   24.2981 C   0  0  0  0  0  0  0  0  0  0  0  0
  -28.1649  -12.5933   22.6704 C   0  0  0  0  0  0  0  0  0  0  0  0
  -27.1521  -12.9589   20.5076 C   0  0  0  0  0  0  0  0  0  0  0  0
  -19.1454  -22.8484   23.6734 C   0  0  0  0  0  0  0  0  0  0  0  0
  -21.8544  -22.2729   23.3967 C   0  0  0  0  0  0  0  0  0  0  0  0
  -28.5097  -24.7714   22.5135 C   0  0  0  0  0  0  0  0  0  0  0  0
  -27.4149  -11.4274   22.8245 C   0  0  0  0  0  0  0  0  0  0  0  0
  -26.4022  -11.7929   20.6617 C   0  0  0  0  0  0  0  0  0  0  0  0
  -29.5465  -24.7684   21.5813 C   0  0  0  0  0  0  0  0  0  0  0  0
  -23.9551   -9.1057   20.6410 C   0  0  0  0  0  0  0  0  0  0  0  0
  -22.6020   -9.1561   20.3061 C   0  0  0  0  0  0  0  0  0  0  0  0
  -28.4584  -26.5512   20.3744 C   0  0  0  0  0  0  0  0  0  0  0  0
  -27.6036  -21.3953   17.0283 C   0  0  0  0  0  0  0  0  0  0  0  0
  -22.2548  -10.8755   21.9676 C   0  0  0  0  0  0  0  0  0  0  0  0
  -27.4426  -23.3170   18.1907 C   0  0  0  0  0  0  0  0  0  0  0  0
  -28.0334  -13.3591   21.5120 C   0  0  0  0  0  0  0  0  0  0  0  0
  -30.0853  -14.6831   20.7739 C   0  0  0  0  0  0  0  0  0  0  0  0
  -19.9182  -23.5939   22.7692 C   0  0  0  0  0  0  0  0  0  0  0  0
  -27.4323  -25.6584   22.3768 C   0  0  0  0  0  0  0  0  0  0  0  0
  -21.2865  -23.2973   22.6203 C   0  0  0  0  0  0  0  0  0  0  0  0
  -27.4105  -26.5653   21.3076 C   0  0  0  0  0  0  0  0  0  0  0  0
  -26.9583  -22.0295   18.1185 C   0  0  0  0  0  0  0  0  0  0  0  0
  -26.5336  -11.0272   21.8202 C   0  0  0  0  0  0  0  0  0  0  0  0
  -29.5195  -25.6564   20.5100 C   0  0  0  0  0  0  0  0  0  0  0  0
  -24.4581   -9.9401   21.6393 C   0  0  0  0  0  0  0  0  0  0  0  0
  -21.7519  -10.0410   20.9693 C   0  0  0  0  0  0  0  0  0  0  0  0
  -23.6080  -10.8250   22.3025 C   0  0  0  0  0  0  0  0  0  0  0  0
  -28.8074  -14.5640   21.3524 C   0  0  0  0  0  0  0  0  0  0  0  0
  -28.4628  -22.3145   16.4677 C   0  0  0  0  0  0  0  0  0  0  0  0
  -30.3786  -16.0220   20.8620 C   0  0  0  0  0  0  0  0  0  0  0  0
  -30.9315  -13.6737   20.2076 C   0  0  0  0  0  0  0  0  0  0  0  0
  -24.2982  -25.3331   21.9582 C   0  0  0  0  0  0  0  0  0  0  0  0
  -24.3081  -28.5558   22.3279 C   0  0  0  0  0  0  0  0  0  0  0  0
  -26.0426  -31.4887   22.1364 C   0  0  0  0  0  0  0  0  0  0  0  0
  -26.9659  -20.9286   21.2227 C   0  0  0  0  0  0  0  0  0  0  0  0
  -19.2396  -24.6492   21.9323 C   0  0  0  0  0  0  0  0  0  0  0  0
  -26.3351  -25.6674   23.4057 C   0  0  0  0  0  0  0  0  0  0  0  0
  -26.2867  -27.5516   21.1270 C   0  0  0  0  0  0  0  0  0  0  0  0
  -20.2131  -25.6222   21.2721 C   0  0  0  0  0  0  0  0  0  0  0  0
  -29.4685  -19.8870   23.5311 C   0  0  0  0  0  0  0  0  0  0  0  0
  -21.3682  -24.8648   20.6248 C   0  0  0  0  0  0  0  0  0  0  0  0
  -29.6981  -18.4154   23.1823 C   0  0  0  0  0  0  0  0  0  0  0  0
  -28.0010  -20.2809   23.3780 C   0  0  0  0  0  0  0  0  0  0  0  0
  -27.6403  -18.4994   21.7137 C   0  0  0  0  0  0  0  0  0  0  0  0
  -22.1682  -24.0795   21.6711 C   0  0  1  0  0  0  0  0  0  0  0  0
  -25.0312  -26.2628   22.8835 C   0  0  1  0  0  0  0  0  0  0  0  0
  -29.1147  -18.0693   21.7992 C   0  0  2  0  0  0  0  0  0  0  0  0
  -28.6296  -21.8864   13.9892 C   0  0  0  0  0  0  0  0  0  0  0  0
  -30.4676  -21.1084   15.5293 C   0  0  0  0  0  0  0  0  0  0  0  0
  -25.7725  -33.9620   22.4637 C   0  0  0  0  0  0  0  0  0  0  0  0
  -32.1591  -23.9407   19.1907 C   0  0  0  0  0  0  0  0  0  0  0  0
  -22.7969  -28.7383   19.6834 C   0  0  0  0  0  0  0  0  0  0  0  0
  -23.3885  -31.1694   19.5932 C   0  0  0  0  0  0  0  0  0  0  0  0
  -21.9822  -30.2982   21.4603 C   0  0  0  0  0  0  0  0  0  0  0  0
  -28.1033  -31.5500   24.2597 C   0  0  0  0  0  0  0  0  0  0  0  0
  -25.9526  -21.4241   19.0121 C   0  0  0  0  0  0  0  0  0  0  0  0
  -30.5825  -24.7060   17.3787 C   0  0  0  0  0  0  0  0  0  0  0  0
  -29.1192  -24.7520   16.9156 C   0  0  0  0  0  0  0  0  0  0  0  0
  -29.3737  -22.1789   15.3122 C   0  0  0  0  0  0  0  0  0  0  0  0
  -24.4469  -29.7380   21.3993 C   0  0  1  0  0  0  0  0  0  0  0  0
  -26.1755  -32.6457   23.1100 C   0  0  2  0  0  0  0  0  0  0  0  0
  -30.7548  -24.4428   18.8799 C   0  0  2  0  0  0  0  0  0  1  0  0
  -23.1740  -29.9662   20.5361 C   0  0  0  0  0  0  0  0  0  0  0  0
  -28.3224  -15.7339   21.7767 N   0  0  0  0  0  0  0  0  0  0  0  0
  -28.3567  -23.4789   17.1825 N   0  0  0  0  0  0  0  0  0  0  0  0
  -29.3007  -16.6009   21.4647 N   0  0  0  0  0  0  0  0  0  0  0  0
  -25.2341  -27.5172   22.1558 N   0  0  0  0  0  0  0  0  0  0  0  0
  -27.5095  -19.9272   22.0441 N   0  0  0  0  0  0  0  0  0  0  0  0
  -31.4508  -16.7488   20.4819 N   0  0  0  0  0  0  0  0  0  0  0  0
  -30.4759  -12.3483   20.1977 N   0  0  0  0  0  0  0  0  0  0  0  0
  -23.0441  -24.9657   22.4073 N   0  0  0  0  0  0  0  0  0  0  0  0
  -24.8121  -30.8748   22.2376 N   0  0  0  0  0  0  0  0  0  0  0  0
  -26.5295  -20.5093   19.9719 N   0  0  0  0  0  0  0  0  0  0  0  0
  -27.5838  -32.7659   23.5825 N   0  3  0  0  0  0  0  0  0  0  0  0
  -32.0652  -13.9367   19.7394 O   0  0  0  0  0  0  0  0  0  0  0  0
  -24.8304  -24.9768   20.9135 O   0  0  0  0  0  0  0  0  0  0  0  0
  -23.4155  -28.5571   23.1793 O   0  0  0  0  0  0  0  0  0  0  0  0
  -26.9392  -31.1644   21.3608 O   0  0  0  0  0  0  0  0  0  0  0  0
  -26.8810  -22.1097   21.5756 O   0  0  0  0  0  0  0  0  0  0  0  0
  -25.8018   -9.8894   21.9701 O   0  0  0  0  0  0  0  0  0  0  0  0
  -30.5298  -25.6551   19.5983 O   0  0  0  0  0  0  0  0  0  1  0  0
  -20.4528  -10.0904   20.6465 F   0  0  0  0  0  0  0  0  0  0  0  0
  -24.0856  -11.6299   23.2616 F   0  0  0  0  0  0  0  0  0  0  0  0
  1  2  1  0  0  0  0
  1  5  2  0  0  0  0
  2  6  2  0  0  0  0
  3  8  2  0  0  0  0
  3 17  1  0  0  0  0
  4  9  1  0  0  0  0
  4 17  2  0  0  0  0
  5 19  1  0  0  0  0
  6 21  1  0  0  0  0
  7 10  2  0  0  0  0
  7 20  1  0  0  0  0
  8 24  1  0  0  0  0
  9 24  2  0  0  0  0
 10 25  1  0  0  0  0
 11 12  2  0  0  0  0
 11 26  1  0  0  0  0
 12 27  1  0  0  0  0
 13 22  1  0  0  0  0
 13 25  2  0  0  0  0
 14 23  1  0  0  0  0
 14 30  2  0  0  0  0
 15 27  2  0  0  0  0
 15 28  1  0  0  0  0
 16 23  2  0  0  0  0
 16 66  1  0  0  0  0
 17 29  1  0  0  0  0
 18 29  1  0  0  0  0
 18 31  2  0  0  0  0
 18 32  1  0  0  0  0
 19 21  2  0  0  0  0
 19 37  1  0  0  0  0
 20 22  2  0  0  0  0
 20 38  1  0  0  0  0
 21 46  1  0  0  0  0
 22 39  1  0  0  0  0
 23 57  1  0  0  0  0
 24 81  1  0  0  0  0
 25 82  1  0  0  0  0
 26 28  2  0  0  0  0
 26 81  1  0  0  0  0
 27 83  1  0  0  0  0
 28 84  1  0  0  0  0
 29 65  2  0  0  0  0
 30 60  1  0  0  0  0
 30 66  1  0  0  0  0
 31 67  1  0  0  0  0
 31 70  1  0  0  0  0
 32 71  1  0  0  0  0
 32 76  2  0  0  0  0
 33 47  1  0  0  0  0
 33 72  1  0  0  0  0
 33 77  2  0  0  0  0
 34 61  1  0  0  0  0
 34 68  1  0  0  0  0
 34 78  2  0  0  0  0
 35 62  1  0  0  0  0
 35 73  1  0  0  0  0
 35 79  2  0  0  0  0
 36 69  1  0  0  0  0
 36 74  1  0  0  0  0
 36 80  2  0  0  0  0
 37 40  1  0  0  0  0
 38 47  1  0  0  0  0
 39 68  1  0  0  0  0
 40 42  1  0  0  0  0
 41 43  1  0  0  0  0
 41 44  1  0  0  0  0
 42 46  1  0  0  0  0
 43 48  1  0  0  0  0
 44 69  1  0  0  0  0
 45 48  1  0  0  0  0
 45 69  1  0  0  0  0
 46 72  1  0  0  0  0
 47 68  1  0  0  0  0
 48 67  1  0  0  0  0
 49 60  1  0  0  0  0
 50 60  1  0  0  0  0
 51 62  1  0  0  0  0
 52 63  1  0  0  0  0
 53 64  1  0  0  0  0
 54 64  1  0  0  0  0
 55 64  1  0  0  0  0
 56 75  1  0  0  0  0
 57 74  1  0  0  0  0
 58 59  1  0  0  0  0
 58 63  1  0  0  0  0
 59 66  1  0  0  0  0
 61 64  1  0  0  0  0
 61 73  1  0  0  0  0
 62 75  1  0  0  0  0
 63 82  1  0  0  0  0
 65 67  1  0  0  0  0
M  CHG  1  75   1
M  ISO  4  36 100  63 101  74 100  82 101
M  END
> <Batch ID>
0104

> <Smiles>
CNC(C)C(=O)NC(C(=O)N1Cc2cc([101O:1][101CH:1](C)CCn3cc(C[100NH:0][100C:0](=O)N4CCCC(n5nc(-c6ccc(Oc7ccc(F)cc7F)cc6)c(C(N)=O)c5N)C4)cc3C(C)C)ccc2CC1C(=O)NC1CCCc2ccccc21)C(C)(C)C

> <Shape>
0.238

> <Color>
0.056

> <Negative vol penalty>
0.000

$$$$

  -OEChem-04052319433D

 84 92  0     1  0  0  0  0  0999 V2000
  -15.3756  -27.1014   24.9922 C   0  0  0  0  0  0  0  0  0  0  0  0
  -16.1621  -25.9821   24.7389 C   0  0  0  0  0  0  0  0  0  0  0  0
  -22.7333  -10.0833   20.2365 C   0  0  0  0  0  0  0  0  0  0  0  0
  -24.2201   -9.6056   22.0799 C   0  0  0  0  0  0  0  0  0  0  0  0
  -15.7875  -28.3566   24.5466 C   0  0  0  0  0  0  0  0  0  0  0  0
  -17.3604  -26.1174   24.0388 C   0  0  0  0  0  0  0  0  0  0  0  0
  -23.6186  -24.0874   26.9723 C   0  0  0  0  0  0  0  0  0  0  0  0
  -21.9985   -8.9349   20.5315 C   0  0  0  0  0  0  0  0  0  0  0  0
  -23.4853   -8.4572   22.3750 C   0  0  0  0  0  0  0  0  0  0  0  0
  -24.8291  -23.5281   27.3822 C   0  0  0  0  0  0  0  0  0  0  0  0
  -20.5853   -7.6891   23.9307 C   0  0  0  0  0  0  0  0  0  0  0  0
  -20.2693   -7.4495   25.2680 C   0  0  0  0  0  0  0  0  0  0  0  0
  -25.9033  -24.3601   25.3818 C   0  0  0  0  0  0  0  0  0  0  0  0
  -21.4709   -5.3555   25.1768 C   0  0  0  0  0  0  0  0  0  0  0  0
  -23.8441  -10.4186   21.0106 C   0  0  0  0  0  0  0  0  0  0  0  0
  -24.1373  -12.9325   20.6914 C   0  0  0  0  0  0  0  0  0  0  0  0
  -16.9962  -28.5088   23.8491 C   0  0  0  0  0  0  0  0  0  0  0  0
  -23.5494  -24.7992   25.7715 C   0  0  0  0  0  0  0  0  0  0  0  0
  -17.7881  -27.3757   23.5822 C   0  0  0  0  0  0  0  0  0  0  0  0
  -24.6964  -24.9332   24.9721 C   0  0  0  0  0  0  0  0  0  0  0  0
  -22.3745   -8.1219   21.6007 C   0  0  0  0  0  0  0  0  0  0  0  0
  -25.9685  -23.6640   26.5888 C   0  0  0  0  0  0  0  0  0  0  0  0
  -21.3440   -6.7618   23.2164 C   0  0  0  0  0  0  0  0  0  0  0  0
  -20.7121   -6.2827   25.8911 C   0  0  0  0  0  0  0  0  0  0  0  0
  -21.7869   -5.5950   23.8395 C   0  0  0  0  0  0  0  0  0  0  0  0
  -24.6039  -11.6044   20.7060 C   0  0  0  0  0  0  0  0  0  0  0  0
  -25.2372  -13.6790   20.3457 C   0  0  0  0  0  0  0  0  0  0  0  0
  -22.8269  -13.4456   20.9659 C   0  0  0  0  0  0  0  0  0  0  0  0
  -21.4288  -26.7748   23.3890 C   0  0  0  0  0  0  0  0  0  0  0  0
  -24.1509  -28.1816   23.5359 C   0  0  0  0  0  0  0  0  0  0  0  0
  -26.7153  -30.4313   23.5381 C   0  0  0  0  0  0  0  0  0  0  0  0
  -30.5811  -14.9146   20.6993 C   0  0  0  0  0  0  0  0  0  0  0  0
  -17.3765  -29.8788   23.3460 C   0  0  0  0  0  0  0  0  0  0  0  0
  -22.2525  -25.3659   25.2607 C   0  0  0  0  0  0  0  0  0  0  0  0
  -24.5669  -25.6778   23.6714 C   0  0  0  0  0  0  0  0  0  0  0  0
  -18.8430  -29.9922   22.9377 C   0  0  0  0  0  0  0  0  0  0  0  0
  -29.7632  -12.2792   18.5988 C   0  0  0  0  0  0  0  0  0  0  0  0
  -19.2505  -28.8022   22.0748 C   0  0  0  0  0  0  0  0  0  0  0  0
  -31.2374  -19.3945   22.3109 C   0  0  0  0  0  0  0  0  0  0  0  0
  -31.4097  -17.9177   24.3548 C   0  0  0  0  0  0  0  0  0  0  0  0
  -28.3100  -11.9654   18.9516 C   0  0  0  0  0  0  0  0  0  0  0  0
  -30.4268  -18.3133   21.5954 C   0  0  0  0  0  0  0  0  0  0  0  0
  -30.6001  -16.8336   23.6425 C   0  0  0  0  0  0  0  0  0  0  0  0
  -30.5731  -12.5889   19.8522 C   0  0  0  0  0  0  0  0  0  0  0  0
  -28.5593  -13.4147   21.0287 C   0  0  0  0  0  0  0  0  0  0  0  0
  -19.1066  -27.4855   22.8476 C   0  0  1  0  0  0  0  0  0  0  0  0
  -22.4311  -26.6936   24.5027 C   0  0  1  0  0  0  0  0  0  0  0  0
  -31.1077  -19.3323   23.8396 C   0  0  0  0  0  0  0  0  0  0  0  0
  -27.6913  -13.0943   19.7945 C   0  0  2  0  0  0  0  0  0  0  0  0
  -30.7658  -16.9179   22.1241 C   0  0  0  0  0  0  0  0  0  0  0  0
  -27.7795  -32.2065   22.1191 C   0  0  0  0  0  0  0  0  0  0  0  0
  -28.2962  -19.8340   28.4695 C   0  0  0  0  0  0  0  0  0  0  0  0
  -25.4270  -26.0231   21.7991 C   0  0  0  0  0  0  0  0  0  0  0  0
  -27.1352  -27.7081   21.0842 C   0  0  0  0  0  0  0  0  0  0  0  0
  -24.7247  -28.0791   20.5606 C   0  0  0  0  0  0  0  0  0  0  0  0
  -28.5547  -15.8481   21.8940 C   0  0  0  0  0  0  0  0  0  0  0  0
  -26.1796  -32.5289   25.5560 C   0  0  0  0  0  0  0  0  0  0  0  0
  -29.7372  -19.8256   24.3117 C   0  0  0  0  0  0  0  0  0  0  0  0
  -29.7817  -20.2634   25.7669 C   0  0  0  0  0  0  0  0  0  0  0  0
  -27.0751  -21.9431   27.8019 C   0  0  0  0  0  0  0  0  0  1  0  0
  -25.5290  -28.3351   22.9438 C   0  0  1  0  0  0  0  0  0  0  0  0
  -26.7570  -31.9119   23.2056 C   0  0  2  0  0  0  0  0  0  0  0  0
  -28.3287  -21.0947   27.6208 C   0  0  2  0  0  0  0  0  0  0  0  0
  -25.7002  -27.5304   21.6245 C   0  0  0  0  0  0  0  0  0  0  0  0
  -25.8991  -11.5094   20.3942 N   0  0  0  0  0  0  0  0  0  0  0  0
  -26.2559  -12.7873   20.1804 N   0  0  0  0  0  0  0  0  0  0  0  0
  -23.7437  -26.8822   23.8618 N   0  0  0  0  0  0  0  0  0  0  0  0
  -29.9539  -13.6617   20.6311 N   0  0  0  0  0  0  0  0  0  0  0  0
  -25.4226  -15.0046   20.1700 N   0  0  0  0  0  0  0  0  0  0  0  0
  -21.8126  -12.5401   21.3061 N   0  0  0  0  0  0  0  0  0  0  0  0
  -20.2132  -27.3140   23.7644 N   0  0  0  0  0  0  0  0  0  0  0  0
  -25.7551  -29.7694   22.8024 N   0  0  0  0  0  0  0  0  0  0  0  0
  -29.9511  -15.9065   21.4660 N   0  0  0  0  0  0  0  0  0  0  0  0
  -27.1153  -32.7046   24.4156 N   0  3  0  0  0  0  0  0  0  0  0  0
  -28.4227  -20.6888   26.1885 N   0  3  0  0  0  0  0  0  0  0  0  0
  -22.5593  -14.6690   20.8951 O   0  0  0  0  0  0  0  0  0  0  0  0
  -21.7352  -26.3792   22.2704 O   0  0  0  0  0  0  0  0  0  0  0  0
  -23.4502  -29.1842   23.7008 O   0  0  0  0  0  0  0  0  0  0  0  0
  -27.4625  -29.9130   24.3649 O   0  0  0  0  0  0  0  0  0  0  0  0
  -31.6494  -15.1341   20.1140 O   0  0  0  0  0  0  0  0  0  0  0  0
  -21.6576   -7.0015   21.8890 O   0  0  0  0  0  0  0  0  0  0  0  0
  -27.1481  -23.1193   26.9972 O   0  0  0  0  0  0  0  0  0  1  0  0
  -20.4099   -6.0535   27.1757 F   0  0  0  0  0  0  0  0  0  0  0  0
  -22.5172   -4.7011   23.1587 F   0  0  0  0  0  0  0  0  0  0  0  0
  1  2  1  0  0  0  0
  1  5  2  0  0  0  0
  2  6  2  0  0  0  0
  3  8  2  0  0  0  0
  3 15  1  0  0  0  0
  4  9  1  0  0  0  0
  4 15  2  0  0  0  0
  5 17  1  0  0  0  0
  6 19  1  0  0  0  0
  7 10  2  0  0  0  0
  7 18  1  0  0  0  0
  8 21  1  0  0  0  0
  9 21  2  0  0  0  0
 10 22  1  0  0  0  0
 11 12  2  0  0  0  0
 11 23  1  0  0  0  0
 12 24  1  0  0  0  0
 13 20  1  0  0  0  0
 13 22  2  0  0  0  0
 14 24  2  0  0  0  0
 14 25  1  0  0  0  0
 15 26  1  0  0  0  0
 16 26  1  0  0  0  0
 16 27  2  0  0  0  0
 16 28  1  0  0  0  0
 17 19  2  0  0  0  0
 17 33  1  0  0  0  0
 18 20  2  0  0  0  0
 18 34  1  0  0  0  0
 19 46  1  0  0  0  0
 20 35  1  0  0  0  0
 21 81  1  0  0  0  0
 22 82  1  0  0  0  0
 23 25  2  0  0  0  0
 23 81  1  0  0  0  0
 24 83  1  0  0  0  0
 25 84  1  0  0  0  0
 26 65  2  0  0  0  0
 27 66  1  0  0  0  0
 27 69  1  0  0  0  0
 28 70  1  0  0  0  0
 28 76  2  0  0  0  0
 29 47  1  0  0  0  0
 29 71  1  0  0  0  0
 29 77  2  0  0  0  0
 30 61  1  0  0  0  0
 30 67  1  0  0  0  0
 30 78  2  0  0  0  0
 31 62  1  0  0  0  0
 31 72  1  0  0  0  0
 31 79  2  0  0  0  0
 32 68  1  0  0  0  0
 32 73  1  0  0  0  0
 32 80  2  0  0  0  0
 33 36  1  0  0  0  0
 34 47  1  0  0  0  0
 35 67  1  0  0  0  0
 36 38  1  0  0  0  0
 37 41  1  0  0  0  0
 37 44  1  0  0  0  0
 38 46  1  0  0  0  0
 39 42  1  0  0  0  0
 39 48  1  0  0  0  0
 40 43  1  0  0  0  0
 40 48  1  0  0  0  0
 41 49  1  0  0  0  0
 42 50  1  0  0  0  0
 43 50  1  0  0  0  0
 44 68  1  0  0  0  0
 45 49  1  0  0  0  0
 45 68  1  0  0  0  0
 46 71  1  0  0  0  0
 47 67  1  0  0  0  0
 48 58  1  0  0  0  0
 49 66  1  0  0  0  0
 50 73  1  0  0  0  0
 51 62  1  0  0  0  0
 52 63  1  0  0  0  0
 53 64  1  0  0  0  0
 54 64  1  0  0  0  0
 55 64  1  0  0  0  0
 56 73  1  0  0  0  0
 57 74  1  0  0  0  0
 58 59  1  0  0  0  0
 59 75  1  0  0  0  0
 60 63  1  0  0  0  0
 60 82  1  0  0  0  0
 61 64  1  0  0  0  0
 61 72  1  0  0  0  0
 62 74  1  0  0  0  0
 63 75  1  0  0  0  0
 65 66  1  0  0  0  0
M  CHG  2  74   1  75   1
M  ISO  4  32 100  60 101  73 100  82 101
M  END
> <Batch ID>
0104

> <Smiles>
CNC(C)C(=O)NC(C(=O)N1Cc2cc([101O:1][101CH2:1]C(C)NCCC3CCC([100N:0](C)[100C:0](=O)N4CCCC(n5nc(-c6ccc(Oc7ccc(F)cc7F)cc6)c(C(N)=O)c5N)C4)CC3)ccc2CC1C(=O)NC1CCCc2ccccc21)C(C)(C)C

> <Shape>
0.314

> <Color>
0.223

> <Negative vol penalty>
0.000

$$$$

  -OEChem-04052319433D

 83 91  0     1  0  0  0  0  0999 V2000
  -16.8345  -29.2783   24.2496 C   0  0  0  0  0  0  0  0  0  0  0  0
  -17.4609  -28.1005   24.6440 C   0  0  0  0  0  0  0  0  0  0  0  0
  -23.1549   -9.7674   20.3001 C   0  0  0  0  0  0  0  0  0  0  0  0
  -23.7232  -10.2302   22.6023 C   0  0  0  0  0  0  0  0  0  0  0  0
  -17.3738  -30.0404   23.2140 C   0  0  0  0  0  0  0  0  0  0  0  0
  -18.6265  -27.6833   24.0023 C   0  0  0  0  0  0  0  0  0  0  0  0
  -24.7743  -24.2350   25.2792 C   0  0  0  0  0  0  0  0  0  0  0  0
  -22.4163   -8.6560   20.7059 C   0  0  0  0  0  0  0  0  0  0  0  0
  -22.9845   -9.1188   23.0081 C   0  0  0  0  0  0  0  0  0  0  0  0
  -25.5362  -23.1747   24.7903 C   0  0  0  0  0  0  0  0  0  0  0  0
  -19.7343   -8.3346   23.5001 C   0  0  0  0  0  0  0  0  0  0  0  0
  -18.8845   -8.4879   24.5955 C   0  0  0  0  0  0  0  0  0  0  0  0
  -26.4207  -24.6127   23.0672 C   0  0  0  0  0  0  0  0  0  0  0  0
  -28.4370  -18.5928   21.4173 C   0  0  0  0  0  0  0  0  0  0  0  0
  -20.0997   -6.7674   25.7790 C   0  0  0  0  0  0  0  0  0  0  0  0
  -23.8084  -10.5546   21.2484 C   0  0  0  0  0  0  0  0  0  0  0  0
  -24.1083  -13.0231   20.6790 C   0  0  0  0  0  0  0  0  0  0  0  0
  -18.5520  -29.6373   22.5657 C   0  0  0  0  0  0  0  0  0  0  0  0
  -24.8217  -25.4914   24.6581 C   0  0  0  0  0  0  0  0  0  0  0  0
  -19.1814  -28.4399   22.9562 C   0  0  0  0  0  0  0  0  0  0  0  0
  -25.6604  -25.6880   23.5518 C   0  0  0  0  0  0  0  0  0  0  0  0
  -27.5735  -19.5111   22.0041 C   0  0  0  0  0  0  0  0  0  0  0  0
  -27.9035  -20.0840   23.2273 C   0  0  0  0  0  0  0  0  0  0  0  0
  -22.3310   -8.3316   22.0598 C   0  0  0  0  0  0  0  0  0  0  0  0
  -26.3573  -23.3626   23.6824 C   0  0  0  0  0  0  0  0  0  0  0  0
  -20.7668   -7.3977   23.5441 C   0  0  0  0  0  0  0  0  0  0  0  0
  -19.0672   -7.7043   25.7350 C   0  0  0  0  0  0  0  0  0  0  0  0
  -20.9495   -6.6142   24.6835 C   0  0  0  0  0  0  0  0  0  0  0  0
  -24.5721  -11.7025   20.8298 C   0  0  0  0  0  0  0  0  0  0  0  0
  -29.6089  -18.2836   22.0889 C   0  0  0  0  0  0  0  0  0  0  0  0
  -29.0991  -19.7079   23.8180 C   0  0  0  0  0  0  0  0  0  0  0  0
  -25.2114  -13.7293   20.2657 C   0  0  0  0  0  0  0  0  0  0  0  0
  -22.7975  -13.5631   20.8935 C   0  0  0  0  0  0  0  0  0  0  0  0
  -22.7033  -27.3453   23.1821 C   0  0  0  0  0  0  0  0  0  0  0  0
  -25.1644  -29.4579   23.1393 C   0  0  0  0  0  0  0  0  0  0  0  0
  -28.5356  -29.9810   23.2329 C   0  0  0  0  0  0  0  0  0  0  0  0
  -30.6394  -14.9581   20.6797 C   0  0  0  0  0  0  0  0  0  0  0  0
  -19.0712  -30.4695   21.4200 C   0  0  0  0  0  0  0  0  0  0  0  0
  -24.0142  -26.6321   25.2140 C   0  0  0  0  0  0  0  0  0  0  0  0
  -25.7626  -27.0226   22.8613 C   0  0  0  0  0  0  0  0  0  0  0  0
  -20.5158  -30.1521   21.0424 C   0  0  0  0  0  0  0  0  0  0  0  0
  -29.7503  -12.1305   18.7072 C   0  0  0  0  0  0  0  0  0  0  0  0
  -20.7245  -28.6439   20.9504 C   0  0  0  0  0  0  0  0  0  0  0  0
  -28.2882  -11.8726   19.0759 C   0  0  0  0  0  0  0  0  0  0  0  0
  -30.5608  -12.6044   19.9116 C   0  0  0  0  0  0  0  0  0  0  0  0
  -28.5371  -13.5146   20.9839 C   0  0  0  0  0  0  0  0  0  0  0  0
  -20.4610  -27.9671   22.3010 C   0  0  1  0  0  0  0  0  0  0  0  0
  -23.7488  -27.7312   24.1899 C   0  0  1  0  0  0  0  0  0  0  0  0
  -27.6669  -13.0885   19.7891 C   0  0  2  0  0  0  0  0  0  0  0  0
  -29.5087  -20.2903   25.1313 C   0  0  0  0  0  0  0  0  0  0  0  0
  -25.3693  -18.6474   21.1385 C   0  0  0  0  0  0  0  0  0  0  0  0
  -26.5476  -20.5241   19.9364 C   0  0  0  0  0  0  0  0  0  0  0  0
  -30.2481  -31.8129   23.1404 C   0  0  0  0  0  0  0  0  0  0  0  0
  -24.7424  -29.6970   20.1268 C   0  0  0  0  0  0  0  0  0  0  0  0
  -27.0082  -30.7495   19.9633 C   0  0  0  0  0  0  0  0  0  0  0  0
  -25.2114  -31.8609   21.2896 C   0  0  0  0  0  0  0  0  0  0  0  0
  -29.5560  -29.3216   25.9316 C   0  0  0  0  0  0  0  0  0  0  0  0
  -26.9925  -21.0796   23.8832 C   0  0  0  0  0  0  0  0  0  1  0  0
  -30.5601  -17.3031   21.4883 C   0  0  0  0  0  0  0  0  0  0  0  0
  -26.3019  -19.8614   21.3045 C   0  0  0  0  0  0  0  0  0  0  0  0
  -26.2964  -29.7614   22.1877 C   0  0  1  0  0  0  0  0  0  0  0  0
  -29.3831  -30.9460   24.0421 C   0  0  2  0  0  0  0  0  0  0  0  0
  -25.8115  -30.4914   20.9034 C   0  0  0  0  0  0  0  0  0  0  0  0
  -25.8687  -11.5747   20.5360 N   0  0  0  0  0  0  0  0  0  0  0  0
  -29.9634  -18.8194   23.2783 N   0  0  0  0  0  0  0  0  0  0  0  0
  -26.2291  -12.8240   20.1964 N   0  0  0  0  0  0  0  0  0  0  0  0
  -24.9487  -28.1052   23.4385 N   0  0  0  0  0  0  0  0  0  0  0  0
  -29.9186  -13.7605   20.5417 N   0  0  0  0  0  0  0  0  0  0  0  0
  -25.4003  -15.0302   19.9583 N   0  0  0  0  0  0  0  0  0  0  0  0
  -21.7797  -12.6981   21.3178 N   0  0  0  0  0  0  0  0  0  0  0  0
  -21.5863  -28.1589   23.1905 N   0  0  0  0  0  0  0  0  0  0  0  0
  -27.2893  -30.5028   22.9576 N   0  0  0  0  0  0  0  0  0  0  0  0
  -29.9545  -16.0065   21.2819 N   0  0  0  0  0  0  0  0  0  0  0  0
  -30.2758  -30.1976   24.9715 N   0  3  0  0  0  0  0  0  0  0  0  0
  -22.5327  -14.7736   20.6984 O   0  0  0  0  0  0  0  0  0  0  0  0
  -22.8963  -26.3817   22.4500 O   0  0  0  0  0  0  0  0  0  0  0  0
  -24.5009  -30.3873   23.6056 O   0  0  0  0  0  0  0  0  0  0  0  0
  -28.9401  -28.8763   22.8771 O   0  0  0  0  0  0  0  0  0  0  0  0
  -31.8051  -15.0855   20.2900 O   0  0  0  0  0  0  0  0  0  0  0  0
  -21.6101   -7.2473   22.4561 O   0  0  0  0  0  0  0  0  0  0  0  0
  -27.1014  -22.3292   23.2027 O   0  0  0  0  0  0  0  0  0  1  0  0
  -18.2520   -7.8527   26.7874 F   0  0  0  0  0  0  0  0  0  0  0  0
  -21.9403   -5.7133   24.7321 F   0  0  0  0  0  0  0  0  0  0  0  0
  1  2  1  0  0  0  0
  1  5  2  0  0  0  0
  2  6  2  0  0  0  0
  3  8  2  0  0  0  0
  3 16  1  0  0  0  0
  4  9  1  0  0  0  0
  4 16  2  0  0  0  0
  5 18  1  0  0  0  0
  6 20  1  0  0  0  0
  7 10  2  0  0  0  0
  7 19  1  0  0  0  0
  8 24  1  0  0  0  0
  9 24  2  0  0  0  0
 10 25  1  0  0  0  0
 11 12  2  0  0  0  0
 11 26  1  0  0  0  0
 12 27  1  0  0  0  0
 13 21  1  0  0  0  0
 13 25  2  0  0  0  0
 14 22  2  0  0  0  0
 14 30  1  0  0  0  0
 15 27  2  0  0  0  0
 15 28  1  0  0  0  0
 16 29  1  0  0  0  0
 17 29  1  0  0  0  0
 17 32  2  0  0  0  0
 17 33  1  0  0  0  0
 18 20  2  0  0  0  0
 18 38  1  0  0  0  0
 19 21  2  0  0  0  0
 19 39  1  0  0  0  0
 20 47  1  0  0  0  0
 21 40  1  0  0  0  0
 22 23  1  0  0  0  0
 22 60  1  0  0  0  0
 23 31  2  0  0  0  0
 23 58  1  0  0  0  0
 24 80  1  0  0  0  0
 25 81  1  0  0  0  0
 26 28  2  0  0  0  0
 26 80  1  0  0  0  0
 27 82  1  0  0  0  0
 28 83  1  0  0  0  0
 29 64  2  0  0  0  0
 30 59  1  0  0  0  0
 30 65  2  0  0  0  0
 31 50  1  0  0  0  0
 31 65  1  0  0  0  0
 32 66  1  0  0  0  0
 32 69  1  0  0  0  0
 33 70  1  0  0  0  0
 33 75  2  0  0  0  0
 34 48  1  0  0  0  0
 34 71  1  0  0  0  0
 34 76  2  0  0  0  0
 35 61  1  0  0  0  0
 35 67  1  0  0  0  0
 35 77  2  0  0  0  0
 36 62  1  0  0  0  0
 36 72  1  0  0  0  0
 36 78  2  0  0  0  0
 37 68  1  0  0  0  0
 37 73  1  0  0  0  0
 37 79  2  0  0  0  0
 38 41  1  0  0  0  0
 39 48  1  0  0  0  0
 40 67  1  0  0  0  0
 41 43  1  0  0  0  0
 42 44  1  0  0  0  0
 42 45  1  0  0  0  0
 43 47  1  0  0  0  0
 44 49  1  0  0  0  0
 45 68  1  0  0  0  0
 46 49  1  0  0  0  0
 46 68  1  0  0  0  0
 47 71  1  0  0  0  0
 48 67  1  0  0  0  0
 49 66  1  0  0  0  0
 51 60  1  0  0  0  0
 52 60  1  0  0  0  0
 53 62  1  0  0  0  0
 54 63  1  0  0  0  0
 55 63  1  0  0  0  0
 56 63  1  0  0  0  0
 57 74  1  0  0  0  0
 58 81  1  0  0  0  0
 59 73  1  0  0  0  0
 61 63  1  0  0  0  0
 61 72  1  0  0  0  0
 62 74  1  0  0  0  0
 64 66  1  0  0  0  0
M  CHG  1  74   1
M  ISO  4  37 100  58 101  73 100  81 101
M  END
> <Batch ID>
0104

> <Smiles>
CNC(C)C(=O)NC(C(=O)N1Cc2cc([101O:1][101CH2:1]c3c(C(C)C)cc(C[100NH:0][100C:0](=O)N4CCCC(n5nc(-c6ccc(Oc7ccc(F)cc7F)cc6)c(C(N)=O)c5N)C4)nc3C)ccc2CC1C(=O)NC1CCCc2ccccc21)C(C)(C)C

> <Shape>
0.279

> <Color>
0.187

> <Negative vol penalty>
0.000

$$$$

  -OEChem-04052319433D

 76 83  0     1  0  0  0  0  0999 V2000
  -25.4160  -19.7204   25.4397 C   0  0  0  0  0  0  0  0  0  0  0  0
  -26.2804  -20.6612   24.8916 C   0  0  0  0  0  0  0  0  0  0  0  0
  -27.0998  -14.4956   21.6874 C   0  0  0  0  0  0  0  0  0  0  0  0
  -27.4992  -14.3354   19.3100 C   0  0  0  0  0  0  0  0  0  0  0  0
  -24.0392  -19.8751   25.2921 C   0  0  0  0  0  0  0  0  0  0  0  0
  -25.7682  -21.7632   24.2060 C   0  0  0  0  0  0  0  0  0  0  0  0
  -28.9802  -25.2199   22.8139 C   0  0  0  0  0  0  0  0  0  0  0  0
  -26.5133  -13.2301   21.6742 C   0  0  0  0  0  0  0  0  0  0  0  0
  -26.9128  -13.0698   19.2968 C   0  0  0  0  0  0  0  0  0  0  0  0
  -29.8941  -25.0265   21.7789 C   0  0  0  0  0  0  0  0  0  0  0  0
  -23.5407  -11.8717   20.8124 C   0  0  0  0  0  0  0  0  0  0  0  0
  -22.3442  -11.7054   21.5097 C   0  0  0  0  0  0  0  0  0  0  0  0
  -28.5235  -26.3774   20.3243 C   0  0  0  0  0  0  0  0  0  0  0  0
  -23.3872  -10.0265   22.8991 C   0  0  0  0  0  0  0  0  0  0  0  0
  -27.5927  -15.0483   20.5053 C   0  0  0  0  0  0  0  0  0  0  0  0
  -29.5564  -16.6616   20.7256 C   0  0  0  0  0  0  0  0  0  0  0  0
  -23.5111  -20.9732   24.5935 C   0  0  0  0  0  0  0  0  0  0  0  0
  -27.8236  -25.9857   22.6083 C   0  0  0  0  0  0  0  0  0  0  0  0
  -24.3810  -21.9497   24.0669 C   0  0  0  0  0  0  0  0  0  0  0  0
  -27.5978  -26.5811   21.3591 C   0  0  0  0  0  0  0  0  0  0  0  0
  -26.4199  -12.5172   20.4789 C   0  0  0  0  0  0  0  0  0  0  0  0
  -29.6644  -25.6029   20.5331 C   0  0  0  0  0  0  0  0  0  0  0  0
  -24.6605  -11.1153   21.1584 C   0  0  0  0  0  0  0  0  0  0  0  0
  -22.2674  -10.7828   22.5530 C   0  0  0  0  0  0  0  0  0  0  0  0
  -24.5838  -10.1928   22.2017 C   0  0  0  0  0  0  0  0  0  0  0  0
  -28.1980  -16.3557   20.5182 C   0  0  0  0  0  0  0  0  0  0  0  0
  -29.6166  -18.0312   20.6426 C   0  0  0  0  0  0  0  0  0  0  0  0
  -30.6648  -15.7859   20.9713 C   0  0  0  0  0  0  0  0  0  0  0  0
  -24.7003  -25.4061   22.7200 C   0  0  0  0  0  0  0  0  0  0  0  0
  -24.4844  -28.6103   22.2633 C   0  0  0  0  0  0  0  0  0  0  0  0
  -25.9315  -31.4756   21.1046 C   0  0  0  0  0  0  0  0  0  0  0  0
  -28.2144  -22.8218   18.1466 C   0  0  0  0  0  0  0  0  0  0  0  0
  -22.0127  -21.0957   24.4704 C   0  0  0  0  0  0  0  0  0  0  0  0
  -26.8610  -26.2069   23.7427 C   0  0  0  0  0  0  0  0  0  0  0  0
  -26.3817  -27.4288   21.0929 C   0  0  0  0  0  0  0  0  0  0  0  0
  -21.5833  -22.0458   23.3572 C   0  0  0  0  0  0  0  0  0  0  0  0
  -25.9253  -21.4877   20.5249 C   0  0  0  0  0  0  0  0  0  0  0  0
  -22.3407  -23.3600   23.4746 C   0  0  0  0  0  0  0  0  0  0  0  0
  -26.4208  -20.0576   20.7473 C   0  0  0  0  0  0  0  0  0  0  0  0
  -26.0987  -21.9256   19.0723 C   0  0  0  0  0  0  0  0  0  0  0  0
  -27.9600  -20.3408   18.7600 C   0  0  0  0  0  0  0  0  0  0  0  0
  -23.8476  -23.1402   23.2907 C   0  0  1  0  0  0  0  0  0  0  0  0
  -25.4586  -26.5798   23.2722 C   0  0  1  0  0  0  0  0  0  0  0  0
  -27.8574  -19.8740   20.2221 C   0  0  2  0  0  0  0  0  0  0  0  0
  -25.4964  -33.9322   20.8341 C   0  0  0  0  0  0  0  0  0  0  0  0
  -22.6568  -28.0230   19.8917 C   0  0  0  0  0  0  0  0  0  0  0  0
  -23.0275  -30.3735   19.1132 C   0  0  0  0  0  0  0  0  0  0  0  0
  -21.9335  -29.9484   21.3143 C   0  0  0  0  0  0  0  0  0  0  0  0
  -32.5579  -24.8808   17.4539 C   0  0  0  0  0  0  0  0  0  0  0  0
  -32.4956  -22.4743   18.1632 C   0  0  0  0  0  0  0  0  0  0  0  0
  -28.2198  -32.1901   22.8402 C   0  0  0  0  0  0  0  0  0  0  0  0
  -30.4005  -23.5722   17.2427 C   0  0  0  0  0  0  0  0  0  0  0  0
  -31.2888  -24.1917   19.5203 C   0  0  0  0  0  0  0  0  0  1  0  0
  -24.4112  -29.5158   21.0577 C   0  0  1  0  0  0  0  0  0  0  0  0
  -26.0830  -32.8512   21.7286 C   0  0  2  0  0  0  0  0  0  0  0  0
  -23.0293  -29.4476   20.3483 C   0  0  0  0  0  0  0  0  0  0  0  0
  -31.6832  -23.7797   18.0831 C   0  0  0  0  0  0  0  0  0  0  0  0
  -27.4492  -17.4436   20.3185 N   0  0  0  0  0  0  0  0  0  0  0  0
  -28.3402  -18.4464   20.4002 N   0  0  0  0  0  0  0  0  0  0  0  0
  -25.4668  -27.6104   22.2320 N   0  0  0  0  0  0  0  0  0  0  0  0
  -27.4831  -21.7272   18.6366 N   0  0  0  0  0  0  0  0  0  0  0  0
  -30.6362  -18.9089   20.7540 N   0  0  0  0  0  0  0  0  0  0  0  0
  -30.4268  -14.4058   21.0251 N   0  0  0  0  0  0  0  0  0  0  0  0
  -24.5462  -24.3644   23.6149 N   0  0  0  0  0  0  0  0  0  0  0  0
  -24.7779  -30.8483   21.5250 N   0  0  0  0  0  0  0  0  0  0  0  0
  -29.5210  -22.5482   17.7610 N   0  0  0  0  0  0  0  0  0  0  0  0
  -27.5228  -33.1605   21.9573 N   0  3  0  0  0  0  0  0  0  0  0  0
  -31.8289  -16.2157   21.1546 O   0  0  0  0  0  0  0  0  0  0  0  0
  -24.2844  -25.4433   21.5679 O   0  0  0  0  0  0  0  0  0  0  0  0
  -23.7036  -28.7882   23.2016 O   0  0  0  0  0  0  0  0  0  0  0  0
  -26.7525  -31.0062   20.3197 O   0  0  0  0  0  0  0  0  0  0  0  0
  -27.7399  -23.9597   18.0641 O   0  0  0  0  0  0  0  0  0  0  0  0
  -25.8479  -11.2822   20.4657 O   0  0  0  0  0  0  0  0  0  0  0  0
  -30.5545  -25.4153   19.5210 O   0  0  0  0  0  0  0  0  0  1  0  0
  -21.1187  -10.6243   23.2236 F   0  0  0  0  0  0  0  0  0  0  0  0
  -25.6565   -9.4641   22.5395 F   0  0  0  0  0  0  0  0  0  0  0  0
  1  2  1  0  0  0  0
  1  5  2  0  0  0  0
  2  6  2  0  0  0  0
  3  8  2  0  0  0  0
  3 15  1  0  0  0  0
  4  9  1  0  0  0  0
  4 15  2  0  0  0  0
  5 17  1  0  0  0  0
  6 19  1  0  0  0  0
  7 10  2  0  0  0  0
  7 18  1  0  0  0  0
  8 21  1  0  0  0  0
  9 21  2  0  0  0  0
 10 22  1  0  0  0  0
 11 12  2  0  0  0  0
 11 23  1  0  0  0  0
 12 24  1  0  0  0  0
 13 20  1  0  0  0  0
 13 22  2  0  0  0  0
 14 24  2  0  0  0  0
 14 25  1  0  0  0  0
 15 26  1  0  0  0  0
 16 26  1  0  0  0  0
 16 27  2  0  0  0  0
 16 28  1  0  0  0  0
 17 19  2  0  0  0  0
 17 33  1  0  0  0  0
 18 20  2  0  0  0  0
 18 34  1  0  0  0  0
 19 42  1  0  0  0  0
 20 35  1  0  0  0  0
 21 73  1  0  0  0  0
 22 74  1  0  0  0  0
 23 25  2  0  0  0  0
 23 73  1  0  0  0  0
 24 75  1  0  0  0  0
 25 76  1  0  0  0  0
 26 58  2  0  0  0  0
 27 59  1  0  0  0  0
 27 62  1  0  0  0  0
 28 63  1  0  0  0  0
 28 68  2  0  0  0  0
 29 43  1  0  0  0  0
 29 64  1  0  0  0  0
 29 69  2  0  0  0  0
 30 54  1  0  0  0  0
 30 60  1  0  0  0  0
 30 70  2  0  0  0  0
 31 55  1  0  0  0  0
 31 65  1  0  0  0  0
 31 71  2  0  0  0  0
 32 61  1  0  0  0  0
 32 66  1  0  0  0  0
 32 72  2  0  0  0  0
 33 36  1  0  0  0  0
 34 43  1  0  0  0  0
 35 60  1  0  0  0  0
 36 38  1  0  0  0  0
 37 39  1  0  0  0  0
 37 40  1  0  0  0  0
 38 42  1  0  0  0  0
 39 44  1  0  0  0  0
 40 61  1  0  0  0  0
 41 44  1  0  0  0  0
 41 61  1  0  0  0  0
 42 64  1  0  0  0  0
 43 60  1  0  0  0  0
 44 59  1  0  0  0  0
 45 55  1  0  0  0  0
 46 56  1  0  0  0  0
 47 56  1  0  0  0  0
 48 56  1  0  0  0  0
 49 57  1  0  0  0  0
 50 57  1  0  0  0  0
 51 67  1  0  0  0  0
 52 57  1  0  0  0  0
 52 66  1  0  0  0  0
 53 57  1  0  0  0  0
 53 74  1  0  0  0  0
 54 56  1  0  0  0  0
 54 65  1  0  0  0  0
 55 67  1  0  0  0  0
 58 59  1  0  0  0  0
M  CHG  1  67   1
M  ISO  4  32 100  53 101  66 100  74 101
M  END
> <Batch ID>
0104

> <Smiles>
CNC(C)C(=O)NC(C(=O)N1Cc2cc([101O:1][101CH2:1]C(C)(C)C[100NH:0][100C:0](=O)N3CCCC(n4nc(-c5ccc(Oc6ccc(F)cc6F)cc5)c(C(N)=O)c4N)C3)ccc2CC1C(=O)NC1CCCc2ccccc21)C(C)(C)C

> <Shape>
0.221

> <Color>
0.058

> <Negative vol penalty>
0.000

$$$$

  -OEChem-04052319433D

 82 90  0     1  0  0  0  0  0999 V2000
  -24.2619  -27.2039   11.7843 C   0  0  0  0  0  0  0  0  0  0  0  0
  -24.9548  -26.7040   12.8822 C   0  0  0  0  0  0  0  0  0  0  0  0
  -23.0772   -9.8668   19.9573 C   0  0  0  0  0  0  0  0  0  0  0  0
  -23.8201   -9.9089   22.2559 C   0  0  0  0  0  0  0  0  0  0  0  0
  -23.4172  -28.3027   11.9358 C   0  0  0  0  0  0  0  0  0  0  0  0
  -24.8043  -27.3035   14.1322 C   0  0  0  0  0  0  0  0  0  0  0  0
  -24.2007  -23.9185   17.8501 C   0  0  0  0  0  0  0  0  0  0  0  0
  -22.3309   -8.7180   20.2195 C   0  0  0  0  0  0  0  0  0  0  0  0
  -23.0738   -8.7600   22.5181 C   0  0  0  0  0  0  0  0  0  0  0  0
  -25.3441  -23.2659   18.3088 C   0  0  0  0  0  0  0  0  0  0  0  0
  -19.8408   -7.9729   23.1089 C   0  0  0  0  0  0  0  0  0  0  0  0
  -19.0752   -7.9513   24.2746 C   0  0  0  0  0  0  0  0  0  0  0  0
  -25.4381  -24.7683   20.1938 C   0  0  0  0  0  0  0  0  0  0  0  0
  -20.3101   -6.0250   25.0500 C   0  0  0  0  0  0  0  0  0  0  0  0
  -30.9700  -19.6339   19.0764 C   0  0  0  0  0  0  0  0  0  0  0  0
  -23.8219  -10.4623   20.9755 C   0  0  0  0  0  0  0  0  0  0  0  0
  -24.1659  -12.9851   20.8191 C   0  0  0  0  0  0  0  0  0  0  0  0
  -23.2487  -28.9099   13.1902 C   0  0  0  0  0  0  0  0  0  0  0  0
  -23.6727  -25.0097   18.5551 C   0  0  0  0  0  0  0  0  0  0  0  0
  -23.9575  -28.4123   14.3004 C   0  0  0  0  0  0  0  0  0  0  0  0
  -24.2864  -25.4315   19.7433 C   0  0  0  0  0  0  0  0  0  0  0  0
  -29.7028  -19.7233   19.6090 C   0  0  0  0  0  0  0  0  0  0  0  0
  -29.4937  -18.7784   20.6547 C   0  0  0  0  0  0  0  0  0  0  0  0
  -22.3292   -8.1646   21.4999 C   0  0  0  0  0  0  0  0  0  0  0  0
  -25.9647  -23.6926   19.4792 C   0  0  0  0  0  0  0  0  0  0  0  0
  -20.8411   -7.0205   22.9136 C   0  0  0  0  0  0  0  0  0  0  0  0
  -19.3099   -6.9774   25.2452 C   0  0  0  0  0  0  0  0  0  0  0  0
  -21.0757   -6.0465   23.8842 C   0  0  0  0  0  0  0  0  0  0  0  0
  -24.5935  -11.6487   20.7051 C   0  0  0  0  0  0  0  0  0  0  0  0
  -30.6093  -18.0024   20.8814 C   0  0  0  0  0  0  0  0  0  0  0  0
  -25.2611  -13.7285   20.4524 C   0  0  0  0  0  0  0  0  0  0  0  0
  -22.8927  -13.5079   21.2206 C   0  0  0  0  0  0  0  0  0  0  0  0
  -23.1899  -28.0823   17.8996 C   0  0  0  0  0  0  0  0  0  0  0  0
  -21.7199  -28.0665   20.7912 C   0  0  0  0  0  0  0  0  0  0  0  0
  -21.3806  -26.6144   23.8609 C   0  0  0  0  0  0  0  0  0  0  0  0
  -30.7439  -14.7480   20.6657 C   0  0  0  0  0  0  0  0  0  0  0  0
  -22.3612  -30.1248   13.2954 C   0  0  0  0  0  0  0  0  0  0  0  0
  -22.4233  -25.6860   18.0614 C   0  0  0  0  0  0  0  0  0  0  0  0
  -23.7475  -26.5850   20.5479 C   0  0  0  0  0  0  0  0  0  0  0  0
  -21.9681  -30.4697   14.7295 C   0  0  0  0  0  0  0  0  0  0  0  0
  -29.6227  -12.3275   18.3076 C   0  0  0  0  0  0  0  0  0  0  0  0
  -23.1889  -30.4253   15.6430 C   0  0  0  0  0  0  0  0  0  0  0  0
  -28.1820  -12.0410   18.7343 C   0  0  0  0  0  0  0  0  0  0  0  0
  -30.5311  -12.5664   19.5117 C   0  0  0  0  0  0  0  0  0  0  0  0
  -28.6195  -13.3195   20.8727 C   0  0  0  0  0  0  0  0  0  0  0  0
  -23.8014  -29.0199   15.6775 C   0  0  1  0  0  0  0  0  0  0  0  0
  -22.2693  -27.1113   18.5832 C   0  0  1  0  0  0  0  0  0  0  0  0
  -27.6540  -13.1272   19.6907 C   0  0  2  0  0  0  0  0  0  0  0  0
  -28.2242  -18.6445   21.4117 C   0  0  0  0  0  0  0  0  0  0  0  0
  -28.2802  -20.4511   17.6653 C   0  0  0  0  0  0  0  0  0  0  0  0
  -20.1281  -26.8478   26.0229 C   0  0  0  0  0  0  0  0  0  0  0  0
  -23.5207  -30.4001   21.5796 C   0  0  0  0  0  0  0  0  0  0  0  0
  -22.9177  -29.9668   23.9706 C   0  0  0  0  0  0  0  0  0  0  0  0
  -21.1466  -30.6122   22.3368 C   0  0  0  0  0  0  0  0  0  0  0  0
  -20.1224  -23.9533   23.5535 C   0  0  0  0  0  0  0  0  0  0  0  0
  -30.8017  -16.9174   21.8697 C   0  0  0  0  0  0  0  0  0  0  0  0
  -29.1387  -22.1660   19.3553 C   0  0  0  0  0  0  0  0  0  0  0  0
  -28.6584  -20.7190   19.1279 C   0  0  2  0  0  0  0  0  0  0  0  0
  -22.1609  -28.2995   22.2160 C   0  0  1  0  0  0  0  0  0  0  0  0
  -20.1510  -26.1983   24.6480 C   0  0  2  0  0  0  0  0  0  0  0  0
  -22.4480  -29.7991   22.5098 C   0  0  0  0  0  0  0  0  0  0  0  0
  -25.8614  -11.5459   20.2978 N   0  0  0  0  0  0  0  0  0  0  0  0
  -26.2399  -12.8272   20.1524 N   0  0  0  0  0  0  0  0  0  0  0  0
  -22.5273  -27.2179   20.0207 N   0  0  0  0  0  0  0  0  0  0  0  0
  -29.9745  -13.6087   20.3776 N   0  0  0  0  0  0  0  0  0  0  0  0
  -25.4728  -15.0585   20.3604 N   0  0  0  0  0  0  0  0  0  0  0  0
  -21.8778  -12.6044   21.5643 N   0  0  0  0  0  0  0  0  0  0  0  0
  -23.0205  -28.1491   16.5298 N   0  0  0  0  0  0  0  0  0  0  0  0
  -21.1297  -27.7113   23.0640 N   0  0  0  0  0  0  0  0  0  0  0  0
  -30.1390  -15.6900   21.4888 N   0  0  0  0  0  0  0  0  0  0  0  0
  -28.1446  -23.1401   18.9280 N   0  0  0  0  0  0  0  0  0  1  0  0
  -20.1264  -24.7189   24.8266 N   0  3  0  0  0  0  0  0  0  0  0  0
  -22.6566  -14.7393   21.2572 O   0  0  0  0  0  0  0  0  0  0  0  0
  -23.9933  -28.7245   18.5658 O   0  0  0  0  0  0  0  0  0  0  0  0
  -20.6927  -28.6115   20.3793 O   0  0  0  0  0  0  0  0  0  0  0  0
  -22.4569  -26.0275   23.9474 O   0  0  0  0  0  0  0  0  0  0  0  0
  -31.8833  -14.9160   20.2178 O   0  0  0  0  0  0  0  0  0  0  0  0
  -21.6008   -7.0437   21.7561 O   0  0  0  0  0  0  0  0  0  0  0  0
  -27.0812  -23.0578   19.9289 O   0  0  0  0  0  0  0  0  0  1  0  0
  -18.5756   -6.9578   26.3653 F   0  0  0  0  0  0  0  0  0  0  0  0
  -22.0360   -5.1296   23.7028 F   0  0  0  0  0  0  0  0  0  0  0  0
  -31.9016  -18.4143   19.8362 S   0  0  0  0  0  0  0  0  0  0  0  0
  1  2  1  0  0  0  0
  1  5  2  0  0  0  0
  2  6  2  0  0  0  0
  3  8  2  0  0  0  0
  3 16  1  0  0  0  0
  4  9  1  0  0  0  0
  4 16  2  0  0  0  0
  5 18  1  0  0  0  0
  6 20  1  0  0  0  0
  7 10  2  0  0  0  0
  7 19  1  0  0  0  0
  8 24  1  0  0  0  0
  9 24  2  0  0  0  0
 10 25  1  0  0  0  0
 11 12  2  0  0  0  0
 11 26  1  0  0  0  0
 12 27  1  0  0  0  0
 13 21  1  0  0  0  0
 13 25  2  0  0  0  0
 14 27  2  0  0  0  0
 14 28  1  0  0  0  0
 15 22  2  0  0  0  0
 15 82  1  0  0  0  0
 16 29  1  0  0  0  0
 17 29  1  0  0  0  0
 17 31  2  0  0  0  0
 17 32  1  0  0  0  0
 18 20  2  0  0  0  0
 18 37  1  0  0  0  0
 19 21  2  0  0  0  0
 19 38  1  0  0  0  0
 20 46  1  0  0  0  0
 21 39  1  0  0  0  0
 22 23  1  0  0  0  0
 22 58  1  0  0  0  0
 23 30  2  0  0  0  0
 23 49  1  0  0  0  0
 24 78  1  0  0  0  0
 25 79  1  0  0  0  0
 26 28  2  0  0  0  0
 26 78  1  0  0  0  0
 27 80  1  0  0  0  0
 28 81  1  0  0  0  0
 29 62  2  0  0  0  0
 30 56  1  0  0  0  0
 30 82  1  0  0  0  0
 31 63  1  0  0  0  0
 31 66  1  0  0  0  0
 32 67  1  0  0  0  0
 32 73  2  0  0  0  0
 33 47  1  0  0  0  0
 33 68  1  0  0  0  0
 33 74  2  0  0  0  0
 34 59  1  0  0  0  0
 34 64  1  0  0  0  0
 34 75  2  0  0  0  0
 35 60  1  0  0  0  0
 35 69  1  0  0  0  0
 35 76  2  0  0  0  0
 36 65  1  0  0  0  0
 36 70  1  0  0  0  0
 36 77  2  0  0  0  0
 37 40  1  0  0  0  0
 38 47  1  0  0  0  0
 39 64  1  0  0  0  0
 40 42  1  0  0  0  0
 41 43  1  0  0  0  0
 41 44  1  0  0  0  0
 42 46  1  0  0  0  0
 43 48  1  0  0  0  0
 44 65  1  0  0  0  0
 45 48  1  0  0  0  0
 45 65  1  0  0  0  0
 46 68  1  0  0  0  0
 47 64  1  0  0  0  0
 48 63  1  0  0  0  0
 50 58  1  0  0  0  0
 51 60  1  0  0  0  0
 52 61  1  0  0  0  0
 53 61  1  0  0  0  0
 54 61  1  0  0  0  0
 55 72  1  0  0  0  0
 56 70  1  0  0  0  0
 57 58  1  0  0  0  0
 57 71  1  0  0  0  0
 59 61  1  0  0  0  0
 59 69  1  0  0  0  0
 60 72  1  0  0  0  0
 62 63  1  0  0  0  0
 71 79  1  0  0  0  0
M  CHG  1  72   1
M  ISO  4  36 100  70 100  71 101  79 101
M  END
> <Batch ID>
0104

> <Smiles>
CNC(C)C(=O)NC(C(=O)N1Cc2cc([101O:1][101NH:1]CC(C)c3csc(C[100NH:0][100C:0](=O)N4CCCC(n5nc(-c6ccc(Oc7ccc(F)cc7F)cc6)c(C(N)=O)c5N)C4)c3C)ccc2CC1C(=O)NC1CCCc2ccccc21)C(C)(C)C

> <Shape>
0.271

> <Color>
0.201

> <Negative vol penalty>
0.000

$$$$

  -OEChem-04052319433D

 87 95  0     1  0  0  0  0  0999 V2000
  -23.9106  -21.3911   15.8982 C   0  0  0  0  0  0  0  0  0  0  0  0
  -25.1473  -22.0080   15.7467 C   0  0  0  0  0  0  0  0  0  0  0  0
  -24.5653  -14.2740   20.2407 C   0  0  0  0  0  0  0  0  0  0  0  0
  -24.7723  -14.6044   22.6251 C   0  0  0  0  0  0  0  0  0  0  0  0
  -22.7515  -22.1630   15.9404 C   0  0  0  0  0  0  0  0  0  0  0  0
  -25.2263  -23.3977   15.6492 C   0  0  0  0  0  0  0  0  0  0  0  0
  -24.9009  -29.6808   20.0844 C   0  0  0  0  0  0  0  0  0  0  0  0
  -25.6526  -13.4007   20.2673 C   0  0  0  0  0  0  0  0  0  0  0  0
  -25.8596  -13.7310   22.6517 C   0  0  0  0  0  0  0  0  0  0  0  0
  -24.1506  -29.8978   21.2393 C   0  0  0  0  0  0  0  0  0  0  0  0
  -29.0228  -13.6229   20.3965 C   0  0  0  0  0  0  0  0  0  0  0  0
  -29.9952  -13.7694   19.4073 C   0  0  0  0  0  0  0  0  0  0  0  0
  -24.7194  -27.6863   22.0170 C   0  0  0  0  0  0  0  0  0  0  0  0
  -21.2618  -27.0380   24.5072 C   0  0  0  0  0  0  0  0  0  0  0  0
  -19.5968  -27.8972   22.9820 C   0  0  0  0  0  0  0  0  0  0  0  0
  -29.5742  -11.5111   18.6590 C   0  0  0  0  0  0  0  0  0  0  0  0
  -24.1252  -14.8759   21.4196 C   0  0  0  0  0  0  0  0  0  0  0  0
  -21.6434  -15.4501   21.5564 C   0  0  0  0  0  0  0  0  0  0  0  0
  -22.8162  -23.5618   15.8308 C   0  0  0  0  0  0  0  0  0  0  0  0
  -25.5583  -28.4589   19.8818 C   0  0  0  0  0  0  0  0  0  0  0  0
  -24.0699  -24.1958   15.7136 C   0  0  0  0  0  0  0  0  0  0  0  0
  -25.4795  -27.4572   20.8599 C   0  0  0  0  0  0  0  0  0  0  0  0
  -20.6411  -28.1181   23.8799 C   0  0  0  0  0  0  0  0  0  0  0  0
  -20.8384  -25.7368   24.2365 C   0  0  0  0  0  0  0  0  0  0  0  0
  -19.1732  -26.5960   22.7113 C   0  0  0  0  0  0  0  0  0  0  0  0
  -19.7940  -25.5158   23.3386 C   0  0  0  0  0  0  0  0  0  0  0  0
  -26.2997  -13.1291   21.4728 C   0  0  0  0  0  0  0  0  0  0  0  0
  -24.0574  -28.8994   22.2045 C   0  0  0  0  0  0  0  0  0  0  0  0
  -28.3262  -12.4204   20.5171 C   0  0  0  0  0  0  0  0  0  0  0  0
  -30.2709  -12.7135   18.5385 C   0  0  0  0  0  0  0  0  0  0  0  0
  -28.6018  -11.3645   19.6483 C   0  0  0  0  0  0  0  0  0  0  0  0
  -23.0025  -15.7786   21.3927 C   0  0  0  0  0  0  0  0  0  0  0  0
  -20.9846  -16.6504   21.4481 C   0  0  0  0  0  0  0  0  0  0  0  0
  -21.0313  -14.1740   21.7859 C   0  0  0  0  0  0  0  0  0  0  0  0
  -25.3645  -26.1395   17.7169 C   0  0  0  0  0  0  0  0  0  0  0  0
  -27.9368  -24.9698   19.3099 C   0  0  0  0  0  0  0  0  0  0  0  0
  -29.7350  -24.8357   22.2073 C   0  0  0  0  0  0  0  0  0  0  0  0
  -20.4872  -21.9391   22.7630 C   0  0  0  0  0  0  0  0  0  0  0  0
  -21.5310  -24.3492   15.8904 C   0  0  0  0  0  0  0  0  0  0  0  0
  -26.3855  -28.2504   18.6430 C   0  0  0  0  0  0  0  0  0  0  0  0
  -26.1829  -26.1352   20.6996 C   0  0  0  0  0  0  0  0  0  0  0  0
  -21.6738  -25.7632   15.3368 C   0  0  0  0  0  0  0  0  0  0  0  0
  -22.6349  -21.1910   19.9479 C   0  0  0  0  0  0  0  0  0  0  0  0
  -22.8877  -26.4425   15.9530 C   0  0  0  0  0  0  0  0  0  0  0  0
  -22.8082  -19.6778   20.0912 C   0  0  0  0  0  0  0  0  0  0  0  0
  -22.6040  -21.8754   21.3112 C   0  0  0  0  0  0  0  0  0  0  0  0
  -21.7400  -19.8338   22.3878 C   0  0  0  0  0  0  0  0  0  0  0  0
  -24.1776  -25.7036   15.5749 C   0  0  1  0  0  0  0  0  0  0  0  0
  -26.5920  -26.7775   18.3033 C   0  0  1  0  0  0  0  0  0  0  0  0
  -21.7562  -19.0812   21.0449 C   0  0  2  0  0  0  0  0  0  0  0  0
  -22.8787  -24.2813   24.3070 C   0  0  0  0  0  0  0  0  0  0  0  0
  -16.1753  -26.5434   23.5526 C   0  0  0  0  0  0  0  0  0  0  0  0
  -31.7682  -23.7652   23.2161 C   0  0  0  0  0  0  0  0  0  0  0  0
  -18.4046  -25.5212   20.4878 C   0  0  0  0  0  0  0  0  0  0  0  0
  -17.5858  -27.7609   21.1634 C   0  0  0  0  0  0  0  0  0  0  0  0
  -26.4113  -22.3422   19.5898 C   0  0  0  0  0  0  0  0  0  0  0  0
  -28.0374  -21.6685   21.3704 C   0  0  0  0  0  0  0  0  0  0  0  0
  -28.8387  -22.0863   19.0453 C   0  0  0  0  0  0  0  0  0  0  0  0
  -31.0209  -27.4580   22.6860 C   0  0  0  0  0  0  0  0  0  0  0  0
  -21.0998  -29.5261   24.1723 C   0  0  0  0  0  0  0  0  0  0  0  0
  -21.5190  -24.5975   24.9224 C   0  0  0  0  0  0  0  0  0  0  0  0
  -19.3399  -24.1206   23.0489 C   0  0  0  0  0  0  0  0  0  0  0  0
  -16.7836  -25.7298   22.4138 C   0  0  0  0  0  0  0  0  0  0  0  0
  -22.2039  -29.9845   23.2258 C   0  0  0  0  0  0  0  0  0  1  0  0
  -28.1359  -24.0426   20.4844 C   0  0  1  0  0  0  0  0  0  0  0  0
  -31.2222  -24.9771   22.4773 C   0  0  2  0  0  0  0  0  0  0  0  0
  -18.0527  -26.3862   21.7459 C   0  0  0  0  0  0  0  0  0  0  0  0
  -27.8409  -22.5590   20.1249 C   0  0  0  0  0  0  0  0  0  0  0  0
  -23.1970  -17.0852   21.1952 N   0  0  0  0  0  0  0  0  0  0  0  0
  -21.9514  -17.5883   21.2341 N   0  0  0  0  0  0  0  0  0  0  0  0
  -26.9743  -25.9770   19.4682 N   0  0  0  0  0  0  0  0  0  0  0  0
  -21.5694  -21.2733   22.1639 N   0  0  0  0  0  0  0  0  0  0  0  0
  -19.6784  -16.9844   21.5159 N   0  0  0  0  0  0  0  0  0  0  0  0
  -21.8551  -13.0433   21.8703 N   0  0  0  0  0  0  0  0  0  0  0  0
  -25.2759  -26.2484   16.3422 N   0  0  0  0  0  0  0  0  0  0  0  0
  -29.4913  -24.2820   20.9682 N   0  0  0  0  0  0  0  0  0  0  0  0
  -20.4016  -23.3021   22.5068 N   0  0  0  0  0  0  0  0  0  0  0  0
  -31.4857  -26.1892   23.3034 N   0  3  0  0  0  0  0  0  0  0  0  0
  -19.7891  -14.0382   21.8960 O   0  0  0  0  0  0  0  0  0  0  0  0
  -24.5582  -25.5880   18.4567 O   0  0  0  0  0  0  0  0  0  0  0  0
  -28.6154  -24.8109   18.2921 O   0  0  0  0  0  0  0  0  0  0  0  0
  -28.8756  -25.1784   23.0163 O   0  0  0  0  0  0  0  0  0  0  0  0
  -19.6551  -21.3605   23.4701 O   0  0  0  0  0  0  0  0  0  0  0  0
  -27.3605  -12.2768   21.4992 O   0  0  0  0  0  0  0  0  0  0  0  0
  -23.3251  -29.1083   23.3324 O   0  0  0  0  0  0  0  0  0  1  0  0
  -31.2036  -12.8549   17.5876 F   0  0  0  0  0  0  0  0  0  0  0  0
  -27.9350  -10.2074   19.7585 F   0  0  0  0  0  0  0  0  0  0  0  0
  1  2  1  0  0  0  0
  1  5  2  0  0  0  0
  2  6  2  0  0  0  0
  3  8  2  0  0  0  0
  3 17  1  0  0  0  0
  4  9  1  0  0  0  0
  4 17  2  0  0  0  0
  5 19  1  0  0  0  0
  6 21  1  0  0  0  0
  7 10  2  0  0  0  0
  7 20  1  0  0  0  0
  8 27  1  0  0  0  0
  9 27  2  0  0  0  0
 10 28  1  0  0  0  0
 11 12  2  0  0  0  0
 11 29  1  0  0  0  0
 12 30  1  0  0  0  0
 13 22  1  0  0  0  0
 13 28  2  0  0  0  0
 14 23  2  0  0  0  0
 14 24  1  0  0  0  0
 15 23  1  0  0  0  0
 15 25  2  0  0  0  0
 16 30  2  0  0  0  0
 16 31  1  0  0  0  0
 17 32  1  0  0  0  0
 18 32  1  0  0  0  0
 18 33  2  0  0  0  0
 18 34  1  0  0  0  0
 19 21  2  0  0  0  0
 19 39  1  0  0  0  0
 20 22  2  0  0  0  0
 20 40  1  0  0  0  0
 21 48  1  0  0  0  0
 22 41  1  0  0  0  0
 23 60  1  0  0  0  0
 24 26  2  0  0  0  0
 24 61  1  0  0  0  0
 25 26  1  0  0  0  0
 25 67  1  0  0  0  0
 26 62  1  0  0  0  0
 27 84  1  0  0  0  0
 28 85  1  0  0  0  0
 29 31  2  0  0  0  0
 29 84  1  0  0  0  0
 30 86  1  0  0  0  0
 31 87  1  0  0  0  0
 32 69  2  0  0  0  0
 33 70  1  0  0  0  0
 33 73  1  0  0  0  0
 34 74  1  0  0  0  0
 34 79  2  0  0  0  0
 35 49  1  0  0  0  0
 35 75  1  0  0  0  0
 35 80  2  0  0  0  0
 36 65  1  0  0  0  0
 36 71  1  0  0  0  0
 36 81  2  0  0  0  0
 37 66  1  0  0  0  0
 37 76  1  0  0  0  0
 37 82  2  0  0  0  0
 38 72  1  0  0  0  0
 38 77  1  0  0  0  0
 38 83  2  0  0  0  0
 39 42  1  0  0  0  0
 40 49  1  0  0  0  0
 41 71  1  0  0  0  0
 42 44  1  0  0  0  0
 43 45  1  0  0  0  0
 43 46  1  0  0  0  0
 44 48  1  0  0  0  0
 45 50  1  0  0  0  0
 46 72  1  0  0  0  0
 47 50  1  0  0  0  0
 47 72  1  0  0  0  0
 48 75  1  0  0  0  0
 49 71  1  0  0  0  0
 50 70  1  0  0  0  0
 51 61  1  0  0  0  0
 52 63  1  0  0  0  0
 53 66  1  0  0  0  0
 54 67  1  0  0  0  0
 55 67  1  0  0  0  0
 56 68  1  0  0  0  0
 57 68  1  0  0  0  0
 58 68  1  0  0  0  0
 59 78  1  0  0  0  0
 60 64  1  0  0  0  0
 62 77  1  0  0  0  0
 63 67  1  0  0  0  0
 64 85  1  0  0  0  0
 65 68  1  0  0  0  0
 65 76  1  0  0  0  0
 66 78  1  0  0  0  0
 69 70  1  0  0  0  0
M  CHG  1  78   1
M  ISO  4  38 100  64 101  77 100  85 101
M  END
> <Batch ID>
0104

> <Smiles>
CCc1cc(C[101CH2:1][101O:1]c2ccc3c(c2)CN(C(=O)C(NC(=O)C(C)NC)C(C)(C)C)C(C(=O)NC2CCCc4ccccc42)C3)cc(C(C)(C)CC)c1C[100NH:0][100C:0](=O)N1CCCC(n2nc(-c3ccc(Oc4ccc(F)cc4F)cc3)c(C(N)=O)c2N)C1

> <Shape>
0.196

> <Color>
0.063

> <Negative vol penalty>
0.000

$$$$

  -OEChem-04052319433D

 83 91  0     1  0  0  0  0  0999 V2000
  -27.2010  -36.5419   19.1755 C   0  0  0  0  0  0  0  0  0  0  0  0
  -27.6619  -35.2563   19.4403 C   0  0  0  0  0  0  0  0  0  0  0  0
  -26.3278  -12.3295   20.7916 C   0  0  0  0  0  0  0  0  0  0  0  0
  -24.5628  -13.9296   20.3895 C   0  0  0  0  0  0  0  0  0  0  0  0
  -26.1232  -37.0567   19.8947 C   0  0  0  0  0  0  0  0  0  0  0  0
  -27.0459  -34.4851   20.4253 C   0  0  0  0  0  0  0  0  0  0  0  0
  -26.2254  -29.7171   18.9291 C   0  0  0  0  0  0  0  0  0  0  0  0
  -25.3916  -11.4209   21.2851 C   0  0  0  0  0  0  0  0  0  0  0  0
  -23.6266  -13.0209   20.8829 C   0  0  0  0  0  0  0  0  0  0  0  0
  -27.3163  -28.8491   18.9419 C   0  0  0  0  0  0  0  0  0  0  0  0
  -23.4207   -8.5452   22.3151 C   0  0  0  0  0  0  0  0  0  0  0  0
  -23.5144   -7.2209   21.8874 C   0  0  0  0  0  0  0  0  0  0  0  0
  -26.5537  -27.9312   21.0384 C   0  0  0  0  0  0  0  0  0  0  0  0
  -23.2053   -7.9375   19.6009 C   0  0  0  0  0  0  0  0  0  0  0  0
  -28.7004  -23.7652   20.6338 C   0  0  0  0  0  0  0  0  0  0  0  0
  -25.9134  -13.5839   20.3439 C   0  0  0  0  0  0  0  0  0  0  0  0
  -27.3097  -14.6622   18.5012 C   0  0  0  0  0  0  0  0  0  0  0  0
  -25.4875  -36.2878   20.8824 C   0  0  0  0  0  0  0  0  0  0  0  0
  -25.2948  -29.7062   19.9781 C   0  0  0  0  0  0  0  0  0  0  0  0
  -25.9594  -34.9906   21.1593 C   0  0  0  0  0  0  0  0  0  0  0  0
  -25.4505  -28.7983   21.0353 C   0  0  0  0  0  0  0  0  0  0  0  0
  -27.7008  -22.8183   20.6755 C   0  0  0  0  0  0  0  0  0  0  0  0
  -27.1359  -22.7421   19.3785 C   0  0  0  0  0  0  0  0  0  0  0  0
  -24.0410  -11.7666   21.3307 C   0  0  0  0  0  0  0  0  0  0  0  0
  -27.4822  -27.9580   19.9981 C   0  0  0  0  0  0  0  0  0  0  0  0
  -23.2192   -9.5657   21.3858 C   0  0  0  0  0  0  0  0  0  0  0  0
  -23.4067   -6.9170   20.5303 C   0  0  0  0  0  0  0  0  0  0  0  0
  -23.1115   -9.2618   20.0287 C   0  0  0  0  0  0  0  0  0  0  0  0
  -26.8801  -14.5232   19.8346 C   0  0  0  0  0  0  0  0  0  0  0  0
  -27.8076  -23.6446   18.5836 C   0  0  0  0  0  0  0  0  0  0  0  0
  -28.2262  -15.6843   18.5404 C   0  0  0  0  0  0  0  0  0  0  0  0
  -26.9153  -13.9326   17.3316 C   0  0  0  0  0  0  0  0  0  0  0  0
  -24.3336  -31.8227   22.1461 C   0  0  0  0  0  0  0  0  0  0  0  0
  -22.1732  -29.5145   22.8723 C   0  0  0  0  0  0  0  0  0  0  0  0
  -21.3438  -26.2044   22.8255 C   0  0  0  0  0  0  0  0  0  0  0  0
  -29.0287  -20.3002   22.2688 C   0  0  0  0  0  0  0  0  0  0  0  0
  -24.3563  -36.9047   21.6663 C   0  0  0  0  0  0  0  0  0  0  0  0
  -24.1089  -30.6304   19.9361 C   0  0  0  0  0  0  0  0  0  0  0  0
  -24.4685  -28.7328   22.1754 C   0  0  0  0  0  0  0  0  0  0  0  0
  -23.5202  -35.8843   22.4345 C   0  0  0  0  0  0  0  0  0  0  0  0
  -31.3933  -17.7635   21.4624 C   0  0  0  0  0  0  0  0  0  0  0  0
  -24.4233  -34.9060   23.1789 C   0  0  0  0  0  0  0  0  0  0  0  0
  -30.5435  -16.6579   20.8334 C   0  0  0  0  0  0  0  0  0  0  0  0
  -30.6560  -18.4625   22.6024 C   0  0  0  0  0  0  0  0  0  0  0  0
  -28.4723  -17.8780   21.6208 C   0  0  0  0  0  0  0  0  0  0  0  0
  -25.3017  -34.1140   22.2029 C   0  0  1  0  0  0  0  0  0  0  0  0
  -23.5032  -30.8882   21.3124 C   0  0  1  0  0  0  0  0  0  0  0  0
  -29.1520  -17.1813   20.4296 C   0  0  2  0  0  0  0  0  0  0  0  0
  -27.6289  -23.9742   17.1537 C   0  0  0  0  0  0  0  0  0  0  0  0
  -26.4497  -20.8523   17.8582 C   0  0  0  0  0  0  0  0  0  0  0  0
  -24.7833  -22.6391   18.4791 C   0  0  0  0  0  0  0  0  0  0  0  0
  -19.5301  -24.6179   23.5262 C   0  0  0  0  0  0  0  0  0  0  0  0
  -23.1205  -29.7134   25.7659 C   0  0  0  0  0  0  0  0  0  0  0  0
  -22.0013  -27.5183   26.2100 C   0  0  0  0  0  0  0  0  0  0  0  0
  -20.6451  -29.4850   25.4919 C   0  0  0  0  0  0  0  0  0  0  0  0
  -20.8464  -25.3572   20.0337 C   0  0  0  0  0  0  0  0  0  0  0  0
  -27.3003  -22.0337   21.8604 C   0  0  0  0  0  0  0  0  0  0  0  0
  -29.7231  -25.3231   18.8934 C   0  0  0  0  0  0  0  0  0  0  0  0
  -29.0590  -26.6882   18.7501 C   0  0  0  0  0  0  0  0  0  1  0  0
  -26.0303  -21.8587   18.9540 C   0  0  0  0  0  0  0  0  0  0  0  0
  -22.1451  -28.3343   23.8132 C   0  0  1  0  0  0  0  0  0  0  0  0
  -20.0719  -25.4905   22.4047 C   0  0  2  0  0  0  0  0  0  0  0  0
  -21.9977  -28.7651   25.2999 C   0  0  0  0  0  0  0  0  0  0  0  0
  -27.4750  -15.3878   20.6607 N   0  0  0  0  0  0  0  0  0  0  0  0
  -28.7565  -24.2605   19.3572 N   0  0  0  0  0  0  0  0  0  0  0  0
  -28.2878  -16.0798   19.8443 N   0  0  0  0  0  0  0  0  0  0  0  0
  -23.3288  -29.6610   22.0920 N   0  0  0  0  0  0  0  0  0  0  0  0
  -29.3447  -18.9364   22.1533 N   0  0  0  0  0  0  0  0  0  0  0  0
  -28.9775  -16.2743   17.5866 N   0  0  0  0  0  0  0  0  0  0  0  0
  -25.9620  -12.9144   17.4691 N   0  0  0  0  0  0  0  0  0  0  0  0
  -24.5337  -33.0629   21.5706 N   0  0  0  0  0  0  0  0  0  0  0  0
  -21.0808  -27.4576   23.3368 N   0  0  0  0  0  0  0  0  0  0  0  0
  -27.7679  -20.6662   21.8138 N   0  0  0  0  0  0  0  0  0  0  0  0
  -20.3315  -24.6251   21.2195 N   0  3  0  0  0  0  0  0  0  0  0  0
  -27.4063  -14.1653   16.2010 O   0  0  0  0  0  0  0  0  0  0  0  0
  -24.7598  -31.4468   23.2318 O   0  0  0  0  0  0  0  0  0  0  0  0
  -21.2024  -30.2741   22.8259 O   0  0  0  0  0  0  0  0  0  0  0  0
  -22.4588  -25.6992   22.7153 O   0  0  0  0  0  0  0  0  0  0  0  0
  -29.8143  -21.1310   22.7374 O   0  0  0  0  0  0  0  0  0  0  0  0
  -23.1272  -10.8801   21.8119 O   0  0  0  0  0  0  0  0  0  0  0  0
  -28.5465  -27.1101   20.0134 O   0  0  0  0  0  0  0  0  0  1  0  0
  -23.4983   -5.6453   20.1196 F   0  0  0  0  0  0  0  0  0  0  0  0
  -22.9191  -10.2380   19.1310 F   0  0  0  0  0  0  0  0  0  0  0  0
  1  2  1  0  0  0  0
  1  5  2  0  0  0  0
  2  6  2  0  0  0  0
  3  8  2  0  0  0  0
  3 16  1  0  0  0  0
  4  9  1  0  0  0  0
  4 16  2  0  0  0  0
  5 18  1  0  0  0  0
  6 20  1  0  0  0  0
  7 10  2  0  0  0  0
  7 19  1  0  0  0  0
  8 24  1  0  0  0  0
  9 24  2  0  0  0  0
 10 25  1  0  0  0  0
 11 12  2  0  0  0  0
 11 26  1  0  0  0  0
 12 27  1  0  0  0  0
 13 21  1  0  0  0  0
 13 25  2  0  0  0  0
 14 27  2  0  0  0  0
 14 28  1  0  0  0  0
 15 22  2  0  0  0  0
 15 65  1  0  0  0  0
 16 29  1  0  0  0  0
 17 29  1  0  0  0  0
 17 31  2  0  0  0  0
 17 32  1  0  0  0  0
 18 20  2  0  0  0  0
 18 37  1  0  0  0  0
 19 21  2  0  0  0  0
 19 38  1  0  0  0  0
 20 46  1  0  0  0  0
 21 39  1  0  0  0  0
 22 23  1  0  0  0  0
 22 57  1  0  0  0  0
 23 30  2  0  0  0  0
 23 60  1  0  0  0  0
 24 80  1  0  0  0  0
 25 81  1  0  0  0  0
 26 28  2  0  0  0  0
 26 80  1  0  0  0  0
 27 82  1  0  0  0  0
 28 83  1  0  0  0  0
 29 64  2  0  0  0  0
 30 49  1  0  0  0  0
 30 65  1  0  0  0  0
 31 66  1  0  0  0  0
 31 69  1  0  0  0  0
 32 70  1  0  0  0  0
 32 75  2  0  0  0  0
 33 47  1  0  0  0  0
 33 71  1  0  0  0  0
 33 76  2  0  0  0  0
 34 61  1  0  0  0  0
 34 67  1  0  0  0  0
 34 77  2  0  0  0  0
 35 62  1  0  0  0  0
 35 72  1  0  0  0  0
 35 78  2  0  0  0  0
 36 68  1  0  0  0  0
 36 73  1  0  0  0  0
 36 79  2  0  0  0  0
 37 40  1  0  0  0  0
 38 47  1  0  0  0  0
 39 67  1  0  0  0  0
 40 42  1  0  0  0  0
 41 43  1  0  0  0  0
 41 44  1  0  0  0  0
 42 46  1  0  0  0  0
 43 48  1  0  0  0  0
 44 68  1  0  0  0  0
 45 48  1  0  0  0  0
 45 68  1  0  0  0  0
 46 71  1  0  0  0  0
 47 67  1  0  0  0  0
 48 66  1  0  0  0  0
 50 60  1  0  0  0  0
 51 60  1  0  0  0  0
 52 62  1  0  0  0  0
 53 63  1  0  0  0  0
 54 63  1  0  0  0  0
 55 63  1  0  0  0  0
 56 74  1  0  0  0  0
 57 73  1  0  0  0  0
 58 59  1  0  0  0  0
 58 65  1  0  0  0  0
 59 81  1  0  0  0  0
 61 63  1  0  0  0  0
 61 72  1  0  0  0  0
 62 74  1  0  0  0  0
 64 66  1  0  0  0  0
M  CHG  1  74   1
M  ISO  4  36 100  59 101  73 100  81 101
M  END
> <Batch ID>
0104

> <Smiles>
CNC(C)C(=O)NC(C(=O)N1Cc2cc([101O:1][101CH2:1]Cn3cc(C[100NH:0][100C:0](=O)N4CCCC(n5nc(-c6ccc(Oc7ccc(F)cc7F)cc6)c(C(N)=O)c5N)C4)c(C(C)C)c3C)ccc2CC1C(=O)NC1CCCc2ccccc21)C(C)(C)C

> <Shape>
0.271

> <Color>
0.070

> <Negative vol penalty>
0.000

$$$$

  -OEChem-04052319433D

 86 94  0     1  0  0  0  0  0999 V2000
  -25.9346  -24.3600   25.2892 C   0  0  0  0  0  0  0  0  0  0  0  0
  -26.1087  -22.9802   25.3258 C   0  0  0  0  0  0  0  0  0  0  0  0
  -23.0010   -9.8939   19.9815 C   0  0  0  0  0  0  0  0  0  0  0  0
  -23.7311   -9.9436   22.2840 C   0  0  0  0  0  0  0  0  0  0  0  0
  -26.0303  -25.1049   26.4638 C   0  0  0  0  0  0  0  0  0  0  0  0
  -26.3797  -22.3447   26.5370 C   0  0  0  0  0  0  0  0  0  0  0  0
  -23.6395  -18.1344   27.1776 C   0  0  0  0  0  0  0  0  0  0  0  0
  -22.2364   -8.7583   20.2484 C   0  0  0  0  0  0  0  0  0  0  0  0
  -22.9665   -8.8080   22.5510 C   0  0  0  0  0  0  0  0  0  0  0  0
  -24.0564  -16.9932   26.4938 C   0  0  0  0  0  0  0  0  0  0  0  0
  -23.2138   -5.4698   22.0754 C   0  0  0  0  0  0  0  0  0  0  0  0
  -23.8041   -4.4526   22.8253 C   0  0  0  0  0  0  0  0  0  0  0  0
  -25.1023  -16.1758   28.5080 C   0  0  0  0  0  0  0  0  0  0  0  0
  -22.0836   -4.6919   24.5045 C   0  0  0  0  0  0  0  0  0  0  0  0
  -30.7060  -15.0208   24.8827 C   0  0  0  0  0  0  0  0  0  0  0  0
  -29.3964  -16.3582   26.1119 C   0  0  0  0  0  0  0  0  0  0  0  0
  -23.7484  -10.4866   20.9993 C   0  0  0  0  0  0  0  0  0  0  0  0
  -24.1303  -13.0028   20.8248 C   0  0  0  0  0  0  0  0  0  0  0  0
  -26.2931  -24.4770   27.6916 C   0  0  0  0  0  0  0  0  0  0  0  0
  -23.9608  -18.3103   28.5312 C   0  0  0  0  0  0  0  0  0  0  0  0
  -26.4804  -23.0821   27.7290 C   0  0  0  0  0  0  0  0  0  0  0  0
  -24.6861  -17.3189   29.2074 C   0  0  0  0  0  0  0  0  0  0  0  0
  -30.7994  -16.2885   24.3522 C   0  0  0  0  0  0  0  0  0  0  0  0
  -29.9707  -17.1346   25.1297 C   0  0  0  0  0  0  0  0  0  0  0  0
  -22.2191   -8.2153   21.5332 C   0  0  0  0  0  0  0  0  0  0  0  0
  -24.7904  -16.0150   27.1582 C   0  0  0  0  0  0  0  0  0  0  0  0
  -22.0583   -6.0981   22.5401 C   0  0  0  0  0  0  0  0  0  0  0  0
  -23.2391   -4.0636   24.0398 C   0  0  0  0  0  0  0  0  0  0  0  0
  -21.4933   -5.7091   23.7546 C   0  0  0  0  0  0  0  0  0  0  0  0
  -24.5389  -11.6594   20.7240 C   0  0  0  0  0  0  0  0  0  0  0  0
  -25.2384  -13.7271   20.4586 C   0  0  0  0  0  0  0  0  0  0  0  0
  -22.8626  -13.5473   21.2146 C   0  0  0  0  0  0  0  0  0  0  0  0
  -25.6462  -20.4438   30.1778 C   0  0  0  0  0  0  0  0  0  0  0  0
  -24.5033  -18.7989   32.7294 C   0  0  0  0  0  0  0  0  0  0  0  0
  -23.2508  -15.8755   33.9670 C   0  0  0  0  0  0  0  0  0  0  0  0
  -30.7342  -14.6680   20.6960 C   0  0  0  0  0  0  0  0  0  0  0  0
  -26.4343  -25.3298   28.9275 C   0  0  0  0  0  0  0  0  0  0  0  0
  -23.4807  -19.5345   29.2614 C   0  0  0  0  0  0  0  0  0  0  0  0
  -25.0394  -17.4504   30.6656 C   0  0  0  0  0  0  0  0  0  0  0  0
  -26.3528  -24.5352   30.2284 C   0  0  0  0  0  0  0  0  0  0  0  0
  -29.5913  -12.2452   18.3508 C   0  0  0  0  0  0  0  0  0  0  0  0
  -27.2261  -23.2872   30.1472 C   0  0  0  0  0  0  0  0  0  0  0  0
  -28.1440  -11.9833   18.7713 C   0  0  0  0  0  0  0  0  0  0  0  0
  -30.4961  -12.4805   19.5583 C   0  0  0  0  0  0  0  0  0  0  0  0
  -28.5879  -13.2725   20.9020 C   0  0  0  0  0  0  0  0  0  0  0  0
  -26.7511  -22.3534   29.0274 C   0  0  1  0  0  0  0  0  0  0  0  0
  -24.3054  -19.8500   30.5055 C   0  0  1  0  0  0  0  0  0  0  0  0
  -27.6265  -13.0848   19.7159 C   0  0  2  0  0  0  0  0  0  0  0  0
  -30.2261  -19.4313   26.1364 C   0  0  0  0  0  0  0  0  0  0  0  0
  -28.2845  -18.9340   24.6073 C   0  0  0  0  0  0  0  0  0  0  0  0
  -22.4444  -14.8235   36.0978 C   0  0  0  0  0  0  0  0  0  0  0  0
  -26.2005  -12.4770   25.2009 C   0  0  0  0  0  0  0  0  0  0  0  0
  -27.3899  -18.5018   33.6723 C   0  0  0  0  0  0  0  0  0  0  0  0
  -26.6241  -16.6895   35.2208 C   0  0  0  0  0  0  0  0  0  0  0  0
  -25.7464  -19.0092   35.4878 C   0  0  0  0  0  0  0  0  0  0  0  0
  -20.5472  -15.4173   32.8537 C   0  0  0  0  0  0  0  0  0  0  0  0
  -31.6174  -16.6816   23.1877 C   0  0  0  0  0  0  0  0  0  0  0  0
  -28.4666  -12.9419   26.1682 C   0  0  0  0  0  0  0  0  0  0  0  0
  -29.4696  -13.9029   26.8214 C   0  0  0  0  0  0  0  0  0  0  0  0
  -30.8169  -16.8459   21.8830 C   0  0  0  0  0  0  0  0  0  0  0  0
  -26.4126  -14.2908   26.9314 C   0  0  0  0  0  0  0  0  0  1  0  0
  -29.7544  -18.5816   24.9337 C   0  0  0  0  0  0  0  0  0  0  0  0
  -24.9716  -17.6084   33.5308 C   0  0  1  0  0  0  0  0  0  0  0  0
  -22.0461  -15.5872   34.8445 C   0  0  2  0  0  0  0  0  0  0  0  0
  -27.1127  -13.5706   25.7712 C   0  0  2  0  0  0  0  0  0  0  0  0
  -26.1782  -17.9504   34.4499 C   0  0  0  0  0  0  0  0  0  0  0  0
  -25.8074  -11.5348   20.3249 N   0  0  0  0  0  0  0  0  0  0  0  0
  -29.8507  -15.0751   25.9522 N   0  0  0  0  0  0  0  0  0  0  0  0
  -26.2055  -12.8092   20.1716 N   0  0  0  0  0  0  0  0  0  0  0  0
  -24.5528  -18.6684   31.3343 N   0  0  0  0  0  0  0  0  0  0  0  0
  -29.9499  -13.5377   20.4125 N   0  0  0  0  0  0  0  0  0  0  0  0
  -25.4701  -15.0531   20.3573 N   0  0  0  0  0  0  0  0  0  0  0  0
  -21.8326  -12.6616   21.5595 N   0  0  0  0  0  0  0  0  0  0  0  0
  -25.5795  -21.6152   29.4479 N   0  0  0  0  0  0  0  0  0  0  0  0
  -23.8003  -17.1096   34.2433 N   0  0  0  0  0  0  0  0  0  0  0  0
  -30.1385  -15.6253   21.5081 N   0  0  0  0  0  0  0  0  0  0  0  0
  -21.0439  -14.7753   34.0979 N   0  3  0  0  0  0  0  0  0  0  0  0
  -22.6444  -14.7824   21.2399 O   0  0  0  0  0  0  0  0  0  0  0  0
  -26.6657  -19.8816   30.5602 O   0  0  0  0  0  0  0  0  0  0  0  0
  -24.1014  -19.8049   33.3194 O   0  0  0  0  0  0  0  0  0  0  0  0
  -23.6654  -15.0834   33.1237 O   0  0  0  0  0  0  0  0  0  0  0  0
  -31.8785  -14.8157   20.2536 O   0  0  0  0  0  0  0  0  0  0  0  0
  -21.4729   -7.1073   21.7941 O   0  0  0  0  0  0  0  0  0  0  0  0
  -25.1991  -14.9004   26.4930 O   0  0  0  0  0  0  0  0  0  1  0  0
  -23.8053   -3.0857   24.7590 F   0  0  0  0  0  0  0  0  0  0  0  0
  -20.3826   -6.3082   24.2056 F   0  0  0  0  0  0  0  0  0  0  0  0
  1  2  1  0  0  0  0
  1  5  2  0  0  0  0
  2  6  2  0  0  0  0
  3  8  2  0  0  0  0
  3 17  1  0  0  0  0
  4  9  1  0  0  0  0
  4 17  2  0  0  0  0
  5 19  1  0  0  0  0
  6 21  1  0  0  0  0
  7 10  2  0  0  0  0
  7 20  1  0  0  0  0
  8 25  1  0  0  0  0
  9 25  2  0  0  0  0
 10 26  1  0  0  0  0
 11 12  2  0  0  0  0
 11 27  1  0  0  0  0
 12 28  1  0  0  0  0
 13 22  1  0  0  0  0
 13 26  2  0  0  0  0
 14 28  2  0  0  0  0
 14 29  1  0  0  0  0
 15 23  2  0  0  0  0
 15 68  1  0  0  0  0
 16 24  2  0  0  0  0
 16 68  1  0  0  0  0
 17 30  1  0  0  0  0
 18 30  1  0  0  0  0
 18 31  2  0  0  0  0
 18 32  1  0  0  0  0
 19 21  2  0  0  0  0
 19 37  1  0  0  0  0
 20 22  2  0  0  0  0
 20 38  1  0  0  0  0
 21 46  1  0  0  0  0
 22 39  1  0  0  0  0
 23 24  1  0  0  0  0
 23 57  1  0  0  0  0
 24 62  1  0  0  0  0
 25 83  1  0  0  0  0
 26 84  1  0  0  0  0
 27 29  2  0  0  0  0
 27 83  1  0  0  0  0
 28 85  1  0  0  0  0
 29 86  1  0  0  0  0
 30 67  2  0  0  0  0
 31 69  1  0  0  0  0
 31 72  1  0  0  0  0
 32 73  1  0  0  0  0
 32 78  2  0  0  0  0
 33 47  1  0  0  0  0
 33 74  1  0  0  0  0
 33 79  2  0  0  0  0
 34 63  1  0  0  0  0
 34 70  1  0  0  0  0
 34 80  2  0  0  0  0
 35 64  1  0  0  0  0
 35 75  1  0  0  0  0
 35 81  2  0  0  0  0
 36 71  1  0  0  0  0
 36 76  1  0  0  0  0
 36 82  2  0  0  0  0
 37 40  1  0  0  0  0
 38 47  1  0  0  0  0
 39 70  1  0  0  0  0
 40 42  1  0  0  0  0
 41 43  1  0  0  0  0
 41 44  1  0  0  0  0
 42 46  1  0  0  0  0
 43 48  1  0  0  0  0
 44 71  1  0  0  0  0
 45 48  1  0  0  0  0
 45 71  1  0  0  0  0
 46 74  1  0  0  0  0
 47 70  1  0  0  0  0
 48 69  1  0  0  0  0
 49 62  1  0  0  0  0
 50 62  1  0  0  0  0
 51 64  1  0  0  0  0
 52 65  1  0  0  0  0
 53 66  1  0  0  0  0
 54 66  1  0  0  0  0
 55 66  1  0  0  0  0
 56 77  1  0  0  0  0
 57 60  1  0  0  0  0
 58 59  1  0  0  0  0
 58 65  1  0  0  0  0
 59 68  1  0  0  0  0
 60 76  1  0  0  0  0
 61 65  1  0  0  0  0
 61 84  1  0  0  0  0
 63 66  1  0  0  0  0
 63 75  1  0  0  0  0
 64 77  1  0  0  0  0
 67 69  1  0  0  0  0
M  CHG  1  77   1
M  ISO  4  36 100  61 101  76 100  84 101
M  END
> <Batch ID>
0104

> <Smiles>
CNC(C)C(=O)NC(C(=O)N1Cc2cc([101O:1][101CH2:1]C(C)CCn3cc(CC[100NH:0][100C:0](=O)N4CCCC(n5nc(-c6ccc(Oc7ccc(F)cc7F)cc6)c(C(N)=O)c5N)C4)c(C(C)C)c3)ccc2CC1C(=O)NC1CCCc2ccccc21)C(C)(C)C

> <Shape>
0.167

> <Color>
0.197

> <Negative vol penalty>
0.000

$$$$

  -OEChem-04052319433D

 83 91  0     1  0  0  0  0  0999 V2000
  -28.3156  -24.2467   17.6256 C   0  0  0  0  0  0  0  0  0  0  0  0
  -27.0735  -24.5674   18.1639 C   0  0  0  0  0  0  0  0  0  0  0  0
  -27.7926  -14.8258   21.4514 C   0  0  0  0  0  0  0  0  0  0  0  0
  -26.1528  -15.2892   19.7387 C   0  0  0  0  0  0  0  0  0  0  0  0
  -29.4799  -24.7040   18.2413 C   0  0  0  0  0  0  0  0  0  0  0  0
  -26.9950  -25.3447   19.3189 C   0  0  0  0  0  0  0  0  0  0  0  0
  -23.4748  -28.9698   18.9857 C   0  0  0  0  0  0  0  0  0  0  0  0
  -27.3851  -13.4921   21.4807 C   0  0  0  0  0  0  0  0  0  0  0  0
  -25.7453  -13.9555   19.7679 C   0  0  0  0  0  0  0  0  0  0  0  0
  -22.1464  -28.5856   19.1628 C   0  0  0  0  0  0  0  0  0  0  0  0
  -23.8107  -11.9838   21.7174 C   0  0  0  0  0  0  0  0  0  0  0  0
  -22.4401  -11.7251   21.7293 C   0  0  0  0  0  0  0  0  0  0  0  0
  -18.3473  -25.4562   19.8635 C   0  0  0  0  0  0  0  0  0  0  0  0
  -22.2245  -29.3852   21.4373 C   0  0  0  0  0  0  0  0  0  0  0  0
  -20.0275  -24.9463   21.5071 C   0  0  0  0  0  0  0  0  0  0  0  0
  -22.6543  -10.4955   19.6606 C   0  0  0  0  0  0  0  0  0  0  0  0
  -18.7158  -24.2942   19.2049 C   0  0  0  0  0  0  0  0  0  0  0  0
  -27.1764  -15.7244   20.5804 C   0  0  0  0  0  0  0  0  0  0  0  0
  -28.6007  -17.6673   19.7413 C   0  0  0  0  0  0  0  0  0  0  0  0
  -29.4154  -25.4954   19.3990 C   0  0  0  0  0  0  0  0  0  0  0  0
  -24.1926  -29.5557   20.0383 C   0  0  0  0  0  0  0  0  0  0  0  0
  -28.1597  -25.8118   19.9515 C   0  0  0  0  0  0  0  0  0  0  0  0
  -23.5612  -29.7784   21.2703 C   0  0  0  0  0  0  0  0  0  0  0  0
  -19.0205  -25.7813   21.0358 C   0  0  0  0  0  0  0  0  0  0  0  0
  -26.3615  -13.0570   20.6390 C   0  0  0  0  0  0  0  0  0  0  0  0
  -21.5219  -28.7906   20.3896 C   0  0  0  0  0  0  0  0  0  0  0  0
  -24.6031  -11.4985   20.6771 C   0  0  0  0  0  0  0  0  0  0  0  0
  -21.8619  -10.9809   20.7009 C   0  0  0  0  0  0  0  0  0  0  0  0
  -24.0249  -10.7543   19.6487 C   0  0  0  0  0  0  0  0  0  0  0  0
  -27.5965  -17.1023   20.5501 C   0  0  0  0  0  0  0  0  0  0  0  0
  -20.3207  -23.8070   20.7751 C   0  0  0  0  0  0  0  0  0  0  0  0
  -28.6133  -18.9963   20.0876 C   0  0  0  0  0  0  0  0  0  0  0  0
  -29.4465  -17.0462   18.7642 C   0  0  0  0  0  0  0  0  0  0  0  0
  -26.7915  -28.7705   21.6914 C   0  0  0  0  0  0  0  0  0  0  0  0
  -26.3742  -31.7104   22.9973 C   0  0  0  0  0  0  0  0  0  0  0  0
  -24.2496  -34.2760   23.7390 C   0  0  0  0  0  0  0  0  0  0  0  0
  -24.4765  -22.6404   22.4242 C   0  0  0  0  0  0  0  0  0  0  0  0
  -30.7026  -25.9269   20.0560 C   0  0  0  0  0  0  0  0  0  0  0  0
  -25.6168  -29.9890   19.8229 C   0  0  0  0  0  0  0  0  0  0  0  0
  -24.2816  -30.4220   22.4257 C   0  0  0  0  0  0  0  0  0  0  0  0
  -30.5222  -27.0587   21.0644 C   0  0  0  0  0  0  0  0  0  0  0  0
  -27.6946  -21.9164   23.7646 C   0  0  0  0  0  0  0  0  0  0  0  0
  -29.3402  -26.7704   21.9845 C   0  0  0  0  0  0  0  0  0  0  0  0
  -28.1250  -20.6515   23.0198 C   0  0  0  0  0  0  0  0  0  0  0  0
  -26.1954  -21.9178   24.0551 C   0  0  0  0  0  0  0  0  0  0  0  0
  -25.7663  -20.4387   22.1310 C   0  0  0  0  0  0  0  0  0  0  0  0
  -28.0327  -26.6734   21.1891 C   0  0  1  0  0  0  0  0  0  0  0  0
  -26.4083  -30.1071   21.1218 C   0  0  1  0  0  0  0  0  0  0  0  0
  -27.2605  -20.4174   21.7663 C   0  0  2  0  0  0  0  0  0  0  0  0
  -18.1307  -26.7125   23.1975 C   0  0  0  0  0  0  0  0  0  0  0  0
  -24.1912  -36.5288   24.8432 C   0  0  0  0  0  0  0  0  0  0  0  0
  -22.8222  -23.1662   19.1750 C   0  0  0  0  0  0  0  0  0  0  0  0
  -26.4518  -30.3673   25.7360 C   0  0  0  0  0  0  0  0  0  0  0  0
  -25.4595  -32.4502   26.7082 C   0  0  0  0  0  0  0  0  0  0  0  0
  -27.6933  -32.5341   25.6011 C   0  0  0  0  0  0  0  0  0  0  0  0
  -23.4114  -35.6109   21.2341 C   0  0  0  0  0  0  0  0  0  0  0  0
  -21.3956  -22.8880   21.2512 C   0  0  0  0  0  0  0  0  0  0  0  0
  -19.8348  -28.0258   21.8812 C   0  0  0  0  0  0  0  0  0  1  0  0
  -18.6567  -27.0456   21.7985 C   0  0  1  0  0  0  0  0  0  0  0  0
  -25.6177  -32.2552   24.1847 C   0  0  1  0  0  0  0  0  0  0  0  0
  -24.3707  -35.7754   23.5344 C   0  0  2  0  0  0  0  0  0  0  0  0
  -22.7949  -23.2351   20.6986 C   0  0  1  0  0  0  0  0  0  0  0  0
  -26.2923  -31.8878   25.5365 C   0  0  0  0  0  0  0  0  0  0  0  0
  -19.6886  -23.4582   19.6320 N   0  0  0  0  0  0  0  0  0  0  0  0
  -27.0135  -17.9990   21.3501 N   0  0  0  0  0  0  0  0  0  0  0  0
  -27.6535  -19.1409   21.0458 N   0  0  0  0  0  0  0  0  0  0  0  0
  -25.6746  -30.8225   22.1677 N   0  0  0  0  0  0  0  0  0  0  0  0
  -25.4325  -21.6924   22.8250 N   0  0  0  0  0  0  0  0  0  0  0  0
  -29.3517  -20.0437   19.6631 N   0  0  0  0  0  0  0  0  0  0  0  0
  -29.3016  -15.6717   18.5320 N   0  0  0  0  0  0  0  0  0  0  0  0
  -27.5543  -27.9939   20.8402 N   0  0  0  0  0  0  0  0  0  0  0  0
  -25.4782  -33.6894   23.9568 N   0  0  0  0  0  0  0  0  0  0  0  0
  -23.8027  -22.3529   21.2435 N   0  0  0  0  0  0  0  0  0  0  0  0
  -23.3373  -36.2520   22.5722 N   0  3  0  0  0  0  0  0  0  0  0  0
  -30.3165  -17.6880   18.1280 O   0  0  0  0  0  0  0  0  0  0  0  0
  -26.4237  -28.4669   22.8202 O   0  0  0  0  0  0  0  0  0  0  0  0
  -27.5404  -32.0652   22.8087 O   0  0  0  0  0  0  0  0  0  0  0  0
  -23.1723  -33.6850   23.7123 O   0  0  0  0  0  0  0  0  0  0  0  0
  -24.2448  -23.6694   23.0678 O   0  0  0  0  0  0  0  0  0  0  0  0
  -25.9638  -11.7556   20.6671 O   0  0  0  0  0  0  0  0  0  0  0  0
  -20.2255  -28.4158   20.5653 O   0  0  0  0  0  0  0  0  0  1  0  0
  -20.5460  -10.7311   20.7133 F   0  0  0  0  0  0  0  0  0  0  0  0
  -24.7812  -10.2844   18.6473 F   0  0  0  0  0  0  0  0  0  0  0  0
  1  2  1  0  0  0  0
  1  5  2  0  0  0  0
  2  6  2  0  0  0  0
  3  8  2  0  0  0  0
  3 18  1  0  0  0  0
  4  9  1  0  0  0  0
  4 18  2  0  0  0  0
  5 20  1  0  0  0  0
  6 22  1  0  0  0  0
  7 10  2  0  0  0  0
  7 21  1  0  0  0  0
  8 25  1  0  0  0  0
  9 25  2  0  0  0  0
 10 26  1  0  0  0  0
 11 12  2  0  0  0  0
 11 27  1  0  0  0  0
 12 28  1  0  0  0  0
 13 17  2  0  0  0  0
 13 24  1  0  0  0  0
 14 23  1  0  0  0  0
 14 26  2  0  0  0  0
 15 24  2  0  0  0  0
 15 31  1  0  0  0  0
 16 28  2  0  0  0  0
 16 29  1  0  0  0  0
 17 64  1  0  0  0  0
 18 30  1  0  0  0  0
 19 30  1  0  0  0  0
 19 32  2  0  0  0  0
 19 33  1  0  0  0  0
 20 22  2  0  0  0  0
 20 38  1  0  0  0  0
 21 23  2  0  0  0  0
 21 39  1  0  0  0  0
 22 47  1  0  0  0  0
 23 40  1  0  0  0  0
 24 59  1  0  0  0  0
 25 80  1  0  0  0  0
 26 81  1  0  0  0  0
 27 29  2  0  0  0  0
 27 80  1  0  0  0  0
 28 82  1  0  0  0  0
 29 83  1  0  0  0  0
 30 65  2  0  0  0  0
 31 57  1  0  0  0  0
 31 64  2  0  0  0  0
 32 66  1  0  0  0  0
 32 69  1  0  0  0  0
 33 70  1  0  0  0  0
 33 75  2  0  0  0  0
 34 48  1  0  0  0  0
 34 71  1  0  0  0  0
 34 76  2  0  0  0  0
 35 60  1  0  0  0  0
 35 67  1  0  0  0  0
 35 77  2  0  0  0  0
 36 61  1  0  0  0  0
 36 72  1  0  0  0  0
 36 78  2  0  0  0  0
 37 68  1  0  0  0  0
 37 73  1  0  0  0  0
 37 79  2  0  0  0  0
 38 41  1  0  0  0  0
 39 48  1  0  0  0  0
 40 67  1  0  0  0  0
 41 43  1  0  0  0  0
 42 44  1  0  0  0  0
 42 45  1  0  0  0  0
 43 47  1  0  0  0  0
 44 49  1  0  0  0  0
 45 68  1  0  0  0  0
 46 49  1  0  0  0  0
 46 68  1  0  0  0  0
 47 71  1  0  0  0  0
 48 67  1  0  0  0  0
 49 66  1  0  0  0  0
 50 59  1  0  0  0  0
 51 61  1  0  0  0  0
 52 62  1  0  0  0  0
 53 63  1  0  0  0  0
 54 63  1  0  0  0  0
 55 63  1  0  0  0  0
 56 74  1  0  0  0  0
 57 62  1  0  0  0  0
 58 59  1  0  0  0  0
 58 81  1  0  0  0  0
 60 63  1  0  0  0  0
 60 72  1  0  0  0  0
 61 74  1  0  0  0  0
 62 73  1  0  0  0  0
 65 66  1  0  0  0  0
M  CHG  1  74   1
M  ISO  4  37 100  58 101  73 100  81 101
M  END
> <Batch ID>
0104

> <Smiles>
CNC(C)C(=O)NC(C(=O)N1Cc2cc([101O:1][101CH2:1]C(C)c3ccnc(CC(C)[100NH:0][100C:0](=O)N4CCCC(n5nc(-c6ccc(Oc7ccc(F)cc7F)cc6)c(C(N)=O)c5N)C4)c3)ccc2CC1C(=O)NC1CCCc2ccccc21)C(C)(C)C

> <Shape>
0.318

> <Color>
0.085

> <Negative vol penalty>
0.000

$$$$

  -OEChem-04052319433D

 83 90  0     1  0  0  0  0  0999 V2000
  -17.5151  -29.3829   24.8622 C   0  0  0  0  0  0  0  0  0  0  0  0
  -18.4149  -28.6959   25.6708 C   0  0  0  0  0  0  0  0  0  0  0  0
  -24.8766  -13.5169   21.7209 C   0  0  0  0  0  0  0  0  0  0  0  0
  -25.7895  -13.6184   19.4864 C   0  0  0  0  0  0  0  0  0  0  0  0
  -17.5626  -29.2248   23.4777 C   0  0  0  0  0  0  0  0  0  0  0  0
  -19.3620  -27.8496   25.0955 C   0  0  0  0  0  0  0  0  0  0  0  0
  -26.0604  -25.4974   26.0522 C   0  0  0  0  0  0  0  0  0  0  0  0
  -24.0685  -12.4450   21.3422 C   0  0  0  0  0  0  0  0  0  0  0  0
  -24.9814  -12.5464   19.1076 C   0  0  0  0  0  0  0  0  0  0  0  0
  -26.7829  -24.3078   26.1339 C   0  0  0  0  0  0  0  0  0  0  0  0
  -24.4141   -9.1179   20.8478 C   0  0  0  0  0  0  0  0  0  0  0  0
  -24.3410   -8.0246   21.7109 C   0  0  0  0  0  0  0  0  0  0  0  0
  -26.8227  -24.1736   23.7257 C   0  0  0  0  0  0  0  0  0  0  0  0
  -21.9569   -8.3527   21.9246 C   0  0  0  0  0  0  0  0  0  0  0  0
  -25.7370  -14.1037   20.7930 C   0  0  0  0  0  0  0  0  0  0  0  0
  -27.8746  -15.1490   21.7128 C   0  0  0  0  0  0  0  0  0  0  0  0
  -18.5171  -28.3835   22.8845 C   0  0  0  0  0  0  0  0  0  0  0  0
  -25.7037  -26.0292   24.8046 C   0  0  0  0  0  0  0  0  0  0  0  0
  -19.4215  -27.6790   23.7019 C   0  0  0  0  0  0  0  0  0  0  0  0
  -26.0980  -25.3714   23.6308 C   0  0  0  0  0  0  0  0  0  0  0  0
  -24.1209  -11.9597   20.0355 C   0  0  0  0  0  0  0  0  0  0  0  0
  -27.1616  -23.6442   24.9707 C   0  0  0  0  0  0  0  0  0  0  0  0
  -23.2586   -9.8287   20.5232 C   0  0  0  0  0  0  0  0  0  0  0  0
  -23.1124   -7.6420   22.2493 C   0  0  0  0  0  0  0  0  0  0  0  0
  -22.0301   -9.4461   21.0616 C   0  0  0  0  0  0  0  0  0  0  0  0
  -26.5716  -15.2115   21.1835 C   0  0  0  0  0  0  0  0  0  0  0  0
  -28.2263  -16.4612   21.9151 C   0  0  0  0  0  0  0  0  0  0  0  0
  -28.6938  -14.0069   21.9960 C   0  0  0  0  0  0  0  0  0  0  0  0
  -22.9550  -26.6617   23.3389 C   0  0  0  0  0  0  0  0  0  0  0  0
  -32.0633  -21.3570   20.5336 C   0  0  0  0  0  0  0  0  0  0  0  0
  -24.9001  -27.9785   21.1016 C   0  0  0  0  0  0  0  0  0  0  0  0
  -27.9920  -28.1030   19.6623 C   0  0  0  0  0  0  0  0  0  0  0  0
  -28.4485  -21.7625   20.1854 C   0  0  0  0  0  0  0  0  0  0  0  0
  -18.4991  -28.2080   21.3867 C   0  0  0  0  0  0  0  0  0  0  0  0
  -24.9473  -27.3274   24.7330 C   0  0  0  0  0  0  0  0  0  0  0  0
  -25.7574  -25.9113   22.2666 C   0  0  0  0  0  0  0  0  0  0  0  0
  -19.7758  -27.5819   20.8314 C   0  0  0  0  0  0  0  0  0  0  0  0
  -25.4396  -20.6795   21.7509 C   0  0  0  0  0  0  0  0  0  0  0  0
  -20.1817  -26.3698   21.6638 C   0  0  0  0  0  0  0  0  0  0  0  0
  -25.5708  -19.1557   21.7807 C   0  0  0  0  0  0  0  0  0  0  0  0
  -26.0378  -21.2726   20.4772 C   0  0  0  0  0  0  0  0  0  0  0  0
  -27.5630  -19.3521   20.2344 C   0  0  0  0  0  0  0  0  0  0  0  0
  -20.4795  -26.7710   23.1136 C   0  0  1  0  0  0  0  0  0  0  0  0
  -24.1939  -27.5082   23.4189 C   0  0  1  0  0  0  0  0  0  0  0  0
  -27.0241  -18.7129   21.5256 C   0  0  2  0  0  0  0  0  0  0  0  0
  -32.8757  -20.5659   25.1839 C   0  0  0  0  0  0  0  0  0  0  0  0
  -31.1980  -22.4307   18.4521 C   0  0  0  0  0  0  0  0  0  0  0  0
  -29.2674  -29.2499   17.8305 C   0  0  0  0  0  0  0  0  0  0  0  0
  -23.4967  -26.2292   19.0327 C   0  0  0  0  0  0  0  0  0  0  0  0
  -25.3898  -26.6908   17.4606 C   0  0  0  0  0  0  0  0  0  0  0  0
  -23.9636  -28.5673   18.2777 C   0  0  0  0  0  0  0  0  0  0  0  0
  -29.9197  -29.2735   21.5789 C   0  0  0  0  0  0  0  0  0  0  0  0
  -32.6663  -22.0025   21.7722 C   0  0  0  0  0  0  0  0  0  0  0  0
  -32.0568  -20.0011   24.0310 C   0  0  0  0  0  0  0  0  0  0  0  0
  -31.6510  -22.2519   22.8901 C   0  0  0  0  0  0  0  0  0  0  0  0
  -28.7626  -22.1956   23.9735 C   0  0  0  0  0  0  0  0  0  1  0  0
  -30.8916  -22.0924   19.8999 C   0  0  1  0  0  0  0  0  0  0  0  0
  -25.6009  -27.4734   19.8635 C   0  0  1  0  0  0  0  0  0  0  0  0
  -28.8896  -29.2735   19.3034 C   0  0  2  0  0  0  0  0  0  0  0  0
  -30.9947  -20.9749   23.4768 C   0  0  2  0  0  0  0  0  0  0  0  0
  -29.9079  -21.3474   24.5088 C   0  0  2  0  0  0  0  0  0  0  0  0
  -24.6176  -27.2287   18.6842 C   0  0  0  0  0  0  0  0  0  0  0  0
  -26.1257  -16.4642   21.0577 N   0  0  0  0  0  0  0  0  0  0  0  0
  -27.1542  -17.2010   21.5109 N   0  0  0  0  0  0  0  0  0  0  0  0
  -25.0113  -27.1803   22.2490 N   0  0  0  0  0  0  0  0  0  0  0  0
  -27.4173  -20.8149   20.2947 N   0  0  0  0  0  0  0  0  0  0  0  0
  -29.3449  -17.0427   22.3977 N   0  0  0  0  0  0  0  0  0  0  0  0
  -28.1779  -12.7316   21.7282 N   0  0  0  0  0  0  0  0  0  0  0  0
  -21.7857  -27.3867   23.2096 N   0  0  0  0  0  0  0  0  0  0  0  0
  -26.6571  -28.4363   19.5709 N   0  0  0  0  0  0  0  0  0  0  0  0
  -29.7270  -21.2439   20.0208 N   0  0  0  0  0  0  0  0  0  0  0  0
  -30.1417  -29.2326   20.1105 N   0  3  0  0  0  0  0  0  0  0  0  0
  -29.8428  -14.1134   22.4879 O   0  0  0  0  0  0  0  0  0  0  0  0
  -23.0529  -25.4413   23.3892 O   0  0  0  0  0  0  0  0  0  0  0  0
  -32.4973  -20.3024   20.0695 O   0  0  0  0  0  0  0  0  0  0  0  0
  -24.2830  -29.0455   21.0544 O   0  0  0  0  0  0  0  0  0  0  0  0
  -28.4311  -27.0021   19.9874 O   0  0  0  0  0  0  0  0  0  0  0  0
  -28.2454  -22.9803   20.2365 O   0  0  0  0  0  0  0  0  0  0  0  0
  -23.3327  -10.9135   19.6656 O   0  0  0  0  0  0  0  0  0  0  0  0
  -27.8707  -22.4753   25.0481 O   0  0  0  0  0  0  0  0  0  1  0  0
  -23.0422   -6.5911   23.0768 F   0  0  0  0  0  0  0  0  0  0  0  0
  -20.9164  -10.1244   20.7525 F   0  0  0  0  0  0  0  0  0  0  0  0
  -29.3664  -20.1805   24.9786 F   0  0  0  0  0  0  0  0  0  0  0  0
  1  2  1  0  0  0  0
  1  5  2  0  0  0  0
  2  6  2  0  0  0  0
  3  8  2  0  0  0  0
  3 15  1  0  0  0  0
  4  9  1  0  0  0  0
  4 15  2  0  0  0  0
  5 17  1  0  0  0  0
  6 19  1  0  0  0  0
  7 10  2  0  0  0  0
  7 18  1  0  0  0  0
  8 21  1  0  0  0  0
  9 21  2  0  0  0  0
 10 22  1  0  0  0  0
 11 12  2  0  0  0  0
 11 23  1  0  0  0  0
 12 24  1  0  0  0  0
 13 20  1  0  0  0  0
 13 22  2  0  0  0  0
 14 24  2  0  0  0  0
 14 25  1  0  0  0  0
 15 26  1  0  0  0  0
 16 26  1  0  0  0  0
 16 27  2  0  0  0  0
 16 28  1  0  0  0  0
 17 19  2  0  0  0  0
 17 34  1  0  0  0  0
 18 20  2  0  0  0  0
 18 35  1  0  0  0  0
 19 43  1  0  0  0  0
 20 36  1  0  0  0  0
 21 79  1  0  0  0  0
 22 80  1  0  0  0  0
 23 25  2  0  0  0  0
 23 79  1  0  0  0  0
 24 81  1  0  0  0  0
 25 82  1  0  0  0  0
 26 63  2  0  0  0  0
 27 64  1  0  0  0  0
 27 67  1  0  0  0  0
 28 68  1  0  0  0  0
 28 73  2  0  0  0  0
 29 44  1  0  0  0  0
 29 69  1  0  0  0  0
 29 74  2  0  0  0  0
 30 53  1  0  0  0  0
 30 57  1  0  0  0  0
 30 75  2  0  0  0  0
 31 58  1  0  0  0  0
 31 65  1  0  0  0  0
 31 76  2  0  0  0  0
 32 59  1  0  0  0  0
 32 70  1  0  0  0  0
 32 77  2  0  0  0  0
 33 66  1  0  0  0  0
 33 71  1  0  0  0  0
 33 78  2  0  0  0  0
 34 37  1  0  0  0  0
 35 44  1  0  0  0  0
 36 65  1  0  0  0  0
 37 39  1  0  0  0  0
 38 40  1  0  0  0  0
 38 41  1  0  0  0  0
 39 43  1  0  0  0  0
 40 45  1  0  0  0  0
 41 66  1  0  0  0  0
 42 45  1  0  0  0  0
 42 66  1  0  0  0  0
 43 69  1  0  0  0  0
 44 65  1  0  0  0  0
 45 64  1  0  0  0  0
 46 54  1  0  0  0  0
 47 57  1  0  0  0  0
 48 59  1  0  0  0  0
 49 62  1  0  0  0  0
 50 62  1  0  0  0  0
 51 62  1  0  0  0  0
 52 72  1  0  0  0  0
 53 55  1  0  0  0  0
 54 60  1  0  0  0  0
 55 60  1  0  0  0  0
 56 61  1  0  0  0  0
 56 80  1  0  0  0  0
 57 71  1  0  0  0  0
 58 62  1  0  0  0  0
 58 70  1  0  0  0  0
 59 72  1  0  0  0  0
 60 61  1  0  0  0  0
 61 83  1  0  0  0  0
 63 64  1  0  0  0  0
M  CHG  1  72   1
M  ISO  4  33 100  56 101  71 100  80 101
M  END
> <Batch ID>
0104

> <Smiles>
CCC(CCC(=O)C(C)[100NH:0][100C:0](=O)N1CCCC(n2nc(-c3ccc(Oc4ccc(F)cc4F)cc3)c(C(N)=O)c2N)C1)C(F)[101CH2:1][101O:1]c1ccc2c(c1)CN(C(=O)C(NC(=O)C(C)NC)C(C)(C)C)C(C(=O)NC1CCCc3ccccc31)C2

> <Shape>
0.225

> <Color>
0.070

> <Negative vol penalty>
0.000

$$$$

  -OEChem-04052319433D

 85 93  0     1  0  0  0  0  0999 V2000
  -28.2981  -36.3334   17.3085 C   0  0  0  0  0  0  0  0  0  0  0  0
  -28.6417  -35.0099   17.5650 C   0  0  0  0  0  0  0  0  0  0  0  0
  -24.4740   -9.2540   21.4973 C   0  0  0  0  0  0  0  0  0  0  0  0
  -22.6108  -10.2502   20.3254 C   0  0  0  0  0  0  0  0  0  0  0  0
  -27.4274  -37.0050   18.1656 C   0  0  0  0  0  0  0  0  0  0  0  0
  -28.1154  -34.3576   18.6795 C   0  0  0  0  0  0  0  0  0  0  0  0
  -26.5956  -28.4402   19.1047 C   0  0  0  0  0  0  0  0  0  0  0  0
  -23.7290   -8.0912   21.6934 C   0  0  0  0  0  0  0  0  0  0  0  0
  -21.8658   -9.0874   20.5214 C   0  0  0  0  0  0  0  0  0  0  0  0
  -27.2629  -27.3360   19.6331 C   0  0  0  0  0  0  0  0  0  0  0  0
  -21.2780   -7.0229   23.7612 C   0  0  0  0  0  0  0  0  0  0  0  0
  -21.3025   -6.4446   25.0303 C   0  0  0  0  0  0  0  0  0  0  0  0
  -24.2884  -23.4787   23.8367 C   0  0  0  0  0  0  0  0  0  0  0  0
  -23.0179  -23.0627   23.3679 C   0  0  0  0  0  0  0  0  0  0  0  0
  -26.0579  -27.6070   21.7052 C   0  0  0  0  0  0  0  0  0  0  0  0
  -22.2151   -4.4157   24.0882 C   0  0  0  0  0  0  0  0  0  0  0  0
  -23.9149  -10.3336   20.8134 C   0  0  0  0  0  0  0  0  0  0  0  0
  -25.5265  -11.8321   19.5232 C   0  0  0  0  0  0  0  0  0  0  0  0
  -26.8826  -36.3577   19.2858 C   0  0  0  0  0  0  0  0  0  0  0  0
  -25.6608  -29.1439   19.8777 C   0  0  0  0  0  0  0  0  0  0  0  0
  -27.2376  -35.0216   19.5531 C   0  0  0  0  0  0  0  0  0  0  0  0
  -25.3782  -28.7182   21.1834 C   0  0  0  0  0  0  0  0  0  0  0  0
  -22.4249   -8.0079   21.2054 C   0  0  0  0  0  0  0  0  0  0  0  0
  -26.9962  -26.9210   20.9345 C   0  0  0  0  0  0  0  0  0  0  0  0
  -21.7220   -6.2975   22.6556 C   0  0  0  0  0  0  0  0  0  0  0  0
  -21.7711   -5.1411   25.1938 C   0  0  0  0  0  0  0  0  0  0  0  0
  -22.1906   -4.9939   22.8191 C   0  0  0  0  0  0  0  0  0  0  0  0
  -24.6838  -11.5352   20.6111 C   0  0  0  0  0  0  0  0  0  0  0  0
  -25.2335  -22.6903   23.2182 C   0  0  0  0  0  0  0  0  0  0  0  0
  -23.2252  -22.0326   22.4773 C   0  0  0  0  0  0  0  0  0  0  0  0
  -26.0192  -13.0835   19.8020 C   0  0  0  0  0  0  0  0  0  0  0  0
  -25.8363  -11.0469   18.3642 C   0  0  0  0  0  0  0  0  0  0  0  0
  -25.4395  -32.1210   20.9694 C   0  0  0  0  0  0  0  0  0  0  0  0
  -22.5097  -31.1300   21.9474 C   0  0  0  0  0  0  0  0  0  0  0  0
  -20.4723  -28.5369   22.8258 C   0  0  0  0  0  0  0  0  0  0  0  0
  -25.0260  -18.2905   21.3338 C   0  0  0  0  0  0  0  0  0  0  0  0
  -25.9827  -37.1395   20.2097 C   0  0  0  0  0  0  0  0  0  0  0  0
  -24.9299  -30.3167   19.2838 C   0  0  0  0  0  0  0  0  0  0  0  0
  -24.3686  -29.4271   22.0476 C   0  0  0  0  0  0  0  0  0  0  0  0
  -25.1747  -36.2604   21.1608 C   0  0  0  0  0  0  0  0  0  0  0  0
  -25.8179  -15.8561   24.0042 C   0  0  0  0  0  0  0  0  0  0  0  0
  -26.0689  -35.2026   21.7997 C   0  0  0  0  0  0  0  0  0  0  0  0
  -25.5987  -14.5367   23.2708 C   0  0  0  0  0  0  0  0  0  0  0  0
  -24.8694  -16.9499   23.5155 C   0  0  0  0  0  0  0  0  0  0  0  0
  -24.6990  -15.8377   21.3043 C   0  0  0  0  0  0  0  0  0  0  0  0
  -26.6680  -34.2723   20.7381 C   0  0  1  0  0  0  0  0  0  0  0  0
  -24.3744  -31.2702   20.3373 C   0  0  1  0  0  0  0  0  0  0  0  0
  -25.6798  -14.7432   21.7510 C   0  0  2  0  0  0  0  0  0  0  0  0
  -18.1418  -28.0425   23.6144 C   0  0  0  0  0  0  0  0  0  0  0  0
  -20.7316  -21.7721   18.1224 C   0  0  0  0  0  0  0  0  0  0  0  0
  -21.4341  -19.6292   19.2064 C   0  0  0  0  0  0  0  0  0  0  0  0
  -23.2517  -32.1029   24.7426 C   0  0  0  0  0  0  0  0  0  0  0  0
  -21.3433  -30.7553   25.6425 C   0  0  0  0  0  0  0  0  0  0  0  0
  -20.9065  -32.6215   24.0459 C   0  0  0  0  0  0  0  0  0  0  0  0
  -19.8865  -26.8959   20.4336 C   0  0  0  0  0  0  0  0  0  0  0  0
  -26.7357  -22.7012   23.3481 C   0  0  0  0  0  0  0  0  0  0  0  0
  -22.2481  -21.2413   21.7014 C   0  0  0  0  0  0  0  0  0  0  0  0
  -27.4334  -23.6297   22.3518 C   0  0  0  0  0  0  0  0  0  0  0  0
  -21.9435  -21.8667   20.3214 C   0  0  0  0  0  0  0  0  0  0  0  0
  -26.9495  -25.0730   22.4307 C   0  0  0  0  0  0  0  0  0  1  0  0
  -25.2350  -20.7738   21.5310 C   0  0  0  0  0  0  0  0  0  0  0  0
  -21.9613  -30.4860   23.1978 C   0  0  1  0  0  0  0  0  0  0  0  0
  -19.0569  -28.1817   22.4077 C   0  0  2  0  0  0  0  0  0  0  0  0
  -20.9555  -21.0597   19.4586 C   0  0  0  0  0  0  0  0  0  0  0  0
  -21.8862  -31.4790   24.3918 C   0  0  0  0  0  0  0  0  0  0  0  0
  -24.6412  -12.5187   21.5138 N   0  0  0  0  0  0  0  0  0  0  0  0
  -24.5757  -21.8146   22.3943 N   0  0  0  0  0  0  0  0  0  0  0  0
  -25.4635  -13.4459   20.9937 N   0  0  0  0  0  0  0  0  0  0  0  0
  -23.6847  -30.5721   21.4241 N   0  0  0  0  0  0  0  0  0  0  0  0
  -24.9030  -17.0855   22.0506 N   0  0  0  0  0  0  0  0  0  0  0  0
  -26.8692  -13.8983   19.1417 N   0  0  0  0  0  0  0  0  0  0  0  0
  -25.2432   -9.7837   18.2349 N   0  0  0  0  0  0  0  0  0  0  0  0
  -25.6844  -33.3051   20.3005 N   0  0  0  0  0  0  0  0  0  0  0  0
  -20.6778  -29.9003   22.8261 N   0  0  0  0  0  0  0  0  0  0  0  0
  -25.1131  -19.4435   22.1061 N   0  0  0  0  0  0  0  0  0  0  0  0
  -19.0459  -26.8935   21.6585 N   0  3  0  0  0  0  0  0  0  0  0  0
  -26.6288  -11.4467   17.4778 O   0  0  0  0  0  0  0  0  0  0  0  0
  -25.9968  -31.7325   21.9893 O   0  0  0  0  0  0  0  0  0  0  0  0
  -21.9135  -32.0881   21.4493 O   0  0  0  0  0  0  0  0  0  0  0  0
  -21.3106  -27.6897   23.1260 O   0  0  0  0  0  0  0  0  0  0  0  0
  -25.0476  -18.3331   20.0991 O   0  0  0  0  0  0  0  0  0  0  0  0
  -21.6977   -6.8733   21.3964 O   0  0  0  0  0  0  0  0  0  0  0  0
  -27.6466  -25.8439   21.4530 O   0  0  0  0  0  0  0  0  0  1  0  0
  -21.7961   -4.5864   26.4128 F   0  0  0  0  0  0  0  0  0  0  0  0
  -22.6195   -4.2925   21.7608 F   0  0  0  0  0  0  0  0  0  0  0  0
  1  2  1  0  0  0  0
  1  5  2  0  0  0  0
  2  6  2  0  0  0  0
  3  8  2  0  0  0  0
  3 17  1  0  0  0  0
  4  9  1  0  0  0  0
  4 17  2  0  0  0  0
  5 19  1  0  0  0  0
  6 21  1  0  0  0  0
  7 10  2  0  0  0  0
  7 20  1  0  0  0  0
  8 23  1  0  0  0  0
  9 23  2  0  0  0  0
 10 24  1  0  0  0  0
 11 12  2  0  0  0  0
 11 25  1  0  0  0  0
 12 26  1  0  0  0  0
 13 14  1  0  0  0  0
 13 29  2  0  0  0  0
 14 30  2  0  0  0  0
 15 22  1  0  0  0  0
 15 24  2  0  0  0  0
 16 26  2  0  0  0  0
 16 27  1  0  0  0  0
 17 28  1  0  0  0  0
 18 28  1  0  0  0  0
 18 31  2  0  0  0  0
 18 32  1  0  0  0  0
 19 21  2  0  0  0  0
 19 37  1  0  0  0  0
 20 22  2  0  0  0  0
 20 38  1  0  0  0  0
 21 46  1  0  0  0  0
 22 39  1  0  0  0  0
 23 82  1  0  0  0  0
 24 83  1  0  0  0  0
 25 27  2  0  0  0  0
 25 82  1  0  0  0  0
 26 84  1  0  0  0  0
 27 85  1  0  0  0  0
 28 66  2  0  0  0  0
 29 56  1  0  0  0  0
 29 67  1  0  0  0  0
 30 57  1  0  0  0  0
 30 67  1  0  0  0  0
 31 68  1  0  0  0  0
 31 71  1  0  0  0  0
 32 72  1  0  0  0  0
 32 77  2  0  0  0  0
 33 47  1  0  0  0  0
 33 73  1  0  0  0  0
 33 78  2  0  0  0  0
 34 62  1  0  0  0  0
 34 69  1  0  0  0  0
 34 79  2  0  0  0  0
 35 63  1  0  0  0  0
 35 74  1  0  0  0  0
 35 80  2  0  0  0  0
 36 70  1  0  0  0  0
 36 75  1  0  0  0  0
 36 81  2  0  0  0  0
 37 40  1  0  0  0  0
 38 47  1  0  0  0  0
 39 69  1  0  0  0  0
 40 42  1  0  0  0  0
 41 43  1  0  0  0  0
 41 44  1  0  0  0  0
 42 46  1  0  0  0  0
 43 48  1  0  0  0  0
 44 70  1  0  0  0  0
 45 48  1  0  0  0  0
 45 70  1  0  0  0  0
 46 73  1  0  0  0  0
 47 69  1  0  0  0  0
 48 68  1  0  0  0  0
 49 63  1  0  0  0  0
 50 64  1  0  0  0  0
 51 64  1  0  0  0  0
 52 65  1  0  0  0  0
 53 65  1  0  0  0  0
 54 65  1  0  0  0  0
 55 76  1  0  0  0  0
 56 58  1  0  0  0  0
 57 59  1  0  0  0  0
 58 60  1  0  0  0  0
 59 64  1  0  0  0  0
 60 83  1  0  0  0  0
 61 67  1  0  0  0  0
 61 75  1  0  0  0  0
 62 65  1  0  0  0  0
 62 74  1  0  0  0  0
 63 76  1  0  0  0  0
 66 68  1  0  0  0  0
M  CHG  1  76   1
M  ISO  4  36 100  60 101  75 100  83 101
M  END
> <Batch ID>
0104

> <Smiles>
CNC(C)C(=O)NC(C(=O)N1Cc2cc([101O:1][101CH2:1]CCc3ccc(CCC(C)C)n3C[100NH:0][100C:0](=O)N3CCCC(n4nc(-c5ccc(Oc6ccc(F)cc6F)cc5)c(C(N)=O)c4N)C3)ccc2CC1C(=O)NC1CCCc2ccccc21)C(C)(C)C

> <Shape>
0.232

> <Color>
0.116

> <Negative vol penalty>
0.000

$$$$

  -OEChem-04052319433D

 87 95  0     1  0  0  0  0  0999 V2000
  -30.3062  -24.1793   17.2084 C   0  0  0  0  0  0  0  0  0  0  0  0
  -29.0628  -24.1722   17.8324 C   0  0  0  0  0  0  0  0  0  0  0  0
  -28.4338  -18.1254   22.6264 C   0  0  0  0  0  0  0  0  0  0  0  0
  -26.8612  -17.5663   20.8795 C   0  0  0  0  0  0  0  0  0  0  0  0
  -31.3423  -24.9526   17.7303 C   0  0  0  0  0  0  0  0  0  0  0  0
  -28.8552  -24.9376   18.9794 C   0  0  0  0  0  0  0  0  0  0  0  0
  -24.4721  -27.4711   18.8572 C   0  0  0  0  0  0  0  0  0  0  0  0
  -29.3553  -17.2301   22.0834 C   0  0  0  0  0  0  0  0  0  0  0  0
  -27.7827  -16.6710   20.3365 C   0  0  0  0  0  0  0  0  0  0  0  0
  -23.3120  -26.7502   19.1370 C   0  0  0  0  0  0  0  0  0  0  0  0
  -29.5834  -13.9728   18.6971 C   0  0  0  0  0  0  0  0  0  0  0  0
  -29.1163  -12.7169   18.3099 C   0  0  0  0  0  0  0  0  0  0  0  0
  -23.3241  -27.6162   21.3885 C   0  0  0  0  0  0  0  0  0  0  0  0
  -18.4788  -22.6571   21.6458 C   0  0  0  0  0  0  0  0  0  0  0  0
  -28.4128  -12.2788   20.5794 C   0  0  0  0  0  0  0  0  0  0  0  0
  -19.0623  -24.3424   23.0202 C   0  0  0  0  0  0  0  0  0  0  0  0
  -27.1867  -18.2935   22.0245 C   0  0  0  0  0  0  0  0  0  0  0  0
  -26.0918  -20.5838   22.2760 C   0  0  0  0  0  0  0  0  0  0  0  0
  -31.1445  -25.7353   18.8787 C   0  0  0  0  0  0  0  0  0  0  0  0
  -25.0741  -28.2627   19.8459 C   0  0  0  0  0  0  0  0  0  0  0  0
  -29.8901  -25.7210   19.5179 C   0  0  0  0  0  0  0  0  0  0  0  0
  -24.4904  -28.3481   21.1180 C   0  0  0  0  0  0  0  0  0  0  0  0
  -18.7444  -23.0025   22.9938 C   0  0  0  0  0  0  0  0  0  0  0  0
  -29.0298  -16.5029   20.9385 C   0  0  0  0  0  0  0  0  0  0  0  0
  -22.7394  -26.8204   20.4037 C   0  0  0  0  0  0  0  0  0  0  0  0
  -29.4653  -14.3818   20.0255 C   0  0  0  0  0  0  0  0  0  0  0  0
  -28.5310  -11.8699   19.2510 C   0  0  0  0  0  0  0  0  0  0  0  0
  -28.8800  -13.5348   20.9666 C   0  0  0  0  0  0  0  0  0  0  0  0
  -26.2342  -19.2179   22.5852 C   0  0  0  0  0  0  0  0  0  0  0  0
  -18.6427  -23.7965   20.8893 C   0  0  0  0  0  0  0  0  0  0  0  0
  -25.0559  -21.0097   23.0710 C   0  0  0  0  0  0  0  0  0  0  0  0
  -26.8298  -21.3952   21.3525 C   0  0  0  0  0  0  0  0  0  0  0  0
  -27.8936  -28.2593   21.3134 C   0  0  0  0  0  0  0  0  0  0  0  0
  -26.7863  -31.0206   22.6064 C   0  0  0  0  0  0  0  0  0  0  0  0
  -24.1023  -32.9444   23.4677 C   0  0  0  0  0  0  0  0  0  0  0  0
  -19.9707  -20.2714   25.2484 C   0  0  0  0  0  0  0  0  0  0  0  0
  -32.3084  -26.5182   19.4330 C   0  0  0  0  0  0  0  0  0  0  0  0
  -26.3103  -29.0552   19.5203 C   0  0  0  0  0  0  0  0  0  0  0  0
  -25.0862  -29.1994   22.2083 C   0  0  0  0  0  0  0  0  0  0  0  0
  -31.8971  -27.5925   20.4364 C   0  0  0  0  0  0  0  0  0  0  0  0
  -22.7049  -18.7213   26.9211 C   0  0  0  0  0  0  0  0  0  0  0  0
  -30.9017  -27.0280   21.4450 C   0  0  0  0  0  0  0  0  0  0  0  0
  -23.8526  -18.8194   25.9145 C   0  0  0  0  0  0  0  0  0  0  0  0
  -21.3664  -18.4748   26.2285 C   0  0  0  0  0  0  0  0  0  0  0  0
  -22.1790  -19.5400   24.1599 C   0  0  0  0  0  0  0  0  0  0  0  0
  -29.6187  -26.5572   20.7496 C   0  0  1  0  0  0  0  0  0  0  0  0
  -27.1261  -29.4243   20.7554 C   0  0  1  0  0  0  0  0  0  0  0  0
  -23.5411  -19.8439   24.8070 C   0  0  2  0  0  0  0  0  0  0  0  0
  -23.5119  -35.1339   24.5424 C   0  0  0  0  0  0  0  0  0  0  0  0
  -18.2803  -27.2140   21.9794 C   0  0  0  0  0  0  0  0  0  0  0  0
  -27.4082  -29.8389   25.3499 C   0  0  0  0  0  0  0  0  0  0  0  0
  -25.9577  -31.6097   26.3642 C   0  0  0  0  0  0  0  0  0  0  0  0
  -28.0059  -32.2539   25.0943 C   0  0  0  0  0  0  0  0  0  0  0  0
  -22.7679  -33.9216   21.0135 C   0  0  0  0  0  0  0  0  0  0  0  0
  -20.6241  -21.0937   18.0712 C   0  0  0  0  0  0  0  0  0  0  0  0
  -21.2196  -23.4468   18.6268 C   0  0  0  0  0  0  0  0  0  0  0  0
  -18.6904  -22.0954   24.1561 C   0  0  0  0  0  0  0  0  0  0  0  0
  -18.8308  -22.7453   18.5793 C   0  0  0  0  0  0  0  0  0  0  0  0
  -17.0631  -24.4742   19.0432 C   0  0  0  0  0  0  0  0  0  0  0  0
  -20.7211  -26.6691   21.6523 C   0  0  0  0  0  0  0  0  0  1  0  0
  -18.4905  -23.9979   19.4335 C   0  0  1  0  0  0  0  0  0  0  0  0
  -25.9925  -31.3811   23.8388 C   0  0  1  0  0  0  0  0  0  0  0  0
  -23.7997  -34.4136   23.2343 C   0  0  2  0  0  0  0  0  0  0  0  0
  -19.2795  -26.2528   21.3295 C   0  0  1  0  0  0  0  0  0  0  0  0
  -26.8307  -31.2532   25.1420 C   0  0  0  0  0  0  0  0  0  0  0  0
  -25.3590  -18.8034   23.5051 N   0  0  0  0  0  0  0  0  0  0  0  0
  -18.9976  -24.8146   21.7352 N   0  0  0  0  0  0  0  0  0  0  0  0
  -24.6567  -19.9156   23.7808 N   0  0  0  0  0  0  0  0  0  0  0  0
  -26.2985  -29.9506   21.8428 N   0  0  0  0  0  0  0  0  0  0  0  0
  -21.1307  -19.4814   25.1907 N   0  0  0  0  0  0  0  0  0  0  0  0
  -24.4568  -22.2095   23.2254 N   0  0  0  0  0  0  0  0  0  0  0  0
  -27.8617  -20.7984   20.6155 N   0  0  0  0  0  0  0  0  0  0  0  0
  -28.7788  -27.6884   20.4190 N   0  0  0  0  0  0  0  0  0  0  0  0
  -25.4556  -32.7168   23.6023 N   0  0  0  0  0  0  0  0  0  0  0  0
  -19.8277  -21.2055   24.2297 N   0  0  0  0  0  0  0  0  0  0  0  0
  -22.6136  -34.5631   22.3445 N   0  3  0  0  0  0  0  0  0  0  0  0
  -20.2319  -22.3279   18.8444 N   0  3  0  0  0  0  0  0  0  0  0  0
  -26.5922  -22.6171   21.1979 O   0  0  0  0  0  0  0  0  0  0  0  0
  -27.6985  -27.9056   22.4704 O   0  0  0  0  0  0  0  0  0  0  0  0
  -27.7978  -31.6692   22.3274 O   0  0  0  0  0  0  0  0  0  0  0  0
  -23.2256  -32.0852   23.5286 O   0  0  0  0  0  0  0  0  0  0  0  0
  -19.1278  -20.1568   26.1447 O   0  0  0  0  0  0  0  0  0  0  0  0
  -16.1183  -23.4918   19.4537 O   0  0  0  0  0  0  0  0  0  0  0  0
  -29.9288  -15.6293   20.4082 O   0  0  0  0  0  0  0  0  0  0  0  0
  -21.6075  -26.1173   20.6796 O   0  0  0  0  0  0  0  0  0  1  0  0
  -28.0810  -10.6644   18.8787 F   0  0  0  0  0  0  0  0  0  0  0  0
  -28.7627  -13.9226   22.2440 F   0  0  0  0  0  0  0  0  0  0  0  0
  1  2  1  0  0  0  0
  1  5  2  0  0  0  0
  2  6  2  0  0  0  0
  3  8  2  0  0  0  0
  3 17  1  0  0  0  0
  4  9  1  0  0  0  0
  4 17  2  0  0  0  0
  5 19  1  0  0  0  0
  6 21  1  0  0  0  0
  7 10  2  0  0  0  0
  7 20  1  0  0  0  0
  8 24  1  0  0  0  0
  9 24  2  0  0  0  0
 10 25  1  0  0  0  0
 11 12  2  0  0  0  0
 11 26  1  0  0  0  0
 12 27  1  0  0  0  0
 13 22  1  0  0  0  0
 13 25  2  0  0  0  0
 14 23  1  0  0  0  0
 14 30  2  0  0  0  0
 15 27  2  0  0  0  0
 15 28  1  0  0  0  0
 16 23  2  0  0  0  0
 16 67  1  0  0  0  0
 17 29  1  0  0  0  0
 18 29  1  0  0  0  0
 18 31  2  0  0  0  0
 18 32  1  0  0  0  0
 19 21  2  0  0  0  0
 19 37  1  0  0  0  0
 20 22  2  0  0  0  0
 20 38  1  0  0  0  0
 21 46  1  0  0  0  0
 22 39  1  0  0  0  0
 23 57  1  0  0  0  0
 24 84  1  0  0  0  0
 25 85  1  0  0  0  0
 26 28  2  0  0  0  0
 26 84  1  0  0  0  0
 27 86  1  0  0  0  0
 28 87  1  0  0  0  0
 29 66  2  0  0  0  0
 30 61  1  0  0  0  0
 30 67  1  0  0  0  0
 31 68  1  0  0  0  0
 31 71  1  0  0  0  0
 32 72  1  0  0  0  0
 32 78  2  0  0  0  0
 33 47  1  0  0  0  0
 33 73  1  0  0  0  0
 33 79  2  0  0  0  0
 34 62  1  0  0  0  0
 34 69  1  0  0  0  0
 34 80  2  0  0  0  0
 35 63  1  0  0  0  0
 35 74  1  0  0  0  0
 35 81  2  0  0  0  0
 36 70  1  0  0  0  0
 36 75  1  0  0  0  0
 36 82  2  0  0  0  0
 37 40  1  0  0  0  0
 38 47  1  0  0  0  0
 39 69  1  0  0  0  0
 40 42  1  0  0  0  0
 41 43  1  0  0  0  0
 41 44  1  0  0  0  0
 42 46  1  0  0  0  0
 43 48  1  0  0  0  0
 44 70  1  0  0  0  0
 45 48  1  0  0  0  0
 45 70  1  0  0  0  0
 46 73  1  0  0  0  0
 47 69  1  0  0  0  0
 48 68  1  0  0  0  0
 49 63  1  0  0  0  0
 50 64  1  0  0  0  0
 51 65  1  0  0  0  0
 52 65  1  0  0  0  0
 53 65  1  0  0  0  0
 54 76  1  0  0  0  0
 55 77  1  0  0  0  0
 56 77  1  0  0  0  0
 57 75  1  0  0  0  0
 58 61  1  0  0  0  0
 58 77  1  0  0  0  0
 59 61  1  0  0  0  0
 59 83  1  0  0  0  0
 60 64  1  0  0  0  0
 60 85  1  0  0  0  0
 62 65  1  0  0  0  0
 62 74  1  0  0  0  0
 63 76  1  0  0  0  0
 64 67  1  0  0  0  0
 66 68  1  0  0  0  0
M  CHG  2  76   1  77   1
M  ISO  4  36 100  60 101  75 100  85 101
M  END
> <Batch ID>
0104

> <Smiles>
CNC(C)C(=O)NC(C(=O)N1Cc2cc([101O:1][101CH2:1]C(C)n3cc(C[100NH:0][100C:0](=O)N4CCCC(n5nc(-c6ccc(Oc7ccc(F)cc7F)cc6)c(C(N)=O)c5N)C4)cc3C(CO)CN(C)C)ccc2CC1C(=O)NC1CCCc2ccccc21)C(C)(C)C

> <Shape>
0.255

> <Color>
0.056

> <Negative vol penalty>
0.000

$$$$

  -OEChem-04052319433D

 86 94  0     1  0  0  0  0  0999 V2000
  -27.7944  -23.3189    8.0957 C   0  0  0  0  0  0  0  0  0  0  0  0
  -28.6012  -23.0278    9.1910 C   0  0  0  0  0  0  0  0  0  0  0  0
  -23.2678   -9.7662   19.8788 C   0  0  0  0  0  0  0  0  0  0  0  0
  -23.7637   -9.8743   22.2408 C   0  0  0  0  0  0  0  0  0  0  0  0
  -27.2966  -24.6095    7.9214 C   0  0  0  0  0  0  0  0  0  0  0  0
  -28.9117  -24.0276   10.1121 C   0  0  0  0  0  0  0  0  0  0  0  0
  -28.4744  -22.4561   14.9063 C   0  0  0  0  0  0  0  0  0  0  0  0
  -22.5791   -8.5698   20.0781 C   0  0  0  0  0  0  0  0  0  0  0  0
  -23.0749   -8.6779   22.4402 C   0  0  0  0  0  0  0  0  0  0  0  0
  -29.5096  -21.6742   15.4170 C   0  0  0  0  0  0  0  0  0  0  0  0
  -23.6470   -5.3730   22.0140 C   0  0  0  0  0  0  0  0  0  0  0  0
  -24.2451   -4.4083   22.8247 C   0  0  0  0  0  0  0  0  0  0  0  0
  -28.9603  -20.1351   21.5214 C   0  0  0  0  0  0  0  0  0  0  0  0
  -29.2365  -19.8093   20.1706 C   0  0  0  0  0  0  0  0  0  0  0  0
  -30.4199  -23.6140   16.5250 C   0  0  0  0  0  0  0  0  0  0  0  0
  -22.3554   -4.4995   24.3273 C   0  0  0  0  0  0  0  0  0  0  0  0
  -23.8602  -10.4185   20.9601 C   0  0  0  0  0  0  0  0  0  0  0  0
  -24.0444  -12.9582   20.8061 C   0  0  0  0  0  0  0  0  0  0  0  0
  -27.5931  -25.6233    8.8460 C   0  0  0  0  0  0  0  0  0  0  0  0
  -28.4102  -23.8273   15.1927 C   0  0  0  0  0  0  0  0  0  0  0  0
  -28.4185  -25.3334    9.9493 C   0  0  0  0  0  0  0  0  0  0  0  0
  -29.3815  -24.4105   16.0189 C   0  0  0  0  0  0  0  0  0  0  0  0
  -22.4826   -8.0256   21.3588 C   0  0  0  0  0  0  0  0  0  0  0  0
  -30.4842  -22.2537   16.2241 C   0  0  0  0  0  0  0  0  0  0  0  0
  -22.4032   -5.9011   22.3600 C   0  0  0  0  0  0  0  0  0  0  0  0
  -23.5993   -3.9715   23.9813 C   0  0  0  0  0  0  0  0  0  0  0  0
  -21.7573   -5.4643   23.5166 C   0  0  0  0  0  0  0  0  0  0  0  0
  -24.5723  -11.6541   20.7548 C   0  0  0  0  0  0  0  0  0  0  0  0
  -29.5018  -19.1392   22.3038 C   0  0  0  0  0  0  0  0  0  0  0  0
  -29.9382  -18.6240   20.1686 C   0  0  0  0  0  0  0  0  0  0  0  0
  -25.1180  -13.7738   20.5442 C   0  0  0  0  0  0  0  0  0  0  0  0
  -22.7034  -13.3933   21.0672 C   0  0  0  0  0  0  0  0  0  0  0  0
  -28.5153  -26.4886   13.4577 C   0  0  0  0  0  0  0  0  0  0  0  0
  -27.8499  -27.9039   16.2996 C   0  0  0  0  0  0  0  0  0  0  0  0
  -27.9538  -27.7504   19.7073 C   0  0  0  0  0  0  0  0  0  0  0  0
  -30.9065  -13.6606   21.7948 C   0  0  0  0  0  0  0  0  0  0  0  0
  -27.0708  -27.0148    8.5900 C   0  0  0  0  0  0  0  0  0  0  0  0
  -27.2722  -24.6516   14.6560 C   0  0  0  0  0  0  0  0  0  0  0  0
  -29.3465  -25.8741   16.3728 C   0  0  0  0  0  0  0  0  0  0  0  0
  -27.1394  -27.9257    9.8130 C   0  0  0  0  0  0  0  0  0  0  0  0
  -29.5218  -13.1816   18.3956 C   0  0  0  0  0  0  0  0  0  0  0  0
  -28.5034  -27.8133   10.4866 C   0  0  0  0  0  0  0  0  0  0  0  0
  -28.0725  -12.7898   18.6785 C   0  0  0  0  0  0  0  0  0  0  0  0
  -30.4516  -12.7772   19.5356 C   0  0  0  0  0  0  0  0  0  0  0  0
  -28.5827  -12.9011   21.1499 C   0  0  0  0  0  0  0  0  0  0  0  0
  -28.7572  -26.3849   10.9835 C   0  0  1  0  0  0  0  0  0  0  0  0
  -27.5922  -26.1418   14.5914 C   0  0  1  0  0  0  0  0  0  0  0  0
  -27.6125  -13.3361   20.0412 C   0  0  2  0  0  0  0  0  0  0  0  0
  -29.5031  -18.9849   23.7732 C   0  0  0  0  0  0  0  0  0  0  0  0
  -27.3699  -29.0744   21.7576 C   0  0  0  0  0  0  0  0  0  0  0  0
  -30.2865  -29.6826   15.8420 C   0  0  0  0  0  0  0  0  0  0  0  0
  -30.2131  -30.2888   18.2700 C   0  0  0  0  0  0  0  0  0  0  0  0
  -28.2941  -30.8648   16.7840 C   0  0  0  0  0  0  0  0  0  0  0  0
  -32.2655  -17.2180   17.3529 C   0  0  0  0  0  0  0  0  0  0  0  0
  -32.9532  -17.8554   19.6563 C   0  0  0  0  0  0  0  0  0  0  0  0
  -31.0889  -14.7004   24.0231 C   0  0  0  0  0  0  0  0  0  0  0  0
  -26.0698  -25.6734   20.6535 C   0  0  0  0  0  0  0  0  0  0  0  0
  -30.4838  -17.8234   19.0077 C   0  0  0  0  0  0  0  0  0  0  0  0
  -32.1120  -19.6344   18.1070 C   0  0  0  0  0  0  0  0  0  0  0  0
  -30.7777  -17.0244   21.9004 C   0  0  0  0  0  0  0  0  0  0  0  0
  -29.8217  -15.8953   22.2761 C   0  0  0  0  0  0  0  0  0  0  0  0
  -31.2120  -20.1168   16.9724 C   0  0  0  0  0  0  0  0  0  1  0  0
  -28.6737  -28.4526   17.4395 C   0  0  1  0  0  0  0  0  0  0  0  0
  -26.8966  -28.0278   20.7608 C   0  0  2  0  0  0  0  0  0  0  0  0
  -29.3689  -29.7950   17.0758 C   0  0  0  0  0  0  0  0  0  0  0  0
  -31.9326  -18.1535   18.5365 C   0  0  0  0  0  0  0  0  0  0  0  0
  -25.8796  -11.6375   20.4816 N   0  0  0  0  0  0  0  0  0  0  0  0
  -30.0934  -18.2258   21.4707 N   0  0  0  0  0  0  0  0  0  0  0  0
  -26.1822  -12.9411   20.3588 N   0  0  0  0  0  0  0  0  0  0  0  0
  -28.2174  -26.6393   15.8185 N   0  0  0  0  0  0  0  0  0  0  0  0
  -29.9678  -13.2728   20.8246 N   0  0  0  0  0  0  0  0  0  0  0  0
  -25.2461  -15.1148   20.4567 N   0  0  0  0  0  0  0  0  0  0  0  0
  -21.7229  -12.4234   21.3167 N   0  0  0  0  0  0  0  0  0  0  0  0
  -28.0310  -26.1404   12.2112 N   0  0  0  0  0  0  0  0  0  0  0  0
  -27.7776  -28.5357   18.5877 N   0  0  0  0  0  0  0  0  0  0  0  0
  -30.5271  -14.6810   22.6800 N   0  0  0  0  0  0  0  0  0  0  0  0
  -26.5704  -26.7805   21.5083 N   0  3  0  0  0  0  0  0  0  0  0  0
  -22.3808  -14.6055   21.0628 O   0  0  0  0  0  0  0  0  0  0  0  0
  -29.5869  -27.0333   13.6960 O   0  0  0  0  0  0  0  0  0  0  0  0
  -26.9104  -28.5697   15.8572 O   0  0  0  0  0  0  0  0  0  0  0  0
  -28.8488  -26.9227   19.8636 O   0  0  0  0  0  0  0  0  0  0  0  0
  -32.0238  -13.1320   21.8597 O   0  0  0  0  0  0  0  0  0  0  0  0
  -21.8104   -6.8583   21.5537 O   0  0  0  0  0  0  0  0  0  0  0  0
  -31.4960  -21.4929   16.7234 O   0  0  0  0  0  0  0  0  0  1  0  0
  -24.1730   -3.0439   24.7589 F   0  0  0  0  0  0  0  0  0  0  0  0
  -20.5617   -5.9670   23.8535 F   0  0  0  0  0  0  0  0  0  0  0  0
  1  2  1  0  0  0  0
  1  5  2  0  0  0  0
  2  6  2  0  0  0  0
  3  8  2  0  0  0  0
  3 17  1  0  0  0  0
  4  9  1  0  0  0  0
  4 17  2  0  0  0  0
  5 19  1  0  0  0  0
  6 21  1  0  0  0  0
  7 10  2  0  0  0  0
  7 20  1  0  0  0  0
  8 23  1  0  0  0  0
  9 23  2  0  0  0  0
 10 24  1  0  0  0  0
 11 12  2  0  0  0  0
 11 25  1  0  0  0  0
 12 26  1  0  0  0  0
 13 14  1  0  0  0  0
 13 29  2  0  0  0  0
 14 30  2  0  0  0  0
 15 22  1  0  0  0  0
 15 24  2  0  0  0  0
 16 26  2  0  0  0  0
 16 27  1  0  0  0  0
 17 28  1  0  0  0  0
 18 28  1  0  0  0  0
 18 31  2  0  0  0  0
 18 32  1  0  0  0  0
 19 21  2  0  0  0  0
 19 37  1  0  0  0  0
 20 22  2  0  0  0  0
 20 38  1  0  0  0  0
 21 46  1  0  0  0  0
 22 39  1  0  0  0  0
 23 83  1  0  0  0  0
 24 84  1  0  0  0  0
 25 27  2  0  0  0  0
 25 83  1  0  0  0  0
 26 85  1  0  0  0  0
 27 86  1  0  0  0  0
 28 67  2  0  0  0  0
 29 49  1  0  0  0  0
 29 68  1  0  0  0  0
 30 58  1  0  0  0  0
 30 68  1  0  0  0  0
 31 69  1  0  0  0  0
 31 72  1  0  0  0  0
 32 73  1  0  0  0  0
 32 78  2  0  0  0  0
 33 47  1  0  0  0  0
 33 74  1  0  0  0  0
 33 79  2  0  0  0  0
 34 63  1  0  0  0  0
 34 70  1  0  0  0  0
 34 80  2  0  0  0  0
 35 64  1  0  0  0  0
 35 75  1  0  0  0  0
 35 81  2  0  0  0  0
 36 71  1  0  0  0  0
 36 76  1  0  0  0  0
 36 82  2  0  0  0  0
 37 40  1  0  0  0  0
 38 47  1  0  0  0  0
 39 70  1  0  0  0  0
 40 42  1  0  0  0  0
 41 43  1  0  0  0  0
 41 44  1  0  0  0  0
 42 46  1  0  0  0  0
 43 48  1  0  0  0  0
 44 71  1  0  0  0  0
 45 48  1  0  0  0  0
 45 71  1  0  0  0  0
 46 74  1  0  0  0  0
 47 70  1  0  0  0  0
 48 69  1  0  0  0  0
 50 64  1  0  0  0  0
 51 65  1  0  0  0  0
 52 65  1  0  0  0  0
 53 65  1  0  0  0  0
 54 66  1  0  0  0  0
 55 66  1  0  0  0  0
 56 76  1  0  0  0  0
 57 77  1  0  0  0  0
 58 66  1  0  0  0  0
 59 62  1  0  0  0  0
 59 66  1  0  0  0  0
 60 61  1  0  0  0  0
 60 68  1  0  0  0  0
 61 76  1  0  0  0  0
 62 84  1  0  0  0  0
 63 65  1  0  0  0  0
 63 75  1  0  0  0  0
 64 77  1  0  0  0  0
 67 69  1  0  0  0  0
M  CHG  1  77   1
M  ISO  4  36 100  62 101  76 100  84 101
M  END
> <Batch ID>
0104

> <Smiles>
CNC(C)C(=O)NC(C(=O)N1Cc2cc([101O:1][101CH2:1]CC(C)(C)Cc3ccc(C)n3CC[100N:0](C)[100C:0](=O)N3CCCC(n4nc(-c5ccc(Oc6ccc(F)cc6F)cc5)c(C(N)=O)c4N)C3)ccc2CC1C(=O)NC1CCCc2ccccc21)C(C)(C)C

> <Shape>
0.228

> <Color>
0.200

> <Negative vol penalty>
0.000

$$$$

  -OEChem-04052319433D

 89 97  0     1  0  0  0  0  0999 V2000
  -16.5971  -25.8872   25.1724 C   0  0  0  0  0  0  0  0  0  0  0  0
  -17.6321  -25.0262   25.5229 C   0  0  0  0  0  0  0  0  0  0  0  0
  -23.8842  -10.1368   22.4811 C   0  0  0  0  0  0  0  0  0  0  0  0
  -24.1745  -11.9232   24.0814 C   0  0  0  0  0  0  0  0  0  0  0  0
  -16.7351  -26.7284   24.0691 C   0  0  0  0  0  0  0  0  0  0  0  0
  -18.8054  -25.0052   24.7696 C   0  0  0  0  0  0  0  0  0  0  0  0
  -25.8640  -23.9952   25.4573 C   0  0  0  0  0  0  0  0  0  0  0  0
  -23.3314   -9.3332   23.4782 C   0  0  0  0  0  0  0  0  0  0  0  0
  -23.6217  -11.1197   25.0787 C   0  0  0  0  0  0  0  0  0  0  0  0
  -26.9021  -23.2406   24.9127 C   0  0  0  0  0  0  0  0  0  0  0  0
  -20.3573   -9.0108   25.0541 C   0  0  0  0  0  0  0  0  0  0  0  0
  -19.1994   -8.2975   24.7443 C   0  0  0  0  0  0  0  0  0  0  0  0
  -27.0598  -24.7949   23.0747 C   0  0  0  0  0  0  0  0  0  0  0  0
  -29.8042  -20.1155   22.3629 C   0  0  0  0  0  0  0  0  0  0  0  0
  -20.3508   -6.2254   25.2109 C   0  0  0  0  0  0  0  0  0  0  0  0
  -29.3833  -20.6115   20.0752 C   0  0  0  0  0  0  0  0  0  0  0  0
  -24.3058  -11.4318   22.7827 C   0  0  0  0  0  0  0  0  0  0  0  0
  -24.1933  -13.1430   20.8941 C   0  0  0  0  0  0  0  0  0  0  0  0
  -17.9144  -26.7246   23.3077 C   0  0  0  0  0  0  0  0  0  0  0  0
  -25.4079  -25.1513   24.8078 C   0  0  0  0  0  0  0  0  0  0  0  0
  -18.9587  -25.8462   23.6543 C   0  0  0  0  0  0  0  0  0  0  0  0
  -26.0174  -25.5639   23.6144 C   0  0  0  0  0  0  0  0  0  0  0  0
  -29.8004  -21.0406   21.3249 C   0  0  0  0  0  0  0  0  0  0  0  0
  -29.3966  -18.8080   22.1229 C   0  0  0  0  0  0  0  0  0  0  0  0
  -23.2002   -9.8247   24.7770 C   0  0  0  0  0  0  0  0  0  0  0  0
  -27.4983  -23.6388   23.7197 C   0  0  0  0  0  0  0  0  0  0  0  0
  -21.5121   -8.3314   25.4423 C   0  0  0  0  0  0  0  0  0  0  0  0
  -19.1961   -6.9049   24.8227 C   0  0  0  0  0  0  0  0  0  0  0  0
  -21.5088   -6.9387   25.5207 C   0  0  0  0  0  0  0  0  0  0  0  0
  -24.8773  -12.2621   21.7531 C   0  0  0  0  0  0  0  0  0  0  0  0
  -28.9974  -18.4789   20.8375 C   0  0  0  0  0  0  0  0  0  0  0  0
  -25.1779  -13.6890   20.1073 C   0  0  0  0  0  0  0  0  0  0  0  0
  -22.7932  -13.4413   20.8146 C   0  0  0  0  0  0  0  0  0  0  0  0
  -22.6452  -26.0625   23.5268 C   0  0  0  0  0  0  0  0  0  0  0  0
  -24.1883  -28.8942   23.1764 C   0  0  0  0  0  0  0  0  0  0  0  0
  -27.1518  -30.5637   22.8987 C   0  0  0  0  0  0  0  0  0  0  0  0
  -31.0533  -14.5136   20.9139 C   0  0  0  0  0  0  0  0  0  0  0  0
  -17.9987  -27.6181   22.0955 C   0  0  0  0  0  0  0  0  0  0  0  0
  -24.3050  -25.9690   25.4221 C   0  0  0  0  0  0  0  0  0  0  0  0
  -25.5782  -26.8083   22.8885 C   0  0  0  0  0  0  0  0  0  0  0  0
  -19.4210  -27.8029   21.5728 C   0  0  0  0  0  0  0  0  0  0  0  0
  -29.4876  -12.7021   18.2789 C   0  0  0  0  0  0  0  0  0  0  0  0
  -20.1387  -26.4593   21.4915 C   0  0  0  0  0  0  0  0  0  0  0  0
  -28.0668  -12.4634   18.7930 C   0  0  0  0  0  0  0  0  0  0  0  0
  -30.5159  -12.6239   19.4052 C   0  0  0  0  0  0  0  0  0  0  0  0
  -28.8172  -13.2603   21.0734 C   0  0  0  0  0  0  0  0  0  0  0  0
  -20.2566  -25.8121   22.8767 C   0  0  1  0  0  0  0  0  0  0  0  0
  -23.5758  -26.8459   24.4088 C   0  0  1  0  0  0  0  0  0  0  0  0
  -27.7390  -13.3847   19.9833 C   0  0  2  0  0  0  0  0  0  0  0  0
  -28.0921  -32.8691   22.5848 C   0  0  0  0  0  0  0  0  0  0  0  0
  -23.4330  -28.7974   20.2217 C   0  0  0  0  0  0  0  0  0  0  0  0
  -25.1567  -30.5623   19.7949 C   0  0  0  0  0  0  0  0  0  0  0  0
  -23.2141  -31.0522   21.2811 C   0  0  0  0  0  0  0  0  0  0  0  0
  -31.7603  -18.2729   24.1063 C   0  0  0  0  0  0  0  0  0  0  0  0
  -30.5401  -16.2318   24.8402 C   0  0  0  0  0  0  0  0  0  0  0  0
  -24.8087  -17.5866   19.8499 C   0  0  0  0  0  0  0  0  0  0  0  0
  -28.5836  -30.4579   25.4867 C   0  0  0  0  0  0  0  0  0  0  0  0
  -30.2360  -22.4678   21.5524 C   0  0  0  0  0  0  0  0  0  0  0  0
  -29.4000  -17.8112   23.2300 C   0  0  0  0  0  0  0  0  0  0  0  0
  -31.4402  -16.3951   22.4855 C   0  0  0  0  0  0  0  0  0  0  0  0
  -27.0439  -16.8583   20.6940 C   0  0  0  0  0  0  0  0  0  0  0  0
  -29.0764  -23.3698   21.9611 C   0  0  0  0  0  0  0  0  0  1  0  0
  -28.5487  -17.0895   20.5214 C   0  0  1  0  0  0  0  0  0  0  0  0
  -25.0476  -29.5178   22.1032 C   0  0  1  0  0  0  0  0  0  0  0  0
  -27.6755  -31.8085   23.5920 C   0  0  2  0  0  0  0  0  0  0  0  0
  -24.2200  -29.9579   20.8627 C   0  0  0  0  0  0  0  0  0  0  0  0
  -30.7759  -17.1799   23.6419 C   0  0  0  0  0  0  0  0  0  0  0  0
  -28.9803  -19.3500   19.8038 N   0  0  0  0  0  0  0  0  0  0  0  0
  -26.1946  -12.2461   21.5328 N   0  0  0  0  0  0  0  0  0  0  0  0
  -26.3462  -13.1237   20.5263 N   0  0  0  0  0  0  0  0  0  0  0  0
  -24.4919  -27.5707   23.5258 N   0  0  0  0  0  0  0  0  0  0  0  0
  -30.1474  -13.5223   20.5020 N   0  0  0  0  0  0  0  0  0  0  0  0
  -25.1495  -14.5927   19.1048 N   0  0  0  0  0  0  0  0  0  0  0  0
  -21.9203  -12.7910   21.6976 N   0  0  0  0  0  0  0  0  0  0  0  0
  -21.3190  -26.4349   23.6368 N   0  0  0  0  0  0  0  0  0  0  0  0
  -25.7819  -30.6018   22.7468 N   0  0  0  0  0  0  0  0  0  0  0  0
  -30.6228  -15.3265   21.9554 N   0  0  0  0  0  0  0  0  0  0  0  0
  -26.2837  -17.7767   19.8085 N   0  3  0  0  0  0  0  0  0  0  0  0
  -28.8564  -31.4729   24.4368 N   0  3  0  0  0  0  0  0  0  0  0  0
  -22.3278  -14.2478   19.9741 O   0  0  0  0  0  0  0  0  0  0  0  0
  -23.0971  -25.1862   22.7991 O   0  0  0  0  0  0  0  0  0  0  0  0
  -23.2857  -29.5592   23.6908 O   0  0  0  0  0  0  0  0  0  0  0  0
  -27.8851  -29.6508   22.5255 O   0  0  0  0  0  0  0  0  0  0  0  0
  -32.1613  -14.6666   20.3887 O   0  0  0  0  0  0  0  0  0  0  0  0
  -22.6607   -9.0410   25.7503 O   0  0  0  0  0  0  0  0  0  0  0  0
  -28.5113  -22.9036   23.1857 O   0  0  0  0  0  0  0  0  0  1  0  0
  -18.0836   -6.2201   24.5266 F   0  0  0  0  0  0  0  0  0  0  0  0
  -22.6148   -6.2806   25.8941 F   0  0  0  0  0  0  0  0  0  0  0  0
  -28.8785  -16.6791   19.2528 F   0  0  0  0  0  0  0  0  0  0  0  0
  1  2  1  0  0  0  0
  1  5  2  0  0  0  0
  2  6  2  0  0  0  0
  3  8  2  0  0  0  0
  3 17  1  0  0  0  0
  4  9  1  0  0  0  0
  4 17  2  0  0  0  0
  5 19  1  0  0  0  0
  6 21  1  0  0  0  0
  7 10  2  0  0  0  0
  7 20  1  0  0  0  0
  8 25  1  0  0  0  0
  9 25  2  0  0  0  0
 10 26  1  0  0  0  0
 11 12  2  0  0  0  0
 11 27  1  0  0  0  0
 12 28  1  0  0  0  0
 13 22  1  0  0  0  0
 13 26  2  0  0  0  0
 14 23  2  0  0  0  0
 14 24  1  0  0  0  0
 15 28  2  0  0  0  0
 15 29  1  0  0  0  0
 16 23  1  0  0  0  0
 16 68  2  0  0  0  0
 17 30  1  0  0  0  0
 18 30  1  0  0  0  0
 18 32  2  0  0  0  0
 18 33  1  0  0  0  0
 19 21  2  0  0  0  0
 19 38  1  0  0  0  0
 20 22  2  0  0  0  0
 20 39  1  0  0  0  0
 21 47  1  0  0  0  0
 22 40  1  0  0  0  0
 23 58  1  0  0  0  0
 24 31  2  0  0  0  0
 24 59  1  0  0  0  0
 25 85  1  0  0  0  0
 26 86  1  0  0  0  0
 27 29  2  0  0  0  0
 27 85  1  0  0  0  0
 28 87  1  0  0  0  0
 29 88  1  0  0  0  0
 30 69  2  0  0  0  0
 31 63  1  0  0  0  0
 31 68  1  0  0  0  0
 32 70  1  0  0  0  0
 32 73  1  0  0  0  0
 33 74  1  0  0  0  0
 33 80  2  0  0  0  0
 34 48  1  0  0  0  0
 34 75  1  0  0  0  0
 34 81  2  0  0  0  0
 35 64  1  0  0  0  0
 35 71  1  0  0  0  0
 35 82  2  0  0  0  0
 36 65  1  0  0  0  0
 36 76  1  0  0  0  0
 36 83  2  0  0  0  0
 37 72  1  0  0  0  0
 37 77  1  0  0  0  0
 37 84  2  0  0  0  0
 38 41  1  0  0  0  0
 39 48  1  0  0  0  0
 40 71  1  0  0  0  0
 41 43  1  0  0  0  0
 42 44  1  0  0  0  0
 42 45  1  0  0  0  0
 43 47  1  0  0  0  0
 44 49  1  0  0  0  0
 45 72  1  0  0  0  0
 46 49  1  0  0  0  0
 46 72  1  0  0  0  0
 47 75  1  0  0  0  0
 48 71  1  0  0  0  0
 49 70  1  0  0  0  0
 50 65  1  0  0  0  0
 51 66  1  0  0  0  0
 52 66  1  0  0  0  0
 53 66  1  0  0  0  0
 54 67  1  0  0  0  0
 55 67  1  0  0  0  0
 56 78  1  0  0  0  0
 57 79  1  0  0  0  0
 58 62  1  0  0  0  0
 59 67  1  0  0  0  0
 60 67  1  0  0  0  0
 60 77  1  0  0  0  0
 61 63  1  0  0  0  0
 61 78  1  0  0  0  0
 62 86  1  0  0  0  0
 63 89  1  0  0  0  0
 64 66  1  0  0  0  0
 64 76  1  0  0  0  0
 65 79  1  0  0  0  0
 69 70  1  0  0  0  0
M  CHG  2  78   1  79   1
M  ISO  4  37 100  62 101  77 100  86 101
M  END
> <Batch ID>
0104

> <Smiles>
CNCC(F)c1ncc(C[101CH2:1][101O:1]c2ccc3c(c2)CN(C(=O)C(NC(=O)C(C)NC)C(C)(C)C)C(C(=O)NC2CCCc4ccccc42)C3)cc1CC(C)(C)C[100NH:0][100C:0](=O)N1CCCC(n2nc(-c3ccc(Oc4ccc(F)cc4F)cc3)c(C(N)=O)c2N)C1

> <Shape>
0.276

> <Color>
0.109

> <Negative vol penalty>
0.000

$$$$

  -OEChem-04052319433D

 82 90  0     1  0  0  0  0  0999 V2000
  -26.8926  -32.8211   25.7202 C   0  0  0  0  0  0  0  0  0  0  0  0
  -27.3238  -31.5130   25.5248 C   0  0  0  0  0  0  0  0  0  0  0  0
  -22.7792  -10.2306   20.4850 C   0  0  0  0  0  0  0  0  0  0  0  0
  -24.4313   -9.3358   22.0039 C   0  0  0  0  0  0  0  0  0  0  0  0
  -25.7239  -33.2679   25.1051 C   0  0  0  0  0  0  0  0  0  0  0  0
  -26.5858  -30.6504   24.7150 C   0  0  0  0  0  0  0  0  0  0  0  0
  -28.7790  -26.2474   21.0669 C   0  0  0  0  0  0  0  0  0  0  0  0
  -22.1430   -8.9900   20.4460 C   0  0  0  0  0  0  0  0  0  0  0  0
  -23.7950   -8.0951   21.9650 C   0  0  0  0  0  0  0  0  0  0  0  0
  -28.9087  -24.8692   21.2335 C   0  0  0  0  0  0  0  0  0  0  0  0
  -21.0780   -6.6463   23.3576 C   0  0  0  0  0  0  0  0  0  0  0  0
  -20.8821   -5.9819   24.5683 C   0  0  0  0  0  0  0  0  0  0  0  0
  -26.8199  -24.5384   20.0730 C   0  0  0  0  0  0  0  0  0  0  0  0
  -29.1577  -19.9649   20.4541 C   0  0  0  0  0  0  0  0  0  0  0  0
  -29.1718  -20.0462   22.8686 C   0  0  0  0  0  0  0  0  0  0  0  0
  -22.2020   -4.1254   23.7631 C   0  0  0  0  0  0  0  0  0  0  0  0
  -23.9234  -10.4035   21.2639 C   0  0  0  0  0  0  0  0  0  0  0  0
  -24.3307  -12.7415   22.1997 C   0  0  0  0  0  0  0  0  0  0  0  0
  -24.9764  -32.4133   24.2796 C   0  0  0  0  0  0  0  0  0  0  0  0
  -27.6615  -26.7829   20.4105 C   0  0  0  0  0  0  0  0  0  0  0  0
  -25.4052  -31.0858   24.0893 C   0  0  0  0  0  0  0  0  0  0  0  0
  -26.6797  -25.9235   19.8971 C   0  0  0  0  0  0  0  0  0  0  0  0
  -29.1799  -20.7024   21.6378 C   0  0  0  0  0  0  0  0  0  0  0  0
  -29.1190  -17.9149   21.7320 C   0  0  0  0  0  0  0  0  0  0  0  0
  -22.6508   -7.9222   21.1860 C   0  0  0  0  0  0  0  0  0  0  0  0
  -27.9277  -24.0147   20.7391 C   0  0  0  0  0  0  0  0  0  0  0  0
  -21.8358   -6.0503   22.3496 C   0  0  0  0  0  0  0  0  0  0  0  0
  -21.4441   -4.7215   24.7711 C   0  0  0  0  0  0  0  0  0  0  0  0
  -22.3979   -4.7898   22.5523 C   0  0  0  0  0  0  0  0  0  0  0  0
  -29.1271  -18.5711   20.5012 C   0  0  0  0  0  0  0  0  0  0  0  0
  -29.1413  -18.6524   22.9157 C   0  0  0  0  0  0  0  0  0  0  0  0
  -24.5815  -11.6847   21.3041 C   0  0  0  0  0  0  0  0  0  0  0  0
  -25.2110  -13.7264   21.8238 C   0  0  0  0  0  0  0  0  0  0  0  0
  -23.3864  -12.8252   23.2754 C   0  0  0  0  0  0  0  0  0  0  0  0
  -25.2940  -28.7344   21.2412 C   0  0  0  0  0  0  0  0  0  0  0  0
  -24.5439  -28.5327   18.0918 C   0  0  0  0  0  0  0  0  0  0  0  0
  -24.7328  -26.7699   15.1757 C   0  0  0  0  0  0  0  0  0  0  0  0
  -30.5891  -14.9118   20.4137 C   0  0  0  0  0  0  0  0  0  0  0  0
  -23.6943  -32.9273   23.6740 C   0  0  0  0  0  0  0  0  0  0  0  0
  -27.5497  -28.2701   20.2154 C   0  0  0  0  0  0  0  0  0  0  0  0
  -25.4708  -26.4469   19.1670 C   0  0  0  0  0  0  0  0  0  0  0  0
  -23.1711  -32.0621   22.5303 C   0  0  0  0  0  0  0  0  0  0  0  0
  -28.1449  -14.1602   17.7373 C   0  0  0  0  0  0  0  0  0  0  0  0
  -23.2096  -30.5868   22.9163 C   0  0  0  0  0  0  0  0  0  0  0  0
  -27.0152  -13.4722   18.5017 C   0  0  0  0  0  0  0  0  0  0  0  0
  -29.4955  -13.9575   18.4175 C   0  0  0  0  0  0  0  0  0  0  0  0
  -28.3883  -13.6828   20.6113 C   0  0  0  0  0  0  0  0  0  0  0  0
  -24.6453  -30.1276   23.1981 C   0  0  1  0  0  0  0  0  0  0  0  0
  -26.1157  -28.7361   19.9832 C   0  0  1  0  0  0  0  0  0  0  0  0
  -27.0071  -13.9068   19.9776 C   0  0  2  0  0  0  0  0  0  0  0  0
  -23.9903  -26.8403   12.7797 C   0  0  0  0  0  0  0  0  0  0  0  0
  -21.7289  -27.7192   18.9428 C   0  0  0  0  0  0  0  0  0  0  0  0
  -21.3358  -26.8993   16.6101 C   0  0  0  0  0  0  0  0  0  0  0  0
  -21.8171  -29.3129   17.0175 C   0  0  0  0  0  0  0  0  0  0  0  0
  -31.5335  -16.4585   22.0857 C   0  0  0  0  0  0  0  0  0  0  0  0
  -27.5235  -26.7994   14.1907 C   0  0  0  0  0  0  0  0  0  0  0  0
  -29.0856  -16.4178   21.7826 C   0  0  0  0  0  0  0  0  0  0  0  0
  -29.2121  -22.2017   21.5871 C   0  0  0  0  0  0  0  0  0  1  0  0
  -23.6801  -27.6203   17.2549 C   0  0  1  0  0  0  0  0  0  0  0  0
  -25.0944  -27.1943   13.7637 C   0  0  2  0  0  0  0  0  0  0  0  0
  -22.1622  -27.8778   17.4717 C   0  0  0  0  0  0  0  0  0  0  0  0
  -25.5455  -11.9715   20.4252 N   0  0  0  0  0  0  0  0  0  0  0  0
  -25.9082  -13.2196   20.7668 N   0  0  0  0  0  0  0  0  0  0  0  0
  -25.4036  -27.9089   19.0071 N   0  0  0  0  0  0  0  0  0  0  0  0
  -29.4480  -14.3377   19.8297 N   0  0  0  0  0  0  0  0  0  0  0  0
  -25.4490  -14.9679   22.2975 N   0  0  0  0  0  0  0  0  0  0  0  0
  -22.5584  -11.7223   23.5250 N   0  0  0  0  0  0  0  0  0  0  0  0
  -25.3601  -29.9140   21.9580 N   0  0  0  0  0  0  0  0  0  0  0  0
  -24.1239  -27.7900   15.8755 N   0  0  0  0  0  0  0  0  0  0  0  0
  -30.3820  -15.8278   21.4561 N   0  0  0  0  0  0  0  0  0  0  0  0
  -26.3488  -26.5197   13.3253 N   0  3  0  0  0  0  0  0  0  0  0  0
  -23.2688  -13.8540   23.9835 O   0  0  0  0  0  0  0  0  0  0  0  0
  -24.6467  -27.7374   21.5388 O   0  0  0  0  0  0  0  0  0  0  0  0
  -24.4640  -29.7535   17.9341 O   0  0  0  0  0  0  0  0  0  0  0  0
  -24.9639  -25.6447   15.6128 O   0  0  0  0  0  0  0  0  0  0  0  0
  -31.7277  -14.6294   20.0190 O   0  0  0  0  0  0  0  0  0  0  0  0
  -22.0301   -6.7115   21.1485 O   0  0  0  0  0  0  0  0  0  0  0  0
  -28.0515  -22.6692   20.9010 O   0  0  0  0  0  0  0  0  0  1  0  0
  -21.2572   -4.0842   25.9343 F   0  0  0  0  0  0  0  0  0  0  0  0
  -23.1279   -4.2127   21.5881 F   0  0  0  0  0  0  0  0  0  0  0  0
  -29.0998  -17.6973   19.0118 Cl  0  0  0  0  0  0  0  0  0  0  0  0
  -29.1313  -17.8808   24.4607 Cl  0  0  0  0  0  0  0  0  0  0  0  0
  1  2  1  0  0  0  0
  1  5  2  0  0  0  0
  2  6  2  0  0  0  0
  3  8  2  0  0  0  0
  3 17  1  0  0  0  0
  4  9  1  0  0  0  0
  4 17  2  0  0  0  0
  5 19  1  0  0  0  0
  6 21  1  0  0  0  0
  7 10  2  0  0  0  0
  7 20  1  0  0  0  0
  8 25  1  0  0  0  0
  9 25  2  0  0  0  0
 10 26  1  0  0  0  0
 11 12  2  0  0  0  0
 11 27  1  0  0  0  0
 12 28  1  0  0  0  0
 13 22  1  0  0  0  0
 13 26  2  0  0  0  0
 14 23  1  0  0  0  0
 14 30  2  0  0  0  0
 15 23  2  0  0  0  0
 15 31  1  0  0  0  0
 16 28  2  0  0  0  0
 16 29  1  0  0  0  0
 17 32  1  0  0  0  0
 18 32  1  0  0  0  0
 18 33  2  0  0  0  0
 18 34  1  0  0  0  0
 19 21  2  0  0  0  0
 19 39  1  0  0  0  0
 20 22  2  0  0  0  0
 20 40  1  0  0  0  0
 21 48  1  0  0  0  0
 22 41  1  0  0  0  0
 23 58  1  0  0  0  0
 24 30  1  0  0  0  0
 24 31  2  0  0  0  0
 24 57  1  0  0  0  0
 25 77  1  0  0  0  0
 26 78  1  0  0  0  0
 27 29  2  0  0  0  0
 27 77  1  0  0  0  0
 28 79  1  0  0  0  0
 29 80  1  0  0  0  0
 30 81  1  0  0  0  0
 31 82  1  0  0  0  0
 32 62  2  0  0  0  0
 33 63  1  0  0  0  0
 33 66  1  0  0  0  0
 34 67  1  0  0  0  0
 34 72  2  0  0  0  0
 35 49  1  0  0  0  0
 35 68  1  0  0  0  0
 35 73  2  0  0  0  0
 36 59  1  0  0  0  0
 36 64  1  0  0  0  0
 36 74  2  0  0  0  0
 37 60  1  0  0  0  0
 37 69  1  0  0  0  0
 37 75  2  0  0  0  0
 38 65  1  0  0  0  0
 38 70  1  0  0  0  0
 38 76  2  0  0  0  0
 39 42  1  0  0  0  0
 40 49  1  0  0  0  0
 41 64  1  0  0  0  0
 42 44  1  0  0  0  0
 43 45  1  0  0  0  0
 43 46  1  0  0  0  0
 44 48  1  0  0  0  0
 45 50  1  0  0  0  0
 46 65  1  0  0  0  0
 47 50  1  0  0  0  0
 47 65  1  0  0  0  0
 48 68  1  0  0  0  0
 49 64  1  0  0  0  0
 50 63  1  0  0  0  0
 51 60  1  0  0  0  0
 52 61  1  0  0  0  0
 53 61  1  0  0  0  0
 54 61  1  0  0  0  0
 55 70  1  0  0  0  0
 56 71  1  0  0  0  0
 57 70  1  0  0  0  0
 58 78  1  0  0  0  0
 59 61  1  0  0  0  0
 59 69  1  0  0  0  0
 60 71  1  0  0  0  0
 62 63  1  0  0  0  0
M  CHG  1  71   1
M  ISO  4  38 100  58 101  70 100  78 101
M  END
> <Batch ID>
0104

> <Smiles>
CNC(C)C(=O)NC(C(=O)N1Cc2cc([101O:1][101CH2:1]c3cc(Cl)c(C[100N:0](C)[100C:0](=O)N4CCCC(n5nc(-c6ccc(Oc7ccc(F)cc7F)cc6)c(C(N)=O)c5N)C4)c(Cl)c3)ccc2CC1C(=O)NC1CCCc2ccccc21)C(C)(C)C

> <Shape>
0.333

> <Color>
0.120

> <Negative vol penalty>
0.000

$$$$

  -OEChem-04052319433D

 77 84  0     1  0  0  0  0  0999 V2000
  -25.0891  -35.3411   22.1711 C   0  0  0  0  0  0  0  0  0  0  0  0
  -25.7997  -34.1478   22.0907 C   0  0  0  0  0  0  0  0  0  0  0  0
  -24.1740  -13.6774   20.5121 C   0  0  0  0  0  0  0  0  0  0  0  0
  -26.5650  -13.3816   20.6934 C   0  0  0  0  0  0  0  0  0  0  0  0
  -23.8000  -35.3490   22.7022 C   0  0  0  0  0  0  0  0  0  0  0  0
  -25.2220  -32.9618   22.5425 C   0  0  0  0  0  0  0  0  0  0  0  0
  -25.9278  -29.1104   19.3310 C   0  0  0  0  0  0  0  0  0  0  0  0
  -24.0206  -12.3073   20.3005 C   0  0  0  0  0  0  0  0  0  0  0  0
  -26.4115  -12.0114   20.4819 C   0  0  0  0  0  0  0  0  0  0  0  0
  -27.1791  -28.4956   19.3393 C   0  0  0  0  0  0  0  0  0  0  0  0
  -22.9656   -8.8360   20.0720 C   0  0  0  0  0  0  0  0  0  0  0  0
  -21.9485   -8.1823   20.7675 C   0  0  0  0  0  0  0  0  0  0  0  0
  -26.2879  -26.7137   20.6993 C   0  0  0  0  0  0  0  0  0  0  0  0
  -22.9625   -8.8329   22.8617 C   0  0  0  0  0  0  0  0  0  0  0  0
  -25.4463  -14.2146   20.7085 C   0  0  0  0  0  0  0  0  0  0  0  0
  -25.5958  -16.3063   22.1611 C   0  0  0  0  0  0  0  0  0  0  0  0
  -23.2025  -34.1609   23.1519 C   0  0  0  0  0  0  0  0  0  0  0  0
  -24.8480  -28.5361   20.0171 C   0  0  0  0  0  0  0  0  0  0  0  0
  -23.9242  -32.9540   23.0814 C   0  0  0  0  0  0  0  0  0  0  0  0
  -25.0233  -27.3219   20.6961 C   0  0  0  0  0  0  0  0  0  0  0  0
  -25.1393  -11.4743   20.2854 C   0  0  0  0  0  0  0  0  0  0  0  0
  -27.3600  -27.2986   20.0259 C   0  0  0  0  0  0  0  0  0  0  0  0
  -23.9812   -9.4880   20.7713 C   0  0  0  0  0  0  0  0  0  0  0  0
  -21.9469   -8.1808   22.1624 C   0  0  0  0  0  0  0  0  0  0  0  0
  -23.9797   -9.4865   22.1661 C   0  0  0  0  0  0  0  0  0  0  0  0
  -25.6055  -15.6299   20.9265 C   0  0  0  0  0  0  0  0  0  0  0  0
  -25.7849  -17.6260   21.8311 C   0  0  0  0  0  0  0  0  0  0  0  0
  -25.4306  -15.7879   23.4876 C   0  0  0  0  0  0  0  0  0  0  0  0
  -22.9910  -29.4379   22.4341 C   0  0  0  0  0  0  0  0  0  0  0  0
  -21.3838  -26.7165   21.7040 C   0  0  0  0  0  0  0  0  0  0  0  0
  -21.4387  -23.6087   20.2951 C   0  0  0  0  0  0  0  0  0  0  0  0
  -28.8722  -21.2304   18.8175 C   0  0  0  0  0  0  0  0  0  0  0  0
  -21.8248  -34.2269   23.7619 C   0  0  0  0  0  0  0  0  0  0  0  0
  -23.4980  -29.1980   19.9762 C   0  0  0  0  0  0  0  0  0  0  0  0
  -23.8912  -26.6539   21.4314 C   0  0  0  0  0  0  0  0  0  0  0  0
  -21.1421  -32.8661   23.8732 C   0  0  0  0  0  0  0  0  0  0  0  0
  -25.6691  -19.9640   17.3585 C   0  0  0  0  0  0  0  0  0  0  0  0
  -22.1038  -31.8320   24.4499 C   0  0  0  0  0  0  0  0  0  0  0  0
  -25.4165  -18.7359   18.2318 C   0  0  0  0  0  0  0  0  0  0  0  0
  -27.1596  -20.2570   17.2362 C   0  0  0  0  0  0  0  0  0  0  0  0
  -27.6042  -19.2017   19.4283 C   0  0  0  0  0  0  0  0  0  0  0  0
  -23.3223  -31.6429   23.5383 C   0  0  1  0  0  0  0  0  0  0  0  0
  -22.5968  -28.7894   21.1373 C   0  0  1  0  0  0  0  0  0  0  0  0
  -26.1100  -18.8796   19.5972 C   0  0  2  0  0  0  0  0  0  0  0  0
  -19.9837  -21.6056   19.8852 C   0  0  0  0  0  0  0  0  0  0  0  0
  -31.1842  -25.4135   19.9040 C   0  0  0  0  0  0  0  0  0  0  0  0
  -21.6825  -25.9037   24.6298 C   0  0  0  0  0  0  0  0  0  0  0  0
  -21.0885  -23.5634   23.9679 C   0  0  0  0  0  0  0  0  0  0  0  0
  -19.4431  -25.4081   23.6328 C   0  0  0  0  0  0  0  0  0  0  0  0
  -28.7461  -22.0074   16.4134 C   0  0  0  0  0  0  0  0  0  0  0  0
  -21.7106  -23.8671   17.3594 C   0  0  0  0  0  0  0  0  0  0  0  0
  -29.4303  -24.4506   18.3201 C   0  0  0  0  0  0  0  0  0  0  0  0
  -30.1975  -23.1596   18.0420 C   0  0  0  0  0  0  0  0  0  0  0  0
  -29.4131  -26.8973   18.8947 C   0  0  0  0  0  0  0  0  0  1  0  0
  -21.4753  -25.2726   22.1348 C   0  0  1  0  0  0  0  0  0  0  0  0
  -20.4914  -22.9254   19.3255 C   0  0  2  0  0  0  0  0  0  0  0  0
  -30.3078  -25.6689   18.6729 C   0  0  1  0  0  0  0  0  0  0  0  0
  -20.9444  -25.0503   23.5792 C   0  0  0  0  0  0  0  0  0  0  0  0
  -25.7864  -16.4522   19.8895 N   0  0  0  0  0  0  0  0  0  0  0  0
  -25.8919  -17.6588   20.4718 N   0  0  0  0  0  0  0  0  0  0  0  0
  -22.5919  -27.3433   21.3672 N   0  0  0  0  0  0  0  0  0  0  0  0
  -27.8022  -20.3595   18.5533 N   0  0  0  0  0  0  0  0  0  0  0  0
  -25.8684  -18.7502   22.5740 N   0  0  0  0  0  0  0  0  0  0  0  0
  -25.2470  -14.4076   23.6475 N   0  0  0  0  0  0  0  0  0  0  0  0
  -22.9782  -30.8193   22.3991 N   0  0  0  0  0  0  0  0  0  0  0  0
  -20.7765  -24.4974   21.1154 N   0  0  0  0  0  0  0  0  0  0  0  0
  -29.3176  -22.0348   17.7578 N   0  0  0  0  0  0  0  0  0  0  0  0
  -21.1809  -22.6534   18.0326 N   0  3  0  0  0  0  0  0  0  0  0  0
  -25.4290  -16.5288   24.4999 O   0  0  0  0  0  0  0  0  0  0  0  0
  -23.2837  -28.7370   23.3957 O   0  0  0  0  0  0  0  0  0  0  0  0
  -20.2802  -27.2659   21.6608 O   0  0  0  0  0  0  0  0  0  0  0  0
  -22.6449  -23.3745   20.3246 O   0  0  0  0  0  0  0  0  0  0  0  0
  -29.3920  -21.2931   19.9390 O   0  0  0  0  0  0  0  0  0  0  0  0
  -24.9899  -10.1372   20.0793 O   0  0  0  0  0  0  0  0  0  0  0  0
  -28.5805  -26.6967   20.0361 O   0  0  0  0  0  0  0  0  0  1  0  0
  -20.9693   -7.5543   22.8302 F   0  0  0  0  0  0  0  0  0  0  0  0
  -24.9521  -10.1122   22.8434 F   0  0  0  0  0  0  0  0  0  0  0  0
  1  2  1  0  0  0  0
  1  5  2  0  0  0  0
  2  6  2  0  0  0  0
  3  8  2  0  0  0  0
  3 15  1  0  0  0  0
  4  9  1  0  0  0  0
  4 15  2  0  0  0  0
  5 17  1  0  0  0  0
  6 19  1  0  0  0  0
  7 10  2  0  0  0  0
  7 18  1  0  0  0  0
  8 21  1  0  0  0  0
  9 21  2  0  0  0  0
 10 22  1  0  0  0  0
 11 12  2  0  0  0  0
 11 23  1  0  0  0  0
 12 24  1  0  0  0  0
 13 20  1  0  0  0  0
 13 22  2  0  0  0  0
 14 24  2  0  0  0  0
 14 25  1  0  0  0  0
 15 26  1  0  0  0  0
 16 26  1  0  0  0  0
 16 27  2  0  0  0  0
 16 28  1  0  0  0  0
 17 19  2  0  0  0  0
 17 33  1  0  0  0  0
 18 20  2  0  0  0  0
 18 34  1  0  0  0  0
 19 42  1  0  0  0  0
 20 35  1  0  0  0  0
 21 74  1  0  0  0  0
 22 75  1  0  0  0  0
 23 25  2  0  0  0  0
 23 74  1  0  0  0  0
 24 76  1  0  0  0  0
 25 77  1  0  0  0  0
 26 59  2  0  0  0  0
 27 60  1  0  0  0  0
 27 63  1  0  0  0  0
 28 64  1  0  0  0  0
 28 69  2  0  0  0  0
 29 43  1  0  0  0  0
 29 65  1  0  0  0  0
 29 70  2  0  0  0  0
 30 55  1  0  0  0  0
 30 61  1  0  0  0  0
 30 71  2  0  0  0  0
 31 56  1  0  0  0  0
 31 66  1  0  0  0  0
 31 72  2  0  0  0  0
 32 62  1  0  0  0  0
 32 67  1  0  0  0  0
 32 73  2  0  0  0  0
 33 36  1  0  0  0  0
 34 43  1  0  0  0  0
 35 61  1  0  0  0  0
 36 38  1  0  0  0  0
 37 39  1  0  0  0  0
 37 40  1  0  0  0  0
 38 42  1  0  0  0  0
 39 44  1  0  0  0  0
 40 62  1  0  0  0  0
 41 44  1  0  0  0  0
 41 62  1  0  0  0  0
 42 65  1  0  0  0  0
 43 61  1  0  0  0  0
 44 60  1  0  0  0  0
 45 56  1  0  0  0  0
 46 57  1  0  0  0  0
 47 58  1  0  0  0  0
 48 58  1  0  0  0  0
 49 58  1  0  0  0  0
 50 67  1  0  0  0  0
 51 68  1  0  0  0  0
 52 53  1  0  0  0  0
 52 57  1  0  0  0  0
 53 67  1  0  0  0  0
 54 57  1  0  0  0  0
 54 75  1  0  0  0  0
 55 58  1  0  0  0  0
 55 66  1  0  0  0  0
 56 68  1  0  0  0  0
 59 60  1  0  0  0  0
M  CHG  1  68   1
M  ISO  4  32 100  54 101  67 100  75 101
M  END
> <Batch ID>
0104

> <Smiles>
CNC(C)C(=O)NC(C(=O)N1Cc2cc([101O:1][101CH2:1]C(C)CC[100N:0](C)[100C:0](=O)N3CCCC(n4nc(-c5ccc(Oc6ccc(F)cc6F)cc5)c(C(N)=O)c4N)C3)ccc2CC1C(=O)NC1CCCc2ccccc21)C(C)(C)C

> <Shape>
0.244

> <Color>
0.108

> <Negative vol penalty>
0.000

$$$$

  -OEChem-04052319432D

  0  0  0     0  0  0  0  0  0999 V2000
M  END
$$$$

  -OEChem-04052319433D

 88 96  0     1  0  0  0  0  0999 V2000
  -18.4755   -9.2868   20.8863 C   0  0  0  0  0  0  0  0  0  0  0  0
  -18.4397  -10.5658   20.3399 C   0  0  0  0  0  0  0  0  0  0  0  0
  -29.4304  -25.7971   19.2181 C   0  0  0  0  0  0  0  0  0  0  0  0
  -27.7993  -24.1910   19.9909 C   0  0  0  0  0  0  0  0  0  0  0  0
  -19.3714   -8.9937   21.9136 C   0  0  0  0  0  0  0  0  0  0  0  0
  -19.2991  -11.5527   20.8214 C   0  0  0  0  0  0  0  0  0  0  0  0
  -22.9697  -17.3063   18.6445 C   0  0  0  0  0  0  0  0  0  0  0  0
  -30.4585  -24.9235   19.5723 C   0  0  0  0  0  0  0  0  0  0  0  0
  -28.8274  -23.3173   20.3451 C   0  0  0  0  0  0  0  0  0  0  0  0
  -23.1593  -18.6490   18.9686 C   0  0  0  0  0  0  0  0  0  0  0  0
  -30.8922  -21.1418   18.7881 C   0  0  0  0  0  0  0  0  0  0  0  0
  -30.7516  -19.8002   18.4332 C   0  0  0  0  0  0  0  0  0  0  0  0
  -24.7199  -18.0064   20.6922 C   0  0  0  0  0  0  0  0  0  0  0  0
  -30.8688  -19.1716   20.7631 C   0  0  0  0  0  0  0  0  0  0  0  0
  -20.3079  -26.0477   22.3571 C   0  0  0  0  0  0  0  0  0  0  0  0
  -28.1008  -25.4309   19.4275 C   0  0  0  0  0  0  0  0  0  0  0  0
  -26.3760  -26.4090   17.8225 C   0  0  0  0  0  0  0  0  0  0  0  0
  -20.2489   -9.9749   22.4013 C   0  0  0  0  0  0  0  0  0  0  0  0
  -23.6467  -16.3013   19.3502 C   0  0  0  0  0  0  0  0  0  0  0  0
  -20.2067  -11.2728   21.8571 C   0  0  0  0  0  0  0  0  0  0  0  0
  -24.5391  -16.6518   20.3734 C   0  0  0  0  0  0  0  0  0  0  0  0
  -20.5693  -26.7434   23.5168 C   0  0  0  0  0  0  0  0  0  0  0  0
  -20.3731  -25.8505   24.5991 C   0  0  0  0  0  0  0  0  0  0  0  0
  -30.1570  -23.6836   20.1357 C   0  0  0  0  0  0  0  0  0  0  0  0
  -24.0323  -18.9991   19.9945 C   0  0  0  0  0  0  0  0  0  0  0  0
  -31.0212  -21.4983   20.1305 C   0  0  0  0  0  0  0  0  0  0  0  0
  -30.7398  -18.8151   19.4207 C   0  0  0  0  0  0  0  0  0  0  0  0
  -31.0095  -20.5133   21.1179 C   0  0  0  0  0  0  0  0  0  0  0  0
  -27.0384  -26.3331   19.0624 C   0  0  0  0  0  0  0  0  0  0  0  0
  -19.9979  -24.6363   24.0678 C   0  0  0  0  0  0  0  0  0  0  0  0
  -25.4582  -27.4178   17.9848 C   0  0  0  0  0  0  0  0  0  0  0  0
  -26.5726  -25.6365   16.6308 C   0  0  0  0  0  0  0  0  0  0  0  0
  -22.7589  -13.8569   21.1779 C   0  0  0  0  0  0  0  0  0  0  0  0
  -25.9281  -13.1673   21.1196 C   0  0  0  0  0  0  0  0  0  0  0  0
  -29.1281  -14.2800   20.7098 C   0  0  0  0  0  0  0  0  0  0  0  0
  -22.7334  -29.7166   22.7954 C   0  0  0  0  0  0  0  0  0  0  0  0
  -21.1670   -9.6238   23.5452 C   0  0  0  0  0  0  0  0  0  0  0  0
  -23.4516  -14.8590   18.9706 C   0  0  0  0  0  0  0  0  0  0  0  0
  -25.3055  -15.6120   21.1480 C   0  0  0  0  0  0  0  0  0  0  0  0
  -22.3036  -10.6234   23.7429 C   0  0  0  0  0  0  0  0  0  0  0  0
  -24.7375  -31.4668   20.4296 C   0  0  0  0  0  0  0  0  0  0  0  0
  -21.7716  -12.0524   23.6980 C   0  0  0  0  0  0  0  0  0  0  0  0
  -25.4946  -30.3564   19.6991 C   0  0  0  0  0  0  0  0  0  0  0  0
  -24.5541  -31.1446   21.9110 C   0  0  0  0  0  0  0  0  0  0  0  0
  -24.6891  -28.7260   21.4573 C   0  0  0  0  0  0  0  0  0  0  0  0
  -21.1403  -12.3635   22.3357 C   0  0  1  0  0  0  0  0  0  0  0  0
  -23.8023  -13.8919   20.0972 C   0  0  1  0  0  0  0  0  0  0  0  0
  -24.8496  -28.9799   19.9487 C   0  0  2  0  0  0  0  0  0  0  0  0
  -19.6707  -23.3611   24.7401 C   0  0  0  0  0  0  0  0  0  0  0  0
  -23.1544  -24.6898   19.0700 C   0  0  0  0  0  0  0  0  0  0  0  0
  -19.5656  -27.2547   26.5304 C   0  0  0  0  0  0  0  0  0  0  0  0
  -21.9865  -26.5638   26.3998 C   0  0  0  0  0  0  0  0  0  0  0  0
  -31.6240  -14.1585   20.4785 C   0  0  0  0  0  0  0  0  0  0  0  0
  -25.8444  -13.1116   24.1692 C   0  0  0  0  0  0  0  0  0  0  0  0
  -28.3429  -13.2724   24.1712 C   0  0  0  0  0  0  0  0  0  0  0  0
  -27.2225  -11.3017   23.1302 C   0  0  0  0  0  0  0  0  0  0  0  0
  -28.9537  -13.8800   17.7826 C   0  0  0  0  0  0  0  0  0  0  0  0
  -20.9778  -28.1597   23.6035 C   0  0  0  0  0  0  0  0  0  0  0  0
  -21.9118  -23.9821   19.5920 C   0  0  0  0  0  0  0  0  0  0  0  0
  -20.7558  -22.6996   21.5162 C   0  0  0  0  0  0  0  0  0  0  0  0
  -23.2064  -22.3354   21.1004 C   0  0  0  0  0  0  0  0  0  0  0  0
  -19.5990  -23.6834   21.7202 C   0  0  0  0  0  0  0  0  0  0  0  0
  -23.1200  -21.1930   20.0954 C   0  0  0  0  0  0  0  0  0  1  0  0
  -20.5394  -26.1617   26.0339 C   0  0  0  0  0  0  0  0  0  0  0  0
  -27.1198  -13.5438   21.9663 C   0  0  1  0  0  0  0  0  0  0  0  0
  -30.2858  -13.7383   19.8907 C   0  0  2  0  0  0  0  0  0  0  0  0
  -22.0549  -23.3592   20.9973 C   0  0  1  0  0  0  0  0  0  0  0  0
  -27.1166  -12.8271   23.3461 C   0  0  0  0  0  0  0  0  0  0  0  0
  -26.5805  -27.2230   19.9469 N   0  0  0  0  0  0  0  0  0  0  0  0
  -19.9618  -24.7678   22.7042 N   0  0  0  0  0  0  0  0  0  0  0  0
  -25.6206  -27.8677   19.2620 N   0  0  0  0  0  0  0  0  0  0  0  0
  -25.0758  -14.2152   20.7436 N   0  0  0  0  0  0  0  0  0  0  0  0
  -23.9363  -29.8270   22.0786 N   0  0  0  0  0  0  0  0  0  0  0  0
  -24.5362  -27.9553   17.1580 N   0  0  0  0  0  0  0  0  0  0  0  0
  -27.5578  -24.6396   16.6357 N   0  0  0  0  0  0  0  0  0  0  0  0
  -22.1677  -12.6197   21.3491 N   0  0  0  0  0  0  0  0  0  0  0  0
  -28.3004  -13.2706   21.1539 N   0  0  0  0  0  0  0  0  0  0  0  0
  -22.2122  -28.4329   22.9018 N   0  0  0  0  0  0  0  0  0  0  0  0
  -30.2092  -14.2412   18.4899 N   0  3  0  0  0  0  0  0  0  0  0  0
  -25.9061  -25.8357   15.5870 O   0  0  0  0  0  0  0  0  0  0  0  0
  -22.5099  -14.8764   21.8106 O   0  0  0  0  0  0  0  0  0  0  0  0
  -25.7634  -11.9879   20.7976 O   0  0  0  0  0  0  0  0  0  0  0  0
  -28.9756  -15.4783   20.9363 O   0  0  0  0  0  0  0  0  0  0  0  0
  -22.1631  -30.6906   23.2984 O   0  0  0  0  0  0  0  0  0  0  0  0
  -31.1599  -22.8308   20.4812 O   0  0  0  0  0  0  0  0  0  0  0  0
  -24.2186  -20.3088   20.3133 O   0  0  0  0  0  0  0  0  0  1  0  0
  -30.6032  -17.5269   19.0799 F   0  0  0  0  0  0  0  0  0  0  0  0
  -31.1318  -20.8498   22.4093 F   0  0  0  0  0  0  0  0  0  0  0  0
  1  2  1  0  0  0  0
  1  5  2  0  0  0  0
  2  6  2  0  0  0  0
  3  8  2  0  0  0  0
  3 16  1  0  0  0  0
  4  9  1  0  0  0  0
  4 16  2  0  0  0  0
  5 18  1  0  0  0  0
  6 20  1  0  0  0  0
  7 10  2  0  0  0  0
  7 19  1  0  0  0  0
  8 24  1  0  0  0  0
  9 24  2  0  0  0  0
 10 25  1  0  0  0  0
 11 12  2  0  0  0  0
 11 26  1  0  0  0  0
 12 27  1  0  0  0  0
 13 21  1  0  0  0  0
 13 25  2  0  0  0  0
 14 27  2  0  0  0  0
 14 28  1  0  0  0  0
 15 22  2  0  0  0  0
 15 70  1  0  0  0  0
 16 29  1  0  0  0  0
 17 29  1  0  0  0  0
 17 31  2  0  0  0  0
 17 32  1  0  0  0  0
 18 20  2  0  0  0  0
 18 37  1  0  0  0  0
 19 21  2  0  0  0  0
 19 38  1  0  0  0  0
 20 46  1  0  0  0  0
 21 39  1  0  0  0  0
 22 23  1  0  0  0  0
 22 58  1  0  0  0  0
 23 30  2  0  0  0  0
 23 64  1  0  0  0  0
 24 85  1  0  0  0  0
 25 86  1  0  0  0  0
 26 28  2  0  0  0  0
 26 85  1  0  0  0  0
 27 87  1  0  0  0  0
 28 88  1  0  0  0  0
 29 69  2  0  0  0  0
 30 49  1  0  0  0  0
 30 70  1  0  0  0  0
 31 71  1  0  0  0  0
 31 74  1  0  0  0  0
 32 75  1  0  0  0  0
 32 80  2  0  0  0  0
 33 47  1  0  0  0  0
 33 76  1  0  0  0  0
 33 81  2  0  0  0  0
 34 65  1  0  0  0  0
 34 72  1  0  0  0  0
 34 82  2  0  0  0  0
 35 66  1  0  0  0  0
 35 77  1  0  0  0  0
 35 83  2  0  0  0  0
 36 73  1  0  0  0  0
 36 78  1  0  0  0  0
 36 84  2  0  0  0  0
 37 40  1  0  0  0  0
 38 47  1  0  0  0  0
 39 72  1  0  0  0  0
 40 42  1  0  0  0  0
 41 43  1  0  0  0  0
 41 44  1  0  0  0  0
 42 46  1  0  0  0  0
 43 48  1  0  0  0  0
 44 73  1  0  0  0  0
 45 48  1  0  0  0  0
 45 73  1  0  0  0  0
 46 76  1  0  0  0  0
 47 72  1  0  0  0  0
 48 71  1  0  0  0  0
 50 59  1  0  0  0  0
 51 64  1  0  0  0  0
 52 64  1  0  0  0  0
 53 66  1  0  0  0  0
 54 68  1  0  0  0  0
 55 68  1  0  0  0  0
 56 68  1  0  0  0  0
 57 79  1  0  0  0  0
 58 78  1  0  0  0  0
 59 67  1  0  0  0  0
 60 62  1  0  0  0  0
 60 67  1  0  0  0  0
 61 63  1  0  0  0  0
 61 67  1  0  0  0  0
 62 70  1  0  0  0  0
 63 86  1  0  0  0  0
 65 68  1  0  0  0  0
 65 77  1  0  0  0  0
 66 79  1  0  0  0  0
 69 71  1  0  0  0  0
M  CHG  1  79   1
M  ISO  4  36 100  63 101  78 100  86 101
M  END
> <Batch ID>
0104

> <Smiles>
CCC(CCn1cc(C[100NH:0][100C:0](=O)N2CCCC(n3nc(-c4ccc(Oc5ccc(F)cc5F)cc4)c(C(N)=O)c3N)C2)c(C(C)C)c1C)C[101CH2:1][101O:1]c1ccc2c(c1)CN(C(=O)C(NC(=O)C(C)NC)C(C)(C)C)C(C(=O)NC1CCCc3ccccc31)C2

> <Shape>
0.216

> <Color>
0.055

> <Negative vol penalty>
0.000

$$$$

  -OEChem-04052319433D

 86 94  0     1  0  0  0  0  0999 V2000
  -21.0830  -23.3879   20.9213 C   0  0  0  0  0  0  0  0  0  0  0  0
  -22.4150  -23.0584   20.6916 C   0  0  0  0  0  0  0  0  0  0  0  0
  -22.9579  -29.7195   20.0659 C   0  0  0  0  0  0  0  0  0  0  0  0
  -23.1470  -28.1668   21.9072 C   0  0  0  0  0  0  0  0  0  0  0  0
  -20.2817  -22.5482   21.6938 C   0  0  0  0  0  0  0  0  0  0  0  0
  -22.9466  -21.8895   21.2351 C   0  0  0  0  0  0  0  0  0  0  0  0
  -27.1824  -18.2534   18.7166 C   0  0  0  0  0  0  0  0  0  0  0  0
  -21.6301  -29.9692   20.4128 C   0  0  0  0  0  0  0  0  0  0  0  0
  -21.8192  -28.4165   22.2541 C   0  0  0  0  0  0  0  0  0  0  0  0
  -28.5598  -18.1478   18.9048 C   0  0  0  0  0  0  0  0  0  0  0  0
  -18.7487  -27.4801   21.1931 C   0  0  0  0  0  0  0  0  0  0  0  0
  -17.9409  -26.3840   21.4961 C   0  0  0  0  0  0  0  0  0  0  0  0
  -28.2021  -16.3444   20.4665 C   0  0  0  0  0  0  0  0  0  0  0  0
  -31.4188  -22.9083   22.1658 C   0  0  0  0  0  0  0  0  0  0  0  0
  -32.1214  -20.6343   22.5123 C   0  0  0  0  0  0  0  0  0  0  0  0
  -17.5631  -27.2747   23.7100 C   0  0  0  0  0  0  0  0  0  0  0  0
  -23.7163  -28.8182   20.8131 C   0  0  0  0  0  0  0  0  0  0  0  0
  -26.2297  -29.2427   20.9141 C   0  0  0  0  0  0  0  0  0  0  0  0
  -20.8011  -21.3635   22.2390 C   0  0  0  0  0  0  0  0  0  0  0  0
  -26.3025  -17.4111   19.4114 C   0  0  0  0  0  0  0  0  0  0  0  0
  -22.1518  -21.0338   22.0166 C   0  0  0  0  0  0  0  0  0  0  0  0
  -26.8141  -16.4396   20.2835 C   0  0  0  0  0  0  0  0  0  0  0  0
  -31.4891  -21.7818   22.9779 C   0  0  0  0  0  0  0  0  0  0  0  0
  -21.0608  -29.3177   21.5069 C   0  0  0  0  0  0  0  0  0  0  0  0
  -29.0697  -17.1951   19.7820 C   0  0  0  0  0  0  0  0  0  0  0  0
  -18.9637  -28.4734   22.1485 C   0  0  0  0  0  0  0  0  0  0  0  0
  -17.3481  -26.2813   22.7546 C   0  0  0  0  0  0  0  0  0  0  0  0
  -18.3709  -28.3707   23.4069 C   0  0  0  0  0  0  0  0  0  0  0  0
  -25.0877  -28.5595   20.4549 C   0  0  0  0  0  0  0  0  0  0  0  0
  -31.9919  -22.8366   20.9064 C   0  0  0  0  0  0  0  0  0  0  0  0
  -32.6629  -20.6644   21.2373 C   0  0  0  0  0  0  0  0  0  0  0  0
  -27.2790  -28.6206   20.2828 C   0  0  0  0  0  0  0  0  0  0  0  0
  -26.3328  -30.3415   21.8294 C   0  0  0  0  0  0  0  0  0  0  0  0
  -23.9726  -17.8561   21.5274 C   0  0  0  0  0  0  0  0  0  0  0  0
  -23.5326  -14.6669   21.1303 C   0  0  0  0  0  0  0  0  0  0  0  0
  -24.8521  -11.6494   20.2358 C   0  0  0  0  0  0  0  0  0  0  0  0
  -29.8904  -23.9826   18.6051 C   0  0  0  0  0  0  0  0  0  0  0  0
  -19.9091  -20.5115   23.1067 C   0  0  0  0  0  0  0  0  0  0  0  0
  -24.8207  -17.5198   19.1772 C   0  0  0  0  0  0  0  0  0  0  0  0
  -25.9130  -15.4977   21.0381 C   0  0  0  0  0  0  0  0  0  0  0  0
  -20.4479  -19.1016   23.3349 C   0  0  0  0  0  0  0  0  0  0  0  0
  -27.3221  -25.2645   16.4985 C   0  0  0  0  0  0  0  0  0  0  0  0
  -21.9276  -19.1485   23.7022 C   0  0  0  0  0  0  0  0  0  0  0  0
  -26.6027  -26.2872   17.3797 C   0  0  0  0  0  0  0  0  0  0  0  0
  -27.7839  -24.0517   17.3034 C   0  0  0  0  0  0  0  0  0  0  0  0
  -27.8840  -25.3925   19.3688 C   0  0  0  0  0  0  0  0  0  0  0  0
  -22.7583  -19.7619   22.5685 C   0  0  1  0  0  0  0  0  0  0  0  0
  -23.9911  -16.9542   20.3258 C   0  0  1  0  0  0  0  0  0  0  0  0
  -27.4488  -26.6592   18.6122 C   0  0  2  0  0  0  0  0  0  0  0  0
  -31.9398  -21.5978   25.4511 C   0  0  0  0  0  0  0  0  0  0  0  0
  -29.7517  -20.7789   24.5042 C   0  0  0  0  0  0  0  0  0  0  0  0
  -24.2607   -9.2176   20.0510 C   0  0  0  0  0  0  0  0  0  0  0  0
  -33.9254  -19.5853   19.2544 C   0  0  0  0  0  0  0  0  0  0  0  0
  -34.5865  -19.1010   21.5938 C   0  0  0  0  0  0  0  0  0  0  0  0
  -23.7489  -14.3865   24.1609 C   0  0  0  0  0  0  0  0  0  0  0  0
  -24.1057  -11.9295   23.8383 C   0  0  0  0  0  0  0  0  0  0  0  0
  -21.9661  -12.9838   23.1081 C   0  0  0  0  0  0  0  0  0  0  0  0
  -25.3626  -11.6274   17.3207 C   0  0  0  0  0  0  0  0  0  0  0  0
  -31.9370  -24.0268   20.0081 C   0  0  0  0  0  0  0  0  0  0  0  0
  -32.4210  -18.1745   20.7099 C   0  0  0  0  0  0  0  0  0  0  0  0
  -31.1850  -18.2816   19.8180 C   0  0  0  0  0  0  0  0  0  1  0  0
  -30.8897  -21.8047   24.3431 C   0  0  0  0  0  0  0  0  0  0  0  0
  -24.0775  -13.4223   21.7885 C   0  0  1  0  0  0  0  0  0  0  0  0
  -24.3310  -10.5522   19.3252 C   0  0  2  0  0  0  0  0  0  0  0  0
  -33.3688  -19.4115   20.6879 C   0  0  0  0  0  0  0  0  0  0  0  0
  -23.4917  -13.1994   23.2113 C   0  0  0  0  0  0  0  0  0  0  0  0
  -25.3836  -27.5785   19.5980 N   0  0  0  0  0  0  0  0  0  0  0  0
  -32.6144  -21.7398   20.4194 N   0  0  0  0  0  0  0  0  0  0  0  0
  -26.7234  -27.6410   19.5136 N   0  0  0  0  0  0  0  0  0  0  0  0
  -24.4713  -15.6476   20.7799 N   0  0  0  0  0  0  0  0  0  0  0  0
  -28.5825  -24.4730   18.4569 N   0  0  0  0  0  0  0  0  0  0  0  0
  -28.6135  -28.8216   20.3162 N   0  0  0  0  0  0  0  0  0  0  0  0
  -25.1557  -30.8597   22.3864 N   0  0  0  0  0  0  0  0  0  0  0  0
  -22.9598  -18.7960   21.5099 N   0  0  0  0  0  0  0  0  0  0  0  0
  -23.8254  -12.3257   20.8599 N   0  0  0  0  0  0  0  0  0  0  0  0
  -30.5802  -24.4370   19.7224 N   0  0  0  0  0  0  0  0  0  0  0  0
  -25.2210  -10.3964   18.1401 N   0  3  0  0  0  0  0  0  0  0  0  0
  -27.4347  -30.8592   22.1315 O   0  0  0  0  0  0  0  0  0  0  0  0
  -24.8139  -17.7091   22.4062 O   0  0  0  0  0  0  0  0  0  0  0  0
  -22.3195  -14.7622   20.9279 O   0  0  0  0  0  0  0  0  0  0  0  0
  -26.0503  -11.8807   20.3818 O   0  0  0  0  0  0  0  0  0  0  0  0
  -30.4070  -23.2021   17.7983 O   0  0  0  0  0  0  0  0  0  0  0  0
  -19.7653  -29.5613   21.8458 O   0  0  0  0  0  0  0  0  0  0  0  0
  -30.4137  -17.0904   19.9680 O   0  0  0  0  0  0  0  0  0  1  0  0
  -16.5712  -25.2295   23.0449 F   0  0  0  0  0  0  0  0  0  0  0  0
  -18.5728  -29.3224   24.3285 F   0  0  0  0  0  0  0  0  0  0  0  0
  1  2  1  0  0  0  0
  1  5  2  0  0  0  0
  2  6  2  0  0  0  0
  3  8  2  0  0  0  0
  3 17  1  0  0  0  0
  4  9  1  0  0  0  0
  4 17  2  0  0  0  0
  5 19  1  0  0  0  0
  6 21  1  0  0  0  0
  7 10  2  0  0  0  0
  7 20  1  0  0  0  0
  8 24  1  0  0  0  0
  9 24  2  0  0  0  0
 10 25  1  0  0  0  0
 11 12  2  0  0  0  0
 11 26  1  0  0  0  0
 12 27  1  0  0  0  0
 13 22  1  0  0  0  0
 13 25  2  0  0  0  0
 14 23  1  0  0  0  0
 14 30  2  0  0  0  0
 15 23  2  0  0  0  0
 15 31  1  0  0  0  0
 16 27  2  0  0  0  0
 16 28  1  0  0  0  0
 17 29  1  0  0  0  0
 18 29  1  0  0  0  0
 18 32  2  0  0  0  0
 18 33  1  0  0  0  0
 19 21  2  0  0  0  0
 19 38  1  0  0  0  0
 20 22  2  0  0  0  0
 20 39  1  0  0  0  0
 21 47  1  0  0  0  0
 22 40  1  0  0  0  0
 23 62  1  0  0  0  0
 24 83  1  0  0  0  0
 25 84  1  0  0  0  0
 26 28  2  0  0  0  0
 26 83  1  0  0  0  0
 27 85  1  0  0  0  0
 28 86  1  0  0  0  0
 29 67  2  0  0  0  0
 30 59  1  0  0  0  0
 30 68  1  0  0  0  0
 31 65  1  0  0  0  0
 31 68  2  0  0  0  0
 32 69  1  0  0  0  0
 32 72  1  0  0  0  0
 33 73  1  0  0  0  0
 33 78  2  0  0  0  0
 34 48  1  0  0  0  0
 34 74  1  0  0  0  0
 34 79  2  0  0  0  0
 35 63  1  0  0  0  0
 35 70  1  0  0  0  0
 35 80  2  0  0  0  0
 36 64  1  0  0  0  0
 36 75  1  0  0  0  0
 36 81  2  0  0  0  0
 37 71  1  0  0  0  0
 37 76  1  0  0  0  0
 37 82  2  0  0  0  0
 38 41  1  0  0  0  0
 39 48  1  0  0  0  0
 40 70  1  0  0  0  0
 41 43  1  0  0  0  0
 42 44  1  0  0  0  0
 42 45  1  0  0  0  0
 43 47  1  0  0  0  0
 44 49  1  0  0  0  0
 45 71  1  0  0  0  0
 46 49  1  0  0  0  0
 46 71  1  0  0  0  0
 47 74  1  0  0  0  0
 48 70  1  0  0  0  0
 49 69  1  0  0  0  0
 50 62  1  0  0  0  0
 51 62  1  0  0  0  0
 52 64  1  0  0  0  0
 53 65  1  0  0  0  0
 54 65  1  0  0  0  0
 55 66  1  0  0  0  0
 56 66  1  0  0  0  0
 57 66  1  0  0  0  0
 58 77  1  0  0  0  0
 59 76  1  0  0  0  0
 60 61  1  0  0  0  0
 60 65  1  0  0  0  0
 61 84  1  0  0  0  0
 63 66  1  0  0  0  0
 63 75  1  0  0  0  0
 64 77  1  0  0  0  0
 67 69  1  0  0  0  0
M  CHG  1  77   1
M  ISO  4  37 100  61 101  76 100  84 101
M  END
> <Batch ID>
0104

> <Smiles>
CNC(C)C(=O)NC(C(=O)N1Cc2cc([101O:1][101CH2:1]CC(C)(C)c3cc(C(C)C)cc(C[100NH:0][100C:0](=O)N4CCCC(n5nc(-c6ccc(Oc7ccc(F)cc7F)cc6)c(C(N)=O)c5N)C4)n3)ccc2CC1C(=O)NC1CCCc2ccccc21)C(C)(C)C

> <Shape>
0.222

> <Color>
0.071

> <Negative vol penalty>
0.000

$$$$

  -OEChem-04052319433D

 87 95  0     1  0  0  0  0  0999 V2000
  -28.6131  -34.2771   25.3997 C   0  0  0  0  0  0  0  0  0  0  0  0
  -29.3083  -33.4796   24.4964 C   0  0  0  0  0  0  0  0  0  0  0  0
  -22.4946  -15.4658   20.9485 C   0  0  0  0  0  0  0  0  0  0  0  0
  -22.8965  -13.1627   21.5579 C   0  0  0  0  0  0  0  0  0  0  0  0
  -27.4412  -33.8033   25.9879 C   0  0  0  0  0  0  0  0  0  0  0  0
  -28.8325  -32.2072   24.1815 C   0  0  0  0  0  0  0  0  0  0  0  0
  -28.5340  -27.5442   18.7517 C   0  0  0  0  0  0  0  0  0  0  0  0
  -21.4631  -15.5336   21.8850 C   0  0  0  0  0  0  0  0  0  0  0  0
  -21.8650  -13.2305   22.4944 C   0  0  0  0  0  0  0  0  0  0  0  0
  -28.8304  -26.2142   18.4566 C   0  0  0  0  0  0  0  0  0  0  0  0
  -18.9620  -16.4217   24.3691 C   0  0  0  0  0  0  0  0  0  0  0  0
  -18.9058  -17.5468   25.1917 C   0  0  0  0  0  0  0  0  0  0  0  0
  -26.7524  -25.5316   19.4740 C   0  0  0  0  0  0  0  0  0  0  0  0
  -21.1007  -17.0244   26.0559 C   0  0  0  0  0  0  0  0  0  0  0  0
  -23.2113  -14.2803   20.7849 C   0  0  0  0  0  0  0  0  0  0  0  0
  -24.1777  -14.4125   18.4277 C   0  0  0  0  0  0  0  0  0  0  0  0
  -26.9455  -32.5283   25.6728 C   0  0  0  0  0  0  0  0  0  0  0  0
  -27.3476  -27.8774   19.4210 C   0  0  0  0  0  0  0  0  0  0  0  0
  -27.6535  -31.7154   24.7671 C   0  0  0  0  0  0  0  0  0  0  0  0
  -26.4420  -26.8668   19.7741 C   0  0  0  0  0  0  0  0  0  0  0  0
  -21.1483  -14.4159   22.6580 C   0  0  0  0  0  0  0  0  0  0  0  0
  -27.9409  -25.2074   18.8203 C   0  0  0  0  0  0  0  0  0  0  0  0
  -20.0875  -15.5980   24.3899 C   0  0  0  0  0  0  0  0  0  0  0  0
  -19.9752  -17.8482   26.0351 C   0  0  0  0  0  0  0  0  0  0  0  0
  -21.1568  -15.8993   25.2333 C   0  0  0  0  0  0  0  0  0  0  0  0
  -24.2765  -14.2095   19.8172 C   0  0  0  0  0  0  0  0  0  0  0  0
  -25.4578  -14.2349   17.9628 C   0  0  0  0  0  0  0  0  0  0  0  0
  -23.0312  -14.7332   17.6287 C   0  0  0  0  0  0  0  0  0  0  0  0
  -26.6507  -29.2544   22.1998 C   0  0  0  0  0  0  0  0  0  0  0  0
  -23.6119  -29.0849   21.0775 C   0  0  0  0  0  0  0  0  0  0  0  0
  -21.3723  -27.5678   18.9968 C   0  0  0  0  0  0  0  0  0  0  0  0
  -30.8131  -14.7874   20.3486 C   0  0  0  0  0  0  0  0  0  0  0  0
  -25.7001  -32.0408   26.3699 C   0  0  0  0  0  0  0  0  0  0  0  0
  -27.0300  -29.3193   19.7082 C   0  0  0  0  0  0  0  0  0  0  0  0
  -25.1453  -27.1738   20.4761 C   0  0  0  0  0  0  0  0  0  0  0  0
  -25.0611  -30.8281   25.6982 C   0  0  0  0  0  0  0  0  0  0  0  0
  -29.5126  -11.9035   18.9279 C   0  0  0  0  0  0  0  0  0  0  0  0
  -29.0349  -18.7869   15.2855 C   0  0  0  0  0  0  0  0  0  0  0  0
  -26.1205  -29.7822   25.3656 C   0  0  0  0  0  0  0  0  0  0  0  0
  -28.0104  -12.1739   18.8572 C   0  0  0  0  0  0  0  0  0  0  0  0
  -29.3424  -18.6876   16.7677 C   0  0  0  0  0  0  0  0  0  0  0  0
  -30.0978  -12.4204   20.2367 C   0  0  0  0  0  0  0  0  0  0  0  0
  -28.3522  -14.1658   20.4040 C   0  0  0  0  0  0  0  0  0  0  0  0
  -28.0438  -19.9278   15.2273 C   0  0  0  0  0  0  0  0  0  0  0  0
  -27.1559  -30.3393   24.3812 C   0  0  1  0  0  0  0  0  0  0  0  0
  -26.0346  -29.4957   20.8507 C   0  0  1  0  0  0  0  0  0  0  0  0
  -27.7065  -13.6633   19.0963 C   0  0  2  0  0  0  0  0  0  0  0  0
  -28.0033  -18.9310   17.4633 C   0  0  2  0  0  0  0  0  0  0  0  0
  -18.9540  -27.6226   18.3289 C   0  0  0  0  0  0  0  0  0  0  0  0
  -25.9237  -17.9714   18.4796 C   0  0  0  0  0  0  0  0  0  0  0  0
  -22.8651  -27.6672   23.6742 C   0  0  0  0  0  0  0  0  0  0  0  0
  -20.7439  -26.9196   22.5743 C   0  0  0  0  0  0  0  0  0  0  0  0
  -21.1935  -29.3531   22.8880 C   0  0  0  0  0  0  0  0  0  0  0  0
  -25.6247  -21.4608   15.8148 C   0  0  0  0  0  0  0  0  0  0  0  0
  -25.6098  -20.4833   18.1294 C   0  0  0  0  0  0  0  0  0  0  0  0
  -31.4983  -17.1517   20.4838 C   0  0  0  0  0  0  0  0  0  0  0  0
  -22.0426  -28.2220   16.1894 C   0  0  0  0  0  0  0  0  0  0  0  0
  -28.4054  -17.4624   20.1538 C   0  0  0  0  0  0  0  0  0  0  0  0
  -28.1029  -16.7678   18.8203 C   0  0  0  0  0  0  0  0  0  0  0  0
  -27.5687  -21.9337   17.3443 C   0  0  0  0  0  0  0  0  0  0  0  0
  -29.1854  -16.5679   21.1135 C   0  0  0  0  0  0  0  0  0  0  0  0
  -27.1237  -23.0346   18.3037 C   0  0  0  0  0  0  0  0  0  1  0  0
  -22.5011  -28.0651   21.1492 C   0  0  1  0  0  0  0  0  0  0  0  0
  -20.3528  -28.1372   18.0269 C   0  0  2  0  0  0  0  0  0  0  0  0
  -27.2842  -17.6460   17.8481 C   0  0  2  0  0  0  0  0  0  0  0  0
  -21.8512  -27.9950   22.5599 C   0  0  0  0  0  0  0  0  0  0  0  0
  -26.4904  -20.9051   16.9514 C   0  0  0  0  0  0  0  0  0  0  0  0
  -25.5211  -13.9245   20.2094 N   0  0  0  0  0  0  0  0  0  0  0  0
  -26.2160  -13.9471   19.0594 N   0  0  0  0  0  0  0  0  0  0  0  0
  -24.8829  -28.5981   20.7406 N   0  0  0  0  0  0  0  0  0  0  0  0
  -29.7856  -13.8363   20.4338 N   0  0  0  0  0  0  0  0  0  0  0  0
  -25.9976  -14.2982   16.7271 N   0  0  0  0  0  0  0  0  0  0  0  0
  -22.2722  -13.6818   17.0968 N   0  0  0  0  0  0  0  0  0  0  0  0
  -26.6192  -30.3531   23.0373 N   0  0  0  0  0  0  0  0  0  0  0  0
  -21.5692  -28.4005   20.0780 N   0  0  0  0  0  0  0  0  0  0  0  0
  -30.4629  -16.1304   20.5539 N   0  0  0  0  0  0  0  0  0  0  0  0
  -27.1618  -19.6750   16.4284 N   0  3  1  0  0  0  0  0  0  0  0  0
  -20.7009  -27.7588   16.6281 N   0  3  0  0  0  0  0  0  0  0  0  0
  -22.6994  -15.9170   17.3797 O   0  0  0  0  0  0  0  0  0  0  0  0
  -27.1186  -28.1526   22.4620 O   0  0  0  0  0  0  0  0  0  0  0  0
  -23.3597  -30.2708   21.3048 O   0  0  0  0  0  0  0  0  0  0  0  0
  -21.9347  -26.4901   18.8155 O   0  0  0  0  0  0  0  0  0  0  0  0
  -31.9814  -14.4554   20.1098 O   0  0  0  0  0  0  0  0  0  0  0  0
  -20.1420  -14.4818   23.5721 O   0  0  0  0  0  0  0  0  0  0  0  0
  -28.2281  -23.9084   18.5341 O   0  0  0  0  0  0  0  0  0  1  0  0
  -19.9218  -18.9295   26.8238 F   0  0  0  0  0  0  0  0  0  0  0  0
  -22.2412  -15.1124   25.2568 F   0  0  0  0  0  0  0  0  0  0  0  0
  1  2  1  0  0  0  0
  1  5  2  0  0  0  0
  2  6  2  0  0  0  0
  3  8  2  0  0  0  0
  3 15  1  0  0  0  0
  4  9  1  0  0  0  0
  4 15  2  0  0  0  0
  5 17  1  0  0  0  0
  6 19  1  0  0  0  0
  7 10  2  0  0  0  0
  7 18  1  0  0  0  0
  8 21  1  0  0  0  0
  9 21  2  0  0  0  0
 10 22  1  0  0  0  0
 11 12  2  0  0  0  0
 11 23  1  0  0  0  0
 12 24  1  0  0  0  0
 13 20  1  0  0  0  0
 13 22  2  0  0  0  0
 14 24  2  0  0  0  0
 14 25  1  0  0  0  0
 15 26  1  0  0  0  0
 16 26  1  0  0  0  0
 16 27  2  0  0  0  0
 16 28  1  0  0  0  0
 17 19  2  0  0  0  0
 17 33  1  0  0  0  0
 18 20  2  0  0  0  0
 18 34  1  0  0  0  0
 19 45  1  0  0  0  0
 20 35  1  0  0  0  0
 21 84  1  0  0  0  0
 22 85  1  0  0  0  0
 23 25  2  0  0  0  0
 23 84  1  0  0  0  0
 24 86  1  0  0  0  0
 25 87  1  0  0  0  0
 26 68  2  0  0  0  0
 27 69  1  0  0  0  0
 27 72  1  0  0  0  0
 28 73  1  0  0  0  0
 28 79  2  0  0  0  0
 29 46  1  0  0  0  0
 29 74  1  0  0  0  0
 29 80  2  0  0  0  0
 30 63  1  0  0  0  0
 30 70  1  0  0  0  0
 30 81  2  0  0  0  0
 31 64  1  0  0  0  0
 31 75  1  0  0  0  0
 31 82  2  0  0  0  0
 32 71  1  0  0  0  0
 32 76  1  0  0  0  0
 32 83  2  0  0  0  0
 33 36  1  0  0  0  0
 34 46  1  0  0  0  0
 35 70  1  0  0  0  0
 36 39  1  0  0  0  0
 37 40  1  0  0  0  0
 37 42  1  0  0  0  0
 38 41  1  0  0  0  0
 38 44  1  0  0  0  0
 39 45  1  0  0  0  0
 40 47  1  0  0  0  0
 41 48  1  0  0  0  0
 42 71  1  0  0  0  0
 43 47  1  0  0  0  0
 43 71  1  0  0  0  0
 44 77  1  0  0  0  0
 45 74  1  0  0  0  0
 46 70  1  0  0  0  0
 47 69  1  0  0  0  0
 48 65  1  0  0  0  0
 48 77  1  0  0  0  0
 49 64  1  0  0  0  0
 50 65  1  0  0  0  0
 51 66  1  0  0  0  0
 52 66  1  0  0  0  0
 53 66  1  0  0  0  0
 54 67  1  0  0  0  0
 55 67  1  0  0  0  0
 56 76  1  0  0  0  0
 57 78  1  0  0  0  0
 58 59  1  0  0  0  0
 58 61  1  0  0  0  0
 59 65  1  0  0  0  0
 60 62  1  0  0  0  0
 60 67  1  0  0  0  0
 61 76  1  0  0  0  0
 62 85  1  0  0  0  0
 63 66  1  0  0  0  0
 63 75  1  0  0  0  0
 64 78  1  0  0  0  0
 67 77  1  0  0  0  0
 68 69  1  0  0  0  0
M  CHG  2  77   1  78   1
M  ISO  4  32 100  62 101  76 100  85 101
M  END
> <Batch ID>
0104

> <Smiles>
CNC(C)C(=O)NC(C(=O)N1Cc2cc([101O:1][101CH2:1]CC(C)(C)N3CCCC3C(C)CCC[100N:0](C)[100C:0](=O)N3CCCC(n4nc(-c5ccc(Oc6ccc(F)cc6F)cc5)c(C(N)=O)c4N)C3)ccc2CC1C(=O)NC1CCCc2ccccc21)C(C)(C)C

> <Shape>
0.250

> <Color>
0.060

> <Negative vol penalty>
0.000

$$$$

  -OEChem-04052319433D

 82 90  0     1  0  0  0  0  0999 V2000
  -27.7369  -35.0958   22.1245 C   0  0  0  0  0  0  0  0  0  0  0  0
  -27.9268  -33.7217   22.2300 C   0  0  0  0  0  0  0  0  0  0  0  0
  -23.4510  -14.8600   24.3303 C   0  0  0  0  0  0  0  0  0  0  0  0
  -23.1922  -16.1004   22.2733 C   0  0  0  0  0  0  0  0  0  0  0  0
  -26.4718  -35.6420   22.3371 C   0  0  0  0  0  0  0  0  0  0  0  0
  -26.8517  -32.8930   22.5494 C   0  0  0  0  0  0  0  0  0  0  0  0
  -26.6660  -28.7470   19.6475 C   0  0  0  0  0  0  0  0  0  0  0  0
  -22.5722  -15.7351   24.9687 C   0  0  0  0  0  0  0  0  0  0  0  0
  -22.3134  -16.9756   22.9116 C   0  0  0  0  0  0  0  0  0  0  0  0
  -27.5468  -27.7120   19.9585 C   0  0  0  0  0  0  0  0  0  0  0  0
  -22.5156  -19.6213   25.0069 C   0  0  0  0  0  0  0  0  0  0  0  0
  -22.6865  -20.9877   24.7850 C   0  0  0  0  0  0  0  0  0  0  0  0
  -25.7666  -26.5464   21.0949 C   0  0  0  0  0  0  0  0  0  0  0  0
  -20.4543  -21.1184   23.8700 C   0  0  0  0  0  0  0  0  0  0  0  0
  -23.7611  -15.0427   22.9827 C   0  0  0  0  0  0  0  0  0  0  0  0
  -24.3423  -12.9491   21.6460 C   0  0  0  0  0  0  0  0  0  0  0  0
  -25.3787  -34.8185   22.6497 C   0  0  0  0  0  0  0  0  0  0  0  0
  -25.3292  -28.6944   20.0679 C   0  0  0  0  0  0  0  0  0  0  0  0
  -25.5711  -33.4287   22.7677 C   0  0  0  0  0  0  0  0  0  0  0  0
  -24.8701  -27.5808   20.7856 C   0  0  0  0  0  0  0  0  0  0  0  0
  -22.0034  -16.7929   24.2593 C   0  0  0  0  0  0  0  0  0  0  0  0
  -27.0979  -26.6129   20.6848 C   0  0  0  0  0  0  0  0  0  0  0  0
  -21.3140  -19.0034   24.6602 C   0  0  0  0  0  0  0  0  0  0  0  0
  -21.6559  -21.7363   24.2166 C   0  0  0  0  0  0  0  0  0  0  0  0
  -20.2834  -19.7519   24.0918 C   0  0  0  0  0  0  0  0  0  0  0  0
  -24.6693  -14.1394   22.3229 C   0  0  0  0  0  0  0  0  0  0  0  0
  -25.5482  -12.4647   21.2012 C   0  0  0  0  0  0  0  0  0  0  0  0
  -23.0630  -12.3361   21.4378 C   0  0  0  0  0  0  0  0  0  0  0  0
  -23.5035  -30.4729   21.9671 C   0  0  0  0  0  0  0  0  0  0  0  0
  -21.1582  -28.4934   20.9166 C   0  0  0  0  0  0  0  0  0  0  0  0
  -20.2966  -25.4638   19.6030 C   0  0  0  0  0  0  0  0  0  0  0  0
  -30.7840  -15.0862   19.9502 C   0  0  0  0  0  0  0  0  0  0  0  0
  -24.0401  -35.4596   22.9172 C   0  0  0  0  0  0  0  0  0  0  0  0
  -24.3850  -29.8064   19.7012 C   0  0  0  0  0  0  0  0  0  0  0  0
  -23.4396  -27.4666   21.2428 C   0  0  0  0  0  0  0  0  0  0  0  0
  -22.8750  -34.4738   22.8833 C   0  0  0  0  0  0  0  0  0  0  0  0
  -30.2089  -12.4576   22.2819 C   0  0  0  0  0  0  0  0  0  0  0  0
  -23.2127  -33.2204   23.6844 C   0  0  0  0  0  0  0  0  0  0  0  0
  -28.8737  -23.4834   19.2404 C   0  0  0  0  0  0  0  0  0  0  0  0
  -27.9229  -21.8379   20.9121 C   0  0  0  0  0  0  0  0  0  0  0  0
  -28.6945  -12.4831   22.4957 C   0  0  0  0  0  0  0  0  0  0  0  0
  -29.8862  -22.4334   18.7833 C   0  0  0  0  0  0  0  0  0  0  0  0
  -28.9357  -20.7884   20.4543 C   0  0  0  0  0  0  0  0  0  0  0  0
  -30.7777  -13.8637   22.1047 C   0  0  0  0  0  0  0  0  0  0  0  0
  -28.6136  -14.6920   21.2656 C   0  0  0  0  0  0  0  0  0  0  0  0
  -24.4246  -32.4944   23.0879 C   0  0  1  0  0  0  0  0  0  0  0  0
  -23.1722  -29.8888   20.6230 C   0  0  1  0  0  0  0  0  0  0  0  0
  -28.4494  -23.2647   20.6999 C   0  0  0  0  0  0  0  0  0  0  0  0
  -27.9861  -13.2933   21.3934 C   0  0  2  0  0  0  0  0  0  0  0  0
  -29.3445  -21.0236   19.0029 C   0  0  0  0  0  0  0  0  0  0  0  0
  -18.2995  -24.1221   18.8895 C   0  0  0  0  0  0  0  0  0  0  0  0
  -20.4904  -27.9366   23.8413 C   0  0  0  0  0  0  0  0  0  0  0  0
  -19.1874  -25.9350   23.0903 C   0  0  0  0  0  0  0  0  0  0  0  0
  -18.5009  -28.2168   22.3520 C   0  0  0  0  0  0  0  0  0  0  0  0
  -21.2624  -25.2948   16.8106 C   0  0  0  0  0  0  0  0  0  0  0  0
  -27.3995  -24.2935   21.1154 C   0  0  0  0  0  0  0  0  0  1  0  0
  -31.0571  -17.7642   18.0070 C   0  0  0  0  0  0  0  0  0  0  0  0
  -30.6272  -16.3158   17.8002 C   0  0  0  0  0  0  0  0  0  0  0  0
  -29.8917  -18.6612   18.4043 C   0  0  0  0  0  0  0  0  0  0  0  0
  -20.5873  -27.1738   21.3766 C   0  0  1  0  0  0  0  0  0  0  0  0
  -19.3867  -25.0890   18.4471 C   0  0  2  0  0  0  0  0  0  0  0  0
  -19.7190  -27.3183   22.6582 C   0  0  0  0  0  0  0  0  0  0  0  0
  -25.9801  -14.3955   22.3118 N   0  0  0  0  0  0  0  0  0  0  0  0
  -26.4875  -13.3593   21.6226 N   0  0  0  0  0  0  0  0  0  0  0  0
  -22.5565  -28.5825   20.8651 N   0  0  0  0  0  0  0  0  0  0  0  0
  -30.0636  -14.5780   21.0437 N   0  0  0  0  0  0  0  0  0  0  0  0
  -25.8860  -11.3651   20.4947 N   0  0  0  0  0  0  0  0  0  0  0  0
  -21.9266  -12.9670   21.9622 N   0  0  0  0  0  0  0  0  0  0  0  0
  -24.0368  -31.7464   21.9112 N   0  0  0  0  0  0  0  0  0  0  0  0
  -19.8750  -26.6160   20.2321 N   0  0  0  0  0  0  0  0  0  0  0  0
  -30.0298  -15.7441   18.9864 N   0  0  0  0  0  0  0  0  0  0  0  0
  -30.3974  -20.0405   18.6340 N   0  3  0  0  0  0  0  0  0  0  0  0
  -20.1728  -24.4455   17.3567 N   0  3  0  0  0  0  0  0  0  0  0  0
  -22.9333  -11.2523   20.8197 O   0  0  0  0  0  0  0  0  0  0  0  0
  -23.2895  -29.8174   22.9801 O   0  0  0  0  0  0  0  0  0  0  0  0
  -20.3917  -29.4091   20.6072 O   0  0  0  0  0  0  0  0  0  0  0  0
  -21.2806  -24.7986   19.9188 O   0  0  0  0  0  0  0  0  0  0  0  0
  -32.0079  -14.9581   19.8383 O   0  0  0  0  0  0  0  0  0  0  0  0
  -21.1456  -17.6468   24.8818 O   0  0  0  0  0  0  0  0  0  0  0  0
  -27.9558  -25.6017   20.9904 O   0  0  0  0  0  0  0  0  0  1  0  0
  -21.8196  -23.0488   24.0051 F   0  0  0  0  0  0  0  0  0  0  0  0
  -19.1264  -19.1641   23.7578 F   0  0  0  0  0  0  0  0  0  0  0  0
  1  2  1  0  0  0  0
  1  5  2  0  0  0  0
  2  6  2  0  0  0  0
  3  8  2  0  0  0  0
  3 15  1  0  0  0  0
  4  9  1  0  0  0  0
  4 15  2  0  0  0  0
  5 17  1  0  0  0  0
  6 19  1  0  0  0  0
  7 10  2  0  0  0  0
  7 18  1  0  0  0  0
  8 21  1  0  0  0  0
  9 21  2  0  0  0  0
 10 22  1  0  0  0  0
 11 12  2  0  0  0  0
 11 23  1  0  0  0  0
 12 24  1  0  0  0  0
 13 20  1  0  0  0  0
 13 22  2  0  0  0  0
 14 24  2  0  0  0  0
 14 25  1  0  0  0  0
 15 26  1  0  0  0  0
 16 26  1  0  0  0  0
 16 27  2  0  0  0  0
 16 28  1  0  0  0  0
 17 19  2  0  0  0  0
 17 33  1  0  0  0  0
 18 20  2  0  0  0  0
 18 34  1  0  0  0  0
 19 46  1  0  0  0  0
 20 35  1  0  0  0  0
 21 79  1  0  0  0  0
 22 80  1  0  0  0  0
 23 25  2  0  0  0  0
 23 79  1  0  0  0  0
 24 81  1  0  0  0  0
 25 82  1  0  0  0  0
 26 63  2  0  0  0  0
 27 64  1  0  0  0  0
 27 67  1  0  0  0  0
 28 68  1  0  0  0  0
 28 74  2  0  0  0  0
 29 47  1  0  0  0  0
 29 69  1  0  0  0  0
 29 75  2  0  0  0  0
 30 60  1  0  0  0  0
 30 65  1  0  0  0  0
 30 76  2  0  0  0  0
 31 61  1  0  0  0  0
 31 70  1  0  0  0  0
 31 77  2  0  0  0  0
 32 66  1  0  0  0  0
 32 71  1  0  0  0  0
 32 78  2  0  0  0  0
 33 36  1  0  0  0  0
 34 47  1  0  0  0  0
 35 65  1  0  0  0  0
 36 38  1  0  0  0  0
 37 41  1  0  0  0  0
 37 44  1  0  0  0  0
 38 46  1  0  0  0  0
 39 42  1  0  0  0  0
 39 48  1  0  0  0  0
 40 43  1  0  0  0  0
 40 48  1  0  0  0  0
 41 49  1  0  0  0  0
 42 50  1  0  0  0  0
 43 50  1  0  0  0  0
 44 66  1  0  0  0  0
 45 49  1  0  0  0  0
 45 66  1  0  0  0  0
 46 69  1  0  0  0  0
 47 65  1  0  0  0  0
 48 56  1  0  0  0  0
 49 64  1  0  0  0  0
 50 72  1  0  0  0  0
 51 61  1  0  0  0  0
 52 62  1  0  0  0  0
 53 62  1  0  0  0  0
 54 62  1  0  0  0  0
 55 73  1  0  0  0  0
 56 80  1  0  0  0  0
 57 58  1  0  0  0  0
 57 59  1  0  0  0  0
 58 71  1  0  0  0  0
 59 72  1  0  0  0  0
 60 62  1  0  0  0  0
 60 70  1  0  0  0  0
 61 73  1  0  0  0  0
 63 64  1  0  0  0  0
M  CHG  2  72   1  73   1
M  ISO  4  32 100  56 101  71 100  80 101
M  END
> <Batch ID>
0104

> <Smiles>
CNC(C)C(=O)NC(C(=O)N1Cc2cc([101O:1][101CH2:1]C3CCC(NCCC[100NH:0][100C:0](=O)N4CCCC(n5nc(-c6ccc(Oc7ccc(F)cc7F)cc6)c(C(N)=O)c5N)C4)CC3)ccc2CC1C(=O)NC1CCCc2ccccc21)C(C)(C)C

> <Shape>
0.250

> <Color>
0.076

> <Negative vol penalty>
0.000

$$$$

  -OEChem-04052319433D

 82 90  0     1  0  0  0  0  0999 V2000
  -31.7969  -33.0455   23.2391 C   0  0  0  0  0  0  0  0  0  0  0  0
  -32.2659  -31.7980   22.8400 C   0  0  0  0  0  0  0  0  0  0  0  0
  -23.1082   -9.7724   20.0595 C   0  0  0  0  0  0  0  0  0  0  0  0
  -23.9397   -9.9161   22.3234 C   0  0  0  0  0  0  0  0  0  0  0  0
  -30.4298  -33.3176   23.2082 C   0  0  0  0  0  0  0  0  0  0  0  0
  -31.3679  -30.8215   22.4108 C   0  0  0  0  0  0  0  0  0  0  0  0
  -32.3028  -26.6197   18.0546 C   0  0  0  0  0  0  0  0  0  0  0  0
  -22.4131   -8.6088   20.3886 C   0  0  0  0  0  0  0  0  0  0  0  0
  -23.2446   -8.7524   22.6525 C   0  0  0  0  0  0  0  0  0  0  0  0
  -32.6704  -25.2760   18.1109 C   0  0  0  0  0  0  0  0  0  0  0  0
  -20.0668   -7.8783   23.3995 C   0  0  0  0  0  0  0  0  0  0  0  0
  -19.3492   -7.8702   24.5956 C   0  0  0  0  0  0  0  0  0  0  0  0
  -30.3474  -24.6408   17.9703 C   0  0  0  0  0  0  0  0  0  0  0  0
  -20.6798   -6.0131   25.3815 C   0  0  0  0  0  0  0  0  0  0  0  0
  -23.8715  -10.4261   21.0269 C   0  0  0  0  0  0  0  0  0  0  0  0
  -24.1215  -12.9524   20.7756 C   0  0  0  0  0  0  0  0  0  0  0  0
  -29.5155  -32.3471   22.7692 C   0  0  0  0  0  0  0  0  0  0  0  0
  -30.9518  -26.9849   17.9666 C   0  0  0  0  0  0  0  0  0  0  0  0
  -29.9871  -31.0803   22.3753 C   0  0  0  0  0  0  0  0  0  0  0  0
  -29.9655  -25.9898   17.9105 C   0  0  0  0  0  0  0  0  0  0  0  0
  -22.4813   -8.0988   21.6851 C   0  0  0  0  0  0  0  0  0  0  0  0
  -31.6925  -24.2864   18.0716 C   0  0  0  0  0  0  0  0  0  0  0  0
  -21.0909   -6.9537   23.1944 C   0  0  0  0  0  0  0  0  0  0  0  0
  -19.6557   -6.9377   25.5866 C   0  0  0  0  0  0  0  0  0  0  0  0
  -21.3974   -6.0211   24.1854 C   0  0  0  0  0  0  0  0  0  0  0  0
  -24.5902  -11.6279   20.6873 C   0  0  0  0  0  0  0  0  0  0  0  0
  -25.1749  -13.7191   20.3410 C   0  0  0  0  0  0  0  0  0  0  0  0
  -22.8478  -13.4455   21.2117 C   0  0  0  0  0  0  0  0  0  0  0  0
  -28.9520  -28.6416   19.7996 C   0  0  0  0  0  0  0  0  0  0  0  0
  -26.9367  -28.2412   17.2896 C   0  0  0  0  0  0  0  0  0  0  0  0
  -26.0625  -26.4223   14.5374 C   0  0  0  0  0  0  0  0  0  0  0  0
  -30.7751  -14.6280   20.7555 C   0  0  0  0  0  0  0  0  0  0  0  0
  -28.0428  -32.6715   22.7982 C   0  0  0  0  0  0  0  0  0  0  0  0
  -30.5734  -28.4381   17.8798 C   0  0  0  0  0  0  0  0  0  0  0  0
  -28.5025  -26.3288   17.7958 C   0  0  0  0  0  0  0  0  0  0  0  0
  -27.1908  -31.7088   21.9750 C   0  0  0  0  0  0  0  0  0  0  0  0
  -29.4901  -12.4300   18.0614 C   0  0  0  0  0  0  0  0  0  0  0  0
  -27.5855  -30.2643   22.2657 C   0  0  0  0  0  0  0  0  0  0  0  0
  -28.0897  -12.0797   18.5610 C   0  0  0  0  0  0  0  0  0  0  0  0
  -31.3896  -17.5255   22.5619 C   0  0  0  0  0  0  0  0  0  0  0  0
  -29.3679  -17.8415   21.0804 C   0  0  0  0  0  0  0  0  0  0  0  0
  -30.4441  -12.7297   19.2133 C   0  0  0  0  0  0  0  0  0  0  0  0
  -30.9763  -16.0696   22.7597 C   0  0  0  0  0  0  0  0  0  0  0  0
  -29.0082  -16.3672   21.2868 C   0  0  0  0  0  0  0  0  0  0  0  0
  -28.5512  -13.4368   20.6412 C   0  0  0  0  0  0  0  0  0  0  0  0
  -29.0465  -30.0033   21.8799 C   0  0  1  0  0  0  0  0  0  0  0  0
  -29.1347  -28.7076   18.3097 C   0  0  1  0  0  0  0  0  0  0  0  0
  -27.5549  -13.1727   19.5021 C   0  0  2  0  0  0  0  0  0  0  0  0
  -30.1626  -18.3853   22.2657 C   0  0  0  0  0  0  0  0  0  0  0  0
  -24.3471  -26.3175   12.7088 C   0  0  0  0  0  0  0  0  0  0  0  0
  -24.9073  -27.1005   19.2620 C   0  0  0  0  0  0  0  0  0  0  0  0
  -23.6466  -26.1604   17.3138 C   0  0  0  0  0  0  0  0  0  0  0  0
  -23.9386  -28.6279   17.5349 C   0  0  0  0  0  0  0  0  0  0  0  0
  -28.1138  -26.7786   12.4340 C   0  0  0  0  0  0  0  0  0  0  0  0
  -30.8328  -20.5922   23.2045 C   0  0  0  0  0  0  0  0  0  0  0  0
  -31.9113  -21.1896   20.4210 C   0  0  0  0  0  0  0  0  0  0  0  0
  -33.0901  -21.2625   19.4534 C   0  0  0  0  0  0  0  0  0  0  0  0
  -31.8055  -19.8085   21.0503 C   0  0  0  0  0  0  0  0  0  0  0  0
  -33.2353  -22.6513   18.8477 C   0  0  0  0  0  0  0  0  0  1  0  0
  -25.9213  -27.1981   16.8896 C   0  0  1  0  0  0  0  0  0  0  0  0
  -25.7133  -26.8430   13.1212 C   0  0  2  0  0  0  0  0  0  0  0  0
  -24.6308  -27.2651   17.7542 C   0  0  0  0  0  0  0  0  0  0  0  0
  -25.8438  -11.5538   20.2321 N   0  0  0  0  0  0  0  0  0  0  0  0
  -26.1716  -12.8414   20.0305 N   0  0  0  0  0  0  0  0  0  0  0  0
  -28.1826  -27.7639   17.7205 N   0  0  0  0  0  0  0  0  0  0  0  0
  -29.8938  -13.7370   20.1205 N   0  0  0  0  0  0  0  0  0  0  0  0
  -30.2056  -15.5794   21.6153 N   0  0  0  0  0  0  0  0  0  0  0  0
  -25.3365  -15.0517   20.1978 N   0  0  0  0  0  0  0  0  0  0  0  0
  -21.8792  -12.5208   21.6253 N   0  0  0  0  0  0  0  0  0  0  0  0
  -29.1699  -29.8428   20.4469 N   0  0  0  0  0  0  0  0  0  0  0  0
  -25.6927  -27.3781   15.4600 N   0  0  0  0  0  0  0  0  0  0  0  0
  -26.7269  -26.3215   12.1612 N   0  3  0  0  0  0  0  0  0  0  0  0
  -30.6033  -19.7710   21.9603 N   0  3  1  0  0  0  0  0  0  0  0  0
  -22.5709  -14.6690   21.2183 O   0  0  0  0  0  0  0  0  0  0  0  0
  -28.6353  -27.5798   20.3230 O   0  0  0  0  0  0  0  0  0  0  0  0
  -26.6379  -29.4357   17.2153 O   0  0  0  0  0  0  0  0  0  0  0  0
  -26.6054  -25.3513   14.7994 O   0  0  0  0  0  0  0  0  0  0  0  0
  -31.9963  -14.5766   20.5632 O   0  0  0  0  0  0  0  0  0  0  0  0
  -21.8029   -6.9634   22.0067 O   0  0  0  0  0  0  0  0  0  0  0  0
  -32.0511  -22.9645   18.1275 O   0  0  0  0  0  0  0  0  0  1  0  0
  -18.9675   -6.9311   26.7357 F   0  0  0  0  0  0  0  0  0  0  0  0
  -22.3810   -5.1312   23.9946 F   0  0  0  0  0  0  0  0  0  0  0  0
  1  2  1  0  0  0  0
  1  5  2  0  0  0  0
  2  6  2  0  0  0  0
  3  8  2  0  0  0  0
  3 15  1  0  0  0  0
  4  9  1  0  0  0  0
  4 15  2  0  0  0  0
  5 17  1  0  0  0  0
  6 19  1  0  0  0  0
  7 10  2  0  0  0  0
  7 18  1  0  0  0  0
  8 21  1  0  0  0  0
  9 21  2  0  0  0  0
 10 22  1  0  0  0  0
 11 12  2  0  0  0  0
 11 23  1  0  0  0  0
 12 24  1  0  0  0  0
 13 20  1  0  0  0  0
 13 22  2  0  0  0  0
 14 24  2  0  0  0  0
 14 25  1  0  0  0  0
 15 26  1  0  0  0  0
 16 26  1  0  0  0  0
 16 27  2  0  0  0  0
 16 28  1  0  0  0  0
 17 19  2  0  0  0  0
 17 33  1  0  0  0  0
 18 20  2  0  0  0  0
 18 34  1  0  0  0  0
 19 46  1  0  0  0  0
 20 35  1  0  0  0  0
 21 79  1  0  0  0  0
 22 80  1  0  0  0  0
 23 25  2  0  0  0  0
 23 79  1  0  0  0  0
 24 81  1  0  0  0  0
 25 82  1  0  0  0  0
 26 63  2  0  0  0  0
 27 64  1  0  0  0  0
 27 68  1  0  0  0  0
 28 69  1  0  0  0  0
 28 74  2  0  0  0  0
 29 47  1  0  0  0  0
 29 70  1  0  0  0  0
 29 75  2  0  0  0  0
 30 60  1  0  0  0  0
 30 65  1  0  0  0  0
 30 76  2  0  0  0  0
 31 61  1  0  0  0  0
 31 71  1  0  0  0  0
 31 77  2  0  0  0  0
 32 66  1  0  0  0  0
 32 67  1  0  0  0  0
 32 78  2  0  0  0  0
 33 36  1  0  0  0  0
 34 47  1  0  0  0  0
 35 65  1  0  0  0  0
 36 38  1  0  0  0  0
 37 39  1  0  0  0  0
 37 42  1  0  0  0  0
 38 46  1  0  0  0  0
 39 48  1  0  0  0  0
 40 43  1  0  0  0  0
 40 49  1  0  0  0  0
 41 44  1  0  0  0  0
 41 49  1  0  0  0  0
 42 66  1  0  0  0  0
 43 67  1  0  0  0  0
 44 67  1  0  0  0  0
 45 48  1  0  0  0  0
 45 66  1  0  0  0  0
 46 70  1  0  0  0  0
 47 65  1  0  0  0  0
 48 64  1  0  0  0  0
 49 73  1  0  0  0  0
 50 61  1  0  0  0  0
 51 62  1  0  0  0  0
 52 62  1  0  0  0  0
 53 62  1  0  0  0  0
 54 72  1  0  0  0  0
 55 73  1  0  0  0  0
 56 57  1  0  0  0  0
 56 58  1  0  0  0  0
 57 59  1  0  0  0  0
 58 73  1  0  0  0  0
 59 80  1  0  0  0  0
 60 62  1  0  0  0  0
 60 71  1  0  0  0  0
 61 72  1  0  0  0  0
 63 64  1  0  0  0  0
M  CHG  2  72   1  73   1
M  ISO  4  32 100  59 101  67 100  80 101
M  END
> <Batch ID>
0104

> <Smiles>
CNC(C)C(=O)NC(C(=O)N1Cc2cc([101O:1][101CH2:1]CCCN(C)C3CC[100N:0]([100C:0](=O)N4CCCC(n5nc(-c6ccc(Oc7ccc(F)cc7F)cc6)c(C(N)=O)c5N)C4)CC3)ccc2CC1C(=O)NC1CCCc2ccccc21)C(C)(C)C

> <Shape>
0.256

> <Color>
0.193

> <Negative vol penalty>
0.000

$$$$

  -OEChem-04052319433D

 92100  0     1  0  0  0  0  0999 V2000
  -29.5374  -25.5814   15.3350 C   0  0  0  0  0  0  0  0  0  0  0  0
  -29.2130  -24.7933   16.4346 C   0  0  0  0  0  0  0  0  0  0  0  0
  -27.0208  -17.3761   19.3011 C   0  0  0  0  0  0  0  0  0  0  0  0
  -28.3567  -16.8986   21.2567 C   0  0  0  0  0  0  0  0  0  0  0  0
  -29.3753  -26.9648   15.3982 C   0  0  0  0  0  0  0  0  0  0  0  0
  -28.7273  -25.3883   17.5985 C   0  0  0  0  0  0  0  0  0  0  0  0
  -24.5771  -23.0725   21.4610 C   0  0  0  0  0  0  0  0  0  0  0  0
  -23.3939  -16.6356   28.7362 C   0  0  0  0  0  0  0  0  0  0  0  0
  -23.5654  -15.2537   28.6545 C   0  0  0  0  0  0  0  0  0  0  0  0
  -27.6727  -18.6005   19.1547 C   0  0  0  0  0  0  0  0  0  0  0  0
  -29.0087  -18.1230   21.1103 C   0  0  0  0  0  0  0  0  0  0  0  0
  -24.6991  -22.4025   22.6775 C   0  0  0  0  0  0  0  0  0  0  0  0
  -30.7744  -21.2802   21.4627 C   0  0  0  0  0  0  0  0  0  0  0  0
  -30.9597  -22.0570   22.6063 C   0  0  0  0  0  0  0  0  0  0  0  0
  -24.3623  -24.4834   23.8505 C   0  0  0  0  0  0  0  0  0  0  0  0
  -25.5216  -16.9645   27.6400 C   0  0  0  0  0  0  0  0  0  0  0  0
  -28.5672  -22.1539   22.9281 C   0  0  0  0  0  0  0  0  0  0  0  0
  -27.3628  -16.5252   20.3522 C   0  0  0  0  0  0  0  0  0  0  0  0
  -27.0656  -14.0243   19.9457 C   0  0  0  0  0  0  0  0  0  0  0  0
  -28.8782  -27.5761   16.5600 C   0  0  0  0  0  0  0  0  0  0  0  0
  -24.3573  -24.4571   21.4299 C   0  0  0  0  0  0  0  0  0  0  0  0
  -28.5596  -26.7812   17.6777 C   0  0  0  0  0  0  0  0  0  0  0  0
  -24.2354  -25.1682   22.6323 C   0  0  0  0  0  0  0  0  0  0  0  0
  -24.3720  -17.4910   28.2289 C   0  0  0  0  0  0  0  0  0  0  0  0
  -24.7151  -14.7273   28.0656 C   0  0  0  0  0  0  0  0  0  0  0  0
  -25.6932  -15.5827   27.5583 C   0  0  0  0  0  0  0  0  0  0  0  0
  -28.6667  -18.9739   20.0592 C   0  0  0  0  0  0  0  0  0  0  0  0
  -24.5946  -23.1083   23.8725 C   0  0  0  0  0  0  0  0  0  0  0  0
  -29.4855  -20.9404   21.0517 C   0  0  0  0  0  0  0  0  0  0  0  0
  -29.8561  -22.4938   23.3391 C   0  0  0  0  0  0  0  0  0  0  0  0
  -28.3819  -21.3772   21.7844 C   0  0  0  0  0  0  0  0  0  0  0  0
  -26.6893  -15.2605   20.5043 C   0  0  0  0  0  0  0  0  0  0  0  0
  -26.1083  -13.1431   20.3855 C   0  0  0  0  0  0  0  0  0  0  0  0
  -25.0295  -20.5264   26.4080 C   0  0  0  0  0  0  0  0  0  0  0  0
  -24.1836  -19.6119   26.9090 C   0  0  0  0  0  0  0  0  0  0  0  0
  -28.1809  -13.7015   19.1045 C   0  0  0  0  0  0  0  0  0  0  0  0
  -25.9597  -26.9578   20.2973 C   0  0  0  0  0  0  0  0  0  0  0  0
  -23.2865  -28.5735   21.1723 C   0  0  0  0  0  0  0  0  0  0  0  0
  -20.5106  -28.7254   23.1518 C   0  0  0  0  0  0  0  0  0  0  0  0
  -22.4754  -13.1101   25.1449 C   0  0  0  0  0  0  0  0  0  0  0  0
  -28.7647  -29.0795   16.5976 C   0  0  0  0  0  0  0  0  0  0  0  0
  -24.2014  -25.1608   20.1097 C   0  0  0  0  0  0  0  0  0  0  0  0
  -23.9795  -26.6523   22.6535 C   0  0  0  0  0  0  0  0  0  0  0  0
  -27.8906  -29.5961   17.7375 C   0  0  0  0  0  0  0  0  0  0  0  0
  -21.5172  -12.9602   21.7191 C   0  0  0  0  0  0  0  0  0  0  0  0
  -28.2508  -28.8980   19.0450 C   0  0  0  0  0  0  0  0  0  0  0  0
  -22.7680  -13.4212   20.9689 C   0  0  0  0  0  0  0  0  0  0  0  0
  -21.3347  -13.7188   23.0319 C   0  0  0  0  0  0  0  0  0  0  0  0
  -23.7558  -14.1551   23.1790 C   0  0  0  0  0  0  0  0  0  0  0  0
  -28.0065  -27.3872   18.9493 C   0  0  1  0  0  0  0  0  0  0  0  0
  -24.4915  -26.6563   20.1917 C   0  0  1  0  0  0  0  0  0  0  0  0
  -24.0128  -13.3796   21.8756 C   0  0  2  0  0  0  0  0  0  0  0  0
  -18.5361  -30.1860   23.6671 C   0  0  0  0  0  0  0  0  0  0  0  0
  -23.9790  -11.0329   27.1421 C   0  0  0  0  0  0  0  0  0  0  0  0
  -22.8307  -19.4393   28.9459 C   0  0  0  0  0  0  0  0  0  0  0  0
  -25.2872  -19.5859   29.2444 C   0  0  0  0  0  0  0  0  0  0  0  0
  -25.0923  -30.4497   22.7626 C   0  0  0  0  0  0  0  0  0  0  0  0
  -23.0604  -31.2605   23.9801 C   0  0  0  0  0  0  0  0  0  0  0  0
  -23.2477  -31.5868   21.5141 C   0  0  0  0  0  0  0  0  0  0  0  0
  -18.5954  -26.6289   22.3182 C   0  0  0  0  0  0  0  0  0  0  0  0
  -31.5125  -13.0226   27.7654 C   0  0  0  0  0  0  0  0  0  0  0  0
  -30.5565  -14.6781   29.3609 C   0  0  0  0  0  0  0  0  0  0  0  0
  -24.8772  -13.2445   27.9906 C   0  0  0  0  0  0  0  0  0  0  0  0
  -26.9324  -15.0418   26.9238 C   0  0  0  0  0  0  0  0  0  0  0  0
  -24.9454  -21.0497   25.0104 C   0  0  0  0  0  0  0  0  0  1  0  0
  -28.0104  -14.5836   27.9240 C   0  0  0  0  0  0  0  0  0  0  0  0
  -29.3034  -14.0722   27.2962 C   0  0  0  0  0  0  0  0  0  0  0  0
  -22.8207  -29.2688   22.4288 C   0  0  1  0  0  0  0  0  0  0  0  0
  -19.0588  -29.0294   22.8292 C   0  0  2  0  0  0  0  0  0  0  0  0
  -23.7596  -12.5417   27.1911 C   0  0  1  0  0  0  0  0  0  0  0  0
  -24.1823  -19.0183   28.3197 C   0  0  0  0  0  0  0  0  0  0  0  0
  -23.5620  -30.6138   22.6713 C   0  0  0  0  0  0  0  0  0  0  0  0
  -25.5794  -15.1762   21.2426 N   0  0  0  0  0  0  0  0  0  0  0  0
  -25.2500  -13.8765   21.1508 N   0  0  0  0  0  0  0  0  0  0  0  0
  -23.8408  -27.2962   21.3368 N   0  0  0  0  0  0  0  0  0  0  0  0
  -22.5501  -13.6389   23.8458 N   0  0  0  0  0  0  0  0  0  0  0  0
  -25.9254  -11.8202   20.1884 N   0  0  0  0  0  0  0  0  0  0  0  0
  -29.0677  -14.7266   18.7480 N   0  0  0  0  0  0  0  0  0  0  0  0
  -26.5950  -27.0944   19.0778 N   0  0  0  0  0  0  0  0  0  0  0  0
  -21.3723  -29.3976   22.3110 N   0  0  0  0  0  0  0  0  0  0  0  0
  -23.6743  -13.0646   25.8458 N   0  0  0  0  0  0  0  0  0  0  0  0
  -18.2081  -27.8349   23.0944 N   0  3  0  0  0  0  0  0  0  0  0  0
  -30.2457  -13.6088   28.3412 N   0  3  0  0  0  0  0  0  0  0  0  0
  -28.3758  -12.5417   18.6680 O   0  0  0  0  0  0  0  0  0  0  0  0
  -26.4774  -27.0605   21.4032 O   0  0  0  0  0  0  0  0  0  0  0  0
  -23.1565  -29.1398   20.0842 O   0  0  0  0  0  0  0  0  0  0  0  0
  -20.8469  -27.9703   24.0614 O   0  0  0  0  0  0  0  0  0  0  0  0
  -21.4194  -12.7034   25.6414 O   0  0  0  0  0  0  0  0  0  0  0  0
  -29.3032  -20.1685   19.9165 O   0  0  0  0  0  0  0  0  0  0  0  0
  -24.7139  -22.4569   25.0613 O   0  0  0  0  0  0  0  0  0  1  0  0
  -30.0342  -23.2384   24.4382 F   0  0  0  0  0  0  0  0  0  0  0  0
  -27.1413  -21.0529   21.3952 F   0  0  0  0  0  0  0  0  0  0  0  0
  1  2  1  0  0  0  0
  1  5  2  0  0  0  0
  2  6  2  0  0  0  0
  3 10  2  0  0  0  0
  3 18  1  0  0  0  0
  4 11  1  0  0  0  0
  4 18  2  0  0  0  0
  5 20  1  0  0  0  0
  6 22  1  0  0  0  0
  7 12  2  0  0  0  0
  7 21  1  0  0  0  0
  8  9  2  0  0  0  0
  8 24  1  0  0  0  0
  9 25  1  0  0  0  0
 10 27  1  0  0  0  0
 11 27  2  0  0  0  0
 12 28  1  0  0  0  0
 13 14  2  0  0  0  0
 13 29  1  0  0  0  0
 14 30  1  0  0  0  0
 15 23  1  0  0  0  0
 15 28  2  0  0  0  0
 16 24  2  0  0  0  0
 16 26  1  0  0  0  0
 17 30  2  0  0  0  0
 17 31  1  0  0  0  0
 18 32  1  0  0  0  0
 19 32  1  0  0  0  0
 19 33  2  0  0  0  0
 19 36  1  0  0  0  0
 20 22  2  0  0  0  0
 20 41  1  0  0  0  0
 21 23  2  0  0  0  0
 21 42  1  0  0  0  0
 22 50  1  0  0  0  0
 23 43  1  0  0  0  0
 24 71  1  0  0  0  0
 25 26  2  0  0  0  0
 25 63  1  0  0  0  0
 26 64  1  0  0  0  0
 27 89  1  0  0  0  0
 28 90  1  0  0  0  0
 29 31  2  0  0  0  0
 29 89  1  0  0  0  0
 30 91  1  0  0  0  0
 31 92  1  0  0  0  0
 32 73  2  0  0  0  0
 33 74  1  0  0  0  0
 33 77  1  0  0  0  0
 34 35  2  0  0  0  0
 34 65  1  0  0  0  0
 35 71  1  0  0  0  0
 36 78  1  0  0  0  0
 36 84  2  0  0  0  0
 37 51  1  0  0  0  0
 37 79  1  0  0  0  0
 37 85  2  0  0  0  0
 38 68  1  0  0  0  0
 38 75  1  0  0  0  0
 38 86  2  0  0  0  0
 39 69  1  0  0  0  0
 39 80  1  0  0  0  0
 39 87  2  0  0  0  0
 40 76  1  0  0  0  0
 40 81  1  0  0  0  0
 40 88  2  0  0  0  0
 41 44  1  0  0  0  0
 42 51  1  0  0  0  0
 43 75  1  0  0  0  0
 44 46  1  0  0  0  0
 45 47  1  0  0  0  0
 45 48  1  0  0  0  0
 46 50  1  0  0  0  0
 47 52  1  0  0  0  0
 48 76  1  0  0  0  0
 49 52  1  0  0  0  0
 49 76  1  0  0  0  0
 50 79  1  0  0  0  0
 51 75  1  0  0  0  0
 52 74  1  0  0  0  0
 53 69  1  0  0  0  0
 54 70  1  0  0  0  0
 55 71  1  0  0  0  0
 56 71  1  0  0  0  0
 57 72  1  0  0  0  0
 58 72  1  0  0  0  0
 59 72  1  0  0  0  0
 60 82  1  0  0  0  0
 61 83  1  0  0  0  0
 62 83  1  0  0  0  0
 63 70  1  0  0  0  0
 64 66  1  0  0  0  0
 65 90  1  0  0  0  0
 66 67  1  0  0  0  0
 67 83  1  0  0  0  0
 68 72  1  0  0  0  0
 68 80  1  0  0  0  0
 69 82  1  0  0  0  0
 70 81  1  0  0  0  0
 73 74  1  0  0  0  0
M  CHG  2  82   1  83   1
M  ISO  4  40 100  65 101  81 100  90 101
M  END
> <Batch ID>
0104

> <Smiles>
CNC(C)C(=O)NC(C(=O)N1Cc2cc([101O:1][101CH2:1]C=CC(C)(C)c3ccc(CC(C)[100NH:0][100C:0](=O)N4CCCC(n5nc(-c6ccc(Oc7ccc(F)cc7F)cc6)c(C(N)=O)c5N)C4)c(CCCN(C)C)c3)ccc2CC1C(=O)NC1CCCc2ccccc21)C(C)(C)C

> <Shape>
0.208

> <Color>
0.061

> <Negative vol penalty>
0.000

$$$$
